MODEL 1
USER: ADFR SOLUTION from run 189
USER: SCORE 9.986088 LL:  -2.607 LR:  -8.660 RR:   0.000 FEB:  -4.782
USER: RMSD 9.248188
USER: SEED 188
USER: STATUS no improvement in best in 39 clusters for 5 generations
USER: GENES 15
USER: genes 0 Translation |==|  0.29237 0.32438 0.23556
USER: genes 1 Rotation |==|  0.25178 0.89063 0.33126 0.58558
USER: genes 2 Torsion [C]-N--CA-[CB] |==|  0.51668
USER: genes 3 Torsion [N]-CA--C-[N] |==|  0.83863
USER: genes 4 Torsion [C]-N--CA-[CB] |==|  0.82021
USER: genes 5 Torsion [N]-CA--CB-[CG] |==|  0.64646
USER: genes 6 Torsion [CA]-CB--CG-[OD1] |==|  0.35244
USER: genes 7 Torsion [N]-CA--C-[O] |==|  0.06858
USER: genes 8 Torsion [N]-CA--CB-[CG2] |==|  0.78687
USER: genes 9 Torsion [N]-C--CA-[N] |==|  0.44405
USER: genes 10 Torsion [C]-CA--N-[C] |==|  0.66964
USER: genes 11 Torsion [N]-C--CA-[N] |==|  0.46773
USER: genes 12 Torsion [C]-CA--CB-[CG] |==|  0.40732
USER: genes 13 Torsion [CA]-CB--CG-[CD2] |==|  0.23906
USER: genes 14 Torsion [C]-CA--CB-[CG2] |==|  0.22356
ROOT
ATOM      1  C   VAL D4842     -61.400  24.669  35.113  1.00 57.35 LIG 0.24  C 
ATOM      2 O    VAL D4842     -62.218  25.362  35.731  1.00 61.28 LIG-0.27  OA
ATOM      3  N   VAL D4843     -60.287  24.209  35.669  1.00 52.36 LIG-0.35  N 
ATOM      4 H    VAL D4843     -59.802  23.596  35.310  1.00 52.36 LIG 0.16  HD
ENDROOT
BRANCH 3 5
ATOM      5  CA  VAL D4843     -59.767  24.691  36.941  1.00 37.99 LIG 0.18  C 
BRANCH 5 6
ATOM      6  C   VAL D4843     -59.663  26.224  36.747  1.00 51.29 LIG 0.24  C 
ATOM      7  N   ASN D4844     -58.915  26.702  35.761  1.00 50.43 LIG-0.35  N 
ATOM      8 H    ASN D4844     -58.487  26.228  35.185  1.00 50.43 LIG 0.16  HD
ATOM      9 O    VAL D4843     -60.264  26.992  37.511  1.00 47.22 LIG-0.27  OA
BRANCH 7 10
ATOM     10  CA  ASN D4844     -58.786  28.159  35.610  1.00 46.88 LIG 0.17  C 
BRANCH 10 11
ATOM     11  CB  ASN D4844     -60.138  28.780  35.261  1.00 66.72 LIG 0.14  C 
BRANCH 11 12
ATOM     12  CG  ASN D4844     -60.080  29.654  34.023  1.00 62.42 LIG 0.22  C 
ATOM     13 OD1  ASN D4844     -60.855  29.481  33.080  1.00 56.11 LIG-0.27  OA
ATOM     14  ND2 ASN D4844     -59.152  30.604  34.024  1.00 67.26 LIG-0.37  N 
ATOM     15 21HD ASN D4844     -59.075  31.130  33.347  1.00 67.26 LIG 0.16  HD
ATOM     16 22HD ASN D4844     -58.629  30.694  34.701  1.00 67.26 LIG 0.16  HD
ENDBRANCH 11 12
ENDBRANCH 10 11
BRANCH 10 17
ATOM     17  C   ASN D4844     -58.144  28.898  36.797  1.00 52.57 LIG 0.22  C 
ATOM     18 O    ASN D4844     -57.375  28.317  37.580  1.00 48.91 LIG-0.29  OA
ENDBRANCH 10 17
ENDBRANCH 7 10
ENDBRANCH 5 6
BRANCH 5 19
ATOM     19  CB  VAL D4843     -58.377  24.022  37.173  1.00 37.59 LIG 0.01  C 
ATOM     20  CG1 VAL D4843     -57.525  24.799  38.136  1.00 42.19 LIG 0.01  C 
ATOM     21  CG2 VAL D4843     -58.536  22.567  37.623  1.00 33.91 LIG 0.01  C 
ENDBRANCH 5 19
ENDBRANCH 3 5
BRANCH 1 22
ATOM     22  CA  VAL D4842     -61.631  24.232  33.654  1.00 42.26 LIG 0.18  C 
BRANCH 22 23
ATOM     23  N   VAL D4842     -63.009  24.319  33.162  1.00 51.43 LIG-0.34  N 
ATOM     24 H    VAL D4842     -63.334  25.115  33.172  1.00 51.43 LIG 0.16  HD
ATOM     25  C   LEU D4841     -63.688  23.254  32.740  1.00 54.30 LIG 0.26  C 
ATOM     26 O    LEU D4841     -64.775  23.339  32.173  1.00 66.57 LIG-0.27  OA
BRANCH 25 27
ATOM     27  CA  LEU D4841     -63.032  21.899  32.956  1.00 50.85 LIG 0.40  C 
ATOM     28  N   LEU D4841     -63.986  20.814  32.705  1.00 66.18 LIG 0.61  N 
BRANCH 27 29
ATOM     29  CB  LEU D4841     -61.809  21.746  32.043  1.00 58.40 LIG 0.06  C 
BRANCH 29 30
ATOM     30  CG  LEU D4841     -60.631  20.931  32.592  1.00 54.26 LIG-0.02  C 
ATOM     31  CD2 LEU D4841     -60.790  19.414  32.330  1.00 54.78 LIG 0.01  C 
ATOM     32  CD1 LEU D4841     -60.388  21.219  34.079  1.00 32.44 LIG 0.01  C 
ENDBRANCH 29 30
ENDBRANCH 27 29
ENDBRANCH 25 27
ENDBRANCH 22 23
BRANCH 22 33
ATOM     33  CB  VAL D4842     -60.635  24.948  32.705  1.00 48.47 LIG 0.01  C 
ATOM     34  CG2 VAL D4842     -59.290  24.277  32.719  1.00 42.42 LIG 0.01  C 
ATOM     35  CG1 VAL D4842     -60.494  26.401  33.126  1.00 34.87 LIG 0.01  C 
ENDBRANCH 22 33
ENDBRANCH 1 22
TORSDOF 13
ENDMDL
MODEL 2
USER: ADFR SOLUTION from run 91
USER: SCORE 8.912452 LL:  -1.823 LR:  -8.616 RR:   0.000 FEB:  -4.738
USER: RMSD 8.365306
USER: SEED 90
USER: STATUS no improvement in best in 14 clusters for 5 generations
USER: GENES 15
USER: genes 0 Translation |==|  0.35713 0.35984 0.28700
USER: genes 1 Rotation |==|  0.29876 0.82602 0.55830 0.81594
USER: genes 2 Torsion [C]-N--CA-[CB] |==|  0.28315
USER: genes 3 Torsion [N]-CA--C-[N] |==|  0.95000
USER: genes 4 Torsion [C]-N--CA-[CB] |==|  0.78680
USER: genes 5 Torsion [N]-CA--CB-[CG] |==|  0.82078
USER: genes 6 Torsion [CA]-CB--CG-[OD1] |==|  0.07253
USER: genes 7 Torsion [N]-CA--C-[O] |==|  0.26417
USER: genes 8 Torsion [N]-CA--CB-[CG2] |==|  0.81310
USER: genes 9 Torsion [N]-C--CA-[N] |==|  0.18096
USER: genes 10 Torsion [C]-CA--N-[C] |==|  0.12901
USER: genes 11 Torsion [N]-C--CA-[N] |==|  0.20410
USER: genes 12 Torsion [C]-CA--CB-[CG] |==|  0.43493
USER: genes 13 Torsion [CA]-CB--CG-[CD2] |==|  0.57183
USER: genes 14 Torsion [C]-CA--CB-[CG2] |==|  0.53171
ROOT
ATOM      1  C   VAL D4842     -60.040  25.254  35.885  1.00 57.35 LIG 0.24  C 
ATOM      2 O    VAL D4842     -61.132  24.750  36.175  1.00 61.28 LIG-0.27  OA
ATOM      3  N   VAL D4843     -58.885  24.752  36.302  1.00 52.36 LIG-0.35  N 
ATOM      4 H    VAL D4843     -58.126  24.987  35.975  1.00 52.36 LIG 0.16  HD
ENDROOT
BRANCH 3 5
ATOM      5  CA  VAL D4843     -58.780  23.752  37.355  1.00 37.99 LIG 0.18  C 
BRANCH 5 6
ATOM      6  C   VAL D4843     -57.566  24.219  38.195  1.00 51.29 LIG 0.24  C 
ATOM      7  N   ASN D4844     -56.706  25.082  37.668  1.00 50.43 LIG-0.35  N 
ATOM      8 H    ASN D4844     -56.772  25.437  36.888  1.00 50.43 LIG 0.16  HD
ATOM      9 O    VAL D4843     -57.396  23.783  39.343  1.00 47.22 LIG-0.27  OA
BRANCH 7 10
ATOM     10  CA  ASN D4844     -55.533  25.487  38.456  1.00 46.88 LIG 0.17  C 
BRANCH 10 11
ATOM     11  CB  ASN D4844     -55.935  26.497  39.530  1.00 66.72 LIG 0.14  C 
BRANCH 11 12
ATOM     12  CG  ASN D4844     -56.444  27.801  38.947  1.00 62.42 LIG 0.22  C 
ATOM     13 OD1  ASN D4844     -56.954  27.845  37.825  1.00 56.11 LIG-0.27  OA
ATOM     14  ND2 ASN D4844     -56.307  28.876  39.715  1.00 67.26 LIG-0.37  N 
ATOM     15 21HD ASN D4844     -56.579  29.642  39.435  1.00 67.26 LIG 0.16  HD
ATOM     16 22HD ASN D4844     -55.945  28.805  40.492  1.00 67.26 LIG 0.16  HD
ENDBRANCH 11 12
ENDBRANCH 10 11
BRANCH 10 17
ATOM     17  C   ASN D4844     -54.717  24.339  39.075  1.00 52.57 LIG 0.22  C 
ATOM     18 O    ASN D4844     -53.717  23.875  38.504  1.00 48.91 LIG-0.29  OA
ENDBRANCH 10 17
ENDBRANCH 7 10
ENDBRANCH 5 6
BRANCH 5 19
ATOM     19  CB  VAL D4843     -58.540  22.368  36.677  1.00 37.59 LIG 0.01  C 
ATOM     20  CG1 VAL D4843     -58.119  21.315  37.663  1.00 42.19 LIG 0.01  C 
ATOM     21  CG2 VAL D4843     -59.773  21.924  35.884  1.00 33.91 LIG 0.01  C 
ENDBRANCH 5 19
ENDBRANCH 3 5
BRANCH 1 22
ATOM     22  CA  VAL D4842     -59.923  26.485  34.965  1.00 42.26 LIG 0.18  C 
BRANCH 22 23
ATOM     23  N   VAL D4842     -59.290  26.261  33.662  1.00 51.43 LIG-0.34  N 
ATOM     24 H    VAL D4842     -58.699  26.852  33.455  1.00 51.43 LIG 0.16  HD
ATOM     25  C   LEU D4841     -59.607  25.233  32.878  1.00 54.30 LIG 0.26  C 
ATOM     26 O    LEU D4841     -58.969  24.943  31.868  1.00 66.57 LIG-0.27  OA
BRANCH 25 27
ATOM     27  CA  LEU D4841     -60.795  24.387  33.312  1.00 50.85 LIG 0.40  C 
ATOM     28  N   LEU D4841     -62.053  25.103  33.080  1.00 66.18 LIG 0.61  N 
BRANCH 27 29
ATOM     29  CB  LEU D4841     -60.802  23.052  32.558  1.00 58.40 LIG 0.06  C 
BRANCH 29 30
ATOM     30  CG  LEU D4841     -61.546  21.885  33.220  1.00 54.26 LIG-0.02  C 
ATOM     31  CD2 LEU D4841     -60.998  20.508  32.776  1.00 54.78 LIG 0.01  C 
ATOM     32  CD1 LEU D4841     -63.061  21.982  32.997  1.00 32.44 LIG 0.01  C 
ENDBRANCH 29 30
ENDBRANCH 27 29
ENDBRANCH 25 27
ENDBRANCH 22 23
BRANCH 22 33
ATOM     33  CB  VAL D4842     -61.294  27.195  34.824  1.00 48.47 LIG 0.01  C 
ATOM     34  CG2 VAL D4842     -61.267  28.221  33.726  1.00 42.42 LIG 0.01  C 
ATOM     35  CG1 VAL D4842     -61.657  27.857  36.143  1.00 34.87 LIG 0.01  C 
ENDBRANCH 22 33
ENDBRANCH 1 22
TORSDOF 13
ENDMDL
MODEL 3
USER: ADFR SOLUTION from run 196
USER: SCORE 9.593031 LL:  -2.747 LR:  -8.556 RR:   0.000 FEB:  -4.679
USER: RMSD 8.424090
USER: SEED 195
USER: STATUS no improvement in best in 19 clusters for 5 generations
USER: GENES 15
USER: genes 0 Translation |==|  0.39205 0.33865 0.34963
USER: genes 1 Rotation |==|  0.08373 0.73511 0.36253 0.55045
USER: genes 2 Torsion [C]-N--CA-[CB] |==|  0.43333
USER: genes 3 Torsion [N]-CA--C-[N] |==|  0.92624
USER: genes 4 Torsion [C]-N--CA-[CB] |==|  0.79238
USER: genes 5 Torsion [N]-CA--CB-[CG] |==|  0.81402
USER: genes 6 Torsion [CA]-CB--CG-[OD1] |==|  0.97249
USER: genes 7 Torsion [N]-CA--C-[O] |==|  0.44557
USER: genes 8 Torsion [N]-CA--CB-[CG2] |==|  0.86102
USER: genes 9 Torsion [N]-C--CA-[N] |==|  0.85734
USER: genes 10 Torsion [C]-CA--N-[C] |==|  0.64478
USER: genes 11 Torsion [N]-C--CA-[N] |==|  0.27859
USER: genes 12 Torsion [C]-CA--CB-[CG] |==|  0.35617
USER: genes 13 Torsion [CA]-CB--CG-[CD2] |==|  0.04286
USER: genes 14 Torsion [C]-CA--CB-[CG2] |==|  0.43209
ROOT
ATOM      1  C   VAL D4842     -59.307  24.905  36.824  1.00 57.35 LIG 0.24  C 
ATOM      2 O    VAL D4842     -60.265  25.024  37.598  1.00 61.28 LIG-0.27  OA
ATOM      3  N   VAL D4843     -58.175  25.581  36.975  1.00 52.36 LIG-0.35  N 
ATOM      4 H    VAL D4843     -57.452  25.385  36.554  1.00 52.36 LIG 0.16  HD
ENDROOT
BRANCH 3 5
ATOM      5  CA  VAL D4843     -58.037  26.722  37.869  1.00 37.99 LIG 0.18  C 
BRANCH 5 6
ATOM      6  C   VAL D4843     -58.543  27.920  37.029  1.00 51.29 LIG 0.24  C 
ATOM      7  N   ASN D4844     -58.461  27.864  35.705  1.00 50.43 LIG-0.35  N 
ATOM      8 H    ASN D4844     -58.165  27.196  35.253  1.00 50.43 LIG 0.16  HD
ATOM      9 O    VAL D4843     -59.012  28.922  37.589  1.00 47.22 LIG-0.27  OA
BRANCH 7 10
ATOM     10  CA  ASN D4844     -58.903  29.023  34.917  1.00 46.88 LIG 0.17  C 
BRANCH 10 11
ATOM     11  CB  ASN D4844     -60.430  29.098  34.891  1.00 66.72 LIG 0.14  C 
BRANCH 11 12
ATOM     12  CG  ASN D4844     -61.061  27.948  34.131  1.00 62.42 LIG 0.22  C 
ATOM     13 OD1  ASN D4844     -60.378  27.174  33.458  1.00 56.11 LIG-0.27  OA
ATOM     14  ND2 ASN D4844     -62.380  27.832  34.239  1.00 67.26 LIG-0.37  N 
ATOM     15 21HD ASN D4844     -62.790  27.197  33.829  1.00 67.26 LIG 0.16  HD
ATOM     16 22HD ASN D4844     -62.823  28.393  34.718  1.00 67.26 LIG 0.16  HD
ENDBRANCH 11 12
ENDBRANCH 10 11
BRANCH 10 17
ATOM     17  C   ASN D4844     -58.304  30.379  35.329  1.00 52.57 LIG 0.22  C 
ATOM     18 O    ASN D4844     -58.303  31.348  34.554  1.00 48.91 LIG-0.29  OA
ENDBRANCH 10 17
ENDBRANCH 7 10
ENDBRANCH 5 6
BRANCH 5 19
ATOM     19  CB  VAL D4843     -56.529  26.852  38.247  1.00 37.59 LIG 0.01  C 
ATOM     20  CG1 VAL D4843     -56.287  27.934  39.261  1.00 42.19 LIG 0.01  C 
ATOM     21  CG2 VAL D4843     -55.964  25.511  38.722  1.00 33.91 LIG 0.01  C 
ENDBRANCH 5 19
ENDBRANCH 3 5
BRANCH 1 22
ATOM     22  CA  VAL D4842     -59.324  23.915  35.643  1.00 42.26 LIG 0.18  C 
BRANCH 22 23
ATOM     23  N   VAL D4842     -58.922  24.455  34.341  1.00 51.43 LIG-0.34  N 
ATOM     24 H    VAL D4842     -58.165  24.864  34.351  1.00 51.43 LIG 0.16  HD
ATOM     25  C   LEU D4841     -59.668  24.319  33.247  1.00 54.30 LIG 0.26  C 
ATOM     26 O    LEU D4841     -59.267  24.618  32.124  1.00 66.57 LIG-0.27  OA
BRANCH 25 27
ATOM     27  CA  LEU D4841     -61.057  23.727  33.440  1.00 50.85 LIG 0.40  C 
ATOM     28  N   LEU D4841     -62.074  24.784  33.452  1.00 66.18 LIG 0.61  N 
BRANCH 27 29
ATOM     29  CB  LEU D4841     -61.364  22.715  32.330  1.00 58.40 LIG 0.06  C 
BRANCH 29 30
ATOM     30  CG  LEU D4841     -61.846  21.327  32.771  1.00 54.26 LIG-0.02  C 
ATOM     31  CD2 LEU D4841     -62.302  21.303  34.250  1.00 54.78 LIG 0.01  C 
ATOM     32  CD1 LEU D4841     -60.790  20.248  32.495  1.00 32.44 LIG 0.01  C 
ENDBRANCH 29 30
ENDBRANCH 27 29
ENDBRANCH 25 27
ENDBRANCH 22 23
BRANCH 22 33
ATOM     33  CB  VAL D4842     -58.540  22.626  35.998  1.00 48.47 LIG 0.01  C 
ATOM     34  CG2 VAL D4842     -59.008  21.458  35.175  1.00 42.42 LIG 0.01  C 
ATOM     35  CG1 VAL D4842     -58.715  22.321  37.477  1.00 34.87 LIG 0.01  C 
ENDBRANCH 22 33
ENDBRANCH 1 22
TORSDOF 13
ENDMDL
MODEL 4
USER: ADFR SOLUTION from run 108
USER: SCORE 9.982504 LL:  -2.669 LR:  -8.544 RR:   0.000 FEB:  -4.666
USER: RMSD 9.294926
USER: SEED 107
USER: STATUS no improvement in best in 34 clusters for 5 generations
USER: GENES 15
USER: genes 0 Translation |==|  0.28891 0.30843 0.24546
USER: genes 1 Rotation |==|  0.26951 0.91149 0.38292 0.61763
USER: genes 2 Torsion [C]-N--CA-[CB] |==|  0.52236
USER: genes 3 Torsion [N]-CA--C-[N] |==|  0.83205
USER: genes 4 Torsion [C]-N--CA-[CB] |==|  0.17555
USER: genes 5 Torsion [N]-CA--CB-[CG] |==|  0.19754
USER: genes 6 Torsion [CA]-CB--CG-[OD1] |==|  0.37771
USER: genes 7 Torsion [N]-CA--C-[O] |==|  0.20801
USER: genes 8 Torsion [N]-CA--CB-[CG2] |==|  0.82549
USER: genes 9 Torsion [N]-C--CA-[N] |==|  0.42748
USER: genes 10 Torsion [C]-CA--N-[C] |==|  0.70845
USER: genes 11 Torsion [N]-C--CA-[N] |==|  0.45898
USER: genes 12 Torsion [C]-CA--CB-[CG] |==|  0.42041
USER: genes 13 Torsion [CA]-CB--CG-[CD2] |==|  0.15150
USER: genes 14 Torsion [C]-CA--CB-[CG2] |==|  0.21490
ROOT
ATOM      1  C   VAL D4842     -61.473  24.406  35.262  1.00 57.35 LIG 0.24  C 
ATOM      2 O    VAL D4842     -62.285  24.928  36.036  1.00 61.28 LIG-0.27  OA
ATOM      3  N   VAL D4843     -60.373  23.795  35.682  1.00 52.36 LIG-0.35  N 
ATOM      4 H    VAL D4843     -59.895  23.289  35.177  1.00 52.36 LIG 0.16  HD
ENDROOT
BRANCH 3 5
ATOM      5  CA  VAL D4843     -59.858  23.916  37.038  1.00 37.99 LIG 0.18  C 
BRANCH 5 6
ATOM      6  C   VAL D4843     -59.775  25.444  37.274  1.00 51.29 LIG 0.24  C 
ATOM      7  N   ASN D4844     -58.999  26.180  36.488  1.00 50.43 LIG-0.35  N 
ATOM      8 H    ASN D4844     -58.540  25.884  35.824  1.00 50.43 LIG 0.16  HD
ATOM      9 O    VAL D4843     -60.421  25.970  38.192  1.00 47.22 LIG-0.27  OA
BRANCH 7 10
ATOM     10  CA  ASN D4844     -58.892  27.623  36.746  1.00 46.88 LIG 0.17  C 
BRANCH 10 11
ATOM     11  CB  ASN D4844     -58.268  27.874  38.118  1.00 66.72 LIG 0.14  C 
BRANCH 11 12
ATOM     12  CG  ASN D4844     -56.791  27.533  38.162  1.00 62.42 LIG 0.22  C 
ATOM     13 OD1  ASN D4844     -55.977  28.280  38.708  1.00 56.11 LIG-0.27  OA
ATOM     14  ND2 ASN D4844     -56.440  26.392  37.580  1.00 67.26 LIG-0.37  N 
ATOM     15 21HD ASN D4844     -55.614  26.148  37.575  1.00 67.26 LIG 0.16  HD
ATOM     16 22HD ASN D4844     -57.037  25.897  37.208  1.00 67.26 LIG 0.16  HD
ENDBRANCH 11 12
ENDBRANCH 10 11
BRANCH 10 17
ATOM     17  C   ASN D4844     -58.164  28.441  35.665  1.00 52.57 LIG 0.22  C 
ATOM     18 O    ASN D4844     -58.707  28.706  34.580  1.00 48.91 LIG-0.29  OA
ENDBRANCH 10 17
ENDBRANCH 7 10
ENDBRANCH 5 6
BRANCH 5 19
ATOM     19  CB  VAL D4843     -58.457  23.228  37.080  1.00 37.59 LIG 0.01  C 
ATOM     20  CG1 VAL D4843     -57.747  23.460  38.384  1.00 42.19 LIG 0.01  C 
ATOM     21  CG2 VAL D4843     -58.570  21.733  36.768  1.00 33.91 LIG 0.01  C 
ENDBRANCH 5 19
ENDBRANCH 3 5
BRANCH 1 22
ATOM     22  CA  VAL D4842     -61.697  24.373  33.738  1.00 42.26 LIG 0.18  C 
BRANCH 22 23
ATOM     23  N   VAL D4842     -63.088  24.477  33.285  1.00 51.43 LIG-0.34  N 
ATOM     24 H    VAL D4842     -63.416  25.269  33.344  1.00 51.43 LIG 0.16  HD
ATOM     25  C   LEU D4841     -63.772  23.431  32.826  1.00 54.30 LIG 0.26  C 
ATOM     26 O    LEU D4841     -64.873  23.537  32.291  1.00 66.57 LIG-0.27  OA
BRANCH 25 27
ATOM     27  CA  LEU D4841     -63.104  22.070  32.957  1.00 50.85 LIG 0.40  C 
ATOM     28  N   LEU D4841     -64.076  20.993  32.747  1.00 66.18 LIG 0.61  N 
BRANCH 27 29
ATOM     29  CB  LEU D4841     -61.952  21.942  31.952  1.00 58.40 LIG 0.06  C 
BRANCH 29 30
ATOM     30  CG  LEU D4841     -60.789  21.023  32.344  1.00 54.26 LIG-0.02  C 
ATOM     31  CD2 LEU D4841     -61.261  19.594  32.706  1.00 54.78 LIG 0.01  C 
ATOM     32  CD1 LEU D4841     -59.941  21.632  33.468  1.00 32.44 LIG 0.01  C 
ENDBRANCH 29 30
ENDBRANCH 27 29
ENDBRANCH 25 27
ENDBRANCH 22 23
BRANCH 22 33
ATOM     33  CB  VAL D4842     -60.783  25.404  33.028  1.00 48.47 LIG 0.01  C 
ATOM     34  CG2 VAL D4842     -59.369  24.902  32.927  1.00 42.42 LIG 0.01  C 
ATOM     35  CG1 VAL D4842     -60.812  26.716  33.795  1.00 34.87 LIG 0.01  C 
ENDBRANCH 22 33
ENDBRANCH 1 22
TORSDOF 13
ENDMDL
MODEL 5
USER: ADFR SOLUTION from run 38
USER: SCORE 9.616435 LL:  -2.413 LR:  -8.477 RR:   0.000 FEB:  -4.599
USER: RMSD 8.673651
USER: SEED 37
USER: STATUS no improvement in best in 31 clusters for 5 generations
USER: GENES 15
USER: genes 0 Translation |==|  0.31529 0.23197 0.22129
USER: genes 1 Rotation |==|  0.36150 0.95750 0.37141 0.57056
USER: genes 2 Torsion [C]-N--CA-[CB] |==|  0.49721
USER: genes 3 Torsion [N]-CA--C-[N] |==|  0.45098
USER: genes 4 Torsion [C]-N--CA-[CB] |==|  0.26924
USER: genes 5 Torsion [N]-CA--CB-[CG] |==|  0.59373
USER: genes 6 Torsion [CA]-CB--CG-[OD1] |==|  0.82253
USER: genes 7 Torsion [N]-CA--C-[O] |==|  0.30436
USER: genes 8 Torsion [N]-CA--CB-[CG2] |==|  0.45838
USER: genes 9 Torsion [N]-C--CA-[N] |==|  0.80060
USER: genes 10 Torsion [C]-CA--N-[C] |==|  0.79265
USER: genes 11 Torsion [N]-C--CA-[N] |==|  0.28484
USER: genes 12 Torsion [C]-CA--CB-[CG] |==|  0.52920
USER: genes 13 Torsion [CA]-CB--CG-[CD2] |==|  0.59016
USER: genes 14 Torsion [C]-CA--CB-[CG2] |==|  0.73817
ROOT
ATOM      1  C   VAL D4842     -60.919  23.145  34.899  1.00 57.35 LIG 0.24  C 
ATOM      2 O    VAL D4842     -61.355  23.946  35.735  1.00 61.28 LIG-0.27  OA
ATOM      3  N   VAL D4843     -60.158  22.109  35.229  1.00 52.36 LIG-0.35  N 
ATOM      4 H    VAL D4843     -59.992  21.459  34.690  1.00 52.36 LIG 0.16  HD
ENDROOT
BRANCH 3 5
ATOM      5  CA  VAL D4843     -59.525  21.962  36.531  1.00 37.99 LIG 0.18  C 
BRANCH 5 6
ATOM      6  C   VAL D4843     -58.587  23.189  36.633  1.00 51.29 LIG 0.24  C 
ATOM      7  N   ASN D4844     -58.126  23.555  37.823  1.00 50.43 LIG-0.35  N 
ATOM      8 H    ASN D4844     -58.284  23.150  38.564  1.00 50.43 LIG 0.16  HD
ATOM      9 O    VAL D4843     -58.278  23.826  35.616  1.00 47.22 LIG-0.27  OA
BRANCH 7 10
ATOM     10  CA  ASN D4844     -57.270  24.747  37.917  1.00 46.88 LIG 0.17  C 
BRANCH 10 11
ATOM     11  CB  ASN D4844     -58.099  25.967  38.319  1.00 66.72 LIG 0.14  C 
BRANCH 11 12
ATOM     12  CG  ASN D4844     -57.596  27.251  37.690  1.00 62.42 LIG 0.22  C 
ATOM     13 OD1  ASN D4844     -56.478  27.698  37.955  1.00 56.11 LIG-0.27  OA
ATOM     14  ND2 ASN D4844     -58.427  27.853  36.848  1.00 67.26 LIG-0.37  N 
ATOM     15 21HD ASN D4844     -58.193  28.585  36.461  1.00 67.26 LIG 0.16  HD
ATOM     16 22HD ASN D4844     -59.200  27.510  36.688  1.00 67.26 LIG 0.16  HD
ENDBRANCH 11 12
ENDBRANCH 10 11
BRANCH 10 17
ATOM     17  C   ASN D4844     -56.036  24.612  38.825  1.00 52.57 LIG 0.22  C 
ATOM     18 O    ASN D4844     -54.888  24.566  38.353  1.00 48.91 LIG-0.29  OA
ENDBRANCH 10 17
ENDBRANCH 7 10
ENDBRANCH 5 6
BRANCH 5 19
ATOM     19  CB  VAL D4843     -58.743  20.611  36.532  1.00 37.59 LIG 0.01  C 
ATOM     20  CG1 VAL D4843     -58.049  20.353  35.225  1.00 42.19 LIG 0.01  C 
ATOM     21  CG2 VAL D4843     -57.759  20.547  37.704  1.00 33.91 LIG 0.01  C 
ENDBRANCH 5 19
ENDBRANCH 3 5
BRANCH 1 22
ATOM     22  CA  VAL D4842     -61.268  23.249  33.402  1.00 42.26 LIG 0.18  C 
BRANCH 22 23
ATOM     23  N   VAL D4842     -60.174  23.643  32.509  1.00 51.43 LIG-0.34  N 
ATOM     24 H    VAL D4842     -59.857  22.997  32.039  1.00 51.43 LIG 0.16  HD
ATOM     25  C   LEU D4841     -59.720  24.893  32.439  1.00 54.30 LIG 0.26  C 
ATOM     26 O    LEU D4841     -58.925  25.267  31.580  1.00 66.57 LIG-0.27  OA
BRANCH 25 27
ATOM     27  CA  LEU D4841     -60.268  25.874  33.465  1.00 50.85 LIG 0.40  C 
ATOM     28  N   LEU D4841     -59.290  26.110  34.532  1.00 66.18 LIG 0.61  N 
BRANCH 27 29
ATOM     29  CB  LEU D4841     -60.640  27.200  32.790  1.00 58.40 LIG 0.06  C 
BRANCH 29 30
ATOM     30  CG  LEU D4841     -60.973  28.379  33.712  1.00 54.26 LIG-0.02  C 
ATOM     31  CD2 LEU D4841     -62.035  29.325  33.103  1.00 54.78 LIG 0.01  C 
ATOM     32  CD1 LEU D4841     -59.711  29.149  34.124  1.00 32.44 LIG 0.01  C 
ENDBRANCH 29 30
ENDBRANCH 27 29
ENDBRANCH 25 27
ENDBRANCH 22 23
BRANCH 22 33
ATOM     33  CB  VAL D4842     -61.973  21.958  32.913  1.00 48.47 LIG 0.01  C 
ATOM     34  CG2 VAL D4842     -60.988  20.990  32.318  1.00 42.42 LIG 0.01  C 
ATOM     35  CG1 VAL D4842     -63.030  22.320  31.883  1.00 34.87 LIG 0.01  C 
ENDBRANCH 22 33
ENDBRANCH 1 22
TORSDOF 13
ENDMDL
MODEL 6
USER: ADFR SOLUTION from run 91
USER: SCORE 10.267536 LL:  -2.606 LR:  -8.389 RR:   0.000 FEB:  -4.512
USER: RMSD 7.706531
USER: SEED 90
USER: STATUS no improvement in best in 14 clusters for 5 generations
USER: GENES 15
USER: genes 0 Translation |==|  0.35522 0.30156 0.24621
USER: genes 1 Rotation |==|  0.23007 0.76456 0.54329 0.82446
USER: genes 2 Torsion [C]-N--CA-[CB] |==|  0.24901
USER: genes 3 Torsion [N]-CA--C-[N] |==|  0.97006
USER: genes 4 Torsion [C]-N--CA-[CB] |==|  0.80231
USER: genes 5 Torsion [N]-CA--CB-[CG] |==|  0.78731
USER: genes 6 Torsion [CA]-CB--CG-[OD1] |==|  0.01939
USER: genes 7 Torsion [N]-CA--C-[O] |==|  0.22388
USER: genes 8 Torsion [N]-CA--CB-[CG2] |==|  0.76513
USER: genes 9 Torsion [N]-C--CA-[N] |==|  0.95556
USER: genes 10 Torsion [C]-CA--N-[C] |==|  0.75083
USER: genes 11 Torsion [N]-C--CA-[N] |==|  0.35703
USER: genes 12 Torsion [C]-CA--CB-[CG] |==|  0.05476
USER: genes 13 Torsion [CA]-CB--CG-[CD2] |==|  0.56849
USER: genes 14 Torsion [C]-CA--CB-[CG2] |==|  0.97106
ROOT
ATOM      1  C   VAL D4842     -60.080  24.293  35.273  1.00 57.35 LIG 0.24  C 
ATOM      2 O    VAL D4842     -61.077  23.575  35.420  1.00 61.28 LIG-0.27  OA
ATOM      3  N   VAL D4843     -58.987  24.161  36.013  1.00 52.36 LIG-0.35  N 
ATOM      4 H    VAL D4843     -58.237  24.532  35.812  1.00 52.36 LIG 0.16  HD
ENDROOT
BRANCH 3 5
ATOM      5  CA  VAL D4843     -58.938  23.378  37.239  1.00 37.99 LIG 0.18  C 
BRANCH 5 6
ATOM      6  C   VAL D4843     -57.852  24.080  38.090  1.00 51.29 LIG 0.24  C 
ATOM      7  N   ASN D4844     -57.086  25.006  37.527  1.00 50.43 LIG-0.35  N 
ATOM      8 H    ASN D4844     -57.151  25.280  36.715  1.00 50.43 LIG 0.16  HD
ATOM      9 O    VAL D4843     -57.696  23.773  39.280  1.00 47.22 LIG-0.27  OA
BRANCH 7 10
ATOM     10  CA  ASN D4844     -56.028  25.637  38.330  1.00 46.88 LIG 0.17  C 
BRANCH 10 11
ATOM     11  CB  ASN D4844     -56.639  26.567  39.378  1.00 66.72 LIG 0.14  C 
BRANCH 11 12
ATOM     12  CG  ASN D4844     -57.115  27.881  38.789  1.00 62.42 LIG 0.22  C 
ATOM     13 OD1  ASN D4844     -57.116  28.074  37.572  1.00 56.11 LIG-0.27  OA
ATOM     14  ND2 ASN D4844     -57.525  28.795  39.661  1.00 67.26 LIG-0.37  N 
ATOM     15 21HD ASN D4844     -57.807  29.559  39.382  1.00 67.26 LIG 0.16  HD
ATOM     16 22HD ASN D4844     -57.509  28.624  40.504  1.00 67.26 LIG 0.16  HD
ENDBRANCH 11 12
ENDBRANCH 10 11
BRANCH 10 17
ATOM     17  C   ASN D4844     -55.024  24.673  38.985  1.00 52.57 LIG 0.22  C 
ATOM     18 O    ASN D4844     -54.076  24.192  38.342  1.00 48.91 LIG-0.29  OA
ENDBRANCH 10 17
ENDBRANCH 7 10
ENDBRANCH 5 6
BRANCH 5 19
ATOM     19  CB  VAL D4843     -58.545  21.917  36.856  1.00 37.59 LIG 0.01  C 
ATOM     20  CG1 VAL D4843     -57.790  21.224  37.955  1.00 42.19 LIG 0.01  C 
ATOM     21  CG2 VAL D4843     -59.777  21.110  36.435  1.00 33.91 LIG 0.01  C 
ENDBRANCH 5 19
ENDBRANCH 3 5
BRANCH 1 22
ATOM     22  CA  VAL D4842     -60.001  25.372  34.176  1.00 42.26 LIG 0.18  C 
BRANCH 22 23
ATOM     23  N   VAL D4842     -58.915  26.348  34.306  1.00 51.43 LIG-0.34  N 
ATOM     24 H    VAL D4842     -58.188  26.117  33.909  1.00 51.43 LIG 0.16  HD
ATOM     25  C   LEU D4841     -59.052  27.488  34.981  1.00 54.30 LIG 0.26  C 
ATOM     26 O    LEU D4841     -58.210  28.384  34.955  1.00 66.57 LIG-0.27  OA
BRANCH 25 27
ATOM     27  CA  LEU D4841     -60.340  27.660  35.773  1.00 50.85 LIG 0.40  C 
ATOM     28  N   LEU D4841     -60.050  28.037  37.159  1.00 66.18 LIG 0.61  N 
BRANCH 27 29
ATOM     29  CB  LEU D4841     -61.234  28.718  35.114  1.00 58.40 LIG 0.06  C 
BRANCH 29 30
ATOM     30  CG  LEU D4841     -60.954  29.043  33.642  1.00 54.26 LIG-0.02  C 
ATOM     31  CD2 LEU D4841     -61.433  30.461  33.249  1.00 54.78 LIG 0.01  C 
ATOM     32  CD1 LEU D4841     -61.539  27.977  32.707  1.00 32.44 LIG 0.01  C 
ENDBRANCH 29 30
ENDBRANCH 27 29
ENDBRANCH 25 27
ENDBRANCH 22 23
BRANCH 22 33
ATOM     33  CB  VAL D4842     -60.028  24.724  32.768  1.00 48.47 LIG 0.01  C 
ATOM     34  CG2 VAL D4842     -59.869  23.232  32.851  1.00 42.42 LIG 0.01  C 
ATOM     35  CG1 VAL D4842     -58.915  25.317  31.920  1.00 34.87 LIG 0.01  C 
ENDBRANCH 22 33
ENDBRANCH 1 22
TORSDOF 13
ENDMDL
MODEL 7
USER: ADFR SOLUTION from run 127
USER: SCORE 9.762820 LL:  -3.062 LR:  -8.342 RR:   0.000 FEB:  -4.464
USER: RMSD 7.870610
USER: SEED 126
USER: STATUS no improvement in best in 16 clusters for 5 generations
USER: GENES 15
USER: genes 0 Translation |==|  0.34150 0.31690 0.23918
USER: genes 1 Rotation |==|  0.34950 0.89093 0.52192 0.77211
USER: genes 2 Torsion [C]-N--CA-[CB] |==|  0.40344
USER: genes 3 Torsion [N]-CA--C-[N] |==|  0.96111
USER: genes 4 Torsion [C]-N--CA-[CB] |==|  0.27937
USER: genes 5 Torsion [N]-CA--CB-[CG] |==|  0.67504
USER: genes 6 Torsion [CA]-CB--CG-[OD1] |==|  0.64056
USER: genes 7 Torsion [N]-CA--C-[O] |==|  0.85126
USER: genes 8 Torsion [N]-CA--CB-[CG2] |==|  0.86167
USER: genes 9 Torsion [N]-C--CA-[N] |==|  0.85571
USER: genes 10 Torsion [C]-CA--N-[C] |==|  0.73850
USER: genes 11 Torsion [N]-C--CA-[N] |==|  0.27221
USER: genes 12 Torsion [C]-CA--CB-[CG] |==|  0.18588
USER: genes 13 Torsion [CA]-CB--CG-[CD2] |==|  0.06195
USER: genes 14 Torsion [C]-CA--CB-[CG2] |==|  0.00447
ROOT
ATOM      1  C   VAL D4842     -60.369  24.546  35.168  1.00 57.35 LIG 0.24  C 
ATOM      2 O    VAL D4842     -61.452  24.413  35.750  1.00 61.28 LIG-0.27  OA
ATOM      3  N   VAL D4843     -59.346  23.722  35.360  1.00 52.36 LIG-0.35  N 
ATOM      4 H    VAL D4843     -58.658  23.701  34.845  1.00 52.36 LIG 0.16  HD
ENDROOT
BRANCH 3 5
ATOM      5  CA  VAL D4843     -59.281  22.770  36.459  1.00 37.99 LIG 0.18  C 
BRANCH 5 6
ATOM      6  C   VAL D4843     -58.474  23.513  37.552  1.00 51.29 LIG 0.24  C 
ATOM      7  N   ASN D4844     -57.805  24.612  37.229  1.00 50.43 LIG-0.35  N 
ATOM      8 H    ASN D4844     -57.793  24.977  36.451  1.00 50.43 LIG 0.16  HD
ATOM      9 O    VAL D4843     -58.450  23.079  38.713  1.00 47.22 LIG-0.27  OA
BRANCH 7 10
ATOM     10  CA  ASN D4844     -57.007  25.288  38.263  1.00 46.88 LIG 0.17  C 
BRANCH 10 11
ATOM     11  CB  ASN D4844     -55.528  24.931  38.111  1.00 66.72 LIG 0.14  C 
BRANCH 11 12
ATOM     12  CG  ASN D4844     -54.980  24.185  39.312  1.00 62.42 LIG 0.22  C 
ATOM     13 OD1  ASN D4844     -53.942  24.546  39.871  1.00 56.11 LIG-0.27  OA
ATOM     14  ND2 ASN D4844     -55.682  23.132  39.714  1.00 67.26 LIG-0.37  N 
ATOM     15 21HD ASN D4844     -55.417  22.672  40.392  1.00 67.26 LIG 0.16  HD
ATOM     16 22HD ASN D4844     -56.401  22.911  39.298  1.00 67.26 LIG 0.16  HD
ENDBRANCH 11 12
ENDBRANCH 10 11
BRANCH 10 17
ATOM     17  C   ASN D4844     -57.187  26.813  38.353  1.00 52.57 LIG 0.22  C 
ATOM     18 O    ASN D4844     -57.043  27.541  37.357  1.00 48.91 LIG-0.29  OA
ENDBRANCH 10 17
ENDBRANCH 7 10
ENDBRANCH 5 6
BRANCH 5 19
ATOM     19  CB  VAL D4843     -58.548  21.493  35.941  1.00 37.59 LIG 0.01  C 
ATOM     20  CG1 VAL D4843     -58.530  20.392  36.963  1.00 42.19 LIG 0.01  C 
ATOM     21  CG2 VAL D4843     -59.152  21.012  34.619  1.00 33.91 LIG 0.01  C 
ENDBRANCH 5 19
ENDBRANCH 3 5
BRANCH 1 22
ATOM     22  CA  VAL D4842     -60.128  25.653  34.123  1.00 42.26 LIG 0.18  C 
BRANCH 22 23
ATOM     23  N   VAL D4842     -58.916  26.458  34.301  1.00 51.43 LIG-0.34  N 
ATOM     24 H    VAL D4842     -58.212  26.113  33.945  1.00 51.43 LIG 0.16  HD
ATOM     25  C   LEU D4841     -58.914  27.617  34.955  1.00 54.30 LIG 0.26  C 
ATOM     26 O    LEU D4841     -57.948  28.376  34.966  1.00 66.57 LIG-0.27  OA
BRANCH 25 27
ATOM     27  CA  LEU D4841     -60.201  27.994  35.676  1.00 50.85 LIG 0.40  C 
ATOM     28  N   LEU D4841     -60.118  27.652  37.099  1.00 66.18 LIG 0.61  N 
BRANCH 27 29
ATOM     29  CB  LEU D4841     -60.487  29.491  35.509  1.00 58.40 LIG 0.06  C 
BRANCH 29 30
ATOM     30  CG  LEU D4841     -60.826  29.979  34.095  1.00 54.26 LIG-0.02  C 
ATOM     31  CD2 LEU D4841     -61.355  28.842  33.189  1.00 54.78 LIG 0.01  C 
ATOM     32  CD1 LEU D4841     -59.638  30.703  33.447  1.00 32.44 LIG 0.01  C 
ENDBRANCH 29 30
ENDBRANCH 27 29
ENDBRANCH 25 27
ENDBRANCH 22 23
BRANCH 22 33
ATOM     33  CB  VAL D4842     -60.233  25.081  32.686  1.00 48.47 LIG 0.01  C 
ATOM     34  CG2 VAL D4842     -60.579  23.618  32.705  1.00 42.42 LIG 0.01  C 
ATOM     35  CG1 VAL D4842     -58.915  25.292  31.961  1.00 34.87 LIG 0.01  C 
ENDBRANCH 22 33
ENDBRANCH 1 22
TORSDOF 13
ENDMDL
MODEL 8
USER: ADFR SOLUTION from run 90
USER: SCORE 9.792054 LL:  -2.268 LR:  -8.284 RR:   0.000 FEB:  -4.406
USER: RMSD 7.350568
USER: SEED 89
USER: STATUS no improvement in best in 17 clusters for 5 generations
USER: GENES 15
USER: genes 0 Translation |==|  0.40465 0.17069 0.22247
USER: genes 1 Rotation |==|  0.45802 0.30634 0.05815 0.62449
USER: genes 2 Torsion [C]-N--CA-[CB] |==|  0.25556
USER: genes 3 Torsion [N]-CA--C-[N] |==|  0.99009
USER: genes 4 Torsion [C]-N--CA-[CB] |==|  0.25552
USER: genes 5 Torsion [N]-CA--CB-[CG] |==|  0.57076
USER: genes 6 Torsion [CA]-CB--CG-[OD1] |==|  0.95180
USER: genes 7 Torsion [N]-CA--C-[O] |==|  0.21685
USER: genes 8 Torsion [N]-CA--CB-[CG2] |==|  0.12908
USER: genes 9 Torsion [N]-C--CA-[N] |==|  0.05309
USER: genes 10 Torsion [C]-CA--N-[C] |==|  0.70468
USER: genes 11 Torsion [N]-C--CA-[N] |==|  0.39019
USER: genes 12 Torsion [C]-CA--CB-[CG] |==|  0.53719
USER: genes 13 Torsion [CA]-CB--CG-[CD2] |==|  0.56887
USER: genes 14 Torsion [C]-CA--CB-[CG2] |==|  0.54240
ROOT
ATOM      1  C   VAL D4842     -59.042  22.133  34.917  1.00 57.35 LIG 0.24  C 
ATOM      2 O    VAL D4842     -58.657  21.179  34.230  1.00 61.28 LIG-0.27  OA
ATOM      3  N   VAL D4843     -59.649  23.192  34.396  1.00 52.36 LIG-0.35  N 
ATOM      4 H    VAL D4843     -60.068  23.774  34.872  1.00 52.36 LIG 0.16  HD
ENDROOT
BRANCH 3 5
ATOM      5  CA  VAL D4843     -59.672  23.482  32.970  1.00 37.99 LIG 0.18  C 
BRANCH 5 6
ATOM      6  C   VAL D4843     -59.700  25.029  32.901  1.00 51.29 LIG 0.24  C 
ATOM      7  N   ASN D4844     -59.771  25.726  34.028  1.00 50.43 LIG-0.35  N 
ATOM      8 H    ASN D4844     -59.780  25.392  34.821  1.00 50.43 LIG 0.16  HD
ATOM      9 O    VAL D4843     -59.665  25.606  31.805  1.00 47.22 LIG-0.27  OA
BRANCH 7 10
ATOM     10  CA  ASN D4844     -59.841  27.193  33.953  1.00 46.88 LIG 0.17  C 
BRANCH 10 11
ATOM     11  CB  ASN D4844     -61.298  27.655  33.929  1.00 66.72 LIG 0.14  C 
BRANCH 11 12
ATOM     12  CG  ASN D4844     -61.474  29.003  33.258  1.00 62.42 LIG 0.22  C 
ATOM     13 OD1  ASN D4844     -60.518  29.760  33.081  1.00 56.11 LIG-0.27  OA
ATOM     14  ND2 ASN D4844     -62.710  29.308  32.878  1.00 67.26 LIG-0.37  N 
ATOM     15 21HD ASN D4844     -62.868  30.060  32.491  1.00 67.26 LIG 0.16  HD
ATOM     16 22HD ASN D4844     -63.352  28.753  33.019  1.00 67.26 LIG 0.16  HD
ENDBRANCH 11 12
ENDBRANCH 10 11
BRANCH 10 17
ATOM     17  C   ASN D4844     -59.052  27.954  35.032  1.00 52.57 LIG 0.22  C 
ATOM     18 O    ASN D4844     -57.820  28.092  34.955  1.00 48.91 LIG-0.29  OA
ENDBRANCH 10 17
ENDBRANCH 7 10
ENDBRANCH 5 6
BRANCH 5 19
ATOM     19  CB  VAL D4843     -60.958  22.834  32.371  1.00 37.59 LIG 0.01  C 
ATOM     20  CG1 VAL D4843     -60.804  21.355  32.155  1.00 42.19 LIG 0.01  C 
ATOM     21  CG2 VAL D4843     -62.183  23.142  33.238  1.00 33.91 LIG 0.01  C 
ENDBRANCH 5 19
ENDBRANCH 3 5
BRANCH 1 22
ATOM     22  CA  VAL D4842     -58.900  22.151  36.451  1.00 42.26 LIG 0.18  C 
BRANCH 22 23
ATOM     23  N   VAL D4842     -59.794  23.061  37.174  1.00 51.43 LIG-0.34  N 
ATOM     24 H    VAL D4842     -60.610  22.794  37.209  1.00 51.43 LIG 0.16  HD
ATOM     25  C   LEU D4841     -59.369  24.197  37.723  1.00 54.30 LIG 0.26  C 
ATOM     26 O    LEU D4841     -60.067  24.880  38.469  1.00 66.57 LIG-0.27  OA
BRANCH 25 27
ATOM     27  CA  LEU D4841     -57.936  24.608  37.415  1.00 50.85 LIG 0.40  C 
ATOM     28  N   LEU D4841     -57.845  26.056  37.205  1.00 66.18 LIG 0.61  N 
BRANCH 27 29
ATOM     29  CB  LEU D4841     -57.002  24.182  38.554  1.00 58.40 LIG 0.06  C 
BRANCH 29 30
ATOM     30  CG  LEU D4841     -55.593  24.787  38.560  1.00 54.26 LIG-0.02  C 
ATOM     31  CD2 LEU D4841     -54.571  23.898  39.308  1.00 54.78 LIG 0.01  C 
ATOM     32  CD1 LEU D4841     -55.596  26.220  39.110  1.00 32.44 LIG 0.01  C 
ENDBRANCH 29 30
ENDBRANCH 27 29
ENDBRANCH 25 27
ENDBRANCH 22 23
BRANCH 22 33
ATOM     33  CB  VAL D4842     -58.960  20.712  37.023  1.00 48.47 LIG 0.01  C 
ATOM     34  CG2 VAL D4842     -59.194  20.723  38.508  1.00 42.42 LIG 0.01  C 
ATOM     35  CG1 VAL D4842     -57.660  19.990  36.709  1.00 34.87 LIG 0.01  C 
ENDBRANCH 22 33
ENDBRANCH 1 22
TORSDOF 13
ENDMDL
MODEL 9
USER: ADFR SOLUTION from run 144
USER: SCORE 8.709212 LL:  -2.077 LR:  -8.280 RR:   0.000 FEB:  -4.402
USER: RMSD 4.969828
USER: SEED 143
USER: STATUS no improvement in best in 60 clusters for 5 generations
USER: GENES 15
USER: genes 0 Translation |==|  0.48903 0.48158 0.45386
USER: genes 1 Rotation |==|  0.87820 0.71165 0.51692 0.74875
USER: genes 2 Torsion [C]-N--CA-[CB] |==|  0.27396
USER: genes 3 Torsion [N]-CA--C-[N] |==|  0.81315
USER: genes 4 Torsion [C]-N--CA-[CB] |==|  0.17519
USER: genes 5 Torsion [N]-CA--CB-[CG] |==|  0.59577
USER: genes 6 Torsion [CA]-CB--CG-[OD1] |==|  0.00764
USER: genes 7 Torsion [N]-CA--C-[O] |==|  0.76619
USER: genes 8 Torsion [N]-CA--CB-[CG2] |==|  0.45906
USER: genes 9 Torsion [N]-C--CA-[N] |==|  0.49905
USER: genes 10 Torsion [C]-CA--N-[C] |==|  0.76409
USER: genes 11 Torsion [N]-C--CA-[N] |==|  0.23659
USER: genes 12 Torsion [C]-CA--CB-[CG] |==|  0.45084
USER: genes 13 Torsion [CA]-CB--CG-[CD2] |==|  0.65252
USER: genes 14 Torsion [C]-CA--CB-[CG2] |==|  0.88901
ROOT
ATOM      1  C   VAL D4842     -57.270  27.263  38.388  1.00 57.35 LIG 0.24  C 
ATOM      2 O    VAL D4842     -57.778  27.933  39.296  1.00 61.28 LIG-0.27  OA
ATOM      3  N   VAL D4843     -57.855  27.094  37.209  1.00 52.36 LIG-0.35  N 
ATOM      4 H    VAL D4843     -57.444  26.779  36.522  1.00 52.36 LIG 0.16  HD
ENDROOT
BRANCH 3 5
ATOM      5  CA  VAL D4843     -59.250  27.421  36.952  1.00 37.99 LIG 0.18  C 
BRANCH 5 6
ATOM      6  C   VAL D4843     -59.735  26.288  36.015  1.00 51.29 LIG 0.24  C 
ATOM      7  N   ASN D4844     -59.239  26.206  34.787  1.00 50.43 LIG-0.35  N 
ATOM      8 H    ASN D4844     -58.638  26.724  34.457  1.00 50.43 LIG 0.16  HD
ATOM      9 O    VAL D4843     -60.583  25.473  36.407  1.00 47.22 LIG-0.27  OA
BRANCH 7 10
ATOM     10  CA  ASN D4844     -59.737  25.154  33.889  1.00 46.88 LIG 0.17  C 
BRANCH 10 11
ATOM     11  CB  ASN D4844     -61.226  25.352  33.609  1.00 66.72 LIG 0.14  C 
BRANCH 11 12
ATOM     12  CG  ASN D4844     -61.973  24.042  33.455  1.00 62.42 LIG 0.22  C 
ATOM     13 OD1  ASN D4844     -61.404  22.959  33.604  1.00 56.11 LIG-0.27  OA
ATOM     14  ND2 ASN D4844     -63.263  24.138  33.155  1.00 67.26 LIG-0.37  N 
ATOM     15 21HD ASN D4844     -63.737  23.426  33.057  1.00 67.26 LIG 0.16  HD
ATOM     16 22HD ASN D4844     -63.626  24.913  33.059  1.00 67.26 LIG 0.16  HD
ENDBRANCH 11 12
ENDBRANCH 10 11
BRANCH 10 17
ATOM     17  C   ASN D4844     -58.960  24.980  32.572  1.00 52.57 LIG 0.22  C 
ATOM     18 O    ASN D4844     -59.204  25.686  31.580  1.00 48.91 LIG-0.29  OA
ENDBRANCH 10 17
ENDBRANCH 7 10
ENDBRANCH 5 6
BRANCH 5 19
ATOM     19  CB  VAL D4843     -59.293  28.822  36.267  1.00 37.59 LIG 0.01  C 
ATOM     20  CG1 VAL D4843     -58.191  28.999  35.261  1.00 42.19 LIG 0.01  C 
ATOM     21  CG2 VAL D4843     -60.665  29.084  35.638  1.00 33.91 LIG 0.01  C 
ENDBRANCH 5 19
ENDBRANCH 3 5
BRANCH 1 22
ATOM     22  CA  VAL D4842     -55.882  26.608  38.529  1.00 42.26 LIG 0.18  C 
BRANCH 22 23
ATOM     23  N   VAL D4842     -55.210  26.787  39.819  1.00 51.43 LIG-0.34  N 
ATOM     24 H    VAL D4842     -55.332  26.137  40.369  1.00 51.43 LIG 0.16  HD
ATOM     25  C   LEU D4841     -54.479  27.863  40.104  1.00 54.30 LIG 0.26  C 
ATOM     26 O    LEU D4841     -53.779  27.946  41.111  1.00 66.57 LIG-0.27  OA
BRANCH 25 27
ATOM     27  CA  LEU D4841     -54.514  28.997  39.090  1.00 50.85 LIG 0.40  C 
ATOM     28  N   LEU D4841     -55.664  29.874  39.333  1.00 66.18 LIG 0.61  N 
BRANCH 27 29
ATOM     29  CB  LEU D4841     -53.213  29.807  39.151  1.00 58.40 LIG 0.06  C 
BRANCH 29 30
ATOM     30  CG  LEU D4841     -52.898  30.704  37.948  1.00 54.26 LIG-0.02  C 
ATOM     31  CD2 LEU D4841     -51.506  30.408  37.339  1.00 54.78 LIG 0.01  C 
ATOM     32  CD1 LEU D4841     -53.050  32.190  38.296  1.00 32.44 LIG 0.01  C 
ENDBRANCH 29 30
ENDBRANCH 27 29
ENDBRANCH 25 27
ENDBRANCH 22 23
BRANCH 22 33
ATOM     33  CB  VAL D4842     -55.936  25.117  38.109  1.00 48.47 LIG 0.01  C 
ATOM     34  CG2 VAL D4842     -57.198  24.459  38.595  1.00 42.42 LIG 0.01  C 
ATOM     35  CG1 VAL D4842     -54.725  24.391  38.671  1.00 34.87 LIG 0.01  C 
ENDBRANCH 22 33
ENDBRANCH 1 22
TORSDOF 13
ENDMDL
MODEL 10
USER: ADFR SOLUTION from run 92
USER: SCORE 10.215961 LL:  -2.890 LR:  -8.268 RR:   0.000 FEB:  -4.390
USER: RMSD 9.316339
USER: SEED 91
USER: STATUS no improvement in best in 40 clusters for 5 generations
USER: GENES 15
USER: genes 0 Translation |==|  0.29698 0.30552 0.24534
USER: genes 1 Rotation |==|  0.41751 0.96714 0.34979 0.54912
USER: genes 2 Torsion [C]-N--CA-[CB] |==|  0.48233
USER: genes 3 Torsion [N]-CA--C-[N] |==|  0.44499
USER: genes 4 Torsion [C]-N--CA-[CB] |==|  0.31550
USER: genes 5 Torsion [N]-CA--CB-[CG] |==|  0.69090
USER: genes 6 Torsion [CA]-CB--CG-[OD1] |==|  0.59754
USER: genes 7 Torsion [N]-CA--C-[O] |==|  0.46761
USER: genes 8 Torsion [N]-CA--CB-[CG2] |==|  0.21712
USER: genes 9 Torsion [N]-C--CA-[N] |==|  0.31112
USER: genes 10 Torsion [C]-CA--N-[C] |==|  0.72229
USER: genes 11 Torsion [N]-C--CA-[N] |==|  0.45841
USER: genes 12 Torsion [C]-CA--CB-[CG] |==|  0.40680
USER: genes 13 Torsion [CA]-CB--CG-[CD2] |==|  0.11702
USER: genes 14 Torsion [C]-CA--CB-[CG2] |==|  0.16359
ROOT
ATOM      1  C   VAL D4842     -61.303  24.358  35.260  1.00 57.35 LIG 0.24  C 
ATOM      2 O    VAL D4842     -61.519  25.291  36.043  1.00 61.28 LIG-0.27  OA
ATOM      3  N   VAL D4843     -60.819  23.188  35.656  1.00 52.36 LIG-0.35  N 
ATOM      4 H    VAL D4843     -60.825  22.486  35.160  1.00 52.36 LIG 0.16  HD
ENDROOT
BRANCH 3 5
ATOM      5  CA  VAL D4843     -60.230  22.967  36.969  1.00 37.99 LIG 0.18  C 
BRANCH 5 6
ATOM      6  C   VAL D4843     -58.939  23.822  36.948  1.00 51.29 LIG 0.24  C 
ATOM      7  N   ASN D4844     -58.371  24.166  38.098  1.00 50.43 LIG-0.35  N 
ATOM      8 H    ASN D4844     -58.646  23.933  38.878  1.00 50.43 LIG 0.16  HD
ATOM      9 O    VAL D4843     -58.448  24.187  35.870  1.00 47.22 LIG-0.27  OA
BRANCH 7 10
ATOM     10  CA  ASN D4844     -57.170  25.014  38.071  1.00 46.88 LIG 0.17  C 
BRANCH 10 11
ATOM     11  CB  ASN D4844     -57.470  26.380  38.688  1.00 66.72 LIG 0.14  C 
BRANCH 11 12
ATOM     12  CG  ASN D4844     -57.451  27.501  37.666  1.00 62.42 LIG 0.22  C 
ATOM     13 OD1  ASN D4844     -57.040  28.626  37.957  1.00 56.11 LIG-0.27  OA
ATOM     14  ND2 ASN D4844     -57.901  27.193  36.455  1.00 67.26 LIG-0.37  N 
ATOM     15 21HD ASN D4844     -57.913  27.790  35.836  1.00 67.26 LIG 0.16  HD
ATOM     16 22HD ASN D4844     -58.181  26.396  36.290  1.00 67.26 LIG 0.16  HD
ENDBRANCH 11 12
ENDBRANCH 10 11
BRANCH 10 17
ATOM     17  C   ASN D4844     -55.909  24.403  38.705  1.00 52.57 LIG 0.22  C 
ATOM     18 O    ASN D4844     -54.792  24.925  38.555  1.00 48.91 LIG-0.29  OA
ENDBRANCH 10 17
ENDBRANCH 7 10
ENDBRANCH 5 6
BRANCH 5 19
ATOM     19  CB  VAL D4843     -59.933  21.442  37.109  1.00 37.59 LIG 0.01  C 
ATOM     20  CG1 VAL D4843     -61.098  20.594  36.682  1.00 42.19 LIG 0.01  C 
ATOM     21  CG2 VAL D4843     -58.660  21.058  36.349  1.00 33.91 LIG 0.01  C 
ENDBRANCH 5 19
ENDBRANCH 3 5
BRANCH 1 22
ATOM     22  CA  VAL D4842     -61.630  24.455  33.757  1.00 42.26 LIG 0.18  C 
BRANCH 22 23
ATOM     23  N   VAL D4842     -63.050  24.567  33.410  1.00 51.43 LIG-0.34  N 
ATOM     24 H    VAL D4842     -63.369  25.361  33.497  1.00 51.43 LIG 0.16  HD
ATOM     25  C   LEU D4841     -63.771  23.527  32.996  1.00 54.30 LIG 0.26  C 
ATOM     26 O    LEU D4841     -64.909  23.642  32.545  1.00 66.57 LIG-0.27  OA
BRANCH 25 27
ATOM     27  CA  LEU D4841     -63.102  22.162  33.069  1.00 50.85 LIG 0.40  C 
ATOM     28  N   LEU D4841     -64.092  21.091  32.931  1.00 66.18 LIG 0.61  N 
BRANCH 27 29
ATOM     29  CB  LEU D4841     -62.032  22.034  31.978  1.00 58.40 LIG 0.06  C 
BRANCH 29 30
ATOM     30  CG  LEU D4841     -60.790  21.201  32.319  1.00 54.26 LIG-0.02  C 
ATOM     31  CD2 LEU D4841     -61.142  19.901  33.081  1.00 54.78 LIG 0.01  C 
ATOM     32  CD1 LEU D4841     -59.745  22.028  33.080  1.00 32.44 LIG 0.01  C 
ENDBRANCH 29 30
ENDBRANCH 27 29
ENDBRANCH 25 27
ENDBRANCH 22 23
BRANCH 22 33
ATOM     33  CB  VAL D4842     -60.783  25.565  33.084  1.00 48.47 LIG 0.01  C 
ATOM     34  CG2 VAL D4842     -59.312  25.302  33.244  1.00 42.42 LIG 0.01  C 
ATOM     35  CG1 VAL D4842     -61.138  26.910  33.696  1.00 34.87 LIG 0.01  C 
ENDBRANCH 22 33
ENDBRANCH 1 22
TORSDOF 13
ENDMDL
MODEL 11
USER: ADFR SOLUTION from run 6
USER: SCORE 9.101266 LL:  -2.676 LR:  -8.235 RR:   0.000 FEB:  -4.357
USER: RMSD 8.458349
USER: SEED 468734
USER: STATUS no improvement in best in 39 clusters for 5 generations
USER: GENES 15
USER: genes 0 Translation |==|  0.40521 0.27421 0.35876
USER: genes 1 Rotation |==|  0.10938 0.78470 0.41919 0.59915
USER: genes 2 Torsion [C]-N--CA-[CB] |==|  0.49147
USER: genes 3 Torsion [N]-CA--C-[N] |==|  0.85698
USER: genes 4 Torsion [C]-N--CA-[CB] |==|  0.46706
USER: genes 5 Torsion [N]-CA--CB-[CG] |==|  0.21597
USER: genes 6 Torsion [CA]-CB--CG-[OD1] |==|  0.34234
USER: genes 7 Torsion [N]-CA--C-[O] |==|  0.91494
USER: genes 8 Torsion [N]-CA--CB-[CG2] |==|  0.75026
USER: genes 9 Torsion [N]-C--CA-[N] |==|  0.85057
USER: genes 10 Torsion [C]-CA--N-[C] |==|  0.62796
USER: genes 11 Torsion [N]-C--CA-[N] |==|  0.32823
USER: genes 12 Torsion [C]-CA--CB-[CG] |==|  0.46671
USER: genes 13 Torsion [CA]-CB--CG-[CD2] |==|  0.22270
USER: genes 14 Torsion [C]-CA--CB-[CG2] |==|  0.42899
ROOT
ATOM      1  C   VAL D4842     -59.031  23.841  36.961  1.00 57.35 LIG 0.24  C 
ATOM      2 O    VAL D4842     -59.908  23.810  37.833  1.00 61.28 LIG-0.27  OA
ATOM      3  N   VAL D4843     -57.803  24.288  37.196  1.00 52.36 LIG-0.35  N 
ATOM      4 H    VAL D4843     -57.146  24.159  36.657  1.00 52.36 LIG 0.16  HD
ENDROOT
BRANCH 3 5
ATOM      5  CA  VAL D4843     -57.439  25.039  38.388  1.00 37.99 LIG 0.18  C 
BRANCH 5 6
ATOM      6  C   VAL D4843     -58.274  26.339  38.283  1.00 51.29 LIG 0.24  C 
ATOM      7  N   ASN D4844     -58.232  27.047  37.161  1.00 50.43 LIG-0.35  N 
ATOM      8 H    ASN D4844     -57.790  26.835  36.455  1.00 50.43 LIG 0.16  HD
ATOM      9 O    VAL D4843     -58.967  26.715  39.239  1.00 47.22 LIG-0.27  OA
BRANCH 7 10
ATOM     10  CA  ASN D4844     -58.995  28.302  37.084  1.00 46.88 LIG 0.17  C 
BRANCH 10 11
ATOM     11  CB  ASN D4844     -58.586  29.098  35.845  1.00 66.72 LIG 0.14  C 
BRANCH 11 12
ATOM     12  CG  ASN D4844     -59.205  28.557  34.571  1.00 62.42 LIG 0.22  C 
ATOM     13 OD1  ASN D4844     -59.894  29.272  33.840  1.00 56.11 LIG-0.27  OA
ATOM     14  ND2 ASN D4844     -58.957  27.281  34.299  1.00 67.26 LIG-0.37  N 
ATOM     15 21HD ASN D4844     -59.283  26.921  33.588  1.00 67.26 LIG 0.16  HD
ATOM     16 22HD ASN D4844     -58.472  26.813  34.833  1.00 67.26 LIG 0.16  HD
ENDBRANCH 11 12
ENDBRANCH 10 11
BRANCH 10 17
ATOM     17  C   ASN D4844     -60.525  28.157  37.151  1.00 52.57 LIG 0.22  C 
ATOM     18 O    ASN D4844     -61.098  27.147  36.714  1.00 48.91 LIG-0.29  OA
ENDBRANCH 10 17
ENDBRANCH 7 10
ENDBRANCH 5 6
BRANCH 5 19
ATOM     19  CB  VAL D4843     -55.903  25.311  38.331  1.00 37.59 LIG 0.01  C 
ATOM     20  CG1 VAL D4843     -55.538  26.647  38.911  1.00 42.19 LIG 0.01  C 
ATOM     21  CG2 VAL D4843     -55.120  24.181  39.006  1.00 33.91 LIG 0.01  C 
ENDBRANCH 5 19
ENDBRANCH 3 5
BRANCH 1 22
ATOM     22  CA  VAL D4842     -59.271  23.313  35.534  1.00 42.26 LIG 0.18  C 
BRANCH 22 23
ATOM     23  N   VAL D4842     -58.930  24.226  34.439  1.00 51.43 LIG-0.34  N 
ATOM     24 H    VAL D4842     -58.165  24.610  34.530  1.00 51.43 LIG 0.16  HD
ATOM     25  C   LEU D4841     -59.738  24.436  33.402  1.00 54.30 LIG 0.26  C 
ATOM     26 O    LEU D4841     -59.392  25.065  32.404  1.00 66.57 LIG-0.27  OA
BRANCH 25 27
ATOM     27  CA  LEU D4841     -61.126  23.820  33.485  1.00 50.85 LIG 0.40  C 
ATOM     28  N   LEU D4841     -62.158  24.860  33.459  1.00 66.18 LIG 0.61  N 
BRANCH 27 29
ATOM     29  CB  LEU D4841     -61.342  22.835  32.330  1.00 58.40 LIG 0.06  C 
BRANCH 29 30
ATOM     30  CG  LEU D4841     -62.569  21.919  32.419  1.00 54.26 LIG-0.02  C 
ATOM     31  CD2 LEU D4841     -63.872  22.633  31.988  1.00 54.78 LIG 0.01  C 
ATOM     32  CD1 LEU D4841     -62.709  21.296  33.815  1.00 32.44 LIG 0.01  C 
ENDBRANCH 29 30
ENDBRANCH 27 29
ENDBRANCH 25 27
ENDBRANCH 22 23
BRANCH 22 33
ATOM     33  CB  VAL D4842     -58.615  21.921  35.348  1.00 48.47 LIG 0.01  C 
ATOM     34  CG2 VAL D4842     -59.307  21.130  34.274  1.00 42.42 LIG 0.01  C 
ATOM     35  CG1 VAL D4842     -58.664  21.161  36.663  1.00 34.87 LIG 0.01  C 
ENDBRANCH 22 33
ENDBRANCH 1 22
TORSDOF 13
ENDMDL
MODEL 12
USER: ADFR SOLUTION from run 92
USER: SCORE 9.296159 LL:  -2.193 LR:  -8.224 RR:   0.000 FEB:  -4.346
USER: RMSD 8.704879
USER: SEED 91
USER: STATUS no improvement in best in 40 clusters for 5 generations
USER: GENES 15
USER: genes 0 Translation |==|  0.35397 0.32028 0.11437
USER: genes 1 Rotation |==|  0.56788 0.63705 0.02397 0.50190
USER: genes 2 Torsion [C]-N--CA-[CB] |==|  0.22911
USER: genes 3 Torsion [N]-CA--C-[N] |==|  0.29435
USER: genes 4 Torsion [C]-N--CA-[CB] |==|  0.28735
USER: genes 5 Torsion [N]-CA--CB-[CG] |==|  0.17673
USER: genes 6 Torsion [CA]-CB--CG-[OD1] |==|  0.46643
USER: genes 7 Torsion [N]-CA--C-[O] |==|  0.89048
USER: genes 8 Torsion [N]-CA--CB-[CG2] |==|  0.47196
USER: genes 9 Torsion [N]-C--CA-[N] |==|  0.00126
USER: genes 10 Torsion [C]-CA--N-[C] |==|  0.75969
USER: genes 11 Torsion [N]-C--CA-[N] |==|  0.23888
USER: genes 12 Torsion [C]-CA--CB-[CG] |==|  0.23763
USER: genes 13 Torsion [CA]-CB--CG-[CD2] |==|  0.40999
USER: genes 14 Torsion [C]-CA--CB-[CG2] |==|  0.70141
ROOT
ATOM      1  C   VAL D4842     -60.107  24.602  33.296  1.00 57.35 LIG 0.24  C 
ATOM      2 O    VAL D4842     -59.578  24.948  32.232  1.00 61.28 LIG-0.27  OA
ATOM      3  N   VAL D4843     -60.271  25.432  34.318  1.00 52.36 LIG-0.35  N 
ATOM      4 H    VAL D4843     -60.781  25.256  34.987  1.00 52.36 LIG 0.16  HD
ENDROOT
BRANCH 3 5
ATOM      5  CA  VAL D4843     -59.609  26.724  34.415  1.00 37.99 LIG 0.18  C 
BRANCH 5 6
ATOM      6  C   VAL D4843     -59.627  27.042  35.930  1.00 51.29 LIG 0.24  C 
ATOM      7  N   ASN D4844     -58.503  26.939  36.627  1.00 50.43 LIG-0.35  N 
ATOM      8 H    ASN D4844     -57.735  26.728  36.305  1.00 50.43 LIG 0.16  HD
ATOM      9 O    VAL D4843     -60.683  27.381  36.484  1.00 47.22 LIG-0.27  OA
BRANCH 7 10
ATOM     10  CA  ASN D4844     -58.538  27.201  38.074  1.00 46.88 LIG 0.17  C 
BRANCH 10 11
ATOM     11  CB  ASN D4844     -58.494  25.887  38.854  1.00 66.72 LIG 0.14  C 
BRANCH 11 12
ATOM     12  CG  ASN D4844     -57.204  25.120  38.639  1.00 62.42 LIG 0.22  C 
ATOM     13 OD1  ASN D4844     -56.903  24.160  39.350  1.00 56.11 LIG-0.27  OA
ATOM     14  ND2 ASN D4844     -56.431  25.547  37.646  1.00 67.26 LIG-0.37  N 
ATOM     15 21HD ASN D4844     -55.687  25.149  37.479  1.00 67.26 LIG 0.16  HD
ATOM     16 22HD ASN D4844     -56.674  26.222  37.171  1.00 67.26 LIG 0.16  HD
ENDBRANCH 11 12
ENDBRANCH 10 11
BRANCH 10 17
ATOM     17  C   ASN D4844     -57.470  28.176  38.600  1.00 52.57 LIG 0.22  C 
ATOM     18 O    ASN D4844     -56.307  28.157  38.166  1.00 48.91 LIG-0.29  OA
ENDBRANCH 10 17
ENDBRANCH 7 10
ENDBRANCH 5 6
BRANCH 5 19
ATOM     19  CB  VAL D4843     -60.438  27.749  33.580  1.00 37.59 LIG 0.01  C 
ATOM     20  CG1 VAL D4843     -61.915  27.624  33.827  1.00 42.19 LIG 0.01  C 
ATOM     21  CG2 VAL D4843     -59.954  29.180  33.829  1.00 33.91 LIG 0.01  C 
ENDBRANCH 5 19
ENDBRANCH 3 5
BRANCH 1 22
ATOM     22  CA  VAL D4842     -60.672  23.184  33.508  1.00 42.26 LIG 0.18  C 
BRANCH 22 23
ATOM     23  N   VAL D4842     -61.325  22.934  34.797  1.00 51.43 LIG-0.34  N 
ATOM     24 H    VAL D4842     -62.176  23.057  34.787  1.00 51.43 LIG 0.16  HD
ATOM     25  C   LEU D4841     -60.651  22.549  35.879  1.00 54.30 LIG 0.26  C 
ATOM     26 O    LEU D4841     -61.204  22.177  36.911  1.00 66.57 LIG-0.27  OA
BRANCH 25 27
ATOM     27  CA  LEU D4841     -59.133  22.552  35.772  1.00 50.85 LIG 0.40  C 
ATOM     28  N   LEU D4841     -58.593  23.879  36.087  1.00 66.18 LIG 0.61  N 
BRANCH 27 29
ATOM     29  CB  LEU D4841     -58.530  21.502  36.713  1.00 58.40 LIG 0.06  C 
BRANCH 29 30
ATOM     30  CG  LEU D4841     -58.424  20.069  36.176  1.00 54.26 LIG-0.02  C 
ATOM     31  CD2 LEU D4841     -57.195  19.317  36.740  1.00 54.78 LIG 0.01  C 
ATOM     32  CD1 LEU D4841     -58.442  20.039  34.641  1.00 32.44 LIG 0.01  C 
ENDBRANCH 29 30
ENDBRANCH 27 29
ENDBRANCH 25 27
ENDBRANCH 22 23
BRANCH 22 33
ATOM     33  CB  VAL D4842     -61.573  22.771  32.316  1.00 48.47 LIG 0.01  C 
ATOM     34  CG2 VAL D4842     -63.026  22.770  32.705  1.00 42.42 LIG 0.01  C 
ATOM     35  CG1 VAL D4842     -61.167  21.389  31.833  1.00 34.87 LIG 0.01  C 
ENDBRANCH 22 33
ENDBRANCH 1 22
TORSDOF 13
ENDMDL
MODEL 13
USER: ADFR SOLUTION from run 134
USER: SCORE 9.325135 LL:  -2.458 LR:  -8.163 RR:   0.000 FEB:  -4.285
USER: RMSD 8.598500
USER: SEED 133
USER: STATUS no improvement in best in 17 clusters for 5 generations
USER: GENES 15
USER: genes 0 Translation |==|  0.37031 0.24181 0.27350
USER: genes 1 Rotation |==|  0.05140 0.68763 0.46308 0.61041
USER: genes 2 Torsion [C]-N--CA-[CB] |==|  0.35699
USER: genes 3 Torsion [N]-CA--C-[N] |==|  0.91241
USER: genes 4 Torsion [C]-N--CA-[CB] |==|  0.83543
USER: genes 5 Torsion [N]-CA--CB-[CG] |==|  0.60070
USER: genes 6 Torsion [CA]-CB--CG-[OD1] |==|  0.90354
USER: genes 7 Torsion [N]-CA--C-[O] |==|  0.97557
USER: genes 8 Torsion [N]-CA--CB-[CG2] |==|  0.74080
USER: genes 9 Torsion [N]-C--CA-[N] |==|  0.94624
USER: genes 10 Torsion [C]-CA--N-[C] |==|  0.79447
USER: genes 11 Torsion [N]-C--CA-[N] |==|  0.47112
USER: genes 12 Torsion [C]-CA--CB-[CG] |==|  0.41302
USER: genes 13 Torsion [CA]-CB--CG-[CD2] |==|  0.35771
USER: genes 14 Torsion [C]-CA--CB-[CG2] |==|  0.30311
ROOT
ATOM      1  C   VAL D4842     -59.763  23.307  35.683  1.00 57.35 LIG 0.24  C 
ATOM      2 O    VAL D4842     -60.458  22.864  36.606  1.00 61.28 LIG-0.27  OA
ATOM      3  N   VAL D4843     -58.868  24.270  35.858  1.00 52.36 LIG-0.35  N 
ATOM      4 H    VAL D4843     -58.269  24.466  35.273  1.00 52.36 LIG 0.16  HD
ENDROOT
BRANCH 3 5
ATOM      5  CA  VAL D4843     -58.802  25.095  37.055  1.00 37.99 LIG 0.18  C 
BRANCH 5 6
ATOM      6  C   VAL D4843     -59.222  26.502  36.565  1.00 51.29 LIG 0.24  C 
ATOM      7  N   ASN D4844     -58.931  26.869  35.323  1.00 50.43 LIG-0.35  N 
ATOM      8 H    ASN D4844     -58.540  26.377  34.737  1.00 50.43 LIG 0.16  HD
ATOM      9 O    VAL D4843     -59.815  27.278  37.328  1.00 47.22 LIG-0.27  OA
BRANCH 7 10
ATOM     10  CA  ASN D4844     -59.295  28.223  34.878  1.00 46.88 LIG 0.17  C 
BRANCH 10 11
ATOM     11  CB  ASN D4844     -60.804  28.435  34.999  1.00 66.72 LIG 0.14  C 
BRANCH 11 12
ATOM     12  CG  ASN D4844     -61.367  29.285  33.877  1.00 62.42 LIG 0.22  C 
ATOM     13 OD1  ASN D4844     -60.718  30.211  33.387  1.00 56.11 LIG-0.27  OA
ATOM     14  ND2 ASN D4844     -62.589  28.969  33.463  1.00 67.26 LIG-0.37  N 
ATOM     15 21HD ASN D4844     -62.958  29.418  32.828  1.00 67.26 LIG 0.16  HD
ATOM     16 22HD ASN D4844     -63.012  28.315  33.830  1.00 67.26 LIG 0.16  HD
ENDBRANCH 11 12
ENDBRANCH 10 11
BRANCH 10 17
ATOM     17  C   ASN D4844     -58.533  29.374  35.557  1.00 52.57 LIG 0.22  C 
ATOM     18 O    ASN D4844     -57.790  29.172  36.531  1.00 48.91 LIG-0.29  OA
ENDBRANCH 10 17
ENDBRANCH 7 10
ENDBRANCH 5 6
BRANCH 5 19
ATOM     19  CB  VAL D4843     -57.333  25.059  37.580  1.00 37.59 LIG 0.01  C 
ATOM     20  CG1 VAL D4843     -56.884  26.392  38.108  1.00 42.19 LIG 0.01  C 
ATOM     21  CG2 VAL D4843     -57.151  23.958  38.629  1.00 33.91 LIG 0.01  C 
ENDBRANCH 5 19
ENDBRANCH 3 5
BRANCH 1 22
ATOM     22  CA  VAL D4842     -59.840  22.739  34.252  1.00 42.26 LIG 0.18  C 
BRANCH 22 23
ATOM     23  N   VAL D4842     -59.277  23.579  33.191  1.00 51.43 LIG-0.34  N 
ATOM     24 H    VAL D4842     -58.524  23.299  32.886  1.00 51.43 LIG 0.16  HD
ATOM     25  C   LEU D4841     -59.887  24.677  32.746  1.00 54.30 LIG 0.26  C 
ATOM     26 O    LEU D4841     -59.511  25.291  31.750  1.00 66.57 LIG-0.27  OA
BRANCH 25 27
ATOM     27  CA  LEU D4841     -61.119  25.130  33.515  1.00 50.85 LIG 0.40  C 
ATOM     28  N   LEU D4841     -61.540  26.465  33.080  1.00 66.18 LIG 0.61  N 
BRANCH 27 29
ATOM     29  CB  LEU D4841     -62.265  24.128  33.324  1.00 58.40 LIG 0.06  C 
BRANCH 29 30
ATOM     30  CG  LEU D4841     -63.247  23.966  34.491  1.00 54.26 LIG-0.02  C 
ATOM     31  CD2 LEU D4841     -64.722  24.106  34.045  1.00 54.78 LIG 0.01  C 
ATOM     32  CD1 LEU D4841     -62.918  24.925  35.643  1.00 32.44 LIG 0.01  C 
ENDBRANCH 29 30
ENDBRANCH 27 29
ENDBRANCH 25 27
ENDBRANCH 22 23
BRANCH 22 33
ATOM     33  CB  VAL D4842     -59.274  21.297  34.205  1.00 48.47 LIG 0.01  C 
ATOM     34  CG2 VAL D4842     -60.369  20.287  33.995  1.00 42.42 LIG 0.01  C 
ATOM     35  CG1 VAL D4842     -58.540  21.001  35.502  1.00 34.87 LIG 0.01  C 
ENDBRANCH 22 33
ENDBRANCH 1 22
TORSDOF 13
ENDMDL
MODEL 14
USER: ADFR SOLUTION from run 69
USER: SCORE 9.209731 LL:  -2.382 LR:  -8.124 RR:   0.000 FEB:  -4.246
USER: RMSD 4.551311
USER: SEED 68
USER: STATUS no improvement in best in 24 clusters for 5 generations
USER: GENES 15
USER: genes 0 Translation |==|  0.47680 0.48820 0.43938
USER: genes 1 Rotation |==|  0.87998 0.69914 0.59217 0.73972
USER: genes 2 Torsion [C]-N--CA-[CB] |==|  0.40841
USER: genes 3 Torsion [N]-CA--C-[N] |==|  0.88353
USER: genes 4 Torsion [C]-N--CA-[CB] |==|  0.34293
USER: genes 5 Torsion [N]-CA--CB-[CG] |==|  0.90404
USER: genes 6 Torsion [CA]-CB--CG-[OD1] |==|  0.68666
USER: genes 7 Torsion [N]-CA--C-[O] |==|  0.18895
USER: genes 8 Torsion [N]-CA--CB-[CG2] |==|  0.79651
USER: genes 9 Torsion [N]-C--CA-[N] |==|  0.44984
USER: genes 10 Torsion [C]-CA--N-[C] |==|  0.79283
USER: genes 11 Torsion [N]-C--CA-[N] |==|  0.25489
USER: genes 12 Torsion [C]-CA--CB-[CG] |==|  0.17146
USER: genes 13 Torsion [CA]-CB--CG-[CD2] |==|  0.68667
USER: genes 14 Torsion [C]-CA--CB-[CG2] |==|  0.86852
ROOT
ATOM      1  C   VAL D4842     -57.527  27.372  38.171  1.00 57.35 LIG 0.24  C 
ATOM      2 O    VAL D4842     -58.308  27.828  39.015  1.00 61.28 LIG-0.27  OA
ATOM      3  N   VAL D4843     -57.805  27.355  36.873  1.00 52.36 LIG-0.35  N 
ATOM      4 H    VAL D4843     -57.213  27.201  36.269  1.00 52.36 LIG 0.16  HD
ENDROOT
BRANCH 3 5
ATOM      5  CA  VAL D4843     -59.136  27.595  36.336  1.00 37.99 LIG 0.18  C 
BRANCH 5 6
ATOM      6  C   VAL D4843     -59.746  26.179  36.199  1.00 51.29 LIG 0.24  C 
ATOM      7  N   ASN D4844     -58.993  25.191  35.732  1.00 50.43 LIG-0.35  N 
ATOM      8 H    ASN D4844     -58.165  25.257  35.512  1.00 50.43 LIG 0.16  HD
ATOM      9 O    VAL D4843     -60.927  25.975  36.515  1.00 47.22 LIG-0.27  OA
BRANCH 7 10
ATOM     10  CA  ASN D4844     -59.593  23.859  35.565  1.00 46.88 LIG 0.17  C 
BRANCH 10 11
ATOM     11  CB  ASN D4844     -59.440  23.384  34.120  1.00 66.72 LIG 0.14  C 
BRANCH 11 12
ATOM     12  CG  ASN D4844     -59.532  24.518  33.117  1.00 62.42 LIG 0.22  C 
ATOM     13 OD1  ASN D4844     -60.477  24.601  32.330  1.00 56.11 LIG-0.27  OA
ATOM     14  ND2 ASN D4844     -58.542  25.402  33.145  1.00 67.26 LIG-0.37  N 
ATOM     15 21HD ASN D4844     -58.543  26.067  32.599  1.00 67.26 LIG 0.16  HD
ATOM     16 22HD ASN D4844     -57.899  25.310  33.709  1.00 67.26 LIG 0.16  HD
ENDBRANCH 11 12
ENDBRANCH 10 11
BRANCH 10 17
ATOM     17  C   ASN D4844     -59.099  22.778  36.542  1.00 52.57 LIG 0.22  C 
ATOM     18 O    ASN D4844     -59.366  22.832  37.753  1.00 48.91 LIG-0.29  OA
ENDBRANCH 10 17
ENDBRANCH 7 10
ENDBRANCH 5 6
BRANCH 5 19
ATOM     19  CB  VAL D4843     -58.973  28.310  34.958  1.00 37.59 LIG 0.01  C 
ATOM     20  CG1 VAL D4843     -60.213  28.215  34.116  1.00 42.19 LIG 0.01  C 
ATOM     21  CG2 VAL D4843     -58.540  29.767  35.144  1.00 33.91 LIG 0.01  C 
ENDBRANCH 5 19
ENDBRANCH 3 5
BRANCH 1 22
ATOM     22  CA  VAL D4842     -56.135  26.831  38.548  1.00 42.26 LIG 0.18  C 
BRANCH 22 23
ATOM     23  N   VAL D4842     -55.634  27.201  39.875  1.00 51.43 LIG-0.34  N 
ATOM     24 H    VAL D4842     -55.660  26.562  40.449  1.00 51.43 LIG 0.16  HD
ATOM     25  C   LEU D4841     -55.181  28.422  40.155  1.00 54.30 LIG 0.26  C 
ATOM     26 O    LEU D4841     -54.607  28.695  41.207  1.00 66.57 LIG-0.27  OA
BRANCH 25 27
ATOM     27  CA  LEU D4841     -55.371  29.482  39.080  1.00 50.85 LIG 0.40  C 
ATOM     28  N   LEU D4841     -56.634  30.199  39.277  1.00 66.18 LIG 0.61  N 
BRANCH 27 29
ATOM     29  CB  LEU D4841     -54.198  30.469  39.091  1.00 58.40 LIG 0.06  C 
BRANCH 29 30
ATOM     30  CG  LEU D4841     -52.806  29.895  38.797  1.00 54.26 LIG-0.02  C 
ATOM     31  CD2 LEU D4841     -51.871  29.953  40.029  1.00 54.78 LIG 0.01  C 
ATOM     32  CD1 LEU D4841     -52.164  30.567  37.577  1.00 32.44 LIG 0.01  C 
ENDBRANCH 29 30
ENDBRANCH 27 29
ENDBRANCH 25 27
ENDBRANCH 22 23
BRANCH 22 33
ATOM     33  CB  VAL D4842     -56.061  25.300  38.312  1.00 48.47 LIG 0.01  C 
ATOM     34  CG2 VAL D4842     -57.260  24.601  38.889  1.00 42.42 LIG 0.01  C 
ATOM     35  CG1 VAL D4842     -54.790  24.754  38.941  1.00 34.87 LIG 0.01  C 
ENDBRANCH 22 33
ENDBRANCH 1 22
TORSDOF 13
ENDMDL
MODEL 15
USER: ADFR SOLUTION from run 29
USER: SCORE 8.797190 LL:  -2.255 LR:  -7.988 RR:   0.000 FEB:  -4.110
USER: RMSD 6.089799
USER: SEED 28
USER: STATUS no improvement in best in 27 clusters for 5 generations
USER: GENES 15
USER: genes 0 Translation |==|  0.40797 0.38370 0.41605
USER: genes 1 Rotation |==|  0.90790 0.57110 0.71919 0.67471
USER: genes 2 Torsion [C]-N--CA-[CB] |==|  0.39339
USER: genes 3 Torsion [N]-CA--C-[N] |==|  0.95000
USER: genes 4 Torsion [C]-N--CA-[CB] |==|  0.83942
USER: genes 5 Torsion [N]-CA--CB-[CG] |==|  0.60165
USER: genes 6 Torsion [CA]-CB--CG-[OD1] |==|  0.13500
USER: genes 7 Torsion [N]-CA--C-[O] |==|  0.82894
USER: genes 8 Torsion [N]-CA--CB-[CG2] |==|  0.83746
USER: genes 9 Torsion [N]-C--CA-[N] |==|  0.38270
USER: genes 10 Torsion [C]-CA--N-[C] |==|  0.67814
USER: genes 11 Torsion [N]-C--CA-[N] |==|  0.28107
USER: genes 12 Torsion [C]-CA--CB-[CG] |==|  0.22646
USER: genes 13 Torsion [CA]-CB--CG-[CD2] |==|  0.77437
USER: genes 14 Torsion [C]-CA--CB-[CG2] |==|  0.95388
ROOT
ATOM      1  C   VAL D4842     -58.973  25.648  37.821  1.00 57.35 LIG 0.24  C 
ATOM      2 O    VAL D4842     -60.077  25.845  38.341  1.00 61.28 LIG-0.27  OA
ATOM      3  N   VAL D4843     -58.552  26.319  36.756  1.00 52.36 LIG-0.35  N 
ATOM      4 H    VAL D4843     -57.734  26.314  36.492  1.00 52.36 LIG 0.16  HD
ENDROOT
BRANCH 3 5
ATOM      5  CA  VAL D4843     -59.427  27.134  35.926  1.00 37.99 LIG 0.18  C 
BRANCH 5 6
ATOM      6  C   VAL D4843     -59.760  26.219  34.722  1.00 51.29 LIG 0.24  C 
ATOM      7  N   ASN D4844     -58.992  25.166  34.476  1.00 50.43 LIG-0.35  N 
ATOM      8 H    ASN D4844     -58.318  24.920  34.950  1.00 50.43 LIG 0.16  HD
ATOM      9 O    VAL D4843     -60.729  26.475  33.993  1.00 47.22 LIG-0.27  OA
BRANCH 7 10
ATOM     10  CA  ASN D4844     -59.289  24.327  33.306  1.00 46.88 LIG 0.17  C 
BRANCH 10 11
ATOM     11  CB  ASN D4844     -60.716  23.785  33.389  1.00 66.72 LIG 0.14  C 
BRANCH 11 12
ATOM     12  CG  ASN D4844     -60.838  22.371  32.854  1.00 62.42 LIG 0.22  C 
ATOM     13 OD1  ASN D4844     -60.058  21.484  33.207  1.00 56.11 LIG-0.27  OA
ATOM     14  ND2 ASN D4844     -61.827  22.156  31.995  1.00 67.26 LIG-0.37  N 
ATOM     15 21HD ASN D4844     -61.944  21.372  31.660  1.00 67.26 LIG 0.16  HD
ATOM     16 22HD ASN D4844     -62.351  22.801  31.773  1.00 67.26 LIG 0.16  HD
ENDBRANCH 11 12
ENDBRANCH 10 11
BRANCH 10 17
ATOM     17  C   ASN D4844     -59.040  24.981  31.936  1.00 52.57 LIG 0.22  C 
ATOM     18 O    ASN D4844     -59.658  25.998  31.584  1.00 48.91 LIG-0.29  OA
ENDBRANCH 10 17
ENDBRANCH 7 10
ENDBRANCH 5 6
BRANCH 5 19
ATOM     19  CB  VAL D4843     -58.633  28.410  35.505  1.00 37.59 LIG 0.01  C 
ATOM     20  CG1 VAL D4843     -59.416  29.284  34.566  1.00 42.19 LIG 0.01  C 
ATOM     21  CG2 VAL D4843     -58.164  29.195  36.733  1.00 33.91 LIG 0.01  C 
ENDBRANCH 5 19
ENDBRANCH 3 5
BRANCH 1 22
ATOM     22  CA  VAL D4842     -57.961  24.639  38.398  1.00 42.26 LIG 0.18  C 
BRANCH 22 23
ATOM     23  N   VAL D4842     -57.849  24.599  39.859  1.00 51.43 LIG-0.34  N 
ATOM     24 H    VAL D4842     -58.567  24.342  40.258  1.00 51.43 LIG 0.16  HD
ATOM     25  C   LEU D4841     -56.731  24.932  40.502  1.00 54.30 LIG 0.26  C 
ATOM     26 O    LEU D4841     -56.573  24.744  41.706  1.00 66.57 LIG-0.27  OA
BRANCH 25 27
ATOM     27  CA  LEU D4841     -55.616  25.535  39.660  1.00 50.85 LIG 0.40  C 
ATOM     28  N   LEU D4841     -55.580  26.993  39.814  1.00 66.18 LIG 0.61  N 
BRANCH 27 29
ATOM     29  CB  LEU D4841     -54.264  24.930  40.054  1.00 58.40 LIG 0.06  C 
BRANCH 29 30
ATOM     30  CG  LEU D4841     -53.911  23.565  39.450  1.00 54.26 LIG-0.02  C 
ATOM     31  CD2 LEU D4841     -54.576  22.393  40.211  1.00 54.78 LIG 0.01  C 
ATOM     32  CD1 LEU D4841     -52.393  23.371  39.340  1.00 32.44 LIG 0.01  C 
ENDBRANCH 29 30
ENDBRANCH 27 29
ENDBRANCH 25 27
ENDBRANCH 22 23
BRANCH 22 33
ATOM     33  CB  VAL D4842     -58.195  23.228  37.800  1.00 48.47 LIG 0.01  C 
ATOM     34  CG2 VAL D4842     -59.549  23.126  37.155  1.00 42.42 LIG 0.01  C 
ATOM     35  CG1 VAL D4842     -58.066  22.187  38.900  1.00 34.87 LIG 0.01  C 
ENDBRANCH 22 33
ENDBRANCH 1 22
TORSDOF 13
ENDMDL
MODEL 16
USER: ADFR SOLUTION from run 127
USER: SCORE 9.544145 LL:  -2.077 LR:  -7.965 RR:   0.000 FEB:  -4.087
USER: RMSD 9.360762
USER: SEED 126
USER: STATUS no improvement in best in 16 clusters for 5 generations
USER: GENES 15
USER: genes 0 Translation |==|  0.34212 0.44530 0.14518
USER: genes 1 Rotation |==|  0.59693 0.28614 0.93528 0.57349
USER: genes 2 Torsion [C]-N--CA-[CB] |==|  0.15138
USER: genes 3 Torsion [N]-CA--C-[N] |==|  0.12778
USER: genes 4 Torsion [C]-N--CA-[CB] |==|  0.44601
USER: genes 5 Torsion [N]-CA--CB-[CG] |==|  0.12029
USER: genes 6 Torsion [CA]-CB--CG-[OD1] |==|  0.72002
USER: genes 7 Torsion [N]-CA--C-[O] |==|  0.76691
USER: genes 8 Torsion [N]-CA--CB-[CG2] |==|  0.51985
USER: genes 9 Torsion [N]-C--CA-[N] |==|  0.36179
USER: genes 10 Torsion [C]-CA--N-[C] |==|  0.54001
USER: genes 11 Torsion [N]-C--CA-[N] |==|  0.25764
USER: genes 12 Torsion [C]-CA--CB-[CG] |==|  0.27399
USER: genes 13 Torsion [CA]-CB--CG-[CD2] |==|  0.19326
USER: genes 14 Torsion [C]-CA--CB-[CG2] |==|  0.30622
ROOT
ATOM      1  C   VAL D4842     -60.355  26.665  33.758  1.00 57.35 LIG 0.24  C 
ATOM      2 O    VAL D4842     -60.549  27.413  32.792  1.00 61.28 LIG-0.27  OA
ATOM      3  N   VAL D4843     -59.689  27.047  34.839  1.00 52.36 LIG-0.35  N 
ATOM      4 H    VAL D4843     -59.694  26.602  35.575  1.00 52.36 LIG 0.16  HD
ENDROOT
BRANCH 3 5
ATOM      5  CA  VAL D4843     -58.882  28.257  34.897  1.00 37.99 LIG 0.18  C 
BRANCH 5 6
ATOM      6  C   VAL D4843     -58.443  28.346  36.379  1.00 51.29 LIG 0.24  C 
ATOM      7  N   ASN D4844     -57.981  27.259  36.984  1.00 50.43 LIG-0.35  N 
ATOM      8 H    ASN D4844     -57.877  26.490  36.615  1.00 50.43 LIG 0.16  HD
ATOM      9 O    VAL D4843     -58.532  29.419  36.993  1.00 47.22 LIG-0.27  OA
BRANCH 7 10
ATOM     10  CA  ASN D4844     -57.608  27.340  38.404  1.00 46.88 LIG 0.17  C 
BRANCH 10 11
ATOM     11  CB  ASN D4844     -57.569  25.944  39.026  1.00 66.72 LIG 0.14  C 
BRANCH 11 12
ATOM     12  CG  ASN D4844     -56.896  24.923  38.130  1.00 62.42 LIG 0.22  C 
ATOM     13 OD1  ASN D4844     -57.555  24.132  37.452  1.00 56.11 LIG-0.27  OA
ATOM     14  ND2 ASN D4844     -55.568  24.937  38.127  1.00 67.26 LIG-0.37  N 
ATOM     15 21HD ASN D4844     -55.133  24.379  37.636  1.00 67.26 LIG 0.16  HD
ATOM     16 22HD ASN D4844     -55.142  25.504  38.615  1.00 67.26 LIG 0.16  HD
ENDBRANCH 11 12
ENDBRANCH 10 11
BRANCH 10 17
ATOM     17  C   ASN D4844     -56.306  28.101  38.708  1.00 52.57 LIG 0.22  C 
ATOM     18 O    ASN D4844     -55.199  27.544  38.634  1.00 48.91 LIG-0.29  OA
ENDBRANCH 10 17
ENDBRANCH 7 10
ENDBRANCH 5 6
BRANCH 5 19
ATOM     19  CB  VAL D4843     -59.786  29.455  34.469  1.00 37.59 LIG 0.01  C 
ATOM     20  CG1 VAL D4843     -60.951  29.649  35.397  1.00 42.19 LIG 0.01  C 
ATOM     21  CG2 VAL D4843     -58.966  30.741  34.333  1.00 33.91 LIG 0.01  C 
ENDBRANCH 5 19
ENDBRANCH 3 5
BRANCH 1 22
ATOM     22  CA  VAL D4842     -60.921  25.232  33.811  1.00 42.26 LIG 0.18  C 
BRANCH 22 23
ATOM     23  N   VAL D4842     -62.335  25.080  33.456  1.00 51.43 LIG-0.34  N 
ATOM     24 H    VAL D4842     -62.672  25.767  33.063  1.00 51.43 LIG 0.16  HD
ATOM     25  C   LEU D4841     -63.026  23.973  33.721  1.00 54.30 LIG 0.26  C 
ATOM     26 O    LEU D4841     -64.156  23.771  33.281  1.00 66.57 LIG-0.27  OA
BRANCH 25 27
ATOM     27  CA  LEU D4841     -62.331  22.926  34.578  1.00 50.85 LIG 0.40  C 
ATOM     28  N   LEU D4841     -62.654  23.118  35.995  1.00 66.18 LIG 0.61  N 
BRANCH 27 29
ATOM     29  CB  LEU D4841     -62.737  21.516  34.132  1.00 58.40 LIG 0.06  C 
BRANCH 29 30
ATOM     30  CG  LEU D4841     -61.764  20.774  33.207  1.00 54.26 LIG-0.02  C 
ATOM     31  CD2 LEU D4841     -60.459  20.363  33.930  1.00 54.78 LIG 0.01  C 
ATOM     32  CD1 LEU D4841     -61.467  21.581  31.935  1.00 32.44 LIG 0.01  C 
ENDBRANCH 29 30
ENDBRANCH 27 29
ENDBRANCH 25 27
ENDBRANCH 22 23
BRANCH 22 33
ATOM     33  CB  VAL D4842     -60.018  24.258  33.012  1.00 48.47 LIG 0.01  C 
ATOM     34  CG2 VAL D4842     -59.292  23.311  33.926  1.00 42.42 LIG 0.01  C 
ATOM     35  CG1 VAL D4842     -59.017  25.055  32.192  1.00 34.87 LIG 0.01  C 
ENDBRANCH 22 33
ENDBRANCH 1 22
TORSDOF 13
ENDMDL
MODEL 17
USER: ADFR SOLUTION from run 40
USER: SCORE 8.809710 LL:  -2.512 LR:  -7.957 RR:   0.000 FEB:  -4.079
USER: RMSD 8.078141
USER: SEED 39
USER: STATUS no improvement in best in 36 clusters for 5 generations
USER: GENES 15
USER: genes 0 Translation |==|  0.37630 0.31811 0.32993
USER: genes 1 Rotation |==|  0.06788 0.70824 0.39413 0.59325
USER: genes 2 Torsion [C]-N--CA-[CB] |==|  0.36969
USER: genes 3 Torsion [N]-CA--C-[N] |==|  0.85559
USER: genes 4 Torsion [C]-N--CA-[CB] |==|  0.79599
USER: genes 5 Torsion [N]-CA--CB-[CG] |==|  0.50330
USER: genes 6 Torsion [CA]-CB--CG-[OD1] |==|  0.12098
USER: genes 7 Torsion [N]-CA--C-[O] |==|  0.08917
USER: genes 8 Torsion [N]-CA--CB-[CG2] |==|  0.35976
USER: genes 9 Torsion [N]-C--CA-[N] |==|  0.89463
USER: genes 10 Torsion [C]-CA--N-[C] |==|  0.68431
USER: genes 11 Torsion [N]-C--CA-[N] |==|  0.83321
USER: genes 12 Torsion [C]-CA--CB-[CG] |==|  0.11155
USER: genes 13 Torsion [CA]-CB--CG-[CD2] |==|  0.50082
USER: genes 14 Torsion [C]-CA--CB-[CG2] |==|  0.41201
ROOT
ATOM      1  C   VAL D4842     -59.638  24.566  36.529  1.00 57.35 LIG 0.24  C 
ATOM      2 O    VAL D4842     -60.565  24.384  37.327  1.00 61.28 LIG-0.27  OA
ATOM      3  N   VAL D4843     -58.636  25.401  36.773  1.00 52.36 LIG-0.35  N 
ATOM      4 H    VAL D4843     -57.910  25.410  36.312  1.00 52.36 LIG 0.16  HD
ENDROOT
BRANCH 3 5
ATOM      5  CA  VAL D4843     -58.659  26.389  37.842  1.00 37.99 LIG 0.18  C 
BRANCH 5 6
ATOM      6  C   VAL D4843     -58.838  27.738  37.104  1.00 51.29 LIG 0.24  C 
ATOM      7  N   ASN D4844     -58.016  28.046  36.109  1.00 50.43 LIG-0.35  N 
ATOM      8 H    ASN D4844     -57.387  27.543  35.809  1.00 50.43 LIG 0.16  HD
ATOM      9 O    VAL D4843     -59.735  28.523  37.446  1.00 47.22 LIG-0.27  OA
BRANCH 7 10
ATOM     10  CA  ASN D4844     -58.165  29.348  35.441  1.00 46.88 LIG 0.17  C 
BRANCH 10 11
ATOM     11  CB  ASN D4844     -59.407  29.349  34.550  1.00 66.72 LIG 0.14  C 
BRANCH 11 12
ATOM     12  CG  ASN D4844     -59.596  30.660  33.812  1.00 62.42 LIG 0.22  C 
ATOM     13 OD1  ASN D4844     -58.648  31.235  33.274  1.00 56.11 LIG-0.27  OA
ATOM     14  ND2 ASN D4844     -60.835  31.139  33.783  1.00 67.26 LIG-0.37  N 
ATOM     15 21HD ASN D4844     -61.000  31.879  33.377  1.00 67.26 LIG 0.16  HD
ATOM     16 22HD ASN D4844     -61.471  30.709  34.170  1.00 67.26 LIG 0.16  HD
ENDBRANCH 11 12
ENDBRANCH 10 11
BRANCH 10 17
ATOM     17  C   ASN D4844     -58.165  30.576  36.368  1.00 52.57 LIG 0.22  C 
ATOM     18 O    ASN D4844     -57.505  30.592  37.419  1.00 48.91 LIG-0.29  OA
ENDBRANCH 10 17
ENDBRANCH 7 10
ENDBRANCH 5 6
BRANCH 5 19
ATOM     19  CB  VAL D4843     -57.299  26.300  38.603  1.00 37.59 LIG 0.01  C 
ATOM     20  CG1 VAL D4843     -56.351  25.326  37.963  1.00 42.19 LIG 0.01  C 
ATOM     21  CG2 VAL D4843     -56.659  27.683  38.746  1.00 33.91 LIG 0.01  C 
ENDBRANCH 5 19
ENDBRANCH 3 5
BRANCH 1 22
ATOM     22  CA  VAL D4842     -59.535  23.794  35.199  1.00 42.26 LIG 0.18  C 
BRANCH 22 23
ATOM     23  N   VAL D4842     -58.999  24.541  34.057  1.00 51.43 LIG-0.34  N 
ATOM     24 H    VAL D4842     -58.172  24.761  34.142  1.00 51.43 LIG 0.16  HD
ATOM     25  C   LEU D4841     -59.734  24.845  32.990  1.00 54.30 LIG 0.26  C 
ATOM     26 O    LEU D4841     -59.254  25.319  31.962  1.00 66.57 LIG-0.27  OA
BRANCH 25 27
ATOM     27  CA  LEU D4841     -61.222  24.538  33.079  1.00 50.85 LIG 0.40  C 
ATOM     28  N   LEU D4841     -61.444  23.106  33.299  1.00 66.18 LIG 0.61  N 
BRANCH 27 29
ATOM     29  CB  LEU D4841     -61.867  25.351  34.208  1.00 58.40 LIG 0.06  C 
BRANCH 29 30
ATOM     30  CG  LEU D4841     -61.400  26.802  34.372  1.00 54.26 LIG-0.02  C 
ATOM     31  CD2 LEU D4841     -62.110  27.523  35.543  1.00 54.78 LIG 0.01  C 
ATOM     32  CD1 LEU D4841     -61.540  27.592  33.064  1.00 32.44 LIG 0.01  C 
ENDBRANCH 29 30
ENDBRANCH 27 29
ENDBRANCH 25 27
ENDBRANCH 22 23
BRANCH 22 33
ATOM     33  CB  VAL D4842     -58.797  22.447  35.404  1.00 48.47 LIG 0.01  C 
ATOM     34  CG2 VAL D4842     -59.308  21.395  34.459  1.00 42.42 LIG 0.01  C 
ATOM     35  CG1 VAL D4842     -58.980  21.985  36.840  1.00 34.87 LIG 0.01  C 
ENDBRANCH 22 33
ENDBRANCH 1 22
TORSDOF 13
ENDMDL
MODEL 18
USER: ADFR SOLUTION from run 41
USER: SCORE 9.303524 LL:  -2.852 LR:  -7.906 RR:   0.000 FEB:  -4.028
USER: RMSD 8.771220
USER: SEED 40
USER: STATUS no improvement in best in 23 clusters for 5 generations
USER: GENES 15
USER: genes 0 Translation |==|  0.38059 0.24454 0.30625
USER: genes 1 Rotation |==|  0.04653 0.67792 0.48303 0.61143
USER: genes 2 Torsion [C]-N--CA-[CB] |==|  0.36112
USER: genes 3 Torsion [N]-CA--C-[N] |==|  0.85716
USER: genes 4 Torsion [C]-N--CA-[CB] |==|  0.28257
USER: genes 5 Torsion [N]-CA--CB-[CG] |==|  0.83717
USER: genes 6 Torsion [CA]-CB--CG-[OD1] |==|  0.31198
USER: genes 7 Torsion [N]-CA--C-[O] |==|  0.11329
USER: genes 8 Torsion [N]-CA--CB-[CG2] |==|  0.77690
USER: genes 9 Torsion [N]-C--CA-[N] |==|  0.93066
USER: genes 10 Torsion [C]-CA--N-[C] |==|  0.75659
USER: genes 11 Torsion [N]-C--CA-[N] |==|  0.38354
USER: genes 12 Torsion [C]-CA--CB-[CG] |==|  0.17071
USER: genes 13 Torsion [CA]-CB--CG-[CD2] |==|  0.74581
USER: genes 14 Torsion [C]-CA--CB-[CG2] |==|  0.34988
ROOT
ATOM      1  C   VAL D4842     -59.548  23.352  36.174  1.00 57.35 LIG 0.24  C 
ATOM      2 O    VAL D4842     -60.154  22.845  37.125  1.00 61.28 LIG-0.27  OA
ATOM      3  N   VAL D4843     -58.701  24.363  36.320  1.00 52.36 LIG-0.35  N 
ATOM      4 H    VAL D4843     -58.153  24.609  35.705  1.00 52.36 LIG 0.16  HD
ENDROOT
BRANCH 3 5
ATOM      5  CA  VAL D4843     -58.609  25.161  37.534  1.00 37.99 LIG 0.18  C 
BRANCH 5 6
ATOM      6  C   VAL D4843     -59.177  26.541  37.121  1.00 51.29 LIG 0.24  C 
ATOM      7  N   ASN D4844     -58.699  27.141  36.038  1.00 50.43 LIG-0.35  N 
ATOM      8 H    ASN D4844     -58.100  26.817  35.513  1.00 50.43 LIG 0.16  HD
ATOM      9 O    VAL D4843     -60.063  27.080  37.800  1.00 47.22 LIG-0.27  OA
BRANCH 7 10
ATOM     10  CA  ASN D4844     -59.213  28.470  35.677  1.00 46.88 LIG 0.17  C 
BRANCH 10 11
ATOM     11  CB  ASN D4844     -58.220  29.555  36.090  1.00 66.72 LIG 0.14  C 
BRANCH 11 12
ATOM     12  CG  ASN D4844     -57.925  29.545  37.577  1.00 62.42 LIG 0.22  C 
ATOM     13 OD1  ASN D4844     -56.813  29.232  38.007  1.00 56.11 LIG-0.27  OA
ATOM     14  ND2 ASN D4844     -58.930  29.891  38.373  1.00 67.26 LIG-0.37  N 
ATOM     15 21HD ASN D4844     -58.819  29.903  39.226  1.00 67.26 LIG 0.16  HD
ATOM     16 22HD ASN D4844     -59.693  30.103  38.035  1.00 67.26 LIG 0.16  HD
ENDBRANCH 11 12
ENDBRANCH 10 11
BRANCH 10 17
ATOM     17  C   ASN D4844     -59.625  28.647  34.205  1.00 52.57 LIG 0.22  C 
ATOM     18 O    ASN D4844     -60.232  27.755  33.591  1.00 48.91 LIG-0.29  OA
ENDBRANCH 10 17
ENDBRANCH 7 10
ENDBRANCH 5 6
BRANCH 5 19
ATOM     19  CB  VAL D4843     -57.105  25.234  37.944  1.00 37.59 LIG 0.01  C 
ATOM     20  CG1 VAL D4843     -56.794  26.459  38.757  1.00 42.19 LIG 0.01  C 
ATOM     21  CG2 VAL D4843     -56.673  23.960  38.676  1.00 33.91 LIG 0.01  C 
ENDBRANCH 5 19
ENDBRANCH 3 5
BRANCH 1 22
ATOM     22  CA  VAL D4842     -59.682  22.816  34.735  1.00 42.26 LIG 0.18  C 
BRANCH 22 23
ATOM     23  N   VAL D4842     -59.359  23.759  33.660  1.00 51.43 LIG-0.34  N 
ATOM     24 H    VAL D4842     -58.540  23.725  33.400  1.00 51.43 LIG 0.16  HD
ATOM     25  C   LEU D4841     -60.261  24.589  33.140  1.00 54.30 LIG 0.26  C 
ATOM     26 O    LEU D4841     -60.047  25.260  32.133  1.00 66.57 LIG-0.27  OA
BRANCH 25 27
ATOM     27  CA  LEU D4841     -61.613  24.648  33.836  1.00 50.85 LIG 0.40  C 
ATOM     28  N   LEU D4841     -62.086  26.032  33.936  1.00 66.18 LIG 0.61  N 
BRANCH 27 29
ATOM     29  CB  LEU D4841     -62.639  23.794  33.080  1.00 58.40 LIG 0.06  C 
BRANCH 29 30
ATOM     30  CG  LEU D4841     -62.343  22.293  32.967  1.00 54.26 LIG-0.02  C 
ATOM     31  CD2 LEU D4841     -61.554  21.942  31.683  1.00 54.78 LIG 0.01  C 
ATOM     32  CD1 LEU D4841     -63.623  21.455  33.082  1.00 32.44 LIG 0.01  C 
ENDBRANCH 29 30
ENDBRANCH 27 29
ENDBRANCH 25 27
ENDBRANCH 22 23
BRANCH 22 33
ATOM     33  CB  VAL D4842     -58.915  21.478  34.577  1.00 48.47 LIG 0.01  C 
ATOM     34  CG2 VAL D4842     -59.808  20.398  34.032  1.00 42.42 LIG 0.01  C 
ATOM     35  CG1 VAL D4842     -58.355  21.055  35.924  1.00 34.87 LIG 0.01  C 
ENDBRANCH 22 33
ENDBRANCH 1 22
TORSDOF 13
ENDMDL
MODEL 19
USER: ADFR SOLUTION from run 174
USER: SCORE 9.187440 LL:  -2.511 LR:  -7.897 RR:   0.000 FEB:  -4.020
USER: RMSD 9.554235
USER: SEED 173
USER: STATUS no improvement in best in 29 clusters for 5 generations
USER: GENES 15
USER: genes 0 Translation |==|  0.27077 0.37342 0.23044
USER: genes 1 Rotation |==|  0.94892 0.62088 0.31643 0.51271
USER: genes 2 Torsion [C]-N--CA-[CB] |==|  0.89593
USER: genes 3 Torsion [N]-CA--C-[N] |==|  0.83641
USER: genes 4 Torsion [C]-N--CA-[CB] |==|  0.34309
USER: genes 5 Torsion [N]-CA--CB-[CG] |==|  0.22129
USER: genes 6 Torsion [CA]-CB--CG-[OD1] |==|  0.39212
USER: genes 7 Torsion [N]-CA--C-[O] |==|  0.85963
USER: genes 8 Torsion [N]-CA--CB-[CG2] |==|  0.81649
USER: genes 9 Torsion [N]-C--CA-[N] |==|  0.92878
USER: genes 10 Torsion [C]-CA--N-[C] |==|  0.62224
USER: genes 11 Torsion [N]-C--CA-[N] |==|  0.41762
USER: genes 12 Torsion [C]-CA--CB-[CG] |==|  0.41588
USER: genes 13 Torsion [CA]-CB--CG-[CD2] |==|  0.30128
USER: genes 14 Torsion [C]-CA--CB-[CG2] |==|  0.22632
ROOT
ATOM      1  C   VAL D4842     -61.854  25.478  35.037  1.00 57.35 LIG 0.24  C 
ATOM      2 O    VAL D4842     -61.081  25.388  35.998  1.00 61.28 LIG-0.27  OA
ATOM      3  N   VAL D4843     -62.736  26.462  34.916  1.00 52.36 LIG-0.35  N 
ATOM      4 H    VAL D4843     -63.154  26.630  34.184  1.00 52.36 LIG 0.16  HD
ENDROOT
BRANCH 3 5
ATOM      5  CA  VAL D4843     -63.089  27.359  36.007  1.00 37.99 LIG 0.18  C 
BRANCH 5 6
ATOM      6  C   VAL D4843     -61.960  28.420  36.001  1.00 51.29 LIG 0.24  C 
ATOM      7  N   ASN D4844     -60.703  28.028  36.164  1.00 50.43 LIG-0.35  N 
ATOM      8 H    ASN D4844     -60.443  27.214  36.254  1.00 50.43 LIG 0.16  HD
ATOM      9 O    VAL D4843     -62.232  29.620  35.852  1.00 47.22 LIG-0.27  OA
BRANCH 7 10
ATOM     10  CA  ASN D4844     -59.641  29.045  36.201  1.00 46.88 LIG 0.17  C 
BRANCH 10 11
ATOM     11  CB  ASN D4844     -58.843  28.934  37.499  1.00 66.72 LIG 0.14  C 
BRANCH 11 12
ATOM     12  CG  ASN D4844     -57.816  27.819  37.463  1.00 62.42 LIG 0.22  C 
ATOM     13 OD1  ASN D4844     -56.702  27.957  37.971  1.00 56.11 LIG-0.27  OA
ATOM     14  ND2 ASN D4844     -58.194  26.699  36.855  1.00 67.26 LIG-0.37  N 
ATOM     15 21HD ASN D4844     -57.651  26.033  36.806  1.00 67.26 LIG 0.16  HD
ATOM     16 22HD ASN D4844     -58.980  26.641  36.512  1.00 67.26 LIG 0.16  HD
ENDBRANCH 11 12
ENDBRANCH 10 11
BRANCH 10 17
ATOM     17  C   ASN D4844     -58.697  29.065  34.987  1.00 52.57 LIG 0.22  C 
ATOM     18 O    ASN D4844     -58.145  28.030  34.580  1.00 48.91 LIG-0.29  OA
ENDBRANCH 10 17
ENDBRANCH 7 10
ENDBRANCH 5 6
BRANCH 5 19
ATOM     19  CB  VAL D4843     -63.116  26.523  37.324  1.00 37.59 LIG 0.01  C 
ATOM     20  CG1 VAL D4843     -63.203  27.390  38.548  1.00 42.19 LIG 0.01  C 
ATOM     21  CG2 VAL D4843     -64.246  25.490  37.296  1.00 33.91 LIG 0.01  C 
ENDBRANCH 5 19
ENDBRANCH 3 5
BRANCH 1 22
ATOM     22  CA  VAL D4842     -61.823  24.482  33.862  1.00 42.26 LIG 0.18  C 
BRANCH 22 23
ATOM     23  N   VAL D4842     -63.061  24.355  33.088  1.00 51.43 LIG-0.34  N 
ATOM     24 H    VAL D4842     -63.436  25.107  32.903  1.00 51.43 LIG 0.16  HD
ATOM     25  C   LEU D4841     -63.553  23.177  32.709  1.00 54.30 LIG 0.26  C 
ATOM     26 O    LEU D4841     -64.491  23.067  31.923  1.00 66.57 LIG-0.27  OA
BRANCH 25 27
ATOM     27  CA  LEU D4841     -62.866  21.940  33.271  1.00 50.85 LIG 0.40  C 
ATOM     28  N   LEU D4841     -63.816  20.830  33.394  1.00 66.18 LIG 0.61  N 
BRANCH 27 29
ATOM     29  CB  LEU D4841     -61.690  21.531  32.376  1.00 58.40 LIG 0.06  C 
BRANCH 29 30
ATOM     30  CG  LEU D4841     -60.504  20.841  33.061  1.00 54.26 LIG-0.02  C 
ATOM     31  CD2 LEU D4841     -60.416  19.335  32.716  1.00 54.78 LIG 0.01  C 
ATOM     32  CD1 LEU D4841     -60.519  21.066  34.579  1.00 32.44 LIG 0.01  C 
ENDBRANCH 29 30
ENDBRANCH 27 29
ENDBRANCH 25 27
ENDBRANCH 22 23
BRANCH 22 33
ATOM     33  CB  VAL D4842     -60.599  24.750  32.950  1.00 48.47 LIG 0.01  C 
ATOM     34  CG2 VAL D4842     -59.351  24.128  33.513  1.00 42.42 LIG 0.01  C 
ATOM     35  CG1 VAL D4842     -60.404  26.249  32.794  1.00 34.87 LIG 0.01  C 
ENDBRANCH 22 33
ENDBRANCH 1 22
TORSDOF 13
ENDMDL
MODEL 20
USER: ADFR SOLUTION from run 155
USER: SCORE 9.449215 LL:  -2.572 LR:  -7.885 RR:   0.000 FEB:  -4.007
USER: RMSD 8.502644
USER: SEED 154
USER: STATUS no improvement in best in 20 clusters for 5 generations
USER: GENES 15
USER: genes 0 Translation |==|  0.39690 0.43171 0.31699
USER: genes 1 Rotation |==|  0.97594 0.35782 0.52590 0.55096
USER: genes 2 Torsion [C]-N--CA-[CB] |==|  0.82184
USER: genes 3 Torsion [N]-CA--C-[N] |==|  0.09531
USER: genes 4 Torsion [C]-N--CA-[CB] |==|  0.36061
USER: genes 5 Torsion [N]-CA--CB-[CG] |==|  0.18067
USER: genes 6 Torsion [CA]-CB--CG-[OD1] |==|  0.33769
USER: genes 7 Torsion [N]-CA--C-[O] |==|  0.05704
USER: genes 8 Torsion [N]-CA--CB-[CG2] |==|  0.85669
USER: genes 9 Torsion [N]-C--CA-[N] |==|  0.98333
USER: genes 10 Torsion [C]-CA--N-[C] |==|  0.74768
USER: genes 11 Torsion [N]-C--CA-[N] |==|  0.38867
USER: genes 12 Torsion [C]-CA--CB-[CG] |==|  0.09927
USER: genes 13 Torsion [CA]-CB--CG-[CD2] |==|  0.72041
USER: genes 14 Torsion [C]-CA--CB-[CG2] |==|  0.51311
ROOT
ATOM      1  C   VAL D4842     -59.205  26.440  36.335  1.00 57.35 LIG 0.24  C 
ATOM      2 O    VAL D4842     -59.594  26.567  37.502  1.00 61.28 LIG-0.27  OA
ATOM      3  N   VAL D4843     -58.540  27.392  35.693  1.00 52.36 LIG-0.35  N 
ATOM      4 H    VAL D4843     -58.122  27.256  34.955  1.00 52.36 LIG 0.16  HD
ENDROOT
BRANCH 3 5
ATOM      5  CA  VAL D4843     -58.447  28.765  36.170  1.00 37.99 LIG 0.18  C 
BRANCH 5 6
ATOM      6  C   VAL D4843     -57.873  28.626  37.602  1.00 51.29 LIG 0.24  C 
ATOM      7  N   ASN D4844     -57.002  27.660  37.860  1.00 50.43 LIG-0.35  N 
ATOM      8 H    ASN D4844     -56.697  27.098  37.285  1.00 50.43 LIG 0.16  HD
ATOM      9 O    VAL D4843     -58.232  29.406  38.496  1.00 47.22 LIG-0.27  OA
BRANCH 7 10
ATOM     10  CA  ASN D4844     -56.494  27.508  39.232  1.00 46.88 LIG 0.17  C 
BRANCH 10 11
ATOM     11  CB  ASN D4844     -56.627  26.056  39.691  1.00 66.72 LIG 0.14  C 
BRANCH 11 12
ATOM     12  CG  ASN D4844     -55.757  25.107  38.890  1.00 62.42 LIG 0.22  C 
ATOM     13 OD1  ASN D4844     -54.903  24.406  39.436  1.00 56.11 LIG-0.27  OA
ATOM     14  ND2 ASN D4844     -55.974  25.082  37.580  1.00 67.26 LIG-0.37  N 
ATOM     15 21HD ASN D4844     -55.509  24.561  37.077  1.00 67.26 LIG 0.16  HD
ATOM     16 22HD ASN D4844     -56.579  25.586  37.235  1.00 67.26 LIG 0.16  HD
ENDBRANCH 11 12
ENDBRANCH 10 11
BRANCH 10 17
ATOM     17  C   ASN D4844     -55.065  28.022  39.474  1.00 52.57 LIG 0.22  C 
ATOM     18 O    ASN D4844     -54.536  28.846  38.710  1.00 48.91 LIG-0.29  OA
ENDBRANCH 10 17
ENDBRANCH 7 10
ENDBRANCH 5 6
BRANCH 5 19
ATOM     19  CB  VAL D4843     -59.884  29.373  36.159  1.00 37.59 LIG 0.01  C 
ATOM     20  CG1 VAL D4843     -59.893  30.820  36.562  1.00 42.19 LIG 0.01  C 
ATOM     21  CG2 VAL D4843     -60.554  29.173  34.796  1.00 33.91 LIG 0.01  C 
ENDBRANCH 5 19
ENDBRANCH 3 5
BRANCH 1 22
ATOM     22  CA  VAL D4842     -59.412  25.138  35.538  1.00 42.26 LIG 0.18  C 
BRANCH 22 23
ATOM     23  N   VAL D4842     -58.976  25.159  34.138  1.00 51.43 LIG-0.34  N 
ATOM     24 H    VAL D4842     -58.156  24.927  34.025  1.00 51.43 LIG 0.16  HD
ATOM     25  C   LEU D4841     -59.786  25.507  33.140  1.00 54.30 LIG 0.26  C 
ATOM     26 O    LEU D4841     -59.484  25.368  31.957  1.00 66.57 LIG-0.27  OA
BRANCH 25 27
ATOM     27  CA  LEU D4841     -61.149  26.061  33.531  1.00 50.85 LIG 0.40  C 
ATOM     28  N   LEU D4841     -61.521  27.181  32.662  1.00 66.18 LIG 0.61  N 
BRANCH 27 29
ATOM     29  CB  LEU D4841     -62.213  24.959  33.455  1.00 58.40 LIG 0.06  C 
BRANCH 29 30
ATOM     30  CG  LEU D4841     -61.778  23.545  33.860  1.00 54.26 LIG-0.02  C 
ATOM     31  CD2 LEU D4841     -61.484  22.645  32.636  1.00 54.78 LIG 0.01  C 
ATOM     32  CD1 LEU D4841     -62.795  22.890  34.804  1.00 32.44 LIG 0.01  C 
ENDBRANCH 29 30
ENDBRANCH 27 29
ENDBRANCH 25 27
ENDBRANCH 22 23
BRANCH 22 33
ATOM     33  CB  VAL D4842     -58.823  23.927  36.306  1.00 48.47 LIG 0.01  C 
ATOM     34  CG2 VAL D4842     -58.915  22.667  35.491  1.00 42.42 LIG 0.01  C 
ATOM     35  CG1 VAL D4842     -59.570  23.751  37.618  1.00 34.87 LIG 0.01  C 
ENDBRANCH 22 33
ENDBRANCH 1 22
TORSDOF 13
ENDMDL
MODEL 21
USER: ADFR SOLUTION from run 72
USER: SCORE 8.716630 LL:  -2.560 LR:  -7.866 RR:   0.000 FEB:  -3.988
USER: RMSD 7.709095
USER: SEED 71
USER: STATUS no improvement in best in 19 clusters for 5 generations
USER: GENES 15
USER: genes 0 Translation |==|  0.38873 0.50928 0.32493
USER: genes 1 Rotation |==|  0.38303 0.94063 0.48457 0.70476
USER: genes 2 Torsion [C]-N--CA-[CB] |==|  0.34717
USER: genes 3 Torsion [N]-CA--C-[N] |==|  0.59548
USER: genes 4 Torsion [C]-N--CA-[CB] |==|  0.19870
USER: genes 5 Torsion [N]-CA--CB-[CG] |==|  0.65286
USER: genes 6 Torsion [CA]-CB--CG-[OD1] |==|  0.72170
USER: genes 7 Torsion [N]-CA--C-[O] |==|  0.28506
USER: genes 8 Torsion [N]-CA--CB-[CG2] |==|  0.91230
USER: genes 9 Torsion [N]-C--CA-[N] |==|  0.39616
USER: genes 10 Torsion [C]-CA--N-[C] |==|  0.81113
USER: genes 11 Torsion [N]-C--CA-[N] |==|  0.39108
USER: genes 12 Torsion [C]-CA--CB-[CG] |==|  0.43874
USER: genes 13 Torsion [CA]-CB--CG-[CD2] |==|  0.57587
USER: genes 14 Torsion [C]-CA--CB-[CG2] |==|  0.91368
ROOT
ATOM      1  C   VAL D4842     -59.377  27.720  36.454  1.00 57.35 LIG 0.24  C 
ATOM      2 O    VAL D4842     -60.247  27.919  37.310  1.00 61.28 LIG-0.27  OA
ATOM      3  N   VAL D4843     -58.540  26.691  36.508  1.00 52.36 LIG-0.35  N 
ATOM      4 H    VAL D4843     -58.052  26.449  35.843  1.00 52.36 LIG 0.16  HD
ENDROOT
BRANCH 3 5
ATOM      5  CA  VAL D4843     -58.361  25.865  37.693  1.00 37.99 LIG 0.18  C 
BRANCH 5 6
ATOM      6  C   VAL D4843     -56.893  26.121  38.110  1.00 51.29 LIG 0.24  C 
ATOM      7  N   ASN D4844     -56.189  25.132  38.646  1.00 50.43 LIG-0.35  N 
ATOM      8 H    ASN D4844     -56.472  24.329  38.767  1.00 50.43 LIG 0.16  HD
ATOM      9 O    VAL D4843     -56.385  27.241  37.952  1.00 47.22 LIG-0.27  OA
BRANCH 7 10
ATOM     10  CA  ASN D4844     -54.809  25.395  39.080  1.00 46.88 LIG 0.17  C 
BRANCH 10 11
ATOM     11  CB  ASN D4844     -54.803  26.267  40.335  1.00 66.72 LIG 0.14  C 
BRANCH 11 12
ATOM     12  CG  ASN D4844     -53.973  27.525  40.170  1.00 62.42 LIG 0.22  C 
ATOM     13 OD1  ASN D4844     -52.828  27.601  40.622  1.00 56.11 LIG-0.27  OA
ATOM     14  ND2 ASN D4844     -54.553  28.524  39.515  1.00 67.26 LIG-0.37  N 
ATOM     15 21HD ASN D4844     -54.128  29.262  39.392  1.00 67.26 LIG 0.16  HD
ATOM     16 22HD ASN D4844     -55.354  28.434  39.215  1.00 67.26 LIG 0.16  HD
ENDBRANCH 11 12
ENDBRANCH 10 11
BRANCH 10 17
ATOM     17  C   ASN D4844     -53.926  24.151  39.283  1.00 52.57 LIG 0.22  C 
ATOM     18 O    ASN D4844     -53.077  23.817  38.441  1.00 48.91 LIG-0.29  OA
ENDBRANCH 10 17
ENDBRANCH 7 10
ENDBRANCH 5 6
BRANCH 5 19
ATOM     19  CB  VAL D4843     -58.616  24.381  37.283  1.00 37.59 LIG 0.01  C 
ATOM     20  CG1 VAL D4843     -59.009  23.526  38.454  1.00 42.19 LIG 0.01  C 
ATOM     21  CG2 VAL D4843     -59.652  24.292  36.159  1.00 33.91 LIG 0.01  C 
ENDBRANCH 5 19
ENDBRANCH 3 5
BRANCH 1 22
ATOM     22  CA  VAL D4842     -59.221  28.624  35.216  1.00 42.26 LIG 0.18  C 
BRANCH 22 23
ATOM     23  N   VAL D4842     -60.461  29.162  34.647  1.00 51.43 LIG-0.34  N 
ATOM     24 H    VAL D4842     -60.546  30.013  34.737  1.00 51.43 LIG 0.16  HD
ATOM     25  C   LEU D4841     -61.367  28.392  34.047  1.00 54.30 LIG 0.26  C 
ATOM     26 O    LEU D4841     -62.323  28.849  33.424  1.00 66.57 LIG-0.27  OA
BRANCH 25 27
ATOM     27  CA  LEU D4841     -61.148  26.889  34.133  1.00 50.85 LIG 0.40  C 
ATOM     28  N   LEU D4841     -62.421  26.189  34.330  1.00 66.18 LIG 0.61  N 
BRANCH 27 29
ATOM     29  CB  LEU D4841     -60.456  26.378  32.863  1.00 58.40 LIG 0.06  C 
BRANCH 29 30
ATOM     30  CG  LEU D4841     -59.702  25.047  32.972  1.00 54.26 LIG-0.02  C 
ATOM     31  CD2 LEU D4841     -58.540  24.942  31.955  1.00 54.78 LIG 0.01  C 
ATOM     32  CD1 LEU D4841     -60.653  23.847  32.859  1.00 32.44 LIG 0.01  C 
ENDBRANCH 29 30
ENDBRANCH 27 29
ENDBRANCH 25 27
ENDBRANCH 22 23
BRANCH 22 33
ATOM     33  CB  VAL D4842     -58.179  29.740  35.481  1.00 48.47 LIG 0.01  C 
ATOM     34  CG2 VAL D4842     -58.161  30.137  36.931  1.00 42.42 LIG 0.01  C 
ATOM     35  CG1 VAL D4842     -58.502  30.948  34.617  1.00 34.87 LIG 0.01  C 
ENDBRANCH 22 33
ENDBRANCH 1 22
TORSDOF 13
ENDMDL
MODEL 22
USER: ADFR SOLUTION from run 64
USER: SCORE 8.283627 LL:  -1.689 LR:  -7.857 RR:   0.000 FEB:  -3.979
USER: RMSD 8.691672
USER: SEED 63
USER: STATUS no improvement in best in 23 clusters for 5 generations
USER: GENES 15
USER: genes 0 Translation |==|  0.36655 0.41924 0.29130
USER: genes 1 Rotation |==|  0.19472 0.80421 0.49490 0.75345
USER: genes 2 Torsion [C]-N--CA-[CB] |==|  0.18326
USER: genes 3 Torsion [N]-CA--C-[N] |==|  0.64741
USER: genes 4 Torsion [C]-N--CA-[CB] |==|  0.20441
USER: genes 5 Torsion [N]-CA--CB-[CG] |==|  0.40312
USER: genes 6 Torsion [CA]-CB--CG-[OD1] |==|  0.23996
USER: genes 7 Torsion [N]-CA--C-[O] |==|  0.26842
USER: genes 8 Torsion [N]-CA--CB-[CG2] |==|  0.49411
USER: genes 9 Torsion [N]-C--CA-[N] |==|  0.20556
USER: genes 10 Torsion [C]-CA--N-[C] |==|  0.14516
USER: genes 11 Torsion [N]-C--CA-[N] |==|  0.24609
USER: genes 12 Torsion [C]-CA--CB-[CG] |==|  0.71283
USER: genes 13 Torsion [CA]-CB--CG-[CD2] |==|  0.52002
USER: genes 14 Torsion [C]-CA--CB-[CG2] |==|  0.50996
ROOT
ATOM      1  C   VAL D4842     -59.842  26.234  35.949  1.00 57.35 LIG 0.24  C 
ATOM      2 O    VAL D4842     -60.862  25.753  36.458  1.00 61.28 LIG-0.27  OA
ATOM      3  N   VAL D4843     -58.663  26.222  36.557  1.00 52.36 LIG-0.35  N 
ATOM      4 H    VAL D4843     -57.925  26.396  36.153  1.00 52.36 LIG 0.16  HD
ENDROOT
BRANCH 3 5
ATOM      5  CA  VAL D4843     -58.493  25.912  37.970  1.00 37.99 LIG 0.18  C 
BRANCH 5 6
ATOM      6  C   VAL D4843     -56.988  26.167  38.231  1.00 51.29 LIG 0.24  C 
ATOM      7  N   ASN D4844     -56.257  25.212  38.791  1.00 50.43 LIG-0.35  N 
ATOM      8 H    ASN D4844     -56.541  24.431  39.010  1.00 50.43 LIG 0.16  HD
ATOM      9 O    VAL D4843     -56.477  27.255  37.927  1.00 47.22 LIG-0.27  OA
BRANCH 7 10
ATOM     10  CA  ASN D4844     -54.839  25.478  39.076  1.00 46.88 LIG 0.17  C 
BRANCH 10 11
ATOM     11  CB  ASN D4844     -54.703  26.419  40.273  1.00 66.72 LIG 0.14  C 
BRANCH 11 12
ATOM     12  CG  ASN D4844     -53.490  26.109  41.127  1.00 62.42 LIG 0.22  C 
ATOM     13 OD1  ASN D4844     -52.384  26.585  40.866  1.00 56.11 LIG-0.27  OA
ATOM     14  ND2 ASN D4844     -53.697  25.302  42.162  1.00 67.26 LIG-0.37  N 
ATOM     15 21HD ASN D4844     -53.043  25.093  42.681  1.00 67.26 LIG 0.16  HD
ATOM     16 22HD ASN D4844     -54.484  24.989  42.312  1.00 67.26 LIG 0.16  HD
ENDBRANCH 11 12
ENDBRANCH 10 11
BRANCH 10 17
ATOM     17  C   ASN D4844     -53.953  24.235  39.265  1.00 52.57 LIG 0.22  C 
ATOM     18 O    ASN D4844     -53.275  23.776  38.331  1.00 48.91 LIG-0.29  OA
ENDBRANCH 10 17
ENDBRANCH 7 10
ENDBRANCH 5 6
BRANCH 5 19
ATOM     19  CB  VAL D4843     -58.891  24.419  38.182  1.00 37.59 LIG 0.01  C 
ATOM     20  CG1 VAL D4843     -58.164  23.496  37.245  1.00 42.19 LIG 0.01  C 
ATOM     21  CG2 VAL D4843     -58.689  23.998  39.641  1.00 33.91 LIG 0.01  C 
ENDBRANCH 5 19
ENDBRANCH 3 5
BRANCH 1 22
ATOM     22  CA  VAL D4842     -59.842  26.846  34.535  1.00 42.26 LIG 0.18  C 
BRANCH 22 23
ATOM     23  N   VAL D4842     -59.243  26.028  33.476  1.00 51.43 LIG-0.34  N 
ATOM     24 H    VAL D4842     -58.643  26.437  33.015  1.00 51.43 LIG 0.16  HD
ATOM     25  C   LEU D4841     -59.604  24.765  33.256  1.00 54.30 LIG 0.26  C 
ATOM     26 O    LEU D4841     -58.996  24.022  32.488  1.00 66.57 LIG-0.27  OA
BRANCH 25 27
ATOM     27  CA  LEU D4841     -60.803  24.253  34.041  1.00 50.85 LIG 0.40  C 
ATOM     28  N   LEU D4841     -62.049  24.522  33.318  1.00 66.18 LIG 0.61  N 
BRANCH 27 29
ATOM     29  CB  LEU D4841     -60.662  22.749  34.307  1.00 58.40 LIG 0.06  C 
BRANCH 29 30
ATOM     30  CG  LEU D4841     -61.510  21.809  33.441  1.00 54.26 LIG-0.02  C 
ATOM     31  CD2 LEU D4841     -61.426  20.337  33.911  1.00 54.78 LIG 0.01  C 
ATOM     32  CD1 LEU D4841     -61.160  21.942  31.953  1.00 32.44 LIG 0.01  C 
ENDBRANCH 29 30
ENDBRANCH 27 29
ENDBRANCH 25 27
ENDBRANCH 22 23
BRANCH 22 33
ATOM     33  CB  VAL D4842     -61.261  27.337  34.151  1.00 48.47 LIG 0.01  C 
ATOM     34  CG2 VAL D4842     -61.295  27.858  32.741  1.00 42.42 LIG 0.01  C 
ATOM     35  CG1 VAL D4842     -61.695  28.428  35.116  1.00 34.87 LIG 0.01  C 
ENDBRANCH 22 33
ENDBRANCH 1 22
TORSDOF 13
ENDMDL
MODEL 23
USER: ADFR SOLUTION from run 120
USER: SCORE 8.738483 LL:  -2.200 LR:  -7.849 RR:   0.000 FEB:  -3.971
USER: RMSD 8.201972
USER: SEED 119
USER: STATUS no improvement in best in 32 clusters for 5 generations
USER: GENES 15
USER: genes 0 Translation |==|  0.39315 0.42218 0.30837
USER: genes 1 Rotation |==|  0.97251 0.33733 0.51217 0.51113
USER: genes 2 Torsion [C]-N--CA-[CB] |==|  0.86098
USER: genes 3 Torsion [N]-CA--C-[N] |==|  0.02483
USER: genes 4 Torsion [C]-N--CA-[CB] |==|  0.47247
USER: genes 5 Torsion [N]-CA--CB-[CG] |==|  0.83143
USER: genes 6 Torsion [CA]-CB--CG-[OD1] |==|  0.39450
USER: genes 7 Torsion [N]-CA--C-[O] |==|  0.55433
USER: genes 8 Torsion [N]-CA--CB-[CG2] |==|  0.62755
USER: genes 9 Torsion [N]-C--CA-[N] |==|  0.00186
USER: genes 10 Torsion [C]-CA--N-[C] |==|  0.71111
USER: genes 11 Torsion [N]-C--CA-[N] |==|  0.83693
USER: genes 12 Torsion [C]-CA--CB-[CG] |==|  0.26469
USER: genes 13 Torsion [CA]-CB--CG-[CD2] |==|  0.67486
USER: genes 14 Torsion [C]-CA--CB-[CG2] |==|  0.53001
ROOT
ATOM      1  C   VAL D4842     -59.284  26.283  36.206  1.00 57.35 LIG 0.24  C 
ATOM      2 O    VAL D4842     -59.672  26.241  37.379  1.00 61.28 LIG-0.27  OA
ATOM      3  N   VAL D4843     -58.540  27.274  35.732  1.00 52.36 LIG-0.35  N 
ATOM      4 H    VAL D4843     -58.128  27.233  34.978  1.00 52.36 LIG 0.16  HD
ENDROOT
BRANCH 3 5
ATOM      5  CA  VAL D4843     -58.344  28.534  36.433  1.00 37.99 LIG 0.18  C 
BRANCH 5 6
ATOM      6  C   VAL D4843     -57.469  28.152  37.652  1.00 51.29 LIG 0.24  C 
ATOM      7  N   ASN D4844     -56.952  26.932  37.722  1.00 50.43 LIG-0.35  N 
ATOM      8 H    ASN D4844     -57.040  26.319  37.125  1.00 50.43 LIG 0.16  HD
ATOM      9 O    VAL D4843     -57.261  28.976  38.555  1.00 47.22 LIG-0.27  OA
BRANCH 7 10
ATOM     10  CA  ASN D4844     -56.158  26.563  38.903  1.00 46.88 LIG 0.17  C 
BRANCH 10 11
ATOM     11  CB  ASN D4844     -55.868  25.062  38.902  1.00 66.72 LIG 0.14  C 
BRANCH 11 12
ATOM     12  CG  ASN D4844     -57.130  24.221  38.942  1.00 62.42 LIG 0.22  C 
ATOM     13 OD1  ASN D4844     -57.221  23.172  38.301  1.00 56.11 LIG-0.27  OA
ATOM     14  ND2 ASN D4844     -58.115  24.685  39.703  1.00 67.26 LIG-0.37  N 
ATOM     15 21HD ASN D4844     -58.853  24.248  39.764  1.00 67.26 LIG 0.16  HD
ATOM     16 22HD ASN D4844     -58.014  25.422  40.136  1.00 67.26 LIG 0.16  HD
ENDBRANCH 11 12
ENDBRANCH 10 11
BRANCH 10 17
ATOM     17  C   ASN D4844     -54.860  27.362  39.110  1.00 52.57 LIG 0.22  C 
ATOM     18 O    ASN D4844     -53.944  26.931  39.829  1.00 48.91 LIG-0.29  OA
ENDBRANCH 10 17
ENDBRANCH 7 10
ENDBRANCH 5 6
BRANCH 5 19
ATOM     19  CB  VAL D4843     -59.747  29.073  36.851  1.00 37.59 LIG 0.01  C 
ATOM     20  CG1 VAL D4843     -60.054  28.802  38.297  1.00 42.19 LIG 0.01  C 
ATOM     21  CG2 VAL D4843     -59.883  30.563  36.526  1.00 33.91 LIG 0.01  C 
ENDBRANCH 5 19
ENDBRANCH 3 5
BRANCH 1 22
ATOM     22  CA  VAL D4842     -59.586  25.155  35.200  1.00 42.26 LIG 0.18  C 
BRANCH 22 23
ATOM     23  N   VAL D4842     -59.007  25.308  33.862  1.00 51.43 LIG-0.34  N 
ATOM     24 H    VAL D4842     -58.165  25.138  33.825  1.00 51.43 LIG 0.16  HD
ATOM     25  C   LEU D4841     -59.729  25.677  32.806  1.00 54.30 LIG 0.26  C 
ATOM     26 O    LEU D4841     -59.295  25.646  31.657  1.00 66.57 LIG-0.27  OA
BRANCH 25 27
ATOM     27  CA  LEU D4841     -61.162  26.113  33.080  1.00 50.85 LIG 0.40  C 
ATOM     28  N   LEU D4841     -61.915  25.037  33.731  1.00 66.18 LIG 0.61  N 
BRANCH 27 29
ATOM     29  CB  LEU D4841     -61.178  27.371  33.956  1.00 58.40 LIG 0.06  C 
BRANCH 29 30
ATOM     30  CG  LEU D4841     -61.288  28.719  33.233  1.00 54.26 LIG-0.02  C 
ATOM     31  CD2 LEU D4841     -60.044  29.612  33.455  1.00 54.78 LIG 0.01  C 
ATOM     32  CD1 LEU D4841     -62.580  29.457  33.607  1.00 32.44 LIG 0.01  C 
ENDBRANCH 29 30
ENDBRANCH 27 29
ENDBRANCH 25 27
ENDBRANCH 22 23
BRANCH 22 33
ATOM     33  CB  VAL D4842     -59.255  23.771  35.815  1.00 48.47 LIG 0.01  C 
ATOM     34  CG2 VAL D4842     -59.292  22.687  34.774  1.00 42.42 LIG 0.01  C 
ATOM     35  CG1 VAL D4842     -60.249  23.460  36.921  1.00 34.87 LIG 0.01  C 
ENDBRANCH 22 33
ENDBRANCH 1 22
TORSDOF 13
ENDMDL
MODEL 24
USER: ADFR SOLUTION from run 152
USER: SCORE 8.935235 LL:  -2.687 LR:  -7.825 RR:   0.000 FEB:  -3.947
USER: RMSD 9.571340
USER: SEED 151
USER: STATUS no improvement in best in 46 clusters for 5 generations
USER: GENES 15
USER: genes 0 Translation |==|  0.35024 0.37791 0.08476
USER: genes 1 Rotation |==|  0.55905 0.56002 0.01807 0.60320
USER: genes 2 Torsion [C]-N--CA-[CB] |==|  0.37581
USER: genes 3 Torsion [N]-CA--C-[N] |==|  0.97069
USER: genes 4 Torsion [C]-N--CA-[CB] |==|  0.19102
USER: genes 5 Torsion [N]-CA--CB-[CG] |==|  0.63508
USER: genes 6 Torsion [CA]-CB--CG-[OD1] |==|  0.17036
USER: genes 7 Torsion [N]-CA--C-[O] |==|  0.36038
USER: genes 8 Torsion [N]-CA--CB-[CG2] |==|  0.50941
USER: genes 9 Torsion [N]-C--CA-[N] |==|  0.45123
USER: genes 10 Torsion [C]-CA--N-[C] |==|  0.70000
USER: genes 11 Torsion [N]-C--CA-[N] |==|  0.42859
USER: genes 12 Torsion [C]-CA--CB-[CG] |==|  0.34271
USER: genes 13 Torsion [CA]-CB--CG-[CD2] |==|  0.38747
USER: genes 14 Torsion [C]-CA--CB-[CG2] |==|  0.56453
ROOT
ATOM      1  C   VAL D4842     -60.185  25.552  32.851  1.00 57.35 LIG 0.24  C 
ATOM      2 O    VAL D4842     -59.660  25.692  31.740  1.00 61.28 LIG-0.27  OA
ATOM      3  N   VAL D4843     -60.750  26.557  33.508  1.00 52.36 LIG-0.35  N 
ATOM      4 H    VAL D4843     -61.260  26.443  34.191  1.00 52.36 LIG 0.16  HD
ENDROOT
BRANCH 3 5
ATOM      5  CA  VAL D4843     -60.570  27.955  33.145  1.00 37.99 LIG 0.18  C 
BRANCH 5 6
ATOM      6  C   VAL D4843     -59.599  28.500  34.221  1.00 51.29 LIG 0.24  C 
ATOM      7  N   ASN D4844     -59.326  27.755  35.284  1.00 50.43 LIG-0.35  N 
ATOM      8 H    ASN D4844     -59.627  26.963  35.428  1.00 50.43 LIG 0.16  HD
ATOM      9 O    VAL D4843     -59.092  29.624  34.092  1.00 47.22 LIG-0.27  OA
BRANCH 7 10
ATOM     10  CA  ASN D4844     -58.438  28.297  36.323  1.00 46.88 LIG 0.17  C 
BRANCH 10 11
ATOM     11  CB  ASN D4844     -59.122  29.449  37.060  1.00 66.72 LIG 0.14  C 
BRANCH 11 12
ATOM     12  CG  ASN D4844     -58.238  30.675  37.179  1.00 62.42 LIG 0.22  C 
ATOM     13 OD1  ASN D4844     -57.828  31.269  36.180  1.00 56.11 LIG-0.27  OA
ATOM     14  ND2 ASN D4844     -57.941  31.062  38.415  1.00 67.26 LIG-0.37  N 
ATOM     15 21HD ASN D4844     -57.443  31.752  38.542  1.00 67.26 LIG 0.16  HD
ATOM     16 22HD ASN D4844     -58.246  30.621  39.088  1.00 67.26 LIG 0.16  HD
ENDBRANCH 11 12
ENDBRANCH 10 11
BRANCH 10 17
ATOM     17  C   ASN D4844     -57.880  27.272  37.325  1.00 52.57 LIG 0.22  C 
ATOM     18 O    ASN D4844     -56.666  27.212  37.580  1.00 48.91 LIG-0.29  OA
ENDBRANCH 10 17
ENDBRANCH 7 10
ENDBRANCH 5 6
BRANCH 5 19
ATOM     19  CB  VAL D4843     -61.967  28.646  33.196  1.00 37.59 LIG 0.01  C 
ATOM     20  CG1 VAL D4843     -62.608  28.537  34.550  1.00 42.19 LIG 0.01  C 
ATOM     21  CG2 VAL D4843     -61.875  30.106  32.743  1.00 33.91 LIG 0.01  C 
ENDBRANCH 5 19
ENDBRANCH 3 5
BRANCH 1 22
ATOM     22  CA  VAL D4842     -60.276  24.182  33.550  1.00 42.26 LIG 0.18  C 
BRANCH 22 23
ATOM     23  N   VAL D4842     -60.033  23.008  32.706  1.00 51.43 LIG-0.34  N 
ATOM     24 H    VAL D4842     -59.210  22.907  32.476  1.00 51.43 LIG 0.16  HD
ATOM     25  C   LEU D4841     -61.006  22.178  32.334  1.00 54.30 LIG 0.26  C 
ATOM     26 O    LEU D4841     -60.790  21.107  31.772  1.00 66.57 LIG-0.27  OA
BRANCH 25 27
ATOM     27  CA  LEU D4841     -62.428  22.599  32.677  1.00 50.85 LIG 0.40  C 
ATOM     28  N   LEU D4841     -63.386  21.993  31.747  1.00 66.18 LIG 0.61  N 
BRANCH 27 29
ATOM     29  CB  LEU D4841     -62.769  22.202  34.118  1.00 58.40 LIG 0.06  C 
BRANCH 29 30
ATOM     30  CG  LEU D4841     -63.223  23.326  35.058  1.00 54.26 LIG-0.02  C 
ATOM     31  CD2 LEU D4841     -64.388  22.891  35.979  1.00 54.78 LIG 0.01  C 
ATOM     32  CD1 LEU D4841     -63.570  24.605  34.284  1.00 32.44 LIG 0.01  C 
ENDBRANCH 29 30
ENDBRANCH 27 29
ENDBRANCH 25 27
ENDBRANCH 22 23
BRANCH 22 33
ATOM     33  CB  VAL D4842     -59.403  24.161  34.830  1.00 48.47 LIG 0.01  C 
ATOM     34  CG2 VAL D4842     -59.020  22.757  35.207  1.00 42.42 LIG 0.01  C 
ATOM     35  CG1 VAL D4842     -60.165  24.813  35.971  1.00 34.87 LIG 0.01  C 
ENDBRANCH 22 33
ENDBRANCH 1 22
TORSDOF 13
ENDMDL
MODEL 25
USER: ADFR SOLUTION from run 51
USER: SCORE 9.578725 LL:  -2.670 LR:  -7.797 RR:   0.000 FEB:  -3.920
USER: RMSD 8.621097
USER: SEED 50
USER: STATUS no improvement in best in 39 clusters for 5 generations
USER: GENES 15
USER: genes 0 Translation |==|  0.37310 0.20885 0.24881
USER: genes 1 Rotation |==|  0.06823 0.52429 0.66093 0.69257
USER: genes 2 Torsion [C]-N--CA-[CB] |==|  0.18924
USER: genes 3 Torsion [N]-CA--C-[N] |==|  0.85520
USER: genes 4 Torsion [C]-N--CA-[CB] |==|  0.17057
USER: genes 5 Torsion [N]-CA--CB-[CG] |==|  0.20881
USER: genes 6 Torsion [CA]-CB--CG-[OD1] |==|  0.88862
USER: genes 7 Torsion [N]-CA--C-[O] |==|  0.02862
USER: genes 8 Torsion [N]-CA--CB-[CG2] |==|  0.70091
USER: genes 9 Torsion [N]-C--CA-[N] |==|  0.18492
USER: genes 10 Torsion [C]-CA--N-[C] |==|  0.75621
USER: genes 11 Torsion [N]-C--CA-[N] |==|  0.47019
USER: genes 12 Torsion [C]-CA--CB-[CG] |==|  0.35627
USER: genes 13 Torsion [CA]-CB--CG-[CD2] |==|  0.53852
USER: genes 14 Torsion [C]-CA--CB-[CG2] |==|  0.52307
ROOT
ATOM      1  C   VAL D4842     -59.705  22.763  35.312  1.00 57.35 LIG 0.24  C 
ATOM      2 O    VAL D4842     -59.358  21.695  35.830  1.00 61.28 LIG-0.27  OA
ATOM      3  N   VAL D4843     -59.558  23.934  35.918  1.00 52.36 LIG-0.35  N 
ATOM      4 H    VAL D4843     -59.636  24.687  35.509  1.00 52.36 LIG 0.16  HD
ENDROOT
BRANCH 3 5
ATOM      5  CA  VAL D4843     -59.251  24.071  37.335  1.00 37.99 LIG 0.18  C 
BRANCH 5 6
ATOM      6  C   VAL D4843     -59.381  25.590  37.602  1.00 51.29 LIG 0.24  C 
ATOM      7  N   ASN D4844     -58.720  26.443  36.829  1.00 50.43 LIG-0.35  N 
ATOM      8 H    ASN D4844     -58.228  26.228  36.157  1.00 50.43 LIG 0.16  HD
ATOM      9 O    VAL D4843     -60.088  26.003  38.533  1.00 47.22 LIG-0.27  OA
BRANCH 7 10
ATOM     10  CA  ASN D4844     -58.813  27.882  37.116  1.00 46.88 LIG 0.17  C 
BRANCH 10 11
ATOM     11  CB  ASN D4844     -58.262  28.183  38.510  1.00 66.72 LIG 0.14  C 
BRANCH 11 12
ATOM     12  CG  ASN D4844     -56.748  28.137  38.564  1.00 62.42 LIG 0.22  C 
ATOM     13 OD1  ASN D4844     -56.111  27.274  37.955  1.00 56.11 LIG-0.27  OA
ATOM     14  ND2 ASN D4844     -56.162  29.075  39.299  1.00 67.26 LIG-0.37  N 
ATOM     15 21HD ASN D4844     -55.304  29.097  39.365  1.00 67.26 LIG 0.16  HD
ATOM     16 22HD ASN D4844     -56.640  29.660  39.710  1.00 67.26 LIG 0.16  HD
ENDBRANCH 11 12
ENDBRANCH 10 11
BRANCH 10 17
ATOM     17  C   ASN D4844     -58.175  28.813  36.071  1.00 52.57 LIG 0.22  C 
ATOM     18 O    ASN D4844     -57.790  28.383  34.972  1.00 48.91 LIG-0.29  OA
ENDBRANCH 10 17
ENDBRANCH 7 10
ENDBRANCH 5 6
BRANCH 5 19
ATOM     19  CB  VAL D4843     -57.799  23.546  37.561  1.00 37.59 LIG 0.01  C 
ATOM     20  CG1 VAL D4843     -56.937  24.546  38.278  1.00 42.19 LIG 0.01  C 
ATOM     21  CG2 VAL D4843     -57.809  22.199  38.290  1.00 33.91 LIG 0.01  C 
ENDBRANCH 5 19
ENDBRANCH 3 5
BRANCH 1 22
ATOM     22  CA  VAL D4842     -60.291  22.833  33.889  1.00 42.26 LIG 0.18  C 
BRANCH 22 23
ATOM     23  N   VAL D4842     -59.453  23.479  32.874  1.00 51.43 LIG-0.34  N 
ATOM     24 H    VAL D4842     -58.946  22.935  32.442  1.00 51.43 LIG 0.16  HD
ATOM     25  C   LEU D4841     -59.481  24.791  32.650  1.00 54.30 LIG 0.26  C 
ATOM     26 O    LEU D4841     -58.911  25.317  31.697  1.00 66.57 LIG-0.27  OA
BRANCH 25 27
ATOM     27  CA  LEU D4841     -60.298  25.630  33.623  1.00 50.85 LIG 0.40  C 
ATOM     28  N   LEU D4841     -60.040  27.059  33.418  1.00 66.18 LIG 0.61  N 
BRANCH 27 29
ATOM     29  CB  LEU D4841     -61.793  25.335  33.455  1.00 58.40 LIG 0.06  C 
BRANCH 29 30
ATOM     30  CG  LEU D4841     -62.576  24.980  34.725  1.00 54.26 LIG-0.02  C 
ATOM     31  CD2 LEU D4841     -63.966  24.375  34.411  1.00 54.78 LIG 0.01  C 
ATOM     32  CD1 LEU D4841     -62.691  26.180  35.673  1.00 32.44 LIG 0.01  C 
ENDBRANCH 29 30
ENDBRANCH 27 29
ENDBRANCH 25 27
ENDBRANCH 22 23
BRANCH 22 33
ATOM     33  CB  VAL D4842     -60.777  21.435  33.428  1.00 48.47 LIG 0.01  C 
ATOM     34  CG2 VAL D4842     -61.165  21.443  31.976  1.00 42.42 LIG 0.01  C 
ATOM     35  CG1 VAL D4842     -61.963  21.009  34.278  1.00 34.87 LIG 0.01  C 
ENDBRANCH 22 33
ENDBRANCH 1 22
TORSDOF 13
ENDMDL
MODEL 26
USER: ADFR SOLUTION from run 58
USER: SCORE 8.604659 LL:  -2.544 LR:  -7.794 RR:   0.000 FEB:  -3.917
USER: RMSD 6.378207
USER: SEED 57
USER: STATUS no improvement in best in 21 clusters for 5 generations
USER: GENES 15
USER: genes 0 Translation |==|  0.45909 0.47889 0.39409
USER: genes 1 Rotation |==|  0.43025 0.10910 0.47613 0.80292
USER: genes 2 Torsion [C]-N--CA-[CB] |==|  0.31957
USER: genes 3 Torsion [N]-CA--C-[N] |==|  0.16106
USER: genes 4 Torsion [C]-N--CA-[CB] |==|  0.24397
USER: genes 5 Torsion [N]-CA--CB-[CG] |==|  0.61264
USER: genes 6 Torsion [CA]-CB--CG-[OD1] |==|  0.02483
USER: genes 7 Torsion [N]-CA--C-[O] |==|  0.72235
USER: genes 8 Torsion [N]-CA--CB-[CG2] |==|  0.05579
USER: genes 9 Torsion [N]-C--CA-[N] |==|  0.96312
USER: genes 10 Torsion [C]-CA--N-[C] |==|  0.76170
USER: genes 11 Torsion [N]-C--CA-[N] |==|  0.43610
USER: genes 12 Torsion [C]-CA--CB-[CG] |==|  0.73478
USER: genes 13 Torsion [CA]-CB--CG-[CD2] |==|  0.54676
USER: genes 14 Torsion [C]-CA--CB-[CG2] |==|  0.22394
ROOT
ATOM      1  C   VAL D4842     -57.899  27.219  37.491  1.00 57.35 LIG 0.24  C 
ATOM      2 O    VAL D4842     -56.665  27.187  37.571  1.00 61.28 LIG-0.27  OA
ATOM      3  N   VAL D4843     -58.643  26.121  37.445  1.00 52.36 LIG-0.35  N 
ATOM      4 H    VAL D4843     -59.495  26.126  37.560  1.00 52.36 LIG 0.16  HD
ENDROOT
BRANCH 3 5
ATOM      5  CA  VAL D4843     -58.098  24.794  37.195  1.00 37.99 LIG 0.18  C 
BRANCH 5 6
ATOM      6  C   VAL D4843     -58.916  24.273  35.988  1.00 51.29 LIG 0.24  C 
ATOM      7  N   ASN D4844     -58.915  24.968  34.857  1.00 50.43 LIG-0.35  N 
ATOM      8 H    ASN D4844     -58.472  25.691  34.717  1.00 50.43 LIG 0.16  HD
ATOM      9 O    VAL D4843     -59.569  23.224  36.082  1.00 47.22 LIG-0.27  OA
BRANCH 7 10
ATOM     10  CA  ASN D4844     -59.729  24.490  33.729  1.00 46.88 LIG 0.17  C 
BRANCH 10 11
ATOM     11  CB  ASN D4844     -61.149  25.046  33.824  1.00 66.72 LIG 0.14  C 
BRANCH 11 12
ATOM     12  CG  ASN D4844     -62.205  24.023  33.455  1.00 62.42 LIG 0.22  C 
ATOM     13 OD1  ASN D4844     -61.915  22.838  33.279  1.00 56.11 LIG-0.27  OA
ATOM     14  ND2 ASN D4844     -63.445  24.482  33.336  1.00 67.26 LIG-0.37  N 
ATOM     15 21HD ASN D4844     -64.085  23.946  33.129  1.00 67.26 LIG 0.16  HD
ATOM     16 22HD ASN D4844     -63.609  25.317  33.466  1.00 67.26 LIG 0.16  HD
ENDBRANCH 11 12
ENDBRANCH 10 11
BRANCH 10 17
ATOM     17  C   ASN D4844     -59.143  24.744  32.330  1.00 52.57 LIG 0.22  C 
ATOM     18 O    ASN D4844     -59.532  25.692  31.629  1.00 48.91 LIG-0.29  OA
ENDBRANCH 10 17
ENDBRANCH 7 10
ENDBRANCH 5 6
BRANCH 5 19
ATOM     19  CB  VAL D4843     -58.319  23.937  38.480  1.00 37.59 LIG 0.01  C 
ATOM     20  CG1 VAL D4843     -57.050  23.742  39.261  1.00 42.19 LIG 0.01  C 
ATOM     21  CG2 VAL D4843     -59.422  24.538  39.357  1.00 33.91 LIG 0.01  C 
ENDBRANCH 5 19
ENDBRANCH 3 5
BRANCH 1 22
ATOM     22  CA  VAL D4842     -58.688  28.542  37.494  1.00 42.26 LIG 0.18  C 
BRANCH 22 23
ATOM     23  N   VAL D4842     -60.109  28.449  37.145  1.00 51.43 LIG-0.34  N 
ATOM     24 H    VAL D4842     -60.632  28.376  37.824  1.00 51.43 LIG 0.16  HD
ATOM     25  C   LEU D4841     -60.541  28.477  35.886  1.00 54.30 LIG 0.26  C 
ATOM     26 O    LEU D4841     -61.731  28.568  35.591  1.00 66.57 LIG-0.27  OA
BRANCH 25 27
ATOM     27  CA  LEU D4841     -59.476  28.428  34.800  1.00 50.85 LIG 0.40  C 
ATOM     28  N   LEU D4841     -60.040  27.926  33.543  1.00 66.18 LIG 0.61  N 
BRANCH 27 29
ATOM     29  CB  LEU D4841     -58.870  29.820  34.585  1.00 58.40 LIG 0.06  C 
BRANCH 29 30
ATOM     30  CG  LEU D4841     -59.465  30.670  33.455  1.00 54.26 LIG-0.02  C 
ATOM     31  CD2 LEU D4841     -58.543  31.845  33.052  1.00 54.78 LIG 0.01  C 
ATOM     32  CD1 LEU D4841     -60.877  31.160  33.800  1.00 32.44 LIG 0.01  C 
ENDBRANCH 29 30
ENDBRANCH 27 29
ENDBRANCH 25 27
ENDBRANCH 22 23
BRANCH 22 33
ATOM     33  CB  VAL D4842     -58.472  29.305  38.826  1.00 48.47 LIG 0.01  C 
ATOM     34  CG2 VAL D4842     -57.170  30.057  38.819  1.00 42.42 LIG 0.01  C 
ATOM     35  CG1 VAL D4842     -58.493  28.318  39.981  1.00 34.87 LIG 0.01  C 
ENDBRANCH 22 33
ENDBRANCH 1 22
TORSDOF 13
ENDMDL
MODEL 27
USER: ADFR SOLUTION from run 45
USER: SCORE 9.154735 LL:  -2.750 LR:  -7.766 RR:   0.000 FEB:  -3.888
USER: RMSD 9.215040
USER: SEED 44
USER: STATUS no improvement in best in 38 clusters for 5 generations
USER: GENES 15
USER: genes 0 Translation |==|  0.34427 0.34475 0.09894
USER: genes 1 Rotation |==|  0.41702 0.36262 0.97322 0.51731
USER: genes 2 Torsion [C]-N--CA-[CB] |==|  0.23798
USER: genes 3 Torsion [N]-CA--C-[N] |==|  0.28337
USER: genes 4 Torsion [C]-N--CA-[CB] |==|  0.30340
USER: genes 5 Torsion [N]-CA--CB-[CG] |==|  0.20981
USER: genes 6 Torsion [CA]-CB--CG-[OD1] |==|  0.42383
USER: genes 7 Torsion [N]-CA--C-[O] |==|  0.86722
USER: genes 8 Torsion [N]-CA--CB-[CG2] |==|  0.46126
USER: genes 9 Torsion [N]-C--CA-[N] |==|  0.25830
USER: genes 10 Torsion [C]-CA--N-[C] |==|  0.76704
USER: genes 11 Torsion [N]-C--CA-[N] |==|  0.41344
USER: genes 12 Torsion [C]-CA--CB-[CG] |==|  0.40345
USER: genes 13 Torsion [CA]-CB--CG-[CD2] |==|  0.13540
USER: genes 14 Torsion [C]-CA--CB-[CG2] |==|  0.59788
ROOT
ATOM      1  C   VAL D4842     -60.310  25.005  33.064  1.00 57.35 LIG 0.24  C 
ATOM      2 O    VAL D4842     -59.712  25.317  32.027  1.00 61.28 LIG-0.27  OA
ATOM      3  N   VAL D4843     -60.440  25.833  34.093  1.00 52.36 LIG-0.35  N 
ATOM      4 H    VAL D4843     -60.989  25.695  34.740  1.00 52.36 LIG 0.16  HD
ENDROOT
BRANCH 3 5
ATOM      5  CA  VAL D4843     -59.669  27.060  34.236  1.00 37.99 LIG 0.18  C 
BRANCH 5 6
ATOM      6  C   VAL D4843     -59.647  27.313  35.764  1.00 51.29 LIG 0.24  C 
ATOM      7  N   ASN D4844     -58.556  27.011  36.455  1.00 50.43 LIG-0.35  N 
ATOM      8 H    ASN D4844     -57.827  26.699  36.123  1.00 50.43 LIG 0.16  HD
ATOM      9 O    VAL D4843     -60.642  27.785  36.332  1.00 47.22 LIG-0.27  OA
BRANCH 7 10
ATOM     10  CA  ASN D4844     -58.558  27.214  37.911  1.00 46.88 LIG 0.17  C 
BRANCH 10 11
ATOM     11  CB  ASN D4844     -58.575  25.868  38.636  1.00 66.72 LIG 0.14  C 
BRANCH 11 12
ATOM     12  CG  ASN D4844     -57.229  25.172  38.611  1.00 62.42 LIG 0.22  C 
ATOM     13 OD1  ASN D4844     -56.897  24.387  39.502  1.00 56.11 LIG-0.27  OA
ATOM     14  ND2 ASN D4844     -56.443  25.460  37.580  1.00 67.26 LIG-0.37  N 
ATOM     15 21HD ASN D4844     -55.667  25.093  37.514  1.00 67.26 LIG 0.16  HD
ATOM     16 22HD ASN D4844     -56.709  26.014  36.978  1.00 67.26 LIG 0.16  HD
ENDBRANCH 11 12
ENDBRANCH 10 11
BRANCH 10 17
ATOM     17  C   ASN D4844     -57.434  28.108  38.461  1.00 52.57 LIG 0.22  C 
ATOM     18 O    ASN D4844     -56.251  27.942  38.121  1.00 48.91 LIG-0.29  OA
ENDBRANCH 10 17
ENDBRANCH 7 10
ENDBRANCH 5 6
BRANCH 5 19
ATOM     19  CB  VAL D4843     -60.415  28.186  33.455  1.00 37.59 LIG 0.01  C 
ATOM     20  CG1 VAL D4843     -61.904  28.118  33.641  1.00 42.19 LIG 0.01  C 
ATOM     21  CG2 VAL D4843     -59.872  29.567  33.830  1.00 33.91 LIG 0.01  C 
ENDBRANCH 5 19
ENDBRANCH 3 5
BRANCH 1 22
ATOM     22  CA  VAL D4842     -61.008  23.641  33.231  1.00 42.26 LIG 0.18  C 
BRANCH 22 23
ATOM     23  N   VAL D4842     -62.372  23.543  32.705  1.00 51.43 LIG-0.34  N 
ATOM     24 H    VAL D4842     -62.418  23.210  31.913  1.00 51.43 LIG 0.16  HD
ATOM     25  C   LEU D4841     -63.438  23.937  33.399  1.00 54.30 LIG 0.26  C 
ATOM     26 O    LEU D4841     -64.591  23.706  33.039  1.00 66.57 LIG-0.27  OA
BRANCH 25 27
ATOM     27  CA  LEU D4841     -63.168  24.668  34.706  1.00 50.85 LIG 0.40  C 
ATOM     28  N   LEU D4841     -64.227  25.643  34.984  1.00 66.18 LIG 0.61  N 
BRANCH 27 29
ATOM     29  CB  LEU D4841     -63.056  23.668  35.863  1.00 58.40 LIG 0.06  C 
BRANCH 29 30
ATOM     30  CG  LEU D4841     -62.055  24.004  36.975  1.00 54.26 LIG-0.02  C 
ATOM     31  CD2 LEU D4841     -62.205  25.457  37.486  1.00 54.78 LIG 0.01  C 
ATOM     32  CD1 LEU D4841     -60.612  23.708  36.545  1.00 32.44 LIG 0.01  C 
ENDBRANCH 29 30
ENDBRANCH 27 29
ENDBRANCH 25 27
ENDBRANCH 22 23
BRANCH 22 33
ATOM     33  CB  VAL D4842     -60.104  22.497  32.705  1.00 48.47 LIG 0.01  C 
ATOM     34  CG2 VAL D4842     -60.919  21.408  32.065  1.00 42.42 LIG 0.01  C 
ATOM     35  CG1 VAL D4842     -59.291  21.927  33.856  1.00 34.87 LIG 0.01  C 
ENDBRANCH 22 33
ENDBRANCH 1 22
TORSDOF 13
ENDMDL
MODEL 28
USER: ADFR SOLUTION from run 61
USER: SCORE 8.648330 LL:  -2.563 LR:  -7.760 RR:   0.000 FEB:  -3.882
USER: RMSD 7.173603
USER: SEED 60
USER: STATUS no improvement in best in 39 clusters for 5 generations
USER: GENES 15
USER: genes 0 Translation |==|  0.33582 0.37782 0.23024
USER: genes 1 Rotation |==|  0.39229 0.82187 0.59110 0.85567
USER: genes 2 Torsion [C]-N--CA-[CB] |==|  0.35002
USER: genes 3 Torsion [N]-CA--C-[N] |==|  0.92779
USER: genes 4 Torsion [C]-N--CA-[CB] |==|  0.46278
USER: genes 5 Torsion [N]-CA--CB-[CG] |==|  0.25925
USER: genes 6 Torsion [CA]-CB--CG-[OD1] |==|  0.80054
USER: genes 7 Torsion [N]-CA--C-[O] |==|  0.51278
USER: genes 8 Torsion [N]-CA--CB-[CG2] |==|  0.83099
USER: genes 9 Torsion [N]-C--CA-[N] |==|  0.91244
USER: genes 10 Torsion [C]-CA--N-[C] |==|  0.66240
USER: genes 11 Torsion [N]-C--CA-[N] |==|  0.37952
USER: genes 12 Torsion [C]-CA--CB-[CG] |==|  0.03063
USER: genes 13 Torsion [CA]-CB--CG-[CD2] |==|  0.72203
USER: genes 14 Torsion [C]-CA--CB-[CG2] |==|  0.26985
ROOT
ATOM      1  C   VAL D4842     -60.488  25.551  35.034  1.00 57.35 LIG 0.24  C 
ATOM      2 O    VAL D4842     -61.661  25.171  35.127  1.00 61.28 LIG-0.27  OA
ATOM      3  N   VAL D4843     -59.454  24.738  35.210  1.00 52.36 LIG-0.35  N 
ATOM      4 H    VAL D4843     -58.651  24.945  34.984  1.00 52.36 LIG 0.16  HD
ENDROOT
BRANCH 3 5
ATOM      5  CA  VAL D4843     -59.569  23.412  35.801  1.00 37.99 LIG 0.18  C 
BRANCH 5 6
ATOM      6  C   VAL D4843     -58.779  23.524  37.128  1.00 51.29 LIG 0.24  C 
ATOM      7  N   ASN D4844     -57.807  24.422  37.229  1.00 50.43 LIG-0.35  N 
ATOM      8 H    ASN D4844     -57.581  24.982  36.618  1.00 50.43 LIG 0.16  HD
ATOM      9 O    VAL D4843     -59.047  22.776  38.079  1.00 47.22 LIG-0.27  OA
BRANCH 7 10
ATOM     10  CA  ASN D4844     -57.032  24.492  38.477  1.00 46.88 LIG 0.17  C 
BRANCH 10 11
ATOM     11  CB  ASN D4844     -55.775  25.337  38.276  1.00 66.72 LIG 0.14  C 
BRANCH 11 12
ATOM     12  CG  ASN D4844     -55.980  26.792  38.652  1.00 62.42 LIG 0.22  C 
ATOM     13 OD1  ASN D4844     -56.665  27.543  37.955  1.00 56.11 LIG-0.27  OA
ATOM     14  ND2 ASN D4844     -55.382  27.195  39.767  1.00 67.26 LIG-0.37  N 
ATOM     15 21HD ASN D4844     -55.465  28.011  40.029  1.00 67.26 LIG 0.16  HD
ATOM     16 22HD ASN D4844     -54.912  26.641  40.228  1.00 67.26 LIG 0.16  HD
ENDBRANCH 11 12
ENDBRANCH 10 11
BRANCH 10 17
ATOM     17  C   ASN D4844     -57.808  24.967  39.718  1.00 52.57 LIG 0.22  C 
ATOM     18 O    ASN D4844     -57.239  25.146  40.807  1.00 48.91 LIG-0.29  OA
ENDBRANCH 10 17
ENDBRANCH 7 10
ENDBRANCH 5 6
BRANCH 5 19
ATOM     19  CB  VAL D4843     -58.932  22.390  34.810  1.00 37.59 LIG 0.01  C 
ATOM     20  CG1 VAL D4843     -58.865  21.004  35.385  1.00 42.19 LIG 0.01  C 
ATOM     21  CG2 VAL D4843     -59.665  22.398  33.465  1.00 33.91 LIG 0.01  C 
ENDBRANCH 5 19
ENDBRANCH 3 5
BRANCH 1 22
ATOM     22  CA  VAL D4842     -60.122  26.998  34.650  1.00 42.26 LIG 0.18  C 
BRANCH 22 23
ATOM     23  N   VAL D4842     -58.858  27.511  35.187  1.00 51.43 LIG-0.34  N 
ATOM     24 H    VAL D4842     -58.169  27.048  34.961  1.00 51.43 LIG 0.16  HD
ATOM     25  C   LEU D4841     -58.794  28.596  35.956  1.00 54.30 LIG 0.26  C 
ATOM     26 O    LEU D4841     -57.732  29.128  36.271  1.00 66.57 LIG-0.27  OA
BRANCH 25 27
ATOM     27  CA  LEU D4841     -60.121  29.190  36.407  1.00 50.85 LIG 0.40  C 
ATOM     28  N   LEU D4841     -60.067  29.562  37.824  1.00 66.18 LIG 0.61  N 
BRANCH 27 29
ATOM     29  CB  LEU D4841     -60.474  30.415  35.554  1.00 58.40 LIG 0.06  C 
BRANCH 29 30
ATOM     30  CG  LEU D4841     -59.627  30.653  34.298  1.00 54.26 LIG-0.02  C 
ATOM     31  CD2 LEU D4841     -58.539  31.732  34.515  1.00 54.78 LIG 0.01  C 
ATOM     32  CD1 LEU D4841     -60.502  30.979  33.080  1.00 32.44 LIG 0.01  C 
ENDBRANCH 29 30
ENDBRANCH 27 29
ENDBRANCH 25 27
ENDBRANCH 22 23
BRANCH 22 33
ATOM     33  CB  VAL D4842     -60.218  27.197  33.115  1.00 48.47 LIG 0.01  C 
ATOM     34  CG2 VAL D4842     -61.536  27.806  32.725  1.00 42.42 LIG 0.01  C 
ATOM     35  CG1 VAL D4842     -60.040  25.857  32.421  1.00 34.87 LIG 0.01  C 
ENDBRANCH 22 33
ENDBRANCH 1 22
TORSDOF 13
ENDMDL
MODEL 29
USER: ADFR SOLUTION from run 179
USER: SCORE 9.190756 LL:  -2.216 LR:  -7.754 RR:   0.000 FEB:  -3.876
USER: RMSD 8.322406
USER: SEED 178
USER: STATUS no improvement in best in 21 clusters for 5 generations
USER: GENES 15
USER: genes 0 Translation |==|  0.39695 0.35513 0.32897
USER: genes 1 Rotation |==|  0.02045 0.61372 0.56515 0.55346
USER: genes 2 Torsion [C]-N--CA-[CB] |==|  0.91105
USER: genes 3 Torsion [N]-CA--C-[N] |==|  0.86955
USER: genes 4 Torsion [C]-N--CA-[CB] |==|  0.18037
USER: genes 5 Torsion [N]-CA--CB-[CG] |==|  0.64834
USER: genes 6 Torsion [CA]-CB--CG-[OD1] |==|  0.73378
USER: genes 7 Torsion [N]-CA--C-[O] |==|  0.46507
USER: genes 8 Torsion [N]-CA--CB-[CG2] |==|  0.77511
USER: genes 9 Torsion [N]-C--CA-[N] |==|  0.04826
USER: genes 10 Torsion [C]-CA--N-[C] |==|  0.68936
USER: genes 11 Torsion [N]-C--CA-[N] |==|  0.83777
USER: genes 12 Torsion [C]-CA--CB-[CG] |==|  0.20499
USER: genes 13 Torsion [CA]-CB--CG-[CD2] |==|  0.08904
USER: genes 14 Torsion [C]-CA--CB-[CG2] |==|  0.53677
ROOT
ATOM      1  C   VAL D4842     -59.204  25.177  36.515  1.00 57.35 LIG 0.24  C 
ATOM      2 O    VAL D4842     -59.287  24.685  37.647  1.00 61.28 LIG-0.27  OA
ATOM      3  N   VAL D4843     -58.757  26.407  36.298  1.00 52.36 LIG-0.35  N 
ATOM      4 H    VAL D4843     -58.536  26.696  35.519  1.00 52.36 LIG 0.16  HD
ENDROOT
BRANCH 3 5
ATOM      5  CA  VAL D4843     -58.591  27.396  37.353  1.00 37.99 LIG 0.18  C 
BRANCH 5 6
ATOM      6  C   VAL D4843     -57.161  27.137  37.890  1.00 51.29 LIG 0.24  C 
ATOM      7  N   ASN D4844     -56.785  25.892  38.156  1.00 50.43 LIG-0.35  N 
ATOM      8 H    ASN D4844     -57.265  25.190  38.034  1.00 50.43 LIG 0.16  HD
ATOM      9 O    VAL D4843     -56.383  28.083  38.075  1.00 47.22 LIG-0.27  OA
BRANCH 7 10
ATOM     10  CA  ASN D4844     -55.441  25.659  38.705  1.00 46.88 LIG 0.17  C 
BRANCH 10 11
ATOM     11  CB  ASN D4844     -55.317  26.286  40.094  1.00 66.72 LIG 0.14  C 
BRANCH 11 12
ATOM     12  CG  ASN D4844     -54.126  27.216  40.213  1.00 62.42 LIG 0.22  C 
ATOM     13 OD1  ASN D4844     -53.052  26.825  40.675  1.00 56.11 LIG-0.27  OA
ATOM     14  ND2 ASN D4844     -54.315  28.461  39.792  1.00 67.26 LIG-0.37  N 
ATOM     15 21HD ASN D4844     -53.672  29.032  39.835  1.00 67.26 LIG 0.16  HD
ATOM     16 22HD ASN D4844     -55.079  28.697  39.475  1.00 67.26 LIG 0.16  HD
ENDBRANCH 11 12
ENDBRANCH 10 11
BRANCH 10 17
ATOM     17  C   ASN D4844     -54.978  24.192  38.733  1.00 52.57 LIG 0.22  C 
ATOM     18 O    ASN D4844     -53.794  23.892  38.954  1.00 48.91 LIG-0.29  OA
ENDBRANCH 10 17
ENDBRANCH 7 10
ENDBRANCH 5 6
BRANCH 5 19
ATOM     19  CB  VAL D4843     -59.689  27.134  38.430  1.00 37.59 LIG 0.01  C 
ATOM     20  CG1 VAL D4843     -59.278  27.617  39.793  1.00 42.19 LIG 0.01  C 
ATOM     21  CG2 VAL D4843     -61.029  27.742  38.008  1.00 33.91 LIG 0.01  C 
ENDBRANCH 5 19
ENDBRANCH 3 5
BRANCH 1 22
ATOM     22  CA  VAL D4842     -59.564  24.380  35.245  1.00 42.26 LIG 0.18  C 
BRANCH 22 23
ATOM     23  N   VAL D4842     -59.017  24.890  33.984  1.00 51.43 LIG-0.34  N 
ATOM     24 H    VAL D4842     -58.162  24.817  33.919  1.00 51.43 LIG 0.16  HD
ATOM     25  C   LEU D4841     -59.783  25.418  33.032  1.00 54.30 LIG 0.26  C 
ATOM     26 O    LEU D4841     -59.360  25.692  31.911  1.00 66.57 LIG-0.27  OA
BRANCH 25 27
ATOM     27  CA  LEU D4841     -61.248  25.637  33.380  1.00 50.85 LIG 0.40  C 
ATOM     28  N   LEU D4841     -61.884  24.373  33.766  1.00 66.18 LIG 0.61  N 
BRANCH 27 29
ATOM     29  CB  LEU D4841     -61.379  26.660  34.515  1.00 58.40 LIG 0.06  C 
BRANCH 29 30
ATOM     30  CG  LEU D4841     -61.123  28.129  34.156  1.00 54.26 LIG-0.02  C 
ATOM     31  CD2 LEU D4841     -61.542  28.465  32.705  1.00 54.78 LIG 0.01  C 
ATOM     32  CD1 LEU D4841     -59.666  28.531  34.424  1.00 32.44 LIG 0.01  C 
ENDBRANCH 29 30
ENDBRANCH 27 29
ENDBRANCH 25 27
ENDBRANCH 22 23
BRANCH 22 33
ATOM     33  CB  VAL D4842     -59.254  22.874  35.439  1.00 48.47 LIG 0.01  C 
ATOM     34  CG2 VAL D4842     -59.292  22.136  34.130  1.00 42.42 LIG 0.01  C 
ATOM     35  CG1 VAL D4842     -60.265  22.271  36.401  1.00 34.87 LIG 0.01  C 
ENDBRANCH 22 33
ENDBRANCH 1 22
TORSDOF 13
ENDMDL
MODEL 30
USER: ADFR SOLUTION from run 13
USER: SCORE 8.556546 LL:  -1.916 LR:  -7.736 RR:   0.000 FEB:  -3.858
USER: RMSD 9.224290
USER: SEED 44888
USER: STATUS no improvement in best in 25 clusters for 5 generations
USER: GENES 15
USER: genes 0 Translation |==|  0.31244 0.56874 0.16849
USER: genes 1 Rotation |==|  0.73642 0.65343 0.15358 0.72485
USER: genes 2 Torsion [C]-N--CA-[CB] |==|  0.18530
USER: genes 3 Torsion [N]-CA--C-[N] |==|  0.85429
USER: genes 4 Torsion [C]-N--CA-[CB] |==|  0.27496
USER: genes 5 Torsion [N]-CA--CB-[CG] |==|  0.00269
USER: genes 6 Torsion [CA]-CB--CG-[OD1] |==|  0.18337
USER: genes 7 Torsion [N]-CA--C-[O] |==|  0.10356
USER: genes 8 Torsion [N]-CA--CB-[CG2] |==|  0.46286
USER: genes 9 Torsion [N]-C--CA-[N] |==|  0.32406
USER: genes 10 Torsion [C]-CA--N-[C] |==|  0.55556
USER: genes 11 Torsion [N]-C--CA-[N] |==|  0.21265
USER: genes 12 Torsion [C]-CA--CB-[CG] |==|  0.66223
USER: genes 13 Torsion [CA]-CB--CG-[CD2] |==|  0.58017
USER: genes 14 Torsion [C]-CA--CB-[CG2] |==|  0.20573
ROOT
ATOM      1  C   VAL D4842     -60.979  28.701  34.107  1.00 57.35 LIG 0.24  C 
ATOM      2 O    VAL D4842     -60.223  29.652  33.872  1.00 61.28 LIG-0.27  OA
ATOM      3  N   VAL D4843     -62.280  28.855  34.316  1.00 52.36 LIG-0.35  N 
ATOM      4 H    VAL D4843     -62.836  28.199  34.311  1.00 52.36 LIG 0.16  HD
ENDROOT
BRANCH 3 5
ATOM      5  CA  VAL D4843     -62.904  30.145  34.572  1.00 37.99 LIG 0.18  C 
BRANCH 5 6
ATOM      6  C   VAL D4843     -64.373  29.791  34.909  1.00 51.29 LIG 0.24  C 
ATOM      7  N   ASN D4844     -65.064  29.028  34.071  1.00 50.43 LIG-0.35  N 
ATOM      8 H    ASN D4844     -64.758  28.680  33.347  1.00 50.43 LIG 0.16  HD
ATOM      9 O    VAL D4843     -64.898  30.223  35.945  1.00 47.22 LIG-0.27  OA
BRANCH 7 10
ATOM     10  CA  ASN D4844     -66.472  28.732  34.376  1.00 46.88 LIG 0.17  C 
BRANCH 10 11
ATOM     11  CB  ASN D4844     -67.394  29.654  33.579  1.00 66.72 LIG 0.14  C 
BRANCH 11 12
ATOM     12  CG  ASN D4844     -66.634  30.605  32.676  1.00 62.42 LIG 0.22  C 
ATOM     13 OD1  ASN D4844     -65.977  30.192  31.719  1.00 56.11 LIG-0.27  OA
ATOM     14  ND2 ASN D4844     -66.724  31.895  32.981  1.00 67.26 LIG-0.37  N 
ATOM     15 21HD ASN D4844     -66.313  32.480  32.502  1.00 67.26 LIG 0.16  HD
ATOM     16 22HD ASN D4844     -67.192  32.145  33.658  1.00 67.26 LIG 0.16  HD
ENDBRANCH 11 12
ENDBRANCH 10 11
BRANCH 10 17
ATOM     17  C   ASN D4844     -66.897  27.263  34.202  1.00 52.57 LIG 0.22  C 
ATOM     18 O    ASN D4844     -66.134  26.330  34.501  1.00 48.91 LIG-0.29  OA
ENDBRANCH 10 17
ENDBRANCH 7 10
ENDBRANCH 5 6
BRANCH 5 19
ATOM     19  CB  VAL D4843     -62.778  31.002  33.275  1.00 37.59 LIG 0.01  C 
ATOM     20  CG1 VAL D4843     -63.042  30.199  32.033  1.00 42.19 LIG 0.01  C 
ATOM     21  CG2 VAL D4843     -63.686  32.234  33.341  1.00 33.91 LIG 0.01  C 
ENDBRANCH 5 19
ENDBRANCH 3 5
BRANCH 1 22
ATOM     22  CA  VAL D4842     -60.482  27.243  34.127  1.00 42.26 LIG 0.18  C 
BRANCH 22 23
ATOM     23  N   VAL D4842     -59.917  26.735  32.872  1.00 51.43 LIG-0.34  N 
ATOM     24 H    VAL D4842     -59.665  27.351  32.328  1.00 51.43 LIG 0.16  HD
ATOM     25  C   LEU D4841     -59.810  25.434  32.610  1.00 54.30 LIG 0.26  C 
ATOM     26 O    LEU D4841     -59.190  24.998  31.642  1.00 66.57 LIG-0.27  OA
BRANCH 25 27
ATOM     27  CA  LEU D4841     -60.468  24.483  33.599  1.00 50.85 LIG 0.40  C 
ATOM     28  N   LEU D4841     -61.921  24.457  33.405  1.00 66.18 LIG 0.61  N 
BRANCH 27 29
ATOM     29  CB  LEU D4841     -59.891  23.071  33.445  1.00 58.40 LIG 0.06  C 
BRANCH 29 30
ATOM     30  CG  LEU D4841     -60.882  21.949  33.112  1.00 54.26 LIG-0.02  C 
ATOM     31  CD2 LEU D4841     -60.423  20.574  33.655  1.00 54.78 LIG 0.01  C 
ATOM     32  CD1 LEU D4841     -61.178  21.884  31.608  1.00 32.44 LIG 0.01  C 
ENDBRANCH 29 30
ENDBRANCH 27 29
ENDBRANCH 25 27
ENDBRANCH 22 23
BRANCH 22 33
ATOM     33  CB  VAL D4842     -59.527  27.006  35.325  1.00 48.47 LIG 0.01  C 
ATOM     34  CG2 VAL D4842     -60.284  26.942  36.622  1.00 42.42 LIG 0.01  C 
ATOM     35  CG1 VAL D4842     -58.500  28.125  35.380  1.00 34.87 LIG 0.01  C 
ENDBRANCH 22 33
ENDBRANCH 1 22
TORSDOF 13
ENDMDL
MODEL 31
USER: ADFR SOLUTION from run 39
USER: SCORE 8.749463 LL:  -2.687 LR:  -7.735 RR:   0.000 FEB:  -3.858
USER: RMSD 5.856638
USER: SEED 38
USER: STATUS no improvement in best in 32 clusters for 5 generations
USER: GENES 15
USER: genes 0 Translation |==|  0.35348 0.47949 0.22705
USER: genes 1 Rotation |==|  0.55967 0.78384 0.61542 0.89058
USER: genes 2 Torsion [C]-N--CA-[CB] |==|  0.38181
USER: genes 3 Torsion [N]-CA--C-[N] |==|  0.85000
USER: genes 4 Torsion [C]-N--CA-[CB] |==|  0.79011
USER: genes 5 Torsion [N]-CA--CB-[CG] |==|  0.85637
USER: genes 6 Torsion [CA]-CB--CG-[OD1] |==|  0.44910
USER: genes 7 Torsion [N]-CA--C-[O] |==|  0.19871
USER: genes 8 Torsion [N]-CA--CB-[CG2] |==|  0.87548
USER: genes 9 Torsion [N]-C--CA-[N] |==|  0.90595
USER: genes 10 Torsion [C]-CA--N-[C] |==|  0.66713
USER: genes 11 Torsion [N]-C--CA-[N] |==|  0.38659
USER: genes 12 Torsion [C]-CA--CB-[CG] |==|  0.93279
USER: genes 13 Torsion [CA]-CB--CG-[CD2] |==|  0.76924
USER: genes 14 Torsion [C]-CA--CB-[CG2] |==|  0.44060
ROOT
ATOM      1  C   VAL D4842     -60.117  27.229  34.986  1.00 57.35 LIG 0.24  C 
ATOM      2 O    VAL D4842     -61.350  27.298  34.909  1.00 61.28 LIG-0.27  OA
ATOM      3  N   VAL D4843     -59.435  26.154  34.611  1.00 52.36 LIG-0.35  N 
ATOM      4 H    VAL D4843     -58.582  26.155  34.500  1.00 52.36 LIG 0.16  HD
ENDROOT
BRANCH 3 5
ATOM      5  CA  VAL D4843     -60.054  24.863  34.349  1.00 37.99 LIG 0.18  C 
BRANCH 5 6
ATOM      6  C   VAL D4843     -59.730  24.028  35.612  1.00 51.29 LIG 0.24  C 
ATOM      7  N   ASN D4844     -58.468  23.910  36.005  1.00 50.43 LIG-0.35  N 
ATOM      8 H    ASN D4844     -57.792  24.283  35.628  1.00 50.43 LIG 0.16  HD
ATOM      9 O    VAL D4843     -60.641  23.470  36.241  1.00 47.22 LIG-0.27  OA
BRANCH 7 10
ATOM     10  CA  ASN D4844     -58.165  23.080  37.180  1.00 46.88 LIG 0.17  C 
BRANCH 10 11
ATOM     11  CB  ASN D4844     -58.555  23.811  38.464  1.00 66.72 LIG 0.14  C 
BRANCH 11 12
ATOM     12  CG  ASN D4844     -57.975  25.210  38.541  1.00 62.42 LIG 0.22  C 
ATOM     13 OD1  ASN D4844     -58.436  26.053  39.312  1.00 56.11 LIG-0.27  OA
ATOM     14  ND2 ASN D4844     -56.951  25.461  37.733  1.00 67.26 LIG-0.37  N 
ATOM     15 21HD ASN D4844     -56.582  26.238  37.736  1.00 67.26 LIG 0.16  HD
ATOM     16 22HD ASN D4844     -56.657  24.846  37.208  1.00 67.26 LIG 0.16  HD
ENDBRANCH 11 12
ENDBRANCH 10 11
BRANCH 10 17
ATOM     17  C   ASN D4844     -58.761  21.661  37.166  1.00 52.57 LIG 0.22  C 
ATOM     18 O    ASN D4844     -58.323  20.784  36.404  1.00 48.91 LIG-0.29  OA
ENDBRANCH 10 17
ENDBRANCH 7 10
ENDBRANCH 5 6
BRANCH 5 19
ATOM     19  CB  VAL D4843     -59.401  24.274  33.060  1.00 37.59 LIG 0.01  C 
ATOM     20  CG1 VAL D4843     -60.127  23.058  32.558  1.00 42.19 LIG 0.01  C 
ATOM     21  CG2 VAL D4843     -59.285  25.340  31.966  1.00 33.91 LIG 0.01  C 
ENDBRANCH 5 19
ENDBRANCH 3 5
BRANCH 1 22
ATOM     22  CA  VAL D4842     -59.257  28.411  35.474  1.00 42.26 LIG 0.18  C 
BRANCH 22 23
ATOM     23  N   VAL D4842     -58.024  28.063  36.186  1.00 51.43 LIG-0.34  N 
ATOM     24 H    VAL D4842     -57.471  27.598  35.720  1.00 51.43 LIG 0.16  HD
ATOM     25  C   LEU D4841     -57.790  28.440  37.442  1.00 54.30 LIG 0.26  C 
ATOM     26 O    LEU D4841     -56.698  28.299  37.988  1.00 66.57 LIG-0.27  OA
BRANCH 25 27
ATOM     27  CA  LEU D4841     -58.944  29.102  38.180  1.00 50.85 LIG 0.40  C 
ATOM     28  N   LEU D4841     -59.014  28.628  39.565  1.00 66.18 LIG 0.61  N 
BRANCH 27 29
ATOM     29  CB  LEU D4841     -58.789  30.628  38.152  1.00 58.40 LIG 0.06  C 
BRANCH 29 30
ATOM     30  CG  LEU D4841     -57.370  31.177  37.964  1.00 54.26 LIG-0.02  C 
ATOM     31  CD2 LEU D4841     -56.577  31.234  39.292  1.00 54.78 LIG 0.01  C 
ATOM     32  CD1 LEU D4841     -57.380  32.541  37.261  1.00 32.44 LIG 0.01  C 
ENDBRANCH 29 30
ENDBRANCH 27 29
ENDBRANCH 25 27
ENDBRANCH 22 23
BRANCH 22 33
ATOM     33  CB  VAL D4842     -58.993  29.409  34.319  1.00 48.47 LIG 0.01  C 
ATOM     34  CG2 VAL D4842     -58.630  30.770  34.845  1.00 42.42 LIG 0.01  C 
ATOM     35  CG1 VAL D4842     -60.232  29.506  33.443  1.00 34.87 LIG 0.01  C 
ENDBRANCH 22 33
ENDBRANCH 1 22
TORSDOF 13
ENDMDL
MODEL 32
USER: ADFR SOLUTION from run 5
USER: SCORE 8.619375 LL:  -2.814 LR:  -7.719 RR:   0.000 FEB:  -3.842
USER: RMSD 8.460582
USER: SEED 970925
USER: STATUS no improvement in best in 42 clusters for 5 generations
USER: GENES 15
USER: genes 0 Translation |==|  0.37717 0.40553 0.32661
USER: genes 1 Rotation |==|  0.06531 0.67304 0.32366 0.50350
USER: genes 2 Torsion [C]-N--CA-[CB] |==|  0.37389
USER: genes 3 Torsion [N]-CA--C-[N] |==|  0.43168
USER: genes 4 Torsion [C]-N--CA-[CB] |==|  0.82929
USER: genes 5 Torsion [N]-CA--CB-[CG] |==|  0.52430
USER: genes 6 Torsion [CA]-CB--CG-[OD1] |==|  0.99327
USER: genes 7 Torsion [N]-CA--C-[O] |==|  0.05553
USER: genes 8 Torsion [N]-CA--CB-[CG2] |==|  0.93259
USER: genes 9 Torsion [N]-C--CA-[N] |==|  0.86667
USER: genes 10 Torsion [C]-CA--N-[C] |==|  0.78818
USER: genes 11 Torsion [N]-C--CA-[N] |==|  0.38714
USER: genes 12 Torsion [C]-CA--CB-[CG] |==|  0.08036
USER: genes 13 Torsion [CA]-CB--CG-[CD2] |==|  0.67222
USER: genes 14 Torsion [C]-CA--CB-[CG2] |==|  0.39818
ROOT
ATOM      1  C   VAL D4842     -59.619  26.008  36.479  1.00 57.35 LIG 0.24  C 
ATOM      2 O    VAL D4842     -60.637  26.178  37.161  1.00 61.28 LIG-0.27  OA
ATOM      3  N   VAL D4843     -58.628  26.889  36.438  1.00 52.36 LIG-0.35  N 
ATOM      4 H    VAL D4843     -57.854  26.709  36.110  1.00 52.36 LIG 0.16  HD
ENDROOT
BRANCH 3 5
ATOM      5  CA  VAL D4843     -58.743  28.249  36.945  1.00 37.99 LIG 0.18  C 
BRANCH 5 6
ATOM      6  C   VAL D4843     -58.836  29.119  35.667  1.00 51.29 LIG 0.24  C 
ATOM      7  N   ASN D4844     -59.426  30.306  35.732  1.00 50.43 LIG-0.35  N 
ATOM      8 H    ASN D4844     -59.751  30.662  36.444  1.00 50.43 LIG 0.16  HD
ATOM      9 O    VAL D4843     -58.372  28.705  34.595  1.00 47.22 LIG-0.27  OA
BRANCH 7 10
ATOM     10  CA  ASN D4844     -59.548  31.107  34.506  1.00 46.88 LIG 0.17  C 
BRANCH 10 11
ATOM     11  CB  ASN D4844     -58.165  31.442  33.948  1.00 66.72 LIG 0.14  C 
BRANCH 11 12
ATOM     12  CG  ASN D4844     -58.219  32.439  32.807  1.00 62.42 LIG 0.22  C 
ATOM     13 OD1  ASN D4844     -59.293  32.867  32.381  1.00 56.11 LIG-0.27  OA
ATOM     14  ND2 ASN D4844     -57.047  32.815  32.306  1.00 67.26 LIG-0.37  N 
ATOM     15 21HD ASN D4844     -57.018  33.380  31.658  1.00 67.26 LIG 0.16  HD
ATOM     16 22HD ASN D4844     -56.318  32.493  32.630  1.00 67.26 LIG 0.16  HD
ENDBRANCH 11 12
ENDBRANCH 10 11
BRANCH 10 17
ATOM     17  C   ASN D4844     -60.442  30.509  33.406  1.00 52.57 LIG 0.22  C 
ATOM     18 O    ASN D4844     -61.291  29.640  33.664  1.00 48.91 LIG-0.29  OA
ENDBRANCH 10 17
ENDBRANCH 7 10
ENDBRANCH 5 6
BRANCH 5 19
ATOM     19  CB  VAL D4843     -57.464  28.556  37.784  1.00 37.59 LIG 0.01  C 
ATOM     20  CG1 VAL D4843     -57.735  29.524  38.901  1.00 42.19 LIG 0.01  C 
ATOM     21  CG2 VAL D4843     -56.830  27.266  38.311  1.00 33.91 LIG 0.01  C 
ENDBRANCH 5 19
ENDBRANCH 3 5
BRANCH 1 22
ATOM     22  CA  VAL D4842     -59.389  24.727  35.655  1.00 42.26 LIG 0.18  C 
BRANCH 22 23
ATOM     23  N   VAL D4842     -58.915  24.918  34.281  1.00 51.43 LIG-0.34  N 
ATOM     24 H    VAL D4842     -58.078  24.750  34.173  1.00 51.43 LIG 0.16  HD
ATOM     25  C   LEU D4841     -59.717  25.315  33.295  1.00 54.30 LIG 0.26  C 
ATOM     26 O    LEU D4841     -59.373  25.316  32.115  1.00 66.57 LIG-0.27  OA
BRANCH 25 27
ATOM     27  CA  LEU D4841     -61.123  25.740  33.690  1.00 50.85 LIG 0.40  C 
ATOM     28  N   LEU D4841     -61.538  26.926  32.935  1.00 66.18 LIG 0.61  N 
BRANCH 27 29
ATOM     29  CB  LEU D4841     -62.113  24.593  33.455  1.00 58.40 LIG 0.06  C 
BRANCH 29 30
ATOM     30  CG  LEU D4841     -61.561  23.167  33.563  1.00 54.26 LIG-0.02  C 
ATOM     31  CD2 LEU D4841     -61.679  22.384  32.233  1.00 54.78 LIG 0.01  C 
ATOM     32  CD1 LEU D4841     -62.206  22.397  34.723  1.00 32.44 LIG 0.01  C 
ENDBRANCH 29 30
ENDBRANCH 27 29
ENDBRANCH 25 27
ENDBRANCH 22 23
BRANCH 22 33
ATOM     33  CB  VAL D4842     -58.499  23.727  36.436  1.00 48.47 LIG 0.01  C 
ATOM     34  CG2 VAL D4842     -58.933  22.307  36.196  1.00 42.42 LIG 0.01  C 
ATOM     35  CG1 VAL D4842     -58.568  24.044  37.921  1.00 34.87 LIG 0.01  C 
ENDBRANCH 22 33
ENDBRANCH 1 22
TORSDOF 13
ENDMDL
MODEL 33
USER: ADFR SOLUTION from run 38
USER: SCORE 9.746963 LL:  -2.415 LR:  -7.716 RR:   0.000 FEB:  -3.838
USER: RMSD 6.131632
USER: SEED 37
USER: STATUS no improvement in best in 31 clusters for 5 generations
USER: GENES 15
USER: genes 0 Translation |==|  0.44609 0.36755 0.41654
USER: genes 1 Rotation |==|  0.62791 0.85094 0.62651 0.80737
USER: genes 2 Torsion [C]-N--CA-[CB] |==|  0.87704
USER: genes 3 Torsion [N]-CA--C-[N] |==|  0.33403
USER: genes 4 Torsion [C]-N--CA-[CB] |==|  0.17308
USER: genes 5 Torsion [N]-CA--CB-[CG] |==|  0.16228
USER: genes 6 Torsion [CA]-CB--CG-[OD1] |==|  0.25211
USER: genes 7 Torsion [N]-CA--C-[O] |==|  0.01012
USER: genes 8 Torsion [N]-CA--CB-[CG2] |==|  0.78874
USER: genes 9 Torsion [N]-C--CA-[N] |==|  0.41681
USER: genes 10 Torsion [C]-CA--N-[C] |==|  0.82146
USER: genes 11 Torsion [N]-C--CA-[N] |==|  0.29509
USER: genes 12 Torsion [C]-CA--CB-[CG] |==|  0.74714
USER: genes 13 Torsion [CA]-CB--CG-[CD2] |==|  0.75153
USER: genes 14 Torsion [C]-CA--CB-[CG2] |==|  0.52161
ROOT
ATOM      1  C   VAL D4842     -58.172  25.382  37.828  1.00 57.35 LIG 0.24  C 
ATOM      2 O    VAL D4842     -59.306  25.418  38.321  1.00 61.28 LIG-0.27  OA
ATOM      3  N   VAL D4843     -57.791  24.437  36.977  1.00 52.36 LIG-0.35  N 
ATOM      4 H    VAL D4843     -57.076  24.494  36.503  1.00 52.36 LIG 0.16  HD
ENDROOT
BRANCH 3 5
ATOM      5  CA  VAL D4843     -58.539  23.209  36.756  1.00 37.99 LIG 0.18  C 
BRANCH 5 6
ATOM      6  C   VAL D4843     -59.745  23.655  35.892  1.00 51.29 LIG 0.24  C 
ATOM      7  N   ASN D4844     -59.914  23.118  34.690  1.00 50.43 LIG-0.35  N 
ATOM      8 H    ASN D4844     -59.417  22.510  34.342  1.00 50.43 LIG 0.16  HD
ATOM      9 O    VAL D4843     -60.536  24.508  36.318  1.00 47.22 LIG-0.27  OA
BRANCH 7 10
ATOM     10  CA  ASN D4844     -61.037  23.578  33.859  1.00 46.88 LIG 0.17  C 
BRANCH 10 11
ATOM     11  CB  ASN D4844     -60.885  25.064  33.534  1.00 66.72 LIG 0.14  C 
BRANCH 11 12
ATOM     12  CG  ASN D4844     -59.589  25.376  32.811  1.00 62.42 LIG 0.22  C 
ATOM     13 OD1  ASN D4844     -59.525  25.368  31.580  1.00 56.11 LIG-0.27  OA
ATOM     14  ND2 ASN D4844     -58.544  25.655  33.582  1.00 67.26 LIG-0.37  N 
ATOM     15 21HD ASN D4844     -57.783  25.840  33.225  1.00 67.26 LIG 0.16  HD
ATOM     16 22HD ASN D4844     -58.628  25.650  34.438  1.00 67.26 LIG 0.16  HD
ENDBRANCH 11 12
ENDBRANCH 10 11
BRANCH 10 17
ATOM     17  C   ASN D4844     -61.290  22.769  32.575  1.00 52.57 LIG 0.22  C 
ATOM     18 O    ASN D4844     -60.627  21.754  32.309  1.00 48.91 LIG-0.29  OA
ENDBRANCH 10 17
ENDBRANCH 7 10
ENDBRANCH 5 6
BRANCH 5 19
ATOM     19  CB  VAL D4843     -58.974  22.657  38.149  1.00 37.59 LIG 0.01  C 
ATOM     20  CG1 VAL D4843     -60.144  21.719  38.050  1.00 42.19 LIG 0.01  C 
ATOM     21  CG2 VAL D4843     -57.795  21.998  38.871  1.00 33.91 LIG 0.01  C 
ENDBRANCH 5 19
ENDBRANCH 3 5
BRANCH 1 22
ATOM     22  CA  VAL D4842     -57.115  26.465  38.118  1.00 42.26 LIG 0.18  C 
BRANCH 22 23
ATOM     23  N   VAL D4842     -57.629  27.799  38.446  1.00 51.43 LIG-0.34  N 
ATOM     24 H    VAL D4842     -57.443  28.058  39.244  1.00 51.43 LIG 0.16  HD
ATOM     25  C   LEU D4841     -58.321  28.534  37.578  1.00 54.30 LIG 0.26  C 
ATOM     26 O    LEU D4841     -58.609  29.711  37.782  1.00 66.57 LIG-0.27  OA
BRANCH 25 27
ATOM     27  CA  LEU D4841     -58.717  27.855  36.274  1.00 50.85 LIG 0.40  C 
ATOM     28  N   LEU D4841     -60.148  27.541  36.267  1.00 66.18 LIG 0.61  N 
BRANCH 27 29
ATOM     29  CB  LEU D4841     -58.368  28.751  35.080  1.00 58.40 LIG 0.06  C 
BRANCH 29 30
ATOM     30  CG  LEU D4841     -59.456  29.719  34.598  1.00 54.26 LIG-0.02  C 
ATOM     31  CD2 LEU D4841     -60.378  29.086  33.528  1.00 54.78 LIG 0.01  C 
ATOM     32  CD1 LEU D4841     -58.858  31.044  34.107  1.00 32.44 LIG 0.01  C 
ENDBRANCH 29 30
ENDBRANCH 27 29
ENDBRANCH 25 27
ENDBRANCH 22 23
BRANCH 22 33
ATOM     33  CB  VAL D4842     -56.095  25.966  39.173  1.00 48.47 LIG 0.01  C 
ATOM     34  CG2 VAL D4842     -55.173  27.071  39.606  1.00 42.42 LIG 0.01  C 
ATOM     35  CG1 VAL D4842     -55.289  24.817  38.590  1.00 34.87 LIG 0.01  C 
ENDBRANCH 22 33
ENDBRANCH 1 22
TORSDOF 13
ENDMDL
MODEL 34
USER: ADFR SOLUTION from run 94
USER: SCORE 9.753990 LL:  -2.898 LR:  -7.720 RR:   0.000 FEB:  -3.842
USER: RMSD 10.001709
USER: SEED 93
USER: STATUS no improvement in best in 16 clusters for 5 generations
USER: GENES 15
USER: genes 0 Translation |==|  0.24511 0.26861 0.22848
USER: genes 1 Rotation |==|  0.81018 0.25680 0.19245 0.50774
USER: genes 2 Torsion [C]-N--CA-[CB] |==|  0.47222
USER: genes 3 Torsion [N]-CA--C-[N] |==|  0.47217
USER: genes 4 Torsion [C]-N--CA-[CB] |==|  0.23030
USER: genes 5 Torsion [N]-CA--CB-[CG] |==|  0.12127
USER: genes 6 Torsion [CA]-CB--CG-[OD1] |==|  0.66294
USER: genes 7 Torsion [N]-CA--C-[O] |==|  0.72069
USER: genes 8 Torsion [N]-CA--CB-[CG2] |==|  0.64280
USER: genes 9 Torsion [N]-C--CA-[N] |==|  0.11329
USER: genes 10 Torsion [C]-CA--N-[C] |==|  0.15732
USER: genes 11 Torsion [N]-C--CA-[N] |==|  0.33455
USER: genes 12 Torsion [C]-CA--CB-[CG] |==|  0.43115
USER: genes 13 Torsion [CA]-CB--CG-[CD2] |==|  0.03608
USER: genes 14 Torsion [C]-CA--CB-[CG2] |==|  0.53747
ROOT
ATOM      1  C   VAL D4842     -62.393  23.749  35.007  1.00 57.35 LIG 0.24  C 
ATOM      2 O    VAL D4842     -61.603  23.036  35.638  1.00 61.28 LIG-0.27  OA
ATOM      3  N   VAL D4843     -61.991  24.694  34.167  1.00 52.36 LIG-0.35  N 
ATOM      4 H    VAL D4843     -62.517  25.075  33.604  1.00 52.36 LIG 0.16  HD
ENDROOT
BRANCH 3 5
ATOM      5  CA  VAL D4843     -60.622  25.185  34.108  1.00 37.99 LIG 0.18  C 
BRANCH 5 6
ATOM      6  C   VAL D4843     -60.452  25.981  35.425  1.00 51.29 LIG 0.24  C 
ATOM      7  N   ASN D4844     -59.242  26.397  35.779  1.00 50.43 LIG-0.35  N 
ATOM      8 H    ASN D4844     -58.523  26.284  35.322  1.00 50.43 LIG 0.16  HD
ATOM      9 O    VAL D4843     -61.434  26.219  36.142  1.00 47.22 LIG-0.27  OA
BRANCH 7 10
ATOM     10  CA  ASN D4844     -59.082  27.116  37.052  1.00 46.88 LIG 0.17  C 
BRANCH 10 11
ATOM     11  CB  ASN D4844     -58.969  26.126  38.211  1.00 66.72 LIG 0.14  C 
BRANCH 11 12
ATOM     12  CG  ASN D4844     -58.056  24.957  37.896  1.00 62.42 LIG 0.22  C 
ATOM     13 OD1  ASN D4844     -58.466  23.795  37.936  1.00 56.11 LIG-0.27  OA
ATOM     14  ND2 ASN D4844     -56.804  25.265  37.578  1.00 67.26 LIG-0.37  N 
ATOM     15 21HD ASN D4844     -56.242  24.641  37.389  1.00 67.26 LIG 0.16  HD
ATOM     16 22HD ASN D4844     -56.554  26.088  37.561  1.00 67.26 LIG 0.16  HD
ENDBRANCH 11 12
ENDBRANCH 10 11
BRANCH 10 17
ATOM     17  C   ASN D4844     -57.933  28.137  37.101  1.00 52.57 LIG 0.22  C 
ATOM     18 O    ASN D4844     -56.850  27.865  37.644  1.00 48.91 LIG-0.29  OA
ENDBRANCH 10 17
ENDBRANCH 7 10
ENDBRANCH 5 6
BRANCH 5 19
ATOM     19  CB  VAL D4843     -60.493  26.089  32.843  1.00 37.59 LIG 0.01  C 
ATOM     20  CG1 VAL D4843     -60.423  27.549  33.190  1.00 42.19 LIG 0.01  C 
ATOM     21  CG2 VAL D4843     -59.297  25.665  31.985  1.00 33.91 LIG 0.01  C 
ENDBRANCH 5 19
ENDBRANCH 3 5
BRANCH 1 22
ATOM     22  CA  VAL D4842     -63.920  23.565  35.103  1.00 42.26 LIG 0.18  C 
BRANCH 22 23
ATOM     23  N   VAL D4842     -64.661  23.639  33.839  1.00 51.43 LIG-0.34  N 
ATOM     24 H    VAL D4842     -65.280  24.236  33.832  1.00 51.43 LIG 0.16  HD
ATOM     25  C   LEU D4841     -64.391  22.847  32.803  1.00 54.30 LIG 0.26  C 
ATOM     26 O    LEU D4841     -64.888  23.011  31.691  1.00 66.57 LIG-0.27  OA
BRANCH 25 27
ATOM     27  CA  LEU D4841     -63.389  21.727  33.045  1.00 50.85 LIG 0.40  C 
ATOM     28  N   LEU D4841     -64.000  20.420  32.788  1.00 66.18 LIG 0.61  N 
BRANCH 27 29
ATOM     29  CB  LEU D4841     -62.154  21.916  32.155  1.00 58.40 LIG 0.06  C 
BRANCH 29 30
ATOM     30  CG  LEU D4841     -60.845  21.282  32.641  1.00 54.26 LIG-0.02  C 
ATOM     31  CD2 LEU D4841     -61.068  20.283  33.802  1.00 54.78 LIG 0.01  C 
ATOM     32  CD1 LEU D4841     -59.805  22.347  33.013  1.00 32.44 LIG 0.01  C 
ENDBRANCH 29 30
ENDBRANCH 27 29
ENDBRANCH 25 27
ENDBRANCH 22 23
BRANCH 22 33
ATOM     33  CB  VAL D4842     -64.268  22.283  35.900  1.00 48.47 LIG 0.01  C 
ATOM     34  CG2 VAL D4842     -65.714  21.909  35.730  1.00 42.42 LIG 0.01  C 
ATOM     35  CG1 VAL D4842     -63.961  22.506  37.372  1.00 34.87 LIG 0.01  C 
ENDBRANCH 22 33
ENDBRANCH 1 22
TORSDOF 13
ENDMDL
MODEL 35
USER: ADFR SOLUTION from run 91
USER: SCORE 8.380764 LL:  -2.385 LR:  -7.715 RR:   0.000 FEB:  -3.837
USER: RMSD 6.325838
USER: SEED 90
USER: STATUS no improvement in best in 14 clusters for 5 generations
USER: GENES 15
USER: genes 0 Translation |==|  0.41352 0.34505 0.40737
USER: genes 1 Rotation |==|  0.96064 0.41793 0.66609 0.55907
USER: genes 2 Torsion [C]-N--CA-[CB] |==|  0.35018
USER: genes 3 Torsion [N]-CA--C-[N] |==|  0.24566
USER: genes 4 Torsion [C]-N--CA-[CB] |==|  0.33700
USER: genes 5 Torsion [N]-CA--CB-[CG] |==|  0.78988
USER: genes 6 Torsion [CA]-CB--CG-[OD1] |==|  0.63876
USER: genes 7 Torsion [N]-CA--C-[O] |==|  0.57411
USER: genes 8 Torsion [N]-CA--CB-[CG2] |==|  0.95037
USER: genes 9 Torsion [N]-C--CA-[N] |==|  0.40001
USER: genes 10 Torsion [C]-CA--N-[C] |==|  0.80212
USER: genes 11 Torsion [N]-C--CA-[N] |==|  0.31003
USER: genes 12 Torsion [C]-CA--CB-[CG] |==|  0.39350
USER: genes 13 Torsion [CA]-CB--CG-[CD2] |==|  0.55826
USER: genes 14 Torsion [C]-CA--CB-[CG2] |==|  0.89062
ROOT
ATOM      1  C   VAL D4842     -58.856  25.010  37.691  1.00 57.35 LIG 0.24  C 
ATOM      2 O    VAL D4842     -59.800  25.165  38.475  1.00 61.28 LIG-0.27  OA
ATOM      3  N   VAL D4843     -58.166  26.027  37.191  1.00 52.36 LIG-0.35  N 
ATOM      4 H    VAL D4843     -57.413  25.930  36.787  1.00 52.36 LIG 0.16  HD
ENDROOT
BRANCH 3 5
ATOM      5  CA  VAL D4843     -58.606  27.412  37.274  1.00 37.99 LIG 0.18  C 
BRANCH 5 6
ATOM      6  C   VAL D4843     -58.870  27.811  35.801  1.00 51.29 LIG 0.24  C 
ATOM      7  N   ASN D4844     -60.069  27.593  35.275  1.00 50.43 LIG-0.35  N 
ATOM      8 H    ASN D4844     -60.743  27.263  35.694  1.00 50.43 LIG 0.16  HD
ATOM      9 O    VAL D4843     -57.967  28.319  35.120  1.00 47.22 LIG-0.27  OA
BRANCH 7 10
ATOM     10  CA  ASN D4844     -60.299  27.934  33.864  1.00 46.88 LIG 0.17  C 
BRANCH 10 11
ATOM     11  CB  ASN D4844     -60.738  26.697  33.082  1.00 66.72 LIG 0.14  C 
BRANCH 11 12
ATOM     12  CG  ASN D4844     -59.591  25.748  32.792  1.00 62.42 LIG 0.22  C 
ATOM     13 OD1  ASN D4844     -59.389  25.317  31.655  1.00 56.11 LIG-0.27  OA
ATOM     14  ND2 ASN D4844     -58.831  25.419  33.830  1.00 67.26 LIG-0.37  N 
ATOM     15 21HD ASN D4844     -58.165  24.885  33.723  1.00 67.26 LIG 0.16  HD
ATOM     16 22HD ASN D4844     -59.004  25.741  34.609  1.00 67.26 LIG 0.16  HD
ENDBRANCH 11 12
ENDBRANCH 10 11
BRANCH 10 17
ATOM     17  C   ASN D4844     -61.265  29.104  33.609  1.00 52.57 LIG 0.22  C 
ATOM     18 O    ASN D4844     -61.915  29.187  32.554  1.00 48.91 LIG-0.29  OA
ENDBRANCH 10 17
ENDBRANCH 7 10
ENDBRANCH 5 6
BRANCH 5 19
ATOM     19  CB  VAL D4843     -57.453  28.242  37.919  1.00 37.59 LIG 0.01  C 
ATOM     20  CG1 VAL D4843     -57.968  29.319  38.832  1.00 42.19 LIG 0.01  C 
ATOM     21  CG2 VAL D4843     -56.459  27.330  38.644  1.00 33.91 LIG 0.01  C 
ENDBRANCH 5 19
ENDBRANCH 3 5
BRANCH 1 22
ATOM     22  CA  VAL D4842     -58.362  23.614  37.265  1.00 42.26 LIG 0.18  C 
BRANCH 22 23
ATOM     23  N   VAL D4842     -58.454  22.558  38.279  1.00 51.43 LIG-0.34  N 
ATOM     24 H    VAL D4842     -59.062  21.972  38.118  1.00 51.43 LIG 0.16  HD
ATOM     25  C   LEU D4841     -57.662  22.521  39.348  1.00 54.30 LIG 0.26  C 
ATOM     26 O    LEU D4841     -57.616  21.558  40.110  1.00 66.57 LIG-0.27  OA
BRANCH 25 27
ATOM     27  CA  LEU D4841     -56.765  23.729  39.574  1.00 50.85 LIG 0.40  C 
ATOM     28  N   LEU D4841     -57.188  24.473  40.764  1.00 66.18 LIG 0.61  N 
BRANCH 27 29
ATOM     29  CB  LEU D4841     -55.304  23.289  39.720  1.00 58.40 LIG 0.06  C 
BRANCH 29 30
ATOM     30  CG  LEU D4841     -54.240  24.189  39.080  1.00 54.26 LIG-0.02  C 
ATOM     31  CD2 LEU D4841     -52.910  23.442  38.823  1.00 54.78 LIG 0.01  C 
ATOM     32  CD1 LEU D4841     -54.014  25.467  39.900  1.00 32.44 LIG 0.01  C 
ENDBRANCH 29 30
ENDBRANCH 27 29
ENDBRANCH 25 27
ENDBRANCH 22 23
BRANCH 22 33
ATOM     33  CB  VAL D4842     -59.018  23.186  35.928  1.00 48.47 LIG 0.01  C 
ATOM     34  CG2 VAL D4842     -60.463  23.598  35.872  1.00 42.42 LIG 0.01  C 
ATOM     35  CG1 VAL D4842     -58.903  21.679  35.769  1.00 34.87 LIG 0.01  C 
ENDBRANCH 22 33
ENDBRANCH 1 22
TORSDOF 13
ENDMDL
MODEL 36
USER: ADFR SOLUTION from run 152
USER: SCORE 8.830024 LL:  -2.321 LR:  -7.692 RR:   0.000 FEB:  -3.814
USER: RMSD 8.735459
USER: SEED 151
USER: STATUS no improvement in best in 46 clusters for 5 generations
USER: GENES 15
USER: genes 0 Translation |==|  0.37419 0.43449 0.25691
USER: genes 1 Rotation |==|  0.95058 0.31779 0.58632 0.57954
USER: genes 2 Torsion [C]-N--CA-[CB] |==|  0.83228
USER: genes 3 Torsion [N]-CA--C-[N] |==|  0.10411
USER: genes 4 Torsion [C]-N--CA-[CB] |==|  0.41666
USER: genes 5 Torsion [N]-CA--CB-[CG] |==|  0.06796
USER: genes 6 Torsion [CA]-CB--CG-[OD1] |==|  0.28425
USER: genes 7 Torsion [N]-CA--C-[O] |==|  0.80673
USER: genes 8 Torsion [N]-CA--CB-[CG2] |==|  0.88810
USER: genes 9 Torsion [N]-C--CA-[N] |==|  0.47092
USER: genes 10 Torsion [C]-CA--N-[C] |==|  0.62297
USER: genes 11 Torsion [N]-C--CA-[N] |==|  0.39573
USER: genes 12 Torsion [C]-CA--CB-[CG] |==|  0.86881
USER: genes 13 Torsion [CA]-CB--CG-[CD2] |==|  0.73343
USER: genes 14 Torsion [C]-CA--CB-[CG2] |==|  0.61361
ROOT
ATOM      1  C   VAL D4842     -59.682  26.486  35.434  1.00 57.35 LIG 0.24  C 
ATOM      2 O    VAL D4842     -60.269  26.892  36.444  1.00 61.28 LIG-0.27  OA
ATOM      3  N   VAL D4843     -58.741  27.192  34.820  1.00 52.36 LIG-0.35  N 
ATOM      4 H    VAL D4843     -58.214  26.856  34.229  1.00 52.36 LIG 0.16  HD
ENDROOT
BRANCH 3 5
ATOM      5  CA  VAL D4843     -58.500  28.604  35.080  1.00 37.99 LIG 0.18  C 
BRANCH 5 6
ATOM      6  C   VAL D4843     -58.165  28.655  36.591  1.00 51.29 LIG 0.24  C 
ATOM      7  N   ASN D4844     -57.449  27.676  37.129  1.00 50.43 LIG-0.35  N 
ATOM      8 H    ASN D4844     -57.122  27.005  36.702  1.00 50.43 LIG 0.16  HD
ATOM      9 O    VAL D4843     -58.569  29.596  37.289  1.00 47.22 LIG-0.27  OA
BRANCH 7 10
ATOM     10  CA  ASN D4844     -57.172  27.709  38.573  1.00 46.88 LIG 0.17  C 
BRANCH 10 11
ATOM     11  CB  ASN D4844     -57.036  26.289  39.122  1.00 66.72 LIG 0.14  C 
BRANCH 11 12
ATOM     12  CG  ASN D4844     -56.630  25.287  38.060  1.00 62.42 LIG 0.22  C 
ATOM     13 OD1  ASN D4844     -55.470  24.876  37.978  1.00 56.11 LIG-0.27  OA
ATOM     14  ND2 ASN D4844     -57.592  24.887  37.237  1.00 67.26 LIG-0.37  N 
ATOM     15 21HD ASN D4844     -57.418  24.318  36.616  1.00 67.26 LIG 0.16  HD
ATOM     16 22HD ASN D4844     -58.390  25.196  37.326  1.00 67.26 LIG 0.16  HD
ENDBRANCH 11 12
ENDBRANCH 10 11
BRANCH 10 17
ATOM     17  C   ASN D4844     -55.971  28.570  39.001  1.00 52.57 LIG 0.22  C 
ATOM     18 O    ASN D4844     -54.806  28.234  38.731  1.00 48.91 LIG-0.29  OA
ENDBRANCH 10 17
ENDBRANCH 7 10
ENDBRANCH 5 6
BRANCH 5 19
ATOM     19  CB  VAL D4843     -59.806  29.383  34.731  1.00 37.59 LIG 0.01  C 
ATOM     20  CG1 VAL D4843     -59.575  30.864  34.626  1.00 42.19 LIG 0.01  C 
ATOM     21  CG2 VAL D4843     -60.451  28.831  33.457  1.00 33.91 LIG 0.01  C 
ENDBRANCH 5 19
ENDBRANCH 3 5
BRANCH 1 22
ATOM     22  CA  VAL D4842     -59.955  25.095  34.828  1.00 42.26 LIG 0.18  C 
BRANCH 22 23
ATOM     23  N   VAL D4842     -60.810  24.203  35.617  1.00 51.43 LIG-0.34  N 
ATOM     24 H    VAL D4842     -61.507  24.586  35.944  1.00 51.43 LIG 0.16  HD
ATOM     25  C   LEU D4841     -60.524  22.916  35.803  1.00 54.30 LIG 0.26  C 
ATOM     26 O    LEU D4841     -61.313  22.125  36.316  1.00 66.57 LIG-0.27  OA
BRANCH 25 27
ATOM     27  CA  LEU D4841     -59.165  22.442  35.309  1.00 50.85 LIG 0.40  C 
ATOM     28  N   LEU D4841     -58.593  21.457  36.231  1.00 66.18 LIG 0.61  N 
BRANCH 27 29
ATOM     29  CB  LEU D4841     -59.290  21.839  33.904  1.00 58.40 LIG 0.06  C 
BRANCH 29 30
ATOM     30  CG  LEU D4841     -60.427  20.835  33.679  1.00 54.26 LIG-0.02  C 
ATOM     31  CD2 LEU D4841     -59.959  19.368  33.831  1.00 54.78 LIG 0.01  C 
ATOM     32  CD1 LEU D4841     -61.123  21.062  32.330  1.00 32.44 LIG 0.01  C 
ENDBRANCH 29 30
ENDBRANCH 27 29
ENDBRANCH 25 27
ENDBRANCH 22 23
BRANCH 22 33
ATOM     33  CB  VAL D4842     -60.452  25.224  33.366  1.00 48.47 LIG 0.01  C 
ATOM     34  CG2 VAL D4842     -61.566  24.256  33.080  1.00 42.42 LIG 0.01  C 
ATOM     35  CG1 VAL D4842     -59.292  24.973  32.416  1.00 34.87 LIG 0.01  C 
ENDBRANCH 22 33
ENDBRANCH 1 22
TORSDOF 13
ENDMDL
MODEL 37
USER: ADFR SOLUTION from run 184
USER: SCORE 9.392227 LL:  -2.790 LR:  -7.681 RR:   0.000 FEB:  -3.803
USER: RMSD 10.313528
USER: SEED 183
USER: STATUS no improvement in best in 41 clusters for 5 generations
USER: GENES 15
USER: genes 0 Translation |==|  0.31422 0.19289 0.11193
USER: genes 1 Rotation |==|  0.44369 0.38106 0.97692 0.57233
USER: genes 2 Torsion [C]-N--CA-[CB] |==|  0.16691
USER: genes 3 Torsion [N]-CA--C-[N] |==|  0.45160
USER: genes 4 Torsion [C]-N--CA-[CB] |==|  0.23196
USER: genes 5 Torsion [N]-CA--CB-[CG] |==|  0.08272
USER: genes 6 Torsion [CA]-CB--CG-[OD1] |==|  0.71229
USER: genes 7 Torsion [N]-CA--C-[O] |==|  0.94249
USER: genes 8 Torsion [N]-CA--CB-[CG2] |==|  0.67614
USER: genes 9 Torsion [N]-C--CA-[N] |==|  0.35425
USER: genes 10 Torsion [C]-CA--N-[C] |==|  0.78463
USER: genes 11 Torsion [N]-C--CA-[N] |==|  0.39843
USER: genes 12 Torsion [C]-CA--CB-[CG] |==|  0.40826
USER: genes 13 Torsion [CA]-CB--CG-[CD2] |==|  0.11067
USER: genes 14 Torsion [C]-CA--CB-[CG2] |==|  0.09406
ROOT
ATOM      1  C   VAL D4842     -60.941  22.500  33.259  1.00 57.35 LIG 0.24  C 
ATOM      2 O    VAL D4842     -60.479  22.672  32.125  1.00 61.28 LIG-0.27  OA
ATOM      3  N   VAL D4843     -60.739  23.355  34.253  1.00 52.36 LIG-0.35  N 
ATOM      4 H    VAL D4843     -61.188  23.336  34.987  1.00 52.36 LIG 0.16  HD
ENDROOT
BRANCH 3 5
ATOM      5  CA  VAL D4843     -59.741  24.413  34.209  1.00 37.99 LIG 0.18  C 
BRANCH 5 6
ATOM      6  C   VAL D4843     -59.893  25.130  35.573  1.00 51.29 LIG 0.24  C 
ATOM      7  N   ASN D4844     -58.915  25.915  36.006  1.00 50.43 LIG-0.35  N 
ATOM      8 H    ASN D4844     -58.190  26.089  35.578  1.00 50.43 LIG 0.16  HD
ATOM      9 O    VAL D4843     -60.915  24.964  36.255  1.00 47.22 LIG-0.27  OA
BRANCH 7 10
ATOM     10  CA  ASN D4844     -59.049  26.558  37.321  1.00 46.88 LIG 0.17  C 
BRANCH 10 11
ATOM     11  CB  ASN D4844     -58.612  25.599  38.429  1.00 66.72 LIG 0.14  C 
BRANCH 11 12
ATOM     12  CG  ASN D4844     -57.548  24.621  37.971  1.00 62.42 LIG 0.22  C 
ATOM     13 OD1  ASN D4844     -57.823  23.446  37.719  1.00 56.11 LIG-0.27  OA
ATOM     14  ND2 ASN D4844     -56.317  25.108  37.862  1.00 67.26 LIG-0.37  N 
ATOM     15 21HD ASN D4844     -55.673  24.598  37.605  1.00 67.26 LIG 0.16  HD
ATOM     16 22HD ASN D4844     -56.163  25.934  38.047  1.00 67.26 LIG 0.16  HD
ENDBRANCH 11 12
ENDBRANCH 10 11
BRANCH 10 17
ATOM     17  C   ASN D4844     -58.342  27.916  37.475  1.00 52.57 LIG 0.22  C 
ATOM     18 O    ASN D4844     -57.416  28.251  36.719  1.00 48.91 LIG-0.29  OA
ENDBRANCH 10 17
ENDBRANCH 7 10
ENDBRANCH 5 6
BRANCH 5 19
ATOM     19  CB  VAL D4843     -60.084  25.343  33.004  1.00 37.59 LIG 0.01  C 
ATOM     20  CG1 VAL D4843     -60.389  26.749  33.439  1.00 42.19 LIG 0.01  C 
ATOM     21  CG2 VAL D4843     -58.969  25.317  31.955  1.00 33.91 LIG 0.01  C 
ENDBRANCH 5 19
ENDBRANCH 3 5
BRANCH 1 22
ATOM     22  CA  VAL D4842     -61.842  21.298  33.604  1.00 42.26 LIG 0.18  C 
BRANCH 22 23
ATOM     23  N   VAL D4842     -62.976  21.059  32.705  1.00 51.43 LIG-0.34  N 
ATOM     24 H    VAL D4842     -62.851  20.414  32.150  1.00 51.43 LIG 0.16  HD
ATOM     25  C   LEU D4841     -64.092  21.783  32.751  1.00 54.30 LIG 0.26  C 
ATOM     26 O    LEU D4841     -65.106  21.487  32.122  1.00 66.57 LIG-0.27  OA
BRANCH 25 27
ATOM     27  CA  LEU D4841     -64.078  22.999  33.667  1.00 50.85 LIG 0.40  C 
ATOM     28  N   LEU D4841     -64.838  24.103  33.073  1.00 66.18 LIG 0.61  N 
BRANCH 27 29
ATOM     29  CB  LEU D4841     -64.657  22.639  35.040  1.00 58.40 LIG 0.06  C 
BRANCH 29 30
ATOM     30  CG  LEU D4841     -64.065  23.366  36.254  1.00 54.26 LIG-0.02  C 
ATOM     31  CD2 LEU D4841     -63.785  24.861  35.969  1.00 54.78 LIG 0.01  C 
ATOM     32  CD1 LEU D4841     -62.813  22.655  36.784  1.00 32.44 LIG 0.01  C 
ENDBRANCH 29 30
ENDBRANCH 27 29
ENDBRANCH 25 27
ENDBRANCH 22 23
BRANCH 22 33
ATOM     33  CB  VAL D4842     -60.992  20.019  33.810  1.00 48.47 LIG 0.01  C 
ATOM     34  CG2 VAL D4842     -59.658  20.343  34.422  1.00 42.42 LIG 0.01  C 
ATOM     35  CG1 VAL D4842     -60.793  19.325  32.473  1.00 34.87 LIG 0.01  C 
ENDBRANCH 22 33
ENDBRANCH 1 22
TORSDOF 13
ENDMDL
MODEL 38
USER: ADFR SOLUTION from run 27
USER: SCORE 10.045794 LL:  -2.577 LR:  -7.670 RR:   0.000 FEB:  -3.792
USER: RMSD 8.294374
USER: SEED 26
USER: STATUS no improvement in best in 48 clusters for 5 generations
USER: GENES 15
USER: genes 0 Translation |==|  0.34981 0.45683 0.14883
USER: genes 1 Rotation |==|  0.59740 0.27776 0.92815 0.58838
USER: genes 2 Torsion [C]-N--CA-[CB] |==|  0.15082
USER: genes 3 Torsion [N]-CA--C-[N] |==|  0.11339
USER: genes 4 Torsion [C]-N--CA-[CB] |==|  0.44061
USER: genes 5 Torsion [N]-CA--CB-[CG] |==|  0.23175
USER: genes 6 Torsion [CA]-CB--CG-[OD1] |==|  0.38875
USER: genes 7 Torsion [N]-CA--C-[O] |==|  0.21819
USER: genes 8 Torsion [N]-CA--CB-[CG2] |==|  0.51751
USER: genes 9 Torsion [N]-C--CA-[N] |==|  0.30568
USER: genes 10 Torsion [C]-CA--N-[C] |==|  0.74234
USER: genes 11 Torsion [N]-C--CA-[N] |==|  0.43452
USER: genes 12 Torsion [C]-CA--CB-[CG] |==|  0.38463
USER: genes 13 Torsion [CA]-CB--CG-[CD2] |==|  0.73305
USER: genes 14 Torsion [C]-CA--CB-[CG2] |==|  0.43482
ROOT
ATOM      1  C   VAL D4842     -60.194  26.855  33.812  1.00 57.35 LIG 0.24  C 
ATOM      2 O    VAL D4842     -60.367  27.644  32.875  1.00 61.28 LIG-0.27  OA
ATOM      3  N   VAL D4843     -59.476  27.162  34.885  1.00 52.36 LIG-0.35  N 
ATOM      4 H    VAL D4843     -59.489  26.696  35.608  1.00 52.36 LIG 0.16  HD
ENDROOT
BRANCH 3 5
ATOM      5  CA  VAL D4843     -58.594  28.318  34.955  1.00 37.99 LIG 0.18  C 
BRANCH 5 6
ATOM      6  C   VAL D4843     -58.116  28.337  36.428  1.00 51.29 LIG 0.24  C 
ATOM      7  N   ASN D4844     -57.807  27.192  37.023  1.00 50.43 LIG-0.35  N 
ATOM      8 H    ASN D4844     -57.824  26.417  36.652  1.00 50.43 LIG 0.16  HD
ATOM      9 O    VAL D4843     -58.031  29.409  37.043  1.00 47.22 LIG-0.27  OA
BRANCH 7 10
ATOM     10  CA  ASN D4844     -57.395  27.213  38.434  1.00 46.88 LIG 0.17  C 
BRANCH 10 11
ATOM     11  CB  ASN D4844     -57.595  25.837  39.068  1.00 66.72 LIG 0.14  C 
BRANCH 11 12
ATOM     12  CG  ASN D4844     -56.437  24.895  38.801  1.00 62.42 LIG 0.22  C 
ATOM     13 OD1  ASN D4844     -56.015  24.136  39.675  1.00 56.11 LIG-0.27  OA
ATOM     14  ND2 ASN D4844     -55.917  24.942  37.580  1.00 67.26 LIG-0.37  N 
ATOM     15 21HD ASN D4844     -55.259  24.429  37.373  1.00 67.26 LIG 0.16  HD
ATOM     16 22HD ASN D4844     -56.239  25.486  36.996  1.00 67.26 LIG 0.16  HD
ENDBRANCH 11 12
ENDBRANCH 10 11
BRANCH 10 17
ATOM     17  C   ASN D4844     -55.971  27.729  38.705  1.00 52.57 LIG 0.22  C 
ATOM     18 O    ASN D4844     -55.713  28.944  38.705  1.00 48.91 LIG-0.29  OA
ENDBRANCH 10 17
ENDBRANCH 7 10
ENDBRANCH 5 6
BRANCH 5 19
ATOM     19  CB  VAL D4843     -59.432  29.581  34.583  1.00 37.59 LIG 0.01  C 
ATOM     20  CG1 VAL D4843     -60.573  29.808  35.535  1.00 42.19 LIG 0.01  C 
ATOM     21  CG2 VAL D4843     -58.540  30.821  34.482  1.00 33.91 LIG 0.01  C 
ENDBRANCH 5 19
ENDBRANCH 3 5
BRANCH 1 22
ATOM     22  CA  VAL D4842     -60.845  25.458  33.840  1.00 42.26 LIG 0.18  C 
BRANCH 22 23
ATOM     23  N   VAL D4842     -62.304  25.427  33.981  1.00 51.43 LIG-0.34  N 
ATOM     24 H    VAL D4842     -62.728  25.477  33.234  1.00 51.43 LIG 0.16  HD
ATOM     25  C   LEU D4841     -62.909  25.330  35.163  1.00 54.30 LIG 0.26  C 
ATOM     26 O    LEU D4841     -64.117  25.135  35.281  1.00 66.57 LIG-0.27  OA
BRANCH 25 27
ATOM     27  CA  LEU D4841     -62.019  25.434  36.393  1.00 50.85 LIG 0.40  C 
ATOM     28  N   LEU D4841     -62.794  25.867  37.560  1.00 66.18 LIG 0.61  N 
BRANCH 27 29
ATOM     29  CB  LEU D4841     -61.346  24.085  36.680  1.00 58.40 LIG 0.06  C 
BRANCH 29 30
ATOM     30  CG  LEU D4841     -59.870  24.120  37.095  1.00 54.26 LIG-0.02  C 
ATOM     31  CD2 LEU D4841     -58.915  23.885  35.900  1.00 54.78 LIG 0.01  C 
ATOM     32  CD1 LEU D4841     -59.582  23.142  38.241  1.00 32.44 LIG 0.01  C 
ENDBRANCH 29 30
ENDBRANCH 27 29
ENDBRANCH 25 27
ENDBRANCH 22 23
BRANCH 22 33
ATOM     33  CB  VAL D4842     -60.365  24.607  32.638  1.00 48.47 LIG 0.01  C 
ATOM     34  CG2 VAL D4842     -60.501  23.136  32.921  1.00 42.42 LIG 0.01  C 
ATOM     35  CG1 VAL D4842     -58.915  24.942  32.330  1.00 34.87 LIG 0.01  C 
ENDBRANCH 22 33
ENDBRANCH 1 22
TORSDOF 13
ENDMDL
MODEL 39
USER: ADFR SOLUTION from run 52
USER: SCORE 8.712667 LL:  -2.051 LR:  -7.666 RR:   0.000 FEB:  -3.788
USER: RMSD 8.890407
USER: SEED 51
USER: STATUS no improvement in best in 42 clusters for 5 generations
USER: GENES 15
USER: genes 0 Translation |==|  0.40581 0.34576 0.34619
USER: genes 1 Rotation |==|  0.01679 0.61063 0.55688 0.53220
USER: genes 2 Torsion [C]-N--CA-[CB] |==|  0.90556
USER: genes 3 Torsion [N]-CA--C-[N] |==|  0.88283
USER: genes 4 Torsion [C]-N--CA-[CB] |==|  0.17948
USER: genes 5 Torsion [N]-CA--CB-[CG] |==|  0.67687
USER: genes 6 Torsion [CA]-CB--CG-[OD1] |==|  0.77652
USER: genes 7 Torsion [N]-CA--C-[O] |==|  0.30166
USER: genes 8 Torsion [N]-CA--CB-[CG2] |==|  0.74934
USER: genes 9 Torsion [N]-C--CA-[N] |==|  0.02533
USER: genes 10 Torsion [C]-CA--N-[C] |==|  0.62302
USER: genes 11 Torsion [N]-C--CA-[N] |==|  0.28294
USER: genes 12 Torsion [C]-CA--CB-[CG] |==|  0.33679
USER: genes 13 Torsion [CA]-CB--CG-[CD2] |==|  0.03358
USER: genes 14 Torsion [C]-CA--CB-[CG2] |==|  0.52555
ROOT
ATOM      1  C   VAL D4842     -59.018  25.022  36.773  1.00 57.35 LIG 0.24  C 
ATOM      2 O    VAL D4842     -59.109  24.631  37.943  1.00 61.28 LIG-0.27  OA
ATOM      3  N   VAL D4843     -58.594  26.238  36.454  1.00 52.36 LIG-0.35  N 
ATOM      4 H    VAL D4843     -58.367  26.462  35.656  1.00 52.36 LIG 0.16  HD
ENDROOT
BRANCH 3 5
ATOM      5  CA  VAL D4843     -58.468  27.321  37.420  1.00 37.99 LIG 0.18  C 
BRANCH 5 6
ATOM      6  C   VAL D4843     -57.062  27.113  38.034  1.00 51.29 LIG 0.24  C 
ATOM      7  N   ASN D4844     -56.664  25.885  38.341  1.00 50.43 LIG-0.35  N 
ATOM      8 H    ASN D4844     -57.116  25.167  38.206  1.00 50.43 LIG 0.16  HD
ATOM      9 O    VAL D4843     -56.322  28.085  38.244  1.00 47.22 LIG-0.27  OA
BRANCH 7 10
ATOM     10  CA  ASN D4844     -55.345  25.701  38.964  1.00 46.88 LIG 0.17  C 
BRANCH 10 11
ATOM     11  CB  ASN D4844     -55.311  26.359  40.343  1.00 66.72 LIG 0.14  C 
BRANCH 11 12
ATOM     12  CG  ASN D4844     -54.314  27.499  40.424  1.00 62.42 LIG 0.22  C 
ATOM     13 OD1  ASN D4844     -53.111  27.287  40.591  1.00 56.11 LIG-0.27  OA
ATOM     14  ND2 ASN D4844     -54.817  28.722  40.304  1.00 67.26 LIG-0.37  N 
ATOM     15 21HD ASN D4844     -54.296  29.406  40.342  1.00 67.26 LIG 0.16  HD
ATOM     16 22HD ASN D4844     -55.662  28.830  40.189  1.00 67.26 LIG 0.16  HD
ENDBRANCH 11 12
ENDBRANCH 10 11
BRANCH 10 17
ATOM     17  C   ASN D4844     -54.845  24.248  39.048  1.00 52.57 LIG 0.22  C 
ATOM     18 O    ASN D4844     -53.912  23.844  38.334  1.00 48.91 LIG-0.29  OA
ENDBRANCH 10 17
ENDBRANCH 7 10
ENDBRANCH 5 6
BRANCH 5 19
ATOM     19  CB  VAL D4843     -59.609  27.159  38.471  1.00 37.59 LIG 0.01  C 
ATOM     20  CG1 VAL D4843     -59.174  27.562  39.851  1.00 42.19 LIG 0.01  C 
ATOM     21  CG2 VAL D4843     -60.865  27.922  38.041  1.00 33.91 LIG 0.01  C 
ENDBRANCH 5 19
ENDBRANCH 3 5
BRANCH 1 22
ATOM     22  CA  VAL D4842     -59.339  24.108  35.575  1.00 42.26 LIG 0.18  C 
BRANCH 22 23
ATOM     23  N   VAL D4842     -58.945  24.609  34.254  1.00 51.43 LIG-0.34  N 
ATOM     24 H    VAL D4842     -58.157  24.953  34.232  1.00 51.43 LIG 0.16  HD
ATOM     25  C   LEU D4841     -59.744  24.534  33.192  1.00 54.30 LIG 0.26  C 
ATOM     26 O    LEU D4841     -59.365  24.796  32.052  1.00 66.57 LIG-0.27  OA
BRANCH 25 27
ATOM     27  CA  LEU D4841     -61.169  24.063  33.443  1.00 50.85 LIG 0.40  C 
ATOM     28  N   LEU D4841     -62.097  25.199  33.454  1.00 66.18 LIG 0.61  N 
BRANCH 27 29
ATOM     29  CB  LEU D4841     -61.592  23.048  32.374  1.00 58.40 LIG 0.06  C 
BRANCH 29 30
ATOM     30  CG  LEU D4841     -62.013  21.658  32.866  1.00 54.26 LIG-0.02  C 
ATOM     31  CD2 LEU D4841     -62.222  21.612  34.399  1.00 54.78 LIG 0.01  C 
ATOM     32  CD1 LEU D4841     -61.032  20.573  32.403  1.00 32.44 LIG 0.01  C 
ENDBRANCH 29 30
ENDBRANCH 27 29
ENDBRANCH 25 27
ENDBRANCH 22 23
BRANCH 22 33
ATOM     33  CB  VAL D4842     -58.811  22.672  35.826  1.00 48.47 LIG 0.01  C 
ATOM     34  CG2 VAL D4842     -58.916  21.828  34.586  1.00 42.42 LIG 0.01  C 
ATOM     35  CG1 VAL D4842     -59.604  22.034  36.954  1.00 34.87 LIG 0.01  C 
ENDBRANCH 22 33
ENDBRANCH 1 22
TORSDOF 13
ENDMDL
MODEL 40
USER: ADFR SOLUTION from run 71
USER: SCORE 9.004794 LL:  -2.787 LR:  -7.662 RR:   0.000 FEB:  -3.784
USER: RMSD 7.269497
USER: SEED 70
USER: STATUS no improvement in best in 33 clusters for 5 generations
USER: GENES 15
USER: genes 0 Translation |==|  0.34730 0.33379 0.25002
USER: genes 1 Rotation |==|  0.30541 0.81270 0.57139 0.83054
USER: genes 2 Torsion [C]-N--CA-[CB] |==|  0.29999
USER: genes 3 Torsion [N]-CA--C-[N] |==|  0.99559
USER: genes 4 Torsion [C]-N--CA-[CB] |==|  0.20170
USER: genes 5 Torsion [N]-CA--CB-[CG] |==|  0.54556
USER: genes 6 Torsion [CA]-CB--CG-[OD1] |==|  0.97117
USER: genes 7 Torsion [N]-CA--C-[O] |==|  0.00530
USER: genes 8 Torsion [N]-CA--CB-[CG2] |==|  0.87932
USER: genes 9 Torsion [N]-C--CA-[N] |==|  0.94591
USER: genes 10 Torsion [C]-CA--N-[C] |==|  0.70807
USER: genes 11 Torsion [N]-C--CA-[N] |==|  0.83388
USER: genes 12 Torsion [C]-CA--CB-[CG] |==|  0.22864
USER: genes 13 Torsion [CA]-CB--CG-[CD2] |==|  0.52368
USER: genes 14 Torsion [C]-CA--CB-[CG2] |==|  0.78416
ROOT
ATOM      1  C   VAL D4842     -60.247  24.824  35.330  1.00 57.35 LIG 0.24  C 
ATOM      2 O    VAL D4842     -61.334  24.267  35.525  1.00 61.28 LIG-0.27  OA
ATOM      3  N   VAL D4843     -59.097  24.323  35.762  1.00 52.36 LIG-0.35  N 
ATOM      4 H    VAL D4843     -58.331  24.606  35.492  1.00 52.36 LIG 0.16  HD
ENDROOT
BRANCH 3 5
ATOM      5  CA  VAL D4843     -59.008  23.245  36.735  1.00 37.99 LIG 0.18  C 
BRANCH 5 6
ATOM      6  C   VAL D4843     -57.959  23.747  37.758  1.00 51.29 LIG 0.24  C 
ATOM      7  N   ASN D4844     -57.374  24.922  37.561  1.00 50.43 LIG-0.35  N 
ATOM      8 H    ASN D4844     -57.543  25.460  36.912  1.00 50.43 LIG 0.16  HD
ATOM      9 O    VAL D4843     -57.666  23.055  38.743  1.00 47.22 LIG-0.27  OA
BRANCH 7 10
ATOM     10  CA  ASN D4844     -56.348  25.373  38.513  1.00 46.88 LIG 0.17  C 
BRANCH 10 11
ATOM     11  CB  ASN D4844     -55.061  24.568  38.330  1.00 66.72 LIG 0.14  C 
BRANCH 11 12
ATOM     12  CG  ASN D4844     -54.117  24.696  39.509  1.00 62.42 LIG 0.22  C 
ATOM     13 OD1  ASN D4844     -54.311  25.528  40.398  1.00 56.11 LIG-0.27  OA
ATOM     14  ND2 ASN D4844     -53.083  23.863  39.520  1.00 67.26 LIG-0.37  N 
ATOM     15 21HD ASN D4844     -52.515  23.891  40.166  1.00 67.26 LIG 0.16  HD
ATOM     16 22HD ASN D4844     -52.980  23.296  38.881  1.00 67.26 LIG 0.16  HD
ENDBRANCH 11 12
ENDBRANCH 10 11
BRANCH 10 17
ATOM     17  C   ASN D4844     -56.046  26.881  38.503  1.00 52.57 LIG 0.22  C 
ATOM     18 O    ASN D4844     -56.665  27.659  37.759  1.00 48.91 LIG-0.29  OA
ENDBRANCH 10 17
ENDBRANCH 7 10
ENDBRANCH 5 6
BRANCH 5 19
ATOM     19  CB  VAL D4843     -58.540  21.960  35.983  1.00 37.59 LIG 0.01  C 
ATOM     20  CG1 VAL D4843     -58.675  20.724  36.828  1.00 42.19 LIG 0.01  C 
ATOM     21  CG2 VAL D4843     -59.279  21.804  34.651  1.00 33.91 LIG 0.01  C 
ENDBRANCH 5 19
ENDBRANCH 3 5
BRANCH 1 22
ATOM     22  CA  VAL D4842     -60.127  26.129  34.518  1.00 42.26 LIG 0.18  C 
BRANCH 22 23
ATOM     23  N   VAL D4842     -58.882  26.884  34.687  1.00 51.43 LIG-0.34  N 
ATOM     24 H    VAL D4842     -58.206  26.537  34.284  1.00 51.43 LIG 0.16  HD
ATOM     25  C   LEU D4841     -58.814  28.006  35.401  1.00 54.30 LIG 0.26  C 
ATOM     26 O    LEU D4841     -57.823  28.732  35.410  1.00 66.57 LIG-0.27  OA
BRANCH 25 27
ATOM     27  CA  LEU D4841     -60.057  28.384  36.194  1.00 50.85 LIG 0.40  C 
ATOM     28  N   LEU D4841     -61.207  28.564  35.302  1.00 66.18 LIG 0.61  N 
BRANCH 27 29
ATOM     29  CB  LEU D4841     -60.367  27.309  37.242  1.00 58.40 LIG 0.06  C 
BRANCH 29 30
ATOM     30  CG  LEU D4841     -59.589  27.381  38.562  1.00 54.26 LIG-0.02  C 
ATOM     31  CD2 LEU D4841     -59.823  26.140  39.455  1.00 54.78 LIG 0.01  C 
ATOM     32  CD1 LEU D4841     -59.885  28.681  39.322  1.00 32.44 LIG 0.01  C 
ENDBRANCH 29 30
ENDBRANCH 27 29
ENDBRANCH 25 27
ENDBRANCH 22 23
BRANCH 22 33
ATOM     33  CB  VAL D4842     -60.448  25.874  33.024  1.00 48.47 LIG 0.01  C 
ATOM     34  CG2 VAL D4842     -59.288  25.227  32.319  1.00 42.42 LIG 0.01  C 
ATOM     35  CG1 VAL D4842     -60.792  27.192  32.350  1.00 34.87 LIG 0.01  C 
ENDBRANCH 22 33
ENDBRANCH 1 22
TORSDOF 13
ENDMDL
MODEL 41
USER: ADFR SOLUTION from run 118
USER: SCORE 8.646973 LL:  -2.781 LR:  -7.638 RR:   0.000 FEB:  -3.761
USER: RMSD 8.450775
USER: SEED 117
USER: STATUS no improvement in best in 14 clusters for 5 generations
USER: GENES 15
USER: genes 0 Translation |==|  0.37267 0.40641 0.32122
USER: genes 1 Rotation |==|  0.95944 0.37037 0.64769 0.51727
USER: genes 2 Torsion [C]-N--CA-[CB] |==|  0.36743
USER: genes 3 Torsion [N]-CA--C-[N] |==|  0.45866
USER: genes 4 Torsion [C]-N--CA-[CB] |==|  0.31144
USER: genes 5 Torsion [N]-CA--CB-[CG] |==|  0.75618
USER: genes 6 Torsion [CA]-CB--CG-[OD1] |==|  0.89036
USER: genes 7 Torsion [N]-CA--C-[O] |==|  0.29916
USER: genes 8 Torsion [N]-CA--CB-[CG2] |==|  0.84742
USER: genes 9 Torsion [N]-C--CA-[N] |==|  0.90086
USER: genes 10 Torsion [C]-CA--N-[C] |==|  0.79530
USER: genes 11 Torsion [N]-C--CA-[N] |==|  0.39023
USER: genes 12 Torsion [C]-CA--CB-[CG] |==|  0.00665
USER: genes 13 Torsion [CA]-CB--CG-[CD2] |==|  0.59807
USER: genes 14 Torsion [C]-CA--CB-[CG2] |==|  0.28799
ROOT
ATOM      1  C   VAL D4842     -59.714  26.023  36.398  1.00 57.35 LIG 0.24  C 
ATOM      2 O    VAL D4842     -60.629  26.112  37.226  1.00 61.28 LIG-0.27  OA
ATOM      3  N   VAL D4843     -58.898  27.031  36.120  1.00 52.36 LIG-0.35  N 
ATOM      4 H    VAL D4843     -58.165  26.934  35.681  1.00 52.36 LIG 0.16  HD
ENDROOT
BRANCH 3 5
ATOM      5  CA  VAL D4843     -59.155  28.405  36.526  1.00 37.99 LIG 0.18  C 
BRANCH 5 6
ATOM      6  C   VAL D4843     -59.525  29.124  35.206  1.00 51.29 LIG 0.24  C 
ATOM      7  N   ASN D4844     -60.103  30.318  35.258  1.00 50.43 LIG-0.35  N 
ATOM      8 H    ASN D4844     -60.277  30.756  35.977  1.00 50.43 LIG 0.16  HD
ATOM      9 O    VAL D4843     -59.290  28.586  34.115  1.00 47.22 LIG-0.27  OA
BRANCH 7 10
ATOM     10  CA  ASN D4844     -60.490  30.975  34.001  1.00 46.88 LIG 0.17  C 
BRANCH 10 11
ATOM     11  CB  ASN D4844     -62.013  31.054  33.889  1.00 66.72 LIG 0.14  C 
BRANCH 11 12
ATOM     12  CG  ASN D4844     -62.618  29.819  33.251  1.00 62.42 LIG 0.22  C 
ATOM     13 OD1  ASN D4844     -62.073  29.257  32.299  1.00 56.11 LIG-0.27  OA
ATOM     14  ND2 ASN D4844     -63.758  29.389  33.779  1.00 67.26 LIG-0.37  N 
ATOM     15 21HD ASN D4844     -64.146  28.692  33.457  1.00 67.26 LIG 0.16  HD
ATOM     16 22HD ASN D4844     -64.109  29.808  34.444  1.00 67.26 LIG 0.16  HD
ENDBRANCH 11 12
ENDBRANCH 10 11
BRANCH 10 17
ATOM     17  C   ASN D4844     -59.859  32.355  33.748  1.00 52.57 LIG 0.22  C 
ATOM     18 O    ASN D4844     -58.975  32.514  32.892  1.00 48.91 LIG-0.29  OA
ENDBRANCH 10 17
ENDBRANCH 7 10
ENDBRANCH 5 6
BRANCH 5 19
ATOM     19  CB  VAL D4843     -57.846  28.966  37.165  1.00 37.59 LIG 0.01  C 
ATOM     20  CG1 VAL D4843     -58.000  30.390  37.621  1.00 42.19 LIG 0.01  C 
ATOM     21  CG2 VAL D4843     -57.364  28.068  38.308  1.00 33.91 LIG 0.01  C 
ENDBRANCH 5 19
ENDBRANCH 3 5
BRANCH 1 22
ATOM     22  CA  VAL D4842     -59.407  24.709  35.654  1.00 42.26 LIG 0.18  C 
BRANCH 22 23
ATOM     23  N   VAL D4842     -58.915  24.844  34.279  1.00 51.43 LIG-0.34  N 
ATOM     24 H    VAL D4842     -58.076  24.677  34.190  1.00 51.43 LIG 0.16  HD
ATOM     25  C   LEU D4841     -59.705  25.194  33.266  1.00 54.30 LIG 0.26  C 
ATOM     26 O    LEU D4841     -59.345  25.147  32.092  1.00 66.57 LIG-0.27  OA
BRANCH 25 27
ATOM     27  CA  LEU D4841     -61.119  25.627  33.624  1.00 50.85 LIG 0.40  C 
ATOM     28  N   LEU D4841     -61.540  26.761  32.795  1.00 66.18 LIG 0.61  N 
BRANCH 27 29
ATOM     29  CB  LEU D4841     -62.095  24.457  33.451  1.00 58.40 LIG 0.06  C 
BRANCH 29 30
ATOM     30  CG  LEU D4841     -61.496  23.111  33.027  1.00 54.26 LIG-0.02  C 
ATOM     31  CD2 LEU D4841     -62.433  22.317  32.085  1.00 54.78 LIG 0.01  C 
ATOM     32  CD1 LEU D4841     -61.081  22.269  34.241  1.00 32.44 LIG 0.01  C 
ENDBRANCH 29 30
ENDBRANCH 27 29
ENDBRANCH 25 27
ENDBRANCH 22 23
BRANCH 22 33
ATOM     33  CB  VAL D4842     -58.487  23.799  36.507  1.00 48.47 LIG 0.01  C 
ATOM     34  CG2 VAL D4842     -59.262  22.673  37.133  1.00 42.42 LIG 0.01  C 
ATOM     35  CG1 VAL D4842     -57.818  24.631  37.588  1.00 34.87 LIG 0.01  C 
ENDBRANCH 22 33
ENDBRANCH 1 22
TORSDOF 13
ENDMDL
MODEL 42
USER: ADFR SOLUTION from run 131
USER: SCORE 9.236824 LL:  -2.302 LR:  -7.624 RR:   0.000 FEB:  -3.746
USER: RMSD 6.110403
USER: SEED 130
USER: STATUS no improvement in best in 32 clusters for 5 generations
USER: GENES 15
USER: genes 0 Translation |==|  0.43900 0.52672 0.38953
USER: genes 1 Rotation |==|  0.85292 0.60337 0.52224 0.83804
USER: genes 2 Torsion [C]-N--CA-[CB] |==|  0.24851
USER: genes 3 Torsion [N]-CA--C-[N] |==|  0.00982
USER: genes 4 Torsion [C]-N--CA-[CB] |==|  0.83132
USER: genes 5 Torsion [N]-CA--CB-[CG] |==|  0.52114
USER: genes 6 Torsion [CA]-CB--CG-[OD1] |==|  0.06128
USER: genes 7 Torsion [N]-CA--C-[O] |==|  0.86413
USER: genes 8 Torsion [N]-CA--CB-[CG2] |==|  0.83157
USER: genes 9 Torsion [N]-C--CA-[N] |==|  0.96504
USER: genes 10 Torsion [C]-CA--N-[C] |==|  0.75040
USER: genes 11 Torsion [N]-C--CA-[N] |==|  0.34845
USER: genes 12 Torsion [C]-CA--CB-[CG] |==|  0.25898
USER: genes 13 Torsion [CA]-CB--CG-[CD2] |==|  0.10892
USER: genes 14 Torsion [C]-CA--CB-[CG2] |==|  0.54764
ROOT
ATOM      1  C   VAL D4842     -58.321  28.008  37.423  1.00 57.35 LIG 0.24  C 
ATOM      2 O    VAL D4842     -58.845  29.040  37.860  1.00 61.28 LIG-0.27  OA
ATOM      3  N   VAL D4843     -58.508  27.579  36.181  1.00 52.36 LIG-0.35  N 
ATOM      4 H    VAL D4843     -58.023  26.969  35.818  1.00 52.36 LIG 0.16  HD
ENDROOT
BRANCH 3 5
ATOM      5  CA  VAL D4843     -59.549  28.095  35.304  1.00 37.99 LIG 0.18  C 
BRANCH 5 6
ATOM      6  C   VAL D4843     -59.880  26.902  34.374  1.00 51.29 LIG 0.24  C 
ATOM      7  N   ASN D4844     -59.279  25.736  34.576  1.00 50.43 LIG-0.35  N 
ATOM      8 H    ASN D4844     -58.722  25.566  35.208  1.00 50.43 LIG 0.16  HD
ATOM      9 O    VAL D4843     -60.692  27.039  33.448  1.00 47.22 LIG-0.27  OA
BRANCH 7 10
ATOM     10  CA  ASN D4844     -59.567  24.621  33.662  1.00 46.88 LIG 0.17  C 
BRANCH 10 11
ATOM     11  CB  ASN D4844     -61.053  24.267  33.706  1.00 66.72 LIG 0.14  C 
BRANCH 11 12
ATOM     12  CG  ASN D4844     -61.379  23.008  32.926  1.00 62.42 LIG 0.22  C 
ATOM     13 OD1  ASN D4844     -60.514  22.165  32.681  1.00 56.11 LIG-0.27  OA
ATOM     14  ND2 ASN D4844     -62.640  22.878  32.530  1.00 67.26 LIG-0.37  N 
ATOM     15 21HD ASN D4844     -62.882  22.182  32.085  1.00 67.26 LIG 0.16  HD
ATOM     16 22HD ASN D4844     -63.216  23.488  32.720  1.00 67.26 LIG 0.16  HD
ENDBRANCH 11 12
ENDBRANCH 10 11
BRANCH 10 17
ATOM     17  C   ASN D4844     -59.101  24.813  32.209  1.00 52.57 LIG 0.22  C 
ATOM     18 O    ASN D4844     -59.357  25.852  31.580  1.00 48.91 LIG-0.29  OA
ENDBRANCH 10 17
ENDBRANCH 7 10
ENDBRANCH 5 6
BRANCH 5 19
ATOM     19  CB  VAL D4843     -58.958  29.312  34.526  1.00 37.59 LIG 0.01  C 
ATOM     20  CG1 VAL D4843     -59.906  29.837  33.485  1.00 42.19 LIG 0.01  C 
ATOM     21  CG2 VAL D4843     -58.523  30.420  35.489  1.00 33.91 LIG 0.01  C 
ENDBRANCH 5 19
ENDBRANCH 3 5
BRANCH 1 22
ATOM     22  CA  VAL D4842     -57.357  27.155  38.270  1.00 42.26 LIG 0.18  C 
BRANCH 22 23
ATOM     23  N   VAL D4842     -56.996  25.846  37.719  1.00 51.43 LIG-0.34  N 
ATOM     24 H    VAL D4842     -56.296  25.858  37.219  1.00 51.43 LIG 0.16  HD
ATOM     25  C   LEU D4841     -57.696  24.742  37.975  1.00 54.30 LIG 0.26  C 
ATOM     26 O    LEU D4841     -57.310  23.619  37.658  1.00 66.57 LIG-0.27  OA
BRANCH 25 27
ATOM     27  CA  LEU D4841     -59.005  24.926  38.729  1.00 50.85 LIG 0.40  C 
ATOM     28  N   LEU D4841     -60.118  24.322  37.990  1.00 66.18 LIG 0.61  N 
BRANCH 27 29
ATOM     29  CB  LEU D4841     -58.905  24.308  40.129  1.00 58.40 LIG 0.06  C 
BRANCH 29 30
ATOM     30  CG  LEU D4841     -58.482  25.241  41.270  1.00 54.26 LIG-0.02  C 
ATOM     31  CD2 LEU D4841     -59.111  26.650  41.146  1.00 54.78 LIG 0.01  C 
ATOM     32  CD1 LEU D4841     -56.955  25.321  41.397  1.00 32.44 LIG 0.01  C 
ENDBRANCH 29 30
ENDBRANCH 27 29
ENDBRANCH 25 27
ENDBRANCH 22 23
BRANCH 22 33
ATOM     33  CB  VAL D4842     -56.104  27.977  38.667  1.00 48.47 LIG 0.01  C 
ATOM     34  CG2 VAL D4842     -54.985  27.082  39.121  1.00 42.42 LIG 0.01  C 
ATOM     35  CG1 VAL D4842     -56.470  28.950  39.776  1.00 34.87 LIG 0.01  C 
ENDBRANCH 22 33
ENDBRANCH 1 22
TORSDOF 13
ENDMDL
MODEL 43
USER: ADFR SOLUTION from run 144
USER: SCORE 9.216453 LL:  -2.648 LR:  -7.611 RR:   0.000 FEB:  -3.733
USER: RMSD 8.738781
USER: SEED 143
USER: STATUS no improvement in best in 60 clusters for 5 generations
USER: GENES 15
USER: genes 0 Translation |==|  0.31339 0.25625 0.23636
USER: genes 1 Rotation |==|  0.35475 0.95903 0.38260 0.56642
USER: genes 2 Torsion [C]-N--CA-[CB] |==|  0.50724
USER: genes 3 Torsion [N]-CA--C-[N] |==|  0.40666
USER: genes 4 Torsion [C]-N--CA-[CB] |==|  0.79331
USER: genes 5 Torsion [N]-CA--CB-[CG] |==|  0.81282
USER: genes 6 Torsion [CA]-CB--CG-[OD1] |==|  0.16718
USER: genes 7 Torsion [N]-CA--C-[O] |==|  0.54450
USER: genes 8 Torsion [N]-CA--CB-[CG2] |==|  0.07230
USER: genes 9 Torsion [N]-C--CA-[N] |==|  0.83057
USER: genes 10 Torsion [C]-CA--N-[C] |==|  0.77863
USER: genes 11 Torsion [N]-C--CA-[N] |==|  0.33475
USER: genes 12 Torsion [C]-CA--CB-[CG] |==|  0.48124
USER: genes 13 Torsion [CA]-CB--CG-[CD2] |==|  0.25279
USER: genes 14 Torsion [C]-CA--CB-[CG2] |==|  0.08271
ROOT
ATOM      1  C   VAL D4842     -60.959  23.545  35.125  1.00 57.35 LIG 0.24  C 
ATOM      2 O    VAL D4842     -61.384  24.306  36.003  1.00 61.28 LIG-0.27  OA
ATOM      3  N   VAL D4843     -60.161  22.519  35.392  1.00 52.36 LIG-0.35  N 
ATOM      4 H    VAL D4843     -59.999  21.892  34.826  1.00 52.36 LIG 0.16  HD
ENDROOT
BRANCH 3 5
ATOM      5  CA  VAL D4843     -59.479  22.344  36.666  1.00 37.99 LIG 0.18  C 
BRANCH 5 6
ATOM      6  C   VAL D4843     -58.639  23.636  36.822  1.00 51.29 LIG 0.24  C 
ATOM      7  N   ASN D4844     -58.442  24.138  38.034  1.00 50.43 LIG-0.35  N 
ATOM      8 H    ASN D4844     -58.725  23.792  38.768  1.00 50.43 LIG 0.16  HD
ATOM      9 O    VAL D4843     -58.164  24.196  35.823  1.00 47.22 LIG-0.27  OA
BRANCH 7 10
ATOM     10  CA  ASN D4844     -57.680  25.388  38.170  1.00 46.88 LIG 0.17  C 
BRANCH 10 11
ATOM     11  CB  ASN D4844     -56.190  25.130  37.947  1.00 66.72 LIG 0.14  C 
BRANCH 11 12
ATOM     12  CG  ASN D4844     -55.572  24.282  39.042  1.00 62.42 LIG 0.22  C 
ATOM     13 OD1  ASN D4844     -55.977  23.141  39.273  1.00 56.11 LIG-0.27  OA
ATOM     14  ND2 ASN D4844     -54.581  24.843  39.724  1.00 67.26 LIG-0.37  N 
ATOM     15 21HD ASN D4844     -54.193  24.406  40.357  1.00 67.26 LIG 0.16  HD
ATOM     16 22HD ASN D4844     -54.326  25.642  39.534  1.00 67.26 LIG 0.16  HD
ENDBRANCH 11 12
ENDBRANCH 10 11
BRANCH 10 17
ATOM     17  C   ASN D4844     -58.160  26.560  37.296  1.00 52.57 LIG 0.22  C 
ATOM     18 O    ASN D4844     -57.443  27.554  37.097  1.00 48.91 LIG-0.29  OA
ENDBRANCH 10 17
ENDBRANCH 7 10
ENDBRANCH 5 6
BRANCH 5 19
ATOM     19  CB  VAL D4843     -58.592  21.064  36.561  1.00 37.59 LIG 0.01  C 
ATOM     20  CG1 VAL D4843     -59.246  19.865  37.187  1.00 42.19 LIG 0.01  C 
ATOM     21  CG2 VAL D4843     -58.200  20.786  35.107  1.00 33.91 LIG 0.01  C 
ENDBRANCH 5 19
ENDBRANCH 3 5
BRANCH 1 22
ATOM     22  CA  VAL D4842     -61.363  23.691  33.645  1.00 42.26 LIG 0.18  C 
BRANCH 22 23
ATOM     23  N   VAL D4842     -60.269  23.902  32.693  1.00 51.43 LIG-0.34  N 
ATOM     24 H    VAL D4842     -60.035  23.193  32.267  1.00 51.43 LIG 0.16  HD
ATOM     25  C   LEU D4841     -59.696  25.090  32.512  1.00 54.30 LIG 0.26  C 
ATOM     26 O    LEU D4841     -58.898  25.314  31.604  1.00 66.57 LIG-0.27  OA
BRANCH 25 27
ATOM     27  CA  LEU D4841     -60.105  26.198  33.472  1.00 50.85 LIG 0.40  C 
ATOM     28  N   LEU D4841     -58.941  26.706  34.205  1.00 66.18 LIG 0.61  N 
BRANCH 27 29
ATOM     29  CB  LEU D4841     -60.787  27.340  32.709  1.00 58.40 LIG 0.06  C 
BRANCH 29 30
ATOM     30  CG  LEU D4841     -61.404  28.464  33.550  1.00 54.26 LIG-0.02  C 
ATOM     31  CD2 LEU D4841     -60.409  29.621  33.810  1.00 54.78 LIG 0.01  C 
ATOM     32  CD1 LEU D4841     -61.996  27.930  34.861  1.00 32.44 LIG 0.01  C 
ENDBRANCH 29 30
ENDBRANCH 27 29
ENDBRANCH 25 27
ENDBRANCH 22 23
BRANCH 22 33
ATOM     33  CB  VAL D4842     -62.285  22.523  33.213  1.00 48.47 LIG 0.01  C 
ATOM     34  CG2 VAL D4842     -63.099  22.013  34.369  1.00 42.42 LIG 0.01  C 
ATOM     35  CG1 VAL D4842     -61.439  21.398  32.640  1.00 34.87 LIG 0.01  C 
ENDBRANCH 22 33
ENDBRANCH 1 22
TORSDOF 13
ENDMDL
MODEL 44
USER: ADFR SOLUTION from run 116
USER: SCORE 8.905881 LL:  -2.661 LR:  -7.613 RR:   0.000 FEB:  -3.735
USER: RMSD 9.390826
USER: SEED 115
USER: STATUS no improvement in best in 38 clusters for 5 generations
USER: GENES 15
USER: genes 0 Translation |==|  0.29378 0.39706 0.22684
USER: genes 1 Rotation |==|  0.22444 0.81851 0.23062 0.50715
USER: genes 2 Torsion [C]-N--CA-[CB] |==|  0.47788
USER: genes 3 Torsion [N]-CA--C-[N] |==|  0.26545
USER: genes 4 Torsion [C]-N--CA-[CB] |==|  0.40427
USER: genes 5 Torsion [N]-CA--CB-[CG] |==|  0.88363
USER: genes 6 Torsion [CA]-CB--CG-[OD1] |==|  0.79793
USER: genes 7 Torsion [N]-CA--C-[O] |==|  0.15081
USER: genes 8 Torsion [N]-CA--CB-[CG2] |==|  0.81122
USER: genes 9 Torsion [N]-C--CA-[N] |==|  0.47778
USER: genes 10 Torsion [C]-CA--N-[C] |==|  0.60194
USER: genes 11 Torsion [N]-C--CA-[N] |==|  0.40090
USER: genes 12 Torsion [C]-CA--CB-[CG] |==|  0.49965
USER: genes 13 Torsion [CA]-CB--CG-[CD2] |==|  0.78300
USER: genes 14 Torsion [C]-CA--CB-[CG2] |==|  0.23861
ROOT
ATOM      1  C   VAL D4842     -61.371  25.868  34.983  1.00 57.35 LIG 0.24  C 
ATOM      2 O    VAL D4842     -62.219  26.754  35.144  1.00 61.28 LIG-0.27  OA
ATOM      3  N   VAL D4843     -60.222  25.847  35.647  1.00 52.36 LIG-0.35  N 
ATOM      4 H    VAL D4843     -59.707  25.159  35.670  1.00 52.36 LIG 0.16  HD
ENDROOT
BRANCH 3 5
ATOM      5  CA  VAL D4843     -59.714  26.980  36.406  1.00 37.99 LIG 0.18  C 
BRANCH 5 6
ATOM      6  C   VAL D4843     -59.364  28.030  35.323  1.00 51.29 LIG 0.24  C 
ATOM      7  N   ASN D4844     -60.250  28.971  35.021  1.00 50.43 LIG-0.35  N 
ATOM      8 H    ASN D4844     -61.016  29.071  35.398  1.00 50.43 LIG 0.16  HD
ATOM      9 O    VAL D4843     -58.271  27.985  34.740  1.00 47.22 LIG-0.27  OA
BRANCH 7 10
ATOM     10  CA  ASN D4844     -59.928  29.937  33.962  1.00 46.88 LIG 0.17  C 
BRANCH 10 11
ATOM     11  CB  ASN D4844     -61.190  30.323  33.191  1.00 66.72 LIG 0.14  C 
BRANCH 11 12
ATOM     12  CG  ASN D4844     -62.088  29.135  32.905  1.00 62.42 LIG 0.22  C 
ATOM     13 OD1  ASN D4844     -61.782  28.290  32.061  1.00 56.11 LIG-0.27  OA
ATOM     14  ND2 ASN D4844     -63.209  29.068  33.614  1.00 67.26 LIG-0.37  N 
ATOM     15 21HD ASN D4844     -63.756  28.415  33.493  1.00 67.26 LIG 0.16  HD
ATOM     16 22HD ASN D4844     -63.388  29.678  34.194  1.00 67.26 LIG 0.16  HD
ENDBRANCH 11 12
ENDBRANCH 10 11
BRANCH 10 17
ATOM     17  C   ASN D4844     -59.168  31.196  34.416  1.00 52.57 LIG 0.22  C 
ATOM     18 O    ASN D4844     -58.104  31.114  35.051  1.00 48.91 LIG-0.29  OA
ENDBRANCH 10 17
ENDBRANCH 7 10
ENDBRANCH 5 6
BRANCH 5 19
ATOM     19  CB  VAL D4843     -58.459  26.500  37.199  1.00 37.59 LIG 0.01  C 
ATOM     20  CG1 VAL D4843     -57.669  27.646  37.765  1.00 42.19 LIG 0.01  C 
ATOM     21  CG2 VAL D4843     -58.850  25.502  38.294  1.00 33.91 LIG 0.01  C 
ENDBRANCH 5 19
ENDBRANCH 3 5
BRANCH 1 22
ATOM     22  CA  VAL D4842     -61.597  24.679  34.030  1.00 42.26 LIG 0.18  C 
BRANCH 22 23
ATOM     23  N   VAL D4842     -62.927  24.580  33.422  1.00 51.43 LIG-0.34  N 
ATOM     24 H    VAL D4842     -63.276  25.340  33.221  1.00 51.43 LIG 0.16  HD
ATOM     25  C   LEU D4841     -63.531  23.414  33.204  1.00 54.30 LIG 0.26  C 
ATOM     26 O    LEU D4841     -64.565  23.310  32.547  1.00 66.57 LIG-0.27  OA
BRANCH 25 27
ATOM     27  CA  LEU D4841     -62.855  22.178  33.782  1.00 50.85 LIG 0.40  C 
ATOM     28  N   LEU D4841     -63.853  21.208  34.241  1.00 66.18 LIG 0.61  N 
BRANCH 27 29
ATOM     29  CB  LEU D4841     -61.937  21.535  32.735  1.00 58.40 LIG 0.06  C 
BRANCH 29 30
ATOM     30  CG  LEU D4841     -61.175  20.275  33.163  1.00 54.26 LIG-0.02  C 
ATOM     31  CD2 LEU D4841     -59.941  20.599  34.039  1.00 54.78 LIG 0.01  C 
ATOM     32  CD1 LEU D4841     -60.790  19.410  31.954  1.00 32.44 LIG 0.01  C 
ENDBRANCH 29 30
ENDBRANCH 27 29
ENDBRANCH 25 27
ENDBRANCH 22 23
BRANCH 22 33
ATOM     33  CB  VAL D4842     -60.471  24.608  32.966  1.00 48.47 LIG 0.01  C 
ATOM     34  CG2 VAL D4842     -59.282  23.844  33.479  1.00 42.42 LIG 0.01  C 
ATOM     35  CG1 VAL D4842     -60.053  26.017  32.581  1.00 34.87 LIG 0.01  C 
ENDBRANCH 22 33
ENDBRANCH 1 22
TORSDOF 13
ENDMDL
MODEL 45
USER: ADFR SOLUTION from run 189
USER: SCORE 8.958902 LL:  -2.254 LR:  -7.601 RR:   0.000 FEB:  -3.723
USER: RMSD 9.834712
USER: SEED 188
USER: STATUS no improvement in best in 39 clusters for 5 generations
USER: GENES 15
USER: genes 0 Translation |==|  0.23485 0.31824 0.20799
USER: genes 1 Rotation |==|  0.20720 0.68245 0.86003 0.53686
USER: genes 2 Torsion [C]-N--CA-[CB] |==|  0.55991
USER: genes 3 Torsion [N]-CA--C-[N] |==|  0.38945
USER: genes 4 Torsion [C]-N--CA-[CB] |==|  0.82855
USER: genes 5 Torsion [N]-CA--CB-[CG] |==|  0.75706
USER: genes 6 Torsion [CA]-CB--CG-[OD1] |==|  0.31476
USER: genes 7 Torsion [N]-CA--C-[O] |==|  0.17849
USER: genes 8 Torsion [N]-CA--CB-[CG2] |==|  0.81477
USER: genes 9 Torsion [N]-C--CA-[N] |==|  0.18715
USER: genes 10 Torsion [C]-CA--N-[C] |==|  0.17159
USER: genes 11 Torsion [N]-C--CA-[N] |==|  0.35328
USER: genes 12 Torsion [C]-CA--CB-[CG] |==|  0.41466
USER: genes 13 Torsion [CA]-CB--CG-[CD2] |==|  0.61711
USER: genes 14 Torsion [C]-CA--CB-[CG2] |==|  0.50962
ROOT
ATOM      1  C   VAL D4842     -62.608  24.568  34.700  1.00 57.35 LIG 0.24  C 
ATOM      2 O    VAL D4842     -61.774  23.693  34.964  1.00 61.28 LIG-0.27  OA
ATOM      3  N   VAL D4843     -62.272  25.758  34.218  1.00 52.36 LIG-0.35  N 
ATOM      4 H    VAL D4843     -62.841  26.303  33.875  1.00 52.36 LIG 0.16  HD
ENDROOT
BRANCH 3 5
ATOM      5  CA  VAL D4843     -60.907  26.265  34.217  1.00 37.99 LIG 0.18  C 
BRANCH 5 6
ATOM      6  C   VAL D4843     -60.330  25.790  35.574  1.00 51.29 LIG 0.24  C 
ATOM      7  N   ASN D4844     -59.078  25.352  35.627  1.00 50.43 LIG-0.35  N 
ATOM      8 H    ASN D4844     -58.531  25.327  34.965  1.00 50.43 LIG 0.16  HD
ATOM      9 O    VAL D4843     -61.033  25.813  36.594  1.00 47.22 LIG-0.27  OA
BRANCH 7 10
ATOM     10  CA  ASN D4844     -58.551  24.863  36.910  1.00 46.88 LIG 0.17  C 
BRANCH 10 11
ATOM     11  CB  ASN D4844     -58.561  25.982  37.951  1.00 66.72 LIG 0.14  C 
BRANCH 11 12
ATOM     12  CG  ASN D4844     -57.300  26.823  37.920  1.00 62.42 LIG 0.22  C 
ATOM     13 OD1  ASN D4844     -57.327  28.006  37.576  1.00 56.11 LIG-0.27  OA
ATOM     14  ND2 ASN D4844     -56.181  26.208  38.284  1.00 67.26 LIG-0.37  N 
ATOM     15 21HD ASN D4844     -55.435  26.637  38.286  1.00 67.26 LIG 0.16  HD
ATOM     16 22HD ASN D4844     -56.202  25.380  38.518  1.00 67.26 LIG 0.16  HD
ENDBRANCH 11 12
ENDBRANCH 10 11
BRANCH 10 17
ATOM     17  C   ASN D4844     -59.227  23.600  37.470  1.00 52.57 LIG 0.22  C 
ATOM     18 O    ASN D4844     -59.161  22.513  36.873  1.00 48.91 LIG-0.29  OA
ENDBRANCH 10 17
ENDBRANCH 7 10
ENDBRANCH 5 6
BRANCH 5 19
ATOM     19  CB  VAL D4843     -60.976  27.820  34.109  1.00 37.59 LIG 0.01  C 
ATOM     20  CG1 VAL D4843     -59.649  28.469  34.384  1.00 42.19 LIG 0.01  C 
ATOM     21  CG2 VAL D4843     -61.532  28.251  32.749  1.00 33.91 LIG 0.01  C 
ENDBRANCH 5 19
ENDBRANCH 3 5
BRANCH 1 22
ATOM     22  CA  VAL D4842     -64.123  24.332  34.857  1.00 42.26 LIG 0.18  C 
BRANCH 22 23
ATOM     23  N   VAL D4842     -64.898  24.254  33.615  1.00 51.43 LIG-0.34  N 
ATOM     24 H    VAL D4842     -65.498  24.866  33.539  1.00 51.43 LIG 0.16  HD
ATOM     25  C   LEU D4841     -64.685  23.315  32.695  1.00 54.30 LIG 0.26  C 
ATOM     26 O    LEU D4841     -65.210  23.340  31.584  1.00 66.57 LIG-0.27  OA
BRANCH 25 27
ATOM     27  CA  LEU D4841     -63.713  22.205  33.067  1.00 50.85 LIG 0.40  C 
ATOM     28  N   LEU D4841     -64.325  20.889  32.860  1.00 66.18 LIG 0.61  N 
BRANCH 27 29
ATOM     29  CB  LEU D4841     -62.426  22.324  32.241  1.00 58.40 LIG 0.06  C 
BRANCH 29 30
ATOM     30  CG  LEU D4841     -61.131  21.839  32.902  1.00 54.26 LIG-0.02  C 
ATOM     31  CD2 LEU D4841     -59.941  22.793  32.641  1.00 54.78 LIG 0.01  C 
ATOM     32  CD1 LEU D4841     -60.792  20.399  32.492  1.00 32.44 LIG 0.01  C 
ENDBRANCH 29 30
ENDBRANCH 27 29
ENDBRANCH 25 27
ENDBRANCH 22 23
BRANCH 22 33
ATOM     33  CB  VAL D4842     -64.394  23.118  35.782  1.00 48.47 LIG 0.01  C 
ATOM     34  CG2 VAL D4842     -65.865  22.823  35.879  1.00 42.42 LIG 0.01  C 
ATOM     35  CG1 VAL D4842     -63.831  23.402  37.165  1.00 34.87 LIG 0.01  C 
ENDBRANCH 22 33
ENDBRANCH 1 22
TORSDOF 13
ENDMDL
MODEL 46
USER: ADFR SOLUTION from run 97
USER: SCORE 9.128856 LL:  -2.633 LR:  -7.593 RR:   0.000 FEB:  -3.715
USER: RMSD 5.335486
USER: SEED 96
USER: STATUS no improvement in best in 15 clusters for 5 generations
USER: GENES 15
USER: genes 0 Translation |==|  0.41200 0.52918 0.40231
USER: genes 1 Rotation |==|  0.83145 0.68471 0.56652 0.81875
USER: genes 2 Torsion [C]-N--CA-[CB] |==|  0.26059
USER: genes 3 Torsion [N]-CA--C-[N] |==|  0.94466
USER: genes 4 Torsion [C]-N--CA-[CB] |==|  0.79568
USER: genes 5 Torsion [N]-CA--CB-[CG] |==|  0.81088
USER: genes 6 Torsion [CA]-CB--CG-[OD1] |==|  0.14344
USER: genes 7 Torsion [N]-CA--C-[O] |==|  0.13068
USER: genes 8 Torsion [N]-CA--CB-[CG2] |==|  0.39568
USER: genes 9 Torsion [N]-C--CA-[N] |==|  0.98889
USER: genes 10 Torsion [C]-CA--N-[C] |==|  0.65582
USER: genes 11 Torsion [N]-C--CA-[N] |==|  0.30936
USER: genes 12 Torsion [C]-CA--CB-[CG] |==|  0.06533
USER: genes 13 Torsion [CA]-CB--CG-[CD2] |==|  0.69295
USER: genes 14 Torsion [C]-CA--CB-[CG2] |==|  0.55259
ROOT
ATOM      1  C   VAL D4842     -58.888  28.048  37.615  1.00 57.35 LIG 0.24  C 
ATOM      2 O    VAL D4842     -59.700  28.819  38.141  1.00 61.28 LIG-0.27  OA
ATOM      3  N   VAL D4843     -59.040  27.579  36.383  1.00 52.36 LIG-0.35  N 
ATOM      4 H    VAL D4843     -58.410  27.187  35.949  1.00 52.36 LIG 0.16  HD
ENDROOT
BRANCH 3 5
ATOM      5  CA  VAL D4843     -60.286  27.678  35.636  1.00 37.99 LIG 0.18  C 
BRANCH 5 6
ATOM      6  C   VAL D4843     -60.315  26.387  34.782  1.00 51.29 LIG 0.24  C 
ATOM      7  N   ASN D4844     -59.183  25.731  34.560  1.00 50.43 LIG-0.35  N 
ATOM      8 H    ASN D4844     -58.412  25.948  34.873  1.00 50.43 LIG 0.16  HD
ATOM      9 O    VAL D4843     -61.383  25.977  34.306  1.00 47.22 LIG-0.27  OA
BRANCH 7 10
ATOM     10  CA  ASN D4844     -59.212  24.530  33.712  1.00 46.88 LIG 0.17  C 
BRANCH 10 11
ATOM     11  CB  ASN D4844     -59.854  23.364  34.463  1.00 66.72 LIG 0.14  C 
BRANCH 11 12
ATOM     12  CG  ASN D4844     -59.007  22.875  35.622  1.00 62.42 LIG 0.22  C 
ATOM     13 OD1  ASN D4844     -58.578  23.654  36.475  1.00 56.11 LIG-0.27  OA
ATOM     14  ND2 ASN D4844     -58.762  21.570  35.655  1.00 67.26 LIG-0.37  N 
ATOM     15 21HD ASN D4844     -58.287  21.238  36.290  1.00 67.26 LIG 0.16  HD
ATOM     16 22HD ASN D4844     -59.078  21.058  35.040  1.00 67.26 LIG 0.16  HD
ENDBRANCH 11 12
ENDBRANCH 10 11
BRANCH 10 17
ATOM     17  C   ASN D4844     -59.864  24.705  32.330  1.00 52.57 LIG 0.22  C 
ATOM     18 O    ASN D4844     -59.581  25.669  31.599  1.00 48.91 LIG-0.29  OA
ENDBRANCH 10 17
ENDBRANCH 7 10
ENDBRANCH 5 6
BRANCH 5 19
ATOM     19  CB  VAL D4843     -60.217  28.970  34.763  1.00 37.59 LIG 0.01  C 
ATOM     20  CG1 VAL D4843     -58.813  29.483  34.613  1.00 42.19 LIG 0.01  C 
ATOM     21  CG2 VAL D4843     -60.874  28.745  33.398  1.00 33.91 LIG 0.01  C 
ENDBRANCH 5 19
ENDBRANCH 3 5
BRANCH 1 22
ATOM     22  CA  VAL D4842     -57.594  27.607  38.327  1.00 42.26 LIG 0.18  C 
BRANCH 22 23
ATOM     23  N   VAL D4842     -56.745  26.660  37.598  1.00 51.43 LIG-0.34  N 
ATOM     24 H    VAL D4842     -56.508  26.933  36.818  1.00 51.43 LIG 0.16  HD
ATOM     25  C   LEU D4841     -56.381  25.485  38.108  1.00 54.30 LIG 0.26  C 
ATOM     26 O    LEU D4841     -55.539  24.762  37.580  1.00 66.57 LIG-0.27  OA
BRANCH 25 27
ATOM     27  CA  LEU D4841     -57.034  25.081  39.422  1.00 50.85 LIG 0.40  C 
ATOM     28  N   LEU D4841     -57.938  23.945  39.223  1.00 66.18 LIG 0.61  N 
BRANCH 27 29
ATOM     29  CB  LEU D4841     -55.964  24.727  40.462  1.00 58.40 LIG 0.06  C 
BRANCH 29 30
ATOM     30  CG  LEU D4841     -54.570  25.335  40.258  1.00 54.26 LIG-0.02  C 
ATOM     31  CD2 LEU D4841     -53.515  24.274  39.865  1.00 54.78 LIG 0.01  C 
ATOM     32  CD1 LEU D4841     -54.121  26.142  41.483  1.00 32.44 LIG 0.01  C 
ENDBRANCH 29 30
ENDBRANCH 27 29
ENDBRANCH 25 27
ENDBRANCH 22 23
BRANCH 22 33
ATOM     33  CB  VAL D4842     -56.792  28.840  38.817  1.00 48.47 LIG 0.01  C 
ATOM     34  CG2 VAL D4842     -55.357  28.484  39.089  1.00 42.42 LIG 0.01  C 
ATOM     35  CG1 VAL D4842     -57.437  29.392  40.077  1.00 34.87 LIG 0.01  C 
ENDBRANCH 22 33
ENDBRANCH 1 22
TORSDOF 13
ENDMDL
MODEL 47
USER: ADFR SOLUTION from run 160
USER: SCORE 8.939954 LL:  -2.716 LR:  -7.591 RR:   0.000 FEB:  -3.713
USER: RMSD 9.639975
USER: SEED 159
USER: STATUS no improvement in best in 21 clusters for 5 generations
USER: GENES 15
USER: genes 0 Translation |==|  0.34996 0.33943 0.08169
USER: genes 1 Rotation |==|  0.64534 0.57631 0.02977 0.54403
USER: genes 2 Torsion [C]-N--CA-[CB] |==|  0.40015
USER: genes 3 Torsion [N]-CA--C-[N] |==|  0.91385
USER: genes 4 Torsion [C]-N--CA-[CB] |==|  0.20105
USER: genes 5 Torsion [N]-CA--CB-[CG] |==|  0.63337
USER: genes 6 Torsion [CA]-CB--CG-[OD1] |==|  0.96471
USER: genes 7 Torsion [N]-CA--C-[O] |==|  0.97130
USER: genes 8 Torsion [N]-CA--CB-[CG2] |==|  0.48060
USER: genes 9 Torsion [N]-C--CA-[N] |==|  0.47222
USER: genes 10 Torsion [C]-CA--N-[C] |==|  0.56388
USER: genes 11 Torsion [N]-C--CA-[N] |==|  0.26294
USER: genes 12 Torsion [C]-CA--CB-[CG] |==|  0.23947
USER: genes 13 Torsion [CA]-CB--CG-[CD2] |==|  0.15648
USER: genes 14 Torsion [C]-CA--CB-[CG2] |==|  0.23198
ROOT
ATOM      1  C   VAL D4842     -60.191  24.918  32.805  1.00 57.35 LIG 0.24  C 
ATOM      2 O    VAL D4842     -59.329  25.049  31.927  1.00 61.28 LIG-0.27  OA
ATOM      3  N   VAL D4843     -60.695  25.947  33.475  1.00 52.36 LIG-0.35  N 
ATOM      4 H    VAL D4843     -61.404  25.890  33.958  1.00 52.36 LIG 0.16  HD
ENDROOT
BRANCH 3 5
ATOM      5  CA  VAL D4843     -60.105  27.277  33.462  1.00 37.99 LIG 0.18  C 
BRANCH 5 6
ATOM      6  C   VAL D4843     -59.235  27.314  34.742  1.00 51.29 LIG 0.24  C 
ATOM      7  N   ASN D4844     -59.611  26.610  35.802  1.00 50.43 LIG-0.35  N 
ATOM      8 H    ASN D4844     -60.302  26.100  35.841  1.00 50.43 LIG 0.16  HD
ATOM      9 O    VAL D4843     -58.204  28.001  34.777  1.00 47.22 LIG-0.27  OA
BRANCH 7 10
ATOM     10  CA  ASN D4844     -58.803  26.685  37.028  1.00 46.88 LIG 0.17  C 
BRANCH 10 11
ATOM     11  CB  ASN D4844     -58.992  28.040  37.708  1.00 66.72 LIG 0.14  C 
BRANCH 11 12
ATOM     12  CG  ASN D4844     -57.678  28.688  38.099  1.00 62.42 LIG 0.22  C 
ATOM     13 OD1  ASN D4844     -56.622  28.053  38.086  1.00 56.11 LIG-0.27  OA
ATOM     14  ND2 ASN D4844     -57.741  29.967  38.452  1.00 67.26 LIG-0.37  N 
ATOM     15 21HD ASN D4844     -57.026  30.385  38.683  1.00 67.26 LIG 0.16  HD
ATOM     16 22HD ASN D4844     -58.498  30.377  38.449  1.00 67.26 LIG 0.16  HD
ENDBRANCH 11 12
ENDBRANCH 10 11
BRANCH 10 17
ATOM     17  C   ASN D4844     -59.014  25.542  38.036  1.00 52.57 LIG 0.22  C 
ATOM     18 O    ASN D4844     -59.946  24.731  37.907  1.00 48.91 LIG-0.29  OA
ENDBRANCH 10 17
ENDBRANCH 7 10
ENDBRANCH 5 6
BRANCH 5 19
ATOM     19  CB  VAL D4843     -61.269  28.316  33.500  1.00 37.59 LIG 0.01  C 
ATOM     20  CG1 VAL D4843     -62.284  27.995  34.560  1.00 42.19 LIG 0.01  C 
ATOM     21  CG2 VAL D4843     -60.729  29.740  33.663  1.00 33.91 LIG 0.01  C 
ENDBRANCH 5 19
ENDBRANCH 3 5
BRANCH 1 22
ATOM     22  CA  VAL D4842     -60.796  23.546  33.163  1.00 42.26 LIG 0.18  C 
BRANCH 22 23
ATOM     23  N   VAL D4842     -60.427  22.428  32.289  1.00 51.43 LIG-0.34  N 
ATOM     24 H    VAL D4842     -59.691  22.548  31.861  1.00 51.43 LIG 0.16  HD
ATOM     25  C   LEU D4841     -61.173  21.331  32.176  1.00 54.30 LIG 0.26  C 
ATOM     26 O    LEU D4841     -60.792  20.325  31.581  1.00 66.57 LIG-0.27  OA
BRANCH 25 27
ATOM     27  CA  LEU D4841     -62.531  21.357  32.862  1.00 50.85 LIG 0.40  C 
ATOM     28  N   LEU D4841     -63.579  21.763  31.921  1.00 66.18 LIG 0.61  N 
BRANCH 27 29
ATOM     29  CB  LEU D4841     -62.857  19.979  33.450  1.00 58.40 LIG 0.06  C 
BRANCH 29 30
ATOM     30  CG  LEU D4841     -62.326  19.683  34.859  1.00 54.26 LIG-0.02  C 
ATOM     31  CD2 LEU D4841     -62.797  20.728  35.899  1.00 54.78 LIG 0.01  C 
ATOM     32  CD1 LEU D4841     -60.799  19.534  34.868  1.00 32.44 LIG 0.01  C 
ENDBRANCH 29 30
ENDBRANCH 27 29
ENDBRANCH 25 27
ENDBRANCH 22 23
BRANCH 22 33
ATOM     33  CB  VAL D4842     -60.552  23.214  34.657  1.00 48.47 LIG 0.01  C 
ATOM     34  CG2 VAL D4842     -61.592  23.852  35.535  1.00 42.42 LIG 0.01  C 
ATOM     35  CG1 VAL D4842     -59.168  23.694  35.061  1.00 34.87 LIG 0.01  C 
ENDBRANCH 22 33
ENDBRANCH 1 22
TORSDOF 13
ENDMDL
MODEL 48
USER: ADFR SOLUTION from run 104
USER: SCORE 9.394933 LL:  -2.578 LR:  -7.576 RR:   0.000 FEB:  -3.698
USER: RMSD 8.009808
USER: SEED 103
USER: STATUS no improvement in best in 34 clusters for 5 generations
USER: GENES 15
USER: genes 0 Translation |==|  0.39063 0.27597 0.27199
USER: genes 1 Rotation |==|  0.23265 0.23283 0.81063 0.60324
USER: genes 2 Torsion [C]-N--CA-[CB] |==|  0.88922
USER: genes 3 Torsion [N]-CA--C-[N] |==|  0.82366
USER: genes 4 Torsion [C]-N--CA-[CB] |==|  0.83675
USER: genes 5 Torsion [N]-CA--CB-[CG] |==|  0.62884
USER: genes 6 Torsion [CA]-CB--CG-[OD1] |==|  0.15620
USER: genes 7 Torsion [N]-CA--C-[O] |==|  0.22644
USER: genes 8 Torsion [N]-CA--CB-[CG2] |==|  0.77751
USER: genes 9 Torsion [N]-C--CA-[N] |==|  0.41051
USER: genes 10 Torsion [C]-CA--N-[C] |==|  0.81330
USER: genes 11 Torsion [N]-C--CA-[N] |==|  0.27946
USER: genes 12 Torsion [C]-CA--CB-[CG] |==|  0.54449
USER: genes 13 Torsion [CA]-CB--CG-[CD2] |==|  0.80056
USER: genes 14 Torsion [C]-CA--CB-[CG2] |==|  0.86093
ROOT
ATOM      1  C   VAL D4842     -59.337  23.871  35.660  1.00 57.35 LIG 0.24  C 
ATOM      2 O    VAL D4842     -58.124  24.117  35.653  1.00 61.28 LIG-0.27  OA
ATOM      3  N   VAL D4843     -60.101  24.063  36.727  1.00 52.36 LIG-0.35  N 
ATOM      4 H    VAL D4843     -60.961  24.058  36.695  1.00 52.36 LIG 0.16  HD
ENDROOT
BRANCH 3 5
ATOM      5  CA  VAL D4843     -59.570  24.302  38.061  1.00 37.99 LIG 0.18  C 
BRANCH 5 6
ATOM      6  C   VAL D4843     -59.183  25.802  38.047  1.00 51.29 LIG 0.24  C 
ATOM      7  N   ASN D4844     -58.234  26.218  37.218  1.00 50.43 LIG-0.35  N 
ATOM      8 H    ASN D4844     -57.815  25.725  36.653  1.00 50.43 LIG 0.16  HD
ATOM      9 O    VAL D4843     -59.749  26.599  38.808  1.00 47.22 LIG-0.27  OA
BRANCH 7 10
ATOM     10  CA  ASN D4844     -57.843  27.635  37.242  1.00 46.88 LIG 0.17  C 
BRANCH 10 11
ATOM     11  CB  ASN D4844     -59.048  28.526  36.940  1.00 66.72 LIG 0.14  C 
BRANCH 11 12
ATOM     12  CG  ASN D4844     -58.737  29.607  35.923  1.00 62.42 LIG 0.22  C 
ATOM     13 OD1  ASN D4844     -58.293  29.329  34.808  1.00 56.11 LIG-0.27  OA
ATOM     14  ND2 ASN D4844     -58.974  30.856  36.310  1.00 67.26 LIG-0.37  N 
ATOM     15 21HD ASN D4844     -58.817  31.509  35.773  1.00 67.26 LIG 0.16  HD
ATOM     16 22HD ASN D4844     -59.284  31.010  37.097  1.00 67.26 LIG 0.16  HD
ENDBRANCH 11 12
ENDBRANCH 10 11
BRANCH 10 17
ATOM     17  C   ASN D4844     -57.130  28.109  38.520  1.00 52.57 LIG 0.22  C 
ATOM     18 O    ASN D4844     -55.916  27.914  38.693  1.00 48.91 LIG-0.29  OA
ENDBRANCH 10 17
ENDBRANCH 7 10
ENDBRANCH 5 6
BRANCH 5 19
ATOM     19  CB  VAL D4843     -58.335  23.369  38.257  1.00 37.59 LIG 0.01  C 
ATOM     20  CG1 VAL D4843     -57.367  23.910  39.271  1.00 42.19 LIG 0.01  C 
ATOM     21  CG2 VAL D4843     -58.773  21.946  38.615  1.00 33.91 LIG 0.01  C 
ENDBRANCH 5 19
ENDBRANCH 3 5
BRANCH 1 22
ATOM     22  CA  VAL D4842     -60.079  23.367  34.407  1.00 42.26 LIG 0.18  C 
BRANCH 22 23
ATOM     23  N   VAL D4842     -59.544  23.811  33.116  1.00 51.43 LIG-0.34  N 
ATOM     24 H    VAL D4842     -59.204  23.178  32.643  1.00 51.43 LIG 0.16  HD
ATOM     25  C   LEU D4841     -59.586  25.081  32.721  1.00 54.30 LIG 0.26  C 
ATOM     26 O    LEU D4841     -59.295  25.435  31.580  1.00 66.57 LIG-0.27  OA
BRANCH 25 27
ATOM     27  CA  LEU D4841     -60.056  26.099  33.750  1.00 50.85 LIG 0.40  C 
ATOM     28  N   LEU D4841     -58.915  26.801  34.344  1.00 66.18 LIG 0.61  N 
BRANCH 27 29
ATOM     29  CB  LEU D4841     -61.015  27.106  33.104  1.00 58.40 LIG 0.06  C 
BRANCH 29 30
ATOM     30  CG  LEU D4841     -61.286  28.402  33.879  1.00 54.26 LIG-0.02  C 
ATOM     31  CD2 LEU D4841     -62.164  28.169  35.131  1.00 54.78 LIG 0.01  C 
ATOM     32  CD1 LEU D4841     -61.881  29.488  32.973  1.00 32.44 LIG 0.01  C 
ENDBRANCH 29 30
ENDBRANCH 27 29
ENDBRANCH 25 27
ENDBRANCH 22 23
BRANCH 22 33
ATOM     33  CB  VAL D4842     -60.257  21.828  34.458  1.00 48.47 LIG 0.01  C 
ATOM     34  CG2 VAL D4842     -58.957  21.138  34.763  1.00 42.42 LIG 0.01  C 
ATOM     35  CG1 VAL D4842     -60.803  21.340  33.127  1.00 34.87 LIG 0.01  C 
ENDBRANCH 22 33
ENDBRANCH 1 22
TORSDOF 13
ENDMDL
MODEL 49
USER: ADFR SOLUTION from run 74
USER: SCORE 8.569927 LL:  -2.268 LR:  -7.582 RR:   0.000 FEB:  -3.704
USER: RMSD 7.851541
USER: SEED 73
USER: STATUS no improvement in best in 32 clusters for 5 generations
USER: GENES 15
USER: genes 0 Translation |==|  0.38182 0.28203 0.30372
USER: genes 1 Rotation |==|  0.05643 0.66012 0.59317 0.63757
USER: genes 2 Torsion [C]-N--CA-[CB] |==|  0.24937
USER: genes 3 Torsion [N]-CA--C-[N] |==|  0.31967
USER: genes 4 Torsion [C]-N--CA-[CB] |==|  0.46857
USER: genes 5 Torsion [N]-CA--CB-[CG] |==|  0.73058
USER: genes 6 Torsion [CA]-CB--CG-[OD1] |==|  0.87158
USER: genes 7 Torsion [N]-CA--C-[O] |==|  0.05954
USER: genes 8 Torsion [N]-CA--CB-[CG2] |==|  0.74821
USER: genes 9 Torsion [N]-C--CA-[N] |==|  0.07778
USER: genes 10 Torsion [C]-CA--N-[C] |==|  0.68140
USER: genes 11 Torsion [N]-C--CA-[N] |==|  0.84755
USER: genes 12 Torsion [C]-CA--CB-[CG] |==|  0.27986
USER: genes 13 Torsion [CA]-CB--CG-[CD2] |==|  0.07589
USER: genes 14 Torsion [C]-CA--CB-[CG2] |==|  0.83713
ROOT
ATOM      1  C   VAL D4842     -59.522  23.971  36.136  1.00 57.35 LIG 0.24  C 
ATOM      2 O    VAL D4842     -59.694  23.155  37.050  1.00 61.28 LIG-0.27  OA
ATOM      3  N   VAL D4843     -58.788  25.066  36.282  1.00 52.36 LIG-0.35  N 
ATOM      4 H    VAL D4843     -58.524  25.545  35.618  1.00 52.36 LIG 0.16  HD
ENDROOT
BRANCH 3 5
ATOM      5  CA  VAL D4843     -58.353  25.573  37.575  1.00 37.99 LIG 0.18  C 
BRANCH 5 6
ATOM      6  C   VAL D4843     -58.247  27.103  37.362  1.00 51.29 LIG 0.24  C 
ATOM      7  N   ASN D4844     -59.061  27.909  38.033  1.00 50.43 LIG-0.35  N 
ATOM      8 H    ASN D4844     -59.645  27.658  38.611  1.00 50.43 LIG 0.16  HD
ATOM      9 O    VAL D4843     -57.416  27.567  36.568  1.00 47.22 LIG-0.27  OA
BRANCH 7 10
ATOM     10  CA  ASN D4844     -58.983  29.358  37.793  1.00 46.88 LIG 0.17  C 
BRANCH 10 11
ATOM     11  CB  ASN D4844     -60.172  30.069  38.439  1.00 66.72 LIG 0.14  C 
BRANCH 11 12
ATOM     12  CG  ASN D4844     -61.298  30.336  37.460  1.00 62.42 LIG 0.22  C 
ATOM     13 OD1  ASN D4844     -61.077  30.808  36.343  1.00 56.11 LIG-0.27  OA
ATOM     14  ND2 ASN D4844     -62.520  30.031  37.880  1.00 67.26 LIG-0.37  N 
ATOM     15 21HD ASN D4844     -63.197  30.161  37.365  1.00 67.26 LIG 0.16  HD
ATOM     16 22HD ASN D4844     -62.635  29.703  38.667  1.00 67.26 LIG 0.16  HD
ENDBRANCH 11 12
ENDBRANCH 10 11
BRANCH 10 17
ATOM     17  C   ASN D4844     -57.663  30.031  38.205  1.00 52.57 LIG 0.22  C 
ATOM     18 O    ASN D4844     -56.615  29.377  38.330  1.00 48.91 LIG-0.29  OA
ENDBRANCH 10 17
ENDBRANCH 7 10
ENDBRANCH 5 6
BRANCH 5 19
ATOM     19  CB  VAL D4843     -56.976  24.919  37.905  1.00 37.59 LIG 0.01  C 
ATOM     20  CG1 VAL D4843     -56.057  25.861  38.631  1.00 42.19 LIG 0.01  C 
ATOM     21  CG2 VAL D4843     -57.160  23.615  38.685  1.00 33.91 LIG 0.01  C 
ENDBRANCH 5 19
ENDBRANCH 3 5
BRANCH 1 22
ATOM     22  CA  VAL D4842     -60.102  23.756  34.725  1.00 42.26 LIG 0.18  C 
BRANCH 22 23
ATOM     23  N   VAL D4842     -59.337  24.332  33.615  1.00 51.43 LIG-0.34  N 
ATOM     24 H    VAL D4842     -58.562  23.976  33.504  1.00 51.43 LIG 0.16  HD
ATOM     25  C   LEU D4841     -59.808  25.318  32.855  1.00 54.30 LIG 0.26  C 
ATOM     26 O    LEU D4841     -59.250  25.692  31.825  1.00 66.57 LIG-0.27  OA
BRANCH 25 27
ATOM     27  CA  LEU D4841     -61.118  25.954  33.298  1.00 50.85 LIG 0.40  C 
ATOM     28  N   LEU D4841     -62.161  24.936  33.455  1.00 66.18 LIG 0.61  N 
BRANCH 27 29
ATOM     29  CB  LEU D4841     -60.922  26.714  34.616  1.00 58.40 LIG 0.06  C 
BRANCH 29 30
ATOM     30  CG  LEU D4841     -60.773  28.237  34.522  1.00 54.26 LIG-0.02  C 
ATOM     31  CD2 LEU D4841     -61.485  28.825  33.280  1.00 54.78 LIG 0.01  C 
ATOM     32  CD1 LEU D4841     -59.300  28.665  34.575  1.00 32.44 LIG 0.01  C 
ENDBRANCH 29 30
ENDBRANCH 27 29
ENDBRANCH 25 27
ENDBRANCH 22 23
BRANCH 22 33
ATOM     33  CB  VAL D4842     -60.422  22.258  34.486  1.00 48.47 LIG 0.01  C 
ATOM     34  CG2 VAL D4842     -59.193  21.406  34.645  1.00 42.42 LIG 0.01  C 
ATOM     35  CG1 VAL D4842     -60.997  22.081  33.091  1.00 34.87 LIG 0.01  C 
ENDBRANCH 22 33
ENDBRANCH 1 22
TORSDOF 13
ENDMDL
MODEL 50
USER: ADFR SOLUTION from run 165
USER: SCORE 8.614919 LL:  -2.879 LR:  -7.569 RR:   0.000 FEB:  -3.691
USER: RMSD 7.904229
USER: SEED 164
USER: STATUS no improvement in best in 49 clusters for 5 generations
USER: GENES 15
USER: genes 0 Translation |==|  0.34459 0.35509 0.24499
USER: genes 1 Rotation |==|  0.13396 0.75590 0.52631 0.72325
USER: genes 2 Torsion [C]-N--CA-[CB] |==|  0.30234
USER: genes 3 Torsion [N]-CA--C-[N] |==|  0.22477
USER: genes 4 Torsion [C]-N--CA-[CB] |==|  0.14951
USER: genes 5 Torsion [N]-CA--CB-[CG] |==|  0.12596
USER: genes 6 Torsion [CA]-CB--CG-[OD1] |==|  0.23617
USER: genes 7 Torsion [N]-CA--C-[O] |==|  0.96223
USER: genes 8 Torsion [N]-CA--CB-[CG2] |==|  0.79954
USER: genes 9 Torsion [N]-C--CA-[N] |==|  0.90556
USER: genes 10 Torsion [C]-CA--N-[C] |==|  0.76765
USER: genes 11 Torsion [N]-C--CA-[N] |==|  0.22408
USER: genes 12 Torsion [C]-CA--CB-[CG] |==|  0.80412
USER: genes 13 Torsion [CA]-CB--CG-[CD2] |==|  0.70404
USER: genes 14 Torsion [C]-CA--CB-[CG2] |==|  0.01889
ROOT
ATOM      1  C   VAL D4842     -60.304  25.176  35.255  1.00 57.35 LIG 0.24  C 
ATOM      2 O    VAL D4842     -61.092  24.464  35.888  1.00 61.28 LIG-0.27  OA
ATOM      3  N   VAL D4843     -59.165  25.620  35.771  1.00 52.36 LIG-0.35  N 
ATOM      4 H    VAL D4843     -58.538  25.967  35.296  1.00 52.36 LIG 0.16  HD
ENDROOT
BRANCH 3 5
ATOM      5  CA  VAL D4843     -58.856  25.567  37.193  1.00 37.99 LIG 0.18  C 
BRANCH 5 6
ATOM      6  C   VAL D4843     -58.351  26.993  37.521  1.00 51.29 LIG 0.24  C 
ATOM      7  N   ASN D4844     -59.235  27.961  37.729  1.00 50.43 LIG-0.35  N 
ATOM      8 H    ASN D4844     -60.090  27.865  37.722  1.00 50.43 LIG 0.16  HD
ATOM      9 O    VAL D4843     -57.136  27.228  37.580  1.00 47.22 LIG-0.27  OA
BRANCH 7 10
ATOM     10  CA  ASN D4844     -58.748  29.322  37.997  1.00 46.88 LIG 0.17  C 
BRANCH 10 11
ATOM     11  CB  ASN D4844     -57.790  29.772  36.895  1.00 66.72 LIG 0.14  C 
BRANCH 11 12
ATOM     12  CG  ASN D4844     -58.306  29.456  35.505  1.00 62.42 LIG 0.22  C 
ATOM     13 OD1  ASN D4844     -59.077  30.219  34.919  1.00 56.11 LIG-0.27  OA
ATOM     14  ND2 ASN D4844     -57.878  28.319  34.968  1.00 67.26 LIG-0.37  N 
ATOM     15 21HD ASN D4844     -58.139  28.090  34.181  1.00 67.26 LIG 0.16  HD
ATOM     16 22HD ASN D4844     -57.340  27.812  35.408  1.00 67.26 LIG 0.16  HD
ENDBRANCH 11 12
ENDBRANCH 10 11
BRANCH 10 17
ATOM     17  C   ASN D4844     -59.836  30.385  38.232  1.00 52.57 LIG 0.22  C 
ATOM     18 O    ASN D4844     -61.026  30.164  37.953  1.00 48.91 LIG-0.29  OA
ENDBRANCH 10 17
ENDBRANCH 7 10
ENDBRANCH 5 6
BRANCH 5 19
ATOM     19  CB  VAL D4843     -57.754  24.481  37.401  1.00 37.59 LIG 0.01  C 
ATOM     20  CG1 VAL D4843     -57.063  24.618  38.728  1.00 42.19 LIG 0.01  C 
ATOM     21  CG2 VAL D4843     -58.328  23.074  37.219  1.00 33.91 LIG 0.01  C 
ENDBRANCH 5 19
ENDBRANCH 3 5
BRANCH 1 22
ATOM     22  CA  VAL D4842     -60.550  25.568  33.785  1.00 42.26 LIG 0.18  C 
BRANCH 22 23
ATOM     23  N   VAL D4842     -60.042  26.879  33.370  1.00 51.43 LIG-0.34  N 
ATOM     24 H    VAL D4842     -59.271  26.850  32.989  1.00 51.43 LIG 0.16  HD
ATOM     25  C   LEU D4841     -60.721  28.006  33.570  1.00 54.30 LIG 0.26  C 
ATOM     26 O    LEU D4841     -60.385  29.083  33.080  1.00 66.57 LIG-0.27  OA
BRANCH 25 27
ATOM     27  CA  LEU D4841     -61.982  27.902  34.416  1.00 50.85 LIG 0.40  C 
ATOM     28  N   LEU D4841     -61.648  27.889  35.843  1.00 66.18 LIG 0.61  N 
BRANCH 27 29
ATOM     29  CB  LEU D4841     -62.929  29.067  34.106  1.00 58.40 LIG 0.06  C 
BRANCH 29 30
ATOM     30  CG  LEU D4841     -62.498  30.458  34.586  1.00 54.26 LIG-0.02  C 
ATOM     31  CD2 LEU D4841     -63.318  30.944  35.805  1.00 54.78 LIG 0.01  C 
ATOM     32  CD1 LEU D4841     -62.531  31.485  33.446  1.00 32.44 LIG 0.01  C 
ENDBRANCH 29 30
ENDBRANCH 27 29
ENDBRANCH 25 27
ENDBRANCH 22 23
BRANCH 22 33
ATOM     33  CB  VAL D4842     -60.078  24.440  32.832  1.00 48.47 LIG 0.01  C 
ATOM     34  CG2 VAL D4842     -59.665  23.214  33.599  1.00 42.42 LIG 0.01  C 
ATOM     35  CG1 VAL D4842     -58.915  24.942  31.994  1.00 34.87 LIG 0.01  C 
ENDBRANCH 22 33
ENDBRANCH 1 22
TORSDOF 13
ENDMDL
MODEL 51
USER: ADFR SOLUTION from run 107
USER: SCORE 8.782491 LL:  -2.207 LR:  -7.557 RR:   0.000 FEB:  -3.679
USER: RMSD 6.666892
USER: SEED 106
USER: STATUS no improvement in best in 23 clusters for 5 generations
USER: GENES 15
USER: genes 0 Translation |==|  0.35488 0.46893 0.21034
USER: genes 1 Rotation |==|  0.52040 0.70431 0.58225 0.94842
USER: genes 2 Torsion [C]-N--CA-[CB] |==|  0.21349
USER: genes 3 Torsion [N]-CA--C-[N] |==|  0.50640
USER: genes 4 Torsion [C]-N--CA-[CB] |==|  0.27534
USER: genes 5 Torsion [N]-CA--CB-[CG] |==|  0.58311
USER: genes 6 Torsion [CA]-CB--CG-[OD1] |==|  0.81691
USER: genes 7 Torsion [N]-CA--C-[O] |==|  0.83344
USER: genes 8 Torsion [N]-CA--CB-[CG2] |==|  0.46777
USER: genes 9 Torsion [N]-C--CA-[N] |==|  0.00742
USER: genes 10 Torsion [C]-CA--N-[C] |==|  0.73333
USER: genes 11 Torsion [N]-C--CA-[N] |==|  0.41199
USER: genes 12 Torsion [C]-CA--CB-[CG] |==|  0.97020
USER: genes 13 Torsion [CA]-CB--CG-[CD2] |==|  0.74322
USER: genes 14 Torsion [C]-CA--CB-[CG2] |==|  0.51544
ROOT
ATOM      1  C   VAL D4842     -60.088  27.054  34.735  1.00 57.35 LIG 0.24  C 
ATOM      2 O    VAL D4842     -61.176  27.199  34.166  1.00 61.28 LIG-0.27  OA
ATOM      3  N   VAL D4843     -59.464  25.885  34.804  1.00 52.36 LIG-0.35  N 
ATOM      4 H    VAL D4843     -58.642  25.805  35.043  1.00 52.36 LIG 0.16  HD
ENDROOT
BRANCH 3 5
ATOM      5  CA  VAL D4843     -60.103  24.617  34.483  1.00 37.99 LIG 0.18  C 
BRANCH 5 6
ATOM      6  C   VAL D4843     -59.163  23.555  35.105  1.00 51.29 LIG 0.24  C 
ATOM      7  N   ASN D4844     -59.444  22.268  34.946  1.00 50.43 LIG-0.35  N 
ATOM      8 H    ASN D4844     -60.106  21.955  34.497  1.00 50.43 LIG 0.16  HD
ATOM      9 O    VAL D4843     -58.165  23.907  35.751  1.00 47.22 LIG-0.27  OA
BRANCH 7 10
ATOM     10  CA  ASN D4844     -58.570  21.267  35.577  1.00 46.88 LIG 0.17  C 
BRANCH 10 11
ATOM     11  CB  ASN D4844     -59.187  20.771  36.884  1.00 66.72 LIG 0.14  C 
BRANCH 11 12
ATOM     12  CG  ASN D4844     -58.145  20.353  37.903  1.00 62.42 LIG 0.22  C 
ATOM     13 OD1  ASN D4844     -57.411  19.383  37.707  1.00 56.11 LIG-0.27  OA
ATOM     14  ND2 ASN D4844     -58.077  21.093  39.004  1.00 67.26 LIG-0.37  N 
ATOM     15 21HD ASN D4844     -57.503  20.902  39.616  1.00 67.26 LIG 0.16  HD
ATOM     16 22HD ASN D4844     -58.608  21.763  39.106  1.00 67.26 LIG 0.16  HD
ENDBRANCH 11 12
ENDBRANCH 10 11
BRANCH 10 17
ATOM     17  C   ASN D4844     -58.167  20.080  34.687  1.00 52.57 LIG 0.22  C 
ATOM     18 O    ASN D4844     -59.018  19.320  34.197  1.00 48.91 LIG-0.29  OA
ENDBRANCH 10 17
ENDBRANCH 7 10
ENDBRANCH 5 6
BRANCH 5 19
ATOM     19  CB  VAL D4843     -60.185  24.504  32.929  1.00 37.59 LIG 0.01  C 
ATOM     20  CG1 VAL D4843     -58.913  24.941  32.257  1.00 42.19 LIG 0.01  C 
ATOM     21  CG2 VAL D4843     -60.578  23.087  32.501  1.00 33.91 LIG 0.01  C 
ENDBRANCH 5 19
ENDBRANCH 3 5
BRANCH 1 22
ATOM     22  CA  VAL D4842     -59.330  28.236  35.371  1.00 42.26 LIG 0.18  C 
BRANCH 22 23
ATOM     23  N   VAL D4842     -58.002  27.937  35.913  1.00 51.43 LIG-0.34  N 
ATOM     24 H    VAL D4842     -57.373  27.956  35.326  1.00 51.43 LIG 0.16  HD
ATOM     25  C   LEU D4841     -57.797  27.664  37.200  1.00 54.30 LIG 0.26  C 
ATOM     26 O    LEU D4841     -56.675  27.578  37.694  1.00 66.57 LIG-0.27  OA
BRANCH 25 27
ATOM     27  CA  LEU D4841     -59.038  27.496  38.066  1.00 50.85 LIG 0.40  C 
ATOM     28  N   LEU D4841     -58.793  26.531  39.141  1.00 66.18 LIG 0.61  N 
BRANCH 27 29
ATOM     29  CB  LEU D4841     -59.462  28.846  38.656  1.00 58.40 LIG 0.06  C 
BRANCH 29 30
ATOM     30  CG  LEU D4841     -58.476  30.011  38.503  1.00 54.26 LIG-0.02  C 
ATOM     31  CD2 LEU D4841     -57.525  30.144  39.717  1.00 54.78 LIG 0.01  C 
ATOM     32  CD1 LEU D4841     -59.202  31.332  38.215  1.00 32.44 LIG 0.01  C 
ENDBRANCH 29 30
ENDBRANCH 27 29
ENDBRANCH 25 27
ENDBRANCH 22 23
BRANCH 22 33
ATOM     33  CB  VAL D4842     -59.299  29.448  34.405  1.00 48.47 LIG 0.01  C 
ATOM     34  CG2 VAL D4842     -58.450  30.562  34.954  1.00 42.42 LIG 0.01  C 
ATOM     35  CG1 VAL D4842     -60.716  29.945  34.173  1.00 34.87 LIG 0.01  C 
ENDBRANCH 22 33
ENDBRANCH 1 22
TORSDOF 13
ENDMDL
MODEL 52
USER: ADFR SOLUTION from run 54
USER: SCORE 9.543412 LL:  -2.434 LR:  -7.548 RR:   0.000 FEB:  -3.670
USER: RMSD 6.517340
USER: SEED 53
USER: STATUS no improvement in best in 29 clusters for 5 generations
USER: GENES 15
USER: genes 0 Translation |==|  0.38125 0.27690 0.32059
USER: genes 1 Rotation |==|  0.82582 0.62406 0.79099 0.70923
USER: genes 2 Torsion [C]-N--CA-[CB] |==|  0.88872
USER: genes 3 Torsion [N]-CA--C-[N] |==|  0.36027
USER: genes 4 Torsion [C]-N--CA-[CB] |==|  0.31201
USER: genes 5 Torsion [N]-CA--CB-[CG] |==|  0.84319
USER: genes 6 Torsion [CA]-CB--CG-[OD1] |==|  0.68730
USER: genes 7 Torsion [N]-CA--C-[O] |==|  0.56494
USER: genes 8 Torsion [N]-CA--CB-[CG2] |==|  0.71093
USER: genes 9 Torsion [N]-C--CA-[N] |==|  0.34471
USER: genes 10 Torsion [C]-CA--N-[C] |==|  0.80992
USER: genes 11 Torsion [N]-C--CA-[N] |==|  0.36658
USER: genes 12 Torsion [C]-CA--CB-[CG] |==|  0.99493
USER: genes 13 Torsion [CA]-CB--CG-[CD2] |==|  0.62801
USER: genes 14 Torsion [C]-CA--CB-[CG2] |==|  0.45371
ROOT
ATOM      1  C   VAL D4842     -59.534  23.886  36.389  1.00 57.35 LIG 0.24  C 
ATOM      2 O    VAL D4842     -60.766  23.860  36.494  1.00 61.28 LIG-0.27  OA
ATOM      3  N   VAL D4843     -58.915  24.390  35.329  1.00 52.36 LIG-0.35  N 
ATOM      4 H    VAL D4843     -58.074  24.567  35.317  1.00 52.36 LIG 0.16  HD
ENDROOT
BRANCH 3 5
ATOM      5  CA  VAL D4843     -59.592  24.697  34.077  1.00 37.99 LIG 0.18  C 
BRANCH 5 6
ATOM      6  C   VAL D4843     -60.282  26.057  34.347  1.00 51.29 LIG 0.24  C 
ATOM      7  N   ASN D4844     -60.115  27.050  33.483  1.00 50.43 LIG-0.35  N 
ATOM      8 H    ASN D4844     -59.665  27.004  32.752  1.00 50.43 LIG 0.16  HD
ATOM      9 O    VAL D4843     -60.974  26.215  35.362  1.00 47.22 LIG-0.27  OA
BRANCH 7 10
ATOM     10  CA  ASN D4844     -60.738  28.351  33.768  1.00 46.88 LIG 0.17  C 
BRANCH 10 11
ATOM     11  CB  ASN D4844     -59.666  29.402  34.057  1.00 66.72 LIG 0.14  C 
BRANCH 11 12
ATOM     12  CG  ASN D4844     -58.747  29.005  35.195  1.00 62.42 LIG 0.22  C 
ATOM     13 OD1  ASN D4844     -58.751  29.617  36.265  1.00 56.11 LIG-0.27  OA
ATOM     14  ND2 ASN D4844     -57.950  27.968  34.965  1.00 67.26 LIG-0.37  N 
ATOM     15 21HD ASN D4844     -57.407  27.698  35.577  1.00 67.26 LIG 0.16  HD
ATOM     16 22HD ASN D4844     -57.975  27.566  34.205  1.00 67.26 LIG 0.16  HD
ENDBRANCH 11 12
ENDBRANCH 10 11
BRANCH 10 17
ATOM     17  C   ASN D4844     -61.724  28.865  32.705  1.00 52.57 LIG 0.22  C 
ATOM     18 O    ASN D4844     -61.980  30.075  32.592  1.00 48.91 LIG-0.29  OA
ENDBRANCH 10 17
ENDBRANCH 7 10
ENDBRANCH 5 6
BRANCH 5 19
ATOM     19  CB  VAL D4843     -60.616  23.553  33.795  1.00 37.59 LIG 0.01  C 
ATOM     20  CG1 VAL D4843     -61.980  24.082  33.455  1.00 42.19 LIG 0.01  C 
ATOM     21  CG2 VAL D4843     -60.099  22.610  32.705  1.00 33.91 LIG 0.01  C 
ENDBRANCH 5 19
ENDBRANCH 3 5
BRANCH 1 22
ATOM     22  CA  VAL D4842     -58.604  23.382  37.509  1.00 42.26 LIG 0.18  C 
BRANCH 22 23
ATOM     23  N   VAL D4842     -58.819  23.961  38.839  1.00 51.43 LIG-0.34  N 
ATOM     24 H    VAL D4842     -59.130  23.405  39.416  1.00 51.43 LIG 0.16  HD
ATOM     25  C   LEU D4841     -58.552  25.235  39.117  1.00 54.30 LIG 0.26  C 
ATOM     26 O    LEU D4841     -58.568  25.686  40.260  1.00 66.57 LIG-0.27  OA
BRANCH 25 27
ATOM     27  CA  LEU D4841     -58.178  26.125  37.940  1.00 50.85 LIG 0.40  C 
ATOM     28  N   LEU D4841     -58.940  27.377  37.974  1.00 66.18 LIG 0.61  N 
BRANCH 27 29
ATOM     29  CB  LEU D4841     -56.674  26.424  37.955  1.00 58.40 LIG 0.06  C 
BRANCH 29 30
ATOM     30  CG  LEU D4841     -55.862  25.841  39.118  1.00 54.26 LIG-0.02  C 
ATOM     31  CD2 LEU D4841     -54.900  26.878  39.745  1.00 54.78 LIG 0.01  C 
ATOM     32  CD1 LEU D4841     -55.116  24.566  38.703  1.00 32.44 LIG 0.01  C 
ENDBRANCH 29 30
ENDBRANCH 27 29
ENDBRANCH 25 27
ENDBRANCH 22 23
BRANCH 22 33
ATOM     33  CB  VAL D4842     -58.589  21.832  37.552  1.00 48.47 LIG 0.01  C 
ATOM     34  CG2 VAL D4842     -57.415  21.319  38.338  1.00 42.42 LIG 0.01  C 
ATOM     35  CG1 VAL D4842     -58.540  21.289  36.134  1.00 34.87 LIG 0.01  C 
ENDBRANCH 22 33
ENDBRANCH 1 22
TORSDOF 13
ENDMDL
MODEL 53
USER: ADFR SOLUTION from run 84
USER: SCORE 8.654628 LL:  -2.415 LR:  -7.544 RR:   0.000 FEB:  -3.666
USER: RMSD 10.294450
USER: SEED 83
USER: STATUS no improvement in best in 11 clusters for 5 generations
USER: GENES 15
USER: genes 0 Translation |==|  0.35455 0.32629 0.10697
USER: genes 1 Rotation |==|  0.40506 0.37470 0.97464 0.49887
USER: genes 2 Torsion [C]-N--CA-[CB] |==|  0.24987
USER: genes 3 Torsion [N]-CA--C-[N] |==|  0.27713
USER: genes 4 Torsion [C]-N--CA-[CB] |==|  0.31687
USER: genes 5 Torsion [N]-CA--CB-[CG] |==|  0.11282
USER: genes 6 Torsion [CA]-CB--CG-[OD1] |==|  0.66024
USER: genes 7 Torsion [N]-CA--C-[O] |==|  0.82807
USER: genes 8 Torsion [N]-CA--CB-[CG2] |==|  0.46647
USER: genes 9 Torsion [N]-C--CA-[N] |==|  0.34444
USER: genes 10 Torsion [C]-CA--N-[C] |==|  0.70066
USER: genes 11 Torsion [N]-C--CA-[N] |==|  0.17520
USER: genes 12 Torsion [C]-CA--CB-[CG] |==|  0.77433
USER: genes 13 Torsion [CA]-CB--CG-[CD2] |==|  0.71629
USER: genes 14 Torsion [C]-CA--CB-[CG2] |==|  0.56024
ROOT
ATOM      1  C   VAL D4842     -60.094  24.701  33.185  1.00 57.35 LIG 0.24  C 
ATOM      2 O    VAL D4842     -59.446  24.980  32.169  1.00 61.28 LIG-0.27  OA
ATOM      3  N   VAL D4843     -60.328  25.581  34.150  1.00 52.36 LIG-0.35  N 
ATOM      4 H    VAL D4843     -60.911  25.454  34.769  1.00 52.36 LIG 0.16  HD
ENDROOT
BRANCH 3 5
ATOM      5  CA  VAL D4843     -59.627  26.851  34.263  1.00 37.99 LIG 0.18  C 
BRANCH 5 6
ATOM      6  C   VAL D4843     -59.619  27.141  35.784  1.00 51.29 LIG 0.24  C 
ATOM      7  N   ASN D4844     -58.526  26.874  36.488  1.00 50.43 LIG-0.35  N 
ATOM      8 H    ASN D4844     -57.790  26.567  36.168  1.00 50.43 LIG 0.16  HD
ATOM      9 O    VAL D4843     -60.624  27.610  36.336  1.00 47.22 LIG-0.27  OA
BRANCH 7 10
ATOM     10  CA  ASN D4844     -58.541  27.112  37.939  1.00 46.88 LIG 0.17  C 
BRANCH 10 11
ATOM     11  CB  ASN D4844     -58.418  25.789  38.696  1.00 66.72 LIG 0.14  C 
BRANCH 11 12
ATOM     12  CG  ASN D4844     -57.422  24.840  38.060  1.00 62.42 LIG 0.22  C 
ATOM     13 OD1  ASN D4844     -57.757  23.712  37.693  1.00 56.11 LIG-0.27  OA
ATOM     14  ND2 ASN D4844     -56.183  25.299  37.927  1.00 67.26 LIG-0.37  N 
ATOM     15 21HD ASN D4844     -55.576  24.802  37.572  1.00 67.26 LIG 0.16  HD
ATOM     16 22HD ASN D4844     -55.987  26.092  38.197  1.00 67.26 LIG 0.16  HD
ENDBRANCH 11 12
ENDBRANCH 10 11
BRANCH 10 17
ATOM     17  C   ASN D4844     -57.509  28.127  38.459  1.00 52.57 LIG 0.22  C 
ATOM     18 O    ASN D4844     -56.289  27.932  38.330  1.00 48.91 LIG-0.29  OA
ENDBRANCH 10 17
ENDBRANCH 7 10
ENDBRANCH 5 6
BRANCH 5 19
ATOM     19  CB  VAL D4843     -60.435  27.916  33.457  1.00 37.59 LIG 0.01  C 
ATOM     20  CG1 VAL D4843     -61.916  27.799  33.683  1.00 42.19 LIG 0.01  C 
ATOM     21  CG2 VAL D4843     -59.937  29.331  33.764  1.00 33.91 LIG 0.01  C 
ENDBRANCH 5 19
ENDBRANCH 3 5
BRANCH 1 22
ATOM     22  CA  VAL D4842     -60.736  23.315  33.394  1.00 42.26 LIG 0.18  C 
BRANCH 22 23
ATOM     23  N   VAL D4842     -61.615  22.841  32.321  1.00 51.43 LIG-0.34  N 
ATOM     24 H    VAL D4842     -61.198  22.607  31.606  1.00 51.43 LIG 0.16  HD
ATOM     25  C   LEU D4841     -62.939  22.780  32.452  1.00 54.30 LIG 0.26  C 
ATOM     26 O    LEU D4841     -63.666  22.230  31.628  1.00 66.57 LIG-0.27  OA
BRANCH 25 27
ATOM     27  CA  LEU D4841     -63.527  23.399  33.712  1.00 50.85 LIG 0.40  C 
ATOM     28  N   LEU D4841     -63.263  24.840  33.754  1.00 66.18 LIG 0.61  N 
BRANCH 27 29
ATOM     29  CB  LEU D4841     -65.036  23.137  33.780  1.00 58.40 LIG 0.06  C 
BRANCH 29 30
ATOM     30  CG  LEU D4841     -65.939  24.066  32.958  1.00 54.26 LIG-0.02  C 
ATOM     31  CD2 LEU D4841     -66.630  25.141  33.830  1.00 54.78 LIG 0.01  C 
ATOM     32  CD1 LEU D4841     -66.962  23.274  32.132  1.00 32.44 LIG 0.01  C 
ENDBRANCH 29 30
ENDBRANCH 27 29
ENDBRANCH 25 27
ENDBRANCH 22 23
BRANCH 22 33
ATOM     33  CB  VAL D4842     -59.659  22.264  33.764  1.00 48.47 LIG 0.01  C 
ATOM     34  CG2 VAL D4842     -60.133  20.869  33.464  1.00 42.42 LIG 0.01  C 
ATOM     35  CG1 VAL D4842     -59.318  22.389  35.239  1.00 34.87 LIG 0.01  C 
ENDBRANCH 22 33
ENDBRANCH 1 22
TORSDOF 13
ENDMDL
MODEL 54
USER: ADFR SOLUTION from run 84
USER: SCORE 9.594145 LL:  -3.118 LR:  -7.541 RR:   0.000 FEB:  -3.663
USER: RMSD 9.734335
USER: SEED 83
USER: STATUS no improvement in best in 11 clusters for 5 generations
USER: GENES 15
USER: genes 0 Translation |==|  0.38352 0.21427 0.16980
USER: genes 1 Rotation |==|  0.54440 0.58508 0.01387 0.56680
USER: genes 2 Torsion [C]-N--CA-[CB] |==|  0.22961
USER: genes 3 Torsion [N]-CA--C-[N] |==|  0.35896
USER: genes 4 Torsion [C]-N--CA-[CB] |==|  0.22277
USER: genes 5 Torsion [N]-CA--CB-[CG] |==|  0.08181
USER: genes 6 Torsion [CA]-CB--CG-[OD1] |==|  0.60279
USER: genes 7 Torsion [N]-CA--C-[O] |==|  0.81527
USER: genes 8 Torsion [N]-CA--CB-[CG2] |==|  0.72862
USER: genes 9 Torsion [N]-C--CA-[N] |==|  0.41933
USER: genes 10 Torsion [C]-CA--N-[C] |==|  0.80691
USER: genes 11 Torsion [N]-C--CA-[N] |==|  0.42907
USER: genes 12 Torsion [C]-CA--CB-[CG] |==|  0.40112
USER: genes 13 Torsion [CA]-CB--CG-[CD2] |==|  0.06326
USER: genes 14 Torsion [C]-CA--CB-[CG2] |==|  0.56669
ROOT
ATOM      1  C   VAL D4842     -59.486  22.852  34.127  1.00 57.35 LIG 0.24  C 
ATOM      2 O    VAL D4842     -59.050  23.045  32.985  1.00 61.28 LIG-0.27  OA
ATOM      3  N   VAL D4843     -59.855  23.843  34.929  1.00 52.36 LIG-0.35  N 
ATOM      4 H    VAL D4843     -60.312  23.719  35.647  1.00 52.36 LIG 0.16  HD
ENDROOT
BRANCH 3 5
ATOM      5  CA  VAL D4843     -59.529  25.239  34.681  1.00 37.99 LIG 0.18  C 
BRANCH 5 6
ATOM      6  C   VAL D4843     -59.631  25.902  36.076  1.00 51.29 LIG 0.24  C 
ATOM      7  N   ASN D4844     -58.625  26.649  36.514  1.00 50.43 LIG-0.35  N 
ATOM      8 H    ASN D4844     -57.908  26.826  36.074  1.00 50.43 LIG 0.16  HD
ATOM      9 O    VAL D4843     -60.638  25.729  36.778  1.00 47.22 LIG-0.27  OA
BRANCH 7 10
ATOM     10  CA  ASN D4844     -58.710  27.240  37.857  1.00 46.88 LIG 0.17  C 
BRANCH 10 11
ATOM     11  CB  ASN D4844     -58.344  26.203  38.919  1.00 66.72 LIG 0.14  C 
BRANCH 11 12
ATOM     12  CG  ASN D4844     -57.361  25.167  38.411  1.00 62.42 LIG 0.22  C 
ATOM     13 OD1  ASN D4844     -57.438  23.987  38.758  1.00 56.11 LIG-0.27  OA
ATOM     14  ND2 ASN D4844     -56.425  25.610  37.580  1.00 67.26 LIG-0.37  N 
ATOM     15 21HD ASN D4844     -55.840  25.065  37.260  1.00 67.26 LIG 0.16  HD
ATOM     16 22HD ASN D4844     -56.403  26.442  37.361  1.00 67.26 LIG 0.16  HD
ENDBRANCH 11 12
ENDBRANCH 10 11
BRANCH 10 17
ATOM     17  C   ASN D4844     -57.906  28.534  38.069  1.00 52.57 LIG 0.22  C 
ATOM     18 O    ASN D4844     -56.665  28.537  38.036  1.00 48.91 LIG-0.29  OA
ENDBRANCH 10 17
ENDBRANCH 7 10
ENDBRANCH 5 6
BRANCH 5 19
ATOM     19  CB  VAL D4843     -60.579  25.803  33.674  1.00 37.59 LIG 0.01  C 
ATOM     20  CG1 VAL D4843     -61.057  27.175  34.057  1.00 42.19 LIG 0.01  C 
ATOM     21  CG2 VAL D4843     -60.033  25.786  32.243  1.00 33.91 LIG 0.01  C 
ENDBRANCH 5 19
ENDBRANCH 3 5
BRANCH 1 22
ATOM     22  CA  VAL D4842     -59.691  21.437  34.700  1.00 42.26 LIG 0.18  C 
BRANCH 22 23
ATOM     23  N   VAL D4842     -59.939  20.372  33.723  1.00 51.43 LIG-0.34  N 
ATOM     24 H    VAL D4842     -59.292  19.811  33.646  1.00 51.43 LIG 0.16  HD
ATOM     25  C   LEU D4841     -61.069  20.291  33.023  1.00 54.30 LIG 0.26  C 
ATOM     26 O    LEU D4841     -61.355  19.317  32.330  1.00 66.57 LIG-0.27  OA
BRANCH 25 27
ATOM     27  CA  LEU D4841     -62.032  21.462  33.148  1.00 50.85 LIG 0.40  C 
ATOM     28  N   LEU D4841     -62.879  21.567  31.955  1.00 66.18 LIG 0.61  N 
BRANCH 27 29
ATOM     29  CB  LEU D4841     -62.904  21.304  34.400  1.00 58.40 LIG 0.06  C 
BRANCH 29 30
ATOM     30  CG  LEU D4841     -63.274  22.588  35.153  1.00 54.26 LIG-0.02  C 
ATOM     31  CD2 LEU D4841     -63.194  23.845  34.254  1.00 54.78 LIG 0.01  C 
ATOM     32  CD1 LEU D4841     -62.435  22.757  36.427  1.00 32.44 LIG 0.01  C 
ENDBRANCH 29 30
ENDBRANCH 27 29
ENDBRANCH 25 27
ENDBRANCH 22 23
BRANCH 22 33
ATOM     33  CB  VAL D4842     -58.540  21.069  35.672  1.00 48.47 LIG 0.01  C 
ATOM     34  CG2 VAL D4842     -58.378  19.578  35.786  1.00 42.42 LIG 0.01  C 
ATOM     35  CG1 VAL D4842     -58.827  21.664  37.040  1.00 34.87 LIG 0.01  C 
ENDBRANCH 22 33
ENDBRANCH 1 22
TORSDOF 13
ENDMDL
MODEL 55
USER: ADFR SOLUTION from run 116
USER: SCORE 9.301589 LL:  -3.056 LR:  -7.528 RR:   0.000 FEB:  -3.650
USER: RMSD 7.884815
USER: SEED 115
USER: STATUS no improvement in best in 38 clusters for 5 generations
USER: GENES 15
USER: genes 0 Translation |==|  0.36592 0.30975 0.25052
USER: genes 1 Rotation |==|  0.18326 0.72600 0.51964 0.81340
USER: genes 2 Torsion [C]-N--CA-[CB] |==|  0.28121
USER: genes 3 Torsion [N]-CA--C-[N] |==|  0.90578
USER: genes 4 Torsion [C]-N--CA-[CB] |==|  0.32419
USER: genes 5 Torsion [N]-CA--CB-[CG] |==|  0.91682
USER: genes 6 Torsion [CA]-CB--CG-[OD1] |==|  0.21923
USER: genes 7 Torsion [N]-CA--C-[O] |==|  0.97070
USER: genes 8 Torsion [N]-CA--CB-[CG2] |==|  0.80766
USER: genes 9 Torsion [N]-C--CA-[N] |==|  0.93578
USER: genes 10 Torsion [C]-CA--N-[C] |==|  0.81470
USER: genes 11 Torsion [N]-C--CA-[N] |==|  0.44314
USER: genes 12 Torsion [C]-CA--CB-[CG] |==|  0.40698
USER: genes 13 Torsion [CA]-CB--CG-[CD2] |==|  0.07335
USER: genes 14 Torsion [C]-CA--CB-[CG2] |==|  0.52930
ROOT
ATOM      1  C   VAL D4842     -59.856  24.428  35.338  1.00 57.35 LIG 0.24  C 
ATOM      2 O    VAL D4842     -60.777  23.616  35.486  1.00 61.28 LIG-0.27  OA
ATOM      3  N   VAL D4843     -58.881  24.576  36.226  1.00 52.36 LIG-0.35  N 
ATOM      4 H    VAL D4843     -58.156  25.006  36.059  1.00 52.36 LIG 0.16  HD
ENDROOT
BRANCH 3 5
ATOM      5  CA  VAL D4843     -58.936  24.029  37.574  1.00 37.99 LIG 0.18  C 
BRANCH 5 6
ATOM      6  C   VAL D4843     -58.341  25.151  38.459  1.00 51.29 LIG 0.24  C 
ATOM      7  N   ASN D4844     -57.373  25.916  37.972  1.00 50.43 LIG-0.35  N 
ATOM      8 H    ASN D4844     -57.048  25.863  37.177  1.00 50.43 LIG 0.16  HD
ATOM      9 O    VAL D4843     -58.761  25.325  39.612  1.00 47.22 LIG-0.27  OA
BRANCH 7 10
ATOM     10  CA  ASN D4844     -56.784  26.952  38.834  1.00 46.88 LIG 0.17  C 
BRANCH 10 11
ATOM     11  CB  ASN D4844     -55.304  26.660  39.080  1.00 66.72 LIG 0.14  C 
BRANCH 11 12
ATOM     12  CG  ASN D4844     -54.986  25.178  39.055  1.00 62.42 LIG 0.22  C 
ATOM     13 OD1  ASN D4844     -54.866  24.567  37.991  1.00 56.11 LIG-0.27  OA
ATOM     14  ND2 ASN D4844     -54.848  24.591  40.238  1.00 67.26 LIG-0.37  N 
ATOM     15 21HD ASN D4844     -54.667  23.751  40.283  1.00 67.26 LIG 0.16  HD
ATOM     16 22HD ASN D4844     -54.939  25.051  40.959  1.00 67.26 LIG 0.16  HD
ENDBRANCH 11 12
ENDBRANCH 10 11
BRANCH 10 17
ATOM     17  C   ASN D4844     -56.975  28.402  38.358  1.00 52.57 LIG 0.22  C 
ATOM     18 O    ASN D4844     -57.415  28.659  37.226  1.00 48.91 LIG-0.29  OA
ENDBRANCH 10 17
ENDBRANCH 7 10
ENDBRANCH 5 6
BRANCH 5 19
ATOM     19  CB  VAL D4843     -58.072  22.729  37.596  1.00 37.59 LIG 0.01  C 
ATOM     20  CG1 VAL D4843     -57.770  22.270  38.995  1.00 42.19 LIG 0.01  C 
ATOM     21  CG2 VAL D4843     -58.732  21.616  36.778  1.00 33.91 LIG 0.01  C 
ENDBRANCH 5 19
ENDBRANCH 3 5
BRANCH 1 22
ATOM     22  CA  VAL D4842     -59.728  25.304  34.076  1.00 42.26 LIG 0.18  C 
BRANCH 22 23
ATOM     23  N   VAL D4842     -58.916  26.517  34.210  1.00 51.43 LIG-0.34  N 
ATOM     24 H    VAL D4842     -58.192  26.506  33.746  1.00 51.43 LIG 0.16  HD
ATOM     25  C   LEU D4841     -59.277  27.539  34.983  1.00 54.30 LIG 0.26  C 
ATOM     26 O    LEU D4841     -58.694  28.621  34.973  1.00 66.57 LIG-0.27  OA
BRANCH 25 27
ATOM     27  CA  LEU D4841     -60.492  27.324  35.873  1.00 50.85 LIG 0.40  C 
ATOM     28  N   LEU D4841     -60.498  28.281  36.984  1.00 66.18 LIG 0.61  N 
BRANCH 27 29
ATOM     29  CB  LEU D4841     -61.783  27.459  35.056  1.00 58.40 LIG 0.06  C 
BRANCH 29 30
ATOM     30  CG  LEU D4841     -62.963  26.572  35.470  1.00 54.26 LIG-0.02  C 
ATOM     31  CD2 LEU D4841     -62.912  26.183  36.967  1.00 54.78 LIG 0.01  C 
ATOM     32  CD1 LEU D4841     -63.080  25.332  34.574  1.00 32.44 LIG 0.01  C 
ENDBRANCH 29 30
ENDBRANCH 27 29
ENDBRANCH 25 27
ENDBRANCH 22 23
BRANCH 22 33
ATOM     33  CB  VAL D4842     -59.290  24.450  32.859  1.00 48.47 LIG 0.01  C 
ATOM     34  CG2 VAL D4842     -58.915  25.317  31.690  1.00 42.42 LIG 0.01  C 
ATOM     35  CG1 VAL D4842     -60.421  23.514  32.467  1.00 34.87 LIG 0.01  C 
ENDBRANCH 22 33
ENDBRANCH 1 22
TORSDOF 13
ENDMDL
MODEL 56
USER: ADFR SOLUTION from run 26
USER: SCORE 8.765739 LL:  -3.016 LR:  -7.531 RR:   0.000 FEB:  -3.653
USER: RMSD 8.248156
USER: SEED 25
USER: STATUS no improvement in best in 35 clusters for 5 generations
USER: GENES 15
USER: genes 0 Translation |==|  0.31433 0.38303 0.28742
USER: genes 1 Rotation |==|  0.16848 0.84289 0.49536 0.64999
USER: genes 2 Torsion [C]-N--CA-[CB] |==|  0.37603
USER: genes 3 Torsion [N]-CA--C-[N] |==|  0.17152
USER: genes 4 Torsion [C]-N--CA-[CB] |==|  0.17553
USER: genes 5 Torsion [N]-CA--CB-[CG] |==|  0.10186
USER: genes 6 Torsion [CA]-CB--CG-[OD1] |==|  0.25649
USER: genes 7 Torsion [N]-CA--C-[O] |==|  0.95927
USER: genes 8 Torsion [N]-CA--CB-[CG2] |==|  0.82840
USER: genes 9 Torsion [N]-C--CA-[N] |==|  0.46381
USER: genes 10 Torsion [C]-CA--N-[C] |==|  0.76111
USER: genes 11 Torsion [N]-C--CA-[N] |==|  0.41204
USER: genes 12 Torsion [C]-CA--CB-[CG] |==|  0.35800
USER: genes 13 Torsion [CA]-CB--CG-[CD2] |==|  0.09161
USER: genes 14 Torsion [C]-CA--CB-[CG2] |==|  0.76586
ROOT
ATOM      1  C   VAL D4842     -60.939  25.637  35.891  1.00 57.35 LIG 0.24  C 
ATOM      2 O    VAL D4842     -61.726  25.410  36.819  1.00 61.28 LIG-0.27  OA
ATOM      3  N   VAL D4843     -59.626  25.703  36.066  1.00 52.36 LIG-0.35  N 
ATOM      4 H    VAL D4843     -59.065  25.690  35.414  1.00 52.36 LIG 0.16  HD
ENDROOT
BRANCH 3 5
ATOM      5  CA  VAL D4843     -58.995  25.802  37.374  1.00 37.99 LIG 0.18  C 
BRANCH 5 6
ATOM      6  C   VAL D4843     -58.544  27.281  37.462  1.00 51.29 LIG 0.24  C 
ATOM      7  N   ASN D4844     -59.459  28.241  37.412  1.00 50.43 LIG-0.35  N 
ATOM      8 H    ASN D4844     -60.308  28.118  37.358  1.00 50.43 LIG 0.16  HD
ATOM      9 O    VAL D4843     -57.342  27.562  37.568  1.00 47.22 LIG-0.27  OA
BRANCH 7 10
ATOM     10  CA  ASN D4844     -59.020  29.644  37.453  1.00 46.88 LIG 0.17  C 
BRANCH 10 11
ATOM     11  CB  ASN D4844     -58.165  29.969  36.228  1.00 66.72 LIG 0.14  C 
BRANCH 11 12
ATOM     12  CG  ASN D4844     -58.647  29.268  34.974  1.00 62.42 LIG 0.22  C 
ATOM     13 OD1  ASN D4844     -59.443  29.810  34.203  1.00 56.11 LIG-0.27  OA
ATOM     14  ND2 ASN D4844     -58.162  28.050  34.763  1.00 67.26 LIG-0.37  N 
ATOM     15 21HD ASN D4844     -58.401  27.606  34.066  1.00 67.26 LIG 0.16  HD
ATOM     16 22HD ASN D4844     -57.608  27.705  35.324  1.00 67.26 LIG 0.16  HD
ENDBRANCH 11 12
ENDBRANCH 10 11
BRANCH 10 17
ATOM     17  C   ASN D4844     -60.138  30.688  37.622  1.00 52.57 LIG 0.22  C 
ATOM     18 O    ASN D4844     -61.331  30.390  37.450  1.00 48.91 LIG-0.29  OA
ENDBRANCH 10 17
ENDBRANCH 7 10
ENDBRANCH 5 6
BRANCH 5 19
ATOM     19  CB  VAL D4843     -57.792  24.809  37.401  1.00 37.59 LIG 0.01  C 
ATOM     20  CG1 VAL D4843     -56.965  24.949  38.648  1.00 42.19 LIG 0.01  C 
ATOM     21  CG2 VAL D4843     -58.267  23.366  37.211  1.00 33.91 LIG 0.01  C 
ENDBRANCH 5 19
ENDBRANCH 3 5
BRANCH 1 22
ATOM     22  CA  VAL D4842     -61.414  25.811  34.436  1.00 42.26 LIG 0.18  C 
BRANCH 22 23
ATOM     23  N   VAL D4842     -62.810  25.453  34.163  1.00 51.43 LIG-0.34  N 
ATOM     24 H    VAL D4842     -63.355  26.117  34.205  1.00 51.43 LIG 0.16  HD
ATOM     25  C   LEU D4841     -63.188  24.209  33.878  1.00 54.30 LIG 0.26  C 
ATOM     26 O    LEU D4841     -64.319  23.929  33.485  1.00 66.57 LIG-0.27  OA
BRANCH 25 27
ATOM     27  CA  LEU D4841     -62.129  23.125  34.022  1.00 50.85 LIG 0.40  C 
ATOM     28  N   LEU D4841     -62.740  21.854  34.422  1.00 66.18 LIG 0.61  N 
BRANCH 27 29
ATOM     29  CB  LEU D4841     -61.363  22.950  32.705  1.00 58.40 LIG 0.06  C 
BRANCH 29 30
ATOM     30  CG  LEU D4841     -59.832  22.987  32.783  1.00 54.26 LIG-0.02  C 
ATOM     31  CD2 LEU D4841     -59.294  22.399  34.110  1.00 54.78 LIG 0.01  C 
ATOM     32  CD1 LEU D4841     -59.288  24.401  32.538  1.00 32.44 LIG 0.01  C 
ENDBRANCH 29 30
ENDBRANCH 27 29
ENDBRANCH 25 27
ENDBRANCH 22 23
BRANCH 22 33
ATOM     33  CB  VAL D4842     -61.072  27.229  33.914  1.00 48.47 LIG 0.01  C 
ATOM     34  CG2 VAL D4842     -62.125  28.226  34.311  1.00 42.42 LIG 0.01  C 
ATOM     35  CG1 VAL D4842     -60.939  27.192  32.401  1.00 34.87 LIG 0.01  C 
ENDBRANCH 22 33
ENDBRANCH 1 22
TORSDOF 13
ENDMDL
MODEL 57
USER: ADFR SOLUTION from run 33
USER: SCORE 8.490778 LL:  -2.559 LR:  -7.508 RR:   0.000 FEB:  -3.630
USER: RMSD 7.806433
USER: SEED 32
USER: STATUS no improvement in best in 28 clusters for 5 generations
USER: GENES 15
USER: genes 0 Translation |==|  0.36989 0.37286 0.10491
USER: genes 1 Rotation |==|  0.46724 0.38829 0.53748 0.98481
USER: genes 2 Torsion [C]-N--CA-[CB] |==|  0.41598
USER: genes 3 Torsion [N]-CA--C-[N] |==|  0.91432
USER: genes 4 Torsion [C]-N--CA-[CB] |==|  0.30683
USER: genes 5 Torsion [N]-CA--CB-[CG] |==|  0.70530
USER: genes 6 Torsion [CA]-CB--CG-[OD1] |==|  0.56026
USER: genes 7 Torsion [N]-CA--C-[O] |==|  0.65253
USER: genes 8 Torsion [N]-CA--CB-[CG2] |==|  0.36267
USER: genes 9 Torsion [N]-C--CA-[N] |==|  0.27418
USER: genes 10 Torsion [C]-CA--N-[C] |==|  0.64892
USER: genes 11 Torsion [N]-C--CA-[N] |==|  0.82100
USER: genes 12 Torsion [C]-CA--CB-[CG] |==|  0.49999
USER: genes 13 Torsion [CA]-CB--CG-[CD2] |==|  0.65974
USER: genes 14 Torsion [C]-CA--CB-[CG2] |==|  0.64743
ROOT
ATOM      1  C   VAL D4842     -59.772  25.469  33.154  1.00 57.35 LIG 0.24  C 
ATOM      2 O    VAL D4842     -59.470  25.619  31.964  1.00 61.28 LIG-0.27  OA
ATOM      3  N   VAL D4843     -59.868  24.275  33.724  1.00 52.36 LIG-0.35  N 
ATOM      4 H    VAL D4843     -59.909  24.164  34.576  1.00 52.36 LIG 0.16  HD
ENDROOT
BRANCH 3 5
ATOM      5  CA  VAL D4843     -59.913  23.029  32.972  1.00 37.99 LIG 0.18  C 
BRANCH 5 6
ATOM      6  C   VAL D4843     -61.424  22.791  32.731  1.00 51.29 LIG 0.24  C 
ATOM      7  N   ASN D4844     -62.299  23.224  33.629  1.00 50.43 LIG-0.35  N 
ATOM      8 H    ASN D4844     -62.105  23.660  34.344  1.00 50.43 LIG 0.16  HD
ATOM      9 O    VAL D4843     -61.808  22.195  31.714  1.00 47.22 LIG-0.27  OA
BRANCH 7 10
ATOM     10  CA  ASN D4844     -63.729  22.956  33.414  1.00 46.88 LIG 0.17  C 
BRANCH 10 11
ATOM     11  CB  ASN D4844     -64.239  21.940  34.436  1.00 66.72 LIG 0.14  C 
BRANCH 11 12
ATOM     12  CG  ASN D4844     -64.475  20.569  33.831  1.00 62.42 LIG 0.22  C 
ATOM     13 OD1  ASN D4844     -65.232  19.756  34.365  1.00 56.11 LIG-0.27  OA
ATOM     14  ND2 ASN D4844     -63.821  20.309  32.705  1.00 67.26 LIG-0.37  N 
ATOM     15 21HD ASN D4844     -63.918  19.547  32.318  1.00 67.26 LIG 0.16  HD
ATOM     16 22HD ASN D4844     -63.301  20.903  32.363  1.00 67.26 LIG 0.16  HD
ENDBRANCH 11 12
ENDBRANCH 10 11
BRANCH 10 17
ATOM     17  C   ASN D4844     -64.642  24.194  33.384  1.00 52.57 LIG 0.22  C 
ATOM     18 O    ASN D4844     -65.626  24.290  34.136  1.00 48.91 LIG-0.29  OA
ENDBRANCH 10 17
ENDBRANCH 7 10
ENDBRANCH 5 6
BRANCH 5 19
ATOM     19  CB  VAL D4843     -59.266  21.916  33.853  1.00 37.59 LIG 0.01  C 
ATOM     20  CG1 VAL D4843     -58.916  22.409  35.229  1.00 42.19 LIG 0.01  C 
ATOM     21  CG2 VAL D4843     -60.164  20.677  33.920  1.00 33.91 LIG 0.01  C 
ENDBRANCH 5 19
ENDBRANCH 3 5
BRANCH 1 22
ATOM     22  CA  VAL D4842     -60.013  26.664  34.096  1.00 42.26 LIG 0.18  C 
BRANCH 22 23
ATOM     23  N   VAL D4842     -58.815  27.325  34.623  1.00 51.43 LIG-0.34  N 
ATOM     24 H    VAL D4842     -58.259  27.575  34.016  1.00 51.43 LIG 0.16  HD
ATOM     25  C   LEU D4841     -58.615  27.516  35.925  1.00 54.30 LIG 0.26  C 
ATOM     26 O    LEU D4841     -57.703  28.212  36.365  1.00 66.57 LIG-0.27  OA
BRANCH 25 27
ATOM     27  CA  LEU D4841     -59.608  26.854  36.870  1.00 50.85 LIG 0.40  C 
ATOM     28  N   LEU D4841     -60.949  27.417  36.690  1.00 66.18 LIG 0.61  N 
BRANCH 27 29
ATOM     29  CB  LEU D4841     -59.636  25.339  36.638  1.00 58.40 LIG 0.06  C 
BRANCH 29 30
ATOM     30  CG  LEU D4841     -60.591  24.520  37.515  1.00 54.26 LIG-0.02  C 
ATOM     31  CD2 LEU D4841     -59.858  23.419  38.319  1.00 54.78 LIG 0.01  C 
ATOM     32  CD1 LEU D4841     -61.750  23.936  36.697  1.00 32.44 LIG 0.01  C 
ENDBRANCH 29 30
ENDBRANCH 27 29
ENDBRANCH 25 27
ENDBRANCH 22 23
BRANCH 22 33
ATOM     33  CB  VAL D4842     -60.994  27.678  33.454  1.00 48.47 LIG 0.01  C 
ATOM     34  CG2 VAL D4842     -60.416  29.066  33.445  1.00 42.42 LIG 0.01  C 
ATOM     35  CG1 VAL D4842     -62.304  27.669  34.224  1.00 34.87 LIG 0.01  C 
ENDBRANCH 22 33
ENDBRANCH 1 22
TORSDOF 13
ENDMDL
MODEL 58
USER: ADFR SOLUTION from run 86
USER: SCORE 8.531888 LL:  -2.787 LR:  -7.478 RR:   0.000 FEB:  -3.600
USER: RMSD 8.727026
USER: SEED 85
USER: STATUS no improvement in best in 13 clusters for 5 generations
USER: GENES 15
USER: genes 0 Translation |==|  0.33976 0.35364 0.08555
USER: genes 1 Rotation |==|  0.63126 0.55691 0.03124 0.59898
USER: genes 2 Torsion [C]-N--CA-[CB] |==|  0.43971
USER: genes 3 Torsion [N]-CA--C-[N] |==|  0.57145
USER: genes 4 Torsion [C]-N--CA-[CB] |==|  0.49127
USER: genes 5 Torsion [N]-CA--CB-[CG] |==|  0.88230
USER: genes 6 Torsion [CA]-CB--CG-[OD1] |==|  0.92034
USER: genes 7 Torsion [N]-CA--C-[O] |==|  0.34175
USER: genes 8 Torsion [N]-CA--CB-[CG2] |==|  0.53797
USER: genes 9 Torsion [N]-C--CA-[N] |==|  0.95559
USER: genes 10 Torsion [C]-CA--N-[C] |==|  0.77239
USER: genes 11 Torsion [N]-C--CA-[N] |==|  0.38095
USER: genes 12 Torsion [C]-CA--CB-[CG] |==|  0.04586
USER: genes 13 Torsion [CA]-CB--CG-[CD2] |==|  0.67962
USER: genes 14 Torsion [C]-CA--CB-[CG2] |==|  0.71419
ROOT
ATOM      1  C   VAL D4842     -60.405  25.152  32.863  1.00 57.35 LIG 0.24  C 
ATOM      2 O    VAL D4842     -59.583  25.320  31.955  1.00 61.28 LIG-0.27  OA
ATOM      3  N   VAL D4843     -61.100  26.149  33.395  1.00 52.36 LIG-0.35  N 
ATOM      4 H    VAL D4843     -61.786  26.027  33.899  1.00 52.36 LIG 0.16  HD
ENDROOT
BRANCH 3 5
ATOM      5  CA  VAL D4843     -60.777  27.553  33.183  1.00 37.99 LIG 0.18  C 
BRANCH 5 6
ATOM      6  C   VAL D4843     -59.650  27.837  34.206  1.00 51.29 LIG 0.24  C 
ATOM      7  N   ASN D4844     -59.473  29.076  34.647  1.00 50.43 LIG-0.35  N 
ATOM      8 H    ASN D4844     -59.954  29.755  34.432  1.00 50.43 LIG 0.16  HD
ATOM      9 O    VAL D4843     -58.917  26.918  34.599  1.00 47.22 LIG-0.27  OA
BRANCH 7 10
ATOM     10  CA  ASN D4844     -58.373  29.346  35.585  1.00 46.88 LIG 0.17  C 
BRANCH 10 11
ATOM     11  CB  ASN D4844     -58.300  30.839  35.904  1.00 66.72 LIG 0.14  C 
BRANCH 11 12
ATOM     12  CG  ASN D4844     -58.491  31.711  34.678  1.00 62.42 LIG 0.22  C 
ATOM     13 OD1  ASN D4844     -58.169  31.316  33.556  1.00 56.11 LIG-0.27  OA
ATOM     14  ND2 ASN D4844     -59.020  32.910  34.893  1.00 67.26 LIG-0.37  N 
ATOM     15 21HD ASN D4844     -59.151  33.446  34.233  1.00 67.26 LIG 0.16  HD
ATOM     16 22HD ASN D4844     -59.231  33.150  35.691  1.00 67.26 LIG 0.16  HD
ENDBRANCH 11 12
ENDBRANCH 10 11
BRANCH 10 17
ATOM     17  C   ASN D4844     -58.383  28.518  36.881  1.00 52.57 LIG 0.22  C 
ATOM     18 O    ASN D4844     -57.415  27.811  37.204  1.00 48.91 LIG-0.29  OA
ENDBRANCH 10 17
ENDBRANCH 7 10
ENDBRANCH 5 6
BRANCH 5 19
ATOM     19  CB  VAL D4843     -62.065  28.387  33.467  1.00 37.59 LIG 0.01  C 
ATOM     20  CG1 VAL D4843     -62.445  28.371  34.921  1.00 42.19 LIG 0.01  C 
ATOM     21  CG2 VAL D4843     -61.916  29.820  32.949  1.00 33.91 LIG 0.01  C 
ENDBRANCH 5 19
ENDBRANCH 3 5
BRANCH 1 22
ATOM     22  CA  VAL D4842     -60.736  23.755  33.422  1.00 42.26 LIG 0.18  C 
BRANCH 22 23
ATOM     23  N   VAL D4842     -61.478  23.722  34.686  1.00 51.43 LIG-0.34  N 
ATOM     24 H    VAL D4842     -62.325  23.605  34.591  1.00 51.43 LIG 0.16  HD
ATOM     25  C   LEU D4841     -60.885  23.862  35.870  1.00 54.30 LIG 0.26  C 
ATOM     26 O    LEU D4841     -61.468  23.670  36.935  1.00 66.57 LIG-0.27  OA
BRANCH 25 27
ATOM     27  CA  LEU D4841     -59.411  24.240  35.852  1.00 50.85 LIG 0.40  C 
ATOM     28  N   LEU D4841     -59.126  25.266  36.860  1.00 66.18 LIG 0.61  N 
BRANCH 27 29
ATOM     29  CB  LEU D4841     -58.540  23.002  36.099  1.00 58.40 LIG 0.06  C 
BRANCH 29 30
ATOM     30  CG  LEU D4841     -59.212  21.635  35.923  1.00 54.26 LIG-0.02  C 
ATOM     31  CD2 LEU D4841     -59.288  20.839  37.249  1.00 54.78 LIG 0.01  C 
ATOM     32  CD1 LEU D4841     -58.540  20.813  34.816  1.00 32.44 LIG 0.01  C 
ENDBRANCH 29 30
ENDBRANCH 27 29
ENDBRANCH 25 27
ENDBRANCH 22 23
BRANCH 22 33
ATOM     33  CB  VAL D4842     -61.409  22.877  32.337  1.00 48.47 LIG 0.01  C 
ATOM     34  CG2 VAL D4842     -62.893  22.781  32.556  1.00 42.42 LIG 0.01  C 
ATOM     35  CG1 VAL D4842     -60.792  21.488  32.357  1.00 34.87 LIG 0.01  C 
ENDBRANCH 22 33
ENDBRANCH 1 22
TORSDOF 13
ENDMDL
MODEL 59
USER: ADFR SOLUTION from run 72
USER: SCORE 9.296014 LL:  -3.225 LR:  -7.478 RR:   0.000 FEB:  -3.600
USER: RMSD 6.235688
USER: SEED 71
USER: STATUS no improvement in best in 19 clusters for 5 generations
USER: GENES 15
USER: genes 0 Translation |==|  0.35726 0.48099 0.22531
USER: genes 1 Rotation |==|  0.56953 0.78701 0.61424 0.88697
USER: genes 2 Torsion [C]-N--CA-[CB] |==|  0.39861
USER: genes 3 Torsion [N]-CA--C-[N] |==|  0.91291
USER: genes 4 Torsion [C]-N--CA-[CB] |==|  0.17323
USER: genes 5 Torsion [N]-CA--CB-[CG] |==|  0.64026
USER: genes 6 Torsion [CA]-CB--CG-[OD1] |==|  0.65887
USER: genes 7 Torsion [N]-CA--C-[O] |==|  0.00588
USER: genes 8 Torsion [N]-CA--CB-[CG2] |==|  0.88412
USER: genes 9 Torsion [N]-C--CA-[N] |==|  0.91186
USER: genes 10 Torsion [C]-CA--N-[C] |==|  0.74649
USER: genes 11 Torsion [N]-C--CA-[N] |==|  0.38113
USER: genes 12 Torsion [C]-CA--CB-[CG] |==|  0.06587
USER: genes 13 Torsion [CA]-CB--CG-[CD2] |==|  0.72375
USER: genes 14 Torsion [C]-CA--CB-[CG2] |==|  0.43857
ROOT
ATOM      1  C   VAL D4842     -60.037  27.253  34.960  1.00 57.35 LIG 0.24  C 
ATOM      2 O    VAL D4842     -61.270  27.350  34.920  1.00 61.28 LIG-0.27  OA
ATOM      3  N   VAL D4843     -59.389  26.175  34.538  1.00 52.36 LIG-0.35  N 
ATOM      4 H    VAL D4843     -58.540  26.161  34.403  1.00 52.36 LIG 0.16  HD
ENDROOT
BRANCH 3 5
ATOM      5  CA  VAL D4843     -60.043  24.905  34.258  1.00 37.99 LIG 0.18  C 
BRANCH 5 6
ATOM      6  C   VAL D4843     -59.837  24.084  35.554  1.00 51.29 LIG 0.24  C 
ATOM      7  N   ASN D4844     -58.743  24.280  36.279  1.00 50.43 LIG-0.35  N 
ATOM      8 H    ASN D4844     -58.127  24.855  36.106  1.00 50.43 LIG 0.16  HD
ATOM      9 O    VAL D4843     -60.681  23.247  35.904  1.00 47.22 LIG-0.27  OA
BRANCH 7 10
ATOM     10  CA  ASN D4844     -58.533  23.466  37.485  1.00 46.88 LIG 0.17  C 
BRANCH 10 11
ATOM     11  CB  ASN D4844     -58.416  21.987  37.115  1.00 66.72 LIG 0.14  C 
BRANCH 11 12
ATOM     12  CG  ASN D4844     -59.329  21.102  37.942  1.00 62.42 LIG 0.22  C 
ATOM     13 OD1  ASN D4844     -58.882  20.170  38.612  1.00 56.11 LIG-0.27  OA
ATOM     14  ND2 ASN D4844     -60.623  21.396  37.895  1.00 67.26 LIG-0.37  N 
ATOM     15 21HD ASN D4844     -61.187  20.926  38.345  1.00 67.26 LIG 0.16  HD
ATOM     16 22HD ASN D4844     -60.898  22.054  37.414  1.00 67.26 LIG 0.16  HD
ENDBRANCH 11 12
ENDBRANCH 10 11
BRANCH 10 17
ATOM     17  C   ASN D4844     -57.358  23.892  38.381  1.00 52.57 LIG 0.22  C 
ATOM     18 O    ASN D4844     -56.666  24.887  38.110  1.00 48.91 LIG-0.29  OA
ENDBRANCH 10 17
ENDBRANCH 7 10
ENDBRANCH 5 6
BRANCH 5 19
ATOM     19  CB  VAL D4843     -59.333  24.264  33.026  1.00 37.59 LIG 0.01  C 
ATOM     20  CG1 VAL D4843     -60.113  23.114  32.454  1.00 42.19 LIG 0.01  C 
ATOM     21  CG2 VAL D4843     -59.034  25.317  31.955  1.00 33.91 LIG 0.01  C 
ENDBRANCH 5 19
ENDBRANCH 3 5
BRANCH 1 22
ATOM     22  CA  VAL D4842     -59.139  28.403  35.455  1.00 42.26 LIG 0.18  C 
BRANCH 22 23
ATOM     23  N   VAL D4842     -57.872  28.012  36.079  1.00 51.43 LIG-0.34  N 
ATOM     24 H    VAL D4842     -57.220  27.929  35.524  1.00 51.43 LIG 0.16  HD
ATOM     25  C   LEU D4841     -57.751  27.807  37.389  1.00 54.30 LIG 0.26  C 
ATOM     26 O    LEU D4841     -56.665  27.644  37.941  1.00 66.57 LIG-0.27  OA
BRANCH 25 27
ATOM     27  CA  LEU D4841     -59.038  27.821  38.202  1.00 50.85 LIG 0.40  C 
ATOM     28  N   LEU D4841     -59.043  26.731  39.182  1.00 66.18 LIG 0.61  N 
BRANCH 27 29
ATOM     29  CB  LEU D4841     -59.204  29.169  38.913  1.00 58.40 LIG 0.06  C 
BRANCH 29 30
ATOM     30  CG  LEU D4841     -58.474  30.371  38.301  1.00 54.26 LIG-0.02  C 
ATOM     31  CD2 LEU D4841     -57.148  30.692  39.032  1.00 54.78 LIG 0.01  C 
ATOM     32  CD1 LEU D4841     -59.382  31.606  38.225  1.00 32.44 LIG 0.01  C 
ENDBRANCH 29 30
ENDBRANCH 27 29
ENDBRANCH 25 27
ENDBRANCH 22 23
BRANCH 22 33
ATOM     33  CB  VAL D4842     -58.929  29.454  34.336  1.00 48.47 LIG 0.01  C 
ATOM     34  CG2 VAL D4842     -58.540  30.790  34.906  1.00 42.42 LIG 0.01  C 
ATOM     35  CG1 VAL D4842     -60.208  29.591  33.526  1.00 34.87 LIG 0.01  C 
ENDBRANCH 22 33
ENDBRANCH 1 22
TORSDOF 13
ENDMDL
MODEL 60
USER: ADFR SOLUTION from run 136
USER: SCORE 8.258580 LL:  -2.004 LR:  -7.474 RR:   0.000 FEB:  -3.596
USER: RMSD 6.791916
USER: SEED 135
USER: STATUS no improvement in best in 16 clusters for 5 generations
USER: GENES 15
USER: genes 0 Translation |==|  0.44765 0.34075 0.40501
USER: genes 1 Rotation |==|  0.28903 0.23017 0.30474 0.80751
USER: genes 2 Torsion [C]-N--CA-[CB] |==|  0.52518
USER: genes 3 Torsion [N]-CA--C-[N] |==|  0.74379
USER: genes 4 Torsion [C]-N--CA-[CB] |==|  0.30876
USER: genes 5 Torsion [N]-CA--CB-[CG] |==|  0.74430
USER: genes 6 Torsion [CA]-CB--CG-[OD1] |==|  0.99950
USER: genes 7 Torsion [N]-CA--C-[O] |==|  0.46408
USER: genes 8 Torsion [N]-CA--CB-[CG2] |==|  0.83147
USER: genes 9 Torsion [N]-C--CA-[N] |==|  0.98779
USER: genes 10 Torsion [C]-CA--N-[C] |==|  0.79177
USER: genes 11 Torsion [N]-C--CA-[N] |==|  0.30903
USER: genes 12 Torsion [C]-CA--CB-[CG] |==|  0.79366
USER: genes 13 Torsion [CA]-CB--CG-[CD2] |==|  0.76666
USER: genes 14 Torsion [C]-CA--CB-[CG2] |==|  0.50885
ROOT
ATOM      1  C   VAL D4842     -58.139  24.939  37.655  1.00 57.35 LIG 0.24  C 
ATOM      2 O    VAL D4842     -57.485  23.937  37.345  1.00 61.28 LIG-0.27  OA
ATOM      3  N   VAL D4843     -59.463  24.930  37.752  1.00 52.36 LIG-0.35  N 
ATOM      4 H    VAL D4843     -59.910  25.562  38.126  1.00 52.36 LIG 0.16  HD
ENDROOT
BRANCH 3 5
ATOM      5  CA  VAL D4843     -60.296  23.851  37.240  1.00 37.99 LIG 0.18  C 
BRANCH 5 6
ATOM      6  C   VAL D4843     -59.823  23.675  35.776  1.00 51.29 LIG 0.24  C 
ATOM      7  N   ASN D4844     -60.442  24.342  34.810  1.00 50.43 LIG-0.35  N 
ATOM      8 H    ASN D4844     -61.087  24.899  34.924  1.00 50.43 LIG 0.16  HD
ATOM      9 O    VAL D4843     -58.881  22.914  35.511  1.00 47.22 LIG-0.27  OA
BRANCH 7 10
ATOM     10  CA  ASN D4844     -60.015  24.136  33.418  1.00 46.88 LIG 0.17  C 
BRANCH 10 11
ATOM     11  CB  ASN D4844     -61.100  23.402  32.632  1.00 66.72 LIG 0.14  C 
BRANCH 11 12
ATOM     12  CG  ASN D4844     -60.917  21.897  32.645  1.00 62.42 LIG 0.22  C 
ATOM     13 OD1  ASN D4844     -59.973  21.372  33.240  1.00 56.11 LIG-0.27  OA
ATOM     14  ND2 ASN D4844     -61.828  21.192  31.984  1.00 67.26 LIG-0.37  N 
ATOM     15 21HD ASN D4844     -61.773  20.334  31.958  1.00 67.26 LIG 0.16  HD
ATOM     16 22HD ASN D4844     -62.472  21.594  31.580  1.00 67.26 LIG 0.16  HD
ENDBRANCH 11 12
ENDBRANCH 10 11
BRANCH 10 17
ATOM     17  C   ASN D4844     -59.566  25.400  32.665  1.00 52.57 LIG 0.22  C 
ATOM     18 O    ASN D4844     -58.967  25.328  31.580  1.00 48.91 LIG-0.29  OA
ENDBRANCH 10 17
ENDBRANCH 7 10
ENDBRANCH 5 6
BRANCH 5 19
ATOM     19  CB  VAL D4843     -61.784  24.311  37.335  1.00 37.59 LIG 0.01  C 
ATOM     20  CG1 VAL D4843     -62.726  23.328  36.701  1.00 42.19 LIG 0.01  C 
ATOM     21  CG2 VAL D4843     -62.178  24.599  38.787  1.00 33.91 LIG 0.01  C 
ENDBRANCH 5 19
ENDBRANCH 3 5
BRANCH 1 22
ATOM     22  CA  VAL D4842     -57.468  26.281  38.009  1.00 42.26 LIG 0.18  C 
BRANCH 22 23
ATOM     23  N   VAL D4842     -58.371  27.397  38.309  1.00 51.43 LIG-0.34  N 
ATOM     24 H    VAL D4842     -58.422  27.589  39.146  1.00 51.43 LIG 0.16  HD
ATOM     25  C   LEU D4841     -59.045  28.047  37.363  1.00 54.30 LIG 0.26  C 
ATOM     26 O    LEU D4841     -59.669  29.083  37.582  1.00 66.57 LIG-0.27  OA
BRANCH 25 27
ATOM     27  CA  LEU D4841     -58.980  27.466  35.959  1.00 50.85 LIG 0.40  C 
ATOM     28  N   LEU D4841     -60.282  26.923  35.561  1.00 66.18 LIG 0.61  N 
BRANCH 27 29
ATOM     29  CB  LEU D4841     -58.529  28.537  34.959  1.00 58.40 LIG 0.06  C 
BRANCH 29 30
ATOM     30  CG  LEU D4841     -59.557  29.611  34.582  1.00 54.26 LIG-0.02  C 
ATOM     31  CD2 LEU D4841     -60.507  29.148  33.451  1.00 54.78 LIG 0.01  C 
ATOM     32  CD1 LEU D4841     -58.881  30.943  34.232  1.00 32.44 LIG 0.01  C 
ENDBRANCH 29 30
ENDBRANCH 27 29
ENDBRANCH 25 27
ENDBRANCH 22 23
BRANCH 22 33
ATOM     33  CB  VAL D4842     -56.407  26.084  39.122  1.00 48.47 LIG 0.01  C 
ATOM     34  CG2 VAL D4842     -55.798  27.396  39.533  1.00 42.42 LIG 0.01  C 
ATOM     35  CG1 VAL D4842     -55.322  25.144  38.623  1.00 34.87 LIG 0.01  C 
ENDBRANCH 22 33
ENDBRANCH 1 22
TORSDOF 13
ENDMDL
MODEL 61
USER: ADFR SOLUTION from run 65
USER: SCORE 8.766827 LL:  -2.298 LR:  -7.463 RR:   0.000 FEB:  -3.585
USER: RMSD 7.875927
USER: SEED 64
USER: STATUS no improvement in best in 27 clusters for 5 generations
USER: GENES 15
USER: genes 0 Translation |==|  0.36442 0.32020 0.26133
USER: genes 1 Rotation |==|  0.23279 0.78920 0.56729 0.80073
USER: genes 2 Torsion [C]-N--CA-[CB] |==|  0.81658
USER: genes 3 Torsion [N]-CA--C-[N] |==|  0.09630
USER: genes 4 Torsion [C]-N--CA-[CB] |==|  0.41141
USER: genes 5 Torsion [N]-CA--CB-[CG] |==|  0.71999
USER: genes 6 Torsion [CA]-CB--CG-[OD1] |==|  0.04601
USER: genes 7 Torsion [N]-CA--C-[O] |==|  0.96313
USER: genes 8 Torsion [N]-CA--CB-[CG2] |==|  0.57512
USER: genes 9 Torsion [N]-C--CA-[N] |==|  0.95565
USER: genes 10 Torsion [C]-CA--N-[C] |==|  0.74243
USER: genes 11 Torsion [N]-C--CA-[N] |==|  0.39724
USER: genes 12 Torsion [C]-CA--CB-[CG] |==|  0.96891
USER: genes 13 Torsion [CA]-CB--CG-[CD2] |==|  0.68911
USER: genes 14 Torsion [C]-CA--CB-[CG2] |==|  0.92021
ROOT
ATOM      1  C   VAL D4842     -59.887  24.600  35.500  1.00 57.35 LIG 0.24  C 
ATOM      2 O    VAL D4842     -60.837  23.872  35.812  1.00 61.28 LIG-0.27  OA
ATOM      3  N   VAL D4843     -58.684  24.484  36.048  1.00 52.36 LIG-0.35  N 
ATOM      4 H    VAL D4843     -57.983  24.862  35.725  1.00 52.36 LIG 0.16  HD
ENDROOT
BRANCH 3 5
ATOM      5  CA  VAL D4843     -58.423  23.704  37.249  1.00 37.99 LIG 0.18  C 
BRANCH 5 6
ATOM      6  C   VAL D4843     -59.003  22.306  36.923  1.00 51.29 LIG 0.24  C 
ATOM      7  N   ASN D4844     -58.929  21.848  35.679  1.00 50.43 LIG-0.35  N 
ATOM      8 H    ASN D4844     -58.557  22.255  35.020  1.00 50.43 LIG 0.16  HD
ATOM      9 O    VAL D4843     -59.538  21.628  37.812  1.00 47.22 LIG-0.27  OA
BRANCH 7 10
ATOM     10  CA  ASN D4844     -59.521  20.538  35.368  1.00 46.88 LIG 0.17  C 
BRANCH 10 11
ATOM     11  CB  ASN D4844     -60.045  20.518  33.933  1.00 66.72 LIG 0.14  C 
BRANCH 11 12
ATOM     12  CG  ASN D4844     -61.547  20.710  33.855  1.00 62.42 LIG 0.22  C 
ATOM     13 OD1  ASN D4844     -62.186  21.156  34.810  1.00 56.11 LIG-0.27  OA
ATOM     14  ND2 ASN D4844     -62.119  20.371  32.705  1.00 67.26 LIG-0.37  N 
ATOM     15 21HD ASN D4844     -62.969  20.459  32.605  1.00 67.26 LIG 0.16  HD
ATOM     16 22HD ASN D4844     -61.639  20.062  32.061  1.00 67.26 LIG 0.16  HD
ENDBRANCH 11 12
ENDBRANCH 10 11
BRANCH 10 17
ATOM     17  C   ASN D4844     -58.618  19.320  35.629  1.00 52.57 LIG 0.22  C 
ATOM     18 O    ASN D4844     -57.401  19.451  35.838  1.00 48.91 LIG-0.29  OA
ENDBRANCH 10 17
ENDBRANCH 7 10
ENDBRANCH 5 6
BRANCH 5 19
ATOM     19  CB  VAL D4843     -59.163  24.395  38.436  1.00 37.59 LIG 0.01  C 
ATOM     20  CG1 VAL D4843     -60.617  24.023  38.496  1.00 42.19 LIG 0.01  C 
ATOM     21  CG2 VAL D4843     -58.461  24.101  39.766  1.00 33.91 LIG 0.01  C 
ENDBRANCH 5 19
ENDBRANCH 3 5
BRANCH 1 22
ATOM     22  CA  VAL D4842     -60.004  25.678  34.404  1.00 42.26 LIG 0.18  C 
BRANCH 22 23
ATOM     23  N   VAL D4842     -58.923  26.666  34.350  1.00 51.43 LIG-0.34  N 
ATOM     24 H    VAL D4842     -58.252  26.423  33.870  1.00 51.43 LIG 0.16  HD
ATOM     25  C   LEU D4841     -58.984  27.832  34.990  1.00 54.30 LIG 0.26  C 
ATOM     26 O    LEU D4841     -58.164  28.731  34.818  1.00 66.57 LIG-0.27  OA
BRANCH 25 27
ATOM     27  CA  LEU D4841     -60.159  28.027  35.938  1.00 50.85 LIG 0.40  C 
ATOM     28  N   LEU D4841     -59.746  28.779  37.127  1.00 66.18 LIG 0.61  N 
BRANCH 27 29
ATOM     29  CB  LEU D4841     -61.304  28.756  35.224  1.00 58.40 LIG 0.06  C 
BRANCH 29 30
ATOM     30  CG  LEU D4841     -60.987  29.371  33.855  1.00 54.26 LIG-0.02  C 
ATOM     31  CD2 LEU D4841     -61.016  30.918  33.883  1.00 54.78 LIG 0.01  C 
ATOM     32  CD1 LEU D4841     -61.907  28.815  32.760  1.00 32.44 LIG 0.01  C 
ENDBRANCH 29 30
ENDBRANCH 27 29
ENDBRANCH 25 27
ENDBRANCH 22 23
BRANCH 22 33
ATOM     33  CB  VAL D4842     -60.258  25.025  33.021  1.00 48.47 LIG 0.01  C 
ATOM     34  CG2 VAL D4842     -59.659  23.648  32.949  1.00 42.42 LIG 0.01  C 
ATOM     35  CG1 VAL D4842     -59.665  25.905  31.933  1.00 34.87 LIG 0.01  C 
ENDBRANCH 22 33
ENDBRANCH 1 22
TORSDOF 13
ENDMDL
MODEL 62
USER: ADFR SOLUTION from run 126
USER: SCORE 8.819921 LL:  -2.750 LR:  -7.454 RR:   0.000 FEB:  -3.577
USER: RMSD 8.255155
USER: SEED 125
USER: STATUS no improvement in best in 18 clusters for 5 generations
USER: GENES 15
USER: genes 0 Translation |==|  0.18285 0.46455 0.28669
USER: genes 1 Rotation |==|  0.60991 0.97852 0.58390 0.54358
USER: genes 2 Torsion [C]-N--CA-[CB] |==|  0.35863
USER: genes 3 Torsion [N]-CA--C-[N] |==|  0.88880
USER: genes 4 Torsion [C]-N--CA-[CB] |==|  0.81454
USER: genes 5 Torsion [N]-CA--CB-[CG] |==|  0.74432
USER: genes 6 Torsion [CA]-CB--CG-[OD1] |==|  0.96145
USER: genes 7 Torsion [N]-CA--C-[O] |==|  0.58107
USER: genes 8 Torsion [N]-CA--CB-[CG2] |==|  0.12514
USER: genes 9 Torsion [N]-C--CA-[N] |==|  0.89449
USER: genes 10 Torsion [C]-CA--N-[C] |==|  0.77778
USER: genes 11 Torsion [N]-C--CA-[N] |==|  0.24330
USER: genes 12 Torsion [C]-CA--CB-[CG] |==|  0.20768
USER: genes 13 Torsion [CA]-CB--CG-[CD2] |==|  0.08488
USER: genes 14 Torsion [C]-CA--CB-[CG2] |==|  0.46402
ROOT
ATOM      1  C   VAL D4842     -63.700  26.982  35.880  1.00 57.35 LIG 0.24  C 
ATOM      2 O    VAL D4842     -63.680  26.811  37.105  1.00 61.28 LIG-0.27  OA
ATOM      3  N   VAL D4843     -64.038  26.023  35.028  1.00 52.36 LIG-0.35  N 
ATOM      4 H    VAL D4843     -64.219  26.173  34.201  1.00 52.36 LIG 0.16  HD
ENDROOT
BRANCH 3 5
ATOM      5  CA  VAL D4843     -64.140  24.620  35.400  1.00 37.99 LIG 0.18  C 
BRANCH 5 6
ATOM      6  C   VAL D4843     -62.958  23.948  34.658  1.00 51.29 LIG 0.24  C 
ATOM      7  N   ASN D4844     -62.671  24.328  33.419  1.00 50.43 LIG-0.35  N 
ATOM      8 H    ASN D4844     -63.076  24.948  32.982  1.00 50.43 LIG 0.16  HD
ATOM      9 O    VAL D4843     -62.295  23.061  35.213  1.00 47.22 LIG-0.27  OA
BRANCH 7 10
ATOM     10  CA  ASN D4844     -61.575  23.656  32.706  1.00 46.88 LIG 0.17  C 
BRANCH 10 11
ATOM     11  CB  ASN D4844     -60.235  23.973  33.369  1.00 66.72 LIG 0.14  C 
BRANCH 11 12
ATOM     12  CG  ASN D4844     -59.552  25.183  32.761  1.00 62.42 LIG 0.22  C 
ATOM     13 OD1  ASN D4844     -59.925  25.656  31.685  1.00 56.11 LIG-0.27  OA
ATOM     14  ND2 ASN D4844     -58.540  25.690  33.455  1.00 67.26 LIG-0.37  N 
ATOM     15 21HD ASN D4844     -58.116  26.378  33.157  1.00 67.26 LIG 0.16  HD
ATOM     16 22HD ASN D4844     -58.308  25.332  34.202  1.00 67.26 LIG 0.16  HD
ENDBRANCH 11 12
ENDBRANCH 10 11
BRANCH 10 17
ATOM     17  C   ASN D4844     -61.736  22.138  32.515  1.00 52.57 LIG 0.22  C 
ATOM     18 O    ASN D4844     -60.750  21.388  32.441  1.00 48.91 LIG-0.29  OA
ENDBRANCH 10 17
ENDBRANCH 7 10
ENDBRANCH 5 6
BRANCH 5 19
ATOM     19  CB  VAL D4843     -65.526  24.096  34.912  1.00 37.59 LIG 0.01  C 
ATOM     20  CG1 VAL D4843     -66.640  24.478  35.846  1.00 42.19 LIG 0.01  C 
ATOM     21  CG2 VAL D4843     -65.817  24.560  33.483  1.00 33.91 LIG 0.01  C 
ENDBRANCH 5 19
ENDBRANCH 3 5
BRANCH 1 22
ATOM     22  CA  VAL D4842     -63.385  28.347  35.237  1.00 42.26 LIG 0.18  C 
BRANCH 22 23
ATOM     23  N   VAL D4842     -62.667  28.310  33.960  1.00 51.43 LIG-0.34  N 
ATOM     24 H    VAL D4842     -63.172  28.415  33.272  1.00 51.43 LIG 0.16  HD
ATOM     25  C   LEU D4841     -61.350  28.129  33.882  1.00 54.30 LIG 0.26  C 
ATOM     26 O    LEU D4841     -60.719  28.263  32.836  1.00 66.57 LIG-0.27  OA
BRANCH 25 27
ATOM     27  CA  LEU D4841     -60.634  27.780  35.179  1.00 50.85 LIG 0.40  C 
ATOM     28  N   LEU D4841     -60.637  26.330  35.399  1.00 66.18 LIG 0.61  N 
BRANCH 27 29
ATOM     29  CB  LEU D4841     -59.193  28.305  35.150  1.00 58.40 LIG 0.06  C 
BRANCH 29 30
ATOM     30  CG  LEU D4841     -59.001  29.815  35.338  1.00 54.26 LIG-0.02  C 
ATOM     31  CD2 LEU D4841     -60.097  30.443  36.232  1.00 54.78 LIG 0.01  C 
ATOM     32  CD1 LEU D4841     -58.894  30.543  33.991  1.00 32.44 LIG 0.01  C 
ENDBRANCH 29 30
ENDBRANCH 27 29
ENDBRANCH 25 27
ENDBRANCH 22 23
BRANCH 22 33
ATOM     33  CB  VAL D4842     -64.663  29.220  35.154  1.00 48.47 LIG 0.01  C 
ATOM     34  CG2 VAL D4842     -64.327  30.649  34.827  1.00 42.42 LIG 0.01  C 
ATOM     35  CG1 VAL D4842     -65.406  29.153  36.478  1.00 34.87 LIG 0.01  C 
ENDBRANCH 22 33
ENDBRANCH 1 22
TORSDOF 13
ENDMDL
MODEL 63
USER: ADFR SOLUTION from run 29
USER: SCORE 8.459104 LL:  -2.628 LR:  -7.426 RR:   0.000 FEB:  -3.548
USER: RMSD 5.858051
USER: SEED 28
USER: STATUS no improvement in best in 27 clusters for 5 generations
USER: GENES 15
USER: genes 0 Translation |==|  0.46664 0.47817 0.43349
USER: genes 1 Rotation |==|  0.46907 0.16989 0.50987 0.87413
USER: genes 2 Torsion [C]-N--CA-[CB] |==|  0.31407
USER: genes 3 Torsion [N]-CA--C-[N] |==|  0.32266
USER: genes 4 Torsion [C]-N--CA-[CB] |==|  0.30112
USER: genes 5 Torsion [N]-CA--CB-[CG] |==|  0.13940
USER: genes 6 Torsion [CA]-CB--CG-[OD1] |==|  0.33182
USER: genes 7 Torsion [N]-CA--C-[O] |==|  0.11813
USER: genes 8 Torsion [N]-CA--CB-[CG2] |==|  0.73205
USER: genes 9 Torsion [N]-C--CA-[N] |==|  0.99979
USER: genes 10 Torsion [C]-CA--N-[C] |==|  0.78565
USER: genes 11 Torsion [N]-C--CA-[N] |==|  0.43163
USER: genes 12 Torsion [C]-CA--CB-[CG] |==|  0.41638
USER: genes 13 Torsion [CA]-CB--CG-[CD2] |==|  0.82828
USER: genes 14 Torsion [C]-CA--CB-[CG2] |==|  0.19102
ROOT
ATOM      1  C   VAL D4842     -57.740  27.207  38.082  1.00 57.35 LIG 0.24  C 
ATOM      2 O    VAL D4842     -56.582  27.405  37.698  1.00 61.28 LIG-0.27  OA
ATOM      3  N   VAL D4843     -58.247  25.990  38.232  1.00 52.36 LIG-0.35  N 
ATOM      4 H    VAL D4843     -58.981  25.836  38.654  1.00 52.36 LIG 0.16  HD
ENDROOT
BRANCH 3 5
ATOM      5  CA  VAL D4843     -57.618  24.789  37.702  1.00 37.99 LIG 0.18  C 
BRANCH 5 6
ATOM      6  C   VAL D4843     -58.744  24.104  36.889  1.00 51.29 LIG 0.24  C 
ATOM      7  N   ASN D4844     -58.603  23.966  35.577  1.00 50.43 LIG-0.35  N 
ATOM      8 H    ASN D4844     -57.915  24.208  35.121  1.00 50.43 LIG 0.16  HD
ATOM      9 O    VAL D4843     -59.766  23.696  37.459  1.00 47.22 LIG-0.27  OA
BRANCH 7 10
ATOM     10  CA  ASN D4844     -59.695  23.353  34.806  1.00 46.88 LIG 0.17  C 
BRANCH 10 11
ATOM     11  CB  ASN D4844     -60.405  24.408  33.958  1.00 66.72 LIG 0.14  C 
BRANCH 11 12
ATOM     12  CG  ASN D4844     -59.444  25.248  33.141  1.00 62.42 LIG 0.22  C 
ATOM     13 OD1  ASN D4844     -59.501  25.272  31.909  1.00 56.11 LIG-0.27  OA
ATOM     14  ND2 ASN D4844     -58.549  25.947  33.830  1.00 67.26 LIG-0.37  N 
ATOM     15 21HD ASN D4844     -57.979  26.442  33.417  1.00 67.26 LIG 0.16  HD
ATOM     16 22HD ASN D4844     -58.540  25.905  34.689  1.00 67.26 LIG 0.16  HD
ENDBRANCH 11 12
ENDBRANCH 10 11
BRANCH 10 17
ATOM     17  C   ASN D4844     -59.302  22.143  33.941  1.00 52.57 LIG 0.22  C 
ATOM     18 O    ASN D4844     -58.539  21.262  34.370  1.00 48.91 LIG-0.29  OA
ENDBRANCH 10 17
ENDBRANCH 7 10
ENDBRANCH 5 6
BRANCH 5 19
ATOM     19  CB  VAL D4843     -57.144  23.925  38.911  1.00 37.59 LIG 0.01  C 
ATOM     20  CG1 VAL D4843     -57.417  22.461  38.708  1.00 42.19 LIG 0.01  C 
ATOM     21  CG2 VAL D4843     -55.665  24.174  39.219  1.00 33.91 LIG 0.01  C 
ENDBRANCH 5 19
ENDBRANCH 3 5
BRANCH 1 22
ATOM     22  CA  VAL D4842     -58.685  28.360  38.474  1.00 42.26 LIG 0.18  C 
BRANCH 22 23
ATOM     23  N   VAL D4842     -60.013  27.973  38.958  1.00 51.43 LIG-0.34  N 
ATOM     24 H    VAL D4842     -60.103  28.025  39.811  1.00 51.43 LIG 0.16  HD
ATOM     25  C   LEU D4841     -60.987  27.578  38.140  1.00 54.30 LIG 0.26  C 
ATOM     26 O    LEU D4841     -62.146  27.414  38.513  1.00 66.57 LIG-0.27  OA
BRANCH 25 27
ATOM     27  CA  LEU D4841     -60.608  27.370  36.681  1.00 50.85 LIG 0.40  C 
ATOM     28  N   LEU D4841     -61.525  26.426  36.036  1.00 66.18 LIG 0.61  N 
BRANCH 27 29
ATOM     29  CB  LEU D4841     -60.617  28.708  35.932  1.00 58.40 LIG 0.06  C 
BRANCH 29 30
ATOM     30  CG  LEU D4841     -59.644  28.852  34.755  1.00 54.26 LIG-0.02  C 
ATOM     31  CD2 LEU D4841     -58.165  28.724  35.194  1.00 54.78 LIG 0.01  C 
ATOM     32  CD1 LEU D4841     -59.885  30.152  33.977  1.00 32.44 LIG 0.01  C 
ENDBRANCH 29 30
ENDBRANCH 27 29
ENDBRANCH 25 27
ENDBRANCH 22 23
BRANCH 22 33
ATOM     33  CB  VAL D4842     -57.979  29.337  39.449  1.00 48.47 LIG 0.01  C 
ATOM     34  CG2 VAL D4842     -56.878  30.095  38.761  1.00 42.42 LIG 0.01  C 
ATOM     35  CG1 VAL D4842     -57.414  28.556  40.624  1.00 34.87 LIG 0.01  C 
ENDBRANCH 22 33
ENDBRANCH 1 22
TORSDOF 13
ENDMDL
MODEL 64
USER: ADFR SOLUTION from run 70
USER: SCORE 9.523013 LL:  -2.544 LR:  -7.426 RR:   0.000 FEB:  -3.548
USER: RMSD 6.533152
USER: SEED 69
USER: STATUS no improvement in best in 30 clusters for 5 generations
USER: GENES 15
USER: genes 0 Translation |==|  0.39118 0.26427 0.31405
USER: genes 1 Rotation |==|  0.88239 0.54026 0.75422 0.69373
USER: genes 2 Torsion [C]-N--CA-[CB] |==|  0.88683
USER: genes 3 Torsion [N]-CA--C-[N] |==|  0.33889
USER: genes 4 Torsion [C]-N--CA-[CB] |==|  0.83880
USER: genes 5 Torsion [N]-CA--CB-[CG] |==|  0.86675
USER: genes 6 Torsion [CA]-CB--CG-[OD1] |==|  0.88833
USER: genes 7 Torsion [N]-CA--C-[O] |==|  0.03791
USER: genes 8 Torsion [N]-CA--CB-[CG2] |==|  0.76076
USER: genes 9 Torsion [N]-C--CA-[N] |==|  0.35841
USER: genes 10 Torsion [C]-CA--N-[C] |==|  0.83115
USER: genes 11 Torsion [N]-C--CA-[N] |==|  0.40070
USER: genes 12 Torsion [C]-CA--CB-[CG] |==|  0.82104
USER: genes 13 Torsion [CA]-CB--CG-[CD2] |==|  0.74000
USER: genes 14 Torsion [C]-CA--CB-[CG2] |==|  0.49124
ROOT
ATOM      1  C   VAL D4842     -59.325  23.677  36.291  1.00 57.35 LIG 0.24  C 
ATOM      2 O    VAL D4842     -60.498  23.964  36.561  1.00 61.28 LIG-0.27  OA
ATOM      3  N   VAL D4843     -58.642  24.285  35.329  1.00 52.36 LIG-0.35  N 
ATOM      4 H    VAL D4843     -57.789  24.217  35.245  1.00 52.36 LIG 0.16  HD
ENDROOT
BRANCH 3 5
ATOM      5  CA  VAL D4843     -59.261  25.131  34.319  1.00 37.99 LIG 0.18  C 
BRANCH 5 6
ATOM      6  C   VAL D4843     -59.498  26.476  35.049  1.00 51.29 LIG 0.24  C 
ATOM      7  N   ASN D4844     -58.955  27.584  34.560  1.00 50.43 LIG-0.35  N 
ATOM      8 H    ASN D4844     -58.487  27.633  33.840  1.00 50.43 LIG 0.16  HD
ATOM      9 O    VAL D4843     -60.181  26.513  36.083  1.00 47.22 LIG-0.27  OA
BRANCH 7 10
ATOM     10  CA  ASN D4844     -59.149  28.849  35.283  1.00 46.88 LIG 0.17  C 
BRANCH 10 11
ATOM     11  CB  ASN D4844     -60.639  29.156  35.428  1.00 66.72 LIG 0.14  C 
BRANCH 11 12
ATOM     12  CG  ASN D4844     -61.399  29.002  34.125  1.00 62.42 LIG 0.22  C 
ATOM     13 OD1  ASN D4844     -60.918  29.379  33.055  1.00 56.11 LIG-0.27  OA
ATOM     14  ND2 ASN D4844     -62.599  28.440  34.214  1.00 67.26 LIG-0.37  N 
ATOM     15 21HD ASN D4844     -63.074  28.327  33.505  1.00 67.26 LIG 0.16  HD
ATOM     16 22HD ASN D4844     -62.901  28.190  34.979  1.00 67.26 LIG 0.16  HD
ENDBRANCH 11 12
ENDBRANCH 10 11
BRANCH 10 17
ATOM     17  C   ASN D4844     -58.442  28.953  36.646  1.00 52.57 LIG 0.22  C 
ATOM     18 O    ASN D4844     -57.565  28.142  36.982  1.00 48.91 LIG-0.29  OA
ENDBRANCH 10 17
ENDBRANCH 7 10
ENDBRANCH 5 6
BRANCH 5 19
ATOM     19  CB  VAL D4843     -60.592  24.450  33.876  1.00 37.59 LIG 0.01  C 
ATOM     20  CG1 VAL D4843     -61.638  25.451  33.474  1.00 42.19 LIG 0.01  C 
ATOM     21  CG2 VAL D4843     -60.343  23.431  32.760  1.00 33.91 LIG 0.01  C 
ENDBRANCH 5 19
ENDBRANCH 3 5
BRANCH 1 22
ATOM     22  CA  VAL D4842     -58.534  22.621  37.086  1.00 42.26 LIG 0.18  C 
BRANCH 22 23
ATOM     23  N   VAL D4842     -58.578  22.743  38.546  1.00 51.43 LIG-0.34  N 
ATOM     24 H    VAL D4842     -58.918  22.060  38.944  1.00 51.43 LIG 0.16  HD
ATOM     25  C   LEU D4841     -58.129  23.818  39.189  1.00 54.30 LIG 0.26  C 
ATOM     26 O    LEU D4841     -58.006  23.862  40.412  1.00 66.57 LIG-0.27  OA
BRANCH 25 27
ATOM     27  CA  LEU D4841     -57.725  25.007  38.329  1.00 50.85 LIG 0.40  C 
ATOM     28  N   LEU D4841     -58.062  26.268  38.996  1.00 66.18 LIG 0.61  N 
BRANCH 27 29
ATOM     29  CB  LEU D4841     -56.223  24.958  38.023  1.00 58.40 LIG 0.06  C 
BRANCH 29 30
ATOM     30  CG  LEU D4841     -55.268  25.096  39.214  1.00 54.26 LIG-0.02  C 
ATOM     31  CD2 LEU D4841     -54.818  26.559  39.445  1.00 54.78 LIG 0.01  C 
ATOM     32  CD1 LEU D4841     -54.062  24.156  39.084  1.00 32.44 LIG 0.01  C 
ENDBRANCH 29 30
ENDBRANCH 27 29
ENDBRANCH 25 27
ENDBRANCH 22 23
BRANCH 22 33
ATOM     33  CB  VAL D4842     -58.907  21.191  36.616  1.00 48.47 LIG 0.01  C 
ATOM     34  CG2 VAL D4842     -58.088  20.151  37.330  1.00 42.42 LIG 0.01  C 
ATOM     35  CG1 VAL D4842     -58.691  21.081  35.116  1.00 34.87 LIG 0.01  C 
ENDBRANCH 22 33
ENDBRANCH 1 22
TORSDOF 13
ENDMDL
MODEL 65
USER: ADFR SOLUTION from run 178
USER: SCORE 9.136033 LL:  -2.705 LR:  -7.409 RR:   0.000 FEB:  -3.531
USER: RMSD 8.078685
USER: SEED 177
USER: STATUS no improvement in best in 26 clusters for 5 generations
USER: GENES 15
USER: genes 0 Translation |==|  0.37649 0.24582 0.25880
USER: genes 1 Rotation |==|  0.31318 0.13463 0.77096 0.59044
USER: genes 2 Torsion [C]-N--CA-[CB] |==|  0.90138
USER: genes 3 Torsion [N]-CA--C-[N] |==|  0.86743
USER: genes 4 Torsion [C]-N--CA-[CB] |==|  0.46712
USER: genes 5 Torsion [N]-CA--CB-[CG] |==|  0.81069
USER: genes 6 Torsion [CA]-CB--CG-[OD1] |==|  0.65917
USER: genes 7 Torsion [N]-CA--C-[O] |==|  0.78288
USER: genes 8 Torsion [N]-CA--CB-[CG2] |==|  0.77241
USER: genes 9 Torsion [N]-C--CA-[N] |==|  0.50000
USER: genes 10 Torsion [C]-CA--N-[C] |==|  0.80524
USER: genes 11 Torsion [N]-C--CA-[N] |==|  0.32694
USER: genes 12 Torsion [C]-CA--CB-[CG] |==|  0.62146
USER: genes 13 Torsion [CA]-CB--CG-[CD2] |==|  0.79595
USER: genes 14 Torsion [C]-CA--CB-[CG2] |==|  0.85499
ROOT
ATOM      1  C   VAL D4842     -59.634  23.373  35.462  1.00 57.35 LIG 0.24  C 
ATOM      2 O    VAL D4842     -58.600  24.034  35.620  1.00 61.28 LIG-0.27  OA
ATOM      3  N   VAL D4843     -60.331  22.879  36.477  1.00 52.36 LIG-0.35  N 
ATOM      4 H    VAL D4843     -61.129  22.570  36.391  1.00 52.36 LIG 0.16  HD
ENDROOT
BRANCH 3 5
ATOM      5  CA  VAL D4843     -59.824  22.809  37.839  1.00 37.99 LIG 0.18  C 
BRANCH 5 6
ATOM      6  C   VAL D4843     -60.119  24.213  38.422  1.00 51.29 LIG 0.24  C 
ATOM      7  N   ASN D4844     -59.794  25.289  37.716  1.00 50.43 LIG-0.35  N 
ATOM      8 H    ASN D4844     -59.445  25.283  36.931  1.00 50.43 LIG 0.16  HD
ATOM      9 O    VAL D4843     -60.645  24.328  39.538  1.00 47.22 LIG-0.27  OA
BRANCH 7 10
ATOM     10  CA  ASN D4844     -60.038  26.619  38.295  1.00 46.88 LIG 0.17  C 
BRANCH 10 11
ATOM     11  CB  ASN D4844     -59.337  27.696  37.467  1.00 66.72 LIG 0.14  C 
BRANCH 11 12
ATOM     12  CG  ASN D4844     -57.826  27.618  37.563  1.00 62.42 LIG 0.22  C 
ATOM     13 OD1  ASN D4844     -57.159  28.578  37.952  1.00 56.11 LIG-0.27  OA
ATOM     14  ND2 ASN D4844     -57.279  26.462  37.205  1.00 67.26 LIG-0.37  N 
ATOM     15 21HD ASN D4844     -56.425  26.362  37.240  1.00 67.26 LIG 0.16  HD
ATOM     16 22HD ASN D4844     -57.778  25.814  36.938  1.00 67.26 LIG 0.16  HD
ENDBRANCH 11 12
ENDBRANCH 10 11
BRANCH 10 17
ATOM     17  C   ASN D4844     -61.515  26.987  38.519  1.00 52.57 LIG 0.22  C 
ATOM     18 O    ASN D4844     -62.239  27.356  37.580  1.00 48.91 LIG-0.29  OA
ENDBRANCH 10 17
ENDBRANCH 7 10
ENDBRANCH 5 6
BRANCH 5 19
ATOM     19  CB  VAL D4843     -58.296  22.503  37.764  1.00 37.59 LIG 0.01  C 
ATOM     20  CG1 VAL D4843     -57.550  23.029  38.958  1.00 42.19 LIG 0.01  C 
ATOM     21  CG2 VAL D4843     -58.044  21.005  37.570  1.00 33.91 LIG 0.01  C 
ENDBRANCH 5 19
ENDBRANCH 3 5
BRANCH 1 22
ATOM     22  CA  VAL D4842     -60.234  23.110  34.067  1.00 42.26 LIG 0.18  C 
BRANCH 22 23
ATOM     23  N   VAL D4842     -59.483  23.645  32.928  1.00 51.43 LIG-0.34  N 
ATOM     24 H    VAL D4842     -59.106  23.042  32.444  1.00 51.43 LIG 0.16  HD
ATOM     25  C   LEU D4841     -59.398  24.949  32.674  1.00 54.30 LIG 0.26  C 
ATOM     26 O    LEU D4841     -58.916  25.396  31.635  1.00 66.57 LIG-0.27  OA
BRANCH 25 27
ATOM     27  CA  LEU D4841     -59.970  25.886  33.727  1.00 50.85 LIG 0.40  C 
ATOM     28  N   LEU D4841     -58.920  26.745  34.283  1.00 66.18 LIG 0.61  N 
BRANCH 27 29
ATOM     29  CB  LEU D4841     -61.089  26.745  33.125  1.00 58.40 LIG 0.06  C 
BRANCH 29 30
ATOM     30  CG  LEU D4841     -61.090  28.236  33.486  1.00 54.26 LIG-0.02  C 
ATOM     31  CD2 LEU D4841     -61.546  28.491  34.942  1.00 54.78 LIG 0.01  C 
ATOM     32  CD1 LEU D4841     -61.918  29.058  32.489  1.00 32.44 LIG 0.01  C 
ENDBRANCH 29 30
ENDBRANCH 27 29
ENDBRANCH 25 27
ENDBRANCH 22 23
BRANCH 22 33
ATOM     33  CB  VAL D4842     -60.558  21.605  33.887  1.00 48.47 LIG 0.01  C 
ATOM     34  CG2 VAL D4842     -59.367  20.747  34.211  1.00 42.42 LIG 0.01  C 
ATOM     35  CG1 VAL D4842     -61.003  21.353  32.456  1.00 34.87 LIG 0.01  C 
ENDBRANCH 22 33
ENDBRANCH 1 22
TORSDOF 13
ENDMDL
MODEL 66
USER: ADFR SOLUTION from run 14
USER: SCORE 8.904251 LL:  -2.404 LR:  -7.396 RR:   0.000 FEB:  -3.518
USER: RMSD 6.803223
USER: SEED 194828
USER: STATUS no improvement in best in 36 clusters for 5 generations
USER: GENES 15
USER: genes 0 Translation |==|  0.36486 0.35542 0.29182
USER: genes 1 Rotation |==|  0.73216 0.65475 0.76165 0.82202
USER: genes 2 Torsion [C]-N--CA-[CB] |==|  0.88333
USER: genes 3 Torsion [N]-CA--C-[N] |==|  0.94960
USER: genes 4 Torsion [C]-N--CA-[CB] |==|  0.31422
USER: genes 5 Torsion [N]-CA--CB-[CG] |==|  0.08345
USER: genes 6 Torsion [CA]-CB--CG-[OD1] |==|  0.22436
USER: genes 7 Torsion [N]-CA--C-[O] |==|  0.93798
USER: genes 8 Torsion [N]-CA--CB-[CG2] |==|  0.64813
USER: genes 9 Torsion [N]-C--CA-[N] |==|  0.01909
USER: genes 10 Torsion [C]-CA--N-[C] |==|  0.68275
USER: genes 11 Torsion [N]-C--CA-[N] |==|  0.82451
USER: genes 12 Torsion [C]-CA--CB-[CG] |==|  0.38614
USER: genes 13 Torsion [CA]-CB--CG-[CD2] |==|  0.96804
USER: genes 14 Torsion [C]-CA--CB-[CG2] |==|  0.83882
ROOT
ATOM      1  C   VAL D4842     -59.878  25.181  35.957  1.00 57.35 LIG 0.24  C 
ATOM      2 O    VAL D4842     -61.094  25.311  35.773  1.00 61.28 LIG-0.27  OA
ATOM      3  N   VAL D4843     -59.019  24.985  34.965  1.00 52.36 LIG-0.35  N 
ATOM      4 H    VAL D4843     -58.168  25.063  35.059  1.00 52.36 LIG 0.16  HD
ENDROOT
BRANCH 3 5
ATOM      5  CA  VAL D4843     -59.425  24.618  33.616  1.00 37.99 LIG 0.18  C 
BRANCH 5 6
ATOM      6  C   VAL D4843     -59.927  25.947  33.001  1.00 51.29 LIG 0.24  C 
ATOM      7  N   ASN D4844     -60.243  26.955  33.805  1.00 50.43 LIG-0.35  N 
ATOM      8 H    ASN D4844     -60.173  26.949  34.661  1.00 50.43 LIG 0.16  HD
ATOM      9 O    VAL D4843     -60.039  26.064  31.772  1.00 47.22 LIG-0.27  OA
BRANCH 7 10
ATOM     10  CA  ASN D4844     -60.760  28.199  33.215  1.00 46.88 LIG 0.17  C 
BRANCH 10 11
ATOM     11  CB  ASN D4844     -62.221  28.409  33.614  1.00 66.72 LIG 0.14  C 
BRANCH 11 12
ATOM     12  CG  ASN D4844     -62.550  27.814  34.969  1.00 62.42 LIG 0.22  C 
ATOM     13 OD1  ASN D4844     -62.276  28.409  36.013  1.00 56.11 LIG-0.27  OA
ATOM     14  ND2 ASN D4844     -63.147  26.628  34.955  1.00 67.26 LIG-0.37  N 
ATOM     15 21HD ASN D4844     -63.357  26.243  35.695  1.00 67.26 LIG 0.16  HD
ATOM     16 22HD ASN D4844     -63.322  26.243  34.205  1.00 67.26 LIG 0.16  HD
ENDBRANCH 11 12
ENDBRANCH 10 11
BRANCH 10 17
ATOM     17  C   ASN D4844     -59.935  29.465  33.502  1.00 52.57 LIG 0.22  C 
ATOM     18 O    ASN D4844     -59.172  29.531  34.479  1.00 48.91 LIG-0.29  OA
ENDBRANCH 10 17
ENDBRANCH 7 10
ENDBRANCH 5 6
BRANCH 5 19
ATOM     19  CB  VAL D4843     -60.555  23.549  33.731  1.00 37.59 LIG 0.01  C 
ATOM     20  CG1 VAL D4843     -61.901  24.099  33.353  1.00 42.19 LIG 0.01  C 
ATOM     21  CG2 VAL D4843     -60.217  22.301  32.910  1.00 33.91 LIG 0.01  C 
ENDBRANCH 5 19
ENDBRANCH 3 5
BRANCH 1 22
ATOM     22  CA  VAL D4842     -59.244  25.292  37.358  1.00 42.26 LIG 0.18  C 
BRANCH 22 23
ATOM     23  N   VAL D4842     -57.779  25.324  37.404  1.00 51.43 LIG-0.34  N 
ATOM     24 H    VAL D4842     -57.433  26.025  37.043  1.00 51.43 LIG 0.16  HD
ATOM     25  C   LEU D4841     -57.057  24.351  37.956  1.00 54.30 LIG 0.26  C 
ATOM     26 O    LEU D4841     -55.847  24.446  38.150  1.00 66.57 LIG-0.27  OA
BRANCH 25 27
ATOM     27  CA  LEU D4841     -57.814  23.102  38.386  1.00 50.85 LIG 0.40  C 
ATOM     28  N   LEU D4841     -58.785  23.420  39.437  1.00 66.18 LIG 0.61  N 
BRANCH 27 29
ATOM     29  CB  LEU D4841     -58.528  22.472  37.184  1.00 58.40 LIG 0.06  C 
BRANCH 29 30
ATOM     30  CG  LEU D4841     -58.494  20.942  37.081  1.00 54.26 LIG-0.02  C 
ATOM     31  CD2 LEU D4841     -57.492  20.306  38.074  1.00 54.78 LIG 0.01  C 
ATOM     32  CD1 LEU D4841     -58.225  20.478  35.643  1.00 32.44 LIG 0.01  C 
ENDBRANCH 29 30
ENDBRANCH 27 29
ENDBRANCH 25 27
ENDBRANCH 22 23
BRANCH 22 33
ATOM     33  CB  VAL D4842     -59.870  26.467  38.150  1.00 48.47 LIG 0.01  C 
ATOM     34  CG2 VAL D4842     -59.702  27.770  37.419  1.00 42.42 LIG 0.01  C 
ATOM     35  CG1 VAL D4842     -59.219  26.555  39.521  1.00 34.87 LIG 0.01  C 
ENDBRANCH 22 33
ENDBRANCH 1 22
TORSDOF 13
ENDMDL
MODEL 67
USER: ADFR SOLUTION from run 53
USER: SCORE 8.657348 LL:  -2.710 LR:  -7.388 RR:   0.000 FEB:  -3.510
USER: RMSD 8.342521
USER: SEED 52
USER: STATUS no improvement in best in 30 clusters for 5 generations
USER: GENES 15
USER: genes 0 Translation |==|  0.35429 0.32238 0.26384
USER: genes 1 Rotation |==|  0.15840 0.81908 0.39727 0.64472
USER: genes 2 Torsion [C]-N--CA-[CB] |==|  0.45838
USER: genes 3 Torsion [N]-CA--C-[N] |==|  0.92778
USER: genes 4 Torsion [C]-N--CA-[CB] |==|  0.48224
USER: genes 5 Torsion [N]-CA--CB-[CG] |==|  0.51687
USER: genes 6 Torsion [CA]-CB--CG-[OD1] |==|  0.14833
USER: genes 7 Torsion [N]-CA--C-[O] |==|  0.86011
USER: genes 8 Torsion [N]-CA--CB-[CG2] |==|  0.71735
USER: genes 9 Torsion [N]-C--CA-[N] |==|  0.48109
USER: genes 10 Torsion [C]-CA--N-[C] |==|  0.77278
USER: genes 11 Torsion [N]-C--CA-[N] |==|  0.45847
USER: genes 12 Torsion [C]-CA--CB-[CG] |==|  0.41913
USER: genes 13 Torsion [CA]-CB--CG-[CD2] |==|  0.28409
USER: genes 14 Torsion [C]-CA--CB-[CG2] |==|  0.75349
ROOT
ATOM      1  C   VAL D4842     -60.100  24.636  35.538  1.00 57.35 LIG 0.24  C 
ATOM      2 O    VAL D4842     -61.117  24.681  36.240  1.00 61.28 LIG-0.27  OA
ATOM      3  N   VAL D4843     -58.878  24.769  36.037  1.00 52.36 LIG-0.35  N 
ATOM      4 H    VAL D4843     -58.167  24.573  35.594  1.00 52.36 LIG 0.16  HD
ENDROOT
BRANCH 3 5
ATOM      5  CA  VAL D4843     -58.610  25.257  37.382  1.00 37.99 LIG 0.18  C 
BRANCH 5 6
ATOM      6  C   VAL D4843     -58.855  26.783  37.283  1.00 51.29 LIG 0.24  C 
ATOM      7  N   ASN D4844     -58.709  27.388  36.111  1.00 50.43 LIG-0.35  N 
ATOM      8 H    ASN D4844     -58.507  26.999  35.371  1.00 50.43 LIG 0.16  HD
ATOM      9 O    VAL D4843     -59.177  27.430  38.290  1.00 47.22 LIG-0.27  OA
BRANCH 7 10
ATOM     10  CA  ASN D4844     -58.901  28.844  36.034  1.00 46.88 LIG 0.17  C 
BRANCH 10 11
ATOM     11  CB  ASN D4844     -58.534  29.356  34.642  1.00 66.72 LIG 0.14  C 
BRANCH 11 12
ATOM     12  CG  ASN D4844     -58.572  30.869  34.546  1.00 62.42 LIG 0.22  C 
ATOM     13 OD1  ASN D4844     -57.945  31.577  35.336  1.00 56.11 LIG-0.27  OA
ATOM     14  ND2 ASN D4844     -59.315  31.372  33.567  1.00 67.26 LIG-0.37  N 
ATOM     15 21HD ASN D4844     -59.372  32.225  33.465  1.00 67.26 LIG 0.16  HD
ATOM     16 22HD ASN D4844     -59.739  30.846  33.035  1.00 67.26 LIG 0.16  HD
ENDBRANCH 11 12
ENDBRANCH 10 11
BRANCH 10 17
ATOM     17  C   ASN D4844     -60.293  29.354  36.446  1.00 52.57 LIG 0.22  C 
ATOM     18 O    ASN D4844     -61.329  28.859  35.974  1.00 48.91 LIG-0.29  OA
ENDBRANCH 10 17
ENDBRANCH 7 10
ENDBRANCH 5 6
BRANCH 5 19
ATOM     19  CB  VAL D4843     -57.129  24.912  37.729  1.00 37.59 LIG 0.01  C 
ATOM     20  CG1 VAL D4843     -56.396  26.080  38.326  1.00 42.19 LIG 0.01  C 
ATOM     21  CG2 VAL D4843     -57.050  23.684  38.641  1.00 33.91 LIG 0.01  C 
ENDBRANCH 5 19
ENDBRANCH 3 5
BRANCH 1 22
ATOM     22  CA  VAL D4842     -60.161  24.368  34.021  1.00 42.26 LIG 0.18  C 
BRANCH 22 23
ATOM     23  N   VAL D4842     -61.485  24.064  33.470  1.00 51.43 LIG-0.34  N 
ATOM     24 H    VAL D4842     -61.875  24.739  33.108  1.00 51.43 LIG 0.16  HD
ATOM     25  C   LEU D4841     -62.025  22.849  33.531  1.00 54.30 LIG 0.26  C 
ATOM     26 O    LEU D4841     -63.053  22.545  32.930  1.00 66.57 LIG-0.27  OA
BRANCH 25 27
ATOM     27  CA  LEU D4841     -61.282  21.814  34.364  1.00 50.85 LIG 0.40  C 
ATOM     28  N   LEU D4841     -62.138  20.657  34.638  1.00 66.18 LIG 0.61  N 
BRANCH 27 29
ATOM     29  CB  LEU D4841     -60.006  21.366  33.641  1.00 58.40 LIG 0.06  C 
BRANCH 29 30
ATOM     30  CG  LEU D4841     -58.833  20.913  34.520  1.00 54.26 LIG-0.02  C 
ATOM     31  CD2 LEU D4841     -58.697  19.372  34.574  1.00 54.78 LIG 0.01  C 
ATOM     32  CD1 LEU D4841     -58.917  21.516  35.928  1.00 32.44 LIG 0.01  C 
ENDBRANCH 29 30
ENDBRANCH 27 29
ENDBRANCH 25 27
ENDBRANCH 22 23
BRANCH 22 33
ATOM     33  CB  VAL D4842     -59.458  25.505  33.236  1.00 48.47 LIG 0.01  C 
ATOM     34  CG2 VAL D4842     -60.416  26.617  32.912  1.00 42.42 LIG 0.01  C 
ATOM     35  CG1 VAL D4842     -58.865  24.942  31.955  1.00 34.87 LIG 0.01  C 
ENDBRANCH 22 33
ENDBRANCH 1 22
TORSDOF 13
ENDMDL
MODEL 68
USER: ADFR SOLUTION from run 161
USER: SCORE 8.981124 LL:  -2.272 LR:  -7.387 RR:   0.000 FEB:  -3.509
USER: RMSD 7.819637
USER: SEED 160
USER: STATUS no improvement in best in 21 clusters for 5 generations
USER: GENES 15
USER: genes 0 Translation |==|  0.36936 0.19599 0.23587
USER: genes 1 Rotation |==|  0.85270 0.59431 0.71843 0.76267
USER: genes 2 Torsion [C]-N--CA-[CB] |==|  0.89646
USER: genes 3 Torsion [N]-CA--C-[N] |==|  0.85653
USER: genes 4 Torsion [C]-N--CA-[CB] |==|  0.76957
USER: genes 5 Torsion [N]-CA--CB-[CG] |==|  0.71585
USER: genes 6 Torsion [CA]-CB--CG-[OD1] |==|  0.92161
USER: genes 7 Torsion [N]-CA--C-[O] |==|  0.52999
USER: genes 8 Torsion [N]-CA--CB-[CG2] |==|  0.67405
USER: genes 9 Torsion [N]-C--CA-[N] |==|  0.47198
USER: genes 10 Torsion [C]-CA--N-[C] |==|  0.79913
USER: genes 11 Torsion [N]-C--CA-[N] |==|  0.27487
USER: genes 12 Torsion [C]-CA--CB-[CG] |==|  0.26802
USER: genes 13 Torsion [CA]-CB--CG-[CD2] |==|  0.76334
USER: genes 14 Torsion [C]-CA--CB-[CG2] |==|  0.83984
ROOT
ATOM      1  C   VAL D4842     -59.784  22.551  35.118  1.00 57.35 LIG 0.24  C 
ATOM      2 O    VAL D4842     -60.918  22.966  35.383  1.00 61.28 LIG-0.27  OA
ATOM      3  N   VAL D4843     -59.213  22.732  33.934  1.00 52.36 LIG-0.35  N 
ATOM      4 H    VAL D4843     -58.375  22.602  33.792  1.00 52.36 LIG 0.16  HD
ENDROOT
BRANCH 3 5
ATOM      5  CA  VAL D4843     -59.942  23.169  32.752  1.00 37.99 LIG 0.18  C 
BRANCH 5 6
ATOM      6  C   VAL D4843     -60.018  24.708  32.906  1.00 51.29 LIG 0.24  C 
ATOM      7  N   ASN D4844     -60.471  25.224  34.041  1.00 50.43 LIG-0.35  N 
ATOM      8 H    ASN D4844     -60.713  24.773  34.732  1.00 50.43 LIG 0.16  HD
ATOM      9 O    VAL D4843     -59.666  25.446  31.974  1.00 47.22 LIG-0.27  OA
BRANCH 7 10
ATOM     10  CA  ASN D4844     -60.580  26.685  34.163  1.00 46.88 LIG 0.17  C 
BRANCH 10 11
ATOM     11  CB  ASN D4844     -59.230  27.290  34.548  1.00 66.72 LIG 0.14  C 
BRANCH 11 12
ATOM     12  CG  ASN D4844     -59.150  27.659  36.016  1.00 62.42 LIG 0.22  C 
ATOM     13 OD1  ASN D4844     -60.159  27.966  36.655  1.00 56.11 LIG-0.27  OA
ATOM     14  ND2 ASN D4844     -57.939  27.629  36.560  1.00 67.26 LIG-0.37  N 
ATOM     15 21HD ASN D4844     -57.835  27.829  37.390  1.00 67.26 LIG 0.16  HD
ATOM     16 22HD ASN D4844     -57.258  27.410  36.081  1.00 67.26 LIG 0.16  HD
ENDBRANCH 11 12
ENDBRANCH 10 11
BRANCH 10 17
ATOM     17  C   ASN D4844     -61.169  27.414  32.943  1.00 52.57 LIG 0.22  C 
ATOM     18 O    ASN D4844     -61.128  28.651  32.848  1.00 48.91 LIG-0.29  OA
ENDBRANCH 10 17
ENDBRANCH 7 10
ENDBRANCH 5 6
BRANCH 5 19
ATOM     19  CB  VAL D4843     -61.349  22.496  32.782  1.00 37.59 LIG 0.01  C 
ATOM     20  CG1 VAL D4843     -62.461  23.503  32.874  1.00 42.19 LIG 0.01  C 
ATOM     21  CG2 VAL D4843     -61.540  21.567  31.580  1.00 33.91 LIG 0.01  C 
ENDBRANCH 5 19
ENDBRANCH 3 5
BRANCH 1 22
ATOM     22  CA  VAL D4842     -58.908  21.831  36.162  1.00 42.26 LIG 0.18  C 
BRANCH 22 23
ATOM     23  N   VAL D4842     -59.416  21.820  37.537  1.00 51.43 LIG-0.34  N 
ATOM     24 H    VAL D4842     -59.706  21.053  37.796  1.00 51.43 LIG 0.16  HD
ATOM     25  C   LEU D4841     -59.424  22.906  38.307  1.00 54.30 LIG 0.26  C 
ATOM     26 O    LEU D4841     -59.689  22.871  39.507  1.00 66.57 LIG-0.27  OA
BRANCH 25 27
ATOM     27  CA  LEU D4841     -59.043  24.219  37.637  1.00 50.85 LIG 0.40  C 
ATOM     28  N   LEU D4841     -60.241  24.984  37.278  1.00 66.18 LIG 0.61  N 
BRANCH 27 29
ATOM     29  CB  LEU D4841     -58.146  25.049  38.563  1.00 58.40 LIG 0.06  C 
BRANCH 29 30
ATOM     30  CG  LEU D4841     -56.632  24.943  38.339  1.00 54.26 LIG-0.02  C 
ATOM     31  CD2 LEU D4841     -56.008  23.737  39.081  1.00 54.78 LIG 0.01  C 
ATOM     32  CD1 LEU D4841     -55.915  26.252  38.698  1.00 32.44 LIG 0.01  C 
ENDBRANCH 29 30
ENDBRANCH 27 29
ENDBRANCH 25 27
ENDBRANCH 22 23
BRANCH 22 33
ATOM     33  CB  VAL D4842     -58.535  20.408  35.675  1.00 48.47 LIG 0.01  C 
ATOM     34  CG2 VAL D4842     -59.763  19.589  35.390  1.00 42.42 LIG 0.01  C 
ATOM     35  CG1 VAL D4842     -57.687  19.719  36.732  1.00 34.87 LIG 0.01  C 
ENDBRANCH 22 33
ENDBRANCH 1 22
TORSDOF 13
ENDMDL
MODEL 69
USER: ADFR SOLUTION from run 186
USER: SCORE 8.847913 LL:  -2.478 LR:  -7.347 RR:   0.000 FEB:  -3.470
USER: RMSD 7.914771
USER: SEED 185
USER: STATUS no improvement in best in 73 clusters for 5 generations
USER: GENES 15
USER: genes 0 Translation |==|  0.37925 0.35358 0.30004
USER: genes 1 Rotation |==|  0.13881 0.74263 0.53774 0.74340
USER: genes 2 Torsion [C]-N--CA-[CB] |==|  0.23777
USER: genes 3 Torsion [N]-CA--C-[N] |==|  0.41288
USER: genes 4 Torsion [C]-N--CA-[CB] |==|  0.82028
USER: genes 5 Torsion [N]-CA--CB-[CG] |==|  0.45639
USER: genes 6 Torsion [CA]-CB--CG-[OD1] |==|  0.74483
USER: genes 7 Torsion [N]-CA--C-[O] |==|  0.91671
USER: genes 8 Torsion [N]-CA--CB-[CG2] |==|  0.65873
USER: genes 9 Torsion [N]-C--CA-[N] |==|  0.96106
USER: genes 10 Torsion [C]-CA--N-[C] |==|  0.79564
USER: genes 11 Torsion [N]-C--CA-[N] |==|  0.40843
USER: genes 12 Torsion [C]-CA--CB-[CG] |==|  0.93598
USER: genes 13 Torsion [CA]-CB--CG-[CD2] |==|  0.58480
USER: genes 14 Torsion [C]-CA--CB-[CG2] |==|  0.59743
ROOT
ATOM      1  C   VAL D4842     -59.576  25.151  36.081  1.00 57.35 LIG 0.24  C 
ATOM      2 O    VAL D4842     -60.348  24.348  36.619  1.00 61.28 LIG-0.27  OA
ATOM      3  N   VAL D4843     -58.474  25.594  36.673  1.00 52.36 LIG-0.35  N 
ATOM      4 H    VAL D4843     -57.851  26.011  36.253  1.00 52.36 LIG 0.16  HD
ENDROOT
BRANCH 3 5
ATOM      5  CA  VAL D4843     -58.203  25.420  38.093  1.00 37.99 LIG 0.18  C 
BRANCH 5 6
ATOM      6  C   VAL D4843     -57.239  26.582  38.436  1.00 51.29 LIG 0.24  C 
ATOM      7  N   ASN D4844     -57.271  27.113  39.651  1.00 50.43 LIG-0.35  N 
ATOM      8 H    ASN D4844     -57.775  26.851  40.296  1.00 50.43 LIG 0.16  HD
ATOM      9 O    VAL D4843     -56.454  27.015  37.580  1.00 47.22 LIG-0.27  OA
BRANCH 7 10
ATOM     10  CA  ASN D4844     -56.382  28.245  39.956  1.00 46.88 LIG 0.17  C 
BRANCH 10 11
ATOM     11  CB  ASN D4844     -54.919  27.808  39.880  1.00 66.72 LIG 0.14  C 
BRANCH 11 12
ATOM     12  CG  ASN D4844     -53.961  28.981  39.806  1.00 62.42 LIG 0.22  C 
ATOM     13 OD1  ASN D4844     -53.590  29.438  38.723  1.00 56.11 LIG-0.27  OA
ATOM     14  ND2 ASN D4844     -53.556  29.476  40.970  1.00 67.26 LIG-0.37  N 
ATOM     15 21HD ASN D4844     -53.012  30.143  40.987  1.00 67.26 LIG 0.16  HD
ATOM     16 22HD ASN D4844     -53.837  29.130  41.706  1.00 67.26 LIG 0.16  HD
ENDBRANCH 11 12
ENDBRANCH 10 11
BRANCH 10 17
ATOM     17  C   ASN D4844     -56.610  29.515  39.118  1.00 52.57 LIG 0.22  C 
ATOM     18 O    ASN D4844     -57.040  29.453  37.955  1.00 48.91 LIG-0.29  OA
ENDBRANCH 10 17
ENDBRANCH 7 10
ENDBRANCH 5 6
BRANCH 5 19
ATOM     19  CB  VAL D4843     -57.542  24.019  38.285  1.00 37.59 LIG 0.01  C 
ATOM     20  CG1 VAL D4843     -56.104  24.121  38.708  1.00 42.19 LIG 0.01  C 
ATOM     21  CG2 VAL D4843     -58.348  23.161  39.263  1.00 33.91 LIG 0.01  C 
ENDBRANCH 5 19
ENDBRANCH 3 5
BRANCH 1 22
ATOM     22  CA  VAL D4842     -59.799  25.668  34.646  1.00 42.26 LIG 0.18  C 
BRANCH 22 23
ATOM     23  N   VAL D4842     -58.971  26.805  34.232  1.00 51.43 LIG-0.34  N 
ATOM     24 H    VAL D4842     -58.345  26.598  33.680  1.00 51.43 LIG 0.16  HD
ATOM     25  C   LEU D4841     -59.179  28.043  34.677  1.00 54.30 LIG 0.26  C 
ATOM     26 O    LEU D4841     -58.603  29.024  34.212  1.00 66.57 LIG-0.27  OA
BRANCH 25 27
ATOM     27  CA  LEU D4841     -60.210  28.204  35.784  1.00 50.85 LIG 0.40  C 
ATOM     28  N   LEU D4841     -59.838  29.300  36.684  1.00 66.18 LIG 0.61  N 
BRANCH 27 29
ATOM     29  CB  LEU D4841     -61.598  28.463  35.185  1.00 58.40 LIG 0.06  C 
BRANCH 29 30
ATOM     30  CG  LEU D4841     -61.644  29.044  33.767  1.00 54.26 LIG-0.02  C 
ATOM     31  CD2 LEU D4841     -62.887  29.937  33.534  1.00 54.78 LIG 0.01  C 
ATOM     32  CD1 LEU D4841     -61.540  27.943  32.702  1.00 32.44 LIG 0.01  C 
ENDBRANCH 29 30
ENDBRANCH 27 29
ENDBRANCH 25 27
ENDBRANCH 22 23
BRANCH 22 33
ATOM     33  CB  VAL D4842     -59.727  24.503  33.627  1.00 48.47 LIG 0.01  C 
ATOM     34  CG2 VAL D4842     -59.107  24.947  32.332  1.00 42.42 LIG 0.01  C 
ATOM     35  CG1 VAL D4842     -61.126  23.967  33.374  1.00 34.87 LIG 0.01  C 
ENDBRANCH 22 33
ENDBRANCH 1 22
TORSDOF 13
ENDMDL
MODEL 70
USER: ADFR SOLUTION from run 94
USER: SCORE 9.270865 LL:  -2.602 LR:  -7.350 RR:   0.000 FEB:  -3.472
USER: RMSD 8.008432
USER: SEED 93
USER: STATUS no improvement in best in 16 clusters for 5 generations
USER: GENES 15
USER: genes 0 Translation |==|  0.37468 0.43310 0.17503
USER: genes 1 Rotation |==|  0.66810 0.28707 0.91934 0.52360
USER: genes 2 Torsion [C]-N--CA-[CB] |==|  0.15688
USER: genes 3 Torsion [N]-CA--C-[N] |==|  0.06668
USER: genes 4 Torsion [C]-N--CA-[CB] |==|  0.21009
USER: genes 5 Torsion [N]-CA--CB-[CG] |==|  0.07206
USER: genes 6 Torsion [CA]-CB--CG-[OD1] |==|  0.15602
USER: genes 7 Torsion [N]-CA--C-[O] |==|  0.95284
USER: genes 8 Torsion [N]-CA--CB-[CG2] |==|  0.53926
USER: genes 9 Torsion [N]-C--CA-[N] |==|  0.22123
USER: genes 10 Torsion [C]-CA--N-[C] |==|  0.65193
USER: genes 11 Torsion [N]-C--CA-[N] |==|  0.22747
USER: genes 12 Torsion [C]-CA--CB-[CG] |==|  0.31705
USER: genes 13 Torsion [CA]-CB--CG-[CD2] |==|  0.78840
USER: genes 14 Torsion [C]-CA--CB-[CG2] |==|  0.49257
ROOT
ATOM      1  C   VAL D4842     -59.672  26.463  34.205  1.00 57.35 LIG 0.24  C 
ATOM      2 O    VAL D4842     -60.240  27.196  33.387  1.00 61.28 LIG-0.27  OA
ATOM      3  N   VAL D4843     -58.945  26.938  35.208  1.00 52.36 LIG-0.35  N 
ATOM      4 H    VAL D4843     -58.689  26.455  35.873  1.00 52.36 LIG 0.16  HD
ENDROOT
BRANCH 3 5
ATOM      5  CA  VAL D4843     -58.503  28.323  35.292  1.00 37.99 LIG 0.18  C 
BRANCH 5 6
ATOM      6  C   VAL D4843     -57.790  28.406  36.665  1.00 51.29 LIG 0.24  C 
ATOM      7  N   ASN D4844     -57.293  27.301  37.205  1.00 50.43 LIG-0.35  N 
ATOM      8 H    ASN D4844     -57.309  26.520  36.846  1.00 50.43 LIG 0.16  HD
ATOM      9 O    VAL D4843     -57.693  29.493  37.253  1.00 47.22 LIG-0.27  OA
BRANCH 7 10
ATOM     10  CA  ASN D4844     -56.656  27.381  38.528  1.00 46.88 LIG 0.17  C 
BRANCH 10 11
ATOM     11  CB  ASN D4844     -57.716  27.505  39.623  1.00 66.72 LIG 0.14  C 
BRANCH 11 12
ATOM     12  CG  ASN D4844     -59.049  26.908  39.218  1.00 62.42 LIG 0.22  C 
ATOM     13 OD1  ASN D4844     -59.141  25.734  38.852  1.00 56.11 LIG-0.27  OA
ATOM     14  ND2 ASN D4844     -60.096  27.723  39.282  1.00 67.26 LIG-0.37  N 
ATOM     15 21HD ASN D4844     -60.878  27.436  39.065  1.00 67.26 LIG 0.16  HD
ATOM     16 22HD ASN D4844     -59.993  28.536  39.542  1.00 67.26 LIG 0.16  HD
ENDBRANCH 11 12
ENDBRANCH 10 11
BRANCH 10 17
ATOM     17  C   ASN D4844     -55.667  26.251  38.861  1.00 52.57 LIG 0.22  C 
ATOM     18 O    ASN D4844     -55.657  25.190  38.216  1.00 48.91 LIG-0.29  OA
ENDBRANCH 10 17
ENDBRANCH 7 10
ENDBRANCH 5 6
BRANCH 5 19
ATOM     19  CB  VAL D4843     -59.768  29.233  35.220  1.00 37.59 LIG 0.01  C 
ATOM     20  CG1 VAL D4843     -60.625  29.115  36.449  1.00 42.19 LIG 0.01  C 
ATOM     21  CG2 VAL D4843     -59.382  30.690  34.952  1.00 33.91 LIG 0.01  C 
ENDBRANCH 5 19
ENDBRANCH 3 5
BRANCH 1 22
ATOM     22  CA  VAL D4842     -59.803  24.928  34.164  1.00 42.26 LIG 0.18  C 
BRANCH 22 23
ATOM     23  N   VAL D4842     -60.787  24.338  35.077  1.00 51.43 LIG-0.34  N 
ATOM     24 H    VAL D4842     -61.579  24.662  34.994  1.00 51.43 LIG 0.16  HD
ATOM     25  C   LEU D4841     -60.471  23.385  35.951  1.00 54.30 LIG 0.26  C 
ATOM     26 O    LEU D4841     -61.315  22.769  36.600  1.00 66.57 LIG-0.27  OA
BRANCH 25 27
ATOM     27  CA  LEU D4841     -58.993  23.053  36.093  1.00 50.85 LIG 0.40  C 
ATOM     28  N   LEU D4841     -58.330  24.009  36.985  1.00 66.18 LIG 0.61  N 
BRANCH 27 29
ATOM     29  CB  LEU D4841     -58.815  21.626  36.625  1.00 58.40 LIG 0.06  C 
BRANCH 29 30
ATOM     30  CG  LEU D4841     -58.165  20.609  35.680  1.00 54.26 LIG-0.02  C 
ATOM     31  CD2 LEU D4841     -59.138  20.118  34.580  1.00 54.78 LIG 0.01  C 
ATOM     32  CD1 LEU D4841     -57.554  19.431  36.450  1.00 32.44 LIG 0.01  C 
ENDBRANCH 29 30
ENDBRANCH 27 29
ENDBRANCH 25 27
ENDBRANCH 22 23
BRANCH 22 33
ATOM     33  CB  VAL D4842     -60.002  24.436  32.707  1.00 48.47 LIG 0.01  C 
ATOM     34  CG2 VAL D4842     -60.067  22.935  32.642  1.00 42.42 LIG 0.01  C 
ATOM     35  CG1 VAL D4842     -58.858  24.942  31.844  1.00 34.87 LIG 0.01  C 
ENDBRANCH 22 33
ENDBRANCH 1 22
TORSDOF 13
ENDMDL
MODEL 71
USER: ADFR SOLUTION from run 154
USER: SCORE 8.929799 LL:  -2.921 LR:  -7.348 RR:   0.000 FEB:  -3.470
USER: RMSD 8.582718
USER: SEED 153
USER: STATUS no improvement in best in 35 clusters for 5 generations
USER: GENES 15
USER: genes 0 Translation |==|  0.35896 0.32854 0.09149
USER: genes 1 Rotation |==|  0.60659 0.57788 0.02175 0.56205
USER: genes 2 Torsion [C]-N--CA-[CB] |==|  0.37465
USER: genes 3 Torsion [N]-CA--C-[N] |==|  0.89327
USER: genes 4 Torsion [C]-N--CA-[CB] |==|  0.18279
USER: genes 5 Torsion [N]-CA--CB-[CG] |==|  0.59684
USER: genes 6 Torsion [CA]-CB--CG-[OD1] |==|  0.99012
USER: genes 7 Torsion [N]-CA--C-[O] |==|  0.06404
USER: genes 8 Torsion [N]-CA--CB-[CG2] |==|  0.48575
USER: genes 9 Torsion [N]-C--CA-[N] |==|  0.97387
USER: genes 10 Torsion [C]-CA--N-[C] |==|  0.72234
USER: genes 11 Torsion [N]-C--CA-[N] |==|  0.25950
USER: genes 12 Torsion [C]-CA--CB-[CG] |==|  0.25361
USER: genes 13 Torsion [CA]-CB--CG-[CD2] |==|  0.07205
USER: genes 14 Torsion [C]-CA--CB-[CG2] |==|  0.73168
ROOT
ATOM      1  C   VAL D4842     -60.002  24.738  32.952  1.00 57.35 LIG 0.24  C 
ATOM      2 O    VAL D4842     -59.290  24.909  31.955  1.00 61.28 LIG-0.27  OA
ATOM      3  N   VAL D4843     -60.498  25.745  33.660  1.00 52.36 LIG-0.35  N 
ATOM      4 H    VAL D4843     -61.122  25.645  34.243  1.00 52.36 LIG 0.16  HD
ENDROOT
BRANCH 3 5
ATOM      5  CA  VAL D4843     -60.042  27.120  33.525  1.00 37.99 LIG 0.18  C 
BRANCH 5 6
ATOM      6  C   VAL D4843     -59.191  27.360  34.797  1.00 51.29 LIG 0.24  C 
ATOM      7  N   ASN D4844     -59.590  26.840  35.951  1.00 50.43 LIG-0.35  N 
ATOM      8 H    ASN D4844     -60.286  26.347  36.061  1.00 50.43 LIG 0.16  HD
ATOM      9 O    VAL D4843     -58.155  28.036  34.737  1.00 47.22 LIG-0.27  OA
BRANCH 7 10
ATOM     10  CA  ASN D4844     -58.801  27.107  37.162  1.00 46.88 LIG 0.17  C 
BRANCH 10 11
ATOM     11  CB  ASN D4844     -58.857  28.593  37.516  1.00 66.72 LIG 0.14  C 
BRANCH 11 12
ATOM     12  CG  ASN D4844     -57.559  29.103  38.111  1.00 62.42 LIG 0.22  C 
ATOM     13 OD1  ASN D4844     -56.613  28.344  38.330  1.00 56.11 LIG-0.27  OA
ATOM     14  ND2 ASN D4844     -57.511  30.404  38.375  1.00 67.26 LIG-0.37  N 
ATOM     15 21HD ASN D4844     -56.798  30.748  38.712  1.00 67.26 LIG 0.16  HD
ATOM     16 22HD ASN D4844     -58.192  30.902  38.208  1.00 67.26 LIG 0.16  HD
ENDBRANCH 11 12
ENDBRANCH 10 11
BRANCH 10 17
ATOM     17  C   ASN D4844     -59.149  26.247  38.389  1.00 52.57 LIG 0.22  C 
ATOM     18 O    ASN D4844     -59.704  25.143  38.267  1.00 48.91 LIG-0.29  OA
ENDBRANCH 10 17
ENDBRANCH 7 10
ENDBRANCH 5 6
BRANCH 5 19
ATOM     19  CB  VAL D4843     -61.302  28.038  33.469  1.00 37.59 LIG 0.01  C 
ATOM     20  CG1 VAL D4843     -62.270  27.746  34.580  1.00 42.19 LIG 0.01  C 
ATOM     21  CG2 VAL D4843     -60.905  29.517  33.455  1.00 33.91 LIG 0.01  C 
ENDBRANCH 5 19
ENDBRANCH 3 5
BRANCH 1 22
ATOM     22  CA  VAL D4842     -60.420  23.334  33.431  1.00 42.26 LIG 0.18  C 
BRANCH 22 23
ATOM     23  N   VAL D4842     -61.126  23.272  34.715  1.00 51.43 LIG-0.34  N 
ATOM     24 H    VAL D4842     -61.962  23.468  34.663  1.00 51.43 LIG 0.16  HD
ATOM     25  C   LEU D4841     -60.518  22.939  35.851  1.00 54.30 LIG 0.26  C 
ATOM     26 O    LEU D4841     -61.129  22.722  36.896  1.00 66.57 LIG-0.27  OA
BRANCH 25 27
ATOM     27  CA  LEU D4841     -59.003  22.798  35.797  1.00 50.85 LIG 0.40  C 
ATOM     28  N   LEU D4841     -58.352  24.057  36.174  1.00 66.18 LIG 0.61  N 
BRANCH 27 29
ATOM     29  CB  LEU D4841     -58.540  21.668  36.724  1.00 58.40 LIG 0.06  C 
BRANCH 29 30
ATOM     30  CG  LEU D4841     -58.421  20.269  36.105  1.00 54.26 LIG-0.02  C 
ATOM     31  CD2 LEU D4841     -58.165  20.318  34.580  1.00 54.78 LIG 0.01  C 
ATOM     32  CD1 LEU D4841     -59.639  19.398  36.440  1.00 32.44 LIG 0.01  C 
ENDBRANCH 29 30
ENDBRANCH 27 29
ENDBRANCH 25 27
ENDBRANCH 22 23
BRANCH 22 33
ATOM     33  CB  VAL D4842     -61.189  22.582  32.314  1.00 48.47 LIG 0.01  C 
ATOM     34  CG2 VAL D4842     -62.676  22.710  32.494  1.00 42.42 LIG 0.01  C 
ATOM     35  CG1 VAL D4842     -60.791  21.116  32.328  1.00 34.87 LIG 0.01  C 
ENDBRANCH 22 33
ENDBRANCH 1 22
TORSDOF 13
ENDMDL
MODEL 72
USER: ADFR SOLUTION from run 14
USER: SCORE 9.478086 LL:  -2.818 LR:  -7.335 RR:   0.000 FEB:  -3.457
USER: RMSD 5.072233
USER: SEED 194828
USER: STATUS no improvement in best in 36 clusters for 5 generations
USER: GENES 15
USER: genes 0 Translation |==|  0.45031 0.52093 0.37147
USER: genes 1 Rotation |==|  0.53421 0.42643 0.13989 0.83725
USER: genes 2 Torsion [C]-N--CA-[CB] |==|  0.89954
USER: genes 3 Torsion [N]-CA--C-[N] |==|  0.86767
USER: genes 4 Torsion [C]-N--CA-[CB] |==|  0.83005
USER: genes 5 Torsion [N]-CA--CB-[CG] |==|  0.35609
USER: genes 6 Torsion [CA]-CB--CG-[OD1] |==|  0.28724
USER: genes 7 Torsion [N]-CA--C-[O] |==|  0.29307
USER: genes 8 Torsion [N]-CA--CB-[CG2] |==|  0.73524
USER: genes 9 Torsion [N]-C--CA-[N] |==|  0.91343
USER: genes 10 Torsion [C]-CA--N-[C] |==|  0.76773
USER: genes 11 Torsion [N]-C--CA-[N] |==|  0.36762
USER: genes 12 Torsion [C]-CA--CB-[CG] |==|  0.23992
USER: genes 13 Torsion [CA]-CB--CG-[CD2] |==|  0.70328
USER: genes 14 Torsion [C]-CA--CB-[CG2] |==|  0.30212
ROOT
ATOM      1  C   VAL D4842     -58.083  27.912  37.152  1.00 57.35 LIG 0.24  C 
ATOM      2 O    VAL D4842     -57.428  27.964  36.105  1.00 61.28 LIG-0.27  OA
ATOM      3  N   VAL D4843     -59.400  28.075  37.182  1.00 52.36 LIG-0.35  N 
ATOM      4 H    VAL D4843     -59.882  27.876  37.866  1.00 52.36 LIG 0.16  HD
ENDROOT
BRANCH 3 5
ATOM      5  CA  VAL D4843     -60.167  28.606  36.065  1.00 37.99 LIG 0.18  C 
BRANCH 5 6
ATOM      6  C   VAL D4843     -60.405  27.376  35.155  1.00 51.29 LIG 0.24  C 
ATOM      7  N   ASN D4844     -59.383  26.582  34.858  1.00 50.43 LIG-0.35  N 
ATOM      8 H    ASN D4844     -58.580  26.675  35.150  1.00 50.43 LIG 0.16  HD
ATOM      9 O    VAL D4843     -61.535  27.141  34.703  1.00 47.22 LIG-0.27  OA
BRANCH 7 10
ATOM     10  CA  ASN D4844     -59.607  25.441  33.958  1.00 46.88 LIG 0.17  C 
BRANCH 10 11
ATOM     11  CB  ASN D4844     -60.629  24.479  34.563  1.00 66.72 LIG 0.14  C 
BRANCH 11 12
ATOM     12  CG  ASN D4844     -61.759  24.147  33.608  1.00 62.42 LIG 0.22  C 
ATOM     13 OD1  ASN D4844     -61.800  23.067  33.016  1.00 56.11 LIG-0.27  OA
ATOM     14  ND2 ASN D4844     -62.687  25.085  33.455  1.00 67.26 LIG-0.37  N 
ATOM     15 21HD ASN D4844     -63.352  24.950  32.925  1.00 67.26 LIG 0.16  HD
ATOM     16 22HD ASN D4844     -62.624  25.827  33.885  1.00 67.26 LIG 0.16  HD
ENDBRANCH 11 12
ENDBRANCH 10 11
BRANCH 10 17
ATOM     17  C   ASN D4844     -59.993  25.798  32.513  1.00 52.57 LIG 0.22  C 
ATOM     18 O    ASN D4844     -59.181  25.684  31.580  1.00 48.91 LIG-0.29  OA
ENDBRANCH 10 17
ENDBRANCH 7 10
ENDBRANCH 5 6
BRANCH 5 19
ATOM     19  CB  VAL D4843     -59.303  29.704  35.371  1.00 37.59 LIG 0.01  C 
ATOM     20  CG1 VAL D4843     -59.403  29.645  33.873  1.00 42.19 LIG 0.01  C 
ATOM     21  CG2 VAL D4843     -59.661  31.097  35.896  1.00 33.91 LIG 0.01  C 
ENDBRANCH 5 19
ENDBRANCH 3 5
BRANCH 1 22
ATOM     22  CA  VAL D4842     -57.433  27.599  38.513  1.00 42.26 LIG 0.18  C 
BRANCH 22 23
ATOM     23  N   VAL D4842     -58.085  28.179  39.691  1.00 51.43 LIG-0.34  N 
ATOM     24 H    VAL D4842     -58.627  27.643  40.090  1.00 51.43 LIG 0.16  HD
ATOM     25  C   LEU D4841     -57.853  29.425  40.099  1.00 54.30 LIG 0.26  C 
ATOM     26 O    LEU D4841     -58.262  29.863  41.172  1.00 66.57 LIG-0.27  OA
BRANCH 25 27
ATOM     27  CA  LEU D4841     -57.009  30.296  39.179  1.00 50.85 LIG 0.40  C 
ATOM     28  N   LEU D4841     -57.636  31.607  38.985  1.00 66.18 LIG 0.61  N 
BRANCH 27 29
ATOM     29  CB  LEU D4841     -55.598  30.468  39.756  1.00 58.40 LIG 0.06  C 
BRANCH 29 30
ATOM     30  CG  LEU D4841     -54.570  29.384  39.408  1.00 54.26 LIG-0.02  C 
ATOM     31  CD2 LEU D4841     -54.257  28.460  40.610  1.00 54.78 LIG 0.01  C 
ATOM     32  CD1 LEU D4841     -53.289  29.988  38.820  1.00 32.44 LIG 0.01  C 
ENDBRANCH 29 30
ENDBRANCH 27 29
ENDBRANCH 25 27
ENDBRANCH 22 23
BRANCH 22 33
ATOM     33  CB  VAL D4842     -57.206  26.074  38.673  1.00 48.47 LIG 0.01  C 
ATOM     34  CG2 VAL D4842     -55.746  25.728  38.591  1.00 42.42 LIG 0.01  C 
ATOM     35  CG1 VAL D4842     -57.976  25.334  37.592  1.00 34.87 LIG 0.01  C 
ENDBRANCH 22 33
ENDBRANCH 1 22
TORSDOF 13
ENDMDL
MODEL 73
USER: ADFR SOLUTION from run 109
USER: SCORE 8.498774 LL:  -2.325 LR:  -7.341 RR:   0.000 FEB:  -3.463
USER: RMSD 5.883952
USER: SEED 108
USER: STATUS no improvement in best in 33 clusters for 5 generations
USER: GENES 15
USER: genes 0 Translation |==|  0.44431 0.41904 0.43602
USER: genes 1 Rotation |==|  0.76919 0.85426 0.59305 0.70828
USER: genes 2 Torsion [C]-N--CA-[CB] |==|  0.22640
USER: genes 3 Torsion [N]-CA--C-[N] |==|  0.61667
USER: genes 4 Torsion [C]-N--CA-[CB] |==|  0.83043
USER: genes 5 Torsion [N]-CA--CB-[CG] |==|  0.88928
USER: genes 6 Torsion [CA]-CB--CG-[OD1] |==|  0.75893
USER: genes 7 Torsion [N]-CA--C-[O] |==|  0.01609
USER: genes 8 Torsion [N]-CA--CB-[CG2] |==|  0.53117
USER: genes 9 Torsion [N]-C--CA-[N] |==|  0.40540
USER: genes 10 Torsion [C]-CA--N-[C] |==|  0.84189
USER: genes 11 Torsion [N]-C--CA-[N] |==|  0.29914
USER: genes 12 Torsion [C]-CA--CB-[CG] |==|  0.37351
USER: genes 13 Torsion [CA]-CB--CG-[CD2] |==|  0.27890
USER: genes 14 Torsion [C]-CA--CB-[CG2] |==|  0.04000
ROOT
ATOM      1  C   VAL D4842     -58.209  26.231  38.120  1.00 57.35 LIG 0.24  C 
ATOM      2 O    VAL D4842     -58.944  26.364  39.107  1.00 61.28 LIG-0.27  OA
ATOM      3  N   VAL D4843     -58.619  25.663  36.993  1.00 52.36 LIG-0.35  N 
ATOM      4 H    VAL D4843     -58.181  25.717  36.255  1.00 52.36 LIG 0.16  HD
ENDROOT
BRANCH 3 5
ATOM      5  CA  VAL D4843     -59.849  24.892  36.886  1.00 37.99 LIG 0.18  C 
BRANCH 5 6
ATOM      6  C   VAL D4843     -59.632  24.013  35.629  1.00 51.29 LIG 0.24  C 
ATOM      7  N   ASN D4844     -60.630  23.853  34.770  1.00 50.43 LIG-0.35  N 
ATOM      8 H    ASN D4844     -61.405  24.221  34.833  1.00 50.43 LIG 0.16  HD
ATOM      9 O    VAL D4843     -58.540  23.460  35.435  1.00 47.22 LIG-0.27  OA
BRANCH 7 10
ATOM     10  CA  ASN D4844     -60.430  22.982  33.602  1.00 46.88 LIG 0.17  C 
BRANCH 10 11
ATOM     11  CB  ASN D4844     -59.298  23.518  32.727  1.00 66.72 LIG 0.14  C 
BRANCH 11 12
ATOM     12  CG  ASN D4844     -59.314  25.030  32.607  1.00 62.42 LIG 0.22  C 
ATOM     13 OD1  ASN D4844     -59.988  25.597  31.745  1.00 56.11 LIG-0.27  OA
ATOM     14  ND2 ASN D4844     -58.565  25.692  33.481  1.00 67.26 LIG-0.37  N 
ATOM     15 21HD ASN D4844     -58.537  26.552  33.460  1.00 67.26 LIG 0.16  HD
ATOM     16 22HD ASN D4844     -58.107  25.261  34.069  1.00 67.26 LIG 0.16  HD
ENDBRANCH 11 12
ENDBRANCH 10 11
BRANCH 10 17
ATOM     17  C   ASN D4844     -60.212  21.491  33.912  1.00 52.57 LIG 0.22  C 
ATOM     18 O    ASN D4844     -60.314  21.050  35.068  1.00 48.91 LIG-0.29  OA
ENDBRANCH 10 17
ENDBRANCH 7 10
ENDBRANCH 5 6
BRANCH 5 19
ATOM     19  CB  VAL D4843     -61.030  25.897  36.714  1.00 37.59 LIG 0.01  C 
ATOM     20  CG1 VAL D4843     -60.956  26.647  35.414  1.00 42.19 LIG 0.01  C 
ATOM     21  CG2 VAL D4843     -62.379  25.191  36.871  1.00 33.91 LIG 0.01  C 
ENDBRANCH 5 19
ENDBRANCH 3 5
BRANCH 1 22
ATOM     22  CA  VAL D4842     -56.764  26.765  38.095  1.00 42.26 LIG 0.18  C 
BRANCH 22 23
ATOM     23  N   VAL D4842     -56.509  27.980  38.875  1.00 51.43 LIG-0.34  N 
ATOM     24 H    VAL D4842     -55.891  27.891  39.467  1.00 51.43 LIG 0.16  HD
ATOM     25  C   LEU D4841     -57.179  29.113  38.677  1.00 54.30 LIG 0.26  C 
ATOM     26 O    LEU D4841     -56.862  30.177  39.205  1.00 66.57 LIG-0.27  OA
BRANCH 25 27
ATOM     27  CA  LEU D4841     -58.359  29.047  37.718  1.00 50.85 LIG 0.40  C 
ATOM     28  N   LEU D4841     -59.627  29.135  38.449  1.00 66.18 LIG 0.61  N 
BRANCH 27 29
ATOM     29  CB  LEU D4841     -58.269  30.175  36.683  1.00 58.40 LIG 0.06  C 
BRANCH 29 30
ATOM     30  CG  LEU D4841     -58.528  29.796  35.220  1.00 54.26 LIG-0.02  C 
ATOM     31  CD2 LEU D4841     -59.959  30.165  34.759  1.00 54.78 LIG 0.01  C 
ATOM     32  CD1 LEU D4841     -58.220  28.316  34.956  1.00 32.44 LIG 0.01  C 
ENDBRANCH 29 30
ENDBRANCH 27 29
ENDBRANCH 25 27
ENDBRANCH 22 23
BRANCH 22 33
ATOM     33  CB  VAL D4842     -55.759  25.637  38.441  1.00 48.47 LIG 0.01  C 
ATOM     34  CG2 VAL D4842     -56.408  24.284  38.363  1.00 42.42 LIG 0.01  C 
ATOM     35  CG1 VAL D4842     -55.205  25.866  39.838  1.00 34.87 LIG 0.01  C 
ENDBRANCH 22 33
ENDBRANCH 1 22
TORSDOF 13
ENDMDL
MODEL 74
USER: ADFR SOLUTION from run 109
USER: SCORE 8.940711 LL:  -2.348 LR:  -7.337 RR:   0.000 FEB:  -3.459
USER: RMSD 5.067354
USER: SEED 108
USER: STATUS no improvement in best in 33 clusters for 5 generations
USER: GENES 15
USER: genes 0 Translation |==|  0.40629 0.42875 0.42563
USER: genes 1 Rotation |==|  0.73282 0.83270 0.58468 0.77918
USER: genes 2 Torsion [C]-N--CA-[CB] |==|  0.17772
USER: genes 3 Torsion [N]-CA--C-[N] |==|  0.63206
USER: genes 4 Torsion [C]-N--CA-[CB] |==|  0.83296
USER: genes 5 Torsion [N]-CA--CB-[CG] |==|  0.88202
USER: genes 6 Torsion [CA]-CB--CG-[OD1] |==|  0.76790
USER: genes 7 Torsion [N]-CA--C-[O] |==|  0.97315
USER: genes 8 Torsion [N]-CA--CB-[CG2] |==|  0.51820
USER: genes 9 Torsion [N]-C--CA-[N] |==|  0.93014
USER: genes 10 Torsion [C]-CA--N-[C] |==|  0.75299
USER: genes 11 Torsion [N]-C--CA-[N] |==|  0.39610
USER: genes 12 Torsion [C]-CA--CB-[CG] |==|  0.95883
USER: genes 13 Torsion [CA]-CB--CG-[CD2] |==|  0.59869
USER: genes 14 Torsion [C]-CA--CB-[CG2] |==|  0.21338
ROOT
ATOM      1  C   VAL D4842     -59.008  26.391  37.964  1.00 57.35 LIG 0.24  C 
ATOM      2 O    VAL D4842     -59.953  26.724  38.689  1.00 61.28 LIG-0.27  OA
ATOM      3  N   VAL D4843     -59.154  25.583  36.922  1.00 52.36 LIG-0.35  N 
ATOM      4 H    VAL D4843     -58.549  25.481  36.319  1.00 52.36 LIG 0.16  HD
ENDROOT
BRANCH 3 5
ATOM      5  CA  VAL D4843     -60.349  24.786  36.688  1.00 37.99 LIG 0.18  C 
BRANCH 5 6
ATOM      6  C   VAL D4843     -60.006  23.957  35.426  1.00 51.29 LIG 0.24  C 
ATOM      7  N   ASN D4844     -60.884  23.894  34.433  1.00 50.43 LIG-0.35  N 
ATOM      8 H    ASN D4844     -61.641  24.301  34.412  1.00 50.43 LIG 0.16  HD
ATOM      9 O    VAL D4843     -58.926  23.353  35.350  1.00 47.22 LIG-0.27  OA
BRANCH 7 10
ATOM     10  CA  ASN D4844     -60.569  23.069  33.257  1.00 46.88 LIG 0.17  C 
BRANCH 10 11
ATOM     11  CB  ASN D4844     -59.290  23.568  32.585  1.00 66.72 LIG 0.14  C 
BRANCH 11 12
ATOM     12  CG  ASN D4844     -59.226  25.080  32.496  1.00 62.42 LIG 0.22  C 
ATOM     13 OD1  ASN D4844     -59.780  25.692  31.581  1.00 56.11 LIG-0.27  OA
ATOM     14  ND2 ASN D4844     -58.543  25.692  33.457  1.00 67.26 LIG-0.37  N 
ATOM     15 21HD ASN D4844     -58.474  26.550  33.457  1.00 67.26 LIG 0.16  HD
ATOM     16 22HD ASN D4844     -58.169  25.231  34.080  1.00 67.26 LIG 0.16  HD
ENDBRANCH 11 12
ENDBRANCH 10 11
BRANCH 10 17
ATOM     17  C   ASN D4844     -60.491  21.554  33.508  1.00 52.57 LIG 0.22  C 
ATOM     18 O    ASN D4844     -60.507  21.087  34.658  1.00 48.91 LIG-0.29  OA
ENDBRANCH 10 17
ENDBRANCH 7 10
ENDBRANCH 5 6
BRANCH 5 19
ATOM     19  CB  VAL D4843     -61.539  25.767  36.452  1.00 37.59 LIG 0.01  C 
ATOM     20  CG1 VAL D4843     -61.326  26.642  35.249  1.00 42.19 LIG 0.01  C 
ATOM     21  CG2 VAL D4843     -62.866  25.009  36.358  1.00 33.91 LIG 0.01  C 
ENDBRANCH 5 19
ENDBRANCH 3 5
BRANCH 1 22
ATOM     22  CA  VAL D4842     -57.580  26.932  38.177  1.00 42.26 LIG 0.18  C 
BRANCH 22 23
ATOM     23  N   VAL D4842     -56.491  26.113  37.635  1.00 51.43 LIG-0.34  N 
ATOM     24 H    VAL D4842     -56.268  26.318  36.830  1.00 51.43 LIG 0.16  HD
ATOM     25  C   LEU D4841     -55.907  25.143  38.335  1.00 54.30 LIG 0.26  C 
ATOM     26 O    LEU D4841     -54.890  24.567  37.956  1.00 66.57 LIG-0.27  OA
BRANCH 25 27
ATOM     27  CA  LEU D4841     -56.541  24.792  39.673  1.00 50.85 LIG 0.40  C 
ATOM     28  N   LEU D4841     -56.480  23.347  39.913  1.00 66.18 LIG 0.61  N 
BRANCH 27 29
ATOM     29  CB  LEU D4841     -55.839  25.545  40.809  1.00 58.40 LIG 0.06  C 
BRANCH 29 30
ATOM     30  CG  LEU D4841     -54.484  26.185  40.483  1.00 54.26 LIG-0.02  C 
ATOM     31  CD2 LEU D4841     -53.500  26.126  41.676  1.00 54.78 LIG 0.01  C 
ATOM     32  CD1 LEU D4841     -54.647  27.621  39.965  1.00 32.44 LIG 0.01  C 
ENDBRANCH 29 30
ENDBRANCH 27 29
ENDBRANCH 25 27
ENDBRANCH 22 23
BRANCH 22 33
ATOM     33  CB  VAL D4842     -57.479  28.406  37.711  1.00 48.47 LIG 0.01  C 
ATOM     34  CG2 VAL D4842     -58.096  29.340  38.715  1.00 42.42 LIG 0.01  C 
ATOM     35  CG1 VAL D4842     -58.172  28.560  36.368  1.00 34.87 LIG 0.01  C 
ENDBRANCH 22 33
ENDBRANCH 1 22
TORSDOF 13
ENDMDL
MODEL 75
USER: ADFR SOLUTION from run 5
USER: SCORE 8.363973 LL:  -2.464 LR:  -7.332 RR:   0.000 FEB:  -3.454
USER: RMSD 9.577408
USER: SEED 970925
USER: STATUS no improvement in best in 42 clusters for 5 generations
USER: GENES 15
USER: genes 0 Translation |==|  0.36329 0.35214 0.11909
USER: genes 1 Rotation |==|  0.58406 0.59939 0.02200 0.56764
USER: genes 2 Torsion [C]-N--CA-[CB] |==|  0.37155
USER: genes 3 Torsion [N]-CA--C-[N] |==|  0.86828
USER: genes 4 Torsion [C]-N--CA-[CB] |==|  0.80134
USER: genes 5 Torsion [N]-CA--CB-[CG] |==|  0.76660
USER: genes 6 Torsion [CA]-CB--CG-[OD1] |==|  0.80295
USER: genes 7 Torsion [N]-CA--C-[O] |==|  0.66312
USER: genes 8 Torsion [N]-CA--CB-[CG2] |==|  0.66906
USER: genes 9 Torsion [N]-C--CA-[N] |==|  0.45870
USER: genes 10 Torsion [C]-CA--N-[C] |==|  0.66874
USER: genes 11 Torsion [N]-C--CA-[N] |==|  0.35085
USER: genes 12 Torsion [C]-CA--CB-[CG] |==|  0.17388
USER: genes 13 Torsion [CA]-CB--CG-[CD2] |==|  0.67336
USER: genes 14 Torsion [C]-CA--CB-[CG2] |==|  0.60593
ROOT
ATOM      1  C   VAL D4842     -59.911  25.127  33.366  1.00 57.35 LIG 0.24  C 
ATOM      2 O    VAL D4842     -59.307  25.402  32.322  1.00 61.28 LIG-0.27  OA
ATOM      3  N   VAL D4843     -60.388  26.057  34.184  1.00 52.36 LIG-0.35  N 
ATOM      4 H    VAL D4843     -60.949  25.885  34.813  1.00 52.36 LIG 0.16  HD
ENDROOT
BRANCH 3 5
ATOM      5  CA  VAL D4843     -60.017  27.462  34.103  1.00 37.99 LIG 0.18  C 
BRANCH 5 6
ATOM      6  C   VAL D4843     -59.086  27.675  35.322  1.00 51.29 LIG 0.24  C 
ATOM      7  N   ASN D4844     -59.459  27.216  36.510  1.00 50.43 LIG-0.35  N 
ATOM      8 H    ASN D4844     -60.181  26.778  36.671  1.00 50.43 LIG 0.16  HD
ATOM      9 O    VAL D4843     -58.009  28.273  35.188  1.00 47.22 LIG-0.27  OA
BRANCH 7 10
ATOM     10  CA  ASN D4844     -58.590  27.460  37.671  1.00 46.88 LIG 0.17  C 
BRANCH 10 11
ATOM     11  CB  ASN D4844     -57.328  26.603  37.580  1.00 66.72 LIG 0.14  C 
BRANCH 11 12
ATOM     12  CG  ASN D4844     -57.534  25.199  38.114  1.00 62.42 LIG 0.22  C 
ATOM     13 OD1  ASN D4844     -57.675  24.987  39.320  1.00 56.11 LIG-0.27  OA
ATOM     14  ND2 ASN D4844     -57.551  24.227  37.209  1.00 67.26 LIG-0.37  N 
ATOM     15 21HD ASN D4844     -57.665  23.411  37.456  1.00 67.26 LIG 0.16  HD
ATOM     16 22HD ASN D4844     -57.448  24.414  36.375  1.00 67.26 LIG 0.16  HD
ENDBRANCH 11 12
ENDBRANCH 10 11
BRANCH 10 17
ATOM     17  C   ASN D4844     -58.224  28.931  37.932  1.00 52.57 LIG 0.22  C 
ATOM     18 O    ASN D4844     -57.042  29.310  37.950  1.00 48.91 LIG-0.29  OA
ENDBRANCH 10 17
ENDBRANCH 7 10
ENDBRANCH 5 6
BRANCH 5 19
ATOM     19  CB  VAL D4843     -61.325  28.307  34.196  1.00 37.59 LIG 0.01  C 
ATOM     20  CG1 VAL D4843     -61.364  29.163  35.431  1.00 42.19 LIG 0.01  C 
ATOM     21  CG2 VAL D4843     -61.527  29.149  32.933  1.00 33.91 LIG 0.01  C 
ENDBRANCH 5 19
ENDBRANCH 3 5
BRANCH 1 22
ATOM     22  CA  VAL D4842     -60.211  23.674  33.783  1.00 42.26 LIG 0.18  C 
BRANCH 22 23
ATOM     23  N   VAL D4842     -60.003  22.650  32.755  1.00 51.43 LIG-0.34  N 
ATOM     24 H    VAL D4842     -59.193  22.602  32.468  1.00 51.43 LIG 0.16  HD
ATOM     25  C   LEU D4841     -60.985  21.868  32.313  1.00 54.30 LIG 0.26  C 
ATOM     26 O    LEU D4841     -60.790  20.901  31.580  1.00 66.57 LIG-0.27  OA
BRANCH 25 27
ATOM     27  CA  LEU D4841     -62.390  22.203  32.793  1.00 50.85 LIG 0.40  C 
ATOM     28  N   LEU D4841     -63.303  22.362  31.657  1.00 66.18 LIG 0.61  N 
BRANCH 27 29
ATOM     29  CB  LEU D4841     -62.907  21.109  33.735  1.00 58.40 LIG 0.06  C 
BRANCH 29 30
ATOM     30  CG  LEU D4841     -62.133  20.896  35.041  1.00 54.26 LIG-0.02  C 
ATOM     31  CD2 LEU D4841     -61.511  19.481  35.136  1.00 54.78 LIG 0.01  C 
ATOM     32  CD1 LEU D4841     -62.999  21.208  36.269  1.00 32.44 LIG 0.01  C 
ENDBRANCH 29 30
ENDBRANCH 27 29
ENDBRANCH 25 27
ENDBRANCH 22 23
BRANCH 22 33
ATOM     33  CB  VAL D4842     -59.478  23.322  35.103  1.00 48.47 LIG 0.01  C 
ATOM     34  CG2 VAL D4842     -58.960  21.911  35.080  1.00 42.42 LIG 0.01  C 
ATOM     35  CG1 VAL D4842     -60.431  23.504  36.273  1.00 34.87 LIG 0.01  C 
ENDBRANCH 22 33
ENDBRANCH 1 22
TORSDOF 13
ENDMDL
MODEL 76
USER: ADFR SOLUTION from run 143
USER: SCORE 8.696367 LL:  -2.660 LR:  -7.327 RR:   0.000 FEB:  -3.449
USER: RMSD 6.850838
USER: SEED 142
USER: STATUS no improvement in best in 18 clusters for 5 generations
USER: GENES 15
USER: genes 0 Translation |==|  0.31844 0.48207 0.22301
USER: genes 1 Rotation |==|  0.39027 0.54384 0.37900 0.97053
USER: genes 2 Torsion [C]-N--CA-[CB] |==|  0.81633
USER: genes 3 Torsion [N]-CA--C-[N] |==|  0.17795
USER: genes 4 Torsion [C]-N--CA-[CB] |==|  0.32999
USER: genes 5 Torsion [N]-CA--CB-[CG] |==|  0.85181
USER: genes 6 Torsion [CA]-CB--CG-[OD1] |==|  0.78510
USER: genes 7 Torsion [N]-CA--C-[O] |==|  0.71722
USER: genes 8 Torsion [N]-CA--CB-[CG2] |==|  0.85407
USER: genes 9 Torsion [N]-C--CA-[N] |==|  0.17382
USER: genes 10 Torsion [C]-CA--N-[C] |==|  0.69051
USER: genes 11 Torsion [N]-C--CA-[N] |==|  0.40927
USER: genes 12 Torsion [C]-CA--CB-[CG] |==|  0.37640
USER: genes 13 Torsion [CA]-CB--CG-[CD2] |==|  0.00402
USER: genes 14 Torsion [C]-CA--CB-[CG2] |==|  0.49503
ROOT
ATOM      1  C   VAL D4842     -60.853  27.271  34.925  1.00 57.35 LIG 0.24  C 
ATOM      2 O    VAL D4842     -61.228  27.175  33.750  1.00 61.28 LIG-0.27  OA
ATOM      3  N   VAL D4843     -61.300  26.476  35.888  1.00 52.36 LIG-0.35  N 
ATOM      4 H    VAL D4843     -60.928  26.420  36.661  1.00 52.36 LIG 0.16  HD
ENDROOT
BRANCH 3 5
ATOM      5  CA  VAL D4843     -62.465  25.615  35.739  1.00 37.99 LIG 0.18  C 
BRANCH 5 6
ATOM      6  C   VAL D4843     -62.165  24.796  34.459  1.00 51.29 LIG 0.24  C 
ATOM      7  N   ASN D4844     -61.131  23.965  34.449  1.00 50.43 LIG-0.35  N 
ATOM      8 H    ASN D4844     -60.607  23.814  35.114  1.00 50.43 LIG 0.16  HD
ATOM      9 O    VAL D4843     -62.880  24.924  33.455  1.00 47.22 LIG-0.27  OA
BRANCH 7 10
ATOM     10  CA  ASN D4844     -60.827  23.224  33.216  1.00 46.88 LIG 0.17  C 
BRANCH 10 11
ATOM     11  CB  ASN D4844     -59.434  23.589  32.705  1.00 66.72 LIG 0.14  C 
BRANCH 11 12
ATOM     12  CG  ASN D4844     -59.242  25.084  32.543  1.00 62.42 LIG 0.22  C 
ATOM     13 OD1  ASN D4844     -59.715  25.690  31.580  1.00 56.11 LIG-0.27  OA
ATOM     14  ND2 ASN D4844     -58.540  25.688  33.496  1.00 67.26 LIG-0.37  N 
ATOM     15 21HD ASN D4844     -58.400  26.536  33.455  1.00 67.26 LIG 0.16  HD
ATOM     16 22HD ASN D4844     -58.225  25.231  34.153  1.00 67.26 LIG 0.16  HD
ENDBRANCH 11 12
ENDBRANCH 10 11
BRANCH 10 17
ATOM     17  C   ASN D4844     -60.987  21.696  33.300  1.00 52.57 LIG 0.22  C 
ATOM     18 O    ASN D4844     -60.003  20.949  33.424  1.00 48.91 LIG-0.29  OA
ENDBRANCH 10 17
ENDBRANCH 7 10
ENDBRANCH 5 6
BRANCH 5 19
ATOM     19  CB  VAL D4843     -63.719  26.530  35.583  1.00 37.59 LIG 0.01  C 
ATOM     20  CG1 VAL D4843     -64.992  25.739  35.476  1.00 42.19 LIG 0.01  C 
ATOM     21  CG2 VAL D4843     -63.796  27.554  36.719  1.00 33.91 LIG 0.01  C 
ENDBRANCH 5 19
ENDBRANCH 3 5
BRANCH 1 22
ATOM     22  CA  VAL D4842     -59.787  28.293  35.365  1.00 42.26 LIG 0.18  C 
BRANCH 22 23
ATOM     23  N   VAL D4842     -58.527  27.738  35.870  1.00 51.43 LIG-0.34  N 
ATOM     24 H    VAL D4842     -58.053  27.346  35.270  1.00 51.43 LIG 0.16  HD
ATOM     25  C   LEU D4841     -58.161  27.838  37.147  1.00 54.30 LIG 0.26  C 
ATOM     26 O    LEU D4841     -57.040  27.527  37.545  1.00 66.57 LIG-0.27  OA
BRANCH 25 27
ATOM     27  CA  LEU D4841     -59.195  28.401  38.110  1.00 50.85 LIG 0.40  C 
ATOM     28  N   LEU D4841     -59.054  27.793  39.436  1.00 66.18 LIG 0.61  N 
BRANCH 27 29
ATOM     29  CB  LEU D4841     -59.054  29.925  38.212  1.00 58.40 LIG 0.06  C 
BRANCH 29 30
ATOM     30  CG  LEU D4841     -60.349  30.746  38.168  1.00 54.26 LIG-0.02  C 
ATOM     31  CD2 LEU D4841     -61.610  29.855  38.059  1.00 54.78 LIG 0.01  C 
ATOM     32  CD1 LEU D4841     -60.312  31.800  37.053  1.00 32.44 LIG 0.01  C 
ENDBRANCH 29 30
ENDBRANCH 27 29
ENDBRANCH 25 27
ENDBRANCH 22 23
BRANCH 22 33
ATOM     33  CB  VAL D4842     -59.547  29.346  34.253  1.00 48.47 LIG 0.01  C 
ATOM     34  CG2 VAL D4842     -58.540  30.376  34.685  1.00 42.42 LIG 0.01  C 
ATOM     35  CG1 VAL D4842     -60.863  30.022  33.907  1.00 34.87 LIG 0.01  C 
ENDBRANCH 22 33
ENDBRANCH 1 22
TORSDOF 13
ENDMDL
MODEL 77
USER: ADFR SOLUTION from run 61
USER: SCORE 8.422608 LL:  -2.557 LR:  -7.327 RR:   0.000 FEB:  -3.449
USER: RMSD 8.082272
USER: SEED 60
USER: STATUS no improvement in best in 39 clusters for 5 generations
USER: GENES 15
USER: genes 0 Translation |==|  0.38129 0.41306 0.33118
USER: genes 1 Rotation |==|  0.02652 0.62790 0.40275 0.50123
USER: genes 2 Torsion [C]-N--CA-[CB] |==|  0.52913
USER: genes 3 Torsion [N]-CA--C-[N] |==|  0.88891
USER: genes 4 Torsion [C]-N--CA-[CB] |==|  0.37413
USER: genes 5 Torsion [N]-CA--CB-[CG] |==|  0.56063
USER: genes 6 Torsion [CA]-CB--CG-[OD1] |==|  0.20395
USER: genes 7 Torsion [N]-CA--C-[O] |==|  0.93199
USER: genes 8 Torsion [N]-CA--CB-[CG2] |==|  0.51435
USER: genes 9 Torsion [N]-C--CA-[N] |==|  0.92461
USER: genes 10 Torsion [C]-CA--N-[C] |==|  0.65085
USER: genes 11 Torsion [N]-C--CA-[N] |==|  0.24698
USER: genes 12 Torsion [C]-CA--CB-[CG] |==|  0.26510
USER: genes 13 Torsion [CA]-CB--CG-[CD2] |==|  0.28417
USER: genes 14 Torsion [C]-CA--CB-[CG2] |==|  0.29312
ROOT
ATOM      1  C   VAL D4842     -59.533  26.132  36.548  1.00 57.35 LIG 0.24  C 
ATOM      2 O    VAL D4842     -60.282  26.083  37.531  1.00 61.28 LIG-0.27  OA
ATOM      3  N   VAL D4843     -58.807  27.203  36.253  1.00 52.36 LIG-0.35  N 
ATOM      4 H    VAL D4843     -58.165  27.192  35.681  1.00 52.36 LIG 0.16  HD
ENDROOT
BRANCH 3 5
ATOM      5  CA  VAL D4843     -59.018  28.507  36.865  1.00 37.99 LIG 0.18  C 
BRANCH 5 6
ATOM      6  C   VAL D4843     -60.540  28.751  36.713  1.00 51.29 LIG 0.24  C 
ATOM      7  N   ASN D4844     -61.143  28.396  35.585  1.00 50.43 LIG-0.35  N 
ATOM      8 H    ASN D4844     -60.764  28.011  34.917  1.00 50.43 LIG 0.16  HD
ATOM      9 O    VAL D4843     -61.183  29.279  37.632  1.00 47.22 LIG-0.27  OA
BRANCH 7 10
ATOM     10  CA  ASN D4844     -62.580  28.671  35.432  1.00 46.88 LIG 0.17  C 
BRANCH 10 11
ATOM     11  CB  ASN D4844     -62.863  29.269  34.054  1.00 66.72 LIG 0.14  C 
BRANCH 11 12
ATOM     12  CG  ASN D4844     -64.165  30.045  34.009  1.00 62.42 LIG 0.22  C 
ATOM     13 OD1  ASN D4844     -64.270  31.151  34.543  1.00 56.11 LIG-0.27  OA
ATOM     14  ND2 ASN D4844     -65.169  29.463  33.363  1.00 67.26 LIG-0.37  N 
ATOM     15 21HD ASN D4844     -65.931  29.859  33.306  1.00 67.26 LIG 0.16  HD
ATOM     16 22HD ASN D4844     -65.057  28.690  33.003  1.00 67.26 LIG 0.16  HD
ENDBRANCH 11 12
ENDBRANCH 10 11
BRANCH 10 17
ATOM     17  C   ASN D4844     -63.518  27.483  35.707  1.00 52.57 LIG 0.22  C 
ATOM     18 O    ASN D4844     -63.126  26.310  35.593  1.00 48.91 LIG-0.29  OA
ENDBRANCH 10 17
ENDBRANCH 7 10
ENDBRANCH 5 6
BRANCH 5 19
ATOM     19  CB  VAL D4843     -58.165  29.548  36.076  1.00 37.59 LIG 0.01  C 
ATOM     20  CG1 VAL D4843     -58.552  29.621  34.626  1.00 42.19 LIG 0.01  C 
ATOM     21  CG2 VAL D4843     -58.233  30.928  36.737  1.00 33.91 LIG 0.01  C 
ENDBRANCH 5 19
ENDBRANCH 3 5
BRANCH 1 22
ATOM     22  CA  VAL D4842     -59.336  24.930  35.604  1.00 42.26 LIG 0.18  C 
BRANCH 22 23
ATOM     23  N   VAL D4842     -58.918  25.244  34.235  1.00 51.43 LIG-0.34  N 
ATOM     24 H    VAL D4842     -58.207  25.726  34.188  1.00 51.43 LIG 0.16  HD
ATOM     25  C   LEU D4841     -59.585  24.815  33.165  1.00 54.30 LIG 0.26  C 
ATOM     26 O    LEU D4841     -59.154  24.928  32.020  1.00 66.57 LIG-0.27  OA
BRANCH 25 27
ATOM     27  CA  LEU D4841     -60.917  24.126  33.425  1.00 50.85 LIG 0.40  C 
ATOM     28  N   LEU D4841     -62.009  25.103  33.455  1.00 66.18 LIG 0.61  N 
BRANCH 27 29
ATOM     29  CB  LEU D4841     -61.188  23.066  32.351  1.00 58.40 LIG 0.06  C 
BRANCH 29 30
ATOM     30  CG  LEU D4841     -60.791  21.623  32.684  1.00 54.26 LIG-0.02  C 
ATOM     31  CD2 LEU D4841     -62.007  20.752  33.081  1.00 54.78 LIG 0.01  C 
ATOM     32  CD1 LEU D4841     -59.694  21.572  33.757  1.00 32.44 LIG 0.01  C 
ENDBRANCH 29 30
ENDBRANCH 27 29
ENDBRANCH 25 27
ENDBRANCH 22 23
BRANCH 22 33
ATOM     33  CB  VAL D4842     -58.415  23.868  36.258  1.00 48.47 LIG 0.01  C 
ATOM     34  CG2 VAL D4842     -59.204  22.676  36.725  1.00 42.42 LIG 0.01  C 
ATOM     35  CG1 VAL D4842     -57.678  24.492  37.431  1.00 34.87 LIG 0.01  C 
ENDBRANCH 22 33
ENDBRANCH 1 22
TORSDOF 13
ENDMDL
MODEL 78
USER: ADFR SOLUTION from run 186
USER: SCORE 9.463293 LL:  -3.357 LR:  -7.332 RR:   0.000 FEB:  -3.454
USER: RMSD 8.583653
USER: SEED 185
USER: STATUS no improvement in best in 73 clusters for 5 generations
USER: GENES 15
USER: genes 0 Translation |==|  0.37770 0.20768 0.22125
USER: genes 1 Rotation |==|  0.36082 0.10171 0.72036 0.65307
USER: genes 2 Torsion [C]-N--CA-[CB] |==|  0.81662
USER: genes 3 Torsion [N]-CA--C-[N] |==|  0.13352
USER: genes 4 Torsion [C]-N--CA-[CB] |==|  0.22909
USER: genes 5 Torsion [N]-CA--CB-[CG] |==|  0.61902
USER: genes 6 Torsion [CA]-CB--CG-[OD1] |==|  0.64032
USER: genes 7 Torsion [N]-CA--C-[O] |==|  0.96613
USER: genes 8 Torsion [N]-CA--CB-[CG2] |==|  0.88894
USER: genes 9 Torsion [N]-C--CA-[N] |==|  0.52423
USER: genes 10 Torsion [C]-CA--N-[C] |==|  0.78889
USER: genes 11 Torsion [N]-C--CA-[N] |==|  0.39009
USER: genes 12 Torsion [C]-CA--CB-[CG] |==|  0.31678
USER: genes 13 Torsion [CA]-CB--CG-[CD2] |==|  0.08787
USER: genes 14 Torsion [C]-CA--CB-[CG2] |==|  0.58774
ROOT
ATOM      1  C   VAL D4842     -59.608  22.744  34.899  1.00 57.35 LIG 0.24  C 
ATOM      2 O    VAL D4842     -58.553  23.361  35.085  1.00 61.28 LIG-0.27  OA
ATOM      3  N   VAL D4843     -60.113  21.902  35.792  1.00 52.36 LIG-0.35  N 
ATOM      4 H    VAL D4843     -60.918  21.602  35.751  1.00 52.36 LIG 0.16  HD
ENDROOT
BRANCH 3 5
ATOM      5  CA  VAL D4843     -59.362  21.399  36.933  1.00 37.99 LIG 0.18  C 
BRANCH 5 6
ATOM      6  C   VAL D4843     -58.843  22.679  37.634  1.00 51.29 LIG 0.24  C 
ATOM      7  N   ASN D4844     -59.687  23.675  37.871  1.00 50.43 LIG-0.35  N 
ATOM      8 H    ASN D4844     -60.527  23.671  37.688  1.00 50.43 LIG 0.16  HD
ATOM      9 O    VAL D4843     -57.652  22.771  37.961  1.00 47.22 LIG-0.27  OA
BRANCH 7 10
ATOM     10  CA  ASN D4844     -59.177  24.904  38.497  1.00 46.88 LIG 0.17  C 
BRANCH 10 11
ATOM     11  CB  ASN D4844     -58.543  25.814  37.446  1.00 66.72 LIG 0.14  C 
BRANCH 11 12
ATOM     12  CG  ASN D4844     -57.238  26.429  37.913  1.00 62.42 LIG 0.22  C 
ATOM     13 OD1  ASN D4844     -57.035  27.641  37.828  1.00 56.11 LIG-0.27  OA
ATOM     14  ND2 ASN D4844     -56.342  25.585  38.414  1.00 67.26 LIG-0.37  N 
ATOM     15 21HD ASN D4844     -55.584  25.879  38.695  1.00 67.26 LIG 0.16  HD
ATOM     16 22HD ASN D4844     -56.521  24.744  38.456  1.00 67.26 LIG 0.16  HD
ENDBRANCH 11 12
ENDBRANCH 10 11
BRANCH 10 17
ATOM     17  C   ASN D4844     -60.191  25.688  39.348  1.00 52.57 LIG 0.22  C 
ATOM     18 O    ASN D4844     -61.404  25.428  39.310  1.00 48.91 LIG-0.29  OA
ENDBRANCH 10 17
ENDBRANCH 7 10
ENDBRANCH 5 6
BRANCH 5 19
ATOM     19  CB  VAL D4843     -58.205  20.506  36.387  1.00 37.59 LIG 0.01  C 
ATOM     20  CG1 VAL D4843     -57.587  19.655  37.460  1.00 42.19 LIG 0.01  C 
ATOM     21  CG2 VAL D4843     -58.679  19.653  35.207  1.00 33.91 LIG 0.01  C 
ENDBRANCH 5 19
ENDBRANCH 3 5
BRANCH 1 22
ATOM     22  CA  VAL D4842     -60.462  22.940  33.631  1.00 42.26 LIG 0.18  C 
BRANCH 22 23
ATOM     23  N   VAL D4842     -59.841  23.705  32.545  1.00 51.43 LIG-0.34  N 
ATOM     24 H    VAL D4842     -59.566  23.220  31.890  1.00 51.43 LIG 0.16  HD
ATOM     25  C   LEU D4841     -59.719  25.030  32.580  1.00 54.30 LIG 0.26  C 
ATOM     26 O    LEU D4841     -59.356  25.692  31.610  1.00 66.57 LIG-0.27  OA
BRANCH 25 27
ATOM     27  CA  LEU D4841     -60.094  25.714  33.887  1.00 50.85 LIG 0.40  C 
ATOM     28  N   LEU D4841     -59.160  26.803  34.188  1.00 66.18 LIG 0.61  N 
BRANCH 27 29
ATOM     29  CB  LEU D4841     -61.527  26.254  33.814  1.00 58.40 LIG 0.06  C 
BRANCH 29 30
ATOM     30  CG  LEU D4841     -62.560  25.608  34.746  1.00 54.26 LIG-0.02  C 
ATOM     31  CD2 LEU D4841     -61.934  25.122  36.075  1.00 54.78 LIG 0.01  C 
ATOM     32  CD1 LEU D4841     -63.326  24.478  34.043  1.00 32.44 LIG 0.01  C 
ENDBRANCH 29 30
ENDBRANCH 27 29
ENDBRANCH 25 27
ENDBRANCH 22 23
BRANCH 22 33
ATOM     33  CB  VAL D4842     -61.021  21.583  33.133  1.00 48.47 LIG 0.01  C 
ATOM     34  CG2 VAL D4842     -61.165  21.568  31.636  1.00 42.42 LIG 0.01  C 
ATOM     35  CG1 VAL D4842     -62.369  21.324  33.785  1.00 34.87 LIG 0.01  C 
ENDBRANCH 22 33
ENDBRANCH 1 22
TORSDOF 13
ENDMDL
MODEL 79
USER: ADFR SOLUTION from run 102
USER: SCORE 8.836627 LL:  -2.873 LR:  -7.323 RR:   0.000 FEB:  -3.445
USER: RMSD 8.440601
USER: SEED 101
USER: STATUS no improvement in best in 14 clusters for 5 generations
USER: GENES 15
USER: genes 0 Translation |==|  0.30470 0.39530 0.26197
USER: genes 1 Rotation |==|  0.13844 0.16176 0.43233 0.51694
USER: genes 2 Torsion [C]-N--CA-[CB] |==|  0.40000
USER: genes 3 Torsion [N]-CA--C-[N] |==|  0.85928
USER: genes 4 Torsion [C]-N--CA-[CB] |==|  0.76291
USER: genes 5 Torsion [N]-CA--CB-[CG] |==|  0.24161
USER: genes 6 Torsion [CA]-CB--CG-[OD1] |==|  0.77377
USER: genes 7 Torsion [N]-CA--C-[O] |==|  0.12543
USER: genes 8 Torsion [N]-CA--CB-[CG2] |==|  0.82700
USER: genes 9 Torsion [N]-C--CA-[N] |==|  0.40880
USER: genes 10 Torsion [C]-CA--N-[C] |==|  0.75558
USER: genes 11 Torsion [N]-C--CA-[N] |==|  0.41927
USER: genes 12 Torsion [C]-CA--CB-[CG] |==|  0.39330
USER: genes 13 Torsion [CA]-CB--CG-[CD2] |==|  0.11112
USER: genes 14 Torsion [C]-CA--CB-[CG2] |==|  0.26204
ROOT
ATOM      1  C   VAL D4842     -61.141  25.840  35.509  1.00 57.35 LIG 0.24  C 
ATOM      2 O    VAL D4842     -61.029  25.338  36.635  1.00 61.28 LIG-0.27  OA
ATOM      3  N   VAL D4843     -62.313  25.994  34.907  1.00 52.36 LIG-0.35  N 
ATOM      4 H    VAL D4843     -62.422  26.488  34.211  1.00 52.36 LIG 0.16  HD
ENDROOT
BRANCH 3 5
ATOM      5  CA  VAL D4843     -63.537  25.348  35.358  1.00 37.99 LIG 0.18  C 
BRANCH 5 6
ATOM      6  C   VAL D4843     -63.641  24.081  34.474  1.00 51.29 LIG 0.24  C 
ATOM      7  N   ASN D4844     -63.529  24.200  33.157  1.00 50.43 LIG-0.35  N 
ATOM      8 H    ASN D4844     -63.376  24.932  32.734  1.00 50.43 LIG 0.16  HD
ATOM      9 O    VAL D4843     -63.835  22.972  34.992  1.00 47.22 LIG-0.27  OA
BRANCH 7 10
ATOM     10  CA  ASN D4844     -63.671  22.999  32.321  1.00 46.88 LIG 0.17  C 
BRANCH 10 11
ATOM     11  CB  ASN D4844     -62.335  22.264  32.212  1.00 66.72 LIG 0.14  C 
BRANCH 11 12
ATOM     12  CG  ASN D4844     -62.112  21.283  33.346  1.00 62.42 LIG 0.22  C 
ATOM     13 OD1  ASN D4844     -61.699  21.658  34.446  1.00 56.11 LIG-0.27  OA
ATOM     14  ND2 ASN D4844     -62.388  20.011  33.080  1.00 67.26 LIG-0.37  N 
ATOM     15 21HD ASN D4844     -62.281  19.411  33.687  1.00 67.26 LIG 0.16  HD
ATOM     16 22HD ASN D4844     -62.675  19.788  32.300  1.00 67.26 LIG 0.16  HD
ENDBRANCH 11 12
ENDBRANCH 10 11
BRANCH 10 17
ATOM     17  C   ASN D4844     -64.789  22.026  32.736  1.00 52.57 LIG 0.22  C 
ATOM     18 O    ASN D4844     -65.922  22.435  33.036  1.00 48.91 LIG-0.29  OA
ENDBRANCH 10 17
ENDBRANCH 7 10
ENDBRANCH 5 6
BRANCH 5 19
ATOM     19  CB  VAL D4843     -64.717  26.341  35.120  1.00 37.59 LIG 0.01  C 
ATOM     20  CG1 VAL D4843     -66.055  25.710  35.384  1.00 42.19 LIG 0.01  C 
ATOM     21  CG2 VAL D4843     -64.535  27.619  35.944  1.00 33.91 LIG 0.01  C 
ENDBRANCH 5 19
ENDBRANCH 3 5
BRANCH 1 22
ATOM     22  CA  VAL D4842     -59.929  26.381  34.727  1.00 42.26 LIG 0.18  C 
BRANCH 22 23
ATOM     23  N   VAL D4842     -58.827  26.918  35.532  1.00 51.43 LIG-0.34  N 
ATOM     24 H    VAL D4842     -58.219  26.340  35.722  1.00 51.43 LIG 0.16  HD
ATOM     25  C   LEU D4841     -58.782  28.189  35.927  1.00 54.30 LIG 0.26  C 
ATOM     26 O    LEU D4841     -57.790  28.688  36.454  1.00 66.57 LIG-0.27  OA
BRANCH 25 27
ATOM     27  CA  LEU D4841     -60.022  29.030  35.660  1.00 50.85 LIG 0.40  C 
ATOM     28  N   LEU D4841     -60.158  30.088  36.665  1.00 66.18 LIG 0.61  N 
BRANCH 27 29
ATOM     29  CB  LEU D4841     -59.958  29.642  34.255  1.00 58.40 LIG 0.06  C 
BRANCH 29 30
ATOM     30  CG  LEU D4841     -61.271  29.709  33.467  1.00 54.26 LIG-0.02  C 
ATOM     31  CD2 LEU D4841     -62.475  30.099  34.357  1.00 54.78 LIG 0.01  C 
ATOM     32  CD1 LEU D4841     -61.540  28.405  32.705  1.00 32.44 LIG 0.01  C 
ENDBRANCH 29 30
ENDBRANCH 27 29
ENDBRANCH 25 27
ENDBRANCH 22 23
BRANCH 22 33
ATOM     33  CB  VAL D4842     -59.432  25.335  33.697  1.00 48.47 LIG 0.01  C 
ATOM     34  CG2 VAL D4842     -60.040  25.571  32.343  1.00 42.42 LIG 0.01  C 
ATOM     35  CG1 VAL D4842     -59.783  23.940  34.186  1.00 34.87 LIG 0.01  C 
ENDBRANCH 22 33
ENDBRANCH 1 22
TORSDOF 13
ENDMDL
MODEL 80
USER: ADFR SOLUTION from run 55
USER: SCORE 8.812832 LL:  -2.220 LR:  -7.321 RR:   0.000 FEB:  -3.443
USER: RMSD 8.163969
USER: SEED 54
USER: STATUS no improvement in best in 27 clusters for 5 generations
USER: GENES 15
USER: genes 0 Translation |==|  0.38016 0.39291 0.32931
USER: genes 1 Rotation |==|  0.16413 0.79716 0.48927 0.72085
USER: genes 2 Torsion [C]-N--CA-[CB] |==|  0.17555
USER: genes 3 Torsion [N]-CA--C-[N] |==|  0.62230
USER: genes 4 Torsion [C]-N--CA-[CB] |==|  0.25980
USER: genes 5 Torsion [N]-CA--CB-[CG] |==|  0.37887
USER: genes 6 Torsion [CA]-CB--CG-[OD1] |==|  0.23969
USER: genes 7 Torsion [N]-CA--C-[O] |==|  0.16048
USER: genes 8 Torsion [N]-CA--CB-[CG2] |==|  0.52479
USER: genes 9 Torsion [N]-C--CA-[N] |==|  0.90763
USER: genes 10 Torsion [C]-CA--N-[C] |==|  0.78644
USER: genes 11 Torsion [N]-C--CA-[N] |==|  0.39778
USER: genes 12 Torsion [C]-CA--CB-[CG] |==|  0.96673
USER: genes 13 Torsion [CA]-CB--CG-[CD2] |==|  0.60390
USER: genes 14 Torsion [C]-CA--CB-[CG2] |==|  0.53377
ROOT
ATOM      1  C   VAL D4842     -59.557  25.800  36.520  1.00 57.35 LIG 0.24  C 
ATOM      2 O    VAL D4842     -60.508  25.329  37.155  1.00 61.28 LIG-0.27  OA
ATOM      3  N   VAL D4843     -58.354  25.971  37.052  1.00 52.36 LIG-0.35  N 
ATOM      4 H    VAL D4843     -57.652  26.134  36.583  1.00 52.36 LIG 0.16  HD
ENDROOT
BRANCH 3 5
ATOM      5  CA  VAL D4843     -58.093  25.900  38.483  1.00 37.99 LIG 0.18  C 
BRANCH 5 6
ATOM      6  C   VAL D4843     -56.587  26.235  38.607  1.00 51.29 LIG 0.24  C 
ATOM      7  N   ASN D4844     -55.826  25.507  39.415  1.00 50.43 LIG-0.35  N 
ATOM      8 H    ASN D4844     -56.092  24.830  39.874  1.00 50.43 LIG 0.16  HD
ATOM      9 O    VAL D4843     -56.101  27.177  37.965  1.00 47.22 LIG-0.27  OA
BRANCH 7 10
ATOM     10  CA  ASN D4844     -54.405  25.858  39.560  1.00 46.88 LIG 0.17  C 
BRANCH 10 11
ATOM     11  CB  ASN D4844     -54.206  26.785  40.759  1.00 66.72 LIG 0.14  C 
BRANCH 11 12
ATOM     12  CG  ASN D4844     -53.005  26.404  41.602  1.00 62.42 LIG 0.22  C 
ATOM     13 OD1  ASN D4844     -51.875  26.817  41.330  1.00 56.11 LIG-0.27  OA
ATOM     14  ND2 ASN D4844     -53.248  25.609  42.637  1.00 67.26 LIG-0.37  N 
ATOM     15 21HD ASN D4844     -52.603  25.361  43.150  1.00 67.26 LIG 0.16  HD
ATOM     16 22HD ASN D4844     -54.050  25.341  42.794  1.00 67.26 LIG 0.16  HD
ENDBRANCH 11 12
ENDBRANCH 10 11
BRANCH 10 17
ATOM     17  C   ASN D4844     -53.429  24.670  39.630  1.00 52.57 LIG 0.22  C 
ATOM     18 O    ASN D4844     -53.367  23.831  38.717  1.00 48.91 LIG-0.29  OA
ENDBRANCH 10 17
ENDBRANCH 7 10
ENDBRANCH 5 6
BRANCH 5 19
ATOM     19  CB  VAL D4843     -58.425  24.452  38.958  1.00 37.59 LIG 0.01  C 
ATOM     20  CG1 VAL D4843     -57.527  23.426  38.325  1.00 42.19 LIG 0.01  C 
ATOM     21  CG2 VAL D4843     -58.389  24.352  40.485  1.00 33.91 LIG 0.01  C 
ENDBRANCH 5 19
ENDBRANCH 3 5
BRANCH 1 22
ATOM     22  CA  VAL D4842     -59.672  26.181  35.031  1.00 42.26 LIG 0.18  C 
BRANCH 22 23
ATOM     23  N   VAL D4842     -58.835  27.298  34.582  1.00 51.43 LIG-0.34  N 
ATOM     24 H    VAL D4842     -58.138  27.056  34.141  1.00 51.43 LIG 0.16  HD
ATOM     25  C   LEU D4841     -59.138  28.569  34.839  1.00 54.30 LIG 0.26  C 
ATOM     26 O    LEU D4841     -58.540  29.513  34.328  1.00 66.57 LIG-0.27  OA
BRANCH 25 27
ATOM     27  CA  LEU D4841     -60.307  28.812  35.783  1.00 50.85 LIG 0.40  C 
ATOM     28  N   LEU D4841     -60.048  29.972  36.641  1.00 66.18 LIG 0.61  N 
BRANCH 27 29
ATOM     29  CB  LEU D4841     -61.600  29.025  34.986  1.00 58.40 LIG 0.06  C 
BRANCH 29 30
ATOM     30  CG  LEU D4841     -61.455  29.241  33.474  1.00 54.26 LIG-0.02  C 
ATOM     31  CD2 LEU D4841     -62.466  30.277  32.926  1.00 54.78 LIG 0.01  C 
ATOM     32  CD1 LEU D4841     -61.540  27.916  32.704  1.00 32.44 LIG 0.01  C 
ENDBRANCH 29 30
ENDBRANCH 27 29
ENDBRANCH 25 27
ENDBRANCH 22 23
BRANCH 22 33
ATOM     33  CB  VAL D4842     -59.494  24.931  34.132  1.00 48.47 LIG 0.01  C 
ATOM     34  CG2 VAL D4842     -59.309  25.317  32.690  1.00 42.42 LIG 0.01  C 
ATOM     35  CG1 VAL D4842     -60.709  24.030  34.274  1.00 34.87 LIG 0.01  C 
ENDBRANCH 22 33
ENDBRANCH 1 22
TORSDOF 13
ENDMDL
MODEL 81
USER: ADFR SOLUTION from run 5
USER: SCORE 8.900001 LL:  -2.460 LR:  -7.308 RR:   0.000 FEB:  -3.430
USER: RMSD 8.925085
USER: SEED 970925
USER: STATUS no improvement in best in 42 clusters for 5 generations
USER: GENES 15
USER: genes 0 Translation |==|  0.41014 0.22293 0.24698
USER: genes 1 Rotation |==|  0.09845 0.56240 0.71082 0.70105
USER: genes 2 Torsion [C]-N--CA-[CB] |==|  0.55616
USER: genes 3 Torsion [N]-CA--C-[N] |==|  0.33406
USER: genes 4 Torsion [C]-N--CA-[CB] |==|  0.45850
USER: genes 5 Torsion [N]-CA--CB-[CG] |==|  0.93257
USER: genes 6 Torsion [CA]-CB--CG-[OD1] |==|  0.83999
USER: genes 7 Torsion [N]-CA--C-[O] |==|  0.77000
USER: genes 8 Torsion [N]-CA--CB-[CG2] |==|  0.00966
USER: genes 9 Torsion [N]-C--CA-[N] |==|  0.17863
USER: genes 10 Torsion [C]-CA--N-[C] |==|  0.72657
USER: genes 11 Torsion [N]-C--CA-[N] |==|  0.39895
USER: genes 12 Torsion [C]-CA--CB-[CG] |==|  0.33843
USER: genes 13 Torsion [CA]-CB--CG-[CD2] |==|  0.04670
USER: genes 14 Torsion [C]-CA--CB-[CG2] |==|  0.53903
ROOT
ATOM      1  C   VAL D4842     -58.927  22.995  35.285  1.00 57.35 LIG 0.24  C 
ATOM      2 O    VAL D4842     -58.538  21.884  35.663  1.00 61.28 LIG-0.27  OA
ATOM      3  N   VAL D4843     -58.537  24.125  35.860  1.00 52.36 LIG-0.35  N 
ATOM      4 H    VAL D4843     -58.663  24.899  35.507  1.00 52.36 LIG 0.16  HD
ENDROOT
BRANCH 3 5
ATOM      5  CA  VAL D4843     -57.857  24.176  37.147  1.00 37.99 LIG 0.18  C 
BRANCH 5 6
ATOM      6  C   VAL D4843     -58.588  23.110  38.000  1.00 51.29 LIG 0.24  C 
ATOM      7  N   ASN D4844     -57.897  22.090  38.493  1.00 50.43 LIG-0.35  N 
ATOM      8 H    ASN D4844     -57.050  21.972  38.402  1.00 50.43 LIG 0.16  HD
ATOM      9 O    VAL D4843     -59.805  23.207  38.211  1.00 47.22 LIG-0.27  OA
BRANCH 7 10
ATOM     10  CA  ASN D4844     -58.606  21.060  39.266  1.00 46.88 LIG 0.17  C 
BRANCH 10 11
ATOM     11  CB  ASN D4844     -57.731  19.816  39.422  1.00 66.72 LIG 0.14  C 
BRANCH 11 12
ATOM     12  CG  ASN D4844     -56.687  19.693  38.329  1.00 62.42 LIG 0.22  C 
ATOM     13 OD1  ASN D4844     -57.008  19.653  37.139  1.00 56.11 LIG-0.27  OA
ATOM     14  ND2 ASN D4844     -55.424  19.631  38.734  1.00 67.26 LIG-0.37  N 
ATOM     15 21HD ASN D4844     -54.790  19.561  38.156  1.00 67.26 LIG 0.16  HD
ATOM     16 22HD ASN D4844     -55.240  19.660  39.573  1.00 67.26 LIG 0.16  HD
ENDBRANCH 11 12
ENDBRANCH 10 11
BRANCH 10 17
ATOM     17  C   ASN D4844     -59.152  21.509  40.632  1.00 52.57 LIG 0.22  C 
ATOM     18 O    ASN D4844     -58.427  21.538  41.640  1.00 48.91 LIG-0.29  OA
ENDBRANCH 10 17
ENDBRANCH 7 10
ENDBRANCH 5 6
BRANCH 5 19
ATOM     19  CB  VAL D4843     -58.026  25.618  37.719  1.00 37.59 LIG 0.01  C 
ATOM     20  CG1 VAL D4843     -56.706  26.286  37.980  1.00 42.19 LIG 0.01  C 
ATOM     21  CG2 VAL D4843     -58.909  26.472  36.805  1.00 33.91 LIG 0.01  C 
ENDBRANCH 5 19
ENDBRANCH 3 5
BRANCH 1 22
ATOM     22  CA  VAL D4842     -59.862  23.169  34.072  1.00 42.26 LIG 0.18  C 
BRANCH 22 23
ATOM     23  N   VAL D4842     -59.290  23.850  32.906  1.00 51.43 LIG-0.34  N 
ATOM     24 H    VAL D4842     -58.815  23.340  32.402  1.00 51.43 LIG 0.16  HD
ATOM     25  C   LEU D4841     -59.495  25.142  32.659  1.00 54.30 LIG 0.26  C 
ATOM     26 O    LEU D4841     -59.163  25.680  31.605  1.00 66.57 LIG-0.27  OA
BRANCH 25 27
ATOM     27  CA  LEU D4841     -60.208  25.938  33.743  1.00 50.85 LIG 0.40  C 
ATOM     28  N   LEU D4841     -59.665  27.297  33.830  1.00 66.18 LIG 0.61  N 
BRANCH 27 29
ATOM     29  CB  LEU D4841     -61.714  25.989  33.462  1.00 58.40 LIG 0.06  C 
BRANCH 29 30
ATOM     30  CG  LEU D4841     -62.642  25.433  34.549  1.00 54.26 LIG-0.02  C 
ATOM     31  CD2 LEU D4841     -61.931  25.289  35.916  1.00 54.78 LIG 0.01  C 
ATOM     32  CD1 LEU D4841     -63.291  24.111  34.116  1.00 32.44 LIG 0.01  C 
ENDBRANCH 29 30
ENDBRANCH 27 29
ENDBRANCH 25 27
ENDBRANCH 22 23
BRANCH 22 33
ATOM     33  CB  VAL D4842     -60.514  21.817  33.686  1.00 48.47 LIG 0.01  C 
ATOM     34  CG2 VAL D4842     -61.149  21.885  32.325  1.00 42.42 LIG 0.01  C 
ATOM     35  CG1 VAL D4842     -61.557  21.445  34.726  1.00 34.87 LIG 0.01  C 
ENDBRANCH 22 33
ENDBRANCH 1 22
TORSDOF 13
ENDMDL
MODEL 82
USER: ADFR SOLUTION from run 66
USER: SCORE 9.241767 LL:  -2.609 LR:  -7.313 RR:   0.000 FEB:  -3.435
USER: RMSD 8.111217
USER: SEED 65
USER: STATUS no improvement in best in 29 clusters for 5 generations
USER: GENES 15
USER: genes 0 Translation |==|  0.33859 0.53797 0.23235
USER: genes 1 Rotation |==|  0.15156 0.85468 0.44849 0.51157
USER: genes 2 Torsion [C]-N--CA-[CB] |==|  0.87176
USER: genes 3 Torsion [N]-CA--C-[N] |==|  0.30261
USER: genes 4 Torsion [C]-N--CA-[CB] |==|  0.36398
USER: genes 5 Torsion [N]-CA--CB-[CG] |==|  0.68770
USER: genes 6 Torsion [CA]-CB--CG-[OD1] |==|  0.25920
USER: genes 7 Torsion [N]-CA--C-[O] |==|  0.93739
USER: genes 8 Torsion [N]-CA--CB-[CG2] |==|  0.79434
USER: genes 9 Torsion [N]-C--CA-[N] |==|  0.35008
USER: genes 10 Torsion [C]-CA--N-[C] |==|  0.82778
USER: genes 11 Torsion [N]-C--CA-[N] |==|  0.26541
USER: genes 12 Torsion [C]-CA--CB-[CG] |==|  0.22511
USER: genes 13 Torsion [CA]-CB--CG-[CD2] |==|  0.04691
USER: genes 14 Torsion [C]-CA--CB-[CG2] |==|  0.10736
ROOT
ATOM      1  C   VAL D4842     -60.430  28.194  35.065  1.00 57.35 LIG 0.24  C 
ATOM      2 O    VAL D4842     -60.930  28.538  36.143  1.00 61.28 LIG-0.27  OA
ATOM      3  N   VAL D4843     -59.120  28.186  34.854  1.00 52.36 LIG-0.35  N 
ATOM      4 H    VAL D4843     -58.756  27.794  34.180  1.00 52.36 LIG 0.16  HD
ENDROOT
BRANCH 3 5
ATOM      5  CA  VAL D4843     -58.162  28.837  35.735  1.00 37.99 LIG 0.18  C 
BRANCH 5 6
ATOM      6  C   VAL D4843     -58.118  27.922  36.983  1.00 51.29 LIG 0.24  C 
ATOM      7  N   ASN D4844     -57.035  27.188  37.211  1.00 50.43 LIG-0.35  N 
ATOM      8 H    ASN D4844     -56.323  27.189  36.729  1.00 50.43 LIG 0.16  HD
ATOM      9 O    VAL D4843     -59.086  27.871  37.755  1.00 47.22 LIG-0.27  OA
BRANCH 7 10
ATOM     10  CA  ASN D4844     -57.018  26.289  38.374  1.00 46.88 LIG 0.17  C 
BRANCH 10 11
ATOM     11  CB  ASN D4844     -56.552  24.893  37.961  1.00 66.72 LIG 0.14  C 
BRANCH 11 12
ATOM     12  CG  ASN D4844     -57.652  23.854  38.064  1.00 62.42 LIG 0.22  C 
ATOM     13 OD1  ASN D4844     -58.359  23.572  37.095  1.00 56.11 LIG-0.27  OA
ATOM     14  ND2 ASN D4844     -57.798  23.277  39.251  1.00 67.26 LIG-0.37  N 
ATOM     15 21HD ASN D4844     -58.406  22.679  39.367  1.00 67.26 LIG 0.16  HD
ATOM     16 22HD ASN D4844     -57.285  23.501  39.905  1.00 67.26 LIG 0.16  HD
ENDBRANCH 11 12
ENDBRANCH 10 11
BRANCH 10 17
ATOM     17  C   ASN D4844     -56.217  26.787  39.589  1.00 52.57 LIG 0.22  C 
ATOM     18 O    ASN D4844     -55.314  27.631  39.466  1.00 48.91 LIG-0.29  OA
ENDBRANCH 10 17
ENDBRANCH 7 10
ENDBRANCH 5 6
BRANCH 5 19
ATOM     19  CB  VAL D4843     -58.705  30.263  36.060  1.00 37.59 LIG 0.01  C 
ATOM     20  CG1 VAL D4843     -58.070  30.849  37.290  1.00 42.19 LIG 0.01  C 
ATOM     21  CG2 VAL D4843     -58.547  31.198  34.857  1.00 33.91 LIG 0.01  C 
ENDBRANCH 5 19
ENDBRANCH 3 5
BRANCH 1 22
ATOM     22  CA  VAL D4842     -61.285  27.689  33.887  1.00 42.26 LIG 0.18  C 
BRANCH 22 23
ATOM     23  N   VAL D4842     -62.230  26.610  34.188  1.00 51.43 LIG-0.34  N 
ATOM     24 H    VAL D4842     -63.054  26.822  34.060  1.00 51.43 LIG 0.16  HD
ATOM     25  C   LEU D4841     -61.838  25.413  34.620  1.00 54.30 LIG 0.26  C 
ATOM     26 O    LEU D4841     -62.602  24.455  34.714  1.00 66.57 LIG-0.27  OA
BRANCH 25 27
ATOM     27  CA  LEU D4841     -60.363  25.263  34.963  1.00 50.85 LIG 0.40  C 
ATOM     28  N   LEU D4841     -60.142  25.463  36.399  1.00 66.18 LIG 0.61  N 
BRANCH 27 29
ATOM     29  CB  LEU D4841     -59.855  23.879  34.540  1.00 58.40 LIG 0.06  C 
BRANCH 29 30
ATOM     30  CG  LEU D4841     -59.487  23.698  33.062  1.00 54.26 LIG-0.02  C 
ATOM     31  CD2 LEU D4841     -59.297  25.048  32.331  1.00 54.78 LIG 0.01  C 
ATOM     32  CD1 LEU D4841     -60.500  22.805  32.333  1.00 32.44 LIG 0.01  C 
ENDBRANCH 29 30
ENDBRANCH 27 29
ENDBRANCH 25 27
ENDBRANCH 22 23
BRANCH 22 33
ATOM     33  CB  VAL D4842     -61.975  28.875  33.166  1.00 48.47 LIG 0.01  C 
ATOM     34  CG2 VAL D4842     -61.064  30.068  33.081  1.00 42.42 LIG 0.01  C 
ATOM     35  CG1 VAL D4842     -63.247  29.247  33.911  1.00 34.87 LIG 0.01  C 
ENDBRANCH 22 33
ENDBRANCH 1 22
TORSDOF 13
ENDMDL
MODEL 83
USER: ADFR SOLUTION from run 194
USER: SCORE 8.782848 LL:  -3.007 LR:  -7.310 RR:   0.000 FEB:  -3.433
USER: RMSD 4.914609
USER: SEED 193
USER: STATUS no improvement in best in 19 clusters for 5 generations
USER: GENES 15
USER: genes 0 Translation |==|  0.43801 0.51162 0.42489
USER: genes 1 Rotation |==|  0.84837 0.69656 0.61413 0.77744
USER: genes 2 Torsion [C]-N--CA-[CB] |==|  0.39684
USER: genes 3 Torsion [N]-CA--C-[N] |==|  0.90662
USER: genes 4 Torsion [C]-N--CA-[CB] |==|  0.29154
USER: genes 5 Torsion [N]-CA--CB-[CG] |==|  0.91636
USER: genes 6 Torsion [CA]-CB--CG-[OD1] |==|  0.70135
USER: genes 7 Torsion [N]-CA--C-[O] |==|  0.00498
USER: genes 8 Torsion [N]-CA--CB-[CG2] |==|  0.80927
USER: genes 9 Torsion [N]-C--CA-[N] |==|  0.91179
USER: genes 10 Torsion [C]-CA--N-[C] |==|  0.68334
USER: genes 11 Torsion [N]-C--CA-[N] |==|  0.38649
USER: genes 12 Torsion [C]-CA--CB-[CG] |==|  0.37197
USER: genes 13 Torsion [CA]-CB--CG-[CD2] |==|  0.98182
USER: genes 14 Torsion [C]-CA--CB-[CG2] |==|  0.50695
ROOT
ATOM      1  C   VAL D4842     -58.342  27.759  37.953  1.00 57.35 LIG 0.24  C 
ATOM      2 O    VAL D4842     -59.266  28.270  38.597  1.00 61.28 LIG-0.27  OA
ATOM      3  N   VAL D4843     -58.410  27.550  36.645  1.00 52.36 LIG-0.35  N 
ATOM      4 H    VAL D4843     -57.723  27.357  36.164  1.00 52.36 LIG 0.16  HD
ENDROOT
BRANCH 3 5
ATOM      5  CA  VAL D4843     -59.649  27.627  35.884  1.00 37.99 LIG 0.18  C 
BRANCH 5 6
ATOM      6  C   VAL D4843     -60.108  26.153  35.768  1.00 51.29 LIG 0.24  C 
ATOM      7  N   ASN D4844     -59.195  25.194  35.674  1.00 50.43 LIG-0.35  N 
ATOM      8 H    ASN D4844     -58.344  25.314  35.696  1.00 50.43 LIG 0.16  HD
ATOM      9 O    VAL D4843     -61.316  25.875  35.754  1.00 47.22 LIG-0.27  OA
BRANCH 7 10
ATOM     10  CA  ASN D4844     -59.640  23.801  35.520  1.00 46.88 LIG 0.17  C 
BRANCH 10 11
ATOM     11  CB  ASN D4844     -59.434  23.333  34.079  1.00 66.72 LIG 0.14  C 
BRANCH 11 12
ATOM     12  CG  ASN D4844     -59.549  24.463  33.074  1.00 62.42 LIG 0.22  C 
ATOM     13 OD1  ASN D4844     -60.527  24.561  32.330  1.00 56.11 LIG-0.27  OA
ATOM     14  ND2 ASN D4844     -58.540  25.326  33.050  1.00 67.26 LIG-0.37  N 
ATOM     15 21HD ASN D4844     -58.553  25.987  32.500  1.00 67.26 LIG 0.16  HD
ATOM     16 22HD ASN D4844     -57.874  25.224  33.585  1.00 67.26 LIG 0.16  HD
ENDBRANCH 11 12
ENDBRANCH 10 11
BRANCH 10 17
ATOM     17  C   ASN D4844     -59.027  22.793  36.507  1.00 52.57 LIG 0.22  C 
ATOM     18 O    ASN D4844     -58.235  23.155  37.392  1.00 48.91 LIG-0.29  OA
ENDBRANCH 10 17
ENDBRANCH 7 10
ENDBRANCH 5 6
BRANCH 5 19
ATOM     19  CB  VAL D4843     -59.319  28.261  34.498  1.00 37.59 LIG 0.01  C 
ATOM     20  CG1 VAL D4843     -60.439  28.088  33.511  1.00 42.19 LIG 0.01  C 
ATOM     21  CG2 VAL D4843     -58.935  29.736  34.645  1.00 33.91 LIG 0.01  C 
ENDBRANCH 5 19
ENDBRANCH 3 5
BRANCH 1 22
ATOM     22  CA  VAL D4842     -57.003  27.367  38.609  1.00 42.26 LIG 0.18  C 
BRANCH 22 23
ATOM     23  N   VAL D4842     -56.292  26.237  38.003  1.00 51.43 LIG-0.34  N 
ATOM     24 H    VAL D4842     -56.009  26.390  37.205  1.00 51.43 LIG 0.16  HD
ATOM     25  C   LEU D4841     -56.106  25.083  38.639  1.00 54.30 LIG 0.26  C 
ATOM     26 O    LEU D4841     -55.372  24.195  38.210  1.00 66.57 LIG-0.27  OA
BRANCH 25 27
ATOM     27  CA  LEU D4841     -56.824  24.916  39.971  1.00 50.85 LIG 0.40  C 
ATOM     28  N   LEU D4841     -57.371  23.561  40.099  1.00 66.18 LIG 0.61  N 
BRANCH 27 29
ATOM     29  CB  LEU D4841     -55.868  25.210  41.133  1.00 58.40 LIG 0.06  C 
BRANCH 29 30
ATOM     30  CG  LEU D4841     -56.396  26.114  42.253  1.00 54.26 LIG-0.02  C 
ATOM     31  CD2 LEU D4841     -57.785  26.712  41.925  1.00 54.78 LIG 0.01  C 
ATOM     32  CD1 LEU D4841     -55.387  27.212  42.616  1.00 32.44 LIG 0.01  C 
ENDBRANCH 29 30
ENDBRANCH 27 29
ENDBRANCH 25 27
ENDBRANCH 22 23
BRANCH 22 33
ATOM     33  CB  VAL D4842     -56.087  28.607  38.764  1.00 48.47 LIG 0.01  C 
ATOM     34  CG2 VAL D4842     -54.753  28.231  39.347  1.00 42.42 LIG 0.01  C 
ATOM     35  CG1 VAL D4842     -56.770  29.631  39.655  1.00 34.87 LIG 0.01  C 
ENDBRANCH 22 33
ENDBRANCH 1 22
TORSDOF 13
ENDMDL
MODEL 84
USER: ADFR SOLUTION from run 23
USER: SCORE 9.709640 LL:  -3.073 LR:  -7.314 RR:   0.000 FEB:  -3.437
USER: RMSD 6.006209
USER: SEED 22
USER: STATUS no improvement in best in 15 clusters for 5 generations
USER: GENES 15
USER: genes 0 Translation |==|  0.34742 0.52837 0.18625
USER: genes 1 Rotation |==|  0.60664 0.75428 0.60996 0.90234
USER: genes 2 Torsion [C]-N--CA-[CB] |==|  0.52778
USER: genes 3 Torsion [N]-CA--C-[N] |==|  0.34032
USER: genes 4 Torsion [C]-N--CA-[CB] |==|  0.33659
USER: genes 5 Torsion [N]-CA--CB-[CG] |==|  0.85411
USER: genes 6 Torsion [CA]-CB--CG-[OD1] |==|  0.77930
USER: genes 7 Torsion [N]-CA--C-[O] |==|  0.60686
USER: genes 8 Torsion [N]-CA--CB-[CG2] |==|  0.80994
USER: genes 9 Torsion [N]-C--CA-[N] |==|  0.92610
USER: genes 10 Torsion [C]-CA--N-[C] |==|  0.76393
USER: genes 11 Torsion [N]-C--CA-[N] |==|  0.33486
USER: genes 12 Torsion [C]-CA--CB-[CG] |==|  0.23813
USER: genes 13 Torsion [CA]-CB--CG-[CD2] |==|  0.10983
USER: genes 14 Torsion [C]-CA--CB-[CG2] |==|  0.43989
ROOT
ATOM      1  C   VAL D4842     -60.244  28.035  34.374  1.00 57.35 LIG 0.24  C 
ATOM      2 O    VAL D4842     -61.444  28.303  34.234  1.00 61.28 LIG-0.27  OA
ATOM      3  N   VAL D4843     -59.692  26.937  33.874  1.00 52.36 LIG-0.35  N 
ATOM      4 H    VAL D4843     -58.842  26.823  33.817  1.00 52.36 LIG 0.16  HD
ENDROOT
BRANCH 3 5
ATOM      5  CA  VAL D4843     -60.464  25.810  33.370  1.00 37.99 LIG 0.18  C 
BRANCH 5 6
ATOM      6  C   VAL D4843     -61.469  25.505  34.508  1.00 51.29 LIG 0.24  C 
ATOM      7  N   ASN D4844     -62.770  25.530  34.248  1.00 50.43 LIG-0.35  N 
ATOM      8 H    ASN D4844     -63.121  25.681  33.478  1.00 50.43 LIG 0.16  HD
ATOM      9 O    VAL D4843     -61.061  25.249  35.650  1.00 47.22 LIG-0.27  OA
BRANCH 7 10
ATOM     10  CA  ASN D4844     -63.719  25.281  35.344  1.00 46.88 LIG 0.17  C 
BRANCH 10 11
ATOM     11  CB  ASN D4844     -64.656  26.477  35.518  1.00 66.72 LIG 0.14  C 
BRANCH 11 12
ATOM     12  CG  ASN D4844     -63.910  27.789  35.664  1.00 62.42 LIG 0.22  C 
ATOM     13 OD1  ASN D4844     -63.402  28.120  36.737  1.00 56.11 LIG-0.27  OA
ATOM     14  ND2 ASN D4844     -63.843  28.545  34.575  1.00 67.26 LIG-0.37  N 
ATOM     15 21HD ASN D4844     -63.432  29.301  34.600  1.00 67.26 LIG 0.16  HD
ATOM     16 22HD ASN D4844     -64.212  28.280  33.844  1.00 67.26 LIG 0.16  HD
ENDBRANCH 11 12
ENDBRANCH 10 11
BRANCH 10 17
ATOM     17  C   ASN D4844     -64.525  23.975  35.244  1.00 52.57 LIG 0.22  C 
ATOM     18 O    ASN D4844     -65.720  23.926  35.578  1.00 48.91 LIG-0.29  OA
ENDBRANCH 10 17
ENDBRANCH 7 10
ENDBRANCH 5 6
BRANCH 5 19
ATOM     19  CB  VAL D4843     -59.476  24.630  33.114  1.00 37.59 LIG 0.01  C 
ATOM     20  CG1 VAL D4843     -60.189  23.324  32.907  1.00 42.19 LIG 0.01  C 
ATOM     21  CG2 VAL D4843     -58.540  24.942  31.943  1.00 33.91 LIG 0.01  C 
ENDBRANCH 5 19
ENDBRANCH 3 5
BRANCH 1 22
ATOM     22  CA  VAL D4842     -59.270  28.985  35.097  1.00 42.26 LIG 0.18  C 
BRANCH 22 23
ATOM     23  N   VAL D4842     -58.074  28.366  35.678  1.00 51.43 LIG-0.34  N 
ATOM     24 H    VAL D4842     -57.383  28.396  35.167  1.00 51.43 LIG 0.16  HD
ATOM     25  C   LEU D4841     -58.070  27.810  36.888  1.00 54.30 LIG 0.26  C 
ATOM     26 O    LEU D4841     -57.040  27.441  37.449  1.00 66.57 LIG-0.27  OA
BRANCH 25 27
ATOM     27  CA  LEU D4841     -59.418  27.682  37.583  1.00 50.85 LIG 0.40  C 
ATOM     28  N   LEU D4841     -59.717  26.278  37.880  1.00 66.18 LIG 0.61  N 
BRANCH 27 29
ATOM     29  CB  LEU D4841     -59.432  28.509  38.874  1.00 58.40 LIG 0.06  C 
BRANCH 29 30
ATOM     30  CG  LEU D4841     -59.804  29.991  38.744  1.00 54.26 LIG-0.02  C 
ATOM     31  CD2 LEU D4841     -60.949  30.227  37.730  1.00 54.78 LIG 0.01  C 
ATOM     32  CD1 LEU D4841     -58.579  30.855  38.414  1.00 32.44 LIG 0.01  C 
ENDBRANCH 29 30
ENDBRANCH 27 29
ENDBRANCH 25 27
ENDBRANCH 22 23
BRANCH 22 33
ATOM     33  CB  VAL D4842     -58.912  30.193  34.194  1.00 48.47 LIG 0.01  C 
ATOM     34  CG2 VAL D4842     -58.419  31.356  35.009  1.00 42.42 LIG 0.01  C 
ATOM     35  CG1 VAL D4842     -60.136  30.603  33.393  1.00 34.87 LIG 0.01  C 
ENDBRANCH 22 33
ENDBRANCH 1 22
TORSDOF 13
ENDMDL
MODEL 85
USER: ADFR SOLUTION from run 61
USER: SCORE 8.467730 LL:  -2.793 LR:  -7.286 RR:   0.000 FEB:  -3.408
USER: RMSD 5.858175
USER: SEED 60
USER: STATUS no improvement in best in 39 clusters for 5 generations
USER: GENES 15
USER: genes 0 Translation |==|  0.36032 0.46959 0.25076
USER: genes 1 Rotation |==|  0.57471 0.83224 0.63489 0.84035
USER: genes 2 Torsion [C]-N--CA-[CB] |==|  0.41680
USER: genes 3 Torsion [N]-CA--C-[N] |==|  0.96667
USER: genes 4 Torsion [C]-N--CA-[CB] |==|  0.49796
USER: genes 5 Torsion [N]-CA--CB-[CG] |==|  0.59783
USER: genes 6 Torsion [CA]-CB--CG-[OD1] |==|  0.39702
USER: genes 7 Torsion [N]-CA--C-[O] |==|  0.80102
USER: genes 8 Torsion [N]-CA--CB-[CG2] |==|  0.89133
USER: genes 9 Torsion [N]-C--CA-[N] |==|  0.87366
USER: genes 10 Torsion [C]-CA--N-[C] |==|  0.75129
USER: genes 11 Torsion [N]-C--CA-[N] |==|  0.19474
USER: genes 12 Torsion [C]-CA--CB-[CG] |==|  0.79231
USER: genes 13 Torsion [CA]-CB--CG-[CD2] |==|  0.69184
USER: genes 14 Torsion [C]-CA--CB-[CG2] |==|  0.43289
ROOT
ATOM      1  C   VAL D4842     -59.973  27.065  35.341  1.00 57.35 LIG 0.24  C 
ATOM      2 O    VAL D4842     -61.182  27.009  35.599  1.00 61.28 LIG-0.27  OA
ATOM      3  N   VAL D4843     -59.328  26.091  34.713  1.00 52.36 LIG-0.35  N 
ATOM      4 H    VAL D4843     -58.541  26.187  34.382  1.00 52.36 LIG 0.16  HD
ENDROOT
BRANCH 3 5
ATOM      5  CA  VAL D4843     -59.883  24.759  34.517  1.00 37.99 LIG 0.18  C 
BRANCH 5 6
ATOM      6  C   VAL D4843     -59.417  23.971  35.766  1.00 51.29 LIG 0.24  C 
ATOM      7  N   ASN D4844     -58.493  24.500  36.558  1.00 50.43 LIG-0.35  N 
ATOM      8 H    ASN D4844     -58.131  25.273  36.455  1.00 50.43 LIG 0.16  HD
ATOM      9 O    VAL D4843     -59.899  22.857  36.016  1.00 47.22 LIG-0.27  OA
BRANCH 7 10
ATOM     10  CA  ASN D4844     -58.025  23.727  37.718  1.00 46.88 LIG 0.17  C 
BRANCH 10 11
ATOM     11  CB  ASN D4844     -56.954  24.506  38.480  1.00 66.72 LIG 0.14  C 
BRANCH 11 12
ATOM     12  CG  ASN D4844     -55.881  23.609  39.066  1.00 62.42 LIG 0.22  C 
ATOM     13 OD1  ASN D4844     -54.700  23.960  39.097  1.00 56.11 LIG-0.27  OA
ATOM     14  ND2 ASN D4844     -56.294  22.437  39.535  1.00 67.26 LIG-0.37  N 
ATOM     15 21HD ASN D4844     -55.727  21.888  39.879  1.00 67.26 LIG 0.16  HD
ATOM     16 22HD ASN D4844     -57.127  22.227  39.495  1.00 67.26 LIG 0.16  HD
ENDBRANCH 11 12
ENDBRANCH 10 11
BRANCH 10 17
ATOM     17  C   ASN D4844     -59.122  23.238  38.679  1.00 52.57 LIG 0.22  C 
ATOM     18 O    ASN D4844     -59.728  24.026  39.422  1.00 48.91 LIG-0.29  OA
ENDBRANCH 10 17
ENDBRANCH 7 10
ENDBRANCH 5 6
BRANCH 5 19
ATOM     19  CB  VAL D4843     -59.289  24.185  33.193  1.00 37.59 LIG 0.01  C 
ATOM     20  CG1 VAL D4843     -60.058  22.995  32.692  1.00 42.19 LIG 0.01  C 
ATOM     21  CG2 VAL D4843     -59.189  25.272  32.119  1.00 33.91 LIG 0.01  C 
ENDBRANCH 5 19
ENDBRANCH 3 5
BRANCH 1 22
ATOM     22  CA  VAL D4842     -59.118  28.301  35.682  1.00 42.26 LIG 0.18  C 
BRANCH 22 23
ATOM     23  N   VAL D4842     -57.799  28.035  36.264  1.00 51.43 LIG-0.34  N 
ATOM     24 H    VAL D4842     -57.170  27.959  35.683  1.00 51.43 LIG 0.16  HD
ATOM     25  C   LEU D4841     -57.604  27.923  37.577  1.00 54.30 LIG 0.26  C 
ATOM     26 O    LEU D4841     -56.485  27.868  38.082  1.00 66.57 LIG-0.27  OA
BRANCH 25 27
ATOM     27  CA  LEU D4841     -58.850  27.903  38.451  1.00 50.85 LIG 0.40  C 
ATOM     28  N   LEU D4841     -59.594  26.654  38.266  1.00 66.18 LIG 0.61  N 
BRANCH 27 29
ATOM     29  CB  LEU D4841     -58.468  28.076  39.926  1.00 58.40 LIG 0.06  C 
BRANCH 29 30
ATOM     30  CG  LEU D4841     -57.841  26.865  40.627  1.00 54.26 LIG-0.02  C 
ATOM     31  CD2 LEU D4841     -58.778  26.249  41.693  1.00 54.78 LIG 0.01  C 
ATOM     32  CD1 LEU D4841     -56.467  27.204  41.220  1.00 32.44 LIG 0.01  C 
ENDBRANCH 29 30
ENDBRANCH 27 29
ENDBRANCH 25 27
ENDBRANCH 22 23
BRANCH 22 33
ATOM     33  CB  VAL D4842     -59.028  29.256  34.465  1.00 48.47 LIG 0.01  C 
ATOM     34  CG2 VAL D4842     -58.735  30.666  34.897  1.00 42.42 LIG 0.01  C 
ATOM     35  CG1 VAL D4842     -60.335  29.213  33.692  1.00 34.87 LIG 0.01  C 
ENDBRANCH 22 33
ENDBRANCH 1 22
TORSDOF 13
ENDMDL
MODEL 86
USER: ADFR SOLUTION from run 38
USER: SCORE 8.505444 LL:  -1.739 LR:  -7.293 RR:   0.000 FEB:  -3.415
USER: RMSD 8.450434
USER: SEED 37
USER: STATUS no improvement in best in 31 clusters for 5 generations
USER: GENES 15
USER: genes 0 Translation |==|  0.42119 0.50923 0.28481
USER: genes 1 Rotation |==|  0.32797 0.28232 0.91595 0.50308
USER: genes 2 Torsion [C]-N--CA-[CB] |==|  0.51171
USER: genes 3 Torsion [N]-CA--C-[N] |==|  0.48028
USER: genes 4 Torsion [C]-N--CA-[CB] |==|  0.47690
USER: genes 5 Torsion [N]-CA--CB-[CG] |==|  0.54381
USER: genes 6 Torsion [CA]-CB--CG-[OD1] |==|  0.21899
USER: genes 7 Torsion [N]-CA--C-[O] |==|  0.30685
USER: genes 8 Torsion [N]-CA--CB-[CG2] |==|  0.57496
USER: genes 9 Torsion [N]-C--CA-[N] |==|  0.44376
USER: genes 10 Torsion [C]-CA--N-[C] |==|  0.66111
USER: genes 11 Torsion [N]-C--CA-[N] |==|  0.81266
USER: genes 12 Torsion [C]-CA--CB-[CG] |==|  0.17155
USER: genes 13 Torsion [CA]-CB--CG-[CD2] |==|  0.64493
USER: genes 14 Torsion [C]-CA--CB-[CG2] |==|  0.56359
ROOT
ATOM      1  C   VAL D4842     -58.695  27.719  35.852  1.00 57.35 LIG 0.24  C 
ATOM      2 O    VAL D4842     -57.765  28.317  35.296  1.00 61.28 LIG-0.27  OA
ATOM      3  N   VAL D4843     -59.271  28.164  36.962  1.00 52.36 LIG-0.35  N 
ATOM      4 H    VAL D4843     -60.017  27.856  37.259  1.00 52.36 LIG 0.16  HD
ENDROOT
BRANCH 3 5
ATOM      5  CA  VAL D4843     -58.705  29.217  37.792  1.00 37.99 LIG 0.18  C 
BRANCH 5 6
ATOM      6  C   VAL D4843     -57.290  28.697  38.146  1.00 51.29 LIG 0.24  C 
ATOM      7  N   ASN D4844     -56.447  29.497  38.787  1.00 50.43 LIG-0.35  N 
ATOM      8 H    ASN D4844     -56.624  30.295  39.054  1.00 50.43 LIG 0.16  HD
ATOM      9 O    VAL D4843     -56.949  27.549  37.826  1.00 47.22 LIG-0.27  OA
BRANCH 7 10
ATOM     10  CA  ASN D4844     -55.091  29.011  39.081  1.00 46.88 LIG 0.17  C 
BRANCH 10 11
ATOM     11  CB  ASN D4844     -54.227  30.145  39.632  1.00 66.72 LIG 0.14  C 
BRANCH 11 12
ATOM     12  CG  ASN D4844     -52.746  29.823  39.597  1.00 62.42 LIG 0.22  C 
ATOM     13 OD1  ASN D4844     -52.095  29.913  38.554  1.00 56.11 LIG-0.27  OA
ATOM     14  ND2 ASN D4844     -52.205  29.442  40.749  1.00 67.26 LIG-0.37  N 
ATOM     15 21HD ASN D4844     -51.368  29.248  40.787  1.00 67.26 LIG 0.16  HD
ATOM     16 22HD ASN D4844     -52.692  29.390  41.456  1.00 67.26 LIG 0.16  HD
ENDBRANCH 11 12
ENDBRANCH 10 11
BRANCH 10 17
ATOM     17  C   ASN D4844     -55.010  27.778  39.997  1.00 52.57 LIG 0.22  C 
ATOM     18 O    ASN D4844     -54.646  26.673  39.563  1.00 48.91 LIG-0.29  OA
ENDBRANCH 10 17
ENDBRANCH 7 10
ENDBRANCH 5 6
BRANCH 5 19
ATOM     19  CB  VAL D4843     -59.615  29.376  39.049  1.00 37.59 LIG 0.01  C 
ATOM     20  CG1 VAL D4843     -59.306  28.356  40.108  1.00 42.19 LIG 0.01  C 
ATOM     21  CG2 VAL D4843     -59.535  30.798  39.610  1.00 33.91 LIG 0.01  C 
ENDBRANCH 5 19
ENDBRANCH 3 5
BRANCH 1 22
ATOM     22  CA  VAL D4842     -59.304  26.428  35.272  1.00 42.26 LIG 0.18  C 
BRANCH 22 23
ATOM     23  N   VAL D4842     -59.029  26.162  33.857  1.00 51.43 LIG-0.34  N 
ATOM     24 H    VAL D4842     -58.192  26.113  33.667  1.00 51.43 LIG 0.16  HD
ATOM     25  C   LEU D4841     -59.996  26.009  32.955  1.00 54.30 LIG 0.26  C 
ATOM     26 O    LEU D4841     -59.784  25.622  31.808  1.00 66.57 LIG-0.27  OA
BRANCH 25 27
ATOM     27  CA  LEU D4841     -61.415  26.303  33.422  1.00 50.85 LIG 0.40  C 
ATOM     28  N   LEU D4841     -61.852  25.311  34.410  1.00 66.18 LIG 0.61  N 
BRANCH 27 29
ATOM     29  CB  LEU D4841     -61.499  27.713  34.018  1.00 58.40 LIG 0.06  C 
BRANCH 29 30
ATOM     30  CG  LEU D4841     -61.172  28.883  33.082  1.00 54.26 LIG-0.02  C 
ATOM     31  CD2 LEU D4841     -60.107  29.836  33.676  1.00 54.78 LIG 0.01  C 
ATOM     32  CD1 LEU D4841     -62.437  29.647  32.669  1.00 32.44 LIG 0.01  C 
ENDBRANCH 29 30
ENDBRANCH 27 29
ENDBRANCH 25 27
ENDBRANCH 22 23
BRANCH 22 33
ATOM     33  CB  VAL D4842     -58.957  25.210  36.165  1.00 48.47 LIG 0.01  C 
ATOM     34  CG2 VAL D4842     -59.035  23.924  35.390  1.00 42.42 LIG 0.01  C 
ATOM     35  CG1 VAL D4842     -59.912  25.162  37.346  1.00 34.87 LIG 0.01  C 
ENDBRANCH 22 33
ENDBRANCH 1 22
TORSDOF 13
ENDMDL
MODEL 87
USER: ADFR SOLUTION from run 196
USER: SCORE 9.078187 LL:  -2.432 LR:  -7.281 RR:   0.000 FEB:  -3.403
USER: RMSD 9.020363
USER: SEED 195
USER: STATUS no improvement in best in 19 clusters for 5 generations
USER: GENES 15
USER: genes 0 Translation |==|  0.30571 0.33578 0.23487
USER: genes 1 Rotation |==|  0.26594 0.90039 0.33640 0.59022
USER: genes 2 Torsion [C]-N--CA-[CB] |==|  0.51667
USER: genes 3 Torsion [N]-CA--C-[N] |==|  0.39640
USER: genes 4 Torsion [C]-N--CA-[CB] |==|  0.45293
USER: genes 5 Torsion [N]-CA--CB-[CG] |==|  0.04591
USER: genes 6 Torsion [CA]-CB--CG-[OD1] |==|  0.71730
USER: genes 7 Torsion [N]-CA--C-[O] |==|  0.99720
USER: genes 8 Torsion [N]-CA--CB-[CG2] |==|  0.75324
USER: genes 9 Torsion [N]-C--CA-[N] |==|  0.42366
USER: genes 10 Torsion [C]-CA--N-[C] |==|  0.69538
USER: genes 11 Torsion [N]-C--CA-[N] |==|  0.46269
USER: genes 12 Torsion [C]-CA--CB-[CG] |==|  0.42948
USER: genes 13 Torsion [CA]-CB--CG-[CD2] |==|  0.20959
USER: genes 14 Torsion [C]-CA--CB-[CG2] |==|  0.21704
ROOT
ATOM      1  C   VAL D4842     -61.120  24.857  35.103  1.00 57.35 LIG 0.24  C 
ATOM      2 O    VAL D4842     -61.911  25.563  35.741  1.00 61.28 LIG-0.27  OA
ATOM      3  N   VAL D4843     -60.043  24.312  35.653  1.00 52.36 LIG-0.35  N 
ATOM      4 H    VAL D4843     -59.585  23.691  35.272  1.00 52.36 LIG 0.16  HD
ENDROOT
BRANCH 3 5
ATOM      5  CA  VAL D4843     -59.522  24.703  36.954  1.00 37.99 LIG 0.18  C 
BRANCH 5 6
ATOM      6  C   VAL D4843     -59.331  26.236  36.837  1.00 51.29 LIG 0.24  C 
ATOM      7  N   ASN D4844     -59.595  27.004  37.887  1.00 50.43 LIG-0.35  N 
ATOM      8 H    ASN D4844     -59.847  26.722  38.659  1.00 50.43 LIG 0.16  HD
ATOM      9 O    VAL D4843     -58.945  26.737  35.771  1.00 47.22 LIG-0.27  OA
BRANCH 7 10
ATOM     10  CA  ASN D4844     -59.453  28.461  37.754  1.00 46.88 LIG 0.17  C 
BRANCH 10 11
ATOM     11  CB  ASN D4844     -60.185  29.173  38.892  1.00 66.72 LIG 0.14  C 
BRANCH 11 12
ATOM     12  CG  ASN D4844     -60.510  28.248  40.048  1.00 62.42 LIG 0.22  C 
ATOM     13 OD1  ASN D4844     -61.644  27.791  40.204  1.00 56.11 LIG-0.27  OA
ATOM     14  ND2 ASN D4844     -59.505  27.966  40.870  1.00 67.26 LIG-0.37  N 
ATOM     15 21HD ASN D4844     -59.633  27.446  41.543  1.00 67.26 LIG 0.16  HD
ATOM     16 22HD ASN D4844     -58.727  28.305  40.729  1.00 67.26 LIG 0.16  HD
ENDBRANCH 11 12
ENDBRANCH 10 11
BRANCH 10 17
ATOM     17  C   ASN D4844     -58.011  28.982  37.631  1.00 52.57 LIG 0.22  C 
ATOM     18 O    ASN D4844     -57.040  28.209  37.664  1.00 48.91 LIG-0.29  OA
ENDBRANCH 10 17
ENDBRANCH 7 10
ENDBRANCH 5 6
BRANCH 5 19
ATOM     19  CB  VAL D4843     -58.173  23.950  37.175  1.00 37.59 LIG 0.01  C 
ATOM     20  CG1 VAL D4843     -57.184  24.769  37.955  1.00 42.19 LIG 0.01  C 
ATOM     21  CG2 VAL D4843     -58.407  22.588  37.836  1.00 33.91 LIG 0.01  C 
ENDBRANCH 5 19
ENDBRANCH 3 5
BRANCH 1 22
ATOM     22  CA  VAL D4842     -61.347  24.504  33.620  1.00 42.26 LIG 0.18  C 
BRANCH 22 23
ATOM     23  N   VAL D4842     -62.737  24.528  33.155  1.00 51.43 LIG-0.34  N 
ATOM     24 H    VAL D4842     -63.075  25.317  33.105  1.00 51.43 LIG 0.16  HD
ATOM     25  C   LEU D4841     -63.407  23.421  32.841  1.00 54.30 LIG 0.26  C 
ATOM     26 O    LEU D4841     -64.508  23.440  32.294  1.00 66.57 LIG-0.27  OA
BRANCH 25 27
ATOM     27  CA  LEU D4841     -62.724  22.098  33.157  1.00 50.85 LIG 0.40  C 
ATOM     28  N   LEU D4841     -63.675  20.987  33.063  1.00 66.18 LIG 0.61  N 
BRANCH 27 29
ATOM     29  CB  LEU D4841     -61.546  21.865  32.203  1.00 58.40 LIG 0.06  C 
BRANCH 29 30
ATOM     30  CG  LEU D4841     -60.415  20.959  32.705  1.00 54.26 LIG-0.02  C 
ATOM     31  CD2 LEU D4841     -60.803  19.461  32.678  1.00 54.78 LIG 0.01  C 
ATOM     32  CD1 LEU D4841     -59.925  21.384  34.096  1.00 32.44 LIG 0.01  C 
ENDBRANCH 29 30
ENDBRANCH 27 29
ENDBRANCH 25 27
ENDBRANCH 22 23
BRANCH 22 33
ATOM     33  CB  VAL D4842     -60.420  25.348  32.709  1.00 48.47 LIG 0.01  C 
ATOM     34  CG2 VAL D4842     -59.018  24.805  32.703  1.00 42.42 LIG 0.01  C 
ATOM     35  CG1 VAL D4842     -60.415  26.789  33.191  1.00 34.87 LIG 0.01  C 
ENDBRANCH 22 33
ENDBRANCH 1 22
TORSDOF 13
ENDMDL
MODEL 88
USER: ADFR SOLUTION from run 29
USER: SCORE 9.054016 LL:  -3.218 LR:  -7.282 RR:   0.000 FEB:  -3.405
USER: RMSD 9.388793
USER: SEED 28
USER: STATUS no improvement in best in 27 clusters for 5 generations
USER: GENES 15
USER: genes 0 Translation |==|  0.32313 0.36638 0.09939
USER: genes 1 Rotation |==|  0.72221 0.50657 0.05328 0.53195
USER: genes 2 Torsion [C]-N--CA-[CB] |==|  0.45564
USER: genes 3 Torsion [N]-CA--C-[N] |==|  0.87074
USER: genes 4 Torsion [C]-N--CA-[CB] |==|  0.78768
USER: genes 5 Torsion [N]-CA--CB-[CG] |==|  0.89392
USER: genes 6 Torsion [CA]-CB--CG-[OD1] |==|  0.79040
USER: genes 7 Torsion [N]-CA--C-[O] |==|  0.63171
USER: genes 8 Torsion [N]-CA--CB-[CG2] |==|  0.47197
USER: genes 9 Torsion [N]-C--CA-[N] |==|  0.03853
USER: genes 10 Torsion [C]-CA--N-[C] |==|  0.66667
USER: genes 11 Torsion [N]-C--CA-[N] |==|  0.37653
USER: genes 12 Torsion [C]-CA--CB-[CG] |==|  0.27523
USER: genes 13 Torsion [CA]-CB--CG-[CD2] |==|  0.54150
USER: genes 14 Torsion [C]-CA--CB-[CG2] |==|  0.57028
ROOT
ATOM      1  C   VAL D4842     -60.754  25.362  33.071  1.00 57.35 LIG 0.24  C 
ATOM      2 O    VAL D4842     -59.656  25.178  32.533  1.00 61.28 LIG-0.27  OA
ATOM      3  N   VAL D4843     -61.229  26.573  33.336  1.00 52.36 LIG-0.35  N 
ATOM      4 H    VAL D4843     -62.049  26.719  33.549  1.00 52.36 LIG 0.16  HD
ENDROOT
BRANCH 3 5
ATOM      5  CA  VAL D4843     -60.415  27.779  33.294  1.00 37.99 LIG 0.18  C 
BRANCH 5 6
ATOM      6  C   VAL D4843     -59.587  27.719  34.601  1.00 51.29 LIG 0.24  C 
ATOM      7  N   ASN D4844     -60.198  27.427  35.742  1.00 50.43 LIG-0.35  N 
ATOM      8 H    ASN D4844     -61.033  27.240  35.827  1.00 50.43 LIG 0.16  HD
ATOM      9 O    VAL D4843     -58.369  27.948  34.580  1.00 47.22 LIG-0.27  OA
BRANCH 7 10
ATOM     10  CA  ASN D4844     -59.413  27.414  36.986  1.00 46.88 LIG 0.17  C 
BRANCH 10 11
ATOM     11  CB  ASN D4844     -58.570  26.142  37.069  1.00 66.72 LIG 0.14  C 
BRANCH 11 12
ATOM     12  CG  ASN D4844     -59.296  24.922  36.538  1.00 62.42 LIG 0.22  C 
ATOM     13 OD1  ASN D4844     -60.185  24.371  37.190  1.00 56.11 LIG-0.27  OA
ATOM     14  ND2 ASN D4844     -58.915  24.493  35.340  1.00 67.26 LIG-0.37  N 
ATOM     15 21HD ASN D4844     -59.294  23.804  34.989  1.00 67.26 LIG 0.16  HD
ATOM     16 22HD ASN D4844     -58.290  24.904  34.915  1.00 67.26 LIG 0.16  HD
ENDBRANCH 11 12
ENDBRANCH 10 11
BRANCH 10 17
ATOM     17  C   ASN D4844     -58.541  28.656  37.236  1.00 52.57 LIG 0.22  C 
ATOM     18 O    ASN D4844     -57.352  28.552  37.580  1.00 48.91 LIG-0.29  OA
ENDBRANCH 10 17
ENDBRANCH 7 10
ENDBRANCH 5 6
BRANCH 5 19
ATOM     19  CB  VAL D4843     -61.380  29.005  33.255  1.00 37.59 LIG 0.01  C 
ATOM     20  CG1 VAL D4843     -62.507  28.875  34.240  1.00 42.19 LIG 0.01  C 
ATOM     21  CG2 VAL D4843     -60.613  30.314  33.460  1.00 33.91 LIG 0.01  C 
ENDBRANCH 5 19
ENDBRANCH 3 5
BRANCH 1 22
ATOM     22  CA  VAL D4842     -61.697  24.198  33.433  1.00 42.26 LIG 0.18  C 
BRANCH 22 23
ATOM     23  N   VAL D4842     -63.089  24.557  33.718  1.00 51.43 LIG-0.34  N 
ATOM     24 H    VAL D4842     -63.492  24.942  33.063  1.00 51.43 LIG 0.16  HD
ATOM     25  C   LEU D4841     -63.669  24.305  34.890  1.00 54.30 LIG 0.26  C 
ATOM     26 O    LEU D4841     -64.874  24.448  35.082  1.00 66.57 LIG-0.27  OA
BRANCH 25 27
ATOM     27  CA  LEU D4841     -62.765  23.784  35.998  1.00 50.85 LIG 0.40  C 
ATOM     28  N   LEU D4841     -63.048  24.468  37.263  1.00 66.18 LIG 0.61  N 
BRANCH 27 29
ATOM     29  CB  LEU D4841     -62.946  22.270  36.166  1.00 58.40 LIG 0.06  C 
BRANCH 29 30
ATOM     30  CG  LEU D4841     -61.901  21.368  35.498  1.00 54.26 LIG-0.02  C 
ATOM     31  CD2 LEU D4841     -62.363  19.894  35.408  1.00 54.78 LIG 0.01  C 
ATOM     32  CD1 LEU D4841     -60.533  21.484  36.185  1.00 32.44 LIG 0.01  C 
ENDBRANCH 29 30
ENDBRANCH 27 29
ENDBRANCH 25 27
ENDBRANCH 22 23
BRANCH 22 33
ATOM     33  CB  VAL D4842     -61.599  23.067  32.377  1.00 48.47 LIG 0.01  C 
ATOM     34  CG2 VAL D4842     -62.861  22.252  32.332  1.00 42.42 LIG 0.01  C 
ATOM     35  CG1 VAL D4842     -60.416  22.172  32.705  1.00 34.87 LIG 0.01  C 
ENDBRANCH 22 33
ENDBRANCH 1 22
TORSDOF 13
ENDMDL
MODEL 89
USER: ADFR SOLUTION from run 84
USER: SCORE 8.667131 LL:  -3.276 LR:  -7.276 RR:   0.000 FEB:  -3.398
USER: RMSD 8.190348
USER: SEED 83
USER: STATUS no improvement in best in 11 clusters for 5 generations
USER: GENES 15
USER: genes 0 Translation |==|  0.34346 0.39315 0.09323
USER: genes 1 Rotation |==|  0.43721 0.35579 0.43601 0.97028
USER: genes 2 Torsion [C]-N--CA-[CB] |==|  0.27222
USER: genes 3 Torsion [N]-CA--C-[N] |==|  0.16009
USER: genes 4 Torsion [C]-N--CA-[CB] |==|  0.24086
USER: genes 5 Torsion [N]-CA--CB-[CG] |==|  0.10220
USER: genes 6 Torsion [CA]-CB--CG-[OD1] |==|  0.62291
USER: genes 7 Torsion [N]-CA--C-[O] |==|  0.82961
USER: genes 8 Torsion [N]-CA--CB-[CG2] |==|  0.48053
USER: genes 9 Torsion [N]-C--CA-[N] |==|  0.87282
USER: genes 10 Torsion [C]-CA--N-[C] |==|  0.69283
USER: genes 11 Torsion [N]-C--CA-[N] |==|  0.33284
USER: genes 12 Torsion [C]-CA--CB-[CG] |==|  0.24883
USER: genes 13 Torsion [CA]-CB--CG-[CD2] |==|  0.66261
USER: genes 14 Torsion [C]-CA--CB-[CG2] |==|  0.81867
ROOT
ATOM      1  C   VAL D4842     -60.327  25.804  32.978  1.00 57.35 LIG 0.24  C 
ATOM      2 O    VAL D4842     -59.797  25.757  31.862  1.00 61.28 LIG-0.27  OA
ATOM      3  N   VAL D4843     -60.985  24.778  33.504  1.00 52.36 LIG-0.35  N 
ATOM      4 H    VAL D4843     -61.208  24.739  34.333  1.00 52.36 LIG 0.16  HD
ENDROOT
BRANCH 3 5
ATOM      5  CA  VAL D4843     -61.398  23.613  32.735  1.00 37.99 LIG 0.18  C 
BRANCH 5 6
ATOM      6  C   VAL D4843     -62.785  23.250  33.321  1.00 51.29 LIG 0.24  C 
ATOM      7  N   ASN D4844     -63.752  24.158  33.305  1.00 50.43 LIG-0.35  N 
ATOM      8 H    ASN D4844     -63.689  24.947  32.970  1.00 50.43 LIG 0.16  HD
ATOM      9 O    VAL D4843     -62.983  22.126  33.804  1.00 47.22 LIG-0.27  OA
BRANCH 7 10
ATOM     10  CA  ASN D4844     -65.053  23.820  33.902  1.00 46.88 LIG 0.17  C 
BRANCH 10 11
ATOM     11  CB  ASN D4844     -65.046  24.123  35.400  1.00 66.72 LIG 0.14  C 
BRANCH 11 12
ATOM     12  CG  ASN D4844     -64.258  25.372  35.742  1.00 62.42 LIG 0.22  C 
ATOM     13 OD1  ASN D4844     -63.478  25.396  36.696  1.00 56.11 LIG-0.27  OA
ATOM     14  ND2 ASN D4844     -64.462  26.423  34.955  1.00 67.26 LIG-0.37  N 
ATOM     15 21HD ASN D4844     -64.040  27.158  35.103  1.00 67.26 LIG 0.16  HD
ATOM     16 22HD ASN D4844     -65.015  26.368  34.299  1.00 67.26 LIG 0.16  HD
ENDBRANCH 11 12
ENDBRANCH 10 11
BRANCH 10 17
ATOM     17  C   ASN D4844     -66.280  24.457  33.228  1.00 52.57 LIG 0.22  C 
ATOM     18 O    ASN D4844     -66.422  25.690  33.178  1.00 48.91 LIG-0.29  OA
ENDBRANCH 10 17
ENDBRANCH 7 10
ENDBRANCH 5 6
BRANCH 5 19
ATOM     19  CB  VAL D4843     -60.340  22.490  32.966  1.00 37.59 LIG 0.01  C 
ATOM     20  CG1 VAL D4843     -60.011  22.307  34.421  1.00 42.19 LIG 0.01  C 
ATOM     21  CG2 VAL D4843     -60.790  21.172  32.330  1.00 33.91 LIG 0.01  C 
ENDBRANCH 5 19
ENDBRANCH 3 5
BRANCH 1 22
ATOM     22  CA  VAL D4842     -60.224  27.047  33.884  1.00 42.26 LIG 0.18  C 
BRANCH 22 23
ATOM     23  N   VAL D4842     -61.459  27.462  34.556  1.00 51.43 LIG-0.34  N 
ATOM     24 H    VAL D4842     -61.722  26.921  35.170  1.00 51.43 LIG 0.16  HD
ATOM     25  C   LEU D4841     -62.108  28.581  34.236  1.00 54.30 LIG 0.26  C 
ATOM     26 O    LEU D4841     -63.043  29.022  34.900  1.00 66.57 LIG-0.27  OA
BRANCH 25 27
ATOM     27  CA  LEU D4841     -61.608  29.330  33.009  1.00 50.85 LIG 0.40  C 
ATOM     28  N   LEU D4841     -62.665  29.431  31.998  1.00 66.18 LIG 0.61  N 
BRANCH 27 29
ATOM     29  CB  LEU D4841     -61.120  30.730  33.402  1.00 58.40 LIG 0.06  C 
BRANCH 29 30
ATOM     30  CG  LEU D4841     -59.644  30.863  33.797  1.00 54.26 LIG-0.02  C 
ATOM     31  CD2 LEU D4841     -59.464  31.421  35.229  1.00 54.78 LIG 0.01  C 
ATOM     32  CD1 LEU D4841     -58.857  31.692  32.772  1.00 32.44 LIG 0.01  C 
ENDBRANCH 29 30
ENDBRANCH 27 29
ENDBRANCH 25 27
ENDBRANCH 22 23
BRANCH 22 33
ATOM     33  CB  VAL D4842     -59.048  26.899  34.882  1.00 48.47 LIG 0.01  C 
ATOM     34  CG2 VAL D4842     -59.290  25.774  35.849  1.00 42.42 LIG 0.01  C 
ATOM     35  CG1 VAL D4842     -58.864  28.203  35.641  1.00 34.87 LIG 0.01  C 
ENDBRANCH 22 33
ENDBRANCH 1 22
TORSDOF 13
ENDMDL
MODEL 90
USER: ADFR SOLUTION from run 32
USER: SCORE 9.283100 LL:  -2.618 LR:  -7.277 RR:   0.000 FEB:  -3.399
USER: RMSD 9.350521
USER: SEED 31
USER: STATUS no improvement in best in 33 clusters for 5 generations
USER: GENES 15
USER: genes 0 Translation |==|  0.31655 0.22915 0.18049
USER: genes 1 Rotation |==|  0.85488 0.28505 0.76624 0.58349
USER: genes 2 Torsion [C]-N--CA-[CB] |==|  0.89208
USER: genes 3 Torsion [N]-CA--C-[N] |==|  0.38889
USER: genes 4 Torsion [C]-N--CA-[CB] |==|  0.20627
USER: genes 5 Torsion [N]-CA--CB-[CG] |==|  0.14929
USER: genes 6 Torsion [CA]-CB--CG-[OD1] |==|  0.51641
USER: genes 7 Torsion [N]-CA--C-[O] |==|  0.92650
USER: genes 8 Torsion [N]-CA--CB-[CG2] |==|  0.75418
USER: genes 9 Torsion [N]-C--CA-[N] |==|  0.42942
USER: genes 10 Torsion [C]-CA--N-[C] |==|  0.79180
USER: genes 11 Torsion [N]-C--CA-[N] |==|  0.44469
USER: genes 12 Torsion [C]-CA--CB-[CG] |==|  0.33445
USER: genes 13 Torsion [CA]-CB--CG-[CD2] |==|  0.56563
USER: genes 14 Torsion [C]-CA--CB-[CG2] |==|  0.82331
ROOT
ATOM      1  C   VAL D4842     -60.892  23.098  34.287  1.00 57.35 LIG 0.24  C 
ATOM      2 O    VAL D4842     -61.868  23.835  34.478  1.00 61.28 LIG-0.27  OA
ATOM      3  N   VAL D4843     -59.641  23.534  34.351  1.00 52.36 LIG-0.35  N 
ATOM      4 H    VAL D4843     -58.962  23.008  34.390  1.00 52.36 LIG 0.16  HD
ENDROOT
BRANCH 3 5
ATOM      5  CA  VAL D4843     -59.284  24.946  34.364  1.00 37.99 LIG 0.18  C 
BRANCH 5 6
ATOM      6  C   VAL D4843     -59.503  25.374  35.836  1.00 51.29 LIG 0.24  C 
ATOM      7  N   ASN D4844     -58.634  26.199  36.407  1.00 50.43 LIG-0.35  N 
ATOM      8 H    ASN D4844     -57.951  26.549  36.019  1.00 50.43 LIG 0.16  HD
ATOM      9 O    VAL D4843     -60.474  24.944  36.474  1.00 47.22 LIG-0.27  OA
BRANCH 7 10
ATOM     10  CA  ASN D4844     -58.824  26.567  37.817  1.00 46.88 LIG 0.17  C 
BRANCH 10 11
ATOM     11  CB  ASN D4844     -58.442  25.401  38.728  1.00 66.72 LIG 0.14  C 
BRANCH 11 12
ATOM     12  CG  ASN D4844     -57.044  24.880  38.458  1.00 62.42 LIG 0.22  C 
ATOM     13 OD1  ASN D4844     -56.615  23.874  39.026  1.00 56.11 LIG-0.27  OA
ATOM     14  ND2 ASN D4844     -56.325  25.569  37.580  1.00 67.26 LIG-0.37  N 
ATOM     15 21HD ASN D4844     -55.524  25.318  37.388  1.00 67.26 LIG 0.16  HD
ATOM     16 22HD ASN D4844     -56.659  26.267  37.204  1.00 67.26 LIG 0.16  HD
ENDBRANCH 11 12
ENDBRANCH 10 11
BRANCH 10 17
ATOM     17  C   ASN D4844     -58.120  27.858  38.270  1.00 52.57 LIG 0.22  C 
ATOM     18 O    ASN D4844     -57.095  28.268  37.701  1.00 48.91 LIG-0.29  OA
ENDBRANCH 10 17
ENDBRANCH 7 10
ENDBRANCH 5 6
BRANCH 5 19
ATOM     19  CB  VAL D4843     -60.238  25.688  33.378  1.00 37.59 LIG 0.01  C 
ATOM     20  CG1 VAL D4843     -60.561  27.082  33.838  1.00 42.19 LIG 0.01  C 
ATOM     21  CG2 VAL D4843     -59.665  25.693  31.958  1.00 33.91 LIG 0.01  C 
ENDBRANCH 5 19
ENDBRANCH 3 5
BRANCH 1 22
ATOM     22  CA  VAL D4842     -61.045  21.590  34.011  1.00 42.26 LIG 0.18  C 
BRANCH 22 23
ATOM     23  N   VAL D4842     -62.284  20.967  34.487  1.00 51.43 LIG-0.34  N 
ATOM     24 H    VAL D4842     -62.850  20.793  33.862  1.00 51.43 LIG 0.16  HD
ATOM     25  C   LEU D4841     -62.503  20.697  35.772  1.00 54.30 LIG 0.26  C 
ATOM     26 O    LEU D4841     -63.458  20.027  36.159  1.00 66.57 LIG-0.27  OA
BRANCH 25 27
ATOM     27  CA  LEU D4841     -61.479  21.230  36.764  1.00 50.85 LIG 0.40  C 
ATOM     28  N   LEU D4841     -62.047  21.289  38.114  1.00 66.18 LIG 0.61  N 
BRANCH 27 29
ATOM     29  CB  LEU D4841     -60.224  20.349  36.758  1.00 58.40 LIG 0.06  C 
BRANCH 29 30
ATOM     30  CG  LEU D4841     -58.900  21.031  36.391  1.00 54.26 LIG-0.02  C 
ATOM     31  CD2 LEU D4841     -57.850  20.031  35.851  1.00 54.78 LIG 0.01  C 
ATOM     32  CD1 LEU D4841     -58.341  21.849  37.563  1.00 32.44 LIG 0.01  C 
ENDBRANCH 29 30
ENDBRANCH 27 29
ENDBRANCH 25 27
ENDBRANCH 22 23
BRANCH 22 33
ATOM     33  CB  VAL D4842     -60.781  21.278  32.516  1.00 48.47 LIG 0.01  C 
ATOM     34  CG2 VAL D4842     -61.801  21.942  31.632  1.00 42.42 LIG 0.01  C 
ATOM     35  CG1 VAL D4842     -60.811  19.774  32.301  1.00 34.87 LIG 0.01  C 
ENDBRANCH 22 33
ENDBRANCH 1 22
TORSDOF 13
ENDMDL
MODEL 91
USER: ADFR SOLUTION from run 148
USER: SCORE 8.667902 LL:  -2.462 LR:  -7.282 RR:   0.000 FEB:  -3.404
USER: RMSD 5.627746
USER: SEED 147
USER: STATUS no improvement in best in 17 clusters for 5 generations
USER: GENES 15
USER: genes 0 Translation |==|  0.42213 0.28450 0.30020
USER: genes 1 Rotation |==|  0.38857 0.22937 0.10439 0.58855
USER: genes 2 Torsion [C]-N--CA-[CB] |==|  0.19444
USER: genes 3 Torsion [N]-CA--C-[N] |==|  0.98662
USER: genes 4 Torsion [C]-N--CA-[CB] |==|  0.27572
USER: genes 5 Torsion [N]-CA--CB-[CG] |==|  0.10368
USER: genes 6 Torsion [CA]-CB--CG-[OD1] |==|  0.07709
USER: genes 7 Torsion [N]-CA--C-[O] |==|  0.98113
USER: genes 8 Torsion [N]-CA--CB-[CG2] |==|  0.57443
USER: genes 9 Torsion [N]-C--CA-[N] |==|  0.86562
USER: genes 10 Torsion [C]-CA--N-[C] |==|  0.62132
USER: genes 11 Torsion [N]-C--CA-[N] |==|  0.26292
USER: genes 12 Torsion [C]-CA--CB-[CG] |==|  0.77660
USER: genes 13 Torsion [CA]-CB--CG-[CD2] |==|  0.72926
USER: genes 14 Torsion [C]-CA--CB-[CG2] |==|  0.07545
ROOT
ATOM      1  C   VAL D4842     -58.675  24.011  36.083  1.00 57.35 LIG 0.24  C 
ATOM      2 O    VAL D4842     -58.532  22.808  35.833  1.00 61.28 LIG-0.27  OA
ATOM      3  N   VAL D4843     -59.214  24.863  35.220  1.00 52.36 LIG-0.35  N 
ATOM      4 H    VAL D4843     -59.471  25.654  35.440  1.00 52.36 LIG 0.16  HD
ENDROOT
BRANCH 3 5
ATOM      5  CA  VAL D4843     -59.425  24.553  33.814  1.00 37.99 LIG 0.18  C 
BRANCH 5 6
ATOM      6  C   VAL D4843     -59.829  25.910  33.187  1.00 51.29 LIG 0.24  C 
ATOM      7  N   ASN D4844     -59.993  26.965  33.975  1.00 50.43 LIG-0.35  N 
ATOM      8 H    ASN D4844     -59.871  26.975  34.826  1.00 50.43 LIG 0.16  HD
ATOM      9 O    VAL D4843     -60.003  26.006  31.963  1.00 47.22 LIG-0.27  OA
BRANCH 7 10
ATOM     10  CA  ASN D4844     -60.418  28.240  33.378  1.00 46.88 LIG 0.17  C 
BRANCH 10 11
ATOM     11  CB  ASN D4844     -61.921  28.441  33.567  1.00 66.72 LIG 0.14  C 
BRANCH 11 12
ATOM     12  CG  ASN D4844     -62.415  27.939  34.910  1.00 62.42 LIG 0.22  C 
ATOM     13 OD1  ASN D4844     -61.673  27.905  35.893  1.00 56.11 LIG-0.27  OA
ATOM     14  ND2 ASN D4844     -63.682  27.543  34.953  1.00 67.26 LIG-0.37  N 
ATOM     15 21HD ASN D4844     -64.016  27.249  35.690  1.00 67.26 LIG 0.16  HD
ATOM     16 22HD ASN D4844     -64.169  27.581  34.245  1.00 67.26 LIG 0.16  HD
ENDBRANCH 11 12
ENDBRANCH 10 11
BRANCH 10 17
ATOM     17  C   ASN D4844     -59.644  29.485  33.844  1.00 52.57 LIG 0.22  C 
ATOM     18 O    ASN D4844     -58.810  29.421  34.761  1.00 48.91 LIG-0.29  OA
ENDBRANCH 10 17
ENDBRANCH 7 10
ENDBRANCH 5 6
BRANCH 5 19
ATOM     19  CB  VAL D4843     -60.566  23.492  33.725  1.00 37.59 LIG 0.01  C 
ATOM     20  CG1 VAL D4843     -61.931  24.114  33.813  1.00 42.19 LIG 0.01  C 
ATOM     21  CG2 VAL D4843     -60.426  22.640  32.461  1.00 33.91 LIG 0.01  C 
ENDBRANCH 5 19
ENDBRANCH 3 5
BRANCH 1 22
ATOM     22  CA  VAL D4842     -58.289  24.618  37.446  1.00 42.26 LIG 0.18  C 
BRANCH 22 23
ATOM     23  N   VAL D4842     -57.520  25.866  37.404  1.00 51.43 LIG-0.34  N 
ATOM     24 H    VAL D4842     -57.812  26.437  36.830  1.00 51.43 LIG 0.16  HD
ATOM     25  C   LEU D4841     -56.467  26.086  38.188  1.00 54.30 LIG 0.26  C 
ATOM     26 O    LEU D4841     -55.922  27.184  38.280  1.00 66.57 LIG-0.27  OA
BRANCH 25 27
ATOM     27  CA  LEU D4841     -55.976  24.907  39.016  1.00 50.85 LIG 0.40  C 
ATOM     28  N   LEU D4841     -54.894  24.202  38.323  1.00 66.18 LIG 0.61  N 
BRANCH 27 29
ATOM     29  CB  LEU D4841     -55.497  25.384  40.392  1.00 58.40 LIG 0.06  C 
BRANCH 29 30
ATOM     30  CG  LEU D4841     -54.089  25.987  40.466  1.00 54.26 LIG-0.02  C 
ATOM     31  CD2 LEU D4841     -53.031  24.960  40.937  1.00 54.78 LIG 0.01  C 
ATOM     32  CD1 LEU D4841     -54.061  27.254  41.331  1.00 32.44 LIG 0.01  C 
ENDBRANCH 29 30
ENDBRANCH 27 29
ENDBRANCH 25 27
ENDBRANCH 22 23
BRANCH 22 33
ATOM     33  CB  VAL D4842     -59.532  24.739  38.363  1.00 48.47 LIG 0.01  C 
ATOM     34  CG2 VAL D4842     -60.569  23.707  38.016  1.00 42.42 LIG 0.01  C 
ATOM     35  CG1 VAL D4842     -60.124  26.132  38.230  1.00 34.87 LIG 0.01  C 
ENDBRANCH 22 33
ENDBRANCH 1 22
TORSDOF 13
ENDMDL
MODEL 92
USER: ADFR SOLUTION from run 122
USER: SCORE 9.298714 LL:  -3.130 LR:  -7.275 RR:   0.000 FEB:  -3.397
USER: RMSD 6.493980
USER: SEED 121
USER: STATUS no improvement in best in 32 clusters for 5 generations
USER: GENES 15
USER: genes 0 Translation |==|  0.37218 0.29305 0.28426
USER: genes 1 Rotation |==|  0.77202 0.63475 0.77415 0.78755
USER: genes 2 Torsion [C]-N--CA-[CB] |==|  0.90482
USER: genes 3 Torsion [N]-CA--C-[N] |==|  0.93333
USER: genes 4 Torsion [C]-N--CA-[CB] |==|  0.32863
USER: genes 5 Torsion [N]-CA--CB-[CG] |==|  0.05518
USER: genes 6 Torsion [CA]-CB--CG-[OD1] |==|  0.16688
USER: genes 7 Torsion [N]-CA--C-[O] |==|  0.03059
USER: genes 8 Torsion [N]-CA--CB-[CG2] |==|  0.65718
USER: genes 9 Torsion [N]-C--CA-[N] |==|  0.39216
USER: genes 10 Torsion [C]-CA--N-[C] |==|  0.78140
USER: genes 11 Torsion [N]-C--CA-[N] |==|  0.37585
USER: genes 12 Torsion [C]-CA--CB-[CG] |==|  0.05376
USER: genes 13 Torsion [CA]-CB--CG-[CD2] |==|  0.63299
USER: genes 14 Torsion [C]-CA--CB-[CG2] |==|  0.44325
ROOT
ATOM      1  C   VAL D4842     -59.724  24.152  35.844  1.00 57.35 LIG 0.24  C 
ATOM      2 O    VAL D4842     -60.950  24.291  35.753  1.00 61.28 LIG-0.27  OA
ATOM      3  N   VAL D4843     -58.917  24.201  34.792  1.00 52.36 LIG-0.35  N 
ATOM      4 H    VAL D4843     -58.063  24.276  34.859  1.00 52.36 LIG 0.16  HD
ENDROOT
BRANCH 3 5
ATOM      5  CA  VAL D4843     -59.389  24.134  33.416  1.00 37.99 LIG 0.18  C 
BRANCH 5 6
ATOM      6  C   VAL D4843     -59.753  25.599  33.072  1.00 51.29 LIG 0.24  C 
ATOM      7  N   ASN D4844     -60.053  26.440  34.054  1.00 50.43 LIG-0.35  N 
ATOM      8 H    ASN D4844     -60.042  26.250  34.893  1.00 50.43 LIG 0.16  HD
ATOM      9 O    VAL D4843     -59.771  25.977  31.892  1.00 47.22 LIG-0.27  OA
BRANCH 7 10
ATOM     10  CA  ASN D4844     -60.439  27.818  33.717  1.00 46.88 LIG 0.17  C 
BRANCH 10 11
ATOM     11  CB  ASN D4844     -61.865  28.102  34.189  1.00 66.72 LIG 0.14  C 
BRANCH 11 12
ATOM     12  CG  ASN D4844     -62.330  27.137  35.262  1.00 62.42 LIG 0.22  C 
ATOM     13 OD1  ASN D4844     -61.737  27.042  36.339  1.00 56.11 LIG-0.27  OA
ATOM     14  ND2 ASN D4844     -63.402  26.411  34.968  1.00 67.26 LIG-0.37  N 
ATOM     15 21HD ASN D4844     -63.711  25.847  35.540  1.00 67.26 LIG 0.16  HD
ATOM     16 22HD ASN D4844     -63.789  26.505  34.205  1.00 67.26 LIG 0.16  HD
ENDBRANCH 11 12
ENDBRANCH 10 11
BRANCH 10 17
ATOM     17  C   ASN D4844     -59.480  28.917  34.205  1.00 52.57 LIG 0.22  C 
ATOM     18 O    ASN D4844     -58.359  28.641  34.660  1.00 48.91 LIG-0.29  OA
ENDBRANCH 10 17
ENDBRANCH 7 10
ENDBRANCH 5 6
BRANCH 5 19
ATOM     19  CB  VAL D4843     -60.629  23.187  33.383  1.00 37.59 LIG 0.01  C 
ATOM     20  CG1 VAL D4843     -61.903  23.927  33.088  1.00 42.19 LIG 0.01  C 
ATOM     21  CG2 VAL D4843     -60.415  22.037  32.395  1.00 33.91 LIG 0.01  C 
ENDBRANCH 5 19
ENDBRANCH 3 5
BRANCH 1 22
ATOM     22  CA  VAL D4842     -59.018  23.964  37.201  1.00 42.26 LIG 0.18  C 
BRANCH 22 23
ATOM     23  N   VAL D4842     -59.570  24.720  38.328  1.00 51.43 LIG-0.34  N 
ATOM     24 H    VAL D4842     -60.065  24.253  38.854  1.00 51.43 LIG 0.16  HD
ATOM     25  C   LEU D4841     -59.322  26.015  38.514  1.00 54.30 LIG 0.26  C 
ATOM     26 O    LEU D4841     -59.639  26.615  39.538  1.00 66.57 LIG-0.27  OA
BRANCH 25 27
ATOM     27  CA  LEU D4841     -58.577  26.732  37.397  1.00 50.85 LIG 0.40  C 
ATOM     28  N   LEU D4841     -59.198  28.028  37.107  1.00 66.18 LIG 0.61  N 
BRANCH 27 29
ATOM     29  CB  LEU D4841     -57.104  26.927  37.779  1.00 58.40 LIG 0.06  C 
BRANCH 29 30
ATOM     30  CG  LEU D4841     -56.551  26.029  38.892  1.00 54.26 LIG-0.02  C 
ATOM     31  CD2 LEU D4841     -55.764  26.827  39.959  1.00 54.78 LIG 0.01  C 
ATOM     32  CD1 LEU D4841     -55.711  24.877  38.323  1.00 32.44 LIG 0.01  C 
ENDBRANCH 29 30
ENDBRANCH 27 29
ENDBRANCH 25 27
ENDBRANCH 22 23
BRANCH 22 33
ATOM     33  CB  VAL D4842     -58.869  22.458  37.535  1.00 48.47 LIG 0.01  C 
ATOM     34  CG2 VAL D4842     -57.788  22.229  38.555  1.00 42.42 LIG 0.01  C 
ATOM     35  CG1 VAL D4842     -58.553  21.688  36.264  1.00 34.87 LIG 0.01  C 
ENDBRANCH 22 33
ENDBRANCH 1 22
TORSDOF 13
ENDMDL
MODEL 93
USER: ADFR SOLUTION from run 14
USER: SCORE 9.019349 LL:  -2.483 LR:  -7.248 RR:   0.000 FEB:  -3.370
USER: RMSD 8.973324
USER: SEED 194828
USER: STATUS no improvement in best in 36 clusters for 5 generations
USER: GENES 15
USER: genes 0 Translation |==|  0.35233 0.32546 0.21565
USER: genes 1 Rotation |==|  0.24347 0.20461 0.68698 0.74895
USER: genes 2 Torsion [C]-N--CA-[CB] |==|  0.89046
USER: genes 3 Torsion [N]-CA--C-[N] |==|  0.83333
USER: genes 4 Torsion [C]-N--CA-[CB] |==|  0.34938
USER: genes 5 Torsion [N]-CA--CB-[CG] |==|  0.63839
USER: genes 6 Torsion [CA]-CB--CG-[OD1] |==|  0.62632
USER: genes 7 Torsion [N]-CA--C-[O] |==|  0.57091
USER: genes 8 Torsion [N]-CA--CB-[CG2] |==|  0.76121
USER: genes 9 Torsion [N]-C--CA-[N] |==|  0.97745
USER: genes 10 Torsion [C]-CA--N-[C] |==|  0.80822
USER: genes 11 Torsion [N]-C--CA-[N] |==|  0.42609
USER: genes 12 Torsion [C]-CA--CB-[CG] |==|  0.41658
USER: genes 13 Torsion [CA]-CB--CG-[CD2] |==|  0.22064
USER: genes 14 Torsion [C]-CA--CB-[CG2] |==|  0.91363
ROOT
ATOM      1  C   VAL D4842     -60.141  24.687  34.815  1.00 57.35 LIG 0.24  C 
ATOM      2 O    VAL D4842     -58.927  24.460  34.748  1.00 61.28 LIG-0.27  OA
ATOM      3  N   VAL D4843     -60.862  24.424  35.897  1.00 52.36 LIG-0.35  N 
ATOM      4 H    VAL D4843     -61.657  24.729  36.017  1.00 52.36 LIG 0.16  HD
ENDROOT
BRANCH 3 5
ATOM      5  CA  VAL D4843     -60.385  23.595  36.995  1.00 37.99 LIG 0.18  C 
BRANCH 5 6
ATOM      6  C   VAL D4843     -59.482  24.546  37.819  1.00 51.29 LIG 0.24  C 
ATOM      7  N   ASN D4844     -58.423  25.098  37.239  1.00 50.43 LIG-0.35  N 
ATOM      8 H    ASN D4844     -58.195  24.994  36.417  1.00 50.43 LIG 0.16  HD
ATOM      9 O    VAL D4843     -59.742  24.781  39.007  1.00 47.22 LIG-0.27  OA
BRANCH 7 10
ATOM     10  CA  ASN D4844     -57.547  25.965  38.039  1.00 46.88 LIG 0.17  C 
BRANCH 10 11
ATOM     11  CB  ASN D4844     -56.099  25.482  37.955  1.00 66.72 LIG 0.14  C 
BRANCH 11 12
ATOM     12  CG  ASN D4844     -55.446  25.345  39.317  1.00 62.42 LIG 0.22  C 
ATOM     13 OD1  ASN D4844     -54.310  25.774  39.528  1.00 56.11 LIG-0.27  OA
ATOM     14  ND2 ASN D4844     -56.171  24.742  40.252  1.00 67.26 LIG-0.37  N 
ATOM     15 21HD ASN D4844     -55.850  24.637  41.044  1.00 67.26 LIG 0.16  HD
ATOM     16 22HD ASN D4844     -56.960  24.455  40.066  1.00 67.26 LIG 0.16  HD
ENDBRANCH 11 12
ENDBRANCH 10 11
BRANCH 10 17
ATOM     17  C   ASN D4844     -57.632  27.469  37.727  1.00 52.57 LIG 0.22  C 
ATOM     18 O    ASN D4844     -56.678  28.231  37.955  1.00 48.91 LIG-0.29  OA
ENDBRANCH 10 17
ENDBRANCH 7 10
ENDBRANCH 5 6
BRANCH 5 19
ATOM     19  CB  VAL D4843     -59.591  22.400  36.381  1.00 37.59 LIG 0.01  C 
ATOM     20  CG1 VAL D4843     -58.481  21.932  37.279  1.00 42.19 LIG 0.01  C 
ATOM     21  CG2 VAL D4843     -60.530  21.248  36.014  1.00 33.91 LIG 0.01  C 
ENDBRANCH 5 19
ENDBRANCH 3 5
BRANCH 1 22
ATOM     22  CA  VAL D4842     -60.917  25.349  33.659  1.00 42.26 LIG 0.18  C 
BRANCH 22 23
ATOM     23  N   VAL D4842     -62.371  25.436  33.822  1.00 51.43 LIG-0.34  N 
ATOM     24 H    VAL D4842     -62.663  26.237  33.934  1.00 51.43 LIG 0.16  HD
ATOM     25  C   LEU D4841     -63.161  24.364  33.796  1.00 54.30 LIG 0.26  C 
ATOM     26 O    LEU D4841     -64.387  24.440  33.763  1.00 66.57 LIG-0.27  OA
BRANCH 25 27
ATOM     27  CA  LEU D4841     -62.468  23.009  33.769  1.00 50.85 LIG 0.40  C 
ATOM     28  N   LEU D4841     -63.326  21.976  34.358  1.00 66.18 LIG 0.61  N 
BRANCH 27 29
ATOM     29  CB  LEU D4841     -62.098  22.628  32.331  1.00 58.40 LIG 0.06  C 
BRANCH 29 30
ATOM     30  CG  LEU D4841     -60.855  21.749  32.144  1.00 54.26 LIG-0.02  C 
ATOM     31  CD2 LEU D4841     -61.140  20.255  32.431  1.00 54.78 LIG 0.01  C 
ATOM     32  CD1 LEU D4841     -59.671  22.261  32.974  1.00 32.44 LIG 0.01  C 
ENDBRANCH 29 30
ENDBRANCH 27 29
ENDBRANCH 25 27
ENDBRANCH 22 23
BRANCH 22 33
ATOM     33  CB  VAL D4842     -60.295  26.722  33.299  1.00 48.47 LIG 0.01  C 
ATOM     34  CG2 VAL D4842     -59.686  27.379  34.507  1.00 42.42 LIG 0.01  C 
ATOM     35  CG1 VAL D4842     -61.367  27.621  32.707  1.00 34.87 LIG 0.01  C 
ENDBRANCH 22 33
ENDBRANCH 1 22
TORSDOF 13
ENDMDL
MODEL 94
USER: ADFR SOLUTION from run 102
USER: SCORE 9.502141 LL:  -3.112 LR:  -7.254 RR:   0.000 FEB:  -3.376
USER: RMSD 8.349787
USER: SEED 101
USER: STATUS no improvement in best in 14 clusters for 5 generations
USER: GENES 15
USER: genes 0 Translation |==|  0.38525 0.14637 0.21799
USER: genes 1 Rotation |==|  0.43960 0.31814 0.04606 0.58496
USER: genes 2 Torsion [C]-N--CA-[CB] |==|  0.24438
USER: genes 3 Torsion [N]-CA--C-[N] |==|  0.97044
USER: genes 4 Torsion [C]-N--CA-[CB] |==|  0.26671
USER: genes 5 Torsion [N]-CA--CB-[CG] |==|  0.16919
USER: genes 6 Torsion [CA]-CB--CG-[OD1] |==|  0.04886
USER: genes 7 Torsion [N]-CA--C-[O] |==|  0.30403
USER: genes 8 Torsion [N]-CA--CB-[CG2] |==|  0.11501
USER: genes 9 Torsion [N]-C--CA-[N] |==|  0.24227
USER: genes 10 Torsion [C]-CA--N-[C] |==|  0.75326
USER: genes 11 Torsion [N]-C--CA-[N] |==|  0.35663
USER: genes 12 Torsion [C]-CA--CB-[CG] |==|  0.29585
USER: genes 13 Torsion [CA]-CB--CG-[CD2] |==|  0.03590
USER: genes 14 Torsion [C]-CA--CB-[CG2] |==|  0.80359
ROOT
ATOM      1  C   VAL D4842     -59.450  21.732  34.850  1.00 57.35 LIG 0.24  C 
ATOM      2 O    VAL D4842     -59.252  20.744  34.132  1.00 61.28 LIG-0.27  OA
ATOM      3  N   VAL D4843     -59.856  22.899  34.367  1.00 52.36 LIG-0.35  N 
ATOM      4 H    VAL D4843     -60.157  23.533  34.864  1.00 52.36 LIG 0.16  HD
ENDROOT
BRANCH 3 5
ATOM      5  CA  VAL D4843     -59.838  23.230  32.950  1.00 37.99 LIG 0.18  C 
BRANCH 5 6
ATOM      6  C   VAL D4843     -59.687  24.771  32.926  1.00 51.29 LIG 0.24  C 
ATOM      7  N   ASN D4844     -59.824  25.453  34.057  1.00 50.43 LIG-0.35  N 
ATOM      8 H    ASN D4844     -59.970  25.109  34.831  1.00 50.43 LIG 0.16  HD
ATOM      9 O    VAL D4843     -59.449  25.359  31.862  1.00 47.22 LIG-0.27  OA
BRANCH 7 10
ATOM     10  CA  ASN D4844     -59.722  26.919  34.019  1.00 46.88 LIG 0.17  C 
BRANCH 10 11
ATOM     11  CB  ASN D4844     -61.113  27.547  33.928  1.00 66.72 LIG 0.14  C 
BRANCH 11 12
ATOM     12  CG  ASN D4844     -61.990  27.204  35.117  1.00 62.42 LIG 0.22  C 
ATOM     13 OD1  ASN D4844     -61.506  26.775  36.166  1.00 56.11 LIG-0.27  OA
ATOM     14  ND2 ASN D4844     -63.294  27.395  34.953  1.00 67.26 LIG-0.37  N 
ATOM     15 21HD ASN D4844     -63.838  27.217  35.595  1.00 67.26 LIG 0.16  HD
ATOM     16 22HD ASN D4844     -63.594  27.696  34.205  1.00 67.26 LIG 0.16  HD
ENDBRANCH 11 12
ENDBRANCH 10 11
BRANCH 10 17
ATOM     17  C   ASN D4844     -58.915  27.561  35.160  1.00 52.57 LIG 0.22  C 
ATOM     18 O    ASN D4844     -57.805  28.079  34.955  1.00 48.91 LIG-0.29  OA
ENDBRANCH 10 17
ENDBRANCH 7 10
ENDBRANCH 5 6
BRANCH 5 19
ATOM     19  CB  VAL D4843     -61.188  22.753  32.330  1.00 37.59 LIG 0.01  C 
ATOM     20  CG1 VAL D4843     -61.161  21.297  31.959  1.00 42.19 LIG 0.01  C 
ATOM     21  CG2 VAL D4843     -62.361  23.065  33.264  1.00 33.91 LIG 0.01  C 
ENDBRANCH 5 19
ENDBRANCH 3 5
BRANCH 1 22
ATOM     22  CA  VAL D4842     -59.293  21.678  36.382  1.00 42.26 LIG 0.18  C 
BRANCH 22 23
ATOM     23  N   VAL D4842     -60.495  21.328  37.144  1.00 51.43 LIG-0.34  N 
ATOM     24 H    VAL D4842     -60.582  20.485  37.293  1.00 51.43 LIG 0.16  HD
ATOM     25  C   LEU D4841     -61.369  22.241  37.563  1.00 54.30 LIG 0.26  C 
ATOM     26 O    LEU D4841     -62.285  21.980  38.340  1.00 66.57 LIG-0.27  OA
BRANCH 25 27
ATOM     27  CA  LEU D4841     -61.162  23.663  37.062  1.00 50.85 LIG 0.40  C 
ATOM     28  N   LEU D4841     -62.399  24.194  36.482  1.00 66.18 LIG 0.61  N 
BRANCH 27 29
ATOM     29  CB  LEU D4841     -60.685  24.567  38.205  1.00 58.40 LIG 0.06  C 
BRANCH 29 30
ATOM     30  CG  LEU D4841     -59.212  24.993  38.184  1.00 54.26 LIG-0.02  C 
ATOM     31  CD2 LEU D4841     -58.528  24.690  36.829  1.00 54.78 LIG 0.01  C 
ATOM     32  CD1 LEU D4841     -58.430  24.380  39.354  1.00 32.44 LIG 0.01  C 
ENDBRANCH 29 30
ENDBRANCH 27 29
ENDBRANCH 25 27
ENDBRANCH 22 23
BRANCH 22 33
ATOM     33  CB  VAL D4842     -58.084  20.792  36.777  1.00 48.47 LIG 0.01  C 
ATOM     34  CG2 VAL D4842     -58.362  19.339  36.512  1.00 42.42 LIG 0.01  C 
ATOM     35  CG1 VAL D4842     -57.767  20.998  38.248  1.00 34.87 LIG 0.01  C 
ENDBRANCH 22 33
ENDBRANCH 1 22
TORSDOF 13
ENDMDL
MODEL 95
USER: ADFR SOLUTION from run 165
USER: SCORE 8.424823 LL:  -2.325 LR:  -7.252 RR:   0.000 FEB:  -3.374
USER: RMSD 6.739046
USER: SEED 164
USER: STATUS no improvement in best in 49 clusters for 5 generations
USER: GENES 15
USER: genes 0 Translation |==|  0.35615 0.45746 0.19985
USER: genes 1 Rotation |==|  0.50269 0.69986 0.59830 0.94764
USER: genes 2 Torsion [C]-N--CA-[CB] |==|  0.26861
USER: genes 3 Torsion [N]-CA--C-[N] |==|  0.44180
USER: genes 4 Torsion [C]-N--CA-[CB] |==|  0.35430
USER: genes 5 Torsion [N]-CA--CB-[CG] |==|  0.15460
USER: genes 6 Torsion [CA]-CB--CG-[OD1] |==|  0.95428
USER: genes 7 Torsion [N]-CA--C-[O] |==|  0.40056
USER: genes 8 Torsion [N]-CA--CB-[CG2] |==|  0.91726
USER: genes 9 Torsion [N]-C--CA-[N] |==|  0.99525
USER: genes 10 Torsion [C]-CA--N-[C] |==|  0.71124
USER: genes 11 Torsion [N]-C--CA-[N] |==|  0.83230
USER: genes 12 Torsion [C]-CA--CB-[CG] |==|  0.27978
USER: genes 13 Torsion [CA]-CB--CG-[CD2] |==|  0.82286
USER: genes 14 Torsion [C]-CA--CB-[CG2] |==|  0.52791
ROOT
ATOM      1  C   VAL D4842     -60.061  26.865  34.578  1.00 57.35 LIG 0.24  C 
ATOM      2 O    VAL D4842     -61.140  26.896  33.974  1.00 61.28 LIG-0.27  OA
ATOM      3  N   VAL D4843     -59.342  25.757  34.705  1.00 52.36 LIG-0.35  N 
ATOM      4 H    VAL D4843     -58.524  25.757  34.969  1.00 52.36 LIG 0.16  HD
ENDROOT
BRANCH 3 5
ATOM      5  CA  VAL D4843     -59.859  24.428  34.411  1.00 37.99 LIG 0.18  C 
BRANCH 5 6
ATOM      6  C   VAL D4843     -59.197  23.524  35.479  1.00 51.29 LIG 0.24  C 
ATOM      7  N   ASN D4844     -59.750  22.353  35.770  1.00 50.43 LIG-0.35  N 
ATOM      8 H    ASN D4844     -60.451  22.027  35.395  1.00 50.43 LIG 0.16  HD
ATOM      9 O    VAL D4843     -58.166  23.894  36.059  1.00 47.22 LIG-0.27  OA
BRANCH 7 10
ATOM     10  CA  ASN D4844     -59.139  21.519  36.816  1.00 46.88 LIG 0.17  C 
BRANCH 10 11
ATOM     11  CB  ASN D4844     -60.187  21.114  37.853  1.00 66.72 LIG 0.14  C 
BRANCH 11 12
ATOM     12  CG  ASN D4844     -61.380  20.411  37.236  1.00 62.42 LIG 0.22  C 
ATOM     13 OD1  ASN D4844     -61.604  20.471  36.026  1.00 56.11 LIG-0.27  OA
ATOM     14  ND2 ASN D4844     -62.157  19.736  38.076  1.00 67.26 LIG-0.37  N 
ATOM     15 21HD ASN D4844     -62.848  19.317  37.781  1.00 67.26 LIG 0.16  HD
ATOM     16 22HD ASN D4844     -61.968  19.717  38.915  1.00 67.26 LIG 0.16  HD
ENDBRANCH 11 12
ENDBRANCH 10 11
BRANCH 10 17
ATOM     17  C   ASN D4844     -58.368  20.285  36.318  1.00 52.57 LIG 0.22  C 
ATOM     18 O    ASN D4844     -57.336  19.894  36.887  1.00 48.91 LIG-0.29  OA
ENDBRANCH 10 17
ENDBRANCH 7 10
ENDBRANCH 5 6
BRANCH 5 19
ATOM     19  CB  VAL D4843     -59.424  24.056  32.960  1.00 37.59 LIG 0.01  C 
ATOM     20  CG1 VAL D4843     -60.343  23.048  32.330  1.00 42.19 LIG 0.01  C 
ATOM     21  CG2 VAL D4843     -59.294  25.308  32.088  1.00 33.91 LIG 0.01  C 
ENDBRANCH 5 19
ENDBRANCH 3 5
BRANCH 1 22
ATOM     22  CA  VAL D4842     -59.427  28.129  35.192  1.00 42.26 LIG 0.18  C 
BRANCH 22 23
ATOM     23  N   VAL D4842     -58.140  27.944  35.868  1.00 51.43 LIG-0.34  N 
ATOM     24 H    VAL D4842     -57.474  27.852  35.332  1.00 51.43 LIG 0.16  HD
ATOM     25  C   LEU D4841     -58.023  27.923  37.194  1.00 54.30 LIG 0.26  C 
ATOM     26 O    LEU D4841     -56.937  27.937  37.769  1.00 66.57 LIG-0.27  OA
BRANCH 25 27
ATOM     27  CA  LEU D4841     -59.320  27.920  37.992  1.00 50.85 LIG 0.40  C 
ATOM     28  N   LEU D4841     -60.108  29.121  37.704  1.00 66.18 LIG 0.61  N 
BRANCH 27 29
ATOM     29  CB  LEU D4841     -60.139  26.663  37.672  1.00 58.40 LIG 0.06  C 
BRANCH 29 30
ATOM     30  CG  LEU D4841     -60.074  25.516  38.688  1.00 54.26 LIG-0.02  C 
ATOM     31  CD2 LEU D4841     -58.652  24.919  38.815  1.00 54.78 LIG 0.01  C 
ATOM     32  CD1 LEU D4841     -61.111  24.428  38.379  1.00 32.44 LIG 0.01  C 
ENDBRANCH 29 30
ENDBRANCH 27 29
ENDBRANCH 25 27
ENDBRANCH 22 23
BRANCH 22 33
ATOM     33  CB  VAL D4842     -59.371  29.274  34.149  1.00 48.47 LIG 0.01  C 
ATOM     34  CG2 VAL D4842     -58.543  30.426  34.647  1.00 42.42 LIG 0.01  C 
ATOM     35  CG1 VAL D4842     -60.782  29.746  33.841  1.00 34.87 LIG 0.01  C 
ENDBRANCH 22 33
ENDBRANCH 1 22
TORSDOF 13
ENDMDL
MODEL 96
USER: ADFR SOLUTION from run 127
USER: SCORE 8.802670 LL:  -2.253 LR:  -7.243 RR:   0.000 FEB:  -3.365
USER: RMSD 9.239926
USER: SEED 126
USER: STATUS no improvement in best in 16 clusters for 5 generations
USER: GENES 15
USER: genes 0 Translation |==|  0.35716 0.44134 0.16074
USER: genes 1 Rotation |==|  0.58826 0.28806 0.93658 0.58177
USER: genes 2 Torsion [C]-N--CA-[CB] |==|  0.16664
USER: genes 3 Torsion [N]-CA--C-[N] |==|  0.10126
USER: genes 4 Torsion [C]-N--CA-[CB] |==|  0.44501
USER: genes 5 Torsion [N]-CA--CB-[CG] |==|  0.12847
USER: genes 6 Torsion [CA]-CB--CG-[OD1] |==|  0.23535
USER: genes 7 Torsion [N]-CA--C-[O] |==|  0.20865
USER: genes 8 Torsion [N]-CA--CB-[CG2] |==|  0.51806
USER: genes 9 Torsion [N]-C--CA-[N] |==|  0.81494
USER: genes 10 Torsion [C]-CA--N-[C] |==|  0.60213
USER: genes 11 Torsion [N]-C--CA-[N] |==|  0.43317
USER: genes 12 Torsion [C]-CA--CB-[CG] |==|  0.43108
USER: genes 13 Torsion [CA]-CB--CG-[CD2] |==|  0.62709
USER: genes 14 Torsion [C]-CA--CB-[CG2] |==|  0.11591
ROOT
ATOM      1  C   VAL D4842     -60.040  26.599  33.991  1.00 57.35 LIG 0.24  C 
ATOM      2 O    VAL D4842     -60.187  27.335  33.008  1.00 61.28 LIG-0.27  OA
ATOM      3  N   VAL D4843     -59.375  26.976  35.075  1.00 52.36 LIG-0.35  N 
ATOM      4 H    VAL D4843     -59.409  26.547  35.820  1.00 52.36 LIG 0.16  HD
ENDROOT
BRANCH 3 5
ATOM      5  CA  VAL D4843     -58.519  28.153  35.122  1.00 37.99 LIG 0.18  C 
BRANCH 5 6
ATOM      6  C   VAL D4843     -57.986  28.173  36.576  1.00 51.29 LIG 0.24  C 
ATOM      7  N   ASN D4844     -57.710  27.024  37.180  1.00 50.43 LIG-0.35  N 
ATOM      8 H    ASN D4844     -57.778  26.245  36.824  1.00 50.43 LIG 0.16  HD
ATOM      9 O    VAL D4843     -57.829  29.250  37.169  1.00 47.22 LIG-0.27  OA
BRANCH 7 10
ATOM     10  CA  ASN D4844     -57.246  27.049  38.575  1.00 46.88 LIG 0.17  C 
BRANCH 10 11
ATOM     11  CB  ASN D4844     -57.452  25.682  39.229  1.00 66.72 LIG 0.14  C 
BRANCH 11 12
ATOM     12  CG  ASN D4844     -56.983  24.537  38.353  1.00 62.42 LIG 0.22  C 
ATOM     13 OD1  ASN D4844     -55.803  24.179  38.344  1.00 56.11 LIG-0.27  OA
ATOM     14  ND2 ASN D4844     -57.915  23.955  37.607  1.00 67.26 LIG-0.37  N 
ATOM     15 21HD ASN D4844     -57.705  23.299  37.091  1.00 67.26 LIG 0.16  HD
ATOM     16 22HD ASN D4844     -58.728  24.234  37.639  1.00 67.26 LIG 0.16  HD
ENDBRANCH 11 12
ENDBRANCH 10 11
BRANCH 10 17
ATOM     17  C   ASN D4844     -55.803  27.536  38.789  1.00 52.57 LIG 0.22  C 
ATOM     18 O    ASN D4844     -55.508  28.740  38.706  1.00 48.91 LIG-0.29  OA
ENDBRANCH 10 17
ENDBRANCH 7 10
ENDBRANCH 5 6
BRANCH 5 19
ATOM     19  CB  VAL D4843     -59.400  29.398  34.792  1.00 37.59 LIG 0.01  C 
ATOM     20  CG1 VAL D4843     -60.507  29.593  35.789  1.00 42.19 LIG 0.01  C 
ATOM     21  CG2 VAL D4843     -58.542  30.659  34.663  1.00 33.91 LIG 0.01  C 
ENDBRANCH 5 19
ENDBRANCH 3 5
BRANCH 1 22
ATOM     22  CA  VAL D4842     -60.665  25.192  34.064  1.00 42.26 LIG 0.18  C 
BRANCH 22 23
ATOM     23  N   VAL D4842     -59.725  24.069  34.122  1.00 51.43 LIG-0.34  N 
ATOM     24 H    VAL D4842     -59.017  24.229  34.584  1.00 51.43 LIG 0.16  HD
ATOM     25  C   LEU D4841     -59.955  22.909  33.509  1.00 54.30 LIG 0.26  C 
ATOM     26 O    LEU D4841     -59.260  21.911  33.687  1.00 66.57 LIG-0.27  OA
BRANCH 25 27
ATOM     27  CA  LEU D4841     -61.165  22.855  32.587  1.00 50.85 LIG 0.40  C 
ATOM     28  N   LEU D4841     -61.003  21.802  31.580  1.00 66.18 LIG 0.61  N 
BRANCH 27 29
ATOM     29  CB  LEU D4841     -62.443  22.614  33.400  1.00 58.40 LIG 0.06  C 
BRANCH 29 30
ATOM     30  CG  LEU D4841     -63.760  23.097  32.780  1.00 54.26 LIG-0.02  C 
ATOM     31  CD2 LEU D4841     -64.647  23.857  33.795  1.00 54.78 LIG 0.01  C 
ATOM     32  CD1 LEU D4841     -64.530  21.945  32.119  1.00 32.44 LIG 0.01  C 
ENDBRANCH 29 30
ENDBRANCH 27 29
ENDBRANCH 25 27
ENDBRANCH 22 23
BRANCH 22 33
ATOM     33  CB  VAL D4842     -61.718  25.120  35.199  1.00 48.47 LIG 0.01  C 
ATOM     34  CG2 VAL D4842     -62.567  26.360  35.236  1.00 42.42 LIG 0.01  C 
ATOM     35  CG1 VAL D4842     -61.010  24.938  36.532  1.00 34.87 LIG 0.01  C 
ENDBRANCH 22 33
ENDBRANCH 1 22
TORSDOF 13
ENDMDL
MODEL 97
USER: ADFR SOLUTION from run 165
USER: SCORE 8.728071 LL:  -2.848 LR:  -7.225 RR:   0.000 FEB:  -3.348
USER: RMSD 7.797833
USER: SEED 164
USER: STATUS no improvement in best in 49 clusters for 5 generations
USER: GENES 15
USER: genes 0 Translation |==|  0.36266 0.33810 0.26597
USER: genes 1 Rotation |==|  0.10721 0.71574 0.54230 0.71768
USER: genes 2 Torsion [C]-N--CA-[CB] |==|  0.27222
USER: genes 3 Torsion [N]-CA--C-[N] |==|  0.24924
USER: genes 4 Torsion [C]-N--CA-[CB] |==|  0.14354
USER: genes 5 Torsion [N]-CA--CB-[CG] |==|  0.12625
USER: genes 6 Torsion [CA]-CB--CG-[OD1] |==|  0.23158
USER: genes 7 Torsion [N]-CA--C-[O] |==|  0.89844
USER: genes 8 Torsion [N]-CA--CB-[CG2] |==|  0.79003
USER: genes 9 Torsion [N]-C--CA-[N] |==|  0.89512
USER: genes 10 Torsion [C]-CA--N-[C] |==|  0.83082
USER: genes 11 Torsion [N]-C--CA-[N] |==|  0.43135
USER: genes 12 Torsion [C]-CA--CB-[CG] |==|  0.40853
USER: genes 13 Torsion [CA]-CB--CG-[CD2] |==|  0.04089
USER: genes 14 Torsion [C]-CA--CB-[CG2] |==|  0.60802
ROOT
ATOM      1  C   VAL D4842     -59.924  24.896  35.570  1.00 57.35 LIG 0.24  C 
ATOM      2 O    VAL D4842     -60.567  24.053  36.207  1.00 61.28 LIG-0.27  OA
ATOM      3  N   VAL D4843     -58.909  25.570  36.094  1.00 52.36 LIG-0.35  N 
ATOM      4 H    VAL D4843     -58.355  26.027  35.621  1.00 52.36 LIG 0.16  HD
ENDROOT
BRANCH 3 5
ATOM      5  CA  VAL D4843     -58.626  25.610  37.521  1.00 37.99 LIG 0.18  C 
BRANCH 5 6
ATOM      6  C   VAL D4843     -58.152  27.063  37.770  1.00 51.29 LIG 0.24  C 
ATOM      7  N   ASN D4844     -59.047  27.993  38.076  1.00 50.43 LIG-0.35  N 
ATOM      8 H    ASN D4844     -59.890  27.859  38.176  1.00 50.43 LIG 0.16  HD
ATOM      9 O    VAL D4843     -56.950  27.353  37.674  1.00 47.22 LIG-0.27  OA
BRANCH 7 10
ATOM     10  CA  ASN D4844     -58.594  29.379  38.268  1.00 46.88 LIG 0.17  C 
BRANCH 10 11
ATOM     11  CB  ASN D4844     -57.757  29.836  37.073  1.00 66.72 LIG 0.14  C 
BRANCH 11 12
ATOM     12  CG  ASN D4844     -58.383  29.465  35.743  1.00 62.42 LIG 0.22  C 
ATOM     13 OD1  ASN D4844     -59.255  30.168  35.227  1.00 56.11 LIG-0.27  OA
ATOM     14  ND2 ASN D4844     -57.935  28.349  35.179  1.00 67.26 LIG-0.37  N 
ATOM     15 21HD ASN D4844     -58.255  28.091  34.423  1.00 67.26 LIG 0.16  HD
ATOM     16 22HD ASN D4844     -57.326  27.884  35.570  1.00 67.26 LIG 0.16  HD
ENDBRANCH 11 12
ENDBRANCH 10 11
BRANCH 10 17
ATOM     17  C   ASN D4844     -59.699  30.405  38.575  1.00 52.57 LIG 0.22  C 
ATOM     18 O    ASN D4844     -60.819  30.326  38.044  1.00 48.91 LIG-0.29  OA
ENDBRANCH 10 17
ENDBRANCH 7 10
ENDBRANCH 5 6
BRANCH 5 19
ATOM     19  CB  VAL D4843     -57.510  24.560  37.816  1.00 37.59 LIG 0.01  C 
ATOM     20  CG1 VAL D4843     -56.791  24.838  39.105  1.00 42.19 LIG 0.01  C 
ATOM     21  CG2 VAL D4843     -58.076  23.137  37.794  1.00 33.91 LIG 0.01  C 
ENDBRANCH 5 19
ENDBRANCH 3 5
BRANCH 1 22
ATOM     22  CA  VAL D4842     -60.213  25.199  34.086  1.00 42.26 LIG 0.18  C 
BRANCH 22 23
ATOM     23  N   VAL D4842     -60.052  26.594  33.668  1.00 51.43 LIG-0.34  N 
ATOM     24 H    VAL D4842     -59.456  26.709  33.058  1.00 51.43 LIG 0.16  HD
ATOM     25  C   LEU D4841     -60.769  27.587  34.190  1.00 54.30 LIG 0.26  C 
ATOM     26 O    LEU D4841     -60.762  28.728  33.732  1.00 66.57 LIG-0.27  OA
BRANCH 25 27
ATOM     27  CA  LEU D4841     -61.649  27.237  35.381  1.00 50.85 LIG 0.40  C 
ATOM     28  N   LEU D4841     -61.907  28.425  36.202  1.00 66.18 LIG 0.61  N 
BRANCH 27 29
ATOM     29  CB  LEU D4841     -62.973  26.629  34.905  1.00 58.40 LIG 0.06  C 
BRANCH 29 30
ATOM     30  CG  LEU D4841     -63.610  25.562  35.805  1.00 54.26 LIG-0.02  C 
ATOM     31  CD2 LEU D4841     -62.990  25.539  37.222  1.00 54.78 LIG 0.01  C 
ATOM     32  CD1 LEU D4841     -63.567  24.174  35.153  1.00 32.44 LIG 0.01  C 
ENDBRANCH 29 30
ENDBRANCH 27 29
ENDBRANCH 25 27
ENDBRANCH 22 23
BRANCH 22 33
ATOM     33  CB  VAL D4842     -59.429  24.228  33.167  1.00 48.47 LIG 0.01  C 
ATOM     34  CG2 VAL D4842     -58.903  24.934  31.949  1.00 42.42 LIG 0.01  C 
ATOM     35  CG1 VAL D4842     -60.338  23.084  32.750  1.00 34.87 LIG 0.01  C 
ENDBRANCH 22 33
ENDBRANCH 1 22
TORSDOF 13
ENDMDL
MODEL 98
USER: ADFR SOLUTION from run 98
USER: SCORE 8.280221 LL:  -2.639 LR:  -7.230 RR:   0.000 FEB:  -3.353
USER: RMSD 8.627646
USER: SEED 97
USER: STATUS no improvement in best in 34 clusters for 5 generations
USER: GENES 15
USER: genes 0 Translation |==|  0.33524 0.38951 0.27214
USER: genes 1 Rotation |==|  0.18576 0.85864 0.38987 0.60250
USER: genes 2 Torsion [C]-N--CA-[CB] |==|  0.43363
USER: genes 3 Torsion [N]-CA--C-[N] |==|  0.28937
USER: genes 4 Torsion [C]-N--CA-[CB] |==|  0.80051
USER: genes 5 Torsion [N]-CA--CB-[CG] |==|  0.90486
USER: genes 6 Torsion [CA]-CB--CG-[OD1] |==|  0.25394
USER: genes 7 Torsion [N]-CA--C-[O] |==|  0.02082
USER: genes 8 Torsion [N]-CA--CB-[CG2] |==|  0.75543
USER: genes 9 Torsion [N]-C--CA-[N] |==|  0.46494
USER: genes 10 Torsion [C]-CA--N-[C] |==|  0.77108
USER: genes 11 Torsion [N]-C--CA-[N] |==|  0.31863
USER: genes 12 Torsion [C]-CA--CB-[CG] |==|  0.23861
USER: genes 13 Torsion [CA]-CB--CG-[CD2] |==|  0.07367
USER: genes 14 Torsion [C]-CA--CB-[CG2] |==|  0.74525
ROOT
ATOM      1  C   VAL D4842     -60.500  25.744  35.662  1.00 57.35 LIG 0.24  C 
ATOM      2 O    VAL D4842     -61.394  26.054  36.459  1.00 61.28 LIG-0.27  OA
ATOM      3  N   VAL D4843     -59.228  25.628  36.021  1.00 52.36 LIG-0.35  N 
ATOM      4 H    VAL D4843     -58.633  25.254  35.526  1.00 52.36 LIG 0.16  HD
ENDROOT
BRANCH 3 5
ATOM      5  CA  VAL D4843     -58.705  26.121  37.287  1.00 37.99 LIG 0.18  C 
BRANCH 5 6
ATOM      6  C   VAL D4843     -58.408  27.616  37.015  1.00 51.29 LIG 0.24  C 
ATOM      7  N   ASN D4844     -59.233  28.538  37.494  1.00 50.43 LIG-0.35  N 
ATOM      8 H    ASN D4844     -59.927  28.383  37.976  1.00 50.43 LIG 0.16  HD
ATOM      9 O    VAL D4843     -57.415  27.944  36.350  1.00 47.22 LIG-0.27  OA
BRANCH 7 10
ATOM     10  CA  ASN D4844     -58.968  29.953  37.194  1.00 46.88 LIG 0.17  C 
BRANCH 10 11
ATOM     11  CB  ASN D4844     -57.750  30.444  37.976  1.00 66.72 LIG 0.14  C 
BRANCH 11 12
ATOM     12  CG  ASN D4844     -57.631  29.797  39.342  1.00 62.42 LIG 0.22  C 
ATOM     13 OD1  ASN D4844     -56.980  28.763  39.507  1.00 56.11 LIG-0.27  OA
ATOM     14  ND2 ASN D4844     -58.266  30.410  40.335  1.00 67.26 LIG-0.37  N 
ATOM     15 21HD ASN D4844     -58.232  30.087  41.131  1.00 67.26 LIG 0.16  HD
ATOM     16 22HD ASN D4844     -58.711  31.130  40.180  1.00 67.26 LIG 0.16  HD
ENDBRANCH 11 12
ENDBRANCH 10 11
BRANCH 10 17
ATOM     17  C   ASN D4844     -58.828  30.304  35.703  1.00 52.57 LIG 0.22  C 
ATOM     18 O    ASN D4844     -59.069  29.467  34.817  1.00 48.91 LIG-0.29  OA
ENDBRANCH 10 17
ENDBRANCH 7 10
ENDBRANCH 5 6
BRANCH 5 19
ATOM     19  CB  VAL D4843     -57.416  25.307  37.620  1.00 37.59 LIG 0.01  C 
ATOM     20  CG1 VAL D4843     -56.394  26.132  38.351  1.00 42.19 LIG 0.01  C 
ATOM     21  CG2 VAL D4843     -57.757  24.032  38.396  1.00 33.91 LIG 0.01  C 
ENDBRANCH 5 19
ENDBRANCH 3 5
BRANCH 1 22
ATOM     22  CA  VAL D4842     -60.795  25.410  34.187  1.00 42.26 LIG 0.18  C 
BRANCH 22 23
ATOM     23  N   VAL D4842     -62.208  25.248  33.830  1.00 51.43 LIG-0.34  N 
ATOM     24 H    VAL D4842     -62.563  25.951  33.483  1.00 51.43 LIG 0.16  HD
ATOM     25  C   LEU D4841     -62.872  24.111  34.029  1.00 54.30 LIG 0.26  C 
ATOM     26 O    LEU D4841     -64.000  23.911  33.583  1.00 66.57 LIG-0.27  OA
BRANCH 25 27
ATOM     27  CA  LEU D4841     -62.147  23.028  34.815  1.00 50.85 LIG 0.40  C 
ATOM     28  N   LEU D4841     -62.823  22.774  36.091  1.00 66.18 LIG 0.61  N 
BRANCH 27 29
ATOM     29  CB  LEU D4841     -62.069  21.736  33.993  1.00 58.40 LIG 0.06  C 
BRANCH 29 30
ATOM     30  CG  LEU D4841     -60.893  21.604  33.017  1.00 54.26 LIG-0.02  C 
ATOM     31  CD2 LEU D4841     -59.665  22.437  33.457  1.00 54.78 LIG 0.01  C 
ATOM     32  CD1 LEU D4841     -61.312  21.942  31.580  1.00 32.44 LIG 0.01  C 
ENDBRANCH 29 30
ENDBRANCH 27 29
ENDBRANCH 25 27
ENDBRANCH 22 23
BRANCH 22 33
ATOM     33  CB  VAL D4842     -60.074  26.408  33.245  1.00 48.47 LIG 0.01  C 
ATOM     34  CG2 VAL D4842     -60.956  27.580  32.914  1.00 42.42 LIG 0.01  C 
ATOM     35  CG1 VAL D4842     -59.665  25.692  31.969  1.00 34.87 LIG 0.01  C 
ENDBRANCH 22 33
ENDBRANCH 1 22
TORSDOF 13
ENDMDL
MODEL 99
USER: ADFR SOLUTION from run 70
USER: SCORE 8.433590 LL:  -2.616 LR:  -7.225 RR:   0.000 FEB:  -3.347
USER: RMSD 8.069421
USER: SEED 69
USER: STATUS no improvement in best in 30 clusters for 5 generations
USER: GENES 15
USER: genes 0 Translation |==|  0.35196 0.38515 0.27731
USER: genes 1 Rotation |==|  0.17164 0.76917 0.23598 0.50443
USER: genes 2 Torsion [C]-N--CA-[CB] |==|  0.46111
USER: genes 3 Torsion [N]-CA--C-[N] |==|  0.26440
USER: genes 4 Torsion [C]-N--CA-[CB] |==|  0.43930
USER: genes 5 Torsion [N]-CA--CB-[CG] |==|  0.87136
USER: genes 6 Torsion [CA]-CB--CG-[OD1] |==|  0.86208
USER: genes 7 Torsion [N]-CA--C-[O] |==|  0.59310
USER: genes 8 Torsion [N]-CA--CB-[CG2] |==|  0.90750
USER: genes 9 Torsion [N]-C--CA-[N] |==|  0.35306
USER: genes 10 Torsion [C]-CA--N-[C] |==|  0.75823
USER: genes 11 Torsion [N]-C--CA-[N] |==|  0.42786
USER: genes 12 Torsion [C]-CA--CB-[CG] |==|  0.82890
USER: genes 13 Torsion [CA]-CB--CG-[CD2] |==|  0.65989
USER: genes 14 Torsion [C]-CA--CB-[CG2] |==|  0.52657
ROOT
ATOM      1  C   VAL D4842     -60.149  25.672  35.740  1.00 57.35 LIG 0.24  C 
ATOM      2 O    VAL D4842     -61.162  26.352  35.943  1.00 61.28 LIG-0.27  OA
ATOM      3  N   VAL D4843     -58.960  25.990  36.236  1.00 52.36 LIG-0.35  N 
ATOM      4 H    VAL D4843     -58.295  25.446  36.245  1.00 52.36 LIG 0.16  HD
ENDROOT
BRANCH 3 5
ATOM      5  CA  VAL D4843     -58.656  27.290  36.816  1.00 37.99 LIG 0.18  C 
BRANCH 5 6
ATOM      6  C   VAL D4843     -58.544  28.231  35.591  1.00 51.29 LIG 0.24  C 
ATOM      7  N   ASN D4844     -59.604  28.936  35.216  1.00 50.43 LIG-0.35  N 
ATOM      8 H    ASN D4844     -60.366  28.939  35.614  1.00 50.43 LIG 0.16  HD
ATOM      9 O    VAL D4843     -57.478  28.317  34.966  1.00 47.22 LIG-0.27  OA
BRANCH 7 10
ATOM     10  CA  ASN D4844     -59.502  29.794  34.027  1.00 46.88 LIG 0.17  C 
BRANCH 10 11
ATOM     11  CB  ASN D4844     -60.891  30.077  33.454  1.00 66.72 LIG 0.14  C 
BRANCH 11 12
ATOM     12  CG  ASN D4844     -61.747  28.830  33.348  1.00 62.42 LIG 0.22  C 
ATOM     13 OD1  ASN D4844     -61.319  27.803  32.819  1.00 56.11 LIG-0.27  OA
ATOM     14  ND2 ASN D4844     -62.971  28.918  33.857  1.00 67.26 LIG-0.37  N 
ATOM     15 21HD ASN D4844     -63.500  28.240  33.825  1.00 67.26 LIG 0.16  HD
ATOM     16 22HD ASN D4844     -63.234  29.653  34.218  1.00 67.26 LIG 0.16  HD
ENDBRANCH 11 12
ENDBRANCH 10 11
BRANCH 10 17
ATOM     17  C   ASN D4844     -58.720  31.105  34.216  1.00 52.57 LIG 0.22  C 
ATOM     18 O    ASN D4844     -59.034  32.139  33.604  1.00 48.91 LIG-0.29  OA
ENDBRANCH 10 17
ENDBRANCH 7 10
ENDBRANCH 5 6
BRANCH 5 19
ATOM     19  CB  VAL D4843     -57.311  27.162  37.596  1.00 37.59 LIG 0.01  C 
ATOM     20  CG1 VAL D4843     -57.151  28.235  38.636  1.00 42.19 LIG 0.01  C 
ATOM     21  CG2 VAL D4843     -57.163  25.768  38.211  1.00 33.91 LIG 0.01  C 
ENDBRANCH 5 19
ENDBRANCH 3 5
BRANCH 1 22
ATOM     22  CA  VAL D4842     -60.190  24.360  34.933  1.00 42.26 LIG 0.18  C 
BRANCH 22 23
ATOM     23  N   VAL D4842     -61.205  23.383  35.337  1.00 51.43 LIG-0.34  N 
ATOM     24 H    VAL D4842     -61.945  23.448  34.903  1.00 51.43 LIG 0.16  HD
ATOM     25  C   LEU D4841     -60.991  22.479  36.291  1.00 54.30 LIG 0.26  C 
ATOM     26 O    LEU D4841     -61.767  21.554  36.521  1.00 66.57 LIG-0.27  OA
BRANCH 25 27
ATOM     27  CA  LEU D4841     -59.696  22.616  37.080  1.00 50.85 LIG 0.40  C 
ATOM     28  N   LEU D4841     -59.837  22.025  38.414  1.00 66.18 LIG 0.61  N 
BRANCH 27 29
ATOM     29  CB  LEU D4841     -58.540  21.947  36.327  1.00 58.40 LIG 0.06  C 
BRANCH 29 30
ATOM     30  CG  LEU D4841     -58.659  20.440  36.071  1.00 54.26 LIG-0.02  C 
ATOM     31  CD2 LEU D4841     -57.471  19.645  36.664  1.00 54.78 LIG 0.01  C 
ATOM     32  CD1 LEU D4841     -58.847  20.133  34.580  1.00 32.44 LIG 0.01  C 
ENDBRANCH 29 30
ENDBRANCH 27 29
ENDBRANCH 25 27
ENDBRANCH 22 23
BRANCH 22 33
ATOM     33  CB  VAL D4842     -60.248  24.654  33.412  1.00 48.47 LIG 0.01  C 
ATOM     34  CG2 VAL D4842     -60.520  23.403  32.624  1.00 42.42 LIG 0.01  C 
ATOM     35  CG1 VAL D4842     -58.931  25.270  32.967  1.00 34.87 LIG 0.01  C 
ENDBRANCH 22 33
ENDBRANCH 1 22
TORSDOF 13
ENDMDL
MODEL 100
USER: ADFR SOLUTION from run 167
USER: SCORE 8.312123 LL:  -1.812 LR:  -7.224 RR:   0.000 FEB:  -3.346
USER: RMSD 8.594931
USER: SEED 166
USER: STATUS no improvement in best in 36 clusters for 5 generations
USER: GENES 15
USER: genes 0 Translation |==|  0.42342 0.54018 0.26373
USER: genes 1 Rotation |==|  0.73566 0.41006 0.11361 0.69255
USER: genes 2 Torsion [C]-N--CA-[CB] |==|  0.49444
USER: genes 3 Torsion [N]-CA--C-[N] |==|  0.45461
USER: genes 4 Torsion [C]-N--CA-[CB] |==|  0.45716
USER: genes 5 Torsion [N]-CA--CB-[CG] |==|  0.64980
USER: genes 6 Torsion [CA]-CB--CG-[OD1] |==|  0.84258
USER: genes 7 Torsion [N]-CA--C-[O] |==|  0.36378
USER: genes 8 Torsion [N]-CA--CB-[CG2] |==|  0.87304
USER: genes 9 Torsion [N]-C--CA-[N] |==|  0.40314
USER: genes 10 Torsion [C]-CA--N-[C] |==|  0.68669
USER: genes 11 Torsion [N]-C--CA-[N] |==|  0.84200
USER: genes 12 Torsion [C]-CA--CB-[CG] |==|  0.26658
USER: genes 13 Torsion [CA]-CB--CG-[CD2] |==|  0.99614
USER: genes 14 Torsion [C]-CA--CB-[CG2] |==|  0.85883
ROOT
ATOM      1  C   VAL D4842     -58.648  28.230  35.536  1.00 57.35 LIG 0.24  C 
ATOM      2 O    VAL D4842     -57.441  28.297  35.274  1.00 61.28 LIG-0.27  OA
ATOM      3  N   VAL D4843     -59.548  29.031  34.980  1.00 52.36 LIG-0.35  N 
ATOM      4 H    VAL D4843     -60.394  28.887  35.023  1.00 52.36 LIG 0.16  HD
ENDROOT
BRANCH 3 5
ATOM      5  CA  VAL D4843     -59.200  30.236  34.242  1.00 37.99 LIG 0.18  C 
BRANCH 5 6
ATOM      6  C   VAL D4843     -58.498  31.131  35.293  1.00 51.29 LIG 0.24  C 
ATOM      7  N   ASN D4844     -57.769  32.162  34.883  1.00 50.43 LIG-0.35  N 
ATOM      8 H    ASN D4844     -57.663  32.403  34.065  1.00 50.43 LIG 0.16  HD
ATOM      9 O    VAL D4843     -58.611  30.881  36.501  1.00 47.22 LIG-0.27  OA
BRANCH 7 10
ATOM     10  CA  ASN D4844     -57.071  32.981  35.885  1.00 46.88 LIG 0.17  C 
BRANCH 10 11
ATOM     11  CB  ASN D4844     -56.009  33.851  35.214  1.00 66.72 LIG 0.14  C 
BRANCH 11 12
ATOM     12  CG  ASN D4844     -54.634  33.678  35.831  1.00 62.42 LIG 0.22  C 
ATOM     13 OD1  ASN D4844     -54.443  33.869  37.033  1.00 56.11 LIG-0.27  OA
ATOM     14  ND2 ASN D4844     -53.665  33.312  35.000  1.00 67.26 LIG-0.37  N 
ATOM     15 21HD ASN D4844     -52.865  33.198  35.296  1.00 67.26 LIG 0.16  HD
ATOM     16 22HD ASN D4844     -53.837  33.188  34.166  1.00 67.26 LIG 0.16  HD
ENDBRANCH 11 12
ENDBRANCH 10 11
BRANCH 10 17
ATOM     17  C   ASN D4844     -57.973  33.835  36.793  1.00 52.57 LIG 0.22  C 
ATOM     18 O    ASN D4844     -57.833  33.834  38.027  1.00 48.91 LIG-0.29  OA
ENDBRANCH 10 17
ENDBRANCH 7 10
ENDBRANCH 5 6
BRANCH 5 19
ATOM     19  CB  VAL D4843     -60.523  30.868  33.707  1.00 37.59 LIG 0.01  C 
ATOM     20  CG1 VAL D4843     -60.269  31.995  32.747  1.00 42.19 LIG 0.01  C 
ATOM     21  CG2 VAL D4843     -61.427  29.802  33.083  1.00 33.91 LIG 0.01  C 
ENDBRANCH 5 19
ENDBRANCH 3 5
BRANCH 1 22
ATOM     22  CA  VAL D4842     -59.222  27.169  36.495  1.00 42.26 LIG 0.18  C 
BRANCH 22 23
ATOM     23  N   VAL D4842     -58.540  25.872  36.509  1.00 51.43 LIG-0.34  N 
ATOM     24 H    VAL D4842     -57.742  25.900  36.827  1.00 51.43 LIG 0.16  HD
ATOM     25  C   LEU D4841     -59.115  24.755  36.065  1.00 54.30 LIG 0.26  C 
ATOM     26 O    LEU D4841     -58.620  23.642  36.225  1.00 66.57 LIG-0.27  OA
BRANCH 25 27
ATOM     27  CA  LEU D4841     -60.460  24.911  35.370  1.00 50.85 LIG 0.40  C 
ATOM     28  N   LEU D4841     -61.423  25.581  36.249  1.00 66.18 LIG 0.61  N 
BRANCH 27 29
ATOM     29  CB  LEU D4841     -60.297  25.703  34.067  1.00 58.40 LIG 0.06  C 
BRANCH 29 30
ATOM     30  CG  LEU D4841     -60.147  24.890  32.775  1.00 54.26 LIG-0.02  C 
ATOM     31  CD2 LEU D4841     -60.154  23.364  33.034  1.00 54.78 LIG 0.01  C 
ATOM     32  CD1 LEU D4841     -58.906  25.316  31.980  1.00 32.44 LIG 0.01  C 
ENDBRANCH 29 30
ENDBRANCH 27 29
ENDBRANCH 25 27
ENDBRANCH 22 23
BRANCH 22 33
ATOM     33  CB  VAL D4842     -59.380  27.751  37.923  1.00 48.47 LIG 0.01  C 
ATOM     34  CG2 VAL D4842     -58.109  28.408  38.388  1.00 42.42 LIG 0.01  C 
ATOM     35  CG1 VAL D4842     -59.768  26.638  38.882  1.00 34.87 LIG 0.01  C 
ENDBRANCH 22 33
ENDBRANCH 1 22
TORSDOF 13
ENDMDL
MODEL 101
USER: ADFR SOLUTION from run 13
USER: SCORE 9.007404 LL:  -2.743 LR:  -7.221 RR:   0.000 FEB:  -3.343
USER: RMSD 9.401841
USER: SEED 44888
USER: STATUS no improvement in best in 25 clusters for 5 generations
USER: GENES 15
USER: genes 0 Translation |==|  0.31728 0.37572 0.23207
USER: genes 1 Rotation |==|  0.04123 0.46978 0.68988 0.55060
USER: genes 2 Torsion [C]-N--CA-[CB] |==|  0.22609
USER: genes 3 Torsion [N]-CA--C-[N] |==|  0.03245
USER: genes 4 Torsion [C]-N--CA-[CB] |==|  0.20769
USER: genes 5 Torsion [N]-CA--CB-[CG] |==|  0.11963
USER: genes 6 Torsion [CA]-CB--CG-[OD1] |==|  0.60748
USER: genes 7 Torsion [N]-CA--C-[O] |==|  0.73885
USER: genes 8 Torsion [N]-CA--CB-[CG2] |==|  0.09345
USER: genes 9 Torsion [N]-C--CA-[N] |==|  0.86255
USER: genes 10 Torsion [C]-CA--N-[C] |==|  0.63378
USER: genes 11 Torsion [N]-C--CA-[N] |==|  0.44376
USER: genes 12 Torsion [C]-CA--CB-[CG] |==|  0.42035
USER: genes 13 Torsion [CA]-CB--CG-[CD2] |==|  0.22257
USER: genes 14 Torsion [C]-CA--CB-[CG2] |==|  0.17824
ROOT
ATOM      1  C   VAL D4842     -60.877  25.516  35.061  1.00 57.35 LIG 0.24  C 
ATOM      2 O    VAL D4842     -60.177  25.018  35.950  1.00 61.28 LIG-0.27  OA
ATOM      3  N   VAL D4843     -61.268  26.784  35.083  1.00 52.36 LIG-0.35  N 
ATOM      4 H    VAL D4843     -61.605  27.183  34.400  1.00 52.36 LIG 0.16  HD
ENDROOT
BRANCH 3 5
ATOM      5  CA  VAL D4843     -61.167  27.633  36.261  1.00 37.99 LIG 0.18  C 
BRANCH 5 6
ATOM      6  C   VAL D4843     -62.192  28.763  35.998  1.00 51.29 LIG 0.24  C 
ATOM      7  N   ASN D4844     -63.057  28.634  35.000  1.00 50.43 LIG-0.35  N 
ATOM      8 H    ASN D4844     -63.121  27.951  34.481  1.00 50.43 LIG 0.16  HD
ATOM      9 O    VAL D4843     -62.198  29.779  36.708  1.00 47.22 LIG-0.27  OA
BRANCH 7 10
ATOM     10  CA  ASN D4844     -63.999  29.730  34.729  1.00 46.88 LIG 0.17  C 
BRANCH 10 11
ATOM     11  CB  ASN D4844     -63.279  30.896  34.052  1.00 66.72 LIG 0.14  C 
BRANCH 11 12
ATOM     12  CG  ASN D4844     -62.320  30.442  32.968  1.00 62.42 LIG 0.22  C 
ATOM     13 OD1  ASN D4844     -61.229  30.994  32.807  1.00 56.11 LIG-0.27  OA
ATOM     14  ND2 ASN D4844     -62.728  29.426  32.217  1.00 67.26 LIG-0.37  N 
ATOM     15 21HD ASN D4844     -62.223  29.127  31.588  1.00 67.26 LIG 0.16  HD
ATOM     16 22HD ASN D4844     -63.497  29.067  32.360  1.00 67.26 LIG 0.16  HD
ENDBRANCH 11 12
ENDBRANCH 10 11
BRANCH 10 17
ATOM     17  C   ASN D4844     -65.261  29.345  33.940  1.00 52.57 LIG 0.22  C 
ATOM     18 O    ASN D4844     -65.312  29.462  32.705  1.00 48.91 LIG-0.29  OA
ENDBRANCH 10 17
ENDBRANCH 7 10
ENDBRANCH 5 6
BRANCH 5 19
ATOM     19  CB  VAL D4843     -59.702  28.164  36.343  1.00 37.59 LIG 0.01  C 
ATOM     20  CG1 VAL D4843     -58.818  27.273  37.169  1.00 42.19 LIG 0.01  C 
ATOM     21  CG2 VAL D4843     -59.117  28.381  34.944  1.00 33.91 LIG 0.01  C 
ENDBRANCH 5 19
ENDBRANCH 3 5
BRANCH 1 22
ATOM     22  CA  VAL D4842     -61.315  24.720  33.817  1.00 42.26 LIG 0.18  C 
BRANCH 22 23
ATOM     23  N   VAL D4842     -62.733  24.812  33.455  1.00 51.43 LIG-0.34  N 
ATOM     24 H    VAL D4842     -63.037  25.617  33.438  1.00 51.43 LIG 0.16  HD
ATOM     25  C   LEU D4841     -63.473  23.741  33.177  1.00 54.30 LIG 0.26  C 
ATOM     26 O    LEU D4841     -64.608  23.817  32.713  1.00 66.57 LIG-0.27  OA
BRANCH 25 27
ATOM     27  CA  LEU D4841     -62.829  22.385  33.428  1.00 50.85 LIG 0.40  C 
ATOM     28  N   LEU D4841     -63.851  21.341  33.551  1.00 66.18 LIG 0.61  N 
BRANCH 27 29
ATOM     29  CB  LEU D4841     -61.857  22.039  32.294  1.00 58.40 LIG 0.06  C 
BRANCH 29 30
ATOM     30  CG  LEU D4841     -60.670  21.135  32.649  1.00 54.26 LIG-0.02  C 
ATOM     31  CD2 LEU D4841     -61.063  19.639  32.703  1.00 54.78 LIG 0.01  C 
ATOM     32  CD1 LEU D4841     -59.989  21.580  33.950  1.00 32.44 LIG 0.01  C 
ENDBRANCH 29 30
ENDBRANCH 27 29
ENDBRANCH 25 27
ENDBRANCH 22 23
BRANCH 22 33
ATOM     33  CB  VAL D4842     -60.392  25.035  32.612  1.00 48.47 LIG 0.01  C 
ATOM     34  CG2 VAL D4842     -58.981  24.585  32.873  1.00 42.42 LIG 0.01  C 
ATOM     35  CG1 VAL D4842     -60.415  26.530  32.337  1.00 34.87 LIG 0.01  C 
ENDBRANCH 22 33
ENDBRANCH 1 22
TORSDOF 13
ENDMDL
MODEL 102
USER: ADFR SOLUTION from run 27
USER: SCORE 8.282782 LL:  -1.969 LR:  -7.217 RR:   0.000 FEB:  -3.339
USER: RMSD 8.639572
USER: SEED 26
USER: STATUS no improvement in best in 48 clusters for 5 generations
USER: GENES 15
USER: genes 0 Translation |==|  0.42454 0.53297 0.22265
USER: genes 1 Rotation |==|  0.92763 0.46201 0.24956 0.55451
USER: genes 2 Torsion [C]-N--CA-[CB] |==|  0.53376
USER: genes 3 Torsion [N]-CA--C-[N] |==|  0.29408
USER: genes 4 Torsion [C]-N--CA-[CB] |==|  0.24394
USER: genes 5 Torsion [N]-CA--CB-[CG] |==|  0.11655
USER: genes 6 Torsion [CA]-CB--CG-[OD1] |==|  0.13516
USER: genes 7 Torsion [N]-CA--C-[O] |==|  0.28316
USER: genes 8 Torsion [N]-CA--CB-[CG2] |==|  0.10262
USER: genes 9 Torsion [N]-C--CA-[N] |==|  0.49991
USER: genes 10 Torsion [C]-CA--N-[C] |==|  0.55136
USER: genes 11 Torsion [N]-C--CA-[N] |==|  0.16793
USER: genes 12 Torsion [C]-CA--CB-[CG] |==|  0.18912
USER: genes 13 Torsion [CA]-CB--CG-[CD2] |==|  0.64919
USER: genes 14 Torsion [C]-CA--CB-[CG2] |==|  0.22988
ROOT
ATOM      1  C   VAL D4842     -58.625  28.111  34.920  1.00 57.35 LIG 0.24  C 
ATOM      2 O    VAL D4842     -57.701  27.999  35.735  1.00 61.28 LIG-0.27  OA
ATOM      3  N   VAL D4843     -59.007  29.282  34.427  1.00 52.36 LIG-0.35  N 
ATOM      4 H    VAL D4843     -59.524  29.357  33.743  1.00 52.36 LIG 0.16  HD
ENDROOT
BRANCH 3 5
ATOM      5  CA  VAL D4843     -58.595  30.561  34.987  1.00 37.99 LIG 0.18  C 
BRANCH 5 6
ATOM      6  C   VAL D4843     -58.850  30.404  36.506  1.00 51.29 LIG 0.24  C 
ATOM      7  N   ASN D4844     -57.816  30.242  37.323  1.00 50.43 LIG-0.35  N 
ATOM      8 H    ASN D4844     -56.990  30.238  37.086  1.00 50.43 LIG 0.16  HD
ATOM      9 O    VAL D4843     -60.006  30.422  36.951  1.00 47.22 LIG-0.27  OA
BRANCH 7 10
ATOM     10  CA  ASN D4844     -58.069  30.050  38.759  1.00 46.88 LIG 0.17  C 
BRANCH 10 11
ATOM     11  CB  ASN D4844     -58.278  28.568  39.070  1.00 66.72 LIG 0.14  C 
BRANCH 11 12
ATOM     12  CG  ASN D4844     -57.304  27.671  38.333  1.00 62.42 LIG 0.22  C 
ATOM     13 OD1  ASN D4844     -56.093  27.906  38.330  1.00 56.11 LIG-0.27  OA
ATOM     14  ND2 ASN D4844     -57.833  26.631  37.700  1.00 67.26 LIG-0.37  N 
ATOM     15 21HD ASN D4844     -57.326  26.088  37.265  1.00 67.26 LIG 0.16  HD
ATOM     16 22HD ASN D4844     -58.683  26.500  37.724  1.00 67.26 LIG 0.16  HD
ENDBRANCH 11 12
ENDBRANCH 10 11
BRANCH 10 17
ATOM     17  C   ASN D4844     -57.020  30.656  39.707  1.00 52.57 LIG 0.22  C 
ATOM     18 O    ASN D4844     -57.227  31.726  40.302  1.00 48.91 LIG-0.29  OA
ENDBRANCH 10 17
ENDBRANCH 7 10
ENDBRANCH 5 6
BRANCH 5 19
ATOM     19  CB  VAL D4843     -59.482  31.672  34.344  1.00 37.59 LIG 0.01  C 
ATOM     20  CG1 VAL D4843     -58.899  32.197  33.063  1.00 42.19 LIG 0.01  C 
ATOM     21  CG2 VAL D4843     -60.917  31.178  34.138  1.00 33.91 LIG 0.01  C 
ENDBRANCH 5 19
ENDBRANCH 3 5
BRANCH 1 22
ATOM     22  CA  VAL D4842     -59.379  26.889  34.362  1.00 42.26 LIG 0.18  C 
BRANCH 22 23
ATOM     23  N   VAL D4842     -58.975  25.582  34.889  1.00 51.43 LIG-0.34  N 
ATOM     24 H    VAL D4842     -58.541  25.624  35.630  1.00 51.43 LIG 0.16  HD
ATOM     25  C   LEU D4841     -59.262  24.439  34.270  1.00 54.30 LIG 0.26  C 
ATOM     26 O    LEU D4841     -59.077  23.338  34.783  1.00 66.57 LIG-0.27  OA
BRANCH 25 27
ATOM     27  CA  LEU D4841     -59.878  24.552  32.882  1.00 50.85 LIG 0.40  C 
ATOM     28  N   LEU D4841     -58.972  25.255  31.969  1.00 66.18 LIG 0.61  N 
BRANCH 27 29
ATOM     29  CB  LEU D4841     -60.207  23.160  32.330  1.00 58.40 LIG 0.06  C 
BRANCH 29 30
ATOM     30  CG  LEU D4841     -61.332  22.386  33.028  1.00 54.26 LIG-0.02  C 
ATOM     31  CD2 LEU D4841     -60.886  20.975  33.480  1.00 54.78 LIG 0.01  C 
ATOM     32  CD1 LEU D4841     -62.596  22.320  32.159  1.00 32.44 LIG 0.01  C 
ENDBRANCH 29 30
ENDBRANCH 27 29
ENDBRANCH 25 27
ENDBRANCH 22 23
BRANCH 22 33
ATOM     33  CB  VAL D4842     -60.912  27.101  34.460  1.00 48.47 LIG 0.01  C 
ATOM     34  CG2 VAL D4842     -61.426  27.912  33.304  1.00 42.42 LIG 0.01  C 
ATOM     35  CG1 VAL D4842     -61.241  27.799  35.769  1.00 34.87 LIG 0.01  C 
ENDBRANCH 22 33
ENDBRANCH 1 22
TORSDOF 13
ENDMDL
MODEL 103
USER: ADFR SOLUTION from run 23
USER: SCORE 8.859431 LL:  -2.097 LR:  -7.215 RR:   0.000 FEB:  -3.337
USER: RMSD 7.140822
USER: SEED 22
USER: STATUS no improvement in best in 15 clusters for 5 generations
USER: GENES 15
USER: genes 0 Translation |==|  0.35441 0.39615 0.24523
USER: genes 1 Rotation |==|  0.94269 0.40399 0.71167 0.50201
USER: genes 2 Torsion [C]-N--CA-[CB] |==|  0.52549
USER: genes 3 Torsion [N]-CA--C-[N] |==|  0.40006
USER: genes 4 Torsion [C]-N--CA-[CB] |==|  0.37146
USER: genes 5 Torsion [N]-CA--CB-[CG] |==|  0.84221
USER: genes 6 Torsion [CA]-CB--CG-[OD1] |==|  0.36049
USER: genes 7 Torsion [N]-CA--C-[O] |==|  0.44585
USER: genes 8 Torsion [N]-CA--CB-[CG2] |==|  0.69805
USER: genes 9 Torsion [N]-C--CA-[N] |==|  0.37471
USER: genes 10 Torsion [C]-CA--N-[C] |==|  0.82756
USER: genes 11 Torsion [N]-C--CA-[N] |==|  0.27948
USER: genes 12 Torsion [C]-CA--CB-[CG] |==|  0.52072
USER: genes 13 Torsion [CA]-CB--CG-[CD2] |==|  0.89703
USER: genes 14 Torsion [C]-CA--CB-[CG2] |==|  0.55048
ROOT
ATOM      1  C   VAL D4842     -60.097  25.853  35.258  1.00 57.35 LIG 0.24  C 
ATOM      2 O    VAL D4842     -61.204  25.844  35.812  1.00 61.28 LIG-0.27  OA
ATOM      3  N   VAL D4843     -59.369  26.955  35.132  1.00 52.36 LIG-0.35  N 
ATOM      4 H    VAL D4843     -58.539  26.946  34.907  1.00 52.36 LIG 0.16  HD
ENDROOT
BRANCH 3 5
ATOM      5  CA  VAL D4843     -59.894  28.293  35.362  1.00 37.99 LIG 0.18  C 
BRANCH 5 6
ATOM      6  C   VAL D4843     -61.178  28.346  34.499  1.00 51.29 LIG 0.24  C 
ATOM      7  N   ASN D4844     -62.233  29.015  34.947  1.00 50.43 LIG-0.35  N 
ATOM      8 H    ASN D4844     -62.266  29.457  35.684  1.00 50.43 LIG 0.16  HD
ATOM      9 O    VAL D4843     -61.221  27.762  33.406  1.00 47.22 LIG-0.27  OA
BRANCH 7 10
ATOM     10  CA  ASN D4844     -63.463  29.024  34.142  1.00 46.88 LIG 0.17  C 
BRANCH 10 11
ATOM     11  CB  ASN D4844     -64.679  28.746  35.025  1.00 66.72 LIG 0.14  C 
BRANCH 11 12
ATOM     12  CG  ASN D4844     -64.569  27.435  35.779  1.00 62.42 LIG 0.22  C 
ATOM     13 OD1  ASN D4844     -64.765  27.377  36.994  1.00 56.11 LIG-0.27  OA
ATOM     14  ND2 ASN D4844     -64.251  26.370  35.052  1.00 67.26 LIG-0.37  N 
ATOM     15 21HD ASN D4844     -64.175  25.600  35.428  1.00 67.26 LIG 0.16  HD
ATOM     16 22HD ASN D4844     -64.121  26.450  34.205  1.00 67.26 LIG 0.16  HD
ENDBRANCH 11 12
ENDBRANCH 10 11
BRANCH 10 17
ATOM     17  C   ASN D4844     -63.693  30.284  33.290  1.00 52.57 LIG 0.22  C 
ATOM     18 O    ASN D4844     -64.471  30.277  32.322  1.00 48.91 LIG-0.29  OA
ENDBRANCH 10 17
ENDBRANCH 7 10
ENDBRANCH 5 6
BRANCH 5 19
ATOM     19  CB  VAL D4843     -58.815  29.317  34.889  1.00 37.59 LIG 0.01  C 
ATOM     20  CG1 VAL D4843     -59.364  30.309  33.903  1.00 42.19 LIG 0.01  C 
ATOM     21  CG2 VAL D4843     -58.168  30.023  36.084  1.00 33.91 LIG 0.01  C 
ENDBRANCH 5 19
ENDBRANCH 3 5
BRANCH 1 22
ATOM     22  CA  VAL D4842     -59.441  24.570  34.712  1.00 42.26 LIG 0.18  C 
BRANCH 22 23
ATOM     23  N   VAL D4842     -59.529  23.384  35.568  1.00 51.43 LIG-0.34  N 
ATOM     24 H    VAL D4842     -59.963  22.730  35.215  1.00 51.43 LIG 0.16  HD
ATOM     25  C   LEU D4841     -58.983  23.332  36.781  1.00 54.30 LIG 0.26  C 
ATOM     26 O    LEU D4841     -58.906  22.294  37.435  1.00 66.57 LIG-0.27  OA
BRANCH 25 27
ATOM     27  CA  LEU D4841     -58.409  24.633  37.324  1.00 50.85 LIG 0.40  C 
ATOM     28  N   LEU D4841     -59.339  25.255  38.272  1.00 66.18 LIG 0.61  N 
BRANCH 27 29
ATOM     29  CB  LEU D4841     -57.058  24.377  38.004  1.00 58.40 LIG 0.06  C 
BRANCH 29 30
ATOM     30  CG  LEU D4841     -56.427  25.553  38.759  1.00 54.26 LIG-0.02  C 
ATOM     31  CD2 LEU D4841     -56.665  26.907  38.049  1.00 54.78 LIG 0.01  C 
ATOM     32  CD1 LEU D4841     -54.934  25.317  39.026  1.00 32.44 LIG 0.01  C 
ENDBRANCH 29 30
ENDBRANCH 27 29
ENDBRANCH 25 27
ENDBRANCH 22 23
BRANCH 22 33
ATOM     33  CB  VAL D4842     -59.930  24.278  33.270  1.00 48.47 LIG 0.01  C 
ATOM     34  CG2 VAL D4842     -59.668  22.848  32.885  1.00 42.42 LIG 0.01  C 
ATOM     35  CG1 VAL D4842     -59.226  25.212  32.300  1.00 34.87 LIG 0.01  C 
ENDBRANCH 22 33
ENDBRANCH 1 22
TORSDOF 13
ENDMDL
MODEL 104
USER: ADFR SOLUTION from run 187
USER: SCORE 8.422887 LL:  -2.297 LR:  -7.213 RR:   0.000 FEB:  -3.335
USER: RMSD 8.148859
USER: SEED 186
USER: STATUS no improvement in best in 20 clusters for 5 generations
USER: GENES 15
USER: genes 0 Translation |==|  0.39719 0.41442 0.36757
USER: genes 1 Rotation |==|  0.31484 0.88866 0.51852 0.75360
USER: genes 2 Torsion [C]-N--CA-[CB] |==|  0.24430
USER: genes 3 Torsion [N]-CA--C-[N] |==|  0.45225
USER: genes 4 Torsion [C]-N--CA-[CB] |==|  0.84491
USER: genes 5 Torsion [N]-CA--CB-[CG] |==|  0.59522
USER: genes 6 Torsion [CA]-CB--CG-[OD1] |==|  0.88207
USER: genes 7 Torsion [N]-CA--C-[O] |==|  0.95110
USER: genes 8 Torsion [N]-CA--CB-[CG2] |==|  0.40327
USER: genes 9 Torsion [N]-C--CA-[N] |==|  0.45704
USER: genes 10 Torsion [C]-CA--N-[C] |==|  0.81199
USER: genes 11 Torsion [N]-C--CA-[N] |==|  0.28076
USER: genes 12 Torsion [C]-CA--CB-[CG] |==|  0.35332
USER: genes 13 Torsion [CA]-CB--CG-[CD2] |==|  0.16115
USER: genes 14 Torsion [C]-CA--CB-[CG2] |==|  0.90604
ROOT
ATOM      1  C   VAL D4842     -59.199  26.155  37.094  1.00 57.35 LIG 0.24  C 
ATOM      2 O    VAL D4842     -60.239  25.975  37.738  1.00 61.28 LIG-0.27  OA
ATOM      3  N   VAL D4843     -58.087  25.469  37.322  1.00 52.36 LIG-0.35  N 
ATOM      4 H    VAL D4843     -57.419  25.463  36.780  1.00 52.36 LIG 0.16  HD
ENDROOT
BRANCH 3 5
ATOM      5  CA  VAL D4843     -57.877  24.655  38.511  1.00 37.99 LIG 0.18  C 
BRANCH 5 6
ATOM      6  C   VAL D4843     -56.341  24.661  38.703  1.00 51.29 LIG 0.24  C 
ATOM      7  N   ASN D4844     -55.834  24.304  39.877  1.00 50.43 LIG-0.35  N 
ATOM      8 H    ASN D4844     -56.289  24.039  40.556  1.00 50.43 LIG 0.16  HD
ATOM      9 O    VAL D4843     -55.596  25.003  37.774  1.00 47.22 LIG-0.27  OA
BRANCH 7 10
ATOM     10  CA  ASN D4844     -54.376  24.353  40.065  1.00 46.88 LIG 0.17  C 
BRANCH 10 11
ATOM     11  CB  ASN D4844     -53.673  23.513  39.000  1.00 66.72 LIG 0.14  C 
BRANCH 11 12
ATOM     12  CG  ASN D4844     -52.418  22.838  39.519  1.00 62.42 LIG 0.22  C 
ATOM     13 OD1  ASN D4844     -51.622  23.438  40.245  1.00 56.11 LIG-0.27  OA
ATOM     14  ND2 ASN D4844     -52.238  21.577  39.145  1.00 67.26 LIG-0.37  N 
ATOM     15 21HD ASN D4844     -51.543  21.144  39.412  1.00 67.26 LIG 0.16  HD
ATOM     16 22HD ASN D4844     -52.816  21.192  38.637  1.00 67.26 LIG 0.16  HD
ENDBRANCH 11 12
ENDBRANCH 10 11
BRANCH 10 17
ATOM     17  C   ASN D4844     -53.761  25.761  40.134  1.00 52.57 LIG 0.22  C 
ATOM     18 O    ASN D4844     -54.378  26.757  39.723  1.00 48.91 LIG-0.29  OA
ENDBRANCH 10 17
ENDBRANCH 7 10
ENDBRANCH 5 6
BRANCH 5 19
ATOM     19  CB  VAL D4843     -58.437  23.228  38.217  1.00 37.59 LIG 0.01  C 
ATOM     20  CG1 VAL D4843     -58.564  22.958  36.744  1.00 42.19 LIG 0.01  C 
ATOM     21  CG2 VAL D4843     -57.591  22.154  38.906  1.00 33.91 LIG 0.01  C 
ENDBRANCH 5 19
ENDBRANCH 3 5
BRANCH 1 22
ATOM     22  CA  VAL D4842     -59.119  27.159  35.928  1.00 42.26 LIG 0.18  C 
BRANCH 22 23
ATOM     23  N   VAL D4842     -60.398  27.669  35.424  1.00 51.43 LIG-0.34  N 
ATOM     24 H    VAL D4842     -60.525  28.506  35.578  1.00 51.43 LIG 0.16  HD
ATOM     25  C   LEU D4841     -61.276  26.898  34.786  1.00 54.30 LIG 0.26  C 
ATOM     26 O    LEU D4841     -62.268  27.348  34.216  1.00 66.57 LIG-0.27  OA
BRANCH 25 27
ATOM     27  CA  LEU D4841     -60.976  25.406  34.757  1.00 50.85 LIG 0.40  C 
ATOM     28  N   LEU D4841     -61.784  24.696  35.752  1.00 66.18 LIG 0.61  N 
BRANCH 27 29
ATOM     29  CB  LEU D4841     -61.243  24.837  33.358  1.00 58.40 LIG 0.06  C 
BRANCH 29 30
ATOM     30  CG  LEU D4841     -60.107  24.041  32.704  1.00 54.26 LIG-0.02  C 
ATOM     31  CD2 LEU D4841     -59.665  22.830  33.561  1.00 54.78 LIG 0.01  C 
ATOM     32  CD1 LEU D4841     -58.915  24.942  32.354  1.00 32.44 LIG 0.01  C 
ENDBRANCH 29 30
ENDBRANCH 27 29
ENDBRANCH 25 27
ENDBRANCH 22 23
BRANCH 22 33
ATOM     33  CB  VAL D4842     -58.133  28.308  36.262  1.00 48.47 LIG 0.01  C 
ATOM     34  CG2 VAL D4842     -58.155  28.637  37.728  1.00 42.42 LIG 0.01  C 
ATOM     35  CG1 VAL D4842     -58.498  29.539  35.449  1.00 34.87 LIG 0.01  C 
ENDBRANCH 22 33
ENDBRANCH 1 22
TORSDOF 13
ENDMDL
MODEL 105
USER: ADFR SOLUTION from run 38
USER: SCORE 8.616442 LL:  -1.957 LR:  -7.206 RR:   0.000 FEB:  -3.329
USER: RMSD 8.676632
USER: SEED 37
USER: STATUS no improvement in best in 31 clusters for 5 generations
USER: GENES 15
USER: genes 0 Translation |==|  0.42584 0.53165 0.29731
USER: genes 1 Rotation |==|  0.63812 0.70821 0.06702 0.51005
USER: genes 2 Torsion [C]-N--CA-[CB] |==|  0.50556
USER: genes 3 Torsion [N]-CA--C-[N] |==|  0.46276
USER: genes 4 Torsion [C]-N--CA-[CB] |==|  0.46697
USER: genes 5 Torsion [N]-CA--CB-[CG] |==|  0.65256
USER: genes 6 Torsion [CA]-CB--CG-[OD1] |==|  0.90384
USER: genes 7 Torsion [N]-CA--C-[O] |==|  0.32064
USER: genes 8 Torsion [N]-CA--CB-[CG2] |==|  0.52482
USER: genes 9 Torsion [N]-C--CA-[N] |==|  0.45546
USER: genes 10 Torsion [C]-CA--N-[C] |==|  0.62574
USER: genes 11 Torsion [N]-C--CA-[N] |==|  0.23204
USER: genes 12 Torsion [C]-CA--CB-[CG] |==|  0.13486
USER: genes 13 Torsion [CA]-CB--CG-[CD2] |==|  0.55589
USER: genes 14 Torsion [C]-CA--CB-[CG2] |==|  0.55562
ROOT
ATOM      1  C   VAL D4842     -58.597  28.089  36.040  1.00 57.35 LIG 0.24  C 
ATOM      2 O    VAL D4842     -57.795  28.716  35.337  1.00 61.28 LIG-0.27  OA
ATOM      3  N   VAL D4843     -59.087  28.574  37.173  1.00 52.36 LIG-0.35  N 
ATOM      4 H    VAL D4843     -59.764  28.229  37.578  1.00 52.36 LIG 0.16  HD
ENDROOT
BRANCH 3 5
ATOM      5  CA  VAL D4843     -58.536  29.737  37.852  1.00 37.99 LIG 0.18  C 
BRANCH 5 6
ATOM      6  C   VAL D4843     -57.062  29.348  38.127  1.00 51.29 LIG 0.24  C 
ATOM      7  N   ASN D4844     -56.202  30.288  38.497  1.00 50.43 LIG-0.35  N 
ATOM      8 H    ASN D4844     -56.394  31.116  38.625  1.00 50.43 LIG 0.16  HD
ATOM      9 O    VAL D4843     -56.692  28.172  37.995  1.00 47.22 LIG-0.27  OA
BRANCH 7 10
ATOM     10  CA  ASN D4844     -54.795  29.918  38.714  1.00 46.88 LIG 0.17  C 
BRANCH 10 11
ATOM     11  CB  ASN D4844     -53.929  31.171  38.841  1.00 66.72 LIG 0.14  C 
BRANCH 11 12
ATOM     12  CG  ASN D4844     -52.773  31.186  37.860  1.00 62.42 LIG 0.22  C 
ATOM     13 OD1  ASN D4844     -52.196  30.146  37.535  1.00 56.11 LIG-0.27  OA
ATOM     14  ND2 ASN D4844     -52.429  32.376  37.382  1.00 67.26 LIG-0.37  N 
ATOM     15 21HD ASN D4844     -51.780  32.444  36.821  1.00 67.26 LIG 0.16  HD
ATOM     16 22HD ASN D4844     -52.856  33.080  37.633  1.00 67.26 LIG 0.16  HD
ENDBRANCH 11 12
ENDBRANCH 10 11
BRANCH 10 17
ATOM     17  C   ASN D4844     -54.532  28.960  39.888  1.00 52.57 LIG 0.22  C 
ATOM     18 O    ASN D4844     -54.082  27.818  39.702  1.00 48.91 LIG-0.29  OA
ENDBRANCH 10 17
ENDBRANCH 7 10
ENDBRANCH 5 6
BRANCH 5 19
ATOM     19  CB  VAL D4843     -59.350  29.955  39.165  1.00 37.59 LIG 0.01  C 
ATOM     20  CG1 VAL D4843     -59.201  28.809  40.125  1.00 42.19 LIG 0.01  C 
ATOM     21  CG2 VAL D4843     -58.980  31.285  39.827  1.00 33.91 LIG 0.01  C 
ENDBRANCH 5 19
ENDBRANCH 3 5
BRANCH 1 22
ATOM     22  CA  VAL D4842     -59.142  26.707  35.630  1.00 42.26 LIG 0.18  C 
BRANCH 22 23
ATOM     23  N   VAL D4842     -58.915  26.308  34.238  1.00 51.43 LIG-0.34  N 
ATOM     24 H    VAL D4842     -58.115  26.457  33.958  1.00 51.43 LIG 0.16  HD
ATOM     25  C   LEU D4841     -59.868  25.764  33.484  1.00 54.30 LIG 0.26  C 
ATOM     26 O    LEU D4841     -59.645  25.275  32.378  1.00 66.57 LIG-0.27  OA
BRANCH 25 27
ATOM     27  CA  LEU D4841     -61.270  25.736  34.074  1.00 50.85 LIG 0.40  C 
ATOM     28  N   LEU D4841     -61.953  27.014  33.849  1.00 66.18 LIG 0.61  N 
BRANCH 27 29
ATOM     29  CB  LEU D4841     -62.083  24.589  33.461  1.00 58.40 LIG 0.06  C 
BRANCH 29 30
ATOM     30  CG  LEU D4841     -61.414  23.210  33.417  1.00 54.26 LIG-0.02  C 
ATOM     31  CD2 LEU D4841     -62.065  22.270  32.375  1.00 54.78 LIG 0.01  C 
ATOM     32  CD1 LEU D4841     -61.371  22.559  34.806  1.00 32.44 LIG 0.01  C 
ENDBRANCH 29 30
ENDBRANCH 27 29
ENDBRANCH 25 27
ENDBRANCH 22 23
BRANCH 22 33
ATOM     33  CB  VAL D4842     -58.670  25.617  36.626  1.00 48.47 LIG 0.01  C 
ATOM     34  CG2 VAL D4842     -58.761  24.245  36.017  1.00 42.42 LIG 0.01  C 
ATOM     35  CG1 VAL D4842     -59.519  25.682  37.884  1.00 34.87 LIG 0.01  C 
ENDBRANCH 22 33
ENDBRANCH 1 22
TORSDOF 13
ENDMDL
MODEL 106
USER: ADFR SOLUTION from run 89
USER: SCORE 8.160871 LL:  -2.362 LR:  -7.196 RR:   0.000 FEB:  -3.318
USER: RMSD 8.868983
USER: SEED 88
USER: STATUS no improvement in best in 46 clusters for 5 generations
USER: GENES 15
USER: genes 0 Translation |==|  0.38451 0.48047 0.28482
USER: genes 1 Rotation |==|  0.94519 0.38096 0.63958 0.63475
USER: genes 2 Torsion [C]-N--CA-[CB] |==|  0.83333
USER: genes 3 Torsion [N]-CA--C-[N] |==|  0.09789
USER: genes 4 Torsion [C]-N--CA-[CB] |==|  0.41187
USER: genes 5 Torsion [N]-CA--CB-[CG] |==|  0.12818
USER: genes 6 Torsion [CA]-CB--CG-[OD1] |==|  0.84068
USER: genes 7 Torsion [N]-CA--C-[O] |==|  0.08030
USER: genes 8 Torsion [N]-CA--CB-[CG2] |==|  0.90267
USER: genes 9 Torsion [N]-C--CA-[N] |==|  0.92026
USER: genes 10 Torsion [C]-CA--N-[C] |==|  0.66939
USER: genes 11 Torsion [N]-C--CA-[N] |==|  0.24725
USER: genes 12 Torsion [C]-CA--CB-[CG] |==|  0.78885
USER: genes 13 Torsion [CA]-CB--CG-[CD2] |==|  0.67777
USER: genes 14 Torsion [C]-CA--CB-[CG2] |==|  0.50369
ROOT
ATOM      1  C   VAL D4842     -59.465  27.245  35.852  1.00 57.35 LIG 0.24  C 
ATOM      2 O    VAL D4842     -60.228  27.801  36.652  1.00 61.28 LIG-0.27  OA
ATOM      3  N   VAL D4843     -58.623  27.917  35.079  1.00 52.36 LIG-0.35  N 
ATOM      4 H    VAL D4843     -57.979  27.543  34.650  1.00 52.36 LIG 0.16  HD
ENDROOT
BRANCH 3 5
ATOM      5  CA  VAL D4843     -58.698  29.357  34.875  1.00 37.99 LIG 0.18  C 
BRANCH 5 6
ATOM      6  C   VAL D4843     -58.536  29.946  36.297  1.00 51.29 LIG 0.24  C 
ATOM      7  N   ASN D4844     -57.730  29.341  37.162  1.00 50.43 LIG-0.35  N 
ATOM      8 H    ASN D4844     -57.256  28.644  36.996  1.00 50.43 LIG 0.16  HD
ATOM      9 O    VAL D4843     -59.158  30.967  36.625  1.00 47.22 LIG-0.27  OA
BRANCH 7 10
ATOM     10  CA  ASN D4844     -57.615  29.883  38.524  1.00 46.88 LIG 0.17  C 
BRANCH 10 11
ATOM     11  CB  ASN D4844     -57.352  28.757  39.524  1.00 66.72 LIG 0.14  C 
BRANCH 11 12
ATOM     12  CG  ASN D4844     -56.276  27.796  39.054  1.00 62.42 LIG 0.22  C 
ATOM     13 OD1  ASN D4844     -56.377  27.196  37.982  1.00 56.11 LIG-0.27  OA
ATOM     14  ND2 ASN D4844     -55.234  27.648  39.864  1.00 67.26 LIG-0.37  N 
ATOM     15 21HD ASN D4844     -54.594  27.115  39.647  1.00 67.26 LIG 0.16  HD
ATOM     16 22HD ASN D4844     -55.199  28.083  40.605  1.00 67.26 LIG 0.16  HD
ENDBRANCH 11 12
ENDBRANCH 10 11
BRANCH 10 17
ATOM     17  C   ASN D4844     -56.591  31.016  38.707  1.00 52.57 LIG 0.22  C 
ATOM     18 O    ASN D4844     -56.308  31.787  37.775  1.00 48.91 LIG-0.29  OA
ENDBRANCH 10 17
ENDBRANCH 7 10
ENDBRANCH 5 6
BRANCH 5 19
ATOM     19  CB  VAL D4843     -60.091  29.679  34.250  1.00 37.59 LIG 0.01  C 
ATOM     20  CG1 VAL D4843     -60.113  31.017  33.567  1.00 42.19 LIG 0.01  C 
ATOM     21  CG2 VAL D4843     -60.537  28.564  33.300  1.00 33.91 LIG 0.01  C 
ENDBRANCH 5 19
ENDBRANCH 3 5
BRANCH 1 22
ATOM     22  CA  VAL D4842     -59.389  25.711  35.722  1.00 42.26 LIG 0.18  C 
BRANCH 22 23
ATOM     23  N   VAL D4842     -58.956  25.193  34.421  1.00 51.43 LIG-0.34  N 
ATOM     24 H    VAL D4842     -58.164  25.440  34.193  1.00 51.43 LIG 0.16  HD
ATOM     25  C   LEU D4841     -59.726  24.409  33.669  1.00 54.30 LIG 0.26  C 
ATOM     26 O    LEU D4841     -59.313  23.836  32.663  1.00 66.57 LIG-0.27  OA
BRANCH 25 27
ATOM     27  CA  LEU D4841     -61.161  24.215  34.136  1.00 50.85 LIG 0.40  C 
ATOM     28  N   LEU D4841     -62.033  25.252  33.576  1.00 66.18 LIG 0.61  N 
BRANCH 27 29
ATOM     29  CB  LEU D4841     -61.669  22.825  33.733  1.00 58.40 LIG 0.06  C 
BRANCH 29 30
ATOM     30  CG  LEU D4841     -62.048  22.626  32.261  1.00 54.26 LIG-0.02  C 
ATOM     31  CD2 LEU D4841     -63.554  22.318  32.075  1.00 54.78 LIG 0.01  C 
ATOM     32  CD1 LEU D4841     -61.173  21.557  31.592  1.00 32.44 LIG 0.01  C 
ENDBRANCH 29 30
ENDBRANCH 27 29
ENDBRANCH 25 27
ENDBRANCH 22 23
BRANCH 22 33
ATOM     33  CB  VAL D4842     -58.565  25.104  36.887  1.00 48.47 LIG 0.01  C 
ATOM     34  CG2 VAL D4842     -58.455  23.610  36.756  1.00 42.42 LIG 0.01  C 
ATOM     35  CG1 VAL D4842     -59.224  25.460  38.209  1.00 34.87 LIG 0.01  C 
ENDBRANCH 22 33
ENDBRANCH 1 22
TORSDOF 13
ENDMDL
MODEL 107
USER: ADFR SOLUTION from run 145
USER: SCORE 8.184732 LL:  -2.233 LR:  -7.197 RR:   0.000 FEB:  -3.320
USER: RMSD 8.304444
USER: SEED 144
USER: STATUS no improvement in best in 15 clusters for 5 generations
USER: GENES 15
USER: genes 0 Translation |==|  0.41702 0.48133 0.31899
USER: genes 1 Rotation |==|  0.31548 0.24500 0.88823 0.51446
USER: genes 2 Torsion [C]-N--CA-[CB] |==|  0.52222
USER: genes 3 Torsion [N]-CA--C-[N] |==|  0.75978
USER: genes 4 Torsion [C]-N--CA-[CB] |==|  0.81287
USER: genes 5 Torsion [N]-CA--CB-[CG] |==|  0.66265
USER: genes 6 Torsion [CA]-CB--CG-[OD1] |==|  0.20690
USER: genes 7 Torsion [N]-CA--C-[O] |==|  0.69258
USER: genes 8 Torsion [N]-CA--CB-[CG2] |==|  0.45410
USER: genes 9 Torsion [N]-C--CA-[N] |==|  0.45585
USER: genes 10 Torsion [C]-CA--N-[C] |==|  0.55694
USER: genes 11 Torsion [N]-C--CA-[N] |==|  0.23097
USER: genes 12 Torsion [C]-CA--CB-[CG] |==|  0.26032
USER: genes 13 Torsion [CA]-CB--CG-[CD2] |==|  0.88068
USER: genes 14 Torsion [C]-CA--CB-[CG2] |==|  0.27039
ROOT
ATOM      1  C   VAL D4842     -58.783  27.259  36.365  1.00 57.35 LIG 0.24  C 
ATOM      2 O    VAL D4842     -57.819  27.936  35.987  1.00 61.28 LIG-0.27  OA
ATOM      3  N   VAL D4843     -59.424  27.497  37.502  1.00 52.36 LIG-0.35  N 
ATOM      4 H    VAL D4843     -60.188  27.149  37.691  1.00 52.36 LIG 0.16  HD
ENDROOT
BRANCH 3 5
ATOM      5  CA  VAL D4843     -58.907  28.369  38.546  1.00 37.99 LIG 0.18  C 
BRANCH 5 6
ATOM      6  C   VAL D4843     -57.479  27.831  38.811  1.00 51.29 LIG 0.24  C 
ATOM      7  N   ASN D4844     -57.311  26.840  39.678  1.00 50.43 LIG-0.35  N 
ATOM      8 H    ASN D4844     -57.941  26.438  40.104  1.00 50.43 LIG 0.16  HD
ATOM      9 O    VAL D4843     -56.506  28.327  38.226  1.00 47.22 LIG-0.27  OA
BRANCH 7 10
ATOM     10  CA  ASN D4844     -55.948  26.363  39.957  1.00 46.88 LIG 0.17  C 
BRANCH 10 11
ATOM     11  CB  ASN D4844     -55.358  25.685  38.720  1.00 66.72 LIG 0.14  C 
BRANCH 11 12
ATOM     12  CG  ASN D4844     -54.956  24.245  38.978  1.00 62.42 LIG 0.22  C 
ATOM     13 OD1  ASN D4844     -55.800  23.353  39.080  1.00 56.11 LIG-0.27  OA
ATOM     14  ND2 ASN D4844     -53.652  24.015  39.083  1.00 67.26 LIG-0.37  N 
ATOM     15 21HD ASN D4844     -53.367  23.216  39.229  1.00 67.26 LIG 0.16  HD
ATOM     16 22HD ASN D4844     -53.093  24.664  39.006  1.00 67.26 LIG 0.16  HD
ENDBRANCH 11 12
ENDBRANCH 10 11
BRANCH 10 17
ATOM     17  C   ASN D4844     -54.974  27.417  40.509  1.00 52.57 LIG 0.22  C 
ATOM     18 O    ASN D4844     -54.022  27.837  39.830  1.00 48.91 LIG-0.29  OA
ENDBRANCH 10 17
ENDBRANCH 7 10
ENDBRANCH 5 6
BRANCH 5 19
ATOM     19  CB  VAL D4843     -59.838  28.229  39.790  1.00 37.59 LIG 0.01  C 
ATOM     20  CG1 VAL D4843     -60.305  26.815  39.996  1.00 42.19 LIG 0.01  C 
ATOM     21  CG2 VAL D4843     -59.160  28.777  41.049  1.00 33.91 LIG 0.01  C 
ENDBRANCH 5 19
ENDBRANCH 3 5
BRANCH 1 22
ATOM     22  CA  VAL D4842     -59.359  26.108  35.518  1.00 42.26 LIG 0.18  C 
BRANCH 22 23
ATOM     23  N   VAL D4842     -58.920  26.049  34.121  1.00 51.43 LIG-0.34  N 
ATOM     24 H    VAL D4842     -58.188  26.474  33.967  1.00 51.43 LIG 0.16  HD
ATOM     25  C   LEU D4841     -59.601  25.395  33.182  1.00 54.30 LIG 0.26  C 
ATOM     26 O    LEU D4841     -59.158  25.199  32.052  1.00 66.57 LIG-0.27  OA
BRANCH 25 27
ATOM     27  CA  LEU D4841     -60.964  24.852  33.584  1.00 50.85 LIG 0.40  C 
ATOM     28  N   LEU D4841     -61.989  25.894  33.479  1.00 66.18 LIG 0.61  N 
BRANCH 27 29
ATOM     29  CB  LEU D4841     -61.340  23.652  32.705  1.00 58.40 LIG 0.06  C 
BRANCH 29 30
ATOM     30  CG  LEU D4841     -60.989  22.260  33.244  1.00 54.26 LIG-0.02  C 
ATOM     31  CD2 LEU D4841     -59.575  22.209  33.871  1.00 54.78 LIG 0.01  C 
ATOM     32  CD1 LEU D4841     -61.162  21.178  32.170  1.00 32.44 LIG 0.01  C 
ENDBRANCH 29 30
ENDBRANCH 27 29
ENDBRANCH 25 27
ENDBRANCH 22 23
BRANCH 22 33
ATOM     33  CB  VAL D4842     -59.167  24.749  36.239  1.00 48.47 LIG 0.01  C 
ATOM     34  CG2 VAL D4842     -60.411  24.344  36.981  1.00 42.42 LIG 0.01  C 
ATOM     35  CG1 VAL D4842     -57.999  24.852  37.205  1.00 34.87 LIG 0.01  C 
ENDBRANCH 22 33
ENDBRANCH 1 22
TORSDOF 13
ENDMDL
MODEL 108
USER: ADFR SOLUTION from run 180
USER: SCORE 9.137823 LL:  -2.698 LR:  -7.195 RR:   0.000 FEB:  -3.317
USER: RMSD 6.161599
USER: SEED 179
USER: STATUS no improvement in best in 8 clusters for 5 generations
USER: GENES 15
USER: genes 0 Translation |==|  0.32834 0.50158 0.19847
USER: genes 1 Rotation |==|  0.61508 0.73636 0.64598 0.89947
USER: genes 2 Torsion [C]-N--CA-[CB] |==|  0.52779
USER: genes 3 Torsion [N]-CA--C-[N] |==|  0.31745
USER: genes 4 Torsion [C]-N--CA-[CB] |==|  0.34563
USER: genes 5 Torsion [N]-CA--CB-[CG] |==|  0.84230
USER: genes 6 Torsion [CA]-CB--CG-[OD1] |==|  0.79475
USER: genes 7 Torsion [N]-CA--C-[O] |==|  0.10856
USER: genes 8 Torsion [N]-CA--CB-[CG2] |==|  0.80288
USER: genes 9 Torsion [N]-C--CA-[N] |==|  0.97306
USER: genes 10 Torsion [C]-CA--N-[C] |==|  0.70027
USER: genes 11 Torsion [N]-C--CA-[N] |==|  0.84858
USER: genes 12 Torsion [C]-CA--CB-[CG] |==|  0.21048
USER: genes 13 Torsion [CA]-CB--CG-[CD2] |==|  0.11875
USER: genes 14 Torsion [C]-CA--CB-[CG2] |==|  0.92729
ROOT
ATOM      1  C   VAL D4842     -60.645  27.593  34.557  1.00 57.35 LIG 0.24  C 
ATOM      2 O    VAL D4842     -61.851  27.778  34.354  1.00 61.28 LIG-0.27  OA
ATOM      3  N   VAL D4843     -59.963  26.612  33.980  1.00 52.36 LIG-0.35  N 
ATOM      4 H    VAL D4843     -59.104  26.576  33.979  1.00 52.36 LIG 0.16  HD
ENDROOT
BRANCH 3 5
ATOM      5  CA  VAL D4843     -60.593  25.496  33.290  1.00 37.99 LIG 0.18  C 
BRANCH 5 6
ATOM      6  C   VAL D4843     -61.643  24.974  34.301  1.00 51.29 LIG 0.24  C 
ATOM      7  N   ASN D4844     -62.933  25.077  34.007  1.00 50.43 LIG-0.35  N 
ATOM      8 H    ASN D4844     -63.253  25.395  33.275  1.00 50.43 LIG 0.16  HD
ATOM      9 O    VAL D4843     -61.281  24.474  35.376  1.00 47.22 LIG-0.27  OA
BRANCH 7 10
ATOM     10  CA  ASN D4844     -63.925  24.619  34.991  1.00 46.88 LIG 0.17  C 
BRANCH 10 11
ATOM     11  CB  ASN D4844     -64.905  25.744  35.322  1.00 66.72 LIG 0.14  C 
BRANCH 11 12
ATOM     12  CG  ASN D4844     -64.213  26.993  35.833  1.00 62.42 LIG 0.22  C 
ATOM     13 OD1  ASN D4844     -63.738  27.042  36.969  1.00 56.11 LIG-0.27  OA
ATOM     14  ND2 ASN D4844     -64.154  28.014  34.986  1.00 67.26 LIG-0.37  N 
ATOM     15 21HD ASN D4844     -63.772  28.748  35.223  1.00 67.26 LIG 0.16  HD
ATOM     16 22HD ASN D4844     -64.498  27.942  34.201  1.00 67.26 LIG 0.16  HD
ENDBRANCH 11 12
ENDBRANCH 10 11
BRANCH 10 17
ATOM     17  C   ASN D4844     -64.685  23.334  34.622  1.00 52.57 LIG 0.22  C 
ATOM     18 O    ASN D4844     -64.114  22.383  34.064  1.00 48.91 LIG-0.29  OA
ENDBRANCH 10 17
ENDBRANCH 7 10
ENDBRANCH 5 6
BRANCH 5 19
ATOM     19  CB  VAL D4843     -59.487  24.440  32.980  1.00 37.59 LIG 0.01  C 
ATOM     20  CG1 VAL D4843     -60.063  23.098  32.627  1.00 42.19 LIG 0.01  C 
ATOM     21  CG2 VAL D4843     -58.540  24.942  31.886  1.00 33.91 LIG 0.01  C 
ENDBRANCH 5 19
ENDBRANCH 3 5
BRANCH 1 22
ATOM     22  CA  VAL D4842     -59.813  28.524  35.461  1.00 42.26 LIG 0.18  C 
BRANCH 22 23
ATOM     23  N   VAL D4842     -58.442  28.091  35.747  1.00 51.43 LIG-0.34  N 
ATOM     24 H    VAL D4842     -57.907  28.160  35.077  1.00 51.43 LIG 0.16  HD
ATOM     25  C   LEU D4841     -58.068  27.635  36.941  1.00 54.30 LIG 0.26  C 
ATOM     26 O    LEU D4841     -56.894  27.430  37.239  1.00 66.57 LIG-0.27  OA
BRANCH 25 27
ATOM     27  CA  LEU D4841     -59.176  27.409  37.960  1.00 50.85 LIG 0.40  C 
ATOM     28  N   LEU D4841     -59.973  28.626  38.139  1.00 66.18 LIG 0.61  N 
BRANCH 27 29
ATOM     29  CB  LEU D4841     -60.077  26.250  37.518  1.00 58.40 LIG 0.06  C 
BRANCH 29 30
ATOM     30  CG  LEU D4841     -59.521  24.831  37.697  1.00 54.26 LIG-0.02  C 
ATOM     31  CD2 LEU D4841     -58.807  24.644  39.057  1.00 54.78 LIG 0.01  C 
ATOM     32  CD1 LEU D4841     -58.611  24.430  36.528  1.00 32.44 LIG 0.01  C 
ENDBRANCH 29 30
ENDBRANCH 27 29
ENDBRANCH 25 27
ENDBRANCH 22 23
BRANCH 22 33
ATOM     33  CB  VAL D4842     -59.859  29.981  34.934  1.00 48.47 LIG 0.01  C 
ATOM     34  CG2 VAL D4842     -60.115  30.019  33.453  1.00 42.42 LIG 0.01  C 
ATOM     35  CG1 VAL D4842     -58.543  30.673  35.250  1.00 34.87 LIG 0.01  C 
ENDBRANCH 22 33
ENDBRANCH 1 22
TORSDOF 13
ENDMDL
MODEL 109
USER: ADFR SOLUTION from run 50
USER: SCORE 8.991464 LL:  -2.660 LR:  -7.190 RR:   0.000 FEB:  -3.312
USER: RMSD 6.109812
USER: SEED 49
USER: STATUS no improvement in best in 30 clusters for 5 generations
USER: GENES 15
USER: genes 0 Translation |==|  0.35862 0.51923 0.22192
USER: genes 1 Rotation |==|  0.64037 0.71889 0.61664 0.91083
USER: genes 2 Torsion [C]-N--CA-[CB] |==|  0.52420
USER: genes 3 Torsion [N]-CA--C-[N] |==|  0.29448
USER: genes 4 Torsion [C]-N--CA-[CB] |==|  0.83288
USER: genes 5 Torsion [N]-CA--CB-[CG] |==|  0.76806
USER: genes 6 Torsion [CA]-CB--CG-[OD1] |==|  0.57805
USER: genes 7 Torsion [N]-CA--C-[O] |==|  0.98317
USER: genes 8 Torsion [N]-CA--CB-[CG2] |==|  0.76942
USER: genes 9 Torsion [N]-C--CA-[N] |==|  0.97267
USER: genes 10 Torsion [C]-CA--N-[C] |==|  0.69655
USER: genes 11 Torsion [N]-C--CA-[N] |==|  0.85182
USER: genes 12 Torsion [C]-CA--CB-[CG] |==|  0.21539
USER: genes 13 Torsion [CA]-CB--CG-[CD2] |==|  0.76459
USER: genes 14 Torsion [C]-CA--CB-[CG2] |==|  0.28172
ROOT
ATOM      1  C   VAL D4842     -60.009  27.884  34.909  1.00 57.35 LIG 0.24  C 
ATOM      2 O    VAL D4842     -61.161  28.279  34.691  1.00 61.28 LIG-0.27  OA
ATOM      3  N   VAL D4843     -59.490  26.821  34.308  1.00 52.36 LIG-0.35  N 
ATOM      4 H    VAL D4843     -58.650  26.639  34.321  1.00 52.36 LIG 0.16  HD
ENDROOT
BRANCH 3 5
ATOM      5  CA  VAL D4843     -60.284  25.853  33.566  1.00 37.99 LIG 0.18  C 
BRANCH 5 6
ATOM      6  C   VAL D4843     -61.412  25.459  34.551  1.00 51.29 LIG 0.24  C 
ATOM      7  N   ASN D4844     -62.640  25.920  34.348  1.00 50.43 LIG-0.35  N 
ATOM      8 H    ASN D4844     -62.883  26.414  33.687  1.00 50.43 LIG 0.16  HD
ATOM      9 O    VAL D4843     -61.167  24.729  35.522  1.00 47.22 LIG-0.27  OA
BRANCH 7 10
ATOM     10  CA  ASN D4844     -63.696  25.577  35.311  1.00 46.88 LIG 0.17  C 
BRANCH 10 11
ATOM     11  CB  ASN D4844     -63.880  24.061  35.382  1.00 66.72 LIG 0.14  C 
BRANCH 11 12
ATOM     12  CG  ASN D4844     -64.784  23.529  34.287  1.00 62.42 LIG 0.22  C 
ATOM     13 OD1  ASN D4844     -65.448  22.503  34.448  1.00 56.11 LIG-0.27  OA
ATOM     14  ND2 ASN D4844     -64.810  24.231  33.161  1.00 67.26 LIG-0.37  N 
ATOM     15 21HD ASN D4844     -65.306  23.975  32.506  1.00 67.26 LIG 0.16  HD
ATOM     16 22HD ASN D4844     -64.331  24.942  33.086  1.00 67.26 LIG 0.16  HD
ENDBRANCH 11 12
ENDBRANCH 10 11
BRANCH 10 17
ATOM     17  C   ASN D4844     -63.528  26.166  36.722  1.00 52.57 LIG 0.22  C 
ATOM     18 O    ASN D4844     -62.504  26.790  37.044  1.00 48.91 LIG-0.29  OA
ENDBRANCH 10 17
ENDBRANCH 7 10
ENDBRANCH 5 6
BRANCH 5 19
ATOM     19  CB  VAL D4843     -59.357  24.650  33.208  1.00 37.59 LIG 0.01  C 
ATOM     20  CG1 VAL D4843     -60.121  23.362  33.075  1.00 42.19 LIG 0.01  C 
ATOM     21  CG2 VAL D4843     -58.540  24.942  31.947  1.00 33.91 LIG 0.01  C 
ENDBRANCH 5 19
ENDBRANCH 3 5
BRANCH 1 22
ATOM     22  CA  VAL D4842     -59.052  28.629  35.861  1.00 42.26 LIG 0.18  C 
BRANCH 22 23
ATOM     23  N   VAL D4842     -57.783  27.958  36.158  1.00 51.43 LIG-0.34  N 
ATOM     24 H    VAL D4842     -57.235  27.939  35.495  1.00 51.43 LIG 0.16  HD
ATOM     25  C   LEU D4841     -57.513  27.429  37.349  1.00 54.30 LIG 0.26  C 
ATOM     26 O    LEU D4841     -56.398  27.017  37.659  1.00 66.57 LIG-0.27  OA
BRANCH 25 27
ATOM     27  CA  LEU D4841     -58.658  27.390  38.352  1.00 50.85 LIG 0.40  C 
ATOM     28  N   LEU D4841     -59.248  28.722  38.517  1.00 66.18 LIG 0.61  N 
BRANCH 27 29
ATOM     29  CB  LEU D4841     -59.730  26.392  37.898  1.00 58.40 LIG 0.06  C 
BRANCH 29 30
ATOM     30  CG  LEU D4841     -59.433  24.904  38.125  1.00 54.26 LIG-0.02  C 
ATOM     31  CD2 LEU D4841     -58.591  24.289  36.982  1.00 54.78 LIG 0.01  C 
ATOM     32  CD1 LEU D4841     -60.719  24.102  38.366  1.00 32.44 LIG 0.01  C 
ENDBRANCH 29 30
ENDBRANCH 27 29
ENDBRANCH 25 27
ENDBRANCH 22 23
BRANCH 22 33
ATOM     33  CB  VAL D4842     -58.835  30.088  35.386  1.00 48.47 LIG 0.01  C 
ATOM     34  CG2 VAL D4842     -59.659  31.053  36.192  1.00 42.42 LIG 0.01  C 
ATOM     35  CG1 VAL D4842     -59.199  30.199  33.915  1.00 34.87 LIG 0.01  C 
ENDBRANCH 22 33
ENDBRANCH 1 22
TORSDOF 13
ENDMDL
MODEL 110
USER: ADFR SOLUTION from run 144
USER: SCORE 9.045391 LL:  -2.285 LR:  -7.185 RR:   0.000 FEB:  -3.307
USER: RMSD 7.137187
USER: SEED 143
USER: STATUS no improvement in best in 60 clusters for 5 generations
USER: GENES 15
USER: genes 0 Translation |==|  0.38309 0.25325 0.28755
USER: genes 1 Rotation |==|  0.87396 0.48620 0.79623 0.64905
USER: genes 2 Torsion [C]-N--CA-[CB] |==|  0.88333
USER: genes 3 Torsion [N]-CA--C-[N] |==|  0.34315
USER: genes 4 Torsion [C]-N--CA-[CB] |==|  0.18095
USER: genes 5 Torsion [N]-CA--CB-[CG] |==|  0.14781
USER: genes 6 Torsion [CA]-CB--CG-[OD1] |==|  0.30462
USER: genes 7 Torsion [N]-CA--C-[O] |==|  0.03925
USER: genes 8 Torsion [N]-CA--CB-[CG2] |==|  0.75597
USER: genes 9 Torsion [N]-C--CA-[N] |==|  0.36059
USER: genes 10 Torsion [C]-CA--N-[C] |==|  0.78169
USER: genes 11 Torsion [N]-C--CA-[N] |==|  0.29566
USER: genes 12 Torsion [C]-CA--CB-[CG] |==|  0.44760
USER: genes 13 Torsion [CA]-CB--CG-[CD2] |==|  0.60406
USER: genes 14 Torsion [C]-CA--CB-[CG2] |==|  0.37589
ROOT
ATOM      1  C   VAL D4842     -59.495  23.496  35.893  1.00 57.35 LIG 0.24  C 
ATOM      2 O    VAL D4842     -60.704  23.747  35.972  1.00 61.28 LIG-0.27  OA
ATOM      3  N   VAL D4843     -58.635  24.296  35.277  1.00 52.36 LIG-0.35  N 
ATOM      4 H    VAL D4843     -57.783  24.222  35.360  1.00 52.36 LIG 0.16  HD
ENDROOT
BRANCH 3 5
ATOM      5  CA  VAL D4843     -59.041  25.382  34.396  1.00 37.99 LIG 0.18  C 
BRANCH 5 6
ATOM      6  C   VAL D4843     -59.486  26.504  35.366  1.00 51.29 LIG 0.24  C 
ATOM      7  N   ASN D4844     -58.909  27.697  35.285  1.00 50.43 LIG-0.35  N 
ATOM      8 H    ASN D4844     -58.309  27.922  34.713  1.00 50.43 LIG 0.16  HD
ATOM      9 O    VAL D4843     -60.365  26.286  36.212  1.00 47.22 LIG-0.27  OA
BRANCH 7 10
ATOM     10  CA  ASN D4844     -59.307  28.744  36.238  1.00 46.88 LIG 0.17  C 
BRANCH 10 11
ATOM     11  CB  ASN D4844     -58.911  28.348  37.660  1.00 66.72 LIG 0.14  C 
BRANCH 11 12
ATOM     12  CG  ASN D4844     -57.445  27.980  37.779  1.00 62.42 LIG 0.22  C 
ATOM     13 OD1  ASN D4844     -56.649  28.707  38.377  1.00 56.11 LIG-0.27  OA
ATOM     14  ND2 ASN D4844     -57.082  26.839  37.205  1.00 67.26 LIG-0.37  N 
ATOM     15 21HD ASN D4844     -56.262  26.581  37.242  1.00 67.26 LIG 0.16  HD
ATOM     16 22HD ASN D4844     -57.666  26.359  36.796  1.00 67.26 LIG 0.16  HD
ENDBRANCH 11 12
ENDBRANCH 10 11
BRANCH 10 17
ATOM     17  C   ASN D4844     -58.807  30.163  35.915  1.00 52.57 LIG 0.22  C 
ATOM     18 O    ASN D4844     -58.343  30.446  34.798  1.00 48.91 LIG-0.29  OA
ENDBRANCH 10 17
ENDBRANCH 7 10
ENDBRANCH 5 6
BRANCH 5 19
ATOM     19  CB  VAL D4843     -60.213  24.863  33.506  1.00 37.59 LIG 0.01  C 
ATOM     20  CG1 VAL D4843     -61.200  25.946  33.175  1.00 42.19 LIG 0.01  C 
ATOM     21  CG2 VAL D4843     -59.682  24.190  32.237  1.00 33.91 LIG 0.01  C 
ENDBRANCH 5 19
ENDBRANCH 3 5
BRANCH 1 22
ATOM     22  CA  VAL D4842     -58.871  22.251  36.554  1.00 42.26 LIG 0.18  C 
BRANCH 22 23
ATOM     23  N   VAL D4842     -59.241  22.007  37.952  1.00 51.43 LIG-0.34  N 
ATOM     24 H    VAL D4842     -59.839  21.396  38.053  1.00 51.43 LIG 0.16  HD
ATOM     25  C   LEU D4841     -58.695  22.674  38.966  1.00 54.30 LIG 0.26  C 
ATOM     26 O    LEU D4841     -58.873  22.364  40.142  1.00 66.57 LIG-0.27  OA
BRANCH 25 27
ATOM     27  CA  LEU D4841     -57.789  23.842  38.603  1.00 50.85 LIG 0.40  C 
ATOM     28  N   LEU D4841     -58.453  25.119  38.879  1.00 66.18 LIG 0.61  N 
BRANCH 27 29
ATOM     29  CB  LEU D4841     -56.470  23.755  39.380  1.00 58.40 LIG 0.06  C 
BRANCH 29 30
ATOM     30  CG  LEU D4841     -55.287  24.563  38.832  1.00 54.26 LIG-0.02  C 
ATOM     31  CD2 LEU D4841     -53.940  23.817  38.987  1.00 54.78 LIG 0.01  C 
ATOM     32  CD1 LEU D4841     -55.224  25.965  39.452  1.00 32.44 LIG 0.01  C 
ENDBRANCH 29 30
ENDBRANCH 27 29
ENDBRANCH 25 27
ENDBRANCH 22 23
BRANCH 22 33
ATOM     33  CB  VAL D4842     -59.089  20.996  35.673  1.00 48.47 LIG 0.01  C 
ATOM     34  CG2 VAL D4842     -57.832  20.177  35.567  1.00 42.42 LIG 0.01  C 
ATOM     35  CG1 VAL D4842     -59.545  21.425  34.288  1.00 34.87 LIG 0.01  C 
ENDBRANCH 22 33
ENDBRANCH 1 22
TORSDOF 13
ENDMDL
MODEL 111
USER: ADFR SOLUTION from run 56
USER: SCORE 8.677083 LL:  -2.643 LR:  -7.187 RR:   0.000 FEB:  -3.309
USER: RMSD 8.445220
USER: SEED 55
USER: STATUS no improvement in best in 29 clusters for 5 generations
USER: GENES 15
USER: genes 0 Translation |==|  0.27186 0.30472 0.24904
USER: genes 1 Rotation |==|  0.23300 0.89440 0.39455 0.60972
USER: genes 2 Torsion [C]-N--CA-[CB] |==|  0.51667
USER: genes 3 Torsion [N]-CA--C-[N] |==|  0.75778
USER: genes 4 Torsion [C]-N--CA-[CB] |==|  0.21295
USER: genes 5 Torsion [N]-CA--CB-[CG] |==|  0.16119
USER: genes 6 Torsion [CA]-CB--CG-[OD1] |==|  0.05345
USER: genes 7 Torsion [N]-CA--C-[O] |==|  0.93053
USER: genes 8 Torsion [N]-CA--CB-[CG2] |==|  0.80326
USER: genes 9 Torsion [N]-C--CA-[N] |==|  0.95376
USER: genes 10 Torsion [C]-CA--N-[C] |==|  0.80649
USER: genes 11 Torsion [N]-C--CA-[N] |==|  0.36655
USER: genes 12 Torsion [C]-CA--CB-[CG] |==|  0.45539
USER: genes 13 Torsion [CA]-CB--CG-[CD2] |==|  0.90670
USER: genes 14 Torsion [C]-CA--CB-[CG2] |==|  0.62283
ROOT
ATOM      1  C   VAL D4842     -61.831  24.345  35.316  1.00 57.35 LIG 0.24  C 
ATOM      2 O    VAL D4842     -62.663  24.760  36.131  1.00 61.28 LIG-0.27  OA
ATOM      3  N   VAL D4843     -60.625  23.924  35.674  1.00 52.36 LIG-0.35  N 
ATOM      4 H    VAL D4843     -60.107  23.481  35.148  1.00 52.36 LIG 0.16  HD
ENDROOT
BRANCH 3 5
ATOM      5  CA  VAL D4843     -60.050  24.165  36.989  1.00 37.99 LIG 0.18  C 
BRANCH 5 6
ATOM      6  C   VAL D4843     -60.143  25.701  37.164  1.00 51.29 LIG 0.24  C 
ATOM      7  N   ASN D4844     -59.159  26.465  36.707  1.00 50.43 LIG-0.35  N 
ATOM      8 H    ASN D4844     -58.463  26.184  36.289  1.00 50.43 LIG 0.16  HD
ATOM      9 O    VAL D4843     -61.122  26.207  37.731  1.00 47.22 LIG-0.27  OA
BRANCH 7 10
ATOM     10  CA  ASN D4844     -59.234  27.919  36.914  1.00 46.88 LIG 0.17  C 
BRANCH 10 11
ATOM     11  CB  ASN D4844     -58.878  28.269  38.359  1.00 66.72 LIG 0.14  C 
BRANCH 11 12
ATOM     12  CG  ASN D4844     -57.496  27.788  38.756  1.00 62.42 LIG 0.22  C 
ATOM     13 OD1  ASN D4844     -56.648  27.507  37.907  1.00 56.11 LIG-0.27  OA
ATOM     14  ND2 ASN D4844     -57.265  27.692  40.060  1.00 67.26 LIG-0.37  N 
ATOM     15 21HD ASN D4844     -56.497  27.424  40.342  1.00 67.26 LIG 0.16  HD
ATOM     16 22HD ASN D4844     -57.883  27.897  40.623  1.00 67.26 LIG 0.16  HD
ENDBRANCH 11 12
ENDBRANCH 10 11
BRANCH 10 17
ATOM     17  C   ASN D4844     -58.413  28.776  35.935  1.00 52.57 LIG 0.22  C 
ATOM     18 O    ASN D4844     -57.415  28.317  35.355  1.00 48.91 LIG-0.29  OA
ENDBRANCH 10 17
ENDBRANCH 7 10
ENDBRANCH 5 6
BRANCH 5 19
ATOM     19  CB  VAL D4843     -58.576  23.655  36.967  1.00 37.59 LIG 0.01  C 
ATOM     20  CG1 VAL D4843     -57.770  24.187  38.118  1.00 42.19 LIG 0.01  C 
ATOM     21  CG2 VAL D4843     -58.525  22.125  36.916  1.00 33.91 LIG 0.01  C 
ENDBRANCH 5 19
ENDBRANCH 3 5
BRANCH 1 22
ATOM     22  CA  VAL D4842     -62.143  24.229  33.811  1.00 42.26 LIG 0.18  C 
BRANCH 22 23
ATOM     23  N   VAL D4842     -60.991  24.042  32.923  1.00 51.43 LIG-0.34  N 
ATOM     24 H    VAL D4842     -60.950  23.261  32.566  1.00 51.43 LIG 0.16  HD
ATOM     25  C   LEU D4841     -60.096  25.002  32.698  1.00 54.30 LIG 0.26  C 
ATOM     26 O    LEU D4841     -59.227  24.914  31.833  1.00 66.57 LIG-0.27  OA
BRANCH 25 27
ATOM     27  CA  LEU D4841     -60.218  26.259  33.548  1.00 50.85 LIG 0.40  C 
ATOM     28  N   LEU D4841     -58.915  26.635  34.107  1.00 66.18 LIG 0.61  N 
BRANCH 27 29
ATOM     29  CB  LEU D4841     -60.786  27.413  32.713  1.00 58.40 LIG 0.06  C 
BRANCH 29 30
ATOM     30  CG  LEU D4841     -61.325  28.625  33.483  1.00 54.26 LIG-0.02  C 
ATOM     31  CD2 LEU D4841     -61.967  28.229  34.834  1.00 54.78 LIG 0.01  C 
ATOM     32  CD1 LEU D4841     -62.292  29.453  32.626  1.00 32.44 LIG 0.01  C 
ENDBRANCH 29 30
ENDBRANCH 27 29
ENDBRANCH 25 27
ENDBRANCH 22 23
BRANCH 22 33
ATOM     33  CB  VAL D4842     -63.242  23.165  33.560  1.00 48.47 LIG 0.01  C 
ATOM     34  CG2 VAL D4842     -62.890  22.281  32.396  1.00 42.42 LIG 0.01  C 
ATOM     35  CG1 VAL D4842     -64.568  23.861  33.300  1.00 34.87 LIG 0.01  C 
ENDBRANCH 22 33
ENDBRANCH 1 22
TORSDOF 13
ENDMDL
MODEL 112
USER: ADFR SOLUTION from run 158
USER: SCORE 8.595027 LL:  -2.942 LR:  -7.180 RR:   0.000 FEB:  -3.302
USER: RMSD 9.366596
USER: SEED 157
USER: STATUS no improvement in best in 36 clusters for 5 generations
USER: GENES 15
USER: genes 0 Translation |==|  0.37613 0.32361 0.11848
USER: genes 1 Rotation |==|  0.55404 0.58012 0.01492 0.57321
USER: genes 2 Torsion [C]-N--CA-[CB] |==|  0.34303
USER: genes 3 Torsion [N]-CA--C-[N] |==|  0.86336
USER: genes 4 Torsion [C]-N--CA-[CB] |==|  0.42072
USER: genes 5 Torsion [N]-CA--CB-[CG] |==|  0.10276
USER: genes 6 Torsion [CA]-CB--CG-[OD1] |==|  0.15433
USER: genes 7 Torsion [N]-CA--C-[O] |==|  0.34061
USER: genes 8 Torsion [N]-CA--CB-[CG2] |==|  0.08060
USER: genes 9 Torsion [N]-C--CA-[N] |==|  0.45278
USER: genes 10 Torsion [C]-CA--N-[C] |==|  0.73760
USER: genes 11 Torsion [N]-C--CA-[N] |==|  0.44633
USER: genes 12 Torsion [C]-CA--CB-[CG] |==|  0.40431
USER: genes 13 Torsion [CA]-CB--CG-[CD2] |==|  0.06573
USER: genes 14 Torsion [C]-CA--CB-[CG2] |==|  0.53486
ROOT
ATOM      1  C   VAL D4842     -59.641  24.657  33.357  1.00 57.35 LIG 0.24  C 
ATOM      2 O    VAL D4842     -59.157  24.839  32.233  1.00 61.28 LIG-0.27  OA
ATOM      3  N   VAL D4843     -60.063  25.652  34.126  1.00 52.36 LIG-0.35  N 
ATOM      4 H    VAL D4843     -60.549  25.532  34.825  1.00 52.36 LIG 0.16  HD
ENDROOT
BRANCH 3 5
ATOM      5  CA  VAL D4843     -59.749  27.051  33.870  1.00 37.99 LIG 0.18  C 
BRANCH 5 6
ATOM      6  C   VAL D4843     -58.918  27.481  35.104  1.00 51.29 LIG 0.24  C 
ATOM      7  N   ASN D4844     -59.372  27.204  36.319  1.00 50.43 LIG-0.35  N 
ATOM      8 H    ASN D4844     -60.096  26.775  36.495  1.00 50.43 LIG 0.16  HD
ATOM      9 O    VAL D4843     -57.845  28.083  34.954  1.00 47.22 LIG-0.27  OA
BRANCH 7 10
ATOM     10  CA  ASN D4844     -58.598  27.654  37.486  1.00 46.88 LIG 0.17  C 
BRANCH 10 11
ATOM     11  CB  ASN D4844     -59.524  27.894  38.678  1.00 66.72 LIG 0.14  C 
BRANCH 11 12
ATOM     12  CG  ASN D4844     -60.655  26.887  38.754  1.00 62.42 LIG 0.22  C 
ATOM     13 OD1  ASN D4844     -60.433  25.675  38.784  1.00 56.11 LIG-0.27  OA
ATOM     14  ND2 ASN D4844     -61.884  27.392  38.786  1.00 67.26 LIG-0.37  N 
ATOM     15 21HD ASN D4844     -62.564  26.866  38.830  1.00 67.26 LIG 0.16  HD
ATOM     16 22HD ASN D4844     -61.999  28.244  38.763  1.00 67.26 LIG 0.16  HD
ENDBRANCH 11 12
ENDBRANCH 10 11
BRANCH 10 17
ATOM     17  C   ASN D4844     -57.420  26.752  37.892  1.00 52.57 LIG 0.22  C 
ATOM     18 O    ASN D4844     -56.261  27.193  37.956  1.00 48.91 LIG-0.29  OA
ENDBRANCH 10 17
ENDBRANCH 7 10
ENDBRANCH 5 6
BRANCH 5 19
ATOM     19  CB  VAL D4843     -61.097  27.829  33.757  1.00 37.59 LIG 0.01  C 
ATOM     20  CG1 VAL D4843     -61.540  27.997  32.331  1.00 42.19 LIG 0.01  C 
ATOM     21  CG2 VAL D4843     -62.187  27.165  34.602  1.00 33.91 LIG 0.01  C 
ENDBRANCH 5 19
ENDBRANCH 3 5
BRANCH 1 22
ATOM     22  CA  VAL D4842     -59.848  23.246  33.943  1.00 42.26 LIG 0.18  C 
BRANCH 22 23
ATOM     23  N   VAL D4842     -59.760  22.132  32.995  1.00 51.43 LIG-0.34  N 
ATOM     24 H    VAL D4842     -58.959  21.850  32.860  1.00 51.43 LIG 0.16  HD
ATOM     25  C   LEU D4841     -60.832  21.611  32.401  1.00 54.30 LIG 0.26  C 
ATOM     26 O    LEU D4841     -60.790  20.576  31.739  1.00 66.57 LIG-0.27  OA
BRANCH 25 27
ATOM     27  CA  LEU D4841     -62.150  22.342  32.611  1.00 50.85 LIG 0.40  C 
ATOM     28  N   LEU D4841     -63.122  21.966  31.580  1.00 66.18 LIG 0.61  N 
BRANCH 27 29
ATOM     29  CB  LEU D4841     -62.714  22.034  34.004  1.00 58.40 LIG 0.06  C 
BRANCH 29 30
ATOM     30  CG  LEU D4841     -63.474  23.163  34.709  1.00 54.26 LIG-0.02  C 
ATOM     31  CD2 LEU D4841     -64.046  24.202  33.715  1.00 54.78 LIG 0.01  C 
ATOM     32  CD1 LEU D4841     -62.614  23.837  35.787  1.00 32.44 LIG 0.01  C 
ENDBRANCH 29 30
ENDBRANCH 27 29
ENDBRANCH 25 27
ENDBRANCH 22 23
BRANCH 22 33
ATOM     33  CB  VAL D4842     -58.932  23.027  35.175  1.00 48.47 LIG 0.01  C 
ATOM     34  CG2 VAL D4842     -58.891  21.578  35.573  1.00 42.42 LIG 0.01  C 
ATOM     35  CG1 VAL D4842     -59.438  23.868  36.335  1.00 34.87 LIG 0.01  C 
ENDBRANCH 22 33
ENDBRANCH 1 22
TORSDOF 13
ENDMDL
MODEL 113
USER: ADFR SOLUTION from run 110
USER: SCORE 8.758183 LL:  -2.317 LR:  -7.179 RR:   0.000 FEB:  -3.301
USER: RMSD 8.615998
USER: SEED 109
USER: STATUS no improvement in best in 48 clusters for 5 generations
USER: GENES 15
USER: genes 0 Translation |==|  0.37429 0.31854 0.27221
USER: genes 1 Rotation |==|  0.88150 0.48475 0.69271 0.75902
USER: genes 2 Torsion [C]-N--CA-[CB] |==|  0.80540
USER: genes 3 Torsion [N]-CA--C-[N] |==|  0.13889
USER: genes 4 Torsion [C]-N--CA-[CB] |==|  0.37661
USER: genes 5 Torsion [N]-CA--CB-[CG] |==|  0.13751
USER: genes 6 Torsion [CA]-CB--CG-[OD1] |==|  0.32721
USER: genes 7 Torsion [N]-CA--C-[O] |==|  0.16122
USER: genes 8 Torsion [N]-CA--CB-[CG2] |==|  0.20586
USER: genes 9 Torsion [N]-C--CA-[N] |==|  0.91681
USER: genes 10 Torsion [C]-CA--N-[C] |==|  0.77956
USER: genes 11 Torsion [N]-C--CA-[N] |==|  0.43208
USER: genes 12 Torsion [C]-CA--CB-[CG] |==|  0.40967
USER: genes 13 Torsion [CA]-CB--CG-[CD2] |==|  0.04505
USER: genes 14 Torsion [C]-CA--CB-[CG2] |==|  0.49928
ROOT
ATOM      1  C   VAL D4842     -59.680  24.573  35.663  1.00 57.35 LIG 0.24  C 
ATOM      2 O    VAL D4842     -60.619  25.321  35.962  1.00 61.28 LIG-0.27  OA
ATOM      3  N   VAL D4843     -58.914  24.774  34.599  1.00 52.36 LIG-0.35  N 
ATOM      4 H    VAL D4843     -58.166  24.369  34.475  1.00 52.36 LIG 0.16  HD
ENDROOT
BRANCH 3 5
ATOM      5  CA  VAL D4843     -59.257  25.701  33.529  1.00 37.99 LIG 0.18  C 
BRANCH 5 6
ATOM      6  C   VAL D4843     -59.622  27.010  34.270  1.00 51.29 LIG 0.24  C 
ATOM      7  N   ASN D4844     -58.792  27.489  35.188  1.00 50.43 LIG-0.35  N 
ATOM      8 H    ASN D4844     -58.035  27.144  35.403  1.00 50.43 LIG 0.16  HD
ATOM      9 O    VAL D4843     -60.683  27.598  34.012  1.00 47.22 LIG-0.27  OA
BRANCH 7 10
ATOM     10  CA  ASN D4844     -59.167  28.709  35.918  1.00 46.88 LIG 0.17  C 
BRANCH 10 11
ATOM     11  CB  ASN D4844     -58.881  28.546  37.410  1.00 66.72 LIG 0.14  C 
BRANCH 11 12
ATOM     12  CG  ASN D4844     -57.481  28.032  37.686  1.00 62.42 LIG 0.22  C 
ATOM     13 OD1  ASN D4844     -56.665  28.703  38.320  1.00 56.11 LIG-0.27  OA
ATOM     14  ND2 ASN D4844     -57.199  26.826  37.205  1.00 67.26 LIG-0.37  N 
ATOM     15 21HD ASN D4844     -56.419  26.484  37.332  1.00 67.26 LIG 0.16  HD
ATOM     16 22HD ASN D4844     -57.795  26.388  36.767  1.00 67.26 LIG 0.16  HD
ENDBRANCH 11 12
ENDBRANCH 10 11
BRANCH 10 17
ATOM     17  C   ASN D4844     -58.551  30.017  35.391  1.00 52.57 LIG 0.22  C 
ATOM     18 O    ASN D4844     -58.731  30.389  34.220  1.00 48.91 LIG-0.29  OA
ENDBRANCH 10 17
ENDBRANCH 7 10
ENDBRANCH 5 6
BRANCH 5 19
ATOM     19  CB  VAL D4843     -60.465  25.100  32.746  1.00 37.59 LIG 0.01  C 
ATOM     20  CG1 VAL D4843     -60.224  23.677  32.330  1.00 42.19 LIG 0.01  C 
ATOM     21  CG2 VAL D4843     -61.761  25.230  33.552  1.00 33.91 LIG 0.01  C 
ENDBRANCH 5 19
ENDBRANCH 3 5
BRANCH 1 22
ATOM     22  CA  VAL D4842     -59.282  23.366  36.535  1.00 42.26 LIG 0.18  C 
BRANCH 22 23
ATOM     23  N   VAL D4842     -58.644  22.246  35.837  1.00 51.43 LIG-0.34  N 
ATOM     24 H    VAL D4842     -57.788  22.225  35.920  1.00 51.43 LIG 0.16  HD
ATOM     25  C   LEU D4841     -59.336  21.347  35.141  1.00 54.30 LIG 0.26  C 
ATOM     26 O    LEU D4841     -58.834  20.318  34.695  1.00 66.57 LIG-0.27  OA
BRANCH 25 27
ATOM     27  CA  LEU D4841     -60.818  21.632  34.946  1.00 50.85 LIG 0.40  C 
ATOM     28  N   LEU D4841     -61.325  20.951  33.750  1.00 66.18 LIG 0.61  N 
BRANCH 27 29
ATOM     29  CB  LEU D4841     -61.613  21.189  36.181  1.00 58.40 LIG 0.06  C 
BRANCH 29 30
ATOM     30  CG  LEU D4841     -62.860  22.009  36.534  1.00 54.26 LIG-0.02  C 
ATOM     31  CD2 LEU D4841     -63.331  22.903  35.362  1.00 54.78 LIG 0.01  C 
ATOM     32  CD1 LEU D4841     -62.652  22.830  37.814  1.00 32.44 LIG 0.01  C 
ENDBRANCH 29 30
ENDBRANCH 27 29
ENDBRANCH 25 27
ENDBRANCH 22 23
BRANCH 22 33
ATOM     33  CB  VAL D4842     -58.453  23.828  37.761  1.00 48.47 LIG 0.01  C 
ATOM     34  CG2 VAL D4842     -58.062  22.661  38.626  1.00 42.42 LIG 0.01  C 
ATOM     35  CG1 VAL D4842     -59.265  24.824  38.572  1.00 34.87 LIG 0.01  C 
ENDBRANCH 22 33
ENDBRANCH 1 22
TORSDOF 13
ENDMDL
MODEL 114
USER: ADFR SOLUTION from run 129
USER: SCORE 8.780057 LL:  -2.971 LR:  -7.166 RR:   0.000 FEB:  -3.288
USER: RMSD 9.438413
USER: SEED 128
USER: STATUS no improvement in best in 9 clusters for 5 generations
USER: GENES 15
USER: genes 0 Translation |==|  0.34501 0.34886 0.09436
USER: genes 1 Rotation |==|  0.58988 0.60330 0.01997 0.52871
USER: genes 2 Torsion [C]-N--CA-[CB] |==|  0.37814
USER: genes 3 Torsion [N]-CA--C-[N] |==|  0.91550
USER: genes 4 Torsion [C]-N--CA-[CB] |==|  0.25462
USER: genes 5 Torsion [N]-CA--CB-[CG] |==|  0.61699
USER: genes 6 Torsion [CA]-CB--CG-[OD1] |==|  0.00891
USER: genes 7 Torsion [N]-CA--C-[O] |==|  0.27305
USER: genes 8 Torsion [N]-CA--CB-[CG2] |==|  0.76078
USER: genes 9 Torsion [N]-C--CA-[N] |==|  0.34444
USER: genes 10 Torsion [C]-CA--N-[C] |==|  0.73100
USER: genes 11 Torsion [N]-C--CA-[N] |==|  0.44979
USER: genes 12 Torsion [C]-CA--CB-[CG] |==|  0.40357
USER: genes 13 Torsion [CA]-CB--CG-[CD2] |==|  0.01367
USER: genes 14 Torsion [C]-CA--CB-[CG2] |==|  0.54351
ROOT
ATOM      1  C   VAL D4842     -60.295  25.073  32.995  1.00 57.35 LIG 0.24  C 
ATOM      2 O    VAL D4842     -59.665  25.298  31.955  1.00 61.28 LIG-0.27  OA
ATOM      3  N   VAL D4843     -60.618  26.028  33.858  1.00 52.36 LIG-0.35  N 
ATOM      4 H    VAL D4843     -61.193  25.916  34.488  1.00 52.36 LIG 0.16  HD
ENDROOT
BRANCH 3 5
ATOM      5  CA  VAL D4843     -60.039  27.363  33.830  1.00 37.99 LIG 0.18  C 
BRANCH 5 6
ATOM      6  C   VAL D4843     -59.030  27.359  35.005  1.00 51.29 LIG 0.24  C 
ATOM      7  N   ASN D4844     -59.276  26.602  36.068  1.00 50.43 LIG-0.35  N 
ATOM      8 H    ASN D4844     -59.952  26.079  36.161  1.00 50.43 LIG 0.16  HD
ATOM      9 O    VAL D4843     -58.010  28.061  34.955  1.00 47.22 LIG-0.27  OA
BRANCH 7 10
ATOM     10  CA  ASN D4844     -58.336  26.636  37.197  1.00 46.88 LIG 0.17  C 
BRANCH 10 11
ATOM     11  CB  ASN D4844     -58.766  27.692  38.216  1.00 66.72 LIG 0.14  C 
BRANCH 11 12
ATOM     12  CG  ASN D4844     -57.599  28.499  38.752  1.00 62.42 LIG 0.22  C 
ATOM     13 OD1  ASN D4844     -56.454  28.327  38.330  1.00 56.11 LIG-0.27  OA
ATOM     14  ND2 ASN D4844     -57.891  29.391  39.691  1.00 67.26 LIG-0.37  N 
ATOM     15 21HD ASN D4844     -57.268  29.878  40.031  1.00 67.26 LIG 0.16  HD
ATOM     16 22HD ASN D4844     -58.703  29.482  39.960  1.00 67.26 LIG 0.16  HD
ENDBRANCH 11 12
ENDBRANCH 10 11
BRANCH 10 17
ATOM     17  C   ASN D4844     -58.080  25.288  37.893  1.00 52.57 LIG 0.22  C 
ATOM     18 O    ASN D4844     -57.081  24.602  37.625  1.00 48.91 LIG-0.29  OA
ENDBRANCH 10 17
ENDBRANCH 7 10
ENDBRANCH 5 6
BRANCH 5 19
ATOM     19  CB  VAL D4843     -61.195  28.390  34.040  1.00 37.59 LIG 0.01  C 
ATOM     20  CG1 VAL D4843     -60.735  29.628  34.756  1.00 42.19 LIG 0.01  C 
ATOM     21  CG2 VAL D4843     -61.869  28.737  32.709  1.00 33.91 LIG 0.01  C 
ENDBRANCH 5 19
ENDBRANCH 3 5
BRANCH 1 22
ATOM     22  CA  VAL D4842     -60.808  23.665  33.356  1.00 42.26 LIG 0.18  C 
BRANCH 22 23
ATOM     23  N   VAL D4842     -61.628  22.996  32.342  1.00 51.43 LIG-0.34  N 
ATOM     24 H    VAL D4842     -61.173  22.597  31.732  1.00 51.43 LIG 0.16  HD
ATOM     25  C   LEU D4841     -62.959  23.011  32.373  1.00 54.30 LIG 0.26  C 
ATOM     26 O    LEU D4841     -63.652  22.319  31.630  1.00 66.57 LIG-0.27  OA
BRANCH 25 27
ATOM     27  CA  LEU D4841     -63.606  23.912  33.415  1.00 50.85 LIG 0.40  C 
ATOM     28  N   LEU D4841     -65.009  24.171  33.078  1.00 66.18 LIG 0.61  N 
BRANCH 27 29
ATOM     29  CB  LEU D4841     -63.507  23.274  34.806  1.00 58.40 LIG 0.06  C 
BRANCH 29 30
ATOM     30  CG  LEU D4841     -63.316  24.225  35.994  1.00 54.26 LIG-0.02  C 
ATOM     31  CD2 LEU D4841     -63.377  25.714  35.574  1.00 54.78 LIG 0.01  C 
ATOM     32  CD1 LEU D4841     -62.026  23.915  36.765  1.00 32.44 LIG 0.01  C 
ENDBRANCH 29 30
ENDBRANCH 27 29
ENDBRANCH 25 27
ENDBRANCH 22 23
BRANCH 22 33
ATOM     33  CB  VAL D4842     -59.642  22.766  33.838  1.00 48.47 LIG 0.01  C 
ATOM     34  CG2 VAL D4842     -60.033  21.314  33.831  1.00 42.42 LIG 0.01  C 
ATOM     35  CG1 VAL D4842     -59.229  23.183  35.240  1.00 34.87 LIG 0.01  C 
ENDBRANCH 22 33
ENDBRANCH 1 22
TORSDOF 13
ENDMDL
MODEL 115
USER: ADFR SOLUTION from run 132
USER: SCORE 9.006849 LL:  -2.748 LR:  -7.165 RR:   0.000 FEB:  -3.287
USER: RMSD 6.721541
USER: SEED 131
USER: STATUS no improvement in best in 33 clusters for 5 generations
USER: GENES 15
USER: genes 0 Translation |==|  0.37996 0.31325 0.28701
USER: genes 1 Rotation |==|  0.77059 0.67975 0.75974 0.77750
USER: genes 2 Torsion [C]-N--CA-[CB] |==|  0.89880
USER: genes 3 Torsion [N]-CA--C-[N] |==|  0.87590
USER: genes 4 Torsion [C]-N--CA-[CB] |==|  0.43198
USER: genes 5 Torsion [N]-CA--CB-[CG] |==|  0.97361
USER: genes 6 Torsion [CA]-CB--CG-[OD1] |==|  0.26775
USER: genes 7 Torsion [N]-CA--C-[O] |==|  0.49056
USER: genes 8 Torsion [N]-CA--CB-[CG2] |==|  0.76714
USER: genes 9 Torsion [N]-C--CA-[N] |==|  0.15450
USER: genes 10 Torsion [C]-CA--N-[C] |==|  0.17222
USER: genes 11 Torsion [N]-C--CA-[N] |==|  0.28424
USER: genes 12 Torsion [C]-CA--CB-[CG] |==|  0.76201
USER: genes 13 Torsion [CA]-CB--CG-[CD2] |==|  0.64330
USER: genes 14 Torsion [C]-CA--CB-[CG2] |==|  0.51600
ROOT
ATOM      1  C   VAL D4842     -59.561  24.486  35.885  1.00 57.35 LIG 0.24  C 
ATOM      2 O    VAL D4842     -60.795  24.514  35.962  1.00 61.28 LIG-0.27  OA
ATOM      3  N   VAL D4843     -58.915  24.493  34.726  1.00 52.36 LIG-0.35  N 
ATOM      4 H    VAL D4843     -58.071  24.643  34.661  1.00 52.36 LIG 0.16  HD
ENDROOT
BRANCH 3 5
ATOM      5  CA  VAL D4843     -59.563  24.248  33.446  1.00 37.99 LIG 0.18  C 
BRANCH 5 6
ATOM      6  C   VAL D4843     -60.156  25.624  33.057  1.00 51.29 LIG 0.24  C 
ATOM      7  N   ASN D4844     -60.797  26.337  33.975  1.00 50.43 LIG-0.35  N 
ATOM      8 H    ASN D4844     -60.898  26.112  34.799  1.00 50.43 LIG 0.16  HD
ATOM      9 O    VAL D4843     -60.040  26.050  31.899  1.00 47.22 LIG-0.27  OA
BRANCH 7 10
ATOM     10  CA  ASN D4844     -61.395  27.623  33.587  1.00 46.88 LIG 0.17  C 
BRANCH 10 11
ATOM     11  CB  ASN D4844     -62.544  27.981  34.529  1.00 66.72 LIG 0.14  C 
BRANCH 11 12
ATOM     12  CG  ASN D4844     -62.920  26.841  35.455  1.00 62.42 LIG 0.22  C 
ATOM     13 OD1  ASN D4844     -62.474  26.775  36.602  1.00 56.11 LIG-0.27  OA
ATOM     14  ND2 ASN D4844     -63.750  25.933  34.955  1.00 67.26 LIG-0.37  N 
ATOM     15 21HD ASN D4844     -63.997  25.265  35.437  1.00 67.26 LIG 0.16  HD
ATOM     16 22HD ASN D4844     -64.040  26.013  34.149  1.00 67.26 LIG 0.16  HD
ENDBRANCH 11 12
ENDBRANCH 10 11
BRANCH 10 17
ATOM     17  C   ASN D4844     -60.415  28.802  33.460  1.00 52.57 LIG 0.22  C 
ATOM     18 O    ASN D4844     -60.796  29.920  33.078  1.00 48.91 LIG-0.29  OA
ENDBRANCH 10 17
ENDBRANCH 7 10
ENDBRANCH 5 6
BRANCH 5 19
ATOM     19  CB  VAL D4843     -60.664  23.165  33.667  1.00 37.59 LIG 0.01  C 
ATOM     20  CG1 VAL D4843     -61.808  23.310  32.705  1.00 42.19 LIG 0.01  C 
ATOM     21  CG2 VAL D4843     -60.067  21.756  33.610  1.00 33.91 LIG 0.01  C 
ENDBRANCH 5 19
ENDBRANCH 3 5
BRANCH 1 22
ATOM     22  CA  VAL D4842     -58.660  24.494  37.135  1.00 42.26 LIG 0.18  C 
BRANCH 22 23
ATOM     23  N   VAL D4842     -57.690  25.589  37.227  1.00 51.43 LIG-0.34  N 
ATOM     24 H    VAL D4842     -56.870  25.330  37.235  1.00 51.43 LIG 0.16  HD
ATOM     25  C   LEU D4841     -58.056  26.868  37.290  1.00 54.30 LIG 0.26  C 
ATOM     26 O    LEU D4841     -57.256  27.796  37.197  1.00 66.57 LIG-0.27  OA
BRANCH 25 27
ATOM     27  CA  LEU D4841     -59.545  27.143  37.445  1.00 50.85 LIG 0.40  C 
ATOM     28  N   LEU D4841     -59.865  27.497  38.831  1.00 66.18 LIG 0.61  N 
BRANCH 27 29
ATOM     29  CB  LEU D4841     -59.980  28.269  36.499  1.00 58.40 LIG 0.06  C 
BRANCH 29 30
ATOM     30  CG  LEU D4841     -59.809  29.706  37.007  1.00 54.26 LIG-0.02  C 
ATOM     31  CD2 LEU D4841     -61.108  30.537  36.876  1.00 54.78 LIG 0.01  C 
ATOM     32  CD1 LEU D4841     -58.626  30.408  36.328  1.00 32.44 LIG 0.01  C 
ENDBRANCH 29 30
ENDBRANCH 27 29
ENDBRANCH 25 27
ENDBRANCH 22 23
BRANCH 22 33
ATOM     33  CB  VAL D4842     -59.512  24.371  38.424  1.00 48.47 LIG 0.01  C 
ATOM     34  CG2 VAL D4842     -58.663  24.518  39.656  1.00 42.42 LIG 0.01  C 
ATOM     35  CG1 VAL D4842     -60.215  23.024  38.437  1.00 34.87 LIG 0.01  C 
ENDBRANCH 22 33
ENDBRANCH 1 22
TORSDOF 13
ENDMDL
MODEL 116
USER: ADFR SOLUTION from run 177
USER: SCORE 8.420848 LL:  -2.358 LR:  -7.164 RR:   0.000 FEB:  -3.286
USER: RMSD 6.489170
USER: SEED 176
USER: STATUS no improvement in best in 19 clusters for 5 generations
USER: GENES 15
USER: genes 0 Translation |==|  0.41851 0.55168 0.36402
USER: genes 1 Rotation |==|  0.45784 0.10045 0.50722 0.79754
USER: genes 2 Torsion [C]-N--CA-[CB] |==|  0.25518
USER: genes 3 Torsion [N]-CA--C-[N] |==|  0.37262
USER: genes 4 Torsion [C]-N--CA-[CB] |==|  0.27355
USER: genes 5 Torsion [N]-CA--CB-[CG] |==|  0.05833
USER: genes 6 Torsion [CA]-CB--CG-[OD1] |==|  0.29640
USER: genes 7 Torsion [N]-CA--C-[O] |==|  0.05369
USER: genes 8 Torsion [N]-CA--CB-[CG2] |==|  0.69820
USER: genes 9 Torsion [N]-C--CA-[N] |==|  0.97507
USER: genes 10 Torsion [C]-CA--N-[C] |==|  0.74450
USER: genes 11 Torsion [N]-C--CA-[N] |==|  0.43005
USER: genes 12 Torsion [C]-CA--CB-[CG] |==|  0.40126
USER: genes 13 Torsion [CA]-CB--CG-[CD2] |==|  0.69815
USER: genes 14 Torsion [C]-CA--CB-[CG2] |==|  0.55404
ROOT
ATOM      1  C   VAL D4842     -58.751  28.420  37.040  1.00 57.35 LIG 0.24  C 
ATOM      2 O    VAL D4842     -57.532  28.595  37.149  1.00 61.28 LIG-0.27  OA
ATOM      3  N   VAL D4843     -59.302  27.213  37.017  1.00 52.36 LIG-0.35  N 
ATOM      4 H    VAL D4843     -60.147  27.081  37.113  1.00 52.36 LIG 0.16  HD
ENDROOT
BRANCH 3 5
ATOM      5  CA  VAL D4843     -58.540  25.987  36.830  1.00 37.99 LIG 0.18  C 
BRANCH 5 6
ATOM      6  C   VAL D4843     -59.520  25.046  36.087  1.00 51.29 LIG 0.24  C 
ATOM      7  N   ASN D4844     -59.088  24.360  35.036  1.00 50.43 LIG-0.35  N 
ATOM      8 H    ASN D4844     -58.285  24.369  34.731  1.00 50.43 LIG 0.16  HD
ATOM      9 O    VAL D4843     -60.695  24.943  36.467  1.00 47.22 LIG-0.27  OA
BRANCH 7 10
ATOM     10  CA  ASN D4844     -60.036  23.501  34.311  1.00 46.88 LIG 0.17  C 
BRANCH 10 11
ATOM     11  CB  ASN D4844     -60.560  24.219  33.067  1.00 66.72 LIG 0.14  C 
BRANCH 11 12
ATOM     12  CG  ASN D4844     -59.652  25.346  32.615  1.00 62.42 LIG 0.22  C 
ATOM     13 OD1  ASN D4844     -58.949  25.237  31.608  1.00 56.11 LIG-0.27  OA
ATOM     14  ND2 ASN D4844     -59.665  26.442  33.365  1.00 67.26 LIG-0.37  N 
ATOM     15 21HD ASN D4844     -59.169  27.113  33.155  1.00 67.26 LIG 0.16  HD
ATOM     16 22HD ASN D4844     -60.169  26.480  34.061  1.00 67.26 LIG 0.16  HD
ENDBRANCH 11 12
ENDBRANCH 10 11
BRANCH 10 17
ATOM     17  C   ASN D4844     -59.520  22.099  33.945  1.00 52.57 LIG 0.22  C 
ATOM     18 O    ASN D4844     -58.547  21.596  34.530  1.00 48.91 LIG-0.29  OA
ENDBRANCH 10 17
ENDBRANCH 7 10
ENDBRANCH 5 6
BRANCH 5 19
ATOM     19  CB  VAL D4843     -58.148  25.448  38.240  1.00 37.59 LIG 0.01  C 
ATOM     20  CG1 VAL D4843     -58.570  24.020  38.442  1.00 42.19 LIG 0.01  C 
ATOM     21  CG2 VAL D4843     -56.649  25.625  38.499  1.00 33.91 LIG 0.01  C 
ENDBRANCH 5 19
ENDBRANCH 3 5
BRANCH 1 22
ATOM     22  CA  VAL D4842     -59.747  29.594  36.976  1.00 42.26 LIG 0.18  C 
BRANCH 22 23
ATOM     23  N   VAL D4842     -61.143  29.244  36.694  1.00 51.43 LIG-0.34  N 
ATOM     24 H    VAL D4842     -61.605  29.061  37.396  1.00 51.43 LIG 0.16  HD
ATOM     25  C   LEU D4841     -61.640  29.217  35.459  1.00 54.30 LIG 0.26  C 
ATOM     26 O    LEU D4841     -62.840  29.091  35.226  1.00 66.57 LIG-0.27  OA
BRANCH 25 27
ATOM     27  CA  LEU D4841     -60.644  29.390  34.321  1.00 50.85 LIG 0.40  C 
ATOM     28  N   LEU D4841     -61.149  28.772  33.092  1.00 66.18 LIG 0.61  N 
BRANCH 27 29
ATOM     29  CB  LEU D4841     -60.360  30.879  34.084  1.00 58.40 LIG 0.06  C 
BRANCH 29 30
ATOM     30  CG  LEU D4841     -58.931  31.255  33.673  1.00 54.26 LIG-0.02  C 
ATOM     31  CD2 LEU D4841     -58.165  31.985  34.803  1.00 54.78 LIG 0.01  C 
ATOM     32  CD1 LEU D4841     -58.913  32.067  32.371  1.00 32.44 LIG 0.01  C 
ENDBRANCH 29 30
ENDBRANCH 27 29
ENDBRANCH 25 27
ENDBRANCH 22 23
BRANCH 22 33
ATOM     33  CB  VAL D4842     -59.621  30.488  38.236  1.00 48.47 LIG 0.01  C 
ATOM     34  CG2 VAL D4842     -60.850  31.331  38.433  1.00 42.42 LIG 0.01  C 
ATOM     35  CG1 VAL D4842     -58.398  31.379  38.102  1.00 34.87 LIG 0.01  C 
ENDBRANCH 22 33
ENDBRANCH 1 22
TORSDOF 13
ENDMDL
MODEL 117
USER: ADFR SOLUTION from run 89
USER: SCORE 9.149960 LL:  -2.885 LR:  -7.157 RR:   0.000 FEB:  -3.279
USER: RMSD 8.677689
USER: SEED 88
USER: STATUS no improvement in best in 46 clusters for 5 generations
USER: GENES 15
USER: genes 0 Translation |==|  0.35635 0.25046 0.24450
USER: genes 1 Rotation |==|  0.25937 0.30520 0.88848 0.55682
USER: genes 2 Torsion [C]-N--CA-[CB] |==|  0.89675
USER: genes 3 Torsion [N]-CA--C-[N] |==|  0.80562
USER: genes 4 Torsion [C]-N--CA-[CB] |==|  0.80104
USER: genes 5 Torsion [N]-CA--CB-[CG] |==|  0.87505
USER: genes 6 Torsion [CA]-CB--CG-[OD1] |==|  0.85008
USER: genes 7 Torsion [N]-CA--C-[O] |==|  0.08691
USER: genes 8 Torsion [N]-CA--CB-[CG2] |==|  0.77866
USER: genes 9 Torsion [N]-C--CA-[N] |==|  0.94736
USER: genes 10 Torsion [C]-CA--N-[C] |==|  0.79120
USER: genes 11 Torsion [N]-C--CA-[N] |==|  0.40003
USER: genes 12 Torsion [C]-CA--CB-[CG] |==|  0.40531
USER: genes 13 Torsion [CA]-CB--CG-[CD2] |==|  0.16285
USER: genes 14 Torsion [C]-CA--CB-[CG2] |==|  0.47727
ROOT
ATOM      1  C   VAL D4842     -60.057  23.450  35.247  1.00 57.35 LIG 0.24  C 
ATOM      2 O    VAL D4842     -58.902  23.717  34.893  1.00 61.28 LIG-0.27  OA
ATOM      3  N   VAL D4843     -60.646  24.042  36.278  1.00 52.36 LIG-0.35  N 
ATOM      4 H    VAL D4843     -61.491  23.991  36.428  1.00 52.36 LIG 0.16  HD
ENDROOT
BRANCH 3 5
ATOM      5  CA  VAL D4843     -59.927  24.839  37.262  1.00 37.99 LIG 0.18  C 
BRANCH 5 6
ATOM      6  C   VAL D4843     -59.794  26.229  36.593  1.00 51.29 LIG 0.24  C 
ATOM      7  N   ASN D4844     -58.986  26.372  35.550  1.00 50.43 LIG-0.35  N 
ATOM      8 H    ASN D4844     -58.531  25.742  35.183  1.00 50.43 LIG 0.16  HD
ATOM      9 O    VAL D4843     -60.429  27.198  37.034  1.00 47.22 LIG-0.27  OA
BRANCH 7 10
ATOM     10  CA  ASN D4844     -58.831  27.704  34.948  1.00 46.88 LIG 0.17  C 
BRANCH 10 11
ATOM     11  CB  ASN D4844     -60.101  28.098  34.194  1.00 66.72 LIG 0.14  C 
BRANCH 11 12
ATOM     12  CG  ASN D4844     -60.644  26.973  33.333  1.00 62.42 LIG 0.22  C 
ATOM     13 OD1  ASN D4844     -59.935  26.406  32.500  1.00 56.11 LIG-0.27  OA
ATOM     14  ND2 ASN D4844     -61.915  26.646  33.535  1.00 67.26 LIG-0.37  N 
ATOM     15 21HD ASN D4844     -62.275  26.015  33.075  1.00 67.26 LIG 0.16  HD
ATOM     16 22HD ASN D4844     -62.378  27.066  34.126  1.00 67.26 LIG 0.16  HD
ENDBRANCH 11 12
ENDBRANCH 10 11
BRANCH 10 17
ATOM     17  C   ASN D4844     -58.408  28.826  35.911  1.00 52.57 LIG 0.22  C 
ATOM     18 O    ASN D4844     -57.686  28.595  36.895  1.00 48.91 LIG-0.29  OA
ENDBRANCH 10 17
ENDBRANCH 7 10
ENDBRANCH 5 6
BRANCH 5 19
ATOM     19  CB  VAL D4843     -58.544  24.160  37.508  1.00 37.59 LIG 0.01  C 
ATOM     20  CG1 VAL D4843     -57.510  25.134  38.000  1.00 42.19 LIG 0.01  C 
ATOM     21  CG2 VAL D4843     -58.679  22.968  38.461  1.00 33.91 LIG 0.01  C 
ENDBRANCH 5 19
ENDBRANCH 3 5
BRANCH 1 22
ATOM     22  CA  VAL D4842     -60.936  22.439  34.485  1.00 42.26 LIG 0.18  C 
BRANCH 22 23
ATOM     23  N   VAL D4842     -62.111  21.933  35.202  1.00 51.43 LIG-0.34  N 
ATOM     24 H    VAL D4842     -62.855  22.271  34.935  1.00 51.43 LIG 0.16  HD
ATOM     25  C   LEU D4841     -62.022  21.031  36.178  1.00 54.30 LIG 0.26  C 
ATOM     26 O    LEU D4841     -63.005  20.480  36.667  1.00 66.57 LIG-0.27  OA
BRANCH 25 27
ATOM     27  CA  LEU D4841     -60.619  20.672  36.648  1.00 50.85 LIG 0.40  C 
ATOM     28  N   LEU D4841     -60.603  20.430  38.093  1.00 66.18 LIG 0.61  N 
BRANCH 27 29
ATOM     29  CB  LEU D4841     -60.107  19.435  35.900  1.00 58.40 LIG 0.06  C 
BRANCH 29 30
ATOM     30  CG  LEU D4841     -58.605  19.381  35.597  1.00 54.26 LIG-0.02  C 
ATOM     31  CD2 LEU D4841     -57.740  19.457  36.878  1.00 54.78 LIG 0.01  C 
ATOM     32  CD1 LEU D4841     -58.195  20.455  34.581  1.00 32.44 LIG 0.01  C 
ENDBRANCH 29 30
ENDBRANCH 27 29
ENDBRANCH 25 27
ENDBRANCH 22 23
BRANCH 22 33
ATOM     33  CB  VAL D4842     -61.308  22.986  33.084  1.00 48.47 LIG 0.01  C 
ATOM     34  CG2 VAL D4842     -61.996  21.938  32.254  1.00 42.42 LIG 0.01  C 
ATOM     35  CG1 VAL D4842     -60.050  23.462  32.378  1.00 34.87 LIG 0.01  C 
ENDBRANCH 22 33
ENDBRANCH 1 22
TORSDOF 13
ENDMDL
MODEL 118
USER: ADFR SOLUTION from run 22
USER: SCORE 8.673997 LL:  -2.711 LR:  -7.146 RR:   0.000 FEB:  -3.269
USER: RMSD 8.614897
USER: SEED 21
USER: STATUS no improvement in best in 50 clusters for 5 generations
USER: GENES 15
USER: genes 0 Translation |==|  0.39206 0.44716 0.31879
USER: genes 1 Rotation |==|  0.96643 0.34048 0.55392 0.56394
USER: genes 2 Torsion [C]-N--CA-[CB] |==|  0.86243
USER: genes 3 Torsion [N]-CA--C-[N] |==|  0.51111
USER: genes 4 Torsion [C]-N--CA-[CB] |==|  0.26483
USER: genes 5 Torsion [N]-CA--CB-[CG] |==|  0.68082
USER: genes 6 Torsion [CA]-CB--CG-[OD1] |==|  0.55980
USER: genes 7 Torsion [N]-CA--C-[O] |==|  0.99414
USER: genes 8 Torsion [N]-CA--CB-[CG2] |==|  0.82821
USER: genes 9 Torsion [N]-C--CA-[N] |==|  0.98212
USER: genes 10 Torsion [C]-CA--N-[C] |==|  0.75305
USER: genes 11 Torsion [N]-C--CA-[N] |==|  0.41173
USER: genes 12 Torsion [C]-CA--CB-[CG] |==|  0.05171
USER: genes 13 Torsion [CA]-CB--CG-[CD2] |==|  0.70478
USER: genes 14 Torsion [C]-CA--CB-[CG2] |==|  0.88643
ROOT
ATOM      1  C   VAL D4842     -59.307  26.695  36.362  1.00 57.35 LIG 0.24  C 
ATOM      2 O    VAL D4842     -59.798  26.945  37.469  1.00 61.28 LIG-0.27  OA
ATOM      3  N   VAL D4843     -58.515  27.545  35.720  1.00 52.36 LIG-0.35  N 
ATOM      4 H    VAL D4843     -58.038  27.320  35.042  1.00 52.36 LIG 0.16  HD
ENDROOT
BRANCH 3 5
ATOM      5  CA  VAL D4843     -58.370  28.944  36.096  1.00 37.99 LIG 0.18  C 
BRANCH 5 6
ATOM      6  C   VAL D4843     -57.599  28.895  37.437  1.00 51.29 LIG 0.24  C 
ATOM      7  N   ASN D4844     -57.371  30.024  38.096  1.00 50.43 LIG-0.35  N 
ATOM      8 H    ASN D4844     -57.639  30.804  37.854  1.00 50.43 LIG 0.16  HD
ATOM      9 O    VAL D4843     -57.193  27.813  37.885  1.00 47.22 LIG-0.27  OA
BRANCH 7 10
ATOM     10  CA  ASN D4844     -56.601  29.974  39.347  1.00 46.88 LIG 0.17  C 
BRANCH 10 11
ATOM     11  CB  ASN D4844     -55.126  30.274  39.077  1.00 66.72 LIG 0.14  C 
BRANCH 11 12
ATOM     12  CG  ASN D4844     -54.225  29.089  39.363  1.00 62.42 LIG 0.22  C 
ATOM     13 OD1  ASN D4844     -53.022  29.238  39.583  1.00 56.11 LIG-0.27  OA
ATOM     14  ND2 ASN D4844     -54.811  27.897  39.360  1.00 67.26 LIG-0.37  N 
ATOM     15 21HD ASN D4844     -54.348  27.189  39.517  1.00 67.26 LIG 0.16  HD
ATOM     16 22HD ASN D4844     -55.654  27.833  39.202  1.00 67.26 LIG 0.16  HD
ENDBRANCH 11 12
ENDBRANCH 10 11
BRANCH 10 17
ATOM     17  C   ASN D4844     -57.129  30.857  40.491  1.00 52.57 LIG 0.22  C 
ATOM     18 O    ASN D4844     -58.120  31.589  40.337  1.00 48.91 LIG-0.29  OA
ENDBRANCH 10 17
ENDBRANCH 7 10
ENDBRANCH 5 6
BRANCH 5 19
ATOM     19  CB  VAL D4843     -59.801  29.547  36.251  1.00 37.59 LIG 0.01  C 
ATOM     20  CG1 VAL D4843     -59.773  30.945  36.802  1.00 42.19 LIG 0.01  C 
ATOM     21  CG2 VAL D4843     -60.569  29.489  34.928  1.00 33.91 LIG 0.01  C 
ENDBRANCH 5 19
ENDBRANCH 3 5
BRANCH 1 22
ATOM     22  CA  VAL D4842     -59.528  25.346  35.651  1.00 42.26 LIG 0.18  C 
BRANCH 22 23
ATOM     23  N   VAL D4842     -58.965  25.224  34.303  1.00 51.43 LIG-0.34  N 
ATOM     24 H    VAL D4842     -58.165  24.910  34.286  1.00 51.43 LIG 0.16  HD
ATOM     25  C   LEU D4841     -59.641  25.571  33.210  1.00 54.30 LIG 0.26  C 
ATOM     26 O    LEU D4841     -59.247  25.318  32.074  1.00 66.57 LIG-0.27  OA
BRANCH 25 27
ATOM     27  CA  LEU D4841     -60.973  26.275  33.428  1.00 50.85 LIG 0.40  C 
ATOM     28  N   LEU D4841     -61.241  27.224  32.343  1.00 66.18 LIG 0.61  N 
BRANCH 27 29
ATOM     29  CB  LEU D4841     -62.109  25.250  33.524  1.00 58.40 LIG 0.06  C 
BRANCH 29 30
ATOM     30  CG  LEU D4841     -61.711  23.801  33.832  1.00 54.26 LIG-0.02  C 
ATOM     31  CD2 LEU D4841     -61.828  22.880  32.594  1.00 54.78 LIG 0.01  C 
ATOM     32  CD1 LEU D4841     -62.500  23.239  35.023  1.00 32.44 LIG 0.01  C 
ENDBRANCH 29 30
ENDBRANCH 27 29
ENDBRANCH 25 27
ENDBRANCH 22 23
BRANCH 22 33
ATOM     33  CB  VAL D4842     -59.096  24.170  36.564  1.00 48.47 LIG 0.01  C 
ATOM     34  CG2 VAL D4842     -57.821  24.487  37.296  1.00 42.42 LIG 0.01  C 
ATOM     35  CG1 VAL D4842     -58.911  22.919  35.721  1.00 34.87 LIG 0.01  C 
ENDBRANCH 22 33
ENDBRANCH 1 22
TORSDOF 13
ENDMDL
MODEL 119
USER: ADFR SOLUTION from run 125
USER: SCORE 8.303767 LL:  -2.443 LR:  -7.146 RR:   0.000 FEB:  -3.268
USER: RMSD 7.821119
USER: SEED 124
USER: STATUS no improvement in best in 15 clusters for 5 generations
USER: GENES 15
USER: genes 0 Translation |==|  0.47020 0.48998 0.38291
USER: genes 1 Rotation |==|  0.56607 0.07786 0.70646 0.65749
USER: genes 2 Torsion [C]-N--CA-[CB] |==|  0.16189
USER: genes 3 Torsion [N]-CA--C-[N] |==|  0.57236
USER: genes 4 Torsion [C]-N--CA-[CB] |==|  0.35950
USER: genes 5 Torsion [N]-CA--CB-[CG] |==|  0.83465
USER: genes 6 Torsion [CA]-CB--CG-[OD1] |==|  0.21367
USER: genes 7 Torsion [N]-CA--C-[O] |==|  0.83449
USER: genes 8 Torsion [N]-CA--CB-[CG2] |==|  0.54941
USER: genes 9 Torsion [N]-C--CA-[N] |==|  0.12865
USER: genes 10 Torsion [C]-CA--N-[C] |==|  0.71737
USER: genes 11 Torsion [N]-C--CA-[N] |==|  0.35590
USER: genes 12 Torsion [C]-CA--CB-[CG] |==|  0.26202
USER: genes 13 Torsion [CA]-CB--CG-[CD2] |==|  0.70985
USER: genes 14 Torsion [C]-CA--CB-[CG2] |==|  0.55285
ROOT
ATOM      1  C   VAL D4842     -57.666  27.402  37.324  1.00 57.35 LIG 0.24  C 
ATOM      2 O    VAL D4842     -57.153  28.505  37.548  1.00 61.28 LIG-0.27  OA
ATOM      3  N   VAL D4843     -57.207  26.276  37.856  1.00 52.36 LIG-0.35  N 
ATOM      4 H    VAL D4843     -57.649  25.539  37.846  1.00 52.36 LIG 0.16  HD
ENDROOT
BRANCH 3 5
ATOM      5  CA  VAL D4843     -55.912  26.170  38.513  1.00 37.99 LIG 0.18  C 
BRANCH 5 6
ATOM      6  C   VAL D4843     -55.860  24.703  39.005  1.00 51.29 LIG 0.24  C 
ATOM      7  N   ASN D4844     -55.105  24.398  40.052  1.00 50.43 LIG-0.35  N 
ATOM      8 H    ASN D4844     -54.644  24.958  40.514  1.00 50.43 LIG 0.16  HD
ATOM      9 O    VAL D4843     -56.511  23.825  38.421  1.00 47.22 LIG-0.27  OA
BRANCH 7 10
ATOM     10  CA  ASN D4844     -55.027  22.995  40.487  1.00 46.88 LIG 0.17  C 
BRANCH 10 11
ATOM     11  CB  ASN D4844     -53.568  22.567  40.646  1.00 66.72 LIG 0.14  C 
BRANCH 11 12
ATOM     12  CG  ASN D4844     -52.776  22.695  39.359  1.00 62.42 LIG 0.22  C 
ATOM     13 OD1  ASN D4844     -52.382  23.792  38.956  1.00 56.11 LIG-0.27  OA
ATOM     14  ND2 ASN D4844     -52.540  21.564  38.705  1.00 67.26 LIG-0.37  N 
ATOM     15 21HD ASN D4844     -52.095  21.577  37.969  1.00 67.26 LIG 0.16  HD
ATOM     16 22HD ASN D4844     -52.832  20.818  39.018  1.00 67.26 LIG 0.16  HD
ENDBRANCH 11 12
ENDBRANCH 10 11
BRANCH 10 17
ATOM     17  C   ASN D4844     -55.831  22.643  41.750  1.00 52.57 LIG 0.22  C 
ATOM     18 O    ASN D4844     -55.610  23.206  42.835  1.00 48.91 LIG-0.29  OA
ENDBRANCH 10 17
ENDBRANCH 7 10
ENDBRANCH 5 6
BRANCH 5 19
ATOM     19  CB  VAL D4843     -55.887  27.196  39.688  1.00 37.59 LIG 0.01  C 
ATOM     20  CG1 VAL D4843     -56.754  26.766  40.838  1.00 42.19 LIG 0.01  C 
ATOM     21  CG2 VAL D4843     -54.453  27.469  40.148  1.00 33.91 LIG 0.01  C 
ENDBRANCH 5 19
ENDBRANCH 3 5
BRANCH 1 22
ATOM     22  CA  VAL D4842     -58.922  27.244  36.445  1.00 42.26 LIG 0.18  C 
BRANCH 22 23
ATOM     23  N   VAL D4842     -60.000  26.420  36.999  1.00 51.43 LIG-0.34  N 
ATOM     24 H    VAL D4842     -60.478  26.822  37.591  1.00 51.43 LIG 0.16  HD
ATOM     25  C   LEU D4841     -60.213  25.163  36.614  1.00 54.30 LIG 0.26  C 
ATOM     26 O    LEU D4841     -61.208  24.523  36.946  1.00 66.57 LIG-0.27  OA
BRANCH 25 27
ATOM     27  CA  LEU D4841     -59.169  24.548  35.694  1.00 50.85 LIG 0.40  C 
ATOM     28  N   LEU D4841     -58.706  23.260  36.221  1.00 66.18 LIG 0.61  N 
BRANCH 27 29
ATOM     29  CB  LEU D4841     -59.743  24.364  34.284  1.00 58.40 LIG 0.06  C 
BRANCH 29 30
ATOM     30  CG  LEU D4841     -59.478  25.488  33.275  1.00 54.26 LIG-0.02  C 
ATOM     31  CD2 LEU D4841     -60.727  26.370  33.032  1.00 54.78 LIG 0.01  C 
ATOM     32  CD1 LEU D4841     -58.915  24.942  31.956  1.00 32.44 LIG 0.01  C 
ENDBRANCH 29 30
ENDBRANCH 27 29
ENDBRANCH 25 27
ENDBRANCH 22 23
BRANCH 22 33
ATOM     33  CB  VAL D4842     -59.439  28.628  35.976  1.00 48.47 LIG 0.01  C 
ATOM     34  CG2 VAL D4842     -60.871  28.552  35.527  1.00 42.42 LIG 0.01  C 
ATOM     35  CG1 VAL D4842     -58.566  29.133  34.839  1.00 34.87 LIG 0.01  C 
ENDBRANCH 22 33
ENDBRANCH 1 22
TORSDOF 13
ENDMDL
MODEL 120
USER: ADFR SOLUTION from run 148
USER: SCORE 8.785368 LL:  -2.257 LR:  -7.138 RR:   0.000 FEB:  -3.260
USER: RMSD 9.390735
USER: SEED 147
USER: STATUS no improvement in best in 17 clusters for 5 generations
USER: GENES 15
USER: genes 0 Translation |==|  0.31813 0.32438 0.23761
USER: genes 1 Rotation |==|  0.27008 0.13963 0.74552 0.58360
USER: genes 2 Torsion [C]-N--CA-[CB] |==|  0.53939
USER: genes 3 Torsion [N]-CA--C-[N] |==|  0.38055
USER: genes 4 Torsion [C]-N--CA-[CB] |==|  0.46437
USER: genes 5 Torsion [N]-CA--CB-[CG] |==|  0.75446
USER: genes 6 Torsion [CA]-CB--CG-[OD1] |==|  0.63711
USER: genes 7 Torsion [N]-CA--C-[O] |==|  0.28536
USER: genes 8 Torsion [N]-CA--CB-[CG2] |==|  0.84409
USER: genes 9 Torsion [N]-C--CA-[N] |==|  0.07773
USER: genes 10 Torsion [C]-CA--N-[C] |==|  0.71111
USER: genes 11 Torsion [N]-C--CA-[N] |==|  0.46320
USER: genes 12 Torsion [C]-CA--CB-[CG] |==|  0.41482
USER: genes 13 Torsion [CA]-CB--CG-[CD2] |==|  0.19072
USER: genes 14 Torsion [C]-CA--CB-[CG2] |==|  0.22087
ROOT
ATOM      1  C   VAL D4842     -60.859  24.669  35.144  1.00 57.35 LIG 0.24  C 
ATOM      2 O    VAL D4842     -59.781  25.180  35.473  1.00 61.28 LIG-0.27  OA
ATOM      3  N   VAL D4843     -61.760  24.264  36.030  1.00 52.36 LIG-0.35  N 
ATOM      4 H    VAL D4843     -62.570  24.069  35.819  1.00 52.36 LIG 0.16  HD
ENDROOT
BRANCH 3 5
ATOM      5  CA  VAL D4843     -61.475  24.109  37.449  1.00 37.99 LIG 0.18  C 
BRANCH 5 6
ATOM      6  C   VAL D4843     -60.127  23.347  37.480  1.00 51.29 LIG 0.24  C 
ATOM      7  N   ASN D4844     -59.187  23.727  38.336  1.00 50.43 LIG-0.35  N 
ATOM      8 H    ASN D4844     -59.264  24.361  38.911  1.00 50.43 LIG 0.16  HD
ATOM      9 O    VAL D4843     -59.928  22.399  36.706  1.00 47.22 LIG-0.27  OA
BRANCH 7 10
ATOM     10  CA  ASN D4844     -57.895  23.026  38.329  1.00 46.88 LIG 0.17  C 
BRANCH 10 11
ATOM     11  CB  ASN D4844     -56.863  23.803  39.146  1.00 66.72 LIG 0.14  C 
BRANCH 11 12
ATOM     12  CG  ASN D4844     -56.118  24.834  38.321  1.00 62.42 LIG 0.22  C 
ATOM     13 OD1  ASN D4844     -54.888  24.907  38.346  1.00 56.11 LIG-0.27  OA
ATOM     14  ND2 ASN D4844     -56.869  25.642  37.581  1.00 67.26 LIG-0.37  N 
ATOM     15 21HD ASN D4844     -56.499  26.245  37.092  1.00 67.26 LIG 0.16  HD
ATOM     16 22HD ASN D4844     -57.726  25.561  37.590  1.00 67.26 LIG 0.16  HD
ENDBRANCH 11 12
ENDBRANCH 10 11
BRANCH 10 17
ATOM     17  C   ASN D4844     -57.933  21.553  38.772  1.00 52.57 LIG 0.22  C 
ATOM     18 O    ASN D4844     -57.881  20.628  37.944  1.00 48.91 LIG-0.29  OA
ENDBRANCH 10 17
ENDBRANCH 7 10
ENDBRANCH 5 6
BRANCH 5 19
ATOM     19  CB  VAL D4843     -62.640  23.288  38.083  1.00 37.59 LIG 0.01  C 
ATOM     20  CG1 VAL D4843     -62.430  23.040  39.550  1.00 42.19 LIG 0.01  C 
ATOM     21  CG2 VAL D4843     -63.991  23.959  37.823  1.00 33.91 LIG 0.01  C 
ENDBRANCH 5 19
ENDBRANCH 3 5
BRANCH 1 22
ATOM     22  CA  VAL D4842     -61.275  24.508  33.669  1.00 42.26 LIG 0.18  C 
BRANCH 22 23
ATOM     23  N   VAL D4842     -62.714  24.557  33.394  1.00 51.43 LIG-0.34  N 
ATOM     24 H    VAL D4842     -63.047  25.350  33.418  1.00 51.43 LIG 0.16  HD
ATOM     25  C   LEU D4841     -63.432  23.467  33.130  1.00 54.30 LIG 0.26  C 
ATOM     26 O    LEU D4841     -64.595  23.513  32.735  1.00 66.57 LIG-0.27  OA
BRANCH 25 27
ATOM     27  CA  LEU D4841     -62.727  22.130  33.304  1.00 50.85 LIG 0.40  C 
ATOM     28  N   LEU D4841     -63.694  21.028  33.292  1.00 66.18 LIG 0.61  N 
BRANCH 27 29
ATOM     29  CB  LEU D4841     -61.685  21.929  32.197  1.00 58.40 LIG 0.06  C 
BRANCH 29 30
ATOM     30  CG  LEU D4841     -60.445  21.099  32.553  1.00 54.26 LIG-0.02  C 
ATOM     31  CD2 LEU D4841     -60.780  19.605  32.782  1.00 54.78 LIG 0.01  C 
ATOM     32  CD1 LEU D4841     -59.693  21.693  33.752  1.00 32.44 LIG 0.01  C 
ENDBRANCH 29 30
ENDBRANCH 27 29
ENDBRANCH 25 27
ENDBRANCH 22 23
BRANCH 22 33
ATOM     33  CB  VAL D4842     -60.483  25.488  32.767  1.00 48.47 LIG 0.01  C 
ATOM     34  CG2 VAL D4842     -59.100  24.970  32.482  1.00 42.42 LIG 0.01  C 
ATOM     35  CG1 VAL D4842     -60.397  26.843  33.448  1.00 34.87 LIG 0.01  C 
ENDBRANCH 22 33
ENDBRANCH 1 22
TORSDOF 13
ENDMDL
MODEL 121
USER: ADFR SOLUTION from run 122
USER: SCORE 8.791314 LL:  -2.367 LR:  -7.140 RR:   0.000 FEB:  -3.263
USER: RMSD 8.385817
USER: SEED 121
USER: STATUS no improvement in best in 32 clusters for 5 generations
USER: GENES 15
USER: genes 0 Translation |==|  0.38418 0.47242 0.25196
USER: genes 1 Rotation |==|  0.04597 0.70579 0.52014 0.53315
USER: genes 2 Torsion [C]-N--CA-[CB] |==|  0.79896
USER: genes 3 Torsion [N]-CA--C-[N] |==|  0.13956
USER: genes 4 Torsion [C]-N--CA-[CB] |==|  0.39526
USER: genes 5 Torsion [N]-CA--CB-[CG] |==|  0.37607
USER: genes 6 Torsion [CA]-CB--CG-[OD1] |==|  0.77423
USER: genes 7 Torsion [N]-CA--C-[O] |==|  0.00558
USER: genes 8 Torsion [N]-CA--CB-[CG2] |==|  0.85866
USER: genes 9 Torsion [N]-C--CA-[N] |==|  0.87222
USER: genes 10 Torsion [C]-CA--N-[C] |==|  0.81078
USER: genes 11 Torsion [N]-C--CA-[N] |==|  0.46946
USER: genes 12 Torsion [C]-CA--CB-[CG] |==|  0.42636
USER: genes 13 Torsion [CA]-CB--CG-[CD2] |==|  0.00816
USER: genes 14 Torsion [C]-CA--CB-[CG2] |==|  0.60671
ROOT
ATOM      1  C   VAL D4842     -59.472  27.112  35.359  1.00 57.35 LIG 0.24  C 
ATOM      2 O    VAL D4842     -59.816  26.888  36.526  1.00 61.28 LIG-0.27  OA
ATOM      3  N   VAL D4843     -58.573  28.034  35.041  1.00 52.36 LIG-0.35  N 
ATOM      4 H    VAL D4843     -58.205  28.083  34.266  1.00 52.36 LIG 0.16  HD
ENDROOT
BRANCH 3 5
ATOM      5  CA  VAL D4843     -58.113  29.058  35.968  1.00 37.99 LIG 0.18  C 
BRANCH 5 6
ATOM      6  C   VAL D4843     -57.803  28.276  37.268  1.00 51.29 LIG 0.24  C 
ATOM      7  N   ASN D4844     -57.040  27.192  37.205  1.00 50.43 LIG-0.35  N 
ATOM      8 H    ASN D4844     -56.669  26.884  36.493  1.00 50.43 LIG 0.16  HD
ATOM      9 O    VAL D4843     -58.269  28.655  38.352  1.00 47.22 LIG-0.27  OA
BRANCH 7 10
ATOM     10  CA  ASN D4844     -56.785  26.430  38.437  1.00 46.88 LIG 0.17  C 
BRANCH 10 11
ATOM     11  CB  ASN D4844     -56.766  24.931  38.141  1.00 66.72 LIG 0.14  C 
BRANCH 11 12
ATOM     12  CG  ASN D4844     -55.613  24.214  38.817  1.00 62.42 LIG 0.22  C 
ATOM     13 OD1  ASN D4844     -54.481  24.223  38.331  1.00 56.11 LIG-0.27  OA
ATOM     14  ND2 ASN D4844     -55.902  23.587  39.951  1.00 67.26 LIG-0.37  N 
ATOM     15 21HD ASN D4844     -55.286  23.165  40.378  1.00 67.26 LIG 0.16  HD
ATOM     16 22HD ASN D4844     -56.705  23.604  40.259  1.00 67.26 LIG 0.16  HD
ENDBRANCH 11 12
ENDBRANCH 10 11
BRANCH 10 17
ATOM     17  C   ASN D4844     -55.529  26.839  39.226  1.00 52.57 LIG 0.22  C 
ATOM     18 O    ASN D4844     -54.810  27.781  38.853  1.00 48.91 LIG-0.29  OA
ENDBRANCH 10 17
ENDBRANCH 7 10
ENDBRANCH 5 6
BRANCH 5 19
ATOM     19  CB  VAL D4843     -59.270  30.088  36.154  1.00 37.59 LIG 0.01  C 
ATOM     20  CG1 VAL D4843     -58.869  31.246  37.023  1.00 42.19 LIG 0.01  C 
ATOM     21  CG2 VAL D4843     -59.799  30.570  34.800  1.00 33.91 LIG 0.01  C 
ENDBRANCH 5 19
ENDBRANCH 3 5
BRANCH 1 22
ATOM     22  CA  VAL D4842     -60.022  26.298  34.171  1.00 42.26 LIG 0.18  C 
BRANCH 22 23
ATOM     23  N   VAL D4842     -60.413  27.067  32.986  1.00 51.43 LIG-0.34  N 
ATOM     24 H    VAL D4842     -59.908  26.935  32.302  1.00 51.43 LIG 0.16  HD
ATOM     25  C   LEU D4841     -61.457  27.893  32.980  1.00 54.30 LIG 0.26  C 
ATOM     26 O    LEU D4841     -61.892  28.410  31.953  1.00 66.57 LIG-0.27  OA
BRANCH 25 27
ATOM     27  CA  LEU D4841     -62.132  28.147  34.320  1.00 50.85 LIG 0.40  C 
ATOM     28  N   LEU D4841     -63.084  29.257  34.219  1.00 66.18 LIG 0.61  N 
BRANCH 27 29
ATOM     29  CB  LEU D4841     -62.849  26.881  34.804  1.00 58.40 LIG 0.06  C 
BRANCH 29 30
ATOM     30  CG  LEU D4841     -63.032  26.724  36.319  1.00 54.26 LIG-0.02  C 
ATOM     31  CD2 LEU D4841     -62.505  27.947  37.107  1.00 54.78 LIG 0.01  C 
ATOM     32  CD1 LEU D4841     -62.410  25.418  36.831  1.00 32.44 LIG 0.01  C 
ENDBRANCH 29 30
ENDBRANCH 27 29
ENDBRANCH 25 27
ENDBRANCH 22 23
BRANCH 22 33
ATOM     33  CB  VAL D4842     -59.060  25.137  33.812  1.00 48.47 LIG 0.01  C 
ATOM     34  CG2 VAL D4842     -58.972  24.941  32.324  1.00 42.42 LIG 0.01  C 
ATOM     35  CG1 VAL D4842     -59.543  23.858  34.476  1.00 34.87 LIG 0.01  C 
ENDBRANCH 22 33
ENDBRANCH 1 22
TORSDOF 13
ENDMDL
MODEL 122
USER: ADFR SOLUTION from run 35
USER: SCORE 8.910079 LL:  -2.566 LR:  -7.127 RR:   0.000 FEB:  -3.249
USER: RMSD 7.785930
USER: SEED 34
USER: STATUS no improvement in best in 48 clusters for 5 generations
USER: GENES 15
USER: genes 0 Translation |==|  0.30652 0.46272 0.18797
USER: genes 1 Rotation |==|  0.33870 0.64807 0.23177 0.86071
USER: genes 2 Torsion [C]-N--CA-[CB] |==|  0.90418
USER: genes 3 Torsion [N]-CA--C-[N] |==|  0.83342
USER: genes 4 Torsion [C]-N--CA-[CB] |==|  0.50539
USER: genes 5 Torsion [N]-CA--CB-[CG] |==|  0.23424
USER: genes 6 Torsion [CA]-CB--CG-[OD1] |==|  0.82552
USER: genes 7 Torsion [N]-CA--C-[O] |==|  0.32249
USER: genes 8 Torsion [N]-CA--CB-[CG2] |==|  0.76339
USER: genes 9 Torsion [N]-C--CA-[N] |==|  0.95305
USER: genes 10 Torsion [C]-CA--N-[C] |==|  0.78450
USER: genes 11 Torsion [N]-C--CA-[N] |==|  0.35594
USER: genes 12 Torsion [C]-CA--CB-[CG] |==|  0.46988
USER: genes 13 Torsion [CA]-CB--CG-[CD2] |==|  0.90983
USER: genes 14 Torsion [C]-CA--CB-[CG2] |==|  0.18131
ROOT
ATOM      1  C   VAL D4842     -61.103  26.952  34.400  1.00 57.35 LIG 0.24  C 
ATOM      2 O    VAL D4842     -61.892  27.045  33.451  1.00 61.28 LIG-0.27  OA
ATOM      3  N   VAL D4843     -61.506  26.796  35.654  1.00 52.36 LIG-0.35  N 
ATOM      4 H    VAL D4843     -60.977  26.563  36.291  1.00 52.36 LIG 0.16  HD
ENDROOT
BRANCH 3 5
ATOM      5  CA  VAL D4843     -62.881  27.002  36.086  1.00 37.99 LIG 0.18  C 
BRANCH 5 6
ATOM      6  C   VAL D4843     -63.570  25.645  35.802  1.00 51.29 LIG 0.24  C 
ATOM      7  N   ASN D4844     -63.600  25.181  34.559  1.00 50.43 LIG-0.35  N 
ATOM      8 H    ASN D4844     -63.243  25.561  33.877  1.00 50.43 LIG 0.16  HD
ATOM      9 O    VAL D4843     -64.093  25.005  36.726  1.00 47.22 LIG-0.27  OA
BRANCH 7 10
ATOM     10  CA  ASN D4844     -64.294  23.912  34.292  1.00 46.88 LIG 0.17  C 
BRANCH 10 11
ATOM     11  CB  ASN D4844     -64.169  23.538  32.815  1.00 66.72 LIG 0.14  C 
BRANCH 11 12
ATOM     12  CG  ASN D4844     -62.876  22.811  32.502  1.00 62.42 LIG 0.22  C 
ATOM     13 OD1  ASN D4844     -61.781  23.354  32.661  1.00 56.11 LIG-0.27  OA
ATOM     14  ND2 ASN D4844     -63.001  21.567  32.053  1.00 67.26 LIG-0.37  N 
ATOM     15 21HD ASN D4844     -62.300  21.107  31.861  1.00 67.26 LIG 0.16  HD
ATOM     16 22HD ASN D4844     -63.783  21.222  31.955  1.00 67.26 LIG 0.16  HD
ENDBRANCH 11 12
ENDBRANCH 10 11
BRANCH 10 17
ATOM     17  C   ASN D4844     -63.885  22.728  35.184  1.00 52.57 LIG 0.22  C 
ATOM     18 O    ASN D4844     -64.694  22.194  35.960  1.00 48.91 LIG-0.29  OA
ENDBRANCH 10 17
ENDBRANCH 7 10
ENDBRANCH 5 6
BRANCH 5 19
ATOM     19  CB  VAL D4843     -63.479  28.165  35.235  1.00 37.59 LIG 0.01  C 
ATOM     20  CG1 VAL D4843     -64.960  28.016  35.028  1.00 42.19 LIG 0.01  C 
ATOM     21  CG2 VAL D4843     -63.140  29.526  35.849  1.00 33.91 LIG 0.01  C 
ENDBRANCH 5 19
ENDBRANCH 3 5
BRANCH 1 22
ATOM     22  CA  VAL D4842     -59.575  26.955  34.200  1.00 42.26 LIG 0.18  C 
BRANCH 22 23
ATOM     23  N   VAL D4842     -58.765  27.173  35.402  1.00 51.43 LIG-0.34  N 
ATOM     24 H    VAL D4842     -58.413  26.456  35.721  1.00 51.43 LIG 0.16  HD
ATOM     25  C   LEU D4841     -58.596  28.378  35.943  1.00 54.30 LIG 0.26  C 
ATOM     26 O    LEU D4841     -57.790  28.597  36.845  1.00 66.57 LIG-0.27  OA
BRANCH 25 27
ATOM     27  CA  LEU D4841     -59.431  29.509  35.361  1.00 50.85 LIG 0.40  C 
ATOM     28  N   LEU D4841     -60.145  30.226  36.422  1.00 66.18 LIG 0.61  N 
BRANCH 27 29
ATOM     29  CB  LEU D4841     -58.541  30.480  34.576  1.00 58.40 LIG 0.06  C 
BRANCH 29 30
ATOM     30  CG  LEU D4841     -59.252  31.531  33.714  1.00 54.26 LIG-0.02  C 
ATOM     31  CD2 LEU D4841     -60.591  31.013  33.136  1.00 54.78 LIG 0.01  C 
ATOM     32  CD1 LEU D4841     -58.335  32.067  32.606  1.00 32.44 LIG 0.01  C 
ENDBRANCH 29 30
ENDBRANCH 27 29
ENDBRANCH 25 27
ENDBRANCH 22 23
BRANCH 22 33
ATOM     33  CB  VAL D4842     -59.123  25.692  33.423  1.00 48.47 LIG 0.01  C 
ATOM     34  CG2 VAL D4842     -59.665  25.690  32.021  1.00 42.42 LIG 0.01  C 
ATOM     35  CG1 VAL D4842     -59.594  24.450  34.162  1.00 34.87 LIG 0.01  C 
ENDBRANCH 22 33
ENDBRANCH 1 22
TORSDOF 13
ENDMDL
MODEL 123
USER: ADFR SOLUTION from run 42
USER: SCORE 8.865960 LL:  -2.639 LR:  -7.127 RR:   0.000 FEB:  -3.249
USER: RMSD 7.674741
USER: SEED 41
USER: STATUS no improvement in best in 34 clusters for 5 generations
USER: GENES 15
USER: genes 0 Translation |==|  0.38326 0.52240 0.32487
USER: genes 1 Rotation |==|  0.39755 0.96827 0.45172 0.63378
USER: genes 2 Torsion [C]-N--CA-[CB] |==|  0.47252
USER: genes 3 Torsion [N]-CA--C-[N] |==|  0.42832
USER: genes 4 Torsion [C]-N--CA-[CB] |==|  0.81371
USER: genes 5 Torsion [N]-CA--CB-[CG] |==|  0.82546
USER: genes 6 Torsion [CA]-CB--CG-[OD1] |==|  0.33591
USER: genes 7 Torsion [N]-CA--C-[O] |==|  0.77139
USER: genes 8 Torsion [N]-CA--CB-[CG2] |==|  0.76008
USER: genes 9 Torsion [N]-C--CA-[N] |==|  0.37556
USER: genes 10 Torsion [C]-CA--N-[C] |==|  0.78942
USER: genes 11 Torsion [N]-C--CA-[N] |==|  0.41179
USER: genes 12 Torsion [C]-CA--CB-[CG] |==|  0.36392
USER: genes 13 Torsion [CA]-CB--CG-[CD2] |==|  0.53784
USER: genes 14 Torsion [C]-CA--CB-[CG2] |==|  0.90354
ROOT
ATOM      1  C   VAL D4842     -59.492  27.937  36.453  1.00 57.35 LIG 0.24  C 
ATOM      2 O    VAL D4842     -60.069  28.384  37.451  1.00 61.28 LIG-0.27  OA
ATOM      3  N   VAL D4843     -58.798  26.805  36.473  1.00 52.36 LIG-0.35  N 
ATOM      4 H    VAL D4843     -58.539  26.402  35.759  1.00 52.36 LIG 0.16  HD
ENDROOT
BRANCH 3 5
ATOM      5  CA  VAL D4843     -58.404  26.128  37.699  1.00 37.99 LIG 0.18  C 
BRANCH 5 6
ATOM      6  C   VAL D4843     -57.324  27.055  38.309  1.00 51.29 LIG 0.24  C 
ATOM      7  N   ASN D4844     -57.120  27.037  39.620  1.00 50.43 LIG-0.35  N 
ATOM      8 H    ASN D4844     -57.527  26.528  40.181  1.00 50.43 LIG 0.16  HD
ATOM      9 O    VAL D4843     -56.665  27.810  37.580  1.00 47.22 LIG-0.27  OA
BRANCH 7 10
ATOM     10  CA  ASN D4844     -56.123  27.951  40.197  1.00 46.88 LIG 0.17  C 
BRANCH 10 11
ATOM     11  CB  ASN D4844     -54.718  27.564  39.739  1.00 66.72 LIG 0.14  C 
BRANCH 11 12
ATOM     12  CG  ASN D4844     -54.307  26.183  40.212  1.00 62.42 LIG 0.22  C 
ATOM     13 OD1  ASN D4844     -54.000  25.297  39.412  1.00 56.11 LIG-0.27  OA
ATOM     14  ND2 ASN D4844     -54.300  25.996  41.527  1.00 67.26 LIG-0.37  N 
ATOM     15 21HD ASN D4844     -54.074  25.231  41.851  1.00 67.26 LIG 0.16  HD
ATOM     16 22HD ASN D4844     -54.521  26.639  42.054  1.00 67.26 LIG 0.16  HD
ENDBRANCH 11 12
ENDBRANCH 10 11
BRANCH 10 17
ATOM     17  C   ASN D4844     -56.375  29.450  39.955  1.00 52.57 LIG 0.22  C 
ATOM     18 O    ASN D4844     -56.039  29.998  38.893  1.00 48.91 LIG-0.29  OA
ENDBRANCH 10 17
ENDBRANCH 7 10
ENDBRANCH 5 6
BRANCH 5 19
ATOM     19  CB  VAL D4843     -57.838  24.727  37.311  1.00 37.59 LIG 0.01  C 
ATOM     20  CG1 VAL D4843     -56.766  24.264  38.255  1.00 42.19 LIG 0.01  C 
ATOM     21  CG2 VAL D4843     -58.962  23.693  37.198  1.00 33.91 LIG 0.01  C 
ENDBRANCH 5 19
ENDBRANCH 3 5
BRANCH 1 22
ATOM     22  CA  VAL D4842     -59.571  28.630  35.079  1.00 42.26 LIG 0.18  C 
BRANCH 22 23
ATOM     23  N   VAL D4842     -60.892  29.128  34.681  1.00 51.43 LIG-0.34  N 
ATOM     24 H    VAL D4842     -60.979  29.981  34.750  1.00 51.43 LIG 0.16  HD
ATOM     25  C   LEU D4841     -61.862  28.323  34.253  1.00 54.30 LIG 0.26  C 
ATOM     26 O    LEU D4841     -62.908  28.742  33.761  1.00 66.57 LIG-0.27  OA
BRANCH 25 27
ATOM     27  CA  LEU D4841     -61.604  26.827  34.363  1.00 50.85 LIG 0.40  C 
ATOM     28  N   LEU D4841     -62.855  26.101  34.601  1.00 66.18 LIG 0.61  N 
BRANCH 27 29
ATOM     29  CB  LEU D4841     -60.927  26.308  33.089  1.00 58.40 LIG 0.06  C 
BRANCH 29 30
ATOM     30  CG  LEU D4841     -59.679  25.435  33.273  1.00 54.26 LIG-0.02  C 
ATOM     31  CD2 LEU D4841     -58.890  25.247  31.955  1.00 54.78 LIG 0.01  C 
ATOM     32  CD1 LEU D4841     -60.024  24.084  33.915  1.00 32.44 LIG 0.01  C 
ENDBRANCH 29 30
ENDBRANCH 27 29
ENDBRANCH 25 27
ENDBRANCH 22 23
BRANCH 22 33
ATOM     33  CB  VAL D4842     -58.482  29.726  34.956  1.00 48.47 LIG 0.01  C 
ATOM     34  CG2 VAL D4842     -58.237  30.403  36.275  1.00 42.42 LIG 0.01  C 
ATOM     35  CG1 VAL D4842     -58.914  30.751  33.920  1.00 34.87 LIG 0.01  C 
ENDBRANCH 22 33
ENDBRANCH 1 22
TORSDOF 13
ENDMDL
MODEL 124
USER: ADFR SOLUTION from run 186
USER: SCORE 8.002594 LL:  -2.569 LR:  -7.107 RR:   0.000 FEB:  -3.229
USER: RMSD 8.337391
USER: SEED 185
USER: STATUS no improvement in best in 73 clusters for 5 generations
USER: GENES 15
USER: genes 0 Translation |==|  0.35767 0.36476 0.32163
USER: genes 1 Rotation |==|  0.15966 0.79946 0.55735 0.70300
USER: genes 2 Torsion [C]-N--CA-[CB] |==|  0.28333
USER: genes 3 Torsion [N]-CA--C-[N] |==|  0.39472
USER: genes 4 Torsion [C]-N--CA-[CB] |==|  0.82115
USER: genes 5 Torsion [N]-CA--CB-[CG] |==|  0.49636
USER: genes 6 Torsion [CA]-CB--CG-[OD1] |==|  0.65350
USER: genes 7 Torsion [N]-CA--C-[O] |==|  0.91088
USER: genes 8 Torsion [N]-CA--CB-[CG2] |==|  0.74127
USER: genes 9 Torsion [N]-C--CA-[N] |==|  0.54841
USER: genes 10 Torsion [C]-CA--N-[C] |==|  0.75959
USER: genes 11 Torsion [N]-C--CA-[N] |==|  0.39872
USER: genes 12 Torsion [C]-CA--CB-[CG] |==|  0.33274
USER: genes 13 Torsion [CA]-CB--CG-[CD2] |==|  0.09125
USER: genes 14 Torsion [C]-CA--CB-[CG2] |==|  0.84941
ROOT
ATOM      1  C   VAL D4842     -60.029  25.335  36.405  1.00 57.35 LIG 0.24  C 
ATOM      2 O    VAL D4842     -60.748  24.686  37.174  1.00 61.28 LIG-0.27  OA
ATOM      3  N   VAL D4843     -58.761  25.617  36.675  1.00 52.36 LIG-0.35  N 
ATOM      4 H    VAL D4843     -58.211  25.915  36.085  1.00 52.36 LIG 0.16  HD
ENDROOT
BRANCH 3 5
ATOM      5  CA  VAL D4843     -58.167  25.452  37.994  1.00 37.99 LIG 0.18  C 
BRANCH 5 6
ATOM      6  C   VAL D4843     -57.288  26.715  38.170  1.00 51.29 LIG 0.24  C 
ATOM      7  N   ASN D4844     -57.217  27.294  39.362  1.00 50.43 LIG-0.35  N 
ATOM      8 H    ASN D4844     -57.606  27.013  40.075  1.00 50.43 LIG 0.16  HD
ATOM      9 O    VAL D4843     -56.666  27.182  37.205  1.00 47.22 LIG-0.27  OA
BRANCH 7 10
ATOM     10  CA  ASN D4844     -56.415  28.517  39.511  1.00 46.88 LIG 0.17  C 
BRANCH 10 11
ATOM     11  CB  ASN D4844     -54.938  28.220  39.249  1.00 66.72 LIG 0.14  C 
BRANCH 11 12
ATOM     12  CG  ASN D4844     -54.064  29.455  39.358  1.00 62.42 LIG 0.22  C 
ATOM     13 OD1  ASN D4844     -53.329  29.803  38.432  1.00 56.11 LIG-0.27  OA
ATOM     14  ND2 ASN D4844     -54.143  30.125  40.501  1.00 67.26 LIG-0.37  N 
ATOM     15 21HD ASN D4844     -53.670  30.834  40.618  1.00 67.26 LIG 0.16  HD
ATOM     16 22HD ASN D4844     -54.668  29.851  41.126  1.00 67.26 LIG 0.16  HD
ENDBRANCH 11 12
ENDBRANCH 10 11
BRANCH 10 17
ATOM     17  C   ASN D4844     -56.878  29.723  38.677  1.00 52.57 LIG 0.22  C 
ATOM     18 O    ASN D4844     -57.415  29.574  37.567  1.00 48.91 LIG-0.29  OA
ENDBRANCH 10 17
ENDBRANCH 7 10
ENDBRANCH 5 6
BRANCH 5 19
ATOM     19  CB  VAL D4843     -57.327  24.138  37.978  1.00 37.59 LIG 0.01  C 
ATOM     20  CG1 VAL D4843     -56.049  24.268  38.757  1.00 42.19 LIG 0.01  C 
ATOM     21  CG2 VAL D4843     -58.157  22.949  38.471  1.00 33.91 LIG 0.01  C 
ENDBRANCH 5 19
ENDBRANCH 3 5
BRANCH 1 22
ATOM     22  CA  VAL D4842     -60.530  25.831  35.034  1.00 42.26 LIG 0.18  C 
BRANCH 22 23
ATOM     23  N   VAL D4842     -61.985  25.897  34.862  1.00 51.43 LIG-0.34  N 
ATOM     24 H    VAL D4842     -62.323  26.667  35.043  1.00 51.43 LIG 0.16  HD
ATOM     25  C   LEU D4841     -62.708  24.853  34.462  1.00 54.30 LIG 0.26  C 
ATOM     26 O    LEU D4841     -63.894  24.942  34.155  1.00 66.57 LIG-0.27  OA
BRANCH 25 27
ATOM     27  CA  LEU D4841     -61.980  23.521  34.359  1.00 50.85 LIG 0.40  C 
ATOM     28  N   LEU D4841     -62.856  22.418  34.764  1.00 66.18 LIG 0.61  N 
BRANCH 27 29
ATOM     29  CB  LEU D4841     -61.479  23.296  32.926  1.00 58.40 LIG 0.06  C 
BRANCH 29 30
ATOM     30  CG  LEU D4841     -59.966  23.134  32.738  1.00 54.26 LIG-0.02  C 
ATOM     31  CD2 LEU D4841     -59.291  22.438  33.944  1.00 54.78 LIG 0.01  C 
ATOM     32  CD1 LEU D4841     -59.290  24.474  32.417  1.00 32.44 LIG 0.01  C 
ENDBRANCH 29 30
ENDBRANCH 27 29
ENDBRANCH 25 27
ENDBRANCH 22 23
BRANCH 22 33
ATOM     33  CB  VAL D4842     -59.844  27.167  34.651  1.00 48.47 LIG 0.01  C 
ATOM     34  CG2 VAL D4842     -60.016  28.198  35.732  1.00 42.42 LIG 0.01  C 
ATOM     35  CG1 VAL D4842     -60.433  27.681  33.348  1.00 34.87 LIG 0.01  C 
ENDBRANCH 22 33
ENDBRANCH 1 22
TORSDOF 13
ENDMDL
MODEL 125
USER: ADFR SOLUTION from run 31
USER: SCORE 8.328445 LL:  -2.971 LR:  -7.111 RR:   0.000 FEB:  -3.233
USER: RMSD 7.114543
USER: SEED 30
USER: STATUS no improvement in best in 5 clusters for 5 generations
USER: GENES 15
USER: genes 0 Translation |==|  0.38378 0.34273 0.32672
USER: genes 1 Rotation |==|  0.84940 0.67661 0.77810 0.63925
USER: genes 2 Torsion [C]-N--CA-[CB] |==|  0.42158
USER: genes 3 Torsion [N]-CA--C-[N] |==|  0.21796
USER: genes 4 Torsion [C]-N--CA-[CB] |==|  0.38097
USER: genes 5 Torsion [N]-CA--CB-[CG] |==|  0.96346
USER: genes 6 Torsion [CA]-CB--CG-[OD1] |==|  0.79347
USER: genes 7 Torsion [N]-CA--C-[O] |==|  0.99204
USER: genes 8 Torsion [N]-CA--CB-[CG2] |==|  0.92465
USER: genes 9 Torsion [N]-C--CA-[N] |==|  0.12194
USER: genes 10 Torsion [C]-CA--N-[C] |==|  0.15087
USER: genes 11 Torsion [N]-C--CA-[N] |==|  0.31582
USER: genes 12 Torsion [C]-CA--CB-[CG] |==|  0.35674
USER: genes 13 Torsion [CA]-CB--CG-[CD2] |==|  0.47833
USER: genes 14 Torsion [C]-CA--CB-[CG2] |==|  0.54941
ROOT
ATOM      1  C   VAL D4842     -59.481  24.972  36.481  1.00 57.35 LIG 0.24  C 
ATOM      2 O    VAL D4842     -60.603  24.619  36.864  1.00 61.28 LIG-0.27  OA
ATOM      3  N   VAL D4843     -59.290  25.677  35.373  1.00 52.36 LIG-0.35  N 
ATOM      4 H    VAL D4843     -58.547  26.068  35.188  1.00 52.36 LIG 0.16  HD
ENDROOT
BRANCH 3 5
ATOM      5  CA  VAL D4843     -60.314  25.863  34.355  1.00 37.99 LIG 0.18  C 
BRANCH 5 6
ATOM      6  C   VAL D4843     -60.126  24.653  33.408  1.00 51.29 LIG 0.24  C 
ATOM      7  N   ASN D4844     -60.603  23.468  33.768  1.00 50.43 LIG-0.35  N 
ATOM      8 H    ASN D4844     -61.041  23.306  34.489  1.00 50.43 LIG 0.16  HD
ATOM      9 O    VAL D4843     -59.530  24.791  32.330  1.00 47.22 LIG-0.27  OA
BRANCH 7 10
ATOM     10  CA  ASN D4844     -60.383  22.315  32.882  1.00 46.88 LIG 0.17  C 
BRANCH 10 11
ATOM     11  CB  ASN D4844     -59.986  21.085  33.699  1.00 66.72 LIG 0.14  C 
BRANCH 11 12
ATOM     12  CG  ASN D4844     -59.613  21.426  35.128  1.00 62.42 LIG 0.22  C 
ATOM     13 OD1  ASN D4844     -58.540  21.970  35.398  1.00 56.11 LIG-0.27  OA
ATOM     14  ND2 ASN D4844     -60.507  21.105  36.056  1.00 67.26 LIG-0.37  N 
ATOM     15 21HD ASN D4844     -60.348  21.276  36.884  1.00 67.26 LIG 0.16  HD
ATOM     16 22HD ASN D4844     -61.245  20.725  35.829  1.00 67.26 LIG 0.16  HD
ENDBRANCH 11 12
ENDBRANCH 10 11
BRANCH 10 17
ATOM     17  C   ASN D4844     -61.540  21.977  31.928  1.00 52.57 LIG 0.22  C 
ATOM     18 O    ASN D4844     -62.607  22.612  31.955  1.00 48.91 LIG-0.29  OA
ENDBRANCH 10 17
ENDBRANCH 7 10
ENDBRANCH 5 6
BRANCH 5 19
ATOM     19  CB  VAL D4843     -60.040  27.225  33.646  1.00 37.59 LIG 0.01  C 
ATOM     20  CG1 VAL D4843     -61.294  27.843  33.095  1.00 42.19 LIG 0.01  C 
ATOM     21  CG2 VAL D4843     -59.309  28.194  34.580  1.00 33.91 LIG 0.01  C 
ENDBRANCH 5 19
ENDBRANCH 3 5
BRANCH 1 22
ATOM     22  CA  VAL D4842     -58.204  24.669  37.290  1.00 42.26 LIG 0.18  C 
BRANCH 22 23
ATOM     23  N   VAL D4842     -57.266  25.782  37.460  1.00 51.43 LIG-0.34  N 
ATOM     24 H    VAL D4842     -56.464  25.604  37.205  1.00 51.43 LIG 0.16  HD
ATOM     25  C   LEU D4841     -57.633  26.958  37.964  1.00 54.30 LIG 0.26  C 
ATOM     26 O    LEU D4841     -56.901  27.945  37.955  1.00 66.57 LIG-0.27  OA
BRANCH 25 27
ATOM     27  CA  LEU D4841     -59.043  27.046  38.531  1.00 50.85 LIG 0.40  C 
ATOM     28  N   LEU D4841     -59.007  27.256  39.981  1.00 66.18 LIG 0.61  N 
BRANCH 27 29
ATOM     29  CB  LEU D4841     -59.819  28.182  37.853  1.00 58.40 LIG 0.06  C 
BRANCH 29 30
ATOM     30  CG  LEU D4841     -61.195  27.831  37.273  1.00 54.26 LIG-0.02  C 
ATOM     31  CD2 LEU D4841     -61.968  29.082  36.789  1.00 54.78 LIG 0.01  C 
ATOM     32  CD1 LEU D4841     -62.031  27.005  38.260  1.00 32.44 LIG 0.01  C 
ENDBRANCH 29 30
ENDBRANCH 27 29
ENDBRANCH 25 27
ENDBRANCH 22 23
BRANCH 22 33
ATOM     33  CB  VAL D4842     -58.561  24.004  38.644  1.00 48.47 LIG 0.01  C 
ATOM     34  CG2 VAL D4842     -57.414  24.091  39.613  1.00 42.42 LIG 0.01  C 
ATOM     35  CG1 VAL D4842     -58.931  22.549  38.410  1.00 34.87 LIG 0.01  C 
ENDBRANCH 22 33
ENDBRANCH 1 22
TORSDOF 13
ENDMDL
MODEL 126
USER: ADFR SOLUTION from run 144
USER: SCORE 8.615321 LL:  -2.418 LR:  -7.093 RR:   0.000 FEB:  -3.215
USER: RMSD 5.595334
USER: SEED 143
USER: STATUS no improvement in best in 60 clusters for 5 generations
USER: GENES 15
USER: genes 0 Translation |==|  0.39270 0.39480 0.34960
USER: genes 1 Rotation |==|  0.43876 0.78293 0.61221 0.89193
USER: genes 2 Torsion [C]-N--CA-[CB] |==|  0.82222
USER: genes 3 Torsion [N]-CA--C-[N] |==|  0.12856
USER: genes 4 Torsion [C]-N--CA-[CB] |==|  0.49092
USER: genes 5 Torsion [N]-CA--CB-[CG] |==|  0.84648
USER: genes 6 Torsion [CA]-CB--CG-[OD1] |==|  0.66312
USER: genes 7 Torsion [N]-CA--C-[O] |==|  0.92930
USER: genes 8 Torsion [N]-CA--CB-[CG2] |==|  0.86265
USER: genes 9 Torsion [N]-C--CA-[N] |==|  0.98098
USER: genes 10 Torsion [C]-CA--N-[C] |==|  0.75283
USER: genes 11 Torsion [N]-C--CA-[N] |==|  0.43799
USER: genes 12 Torsion [C]-CA--CB-[CG] |==|  0.41244
USER: genes 13 Torsion [CA]-CB--CG-[CD2] |==|  0.76524
USER: genes 14 Torsion [C]-CA--CB-[CG2] |==|  0.51722
ROOT
ATOM      1  C   VAL D4842     -59.293  25.831  36.824  1.00 57.35 LIG 0.24  C 
ATOM      2 O    VAL D4842     -60.479  25.523  36.650  1.00 61.28 LIG-0.27  OA
ATOM      3  N   VAL D4843     -58.328  24.928  36.940  1.00 52.36 LIG-0.35  N 
ATOM      4 H    VAL D4843     -57.492  25.126  36.891  1.00 52.36 LIG 0.16  HD
ENDROOT
BRANCH 3 5
ATOM      5  CA  VAL D4843     -58.578  23.512  37.162  1.00 37.99 LIG 0.18  C 
BRANCH 5 6
ATOM      6  C   VAL D4843     -59.505  23.106  35.990  1.00 51.29 LIG 0.24  C 
ATOM      7  N   ASN D4844     -59.201  23.496  34.758  1.00 50.43 LIG-0.35  N 
ATOM      8 H    ASN D4844     -58.504  23.948  34.537  1.00 50.43 LIG 0.16  HD
ATOM      9 O    VAL D4843     -60.523  22.432  36.203  1.00 47.22 LIG-0.27  OA
BRANCH 7 10
ATOM     10  CA  ASN D4844     -60.109  23.144  33.657  1.00 46.88 LIG 0.17  C 
BRANCH 10 11
ATOM     11  CB  ASN D4844     -59.617  23.755  32.345  1.00 66.72 LIG 0.14  C 
BRANCH 11 12
ATOM     12  CG  ASN D4844     -59.427  25.257  32.433  1.00 62.42 LIG 0.22  C 
ATOM     13 OD1  ASN D4844     -60.037  26.024  31.686  1.00 56.11 LIG-0.27  OA
ATOM     14  ND2 ASN D4844     -58.573  25.683  33.356  1.00 67.26 LIG-0.37  N 
ATOM     15 21HD ASN D4844     -58.427  26.526  33.451  1.00 67.26 LIG 0.16  HD
ATOM     16 22HD ASN D4844     -58.165  25.117  33.859  1.00 67.26 LIG 0.16  HD
ENDBRANCH 11 12
ENDBRANCH 10 11
BRANCH 10 17
ATOM     17  C   ASN D4844     -60.390  21.642  33.479  1.00 52.57 LIG 0.22  C 
ATOM     18 O    ASN D4844     -59.581  20.783  33.865  1.00 48.91 LIG-0.29  OA
ENDBRANCH 10 17
ENDBRANCH 7 10
ENDBRANCH 5 6
BRANCH 5 19
ATOM     19  CB  VAL D4843     -59.272  23.361  38.552  1.00 37.59 LIG 0.01  C 
ATOM     20  CG1 VAL D4843     -59.461  21.923  38.941  1.00 42.19 LIG 0.01  C 
ATOM     21  CG2 VAL D4843     -58.509  24.132  39.633  1.00 33.91 LIG 0.01  C 
ENDBRANCH 5 19
ENDBRANCH 3 5
BRANCH 1 22
ATOM     22  CA  VAL D4842     -58.824  27.298  36.867  1.00 42.26 LIG 0.18  C 
BRANCH 22 23
ATOM     23  N   VAL D4842     -57.409  27.517  37.184  1.00 51.43 LIG-0.34  N 
ATOM     24 H    VAL D4842     -56.898  27.548  36.493  1.00 51.43 LIG 0.16  HD
ATOM     25  C   LEU D4841     -56.967  27.652  38.432  1.00 54.30 LIG 0.26  C 
ATOM     26 O    LEU D4841     -55.819  28.000  38.699  1.00 66.57 LIG-0.27  OA
BRANCH 25 27
ATOM     27  CA  LEU D4841     -57.974  27.391  39.543  1.00 50.85 LIG 0.40  C 
ATOM     28  N   LEU D4841     -57.289  27.053  40.795  1.00 66.18 LIG 0.61  N 
BRANCH 27 29
ATOM     29  CB  LEU D4841     -58.871  28.617  39.749  1.00 58.40 LIG 0.06  C 
BRANCH 29 30
ATOM     30  CG  LEU D4841     -60.310  28.355  40.211  1.00 54.26 LIG-0.02  C 
ATOM     31  CD2 LEU D4841     -61.261  28.038  39.032  1.00 54.78 LIG 0.01  C 
ATOM     32  CD1 LEU D4841     -60.848  29.509  41.068  1.00 32.44 LIG 0.01  C 
ENDBRANCH 29 30
ENDBRANCH 27 29
ENDBRANCH 25 27
ENDBRANCH 22 23
BRANCH 22 33
ATOM     33  CB  VAL D4842     -59.246  28.045  35.576  1.00 48.47 LIG 0.01  C 
ATOM     34  CG2 VAL D4842     -58.668  29.433  35.534  1.00 42.42 LIG 0.01  C 
ATOM     35  CG1 VAL D4842     -60.763  28.114  35.507  1.00 34.87 LIG 0.01  C 
ENDBRANCH 22 33
ENDBRANCH 1 22
TORSDOF 13
ENDMDL
MODEL 127
USER: ADFR SOLUTION from run 66
USER: SCORE 8.555186 LL:  -3.290 LR:  -7.077 RR:   0.000 FEB:  -3.199
USER: RMSD 5.916761
USER: SEED 65
USER: STATUS no improvement in best in 29 clusters for 5 generations
USER: GENES 15
USER: genes 0 Translation |==|  0.46176 0.47937 0.37499
USER: genes 1 Rotation |==|  0.40578 0.07622 0.49092 0.74789
USER: genes 2 Torsion [C]-N--CA-[CB] |==|  0.30458
USER: genes 3 Torsion [N]-CA--C-[N] |==|  0.10955
USER: genes 4 Torsion [C]-N--CA-[CB] |==|  0.20004
USER: genes 5 Torsion [N]-CA--CB-[CG] |==|  0.11752
USER: genes 6 Torsion [CA]-CB--CG-[OD1] |==|  0.85227
USER: genes 7 Torsion [N]-CA--C-[O] |==|  0.78410
USER: genes 8 Torsion [N]-CA--CB-[CG2] |==|  0.51837
USER: genes 9 Torsion [N]-C--CA-[N] |==|  0.39300
USER: genes 10 Torsion [C]-CA--N-[C] |==|  0.73873
USER: genes 11 Torsion [N]-C--CA-[N] |==|  0.43458
USER: genes 12 Torsion [C]-CA--CB-[CG] |==|  0.31426
USER: genes 13 Torsion [CA]-CB--CG-[CD2] |==|  0.54189
USER: genes 14 Torsion [C]-CA--CB-[CG2] |==|  0.56471
ROOT
ATOM      1  C   VAL D4842     -57.843  27.227  37.205  1.00 57.35 LIG 0.24  C 
ATOM      2 O    VAL D4842     -56.665  27.188  37.580  1.00 61.28 LIG-0.27  OA
ATOM      3  N   VAL D4843     -58.608  26.145  37.133  1.00 52.36 LIG-0.35  N 
ATOM      4 H    VAL D4843     -59.462  26.180  37.040  1.00 52.36 LIG 0.16  HD
ENDROOT
BRANCH 3 5
ATOM      5  CA  VAL D4843     -58.087  24.788  37.205  1.00 37.99 LIG 0.18  C 
BRANCH 5 6
ATOM      6  C   VAL D4843     -58.737  24.071  35.997  1.00 51.29 LIG 0.24  C 
ATOM      7  N   ASN D4844     -58.864  24.724  34.848  1.00 50.43 LIG-0.35  N 
ATOM      8 H    ASN D4844     -58.590  25.525  34.697  1.00 50.43 LIG 0.16  HD
ATOM      9 O    VAL D4843     -59.140  22.905  36.106  1.00 47.22 LIG-0.27  OA
BRANCH 7 10
ATOM     10  CA  ASN D4844     -59.521  24.051  33.718  1.00 46.88 LIG 0.17  C 
BRANCH 10 11
ATOM     11  CB  ASN D4844     -61.024  23.935  33.968  1.00 66.72 LIG 0.14  C 
BRANCH 11 12
ATOM     12  CG  ASN D4844     -61.619  25.199  34.558  1.00 62.42 LIG 0.22  C 
ATOM     13 OD1  ASN D4844     -61.149  25.715  35.574  1.00 56.11 LIG-0.27  OA
ATOM     14  ND2 ASN D4844     -62.665  25.706  33.915  1.00 67.26 LIG-0.37  N 
ATOM     15 21HD ASN D4844     -63.042  26.423  34.205  1.00 67.26 LIG 0.16  HD
ATOM     16 22HD ASN D4844     -62.965  25.317  33.208  1.00 67.26 LIG 0.16  HD
ENDBRANCH 11 12
ENDBRANCH 10 11
BRANCH 10 17
ATOM     17  C   ASN D4844     -59.252  24.661  32.331  1.00 52.57 LIG 0.22  C 
ATOM     18 O    ASN D4844     -59.832  25.692  31.955  1.00 48.91 LIG-0.29  OA
ENDBRANCH 10 17
ENDBRANCH 7 10
ENDBRANCH 5 6
BRANCH 5 19
ATOM     19  CB  VAL D4843     -58.531  24.178  38.571  1.00 37.59 LIG 0.01  C 
ATOM     20  CG1 VAL D4843     -60.026  24.102  38.702  1.00 42.19 LIG 0.01  C 
ATOM     21  CG2 VAL D4843     -57.885  22.808  38.797  1.00 33.91 LIG 0.01  C 
ENDBRANCH 5 19
ENDBRANCH 3 5
BRANCH 1 22
ATOM     22  CA  VAL D4842     -58.545  28.549  36.837  1.00 42.26 LIG 0.18  C 
BRANCH 22 23
ATOM     23  N   VAL D4842     -58.182  29.719  37.642  1.00 51.43 LIG-0.34  N 
ATOM     24 H    VAL D4842     -57.483  30.134  37.361  1.00 51.43 LIG 0.16  HD
ATOM     25  C   LEU D4841     -58.880  30.098  38.711  1.00 54.30 LIG 0.26  C 
ATOM     26 O    LEU D4841     -58.687  31.165  39.290  1.00 66.57 LIG-0.27  OA
BRANCH 25 27
ATOM     27  CA  LEU D4841     -59.979  29.154  39.176  1.00 50.85 LIG 0.40  C 
ATOM     28  N   LEU D4841     -60.278  29.365  40.596  1.00 66.18 LIG 0.61  N 
BRANCH 27 29
ATOM     29  CB  LEU D4841     -61.246  29.355  38.336  1.00 58.40 LIG 0.06  C 
BRANCH 29 30
ATOM     30  CG  LEU D4841     -61.666  28.195  37.425  1.00 54.26 LIG-0.02  C 
ATOM     31  CD2 LEU D4841     -62.710  28.624  36.366  1.00 54.78 LIG 0.01  C 
ATOM     32  CD1 LEU D4841     -62.157  26.989  38.237  1.00 32.44 LIG 0.01  C 
ENDBRANCH 29 30
ENDBRANCH 27 29
ENDBRANCH 25 27
ENDBRANCH 22 23
BRANCH 22 33
ATOM     33  CB  VAL D4842     -58.416  28.832  35.319  1.00 48.47 LIG 0.01  C 
ATOM     34  CG2 VAL D4842     -58.565  30.299  35.023  1.00 42.42 LIG 0.01  C 
ATOM     35  CG1 VAL D4842     -59.474  28.043  34.567  1.00 34.87 LIG 0.01  C 
ENDBRANCH 22 33
ENDBRANCH 1 22
TORSDOF 13
ENDMDL
MODEL 128
USER: ADFR SOLUTION from run 35
USER: SCORE 8.882191 LL:  -2.615 LR:  -7.060 RR:   0.000 FEB:  -3.182
USER: RMSD 8.107635
USER: SEED 34
USER: STATUS no improvement in best in 48 clusters for 5 generations
USER: GENES 15
USER: genes 0 Translation |==|  0.29166 0.43447 0.20479
USER: genes 1 Rotation |==|  0.42389 0.67638 0.21423 0.86254
USER: genes 2 Torsion [C]-N--CA-[CB] |==|  0.52424
USER: genes 3 Torsion [N]-CA--C-[N] |==|  0.27908
USER: genes 4 Torsion [C]-N--CA-[CB] |==|  0.18900
USER: genes 5 Torsion [N]-CA--CB-[CG] |==|  0.18744
USER: genes 6 Torsion [CA]-CB--CG-[OD1] |==|  0.45643
USER: genes 7 Torsion [N]-CA--C-[O] |==|  0.94921
USER: genes 8 Torsion [N]-CA--CB-[CG2] |==|  0.79145
USER: genes 9 Torsion [N]-C--CA-[N] |==|  0.42287
USER: genes 10 Torsion [C]-CA--N-[C] |==|  0.77363
USER: genes 11 Torsion [N]-C--CA-[N] |==|  0.32880
USER: genes 12 Torsion [C]-CA--CB-[CG] |==|  0.36537
USER: genes 13 Torsion [CA]-CB--CG-[CD2] |==|  0.85181
USER: genes 14 Torsion [C]-CA--CB-[CG2] |==|  0.22761
ROOT
ATOM      1  C   VAL D4842     -61.415  26.486  34.652  1.00 57.35 LIG 0.24  C 
ATOM      2 O    VAL D4842     -62.027  26.988  33.701  1.00 61.28 LIG-0.27  OA
ATOM      3  N   VAL D4843     -62.022  26.079  35.759  1.00 52.36 LIG-0.35  N 
ATOM      4 H    VAL D4843     -61.640  25.581  36.347  1.00 52.36 LIG 0.16  HD
ENDROOT
BRANCH 3 5
ATOM      5  CA  VAL D4843     -63.394  26.429  36.097  1.00 37.99 LIG 0.18  C 
BRANCH 5 6
ATOM      6  C   VAL D4843     -63.433  27.971  35.957  1.00 51.29 LIG 0.24  C 
ATOM      7  N   ASN D4844     -63.948  28.509  34.859  1.00 50.43 LIG-0.35  N 
ATOM      8 H    ASN D4844     -64.295  28.071  34.205  1.00 50.43 LIG 0.16  HD
ATOM      9 O    VAL D4843     -62.979  28.691  36.858  1.00 47.22 LIG-0.27  OA
BRANCH 7 10
ATOM     10  CA  ASN D4844     -63.942  29.972  34.715  1.00 46.88 LIG 0.17  C 
BRANCH 10 11
ATOM     11  CB  ASN D4844     -62.511  30.485  34.551  1.00 66.72 LIG 0.14  C 
BRANCH 11 12
ATOM     12  CG  ASN D4844     -61.881  30.054  33.241  1.00 62.42 LIG 0.22  C 
ATOM     13 OD1  ASN D4844     -60.861  30.597  32.811  1.00 56.11 LIG-0.27  OA
ATOM     14  ND2 ASN D4844     -62.492  29.066  32.597  1.00 67.26 LIG-0.37  N 
ATOM     15 21HD ASN D4844     -62.177  28.780  31.849  1.00 67.26 LIG 0.16  HD
ATOM     16 22HD ASN D4844     -63.203  28.712  32.929  1.00 67.26 LIG 0.16  HD
ENDBRANCH 11 12
ENDBRANCH 10 11
BRANCH 10 17
ATOM     17  C   ASN D4844     -64.847  30.537  33.606  1.00 52.57 LIG 0.22  C 
ATOM     18 O    ASN D4844     -65.265  29.817  32.684  1.00 48.91 LIG-0.29  OA
ENDBRANCH 10 17
ENDBRANCH 7 10
ENDBRANCH 5 6
BRANCH 5 19
ATOM     19  CB  VAL D4843     -63.662  25.955  37.559  1.00 37.59 LIG 0.01  C 
ATOM     20  CG1 VAL D4843     -64.830  26.666  38.183  1.00 42.19 LIG 0.01  C 
ATOM     21  CG2 VAL D4843     -63.842  24.436  37.619  1.00 33.91 LIG 0.01  C 
ENDBRANCH 5 19
ENDBRANCH 3 5
BRANCH 1 22
ATOM     22  CA  VAL D4842     -59.895  26.238  34.611  1.00 42.26 LIG 0.18  C 
BRANCH 22 23
ATOM     23  N   VAL D4842     -59.302  26.067  33.281  1.00 51.43 LIG-0.34  N 
ATOM     24 H    VAL D4842     -58.932  26.778  32.970  1.00 51.43 LIG 0.16  HD
ATOM     25  C   LEU D4841     -59.338  24.910  32.624  1.00 54.30 LIG 0.26  C 
ATOM     26 O    LEU D4841     -58.704  24.710  31.591  1.00 66.57 LIG-0.27  OA
BRANCH 25 27
ATOM     27  CA  LEU D4841     -60.185  23.804  33.238  1.00 50.85 LIG 0.40  C 
ATOM     28  N   LEU D4841     -61.269  23.417  32.330  1.00 66.18 LIG 0.61  N 
BRANCH 27 29
ATOM     29  CB  LEU D4841     -59.314  22.587  33.569  1.00 58.40 LIG 0.06  C 
BRANCH 29 30
ATOM     30  CG  LEU D4841     -59.470  21.982  34.969  1.00 54.26 LIG-0.02  C 
ATOM     31  CD2 LEU D4841     -59.295  23.034  36.090  1.00 54.78 LIG 0.01  C 
ATOM     32  CD1 LEU D4841     -58.533  20.784  35.176  1.00 32.44 LIG 0.01  C 
ENDBRANCH 29 30
ENDBRANCH 27 29
ENDBRANCH 25 27
ENDBRANCH 22 23
BRANCH 22 33
ATOM     33  CB  VAL D4842     -59.144  27.310  35.442  1.00 48.47 LIG 0.01  C 
ATOM     34  CG2 VAL D4842     -59.151  26.970  36.907  1.00 42.42 LIG 0.01  C 
ATOM     35  CG1 VAL D4842     -59.795  28.666  35.223  1.00 34.87 LIG 0.01  C 
ENDBRANCH 22 33
ENDBRANCH 1 22
TORSDOF 13
ENDMDL
MODEL 129
USER: ADFR SOLUTION from run 75
USER: SCORE 8.879067 LL:  -3.003 LR:  -7.048 RR:   0.000 FEB:  -3.170
USER: RMSD 6.922154
USER: SEED 74
USER: STATUS no improvement in best in 15 clusters for 5 generations
USER: GENES 15
USER: genes 0 Translation |==|  0.35198 0.43922 0.19919
USER: genes 1 Rotation |==|  0.48681 0.70638 0.60964 0.94183
USER: genes 2 Torsion [C]-N--CA-[CB] |==|  0.26520
USER: genes 3 Torsion [N]-CA--C-[N] |==|  0.48333
USER: genes 4 Torsion [C]-N--CA-[CB] |==|  0.25238
USER: genes 5 Torsion [N]-CA--CB-[CG] |==|  0.78278
USER: genes 6 Torsion [CA]-CB--CG-[OD1] |==|  0.23567
USER: genes 7 Torsion [N]-CA--C-[O] |==|  0.34199
USER: genes 8 Torsion [N]-CA--CB-[CG2] |==|  0.96998
USER: genes 9 Torsion [N]-C--CA-[N] |==|  0.99986
USER: genes 10 Torsion [C]-CA--N-[C] |==|  0.76875
USER: genes 11 Torsion [N]-C--CA-[N] |==|  0.43666
USER: genes 12 Torsion [C]-CA--CB-[CG] |==|  0.37713
USER: genes 13 Torsion [CA]-CB--CG-[CD2] |==|  0.01763
USER: genes 14 Torsion [C]-CA--CB-[CG2] |==|  0.54762
ROOT
ATOM      1  C   VAL D4842     -60.148  26.564  34.568  1.00 57.35 LIG 0.24  C 
ATOM      2 O    VAL D4842     -61.238  26.492  33.987  1.00 61.28 LIG-0.27  OA
ATOM      3  N   VAL D4843     -59.350  25.516  34.727  1.00 52.36 LIG-0.35  N 
ATOM      4 H    VAL D4843     -58.529  25.585  34.973  1.00 52.36 LIG 0.16  HD
ENDROOT
BRANCH 3 5
ATOM      5  CA  VAL D4843     -59.777  24.143  34.502  1.00 37.99 LIG 0.18  C 
BRANCH 5 6
ATOM      6  C   VAL D4843     -59.008  23.331  35.573  1.00 51.29 LIG 0.24  C 
ATOM      7  N   ASN D4844     -59.269  22.037  35.716  1.00 50.43 LIG-0.35  N 
ATOM      8 H    ASN D4844     -59.825  21.586  35.241  1.00 50.43 LIG 0.16  HD
ATOM      9 O    VAL D4843     -58.165  23.886  36.292  1.00 47.22 LIG-0.27  OA
BRANCH 7 10
ATOM     10  CA  ASN D4844     -58.565  21.283  36.764  1.00 46.88 LIG 0.17  C 
BRANCH 10 11
ATOM     11  CB  ASN D4844     -59.367  21.305  38.065  1.00 66.72 LIG 0.14  C 
BRANCH 11 12
ATOM     12  CG  ASN D4844     -59.222  22.613  38.820  1.00 62.42 LIG 0.22  C 
ATOM     13 OD1  ASN D4844     -59.930  23.586  38.555  1.00 56.11 LIG-0.27  OA
ATOM     14  ND2 ASN D4844     -58.296  22.637  39.771  1.00 67.26 LIG-0.37  N 
ATOM     15 21HD ASN D4844     -58.171  23.353  40.232  1.00 67.26 LIG 0.16  HD
ATOM     16 22HD ASN D4844     -57.821  21.937  39.927  1.00 67.26 LIG 0.16  HD
ENDBRANCH 11 12
ENDBRANCH 10 11
BRANCH 10 17
ATOM     17  C   ASN D4844     -58.173  19.841  36.398  1.00 52.57 LIG 0.22  C 
ATOM     18 O    ASN D4844     -56.993  19.458  36.455  1.00 48.91 LIG-0.29  OA
ENDBRANCH 10 17
ENDBRANCH 7 10
ENDBRANCH 5 6
BRANCH 5 19
ATOM     19  CB  VAL D4843     -59.371  23.749  33.048  1.00 37.59 LIG 0.01  C 
ATOM     20  CG1 VAL D4843     -60.467  23.013  32.330  1.00 42.19 LIG 0.01  C 
ATOM     21  CG2 VAL D4843     -58.915  24.976  32.254  1.00 33.91 LIG 0.01  C 
ENDBRANCH 5 19
ENDBRANCH 3 5
BRANCH 1 22
ATOM     22  CA  VAL D4842     -59.595  27.895  35.113  1.00 42.26 LIG 0.18  C 
BRANCH 22 23
ATOM     23  N   VAL D4842     -58.269  27.838  35.736  1.00 51.43 LIG-0.34  N 
ATOM     24 H    VAL D4842     -57.626  28.062  35.209  1.00 51.43 LIG 0.16  HD
ATOM     25  C   LEU D4841     -58.087  27.472  37.003  1.00 54.30 LIG 0.26  C 
ATOM     26 O    LEU D4841     -57.007  27.582  37.580  1.00 66.57 LIG-0.27  OA
BRANCH 25 27
ATOM     27  CA  LEU D4841     -59.307  26.937  37.739  1.00 50.85 LIG 0.40  C 
ATOM     28  N   LEU D4841     -58.902  26.096  38.870  1.00 66.18 LIG 0.61  N 
BRANCH 27 29
ATOM     29  CB  LEU D4841     -60.183  28.095  38.231  1.00 58.40 LIG 0.06  C 
BRANCH 29 30
ATOM     30  CG  LEU D4841     -61.696  27.957  38.022  1.00 54.26 LIG-0.02  C 
ATOM     31  CD2 LEU D4841     -62.092  26.565  37.473  1.00 54.78 LIG 0.01  C 
ATOM     32  CD1 LEU D4841     -62.250  29.084  37.139  1.00 32.44 LIG 0.01  C 
ENDBRANCH 29 30
ENDBRANCH 27 29
ENDBRANCH 25 27
ENDBRANCH 22 23
BRANCH 22 33
ATOM     33  CB  VAL D4842     -59.677  29.005  34.034  1.00 48.47 LIG 0.01  C 
ATOM     34  CG2 VAL D4842     -58.789  30.168  34.378  1.00 42.42 LIG 0.01  C 
ATOM     35  CG1 VAL D4842     -61.117  29.474  33.903  1.00 34.87 LIG 0.01  C 
ENDBRANCH 22 33
ENDBRANCH 1 22
TORSDOF 13
ENDMDL
MODEL 130
USER: ADFR SOLUTION from run 186
USER: SCORE 8.204526 LL:  -2.777 LR:  -7.053 RR:   0.000 FEB:  -3.175
USER: RMSD 9.167892
USER: SEED 185
USER: STATUS no improvement in best in 73 clusters for 5 generations
USER: GENES 15
USER: genes 0 Translation |==|  0.35078 0.36243 0.23558
USER: genes 1 Rotation |==|  0.94232 0.36062 0.66299 0.59141
USER: genes 2 Torsion [C]-N--CA-[CB] |==|  0.84887
USER: genes 3 Torsion [N]-CA--C-[N] |==|  0.14206
USER: genes 4 Torsion [C]-N--CA-[CB] |==|  0.24669
USER: genes 5 Torsion [N]-CA--CB-[CG] |==|  0.69143
USER: genes 6 Torsion [CA]-CB--CG-[OD1] |==|  0.71128
USER: genes 7 Torsion [N]-CA--C-[O] |==|  0.93708
USER: genes 8 Torsion [N]-CA--CB-[CG2] |==|  0.87683
USER: genes 9 Torsion [N]-C--CA-[N] |==|  0.85008
USER: genes 10 Torsion [C]-CA--N-[C] |==|  0.67345
USER: genes 11 Torsion [N]-C--CA-[N] |==|  0.24238
USER: genes 12 Torsion [C]-CA--CB-[CG] |==|  0.21848
USER: genes 13 Torsion [CA]-CB--CG-[CD2] |==|  0.11466
USER: genes 14 Torsion [C]-CA--CB-[CG2] |==|  0.45486
ROOT
ATOM      1  C   VAL D4842     -60.174  25.297  35.114  1.00 57.35 LIG 0.24  C 
ATOM      2 O    VAL D4842     -61.052  25.736  35.866  1.00 61.28 LIG-0.27  OA
ATOM      3  N   VAL D4843     -59.232  26.068  34.585  1.00 52.36 LIG-0.35  N 
ATOM      4 H    VAL D4843     -58.527  25.753  34.205  1.00 52.36 LIG 0.16  HD
ENDROOT
BRANCH 3 5
ATOM      5  CA  VAL D4843     -59.290  27.522  34.591  1.00 37.99 LIG 0.18  C 
BRANCH 5 6
ATOM      6  C   VAL D4843     -59.201  27.894  36.092  1.00 51.29 LIG 0.24  C 
ATOM      7  N   ASN D4844     -58.225  27.381  36.830  1.00 50.43 LIG-0.35  N 
ATOM      8 H    ASN D4844     -57.602  26.863  36.542  1.00 50.43 LIG 0.16  HD
ATOM      9 O    VAL D4843     -60.038  28.656  36.597  1.00 47.22 LIG-0.27  OA
BRANCH 7 10
ATOM     10  CA  ASN D4844     -58.172  27.705  38.263  1.00 46.88 LIG 0.17  C 
BRANCH 10 11
ATOM     11  CB  ASN D4844     -58.995  26.698  39.067  1.00 66.72 LIG 0.14  C 
BRANCH 11 12
ATOM     12  CG  ASN D4844     -60.246  27.310  39.667  1.00 62.42 LIG 0.22  C 
ATOM     13 OD1  ASN D4844     -60.310  27.589  40.866  1.00 56.11 LIG-0.27  OA
ATOM     14  ND2 ASN D4844     -61.252  27.522  38.827  1.00 67.26 LIG-0.37  N 
ATOM     15 21HD ASN D4844     -61.986  27.868  39.113  1.00 67.26 LIG 0.16  HD
ATOM     16 22HD ASN D4844     -61.169  27.314  37.996  1.00 67.26 LIG 0.16  HD
ENDBRANCH 11 12
ENDBRANCH 10 11
BRANCH 10 17
ATOM     17  C   ASN D4844     -56.763  27.850  38.863  1.00 52.57 LIG 0.22  C 
ATOM     18 O    ASN D4844     -55.776  27.318  38.330  1.00 48.91 LIG-0.29  OA
ENDBRANCH 10 17
ENDBRANCH 7 10
ENDBRANCH 5 6
BRANCH 5 19
ATOM     19  CB  VAL D4843     -60.646  27.949  33.950  1.00 37.59 LIG 0.01  C 
ATOM     20  CG1 VAL D4843     -60.707  29.425  33.675  1.00 42.19 LIG 0.01  C 
ATOM     21  CG2 VAL D4843     -60.934  27.138  32.683  1.00 33.91 LIG 0.01  C 
ENDBRANCH 5 19
ENDBRANCH 3 5
BRANCH 1 22
ATOM     22  CA  VAL D4842     -60.064  23.800  34.767  1.00 42.26 LIG 0.18  C 
BRANCH 22 23
ATOM     23  N   VAL D4842     -59.994  23.469  33.340  1.00 51.43 LIG-0.34  N 
ATOM     24 H    VAL D4842     -59.303  23.790  32.941  1.00 51.43 LIG 0.16  HD
ATOM     25  C   LEU D4841     -60.923  22.738  32.727  1.00 54.30 LIG 0.26  C 
ATOM     26 O    LEU D4841     -60.790  22.317  31.580  1.00 66.57 LIG-0.27  OA
BRANCH 25 27
ATOM     27  CA  LEU D4841     -62.168  22.403  33.535  1.00 50.85 LIG 0.40  C 
ATOM     28  N   LEU D4841     -63.170  23.466  33.408  1.00 66.18 LIG 0.61  N 
BRANCH 27 29
ATOM     29  CB  LEU D4841     -62.759  21.065  33.074  1.00 58.40 LIG 0.06  C 
BRANCH 29 30
ATOM     30  CG  LEU D4841     -62.072  19.792  33.583  1.00 54.26 LIG-0.02  C 
ATOM     31  CD2 LEU D4841     -61.670  19.893  35.074  1.00 54.78 LIG 0.01  C 
ATOM     32  CD1 LEU D4841     -60.873  19.407  32.706  1.00 32.44 LIG 0.01  C 
ENDBRANCH 29 30
ENDBRANCH 27 29
ENDBRANCH 25 27
ENDBRANCH 22 23
BRANCH 22 33
ATOM     33  CB  VAL D4842     -58.915  23.136  35.568  1.00 48.47 LIG 0.01  C 
ATOM     34  CG2 VAL D4842     -59.034  21.637  35.553  1.00 42.42 LIG 0.01  C 
ATOM     35  CG1 VAL D4842     -58.941  23.643  37.000  1.00 34.87 LIG 0.01  C 
ENDBRANCH 22 33
ENDBRANCH 1 22
TORSDOF 13
ENDMDL
MODEL 131
USER: ADFR SOLUTION from run 38
USER: SCORE 8.760077 LL:  -2.402 LR:  -7.045 RR:   0.000 FEB:  -3.167
USER: RMSD 9.469320
USER: SEED 37
USER: STATUS no improvement in best in 31 clusters for 5 generations
USER: GENES 15
USER: genes 0 Translation |==|  0.32388 0.32478 0.24569
USER: genes 1 Rotation |==|  0.21112 0.89037 0.45517 0.61021
USER: genes 2 Torsion [C]-N--CA-[CB] |==|  0.88871
USER: genes 3 Torsion [N]-CA--C-[N] |==|  0.32778
USER: genes 4 Torsion [C]-N--CA-[CB] |==|  0.24545
USER: genes 5 Torsion [N]-CA--CB-[CG] |==|  0.15926
USER: genes 6 Torsion [CA]-CB--CG-[OD1] |==|  0.16113
USER: genes 7 Torsion [N]-CA--C-[O] |==|  0.98712
USER: genes 8 Torsion [N]-CA--CB-[CG2] |==|  0.76320
USER: genes 9 Torsion [N]-C--CA-[N] |==|  0.47413
USER: genes 10 Torsion [C]-CA--N-[C] |==|  0.73147
USER: genes 11 Torsion [N]-C--CA-[N] |==|  0.44424
USER: genes 12 Torsion [C]-CA--CB-[CG] |==|  0.39794
USER: genes 13 Torsion [CA]-CB--CG-[CD2] |==|  0.24299
USER: genes 14 Torsion [C]-CA--CB-[CG2] |==|  0.25055
ROOT
ATOM      1  C   VAL D4842     -60.738  24.676  35.265  1.00 57.35 LIG 0.24  C 
ATOM      2 O    VAL D4842     -61.479  24.833  36.243  1.00 61.28 LIG-0.27  OA
ATOM      3  N   VAL D4843     -59.450  24.379  35.382  1.00 52.36 LIG-0.35  N 
ATOM      4 H    VAL D4843     -58.971  24.104  34.724  1.00 52.36 LIG 0.16  HD
ENDROOT
BRANCH 3 5
ATOM      5  CA  VAL D4843     -58.714  24.488  36.633  1.00 37.99 LIG 0.18  C 
BRANCH 5 6
ATOM      6  C   VAL D4843     -59.101  23.204  37.409  1.00 51.29 LIG 0.24  C 
ATOM      7  N   ASN D4844     -58.155  22.328  37.724  1.00 50.43 LIG-0.35  N 
ATOM      8 H    ASN D4844     -57.317  22.417  37.555  1.00 50.43 LIG 0.16  HD
ATOM      9 O    VAL D4843     -60.281  22.996  37.722  1.00 47.22 LIG-0.27  OA
BRANCH 7 10
ATOM     10  CA  ASN D4844     -58.537  21.092  38.422  1.00 46.88 LIG 0.17  C 
BRANCH 10 11
ATOM     11  CB  ASN D4844     -58.900  20.001  37.414  1.00 66.72 LIG 0.14  C 
BRANCH 11 12
ATOM     12  CG  ASN D4844     -57.775  19.704  36.442  1.00 62.42 LIG 0.22  C 
ATOM     13 OD1  ASN D4844     -56.665  19.343  36.838  1.00 56.11 LIG-0.27  OA
ATOM     14  ND2 ASN D4844     -58.062  19.857  35.154  1.00 67.26 LIG-0.37  N 
ATOM     15 21HD ASN D4844     -57.461  19.701  34.558  1.00 67.26 LIG 0.16  HD
ATOM     16 22HD ASN D4844     -58.849  20.111  34.916  1.00 67.26 LIG 0.16  HD
ENDBRANCH 11 12
ENDBRANCH 10 11
BRANCH 10 17
ATOM     17  C   ASN D4844     -57.517  20.562  39.445  1.00 52.57 LIG 0.22  C 
ATOM     18 O    ASN D4844     -56.410  21.104  39.594  1.00 48.91 LIG-0.29  OA
ENDBRANCH 10 17
ENDBRANCH 7 10
ENDBRANCH 5 6
BRANCH 5 19
ATOM     19  CB  VAL D4843     -59.187  25.787  37.355  1.00 37.59 LIG 0.01  C 
ATOM     20  CG1 VAL D4843     -59.110  25.668  38.851  1.00 42.19 LIG 0.01  C 
ATOM     21  CG2 VAL D4843     -58.409  27.008  36.856  1.00 33.91 LIG 0.01  C 
ENDBRANCH 5 19
ENDBRANCH 3 5
BRANCH 1 22
ATOM     22  CA  VAL D4842     -61.261  24.758  33.818  1.00 42.26 LIG 0.18  C 
BRANCH 22 23
ATOM     23  N   VAL D4842     -62.714  24.873  33.660  1.00 51.43 LIG-0.34  N 
ATOM     24 H    VAL D4842     -63.011  25.676  33.735  1.00 51.43 LIG 0.16  HD
ATOM     25  C   LEU D4841     -63.495  23.821  33.421  1.00 54.30 LIG 0.26  C 
ATOM     26 O    LEU D4841     -64.682  23.926  33.122  1.00 66.57 LIG-0.27  OA
BRANCH 25 27
ATOM     27  CA  LEU D4841     -62.834  22.452  33.496  1.00 50.85 LIG 0.40  C 
ATOM     28  N   LEU D4841     -63.838  21.402  33.689  1.00 66.18 LIG 0.61  N 
BRANCH 27 29
ATOM     29  CB  LEU D4841     -62.025  22.180  32.221  1.00 58.40 LIG 0.06  C 
BRANCH 29 30
ATOM     30  CG  LEU D4841     -60.707  21.415  32.387  1.00 54.26 LIG-0.02  C 
ATOM     31  CD2 LEU D4841     -60.903  19.881  32.336  1.00 54.78 LIG 0.01  C 
ATOM     32  CD1 LEU D4841     -59.962  21.840  33.660  1.00 32.44 LIG 0.01  C 
ENDBRANCH 29 30
ENDBRANCH 27 29
ENDBRANCH 25 27
ENDBRANCH 22 23
BRANCH 22 33
ATOM     33  CB  VAL D4842     -60.507  25.856  33.026  1.00 48.47 LIG 0.01  C 
ATOM     34  CG2 VAL D4842     -59.288  25.299  32.344  1.00 42.42 LIG 0.01  C 
ATOM     35  CG1 VAL D4842     -60.105  26.974  33.973  1.00 34.87 LIG 0.01  C 
ENDBRANCH 22 33
ENDBRANCH 1 22
TORSDOF 13
ENDMDL
MODEL 132
USER: ADFR SOLUTION from run 32
USER: SCORE 9.207709 LL:  -2.692 LR:  -7.051 RR:   0.000 FEB:  -3.173
USER: RMSD 7.986651
USER: SEED 31
USER: STATUS no improvement in best in 33 clusters for 5 generations
USER: GENES 15
USER: genes 0 Translation |==|  0.33858 0.52895 0.23470
USER: genes 1 Rotation |==|  0.15102 0.85463 0.45313 0.51599
USER: genes 2 Torsion [C]-N--CA-[CB] |==|  0.87778
USER: genes 3 Torsion [N]-CA--C-[N] |==|  0.31687
USER: genes 4 Torsion [C]-N--CA-[CB] |==|  0.81673
USER: genes 5 Torsion [N]-CA--CB-[CG] |==|  0.89116
USER: genes 6 Torsion [CA]-CB--CG-[OD1] |==|  0.89685
USER: genes 7 Torsion [N]-CA--C-[O] |==|  0.13830
USER: genes 8 Torsion [N]-CA--CB-[CG2] |==|  0.78352
USER: genes 9 Torsion [N]-C--CA-[N] |==|  0.35923
USER: genes 10 Torsion [C]-CA--N-[C] |==|  0.83003
USER: genes 11 Torsion [N]-C--CA-[N] |==|  0.27572
USER: genes 12 Torsion [C]-CA--CB-[CG] |==|  0.21381
USER: genes 13 Torsion [CA]-CB--CG-[CD2] |==|  0.06840
USER: genes 14 Torsion [C]-CA--CB-[CG2] |==|  0.10916
ROOT
ATOM      1  C   VAL D4842     -60.430  28.045  35.100  1.00 57.35 LIG 0.24  C 
ATOM      2 O    VAL D4842     -60.931  28.360  36.187  1.00 61.28 LIG-0.27  OA
ATOM      3  N   VAL D4843     -59.120  28.048  34.888  1.00 52.36 LIG-0.35  N 
ATOM      4 H    VAL D4843     -58.755  27.674  34.205  1.00 52.36 LIG 0.16  HD
ENDROOT
BRANCH 3 5
ATOM      5  CA  VAL D4843     -58.164  28.680  35.785  1.00 37.99 LIG 0.18  C 
BRANCH 5 6
ATOM      6  C   VAL D4843     -58.073  27.705  36.984  1.00 51.29 LIG 0.24  C 
ATOM      7  N   ASN D4844     -56.932  27.068  37.217  1.00 50.43 LIG-0.35  N 
ATOM      8 H    ASN D4844     -56.208  27.164  36.765  1.00 50.43 LIG 0.16  HD
ATOM      9 O    VAL D4843     -59.058  27.518  37.713  1.00 47.22 LIG-0.27  OA
BRANCH 7 10
ATOM     10  CA  ASN D4844     -56.867  26.111  38.331  1.00 46.88 LIG 0.17  C 
BRANCH 10 11
ATOM     11  CB  ASN D4844     -57.028  26.838  39.666  1.00 66.72 LIG 0.14  C 
BRANCH 11 12
ATOM     12  CG  ASN D4844     -56.308  28.172  39.698  1.00 62.42 LIG 0.22  C 
ATOM     13 OD1  ASN D4844     -55.218  28.325  39.143  1.00 56.11 LIG-0.27  OA
ATOM     14  ND2 ASN D4844     -56.922  29.150  40.354  1.00 67.26 LIG-0.37  N 
ATOM     15 21HD ASN D4844     -56.559  29.929  40.403  1.00 67.26 LIG 0.16  HD
ATOM     16 22HD ASN D4844     -57.682  29.005  40.729  1.00 67.26 LIG 0.16  HD
ENDBRANCH 11 12
ENDBRANCH 10 11
BRANCH 10 17
ATOM     17  C   ASN D4844     -57.838  24.921  38.245  1.00 52.57 LIG 0.22  C 
ATOM     18 O    ASN D4844     -57.927  24.233  37.216  1.00 48.91 LIG-0.29  OA
ENDBRANCH 10 17
ENDBRANCH 7 10
ENDBRANCH 5 6
BRANCH 5 19
ATOM     19  CB  VAL D4843     -58.739  30.073  36.190  1.00 37.59 LIG 0.01  C 
ATOM     20  CG1 VAL D4843     -58.166  30.570  37.487  1.00 42.19 LIG 0.01  C 
ATOM     21  CG2 VAL D4843     -58.541  31.096  35.068  1.00 33.91 LIG 0.01  C 
ENDBRANCH 5 19
ENDBRANCH 3 5
BRANCH 1 22
ATOM     22  CA  VAL D4842     -61.284  27.567  33.910  1.00 42.26 LIG 0.18  C 
BRANCH 22 23
ATOM     23  N   VAL D4842     -62.277  26.529  34.201  1.00 51.43 LIG-0.34  N 
ATOM     24 H    VAL D4842     -63.089  26.769  34.047  1.00 51.43 LIG 0.16  HD
ATOM     25  C   LEU D4841     -61.942  25.326  34.662  1.00 54.30 LIG 0.26  C 
ATOM     26 O    LEU D4841     -62.744  24.398  34.749  1.00 66.57 LIG-0.27  OA
BRANCH 25 27
ATOM     27  CA  LEU D4841     -60.484  25.126  35.049  1.00 50.85 LIG 0.40  C 
ATOM     28  N   LEU D4841     -60.310  25.255  36.499  1.00 66.18 LIG 0.61  N 
BRANCH 27 29
ATOM     29  CB  LEU D4841     -59.991  23.753  34.579  1.00 58.40 LIG 0.06  C 
BRANCH 29 30
ATOM     30  CG  LEU D4841     -59.665  23.605  33.088  1.00 54.26 LIG-0.02  C 
ATOM     31  CD2 LEU D4841     -59.306  24.957  32.425  1.00 54.78 LIG 0.01  C 
ATOM     32  CD1 LEU D4841     -60.794  22.895  32.330  1.00 32.44 LIG 0.01  C 
ENDBRANCH 29 30
ENDBRANCH 27 29
ENDBRANCH 25 27
ENDBRANCH 22 23
BRANCH 22 33
ATOM     33  CB  VAL D4842     -61.913  28.775  33.170  1.00 48.47 LIG 0.01  C 
ATOM     34  CG2 VAL D4842     -60.948  29.924  33.080  1.00 42.42 LIG 0.01  C 
ATOM     35  CG1 VAL D4842     -63.173  29.212  33.899  1.00 34.87 LIG 0.01  C 
ENDBRANCH 22 33
ENDBRANCH 1 22
TORSDOF 13
ENDMDL
MODEL 133
USER: ADFR SOLUTION from run 33
USER: SCORE 8.582643 LL:  -2.648 LR:  -7.051 RR:   0.000 FEB:  -3.173
USER: RMSD 6.923653
USER: SEED 32
USER: STATUS no improvement in best in 28 clusters for 5 generations
USER: GENES 15
USER: genes 0 Translation |==|  0.37777 0.42698 0.16054
USER: genes 1 Rotation |==|  0.47335 0.55947 0.60037 0.98547
USER: genes 2 Torsion [C]-N--CA-[CB] |==|  0.56667
USER: genes 3 Torsion [N]-CA--C-[N] |==|  0.83210
USER: genes 4 Torsion [C]-N--CA-[CB] |==|  0.23515
USER: genes 5 Torsion [N]-CA--CB-[CG] |==|  0.74336
USER: genes 6 Torsion [CA]-CB--CG-[OD1] |==|  0.85866
USER: genes 7 Torsion [N]-CA--C-[O] |==|  0.05813
USER: genes 8 Torsion [N]-CA--CB-[CG2] |==|  0.45284
USER: genes 9 Torsion [N]-C--CA-[N] |==|  0.09737
USER: genes 10 Torsion [C]-CA--N-[C] |==|  0.68892
USER: genes 11 Torsion [N]-C--CA-[N] |==|  0.38346
USER: genes 12 Torsion [C]-CA--CB-[CG] |==|  0.29085
USER: genes 13 Torsion [CA]-CB--CG-[CD2] |==|  0.50470
USER: genes 14 Torsion [C]-CA--CB-[CG2] |==|  0.55185
ROOT
ATOM      1  C   VAL D4842     -59.607  26.362  33.988  1.00 57.35 LIG 0.24  C 
ATOM      2 O    VAL D4842     -60.163  26.382  32.883  1.00 61.28 LIG-0.27  OA
ATOM      3  N   VAL D4843     -59.058  25.266  34.495  1.00 52.36 LIG-0.35  N 
ATOM      4 H    VAL D4843     -58.528  25.277  35.173  1.00 52.36 LIG 0.16  HD
ENDROOT
BRANCH 3 5
ATOM      5  CA  VAL D4843     -59.291  23.932  33.961  1.00 37.99 LIG 0.18  C 
BRANCH 5 6
ATOM      6  C   VAL D4843     -60.776  23.958  33.522  1.00 51.29 LIG 0.24  C 
ATOM      7  N   ASN D4844     -61.715  24.192  34.429  1.00 50.43 LIG-0.35  N 
ATOM      8 H    ASN D4844     -61.574  24.360  35.261  1.00 50.43 LIG 0.16  HD
ATOM      9 O    VAL D4843     -61.081  23.754  32.338  1.00 47.22 LIG-0.27  OA
BRANCH 7 10
ATOM     10  CA  ASN D4844     -63.126  24.173  34.013  1.00 46.88 LIG 0.17  C 
BRANCH 10 11
ATOM     11  CB  ASN D4844     -63.665  22.743  34.029  1.00 66.72 LIG 0.14  C 
BRANCH 11 12
ATOM     12  CG  ASN D4844     -63.529  22.050  32.687  1.00 62.42 LIG 0.22  C 
ATOM     13 OD1  ASN D4844     -63.931  22.581  31.649  1.00 56.11 LIG-0.27  OA
ATOM     14  ND2 ASN D4844     -62.957  20.852  32.705  1.00 67.26 LIG-0.37  N 
ATOM     15 21HD ASN D4844     -62.854  20.413  31.972  1.00 67.26 LIG 0.16  HD
ATOM     16 22HD ASN D4844     -62.690  20.514  33.450  1.00 67.26 LIG 0.16  HD
ENDBRANCH 11 12
ENDBRANCH 10 11
BRANCH 10 17
ATOM     17  C   ASN D4844     -64.063  25.111  34.792  1.00 52.57 LIG 0.22  C 
ATOM     18 O    ASN D4844     -63.624  26.087  35.422  1.00 48.91 LIG-0.29  OA
ENDBRANCH 10 17
ENDBRANCH 7 10
ENDBRANCH 5 6
BRANCH 5 19
ATOM     19  CB  VAL D4843     -59.024  22.906  35.105  1.00 37.59 LIG 0.01  C 
ATOM     20  CG1 VAL D4843     -59.500  23.404  36.440  1.00 42.19 LIG 0.01  C 
ATOM     21  CG2 VAL D4843     -59.636  21.542  34.773  1.00 33.91 LIG 0.01  C 
ENDBRANCH 5 19
ENDBRANCH 3 5
BRANCH 1 22
ATOM     22  CA  VAL D4842     -59.456  27.628  34.853  1.00 42.26 LIG 0.18  C 
BRANCH 22 23
ATOM     23  N   VAL D4842     -58.202  27.754  35.602  1.00 51.43 LIG-0.34  N 
ATOM     24 H    VAL D4842     -57.510  27.877  35.107  1.00 51.43 LIG 0.16  HD
ATOM     25  C   LEU D4841     -58.150  27.684  36.931  1.00 54.30 LIG 0.26  C 
ATOM     26 O    LEU D4841     -57.138  27.954  37.574  1.00 66.57 LIG-0.27  OA
BRANCH 25 27
ATOM     27  CA  LEU D4841     -59.435  27.285  37.642  1.00 50.85 LIG 0.40  C 
ATOM     28  N   LEU D4841     -59.155  26.341  38.728  1.00 66.18 LIG 0.61  N 
BRANCH 27 29
ATOM     29  CB  LEU D4841     -60.147  28.526  38.194  1.00 58.40 LIG 0.06  C 
BRANCH 29 30
ATOM     30  CG  LEU D4841     -61.389  29.009  37.434  1.00 54.26 LIG-0.02  C 
ATOM     31  CD2 LEU D4841     -61.999  30.289  38.053  1.00 54.78 LIG 0.01  C 
ATOM     32  CD1 LEU D4841     -62.438  27.898  37.301  1.00 32.44 LIG 0.01  C 
ENDBRANCH 29 30
ENDBRANCH 27 29
ENDBRANCH 25 27
ENDBRANCH 22 23
BRANCH 22 33
ATOM     33  CB  VAL D4842     -59.758  28.900  34.020  1.00 48.47 LIG 0.01  C 
ATOM     34  CG2 VAL D4842     -59.196  30.130  34.676  1.00 42.42 LIG 0.01  C 
ATOM     35  CG1 VAL D4842     -61.261  29.045  33.850  1.00 34.87 LIG 0.01  C 
ENDBRANCH 22 33
ENDBRANCH 1 22
TORSDOF 13
ENDMDL
MODEL 134
USER: ADFR SOLUTION from run 177
USER: SCORE 8.520525 LL:  -2.974 LR:  -7.046 RR:   0.000 FEB:  -3.168
USER: RMSD 6.450555
USER: SEED 176
USER: STATUS no improvement in best in 19 clusters for 5 generations
USER: GENES 15
USER: genes 0 Translation |==|  0.44347 0.50552 0.36799
USER: genes 1 Rotation |==|  0.42995 0.07249 0.51564 0.74917
USER: genes 2 Torsion [C]-N--CA-[CB] |==|  0.25262
USER: genes 3 Torsion [N]-CA--C-[N] |==|  0.19027
USER: genes 4 Torsion [C]-N--CA-[CB] |==|  0.40420
USER: genes 5 Torsion [N]-CA--CB-[CG] |==|  0.08226
USER: genes 6 Torsion [CA]-CB--CG-[OD1] |==|  0.26884
USER: genes 7 Torsion [N]-CA--C-[O] |==|  0.11901
USER: genes 8 Torsion [N]-CA--CB-[CG2] |==|  0.06626
USER: genes 9 Torsion [N]-C--CA-[N] |==|  0.27971
USER: genes 10 Torsion [C]-CA--N-[C] |==|  0.75553
USER: genes 11 Torsion [N]-C--CA-[N] |==|  0.38087
USER: genes 12 Torsion [C]-CA--CB-[CG] |==|  0.36646
USER: genes 13 Torsion [CA]-CB--CG-[CD2] |==|  0.07585
USER: genes 14 Torsion [C]-CA--CB-[CG2] |==|  0.63266
ROOT
ATOM      1  C   VAL D4842     -58.227  27.658  37.100  1.00 57.35 LIG 0.24  C 
ATOM      2 O    VAL D4842     -57.050  27.790  37.457  1.00 61.28 LIG-0.27  OA
ATOM      3  N   VAL D4843     -58.842  26.482  37.077  1.00 52.36 LIG-0.35  N 
ATOM      4 H    VAL D4843     -59.694  26.400  36.997  1.00 52.36 LIG 0.16  HD
ENDROOT
BRANCH 3 5
ATOM      5  CA  VAL D4843     -58.142  25.210  37.188  1.00 37.99 LIG 0.18  C 
BRANCH 5 6
ATOM      6  C   VAL D4843     -59.014  24.230  36.365  1.00 51.29 LIG 0.24  C 
ATOM      7  N   ASN D4844     -59.080  24.371  35.047  1.00 50.43 LIG-0.35  N 
ATOM      8 H    ASN D4844     -58.654  24.959  34.587  1.00 50.43 LIG 0.16  HD
ATOM      9 O    VAL D4843     -59.648  23.330  36.934  1.00 47.22 LIG-0.27  OA
BRANCH 7 10
ATOM     10  CA  ASN D4844     -59.944  23.464  34.278  1.00 46.88 LIG 0.17  C 
BRANCH 10 11
ATOM     11  CB  ASN D4844     -60.561  24.198  33.087  1.00 66.72 LIG 0.14  C 
BRANCH 11 12
ATOM     12  CG  ASN D4844     -59.678  25.314  32.566  1.00 62.42 LIG 0.22  C 
ATOM     13 OD1  ASN D4844     -58.926  25.141  31.605  1.00 56.11 LIG-0.27  OA
ATOM     14  ND2 ASN D4844     -59.768  26.475  33.205  1.00 67.26 LIG-0.37  N 
ATOM     15 21HD ASN D4844     -59.290  27.144  32.952  1.00 67.26 LIG 0.16  HD
ATOM     16 22HD ASN D4844     -60.304  26.558  33.873  1.00 67.26 LIG 0.16  HD
ENDBRANCH 11 12
ENDBRANCH 10 11
BRANCH 10 17
ATOM     17  C   ASN D4844     -59.290  22.149  33.820  1.00 52.57 LIG 0.22  C 
ATOM     18 O    ASN D4844     -58.560  21.492  34.580  1.00 48.91 LIG-0.29  OA
ENDBRANCH 10 17
ENDBRANCH 7 10
ENDBRANCH 5 6
BRANCH 5 19
ATOM     19  CB  VAL D4843     -58.080  24.829  38.699  1.00 37.59 LIG 0.01  C 
ATOM     20  CG1 VAL D4843     -56.737  25.123  39.306  1.00 42.19 LIG 0.01  C 
ATOM     21  CG2 VAL D4843     -59.203  25.512  39.485  1.00 33.91 LIG 0.01  C 
ENDBRANCH 5 19
ENDBRANCH 3 5
BRANCH 1 22
ATOM     22  CA  VAL D4842     -59.103  28.861  36.699  1.00 42.26 LIG 0.18  C 
BRANCH 22 23
ATOM     23  N   VAL D4842     -59.629  29.674  37.799  1.00 51.43 LIG-0.34  N 
ATOM     24 H    VAL D4842     -59.128  30.339  38.012  1.00 51.43 LIG 0.16  HD
ATOM     25  C   LEU D4841     -60.781  29.398  38.408  1.00 54.30 LIG 0.26  C 
ATOM     26 O    LEU D4841     -61.311  30.162  39.211  1.00 66.57 LIG-0.27  OA
BRANCH 25 27
ATOM     27  CA  LEU D4841     -61.453  28.086  38.030  1.00 50.85 LIG 0.40  C 
ATOM     28  N   LEU D4841     -61.968  27.405  39.223  1.00 66.18 LIG 0.61  N 
BRANCH 27 29
ATOM     29  CB  LEU D4841     -62.592  28.337  37.035  1.00 58.40 LIG 0.06  C 
BRANCH 29 30
ATOM     30  CG  LEU D4841     -62.634  27.443  35.789  1.00 54.26 LIG-0.02  C 
ATOM     31  CD2 LEU D4841     -61.986  26.059  36.033  1.00 54.78 LIG 0.01  C 
ATOM     32  CD1 LEU D4841     -62.016  28.142  34.571  1.00 32.44 LIG 0.01  C 
ENDBRANCH 29 30
ENDBRANCH 27 29
ENDBRANCH 25 27
ENDBRANCH 22 23
BRANCH 22 33
ATOM     33  CB  VAL D4842     -58.386  29.729  35.634  1.00 48.47 LIG 0.01  C 
ATOM     34  CG2 VAL D4842     -58.437  31.188  35.994  1.00 42.42 LIG 0.01  C 
ATOM     35  CG1 VAL D4842     -59.039  29.507  34.280  1.00 34.87 LIG 0.01  C 
ENDBRANCH 22 33
ENDBRANCH 1 22
TORSDOF 13
ENDMDL
MODEL 135
USER: ADFR SOLUTION from run 34
USER: SCORE 9.304781 LL:  -2.942 LR:  -7.038 RR:   0.000 FEB:  -3.160
USER: RMSD 8.734232
USER: SEED 33
USER: STATUS no improvement in best in 19 clusters for 5 generations
USER: GENES 15
USER: genes 0 Translation |==|  0.39018 0.27491 0.30681
USER: genes 1 Rotation |==|  0.84727 0.34114 0.27578 0.73215
USER: genes 2 Torsion [C]-N--CA-[CB] |==|  0.50021
USER: genes 3 Torsion [N]-CA--C-[N] |==|  0.42023
USER: genes 4 Torsion [C]-N--CA-[CB] |==|  0.20027
USER: genes 5 Torsion [N]-CA--CB-[CG] |==|  0.14839
USER: genes 6 Torsion [CA]-CB--CG-[OD1] |==|  0.30154
USER: genes 7 Torsion [N]-CA--C-[O] |==|  0.09571
USER: genes 8 Torsion [N]-CA--CB-[CG2] |==|  0.67229
USER: genes 9 Torsion [N]-C--CA-[N] |==|  0.36408
USER: genes 10 Torsion [C]-CA--N-[C] |==|  0.77942
USER: genes 11 Torsion [N]-C--CA-[N] |==|  0.38321
USER: genes 12 Torsion [C]-CA--CB-[CG] |==|  0.42060
USER: genes 13 Torsion [CA]-CB--CG-[CD2] |==|  0.96983
USER: genes 14 Torsion [C]-CA--CB-[CG2] |==|  0.20192
ROOT
ATOM      1  C   VAL D4842     -59.346  23.853  36.182  1.00 57.35 LIG 0.24  C 
ATOM      2 O    VAL D4842     -58.352  24.346  36.729  1.00 61.28 LIG-0.27  OA
ATOM      3  N   VAL D4843     -59.739  24.199  34.963  1.00 52.36 LIG-0.35  N 
ATOM      4 H    VAL D4843     -60.316  23.749  34.511  1.00 52.36 LIG 0.16  HD
ENDROOT
BRANCH 3 5
ATOM      5  CA  VAL D4843     -59.235  25.371  34.261  1.00 37.99 LIG 0.18  C 
BRANCH 5 6
ATOM      6  C   VAL D4843     -59.632  26.555  35.176  1.00 51.29 LIG 0.24  C 
ATOM      7  N   ASN D4844     -58.887  27.653  35.175  1.00 50.43 LIG-0.35  N 
ATOM      8 H    ASN D4844     -58.195  27.785  34.682  1.00 50.43 LIG 0.16  HD
ATOM      9 O    VAL D4843     -60.630  26.473  35.907  1.00 47.22 LIG-0.27  OA
BRANCH 7 10
ATOM     10  CA  ASN D4844     -59.246  28.756  36.078  1.00 46.88 LIG 0.17  C 
BRANCH 10 11
ATOM     11  CB  ASN D4844     -58.924  28.385  37.526  1.00 66.72 LIG 0.14  C 
BRANCH 11 12
ATOM     12  CG  ASN D4844     -57.489  27.932  37.710  1.00 62.42 LIG 0.22  C 
ATOM     13 OD1  ASN D4844     -56.665  28.637  38.295  1.00 56.11 LIG-0.27  OA
ATOM     14  ND2 ASN D4844     -57.185  26.742  37.205  1.00 67.26 LIG-0.37  N 
ATOM     15 21HD ASN D4844     -56.385  26.434  37.281  1.00 67.26 LIG 0.16  HD
ATOM     16 22HD ASN D4844     -57.787  26.278  36.802  1.00 67.26 LIG 0.16  HD
ENDBRANCH 11 12
ENDBRANCH 10 11
BRANCH 10 17
ATOM     17  C   ASN D4844     -58.643  30.128  35.728  1.00 52.57 LIG 0.22  C 
ATOM     18 O    ASN D4844     -58.467  30.473  34.548  1.00 48.91 LIG-0.29  OA
ENDBRANCH 10 17
ENDBRANCH 7 10
ENDBRANCH 5 6
BRANCH 5 19
ATOM     19  CB  VAL D4843     -59.937  25.431  32.869  1.00 37.59 LIG 0.01  C 
ATOM     20  CG1 VAL D4843     -60.786  26.660  32.711  1.00 42.19 LIG 0.01  C 
ATOM     21  CG2 VAL D4843     -58.915  25.315  31.734  1.00 33.91 LIG 0.01  C 
ENDBRANCH 5 19
ENDBRANCH 3 5
BRANCH 1 22
ATOM     22  CA  VAL D4842     -60.189  22.749  36.851  1.00 42.26 LIG 0.18  C 
BRANCH 22 23
ATOM     23  N   VAL D4842     -59.442  21.636  37.446  1.00 51.43 LIG-0.34  N 
ATOM     24 H    VAL D4842     -59.355  21.691  38.299  1.00 51.43 LIG 0.16  HD
ATOM     25  C   LEU D4841     -58.948  20.636  36.720  1.00 54.30 LIG 0.26  C 
ATOM     26 O    LEU D4841     -58.470  19.620  37.221  1.00 66.57 LIG-0.27  OA
BRANCH 25 27
ATOM     27  CA  LEU D4841     -59.034  20.784  35.207  1.00 50.85 LIG 0.40  C 
ATOM     28  N   LEU D4841     -57.791  20.340  34.571  1.00 66.18 LIG 0.61  N 
BRANCH 27 29
ATOM     29  CB  LEU D4841     -60.222  19.983  34.660  1.00 58.40 LIG 0.06  C 
BRANCH 29 30
ATOM     30  CG  LEU D4841     -60.874  20.501  33.372  1.00 54.26 LIG-0.02  C 
ATOM     31  CD2 LEU D4841     -60.377  21.915  32.986  1.00 54.78 LIG 0.01  C 
ATOM     32  CD1 LEU D4841     -62.405  20.450  33.454  1.00 32.44 LIG 0.01  C 
ENDBRANCH 29 30
ENDBRANCH 27 29
ENDBRANCH 25 27
ENDBRANCH 22 23
BRANCH 22 33
ATOM     33  CB  VAL D4842     -61.200  23.364  37.852  1.00 48.47 LIG 0.01  C 
ATOM     34  CG2 VAL D4842     -62.322  24.062  37.135  1.00 42.42 LIG 0.01  C 
ATOM     35  CG1 VAL D4842     -60.477  24.345  38.760  1.00 34.87 LIG 0.01  C 
ENDBRANCH 22 33
ENDBRANCH 1 22
TORSDOF 13
ENDMDL
MODEL 136
USER: ADFR SOLUTION from run 165
USER: SCORE 8.976417 LL:  -2.800 LR:  -7.039 RR:   0.000 FEB:  -3.161
USER: RMSD 6.898542
USER: SEED 164
USER: STATUS no improvement in best in 49 clusters for 5 generations
USER: GENES 15
USER: genes 0 Translation |==|  0.35157 0.46671 0.20090
USER: genes 1 Rotation |==|  0.45741 0.71049 0.60197 0.93986
USER: genes 2 Torsion [C]-N--CA-[CB] |==|  0.26667
USER: genes 3 Torsion [N]-CA--C-[N] |==|  0.99959
USER: genes 4 Torsion [C]-N--CA-[CB] |==|  0.45778
USER: genes 5 Torsion [N]-CA--CB-[CG] |==|  0.51792
USER: genes 6 Torsion [CA]-CB--CG-[OD1] |==|  0.18966
USER: genes 7 Torsion [N]-CA--C-[O] |==|  0.77483
USER: genes 8 Torsion [N]-CA--CB-[CG2] |==|  0.94491
USER: genes 9 Torsion [N]-C--CA-[N] |==|  0.99567
USER: genes 10 Torsion [C]-CA--N-[C] |==|  0.78186
USER: genes 11 Torsion [N]-C--CA-[N] |==|  0.44412
USER: genes 12 Torsion [C]-CA--CB-[CG] |==|  0.38215
USER: genes 13 Torsion [CA]-CB--CG-[CD2] |==|  0.03983
USER: genes 14 Torsion [C]-CA--CB-[CG2] |==|  0.52367
ROOT
ATOM      1  C   VAL D4842     -60.157  27.018  34.593  1.00 57.35 LIG 0.24  C 
ATOM      2 O    VAL D4842     -61.239  26.851  34.017  1.00 61.28 LIG-0.27  OA
ATOM      3  N   VAL D4843     -59.338  26.015  34.883  1.00 52.36 LIG-0.35  N 
ATOM      4 H    VAL D4843     -58.521  26.132  35.126  1.00 52.36 LIG 0.16  HD
ENDROOT
BRANCH 3 5
ATOM      5  CA  VAL D4843     -59.732  24.615  34.822  1.00 37.99 LIG 0.18  C 
BRANCH 5 6
ATOM      6  C   VAL D4843     -58.966  23.958  35.997  1.00 51.29 LIG 0.24  C 
ATOM      7  N   ASN D4844     -58.177  24.708  36.756  1.00 50.43 LIG-0.35  N 
ATOM      8 H    ASN D4844     -58.064  25.556  36.671  1.00 50.43 LIG 0.16  HD
ATOM      9 O    VAL D4843     -59.084  22.744  36.218  1.00 47.22 LIG-0.27  OA
BRANCH 7 10
ATOM     10  CA  ASN D4844     -57.420  24.069  37.843  1.00 46.88 LIG 0.17  C 
BRANCH 10 11
ATOM     11  CB  ASN D4844     -56.315  25.000  38.341  1.00 66.72 LIG 0.14  C 
BRANCH 11 12
ATOM     12  CG  ASN D4844     -55.402  24.336  39.353  1.00 62.42 LIG 0.22  C 
ATOM     13 OD1  ASN D4844     -54.641  23.423  39.028  1.00 56.11 LIG-0.27  OA
ATOM     14  ND2 ASN D4844     -55.476  24.800  40.596  1.00 67.26 LIG-0.37  N 
ATOM     15 21HD ASN D4844     -54.980  24.460  41.212  1.00 67.26 LIG 0.16  HD
ATOM     16 22HD ASN D4844     -56.020  25.439  40.785  1.00 67.26 LIG 0.16  HD
ENDBRANCH 11 12
ENDBRANCH 10 11
BRANCH 10 17
ATOM     17  C   ASN D4844     -58.259  23.549  39.023  1.00 52.57 LIG 0.22  C 
ATOM     18 O    ASN D4844     -58.651  24.311  39.922  1.00 48.91 LIG-0.29  OA
ENDBRANCH 10 17
ENDBRANCH 7 10
ENDBRANCH 5 6
BRANCH 5 19
ATOM     19  CB  VAL D4843     -59.290  24.055  33.434  1.00 37.59 LIG 0.01  C 
ATOM     20  CG1 VAL D4843     -60.260  23.043  32.894  1.00 42.19 LIG 0.01  C 
ATOM     21  CG2 VAL D4843     -59.058  25.190  32.433  1.00 33.91 LIG 0.01  C 
ENDBRANCH 5 19
ENDBRANCH 3 5
BRANCH 1 22
ATOM     22  CA  VAL D4842     -59.639  28.417  34.979  1.00 42.26 LIG 0.18  C 
BRANCH 22 23
ATOM     23  N   VAL D4842     -58.333  28.463  35.644  1.00 51.43 LIG-0.34  N 
ATOM     24 H    VAL D4842     -57.685  28.690  35.127  1.00 51.43 LIG 0.16  HD
ATOM     25  C   LEU D4841     -58.176  28.177  36.935  1.00 54.30 LIG 0.26  C 
ATOM     26 O    LEU D4841     -57.124  28.374  37.539  1.00 66.57 LIG-0.27  OA
BRANCH 25 27
ATOM     27  CA  LEU D4841     -59.392  27.620  37.662  1.00 50.85 LIG 0.40  C 
ATOM     28  N   LEU D4841     -58.989  26.919  38.885  1.00 66.18 LIG 0.61  N 
BRANCH 27 29
ATOM     29  CB  LEU D4841     -60.373  28.749  38.002  1.00 58.40 LIG 0.06  C 
BRANCH 29 30
ATOM     30  CG  LEU D4841     -61.863  28.463  37.778  1.00 54.26 LIG-0.02  C 
ATOM     31  CD2 LEU D4841     -62.152  26.956  37.576  1.00 54.78 LIG 0.01  C 
ATOM     32  CD1 LEU D4841     -62.432  29.299  36.624  1.00 32.44 LIG 0.01  C 
ENDBRANCH 29 30
ENDBRANCH 27 29
ENDBRANCH 25 27
ENDBRANCH 22 23
BRANCH 22 33
ATOM     33  CB  VAL D4842     -59.700  29.377  33.763  1.00 48.47 LIG 0.01  C 
ATOM     34  CG2 VAL D4842     -59.011  30.679  34.061  1.00 42.42 LIG 0.01  C 
ATOM     35  CG1 VAL D4842     -61.151  29.632  33.394  1.00 34.87 LIG 0.01  C 
ENDBRANCH 22 33
ENDBRANCH 1 22
TORSDOF 13
ENDMDL
MODEL 137
USER: ADFR SOLUTION from run 92
USER: SCORE 8.617724 LL:  -2.512 LR:  -7.027 RR:   0.000 FEB:  -3.149
USER: RMSD 5.482542
USER: SEED 91
USER: STATUS no improvement in best in 40 clusters for 5 generations
USER: GENES 15
USER: genes 0 Translation |==|  0.42297 0.55441 0.25986
USER: genes 1 Rotation |==|  0.31682 0.29937 0.57911 0.91223
USER: genes 2 Torsion [C]-N--CA-[CB] |==|  0.50209
USER: genes 3 Torsion [N]-CA--C-[N] |==|  0.35315
USER: genes 4 Torsion [C]-N--CA-[CB] |==|  0.81982
USER: genes 5 Torsion [N]-CA--CB-[CG] |==|  0.35246
USER: genes 6 Torsion [CA]-CB--CG-[OD1] |==|  0.29658
USER: genes 7 Torsion [N]-CA--C-[O] |==|  0.24250
USER: genes 8 Torsion [N]-CA--CB-[CG2] |==|  0.86276
USER: genes 9 Torsion [N]-C--CA-[N] |==|  0.35998
USER: genes 10 Torsion [C]-CA--N-[C] |==|  0.71205
USER: genes 11 Torsion [N]-C--CA-[N] |==|  0.83357
USER: genes 12 Torsion [C]-CA--CB-[CG] |==|  0.30986
USER: genes 13 Torsion [CA]-CB--CG-[CD2] |==|  0.87729
USER: genes 14 Torsion [C]-CA--CB-[CG2] |==|  0.99325
ROOT
ATOM      1  C   VAL D4842     -58.658  28.465  35.478  1.00 57.35 LIG 0.24  C 
ATOM      2 O    VAL D4842     -57.860  27.992  34.659  1.00 61.28 LIG-0.27  OA
ATOM      3  N   VAL D4843     -59.073  27.793  36.544  1.00 52.36 LIG-0.35  N 
ATOM      4 H    VAL D4843     -59.486  28.164  37.201  1.00 52.36 LIG 0.16  HD
ENDROOT
BRANCH 3 5
ATOM      5  CA  VAL D4843     -58.875  26.361  36.716  1.00 37.99 LIG 0.18  C 
BRANCH 5 6
ATOM      6  C   VAL D4843     -59.604  25.733  35.503  1.00 51.29 LIG 0.24  C 
ATOM      7  N   ASN D4844     -58.949  24.880  34.724  1.00 50.43 LIG-0.35  N 
ATOM      8 H    ASN D4844     -58.140  24.616  34.844  1.00 50.43 LIG 0.16  HD
ATOM      9 O    VAL D4843     -60.782  26.030  35.260  1.00 47.22 LIG-0.27  OA
BRANCH 7 10
ATOM     10  CA  ASN D4844     -59.635  24.321  33.549  1.00 46.88 LIG 0.17  C 
BRANCH 10 11
ATOM     11  CB  ASN D4844     -60.812  23.449  33.985  1.00 66.72 LIG 0.14  C 
BRANCH 11 12
ATOM     12  CG  ASN D4844     -62.114  23.844  33.317  1.00 62.42 LIG 0.22  C 
ATOM     13 OD1  ASN D4844     -62.614  23.151  32.429  1.00 56.11 LIG-0.27  OA
ATOM     14  ND2 ASN D4844     -62.671  24.971  33.746  1.00 67.26 LIG-0.37  N 
ATOM     15 21HD ASN D4844     -63.411  25.243  33.402  1.00 67.26 LIG 0.16  HD
ATOM     16 22HD ASN D4844     -62.291  25.428  34.368  1.00 67.26 LIG 0.16  HD
ENDBRANCH 11 12
ENDBRANCH 10 11
BRANCH 10 17
ATOM     17  C   ASN D4844     -60.085  25.343  32.491  1.00 52.57 LIG 0.22  C 
ATOM     18 O    ASN D4844     -59.324  25.708  31.580  1.00 48.91 LIG-0.29  OA
ENDBRANCH 10 17
ENDBRANCH 7 10
ENDBRANCH 5 6
BRANCH 5 19
ATOM     19  CB  VAL D4843     -59.517  25.950  38.077  1.00 37.59 LIG 0.01  C 
ATOM     20  CG1 VAL D4843     -59.257  24.510  38.419  1.00 42.19 LIG 0.01  C 
ATOM     21  CG2 VAL D4843     -59.057  26.879  39.204  1.00 33.91 LIG 0.01  C 
ENDBRANCH 5 19
ENDBRANCH 3 5
BRANCH 1 22
ATOM     22  CA  VAL D4842     -59.199  29.903  35.360  1.00 42.26 LIG 0.18  C 
BRANCH 22 23
ATOM     23  N   VAL D4842     -58.203  30.952  35.124  1.00 51.43 LIG-0.34  N 
ATOM     24 H    VAL D4842     -57.913  30.982  34.314  1.00 51.43 LIG 0.16  HD
ATOM     25  C   LEU D4841     -57.791  31.779  36.082  1.00 54.30 LIG 0.26  C 
ATOM     26 O    LEU D4841     -57.088  32.762  35.858  1.00 66.57 LIG-0.27  OA
BRANCH 25 27
ATOM     27  CA  LEU D4841     -58.268  31.475  37.495  1.00 50.85 LIG 0.40  C 
ATOM     28  N   LEU D4841     -59.732  31.506  37.566  1.00 66.18 LIG 0.61  N 
BRANCH 27 29
ATOM     29  CB  LEU D4841     -57.747  30.107  37.950  1.00 58.40 LIG 0.06  C 
BRANCH 29 30
ATOM     30  CG  LEU D4841     -56.699  30.101  39.070  1.00 54.26 LIG-0.02  C 
ATOM     31  CD2 LEU D4841     -55.604  31.174  38.860  1.00 54.78 LIG 0.01  C 
ATOM     32  CD1 LEU D4841     -56.087  28.708  39.264  1.00 32.44 LIG 0.01  C 
ENDBRANCH 29 30
ENDBRANCH 27 29
ENDBRANCH 25 27
ENDBRANCH 22 23
BRANCH 22 33
ATOM     33  CB  VAL D4842     -60.359  29.968  34.335  1.00 48.47 LIG 0.01  C 
ATOM     34  CG2 VAL D4842     -60.598  28.629  33.695  1.00 42.42 LIG 0.01  C 
ATOM     35  CG1 VAL D4842     -60.031  31.000  33.268  1.00 34.87 LIG 0.01  C 
ENDBRANCH 22 33
ENDBRANCH 1 22
TORSDOF 13
ENDMDL
MODEL 138
USER: ADFR SOLUTION from run 131
USER: SCORE 9.381150 LL:  -3.125 LR:  -7.006 RR:   0.000 FEB:  -3.128
USER: RMSD 7.153708
USER: SEED 130
USER: STATUS no improvement in best in 32 clusters for 5 generations
USER: GENES 15
USER: genes 0 Translation |==|  0.35928 0.35579 0.25797
USER: genes 1 Rotation |==|  0.40408 0.85537 0.61874 0.81687
USER: genes 2 Torsion [C]-N--CA-[CB] |==|  0.88752
USER: genes 3 Torsion [N]-CA--C-[N] |==|  0.83333
USER: genes 4 Torsion [C]-N--CA-[CB] |==|  0.46217
USER: genes 5 Torsion [N]-CA--CB-[CG] |==|  0.22900
USER: genes 6 Torsion [CA]-CB--CG-[OD1] |==|  0.28523
USER: genes 7 Torsion [N]-CA--C-[O] |==|  0.95010
USER: genes 8 Torsion [N]-CA--CB-[CG2] |==|  0.79315
USER: genes 9 Torsion [N]-C--CA-[N] |==|  0.88267
USER: genes 10 Torsion [C]-CA--N-[C] |==|  0.79429
USER: genes 11 Torsion [N]-C--CA-[N] |==|  0.43699
USER: genes 12 Torsion [C]-CA--CB-[CG] |==|  0.38411
USER: genes 13 Torsion [CA]-CB--CG-[CD2] |==|  0.05122
USER: genes 14 Torsion [C]-CA--CB-[CG2] |==|  0.30743
ROOT
ATOM      1  C   VAL D4842     -59.995  25.188  35.450  1.00 57.35 LIG 0.24  C 
ATOM      2 O    VAL D4842     -61.100  24.742  35.785  1.00 61.28 LIG-0.27  OA
ATOM      3  N   VAL D4843     -58.916  24.423  35.346  1.00 52.36 LIG-0.35  N 
ATOM      4 H    VAL D4843     -58.194  24.681  34.956  1.00 52.36 LIG 0.16  HD
ENDROOT
BRANCH 3 5
ATOM      5  CA  VAL D4843     -58.837  23.071  35.879  1.00 37.99 LIG 0.18  C 
BRANCH 5 6
ATOM      6  C   VAL D4843     -59.583  22.211  34.829  1.00 51.29 LIG 0.24  C 
ATOM      7  N   ASN D4844     -60.858  22.470  34.567  1.00 50.43 LIG-0.35  N 
ATOM      8 H    ASN D4844     -61.320  23.104  34.918  1.00 50.43 LIG 0.16  HD
ATOM      9 O    VAL D4843     -58.996  21.287  34.248  1.00 47.22 LIG-0.27  OA
BRANCH 7 10
ATOM     10  CA  ASN D4844     -61.571  21.621  33.601  1.00 46.88 LIG 0.17  C 
BRANCH 10 11
ATOM     11  CB  ASN D4844     -63.078  21.862  33.692  1.00 66.72 LIG 0.14  C 
BRANCH 11 12
ATOM     12  CG  ASN D4844     -63.526  23.078  32.906  1.00 62.42 LIG 0.22  C 
ATOM     13 OD1  ASN D4844     -64.078  22.965  31.809  1.00 56.11 LIG-0.27  OA
ATOM     14  ND2 ASN D4844     -63.288  24.257  33.470  1.00 67.26 LIG-0.37  N 
ATOM     15 21HD ASN D4844     -63.521  24.981  33.069  1.00 67.26 LIG 0.16  HD
ATOM     16 22HD ASN D4844     -62.899  24.296  34.237  1.00 67.26 LIG 0.16  HD
ENDBRANCH 11 12
ENDBRANCH 10 11
BRANCH 10 17
ATOM     17  C   ASN D4844     -61.096  21.728  32.141  1.00 52.57 LIG 0.22  C 
ATOM     18 O    ASN D4844     -60.419  22.693  31.752  1.00 48.91 LIG-0.29  OA
ENDBRANCH 10 17
ENDBRANCH 7 10
ENDBRANCH 5 6
BRANCH 5 19
ATOM     19  CB  VAL D4843     -59.546  23.063  37.269  1.00 37.59 LIG 0.01  C 
ATOM     20  CG1 VAL D4843     -59.946  21.679  37.697  1.00 42.19 LIG 0.01  C 
ATOM     21  CG2 VAL D4843     -58.678  23.743  38.331  1.00 33.91 LIG 0.01  C 
ENDBRANCH 5 19
ENDBRANCH 3 5
BRANCH 1 22
ATOM     22  CA  VAL D4842     -59.787  26.666  35.069  1.00 42.26 LIG 0.18  C 
BRANCH 22 23
ATOM     23  N   VAL D4842     -58.552  27.291  35.551  1.00 51.43 LIG-0.34  N 
ATOM     24 H    VAL D4842     -57.960  27.413  34.938  1.00 51.43 LIG 0.16  HD
ATOM     25  C   LEU D4841     -58.372  27.636  36.824  1.00 54.30 LIG 0.26  C 
ATOM     26 O    LEU D4841     -57.416  28.307  37.205  1.00 66.57 LIG-0.27  OA
BRANCH 25 27
ATOM     27  CA  LEU D4841     -59.443  27.187  37.808  1.00 50.85 LIG 0.40  C 
ATOM     28  N   LEU D4841     -58.906  27.137  39.172  1.00 66.18 LIG 0.61  N 
BRANCH 27 29
ATOM     29  CB  LEU D4841     -60.648  28.133  37.752  1.00 58.40 LIG 0.06  C 
BRANCH 29 30
ATOM     30  CG  LEU D4841     -62.039  27.487  37.798  1.00 54.26 LIG-0.02  C 
ATOM     31  CD2 LEU D4841     -62.000  26.040  38.344  1.00 54.78 LIG 0.01  C 
ATOM     32  CD1 LEU D4841     -62.737  27.551  36.433  1.00 32.44 LIG 0.01  C 
ENDBRANCH 29 30
ENDBRANCH 27 29
ENDBRANCH 25 27
ENDBRANCH 22 23
BRANCH 22 33
ATOM     33  CB  VAL D4842     -59.979  26.871  33.544  1.00 48.47 LIG 0.01  C 
ATOM     34  CG2 VAL D4842     -61.229  27.654  33.251  1.00 42.42 LIG 0.01  C 
ATOM     35  CG1 VAL D4842     -60.044  25.516  32.859  1.00 34.87 LIG 0.01  C 
ENDBRANCH 22 33
ENDBRANCH 1 22
TORSDOF 13
ENDMDL
MODEL 139
USER: ADFR SOLUTION from run 102
USER: SCORE 8.713202 LL:  -2.494 LR:  -7.009 RR:   0.000 FEB:  -3.131
USER: RMSD 8.943412
USER: SEED 101
USER: STATUS no improvement in best in 14 clusters for 5 generations
USER: GENES 15
USER: genes 0 Translation |==|  0.29954 0.52125 0.12702
USER: genes 1 Rotation |==|  0.72133 0.62418 0.11277 0.68879
USER: genes 2 Torsion [C]-N--CA-[CB] |==|  0.53650
USER: genes 3 Torsion [N]-CA--C-[N] |==|  0.28961
USER: genes 4 Torsion [C]-N--CA-[CB] |==|  0.29681
USER: genes 5 Torsion [N]-CA--CB-[CG] |==|  0.75341
USER: genes 6 Torsion [CA]-CB--CG-[OD1] |==|  0.86201
USER: genes 7 Torsion [N]-CA--C-[O] |==|  0.67933
USER: genes 8 Torsion [N]-CA--CB-[CG2] |==|  0.11383
USER: genes 9 Torsion [N]-C--CA-[N] |==|  0.45843
USER: genes 10 Torsion [C]-CA--N-[C] |==|  0.53889
USER: genes 11 Torsion [N]-C--CA-[N] |==|  0.37682
USER: genes 12 Torsion [C]-CA--CB-[CG] |==|  0.90784
USER: genes 13 Torsion [CA]-CB--CG-[CD2] |==|  0.70757
USER: genes 14 Torsion [C]-CA--CB-[CG2] |==|  0.23070
ROOT
ATOM      1  C   VAL D4842     -61.250  27.918  33.485  1.00 57.35 LIG 0.24  C 
ATOM      2 O    VAL D4842     -60.350  28.664  33.080  1.00 61.28 LIG-0.27  OA
ATOM      3  N   VAL D4843     -62.458  28.361  33.807  1.00 52.36 LIG-0.35  N 
ATOM      4 H    VAL D4843     -63.133  27.841  33.924  1.00 52.36 LIG 0.16  HD
ENDROOT
BRANCH 3 5
ATOM      5  CA  VAL D4843     -62.771  29.770  33.993  1.00 37.99 LIG 0.18  C 
BRANCH 5 6
ATOM      6  C   VAL D4843     -61.630  30.291  34.901  1.00 51.29 LIG 0.24  C 
ATOM      7  N   ASN D4844     -60.662  31.025  34.368  1.00 50.43 LIG-0.35  N 
ATOM      8 H    ASN D4844     -60.616  31.267  33.544  1.00 50.43 LIG 0.16  HD
ATOM      9 O    VAL D4843     -61.620  30.018  36.110  1.00 47.22 LIG-0.27  OA
BRANCH 7 10
ATOM     10  CA  ASN D4844     -59.559  31.479  35.228  1.00 46.88 LIG 0.17  C 
BRANCH 10 11
ATOM     11  CB  ASN D4844     -58.285  30.695  34.919  1.00 66.72 LIG 0.14  C 
BRANCH 11 12
ATOM     12  CG  ASN D4844     -58.165  29.424  35.738  1.00 62.42 LIG 0.22  C 
ATOM     13 OD1  ASN D4844     -58.320  29.434  36.961  1.00 56.11 LIG-0.27  OA
ATOM     14  ND2 ASN D4844     -57.888  28.317  35.059  1.00 67.26 LIG-0.37  N 
ATOM     15 21HD ASN D4844     -57.809  27.567  35.473  1.00 67.26 LIG 0.16  HD
ATOM     16 22HD ASN D4844     -57.786  28.350  34.205  1.00 67.26 LIG 0.16  HD
ENDBRANCH 11 12
ENDBRANCH 10 11
BRANCH 10 17
ATOM     17  C   ASN D4844     -59.279  32.992  35.209  1.00 52.57 LIG 0.22  C 
ATOM     18 O    ASN D4844     -58.207  33.445  34.776  1.00 48.91 LIG-0.29  OA
ENDBRANCH 10 17
ENDBRANCH 7 10
ENDBRANCH 5 6
BRANCH 5 19
ATOM     19  CB  VAL D4843     -64.170  29.862  34.679  1.00 37.59 LIG 0.01  C 
ATOM     20  CG1 VAL D4843     -65.297  29.785  33.688  1.00 42.19 LIG 0.01  C 
ATOM     21  CG2 VAL D4843     -64.317  28.797  35.770  1.00 33.91 LIG 0.01  C 
ENDBRANCH 5 19
ENDBRANCH 3 5
BRANCH 1 22
ATOM     22  CA  VAL D4842     -61.061  26.392  33.602  1.00 42.26 LIG 0.18  C 
BRANCH 22 23
ATOM     23  N   VAL D4842     -59.876  25.835  32.943  1.00 51.43 LIG-0.34  N 
ATOM     24 H    VAL D4842     -59.294  26.425  32.714  1.00 51.43 LIG 0.16  HD
ATOM     25  C   LEU D4841     -59.724  24.530  32.726  1.00 54.30 LIG 0.26  C 
ATOM     26 O    LEU D4841     -58.669  24.038  32.330  1.00 66.57 LIG-0.27  OA
BRANCH 25 27
ATOM     27  CA  LEU D4841     -60.924  23.645  33.030  1.00 50.85 LIG 0.40  C 
ATOM     28  N   LEU D4841     -61.133  22.668  31.957  1.00 66.18 LIG 0.61  N 
BRANCH 27 29
ATOM     29  CB  LEU D4841     -60.728  22.923  34.369  1.00 58.40 LIG 0.06  C 
BRANCH 29 30
ATOM     30  CG  LEU D4841     -59.292  22.537  34.745  1.00 54.26 LIG-0.02  C 
ATOM     31  CD2 LEU D4841     -59.025  21.022  34.580  1.00 54.78 LIG 0.01  C 
ATOM     32  CD1 LEU D4841     -58.929  23.018  36.156  1.00 32.44 LIG 0.01  C 
ENDBRANCH 29 30
ENDBRANCH 27 29
ENDBRANCH 25 27
ENDBRANCH 22 23
BRANCH 22 33
ATOM     33  CB  VAL D4842     -61.164  25.940  35.081  1.00 48.47 LIG 0.01  C 
ATOM     34  CG2 VAL D4842     -62.597  25.760  35.498  1.00 42.42 LIG 0.01  C 
ATOM     35  CG1 VAL D4842     -60.491  26.971  35.971  1.00 34.87 LIG 0.01  C 
ENDBRANCH 22 33
ENDBRANCH 1 22
TORSDOF 13
ENDMDL
MODEL 140
USER: ADFR SOLUTION from run 165
USER: SCORE 8.946157 LL:  -2.682 LR:  -7.009 RR:   0.000 FEB:  -3.132
USER: RMSD 8.386997
USER: SEED 164
USER: STATUS no improvement in best in 49 clusters for 5 generations
USER: GENES 15
USER: genes 0 Translation |==|  0.34140 0.45487 0.25099
USER: genes 1 Rotation |==|  0.86897 0.17719 0.59569 0.52230
USER: genes 2 Torsion [C]-N--CA-[CB] |==|  0.88449
USER: genes 3 Torsion [N]-CA--C-[N] |==|  0.30556
USER: genes 4 Torsion [C]-N--CA-[CB] |==|  0.29574
USER: genes 5 Torsion [N]-CA--CB-[CG] |==|  0.31779
USER: genes 6 Torsion [CA]-CB--CG-[OD1] |==|  0.78264
USER: genes 7 Torsion [N]-CA--C-[O] |==|  0.97976
USER: genes 8 Torsion [N]-CA--CB-[CG2] |==|  0.77342
USER: genes 9 Torsion [N]-C--CA-[N] |==|  0.47451
USER: genes 10 Torsion [C]-CA--N-[C] |==|  0.78852
USER: genes 11 Torsion [N]-C--CA-[N] |==|  0.38978
USER: genes 12 Torsion [C]-CA--CB-[CG] |==|  0.31233
USER: genes 13 Torsion [CA]-CB--CG-[CD2] |==|  0.08507
USER: genes 14 Torsion [C]-CA--CB-[CG2] |==|  0.24529
ROOT
ATOM      1  C   VAL D4842     -60.371  26.822  35.345  1.00 57.35 LIG 0.24  C 
ATOM      2 O    VAL D4842     -60.950  27.338  36.309  1.00 61.28 LIG-0.27  OA
ATOM      3  N   VAL D4843     -59.063  26.937  35.149  1.00 52.36 LIG-0.35  N 
ATOM      4 H    VAL D4843     -58.629  26.450  34.589  1.00 52.36 LIG 0.16  HD
ENDROOT
BRANCH 3 5
ATOM      5  CA  VAL D4843     -58.227  27.894  35.859  1.00 37.99 LIG 0.18  C 
BRANCH 5 6
ATOM      6  C   VAL D4843     -58.016  27.247  37.250  1.00 51.29 LIG 0.24  C 
ATOM      7  N   ASN D4844     -56.816  26.782  37.573  1.00 50.43 LIG-0.35  N 
ATOM      8 H    ASN D4844     -56.115  26.827  37.078  1.00 50.43 LIG 0.16  HD
ATOM      9 O    VAL D4843     -58.961  27.159  38.048  1.00 47.22 LIG-0.27  OA
BRANCH 7 10
ATOM     10  CA  ASN D4844     -56.634  26.131  38.879  1.00 46.88 LIG 0.17  C 
BRANCH 10 11
ATOM     11  CB  ASN D4844     -56.495  24.619  38.705  1.00 66.72 LIG 0.14  C 
BRANCH 11 12
ATOM     12  CG  ASN D4844     -55.123  24.107  39.098  1.00 62.42 LIG 0.22  C 
ATOM     13 OD1  ASN D4844     -54.154  24.232  38.347  1.00 56.11 LIG-0.27  OA
ATOM     14  ND2 ASN D4844     -55.038  23.524  40.288  1.00 67.26 LIG-0.37  N 
ATOM     15 21HD ASN D4844     -54.283  23.215  40.563  1.00 67.26 LIG 0.16  HD
ATOM     16 22HD ASN D4844     -55.737  23.454  40.784  1.00 67.26 LIG 0.16  HD
ENDBRANCH 11 12
ENDBRANCH 10 11
BRANCH 10 17
ATOM     17  C   ASN D4844     -55.487  26.681  39.744  1.00 52.57 LIG 0.22  C 
ATOM     18 O    ASN D4844     -54.688  27.521  39.299  1.00 48.91 LIG-0.29  OA
ENDBRANCH 10 17
ENDBRANCH 7 10
ENDBRANCH 5 6
BRANCH 5 19
ATOM     19  CB  VAL D4843     -59.008  29.242  35.940  1.00 37.59 LIG 0.01  C 
ATOM     20  CG1 VAL D4843     -58.600  30.067  37.128  1.00 42.19 LIG 0.01  C 
ATOM     21  CG2 VAL D4843     -58.867  30.037  34.639  1.00 33.91 LIG 0.01  C 
ENDBRANCH 5 19
ENDBRANCH 3 5
BRANCH 1 22
ATOM     22  CA  VAL D4842     -61.112  25.952  34.312  1.00 42.26 LIG 0.18  C 
BRANCH 22 23
ATOM     23  N   VAL D4842     -62.511  25.637  34.616  1.00 51.43 LIG-0.34  N 
ATOM     24 H    VAL D4842     -63.079  26.092  34.158  1.00 51.43 LIG 0.16  HD
ATOM     25  C   LEU D4841     -62.860  24.725  35.522  1.00 54.30 LIG 0.26  C 
ATOM     26 O    LEU D4841     -64.017  24.335  35.665  1.00 66.57 LIG-0.27  OA
BRANCH 25 27
ATOM     27  CA  LEU D4841     -61.737  24.143  36.368  1.00 50.85 LIG 0.40  C 
ATOM     28  N   LEU D4841     -62.171  23.972  37.758  1.00 66.18 LIG 0.61  N 
BRANCH 27 29
ATOM     29  CB  LEU D4841     -61.278  22.798  35.791  1.00 58.40 LIG 0.06  C 
BRANCH 29 30
ATOM     30  CG  LEU D4841     -59.866  22.745  35.195  1.00 54.26 LIG-0.02  C 
ATOM     31  CD2 LEU D4841     -58.893  23.726  35.894  1.00 54.78 LIG 0.01  C 
ATOM     32  CD1 LEU D4841     -59.884  22.964  33.677  1.00 32.44 LIG 0.01  C 
ENDBRANCH 29 30
ENDBRANCH 27 29
ENDBRANCH 25 27
ENDBRANCH 22 23
BRANCH 22 33
ATOM     33  CB  VAL D4842     -60.952  26.539  32.886  1.00 48.47 LIG 0.01  C 
ATOM     34  CG2 VAL D4842     -59.715  26.011  32.214  1.00 42.42 LIG 0.01  C 
ATOM     35  CG1 VAL D4842     -60.888  28.055  32.970  1.00 34.87 LIG 0.01  C 
ENDBRANCH 22 33
ENDBRANCH 1 22
TORSDOF 13
ENDMDL
MODEL 141
USER: ADFR SOLUTION from run 195
USER: SCORE 9.839596 LL:  -3.430 LR:  -7.012 RR:   0.000 FEB:  -3.134
USER: RMSD 8.838006
USER: SEED 194
USER: STATUS no improvement in best in 37 clusters for 5 generations
USER: GENES 15
USER: genes 0 Translation |==|  0.34117 0.24582 0.13296
USER: genes 1 Rotation |==|  0.46542 0.62387 0.57341 0.97757
USER: genes 2 Torsion [C]-N--CA-[CB] |==|  0.53581
USER: genes 3 Torsion [N]-CA--C-[N] |==|  0.32200
USER: genes 4 Torsion [C]-N--CA-[CB] |==|  0.35367
USER: genes 5 Torsion [N]-CA--CB-[CG] |==|  0.70720
USER: genes 6 Torsion [CA]-CB--CG-[OD1] |==|  0.72596
USER: genes 7 Torsion [N]-CA--C-[O] |==|  0.37123
USER: genes 8 Torsion [N]-CA--CB-[CG2] |==|  0.09719
USER: genes 9 Torsion [N]-C--CA-[N] |==|  0.99761
USER: genes 10 Torsion [C]-CA--N-[C] |==|  0.77569
USER: genes 11 Torsion [N]-C--CA-[N] |==|  0.41207
USER: genes 12 Torsion [C]-CA--CB-[CG] |==|  0.37415
USER: genes 13 Torsion [CA]-CB--CG-[CD2] |==|  0.06858
USER: genes 14 Torsion [C]-CA--CB-[CG2] |==|  0.25707
ROOT
ATOM      1  C   VAL D4842     -60.375  23.373  33.574  1.00 57.35 LIG 0.24  C 
ATOM      2 O    VAL D4842     -61.180  23.367  32.635  1.00 61.28 LIG-0.27  OA
ATOM      3  N   VAL D4843     -59.826  22.265  34.055  1.00 52.36 LIG-0.35  N 
ATOM      4 H    VAL D4843     -59.148  22.269  34.585  1.00 52.36 LIG 0.16  HD
ENDROOT
BRANCH 3 5
ATOM      5  CA  VAL D4843     -60.309  20.929  33.739  1.00 37.99 LIG 0.18  C 
BRANCH 5 6
ATOM      6  C   VAL D4843     -61.841  21.026  33.943  1.00 51.29 LIG 0.24  C 
ATOM      7  N   ASN D4844     -62.645  20.857  32.901  1.00 50.43 LIG-0.35  N 
ATOM      8 H    ASN D4844     -62.392  20.670  32.101  1.00 50.43 LIG 0.16  HD
ATOM      9 O    VAL D4843     -62.308  21.266  35.065  1.00 47.22 LIG-0.27  OA
BRANCH 7 10
ATOM     10  CA  ASN D4844     -64.097  20.994  33.094  1.00 46.88 LIG 0.17  C 
BRANCH 10 11
ATOM     11  CB  ASN D4844     -64.677  21.985  32.085  1.00 66.72 LIG 0.14  C 
BRANCH 11 12
ATOM     12  CG  ASN D4844     -65.028  23.320  32.711  1.00 62.42 LIG 0.22  C 
ATOM     13 OD1  ASN D4844     -66.184  23.588  33.043  1.00 56.11 LIG-0.27  OA
ATOM     14  ND2 ASN D4844     -64.020  24.169  32.876  1.00 67.26 LIG-0.37  N 
ATOM     15 21HD ASN D4844     -64.161  24.942  33.227  1.00 67.26 LIG 0.16  HD
ATOM     16 22HD ASN D4844     -63.226  23.947  32.631  1.00 67.26 LIG 0.16  HD
ENDBRANCH 11 12
ENDBRANCH 10 11
BRANCH 10 17
ATOM     17  C   ASN D4844     -64.897  19.680  33.080  1.00 52.57 LIG 0.22  C 
ATOM     18 O    ASN D4844     -65.757  19.438  33.943  1.00 48.91 LIG-0.29  OA
ENDBRANCH 10 17
ENDBRANCH 7 10
ENDBRANCH 5 6
BRANCH 5 19
ATOM     19  CB  VAL D4843     -59.637  19.931  34.732  1.00 37.59 LIG 0.01  C 
ATOM     20  CG1 VAL D4843     -58.338  19.390  34.205  1.00 42.19 LIG 0.01  C 
ATOM     21  CG2 VAL D4843     -59.453  20.569  36.112  1.00 33.91 LIG 0.01  C 
ENDBRANCH 5 19
ENDBRANCH 3 5
BRANCH 1 22
ATOM     22  CA  VAL D4842     -59.897  24.680  34.237  1.00 42.26 LIG 0.18  C 
BRANCH 22 23
ATOM     23  N   VAL D4842     -58.918  24.536  35.319  1.00 51.43 LIG-0.34  N 
ATOM     24 H    VAL D4842     -58.106  24.678  35.076  1.00 51.43 LIG 0.16  HD
ATOM     25  C   LEU D4841     -59.267  24.216  36.563  1.00 54.30 LIG 0.26  C 
ATOM     26 O    LEU D4841     -58.482  24.258  37.508  1.00 66.57 LIG-0.27  OA
BRANCH 25 27
ATOM     27  CA  LEU D4841     -60.721  23.824  36.783  1.00 50.85 LIG 0.40  C 
ATOM     28  N   LEU D4841     -60.836  22.839  37.862  1.00 66.18 LIG 0.61  N 
BRANCH 27 29
ATOM     29  CB  LEU D4841     -61.564  25.064  37.110  1.00 58.40 LIG 0.06  C 
BRANCH 29 30
ATOM     30  CG  LEU D4841     -62.907  25.201  36.382  1.00 54.26 LIG-0.02  C 
ATOM     31  CD2 LEU D4841     -63.471  23.836  35.920  1.00 54.78 LIG 0.01  C 
ATOM     32  CD1 LEU D4841     -62.819  26.192  35.214  1.00 32.44 LIG 0.01  C 
ENDBRANCH 29 30
ENDBRANCH 27 29
ENDBRANCH 25 27
ENDBRANCH 22 23
BRANCH 22 33
ATOM     33  CB  VAL D4842     -59.425  25.695  33.165  1.00 48.47 LIG 0.01  C 
ATOM     34  CG2 VAL D4842     -60.543  26.610  32.750  1.00 42.42 LIG 0.01  C 
ATOM     35  CG1 VAL D4842     -58.897  24.942  31.955  1.00 34.87 LIG 0.01  C 
ENDBRANCH 22 33
ENDBRANCH 1 22
TORSDOF 13
ENDMDL
MODEL 142
USER: ADFR SOLUTION from run 26
USER: SCORE 8.783510 LL:  -3.081 LR:  -7.009 RR:   0.000 FEB:  -3.131
USER: RMSD 7.079505
USER: SEED 25
USER: STATUS no improvement in best in 35 clusters for 5 generations
USER: GENES 15
USER: genes 0 Translation |==|  0.42054 0.54744 0.28377
USER: genes 1 Rotation |==|  0.34166 0.29845 0.62208 0.91159
USER: genes 2 Torsion [C]-N--CA-[CB] |==|  0.47778
USER: genes 3 Torsion [N]-CA--C-[N] |==|  0.23139
USER: genes 4 Torsion [C]-N--CA-[CB] |==|  0.15165
USER: genes 5 Torsion [N]-CA--CB-[CG] |==|  0.57994
USER: genes 6 Torsion [CA]-CB--CG-[OD1] |==|  0.00785
USER: genes 7 Torsion [N]-CA--C-[O] |==|  0.77935
USER: genes 8 Torsion [N]-CA--CB-[CG2] |==|  0.47424
USER: genes 9 Torsion [N]-C--CA-[N] |==|  0.97747
USER: genes 10 Torsion [C]-CA--N-[C] |==|  0.78916
USER: genes 11 Torsion [N]-C--CA-[N] |==|  0.37153
USER: genes 12 Torsion [C]-CA--CB-[CG] |==|  0.29515
USER: genes 13 Torsion [CA]-CB--CG-[CD2] |==|  0.07832
USER: genes 14 Torsion [C]-CA--CB-[CG2] |==|  0.65959
ROOT
ATOM      1  C   VAL D4842     -58.709  28.350  35.837  1.00 57.35 LIG 0.24  C 
ATOM      2 O    VAL D4842     -57.903  28.035  34.952  1.00 61.28 LIG-0.27  OA
ATOM      3  N   VAL D4843     -58.913  27.607  36.917  1.00 52.36 LIG-0.35  N 
ATOM      4 H    VAL D4843     -59.336  27.893  37.609  1.00 52.36 LIG 0.16  HD
ENDROOT
BRANCH 3 5
ATOM      5  CA  VAL D4843     -58.445  26.235  37.046  1.00 37.99 LIG 0.18  C 
BRANCH 5 6
ATOM      6  C   VAL D4843     -59.305  25.447  36.028  1.00 51.29 LIG 0.24  C 
ATOM      7  N   ASN D4844     -58.940  25.424  34.752  1.00 50.43 LIG-0.35  N 
ATOM      8 H    ASN D4844     -58.236  25.797  34.429  1.00 50.43 LIG 0.16  HD
ATOM      9 O    VAL D4843     -60.327  24.853  36.400  1.00 47.22 LIG-0.27  OA
BRANCH 7 10
ATOM     10  CA  ASN D4844     -59.786  24.711  33.784  1.00 46.88 LIG 0.17  C 
BRANCH 10 11
ATOM     11  CB  ASN D4844     -61.223  25.225  33.851  1.00 66.72 LIG 0.14  C 
BRANCH 11 12
ATOM     12  CG  ASN D4844     -62.242  24.172  33.463  1.00 62.42 LIG 0.22  C 
ATOM     13 OD1  ASN D4844     -61.899  23.021  33.185  1.00 56.11 LIG-0.27  OA
ATOM     14  ND2 ASN D4844     -63.510  24.566  33.443  1.00 67.26 LIG-0.37  N 
ATOM     15 21HD ASN D4844     -64.130  24.009  33.230  1.00 67.26 LIG 0.16  HD
ATOM     16 22HD ASN D4844     -63.711  25.379  33.643  1.00 67.26 LIG 0.16  HD
ENDBRANCH 11 12
ENDBRANCH 10 11
BRANCH 10 17
ATOM     17  C   ASN D4844     -59.281  24.711  32.330  1.00 52.57 LIG 0.22  C 
ATOM     18 O    ASN D4844     -59.445  25.694  31.590  1.00 48.91 LIG-0.29  OA
ENDBRANCH 10 17
ENDBRANCH 7 10
ENDBRANCH 5 6
BRANCH 5 19
ATOM     19  CB  VAL D4843     -58.698  25.781  38.518  1.00 37.59 LIG 0.01  C 
ATOM     20  CG1 VAL D4843     -60.069  26.158  39.003  1.00 42.19 LIG 0.01  C 
ATOM     21  CG2 VAL D4843     -58.445  24.279  38.680  1.00 33.91 LIG 0.01  C 
ENDBRANCH 5 19
ENDBRANCH 3 5
BRANCH 1 22
ATOM     22  CA  VAL D4842     -59.510  29.665  35.787  1.00 42.26 LIG 0.18  C 
BRANCH 22 23
ATOM     23  N   VAL D4842     -60.524  29.845  36.831  1.00 51.43 LIG-0.34  N 
ATOM     24 H    VAL D4842     -60.292  30.392  37.452  1.00 51.43 LIG 0.16  HD
ATOM     25  C   LEU D4841     -61.696  29.214  36.808  1.00 54.30 LIG 0.26  C 
ATOM     26 O    LEU D4841     -62.613  29.483  37.581  1.00 66.57 LIG-0.27  OA
BRANCH 25 27
ATOM     27  CA  LEU D4841     -61.874  28.148  35.737  1.00 50.85 LIG 0.40  C 
ATOM     28  N   LEU D4841     -62.456  26.930  36.309  1.00 66.18 LIG 0.61  N 
BRANCH 27 29
ATOM     29  CB  LEU D4841     -62.763  28.674  34.604  1.00 58.40 LIG 0.06  C 
BRANCH 29 30
ATOM     30  CG  LEU D4841     -62.068  29.028  33.283  1.00 54.26 LIG-0.02  C 
ATOM     31  CD2 LEU D4841     -60.785  28.194  33.050  1.00 54.78 LIG 0.01  C 
ATOM     32  CD1 LEU D4841     -61.782  30.532  33.180  1.00 32.44 LIG 0.01  C 
ENDBRANCH 29 30
ENDBRANCH 27 29
ENDBRANCH 25 27
ENDBRANCH 22 23
BRANCH 22 33
ATOM     33  CB  VAL D4842     -58.556  30.883  35.695  1.00 48.47 LIG 0.01  C 
ATOM     34  CG2 VAL D4842     -58.782  31.841  36.832  1.00 42.42 LIG 0.01  C 
ATOM     35  CG1 VAL D4842     -58.772  31.594  34.370  1.00 34.87 LIG 0.01  C 
ENDBRANCH 22 33
ENDBRANCH 1 22
TORSDOF 13
ENDMDL
MODEL 143
USER: ADFR SOLUTION from run 27
USER: SCORE 8.987006 LL:  -2.578 LR:  -7.001 RR:   0.000 FEB:  -3.123
USER: RMSD 5.963458
USER: SEED 26
USER: STATUS no improvement in best in 48 clusters for 5 generations
USER: GENES 15
USER: genes 0 Translation |==|  0.35214 0.46840 0.32270
USER: genes 1 Rotation |==|  0.23551 0.25613 0.26530 0.75590
USER: genes 2 Torsion [C]-N--CA-[CB] |==|  0.54655
USER: genes 3 Torsion [N]-CA--C-[N] |==|  0.35560
USER: genes 4 Torsion [C]-N--CA-[CB] |==|  0.23198
USER: genes 5 Torsion [N]-CA--CB-[CG] |==|  0.73704
USER: genes 6 Torsion [CA]-CB--CG-[OD1] |==|  0.82339
USER: genes 7 Torsion [N]-CA--C-[O] |==|  0.95412
USER: genes 8 Torsion [N]-CA--CB-[CG2] |==|  0.49505
USER: genes 9 Torsion [N]-C--CA-[N] |==|  0.46020
USER: genes 10 Torsion [C]-CA--N-[C] |==|  0.67363
USER: genes 11 Torsion [N]-C--CA-[N] |==|  0.33101
USER: genes 12 Torsion [C]-CA--CB-[CG] |==|  0.14665
USER: genes 13 Torsion [CA]-CB--CG-[CD2] |==|  0.59963
USER: genes 14 Torsion [C]-CA--CB-[CG2] |==|  0.25421
ROOT
ATOM      1  C   VAL D4842     -60.145  27.046  36.420  1.00 57.35 LIG 0.24  C 
ATOM      2 O    VAL D4842     -59.858  25.858  36.229  1.00 61.28 LIG-0.27  OA
ATOM      3  N   VAL D4843     -61.397  27.483  36.458  1.00 52.36 LIG-0.35  N 
ATOM      4 H    VAL D4843     -61.614  28.260  36.754  1.00 52.36 LIG 0.16  HD
ENDROOT
BRANCH 3 5
ATOM      5  CA  VAL D4843     -62.535  26.696  36.003  1.00 37.99 LIG 0.18  C 
BRANCH 5 6
ATOM      6  C   VAL D4843     -62.049  26.070  34.672  1.00 51.29 LIG 0.24  C 
ATOM      7  N   ASN D4844     -62.159  24.759  34.496  1.00 50.43 LIG-0.35  N 
ATOM      8 H    ASN D4844     -62.506  24.208  35.057  1.00 50.43 LIG 0.16  HD
ATOM      9 O    VAL D4843     -61.557  26.785  33.788  1.00 47.22 LIG-0.27  OA
BRANCH 7 10
ATOM     10  CA  ASN D4844     -61.656  24.166  33.247  1.00 46.88 LIG 0.17  C 
BRANCH 10 11
ATOM     11  CB  ASN D4844     -60.153  23.910  33.347  1.00 66.72 LIG 0.14  C 
BRANCH 11 12
ATOM     12  CG  ASN D4844     -59.326  25.045  32.775  1.00 62.42 LIG 0.22  C 
ATOM     13 OD1  ASN D4844     -59.384  25.340  31.580  1.00 56.11 LIG-0.27  OA
ATOM     14  ND2 ASN D4844     -58.547  25.690  33.636  1.00 67.26 LIG-0.37  N 
ATOM     15 21HD ASN D4844     -58.056  26.343  33.366  1.00 67.26 LIG 0.16  HD
ATOM     16 22HD ASN D4844     -58.533  25.454  34.464  1.00 67.26 LIG 0.16  HD
ENDBRANCH 11 12
ENDBRANCH 10 11
BRANCH 10 17
ATOM     17  C   ASN D4844     -62.388  22.900  32.769  1.00 52.57 LIG 0.22  C 
ATOM     18 O    ASN D4844     -63.121  22.250  33.532  1.00 48.91 LIG-0.29  OA
ENDBRANCH 10 17
ENDBRANCH 7 10
ENDBRANCH 5 6
BRANCH 5 19
ATOM     19  CB  VAL D4843     -63.738  27.669  35.801  1.00 37.59 LIG 0.01  C 
ATOM     20  CG1 VAL D4843     -63.389  28.830  34.912  1.00 42.19 LIG 0.01  C 
ATOM     21  CG2 VAL D4843     -64.967  26.921  35.278  1.00 33.91 LIG 0.01  C 
ENDBRANCH 5 19
ENDBRANCH 3 5
BRANCH 1 22
ATOM     22  CA  VAL D4842     -59.071  28.118  36.688  1.00 42.26 LIG 0.18  C 
BRANCH 22 23
ATOM     23  N   VAL D4842     -57.721  27.623  36.976  1.00 51.43 LIG-0.34  N 
ATOM     24 H    VAL D4842     -57.365  27.182  36.329  1.00 51.43 LIG 0.16  HD
ATOM     25  C   LEU D4841     -57.109  27.844  38.137  1.00 54.30 LIG 0.26  C 
ATOM     26 O    LEU D4841     -55.924  27.582  38.327  1.00 66.57 LIG-0.27  OA
BRANCH 25 27
ATOM     27  CA  LEU D4841     -57.945  28.484  39.236  1.00 50.85 LIG 0.40  C 
ATOM     28  N   LEU D4841     -58.035  27.600  40.402  1.00 66.18 LIG 0.61  N 
BRANCH 27 29
ATOM     29  CB  LEU D4841     -57.344  29.835  39.645  1.00 58.40 LIG 0.06  C 
BRANCH 29 30
ATOM     30  CG  LEU D4841     -57.076  30.843  38.520  1.00 54.26 LIG-0.02  C 
ATOM     31  CD2 LEU D4841     -55.795  31.675  38.767  1.00 54.78 LIG 0.01  C 
ATOM     32  CD1 LEU D4841     -58.290  31.747  38.271  1.00 32.44 LIG 0.01  C 
ENDBRANCH 29 30
ENDBRANCH 27 29
ENDBRANCH 25 27
ENDBRANCH 22 23
BRANCH 22 33
ATOM     33  CB  VAL D4842     -59.066  29.180  35.559  1.00 48.47 LIG 0.01  C 
ATOM     34  CG2 VAL D4842     -59.973  30.333  35.891  1.00 42.42 LIG 0.01  C 
ATOM     35  CG1 VAL D4842     -59.506  28.534  34.257  1.00 34.87 LIG 0.01  C 
ENDBRANCH 22 33
ENDBRANCH 1 22
TORSDOF 13
ENDMDL
MODEL 144
USER: ADFR SOLUTION from run 44
USER: SCORE 8.886825 LL:  -2.863 LR:  -7.004 RR:   0.000 FEB:  -3.126
USER: RMSD 9.619263
USER: SEED 43
USER: STATUS no improvement in best in 18 clusters for 5 generations
USER: GENES 15
USER: genes 0 Translation |==|  0.36038 0.20660 0.18413
USER: genes 1 Rotation |==|  0.40046 0.52934 0.98910 0.50287
USER: genes 2 Torsion [C]-N--CA-[CB] |==|  0.21111
USER: genes 3 Torsion [N]-CA--C-[N] |==|  0.50082
USER: genes 4 Torsion [C]-N--CA-[CB] |==|  0.82143
USER: genes 5 Torsion [N]-CA--CB-[CG] |==|  0.81538
USER: genes 6 Torsion [CA]-CB--CG-[OD1] |==|  0.86532
USER: genes 7 Torsion [N]-CA--C-[O] |==|  0.14795
USER: genes 8 Torsion [N]-CA--CB-[CG2] |==|  0.62897
USER: genes 9 Torsion [N]-C--CA-[N] |==|  0.41727
USER: genes 10 Torsion [C]-CA--N-[C] |==|  0.78853
USER: genes 11 Torsion [N]-C--CA-[N] |==|  0.41077
USER: genes 12 Torsion [C]-CA--CB-[CG] |==|  0.35549
USER: genes 13 Torsion [CA]-CB--CG-[CD2] |==|  0.05473
USER: genes 14 Torsion [C]-CA--CB-[CG2] |==|  0.20202
ROOT
ATOM      1  C   VAL D4842     -59.972  22.726  34.342  1.00 57.35 LIG 0.24  C 
ATOM      2 O    VAL D4842     -59.331  22.289  33.378  1.00 61.28 LIG-0.27  OA
ATOM      3  N   VAL D4843     -60.052  24.020  34.623  1.00 52.36 LIG-0.35  N 
ATOM      4 H    VAL D4843     -60.622  24.346  35.178  1.00 52.36 LIG 0.16  HD
ENDROOT
BRANCH 3 5
ATOM      5  CA  VAL D4843     -59.185  25.025  34.023  1.00 37.99 LIG 0.18  C 
BRANCH 5 6
ATOM      6  C   VAL D4843     -59.368  26.267  34.930  1.00 51.29 LIG 0.24  C 
ATOM      7  N   ASN D4844     -58.704  27.380  34.645  1.00 50.43 LIG-0.35  N 
ATOM      8 H    ASN D4844     -58.183  27.490  33.970  1.00 50.43 LIG 0.16  HD
ATOM      9 O    VAL D4843     -60.119  26.217  35.914  1.00 47.22 LIG-0.27  OA
BRANCH 7 10
ATOM     10  CA  ASN D4844     -58.849  28.541  35.535  1.00 46.88 LIG 0.17  C 
BRANCH 10 11
ATOM     11  CB  ASN D4844     -60.290  29.052  35.513  1.00 66.72 LIG 0.14  C 
BRANCH 11 12
ATOM     12  CG  ASN D4844     -60.686  29.629  34.168  1.00 62.42 LIG 0.22  C 
ATOM     13 OD1  ASN D4844     -59.968  30.443  33.583  1.00 56.11 LIG-0.27  OA
ATOM     14  ND2 ASN D4844     -61.842  29.205  33.669  1.00 67.26 LIG-0.37  N 
ATOM     15 21HD ASN D4844     -62.116  29.498  32.909  1.00 67.26 LIG 0.16  HD
ATOM     16 22HD ASN D4844     -62.316  28.636  34.108  1.00 67.26 LIG 0.16  HD
ENDBRANCH 11 12
ENDBRANCH 10 11
BRANCH 10 17
ATOM     17  C   ASN D4844     -58.373  28.335  36.983  1.00 52.57 LIG 0.22  C 
ATOM     18 O    ASN D4844     -57.232  27.916  37.235  1.00 48.91 LIG-0.29  OA
ENDBRANCH 10 17
ENDBRANCH 7 10
ENDBRANCH 5 6
BRANCH 5 19
ATOM     19  CB  VAL D4843     -59.680  25.273  32.564  1.00 37.59 LIG 0.01  C 
ATOM     20  CG1 VAL D4843     -60.494  26.530  32.444  1.00 42.19 LIG 0.01  C 
ATOM     21  CG2 VAL D4843     -58.507  25.276  31.580  1.00 33.91 LIG 0.01  C 
ENDBRANCH 5 19
ENDBRANCH 3 5
BRANCH 1 22
ATOM     22  CA  VAL D4842     -60.783  21.804  35.274  1.00 42.26 LIG 0.18  C 
BRANCH 22 23
ATOM     23  N   VAL D4842     -61.284  20.561  34.680  1.00 51.43 LIG-0.34  N 
ATOM     24 H    VAL D4842     -60.839  19.861  34.908  1.00 51.43 LIG 0.16  HD
ATOM     25  C   LEU D4841     -62.333  20.530  33.860  1.00 54.30 LIG 0.26  C 
ATOM     26 O    LEU D4841     -62.861  19.483  33.492  1.00 66.57 LIG-0.27  OA
BRANCH 25 27
ATOM     27  CA  LEU D4841     -62.890  21.875  33.417  1.00 50.85 LIG 0.40  C 
ATOM     28  N   LEU D4841     -63.442  21.787  32.062  1.00 66.18 LIG 0.61  N 
BRANCH 27 29
ATOM     29  CB  LEU D4841     -63.971  22.352  34.395  1.00 58.40 LIG 0.06  C 
BRANCH 29 30
ATOM     30  CG  LEU D4841     -63.816  23.769  34.962  1.00 54.26 LIG-0.02  C 
ATOM     31  CD2 LEU D4841     -62.881  24.651  34.101  1.00 54.78 LIG 0.01  C 
ATOM     32  CD1 LEU D4841     -63.367  23.745  36.429  1.00 32.44 LIG 0.01  C 
ENDBRANCH 29 30
ENDBRANCH 27 29
ENDBRANCH 25 27
ENDBRANCH 22 23
BRANCH 22 33
ATOM     33  CB  VAL D4842     -60.009  21.542  36.591  1.00 48.47 LIG 0.01  C 
ATOM     34  CG2 VAL D4842     -60.005  22.759  37.474  1.00 42.42 LIG 0.01  C 
ATOM     35  CG1 VAL D4842     -58.582  21.134  36.265  1.00 34.87 LIG 0.01  C 
ENDBRANCH 22 33
ENDBRANCH 1 22
TORSDOF 13
ENDMDL
MODEL 145
USER: ADFR SOLUTION from run 126
USER: SCORE 8.128901 LL:  -2.258 LR:  -6.994 RR:   0.000 FEB:  -3.116
USER: RMSD 8.499033
USER: SEED 125
USER: STATUS no improvement in best in 18 clusters for 5 generations
USER: GENES 15
USER: genes 0 Translation |==|  0.40999 0.28951 0.33732
USER: genes 1 Rotation |==|  0.07830 0.65947 0.61876 0.68066
USER: genes 2 Torsion [C]-N--CA-[CB] |==|  0.19649
USER: genes 3 Torsion [N]-CA--C-[N] |==|  0.49337
USER: genes 4 Torsion [C]-N--CA-[CB] |==|  0.28099
USER: genes 5 Torsion [N]-CA--CB-[CG] |==|  0.02459
USER: genes 6 Torsion [CA]-CB--CG-[OD1] |==|  0.76330
USER: genes 7 Torsion [N]-CA--C-[O] |==|  0.10492
USER: genes 8 Torsion [N]-CA--CB-[CG2] |==|  0.65402
USER: genes 9 Torsion [N]-C--CA-[N] |==|  0.99461
USER: genes 10 Torsion [C]-CA--N-[C] |==|  0.65556
USER: genes 11 Torsion [N]-C--CA-[N] |==|  0.41083
USER: genes 12 Torsion [C]-CA--CB-[CG] |==|  0.34923
USER: genes 13 Torsion [CA]-CB--CG-[CD2] |==|  0.51417
USER: genes 14 Torsion [C]-CA--CB-[CG2] |==|  0.53419
ROOT
ATOM      1  C   VAL D4842     -58.930  24.094  36.640  1.00 57.35 LIG 0.24  C 
ATOM      2 O    VAL D4842     -59.087  23.110  37.372  1.00 61.28 LIG-0.27  OA
ATOM      3  N   VAL D4843     -58.153  25.117  36.971  1.00 52.36 LIG-0.35  N 
ATOM      4 H    VAL D4843     -57.904  25.718  36.408  1.00 52.36 LIG 0.16  HD
ENDROOT
BRANCH 3 5
ATOM      5  CA  VAL D4843     -57.639  25.331  38.316  1.00 37.99 LIG 0.18  C 
BRANCH 5 6
ATOM      6  C   VAL D4843     -57.032  26.754  38.264  1.00 51.29 LIG 0.24  C 
ATOM      7  N   ASN D4844     -56.513  27.278  39.367  1.00 50.43 LIG-0.35  N 
ATOM      8 H    ASN D4844     -56.458  26.882  40.128  1.00 50.43 LIG 0.16  HD
ATOM      9 O    VAL D4843     -57.040  27.398  37.205  1.00 47.22 LIG-0.27  OA
BRANCH 7 10
ATOM     10  CA  ASN D4844     -55.978  28.647  39.321  1.00 46.88 LIG 0.17  C 
BRANCH 10 11
ATOM     11  CB  ASN D4844     -56.979  29.631  39.926  1.00 66.72 LIG 0.14  C 
BRANCH 11 12
ATOM     12  CG  ASN D4844     -58.146  28.938  40.602  1.00 62.42 LIG 0.22  C 
ATOM     13 OD1  ASN D4844     -59.138  28.582  39.962  1.00 56.11 LIG-0.27  OA
ATOM     14  ND2 ASN D4844     -58.030  28.743  41.910  1.00 67.26 LIG-0.37  N 
ATOM     15 21HD ASN D4844     -58.662  28.354  42.345  1.00 67.26 LIG 0.16  HD
ATOM     16 22HD ASN D4844     -57.322  29.007  42.323  1.00 67.26 LIG 0.16  HD
ENDBRANCH 11 12
ENDBRANCH 10 11
BRANCH 10 17
ATOM     17  C   ASN D4844     -54.587  28.840  39.947  1.00 52.57 LIG 0.22  C 
ATOM     18 O    ASN D4844     -53.700  27.979  39.830  1.00 48.91 LIG-0.29  OA
ENDBRANCH 10 17
ENDBRANCH 7 10
ENDBRANCH 5 6
BRANCH 5 19
ATOM     19  CB  VAL D4843     -56.565  24.234  38.597  1.00 37.59 LIG 0.01  C 
ATOM     20  CG1 VAL D4843     -55.175  24.800  38.660  1.00 42.19 LIG 0.01  C 
ATOM     21  CG2 VAL D4843     -56.902  23.448  39.867  1.00 33.91 LIG 0.01  C 
ENDBRANCH 5 19
ENDBRANCH 3 5
BRANCH 1 22
ATOM     22  CA  VAL D4842     -59.585  24.194  35.248  1.00 42.26 LIG 0.18  C 
BRANCH 22 23
ATOM     23  N   VAL D4842     -59.305  25.416  34.488  1.00 51.43 LIG-0.34  N 
ATOM     24 H    VAL D4842     -58.467  25.571  34.371  1.00 51.43 LIG 0.16  HD
ATOM     25  C   LEU D4841     -60.270  26.209  34.025  1.00 54.30 LIG 0.26  C 
ATOM     26 O    LEU D4841     -60.055  27.138  33.249  1.00 66.57 LIG-0.27  OA
BRANCH 25 27
ATOM     27  CA  LEU D4841     -61.688  25.888  34.474  1.00 50.85 LIG 0.40  C 
ATOM     28  N   LEU D4841     -62.488  27.113  34.580  1.00 66.18 LIG 0.61  N 
BRANCH 27 29
ATOM     29  CB  LEU D4841     -62.349  24.911  33.494  1.00 58.40 LIG 0.06  C 
BRANCH 29 30
ATOM     30  CG  LEU D4841     -62.933  23.623  34.087  1.00 54.26 LIG-0.02  C 
ATOM     31  CD2 LEU D4841     -63.459  22.657  32.998  1.00 54.78 LIG 0.01  C 
ATOM     32  CD1 LEU D4841     -64.011  23.921  35.137  1.00 32.44 LIG 0.01  C 
ENDBRANCH 29 30
ENDBRANCH 27 29
ENDBRANCH 25 27
ENDBRANCH 22 23
BRANCH 22 33
ATOM     33  CB  VAL D4842     -59.296  22.920  34.415  1.00 48.47 LIG 0.01  C 
ATOM     34  CG2 VAL D4842     -59.663  23.117  32.970  1.00 42.42 LIG 0.01  C 
ATOM     35  CG1 VAL D4842     -60.077  21.752  34.993  1.00 34.87 LIG 0.01  C 
ENDBRANCH 22 33
ENDBRANCH 1 22
TORSDOF 13
ENDMDL
MODEL 146
USER: ADFR SOLUTION from run 37
USER: SCORE 8.561010 LL:  -2.722 LR:  -6.975 RR:   0.000 FEB:  -3.097
USER: RMSD 8.381980
USER: SEED 36
USER: STATUS no improvement in best in 18 clusters for 5 generations
USER: GENES 15
USER: genes 0 Translation |==|  0.41360 0.51185 0.27641
USER: genes 1 Rotation |==|  0.68719 0.69030 0.07784 0.52297
USER: genes 2 Torsion [C]-N--CA-[CB] |==|  0.88111
USER: genes 3 Torsion [N]-CA--C-[N] |==|  0.77239
USER: genes 4 Torsion [C]-N--CA-[CB] |==|  0.36990
USER: genes 5 Torsion [N]-CA--CB-[CG] |==|  0.86743
USER: genes 6 Torsion [CA]-CB--CG-[OD1] |==|  0.91357
USER: genes 7 Torsion [N]-CA--C-[O] |==|  0.01559
USER: genes 8 Torsion [N]-CA--CB-[CG2] |==|  0.83415
USER: genes 9 Torsion [N]-C--CA-[N] |==|  0.45000
USER: genes 10 Torsion [C]-CA--N-[C] |==|  0.69941
USER: genes 11 Torsion [N]-C--CA-[N] |==|  0.83225
USER: genes 12 Torsion [C]-CA--CB-[CG] |==|  0.52323
USER: genes 13 Torsion [CA]-CB--CG-[CD2] |==|  0.67480
USER: genes 14 Torsion [C]-CA--CB-[CG2] |==|  0.58890
ROOT
ATOM      1  C   VAL D4842     -58.854  27.763  35.726  1.00 57.35 LIG 0.24  C 
ATOM      2 O    VAL D4842     -57.890  28.305  35.173  1.00 61.28 LIG-0.27  OA
ATOM      3  N   VAL D4843     -59.533  28.338  36.711  1.00 52.36 LIG-0.35  N 
ATOM      4 H    VAL D4843     -60.297  28.052  36.983  1.00 52.36 LIG 0.16  HD
ENDROOT
BRANCH 3 5
ATOM      5  CA  VAL D4843     -59.060  29.511  37.431  1.00 37.99 LIG 0.18  C 
BRANCH 5 6
ATOM      6  C   VAL D4843     -59.327  30.683  36.456  1.00 51.29 LIG 0.24  C 
ATOM      7  N   ASN D4844     -58.456  30.929  35.484  1.00 50.43 LIG-0.35  N 
ATOM      8 H    ASN D4844     -57.747  30.470  35.324  1.00 50.43 LIG 0.16  HD
ATOM      9 O    VAL D4843     -60.337  31.388  36.588  1.00 47.22 LIG-0.27  OA
BRANCH 7 10
ATOM     10  CA  ASN D4844     -58.695  32.070  34.588  1.00 46.88 LIG 0.17  C 
BRANCH 10 11
ATOM     11  CB  ASN D4844     -57.415  32.889  34.417  1.00 66.72 LIG 0.14  C 
BRANCH 11 12
ATOM     12  CG  ASN D4844     -56.733  33.193  35.737  1.00 62.42 LIG 0.22  C 
ATOM     13 OD1  ASN D4844     -57.382  33.334  36.776  1.00 56.11 LIG-0.27  OA
ATOM     14  ND2 ASN D4844     -55.410  33.296  35.699  1.00 67.26 LIG-0.37  N 
ATOM     15 21HD ASN D4844     -54.971  33.467  36.419  1.00 67.26 LIG 0.16  HD
ATOM     16 22HD ASN D4844     -54.992  33.192  34.955  1.00 67.26 LIG 0.16  HD
ENDBRANCH 11 12
ENDBRANCH 10 11
BRANCH 10 17
ATOM     17  C   ASN D4844     -59.301  31.726  33.217  1.00 52.57 LIG 0.22  C 
ATOM     18 O    ASN D4844     -59.662  30.571  32.942  1.00 48.91 LIG-0.29  OA
ENDBRANCH 10 17
ENDBRANCH 7 10
ENDBRANCH 5 6
BRANCH 5 19
ATOM     19  CB  VAL D4843     -57.540  29.311  37.723  1.00 37.59 LIG 0.01  C 
ATOM     20  CG1 VAL D4843     -56.919  30.520  38.364  1.00 42.19 LIG 0.01  C 
ATOM     21  CG2 VAL D4843     -57.303  28.054  38.566  1.00 33.91 LIG 0.01  C 
ENDBRANCH 5 19
ENDBRANCH 3 5
BRANCH 1 22
ATOM     22  CA  VAL D4842     -59.389  26.387  35.281  1.00 42.26 LIG 0.18  C 
BRANCH 22 23
ATOM     23  N   VAL D4842     -58.945  25.915  33.966  1.00 51.43 LIG-0.34  N 
ATOM     24 H    VAL D4842     -58.119  25.676  33.941  1.00 51.43 LIG 0.16  HD
ATOM     25  C   LEU D4841     -59.756  25.864  32.911  1.00 54.30 LIG 0.26  C 
ATOM     26 O    LEU D4841     -59.444  25.317  31.856  1.00 66.57 LIG-0.27  OA
BRANCH 25 27
ATOM     27  CA  LEU D4841     -61.132  26.491  33.080  1.00 50.85 LIG 0.40  C 
ATOM     28  N   LEU D4841     -61.876  25.829  34.156  1.00 66.18 LIG 0.61  N 
BRANCH 27 29
ATOM     29  CB  LEU D4841     -61.002  27.991  33.376  1.00 58.40 LIG 0.06  C 
BRANCH 29 30
ATOM     30  CG  LEU D4841     -62.285  28.734  33.768  1.00 54.26 LIG-0.02  C 
ATOM     31  CD2 LEU D4841     -62.664  29.835  32.749  1.00 54.78 LIG 0.01  C 
ATOM     32  CD1 LEU D4841     -62.199  29.297  35.193  1.00 32.44 LIG 0.01  C 
ENDBRANCH 29 30
ENDBRANCH 27 29
ENDBRANCH 25 27
ENDBRANCH 22 23
BRANCH 22 33
ATOM     33  CB  VAL D4842     -59.151  25.325  36.385  1.00 48.47 LIG 0.01  C 
ATOM     34  CG2 VAL D4842     -58.915  23.964  35.791  1.00 42.42 LIG 0.01  C 
ATOM     35  CG1 VAL D4842     -60.354  25.283  37.312  1.00 34.87 LIG 0.01  C 
ENDBRANCH 22 33
ENDBRANCH 1 22
TORSDOF 13
ENDMDL
MODEL 147
USER: ADFR SOLUTION from run 172
USER: SCORE 9.145668 LL:  -2.506 LR:  -6.969 RR:   0.000 FEB:  -3.091
USER: RMSD 6.341880
USER: SEED 171
USER: STATUS no improvement in best in 19 clusters for 5 generations
USER: GENES 15
USER: genes 0 Translation |==|  0.45797 0.24052 0.42464
USER: genes 1 Rotation |==|  0.39734 0.14756 0.17278 0.59040
USER: genes 2 Torsion [C]-N--CA-[CB] |==|  0.15373
USER: genes 3 Torsion [N]-CA--C-[N] |==|  0.13732
USER: genes 4 Torsion [C]-N--CA-[CB] |==|  0.38373
USER: genes 5 Torsion [N]-CA--CB-[CG] |==|  0.54514
USER: genes 6 Torsion [CA]-CB--CG-[OD1] |==|  0.80270
USER: genes 7 Torsion [N]-CA--C-[O] |==|  0.03941
USER: genes 8 Torsion [N]-CA--CB-[CG2] |==|  0.51725
USER: genes 9 Torsion [N]-C--CA-[N] |==|  0.25204
USER: genes 10 Torsion [C]-CA--N-[C] |==|  0.76728
USER: genes 11 Torsion [N]-C--CA-[N] |==|  0.39760
USER: genes 12 Torsion [C]-CA--CB-[CG] |==|  0.29049
USER: genes 13 Torsion [CA]-CB--CG-[CD2] |==|  0.70488
USER: genes 14 Torsion [C]-CA--CB-[CG2] |==|  0.54342
ROOT
ATOM      1  C   VAL D4842     -57.923  23.286  37.950  1.00 57.35 LIG 0.24  C 
ATOM      2 O    VAL D4842     -57.602  22.115  38.189  1.00 61.28 LIG-0.27  OA
ATOM      3  N   VAL D4843     -58.531  23.646  36.827  1.00 52.36 LIG-0.35  N 
ATOM      4 H    VAL D4843     -58.906  24.413  36.722  1.00 52.36 LIG 0.16  HD
ENDROOT
BRANCH 3 5
ATOM      5  CA  VAL D4843     -58.627  22.787  35.656  1.00 37.99 LIG 0.18  C 
BRANCH 5 6
ATOM      6  C   VAL D4843     -59.521  23.586  34.676  1.00 51.29 LIG 0.24  C 
ATOM      7  N   ASN D4844     -59.236  24.859  34.431  1.00 50.43 LIG-0.35  N 
ATOM      8 H    ASN D4844     -58.568  25.291  34.757  1.00 50.43 LIG 0.16  HD
ATOM      9 O    VAL D4843     -60.495  23.044  34.135  1.00 47.22 LIG-0.27  OA
BRANCH 7 10
ATOM     10  CA  ASN D4844     -60.115  25.624  33.534  1.00 46.88 LIG 0.17  C 
BRANCH 10 11
ATOM     11  CB  ASN D4844     -60.354  27.027  34.091  1.00 66.72 LIG 0.14  C 
BRANCH 11 12
ATOM     12  CG  ASN D4844     -61.537  27.720  33.443  1.00 62.42 LIG 0.22  C 
ATOM     13 OD1  ASN D4844     -61.486  28.118  32.277  1.00 56.11 LIG-0.27  OA
ATOM     14  ND2 ASN D4844     -62.614  27.869  34.205  1.00 67.26 LIG-0.37  N 
ATOM     15 21HD ASN D4844     -63.315  28.255  33.889  1.00 67.26 LIG 0.16  HD
ATOM     16 22HD ASN D4844     -62.611  27.579  35.015  1.00 67.26 LIG 0.16  HD
ENDBRANCH 11 12
ENDBRANCH 10 11
BRANCH 10 17
ATOM     17  C   ASN D4844     -59.665  25.697  32.064  1.00 52.57 LIG 0.22  C 
ATOM     18 O    ASN D4844     -58.785  24.942  31.620  1.00 48.91 LIG-0.29  OA
ENDBRANCH 10 17
ENDBRANCH 7 10
ENDBRANCH 5 6
BRANCH 5 19
ATOM     19  CB  VAL D4843     -59.284  21.444  36.103  1.00 37.59 LIG 0.01  C 
ATOM     20  CG1 VAL D4843     -60.669  21.642  36.653  1.00 42.19 LIG 0.01  C 
ATOM     21  CG2 VAL D4843     -59.283  20.425  34.960  1.00 33.91 LIG 0.01  C 
ENDBRANCH 5 19
ENDBRANCH 3 5
BRANCH 1 22
ATOM     22  CA  VAL D4842     -57.692  24.424  38.962  1.00 42.26 LIG 0.18  C 
BRANCH 22 23
ATOM     23  N   VAL D4842     -58.755  24.638  39.949  1.00 51.43 LIG-0.34  N 
ATOM     24 H    VAL D4842     -58.614  24.251  40.704  1.00 51.43 LIG 0.16  HD
ATOM     25  C   LEU D4841     -59.837  25.369  39.690  1.00 54.30 LIG 0.26  C 
ATOM     26 O    LEU D4841     -60.647  25.692  40.556  1.00 66.57 LIG-0.27  OA
BRANCH 25 27
ATOM     27  CA  LEU D4841     -60.016  25.833  38.251  1.00 50.85 LIG 0.40  C 
ATOM     28  N   LEU D4841     -61.432  25.812  37.872  1.00 66.18 LIG 0.61  N 
BRANCH 27 29
ATOM     29  CB  LEU D4841     -59.443  27.245  38.071  1.00 58.40 LIG 0.06  C 
BRANCH 29 30
ATOM     30  CG  LEU D4841     -58.098  27.360  37.344  1.00 54.26 LIG-0.02  C 
ATOM     31  CD2 LEU D4841     -56.932  27.688  38.308  1.00 54.78 LIG 0.01  C 
ATOM     32  CD1 LEU D4841     -58.165  28.365  36.187  1.00 32.44 LIG 0.01  C 
ENDBRANCH 29 30
ENDBRANCH 27 29
ENDBRANCH 25 27
ENDBRANCH 22 23
BRANCH 22 33
ATOM     33  CB  VAL D4842     -56.302  24.284  39.635  1.00 48.47 LIG 0.01  C 
ATOM     34  CG2 VAL D4842     -56.206  25.134  40.871  1.00 42.42 LIG 0.01  C 
ATOM     35  CG1 VAL D4842     -55.221  24.685  38.645  1.00 34.87 LIG 0.01  C 
ENDBRANCH 22 33
ENDBRANCH 1 22
TORSDOF 13
ENDMDL
MODEL 148
USER: ADFR SOLUTION from run 176
USER: SCORE 8.336100 LL:  -2.766 LR:  -6.963 RR:   0.000 FEB:  -3.085
USER: RMSD 7.763024
USER: SEED 175
USER: STATUS no improvement in best in 10 clusters for 5 generations
USER: GENES 15
USER: genes 0 Translation |==|  0.37239 0.34003 0.11237
USER: genes 1 Rotation |==|  0.45912 0.36459 0.55884 0.97595
USER: genes 2 Torsion [C]-N--CA-[CB] |==|  0.41489
USER: genes 3 Torsion [N]-CA--C-[N] |==|  0.89487
USER: genes 4 Torsion [C]-N--CA-[CB] |==|  0.82162
USER: genes 5 Torsion [N]-CA--CB-[CG] |==|  0.63925
USER: genes 6 Torsion [CA]-CB--CG-[OD1] |==|  0.74083
USER: genes 7 Torsion [N]-CA--C-[O] |==|  0.09997
USER: genes 8 Torsion [N]-CA--CB-[CG2] |==|  0.37727
USER: genes 9 Torsion [N]-C--CA-[N] |==|  0.35000
USER: genes 10 Torsion [C]-CA--N-[C] |==|  0.67525
USER: genes 11 Torsion [N]-C--CA-[N] |==|  0.42278
USER: genes 12 Torsion [C]-CA--CB-[CG] |==|  0.40334
USER: genes 13 Torsion [CA]-CB--CG-[CD2] |==|  0.92695
USER: genes 14 Torsion [C]-CA--CB-[CG2] |==|  0.59795
ROOT
ATOM      1  C   VAL D4842     -59.720  24.927  33.266  1.00 57.35 LIG 0.24  C 
ATOM      2 O    VAL D4842     -59.315  25.053  32.103  1.00 61.28 LIG-0.27  OA
ATOM      3  N   VAL D4843     -59.773  23.754  33.883  1.00 52.36 LIG-0.35  N 
ATOM      4 H    VAL D4843     -59.888  23.675  34.731  1.00 52.36 LIG 0.16  HD
ENDROOT
BRANCH 3 5
ATOM      5  CA  VAL D4843     -59.641  22.479  33.193  1.00 37.99 LIG 0.18  C 
BRANCH 5 6
ATOM      6  C   VAL D4843     -61.097  22.096  32.832  1.00 51.29 LIG 0.24  C 
ATOM      7  N   ASN D4844     -62.071  22.363  33.693  1.00 50.43 LIG-0.35  N 
ATOM      8 H    ASN D4844     -61.972  22.762  34.448  1.00 50.43 LIG 0.16  HD
ATOM      9 O    VAL D4843     -61.347  21.540  31.753  1.00 47.22 LIG-0.27  OA
BRANCH 7 10
ATOM     10  CA  ASN D4844     -63.444  21.958  33.362  1.00 46.88 LIG 0.17  C 
BRANCH 10 11
ATOM     11  CB  ASN D4844     -63.938  22.711  32.126  1.00 66.72 LIG 0.14  C 
BRANCH 11 12
ATOM     12  CG  ASN D4844     -65.296  23.353  32.335  1.00 62.42 LIG 0.22  C 
ATOM     13 OD1  ASN D4844     -66.335  22.770  32.020  1.00 56.11 LIG-0.27  OA
ATOM     14  ND2 ASN D4844     -65.290  24.567  32.873  1.00 67.26 LIG-0.37  N 
ATOM     15 21HD ASN D4844     -66.032  24.978  33.015  1.00 67.26 LIG 0.16  HD
ATOM     16 22HD ASN D4844     -64.544  24.942  33.080  1.00 67.26 LIG 0.16  HD
ENDBRANCH 11 12
ENDBRANCH 10 11
BRANCH 10 17
ATOM     17  C   ASN D4844     -63.671  20.445  33.197  1.00 52.57 LIG 0.22  C 
ATOM     18 O    ASN D4844     -63.071  19.621  33.905  1.00 48.91 LIG-0.29  OA
ENDBRANCH 10 17
ENDBRANCH 7 10
ENDBRANCH 5 6
BRANCH 5 19
ATOM     19  CB  VAL D4843     -58.986  21.466  34.182  1.00 37.59 LIG 0.01  C 
ATOM     20  CG1 VAL D4843     -58.924  22.000  35.586  1.00 42.19 LIG 0.01  C 
ATOM     21  CG2 VAL D4843     -59.699  20.112  34.135  1.00 33.91 LIG 0.01  C 
ENDBRANCH 5 19
ENDBRANCH 3 5
BRANCH 1 22
ATOM     22  CA  VAL D4842     -60.149  26.135  34.121  1.00 42.26 LIG 0.18  C 
BRANCH 22 23
ATOM     23  N   VAL D4842     -59.190  27.240  34.208  1.00 51.43 LIG-0.34  N 
ATOM     24 H    VAL D4842     -59.027  27.622  33.454  1.00 51.43 LIG 0.16  HD
ATOM     25  C   LEU D4841     -58.628  27.613  35.356  1.00 54.30 LIG 0.26  C 
ATOM     26 O    LEU D4841     -57.956  28.636  35.469  1.00 66.57 LIG-0.27  OA
BRANCH 25 27
ATOM     27  CA  LEU D4841     -58.887  26.720  36.562  1.00 50.85 LIG 0.40  C 
ATOM     28  N   LEU D4841     -57.779  26.807  37.518  1.00 66.18 LIG 0.61  N 
BRANCH 27 29
ATOM     29  CB  LEU D4841     -60.203  27.114  37.243  1.00 58.40 LIG 0.06  C 
BRANCH 29 30
ATOM     30  CG  LEU D4841     -61.031  25.980  37.859  1.00 54.26 LIG-0.02  C 
ATOM     31  CD2 LEU D4841     -60.773  24.618  37.170  1.00 54.78 LIG 0.01  C 
ATOM     32  CD1 LEU D4841     -62.527  26.320  37.882  1.00 32.44 LIG 0.01  C 
ENDBRANCH 29 30
ENDBRANCH 27 29
ENDBRANCH 25 27
ENDBRANCH 22 23
BRANCH 22 33
ATOM     33  CB  VAL D4842     -61.558  26.628  33.702  1.00 48.47 LIG 0.01  C 
ATOM     34  CG2 VAL D4842     -61.668  28.124  33.810  1.00 42.42 LIG 0.01  C 
ATOM     35  CG1 VAL D4842     -62.605  25.968  34.583  1.00 34.87 LIG 0.01  C 
ENDBRANCH 22 33
ENDBRANCH 1 22
TORSDOF 13
ENDMDL
MODEL 149
USER: ADFR SOLUTION from run 195
USER: SCORE 9.054650 LL:  -3.401 LR:  -6.958 RR:   0.000 FEB:  -3.080
USER: RMSD 5.585837
USER: SEED 194
USER: STATUS no improvement in best in 37 clusters for 5 generations
USER: GENES 15
USER: genes 0 Translation |==|  0.47109 0.48493 0.42847
USER: genes 1 Rotation |==|  0.47197 0.25750 0.45185 0.93369
USER: genes 2 Torsion [C]-N--CA-[CB] |==|  0.43341
USER: genes 3 Torsion [N]-CA--C-[N] |==|  0.39208
USER: genes 4 Torsion [C]-N--CA-[CB] |==|  0.18594
USER: genes 5 Torsion [N]-CA--CB-[CG] |==|  0.61925
USER: genes 6 Torsion [CA]-CB--CG-[OD1] |==|  0.60279
USER: genes 7 Torsion [N]-CA--C-[O] |==|  0.72451
USER: genes 8 Torsion [N]-CA--CB-[CG2] |==|  0.82186
USER: genes 9 Torsion [N]-C--CA-[N] |==|  0.94603
USER: genes 10 Torsion [C]-CA--N-[C] |==|  0.79091
USER: genes 11 Torsion [N]-C--CA-[N] |==|  0.44819
USER: genes 12 Torsion [C]-CA--CB-[CG] |==|  0.43122
USER: genes 13 Torsion [CA]-CB--CG-[CD2] |==|  0.23682
USER: genes 14 Torsion [C]-CA--CB-[CG2] |==|  0.22798
ROOT
ATOM      1  C   VAL D4842     -57.647  27.318  38.007  1.00 57.35 LIG 0.24  C 
ATOM      2 O    VAL D4842     -56.706  27.412  37.210  1.00 61.28 LIG-0.27  OA
ATOM      3  N   VAL D4843     -58.315  26.188  38.197  1.00 52.36 LIG-0.35  N 
ATOM      4 H    VAL D4843     -58.850  26.065  38.859  1.00 52.36 LIG 0.16  HD
ENDROOT
BRANCH 3 5
ATOM      5  CA  VAL D4843     -58.215  25.039  37.309  1.00 37.99 LIG 0.18  C 
BRANCH 5 6
ATOM      6  C   VAL D4843     -59.226  25.349  36.178  1.00 51.29 LIG 0.24  C 
ATOM      7  N   ASN D4844     -58.915  25.036  34.927  1.00 50.43 LIG-0.35  N 
ATOM      8 H    ASN D4844     -58.192  24.644  34.677  1.00 50.43 LIG 0.16  HD
ATOM      9 O    VAL D4843     -60.310  25.891  36.441  1.00 47.22 LIG-0.27  OA
BRANCH 7 10
ATOM     10  CA  ASN D4844     -59.862  25.373  33.854  1.00 46.88 LIG 0.17  C 
BRANCH 10 11
ATOM     11  CB  ASN D4844     -59.969  26.890  33.696  1.00 66.72 LIG 0.14  C 
BRANCH 11 12
ATOM     12  CG  ASN D4844     -61.399  27.360  33.510  1.00 62.42 LIG 0.22  C 
ATOM     13 OD1  ASN D4844     -61.673  28.293  32.752  1.00 56.11 LIG-0.27  OA
ATOM     14  ND2 ASN D4844     -62.322  26.708  34.208  1.00 67.26 LIG-0.37  N 
ATOM     15 21HD ASN D4844     -63.150  26.932  34.140  1.00 67.26 LIG 0.16  HD
ATOM     16 22HD ASN D4844     -62.092  26.062  34.727  1.00 67.26 LIG 0.16  HD
ENDBRANCH 11 12
ENDBRANCH 10 11
BRANCH 10 17
ATOM     17  C   ASN D4844     -59.592  24.708  32.493  1.00 52.57 LIG 0.22  C 
ATOM     18 O    ASN D4844     -59.011  25.317  31.580  1.00 48.91 LIG-0.29  OA
ENDBRANCH 10 17
ENDBRANCH 7 10
ENDBRANCH 5 6
BRANCH 5 19
ATOM     19  CB  VAL D4843     -58.605  23.768  38.127  1.00 37.59 LIG 0.01  C 
ATOM     20  CG1 VAL D4843     -58.754  22.553  37.255  1.00 42.19 LIG 0.01  C 
ATOM     21  CG2 VAL D4843     -57.608  23.518  39.261  1.00 33.91 LIG 0.01  C 
ENDBRANCH 5 19
ENDBRANCH 3 5
BRANCH 1 22
ATOM     22  CA  VAL D4842     -58.093  28.498  38.893  1.00 42.26 LIG 0.18  C 
BRANCH 22 23
ATOM     23  N   VAL D4842     -59.428  28.390  39.490  1.00 51.43 LIG-0.34  N 
ATOM     24 H    VAL D4842     -59.421  28.199  40.328  1.00 51.43 LIG 0.16  HD
ATOM     25  C   LEU D4841     -60.544  28.575  38.787  1.00 54.30 LIG 0.26  C 
ATOM     26 O    LEU D4841     -61.655  28.653  39.308  1.00 66.57 LIG-0.27  OA
BRANCH 25 27
ATOM     27  CA  LEU D4841     -60.384  28.728  37.282  1.00 50.85 LIG 0.40  C 
ATOM     28  N   LEU D4841     -61.656  28.482  36.597  1.00 66.18 LIG 0.61  N 
BRANCH 27 29
ATOM     29  CB  LEU D4841     -59.865  30.130  36.941  1.00 58.40 LIG 0.06  C 
BRANCH 29 30
ATOM     30  CG  LEU D4841     -59.107  30.286  35.616  1.00 54.26 LIG-0.02  C 
ATOM     31  CD2 LEU D4841     -60.056  30.522  34.417  1.00 54.78 LIG 0.01  C 
ATOM     32  CD1 LEU D4841     -58.168  29.100  35.360  1.00 32.44 LIG 0.01  C 
ENDBRANCH 29 30
ENDBRANCH 27 29
ENDBRANCH 25 27
ENDBRANCH 22 23
BRANCH 22 33
ATOM     33  CB  VAL D4842     -57.013  28.823  39.955  1.00 48.47 LIG 0.01  C 
ATOM     34  CG2 VAL D4842     -55.922  29.684  39.379  1.00 42.42 LIG 0.01  C 
ATOM     35  CG1 VAL D4842     -56.423  27.528  40.487  1.00 34.87 LIG 0.01  C 
ENDBRANCH 22 33
ENDBRANCH 1 22
TORSDOF 13
ENDMDL
MODEL 150
USER: ADFR SOLUTION from run 28
USER: SCORE 9.062551 LL:  -2.676 LR:  -6.955 RR:   0.000 FEB:  -3.077
USER: RMSD 10.309850
USER: SEED 27
USER: STATUS no improvement in best in 24 clusters for 5 generations
USER: GENES 15
USER: genes 0 Translation |==|  0.27564 0.24684 0.25948
USER: genes 1 Rotation |==|  0.84643 0.22505 0.29053 0.60253
USER: genes 2 Torsion [C]-N--CA-[CB] |==|  0.52222
USER: genes 3 Torsion [N]-CA--C-[N] |==|  0.40385
USER: genes 4 Torsion [C]-N--CA-[CB] |==|  0.35434
USER: genes 5 Torsion [N]-CA--CB-[CG] |==|  0.19731
USER: genes 6 Torsion [CA]-CB--CG-[OD1] |==|  0.23048
USER: genes 7 Torsion [N]-CA--C-[O] |==|  0.94461
USER: genes 8 Torsion [N]-CA--CB-[CG2] |==|  0.63947
USER: genes 9 Torsion [N]-C--CA-[N] |==|  0.36752
USER: genes 10 Torsion [C]-CA--N-[C] |==|  0.73229
USER: genes 11 Torsion [N]-C--CA-[N] |==|  0.41971
USER: genes 12 Torsion [C]-CA--CB-[CG] |==|  0.39097
USER: genes 13 Torsion [CA]-CB--CG-[CD2] |==|  0.03259
USER: genes 14 Torsion [C]-CA--CB-[CG2] |==|  0.55835
ROOT
ATOM      1  C   VAL D4842     -61.752  23.390  35.472  1.00 57.35 LIG 0.24  C 
ATOM      2 O    VAL D4842     -60.988  23.282  36.439  1.00 61.28 LIG-0.27  OA
ATOM      3  N   VAL D4843     -61.369  23.905  34.311  1.00 52.36 LIG-0.35  N 
ATOM      4 H    VAL D4843     -61.832  23.831  33.590  1.00 52.36 LIG 0.16  HD
ENDROOT
BRANCH 3 5
ATOM      5  CA  VAL D4843     -60.130  24.648  34.133  1.00 37.99 LIG 0.18  C 
BRANCH 5 6
ATOM      6  C   VAL D4843     -60.182  25.733  35.237  1.00 51.29 LIG 0.24  C 
ATOM      7  N   ASN D4844     -59.055  26.113  35.825  1.00 50.43 LIG-0.35  N 
ATOM      8 H    ASN D4844     -58.269  25.823  35.630  1.00 50.43 LIG 0.16  HD
ATOM      9 O    VAL D4843     -61.266  26.233  35.571  1.00 47.22 LIG-0.27  OA
BRANCH 7 10
ATOM     10  CA  ASN D4844     -59.117  27.113  36.901  1.00 46.88 LIG 0.17  C 
BRANCH 10 11
ATOM     11  CB  ASN D4844     -58.390  26.601  38.145  1.00 66.72 LIG 0.14  C 
BRANCH 11 12
ATOM     12  CG  ASN D4844     -56.885  26.559  37.968  1.00 62.42 LIG 0.22  C 
ATOM     13 OD1  ASN D4844     -56.192  27.565  38.135  1.00 56.11 LIG-0.27  OA
ATOM     14  ND2 ASN D4844     -56.371  25.383  37.627  1.00 67.26 LIG-0.37  N 
ATOM     15 21HD ASN D4844     -55.522  25.301  37.513  1.00 67.26 LIG 0.16  HD
ATOM     16 22HD ASN D4844     -56.887  24.703  37.518  1.00 67.26 LIG 0.16  HD
ENDBRANCH 11 12
ENDBRANCH 10 11
BRANCH 10 17
ATOM     17  C   ASN D4844     -58.625  28.522  36.532  1.00 52.57 LIG 0.22  C 
ATOM     18 O    ASN D4844     -57.883  28.712  35.554  1.00 48.91 LIG-0.29  OA
ENDBRANCH 10 17
ENDBRANCH 7 10
ENDBRANCH 5 6
BRANCH 5 19
ATOM     19  CB  VAL D4843     -60.141  25.257  32.696  1.00 37.59 LIG 0.01  C 
ATOM     20  CG1 VAL D4843     -60.418  26.734  32.705  1.00 42.19 LIG 0.01  C 
ATOM     21  CG2 VAL D4843     -58.837  24.942  31.957  1.00 33.91 LIG 0.01  C 
ENDBRANCH 5 19
ENDBRANCH 3 5
BRANCH 1 22
ATOM     22  CA  VAL D4842     -63.206  22.883  35.515  1.00 42.26 LIG 0.18  C 
BRANCH 22 23
ATOM     23  N   VAL D4842     -63.410  21.548  36.085  1.00 51.43 LIG-0.34  N 
ATOM     24 H    VAL D4842     -63.462  21.539  36.943  1.00 51.43 LIG 0.16  HD
ATOM     25  C   LEU D4841     -63.504  20.454  35.332  1.00 54.30 LIG 0.26  C 
ATOM     26 O    LEU D4841     -63.840  19.361  35.783  1.00 66.57 LIG-0.27  OA
BRANCH 25 27
ATOM     27  CA  LEU D4841     -63.211  20.621  33.848  1.00 50.85 LIG 0.40  C 
ATOM     28  N   LEU D4841     -62.682  19.377  33.281  1.00 66.18 LIG 0.61  N 
BRANCH 27 29
ATOM     29  CB  LEU D4841     -64.479  21.044  33.098  1.00 58.40 LIG 0.06  C 
BRANCH 29 30
ATOM     30  CG  LEU D4841     -64.312  22.083  31.983  1.00 54.26 LIG-0.02  C 
ATOM     31  CD2 LEU D4841     -62.827  22.317  31.612  1.00 54.78 LIG 0.01  C 
ATOM     32  CD1 LEU D4841     -65.016  23.402  32.328  1.00 32.44 LIG 0.01  C 
ENDBRANCH 29 30
ENDBRANCH 27 29
ENDBRANCH 25 27
ENDBRANCH 22 23
BRANCH 22 33
ATOM     33  CB  VAL D4842     -64.134  23.937  36.172  1.00 48.47 LIG 0.01  C 
ATOM     34  CG2 VAL D4842     -65.400  23.307  36.683  1.00 42.42 LIG 0.01  C 
ATOM     35  CG1 VAL D4842     -64.467  25.018  35.157  1.00 34.87 LIG 0.01  C 
ENDBRANCH 22 33
ENDBRANCH 1 22
TORSDOF 13
ENDMDL
MODEL 151
USER: ADFR SOLUTION from run 165
USER: SCORE 8.717479 LL:  -2.955 LR:  -6.936 RR:   0.000 FEB:  -3.058
USER: RMSD 6.772439
USER: SEED 164
USER: STATUS no improvement in best in 49 clusters for 5 generations
USER: GENES 15
USER: genes 0 Translation |==|  0.36047 0.45914 0.20930
USER: genes 1 Rotation |==|  0.50282 0.69990 0.58983 0.94940
USER: genes 2 Torsion [C]-N--CA-[CB] |==|  0.28333
USER: genes 3 Torsion [N]-CA--C-[N] |==|  0.40963
USER: genes 4 Torsion [C]-N--CA-[CB] |==|  0.79707
USER: genes 5 Torsion [N]-CA--CB-[CG] |==|  0.86513
USER: genes 6 Torsion [CA]-CB--CG-[OD1] |==|  0.83487
USER: genes 7 Torsion [N]-CA--C-[O] |==|  0.06830
USER: genes 8 Torsion [N]-CA--CB-[CG2] |==|  0.88657
USER: genes 9 Torsion [N]-C--CA-[N] |==|  0.00763
USER: genes 10 Torsion [C]-CA--N-[C] |==|  0.75707
USER: genes 11 Torsion [N]-C--CA-[N] |==|  0.41741
USER: genes 12 Torsion [C]-CA--CB-[CG] |==|  0.36889
USER: genes 13 Torsion [CA]-CB--CG-[CD2] |==|  0.06038
USER: genes 14 Torsion [C]-CA--CB-[CG2] |==|  0.51450
ROOT
ATOM      1  C   VAL D4842     -59.970  26.893  34.720  1.00 57.35 LIG 0.24  C 
ATOM      2 O    VAL D4842     -61.047  26.950  34.113  1.00 61.28 LIG-0.27  OA
ATOM      3  N   VAL D4843     -59.287  25.764  34.863  1.00 52.36 LIG-0.35  N 
ATOM      4 H    VAL D4843     -58.470  25.741  35.129  1.00 52.36 LIG 0.16  HD
ENDROOT
BRANCH 3 5
ATOM      5  CA  VAL D4843     -59.846  24.449  34.586  1.00 37.99 LIG 0.18  C 
BRANCH 5 6
ATOM      6  C   VAL D4843     -59.325  23.567  35.747  1.00 51.29 LIG 0.24  C 
ATOM      7  N   ASN D4844     -60.080  22.571  36.194  1.00 50.43 LIG-0.35  N 
ATOM      8 H    ASN D4844     -60.846  22.346  35.876  1.00 50.43 LIG 0.16  HD
ATOM      9 O    VAL D4843     -58.218  23.796  36.257  1.00 47.22 LIG-0.27  OA
BRANCH 7 10
ATOM     10  CA  ASN D4844     -59.596  21.766  37.325  1.00 46.88 LIG 0.17  C 
BRANCH 10 11
ATOM     11  CB  ASN D4844     -58.459  20.848  36.877  1.00 66.72 LIG 0.14  C 
BRANCH 11 12
ATOM     12  CG  ASN D4844     -58.788  20.082  35.611  1.00 62.42 LIG 0.22  C 
ATOM     13 OD1  ASN D4844     -59.756  19.321  35.555  1.00 56.11 LIG-0.27  OA
ATOM     14  ND2 ASN D4844     -57.976  20.285  34.580  1.00 67.26 LIG-0.37  N 
ATOM     15 21HD ASN D4844     -58.116  19.877  33.835  1.00 67.26 LIG 0.16  HD
ATOM     16 22HD ASN D4844     -57.310  20.824  34.657  1.00 67.26 LIG 0.16  HD
ENDBRANCH 11 12
ENDBRANCH 10 11
BRANCH 10 17
ATOM     17  C   ASN D4844     -59.188  22.557  38.580  1.00 52.57 LIG 0.22  C 
ATOM     18 O    ASN D4844     -59.657  23.682  38.816  1.00 48.91 LIG-0.29  OA
ENDBRANCH 10 17
ENDBRANCH 7 10
ENDBRANCH 5 6
BRANCH 5 19
ATOM     19  CB  VAL D4843     -59.309  23.985  33.196  1.00 37.59 LIG 0.01  C 
ATOM     20  CG1 VAL D4843     -60.070  22.808  32.655  1.00 42.19 LIG 0.01  C 
ATOM     21  CG2 VAL D4843     -59.298  25.145  32.196  1.00 33.91 LIG 0.01  C 
ENDBRANCH 5 19
ENDBRANCH 3 5
BRANCH 1 22
ATOM     22  CA  VAL D4842     -59.298  28.143  35.319  1.00 42.26 LIG 0.18  C 
BRANCH 22 23
ATOM     23  N   VAL D4842     -57.972  27.944  35.911  1.00 51.43 LIG-0.34  N 
ATOM     24 H    VAL D4842     -57.321  28.085  35.367  1.00 51.43 LIG 0.16  HD
ATOM     25  C   LEU D4841     -57.801  27.580  37.180  1.00 54.30 LIG 0.26  C 
ATOM     26 O    LEU D4841     -56.702  27.573  37.731  1.00 66.57 LIG-0.27  OA
BRANCH 25 27
ATOM     27  CA  LEU D4841     -59.056  27.199  37.954  1.00 50.85 LIG 0.40  C 
ATOM     28  N   LEU D4841     -58.746  26.206  38.988  1.00 66.18 LIG 0.61  N 
BRANCH 27 29
ATOM     29  CB  LEU D4841     -59.688  28.443  38.590  1.00 58.40 LIG 0.06  C 
BRANCH 29 30
ATOM     30  CG  LEU D4841     -61.201  28.620  38.413  1.00 54.26 LIG-0.02  C 
ATOM     31  CD2 LEU D4841     -61.918  27.286  38.095  1.00 54.78 LIG 0.01  C 
ATOM     32  CD1 LEU D4841     -61.525  29.692  37.364  1.00 32.44 LIG 0.01  C 
ENDBRANCH 29 30
ENDBRANCH 27 29
ENDBRANCH 25 27
ENDBRANCH 22 23
BRANCH 22 33
ATOM     33  CB  VAL D4842     -59.303  29.309  34.297  1.00 48.47 LIG 0.01  C 
ATOM     34  CG2 VAL D4842     -58.540  30.495  34.819  1.00 42.42 LIG 0.01  C 
ATOM     35  CG1 VAL D4842     -60.737  29.709  33.995  1.00 34.87 LIG 0.01  C 
ENDBRANCH 22 33
ENDBRANCH 1 22
TORSDOF 13
ENDMDL
MODEL 152
USER: ADFR SOLUTION from run 42
USER: SCORE 9.022528 LL:  -2.490 LR:  -6.935 RR:   0.000 FEB:  -3.057
USER: RMSD 7.054764
USER: SEED 41
USER: STATUS no improvement in best in 34 clusters for 5 generations
USER: GENES 15
USER: genes 0 Translation |==|  0.37234 0.40660 0.23386
USER: genes 1 Rotation |==|  0.95368 0.40785 0.67464 0.57197
USER: genes 2 Torsion [C]-N--CA-[CB] |==|  0.88737
USER: genes 3 Torsion [N]-CA--C-[N] |==|  0.34447
USER: genes 4 Torsion [C]-N--CA-[CB] |==|  0.81950
USER: genes 5 Torsion [N]-CA--CB-[CG] |==|  0.80756
USER: genes 6 Torsion [CA]-CB--CG-[OD1] |==|  0.19185
USER: genes 7 Torsion [N]-CA--C-[O] |==|  0.00070
USER: genes 8 Torsion [N]-CA--CB-[CG2] |==|  0.83401
USER: genes 9 Torsion [N]-C--CA-[N] |==|  0.42116
USER: genes 10 Torsion [C]-CA--N-[C] |==|  0.80999
USER: genes 11 Torsion [N]-C--CA-[N] |==|  0.24825
USER: genes 12 Torsion [C]-CA--CB-[CG] |==|  0.48446
USER: genes 13 Torsion [CA]-CB--CG-[CD2] |==|  0.60199
USER: genes 14 Torsion [C]-CA--CB-[CG2] |==|  0.53986
ROOT
ATOM      1  C   VAL D4842     -59.721  26.026  35.088  1.00 57.35 LIG 0.24  C 
ATOM      2 O    VAL D4842     -60.682  26.265  35.828  1.00 61.28 LIG-0.27  OA
ATOM      3  N   VAL D4843     -58.957  26.981  34.573  1.00 52.36 LIG-0.35  N 
ATOM      4 H    VAL D4843     -58.197  26.825  34.202  1.00 52.36 LIG 0.16  HD
ENDROOT
BRANCH 3 5
ATOM      5  CA  VAL D4843     -59.323  28.390  34.580  1.00 37.99 LIG 0.18  C 
BRANCH 5 6
ATOM      6  C   VAL D4843     -58.990  28.857  36.019  1.00 51.29 LIG 0.24  C 
ATOM      7  N   ASN D4844     -58.164  29.881  36.192  1.00 50.43 LIG-0.35  N 
ATOM      8 H    ASN D4844     -57.802  30.342  35.563  1.00 50.43 LIG 0.16  HD
ATOM      9 O    VAL D4843     -59.483  28.273  36.994  1.00 47.22 LIG-0.27  OA
BRANCH 7 10
ATOM     10  CA  ASN D4844     -57.819  30.291  37.562  1.00 46.88 LIG 0.17  C 
BRANCH 10 11
ATOM     11  CB  ASN D4844     -59.058  30.811  38.290  1.00 66.72 LIG 0.14  C 
BRANCH 11 12
ATOM     12  CG  ASN D4844     -59.549  32.135  37.739  1.00 62.42 LIG 0.22  C 
ATOM     13 OD1  ASN D4844     -60.053  32.215  36.617  1.00 56.11 LIG-0.27  OA
ATOM     14  ND2 ASN D4844     -59.402  33.188  38.535  1.00 67.26 LIG-0.37  N 
ATOM     15 21HD ASN D4844     -59.664  33.965  38.274  1.00 67.26 LIG 0.16  HD
ATOM     16 22HD ASN D4844     -59.045  33.093  39.312  1.00 67.26 LIG 0.16  HD
ENDBRANCH 11 12
ENDBRANCH 10 11
BRANCH 10 17
ATOM     17  C   ASN D4844     -57.099  29.231  38.413  1.00 52.57 LIG 0.22  C 
ATOM     18 O    ASN D4844     -56.830  28.108  37.955  1.00 48.91 LIG-0.29  OA
ENDBRANCH 10 17
ENDBRANCH 7 10
ENDBRANCH 5 6
BRANCH 5 19
ATOM     19  CB  VAL D4843     -60.846  28.490  34.258  1.00 37.59 LIG 0.01  C 
ATOM     20  CG1 VAL D4843     -61.359  29.899  34.357  1.00 42.19 LIG 0.01  C 
ATOM     21  CG2 VAL D4843     -61.159  27.881  32.888  1.00 33.91 LIG 0.01  C 
ENDBRANCH 5 19
ENDBRANCH 3 5
BRANCH 1 22
ATOM     22  CA  VAL D4842     -59.291  24.587  34.741  1.00 42.26 LIG 0.18  C 
BRANCH 22 23
ATOM     23  N   VAL D4842     -59.634  23.554  35.722  1.00 51.43 LIG-0.34  N 
ATOM     24 H    VAL D4842     -60.231  22.998  35.450  1.00 51.43 LIG 0.16  HD
ATOM     25  C   LEU D4841     -59.067  23.491  36.925  1.00 54.30 LIG 0.26  C 
ATOM     26 O    LEU D4841     -59.222  22.540  37.687  1.00 66.57 LIG-0.27  OA
BRANCH 25 27
ATOM     27  CA  LEU D4841     -58.165  24.655  37.314  1.00 50.85 LIG 0.40  C 
ATOM     28  N   LEU D4841     -58.938  25.711  37.976  1.00 66.18 LIG 0.61  N 
BRANCH 27 29
ATOM     29  CB  LEU D4841     -57.039  24.171  38.236  1.00 58.40 LIG 0.06  C 
BRANCH 29 30
ATOM     30  CG  LEU D4841     -55.964  25.197  38.614  1.00 54.26 LIG-0.02  C 
ATOM     31  CD2 LEU D4841     -54.553  24.567  38.705  1.00 54.78 LIG 0.01  C 
ATOM     32  CD1 LEU D4841     -56.325  25.945  39.904  1.00 32.44 LIG 0.01  C 
ENDBRANCH 29 30
ENDBRANCH 27 29
ENDBRANCH 25 27
ENDBRANCH 22 23
BRANCH 22 33
ATOM     33  CB  VAL D4842     -59.762  24.205  33.314  1.00 48.47 LIG 0.01  C 
ATOM     34  CG2 VAL D4842     -59.665  22.722  33.087  1.00 42.42 LIG 0.01  C 
ATOM     35  CG1 VAL D4842     -58.915  24.942  32.290  1.00 34.87 LIG 0.01  C 
ENDBRANCH 22 33
ENDBRANCH 1 22
TORSDOF 13
ENDMDL
MODEL 153
USER: ADFR SOLUTION from run 2
USER: SCORE 8.081295 LL:  -2.409 LR:  -6.926 RR:   0.000 FEB:  -3.048
USER: RMSD 6.722934
USER: SEED 234260
USER: STATUS no improvement in best in 32 clusters for 5 generations
USER: GENES 15
USER: genes 0 Translation |==|  0.38329 0.35931 0.33952
USER: genes 1 Rotation |==|  0.95572 0.39334 0.67587 0.50382
USER: genes 2 Torsion [C]-N--CA-[CB] |==|  0.29444
USER: genes 3 Torsion [N]-CA--C-[N] |==|  0.39880
USER: genes 4 Torsion [C]-N--CA-[CB] |==|  0.36894
USER: genes 5 Torsion [N]-CA--CB-[CG] |==|  0.89329
USER: genes 6 Torsion [CA]-CB--CG-[OD1] |==|  0.89020
USER: genes 7 Torsion [N]-CA--C-[O] |==|  0.09423
USER: genes 8 Torsion [N]-CA--CB-[CG2] |==|  0.67648
USER: genes 9 Torsion [N]-C--CA-[N] |==|  0.37420
USER: genes 10 Torsion [C]-CA--N-[C] |==|  0.83810
USER: genes 11 Torsion [N]-C--CA-[N] |==|  0.28158
USER: genes 12 Torsion [C]-CA--CB-[CG] |==|  0.38012
USER: genes 13 Torsion [CA]-CB--CG-[CD2] |==|  0.45998
USER: genes 14 Torsion [C]-CA--CB-[CG2] |==|  0.52172
ROOT
ATOM      1  C   VAL D4842     -59.491  25.246  36.673  1.00 57.35 LIG 0.24  C 
ATOM      2 O    VAL D4842     -60.502  25.244  37.385  1.00 61.28 LIG-0.27  OA
ATOM      3  N   VAL D4843     -58.752  26.330  36.479  1.00 52.36 LIG-0.35  N 
ATOM      4 H    VAL D4843     -57.966  26.307  36.131  1.00 52.36 LIG 0.16  HD
ENDROOT
BRANCH 3 5
ATOM      5  CA  VAL D4843     -59.191  27.672  36.834  1.00 37.99 LIG 0.18  C 
BRANCH 5 6
ATOM      6  C   VAL D4843     -58.824  28.527  35.596  1.00 51.29 LIG 0.24  C 
ATOM      7  N   ASN D4844     -59.633  29.511  35.226  1.00 50.43 LIG-0.35  N 
ATOM      8 H    ASN D4844     -60.353  29.744  35.633  1.00 50.43 LIG 0.16  HD
ATOM      9 O    VAL D4843     -57.791  28.287  34.955  1.00 47.22 LIG-0.27  OA
BRANCH 7 10
ATOM     10  CA  ASN D4844     -59.300  30.290  34.024  1.00 46.88 LIG 0.17  C 
BRANCH 10 11
ATOM     11  CB  ASN D4844     -60.530  30.439  33.128  1.00 66.72 LIG 0.14  C 
BRANCH 11 12
ATOM     12  CG  ASN D4844     -61.380  29.183  33.086  1.00 62.42 LIG 0.22  C 
ATOM     13 OD1  ASN D4844     -60.866  28.063  33.052  1.00 56.11 LIG-0.27  OA
ATOM     14  ND2 ASN D4844     -62.695  29.369  33.090  1.00 67.26 LIG-0.37  N 
ATOM     15 21HD ASN D4844     -63.225  28.692  33.068  1.00 67.26 LIG 0.16  HD
ATOM     16 22HD ASN D4844     -63.016  30.167  33.114  1.00 67.26 LIG 0.16  HD
ENDBRANCH 11 12
ENDBRANCH 10 11
BRANCH 10 17
ATOM     17  C   ASN D4844     -58.650  31.661  34.277  1.00 52.57 LIG 0.22  C 
ATOM     18 O    ASN D4844     -57.883  31.845  35.236  1.00 48.91 LIG-0.29  OA
ENDBRANCH 10 17
ENDBRANCH 7 10
ENDBRANCH 5 6
BRANCH 5 19
ATOM     19  CB  VAL D4843     -58.409  28.108  38.113  1.00 37.59 LIG 0.01  C 
ATOM     20  CG1 VAL D4843     -57.556  29.321  37.873  1.00 42.19 LIG 0.01  C 
ATOM     21  CG2 VAL D4843     -59.362  28.324  39.292  1.00 33.91 LIG 0.01  C 
ENDBRANCH 5 19
ENDBRANCH 3 5
BRANCH 1 22
ATOM     22  CA  VAL D4842     -58.968  23.968  35.987  1.00 42.26 LIG 0.18  C 
BRANCH 22 23
ATOM     23  N   VAL D4842     -58.964  22.751  36.804  1.00 51.43 LIG-0.34  N 
ATOM     24 H    VAL D4842     -59.426  22.106  36.471  1.00 51.43 LIG 0.16  HD
ATOM     25  C   LEU D4841     -58.300  22.661  37.954  1.00 54.30 LIG 0.26  C 
ATOM     26 O    LEU D4841     -58.153  21.601  38.559  1.00 66.57 LIG-0.27  OA
BRANCH 25 27
ATOM     27  CA  LEU D4841     -57.683  23.947  38.486  1.00 50.85 LIG 0.40  C 
ATOM     28  N   LEU D4841     -58.510  24.516  39.555  1.00 66.18 LIG 0.61  N 
BRANCH 27 29
ATOM     29  CB  LEU D4841     -56.263  23.683  39.002  1.00 58.40 LIG 0.06  C 
BRANCH 29 30
ATOM     30  CG  LEU D4841     -55.188  24.713  38.632  1.00 54.26 LIG-0.02  C 
ATOM     31  CD2 LEU D4841     -53.902  24.554  39.478  1.00 54.78 LIG 0.01  C 
ATOM     32  CD1 LEU D4841     -55.731  26.147  38.705  1.00 32.44 LIG 0.01  C 
ENDBRANCH 29 30
ENDBRANCH 27 29
ENDBRANCH 25 27
ENDBRANCH 22 23
BRANCH 22 33
ATOM     33  CB  VAL D4842     -59.679  23.747  34.628  1.00 48.47 LIG 0.01  C 
ATOM     34  CG2 VAL D4842     -59.321  22.413  34.035  1.00 42.42 LIG 0.01  C 
ATOM     35  CG1 VAL D4842     -59.290  24.860  33.669  1.00 34.87 LIG 0.01  C 
ENDBRANCH 22 33
ENDBRANCH 1 22
TORSDOF 13
ENDMDL
MODEL 154
USER: ADFR SOLUTION from run 7
USER: SCORE 8.467547 LL:  -3.223 LR:  -6.929 RR:   0.000 FEB:  -3.051
USER: RMSD 6.952126
USER: SEED 983965
USER: STATUS no improvement in best in 17 clusters for 5 generations
USER: GENES 15
USER: genes 0 Translation |==|  0.41977 0.40631 0.42867
USER: genes 1 Rotation |==|  0.98105 0.53803 0.56993 0.61069
USER: genes 2 Torsion [C]-N--CA-[CB] |==|  0.36224
USER: genes 3 Torsion [N]-CA--C-[N] |==|  0.96277
USER: genes 4 Torsion [C]-N--CA-[CB] |==|  0.36661
USER: genes 5 Torsion [N]-CA--CB-[CG] |==|  0.15368
USER: genes 6 Torsion [CA]-CB--CG-[OD1] |==|  0.31601
USER: genes 7 Torsion [N]-CA--C-[O] |==|  0.90794
USER: genes 8 Torsion [N]-CA--CB-[CG2] |==|  0.20413
USER: genes 9 Torsion [N]-C--CA-[N] |==|  0.87849
USER: genes 10 Torsion [C]-CA--N-[C] |==|  0.73743
USER: genes 11 Torsion [N]-C--CA-[N] |==|  0.38784
USER: genes 12 Torsion [C]-CA--CB-[CG] |==|  0.01010
USER: genes 13 Torsion [CA]-CB--CG-[CD2] |==|  0.74675
USER: genes 14 Torsion [C]-CA--CB-[CG2] |==|  0.34928
ROOT
ATOM      1  C   VAL D4842     -58.725  26.021  38.010  1.00 57.35 LIG 0.24  C 
ATOM      2 O    VAL D4842     -59.255  26.186  39.115  1.00 61.28 LIG-0.27  OA
ATOM      3  N   VAL D4843     -58.747  26.946  37.060  1.00 52.36 LIG-0.35  N 
ATOM      4 H    VAL D4843     -58.246  26.914  36.362  1.00 52.36 LIG 0.16  HD
ENDROOT
BRANCH 3 5
ATOM      5  CA  VAL D4843     -59.618  28.112  37.096  1.00 37.99 LIG 0.18  C 
BRANCH 5 6
ATOM      6  C   VAL D4843     -60.651  27.844  35.973  1.00 51.29 LIG 0.24  C 
ATOM      7  N   ASN D4844     -60.416  26.878  35.094  1.00 50.43 LIG-0.35  N 
ATOM      8 H    ASN D4844     -59.734  26.354  35.101  1.00 50.43 LIG 0.16  HD
ATOM      9 O    VAL D4843     -61.680  28.530  35.894  1.00 47.22 LIG-0.27  OA
BRANCH 7 10
ATOM     10  CA  ASN D4844     -61.379  26.658  34.006  1.00 46.88 LIG 0.17  C 
BRANCH 10 11
ATOM     11  CB  ASN D4844     -60.653  26.549  32.665  1.00 66.72 LIG 0.14  C 
BRANCH 11 12
ATOM     12  CG  ASN D4844     -59.581  25.476  32.665  1.00 62.42 LIG 0.22  C 
ATOM     13 OD1  ASN D4844     -59.684  24.468  31.963  1.00 56.11 LIG-0.27  OA
ATOM     14  ND2 ASN D4844     -58.540  25.692  33.461  1.00 67.26 LIG-0.37  N 
ATOM     15 21HD ASN D4844     -57.902  25.116  33.500  1.00 67.26 LIG 0.16  HD
ATOM     16 22HD ASN D4844     -58.504  26.408  33.937  1.00 67.26 LIG 0.16  HD
ENDBRANCH 11 12
ENDBRANCH 10 11
BRANCH 10 17
ATOM     17  C   ASN D4844     -62.340  25.472  34.196  1.00 52.57 LIG 0.22  C 
ATOM     18 O    ASN D4844     -61.986  24.442  34.793  1.00 48.91 LIG-0.29  OA
ENDBRANCH 10 17
ENDBRANCH 7 10
ENDBRANCH 5 6
BRANCH 5 19
ATOM     19  CB  VAL D4843     -58.743  29.372  36.813  1.00 37.59 LIG 0.01  C 
ATOM     20  CG1 VAL D4843     -57.536  29.439  37.707  1.00 42.19 LIG 0.01  C 
ATOM     21  CG2 VAL D4843     -58.343  29.443  35.337  1.00 33.91 LIG 0.01  C 
ENDBRANCH 5 19
ENDBRANCH 3 5
BRANCH 1 22
ATOM     22  CA  VAL D4842     -57.942  24.741  37.658  1.00 42.26 LIG 0.18  C 
BRANCH 22 23
ATOM     23  N   VAL D4842     -58.162  24.197  36.315  1.00 51.43 LIG-0.34  N 
ATOM     24 H    VAL D4842     -57.663  24.550  35.709  1.00 51.43 LIG 0.16  HD
ATOM     25  C   LEU D4841     -59.055  23.242  36.066  1.00 54.30 LIG 0.26  C 
ATOM     26 O    LEU D4841     -59.130  22.664  34.983  1.00 66.57 LIG-0.27  OA
BRANCH 25 27
ATOM     27  CA  LEU D4841     -59.978  22.857  37.213  1.00 50.85 LIG 0.40  C 
ATOM     28  N   LEU D4841     -61.343  22.635  36.729  1.00 66.18 LIG 0.61  N 
BRANCH 27 29
ATOM     29  CB  LEU D4841     -59.457  21.597  37.916  1.00 58.40 LIG 0.06  C 
BRANCH 29 30
ATOM     30  CG  LEU D4841     -58.121  21.029  37.421  1.00 54.26 LIG-0.02  C 
ATOM     31  CD2 LEU D4841     -58.304  19.974  36.304  1.00 54.78 LIG 0.01  C 
ATOM     32  CD1 LEU D4841     -57.278  20.477  38.579  1.00 32.44 LIG 0.01  C 
ENDBRANCH 29 30
ENDBRANCH 27 29
ENDBRANCH 25 27
ENDBRANCH 22 23
BRANCH 22 33
ATOM     33  CB  VAL D4842     -56.433  24.921  37.966  1.00 48.47 LIG 0.01  C 
ATOM     34  CG2 VAL D4842     -55.926  23.830  38.867  1.00 42.42 LIG 0.01  C 
ATOM     35  CG1 VAL D4842     -56.210  26.276  38.618  1.00 34.87 LIG 0.01  C 
ENDBRANCH 22 33
ENDBRANCH 1 22
TORSDOF 13
ENDMDL
MODEL 155
USER: ADFR SOLUTION from run 22
USER: SCORE 9.174816 LL:  -2.772 LR:  -6.921 RR:   0.000 FEB:  -3.043
USER: RMSD 8.364753
USER: SEED 21
USER: STATUS no improvement in best in 50 clusters for 5 generations
USER: GENES 15
USER: genes 0 Translation |==|  0.27433 0.56445 0.19889
USER: genes 1 Rotation |==|  0.34619 0.47136 0.82909 0.84238
USER: genes 2 Torsion [C]-N--CA-[CB] |==|  0.52843
USER: genes 3 Torsion [N]-CA--C-[N] |==|  0.39188
USER: genes 4 Torsion [C]-N--CA-[CB] |==|  0.33781
USER: genes 5 Torsion [N]-CA--CB-[CG] |==|  0.02577
USER: genes 6 Torsion [CA]-CB--CG-[OD1] |==|  0.31244
USER: genes 7 Torsion [N]-CA--C-[O] |==|  0.14443
USER: genes 8 Torsion [N]-CA--CB-[CG2] |==|  0.75948
USER: genes 9 Torsion [N]-C--CA-[N] |==|  0.46408
USER: genes 10 Torsion [C]-CA--N-[C] |==|  0.76527
USER: genes 11 Torsion [N]-C--CA-[N] |==|  0.45327
USER: genes 12 Torsion [C]-CA--CB-[CG] |==|  0.39719
USER: genes 13 Torsion [CA]-CB--CG-[CD2] |==|  0.03036
USER: genes 14 Torsion [C]-CA--CB-[CG2] |==|  0.85516
ROOT
ATOM      1  C   VAL D4842     -61.779  28.630  34.563  1.00 57.35 LIG 0.24  C 
ATOM      2 O    VAL D4842     -61.497  28.009  33.531  1.00 61.28 LIG-0.27  OA
ATOM      3  N   VAL D4843     -60.914  28.803  35.555  1.00 52.36 LIG-0.35  N 
ATOM      4 H    VAL D4843     -61.038  29.367  36.192  1.00 52.36 LIG 0.16  HD
ENDROOT
BRANCH 3 5
ATOM      5  CA  VAL D4843     -59.668  28.059  35.670  1.00 37.99 LIG 0.18  C 
BRANCH 5 6
ATOM      6  C   VAL D4843     -60.097  26.581  35.502  1.00 51.29 LIG 0.24  C 
ATOM      7  N   ASN D4844     -59.321  25.756  34.810  1.00 50.43 LIG-0.35  N 
ATOM      8 H    ASN D4844     -58.567  25.963  34.454  1.00 50.43 LIG 0.16  HD
ATOM      9 O    VAL D4843     -61.157  26.177  36.001  1.00 47.22 LIG-0.27  OA
BRANCH 7 10
ATOM     10  CA  ASN D4844     -59.756  24.365  34.618  1.00 46.88 LIG 0.17  C 
BRANCH 10 11
ATOM     11  CB  ASN D4844     -59.864  24.041  33.128  1.00 66.72 LIG 0.14  C 
BRANCH 11 12
ATOM     12  CG  ASN D4844     -59.290  25.134  32.248  1.00 62.42 LIG 0.22  C 
ATOM     13 OD1  ASN D4844     -58.271  24.950  31.580  1.00 56.11 LIG-0.27  OA
ATOM     14  ND2 ASN D4844     -59.950  26.287  32.246  1.00 67.26 LIG-0.37  N 
ATOM     15 21HD ASN D4844     -59.669  26.942  31.764  1.00 67.26 LIG 0.16  HD
ATOM     16 22HD ASN D4844     -60.658  26.378  32.726  1.00 67.26 LIG 0.16  HD
ENDBRANCH 11 12
ENDBRANCH 10 11
BRANCH 10 17
ATOM     17  C   ASN D4844     -58.917  23.298  35.342  1.00 52.57 LIG 0.22  C 
ATOM     18 O    ASN D4844     -58.675  23.381  36.557  1.00 48.91 LIG-0.29  OA
ENDBRANCH 10 17
ENDBRANCH 7 10
ENDBRANCH 5 6
BRANCH 5 19
ATOM     19  CB  VAL D4843     -59.067  28.350  37.080  1.00 37.59 LIG 0.01  C 
ATOM     20  CG1 VAL D4843     -58.298  27.179  37.624  1.00 42.19 LIG 0.01  C 
ATOM     21  CG2 VAL D4843     -58.208  29.617  37.060  1.00 33.91 LIG 0.01  C 
ENDBRANCH 5 19
ENDBRANCH 3 5
BRANCH 1 22
ATOM     22  CA  VAL D4842     -63.149  29.307  34.766  1.00 42.26 LIG 0.18  C 
BRANCH 22 23
ATOM     23  N   VAL D4842     -64.012  29.387  33.584  1.00 51.43 LIG-0.34  N 
ATOM     24 H    VAL D4842     -64.586  28.749  33.527  1.00 51.43 LIG 0.16  HD
ATOM     25  C   LEU D4841     -63.909  30.365  32.686  1.00 54.30 LIG 0.26  C 
ATOM     26 O    LEU D4841     -64.731  30.535  31.788  1.00 66.57 LIG-0.27  OA
BRANCH 25 27
ATOM     27  CA  LEU D4841     -62.727  31.311  32.841  1.00 50.85 LIG 0.40  C 
ATOM     28  N   LEU D4841     -62.501  32.067  31.606  1.00 66.18 LIG 0.61  N 
BRANCH 27 29
ATOM     29  CB  LEU D4841     -62.965  32.273  34.012  1.00 58.40 LIG 0.06  C 
BRANCH 29 30
ATOM     30  CG  LEU D4841     -61.745  32.644  34.864  1.00 54.26 LIG-0.02  C 
ATOM     31  CD2 LEU D4841     -60.414  32.181  34.223  1.00 54.78 LIG 0.01  C 
ATOM     32  CD1 LEU D4841     -61.881  32.126  36.302  1.00 32.44 LIG 0.01  C 
ENDBRANCH 29 30
ENDBRANCH 27 29
ENDBRANCH 25 27
ENDBRANCH 22 23
BRANCH 22 33
ATOM     33  CB  VAL D4842     -63.890  28.690  35.979  1.00 48.47 LIG 0.01  C 
ATOM     34  CG2 VAL D4842     -63.958  27.192  35.873  1.00 42.42 LIG 0.01  C 
ATOM     35  CG1 VAL D4842     -65.293  29.267  36.060  1.00 34.87 LIG 0.01  C 
ENDBRANCH 22 33
ENDBRANCH 1 22
TORSDOF 13
ENDMDL
MODEL 156
USER: ADFR SOLUTION from run 30
USER: SCORE 9.131314 LL:  -2.536 LR:  -6.914 RR:   0.000 FEB:  -3.037
USER: RMSD 8.737950
USER: SEED 29
USER: STATUS no improvement in best in 20 clusters for 5 generations
USER: GENES 15
USER: genes 0 Translation |==|  0.34293 0.43846 0.14281
USER: genes 1 Rotation |==|  0.59553 0.27106 0.92709 0.57783
USER: genes 2 Torsion [C]-N--CA-[CB] |==|  0.17297
USER: genes 3 Torsion [N]-CA--C-[N] |==|  0.06147
USER: genes 4 Torsion [C]-N--CA-[CB] |==|  0.42142
USER: genes 5 Torsion [N]-CA--CB-[CG] |==|  0.10806
USER: genes 6 Torsion [CA]-CB--CG-[OD1] |==|  0.79331
USER: genes 7 Torsion [N]-CA--C-[O] |==|  0.21516
USER: genes 8 Torsion [N]-CA--CB-[CG2] |==|  0.57365
USER: genes 9 Torsion [N]-C--CA-[N] |==|  0.34171
USER: genes 10 Torsion [C]-CA--N-[C] |==|  0.68894
USER: genes 11 Torsion [N]-C--CA-[N] |==|  0.82845
USER: genes 12 Torsion [C]-CA--CB-[CG] |==|  0.17499
USER: genes 13 Torsion [CA]-CB--CG-[CD2] |==|  0.09505
USER: genes 14 Torsion [C]-CA--CB-[CG2] |==|  0.36628
ROOT
ATOM      1  C   VAL D4842     -60.338  26.552  33.722  1.00 57.35 LIG 0.24  C 
ATOM      2 O    VAL D4842     -60.506  27.365  32.806  1.00 61.28 LIG-0.27  OA
ATOM      3  N   VAL D4843     -59.660  26.843  34.825  1.00 52.36 LIG-0.35  N 
ATOM      4 H    VAL D4843     -59.681  26.354  35.531  1.00 52.36 LIG 0.16  HD
ENDROOT
BRANCH 3 5
ATOM      5  CA  VAL D4843     -58.813  28.019  34.957  1.00 37.99 LIG 0.18  C 
BRANCH 5 6
ATOM      6  C   VAL D4843     -58.213  27.892  36.379  1.00 51.29 LIG 0.24  C 
ATOM      7  N   ASN D4844     -58.165  26.698  36.957  1.00 50.43 LIG-0.35  N 
ATOM      8 H    ASN D4844     -58.422  25.960  36.598  1.00 50.43 LIG 0.16  HD
ATOM      9 O    VAL D4843     -57.790  28.895  36.970  1.00 47.22 LIG-0.27  OA
BRANCH 7 10
ATOM     10  CA  ASN D4844     -57.634  26.592  38.324  1.00 46.88 LIG 0.17  C 
BRANCH 10 11
ATOM     11  CB  ASN D4844     -58.265  25.404  39.050  1.00 66.72 LIG 0.14  C 
BRANCH 11 12
ATOM     12  CG  ASN D4844     -58.449  24.198  38.149  1.00 62.42 LIG 0.22  C 
ATOM     13 OD1  ASN D4844     -59.337  24.166  37.295  1.00 56.11 LIG-0.27  OA
ATOM     14  ND2 ASN D4844     -57.601  23.194  38.340  1.00 67.26 LIG-0.37  N 
ATOM     15 21HD ASN D4844     -57.659  22.484  37.857  1.00 67.26 LIG 0.16  HD
ATOM     16 22HD ASN D4844     -56.994  23.253  38.947  1.00 67.26 LIG 0.16  HD
ENDBRANCH 11 12
ENDBRANCH 10 11
BRANCH 10 17
ATOM     17  C   ASN D4844     -56.101  26.542  38.441  1.00 52.57 LIG 0.22  C 
ATOM     18 O    ASN D4844     -55.410  27.568  38.330  1.00 48.91 LIG-0.29  OA
ENDBRANCH 10 17
ENDBRANCH 7 10
ENDBRANCH 5 6
BRANCH 5 19
ATOM     19  CB  VAL D4843     -59.718  29.280  34.802  1.00 37.59 LIG 0.01  C 
ATOM     20  CG1 VAL D4843     -60.438  29.625  36.075  1.00 42.19 LIG 0.01  C 
ATOM     21  CG2 VAL D4843     -58.913  30.474  34.280  1.00 33.91 LIG 0.01  C 
ENDBRANCH 5 19
ENDBRANCH 3 5
BRANCH 1 22
ATOM     22  CA  VAL D4842     -60.952  25.138  33.687  1.00 42.26 LIG 0.18  C 
BRANCH 22 23
ATOM     23  N   VAL D4842     -62.402  25.067  33.487  1.00 51.43 LIG-0.34  N 
ATOM     24 H    VAL D4842     -62.660  25.318  32.705  1.00 51.43 LIG 0.16  HD
ATOM     25  C   LEU D4841     -63.238  24.650  34.436  1.00 54.30 LIG 0.26  C 
ATOM     26 O    LEU D4841     -64.428  24.428  34.226  1.00 66.57 LIG-0.27  OA
BRANCH 25 27
ATOM     27  CA  LEU D4841     -62.639  24.416  35.815  1.00 50.85 LIG 0.40  C 
ATOM     28  N   LEU D4841     -61.616  23.367  35.765  1.00 66.18 LIG 0.61  N 
BRANCH 27 29
ATOM     29  CB  LEU D4841     -62.034  25.716  36.361  1.00 58.40 LIG 0.06  C 
BRANCH 29 30
ATOM     30  CG  LEU D4841     -62.999  26.883  36.601  1.00 54.26 LIG-0.02  C 
ATOM     31  CD2 LEU D4841     -64.396  26.408  37.068  1.00 54.78 LIG 0.01  C 
ATOM     32  CD1 LEU D4841     -63.101  27.794  35.371  1.00 32.44 LIG 0.01  C 
ENDBRANCH 29 30
ENDBRANCH 27 29
ENDBRANCH 25 27
ENDBRANCH 22 23
BRANCH 22 33
ATOM     33  CB  VAL D4842     -60.187  24.235  32.686  1.00 48.47 LIG 0.01  C 
ATOM     34  CG2 VAL D4842     -59.844  22.907  33.301  1.00 42.42 LIG 0.01  C 
ATOM     35  CG1 VAL D4842     -58.919  24.941  32.237  1.00 34.87 LIG 0.01  C 
ENDBRANCH 22 33
ENDBRANCH 1 22
TORSDOF 13
ENDMDL
MODEL 157
USER: ADFR SOLUTION from run 99
USER: SCORE 8.718370 LL:  -2.714 LR:  -6.915 RR:   0.000 FEB:  -3.037
USER: RMSD 7.945659
USER: SEED 98
USER: STATUS no improvement in best in 26 clusters for 5 generations
USER: GENES 15
USER: genes 0 Translation |==|  0.37036 0.35078 0.26574
USER: genes 1 Rotation |==|  0.09475 0.68335 0.57160 0.71685
USER: genes 2 Torsion [C]-N--CA-[CB] |==|  0.19958
USER: genes 3 Torsion [N]-CA--C-[N] |==|  0.49425
USER: genes 4 Torsion [C]-N--CA-[CB] |==|  0.25820
USER: genes 5 Torsion [N]-CA--CB-[CG] |==|  0.76119
USER: genes 6 Torsion [CA]-CB--CG-[OD1] |==|  0.22038
USER: genes 7 Torsion [N]-CA--C-[O] |==|  0.27255
USER: genes 8 Torsion [N]-CA--CB-[CG2] |==|  0.62974
USER: genes 9 Torsion [N]-C--CA-[N] |==|  0.94442
USER: genes 10 Torsion [C]-CA--N-[C] |==|  0.82117
USER: genes 11 Torsion [N]-C--CA-[N] |==|  0.40549
USER: genes 12 Torsion [C]-CA--CB-[CG] |==|  0.35919
USER: genes 13 Torsion [CA]-CB--CG-[CD2] |==|  0.07496
USER: genes 14 Torsion [C]-CA--CB-[CG2] |==|  0.63058
ROOT
ATOM      1  C   VAL D4842     -59.762  25.105  35.566  1.00 57.35 LIG 0.24  C 
ATOM      2 O    VAL D4842     -60.226  24.141  36.188  1.00 61.28 LIG-0.27  OA
ATOM      3  N   VAL D4843     -58.862  25.928  36.087  1.00 52.36 LIG-0.35  N 
ATOM      4 H    VAL D4843     -58.412  26.490  35.616  1.00 52.36 LIG 0.16  HD
ENDROOT
BRANCH 3 5
ATOM      5  CA  VAL D4843     -58.538  25.968  37.506  1.00 37.99 LIG 0.18  C 
BRANCH 5 6
ATOM      6  C   VAL D4843     -57.686  27.251  37.661  1.00 51.29 LIG 0.24  C 
ATOM      7  N   ASN D4844     -57.258  27.603  38.866  1.00 50.43 LIG-0.35  N 
ATOM      8 H    ASN D4844     -57.393  27.161  39.591  1.00 50.43 LIG 0.16  HD
ATOM      9 O    VAL D4843     -57.415  27.944  36.669  1.00 47.22 LIG-0.27  OA
BRANCH 7 10
ATOM     10  CA  ASN D4844     -56.486  28.846  39.011  1.00 46.88 LIG 0.17  C 
BRANCH 10 11
ATOM     11  CB  ASN D4844     -57.414  30.012  39.354  1.00 66.72 LIG 0.14  C 
BRANCH 11 12
ATOM     12  CG  ASN D4844     -58.017  30.662  38.124  1.00 62.42 LIG 0.22  C 
ATOM     13 OD1  ASN D4844     -58.978  30.159  37.540  1.00 56.11 LIG-0.27  OA
ATOM     14  ND2 ASN D4844     -57.448  31.795  37.726  1.00 67.26 LIG-0.37  N 
ATOM     15 21HD ASN D4844     -57.750  32.207  37.034  1.00 67.26 LIG 0.16  HD
ATOM     16 22HD ASN D4844     -56.778  32.115  38.160  1.00 67.26 LIG 0.16  HD
ENDBRANCH 11 12
ENDBRANCH 10 11
BRANCH 10 17
ATOM     17  C   ASN D4844     -55.307  28.788  39.998  1.00 52.57 LIG 0.22  C 
ATOM     18 O    ASN D4844     -54.144  28.602  39.605  1.00 48.91 LIG-0.29  OA
ENDBRANCH 10 17
ENDBRANCH 7 10
ENDBRANCH 5 6
BRANCH 5 19
ATOM     19  CB  VAL D4843     -57.736  24.674  37.849  1.00 37.59 LIG 0.01  C 
ATOM     20  CG1 VAL D4843     -56.260  24.930  37.955  1.00 42.19 LIG 0.01  C 
ATOM     21  CG2 VAL D4843     -58.277  24.014  39.120  1.00 33.91 LIG 0.01  C 
ENDBRANCH 5 19
ENDBRANCH 3 5
BRANCH 1 22
ATOM     22  CA  VAL D4842     -60.153  25.404  34.105  1.00 42.26 LIG 0.18  C 
BRANCH 22 23
ATOM     23  N   VAL D4842     -59.867  26.758  33.623  1.00 51.43 LIG-0.34  N 
ATOM     24 H    VAL D4842     -59.286  26.787  32.989  1.00 51.43 LIG 0.16  HD
ATOM     25  C   LEU D4841     -60.458  27.839  34.127  1.00 54.30 LIG 0.26  C 
ATOM     26 O    LEU D4841     -60.353  28.954  33.622  1.00 66.57 LIG-0.27  OA
BRANCH 25 27
ATOM     27  CA  LEU D4841     -61.323  27.628  35.362  1.00 50.85 LIG 0.40  C 
ATOM     28  N   LEU D4841     -61.250  28.791  36.251  1.00 66.18 LIG 0.61  N 
BRANCH 27 29
ATOM     29  CB  LEU D4841     -62.778  27.367  34.955  1.00 58.40 LIG 0.06  C 
BRANCH 29 30
ATOM     30  CG  LEU D4841     -63.459  26.136  35.566  1.00 54.26 LIG-0.02  C 
ATOM     31  CD2 LEU D4841     -62.857  25.747  36.938  1.00 54.78 LIG 0.01  C 
ATOM     32  CD1 LEU D4841     -63.453  24.946  34.597  1.00 32.44 LIG 0.01  C 
ENDBRANCH 29 30
ENDBRANCH 27 29
ENDBRANCH 25 27
ENDBRANCH 22 23
BRANCH 22 33
ATOM     33  CB  VAL D4842     -59.581  24.321  33.155  1.00 48.47 LIG 0.01  C 
ATOM     34  CG2 VAL D4842     -58.916  24.942  31.958  1.00 42.42 LIG 0.01  C 
ATOM     35  CG1 VAL D4842     -60.704  23.402  32.704  1.00 34.87 LIG 0.01  C 
ENDBRANCH 22 33
ENDBRANCH 1 22
TORSDOF 13
ENDMDL
MODEL 158
USER: ADFR SOLUTION from run 118
USER: SCORE 8.643357 LL:  -2.597 LR:  -6.906 RR:   0.000 FEB:  -3.028
USER: RMSD 6.837407
USER: SEED 117
USER: STATUS no improvement in best in 14 clusters for 5 generations
USER: GENES 15
USER: genes 0 Translation |==|  0.32164 0.54765 0.13021
USER: genes 1 Rotation |==|  0.52064 0.78978 0.59602 0.89545
USER: genes 2 Torsion [C]-N--CA-[CB] |==|  0.51831
USER: genes 3 Torsion [N]-CA--C-[N] |==|  0.31557
USER: genes 4 Torsion [C]-N--CA-[CB] |==|  0.37303
USER: genes 5 Torsion [N]-CA--CB-[CG] |==|  0.80587
USER: genes 6 Torsion [CA]-CB--CG-[OD1] |==|  0.74915
USER: genes 7 Torsion [N]-CA--C-[O] |==|  0.27558
USER: genes 8 Torsion [N]-CA--CB-[CG2] |==|  0.81344
USER: genes 9 Torsion [N]-C--CA-[N] |==|  0.44077
USER: genes 10 Torsion [C]-CA--N-[C] |==|  0.56584
USER: genes 11 Torsion [N]-C--CA-[N] |==|  0.30018
USER: genes 12 Torsion [C]-CA--CB-[CG] |==|  0.11611
USER: genes 13 Torsion [CA]-CB--CG-[CD2] |==|  0.59136
USER: genes 14 Torsion [C]-CA--CB-[CG2] |==|  0.20945
ROOT
ATOM      1  C   VAL D4842     -60.786  28.353  33.533  1.00 57.35 LIG 0.24  C 
ATOM      2 O    VAL D4842     -62.018  28.374  33.425  1.00 61.28 LIG-0.27  OA
ATOM      3  N   VAL D4843     -60.069  27.250  33.362  1.00 52.36 LIG-0.35  N 
ATOM      4 H    VAL D4843     -59.215  27.255  33.267  1.00 52.36 LIG 0.16  HD
ENDROOT
BRANCH 3 5
ATOM      5  CA  VAL D4843     -60.651  25.916  33.317  1.00 37.99 LIG 0.18  C 
BRANCH 5 6
ATOM      6  C   VAL D4843     -61.476  25.821  34.624  1.00 51.29 LIG 0.24  C 
ATOM      7  N   ASN D4844     -62.798  25.738  34.551  1.00 50.43 LIG-0.35  N 
ATOM      8 H    ASN D4844     -63.256  25.707  33.824  1.00 50.43 LIG 0.16  HD
ATOM      9 O    VAL D4843     -60.905  25.832  35.724  1.00 47.22 LIG-0.27  OA
BRANCH 7 10
ATOM     10  CA  ASN D4844     -63.577  25.692  35.798  1.00 46.88 LIG 0.17  C 
BRANCH 10 11
ATOM     11  CB  ASN D4844     -64.769  26.645  35.716  1.00 66.72 LIG 0.14  C 
BRANCH 11 12
ATOM     12  CG  ASN D4844     -64.357  28.104  35.736  1.00 62.42 LIG 0.22  C 
ATOM     13 OD1  ASN D4844     -64.256  28.726  36.795  1.00 56.11 LIG-0.27  OA
ATOM     14  ND2 ASN D4844     -64.114  28.657  34.553  1.00 67.26 LIG-0.37  N 
ATOM     15 21HD ASN D4844     -63.875  29.483  34.506  1.00 67.26 LIG 0.16  HD
ATOM     16 22HD ASN D4844     -64.195  28.190  33.835  1.00 67.26 LIG 0.16  HD
ENDBRANCH 11 12
ENDBRANCH 10 11
BRANCH 10 17
ATOM     17  C   ASN D4844     -64.034  24.294  36.247  1.00 52.57 LIG 0.22  C 
ATOM     18 O    ASN D4844     -63.417  23.662  37.120  1.00 48.91 LIG-0.29  OA
ENDBRANCH 10 17
ENDBRANCH 7 10
ENDBRANCH 5 6
BRANCH 5 19
ATOM     19  CB  VAL D4843     -59.480  24.886  33.274  1.00 37.59 LIG 0.01  C 
ATOM     20  CG1 VAL D4843     -59.948  23.480  33.523  1.00 42.19 LIG 0.01  C 
ATOM     21  CG2 VAL D4843     -58.708  24.987  31.956  1.00 33.91 LIG 0.01  C 
ENDBRANCH 5 19
ENDBRANCH 3 5
BRANCH 1 22
ATOM     22  CA  VAL D4842     -59.966  29.625  33.824  1.00 42.26 LIG 0.18  C 
BRANCH 22 23
ATOM     23  N   VAL D4842     -60.630  30.902  33.543  1.00 51.43 LIG-0.34  N 
ATOM     24 H    VAL D4842     -61.489  30.858  33.552  1.00 51.43 LIG 0.16  HD
ATOM     25  C   LEU D4841     -59.955  32.023  33.297  1.00 54.30 LIG 0.26  C 
ATOM     26 O    LEU D4841     -60.495  33.125  33.227  1.00 66.57 LIG-0.27  OA
BRANCH 25 27
ATOM     27  CA  LEU D4841     -58.447  31.889  33.142  1.00 50.85 LIG 0.40  C 
ATOM     28  N   LEU D4841     -58.052  32.072  31.742  1.00 66.18 LIG 0.61  N 
BRANCH 27 29
ATOM     29  CB  LEU D4841     -57.727  32.911  34.030  1.00 58.40 LIG 0.06  C 
BRANCH 29 30
ATOM     30  CG  LEU D4841     -58.284  33.115  35.444  1.00 54.26 LIG-0.02  C 
ATOM     31  CD2 LEU D4841     -58.113  34.571  35.941  1.00 54.78 LIG 0.01  C 
ATOM     32  CD1 LEU D4841     -57.686  32.111  36.438  1.00 32.44 LIG 0.01  C 
ENDBRANCH 29 30
ENDBRANCH 27 29
ENDBRANCH 25 27
ENDBRANCH 22 23
BRANCH 22 33
ATOM     33  CB  VAL D4842     -59.383  29.584  35.259  1.00 48.47 LIG 0.01  C 
ATOM     34  CG2 VAL D4842     -58.213  28.644  35.347  1.00 42.42 LIG 0.01  C 
ATOM     35  CG1 VAL D4842     -60.468  29.152  36.232  1.00 34.87 LIG 0.01  C 
ENDBRANCH 22 33
ENDBRANCH 1 22
TORSDOF 13
ENDMDL
MODEL 159
USER: ADFR SOLUTION from run 74
USER: SCORE 8.834923 LL:  -2.690 LR:  -6.906 RR:   0.000 FEB:  -3.028
USER: RMSD 10.453720
USER: SEED 73
USER: STATUS no improvement in best in 32 clusters for 5 generations
USER: GENES 15
USER: genes 0 Translation |==|  0.26304 0.32076 0.19144
USER: genes 1 Rotation |==|  0.81083 0.36634 0.13221 0.51580
USER: genes 2 Torsion [C]-N--CA-[CB] |==|  0.50810
USER: genes 3 Torsion [N]-CA--C-[N] |==|  0.37739
USER: genes 4 Torsion [C]-N--CA-[CB] |==|  0.32073
USER: genes 5 Torsion [N]-CA--CB-[CG] |==|  0.89248
USER: genes 6 Torsion [CA]-CB--CG-[OD1] |==|  0.70540
USER: genes 7 Torsion [N]-CA--C-[O] |==|  0.67263
USER: genes 8 Torsion [N]-CA--CB-[CG2] |==|  0.49179
USER: genes 9 Torsion [N]-C--CA-[N] |==|  0.45460
USER: genes 10 Torsion [C]-CA--N-[C] |==|  0.73407
USER: genes 11 Torsion [N]-C--CA-[N] |==|  0.30431
USER: genes 12 Torsion [C]-CA--CB-[CG] |==|  0.24470
USER: genes 13 Torsion [CA]-CB--CG-[CD2] |==|  0.06173
USER: genes 14 Torsion [C]-CA--CB-[CG2] |==|  0.21211
ROOT
ATOM      1  C   VAL D4842     -62.016  24.610  34.452  1.00 57.35 LIG 0.24  C 
ATOM      2 O    VAL D4842     -60.956  24.012  34.671  1.00 61.28 LIG-0.27  OA
ATOM      3  N   VAL D4843     -62.056  25.854  33.994  1.00 52.36 LIG-0.35  N 
ATOM      4 H    VAL D4843     -62.770  26.216  33.681  1.00 52.36 LIG 0.16  HD
ENDROOT
BRANCH 3 5
ATOM      5  CA  VAL D4843     -60.899  26.737  33.973  1.00 37.99 LIG 0.18  C 
BRANCH 5 6
ATOM      6  C   VAL D4843     -60.444  26.796  35.452  1.00 51.29 LIG 0.24  C 
ATOM      7  N   ASN D4844     -59.152  26.698  35.738  1.00 50.43 LIG-0.35  N 
ATOM      8 H    ASN D4844     -58.519  26.625  35.161  1.00 50.43 LIG 0.16  HD
ATOM      9 O    VAL D4843     -61.281  26.926  36.357  1.00 47.22 LIG-0.27  OA
BRANCH 7 10
ATOM     10  CA  ASN D4844     -58.733  26.711  37.147  1.00 46.88 LIG 0.17  C 
BRANCH 10 11
ATOM     11  CB  ASN D4844     -58.101  25.372  37.527  1.00 66.72 LIG 0.14  C 
BRANCH 11 12
ATOM     12  CG  ASN D4844     -58.808  24.190  36.894  1.00 62.42 LIG 0.22  C 
ATOM     13 OD1  ASN D4844     -59.533  23.447  37.558  1.00 56.11 LIG-0.27  OA
ATOM     14  ND2 ASN D4844     -58.597  24.011  35.595  1.00 67.26 LIG-0.37  N 
ATOM     15 21HD ASN D4844     -58.974  23.356  35.184  1.00 67.26 LIG 0.16  HD
ATOM     16 22HD ASN D4844     -58.083  24.551  35.165  1.00 67.26 LIG 0.16  HD
ENDBRANCH 11 12
ENDBRANCH 10 11
BRANCH 10 17
ATOM     17  C   ASN D4844     -57.816  27.876  37.558  1.00 52.57 LIG 0.22  C 
ATOM     18 O    ASN D4844     -56.664  27.675  37.975  1.00 48.91 LIG-0.29  OA
ENDBRANCH 10 17
ENDBRANCH 7 10
ENDBRANCH 5 6
BRANCH 5 19
ATOM     19  CB  VAL D4843     -61.367  28.126  33.437  1.00 37.59 LIG 0.01  C 
ATOM     20  CG1 VAL D4843     -62.563  28.650  34.180  1.00 42.19 LIG 0.01  C 
ATOM     21  CG2 VAL D4843     -60.218  29.137  33.453  1.00 33.91 LIG 0.01  C 
ENDBRANCH 5 19
ENDBRANCH 3 5
BRANCH 1 22
ATOM     22  CA  VAL D4842     -63.391  23.939  34.640  1.00 42.26 LIG 0.18  C 
BRANCH 22 23
ATOM     23  N   VAL D4842     -63.385  22.480  34.780  1.00 51.43 LIG-0.34  N 
ATOM     24 H    VAL D4842     -63.236  22.207  35.582  1.00 51.43 LIG 0.16  HD
ATOM     25  C   LEU D4841     -63.594  21.660  33.752  1.00 54.30 LIG 0.26  C 
ATOM     26 O    LEU D4841     -63.758  20.449  33.887  1.00 66.57 LIG-0.27  OA
BRANCH 25 27
ATOM     27  CA  LEU D4841     -63.663  22.301  32.374  1.00 50.85 LIG 0.40  C 
ATOM     28  N   LEU D4841     -62.481  21.952  31.580  1.00 66.18 LIG 0.61  N 
BRANCH 27 29
ATOM     29  CB  LEU D4841     -64.937  21.859  31.643  1.00 58.40 LIG 0.06  C 
BRANCH 29 30
ATOM     30  CG  LEU D4841     -66.198  22.700  31.878  1.00 54.26 LIG-0.02  C 
ATOM     31  CD2 LEU D4841     -65.871  24.134  32.358  1.00 54.78 LIG 0.01  C 
ATOM     32  CD1 LEU D4841     -67.174  22.000  32.833  1.00 32.44 LIG 0.01  C 
ENDBRANCH 29 30
ENDBRANCH 27 29
ENDBRANCH 25 27
ENDBRANCH 22 23
BRANCH 22 33
ATOM     33  CB  VAL D4842     -64.181  24.624  35.784  1.00 48.47 LIG 0.01  C 
ATOM     34  CG2 VAL D4842     -64.754  25.941  35.340  1.00 42.42 LIG 0.01  C 
ATOM     35  CG1 VAL D4842     -63.261  24.835  36.976  1.00 34.87 LIG 0.01  C 
ENDBRANCH 22 33
ENDBRANCH 1 22
TORSDOF 13
ENDMDL
MODEL 160
USER: ADFR SOLUTION from run 53
USER: SCORE 9.249758 LL:  -2.997 LR:  -6.899 RR:   0.000 FEB:  -3.021
USER: RMSD 7.822979
USER: SEED 52
USER: STATUS no improvement in best in 30 clusters for 5 generations
USER: GENES 15
USER: genes 0 Translation |==|  0.34912 0.54030 0.22389
USER: genes 1 Rotation |==|  0.15689 0.85658 0.45057 0.55182
USER: genes 2 Torsion [C]-N--CA-[CB] |==|  0.89444
USER: genes 3 Torsion [N]-CA--C-[N] |==|  0.89438
USER: genes 4 Torsion [C]-N--CA-[CB] |==|  0.46641
USER: genes 5 Torsion [N]-CA--CB-[CG] |==|  0.11311
USER: genes 6 Torsion [CA]-CB--CG-[OD1] |==|  0.22065
USER: genes 7 Torsion [N]-CA--C-[O] |==|  0.88418
USER: genes 8 Torsion [N]-CA--CB-[CG2] |==|  0.76393
USER: genes 9 Torsion [N]-C--CA-[N] |==|  0.34404
USER: genes 10 Torsion [C]-CA--N-[C] |==|  0.75921
USER: genes 11 Torsion [N]-C--CA-[N] |==|  0.21903
USER: genes 12 Torsion [C]-CA--CB-[CG] |==|  0.83522
USER: genes 13 Torsion [CA]-CB--CG-[CD2] |==|  0.73962
USER: genes 14 Torsion [C]-CA--CB-[CG2] |==|  0.11936
ROOT
ATOM      1  C   VAL D4842     -60.209  28.232  34.938  1.00 57.35 LIG 0.24  C 
ATOM      2 O    VAL D4842     -60.826  28.451  35.988  1.00 61.28 LIG-0.27  OA
ATOM      3  N   VAL D4843     -58.883  28.236  34.872  1.00 52.36 LIG-0.35  N 
ATOM      4 H    VAL D4843     -58.446  27.923  34.201  1.00 52.36 LIG 0.16  HD
ENDROOT
BRANCH 3 5
ATOM      5  CA  VAL D4843     -58.030  28.768  35.925  1.00 37.99 LIG 0.18  C 
BRANCH 5 6
ATOM      6  C   VAL D4843     -57.951  27.620  36.960  1.00 51.29 LIG 0.24  C 
ATOM      7  N   ASN D4844     -59.031  26.887  37.199  1.00 50.43 LIG-0.35  N 
ATOM      8 H    ASN D4844     -59.790  26.976  36.806  1.00 50.43 LIG 0.16  HD
ATOM      9 O    VAL D4843     -56.892  27.395  37.563  1.00 47.22 LIG-0.27  OA
BRANCH 7 10
ATOM     10  CA  ASN D4844     -58.960  25.826  38.215  1.00 46.88 LIG 0.17  C 
BRANCH 10 11
ATOM     11  CB  ASN D4844     -60.361  25.312  38.547  1.00 66.72 LIG 0.14  C 
BRANCH 11 12
ATOM     12  CG  ASN D4844     -61.240  25.172  37.320  1.00 62.42 LIG 0.22  C 
ATOM     13 OD1  ASN D4844     -61.138  24.202  36.567  1.00 56.11 LIG-0.27  OA
ATOM     14  ND2 ASN D4844     -62.114  26.151  37.115  1.00 67.26 LIG-0.37  N 
ATOM     15 21HD ASN D4844     -62.639  26.123  36.434  1.00 67.26 LIG 0.16  HD
ATOM     16 22HD ASN D4844     -62.155  26.813  37.663  1.00 67.26 LIG 0.16  HD
ENDBRANCH 11 12
ENDBRANCH 10 11
BRANCH 10 17
ATOM     17  C   ASN D4844     -58.019  24.654  37.889  1.00 52.57 LIG 0.22  C 
ATOM     18 O    ASN D4844     -57.966  24.166  36.748  1.00 48.91 LIG-0.29  OA
ENDBRANCH 10 17
ENDBRANCH 7 10
ENDBRANCH 5 6
BRANCH 5 19
ATOM     19  CB  VAL D4843     -58.721  30.044  36.500  1.00 37.59 LIG 0.01  C 
ATOM     20  CG1 VAL D4843     -58.398  30.262  37.951  1.00 42.19 LIG 0.01  C 
ATOM     21  CG2 VAL D4843     -58.376  31.279  35.664  1.00 33.91 LIG 0.01  C 
ENDBRANCH 5 19
ENDBRANCH 3 5
BRANCH 1 22
ATOM     22  CA  VAL D4842     -60.927  27.880  33.621  1.00 42.26 LIG 0.18  C 
BRANCH 22 23
ATOM     23  N   VAL D4842     -61.860  26.751  33.675  1.00 51.43 LIG-0.34  N 
ATOM     24 H    VAL D4842     -62.675  26.978  33.830  1.00 51.43 LIG 0.16  HD
ATOM     25  C   LEU D4841     -61.471  25.490  33.497  1.00 54.30 LIG 0.26  C 
ATOM     26 O    LEU D4841     -62.263  24.558  33.373  1.00 66.57 LIG-0.27  OA
BRANCH 25 27
ATOM     27  CA  LEU D4841     -59.971  25.247  33.412  1.00 50.85 LIG 0.40  C 
ATOM     28  N   LEU D4841     -59.368  25.250  34.748  1.00 66.18 LIG 0.61  N 
BRANCH 27 29
ATOM     29  CB  LEU D4841     -59.686  23.914  32.709  1.00 58.40 LIG 0.06  C 
BRANCH 29 30
ATOM     30  CG  LEU D4841     -60.274  22.651  33.351  1.00 54.26 LIG-0.02  C 
ATOM     31  CD2 LEU D4841     -59.276  21.956  34.309  1.00 54.78 LIG 0.01  C 
ATOM     32  CD1 LEU D4841     -60.806  21.674  32.294  1.00 32.44 LIG 0.01  C 
ENDBRANCH 29 30
ENDBRANCH 27 29
ENDBRANCH 25 27
ENDBRANCH 22 23
BRANCH 22 33
ATOM     33  CB  VAL D4842     -61.584  29.141  33.003  1.00 48.47 LIG 0.01  C 
ATOM     34  CG2 VAL D4842     -60.667  30.329  33.082  1.00 42.42 LIG 0.01  C 
ATOM     35  CG1 VAL D4842     -62.883  29.441  33.732  1.00 34.87 LIG 0.01  C 
ENDBRANCH 22 33
ENDBRANCH 1 22
TORSDOF 13
ENDMDL
MODEL 161
USER: ADFR SOLUTION from run 143
USER: SCORE 8.927916 LL:  -2.925 LR:  -6.891 RR:   0.000 FEB:  -3.013
USER: RMSD 8.945821
USER: SEED 142
USER: STATUS no improvement in best in 18 clusters for 5 generations
USER: GENES 15
USER: genes 0 Translation |==|  0.35969 0.25712 0.24486
USER: genes 1 Rotation |==|  0.85234 0.50899 0.68042 0.80532
USER: genes 2 Torsion [C]-N--CA-[CB] |==|  0.80977
USER: genes 3 Torsion [N]-CA--C-[N] |==|  0.09472
USER: genes 4 Torsion [C]-N--CA-[CB] |==|  0.22501
USER: genes 5 Torsion [N]-CA--CB-[CG] |==|  0.74649
USER: genes 6 Torsion [CA]-CB--CG-[OD1] |==|  0.75552
USER: genes 7 Torsion [N]-CA--C-[O] |==|  0.81600
USER: genes 8 Torsion [N]-CA--CB-[CG2] |==|  0.20930
USER: genes 9 Torsion [N]-C--CA-[N] |==|  0.96351
USER: genes 10 Torsion [C]-CA--N-[C] |==|  0.76964
USER: genes 11 Torsion [N]-C--CA-[N] |==|  0.43778
USER: genes 12 Torsion [C]-CA--CB-[CG] |==|  0.38890
USER: genes 13 Torsion [CA]-CB--CG-[CD2] |==|  0.06944
USER: genes 14 Torsion [C]-CA--CB-[CG2] |==|  0.89661
ROOT
ATOM      1  C   VAL D4842     -59.986  23.559  35.253  1.00 57.35 LIG 0.24  C 
ATOM      2 O    VAL D4842     -60.893  24.386  35.409  1.00 61.28 LIG-0.27  OA
ATOM      3  N   VAL D4843     -59.272  23.480  34.137  1.00 52.36 LIG-0.35  N 
ATOM      4 H    VAL D4843     -58.540  23.033  34.080  1.00 52.36 LIG 0.16  HD
ENDROOT
BRANCH 3 5
ATOM      5  CA  VAL D4843     -59.650  24.140  32.896  1.00 37.99 LIG 0.18  C 
BRANCH 5 6
ATOM      6  C   VAL D4843     -59.911  25.607  33.315  1.00 51.29 LIG 0.24  C 
ATOM      7  N   ASN D4844     -59.181  26.144  34.284  1.00 50.43 LIG-0.35  N 
ATOM      8 H    ASN D4844     -58.540  25.751  34.701  1.00 50.43 LIG 0.16  HD
ATOM      9 O    VAL D4843     -60.797  26.268  32.755  1.00 47.22 LIG-0.27  OA
BRANCH 7 10
ATOM     10  CA  ASN D4844     -59.464  27.524  34.706  1.00 46.88 LIG 0.17  C 
BRANCH 10 11
ATOM     11  CB  ASN D4844     -60.652  27.554  35.667  1.00 66.72 LIG 0.14  C 
BRANCH 11 12
ATOM     12  CG  ASN D4844     -61.977  27.748  34.956  1.00 62.42 LIG 0.22  C 
ATOM     13 OD1  ASN D4844     -62.416  28.875  34.717  1.00 56.11 LIG-0.27  OA
ATOM     14  ND2 ASN D4844     -62.621  26.639  34.612  1.00 67.26 LIG-0.37  N 
ATOM     15 21HD ASN D4844     -63.378  26.690  34.205  1.00 67.26 LIG 0.16  HD
ATOM     16 22HD ASN D4844     -62.283  25.870  34.796  1.00 67.26 LIG 0.16  HD
ENDBRANCH 11 12
ENDBRANCH 10 11
BRANCH 10 17
ATOM     17  C   ASN D4844     -58.273  28.297  35.297  1.00 52.57 LIG 0.22  C 
ATOM     18 O    ASN D4844     -57.755  27.962  36.375  1.00 48.91 LIG-0.29  OA
ENDBRANCH 10 17
ENDBRANCH 7 10
ENDBRANCH 5 6
BRANCH 5 19
ATOM     19  CB  VAL D4843     -60.933  23.437  32.353  1.00 37.59 LIG 0.01  C 
ATOM     20  CG1 VAL D4843     -60.789  21.942  32.312  1.00 42.19 LIG 0.01  C 
ATOM     21  CG2 VAL D4843     -62.169  23.852  33.156  1.00 33.91 LIG 0.01  C 
ENDBRANCH 5 19
ENDBRANCH 3 5
BRANCH 1 22
ATOM     22  CA  VAL D4842     -59.569  22.580  36.367  1.00 42.26 LIG 0.18  C 
BRANCH 22 23
ATOM     23  N   VAL D4842     -58.660  21.499  35.971  1.00 51.43 LIG-0.34  N 
ATOM     24 H    VAL D4842     -57.832  21.661  36.137  1.00 51.43 LIG 0.16  HD
ATOM     25  C   LEU D4841     -59.090  20.372  35.407  1.00 54.30 LIG 0.26  C 
ATOM     26 O    LEU D4841     -58.363  19.398  35.227  1.00 66.57 LIG-0.27  OA
BRANCH 25 27
ATOM     27  CA  LEU D4841     -60.561  20.322  35.021  1.00 50.85 LIG 0.40  C 
ATOM     28  N   LEU D4841     -60.789  19.317  33.978  1.00 66.18 LIG 0.61  N 
BRANCH 27 29
ATOM     29  CB  LEU D4841     -61.424  20.011  36.249  1.00 58.40 LIG 0.06  C 
BRANCH 29 30
ATOM     30  CG  LEU D4841     -62.750  20.772  36.376  1.00 54.26 LIG-0.02  C 
ATOM     31  CD2 LEU D4841     -63.291  21.249  35.007  1.00 54.78 LIG 0.01  C 
ATOM     32  CD1 LEU D4841     -62.639  21.937  37.369  1.00 32.44 LIG 0.01  C 
ENDBRANCH 29 30
ENDBRANCH 27 29
ENDBRANCH 25 27
ENDBRANCH 22 23
BRANCH 22 33
ATOM     33  CB  VAL D4842     -59.042  23.351  37.604  1.00 48.47 LIG 0.01  C 
ATOM     34  CG2 VAL D4842     -58.251  24.563  37.196  1.00 42.42 LIG 0.01  C 
ATOM     35  CG1 VAL D4842     -58.175  22.426  38.443  1.00 34.87 LIG 0.01  C 
ENDBRANCH 22 33
ENDBRANCH 1 22
TORSDOF 13
ENDMDL
MODEL 162
USER: ADFR SOLUTION from run 7
USER: SCORE 8.650618 LL:  -3.158 LR:  -6.881 RR:   0.000 FEB:  -3.003
USER: RMSD 9.011042
USER: SEED 983965
USER: STATUS no improvement in best in 17 clusters for 5 generations
USER: GENES 15
USER: genes 0 Translation |==|  0.32807 0.36337 0.09815
USER: genes 1 Rotation |==|  0.69767 0.52281 0.04133 0.50565
USER: genes 2 Torsion [C]-N--CA-[CB] |==|  0.43415
USER: genes 3 Torsion [N]-CA--C-[N] |==|  0.93371
USER: genes 4 Torsion [C]-N--CA-[CB] |==|  0.19972
USER: genes 5 Torsion [N]-CA--CB-[CG] |==|  0.66626
USER: genes 6 Torsion [CA]-CB--CG-[OD1] |==|  0.93476
USER: genes 7 Torsion [N]-CA--C-[O] |==|  0.94198
USER: genes 8 Torsion [N]-CA--CB-[CG2] |==|  0.48786
USER: genes 9 Torsion [N]-C--CA-[N] |==|  0.05806
USER: genes 10 Torsion [C]-CA--N-[C] |==|  0.67919
USER: genes 11 Torsion [N]-C--CA-[N] |==|  0.43675
USER: genes 12 Torsion [C]-CA--CB-[CG] |==|  0.39230
USER: genes 13 Torsion [CA]-CB--CG-[CD2] |==|  0.91994
USER: genes 14 Torsion [C]-CA--CB-[CG2] |==|  0.56643
ROOT
ATOM      1  C   VAL D4842     -60.651  25.313  33.052  1.00 57.35 LIG 0.24  C 
ATOM      2 O    VAL D4842     -59.634  25.117  32.374  1.00 61.28 LIG-0.27  OA
ATOM      3  N   VAL D4843     -61.004  26.517  33.483  1.00 52.36 LIG-0.35  N 
ATOM      4 H    VAL D4843     -61.783  26.690  33.804  1.00 52.36 LIG 0.16  HD
ENDROOT
BRANCH 3 5
ATOM      5  CA  VAL D4843     -60.115  27.669  33.460  1.00 37.99 LIG 0.18  C 
BRANCH 5 6
ATOM      6  C   VAL D4843     -59.286  27.531  34.761  1.00 51.29 LIG 0.24  C 
ATOM      7  N   ASN D4844     -59.786  26.837  35.776  1.00 50.43 LIG-0.35  N 
ATOM      8 H    ASN D4844     -60.539  26.424  35.774  1.00 50.43 LIG 0.16  HD
ATOM      9 O    VAL D4843     -58.174  28.069  34.853  1.00 47.22 LIG-0.27  OA
BRANCH 7 10
ATOM     10  CA  ASN D4844     -59.012  26.747  37.023  1.00 46.88 LIG 0.17  C 
BRANCH 10 11
ATOM     11  CB  ASN D4844     -59.028  28.087  37.758  1.00 66.72 LIG 0.14  C 
BRANCH 11 12
ATOM     12  CG  ASN D4844     -57.639  28.664  37.955  1.00 62.42 LIG 0.22  C 
ATOM     13 OD1  ASN D4844     -56.640  27.942  37.955  1.00 56.11 LIG-0.27  OA
ATOM     14  ND2 ASN D4844     -57.574  29.979  38.125  1.00 67.26 LIG-0.37  N 
ATOM     15 21HD ASN D4844     -56.811  30.360  38.241  1.00 67.26 LIG 0.16  HD
ATOM     16 22HD ASN D4844     -58.293  30.450  38.119  1.00 67.26 LIG 0.16  HD
ENDBRANCH 11 12
ENDBRANCH 10 11
BRANCH 10 17
ATOM     17  C   ASN D4844     -59.413  25.606  37.975  1.00 52.57 LIG 0.22  C 
ATOM     18 O    ASN D4844     -60.531  25.071  37.907  1.00 48.91 LIG-0.29  OA
ENDBRANCH 10 17
ENDBRANCH 7 10
ENDBRANCH 5 6
BRANCH 5 19
ATOM     19  CB  VAL D4843     -60.999  28.954  33.449  1.00 37.59 LIG 0.01  C 
ATOM     20  CG1 VAL D4843     -62.043  28.937  34.530  1.00 42.19 LIG 0.01  C 
ATOM     21  CG2 VAL D4843     -60.136  30.216  33.532  1.00 33.91 LIG 0.01  C 
ENDBRANCH 5 19
ENDBRANCH 3 5
BRANCH 1 22
ATOM     22  CA  VAL D4842     -61.629  24.177  33.411  1.00 42.26 LIG 0.18  C 
BRANCH 22 23
ATOM     23  N   VAL D4842     -62.999  24.583  33.737  1.00 51.43 LIG-0.34  N 
ATOM     24 H    VAL D4842     -63.423  24.942  33.080  1.00 51.43 LIG 0.16  HD
ATOM     25  C   LEU D4841     -63.532  24.406  34.944  1.00 54.30 LIG 0.26  C 
ATOM     26 O    LEU D4841     -64.724  24.586  35.180  1.00 66.57 LIG-0.27  OA
BRANCH 25 27
ATOM     27  CA  LEU D4841     -62.591  23.922  36.039  1.00 50.85 LIG 0.40  C 
ATOM     28  N   LEU D4841     -63.113  24.273  37.363  1.00 66.18 LIG 0.61  N 
BRANCH 27 29
ATOM     29  CB  LEU D4841     -62.390  22.405  35.937  1.00 58.40 LIG 0.06  C 
BRANCH 29 30
ATOM     30  CG  LEU D4841     -60.979  21.872  36.215  1.00 54.26 LIG-0.02  C 
ATOM     31  CD2 LEU D4841     -59.879  22.901  35.861  1.00 54.78 LIG 0.01  C 
ATOM     32  CD1 LEU D4841     -60.734  20.529  35.513  1.00 32.44 LIG 0.01  C 
ENDBRANCH 29 30
ENDBRANCH 27 29
ENDBRANCH 25 27
ENDBRANCH 22 23
BRANCH 22 33
ATOM     33  CB  VAL D4842     -61.598  23.067  32.330  1.00 48.47 LIG 0.01  C 
ATOM     34  CG2 VAL D4842     -62.879  22.279  32.320  1.00 42.42 LIG 0.01  C 
ATOM     35  CG1 VAL D4842     -60.423  22.140  32.592  1.00 34.87 LIG 0.01  C 
ENDBRANCH 22 33
ENDBRANCH 1 22
TORSDOF 13
ENDMDL
MODEL 163
USER: ADFR SOLUTION from run 187
USER: SCORE 8.644250 LL:  -2.938 LR:  -6.882 RR:   0.000 FEB:  -3.005
USER: RMSD 7.626695
USER: SEED 186
USER: STATUS no improvement in best in 20 clusters for 5 generations
USER: GENES 15
USER: genes 0 Translation |==|  0.40801 0.54704 0.26475
USER: genes 1 Rotation |==|  0.25671 0.27430 0.82840 0.67895
USER: genes 2 Torsion [C]-N--CA-[CB] |==|  0.53538
USER: genes 3 Torsion [N]-CA--C-[N] |==|  0.84430
USER: genes 4 Torsion [C]-N--CA-[CB] |==|  0.19714
USER: genes 5 Torsion [N]-CA--CB-[CG] |==|  0.70901
USER: genes 6 Torsion [CA]-CB--CG-[OD1] |==|  0.77805
USER: genes 7 Torsion [N]-CA--C-[O] |==|  0.15962
USER: genes 8 Torsion [N]-CA--CB-[CG2] |==|  0.44686
USER: genes 9 Torsion [N]-C--CA-[N] |==|  0.96111
USER: genes 10 Torsion [C]-CA--N-[C] |==|  0.72898
USER: genes 11 Torsion [N]-C--CA-[N] |==|  0.44256
USER: genes 12 Torsion [C]-CA--CB-[CG] |==|  0.43267
USER: genes 13 Torsion [CA]-CB--CG-[CD2] |==|  0.64605
USER: genes 14 Torsion [C]-CA--CB-[CG2] |==|  0.92998
ROOT
ATOM      1  C   VAL D4842     -58.972  28.343  35.551  1.00 57.35 LIG 0.24  C 
ATOM      2 O    VAL D4842     -57.788  28.340  35.192  1.00 61.28 LIG-0.27  OA
ATOM      3  N   VAL D4843     -59.342  28.609  36.797  1.00 52.36 LIG-0.35  N 
ATOM      4 H    VAL D4843     -60.155  28.780  37.019  1.00 52.36 LIG 0.16  HD
ENDROOT
BRANCH 3 5
ATOM      5  CA  VAL D4843     -58.414  28.641  37.919  1.00 37.99 LIG 0.18  C 
BRANCH 5 6
ATOM      6  C   VAL D4843     -57.589  27.340  37.761  1.00 51.29 LIG 0.24  C 
ATOM      7  N   ASN D4844     -58.222  26.175  37.707  1.00 50.43 LIG-0.35  N 
ATOM      8 H    ASN D4844     -59.075  26.070  37.728  1.00 50.43 LIG 0.16  HD
ATOM      9 O    VAL D4843     -56.353  27.389  37.695  1.00 47.22 LIG-0.27  OA
BRANCH 7 10
ATOM     10  CA  ASN D4844     -57.429  24.941  37.600  1.00 46.88 LIG 0.17  C 
BRANCH 10 11
ATOM     11  CB  ASN D4844     -56.704  24.659  38.916  1.00 66.72 LIG 0.14  C 
BRANCH 11 12
ATOM     12  CG  ASN D4844     -55.223  24.975  38.848  1.00 62.42 LIG 0.22  C 
ATOM     13 OD1  ASN D4844     -54.424  24.192  38.330  1.00 56.11 LIG-0.27  OA
ATOM     14  ND2 ASN D4844     -54.850  26.135  39.376  1.00 67.26 LIG-0.37  N 
ATOM     15 21HD ASN D4844     -54.021  26.366  39.365  1.00 67.26 LIG 0.16  HD
ATOM     16 22HD ASN D4844     -55.437  26.655  39.730  1.00 67.26 LIG 0.16  HD
ENDBRANCH 11 12
ENDBRANCH 10 11
BRANCH 10 17
ATOM     17  C   ASN D4844     -58.198  23.694  37.131  1.00 52.57 LIG 0.22  C 
ATOM     18 O    ASN D4844     -58.803  23.678  36.047  1.00 48.91 LIG-0.29  OA
ENDBRANCH 10 17
ENDBRANCH 7 10
ENDBRANCH 5 6
BRANCH 5 19
ATOM     19  CB  VAL D4843     -59.255  28.660  39.233  1.00 37.59 LIG 0.01  C 
ATOM     20  CG1 VAL D4843     -60.505  27.834  39.122  1.00 42.19 LIG 0.01  C 
ATOM     21  CG2 VAL D4843     -58.408  28.224  40.433  1.00 33.91 LIG 0.01  C 
ENDBRANCH 5 19
ENDBRANCH 3 5
BRANCH 1 22
ATOM     22  CA  VAL D4842     -60.130  28.090  34.566  1.00 42.26 LIG 0.18  C 
BRANCH 22 23
ATOM     23  N   VAL D4842     -61.448  27.857  35.164  1.00 51.43 LIG-0.34  N 
ATOM     24 H    VAL D4842     -61.868  28.578  35.375  1.00 51.43 LIG 0.16  HD
ATOM     25  C   LEU D4841     -61.943  26.636  35.356  1.00 54.30 LIG 0.26  C 
ATOM     26 O    LEU D4841     -63.106  26.434  35.698  1.00 66.57 LIG-0.27  OA
BRANCH 25 27
ATOM     27  CA  LEU D4841     -61.000  25.471  35.093  1.00 50.85 LIG 0.40  C 
ATOM     28  N   LEU D4841     -61.463  24.263  35.784  1.00 66.18 LIG 0.61  N 
BRANCH 27 29
ATOM     29  CB  LEU D4841     -60.887  25.206  33.587  1.00 58.40 LIG 0.06  C 
BRANCH 29 30
ATOM     30  CG  LEU D4841     -59.614  24.504  33.100  1.00 54.26 LIG-0.02  C 
ATOM     31  CD2 LEU D4841     -58.915  25.276  31.955  1.00 54.78 LIG 0.01  C 
ATOM     32  CD1 LEU D4841     -59.888  23.047  32.705  1.00 32.44 LIG 0.01  C 
ENDBRANCH 29 30
ENDBRANCH 27 29
ENDBRANCH 25 27
ENDBRANCH 22 23
BRANCH 22 33
ATOM     33  CB  VAL D4842     -60.176  29.196  33.481  1.00 48.47 LIG 0.01  C 
ATOM     34  CG2 VAL D4842     -59.553  30.472  33.975  1.00 42.42 LIG 0.01  C 
ATOM     35  CG1 VAL D4842     -61.620  29.447  33.079  1.00 34.87 LIG 0.01  C 
ENDBRANCH 22 33
ENDBRANCH 1 22
TORSDOF 13
ENDMDL
MODEL 164
USER: ADFR SOLUTION from run 199
USER: SCORE 8.123291 LL:  -2.597 LR:  -6.883 RR:   0.000 FEB:  -3.005
USER: RMSD 8.148534
USER: SEED 198
USER: STATUS no improvement in best in 15 clusters for 5 generations
USER: GENES 15
USER: genes 0 Translation |==|  0.35782 0.45932 0.28551
USER: genes 1 Rotation |==|  0.90546 0.21576 0.53576 0.55940
USER: genes 2 Torsion [C]-N--CA-[CB] |==|  0.85431
USER: genes 3 Torsion [N]-CA--C-[N] |==|  0.05963
USER: genes 4 Torsion [C]-N--CA-[CB] |==|  0.83124
USER: genes 5 Torsion [N]-CA--CB-[CG] |==|  0.68249
USER: genes 6 Torsion [CA]-CB--CG-[OD1] |==|  0.11356
USER: genes 7 Torsion [N]-CA--C-[O] |==|  0.14715
USER: genes 8 Torsion [N]-CA--CB-[CG2] |==|  0.83662
USER: genes 9 Torsion [N]-C--CA-[N] |==|  0.38889
USER: genes 10 Torsion [C]-CA--N-[C] |==|  0.75708
USER: genes 11 Torsion [N]-C--CA-[N] |==|  0.39086
USER: genes 12 Torsion [C]-CA--CB-[CG] |==|  0.14795
USER: genes 13 Torsion [CA]-CB--CG-[CD2] |==|  0.60807
USER: genes 14 Torsion [C]-CA--CB-[CG2] |==|  0.20648
ROOT
ATOM      1  C   VAL D4842     -60.026  26.896  35.863  1.00 57.35 LIG 0.24  C 
ATOM      2 O    VAL D4842     -60.359  27.310  36.980  1.00 61.28 LIG-0.27  OA
ATOM      3  N   VAL D4843     -58.877  27.230  35.288  1.00 52.36 LIG-0.35  N 
ATOM      4 H    VAL D4843     -58.561  26.822  34.600  1.00 52.36 LIG 0.16  HD
ENDROOT
BRANCH 3 5
ATOM      5  CA  VAL D4843     -58.032  28.317  35.759  1.00 37.99 LIG 0.18  C 
BRANCH 5 6
ATOM      6  C   VAL D4843     -57.524  27.828  37.137  1.00 51.29 LIG 0.24  C 
ATOM      7  N   ASN D4844     -57.532  26.528  37.407  1.00 50.43 LIG-0.35  N 
ATOM      8 H    ASN D4844     -57.779  25.909  36.864  1.00 50.43 LIG 0.16  HD
ATOM      9 O    VAL D4843     -57.122  28.643  37.980  1.00 47.22 LIG-0.27  OA
BRANCH 7 10
ATOM     10  CA  ASN D4844     -57.088  26.075  38.733  1.00 46.88 LIG 0.17  C 
BRANCH 10 11
ATOM     11  CB  ASN D4844     -55.634  26.479  38.975  1.00 66.72 LIG 0.14  C 
BRANCH 11 12
ATOM     12  CG  ASN D4844     -54.704  25.286  39.080  1.00 62.42 LIG 0.22  C 
ATOM     13 OD1  ASN D4844     -54.821  24.314  38.330  1.00 56.11 LIG-0.27  OA
ATOM     14  ND2 ASN D4844     -53.768  25.358  40.020  1.00 67.26 LIG-0.37  N 
ATOM     15 21HD ASN D4844     -53.213  24.709  40.124  1.00 67.26 LIG 0.16  HD
ATOM     16 22HD ASN D4844     -53.718  26.053  40.524  1.00 67.26 LIG 0.16  HD
ENDBRANCH 11 12
ENDBRANCH 10 11
BRANCH 10 17
ATOM     17  C   ASN D4844     -57.971  26.509  39.916  1.00 52.57 LIG 0.22  C 
ATOM     18 O    ASN D4844     -59.194  26.291  39.923  1.00 48.91 LIG-0.29  OA
ENDBRANCH 10 17
ENDBRANCH 7 10
ENDBRANCH 5 6
BRANCH 5 19
ATOM     19  CB  VAL D4843     -58.918  29.597  35.870  1.00 37.59 LIG 0.01  C 
ATOM     20  CG1 VAL D4843     -58.165  30.764  36.442  1.00 42.19 LIG 0.01  C 
ATOM     21  CG2 VAL D4843     -59.544  29.950  34.518  1.00 33.91 LIG 0.01  C 
ENDBRANCH 5 19
ENDBRANCH 3 5
BRANCH 1 22
ATOM     22  CA  VAL D4842     -60.895  25.908  35.060  1.00 42.26 LIG 0.18  C 
BRANCH 22 23
ATOM     23  N   VAL D4842     -61.575  24.867  35.836  1.00 51.43 LIG-0.34  N 
ATOM     24 H    VAL D4842     -62.372  25.078  36.081  1.00 51.43 LIG 0.16  HD
ATOM     25  C   LEU D4841     -61.002  23.701  36.128  1.00 54.30 LIG 0.26  C 
ATOM     26 O    LEU D4841     -61.618  22.762  36.629  1.00 66.57 LIG-0.27  OA
BRANCH 25 27
ATOM     27  CA  LEU D4841     -59.529  23.559  35.775  1.00 50.85 LIG 0.40  C 
ATOM     28  N   LEU D4841     -58.813  22.825  36.822  1.00 66.18 LIG 0.61  N 
BRANCH 27 29
ATOM     29  CB  LEU D4841     -59.371  22.843  34.428  1.00 58.40 LIG 0.06  C 
BRANCH 29 30
ATOM     30  CG  LEU D4841     -60.144  23.425  33.238  1.00 54.26 LIG-0.02  C 
ATOM     31  CD2 LEU D4841     -60.729  22.326  32.319  1.00 54.78 LIG 0.01  C 
ATOM     32  CD1 LEU D4841     -59.290  24.422  32.443  1.00 32.44 LIG 0.01  C 
ENDBRANCH 29 30
ENDBRANCH 27 29
ENDBRANCH 25 27
ENDBRANCH 22 23
BRANCH 22 33
ATOM     33  CB  VAL D4842     -61.877  26.671  34.135  1.00 48.47 LIG 0.01  C 
ATOM     34  CG2 VAL D4842     -61.164  27.259  32.949  1.00 42.42 LIG 0.01  C 
ATOM     35  CG1 VAL D4842     -62.562  27.773  34.926  1.00 34.87 LIG 0.01  C 
ENDBRANCH 22 33
ENDBRANCH 1 22
TORSDOF 13
ENDMDL
MODEL 165
USER: ADFR SOLUTION from run 49
USER: SCORE 8.895556 LL:  -2.678 LR:  -6.865 RR:   0.000 FEB:  -2.987
USER: RMSD 8.438354
USER: SEED 48
USER: STATUS no improvement in best in 40 clusters for 5 generations
USER: GENES 15
USER: genes 0 Translation |==|  0.41329 0.25969 0.31981
USER: genes 1 Rotation |==|  0.81060 0.35325 0.25318 0.76659
USER: genes 2 Torsion [C]-N--CA-[CB] |==|  0.49771
USER: genes 3 Torsion [N]-CA--C-[N] |==|  0.45808
USER: genes 4 Torsion [C]-N--CA-[CB] |==|  0.80592
USER: genes 5 Torsion [N]-CA--CB-[CG] |==|  0.93201
USER: genes 6 Torsion [CA]-CB--CG-[OD1] |==|  0.86881
USER: genes 7 Torsion [N]-CA--C-[O] |==|  0.17612
USER: genes 8 Torsion [N]-CA--CB-[CG2] |==|  0.87680
USER: genes 9 Torsion [N]-C--CA-[N] |==|  0.35000
USER: genes 10 Torsion [C]-CA--N-[C] |==|  0.77833
USER: genes 11 Torsion [N]-C--CA-[N] |==|  0.35600
USER: genes 12 Torsion [C]-CA--CB-[CG] |==|  0.40375
USER: genes 13 Torsion [CA]-CB--CG-[CD2] |==|  0.19501
USER: genes 14 Torsion [C]-CA--CB-[CG2] |==|  0.19811
ROOT
ATOM      1  C   VAL D4842     -58.861  23.602  36.377  1.00 57.35 LIG 0.24  C 
ATOM      2 O    VAL D4842     -57.789  24.150  36.662  1.00 61.28 LIG-0.27  OA
ATOM      3  N   VAL D4843     -59.488  23.809  35.226  1.00 52.36 LIG-0.35  N 
ATOM      4 H    VAL D4843     -60.133  23.314  34.948  1.00 52.36 LIG 0.16  HD
ENDROOT
BRANCH 3 5
ATOM      5  CA  VAL D4843     -59.150  24.892  34.313  1.00 37.99 LIG 0.18  C 
BRANCH 5 6
ATOM      6  C   VAL D4843     -59.406  26.174  35.142  1.00 51.29 LIG 0.24  C 
ATOM      7  N   ASN D4844     -58.915  27.331  34.715  1.00 50.43 LIG-0.35  N 
ATOM      8 H    ASN D4844     -58.473  27.445  33.987  1.00 50.43 LIG 0.16  HD
ATOM      9 O    VAL D4843     -60.056  26.117  36.196  1.00 47.22 LIG-0.27  OA
BRANCH 7 10
ATOM     10  CA  ASN D4844     -59.126  28.536  35.530  1.00 46.88 LIG 0.17  C 
BRANCH 10 11
ATOM     11  CB  ASN D4844     -60.597  28.950  35.499  1.00 66.72 LIG 0.14  C 
BRANCH 11 12
ATOM     12  CG  ASN D4844     -61.319  28.454  34.261  1.00 62.42 LIG 0.22  C 
ATOM     13 OD1  ASN D4844     -60.829  28.587  33.137  1.00 56.11 LIG-0.27  OA
ATOM     14  ND2 ASN D4844     -62.496  27.874  34.466  1.00 67.26 LIG-0.37  N 
ATOM     15 21HD ASN D4844     -62.949  27.574  33.799  1.00 67.26 LIG 0.16  HD
ATOM     16 22HD ASN D4844     -62.805  27.800  35.265  1.00 67.26 LIG 0.16  HD
ENDBRANCH 11 12
ENDBRANCH 10 11
BRANCH 10 17
ATOM     17  C   ASN D4844     -58.619  28.458  36.980  1.00 52.57 LIG 0.22  C 
ATOM     18 O    ASN D4844     -57.412  28.315  37.236  1.00 48.91 LIG-0.29  OA
ENDBRANCH 10 17
ENDBRANCH 7 10
ENDBRANCH 5 6
BRANCH 5 19
ATOM     19  CB  VAL D4843     -60.093  24.783  33.075  1.00 37.59 LIG 0.01  C 
ATOM     20  CG1 VAL D4843     -59.671  25.693  31.956  1.00 42.19 LIG 0.01  C 
ATOM     21  CG2 VAL D4843     -60.206  23.333  32.596  1.00 33.91 LIG 0.01  C 
ENDBRANCH 5 19
ENDBRANCH 3 5
BRANCH 1 22
ATOM     22  CA  VAL D4842     -59.538  22.585  37.316  1.00 42.26 LIG 0.18  C 
BRANCH 22 23
ATOM     23  N   VAL D4842     -58.699  21.477  37.783  1.00 51.43 LIG-0.34  N 
ATOM     24 H    VAL D4842     -58.392  21.584  38.580  1.00 51.43 LIG 0.16  HD
ATOM     25  C   LEU D4841     -58.443  20.406  37.035  1.00 54.30 LIG 0.26  C 
ATOM     26 O    LEU D4841     -57.884  19.403  37.474  1.00 66.57 LIG-0.27  OA
BRANCH 25 27
ATOM     27  CA  LEU D4841     -58.915  20.458  35.589  1.00 50.85 LIG 0.40  C 
ATOM     28  N   LEU D4841     -57.817  20.130  34.673  1.00 66.18 LIG 0.61  N 
BRANCH 27 29
ATOM     29  CB  LEU D4841     -60.086  19.491  35.375  1.00 58.40 LIG 0.06  C 
BRANCH 29 30
ATOM     30  CG  LEU D4841     -61.169  19.923  34.380  1.00 54.26 LIG-0.02  C 
ATOM     31  CD2 LEU D4841     -60.669  19.902  32.916  1.00 54.78 LIG 0.01  C 
ATOM     32  CD1 LEU D4841     -61.762  21.290  34.748  1.00 32.44 LIG 0.01  C 
ENDBRANCH 29 30
ENDBRANCH 27 29
ENDBRANCH 25 27
ENDBRANCH 22 23
BRANCH 22 33
ATOM     33  CB  VAL D4842     -60.242  23.310  38.491  1.00 48.47 LIG 0.01  C 
ATOM     34  CG2 VAL D4842     -61.470  24.041  38.025  1.00 42.42 LIG 0.01  C 
ATOM     35  CG1 VAL D4842     -59.271  24.286  39.135  1.00 34.87 LIG 0.01  C 
ENDBRANCH 22 33
ENDBRANCH 1 22
TORSDOF 13
ENDMDL
MODEL 166
USER: ADFR SOLUTION from run 39
USER: SCORE 9.445184 LL:  -3.297 LR:  -6.873 RR:   0.000 FEB:  -2.995
USER: RMSD 6.238776
USER: SEED 38
USER: STATUS no improvement in best in 32 clusters for 5 generations
USER: GENES 15
USER: genes 0 Translation |==|  0.36625 0.48649 0.26030
USER: genes 1 Rotation |==|  0.70150 0.68560 0.63485 0.89593
USER: genes 2 Torsion [C]-N--CA-[CB] |==|  0.51116
USER: genes 3 Torsion [N]-CA--C-[N] |==|  0.35979
USER: genes 4 Torsion [C]-N--CA-[CB] |==|  0.33184
USER: genes 5 Torsion [N]-CA--CB-[CG] |==|  0.89308
USER: genes 6 Torsion [CA]-CB--CG-[OD1] |==|  0.76336
USER: genes 7 Torsion [N]-CA--C-[O] |==|  0.97136
USER: genes 8 Torsion [N]-CA--CB-[CG2] |==|  0.72968
USER: genes 9 Torsion [N]-C--CA-[N] |==|  0.91590
USER: genes 10 Torsion [C]-CA--N-[C] |==|  0.79187
USER: genes 11 Torsion [N]-C--CA-[N] |==|  0.40241
USER: genes 12 Torsion [C]-CA--CB-[CG] |==|  0.35918
USER: genes 13 Torsion [CA]-CB--CG-[CD2] |==|  0.68022
USER: genes 14 Torsion [C]-CA--CB-[CG2] |==|  0.33068
ROOT
ATOM      1  C   VAL D4842     -59.849  27.344  35.484  1.00 57.35 LIG 0.24  C 
ATOM      2 O    VAL D4842     -60.960  27.870  35.344  1.00 61.28 LIG-0.27  OA
ATOM      3  N   VAL D4843     -59.365  26.451  34.630  1.00 52.36 LIG-0.35  N 
ATOM      4 H    VAL D4843     -58.540  26.209  34.622  1.00 52.36 LIG 0.16  HD
ENDROOT
BRANCH 3 5
ATOM      5  CA  VAL D4843     -60.176  25.789  33.619  1.00 37.99 LIG 0.18  C 
BRANCH 5 6
ATOM      6  C   VAL D4843     -61.316  25.123  34.429  1.00 51.29 LIG 0.24  C 
ATOM      7  N   ASN D4844     -62.575  25.317  34.056  1.00 50.43 LIG-0.35  N 
ATOM      8 H    ASN D4844     -62.827  25.773  33.372  1.00 50.43 LIG 0.16  HD
ATOM      9 O    VAL D4843     -61.053  24.424  35.418  1.00 47.22 LIG-0.27  OA
BRANCH 7 10
ATOM     10  CA  ASN D4844     -63.653  24.717  34.856  1.00 46.88 LIG 0.17  C 
BRANCH 10 11
ATOM     11  CB  ASN D4844     -64.572  25.804  35.412  1.00 66.72 LIG 0.14  C 
BRANCH 11 12
ATOM     12  CG  ASN D4844     -63.815  27.043  35.850  1.00 62.42 LIG 0.22  C 
ATOM     13 OD1  ASN D4844     -63.315  27.124  36.974  1.00 56.11 LIG-0.27  OA
ATOM     14  ND2 ASN D4844     -63.728  28.020  34.955  1.00 67.26 LIG-0.37  N 
ATOM     15 21HD ASN D4844     -63.310  28.746  35.150  1.00 67.26 LIG 0.16  HD
ATOM     16 22HD ASN D4844     -64.091  27.927  34.180  1.00 67.26 LIG 0.16  HD
ENDBRANCH 11 12
ENDBRANCH 10 11
BRANCH 10 17
ATOM     17  C   ASN D4844     -64.476  23.624  34.152  1.00 52.57 LIG 0.22  C 
ATOM     18 O    ASN D4844     -64.362  23.414  32.933  1.00 48.91 LIG-0.29  OA
ENDBRANCH 10 17
ENDBRANCH 7 10
ENDBRANCH 5 6
BRANCH 5 19
ATOM     19  CB  VAL D4843     -59.273  24.746  32.891  1.00 37.59 LIG 0.01  C 
ATOM     20  CG1 VAL D4843     -59.982  23.442  32.658  1.00 42.19 LIG 0.01  C 
ATOM     21  CG2 VAL D4843     -58.720  25.317  31.582  1.00 33.91 LIG 0.01  C 
ENDBRANCH 5 19
ENDBRANCH 3 5
BRANCH 1 22
ATOM     22  CA  VAL D4842     -58.902  27.722  36.640  1.00 42.26 LIG 0.18  C 
BRANCH 22 23
ATOM     23  N   VAL D4842     -57.975  26.677  37.085  1.00 51.43 LIG-0.34  N 
ATOM     24 H    VAL D4842     -57.163  26.799  36.830  1.00 51.43 LIG 0.16  HD
ATOM     25  C   LEU D4841     -58.366  25.636  37.818  1.00 54.30 LIG 0.26  C 
ATOM     26 O    LEU D4841     -57.575  24.849  38.334  1.00 66.57 LIG-0.27  OA
BRANCH 25 27
ATOM     27  CA  LEU D4841     -59.864  25.476  38.029  1.00 50.85 LIG 0.40  C 
ATOM     28  N   LEU D4841     -60.235  24.059  38.061  1.00 66.18 LIG 0.61  N 
BRANCH 27 29
ATOM     29  CB  LEU D4841     -60.295  26.163  39.331  1.00 58.40 LIG 0.06  C 
BRANCH 29 30
ATOM     30  CG  LEU D4841     -61.480  27.133  39.244  1.00 54.26 LIG-0.02  C 
ATOM     31  CD2 LEU D4841     -61.074  28.592  39.561  1.00 54.78 LIG 0.01  C 
ATOM     32  CD1 LEU D4841     -62.651  26.675  40.124  1.00 32.44 LIG 0.01  C 
ENDBRANCH 29 30
ENDBRANCH 27 29
ENDBRANCH 25 27
ENDBRANCH 22 23
BRANCH 22 33
ATOM     33  CB  VAL D4842     -58.167  29.051  36.333  1.00 48.47 LIG 0.01  C 
ATOM     34  CG2 VAL D4842     -58.488  30.102  37.358  1.00 42.42 LIG 0.01  C 
ATOM     35  CG1 VAL D4842     -58.564  29.538  34.949  1.00 34.87 LIG 0.01  C 
ENDBRANCH 22 33
ENDBRANCH 1 22
TORSDOF 13
ENDMDL
MODEL 167
USER: ADFR SOLUTION from run 71
USER: SCORE 8.939389 LL:  -2.721 LR:  -6.867 RR:   0.000 FEB:  -2.989
USER: RMSD 7.225580
USER: SEED 70
USER: STATUS no improvement in best in 33 clusters for 5 generations
USER: GENES 15
USER: genes 0 Translation |==|  0.36374 0.39484 0.23179
USER: genes 1 Rotation |==|  0.93891 0.41930 0.71957 0.55130
USER: genes 2 Torsion [C]-N--CA-[CB] |==|  0.88648
USER: genes 3 Torsion [N]-CA--C-[N] |==|  0.31263
USER: genes 4 Torsion [C]-N--CA-[CB] |==|  0.17570
USER: genes 5 Torsion [N]-CA--CB-[CG] |==|  0.14144
USER: genes 6 Torsion [CA]-CB--CG-[OD1] |==|  0.79575
USER: genes 7 Torsion [N]-CA--C-[O] |==|  0.95316
USER: genes 8 Torsion [N]-CA--CB-[CG2] |==|  0.84622
USER: genes 9 Torsion [N]-C--CA-[N] |==|  0.40669
USER: genes 10 Torsion [C]-CA--N-[C] |==|  0.78553
USER: genes 11 Torsion [N]-C--CA-[N] |==|  0.23974
USER: genes 12 Torsion [C]-CA--CB-[CG] |==|  0.50093
USER: genes 13 Torsion [CA]-CB--CG-[CD2] |==|  0.63834
USER: genes 14 Torsion [C]-CA--CB-[CG2] |==|  0.17300
ROOT
ATOM      1  C   VAL D4842     -59.902  25.832  35.057  1.00 57.35 LIG 0.24  C 
ATOM      2 O    VAL D4842     -61.004  25.972  35.601  1.00 61.28 LIG-0.27  OA
ATOM      3  N   VAL D4843     -59.140  26.860  34.707  1.00 52.36 LIG-0.35  N 
ATOM      4 H    VAL D4843     -58.312  26.778  34.488  1.00 52.36 LIG 0.16  HD
ENDROOT
BRANCH 3 5
ATOM      5  CA  VAL D4843     -59.621  28.233  34.656  1.00 37.99 LIG 0.18  C 
BRANCH 5 6
ATOM      6  C   VAL D4843     -59.617  28.686  36.137  1.00 51.29 LIG 0.24  C 
ATOM      7  N   ASN D4844     -58.761  29.623  36.526  1.00 50.43 LIG-0.35  N 
ATOM      8 H    ASN D4844     -58.206  30.034  36.014  1.00 50.43 LIG 0.16  HD
ATOM      9 O    VAL D4843     -60.400  28.172  36.949  1.00 47.22 LIG-0.27  OA
BRANCH 7 10
ATOM     10  CA  ASN D4844     -58.735  30.017  37.942  1.00 46.88 LIG 0.17  C 
BRANCH 10 11
ATOM     11  CB  ASN D4844     -58.314  28.835  38.816  1.00 66.72 LIG 0.14  C 
BRANCH 11 12
ATOM     12  CG  ASN D4844     -57.040  28.172  38.330  1.00 62.42 LIG 0.22  C 
ATOM     13 OD1  ASN D4844     -57.031  27.465  37.320  1.00 56.11 LIG-0.27  OA
ATOM     14  ND2 ASN D4844     -55.951  28.401  39.055  1.00 67.26 LIG-0.37  N 
ATOM     15 21HD ASN D4844     -55.200  28.050  38.825  1.00 67.26 LIG 0.16  HD
ATOM     16 22HD ASN D4844     -55.997  28.900  39.754  1.00 67.26 LIG 0.16  HD
ENDBRANCH 11 12
ENDBRANCH 10 11
BRANCH 10 17
ATOM     17  C   ASN D4844     -57.889  31.259  38.273  1.00 52.57 LIG 0.22  C 
ATOM     18 O    ASN D4844     -57.041  31.693  37.477  1.00 48.91 LIG-0.29  OA
ENDBRANCH 10 17
ENDBRANCH 7 10
ENDBRANCH 5 6
BRANCH 5 19
ATOM     19  CB  VAL D4843     -61.054  28.215  34.041  1.00 37.59 LIG 0.01  C 
ATOM     20  CG1 VAL D4843     -61.655  29.589  33.954  1.00 42.19 LIG 0.01  C 
ATOM     21  CG2 VAL D4843     -61.057  27.522  32.675  1.00 33.91 LIG 0.01  C 
ENDBRANCH 5 19
ENDBRANCH 3 5
BRANCH 1 22
ATOM     22  CA  VAL D4842     -59.290  24.444  34.786  1.00 42.26 LIG 0.18  C 
BRANCH 22 23
ATOM     23  N   VAL D4842     -59.631  23.388  35.744  1.00 51.43 LIG-0.34  N 
ATOM     24 H    VAL D4842     -60.226  22.836  35.459  1.00 51.43 LIG 0.16  HD
ATOM     25  C   LEU D4841     -59.063  23.299  36.945  1.00 54.30 LIG 0.26  C 
ATOM     26 O    LEU D4841     -59.215  22.330  37.685  1.00 66.57 LIG-0.27  OA
BRANCH 25 27
ATOM     27  CA  LEU D4841     -58.164  24.456  37.360  1.00 50.85 LIG 0.40  C 
ATOM     28  N   LEU D4841     -58.950  25.527  37.980  1.00 66.18 LIG 0.61  N 
BRANCH 27 29
ATOM     29  CB  LEU D4841     -57.081  23.967  38.330  1.00 58.40 LIG 0.06  C 
BRANCH 29 30
ATOM     30  CG  LEU D4841     -56.093  25.018  38.852  1.00 54.26 LIG-0.02  C 
ATOM     31  CD2 LEU D4841     -54.620  24.567  38.705  1.00 54.78 LIG 0.01  C 
ATOM     32  CD1 LEU D4841     -56.411  25.424  40.297  1.00 32.44 LIG 0.01  C 
ENDBRANCH 29 30
ENDBRANCH 27 29
ENDBRANCH 25 27
ENDBRANCH 22 23
BRANCH 22 33
ATOM     33  CB  VAL D4842     -59.560  24.003  33.324  1.00 48.47 LIG 0.01  C 
ATOM     34  CG2 VAL D4842     -58.915  24.942  32.343  1.00 42.42 LIG 0.01  C 
ATOM     35  CG1 VAL D4842     -61.059  23.952  33.082  1.00 34.87 LIG 0.01  C 
ENDBRANCH 22 33
ENDBRANCH 1 22
TORSDOF 13
ENDMDL
MODEL 168
USER: ADFR SOLUTION from run 17
USER: SCORE 8.807569 LL:  -3.106 LR:  -6.871 RR:   0.000 FEB:  -2.993
USER: RMSD 7.445766
USER: SEED 16
USER: STATUS no improvement in best in 16 clusters for 5 generations
USER: GENES 15
USER: genes 0 Translation |==|  0.40812 0.28867 0.35000
USER: genes 1 Rotation |==|  0.43293 0.26458 0.47514 0.93527
USER: genes 2 Torsion [C]-N--CA-[CB] |==|  0.53212
USER: genes 3 Torsion [N]-CA--C-[N] |==|  0.90081
USER: genes 4 Torsion [C]-N--CA-[CB] |==|  0.84942
USER: genes 5 Torsion [N]-CA--CB-[CG] |==|  0.73351
USER: genes 6 Torsion [CA]-CB--CG-[OD1] |==|  0.75892
USER: genes 7 Torsion [N]-CA--C-[O] |==|  0.31667
USER: genes 8 Torsion [N]-CA--CB-[CG2] |==|  0.11998
USER: genes 9 Torsion [N]-C--CA-[N] |==|  0.93446
USER: genes 10 Torsion [C]-CA--N-[C] |==|  0.75811
USER: genes 11 Torsion [N]-C--CA-[N] |==|  0.40224
USER: genes 12 Torsion [C]-CA--CB-[CG] |==|  0.37966
USER: genes 13 Torsion [CA]-CB--CG-[CD2] |==|  0.70745
USER: genes 14 Torsion [C]-CA--CB-[CG2] |==|  0.35012
ROOT
ATOM      1  C   VAL D4842     -58.969  24.080  36.830  1.00 57.35 LIG 0.24  C 
ATOM      2 O    VAL D4842     -58.068  24.031  35.984  1.00 61.28 LIG-0.27  OA
ATOM      3  N   VAL D4843     -59.618  23.001  37.249  1.00 52.36 LIG-0.35  N 
ATOM      4 H    VAL D4843     -60.120  22.997  37.947  1.00 52.36 LIG 0.16  HD
ENDROOT
BRANCH 3 5
ATOM      5  CA  VAL D4843     -59.551  21.713  36.574  1.00 37.99 LIG 0.18  C 
BRANCH 5 6
ATOM      6  C   VAL D4843     -59.812  22.055  35.086  1.00 51.29 LIG 0.24  C 
ATOM      7  N   ASN D4844     -60.669  23.022  34.784  1.00 50.43 LIG-0.35  N 
ATOM      8 H    ASN D4844     -61.091  23.509  35.353  1.00 50.43 LIG 0.16  HD
ATOM      9 O    VAL D4843     -59.231  21.425  34.190  1.00 47.22 LIG-0.27  OA
BRANCH 7 10
ATOM     10  CA  ASN D4844     -60.944  23.311  33.369  1.00 46.88 LIG 0.17  C 
BRANCH 10 11
ATOM     11  CB  ASN D4844     -59.640  23.578  32.618  1.00 66.72 LIG 0.14  C 
BRANCH 11 12
ATOM     12  CG  ASN D4844     -59.321  25.056  32.505  1.00 62.42 LIG 0.22  C 
ATOM     13 OD1  ASN D4844     -59.767  25.739  31.581  1.00 56.11 LIG-0.27  OA
ATOM     14  ND2 ASN D4844     -58.540  25.558  33.455  1.00 67.26 LIG-0.37  N 
ATOM     15 21HD ASN D4844     -58.327  26.391  33.441  1.00 67.26 LIG 0.16  HD
ATOM     16 22HD ASN D4844     -58.247  25.049  34.084  1.00 67.26 LIG 0.16  HD
ENDBRANCH 11 12
ENDBRANCH 10 11
BRANCH 10 17
ATOM     17  C   ASN D4844     -61.788  22.261  32.626  1.00 52.57 LIG 0.22  C 
ATOM     18 O    ASN D4844     -62.926  22.527  32.207  1.00 48.91 LIG-0.29  OA
ENDBRANCH 10 17
ENDBRANCH 7 10
ENDBRANCH 5 6
BRANCH 5 19
ATOM     19  CB  VAL D4843     -60.660  20.798  37.180  1.00 37.59 LIG 0.01  C 
ATOM     20  CG1 VAL D4843     -60.229  20.157  38.469  1.00 42.19 LIG 0.01  C 
ATOM     21  CG2 VAL D4843     -61.972  21.568  37.356  1.00 33.91 LIG 0.01  C 
ENDBRANCH 5 19
ENDBRANCH 3 5
BRANCH 1 22
ATOM     22  CA  VAL D4842     -59.383  25.398  37.514  1.00 42.26 LIG 0.18  C 
BRANCH 22 23
ATOM     23  N   VAL D4842     -60.726  25.428  38.102  1.00 51.43 LIG-0.34  N 
ATOM     24 H    VAL D4842     -60.748  25.212  38.934  1.00 51.43 LIG 0.16  HD
ATOM     25  C   LEU D4841     -61.807  25.763  37.401  1.00 54.30 LIG 0.26  C 
ATOM     26 O    LEU D4841     -62.905  25.953  37.920  1.00 66.57 LIG-0.27  OA
BRANCH 25 27
ATOM     27  CA  LEU D4841     -61.619  25.942  35.901  1.00 50.85 LIG 0.40  C 
ATOM     28  N   LEU D4841     -62.806  25.486  35.172  1.00 66.18 LIG 0.61  N 
BRANCH 27 29
ATOM     29  CB  LEU D4841     -61.330  27.411  35.572  1.00 58.40 LIG 0.06  C 
BRANCH 29 30
ATOM     30  CG  LEU D4841     -60.217  27.688  34.554  1.00 54.26 LIG-0.02  C 
ATOM     31  CD2 LEU D4841     -58.923  28.213  35.220  1.00 54.78 LIG 0.01  C 
ATOM     32  CD1 LEU D4841     -60.693  28.629  33.439  1.00 32.44 LIG 0.01  C 
ENDBRANCH 29 30
ENDBRANCH 27 29
ENDBRANCH 25 27
ENDBRANCH 22 23
BRANCH 22 33
ATOM     33  CB  VAL D4842     -58.301  25.851  38.527  1.00 48.47 LIG 0.01  C 
ATOM     34  CG2 VAL D4842     -57.854  27.260  38.254  1.00 42.42 LIG 0.01  C 
ATOM     35  CG1 VAL D4842     -57.112  24.907  38.451  1.00 34.87 LIG 0.01  C 
ENDBRANCH 22 33
ENDBRANCH 1 22
TORSDOF 13
ENDMDL
MODEL 169
USER: ADFR SOLUTION from run 42
USER: SCORE 8.597317 LL:  -3.109 LR:  -6.874 RR:   0.000 FEB:  -2.997
USER: RMSD 9.737916
USER: SEED 41
USER: STATUS no improvement in best in 34 clusters for 5 generations
USER: GENES 15
USER: genes 0 Translation |==|  0.35177 0.23703 0.11689
USER: genes 1 Rotation |==|  0.37930 0.35737 0.96265 0.53231
USER: genes 2 Torsion [C]-N--CA-[CB] |==|  0.28193
USER: genes 3 Torsion [N]-CA--C-[N] |==|  0.29555
USER: genes 4 Torsion [C]-N--CA-[CB] |==|  0.81001
USER: genes 5 Torsion [N]-CA--CB-[CG] |==|  0.85996
USER: genes 6 Torsion [CA]-CB--CG-[OD1] |==|  0.23908
USER: genes 7 Torsion [N]-CA--C-[O] |==|  0.08005
USER: genes 8 Torsion [N]-CA--CB-[CG2] |==|  0.82497
USER: genes 9 Torsion [N]-C--CA-[N] |==|  0.31804
USER: genes 10 Torsion [C]-CA--N-[C] |==|  0.76458
USER: genes 11 Torsion [N]-C--CA-[N] |==|  0.41974
USER: genes 12 Torsion [C]-CA--CB-[CG] |==|  0.38436
USER: genes 13 Torsion [CA]-CB--CG-[CD2] |==|  0.09947
USER: genes 14 Torsion [C]-CA--CB-[CG2] |==|  0.50312
ROOT
ATOM      1  C   VAL D4842     -60.153  23.228  33.333  1.00 57.35 LIG 0.24  C 
ATOM      2 O    VAL D4842     -59.393  23.510  32.398  1.00 61.28 LIG-0.27  OA
ATOM      3  N   VAL D4843     -60.342  24.033  34.370  1.00 52.36 LIG-0.35  N 
ATOM      4 H    VAL D4843     -60.985  23.931  34.933  1.00 52.36 LIG 0.16  HD
ENDROOT
BRANCH 3 5
ATOM      5  CA  VAL D4843     -59.487  25.174  34.666  1.00 37.99 LIG 0.18  C 
BRANCH 5 6
ATOM      6  C   VAL D4843     -59.320  25.128  36.205  1.00 51.29 LIG 0.24  C 
ATOM      7  N   ASN D4844     -58.162  24.732  36.719  1.00 50.43 LIG-0.35  N 
ATOM      8 H    ASN D4844     -57.465  24.513  36.266  1.00 50.43 LIG 0.16  HD
ATOM      9 O    VAL D4843     -60.260  25.451  36.945  1.00 47.22 LIG-0.27  OA
BRANCH 7 10
ATOM     10  CA  ASN D4844     -58.025  24.651  38.181  1.00 46.88 LIG 0.17  C 
BRANCH 10 11
ATOM     11  CB  ASN D4844     -58.055  26.049  38.797  1.00 66.72 LIG 0.14  C 
BRANCH 11 12
ATOM     12  CG  ASN D4844     -57.091  27.007  38.125  1.00 62.42 LIG 0.22  C 
ATOM     13 OD1  ASN D4844     -57.415  27.641  37.119  1.00 56.11 LIG-0.27  OA
ATOM     14  ND2 ASN D4844     -55.892  27.115  38.686  1.00 67.26 LIG-0.37  N 
ATOM     15 21HD ASN D4844     -55.304  27.645  38.346  1.00 67.26 LIG 0.16  HD
ATOM     16 22HD ASN D4844     -55.702  26.655  39.388  1.00 67.26 LIG 0.16  HD
ENDBRANCH 11 12
ENDBRANCH 10 11
BRANCH 10 17
ATOM     17  C   ASN D4844     -59.027  23.726  38.893  1.00 52.57 LIG 0.22  C 
ATOM     18 O    ASN D4844     -59.510  22.735  38.322  1.00 48.91 LIG-0.29  OA
ENDBRANCH 10 17
ENDBRANCH 7 10
ENDBRANCH 5 6
BRANCH 5 19
ATOM     19  CB  VAL D4843     -60.225  26.461  34.184  1.00 37.59 LIG 0.01  C 
ATOM     20  CG1 VAL D4843     -59.522  27.717  34.616  1.00 42.19 LIG 0.01  C 
ATOM     21  CG2 VAL D4843     -60.435  26.438  32.667  1.00 33.91 LIG 0.01  C 
ENDBRANCH 5 19
ENDBRANCH 3 5
BRANCH 1 22
ATOM     22  CA  VAL D4842     -60.991  21.935  33.349  1.00 42.26 LIG 0.18  C 
BRANCH 22 23
ATOM     23  N   VAL D4842     -61.993  21.800  32.288  1.00 51.43 LIG-0.34  N 
ATOM     24 H    VAL D4842     -61.720  21.354  31.605  1.00 51.43 LIG 0.16  HD
ATOM     25  C   LEU D4841     -63.213  22.324  32.383  1.00 54.30 LIG 0.26  C 
ATOM     26 O    LEU D4841     -64.110  22.077  31.580  1.00 66.57 LIG-0.27  OA
BRANCH 25 27
ATOM     27  CA  LEU D4841     -63.472  23.233  33.576  1.00 50.85 LIG 0.40  C 
ATOM     28  N   LEU D4841     -64.491  24.236  33.252  1.00 66.18 LIG 0.61  N 
BRANCH 27 29
ATOM     29  CB  LEU D4841     -63.913  22.406  34.790  1.00 58.40 LIG 0.06  C 
BRANCH 29 30
ATOM     30  CG  LEU D4841     -63.322  22.800  36.149  1.00 54.26 LIG-0.02  C 
ATOM     31  CD2 LEU D4841     -63.132  24.329  36.290  1.00 54.78 LIG 0.01  C 
ATOM     32  CD1 LEU D4841     -62.017  22.046  36.437  1.00 32.44 LIG 0.01  C 
ENDBRANCH 29 30
ENDBRANCH 27 29
ENDBRANCH 25 27
ENDBRANCH 22 23
BRANCH 22 33
ATOM     33  CB  VAL D4842     -60.072  20.689  33.435  1.00 48.47 LIG 0.01  C 
ATOM     34  CG2 VAL D4842     -60.874  19.417  33.424  1.00 42.42 LIG 0.01  C 
ATOM     35  CG1 VAL D4842     -59.238  20.764  34.703  1.00 34.87 LIG 0.01  C 
ENDBRANCH 22 33
ENDBRANCH 1 22
TORSDOF 13
ENDMDL
MODEL 170
USER: ADFR SOLUTION from run 141
USER: SCORE 8.592669 LL:  -2.283 LR:  -6.871 RR:   0.000 FEB:  -2.994
USER: RMSD 8.014490
USER: SEED 140
USER: STATUS no improvement in best in 34 clusters for 5 generations
USER: GENES 15
USER: genes 0 Translation |==|  0.48411 0.47439 0.46875
USER: genes 1 Rotation |==|  0.47471 0.25414 0.93458 0.50748
USER: genes 2 Torsion [C]-N--CA-[CB] |==|  0.52799
USER: genes 3 Torsion [N]-CA--C-[N] |==|  0.40565
USER: genes 4 Torsion [C]-N--CA-[CB] |==|  0.42750
USER: genes 5 Torsion [N]-CA--CB-[CG] |==|  0.53710
USER: genes 6 Torsion [CA]-CB--CG-[OD1] |==|  0.04907
USER: genes 7 Torsion [N]-CA--C-[O] |==|  0.16693
USER: genes 8 Torsion [N]-CA--CB-[CG2] |==|  0.48105
USER: genes 9 Torsion [N]-C--CA-[N] |==|  0.44599
USER: genes 10 Torsion [C]-CA--N-[C] |==|  0.57639
USER: genes 11 Torsion [N]-C--CA-[N] |==|  0.29280
USER: genes 12 Torsion [C]-CA--CB-[CG] |==|  0.12136
USER: genes 13 Torsion [CA]-CB--CG-[CD2] |==|  0.65047
USER: genes 14 Torsion [C]-CA--CB-[CG2] |==|  0.21695
ROOT
ATOM      1  C   VAL D4842     -57.374  27.144  38.611  1.00 57.35 LIG 0.24  C 
ATOM      2 O    VAL D4842     -57.037  27.980  37.763  1.00 61.28 LIG-0.27  OA
ATOM      3  N   VAL D4843     -57.397  27.411  39.911  1.00 52.36 LIG-0.35  N 
ATOM      4 H    VAL D4843     -57.784  26.904  40.487  1.00 52.36 LIG 0.16  HD
ENDROOT
BRANCH 3 5
ATOM      5  CA  VAL D4843     -56.771  28.587  40.498  1.00 37.99 LIG 0.18  C 
BRANCH 5 6
ATOM      6  C   VAL D4843     -55.335  28.578  39.918  1.00 51.29 LIG 0.24  C 
ATOM      7  N   ASN D4844     -54.732  29.732  39.664  1.00 50.43 LIG-0.35  N 
ATOM      8 H    ASN D4844     -55.062  30.511  39.816  1.00 50.43 LIG 0.16  HD
ATOM      9 O    VAL D4843     -54.762  27.503  39.688  1.00 47.22 LIG-0.27  OA
BRANCH 7 10
ATOM     10  CA  ASN D4844     -53.386  29.715  39.073  1.00 46.88 LIG 0.17  C 
BRANCH 10 11
ATOM     11  CB  ASN D4844     -53.133  31.000  38.285  1.00 66.72 LIG 0.14  C 
BRANCH 11 12
ATOM     12  CG  ASN D4844     -51.910  30.911  37.394  1.00 62.42 LIG 0.22  C 
ATOM     13 OD1  ASN D4844     -51.415  29.823  37.093  1.00 56.11 LIG-0.27  OA
ATOM     14  ND2 ASN D4844     -51.415  32.067  36.967  1.00 67.26 LIG-0.37  N 
ATOM     15 21HD ASN D4844     -50.721  32.076  36.458  1.00 67.26 LIG 0.16  HD
ATOM     16 22HD ASN D4844     -51.788  32.807  37.199  1.00 67.26 LIG 0.16  HD
ENDBRANCH 11 12
ENDBRANCH 10 11
BRANCH 10 17
ATOM     17  C   ASN D4844     -52.231  29.448  40.053  1.00 52.57 LIG 0.22  C 
ATOM     18 O    ASN D4844     -52.171  28.396  40.710  1.00 48.91 LIG-0.29  OA
ENDBRANCH 10 17
ENDBRANCH 7 10
ENDBRANCH 5 6
BRANCH 5 19
ATOM     19  CB  VAL D4843     -56.790  28.413  42.049  1.00 37.59 LIG 0.01  C 
ATOM     20  CG1 VAL D4843     -56.300  27.058  42.476  1.00 42.19 LIG 0.01  C 
ATOM     21  CG2 VAL D4843     -55.999  29.530  42.736  1.00 33.91 LIG 0.01  C 
ENDBRANCH 5 19
ENDBRANCH 3 5
BRANCH 1 22
ATOM     22  CA  VAL D4842     -57.849  25.730  38.226  1.00 42.26 LIG 0.18  C 
BRANCH 22 23
ATOM     23  N   VAL D4842     -58.256  25.541  36.831  1.00 51.43 LIG-0.34  N 
ATOM     24 H    VAL D4842     -57.868  26.074  36.279  1.00 51.43 LIG 0.16  HD
ATOM     25  C   LEU D4841     -59.148  24.624  36.462  1.00 54.30 LIG 0.26  C 
ATOM     26 O    LEU D4841     -59.370  24.345  35.286  1.00 66.57 LIG-0.27  OA
BRANCH 25 27
ATOM     27  CA  LEU D4841     -59.870  23.888  37.581  1.00 50.85 LIG 0.40  C 
ATOM     28  N   LEU D4841     -61.250  24.367  37.710  1.00 66.18 LIG 0.61  N 
BRANCH 27 29
ATOM     29  CB  LEU D4841     -59.860  22.377  37.319  1.00 58.40 LIG 0.06  C 
BRANCH 29 30
ATOM     30  CG  LEU D4841     -58.538  21.766  36.837  1.00 54.26 LIG-0.02  C 
ATOM     31  CD2 LEU D4841     -58.703  20.963  35.524  1.00 54.78 LIG 0.01  C 
ATOM     32  CD1 LEU D4841     -57.875  20.918  37.931  1.00 32.44 LIG 0.01  C 
ENDBRANCH 29 30
ENDBRANCH 27 29
ENDBRANCH 25 27
ENDBRANCH 22 23
BRANCH 22 33
ATOM     33  CB  VAL D4842     -56.815  24.665  38.673  1.00 48.47 LIG 0.01  C 
ATOM     34  CG2 VAL D4842     -56.922  24.385  40.147  1.00 42.42 LIG 0.01  C 
ATOM     35  CG1 VAL D4842     -55.415  25.151  38.339  1.00 34.87 LIG 0.01  C 
ENDBRANCH 22 33
ENDBRANCH 1 22
TORSDOF 13
ENDMDL
MODEL 171
USER: ADFR SOLUTION from run 121
USER: SCORE 8.680464 LL:  -2.790 LR:  -6.856 RR:   0.000 FEB:  -2.978
USER: RMSD 7.906096
USER: SEED 120
USER: STATUS no improvement in best in 13 clusters for 5 generations
USER: GENES 15
USER: genes 0 Translation |==|  0.39826 0.67993 0.20433
USER: genes 1 Rotation |==|  0.45809 0.01736 0.52551 0.62105
USER: genes 2 Torsion [C]-N--CA-[CB] |==|  0.18513
USER: genes 3 Torsion [N]-CA--C-[N] |==|  0.47855
USER: genes 4 Torsion [C]-N--CA-[CB] |==|  0.76229
USER: genes 5 Torsion [N]-CA--CB-[CG] |==|  0.20146
USER: genes 6 Torsion [CA]-CB--CG-[OD1] |==|  0.70852
USER: genes 7 Torsion [N]-CA--C-[O] |==|  0.09340
USER: genes 8 Torsion [N]-CA--CB-[CG2] |==|  0.56979
USER: genes 9 Torsion [N]-C--CA-[N] |==|  0.36847
USER: genes 10 Torsion [C]-CA--N-[C] |==|  0.79828
USER: genes 11 Torsion [N]-C--CA-[N] |==|  0.39175
USER: genes 12 Torsion [C]-CA--CB-[CG] |==|  0.38020
USER: genes 13 Torsion [CA]-CB--CG-[CD2] |==|  0.12093
USER: genes 14 Torsion [C]-CA--CB-[CG2] |==|  0.81735
ROOT
ATOM      1  C   VAL D4842     -59.177  30.536  34.645  1.00 57.35 LIG 0.24  C 
ATOM      2 O    VAL D4842     -58.391  30.862  35.543  1.00 61.28 LIG-0.27  OA
ATOM      3  N   VAL D4843     -59.512  29.274  34.410  1.00 52.36 LIG-0.35  N 
ATOM      4 H    VAL D4843     -60.175  29.050  33.910  1.00 52.36 LIG 0.16  HD
ENDROOT
BRANCH 3 5
ATOM      5  CA  VAL D4843     -58.797  28.137  34.971  1.00 37.99 LIG 0.18  C 
BRANCH 5 6
ATOM      6  C   VAL D4843     -59.448  26.909  34.288  1.00 51.29 LIG 0.24  C 
ATOM      7  N   ASN D4844     -58.915  25.708  34.470  1.00 50.43 LIG-0.35  N 
ATOM      8 H    ASN D4844     -58.234  25.535  34.964  1.00 50.43 LIG 0.16  HD
ATOM      9 O    VAL D4843     -60.452  27.051  33.575  1.00 47.22 LIG-0.27  OA
BRANCH 7 10
ATOM     10  CA  ASN D4844     -59.514  24.554  33.783  1.00 46.88 LIG 0.17  C 
BRANCH 10 11
ATOM     11  CB  ASN D4844     -60.671  23.987  34.606  1.00 66.72 LIG 0.14  C 
BRANCH 11 12
ATOM     12  CG  ASN D4844     -61.898  24.878  34.584  1.00 62.42 LIG 0.22  C 
ATOM     13 OD1  ASN D4844     -62.203  25.571  35.556  1.00 56.11 LIG-0.27  OA
ATOM     14  ND2 ASN D4844     -62.609  24.862  33.462  1.00 67.26 LIG-0.37  N 
ATOM     15 21HD ASN D4844     -63.315  25.350  33.394  1.00 67.26 LIG 0.16  HD
ATOM     16 22HD ASN D4844     -62.364  24.365  32.805  1.00 67.26 LIG 0.16  HD
ENDBRANCH 11 12
ENDBRANCH 10 11
BRANCH 10 17
ATOM     17  C   ASN D4844     -59.955  24.798  32.330  1.00 52.57 LIG 0.22  C 
ATOM     18 O    ASN D4844     -59.331  25.573  31.587  1.00 48.91 LIG-0.29  OA
ENDBRANCH 10 17
ENDBRANCH 7 10
ENDBRANCH 5 6
BRANCH 5 19
ATOM     19  CB  VAL D4843     -59.018  28.149  36.515  1.00 37.59 LIG 0.01  C 
ATOM     20  CG1 VAL D4843     -60.351  27.575  36.905  1.00 42.19 LIG 0.01  C 
ATOM     21  CG2 VAL D4843     -57.874  27.433  37.240  1.00 33.91 LIG 0.01  C 
ENDBRANCH 5 19
ENDBRANCH 3 5
BRANCH 1 22
ATOM     22  CA  VAL D4842     -59.879  31.576  33.751  1.00 42.26 LIG 0.18  C 
BRANCH 22 23
ATOM     23  N   VAL D4842     -60.453  32.737  34.437  1.00 51.43 LIG-0.34  N 
ATOM     24 H    VAL D4842     -60.015  33.467  34.313  1.00 51.43 LIG 0.16  HD
ATOM     25  C   LEU D4841     -61.553  32.658  35.182  1.00 54.30 LIG 0.26  C 
ATOM     26 O    LEU D4841     -62.134  33.649  35.621  1.00 66.57 LIG-0.27  OA
BRANCH 25 27
ATOM     27  CA  LEU D4841     -62.099  31.262  35.444  1.00 50.85 LIG 0.40  C 
ATOM     28  N   LEU D4841     -62.594  31.148  36.819  1.00 66.18 LIG 0.61  N 
BRANCH 27 29
ATOM     29  CB  LEU D4841     -63.222  30.935  34.452  1.00 58.40 LIG 0.06  C 
BRANCH 29 30
ATOM     30  CG  LEU D4841     -63.213  29.532  33.832  1.00 54.26 LIG-0.02  C 
ATOM     31  CD2 LEU D4841     -62.913  28.428  34.874  1.00 54.78 LIG 0.01  C 
ATOM     32  CD1 LEU D4841     -62.253  29.448  32.638  1.00 32.44 LIG 0.01  C 
ENDBRANCH 29 30
ENDBRANCH 27 29
ENDBRANCH 25 27
ENDBRANCH 22 23
BRANCH 22 33
ATOM     33  CB  VAL D4842     -58.960  31.997  32.576  1.00 48.47 LIG 0.01  C 
ATOM     34  CG2 VAL D4842     -57.744  32.731  33.071  1.00 42.42 LIG 0.01  C 
ATOM     35  CG1 VAL D4842     -59.741  32.878  31.615  1.00 34.87 LIG 0.01  C 
ENDBRANCH 22 33
ENDBRANCH 1 22
TORSDOF 13
ENDMDL
MODEL 172
USER: ADFR SOLUTION from run 3
USER: SCORE 9.554345 LL:  -3.336 LR:  -6.863 RR:   0.000 FEB:  -2.985
USER: RMSD 6.714568
USER: SEED 497714
USER: STATUS no improvement in best in 29 clusters for 5 generations
USER: GENES 15
USER: genes 0 Translation |==|  0.36550 0.46732 0.27699
USER: genes 1 Rotation |==|  0.71985 0.65734 0.64245 0.89575
USER: genes 2 Torsion [C]-N--CA-[CB] |==|  0.50647
USER: genes 3 Torsion [N]-CA--C-[N] |==|  0.38545
USER: genes 4 Torsion [C]-N--CA-[CB] |==|  0.82401
USER: genes 5 Torsion [N]-CA--CB-[CG] |==|  0.83376
USER: genes 6 Torsion [CA]-CB--CG-[OD1] |==|  0.98719
USER: genes 7 Torsion [N]-CA--C-[O] |==|  0.06353
USER: genes 8 Torsion [N]-CA--CB-[CG2] |==|  0.70086
USER: genes 9 Torsion [N]-C--CA-[N] |==|  0.96913
USER: genes 10 Torsion [C]-CA--N-[C] |==|  0.78538
USER: genes 11 Torsion [N]-C--CA-[N] |==|  0.40062
USER: genes 12 Torsion [C]-CA--CB-[CG] |==|  0.39902
USER: genes 13 Torsion [CA]-CB--CG-[CD2] |==|  0.16159
USER: genes 14 Torsion [C]-CA--CB-[CG2] |==|  0.88405
ROOT
ATOM      1  C   VAL D4842     -59.864  27.028  35.735  1.00 57.35 LIG 0.24  C 
ATOM      2 O    VAL D4842     -60.935  27.623  35.561  1.00 61.28 LIG-0.27  OA
ATOM      3  N   VAL D4843     -59.351  26.199  34.835  1.00 52.36 LIG-0.35  N 
ATOM      4 H    VAL D4843     -58.540  25.916  34.867  1.00 52.36 LIG 0.16  HD
ENDROOT
BRANCH 3 5
ATOM      5  CA  VAL D4843     -60.103  25.682  33.701  1.00 37.99 LIG 0.18  C 
BRANCH 5 6
ATOM      6  C   VAL D4843     -61.312  24.963  34.348  1.00 51.29 LIG 0.24  C 
ATOM      7  N   ASN D4844     -62.513  25.093  33.799  1.00 50.43 LIG-0.35  N 
ATOM      8 H    ASN D4844     -62.688  25.534  33.082  1.00 50.43 LIG 0.16  HD
ATOM      9 O    VAL D4843     -61.158  24.281  35.371  1.00 47.22 LIG-0.27  OA
BRANCH 7 10
ATOM     10  CA  ASN D4844     -63.663  24.443  34.444  1.00 46.88 LIG 0.17  C 
BRANCH 10 11
ATOM     11  CB  ASN D4844     -63.488  22.924  34.439  1.00 66.72 LIG 0.14  C 
BRANCH 11 12
ATOM     12  CG  ASN D4844     -63.369  22.353  33.039  1.00 62.42 LIG 0.22  C 
ATOM     13 OD1  ASN D4844     -63.498  23.067  32.043  1.00 56.11 LIG-0.27  OA
ATOM     14  ND2 ASN D4844     -63.119  21.051  32.960  1.00 67.26 LIG-0.37  N 
ATOM     15 21HD ASN D4844     -63.040  20.674  32.191  1.00 67.26 LIG 0.16  HD
ATOM     16 22HD ASN D4844     -63.035  20.585  33.679  1.00 67.26 LIG 0.16  HD
ENDBRANCH 11 12
ENDBRANCH 10 11
BRANCH 10 17
ATOM     17  C   ASN D4844     -64.003  24.941  35.859  1.00 52.57 LIG 0.22  C 
ATOM     18 O    ASN D4844     -63.653  26.066  36.250  1.00 48.91 LIG-0.29  OA
ENDBRANCH 10 17
ENDBRANCH 7 10
ENDBRANCH 5 6
BRANCH 5 19
ATOM     19  CB  VAL D4843     -59.174  24.702  32.919  1.00 37.59 LIG 0.01  C 
ATOM     20  CG1 VAL D4843     -59.813  23.359  32.705  1.00 42.19 LIG 0.01  C 
ATOM     21  CG2 VAL D4843     -58.720  25.317  31.591  1.00 33.91 LIG 0.01  C 
ENDBRANCH 5 19
ENDBRANCH 3 5
BRANCH 1 22
ATOM     22  CA  VAL D4842     -59.002  27.240  36.994  1.00 42.26 LIG 0.18  C 
BRANCH 22 23
ATOM     23  N   VAL D4842     -57.868  26.327  37.163  1.00 51.43 LIG-0.34  N 
ATOM     24 H    VAL D4842     -57.107  26.675  36.963  1.00 51.43 LIG 0.16  HD
ATOM     25  C   LEU D4841     -58.013  25.074  37.589  1.00 54.30 LIG 0.26  C 
ATOM     26 O    LEU D4841     -57.061  24.358  37.893  1.00 66.57 LIG-0.27  OA
BRANCH 25 27
ATOM     27  CA  LEU D4841     -59.440  24.562  37.726  1.00 50.85 LIG 0.40  C 
ATOM     28  N   LEU D4841     -59.519  23.144  37.363  1.00 66.18 LIG 0.61  N 
BRANCH 27 29
ATOM     29  CB  LEU D4841     -59.944  24.768  39.160  1.00 58.40 LIG 0.06  C 
BRANCH 29 30
ATOM     30  CG  LEU D4841     -61.422  25.144  39.328  1.00 54.26 LIG-0.02  C 
ATOM     31  CD2 LEU D4841     -62.373  24.091  38.710  1.00 54.78 LIG 0.01  C 
ATOM     32  CD1 LEU D4841     -61.713  26.548  38.782  1.00 32.44 LIG 0.01  C 
ENDBRANCH 29 30
ENDBRANCH 27 29
ENDBRANCH 25 27
ENDBRANCH 22 23
BRANCH 22 33
ATOM     33  CB  VAL D4842     -58.571  28.723  37.118  1.00 48.47 LIG 0.01  C 
ATOM     34  CG2 VAL D4842     -58.165  29.287  35.785  1.00 42.42 LIG 0.01  C 
ATOM     35  CG1 VAL D4842     -57.415  28.832  38.099  1.00 34.87 LIG 0.01  C 
ENDBRANCH 22 33
ENDBRANCH 1 22
TORSDOF 13
ENDMDL
MODEL 173
USER: ADFR SOLUTION from run 152
USER: SCORE 8.590455 LL:  -2.380 LR:  -6.856 RR:   0.000 FEB:  -2.978
USER: RMSD 8.432892
USER: SEED 151
USER: STATUS no improvement in best in 46 clusters for 5 generations
USER: GENES 15
USER: genes 0 Translation |==|  0.30969 0.43515 0.27945
USER: genes 1 Rotation |==|  0.16304 0.81104 0.32670 0.59837
USER: genes 2 Torsion [C]-N--CA-[CB] |==|  0.16048
USER: genes 3 Torsion [N]-CA--C-[N] |==|  0.65792
USER: genes 4 Torsion [C]-N--CA-[CB] |==|  0.80224
USER: genes 5 Torsion [N]-CA--CB-[CG] |==|  0.91618
USER: genes 6 Torsion [CA]-CB--CG-[OD1] |==|  0.74642
USER: genes 7 Torsion [N]-CA--C-[O] |==|  0.00601
USER: genes 8 Torsion [N]-CA--CB-[CG2] |==|  0.50271
USER: genes 9 Torsion [N]-C--CA-[N] |==|  0.46591
USER: genes 10 Torsion [C]-CA--N-[C] |==|  0.77780
USER: genes 11 Torsion [N]-C--CA-[N] |==|  0.38931
USER: genes 12 Torsion [C]-CA--CB-[CG] |==|  0.23640
USER: genes 13 Torsion [CA]-CB--CG-[CD2] |==|  0.67984
USER: genes 14 Torsion [C]-CA--CB-[CG2] |==|  0.76154
ROOT
ATOM      1  C   VAL D4842     -61.037  26.497  35.772  1.00 57.35 LIG 0.24  C 
ATOM      2 O    VAL D4842     -62.087  26.852  36.320  1.00 61.28 LIG-0.27  OA
ATOM      3  N   VAL D4843     -59.845  26.661  36.332  1.00 52.36 LIG-0.35  N 
ATOM      4 H    VAL D4843     -59.134  26.272  36.044  1.00 52.36 LIG 0.16  HD
ENDROOT
BRANCH 3 5
ATOM      5  CA  VAL D4843     -59.614  27.512  37.490  1.00 37.99 LIG 0.18  C 
BRANCH 5 6
ATOM      6  C   VAL D4843     -58.109  27.322  37.801  1.00 51.29 LIG 0.24  C 
ATOM      7  N   ASN D4844     -57.745  26.903  39.007  1.00 50.43 LIG-0.35  N 
ATOM      8 H    ASN D4844     -58.282  26.698  39.646  1.00 50.43 LIG 0.16  HD
ATOM      9 O    VAL D4843     -57.257  27.567  36.936  1.00 47.22 LIG-0.27  OA
BRANCH 7 10
ATOM     10  CA  ASN D4844     -56.312  26.767  39.308  1.00 46.88 LIG 0.17  C 
BRANCH 10 11
ATOM     11  CB  ASN D4844     -55.721  25.576  38.554  1.00 66.72 LIG 0.14  C 
BRANCH 11 12
ATOM     12  CG  ASN D4844     -56.731  24.470  38.320  1.00 62.42 LIG 0.22  C 
ATOM     13 OD1  ASN D4844     -56.866  23.546  39.125  1.00 56.11 LIG-0.27  OA
ATOM     14  ND2 ASN D4844     -57.449  24.562  37.206  1.00 67.26 LIG-0.37  N 
ATOM     15 21HD ASN D4844     -58.037  23.962  37.023  1.00 67.26 LIG 0.16  HD
ATOM     16 22HD ASN D4844     -57.325  25.222  36.668  1.00 67.26 LIG 0.16  HD
ENDBRANCH 11 12
ENDBRANCH 10 11
BRANCH 10 17
ATOM     17  C   ASN D4844     -55.460  28.027  39.080  1.00 52.57 LIG 0.22  C 
ATOM     18 O    ASN D4844     -55.972  29.094  38.705  1.00 48.91 LIG-0.29  OA
ENDBRANCH 10 17
ENDBRANCH 7 10
ENDBRANCH 5 6
BRANCH 5 19
ATOM     19  CB  VAL D4843     -60.532  27.006  38.646  1.00 37.59 LIG 0.01  C 
ATOM     20  CG1 VAL D4843     -60.310  25.552  38.954  1.00 42.19 LIG 0.01  C 
ATOM     21  CG2 VAL D4843     -60.364  27.870  39.899  1.00 33.91 LIG 0.01  C 
ENDBRANCH 5 19
ENDBRANCH 3 5
BRANCH 1 22
ATOM     22  CA  VAL D4842     -61.024  25.781  34.407  1.00 42.26 LIG 0.18  C 
BRANCH 22 23
ATOM     23  N   VAL D4842     -62.325  25.338  33.897  1.00 51.43 LIG-0.34  N 
ATOM     24 H    VAL D4842     -62.665  25.863  33.306  1.00 51.43 LIG 0.16  HD
ATOM     25  C   LEU D4841     -62.918  24.223  34.316  1.00 54.30 LIG 0.26  C 
ATOM     26 O    LEU D4841     -63.920  23.757  33.779  1.00 66.57 LIG-0.27  OA
BRANCH 25 27
ATOM     27  CA  LEU D4841     -62.268  23.508  35.492  1.00 50.85 LIG 0.40  C 
ATOM     28  N   LEU D4841     -63.286  22.995  36.414  1.00 66.18 LIG 0.61  N 
BRANCH 27 29
ATOM     29  CB  LEU D4841     -61.382  22.359  34.994  1.00 58.40 LIG 0.06  C 
BRANCH 29 30
ATOM     30  CG  LEU D4841     -59.947  22.716  34.588  1.00 54.26 LIG-0.02  C 
ATOM     31  CD2 LEU D4841     -59.685  22.488  33.080  1.00 54.78 LIG 0.01  C 
ATOM     32  CD1 LEU D4841     -58.915  21.978  35.452  1.00 32.44 LIG 0.01  C 
ENDBRANCH 29 30
ENDBRANCH 27 29
ENDBRANCH 25 27
ENDBRANCH 22 23
BRANCH 22 33
ATOM     33  CB  VAL D4842     -60.249  26.618  33.358  1.00 48.47 LIG 0.01  C 
ATOM     34  CG2 VAL D4842     -61.141  27.637  32.705  1.00 42.42 LIG 0.01  C 
ATOM     35  CG1 VAL D4842     -59.665  25.691  32.305  1.00 34.87 LIG 0.01  C 
ENDBRANCH 22 33
ENDBRANCH 1 22
TORSDOF 13
ENDMDL
MODEL 174
USER: ADFR SOLUTION from run 18
USER: SCORE 8.189634 LL:  -1.796 LR:  -6.846 RR:   0.000 FEB:  -2.969
USER: RMSD 8.831028
USER: SEED 17
USER: STATUS no improvement in best in 14 clusters for 5 generations
USER: GENES 15
USER: genes 0 Translation |==|  0.41921 0.52265 0.25685
USER: genes 1 Rotation |==|  0.75693 0.61472 0.08912 0.54476
USER: genes 2 Torsion [C]-N--CA-[CB] |==|  0.87374
USER: genes 3 Torsion [N]-CA--C-[N] |==|  0.37220
USER: genes 4 Torsion [C]-N--CA-[CB] |==|  0.81385
USER: genes 5 Torsion [N]-CA--CB-[CG] |==|  0.86937
USER: genes 6 Torsion [CA]-CB--CG-[OD1] |==|  0.93649
USER: genes 7 Torsion [N]-CA--C-[O] |==|  0.06809
USER: genes 8 Torsion [N]-CA--CB-[CG2] |==|  0.84988
USER: genes 9 Torsion [N]-C--CA-[N] |==|  0.39664
USER: genes 10 Torsion [C]-CA--N-[C] |==|  0.58521
USER: genes 11 Torsion [N]-C--CA-[N] |==|  0.18970
USER: genes 12 Torsion [C]-CA--CB-[CG] |==|  0.20233
USER: genes 13 Torsion [CA]-CB--CG-[CD2] |==|  0.04042
USER: genes 14 Torsion [C]-CA--CB-[CG2] |==|  0.65018
ROOT
ATOM      1  C   VAL D4842     -58.737  27.941  35.433  1.00 57.35 LIG 0.24  C 
ATOM      2 O    VAL D4842     -57.576  28.210  35.098  1.00 61.28 LIG-0.27  OA
ATOM      3  N   VAL D4843     -59.545  28.829  35.996  1.00 52.36 LIG-0.35  N 
ATOM      4 H    VAL D4843     -60.392  28.708  36.076  1.00 52.36 LIG 0.16  HD
ENDROOT
BRANCH 3 5
ATOM      5  CA  VAL D4843     -59.085  30.100  36.537  1.00 37.99 LIG 0.18  C 
BRANCH 5 6
ATOM      6  C   VAL D4843     -58.794  30.959  35.282  1.00 51.29 LIG 0.24  C 
ATOM      7  N   ASN D4844     -59.233  32.211  35.237  1.00 50.43 LIG-0.35  N 
ATOM      8 H    ASN D4844     -59.658  32.612  35.868  1.00 50.43 LIG 0.16  HD
ATOM      9 O    VAL D4843     -58.165  30.478  34.329  1.00 47.22 LIG-0.27  OA
BRANCH 7 10
ATOM     10  CA  ASN D4844     -58.990  33.006  34.025  1.00 46.88 LIG 0.17  C 
BRANCH 10 11
ATOM     11  CB  ASN D4844     -57.495  33.277  33.857  1.00 66.72 LIG 0.14  C 
BRANCH 11 12
ATOM     12  CG  ASN D4844     -56.839  33.755  35.138  1.00 62.42 LIG 0.22  C 
ATOM     13 OD1  ASN D4844     -57.497  34.286  36.035  1.00 56.11 LIG-0.27  OA
ATOM     14  ND2 ASN D4844     -55.527  33.566  35.226  1.00 67.26 LIG-0.37  N 
ATOM     15 21HD ASN D4844     -55.103  33.817  35.932  1.00 67.26 LIG 0.16  HD
ATOM     16 22HD ASN D4844     -55.102  33.192  34.579  1.00 67.26 LIG 0.16  HD
ENDBRANCH 11 12
ENDBRANCH 10 11
BRANCH 10 17
ATOM     17  C   ASN D4844     -59.583  32.437  32.725  1.00 52.57 LIG 0.22  C 
ATOM     18 O    ASN D4844     -60.560  31.671  32.741  1.00 48.91 LIG-0.29  OA
ENDBRANCH 10 17
ENDBRANCH 7 10
ENDBRANCH 5 6
BRANCH 5 19
ATOM     19  CB  VAL D4843     -57.803  29.824  37.382  1.00 37.59 LIG 0.01  C 
ATOM     20  CG1 VAL D4843     -57.251  31.074  38.007  1.00 42.19 LIG 0.01  C 
ATOM     21  CG2 VAL D4843     -58.063  28.746  38.438  1.00 33.91 LIG 0.01  C 
ENDBRANCH 5 19
ENDBRANCH 3 5
BRANCH 1 22
ATOM     22  CA  VAL D4842     -59.366  26.558  35.173  1.00 42.26 LIG 0.18  C 
BRANCH 22 23
ATOM     23  N   VAL D4842     -58.961  25.885  33.935  1.00 51.43 LIG-0.34  N 
ATOM     24 H    VAL D4842     -58.161  26.073  33.681  1.00 51.43 LIG 0.16  HD
ATOM     25  C   LEU D4841     -59.767  25.058  33.272  1.00 54.30 LIG 0.26  C 
ATOM     26 O    LEU D4841     -59.384  24.364  32.334  1.00 66.57 LIG-0.27  OA
BRANCH 25 27
ATOM     27  CA  LEU D4841     -61.207  24.976  33.758  1.00 50.85 LIG 0.40  C 
ATOM     28  N   LEU D4841     -61.915  26.233  33.497  1.00 66.18 LIG 0.61  N 
BRANCH 27 29
ATOM     29  CB  LEU D4841     -61.934  23.811  33.076  1.00 58.40 LIG 0.06  C 
BRANCH 29 30
ATOM     30  CG  LEU D4841     -61.555  22.396  33.530  1.00 54.26 LIG-0.02  C 
ATOM     31  CD2 LEU D4841     -60.756  22.395  34.855  1.00 54.78 LIG 0.01  C 
ATOM     32  CD1 LEU D4841     -60.811  21.629  32.429  1.00 32.44 LIG 0.01  C 
ENDBRANCH 29 30
ENDBRANCH 27 29
ENDBRANCH 25 27
ENDBRANCH 22 23
BRANCH 22 33
ATOM     33  CB  VAL D4842     -59.196  25.639  36.410  1.00 48.47 LIG 0.01  C 
ATOM     34  CG2 VAL D4842     -58.540  24.339  36.038  1.00 42.42 LIG 0.01  C 
ATOM     35  CG1 VAL D4842     -60.557  25.373  37.031  1.00 34.87 LIG 0.01  C 
ENDBRANCH 22 33
ENDBRANCH 1 22
TORSDOF 13
ENDMDL
MODEL 175
USER: ADFR SOLUTION from run 53
USER: SCORE 8.796017 LL:  -2.725 LR:  -6.854 RR:   0.000 FEB:  -2.977
USER: RMSD 8.332660
USER: SEED 52
USER: STATUS no improvement in best in 30 clusters for 5 generations
USER: GENES 15
USER: genes 0 Translation |==|  0.35168 0.43487 0.26527
USER: genes 1 Rotation |==|  0.23386 0.85401 0.26896 0.52150
USER: genes 2 Torsion [C]-N--CA-[CB] |==|  0.50000
USER: genes 3 Torsion [N]-CA--C-[N] |==|  0.38925
USER: genes 4 Torsion [C]-N--CA-[CB] |==|  0.23892
USER: genes 5 Torsion [N]-CA--CB-[CG] |==|  0.72382
USER: genes 6 Torsion [CA]-CB--CG-[OD1] |==|  0.82002
USER: genes 7 Torsion [N]-CA--C-[O] |==|  0.15887
USER: genes 8 Torsion [N]-CA--CB-[CG2] |==|  0.86217
USER: genes 9 Torsion [N]-C--CA-[N] |==|  0.43066
USER: genes 10 Torsion [C]-CA--N-[C] |==|  0.70224
USER: genes 11 Torsion [N]-C--CA-[N] |==|  0.42153
USER: genes 12 Torsion [C]-CA--CB-[CG] |==|  0.34882
USER: genes 13 Torsion [CA]-CB--CG-[CD2] |==|  0.37772
USER: genes 14 Torsion [C]-CA--CB-[CG2] |==|  0.73401
ROOT
ATOM      1  C   VAL D4842     -60.155  26.492  35.559  1.00 57.35 LIG 0.24  C 
ATOM      2 O    VAL D4842     -60.934  27.379  35.929  1.00 61.28 LIG-0.27  OA
ATOM      3  N   VAL D4843     -58.996  26.259  36.163  1.00 52.36 LIG-0.35  N 
ATOM      4 H    VAL D4843     -58.531  25.548  36.026  1.00 52.36 LIG 0.16  HD
ENDROOT
BRANCH 3 5
ATOM      5  CA  VAL D4843     -58.391  27.176  37.118  1.00 37.99 LIG 0.18  C 
BRANCH 5 6
ATOM      6  C   VAL D4843     -58.179  28.477  36.306  1.00 51.29 LIG 0.24  C 
ATOM      7  N   ASN D4844     -58.415  29.648  36.885  1.00 50.43 LIG-0.35  N 
ATOM      8 H    ASN D4844     -58.660  29.759  37.701  1.00 50.43 LIG 0.16  HD
ATOM      9 O    VAL D4843     -57.802  28.423  35.126  1.00 47.22 LIG-0.27  OA
BRANCH 7 10
ATOM     10  CA  ASN D4844     -58.253  30.877  36.094  1.00 46.88 LIG 0.17  C 
BRANCH 10 11
ATOM     11  CB  ASN D4844     -59.538  31.190  35.328  1.00 66.72 LIG 0.14  C 
BRANCH 11 12
ATOM     12  CG  ASN D4844     -59.478  30.750  33.878  1.00 62.42 LIG 0.22  C 
ATOM     13 OD1  ASN D4844     -58.684  31.262  33.087  1.00 56.11 LIG-0.27  OA
ATOM     14  ND2 ASN D4844     -60.326  29.791  33.525  1.00 67.26 LIG-0.37  N 
ATOM     15 21HD ASN D4844     -60.335  29.503  32.714  1.00 67.26 LIG 0.16  HD
ATOM     16 22HD ASN D4844     -60.866  29.459  34.106  1.00 67.26 LIG 0.16  HD
ENDBRANCH 11 12
ENDBRANCH 10 11
BRANCH 10 17
ATOM     17  C   ASN D4844     -57.777  32.113  36.875  1.00 52.57 LIG 0.22  C 
ATOM     18 O    ASN D4844     -56.714  32.102  37.517  1.00 48.91 LIG-0.29  OA
ENDBRANCH 10 17
ENDBRANCH 7 10
ENDBRANCH 5 6
BRANCH 5 19
ATOM     19  CB  VAL D4843     -57.047  26.546  37.598  1.00 37.59 LIG 0.01  C 
ATOM     20  CG1 VAL D4843     -56.395  27.354  38.684  1.00 42.19 LIG 0.01  C 
ATOM     21  CG2 VAL D4843     -57.246  25.091  38.033  1.00 33.91 LIG 0.01  C 
ENDBRANCH 5 19
ENDBRANCH 3 5
BRANCH 1 22
ATOM     22  CA  VAL D4842     -60.487  25.542  34.392  1.00 42.26 LIG 0.18  C 
BRANCH 22 23
ATOM     23  N   VAL D4842     -61.909  25.374  34.079  1.00 51.43 LIG-0.34  N 
ATOM     24 H    VAL D4842     -62.265  26.057  33.696  1.00 51.43 LIG 0.16  HD
ATOM     25  C   LEU D4841     -62.580  24.260  34.366  1.00 54.30 LIG 0.26  C 
ATOM     26 O    LEU D4841     -63.720  24.045  33.961  1.00 66.57 LIG-0.27  OA
BRANCH 25 27
ATOM     27  CA  LEU D4841     -61.848  23.222  35.204  1.00 50.85 LIG 0.40  C 
ATOM     28  N   LEU D4841     -62.797  22.427  35.990  1.00 66.18 LIG 0.61  N 
BRANCH 27 29
ATOM     29  CB  LEU D4841     -61.011  22.305  34.304  1.00 58.40 LIG 0.06  C 
BRANCH 29 30
ATOM     30  CG  LEU D4841     -59.519  22.179  34.638  1.00 54.26 LIG-0.02  C 
ATOM     31  CD2 LEU D4841     -59.021  20.715  34.575  1.00 54.78 LIG 0.01  C 
ATOM     32  CD1 LEU D4841     -59.186  22.824  35.990  1.00 32.44 LIG 0.01  C 
ENDBRANCH 29 30
ENDBRANCH 27 29
ENDBRANCH 25 27
ENDBRANCH 22 23
BRANCH 22 33
ATOM     33  CB  VAL D4842     -59.660  25.911  33.134  1.00 48.47 LIG 0.01  C 
ATOM     34  CG2 VAL D4842     -60.444  26.798  32.207  1.00 42.42 LIG 0.01  C 
ATOM     35  CG1 VAL D4842     -59.249  24.640  32.410  1.00 34.87 LIG 0.01  C 
ENDBRANCH 22 33
ENDBRANCH 1 22
TORSDOF 13
ENDMDL
MODEL 176
USER: ADFR SOLUTION from run 61
USER: SCORE 8.215024 LL:  -3.184 LR:  -6.854 RR:   0.000 FEB:  -2.976
USER: RMSD 8.530116
USER: SEED 60
USER: STATUS no improvement in best in 39 clusters for 5 generations
USER: GENES 15
USER: genes 0 Translation |==|  0.34356 0.37670 0.09392
USER: genes 1 Rotation |==|  0.58606 0.58899 0.01642 0.52867
USER: genes 2 Torsion [C]-N--CA-[CB] |==|  0.35319
USER: genes 3 Torsion [N]-CA--C-[N] |==|  0.85044
USER: genes 4 Torsion [C]-N--CA-[CB] |==|  0.45510
USER: genes 5 Torsion [N]-CA--CB-[CG] |==|  0.07309
USER: genes 6 Torsion [CA]-CB--CG-[OD1] |==|  0.23230
USER: genes 7 Torsion [N]-CA--C-[O] |==|  0.31628
USER: genes 8 Torsion [N]-CA--CB-[CG2] |==|  0.44469
USER: genes 9 Torsion [N]-C--CA-[N] |==|  0.17813
USER: genes 10 Torsion [C]-CA--N-[C] |==|  0.72896
USER: genes 11 Torsion [N]-C--CA-[N] |==|  0.44976
USER: genes 12 Torsion [C]-CA--CB-[CG] |==|  0.40924
USER: genes 13 Torsion [CA]-CB--CG-[CD2] |==|  0.79831
USER: genes 14 Torsion [C]-CA--CB-[CG2] |==|  0.65354
ROOT
ATOM      1  C   VAL D4842     -60.325  25.533  32.989  1.00 57.35 LIG 0.24  C 
ATOM      2 O    VAL D4842     -59.709  25.691  31.928  1.00 61.28 LIG-0.27  OA
ATOM      3  N   VAL D4843     -60.629  26.539  33.798  1.00 52.36 LIG-0.35  N 
ATOM      4 H    VAL D4843     -61.195  26.469  34.442  1.00 52.36 LIG 0.16  HD
ENDROOT
BRANCH 3 5
ATOM      5  CA  VAL D4843     -60.040  27.865  33.684  1.00 37.99 LIG 0.18  C 
BRANCH 5 6
ATOM      6  C   VAL D4843     -59.191  28.010  34.971  1.00 51.29 LIG 0.24  C 
ATOM      7  N   ASN D4844     -59.764  27.811  36.151  1.00 50.43 LIG-0.35  N 
ATOM      8 H    ASN D4844     -60.583  27.579  36.275  1.00 50.43 LIG 0.16  HD
ATOM      9 O    VAL D4843     -57.993  28.317  34.897  1.00 47.22 LIG-0.27  OA
BRANCH 7 10
ATOM     10  CA  ASN D4844     -58.962  27.993  37.370  1.00 46.88 LIG 0.17  C 
BRANCH 10 11
ATOM     11  CB  ASN D4844     -59.872  28.113  38.593  1.00 66.72 LIG 0.14  C 
BRANCH 11 12
ATOM     12  CG  ASN D4844     -61.205  27.416  38.402  1.00 62.42 LIG 0.22  C 
ATOM     13 OD1  ASN D4844     -61.329  26.206  38.604  1.00 56.11 LIG-0.27  OA
ATOM     14  ND2 ASN D4844     -62.214  28.185  38.011  1.00 67.26 LIG-0.37  N 
ATOM     15 21HD ASN D4844     -62.994  27.841  37.887  1.00 67.26 LIG 0.16  HD
ATOM     16 22HD ASN D4844     -62.089  29.026  37.880  1.00 67.26 LIG 0.16  HD
ENDBRANCH 11 12
ENDBRANCH 10 11
BRANCH 10 17
ATOM     17  C   ASN D4844     -57.870  26.938  37.613  1.00 52.57 LIG 0.22  C 
ATOM     18 O    ASN D4844     -56.665  27.236  37.580  1.00 48.91 LIG-0.29  OA
ENDBRANCH 10 17
ENDBRANCH 7 10
ENDBRANCH 5 6
BRANCH 5 19
ATOM     19  CB  VAL D4843     -61.205  28.901  33.617  1.00 37.59 LIG 0.01  C 
ATOM     20  CG1 VAL D4843     -62.378  28.495  34.464  1.00 42.19 LIG 0.01  C 
ATOM     21  CG2 VAL D4843     -60.714  30.304  33.987  1.00 33.91 LIG 0.01  C 
ENDBRANCH 5 19
ENDBRANCH 3 5
BRANCH 1 22
ATOM     22  CA  VAL D4842     -60.844  24.153  33.439  1.00 42.26 LIG 0.18  C 
BRANCH 22 23
ATOM     23  N   VAL D4842     -62.300  23.995  33.491  1.00 51.43 LIG-0.34  N 
ATOM     24 H    VAL D4842     -62.659  23.813  32.731  1.00 51.43 LIG 0.16  HD
ATOM     25  C   LEU D4841     -62.995  24.122  34.620  1.00 54.30 LIG 0.26  C 
ATOM     26 O    LEU D4841     -64.185  23.828  34.707  1.00 66.57 LIG-0.27  OA
BRANCH 25 27
ATOM     27  CA  LEU D4841     -62.230  24.621  35.837  1.00 50.85 LIG 0.40  C 
ATOM     28  N   LEU D4841     -63.154  25.118  36.862  1.00 66.18 LIG 0.61  N 
BRANCH 27 29
ATOM     29  CB  LEU D4841     -61.357  23.500  36.414  1.00 58.40 LIG 0.06  C 
BRANCH 29 30
ATOM     30  CG  LEU D4841     -60.031  23.917  37.061  1.00 54.26 LIG-0.02  C 
ATOM     31  CD2 LEU D4841     -58.977  24.356  36.016  1.00 54.78 LIG 0.01  C 
ATOM     32  CD1 LEU D4841     -59.481  22.819  37.981  1.00 32.44 LIG 0.01  C 
ENDBRANCH 29 30
ENDBRANCH 27 29
ENDBRANCH 25 27
ENDBRANCH 22 23
BRANCH 22 33
ATOM     33  CB  VAL D4842     -60.171  23.022  32.619  1.00 48.47 LIG 0.01  C 
ATOM     34  CG2 VAL D4842     -61.196  22.143  31.958  1.00 42.42 LIG 0.01  C 
ATOM     35  CG1 VAL D4842     -59.290  22.191  33.536  1.00 34.87 LIG 0.01  C 
ENDBRANCH 22 33
ENDBRANCH 1 22
TORSDOF 13
ENDMDL
MODEL 177
USER: ADFR SOLUTION from run 122
USER: SCORE 8.278161 LL:  -2.682 LR:  -6.835 RR:   0.000 FEB:  -2.957
USER: RMSD 9.775533
USER: SEED 121
USER: STATUS no improvement in best in 32 clusters for 5 generations
USER: GENES 15
USER: genes 0 Translation |==|  0.31324 0.41989 0.10682
USER: genes 1 Rotation |==|  0.68927 0.56083 0.06028 0.63086
USER: genes 2 Torsion [C]-N--CA-[CB] |==|  0.51120
USER: genes 3 Torsion [N]-CA--C-[N] |==|  0.80372
USER: genes 4 Torsion [C]-N--CA-[CB] |==|  0.81253
USER: genes 5 Torsion [N]-CA--CB-[CG] |==|  0.60876
USER: genes 6 Torsion [CA]-CB--CG-[OD1] |==|  0.86187
USER: genes 7 Torsion [N]-CA--C-[O] |==|  0.09500
USER: genes 8 Torsion [N]-CA--CB-[CG2] |==|  0.05750
USER: genes 9 Torsion [N]-C--CA-[N] |==|  0.42342
USER: genes 10 Torsion [C]-CA--N-[C] |==|  0.63148
USER: genes 11 Torsion [N]-C--CA-[N] |==|  0.42406
USER: genes 12 Torsion [C]-CA--CB-[CG] |==|  0.38971
USER: genes 13 Torsion [CA]-CB--CG-[CD2] |==|  0.95045
USER: genes 14 Torsion [C]-CA--CB-[CG2] |==|  0.14710
ROOT
ATOM      1  C   VAL D4842     -60.962  26.245  33.182  1.00 57.35 LIG 0.24  C 
ATOM      2 O    VAL D4842     -59.963  26.556  32.522  1.00 61.28 LIG-0.27  OA
ATOM      3  N   VAL D4843     -61.888  27.126  33.540  1.00 52.36 LIG-0.35  N 
ATOM      4 H    VAL D4843     -62.658  26.898  33.846  1.00 52.36 LIG 0.16  HD
ENDROOT
BRANCH 3 5
ATOM      5  CA  VAL D4843     -61.699  28.567  33.453  1.00 37.99 LIG 0.18  C 
BRANCH 5 6
ATOM      6  C   VAL D4843     -60.424  28.829  34.292  1.00 51.29 LIG 0.24  C 
ATOM      7  N   ASN D4844     -60.477  28.699  35.611  1.00 50.43 LIG-0.35  N 
ATOM      8 H    ASN D4844     -61.168  28.452  36.059  1.00 50.43 LIG 0.16  HD
ATOM      9 O    VAL D4843     -59.368  29.165  33.735  1.00 47.22 LIG-0.27  OA
BRANCH 7 10
ATOM     10  CA  ASN D4844     -59.274  28.992  36.404  1.00 46.88 LIG 0.17  C 
BRANCH 10 11
ATOM     11  CB  ASN D4844     -58.186  27.956  36.122  1.00 66.72 LIG 0.14  C 
BRANCH 11 12
ATOM     12  CG  ASN D4844     -57.418  27.559  37.367  1.00 62.42 LIG 0.22  C 
ATOM     13 OD1  ASN D4844     -56.948  28.407  38.128  1.00 56.11 LIG-0.27  OA
ATOM     14  ND2 ASN D4844     -57.288  26.254  37.580  1.00 67.26 LIG-0.37  N 
ATOM     15 21HD ASN D4844     -56.862  25.972  38.272  1.00 67.26 LIG 0.16  HD
ATOM     16 22HD ASN D4844     -57.630  25.692  37.026  1.00 67.26 LIG 0.16  HD
ENDBRANCH 11 12
ENDBRANCH 10 11
BRANCH 10 17
ATOM     17  C   ASN D4844     -58.712  30.417  36.261  1.00 52.57 LIG 0.22  C 
ATOM     18 O    ASN D4844     -59.461  31.392  36.090  1.00 48.91 LIG-0.29  OA
ENDBRANCH 10 17
ENDBRANCH 7 10
ENDBRANCH 5 6
BRANCH 5 19
ATOM     19  CB  VAL D4843     -62.963  29.251  34.059  1.00 37.59 LIG 0.01  C 
ATOM     20  CG1 VAL D4843     -63.867  29.817  33.001  1.00 42.19 LIG 0.01  C 
ATOM     21  CG2 VAL D4843     -63.721  28.290  34.979  1.00 33.91 LIG 0.01  C 
ENDBRANCH 5 19
ENDBRANCH 3 5
BRANCH 1 22
ATOM     22  CA  VAL D4842     -61.248  24.790  33.603  1.00 42.26 LIG 0.18  C 
BRANCH 22 23
ATOM     23  N   VAL D4842     -60.662  23.746  32.758  1.00 51.43 LIG-0.34  N 
ATOM     24 H    VAL D4842     -59.831  23.872  32.572  1.00 51.43 LIG 0.16  HD
ATOM     25  C   LEU D4841     -61.360  22.699  32.322  1.00 54.30 LIG 0.26  C 
ATOM     26 O    LEU D4841     -60.842  21.739  31.758  1.00 66.57 LIG-0.27  OA
BRANCH 25 27
ATOM     27  CA  LEU D4841     -62.858  22.722  32.592  1.00 50.85 LIG 0.40  C 
ATOM     28  N   LEU D4841     -63.579  21.942  31.580  1.00 66.18 LIG 0.61  N 
BRANCH 27 29
ATOM     29  CB  LEU D4841     -63.156  22.172  33.992  1.00 58.40 LIG 0.06  C 
BRANCH 29 30
ATOM     30  CG  LEU D4841     -64.248  22.884  34.799  1.00 54.26 LIG-0.02  C 
ATOM     31  CD2 LEU D4841     -64.562  24.297  34.249  1.00 54.78 LIG 0.01  C 
ATOM     32  CD1 LEU D4841     -63.906  22.930  36.294  1.00 32.44 LIG 0.01  C 
ENDBRANCH 29 30
ENDBRANCH 27 29
ENDBRANCH 25 27
ENDBRANCH 22 23
BRANCH 22 33
ATOM     33  CB  VAL D4842     -60.909  24.577  35.100  1.00 48.47 LIG 0.01  C 
ATOM     34  CG2 VAL D4842     -61.598  25.595  35.966  1.00 42.42 LIG 0.01  C 
ATOM     35  CG1 VAL D4842     -59.404  24.666  35.294  1.00 34.87 LIG 0.01  C 
ENDBRANCH 22 33
ENDBRANCH 1 22
TORSDOF 13
ENDMDL
MODEL 178
USER: ADFR SOLUTION from run 130
USER: SCORE 8.991161 LL:  -2.635 LR:  -6.837 RR:   0.000 FEB:  -2.959
USER: RMSD 8.741308
USER: SEED 129
USER: STATUS no improvement in best in 20 clusters for 5 generations
USER: GENES 15
USER: genes 0 Translation |==|  0.36230 0.30090 0.27453
USER: genes 1 Rotation |==|  0.86406 0.45341 0.77805 0.69487
USER: genes 2 Torsion [C]-N--CA-[CB] |==|  0.88713
USER: genes 3 Torsion [N]-CA--C-[N] |==|  0.34444
USER: genes 4 Torsion [C]-N--CA-[CB] |==|  0.81497
USER: genes 5 Torsion [N]-CA--CB-[CG] |==|  0.86878
USER: genes 6 Torsion [CA]-CB--CG-[OD1] |==|  0.30994
USER: genes 7 Torsion [N]-CA--C-[O] |==|  0.11399
USER: genes 8 Torsion [N]-CA--CB-[CG2] |==|  0.80996
USER: genes 9 Torsion [N]-C--CA-[N] |==|  0.88537
USER: genes 10 Torsion [C]-CA--N-[C] |==|  0.79981
USER: genes 11 Torsion [N]-C--CA-[N] |==|  0.43943
USER: genes 12 Torsion [C]-CA--CB-[CG] |==|  0.41011
USER: genes 13 Torsion [CA]-CB--CG-[CD2] |==|  0.04983
USER: genes 14 Torsion [C]-CA--CB-[CG2] |==|  0.90757
ROOT
ATOM      1  C   VAL D4842     -59.932  24.282  35.698  1.00 57.35 LIG 0.24  C 
ATOM      2 O    VAL D4842     -61.051  24.807  35.746  1.00 61.28 LIG-0.27  OA
ATOM      3  N   VAL D4843     -58.915  24.821  35.038  1.00 52.36 LIG-0.35  N 
ATOM      4 H    VAL D4843     -58.101  24.561  35.135  1.00 52.36 LIG 0.16  HD
ENDROOT
BRANCH 3 5
ATOM      5  CA  VAL D4843     -59.067  25.908  34.081  1.00 37.99 LIG 0.18  C 
BRANCH 5 6
ATOM      6  C   VAL D4843     -59.204  27.171  34.966  1.00 51.29 LIG 0.24  C 
ATOM      7  N   ASN D4844     -58.364  28.182  34.787  1.00 50.43 LIG-0.35  N 
ATOM      8 H    ASN D4844     -57.745  28.215  34.192  1.00 50.43 LIG 0.16  HD
ATOM      9 O    VAL D4843     -60.084  27.230  35.837  1.00 47.22 LIG-0.27  OA
BRANCH 7 10
ATOM     10  CA  ASN D4844     -58.473  29.360  35.660  1.00 46.88 LIG 0.17  C 
BRANCH 10 11
ATOM     11  CB  ASN D4844     -59.790  30.092  35.404  1.00 66.72 LIG 0.14  C 
BRANCH 11 12
ATOM     12  CG  ASN D4844     -60.065  30.305  33.928  1.00 62.42 LIG 0.22  C 
ATOM     13 OD1  ASN D4844     -60.984  29.715  33.356  1.00 56.11 LIG-0.27  OA
ATOM     14  ND2 ASN D4844     -59.261  31.157  33.303  1.00 67.26 LIG-0.37  N 
ATOM     15 21HD ASN D4844     -59.372  31.317  32.464  1.00 67.26 LIG 0.16  HD
ATOM     16 22HD ASN D4844     -58.630  31.550  33.736  1.00 67.26 LIG 0.16  HD
ENDBRANCH 11 12
ENDBRANCH 10 11
BRANCH 10 17
ATOM     17  C   ASN D4844     -58.289  29.094  37.164  1.00 52.57 LIG 0.22  C 
ATOM     18 O    ASN D4844     -57.415  28.316  37.580  1.00 48.91 LIG-0.29  OA
ENDBRANCH 10 17
ENDBRANCH 7 10
ENDBRANCH 5 6
BRANCH 5 19
ATOM     19  CB  VAL D4843     -60.350  25.626  33.239  1.00 37.59 LIG 0.01  C 
ATOM     20  CG1 VAL D4843     -60.789  26.828  32.450  1.00 42.19 LIG 0.01  C 
ATOM     21  CG2 VAL D4843     -60.155  24.409  32.331  1.00 33.91 LIG 0.01  C 
ENDBRANCH 5 19
ENDBRANCH 3 5
BRANCH 1 22
ATOM     22  CA  VAL D4842     -59.604  22.977  36.450  1.00 42.26 LIG 0.18  C 
BRANCH 22 23
ATOM     23  N   VAL D4842     -58.746  22.021  35.743  1.00 51.43 LIG-0.34  N 
ATOM     24 H    VAL D4842     -57.949  21.966  36.062  1.00 51.43 LIG 0.16  HD
ATOM     25  C   LEU D4841     -59.171  21.308  34.703  1.00 54.30 LIG 0.26  C 
ATOM     26 O    LEU D4841     -58.519  20.389  34.213  1.00 66.57 LIG-0.27  OA
BRANCH 25 27
ATOM     27  CA  LEU D4841     -60.548  21.657  34.156  1.00 50.85 LIG 0.40  C 
ATOM     28  N   LEU D4841     -60.685  21.203  32.769  1.00 66.18 LIG 0.61  N 
BRANCH 27 29
ATOM     29  CB  LEU D4841     -61.643  21.027  35.026  1.00 58.40 LIG 0.06  C 
BRANCH 29 30
ATOM     30  CG  LEU D4841     -62.960  21.801  35.151  1.00 54.26 LIG-0.02  C 
ATOM     31  CD2 LEU D4841     -63.130  22.863  34.038  1.00 54.78 LIG 0.01  C 
ATOM     32  CD1 LEU D4841     -63.120  22.424  36.545  1.00 32.44 LIG 0.01  C 
ENDBRANCH 29 30
ENDBRANCH 27 29
ENDBRANCH 25 27
ENDBRANCH 22 23
BRANCH 22 33
ATOM     33  CB  VAL D4842     -59.074  23.284  37.873  1.00 48.47 LIG 0.01  C 
ATOM     34  CG2 VAL D4842     -58.284  24.563  37.897  1.00 42.42 LIG 0.01  C 
ATOM     35  CG1 VAL D4842     -58.206  22.131  38.348  1.00 34.87 LIG 0.01  C 
ENDBRANCH 22 33
ENDBRANCH 1 22
TORSDOF 13
ENDMDL
MODEL 179
USER: ADFR SOLUTION from run 66
USER: SCORE 8.275106 LL:  -2.502 LR:  -6.829 RR:   0.000 FEB:  -2.951
USER: RMSD 6.810125
USER: SEED 65
USER: STATUS no improvement in best in 29 clusters for 5 generations
USER: GENES 15
USER: genes 0 Translation |==|  0.44331 0.46983 0.37425
USER: genes 1 Rotation |==|  0.43814 0.08300 0.51334 0.76852
USER: genes 2 Torsion [C]-N--CA-[CB] |==|  0.23889
USER: genes 3 Torsion [N]-CA--C-[N] |==|  0.38618
USER: genes 4 Torsion [C]-N--CA-[CB] |==|  0.30538
USER: genes 5 Torsion [N]-CA--CB-[CG] |==|  0.59149
USER: genes 6 Torsion [CA]-CB--CG-[OD1] |==|  0.21070
USER: genes 7 Torsion [N]-CA--C-[O] |==|  0.91545
USER: genes 8 Torsion [N]-CA--CB-[CG2] |==|  0.43589
USER: genes 9 Torsion [N]-C--CA-[N] |==|  0.01111
USER: genes 10 Torsion [C]-CA--N-[C] |==|  0.71366
USER: genes 11 Torsion [N]-C--CA-[N] |==|  0.83556
USER: genes 12 Torsion [C]-CA--CB-[CG] |==|  0.23355
USER: genes 13 Torsion [CA]-CB--CG-[CD2] |==|  0.31640
USER: genes 14 Torsion [C]-CA--CB-[CG2] |==|  0.22112
ROOT
ATOM      1  C   VAL D4842     -58.230  27.069  37.194  1.00 57.35 LIG 0.24  C 
ATOM      2 O    VAL D4842     -57.029  27.209  37.452  1.00 61.28 LIG-0.27  OA
ATOM      3  N   VAL D4843     -58.828  25.885  37.184  1.00 52.36 LIG-0.35  N 
ATOM      4 H    VAL D4843     -59.683  25.791  37.175  1.00 52.36 LIG 0.16  HD
ENDROOT
BRANCH 3 5
ATOM      5  CA  VAL D4843     -58.105  24.622  37.190  1.00 37.99 LIG 0.18  C 
BRANCH 5 6
ATOM      6  C   VAL D4843     -59.086  23.624  36.526  1.00 51.29 LIG 0.24  C 
ATOM      7  N   ASN D4844     -58.617  22.730  35.665  1.00 50.43 LIG-0.35  N 
ATOM      8 H    ASN D4844     -57.791  22.633  35.449  1.00 50.43 LIG 0.16  HD
ATOM      9 O    VAL D4843     -60.296  23.668  36.792  1.00 47.22 LIG-0.27  OA
BRANCH 7 10
ATOM     10  CA  ASN D4844     -59.561  21.815  35.006  1.00 46.88 LIG 0.17  C 
BRANCH 10 11
ATOM     11  CB  ASN D4844     -59.690  22.161  33.523  1.00 66.72 LIG 0.14  C 
BRANCH 11 12
ATOM     12  CG  ASN D4844     -61.078  21.890  32.977  1.00 62.42 LIG 0.22  C 
ATOM     13 OD1  ASN D4844     -62.022  22.644  33.224  1.00 56.11 LIG-0.27  OA
ATOM     14  ND2 ASN D4844     -61.207  20.802  32.225  1.00 67.26 LIG-0.37  N 
ATOM     15 21HD ASN D4844     -61.973  20.600  31.889  1.00 67.26 LIG 0.16  HD
ATOM     16 22HD ASN D4844     -60.525  20.300  32.075  1.00 67.26 LIG 0.16  HD
ENDBRANCH 11 12
ENDBRANCH 10 11
BRANCH 10 17
ATOM     17  C   ASN D4844     -59.271  20.315  35.187  1.00 52.57 LIG 0.22  C 
ATOM     18 O    ASN D4844     -58.111  19.894  35.326  1.00 48.91 LIG-0.29  OA
ENDBRANCH 10 17
ENDBRANCH 7 10
ENDBRANCH 5 6
BRANCH 5 19
ATOM     19  CB  VAL D4843     -57.795  24.256  38.674  1.00 37.59 LIG 0.01  C 
ATOM     20  CG1 VAL D4843     -58.857  24.748  39.617  1.00 42.19 LIG 0.01  C 
ATOM     21  CG2 VAL D4843     -57.568  22.750  38.833  1.00 33.91 LIG 0.01  C 
ENDBRANCH 5 19
ENDBRANCH 3 5
BRANCH 1 22
ATOM     22  CA  VAL D4842     -59.154  28.270  36.912  1.00 42.26 LIG 0.18  C 
BRANCH 22 23
ATOM     23  N   VAL D4842     -60.581  27.967  36.760  1.00 51.43 LIG-0.34  N 
ATOM     24 H    VAL D4842     -60.988  27.822  37.504  1.00 51.43 LIG 0.16  HD
ATOM     25  C   LEU D4841     -61.182  27.924  35.573  1.00 54.30 LIG 0.26  C 
ATOM     26 O    LEU D4841     -62.402  27.838  35.446  1.00 66.57 LIG-0.27  OA
BRANCH 25 27
ATOM     27  CA  LEU D4841     -60.283  28.026  34.350  1.00 50.85 LIG 0.40  C 
ATOM     28  N   LEU D4841     -59.528  29.283  34.366  1.00 66.18 LIG 0.61  N 
BRANCH 27 29
ATOM     29  CB  LEU D4841     -59.320  26.834  34.295  1.00 58.40 LIG 0.06  C 
BRANCH 29 30
ATOM     30  CG  LEU D4841     -59.852  25.542  33.660  1.00 54.26 LIG-0.02  C 
ATOM     31  CD2 LEU D4841     -59.119  25.186  32.344  1.00 54.78 LIG 0.01  C 
ATOM     32  CD1 LEU D4841     -61.372  25.597  33.457  1.00 32.44 LIG 0.01  C 
ENDBRANCH 29 30
ENDBRANCH 27 29
ENDBRANCH 25 27
ENDBRANCH 22 23
BRANCH 22 33
ATOM     33  CB  VAL D4842     -58.913  29.400  37.944  1.00 48.47 LIG 0.01  C 
ATOM     34  CG2 VAL D4842     -57.690  30.204  37.597  1.00 42.42 LIG 0.01  C 
ATOM     35  CG1 VAL D4842     -58.758  28.794  39.329  1.00 34.87 LIG 0.01  C 
ENDBRANCH 22 33
ENDBRANCH 1 22
TORSDOF 13
ENDMDL
MODEL 180
USER: ADFR SOLUTION from run 39
USER: SCORE 8.296046 LL:  -2.479 LR:  -6.828 RR:   0.000 FEB:  -2.950
USER: RMSD 7.853686
USER: SEED 38
USER: STATUS no improvement in best in 32 clusters for 5 generations
USER: GENES 15
USER: genes 0 Translation |==|  0.31382 0.44551 0.17220
USER: genes 1 Rotation |==|  0.45007 0.38960 0.71421 0.93524
USER: genes 2 Torsion [C]-N--CA-[CB] |==|  0.56431
USER: genes 3 Torsion [N]-CA--C-[N] |==|  0.79778
USER: genes 4 Torsion [C]-N--CA-[CB] |==|  0.20953
USER: genes 5 Torsion [N]-CA--CB-[CG] |==|  0.16279
USER: genes 6 Torsion [CA]-CB--CG-[OD1] |==|  0.69602
USER: genes 7 Torsion [N]-CA--C-[O] |==|  0.42519
USER: genes 8 Torsion [N]-CA--CB-[CG2] |==|  0.80874
USER: genes 9 Torsion [N]-C--CA-[N] |==|  0.47827
USER: genes 10 Torsion [C]-CA--N-[C] |==|  0.79274
USER: genes 11 Torsion [N]-C--CA-[N] |==|  0.45321
USER: genes 12 Torsion [C]-CA--CB-[CG] |==|  0.36269
USER: genes 13 Torsion [CA]-CB--CG-[CD2] |==|  0.40630
USER: genes 14 Torsion [C]-CA--CB-[CG2] |==|  0.24323
ROOT
ATOM      1  C   VAL D4842     -60.950  26.668  34.163  1.00 57.35 LIG 0.24  C 
ATOM      2 O    VAL D4842     -60.719  26.707  32.948  1.00 61.28 LIG-0.27  OA
ATOM      3  N   VAL D4843     -60.306  25.853  34.989  1.00 52.36 LIG-0.35  N 
ATOM      4 H    VAL D4843     -60.334  25.935  35.845  1.00 52.36 LIG 0.16  HD
ENDROOT
BRANCH 3 5
ATOM      5  CA  VAL D4843     -59.485  24.739  34.538  1.00 37.99 LIG 0.18  C 
BRANCH 5 6
ATOM      6  C   VAL D4843     -60.251  24.182  33.312  1.00 51.29 LIG 0.24  C 
ATOM      7  N   ASN D4844     -61.376  23.505  33.503  1.00 50.43 LIG-0.35  N 
ATOM      8 H    ASN D4844     -61.746  23.360  34.265  1.00 50.43 LIG 0.16  HD
ATOM      9 O    VAL D4843     -59.811  24.361  32.167  1.00 47.22 LIG-0.27  OA
BRANCH 7 10
ATOM     10  CA  ASN D4844     -62.073  22.942  32.338  1.00 46.88 LIG 0.17  C 
BRANCH 10 11
ATOM     11  CB  ASN D4844     -61.343  21.700  31.829  1.00 66.72 LIG 0.14  C 
BRANCH 11 12
ATOM     12  CG  ASN D4844     -61.224  20.617  32.884  1.00 62.42 LIG 0.22  C 
ATOM     13 OD1  ASN D4844     -60.139  20.342  33.399  1.00 56.11 LIG-0.27  OA
ATOM     14  ND2 ASN D4844     -62.351  19.995  33.211  1.00 67.26 LIG-0.37  N 
ATOM     15 21HD ASN D4844     -62.342  19.372  33.804  1.00 67.26 LIG 0.16  HD
ATOM     16 22HD ASN D4844     -63.090  20.215  32.828  1.00 67.26 LIG 0.16  HD
ENDBRANCH 11 12
ENDBRANCH 10 11
BRANCH 10 17
ATOM     17  C   ASN D4844     -63.570  22.645  32.536  1.00 52.57 LIG 0.22  C 
ATOM     18 O    ASN D4844     -64.362  22.650  31.580  1.00 48.91 LIG-0.29  OA
ENDBRANCH 10 17
ENDBRANCH 7 10
ENDBRANCH 5 6
BRANCH 5 19
ATOM     19  CB  VAL D4843     -59.397  23.707  35.705  1.00 37.59 LIG 0.01  C 
ATOM     20  CG1 VAL D4843     -58.866  22.377  35.251  1.00 42.19 LIG 0.01  C 
ATOM     21  CG2 VAL D4843     -58.572  24.265  36.869  1.00 33.91 LIG 0.01  C 
ENDBRANCH 5 19
ENDBRANCH 3 5
BRANCH 1 22
ATOM     22  CA  VAL D4842     -61.972  27.605  34.835  1.00 42.26 LIG 0.18  C 
BRANCH 22 23
ATOM     23  N   VAL D4842     -62.567  28.635  33.978  1.00 51.43 LIG-0.34  N 
ATOM     24 H    VAL D4842     -63.380  28.472  33.750  1.00 51.43 LIG 0.16  HD
ATOM     25  C   LEU D4841     -61.899  29.720  33.592  1.00 54.30 LIG 0.26  C 
ATOM     26 O    LEU D4841     -62.437  30.665  33.017  1.00 66.57 LIG-0.27  OA
BRANCH 25 27
ATOM     27  CA  LEU D4841     -60.417  29.765  33.933  1.00 50.85 LIG 0.40  C 
ATOM     28  N   LEU D4841     -59.730  30.782  33.131  1.00 66.18 LIG 0.61  N 
BRANCH 27 29
ATOM     29  CB  LEU D4841     -60.222  30.053  35.427  1.00 58.40 LIG 0.06  C 
BRANCH 29 30
ATOM     30  CG  LEU D4841     -59.267  29.129  36.193  1.00 54.26 LIG-0.02  C 
ATOM     31  CD2 LEU D4841     -58.500  29.870  37.313  1.00 54.78 LIG 0.01  C 
ATOM     32  CD1 LEU D4841     -58.305  28.400  35.245  1.00 32.44 LIG 0.01  C 
ENDBRANCH 29 30
ENDBRANCH 27 29
ENDBRANCH 25 27
ENDBRANCH 22 23
BRANCH 22 33
ATOM     33  CB  VAL D4842     -63.053  26.787  35.586  1.00 48.47 LIG 0.01  C 
ATOM     34  CG2 VAL D4842     -62.621  26.474  36.992  1.00 42.42 LIG 0.01  C 
ATOM     35  CG1 VAL D4842     -63.325  25.497  34.830  1.00 34.87 LIG 0.01  C 
ENDBRANCH 22 33
ENDBRANCH 1 22
TORSDOF 13
ENDMDL
MODEL 181
USER: ADFR SOLUTION from run 56
USER: SCORE 9.429734 LL:  -3.225 LR:  -6.823 RR:   0.000 FEB:  -2.945
USER: RMSD 8.069709
USER: SEED 55
USER: STATUS no improvement in best in 29 clusters for 5 generations
USER: GENES 15
USER: genes 0 Translation |==|  0.37655 0.41436 0.31533
USER: genes 1 Rotation |==|  0.97956 0.40484 0.60008 0.53084
USER: genes 2 Torsion [C]-N--CA-[CB] |==|  0.51752
USER: genes 3 Torsion [N]-CA--C-[N] |==|  0.36119
USER: genes 4 Torsion [C]-N--CA-[CB] |==|  0.25049
USER: genes 5 Torsion [N]-CA--CB-[CG] |==|  0.78596
USER: genes 6 Torsion [CA]-CB--CG-[OD1] |==|  0.36133
USER: genes 7 Torsion [N]-CA--C-[O] |==|  0.05505
USER: genes 8 Torsion [N]-CA--CB-[CG2] |==|  0.59421
USER: genes 9 Torsion [N]-C--CA-[N] |==|  0.93906
USER: genes 10 Torsion [C]-CA--N-[C] |==|  0.79456
USER: genes 11 Torsion [N]-C--CA-[N] |==|  0.39541
USER: genes 12 Torsion [C]-CA--CB-[CG] |==|  0.07418
USER: genes 13 Torsion [CA]-CB--CG-[CD2] |==|  0.67678
USER: genes 14 Torsion [C]-CA--CB-[CG2] |==|  0.29784
ROOT
ATOM      1  C   VAL D4842     -59.633  26.154  36.310  1.00 57.35 LIG 0.24  C 
ATOM      2 O    VAL D4842     -60.353  26.176  37.315  1.00 61.28 LIG-0.27  OA
ATOM      3  N   VAL D4843     -59.031  27.237  35.836  1.00 52.36 LIG-0.35  N 
ATOM      4 H    VAL D4843     -58.402  27.206  35.250  1.00 52.36 LIG 0.16  HD
ENDROOT
BRANCH 3 5
ATOM      5  CA  VAL D4843     -59.369  28.590  36.254  1.00 37.99 LIG 0.18  C 
BRANCH 5 6
ATOM      6  C   VAL D4843     -60.896  28.685  36.017  1.00 51.29 LIG 0.24  C 
ATOM      7  N   ASN D4844     -61.676  29.136  36.992  1.00 50.43 LIG-0.35  N 
ATOM      8 H    ASN D4844     -61.405  29.410  37.760  1.00 50.43 LIG 0.16  HD
ATOM      9 O    VAL D4843     -61.382  28.338  34.932  1.00 47.22 LIG-0.27  OA
BRANCH 7 10
ATOM     10  CA  ASN D4844     -63.129  29.183  36.775  1.00 46.88 LIG 0.17  C 
BRANCH 10 11
ATOM     11  CB  ASN D4844     -63.777  27.871  37.218  1.00 66.72 LIG 0.14  C 
BRANCH 11 12
ATOM     12  CG  ASN D4844     -63.573  26.750  36.218  1.00 62.42 LIG 0.22  C 
ATOM     13 OD1  ASN D4844     -63.154  25.645  36.570  1.00 56.11 LIG-0.27  OA
ATOM     14  ND2 ASN D4844     -63.871  27.034  34.955  1.00 67.26 LIG-0.37  N 
ATOM     15 21HD ASN D4844     -63.775  26.434  34.345  1.00 67.26 LIG 0.16  HD
ATOM     16 22HD ASN D4844     -64.160  27.817  34.747  1.00 67.26 LIG 0.16  HD
ENDBRANCH 11 12
ENDBRANCH 10 11
BRANCH 10 17
ATOM     17  C   ASN D4844     -63.858  30.383  37.403  1.00 52.57 LIG 0.22  C 
ATOM     18 O    ASN D4844     -63.247  31.414  37.725  1.00 48.91 LIG-0.29  OA
ENDBRANCH 10 17
ENDBRANCH 7 10
ENDBRANCH 5 6
BRANCH 5 19
ATOM     19  CB  VAL D4843     -58.562  29.582  35.360  1.00 37.59 LIG 0.01  C 
ATOM     20  CG1 VAL D4843     -59.300  29.943  34.102  1.00 42.19 LIG 0.01  C 
ATOM     21  CG2 VAL D4843     -58.165  30.833  36.148  1.00 33.91 LIG 0.01  C 
ENDBRANCH 5 19
ENDBRANCH 3 5
BRANCH 1 22
ATOM     22  CA  VAL D4842     -59.325  24.850  35.549  1.00 42.26 LIG 0.18  C 
BRANCH 22 23
ATOM     23  N   VAL D4842     -58.855  25.002  34.168  1.00 51.43 LIG-0.34  N 
ATOM     24 H    VAL D4842     -58.015  24.846  34.067  1.00 51.43 LIG 0.16  HD
ATOM     25  C   LEU D4841     -59.663  25.349  33.169  1.00 54.30 LIG 0.26  C 
ATOM     26 O    LEU D4841     -59.318  25.316  31.990  1.00 66.57 LIG-0.27  OA
BRANCH 25 27
ATOM     27  CA  LEU D4841     -61.078  25.762  33.550  1.00 50.85 LIG 0.40  C 
ATOM     28  N   LEU D4841     -61.540  26.868  32.706  1.00 66.18 LIG 0.61  N 
BRANCH 27 29
ATOM     29  CB  LEU D4841     -62.033  24.569  33.426  1.00 58.40 LIG 0.06  C 
BRANCH 29 30
ATOM     30  CG  LEU D4841     -61.423  23.172  33.591  1.00 54.26 LIG-0.02  C 
ATOM     31  CD2 LEU D4841     -61.533  22.323  32.302  1.00 54.78 LIG 0.01  C 
ATOM     32  CD1 LEU D4841     -62.019  22.434  34.798  1.00 32.44 LIG 0.01  C 
ENDBRANCH 29 30
ENDBRANCH 27 29
ENDBRANCH 25 27
ENDBRANCH 22 23
BRANCH 22 33
ATOM     33  CB  VAL D4842     -58.386  23.939  36.380  1.00 48.47 LIG 0.01  C 
ATOM     34  CG2 VAL D4842     -59.126  22.754  36.936  1.00 42.42 LIG 0.01  C 
ATOM     35  CG1 VAL D4842     -57.776  24.746  37.514  1.00 34.87 LIG 0.01  C 
ENDBRANCH 22 33
ENDBRANCH 1 22
TORSDOF 13
ENDMDL
MODEL 182
USER: ADFR SOLUTION from run 132
USER: SCORE 8.286098 LL:  -2.733 LR:  -6.816 RR:   0.000 FEB:  -2.938
USER: RMSD 5.837229
USER: SEED 131
USER: STATUS no improvement in best in 33 clusters for 5 generations
USER: GENES 15
USER: genes 0 Translation |==|  0.38329 0.49365 0.31469
USER: genes 1 Rotation |==|  0.69576 0.70340 0.58388 0.90407
USER: genes 2 Torsion [C]-N--CA-[CB] |==|  0.29114
USER: genes 3 Torsion [N]-CA--C-[N] |==|  0.41204
USER: genes 4 Torsion [C]-N--CA-[CB] |==|  0.79370
USER: genes 5 Torsion [N]-CA--CB-[CG] |==|  0.81663
USER: genes 6 Torsion [CA]-CB--CG-[OD1] |==|  0.28144
USER: genes 7 Torsion [N]-CA--C-[O] |==|  0.17742
USER: genes 8 Torsion [N]-CA--CB-[CG2] |==|  0.68740
USER: genes 9 Torsion [N]-C--CA-[N] |==|  0.98743
USER: genes 10 Torsion [C]-CA--N-[C] |==|  0.76903
USER: genes 11 Torsion [N]-C--CA-[N] |==|  0.33819
USER: genes 12 Torsion [C]-CA--CB-[CG] |==|  0.07652
USER: genes 13 Torsion [CA]-CB--CG-[CD2] |==|  0.56526
USER: genes 14 Torsion [C]-CA--CB-[CG2] |==|  0.26707
ROOT
ATOM      1  C   VAL D4842     -59.491  27.462  36.300  1.00 57.35 LIG 0.24  C 
ATOM      2 O    VAL D4842     -60.536  28.118  36.215  1.00 61.28 LIG-0.27  OA
ATOM      3  N   VAL D4843     -59.236  26.417  35.525  1.00 52.36 LIG-0.35  N 
ATOM      4 H    VAL D4843     -58.455  26.062  35.457  1.00 52.36 LIG 0.16  HD
ENDROOT
BRANCH 3 5
ATOM      5  CA  VAL D4843     -60.246  25.760  34.707  1.00 37.99 LIG 0.18  C 
BRANCH 5 6
ATOM      6  C   VAL D4843     -59.994  24.250  34.941  1.00 51.29 LIG 0.24  C 
ATOM      7  N   ASN D4844     -61.019  23.408  34.901  1.00 50.43 LIG-0.35  N 
ATOM      8 H    ASN D4844     -61.833  23.623  34.729  1.00 50.43 LIG 0.16  HD
ATOM      9 O    VAL D4843     -58.848  23.836  35.170  1.00 47.22 LIG-0.27  OA
BRANCH 7 10
ATOM     10  CA  ASN D4844     -60.778  21.982  35.166  1.00 46.88 LIG 0.17  C 
BRANCH 10 11
ATOM     11  CB  ASN D4844     -60.086  21.328  33.970  1.00 66.72 LIG 0.14  C 
BRANCH 11 12
ATOM     12  CG  ASN D4844     -60.964  21.289  32.735  1.00 62.42 LIG 0.22  C 
ATOM     13 OD1  ASN D4844     -60.816  22.098  31.817  1.00 56.11 LIG-0.27  OA
ATOM     14  ND2 ASN D4844     -61.890  20.337  32.708  1.00 67.26 LIG-0.37  N 
ATOM     15 21HD ASN D4844     -62.417  20.268  32.030  1.00 67.26 LIG 0.16  HD
ATOM     16 22HD ASN D4844     -61.964  19.790  33.368  1.00 67.26 LIG 0.16  HD
ENDBRANCH 11 12
ENDBRANCH 10 11
BRANCH 10 17
ATOM     17  C   ASN D4844     -60.020  21.665  36.466  1.00 52.57 LIG 0.22  C 
ATOM     18 O    ASN D4844     -60.503  21.936  37.578  1.00 48.91 LIG-0.29  OA
ENDBRANCH 10 17
ENDBRANCH 7 10
ENDBRANCH 5 6
BRANCH 5 19
ATOM     19  CB  VAL D4843     -60.008  26.183  33.224  1.00 37.59 LIG 0.01  C 
ATOM     20  CG1 VAL D4843     -59.782  25.001  32.324  1.00 42.19 LIG 0.01  C 
ATOM     21  CG2 VAL D4843     -61.156  27.057  32.712  1.00 33.91 LIG 0.01  C 
ENDBRANCH 5 19
ENDBRANCH 3 5
BRANCH 1 22
ATOM     22  CA  VAL D4842     -58.364  27.837  37.283  1.00 42.26 LIG 0.18  C 
BRANCH 22 23
ATOM     23  N   VAL D4842     -57.206  26.939  37.312  1.00 51.43 LIG-0.34  N 
ATOM     24 H    VAL D4842     -56.546  27.205  36.828  1.00 51.43 LIG 0.16  HD
ATOM     25  C   LEU D4841     -57.187  25.816  38.026  1.00 54.30 LIG 0.26  C 
ATOM     26 O    LEU D4841     -56.169  25.147  38.190  1.00 66.57 LIG-0.27  OA
BRANCH 25 27
ATOM     27  CA  LEU D4841     -58.498  25.402  38.680  1.00 50.85 LIG 0.40  C 
ATOM     28  N   LEU D4841     -58.904  24.068  38.228  1.00 66.18 LIG 0.61  N 
BRANCH 27 29
ATOM     29  CB  LEU D4841     -58.361  25.422  40.207  1.00 58.40 LIG 0.06  C 
BRANCH 29 30
ATOM     30  CG  LEU D4841     -57.331  26.392  40.799  1.00 54.26 LIG-0.02  C 
ATOM     31  CD2 LEU D4841     -56.851  25.959  42.204  1.00 54.78 LIG 0.01  C 
ATOM     32  CD1 LEU D4841     -57.855  27.835  40.808  1.00 32.44 LIG 0.01  C 
ENDBRANCH 29 30
ENDBRANCH 27 29
ENDBRANCH 25 27
ENDBRANCH 22 23
BRANCH 22 33
ATOM     33  CB  VAL D4842     -57.942  29.316  37.093  1.00 48.47 LIG 0.01  C 
ATOM     34  CG2 VAL D4842     -58.642  30.214  38.074  1.00 42.42 LIG 0.01  C 
ATOM     35  CG1 VAL D4842     -58.262  29.753  35.673  1.00 34.87 LIG 0.01  C 
ENDBRANCH 22 33
ENDBRANCH 1 22
TORSDOF 13
ENDMDL
MODEL 183
USER: ADFR SOLUTION from run 36
USER: SCORE 8.253012 LL:  -2.303 LR:  -6.824 RR:   0.000 FEB:  -2.946
USER: RMSD 9.252737
USER: SEED 35
USER: STATUS no improvement in best in 10 clusters for 5 generations
USER: GENES 15
USER: genes 0 Translation |==|  0.34855 0.46604 0.17683
USER: genes 1 Rotation |==|  0.61549 0.28040 0.92453 0.59063
USER: genes 2 Torsion [C]-N--CA-[CB] |==|  0.15391
USER: genes 3 Torsion [N]-CA--C-[N] |==|  0.64505
USER: genes 4 Torsion [C]-N--CA-[CB] |==|  0.25974
USER: genes 5 Torsion [N]-CA--CB-[CG] |==|  0.67694
USER: genes 6 Torsion [CA]-CB--CG-[OD1] |==|  0.59361
USER: genes 7 Torsion [N]-CA--C-[O] |==|  0.84563
USER: genes 8 Torsion [N]-CA--CB-[CG2] |==|  0.51387
USER: genes 9 Torsion [N]-C--CA-[N] |==|  0.42514
USER: genes 10 Torsion [C]-CA--N-[C] |==|  0.53336
USER: genes 11 Torsion [N]-C--CA-[N] |==|  0.31138
USER: genes 12 Torsion [C]-CA--CB-[CG] |==|  0.21334
USER: genes 13 Torsion [CA]-CB--CG-[CD2] |==|  0.72521
USER: genes 14 Torsion [C]-CA--CB-[CG2] |==|  0.23277
ROOT
ATOM      1  C   VAL D4842     -60.220  27.007  34.232  1.00 57.35 LIG 0.24  C 
ATOM      2 O    VAL D4842     -60.477  27.798  33.317  1.00 61.28 LIG-0.27  OA
ATOM      3  N   VAL D4843     -59.436  27.323  35.255  1.00 52.36 LIG-0.35  N 
ATOM      4 H    VAL D4843     -59.387  26.851  35.972  1.00 52.36 LIG 0.16  HD
ENDROOT
BRANCH 3 5
ATOM      5  CA  VAL D4843     -58.579  28.500  35.273  1.00 37.99 LIG 0.18  C 
BRANCH 5 6
ATOM      6  C   VAL D4843     -57.976  28.502  36.699  1.00 51.29 LIG 0.24  C 
ATOM      7  N   ASN D4844     -58.064  29.601  37.438  1.00 50.43 LIG-0.35  N 
ATOM      8 H    ASN D4844     -58.457  30.329  37.203  1.00 50.43 LIG 0.16  HD
ATOM      9 O    VAL D4843     -57.411  27.491  37.140  1.00 47.22 LIG-0.27  OA
BRANCH 7 10
ATOM     10  CA  ASN D4844     -57.451  29.610  38.774  1.00 46.88 LIG 0.17  C 
BRANCH 10 11
ATOM     11  CB  ASN D4844     -56.032  30.174  38.705  1.00 66.72 LIG 0.14  C 
BRANCH 11 12
ATOM     12  CG  ASN D4844     -54.978  29.155  39.092  1.00 62.42 LIG 0.22  C 
ATOM     13 OD1  ASN D4844     -53.946  29.492  39.676  1.00 56.11 LIG-0.27  OA
ATOM     14  ND2 ASN D4844     -55.237  27.895  38.764  1.00 67.26 LIG-0.37  N 
ATOM     15 21HD ASN D4844     -54.673  27.275  38.959  1.00 67.26 LIG 0.16  HD
ATOM     16 22HD ASN D4844     -55.968  27.699  38.355  1.00 67.26 LIG 0.16  HD
ENDBRANCH 11 12
ENDBRANCH 10 11
BRANCH 10 17
ATOM     17  C   ASN D4844     -58.260  30.320  39.873  1.00 52.57 LIG 0.22  C 
ATOM     18 O    ASN D4844     -58.625  31.500  39.747  1.00 48.91 LIG-0.29  OA
ENDBRANCH 10 17
ENDBRANCH 7 10
ENDBRANCH 5 6
BRANCH 5 19
ATOM     19  CB  VAL D4843     -59.475  29.748  35.001  1.00 37.59 LIG 0.01  C 
ATOM     20  CG1 VAL D4843     -60.555  29.910  36.034  1.00 42.19 LIG 0.01  C 
ATOM     21  CG2 VAL D4843     -58.628  31.017  34.882  1.00 33.91 LIG 0.01  C 
ENDBRANCH 5 19
ENDBRANCH 3 5
BRANCH 1 22
ATOM     22  CA  VAL D4842     -60.835  25.595  34.293  1.00 42.26 LIG 0.18  C 
BRANCH 22 23
ATOM     23  N   VAL D4842     -62.110  25.413  33.593  1.00 51.43 LIG-0.34  N 
ATOM     24 H    VAL D4842     -62.321  26.067  33.076  1.00 51.43 LIG 0.16  HD
ATOM     25  C   LEU D4841     -62.867  24.329  33.752  1.00 54.30 LIG 0.26  C 
ATOM     26 O    LEU D4841     -63.847  24.091  33.049  1.00 66.57 LIG-0.27  OA
BRANCH 25 27
ATOM     27  CA  LEU D4841     -62.439  23.353  34.838  1.00 50.85 LIG 0.40  C 
ATOM     28  N   LEU D4841     -63.410  23.339  35.936  1.00 66.18 LIG 0.61  N 
BRANCH 27 29
ATOM     29  CB  LEU D4841     -62.283  21.943  34.255  1.00 58.40 LIG 0.06  C 
BRANCH 29 30
ATOM     30  CG  LEU D4841     -61.017  21.667  33.435  1.00 54.26 LIG-0.02  C 
ATOM     31  CD2 LEU D4841     -61.268  21.763  31.911  1.00 54.78 LIG 0.01  C 
ATOM     32  CD1 LEU D4841     -60.381  20.322  33.812  1.00 32.44 LIG 0.01  C 
ENDBRANCH 29 30
ENDBRANCH 27 29
ENDBRANCH 25 27
ENDBRANCH 22 23
BRANCH 22 33
ATOM     33  CB  VAL D4842     -59.792  24.526  33.876  1.00 48.47 LIG 0.01  C 
ATOM     34  CG2 VAL D4842     -58.915  24.139  35.034  1.00 42.42 LIG 0.01  C 
ATOM     35  CG1 VAL D4842     -58.941  25.069  32.741  1.00 34.87 LIG 0.01  C 
ENDBRANCH 22 33
ENDBRANCH 1 22
TORSDOF 13
ENDMDL
MODEL 184
USER: ADFR SOLUTION from run 73
USER: SCORE 8.396003 LL:  -2.362 LR:  -6.817 RR:   0.000 FEB:  -2.939
USER: RMSD 7.719509
USER: SEED 72
USER: STATUS no improvement in best in 17 clusters for 5 generations
USER: GENES 15
USER: genes 0 Translation |==|  0.32011 0.48911 0.14670
USER: genes 1 Rotation |==|  0.43078 0.60237 0.60021 0.97401
USER: genes 2 Torsion [C]-N--CA-[CB] |==|  0.17216
USER: genes 3 Torsion [N]-CA--C-[N] |==|  0.07866
USER: genes 4 Torsion [C]-N--CA-[CB] |==|  0.49184
USER: genes 5 Torsion [N]-CA--CB-[CG] |==|  0.75855
USER: genes 6 Torsion [CA]-CB--CG-[OD1] |==|  0.24339
USER: genes 7 Torsion [N]-CA--C-[O] |==|  0.37094
USER: genes 8 Torsion [N]-CA--CB-[CG2] |==|  0.50810
USER: genes 9 Torsion [N]-C--CA-[N] |==|  0.64999
USER: genes 10 Torsion [C]-CA--N-[C] |==|  0.66767
USER: genes 11 Torsion [N]-C--CA-[N] |==|  0.37783
USER: genes 12 Torsion [C]-CA--CB-[CG] |==|  0.33062
USER: genes 13 Torsion [CA]-CB--CG-[CD2] |==|  0.61822
USER: genes 14 Torsion [C]-CA--CB-[CG2] |==|  0.55713
ROOT
ATOM      1  C   VAL D4842     -60.818  27.387  33.780  1.00 57.35 LIG 0.24  C 
ATOM      2 O    VAL D4842     -61.518  27.180  32.782  1.00 61.28 LIG-0.27  OA
ATOM      3  N   VAL D4843     -60.169  26.419  34.415  1.00 52.36 LIG-0.35  N 
ATOM      4 H    VAL D4843     -59.553  26.570  34.996  1.00 52.36 LIG 0.16  HD
ENDROOT
BRANCH 3 5
ATOM      5  CA  VAL D4843     -60.427  25.004  34.194  1.00 37.99 LIG 0.18  C 
BRANCH 5 6
ATOM      6  C   VAL D4843     -59.467  24.290  35.178  1.00 51.29 LIG 0.24  C 
ATOM      7  N   ASN D4844     -59.111  24.906  36.298  1.00 50.43 LIG-0.35  N 
ATOM      8 H    ASN D4844     -59.388  25.680  36.550  1.00 50.43 LIG 0.16  HD
ATOM      9 O    VAL D4843     -59.033  23.159  34.916  1.00 47.22 LIG-0.27  OA
BRANCH 7 10
ATOM     10  CA  ASN D4844     -58.166  24.240  37.205  1.00 46.88 LIG 0.17  C 
BRANCH 10 11
ATOM     11  CB  ASN D4844     -57.836  25.147  38.390  1.00 66.72 LIG 0.14  C 
BRANCH 11 12
ATOM     12  CG  ASN D4844     -56.685  26.092  38.102  1.00 62.42 LIG 0.22  C 
ATOM     13 OD1  ASN D4844     -56.875  27.192  37.580  1.00 56.11 LIG-0.27  OA
ATOM     14  ND2 ASN D4844     -55.477  25.661  38.446  1.00 67.26 LIG-0.37  N 
ATOM     15 21HD ASN D4844     -54.787  26.156  38.307  1.00 67.26 LIG 0.16  HD
ATOM     16 22HD ASN D4844     -55.384  24.886  38.809  1.00 67.26 LIG 0.16  HD
ENDBRANCH 11 12
ENDBRANCH 10 11
BRANCH 10 17
ATOM     17  C   ASN D4844     -58.585  22.843  37.697  1.00 52.57 LIG 0.22  C 
ATOM     18 O    ASN D4844     -57.790  21.890  37.688  1.00 48.91 LIG-0.29  OA
ENDBRANCH 10 17
ENDBRANCH 7 10
ENDBRANCH 5 6
BRANCH 5 19
ATOM     19  CB  VAL D4843     -60.099  24.685  32.703  1.00 37.59 LIG 0.01  C 
ATOM     20  CG1 VAL D4843     -58.681  25.029  32.345  1.00 42.19 LIG 0.01  C 
ATOM     21  CG2 VAL D4843     -60.415  23.224  32.371  1.00 33.91 LIG 0.01  C 
ENDBRANCH 5 19
ENDBRANCH 3 5
BRANCH 1 22
ATOM     22  CA  VAL D4842     -60.594  28.803  34.346  1.00 42.26 LIG 0.18  C 
BRANCH 22 23
ATOM     23  N   VAL D4842     -61.800  29.559  34.695  1.00 51.43 LIG-0.34  N 
ATOM     24 H    VAL D4842     -62.285  29.183  35.298  1.00 51.43 LIG 0.16  HD
ATOM     25  C   LEU D4841     -62.108  30.722  34.125  1.00 54.30 LIG 0.26  C 
ATOM     26 O    LEU D4841     -63.021  31.441  34.526  1.00 66.57 LIG-0.27  OA
BRANCH 25 27
ATOM     27  CA  LEU D4841     -61.240  31.156  32.953  1.00 50.85 LIG 0.40  C 
ATOM     28  N   LEU D4841     -62.067  31.677  31.860  1.00 66.18 LIG 0.61  N 
BRANCH 27 29
ATOM     29  CB  LEU D4841     -60.230  32.219  33.402  1.00 58.40 LIG 0.06  C 
BRANCH 29 30
ATOM     30  CG  LEU D4841     -58.744  31.871  33.253  1.00 54.26 LIG-0.02  C 
ATOM     31  CD2 LEU D4841     -57.911  32.299  34.484  1.00 54.78 LIG 0.01  C 
ATOM     32  CD1 LEU D4841     -58.157  32.442  31.955  1.00 32.44 LIG 0.01  C 
ENDBRANCH 29 30
ENDBRANCH 27 29
ENDBRANCH 25 27
ENDBRANCH 22 23
BRANCH 22 33
ATOM     33  CB  VAL D4842     -59.577  28.770  35.515  1.00 48.47 LIG 0.01  C 
ATOM     34  CG2 VAL D4842     -59.708  29.988  36.387  1.00 42.42 LIG 0.01  C 
ATOM     35  CG1 VAL D4842     -58.167  28.685  34.955  1.00 34.87 LIG 0.01  C 
ENDBRANCH 22 33
ENDBRANCH 1 22
TORSDOF 13
ENDMDL
MODEL 185
USER: ADFR SOLUTION from run 86
USER: SCORE 8.393405 LL:  -2.143 LR:  -6.824 RR:   0.000 FEB:  -2.946
USER: RMSD 8.117343
USER: SEED 85
USER: STATUS no improvement in best in 13 clusters for 5 generations
USER: GENES 15
USER: genes 0 Translation |==|  0.59610 0.31477 0.51083
USER: genes 1 Rotation |==|  0.35234 0.26774 0.77123 0.81731
USER: genes 2 Torsion [C]-N--CA-[CB] |==|  0.89397
USER: genes 3 Torsion [N]-CA--C-[N] |==|  0.36264
USER: genes 4 Torsion [C]-N--CA-[CB] |==|  0.77728
USER: genes 5 Torsion [N]-CA--CB-[CG] |==|  0.57886
USER: genes 6 Torsion [CA]-CB--CG-[OD1] |==|  0.34852
USER: genes 7 Torsion [N]-CA--C-[O] |==|  0.63650
USER: genes 8 Torsion [N]-CA--CB-[CG2] |==|  0.70323
USER: genes 9 Torsion [N]-C--CA-[N] |==|  0.39246
USER: genes 10 Torsion [C]-CA--N-[C] |==|  0.69456
USER: genes 11 Torsion [N]-C--CA-[N] |==|  0.83347
USER: genes 12 Torsion [C]-CA--CB-[CG] |==|  0.23315
USER: genes 13 Torsion [CA]-CB--CG-[CD2] |==|  0.05027
USER: genes 14 Torsion [C]-CA--CB-[CG2] |==|  0.53460
ROOT
ATOM      1  C   VAL D4842     -55.022  24.511  39.242  1.00 57.35 LIG 0.24  C 
ATOM      2 O    VAL D4842     -54.068  24.534  38.455  1.00 61.28 LIG-0.27  OA
ATOM      3  N   VAL D4843     -54.902  24.107  40.501  1.00 52.36 LIG-0.35  N 
ATOM      4 H    VAL D4843     -55.506  24.245  41.097  1.00 52.36 LIG 0.16  HD
ENDROOT
BRANCH 3 5
ATOM      5  CA  VAL D4843     -53.739  23.392  41.006  1.00 37.99 LIG 0.18  C 
BRANCH 5 6
ATOM      6  C   VAL D4843     -52.705  24.510  41.287  1.00 51.29 LIG 0.24  C 
ATOM      7  N   ASN D4844     -52.085  24.539  42.460  1.00 50.43 LIG-0.35  N 
ATOM      8 H    ASN D4844     -52.189  23.965  43.093  1.00 50.43 LIG 0.16  HD
ATOM      9 O    VAL D4843     -52.466  25.370  40.428  1.00 47.22 LIG-0.27  OA
BRANCH 7 10
ATOM     10  CA  ASN D4844     -51.137  25.628  42.736  1.00 46.88 LIG 0.17  C 
BRANCH 10 11
ATOM     11  CB  ASN D4844     -49.787  25.337  42.080  1.00 66.72 LIG 0.14  C 
BRANCH 11 12
ATOM     12  CG  ASN D4844     -48.626  25.970  42.821  1.00 62.42 LIG 0.22  C 
ATOM     13 OD1  ASN D4844     -47.667  25.297  43.204  1.00 56.11 LIG-0.27  OA
ATOM     14  ND2 ASN D4844     -48.711  27.279  43.028  1.00 67.26 LIG-0.37  N 
ATOM     15 21HD ASN D4844     -48.080  27.691  43.443  1.00 67.26 LIG 0.16  HD
ATOM     16 22HD ASN D4844     -49.397  27.715  42.747  1.00 67.26 LIG 0.16  HD
ENDBRANCH 11 12
ENDBRANCH 10 11
BRANCH 10 17
ATOM     17  C   ASN D4844     -51.620  27.041  42.370  1.00 52.57 LIG 0.22  C 
ATOM     18 O    ASN D4844     -50.911  27.815  41.705  1.00 48.91 LIG-0.29  OA
ENDBRANCH 10 17
ENDBRANCH 7 10
ENDBRANCH 5 6
BRANCH 5 19
ATOM     19  CB  VAL D4843     -53.265  22.406  39.894  1.00 37.59 LIG 0.01  C 
ATOM     20  CG1 VAL D4843     -51.802  22.555  39.586  1.00 42.19 LIG 0.01  C 
ATOM     21  CG2 VAL D4843     -53.610  20.959  40.259  1.00 33.91 LIG 0.01  C 
ENDBRANCH 5 19
ENDBRANCH 3 5
BRANCH 1 22
ATOM     22  CA  VAL D4842     -56.427  25.002  38.845  1.00 42.26 LIG 0.18  C 
BRANCH 22 23
ATOM     23  N   VAL D4842     -56.479  26.164  37.953  1.00 51.43 LIG-0.34  N 
ATOM     24 H    VAL D4842     -56.214  26.001  37.151  1.00 51.43 LIG 0.16  HD
ATOM     25  C   LEU D4841     -56.899  27.361  38.358  1.00 54.30 LIG 0.26  C 
ATOM     26 O    LEU D4841     -57.104  28.293  37.583  1.00 66.57 LIG-0.27  OA
BRANCH 25 27
ATOM     27  CA  LEU D4841     -57.159  27.522  39.849  1.00 50.85 LIG 0.40  C 
ATOM     28  N   LEU D4841     -58.190  26.582  40.300  1.00 66.18 LIG 0.61  N 
BRANCH 27 29
ATOM     29  CB  LEU D4841     -55.865  27.305  40.642  1.00 58.40 LIG 0.06  C 
BRANCH 29 30
ATOM     30  CG  LEU D4841     -54.928  28.511  40.783  1.00 54.26 LIG-0.02  C 
ATOM     31  CD2 LEU D4841     -55.641  29.852  40.485  1.00 54.78 LIG 0.01  C 
ATOM     32  CD1 LEU D4841     -53.665  28.348  39.926  1.00 32.44 LIG 0.01  C 
ENDBRANCH 29 30
ENDBRANCH 27 29
ENDBRANCH 25 27
ENDBRANCH 22 23
BRANCH 22 33
ATOM     33  CB  VAL D4842     -57.286  23.827  38.310  1.00 48.47 LIG 0.01  C 
ATOM     34  CG2 VAL D4842     -58.537  24.326  37.642  1.00 42.42 LIG 0.01  C 
ATOM     35  CG1 VAL D4842     -57.646  22.902  39.460  1.00 34.87 LIG 0.01  C 
ENDBRANCH 22 33
ENDBRANCH 1 22
TORSDOF 13
ENDMDL
MODEL 186
USER: ADFR SOLUTION from run 101
USER: SCORE 8.529603 LL:  -2.967 LR:  -6.809 RR:   0.000 FEB:  -2.931
USER: RMSD 6.427956
USER: SEED 100
USER: STATUS no improvement in best in 41 clusters for 5 generations
USER: GENES 15
USER: genes 0 Translation |==|  0.40671 0.37888 0.34994
USER: genes 1 Rotation |==|  0.28085 0.17168 0.40029 0.79023
USER: genes 2 Torsion [C]-N--CA-[CB] |==|  0.52196
USER: genes 3 Torsion [N]-CA--C-[N] |==|  0.87810
USER: genes 4 Torsion [C]-N--CA-[CB] |==|  0.25067
USER: genes 5 Torsion [N]-CA--CB-[CG] |==|  0.74367
USER: genes 6 Torsion [CA]-CB--CG-[OD1] |==|  0.96062
USER: genes 7 Torsion [N]-CA--C-[O] |==|  0.83873
USER: genes 8 Torsion [N]-CA--CB-[CG2] |==|  0.13440
USER: genes 9 Torsion [N]-C--CA-[N] |==|  0.42840
USER: genes 10 Torsion [C]-CA--N-[C] |==|  0.75000
USER: genes 11 Torsion [N]-C--CA-[N] |==|  0.37012
USER: genes 12 Torsion [C]-CA--CB-[CG] |==|  0.28448
USER: genes 13 Torsion [CA]-CB--CG-[CD2] |==|  0.08723
USER: genes 14 Torsion [C]-CA--CB-[CG2] |==|  0.54471
ROOT
ATOM      1  C   VAL D4842     -58.999  25.568  36.829  1.00 57.35 LIG 0.24  C 
ATOM      2 O    VAL D4842     -58.073  24.749  36.850  1.00 61.28 LIG-0.27  OA
ATOM      3  N   VAL D4843     -60.270  25.218  36.981  1.00 52.36 LIG-0.35  N 
ATOM      4 H    VAL D4843     -60.897  25.785  37.137  1.00 52.36 LIG 0.16  HD
ENDROOT
BRANCH 3 5
ATOM      5  CA  VAL D4843     -60.736  23.841  36.901  1.00 37.99 LIG 0.18  C 
BRANCH 5 6
ATOM      6  C   VAL D4843     -60.175  23.333  35.550  1.00 51.29 LIG 0.24  C 
ATOM      7  N   ASN D4844     -60.257  24.114  34.480  1.00 50.43 LIG-0.35  N 
ATOM      8 H    ASN D4844     -60.581  24.910  34.468  1.00 50.43 LIG 0.16  HD
ATOM      9 O    VAL D4843     -59.664  22.207  35.470  1.00 47.22 LIG-0.27  OA
BRANCH 7 10
ATOM     10  CA  ASN D4844     -59.761  23.607  33.192  1.00 46.88 LIG 0.17  C 
BRANCH 10 11
ATOM     11  CB  ASN D4844     -60.881  22.895  32.433  1.00 66.72 LIG 0.14  C 
BRANCH 11 12
ATOM     12  CG  ASN D4844     -60.922  21.406  32.710  1.00 62.42 LIG 0.22  C 
ATOM     13 OD1  ASN D4844     -59.980  20.830  33.258  1.00 56.11 LIG-0.27  OA
ATOM     14  ND2 ASN D4844     -62.026  20.772  32.330  1.00 67.26 LIG-0.37  N 
ATOM     15 21HD ASN D4844     -62.104  19.926  32.463  1.00 67.26 LIG 0.16  HD
ATOM     16 22HD ASN D4844     -62.663  21.209  31.950  1.00 67.26 LIG 0.16  HD
ENDBRANCH 11 12
ENDBRANCH 10 11
BRANCH 10 17
ATOM     17  C   ASN D4844     -59.072  24.644  32.288  1.00 52.57 LIG 0.22  C 
ATOM     18 O    ASN D4844     -59.664  25.670  31.914  1.00 48.91 LIG-0.29  OA
ENDBRANCH 10 17
ENDBRANCH 7 10
ENDBRANCH 5 6
BRANCH 5 19
ATOM     19  CB  VAL D4843     -62.296  23.864  36.929  1.00 37.59 LIG 0.01  C 
ATOM     20  CG1 VAL D4843     -62.838  24.102  38.310  1.00 42.19 LIG 0.01  C 
ATOM     21  CG2 VAL D4843     -62.849  24.887  35.933  1.00 33.91 LIG 0.01  C 
ENDBRANCH 5 19
ENDBRANCH 3 5
BRANCH 1 22
ATOM     22  CA  VAL D4842     -58.753  27.082  36.678  1.00 42.26 LIG 0.18  C 
BRANCH 22 23
ATOM     23  N   VAL D4842     -57.430  27.566  37.087  1.00 51.43 LIG-0.34  N 
ATOM     24 H    VAL D4842     -56.848  27.566  36.454  1.00 51.43 LIG 0.16  HD
ATOM     25  C   LEU D4841     -57.167  27.969  38.328  1.00 54.30 LIG 0.26  C 
ATOM     26 O    LEU D4841     -56.118  28.531  38.639  1.00 66.57 LIG-0.27  OA
BRANCH 25 27
ATOM     27  CA  LEU D4841     -58.256  27.737  39.365  1.00 50.85 LIG 0.40  C 
ATOM     28  N   LEU D4841     -57.694  27.151  40.586  1.00 66.18 LIG 0.61  N 
BRANCH 27 29
ATOM     29  CB  LEU D4841     -58.969  29.055  39.694  1.00 58.40 LIG 0.06  C 
BRANCH 29 30
ATOM     30  CG  LEU D4841     -60.346  29.276  39.055  1.00 54.26 LIG-0.02  C 
ATOM     31  CD2 LEU D4841     -61.120  27.952  38.847  1.00 54.78 LIG 0.01  C 
ATOM     32  CD1 LEU D4841     -60.241  30.073  37.748  1.00 32.44 LIG 0.01  C 
ENDBRANCH 29 30
ENDBRANCH 27 29
ENDBRANCH 25 27
ENDBRANCH 22 23
BRANCH 22 33
ATOM     33  CB  VAL D4842     -59.123  27.557  35.250  1.00 48.47 LIG 0.01  C 
ATOM     34  CG2 VAL D4842     -58.539  28.911  34.956  1.00 42.42 LIG 0.01  C 
ATOM     35  CG1 VAL D4842     -60.636  27.605  35.112  1.00 34.87 LIG 0.01  C 
ENDBRANCH 22 33
ENDBRANCH 1 22
TORSDOF 13
ENDMDL
MODEL 187
USER: ADFR SOLUTION from run 73
USER: SCORE 8.476570 LL:  -2.253 LR:  -6.805 RR:   0.000 FEB:  -2.927
USER: RMSD 8.475118
USER: SEED 72
USER: STATUS no improvement in best in 17 clusters for 5 generations
USER: GENES 15
USER: genes 0 Translation |==|  0.31619 0.48234 0.14520
USER: genes 1 Rotation |==|  0.41498 0.58396 0.60065 0.97496
USER: genes 2 Torsion [C]-N--CA-[CB] |==|  0.15056
USER: genes 3 Torsion [N]-CA--C-[N] |==|  0.09296
USER: genes 4 Torsion [C]-N--CA-[CB] |==|  0.48640
USER: genes 5 Torsion [N]-CA--CB-[CG] |==|  0.74672
USER: genes 6 Torsion [CA]-CB--CG-[OD1] |==|  0.22156
USER: genes 7 Torsion [N]-CA--C-[O] |==|  0.45272
USER: genes 8 Torsion [N]-CA--CB-[CG2] |==|  0.50676
USER: genes 9 Torsion [N]-C--CA-[N] |==|  0.82222
USER: genes 10 Torsion [C]-CA--N-[C] |==|  0.77580
USER: genes 11 Torsion [N]-C--CA-[N] |==|  0.37850
USER: genes 12 Torsion [C]-CA--CB-[CG] |==|  0.33101
USER: genes 13 Torsion [CA]-CB--CG-[CD2] |==|  0.73011
USER: genes 14 Torsion [C]-CA--CB-[CG2] |==|  0.77362
ROOT
ATOM      1  C   VAL D4842     -60.900  27.276  33.758  1.00 57.35 LIG 0.24  C 
ATOM      2 O    VAL D4842     -61.509  27.007  32.715  1.00 61.28 LIG-0.27  OA
ATOM      3  N   VAL D4843     -60.285  26.353  34.487  1.00 52.36 LIG-0.35  N 
ATOM      4 H    VAL D4843     -59.724  26.544  35.109  1.00 52.36 LIG 0.16  HD
ENDROOT
BRANCH 3 5
ATOM      5  CA  VAL D4843     -60.493  24.923  34.310  1.00 37.99 LIG 0.18  C 
BRANCH 5 6
ATOM      6  C   VAL D4843     -59.456  24.273  35.259  1.00 51.29 LIG 0.24  C 
ATOM      7  N   ASN D4844     -59.149  24.883  36.398  1.00 50.43 LIG-0.35  N 
ATOM      8 H    ASN D4844     -59.497  25.616  36.680  1.00 50.43 LIG 0.16  HD
ATOM      9 O    VAL D4843     -58.915  23.201  34.954  1.00 47.22 LIG-0.27  OA
BRANCH 7 10
ATOM     10  CA  ASN D4844     -58.132  24.281  37.273  1.00 46.88 LIG 0.17  C 
BRANCH 10 11
ATOM     11  CB  ASN D4844     -57.843  25.198  38.462  1.00 66.72 LIG 0.14  C 
BRANCH 11 12
ATOM     12  CG  ASN D4844     -56.707  26.165  38.194  1.00 62.42 LIG 0.22  C 
ATOM     13 OD1  ASN D4844     -56.883  27.194  37.539  1.00 56.11 LIG-0.27  OA
ATOM     14  ND2 ASN D4844     -55.527  25.833  38.705  1.00 67.26 LIG-0.37  N 
ATOM     15 21HD ASN D4844     -54.846  26.346  38.584  1.00 67.26 LIG 0.16  HD
ATOM     16 22HD ASN D4844     -55.443  25.106  39.156  1.00 67.26 LIG 0.16  HD
ENDBRANCH 11 12
ENDBRANCH 10 11
BRANCH 10 17
ATOM     17  C   ASN D4844     -58.429  22.851  37.755  1.00 52.57 LIG 0.22  C 
ATOM     18 O    ASN D4844     -57.535  22.129  38.226  1.00 48.91 LIG-0.29  OA
ENDBRANCH 10 17
ENDBRANCH 7 10
ENDBRANCH 5 6
BRANCH 5 19
ATOM     19  CB  VAL D4843     -60.225  24.583  32.811  1.00 37.59 LIG 0.01  C 
ATOM     20  CG1 VAL D4843     -58.846  24.988  32.372  1.00 42.19 LIG 0.01  C 
ATOM     21  CG2 VAL D4843     -60.482  23.100  32.530  1.00 33.91 LIG 0.01  C 
ENDBRANCH 5 19
ENDBRANCH 3 5
BRANCH 1 22
ATOM     22  CA  VAL D4842     -60.755  28.720  34.276  1.00 42.26 LIG 0.18  C 
BRANCH 22 23
ATOM     23  N   VAL D4842     -61.351  29.001  35.585  1.00 51.43 LIG-0.34  N 
ATOM     24 H    VAL D4842     -60.786  28.998  36.234  1.00 51.43 LIG 0.16  HD
ATOM     25  C   LEU D4841     -62.651  29.238  35.746  1.00 54.30 LIG 0.26  C 
ATOM     26 O    LEU D4841     -63.131  29.637  36.805  1.00 66.57 LIG-0.27  OA
BRANCH 25 27
ATOM     27  CA  LEU D4841     -63.537  29.027  34.526  1.00 50.85 LIG 0.40  C 
ATOM     28  N   LEU D4841     -64.766  28.317  34.894  1.00 66.18 LIG 0.61  N 
BRANCH 27 29
ATOM     29  CB  LEU D4841     -63.881  30.374  33.878  1.00 58.40 LIG 0.06  C 
BRANCH 29 30
ATOM     30  CG  LEU D4841     -63.424  30.584  32.430  1.00 54.26 LIG-0.02  C 
ATOM     31  CD2 LEU D4841     -62.091  31.365  32.338  1.00 54.78 LIG 0.01  C 
ATOM     32  CD1 LEU D4841     -64.518  31.245  31.582  1.00 32.44 LIG 0.01  C 
ENDBRANCH 29 30
ENDBRANCH 27 29
ENDBRANCH 25 27
ENDBRANCH 22 23
BRANCH 22 33
ATOM     33  CB  VAL D4842     -59.277  29.181  34.205  1.00 48.47 LIG 0.01  C 
ATOM     34  CG2 VAL D4842     -58.492  28.678  35.384  1.00 42.42 LIG 0.01  C 
ATOM     35  CG1 VAL D4842     -59.224  30.699  34.157  1.00 34.87 LIG 0.01  C 
ENDBRANCH 22 33
ENDBRANCH 1 22
TORSDOF 13
ENDMDL
MODEL 188
USER: ADFR SOLUTION from run 60
USER: SCORE 8.505312 LL:  -2.444 LR:  -6.812 RR:   0.000 FEB:  -2.934
USER: RMSD 9.009027
USER: SEED 59
USER: STATUS no improvement in best in 19 clusters for 5 generations
USER: GENES 15
USER: genes 0 Translation |==|  0.30895 0.42174 0.23328
USER: genes 1 Rotation |==|  0.23962 0.83495 0.23611 0.51942
USER: genes 2 Torsion [C]-N--CA-[CB] |==|  0.51667
USER: genes 3 Torsion [N]-CA--C-[N] |==|  0.34085
USER: genes 4 Torsion [C]-N--CA-[CB] |==|  0.83944
USER: genes 5 Torsion [N]-CA--CB-[CG] |==|  0.66400
USER: genes 6 Torsion [CA]-CB--CG-[OD1] |==|  0.00093
USER: genes 7 Torsion [N]-CA--C-[O] |==|  0.85836
USER: genes 8 Torsion [N]-CA--CB-[CG2] |==|  0.86008
USER: genes 9 Torsion [N]-C--CA-[N] |==|  0.43500
USER: genes 10 Torsion [C]-CA--N-[C] |==|  0.62180
USER: genes 11 Torsion [N]-C--CA-[N] |==|  0.43421
USER: genes 12 Torsion [C]-CA--CB-[CG] |==|  0.43719
USER: genes 13 Torsion [CA]-CB--CG-[CD2] |==|  0.23373
USER: genes 14 Torsion [C]-CA--CB-[CG2] |==|  0.20036
ROOT
ATOM      1  C   VAL D4842     -61.052  26.276  35.079  1.00 57.35 LIG 0.24  C 
ATOM      2 O    VAL D4842     -61.867  27.187  35.268  1.00 61.28 LIG-0.27  OA
ATOM      3  N   VAL D4843     -59.943  26.146  35.795  1.00 52.36 LIG-0.35  N 
ATOM      4 H    VAL D4843     -59.462  25.433  35.790  1.00 52.36 LIG 0.16  HD
ENDROOT
BRANCH 3 5
ATOM      5  CA  VAL D4843     -59.423  27.192  36.665  1.00 37.99 LIG 0.18  C 
BRANCH 5 6
ATOM      6  C   VAL D4843     -59.308  28.427  35.738  1.00 51.29 LIG 0.24  C 
ATOM      7  N   ASN D4844     -59.951  29.542  36.061  1.00 50.43 LIG-0.35  N 
ATOM      8 H    ASN D4844     -60.423  29.656  36.770  1.00 50.43 LIG 0.16  HD
ATOM      9 O    VAL D4843     -58.628  28.370  34.703  1.00 47.22 LIG-0.27  OA
BRANCH 7 10
ATOM     10  CA  ASN D4844     -59.871  30.696  35.154  1.00 46.88 LIG 0.17  C 
BRANCH 10 11
ATOM     11  CB  ASN D4844     -58.414  31.108  34.944  1.00 66.72 LIG 0.14  C 
BRANCH 11 12
ATOM     12  CG  ASN D4844     -58.144  32.539  35.365  1.00 62.42 LIG 0.22  C 
ATOM     13 OD1  ASN D4844     -59.037  33.251  35.828  1.00 56.11 LIG-0.27  OA
ATOM     14  ND2 ASN D4844     -56.897  32.968  35.204  1.00 67.26 LIG-0.37  N 
ATOM     15 21HD ASN D4844     -56.686  33.772  35.427  1.00 67.26 LIG 0.16  HD
ATOM     16 22HD ASN D4844     -56.300  32.442  34.877  1.00 67.26 LIG 0.16  HD
ENDBRANCH 11 12
ENDBRANCH 10 11
BRANCH 10 17
ATOM     17  C   ASN D4844     -60.585  30.531  33.801  1.00 52.57 LIG 0.22  C 
ATOM     18 O    ASN D4844     -60.382  29.541  33.080  1.00 48.91 LIG-0.29  OA
ENDBRANCH 10 17
ENDBRANCH 7 10
ENDBRANCH 5 6
BRANCH 5 19
ATOM     19  CB  VAL D4843     -58.038  26.719  37.205  1.00 37.59 LIG 0.01  C 
ATOM     20  CG1 VAL D4843     -57.457  27.681  38.202  1.00 42.19 LIG 0.01  C 
ATOM     21  CG2 VAL D4843     -58.129  25.306  37.787  1.00 33.91 LIG 0.01  C 
ENDBRANCH 5 19
ENDBRANCH 3 5
BRANCH 1 22
ATOM     22  CA  VAL D4842     -61.282  25.174  34.026  1.00 42.26 LIG 0.18  C 
BRANCH 22 23
ATOM     23  N   VAL D4842     -62.670  24.963  33.603  1.00 51.43 LIG-0.34  N 
ATOM     24 H    VAL D4842     -63.105  25.690  33.456  1.00 51.43 LIG 0.16  HD
ATOM     25  C   LEU D4841     -63.200  23.749  33.462  1.00 54.30 LIG 0.26  C 
ATOM     26 O    LEU D4841     -64.301  23.558  32.951  1.00 66.57 LIG-0.27  OA
BRANCH 25 27
ATOM     27  CA  LEU D4841     -62.351  22.578  33.935  1.00 50.85 LIG 0.40  C 
ATOM     28  N   LEU D4841     -63.195  21.422  34.254  1.00 66.18 LIG 0.61  N 
BRANCH 27 29
ATOM     29  CB  LEU D4841     -61.322  22.198  32.864  1.00 58.40 LIG 0.06  C 
BRANCH 29 30
ATOM     30  CG  LEU D4841     -60.075  21.441  33.337  1.00 54.26 LIG-0.02  C 
ATOM     31  CD2 LEU D4841     -60.317  19.916  33.448  1.00 54.78 LIG 0.01  C 
ATOM     32  CD1 LEU D4841     -59.528  22.017  34.650  1.00 32.44 LIG 0.01  C 
ENDBRANCH 29 30
ENDBRANCH 27 29
ENDBRANCH 25 27
ENDBRANCH 22 23
BRANCH 22 33
ATOM     33  CB  VAL D4842     -60.335  25.370  32.815  1.00 48.47 LIG 0.01  C 
ATOM     34  CG2 VAL D4842     -58.915  25.026  33.171  1.00 42.42 LIG 0.01  C 
ATOM     35  CG1 VAL D4842     -60.415  26.811  32.340  1.00 34.87 LIG 0.01  C 
ENDBRANCH 22 33
ENDBRANCH 1 22
TORSDOF 13
ENDMDL
MODEL 189
USER: ADFR SOLUTION from run 86
USER: SCORE 8.236664 LL:  -2.542 LR:  -6.805 RR:   0.000 FEB:  -2.927
USER: RMSD 9.721664
USER: SEED 85
USER: STATUS no improvement in best in 13 clusters for 5 generations
USER: GENES 15
USER: genes 0 Translation |==|  0.36335 0.22201 0.21058
USER: genes 1 Rotation |==|  0.68181 0.41922 0.04427 0.55227
USER: genes 2 Torsion [C]-N--CA-[CB] |==|  0.27644
USER: genes 3 Torsion [N]-CA--C-[N] |==|  0.40694
USER: genes 4 Torsion [C]-N--CA-[CB] |==|  0.37339
USER: genes 5 Torsion [N]-CA--CB-[CG] |==|  0.83134
USER: genes 6 Torsion [CA]-CB--CG-[OD1] |==|  0.77003
USER: genes 7 Torsion [N]-CA--C-[O] |==|  0.61086
USER: genes 8 Torsion [N]-CA--CB-[CG2] |==|  0.65167
USER: genes 9 Torsion [N]-C--CA-[N] |==|  0.38813
USER: genes 10 Torsion [C]-CA--N-[C] |==|  0.83529
USER: genes 11 Torsion [N]-C--CA-[N] |==|  0.38986
USER: genes 12 Torsion [C]-CA--CB-[CG] |==|  0.20963
USER: genes 13 Torsion [CA]-CB--CG-[CD2] |==|  0.62269
USER: genes 14 Torsion [C]-CA--CB-[CG2] |==|  0.26765
ROOT
ATOM      1  C   VAL D4842     -59.910  22.980  34.739  1.00 57.35 LIG 0.24  C 
ATOM      2 O    VAL D4842     -58.916  22.506  34.175  1.00 61.28 LIG-0.27  OA
ATOM      3  N   VAL D4843     -60.270  24.250  34.608  1.00 52.36 LIG-0.35  N 
ATOM      4 H    VAL D4843     -61.039  24.547  34.851  1.00 52.36 LIG 0.16  HD
ENDROOT
BRANCH 3 5
ATOM      5  CA  VAL D4843     -59.404  25.274  34.040  1.00 37.99 LIG 0.18  C 
BRANCH 5 6
ATOM      6  C   VAL D4843     -59.671  26.521  34.919  1.00 51.29 LIG 0.24  C 
ATOM      7  N   ASN D4844     -58.680  27.370  35.157  1.00 50.43 LIG-0.35  N 
ATOM      8 H    ASN D4844     -57.883  27.306  34.842  1.00 50.43 LIG 0.16  HD
ATOM      9 O    VAL D4843     -60.796  26.716  35.401  1.00 47.22 LIG-0.27  OA
BRANCH 7 10
ATOM     10  CA  ASN D4844     -58.930  28.528  36.028  1.00 46.88 LIG 0.17  C 
BRANCH 10 11
ATOM     11  CB  ASN D4844     -57.792  28.691  37.036  1.00 66.72 LIG 0.14  C 
BRANCH 11 12
ATOM     12  CG  ASN D4844     -57.636  27.487  37.944  1.00 62.42 LIG 0.22  C 
ATOM     13 OD1  ASN D4844     -58.337  27.347  38.949  1.00 56.11 LIG-0.27  OA
ATOM     14  ND2 ASN D4844     -56.708  26.606  37.590  1.00 67.26 LIG-0.37  N 
ATOM     15 21HD ASN D4844     -56.576  25.903  38.068  1.00 67.26 LIG 0.16  HD
ATOM     16 22HD ASN D4844     -56.237  26.739  36.882  1.00 67.26 LIG 0.16  HD
ENDBRANCH 11 12
ENDBRANCH 10 11
BRANCH 10 17
ATOM     17  C   ASN D4844     -59.205  29.858  35.306  1.00 52.57 LIG 0.22  C 
ATOM     18 O    ASN D4844     -58.738  30.930  35.726  1.00 48.91 LIG-0.29  OA
ENDBRANCH 10 17
ENDBRANCH 7 10
ENDBRANCH 5 6
BRANCH 5 19
ATOM     19  CB  VAL D4843     -59.830  25.489  32.555  1.00 37.59 LIG 0.01  C 
ATOM     20  CG1 VAL D4843     -60.505  26.815  32.341  1.00 42.19 LIG 0.01  C 
ATOM     21  CG2 VAL D4843     -58.636  25.317  31.611  1.00 33.91 LIG 0.01  C 
ENDBRANCH 5 19
ENDBRANCH 3 5
BRANCH 1 22
ATOM     22  CA  VAL D4842     -60.852  22.120  35.603  1.00 42.26 LIG 0.18  C 
BRANCH 22 23
ATOM     23  N   VAL D4842     -61.112  20.760  35.120  1.00 51.43 LIG-0.34  N 
ATOM     24 H    VAL D4842     -60.883  20.143  35.673  1.00 51.43 LIG 0.16  HD
ATOM     25  C   LEU D4841     -61.656  20.514  33.930  1.00 54.30 LIG 0.26  C 
ATOM     26 O    LEU D4841     -62.031  19.395  33.586  1.00 66.57 LIG-0.27  OA
BRANCH 25 27
ATOM     27  CA  LEU D4841     -61.835  21.708  33.003  1.00 50.85 LIG 0.40  C 
ATOM     28  N   LEU D4841     -61.520  21.342  31.619  1.00 66.18 LIG 0.61  N 
BRANCH 27 29
ATOM     29  CB  LEU D4841     -63.270  22.242  33.093  1.00 58.40 LIG 0.06  C 
BRANCH 29 30
ATOM     30  CG  LEU D4841     -63.631  23.054  34.343  1.00 54.26 LIG-0.02  C 
ATOM     31  CD2 LEU D4841     -65.006  22.655  34.930  1.00 54.78 LIG 0.01  C 
ATOM     32  CD1 LEU D4841     -63.554  24.564  34.077  1.00 32.44 LIG 0.01  C 
ENDBRANCH 29 30
ENDBRANCH 27 29
ENDBRANCH 25 27
ENDBRANCH 22 23
BRANCH 22 33
ATOM     33  CB  VAL D4842     -60.394  22.127  37.084  1.00 48.47 LIG 0.01  C 
ATOM     34  CG2 VAL D4842     -61.149  23.152  37.884  1.00 42.42 LIG 0.01  C 
ATOM     35  CG1 VAL D4842     -58.904  22.414  37.149  1.00 34.87 LIG 0.01  C 
ENDBRANCH 22 33
ENDBRANCH 1 22
TORSDOF 13
ENDMDL
MODEL 190
USER: ADFR SOLUTION from run 112
USER: SCORE 8.697247 LL:  -3.143 LR:  -6.804 RR:   0.000 FEB:  -2.926
USER: RMSD 7.837899
USER: SEED 111
USER: STATUS no improvement in best in 17 clusters for 5 generations
USER: GENES 15
USER: genes 0 Translation |==|  0.70932 0.22924 0.52822
USER: genes 1 Rotation |==|  0.48813 0.52679 0.18970 0.89097
USER: genes 2 Torsion [C]-N--CA-[CB] |==|  0.50879
USER: genes 3 Torsion [N]-CA--C-[N] |==|  0.88965
USER: genes 4 Torsion [C]-N--CA-[CB] |==|  0.21391
USER: genes 5 Torsion [N]-CA--CB-[CG] |==|  0.65969
USER: genes 6 Torsion [CA]-CB--CG-[OD1] |==|  0.18706
USER: genes 7 Torsion [N]-CA--C-[O] |==|  0.07998
USER: genes 8 Torsion [N]-CA--CB-[CG2] |==|  0.12034
USER: genes 9 Torsion [N]-C--CA-[N] |==|  0.43472
USER: genes 10 Torsion [C]-CA--N-[C] |==|  0.78843
USER: genes 11 Torsion [N]-C--CA-[N] |==|  0.43913
USER: genes 12 Torsion [C]-CA--CB-[CG] |==|  0.38804
USER: genes 13 Torsion [CA]-CB--CG-[CD2] |==|  0.05030
USER: genes 14 Torsion [C]-CA--CB-[CG2] |==|  0.54155
ROOT
ATOM      1  C   VAL D4842     -52.644  23.100  39.503  1.00 57.35 LIG 0.24  C 
ATOM      2 O    VAL D4842     -52.532  23.407  38.310  1.00 61.28 LIG-0.27  OA
ATOM      3  N   VAL D4843     -53.817  22.851  40.072  1.00 52.36 LIG-0.35  N 
ATOM      4 H    VAL D4843     -53.895  22.477  40.842  1.00 52.36 LIG 0.16  HD
ENDROOT
BRANCH 3 5
ATOM      5  CA  VAL D4843     -55.093  23.184  39.455  1.00 37.99 LIG 0.18  C 
BRANCH 5 6
ATOM      6  C   VAL D4843     -55.002  24.709  39.204  1.00 51.29 LIG 0.24  C 
ATOM      7  N   ASN D4844     -54.437  25.484  40.121  1.00 50.43 LIG-0.35  N 
ATOM      8 H    ASN D4844     -54.083  25.210  40.856  1.00 50.43 LIG 0.16  HD
ATOM      9 O    VAL D4843     -55.460  25.199  38.162  1.00 47.22 LIG-0.27  OA
BRANCH 7 10
ATOM     10  CA  ASN D4844     -54.393  26.936  39.896  1.00 46.88 LIG 0.17  C 
BRANCH 10 11
ATOM     11  CB  ASN D4844     -55.760  27.560  40.176  1.00 66.72 LIG 0.14  C 
BRANCH 11 12
ATOM     12  CG  ASN D4844     -56.317  28.311  38.983  1.00 62.42 LIG 0.22  C 
ATOM     13 OD1  ASN D4844     -56.656  27.720  37.955  1.00 56.11 LIG-0.27  OA
ATOM     14  ND2 ASN D4844     -56.415  29.629  39.117  1.00 67.26 LIG-0.37  N 
ATOM     15 21HD ASN D4844     -56.725  30.105  38.472  1.00 67.26 LIG 0.16  HD
ATOM     16 22HD ASN D4844     -56.168  30.006  39.850  1.00 67.26 LIG 0.16  HD
ENDBRANCH 11 12
ENDBRANCH 10 11
BRANCH 10 17
ATOM     17  C   ASN D4844     -53.290  27.695  40.652  1.00 52.57 LIG 0.22  C 
ATOM     18 O    ASN D4844     -52.218  27.146  40.955  1.00 48.91 LIG-0.29  OA
ENDBRANCH 10 17
ENDBRANCH 7 10
ENDBRANCH 5 6
BRANCH 5 19
ATOM     19  CB  VAL D4843     -56.223  22.811  40.464  1.00 37.59 LIG 0.01  C 
ATOM     20  CG1 VAL D4843     -56.568  21.349  40.419  1.00 42.19 LIG 0.01  C 
ATOM     21  CG2 VAL D4843     -55.858  23.250  41.885  1.00 33.91 LIG 0.01  C 
ENDBRANCH 5 19
ENDBRANCH 3 5
BRANCH 1 22
ATOM     22  CA  VAL D4842     -51.422  22.925  40.425  1.00 42.26 LIG 0.18  C 
BRANCH 22 23
ATOM     23  N   VAL D4842     -50.142  22.661  39.760  1.00 51.43 LIG-0.34  N 
ATOM     24 H    VAL D4842     -49.617  23.342  39.732  1.00 51.43 LIG 0.16  HD
ATOM     25  C   LEU D4841     -49.831  21.472  39.248  1.00 54.30 LIG 0.26  C 
ATOM     26 O    LEU D4841     -48.705  21.195  38.841  1.00 66.57 LIG-0.27  OA
BRANCH 25 27
ATOM     27  CA  LEU D4841     -50.941  20.431  39.222  1.00 50.85 LIG 0.40  C 
ATOM     28  N   LEU D4841     -50.665  19.404  38.214  1.00 66.18 LIG 0.61  N 
BRANCH 27 29
ATOM     29  CB  LEU D4841     -51.098  19.784  40.604  1.00 58.40 LIG 0.06  C 
BRANCH 29 30
ATOM     30  CG  LEU D4841     -52.529  19.516  41.086  1.00 54.26 LIG-0.02  C 
ATOM     31  CD2 LEU D4841     -53.555  19.531  39.927  1.00 54.78 LIG 0.01  C 
ATOM     32  CD1 LEU D4841     -52.938  20.480  42.207  1.00 32.44 LIG 0.01  C 
ENDBRANCH 29 30
ENDBRANCH 27 29
ENDBRANCH 25 27
ENDBRANCH 22 23
BRANCH 22 33
ATOM     33  CB  VAL D4842     -51.318  24.104  41.426  1.00 48.47 LIG 0.01  C 
ATOM     34  CG2 VAL D4842     -49.964  24.149  42.078  1.00 42.42 LIG 0.01  C 
ATOM     35  CG1 VAL D4842     -52.398  23.962  42.485  1.00 34.87 LIG 0.01  C 
ENDBRANCH 22 33
ENDBRANCH 1 22
TORSDOF 13
ENDMDL
MODEL 191
USER: ADFR SOLUTION from run 170
USER: SCORE 9.211165 LL:  -2.951 LR:  -6.789 RR:   0.000 FEB:  -2.911
USER: RMSD 7.269681
USER: SEED 169
USER: STATUS no improvement in best in 29 clusters for 5 generations
USER: GENES 15
USER: genes 0 Translation |==|  0.36720 0.40384 0.14325
USER: genes 1 Rotation |==|  0.40825 0.23901 0.37229 0.89643
USER: genes 2 Torsion [C]-N--CA-[CB] |==|  0.18253
USER: genes 3 Torsion [N]-CA--C-[N] |==|  0.14672
USER: genes 4 Torsion [C]-N--CA-[CB] |==|  0.44373
USER: genes 5 Torsion [N]-CA--CB-[CG] |==|  0.83549
USER: genes 6 Torsion [CA]-CB--CG-[OD1] |==|  0.78886
USER: genes 7 Torsion [N]-CA--C-[O] |==|  0.94947
USER: genes 8 Torsion [N]-CA--CB-[CG2] |==|  0.48262
USER: genes 9 Torsion [N]-C--CA-[N] |==|  0.38432
USER: genes 10 Torsion [C]-CA--N-[C] |==|  0.73424
USER: genes 11 Torsion [N]-C--CA-[N] |==|  0.42767
USER: genes 12 Torsion [C]-CA--CB-[CG] |==|  0.34926
USER: genes 13 Torsion [CA]-CB--CG-[CD2] |==|  0.42556
USER: genes 14 Torsion [C]-CA--CB-[CG2] |==|  0.56330
ROOT
ATOM      1  C   VAL D4842     -59.829  25.980  33.729  1.00 57.35 LIG 0.24  C 
ATOM      2 O    VAL D4842     -58.849  25.609  33.071  1.00 61.28 LIG-0.27  OA
ATOM      3  N   VAL D4843     -60.914  25.233  33.881  1.00 52.36 LIG-0.35  N 
ATOM      4 H    VAL D4843     -61.522  25.402  34.466  1.00 52.36 LIG 0.16  HD
ENDROOT
BRANCH 3 5
ATOM      5  CA  VAL D4843     -61.192  24.050  33.080  1.00 37.99 LIG 0.18  C 
BRANCH 5 6
ATOM      6  C   VAL D4843     -62.609  23.616  33.529  1.00 51.29 LIG 0.24  C 
ATOM      7  N   ASN D4844     -63.595  24.503  33.508  1.00 50.43 LIG-0.35  N 
ATOM      8 H    ASN D4844     -63.527  25.317  33.239  1.00 50.43 LIG 0.16  HD
ATOM      9 O    VAL D4843     -62.815  22.455  33.911  1.00 47.22 LIG-0.27  OA
BRANCH 7 10
ATOM     10  CA  ASN D4844     -64.928  24.096  33.977  1.00 46.88 LIG 0.17  C 
BRANCH 10 11
ATOM     11  CB  ASN D4844     -65.760  25.323  34.346  1.00 66.72 LIG 0.14  C 
BRANCH 11 12
ATOM     12  CG  ASN D4844     -65.119  26.160  35.435  1.00 62.42 LIG 0.22  C 
ATOM     13 OD1  ASN D4844     -65.143  25.804  36.615  1.00 56.11 LIG-0.27  OA
ATOM     14  ND2 ASN D4844     -64.537  27.286  35.038  1.00 67.26 LIG-0.37  N 
ATOM     15 21HD ASN D4844     -64.157  27.800  35.614  1.00 67.26 LIG 0.16  HD
ATOM     16 22HD ASN D4844     -64.541  27.502  34.205  1.00 67.26 LIG 0.16  HD
ENDBRANCH 11 12
ENDBRANCH 10 11
BRANCH 10 17
ATOM     17  C   ASN D4844     -65.715  23.176  33.028  1.00 52.57 LIG 0.22  C 
ATOM     18 O    ASN D4844     -65.414  23.075  31.828  1.00 48.91 LIG-0.29  OA
ENDBRANCH 10 17
ENDBRANCH 7 10
ENDBRANCH 5 6
BRANCH 5 19
ATOM     19  CB  VAL D4843     -60.106  22.981  33.415  1.00 37.59 LIG 0.01  C 
ATOM     20  CG1 VAL D4843     -59.923  22.798  34.896  1.00 42.19 LIG 0.01  C 
ATOM     21  CG2 VAL D4843     -60.416  21.648  32.727  1.00 33.91 LIG 0.01  C 
ENDBRANCH 5 19
ENDBRANCH 3 5
BRANCH 1 22
ATOM     22  CA  VAL D4842     -59.853  27.327  34.477  1.00 42.26 LIG 0.18  C 
BRANCH 22 23
ATOM     23  N   VAL D4842     -58.607  27.721  35.142  1.00 51.43 LIG-0.34  N 
ATOM     24 H    VAL D4842     -58.045  28.115  34.624  1.00 51.43 LIG 0.16  HD
ATOM     25  C   LEU D4841     -58.377  27.485  36.431  1.00 54.30 LIG 0.26  C 
ATOM     26 O    LEU D4841     -57.415  27.955  37.035  1.00 66.57 LIG-0.27  OA
BRANCH 25 27
ATOM     27  CA  LEU D4841     -59.397  26.619  37.158  1.00 50.85 LIG 0.40  C 
ATOM     28  N   LEU D4841     -58.780  25.938  38.299  1.00 66.18 LIG 0.61  N 
BRANCH 27 29
ATOM     29  CB  LEU D4841     -60.580  27.473  37.630  1.00 58.40 LIG 0.06  C 
BRANCH 29 30
ATOM     30  CG  LEU D4841     -61.980  27.020  37.198  1.00 54.26 LIG-0.02  C 
ATOM     31  CD2 LEU D4841     -63.079  27.473  38.188  1.00 54.78 LIG 0.01  C 
ATOM     32  CD1 LEU D4841     -62.034  25.505  36.959  1.00 32.44 LIG 0.01  C 
ENDBRANCH 29 30
ENDBRANCH 27 29
ENDBRANCH 25 27
ENDBRANCH 22 23
BRANCH 22 33
ATOM     33  CB  VAL D4842     -60.396  28.453  33.560  1.00 48.47 LIG 0.01  C 
ATOM     34  CG2 VAL D4842     -59.934  29.806  34.024  1.00 42.42 LIG 0.01  C 
ATOM     35  CG1 VAL D4842     -61.915  28.401  33.545  1.00 34.87 LIG 0.01  C 
ENDBRANCH 22 33
ENDBRANCH 1 22
TORSDOF 13
ENDMDL
MODEL 192
USER: ADFR SOLUTION from run 50
USER: SCORE 9.345674 LL:  -3.213 LR:  -6.788 RR:   0.000 FEB:  -2.910
USER: RMSD 8.108946
USER: SEED 49
USER: STATUS no improvement in best in 30 clusters for 5 generations
USER: GENES 15
USER: genes 0 Translation |==|  0.25744 0.32939 0.25417
USER: genes 1 Rotation |==|  0.44925 0.04294 0.30438 0.51580
USER: genes 2 Torsion [C]-N--CA-[CB] |==|  0.52384
USER: genes 3 Torsion [N]-CA--C-[N] |==|  0.31111
USER: genes 4 Torsion [C]-N--CA-[CB] |==|  0.31527
USER: genes 5 Torsion [N]-CA--CB-[CG] |==|  0.72541
USER: genes 6 Torsion [CA]-CB--CG-[OD1] |==|  0.59398
USER: genes 7 Torsion [N]-CA--C-[O] |==|  0.17254
USER: genes 8 Torsion [N]-CA--CB-[CG2] |==|  0.76006
USER: genes 9 Torsion [N]-C--CA-[N] |==|  0.96033
USER: genes 10 Torsion [C]-CA--N-[C] |==|  0.80471
USER: genes 11 Torsion [N]-C--CA-[N] |==|  0.38524
USER: genes 12 Torsion [C]-CA--CB-[CG] |==|  0.10082
USER: genes 13 Torsion [CA]-CB--CG-[CD2] |==|  0.65734
USER: genes 14 Torsion [C]-CA--CB-[CG2] |==|  0.84193
ROOT
ATOM      1  C   VAL D4842     -62.134  24.752  35.392  1.00 57.35 LIG 0.24  C 
ATOM      2 O    VAL D4842     -61.891  24.070  36.396  1.00 61.28 LIG-0.27  OA
ATOM      3  N   VAL D4843     -62.337  24.218  34.195  1.00 52.36 LIG-0.35  N 
ATOM      4 H    VAL D4843     -62.669  24.659  33.535  1.00 52.36 LIG 0.16  HD
ENDROOT
BRANCH 3 5
ATOM      5  CA  VAL D4843     -62.020  22.835  33.870  1.00 37.99 LIG 0.18  C 
BRANCH 5 6
ATOM      6  C   VAL D4843     -60.550  22.669  34.326  1.00 51.29 LIG 0.24  C 
ATOM      7  N   ASN D4844     -60.276  21.881  35.358  1.00 50.43 LIG-0.35  N 
ATOM      8 H    ASN D4844     -60.853  21.420  35.799  1.00 50.43 LIG 0.16  HD
ATOM      9 O    VAL D4843     -59.642  23.273  33.737  1.00 47.22 LIG-0.27  OA
BRANCH 7 10
ATOM     10  CA  ASN D4844     -58.883  21.763  35.812  1.00 46.88 LIG 0.17  C 
BRANCH 10 11
ATOM     11  CB  ASN D4844     -58.724  22.369  37.206  1.00 66.72 LIG 0.14  C 
BRANCH 11 12
ATOM     12  CG  ASN D4844     -58.165  23.778  37.173  1.00 62.42 LIG 0.22  C 
ATOM     13 OD1  ASN D4844     -57.421  24.193  38.063  1.00 56.11 LIG-0.27  OA
ATOM     14  ND2 ASN D4844     -58.526  24.523  36.134  1.00 67.26 LIG-0.37  N 
ATOM     15 21HD ASN D4844     -58.238  25.331  36.063  1.00 67.26 LIG 0.16  HD
ATOM     16 22HD ASN D4844     -59.048  24.198  35.532  1.00 67.26 LIG 0.16  HD
ENDBRANCH 11 12
ENDBRANCH 10 11
BRANCH 10 17
ATOM     17  C   ASN D4844     -58.286  20.346  35.770  1.00 52.57 LIG 0.22  C 
ATOM     18 O    ASN D4844     -58.167  19.727  34.700  1.00 48.91 LIG-0.29  OA
ENDBRANCH 10 17
ENDBRANCH 7 10
ENDBRANCH 5 6
BRANCH 5 19
ATOM     19  CB  VAL D4843     -62.192  22.655  32.330  1.00 37.59 LIG 0.01  C 
ATOM     20  CG1 VAL D4843     -61.245  21.633  31.767  1.00 42.19 LIG 0.01  C 
ATOM     21  CG2 VAL D4843     -63.643  22.320  31.974  1.00 33.91 LIG 0.01  C 
ENDBRANCH 5 19
ENDBRANCH 3 5
BRANCH 1 22
ATOM     22  CA  VAL D4842     -62.276  26.285  35.457  1.00 42.26 LIG 0.18  C 
BRANCH 22 23
ATOM     23  N   VAL D4842     -62.289  26.988  34.170  1.00 51.43 LIG-0.34  N 
ATOM     24 H    VAL D4842     -63.055  27.320  33.962  1.00 51.43 LIG 0.16  HD
ATOM     25  C   LEU D4841     -61.208  27.098  33.402  1.00 54.30 LIG 0.26  C 
ATOM     26 O    LEU D4841     -61.165  27.822  32.410  1.00 66.57 LIG-0.27  OA
BRANCH 25 27
ATOM     27  CA  LEU D4841     -59.984  26.301  33.831  1.00 50.85 LIG 0.40  C 
ATOM     28  N   LEU D4841     -59.329  25.692  32.670  1.00 66.18 LIG 0.61  N 
BRANCH 27 29
ATOM     29  CB  LEU D4841     -58.996  27.204  34.580  1.00 58.40 LIG 0.06  C 
BRANCH 29 30
ATOM     30  CG  LEU D4841     -59.596  28.285  35.487  1.00 54.26 LIG-0.02  C 
ATOM     31  CD2 LEU D4841     -59.108  29.706  35.114  1.00 54.78 LIG 0.01  C 
ATOM     32  CD1 LEU D4841     -59.348  27.981  36.970  1.00 32.44 LIG 0.01  C 
ENDBRANCH 29 30
ENDBRANCH 27 29
ENDBRANCH 25 27
ENDBRANCH 22 23
BRANCH 22 33
ATOM     33  CB  VAL D4842     -63.481  26.686  36.345  1.00 48.47 LIG 0.01  C 
ATOM     34  CG2 VAL D4842     -64.756  26.063  35.848  1.00 42.42 LIG 0.01  C 
ATOM     35  CG1 VAL D4842     -63.616  28.199  36.359  1.00 34.87 LIG 0.01  C 
ENDBRANCH 22 33
ENDBRANCH 1 22
TORSDOF 13
ENDMDL
MODEL 193
USER: ADFR SOLUTION from run 177
USER: SCORE 8.436815 LL:  -2.739 LR:  -6.790 RR:   0.000 FEB:  -2.912
USER: RMSD 4.955443
USER: SEED 176
USER: STATUS no improvement in best in 19 clusters for 5 generations
USER: GENES 15
USER: genes 0 Translation |==|  0.42298 0.37844 0.39270
USER: genes 1 Rotation |==|  0.65024 0.76143 0.63037 0.87695
USER: genes 2 Torsion [C]-N--CA-[CB] |==|  0.83842
USER: genes 3 Torsion [N]-CA--C-[N] |==|  0.12058
USER: genes 4 Torsion [C]-N--CA-[CB] |==|  0.32981
USER: genes 5 Torsion [N]-CA--CB-[CG] |==|  0.69448
USER: genes 6 Torsion [CA]-CB--CG-[OD1] |==|  0.42503
USER: genes 7 Torsion [N]-CA--C-[O] |==|  0.99185
USER: genes 8 Torsion [N]-CA--CB-[CG2] |==|  0.85833
USER: genes 9 Torsion [N]-C--CA-[N] |==|  0.00809
USER: genes 10 Torsion [C]-CA--N-[C] |==|  0.74369
USER: genes 11 Torsion [N]-C--CA-[N] |==|  0.41126
USER: genes 12 Torsion [C]-CA--CB-[CG] |==|  0.26433
USER: genes 13 Torsion [CA]-CB--CG-[CD2] |==|  0.59159
USER: genes 14 Torsion [C]-CA--CB-[CG2] |==|  0.86328
ROOT
ATOM      1  C   VAL D4842     -58.657  25.561  37.470  1.00 57.35 LIG 0.24  C 
ATOM      2 O    VAL D4842     -59.864  25.834  37.500  1.00 61.28 LIG-0.27  OA
ATOM      3  N   VAL D4843     -58.160  24.590  36.715  1.00 52.36 LIG-0.35  N 
ATOM      4 H    VAL D4843     -57.320  24.503  36.557  1.00 52.36 LIG 0.16  HD
ENDROOT
BRANCH 3 5
ATOM      5  CA  VAL D4843     -58.982  23.573  36.075  1.00 37.99 LIG 0.18  C 
BRANCH 5 6
ATOM      6  C   VAL D4843     -59.902  24.377  35.125  1.00 51.29 LIG 0.24  C 
ATOM      7  N   ASN D4844     -59.384  25.359  34.398  1.00 50.43 LIG-0.35  N 
ATOM      8 H    ASN D4844     -58.555  25.585  34.386  1.00 50.43 LIG 0.16  HD
ATOM      9 O    VAL D4843     -61.110  24.110  35.052  1.00 47.22 LIG-0.27  OA
BRANCH 7 10
ATOM     10  CA  ASN D4844     -60.273  26.146  33.531  1.00 46.88 LIG 0.17  C 
BRANCH 10 11
ATOM     11  CB  ASN D4844     -60.264  27.616  33.952  1.00 66.72 LIG 0.14  C 
BRANCH 11 12
ATOM     12  CG  ASN D4844     -61.572  28.052  34.583  1.00 62.42 LIG 0.22  C 
ATOM     13 OD1  ASN D4844     -61.613  28.977  35.397  1.00 56.11 LIG-0.27  OA
ATOM     14  ND2 ASN D4844     -62.654  27.382  34.205  1.00 67.26 LIG-0.37  N 
ATOM     15 21HD ASN D4844     -63.423  27.587  34.531  1.00 67.26 LIG 0.16  HD
ATOM     16 22HD ASN D4844     -62.586  26.741  33.635  1.00 67.26 LIG 0.16  HD
ENDBRANCH 11 12
ENDBRANCH 10 11
BRANCH 10 17
ATOM     17  C   ASN D4844     -60.015  26.018  32.020  1.00 52.57 LIG 0.22  C 
ATOM     18 O    ASN D4844     -59.076  25.334  31.581  1.00 48.91 LIG-0.29  OA
ENDBRANCH 10 17
ENDBRANCH 7 10
ENDBRANCH 5 6
BRANCH 5 19
ATOM     19  CB  VAL D4843     -59.779  22.831  37.192  1.00 37.59 LIG 0.01  C 
ATOM     20  CG1 VAL D4843     -60.595  21.692  36.649  1.00 42.19 LIG 0.01  C 
ATOM     21  CG2 VAL D4843     -58.846  22.359  38.311  1.00 33.91 LIG 0.01  C 
ENDBRANCH 5 19
ENDBRANCH 3 5
BRANCH 1 22
ATOM     22  CA  VAL D4842     -57.614  26.365  38.271  1.00 42.26 LIG 0.18  C 
BRANCH 22 23
ATOM     23  N   VAL D4842     -56.211  26.005  38.050  1.00 51.43 LIG-0.34  N 
ATOM     24 H    VAL D4842     -55.842  26.422  37.394  1.00 51.43 LIG 0.16  HD
ATOM     25  C   LEU D4841     -55.573  25.111  38.802  1.00 54.30 LIG 0.26  C 
ATOM     26 O    LEU D4841     -54.360  24.926  38.734  1.00 66.57 LIG-0.27  OA
BRANCH 25 27
ATOM     27  CA  LEU D4841     -56.419  24.336  39.802  1.00 50.85 LIG 0.40  C 
ATOM     28  N   LEU D4841     -55.885  22.984  39.996  1.00 66.18 LIG 0.61  N 
BRANCH 27 29
ATOM     29  CB  LEU D4841     -56.472  25.077  41.143  1.00 58.40 LIG 0.06  C 
BRANCH 29 30
ATOM     30  CG  LEU D4841     -57.677  25.997  41.380  1.00 54.26 LIG-0.02  C 
ATOM     31  CD2 LEU D4841     -57.317  27.232  42.240  1.00 54.78 LIG 0.01  C 
ATOM     32  CD1 LEU D4841     -58.865  25.230  41.974  1.00 32.44 LIG 0.01  C 
ENDBRANCH 29 30
ENDBRANCH 27 29
ENDBRANCH 25 27
ENDBRANCH 22 23
BRANCH 22 33
ATOM     33  CB  VAL D4842     -57.851  27.888  38.103  1.00 48.47 LIG 0.01  C 
ATOM     34  CG2 VAL D4842     -58.006  28.259  36.654  1.00 42.42 LIG 0.01  C 
ATOM     35  CG1 VAL D4842     -56.685  28.649  38.710  1.00 34.87 LIG 0.01  C 
ENDBRANCH 22 33
ENDBRANCH 1 22
TORSDOF 13
ENDMDL
MODEL 194
USER: ADFR SOLUTION from run 141
USER: SCORE 8.439074 LL:  -2.077 LR:  -6.782 RR:   0.000 FEB:  -2.904
USER: RMSD 7.984325
USER: SEED 140
USER: STATUS no improvement in best in 34 clusters for 5 generations
USER: GENES 15
USER: genes 0 Translation |==|  0.42761 0.54953 0.34953
USER: genes 1 Rotation |==|  0.39251 0.13562 0.81868 0.56415
USER: genes 2 Torsion [C]-N--CA-[CB] |==|  0.54453
USER: genes 3 Torsion [N]-CA--C-[N] |==|  0.41162
USER: genes 4 Torsion [C]-N--CA-[CB] |==|  0.34319
USER: genes 5 Torsion [N]-CA--CB-[CG] |==|  0.49188
USER: genes 6 Torsion [CA]-CB--CG-[OD1] |==|  0.77838
USER: genes 7 Torsion [N]-CA--C-[O] |==|  0.12216
USER: genes 8 Torsion [N]-CA--CB-[CG2] |==|  0.48174
USER: genes 9 Torsion [N]-C--CA-[N] |==|  0.05848
USER: genes 10 Torsion [C]-CA--N-[C] |==|  0.67629
USER: genes 11 Torsion [N]-C--CA-[N] |==|  0.22214
USER: genes 12 Torsion [C]-CA--CB-[CG] |==|  0.27735
USER: genes 13 Torsion [CA]-CB--CG-[CD2] |==|  0.97212
USER: genes 14 Torsion [C]-CA--CB-[CG2] |==|  0.88510
ROOT
ATOM      1  C   VAL D4842     -58.560  28.384  36.823  1.00 57.35 LIG 0.24  C 
ATOM      2 O    VAL D4842     -57.787  29.345  36.725  1.00 61.28 LIG-0.27  OA
ATOM      3  N   VAL D4843     -58.904  27.857  37.991  1.00 52.36 LIG-0.35  N 
ATOM      4 H    VAL D4843     -59.561  27.309  38.083  1.00 52.36 LIG 0.16  HD
ENDROOT
BRANCH 3 5
ATOM      5  CA  VAL D4843     -58.211  28.148  39.237  1.00 37.99 LIG 0.18  C 
BRANCH 5 6
ATOM      6  C   VAL D4843     -56.711  28.070  38.859  1.00 51.29 LIG 0.24  C 
ATOM      7  N   ASN D4844     -55.842  28.848  39.492  1.00 50.43 LIG-0.35  N 
ATOM      8 H    ASN D4844     -56.034  29.393  40.129  1.00 50.43 LIG 0.16  HD
ATOM      9 O    VAL D4843     -56.331  27.295  37.970  1.00 47.22 LIG-0.27  OA
BRANCH 7 10
ATOM     10  CA  ASN D4844     -54.427  28.799  39.098  1.00 46.88 LIG 0.17  C 
BRANCH 10 11
ATOM     11  CB  ASN D4844     -53.935  30.192  38.705  1.00 66.72 LIG 0.14  C 
BRANCH 11 12
ATOM     12  CG  ASN D4844     -52.460  30.217  38.356  1.00 62.42 LIG 0.22  C 
ATOM     13 OD1  ASN D4844     -51.595  30.242  39.233  1.00 56.11 LIG-0.27  OA
ATOM     14  ND2 ASN D4844     -52.168  30.209  37.060  1.00 67.26 LIG-0.37  N 
ATOM     15 21HD ASN D4844     -51.346  30.221  36.805  1.00 67.26 LIG 0.16  HD
ATOM     16 22HD ASN D4844     -52.800  30.192  36.477  1.00 67.26 LIG 0.16  HD
ENDBRANCH 11 12
ENDBRANCH 10 11
BRANCH 10 17
ATOM     17  C   ASN D4844     -53.472  28.160  40.121  1.00 52.57 LIG 0.22  C 
ATOM     18 O    ASN D4844     -53.767  27.108  40.711  1.00 48.91 LIG-0.29  OA
ENDBRANCH 10 17
ENDBRANCH 7 10
ENDBRANCH 5 6
BRANCH 5 19
ATOM     19  CB  VAL D4843     -58.622  27.061  40.278  1.00 37.59 LIG 0.01  C 
ATOM     20  CG1 VAL D4843     -58.518  25.670  39.719  1.00 42.19 LIG 0.01  C 
ATOM     21  CG2 VAL D4843     -57.810  27.201  41.569  1.00 33.91 LIG 0.01  C 
ENDBRANCH 5 19
ENDBRANCH 3 5
BRANCH 1 22
ATOM     22  CA  VAL D4842     -59.236  27.746  35.594  1.00 42.26 LIG 0.18  C 
BRANCH 22 23
ATOM     23  N   VAL D4842     -60.479  27.011  35.847  1.00 51.43 LIG-0.34  N 
ATOM     24 H    VAL D4842     -61.119  27.501  36.146  1.00 51.43 LIG 0.16  HD
ATOM     25  C   LEU D4841     -60.595  25.703  35.629  1.00 54.30 LIG 0.26  C 
ATOM     26 O    LEU D4841     -61.672  25.112  35.677  1.00 66.57 LIG-0.27  OA
BRANCH 25 27
ATOM     27  CA  LEU D4841     -59.318  24.956  35.271  1.00 50.85 LIG 0.40  C 
ATOM     28  N   LEU D4841     -58.532  24.668  36.474  1.00 66.18 LIG 0.61  N 
BRANCH 27 29
ATOM     29  CB  LEU D4841     -59.652  23.653  34.534  1.00 58.40 LIG 0.06  C 
BRANCH 29 30
ATOM     30  CG  LEU D4841     -59.523  23.668  33.006  1.00 54.26 LIG-0.02  C 
ATOM     31  CD2 LEU D4841     -59.307  25.094  32.445  1.00 54.78 LIG 0.01  C 
ATOM     32  CD1 LEU D4841     -60.715  22.977  32.332  1.00 32.44 LIG 0.01  C 
ENDBRANCH 29 30
ENDBRANCH 27 29
ENDBRANCH 25 27
ENDBRANCH 22 23
BRANCH 22 33
ATOM     33  CB  VAL D4842     -59.405  28.790  34.460  1.00 48.47 LIG 0.01  C 
ATOM     34  CG2 VAL D4842     -59.846  30.120  35.004  1.00 42.42 LIG 0.01  C 
ATOM     35  CG1 VAL D4842     -60.422  28.280  33.453  1.00 34.87 LIG 0.01  C 
ENDBRANCH 22 33
ENDBRANCH 1 22
TORSDOF 13
ENDMDL
MODEL 195
USER: ADFR SOLUTION from run 146
USER: SCORE 7.933569 LL:  -2.952 LR:  -6.769 RR:   0.000 FEB:  -2.891
USER: RMSD 8.278727
USER: SEED 145
USER: STATUS no improvement in best in 22 clusters for 5 generations
USER: GENES 15
USER: genes 0 Translation |==|  0.19486 0.38444 0.27335
USER: genes 1 Rotation |==|  0.41617 0.05296 0.29242 0.50637
USER: genes 2 Torsion [C]-N--CA-[CB] |==|  0.43898
USER: genes 3 Torsion [N]-CA--C-[N] |==|  0.05022
USER: genes 4 Torsion [C]-N--CA-[CB] |==|  0.83403
USER: genes 5 Torsion [N]-CA--CB-[CG] |==|  0.77632
USER: genes 6 Torsion [CA]-CB--CG-[OD1] |==|  0.38684
USER: genes 7 Torsion [N]-CA--C-[O] |==|  0.18168
USER: genes 8 Torsion [N]-CA--CB-[CG2] |==|  0.85705
USER: genes 9 Torsion [N]-C--CA-[N] |==|  0.95005
USER: genes 10 Torsion [C]-CA--N-[C] |==|  0.74684
USER: genes 11 Torsion [N]-C--CA-[N] |==|  0.43144
USER: genes 12 Torsion [C]-CA--CB-[CG] |==|  0.42796
USER: genes 13 Torsion [CA]-CB--CG-[CD2] |==|  0.21953
USER: genes 14 Torsion [C]-CA--CB-[CG2] |==|  0.23328
ROOT
ATOM      1  C   VAL D4842     -63.448  25.660  35.680  1.00 57.35 LIG 0.24  C 
ATOM      2 O    VAL D4842     -63.294  24.900  36.643  1.00 61.28 LIG-0.27  OA
ATOM      3  N   VAL D4843     -63.736  25.224  34.461  1.00 52.36 LIG-0.35  N 
ATOM      4 H    VAL D4843     -64.009  25.740  33.830  1.00 52.36 LIG 0.16  HD
ENDROOT
BRANCH 3 5
ATOM      5  CA  VAL D4843     -63.622  23.828  34.062  1.00 37.99 LIG 0.18  C 
BRANCH 5 6
ATOM      6  C   VAL D4843     -62.120  23.656  33.726  1.00 51.29 LIG 0.24  C 
ATOM      7  N   ASN D4844     -61.248  24.548  34.178  1.00 50.43 LIG-0.35  N 
ATOM      8 H    ASN D4844     -61.439  25.223  34.676  1.00 50.43 LIG 0.16  HD
ATOM      9 O    VAL D4843     -61.740  22.699  33.036  1.00 47.22 LIG-0.27  OA
BRANCH 7 10
ATOM     10  CA  ASN D4844     -59.830  24.402  33.819  1.00 46.88 LIG 0.17  C 
BRANCH 10 11
ATOM     11  CB  ASN D4844     -59.290  23.063  34.321  1.00 66.72 LIG 0.14  C 
BRANCH 11 12
ATOM     12  CG  ASN D4844     -58.927  23.092  35.793  1.00 62.42 LIG 0.22  C 
ATOM     13 OD1  ASN D4844     -59.186  22.142  36.535  1.00 56.11 LIG-0.27  OA
ATOM     14  ND2 ASN D4844     -58.319  24.192  36.221  1.00 67.26 LIG-0.37  N 
ATOM     15 21HD ASN D4844     -58.089  24.263  37.048  1.00 67.26 LIG 0.16  HD
ATOM     16 22HD ASN D4844     -58.155  24.834  35.673  1.00 67.26 LIG 0.16  HD
ENDBRANCH 11 12
ENDBRANCH 10 11
BRANCH 10 17
ATOM     17  C   ASN D4844     -59.496  24.593  32.330  1.00 52.57 LIG 0.22  C 
ATOM     18 O    ASN D4844     -59.647  25.691  31.770  1.00 48.91 LIG-0.29  OA
ENDBRANCH 10 17
ENDBRANCH 7 10
ENDBRANCH 5 6
BRANCH 5 19
ATOM     19  CB  VAL D4843     -64.540  23.611  32.819  1.00 37.59 LIG 0.01  C 
ATOM     20  CG1 VAL D4843     -64.560  22.177  32.370  1.00 42.19 LIG 0.01  C 
ATOM     21  CG2 VAL D4843     -65.957  24.128  33.086  1.00 33.91 LIG 0.01  C 
ENDBRANCH 5 19
ENDBRANCH 3 5
BRANCH 1 22
ATOM     22  CA  VAL D4842     -63.371  27.193  35.824  1.00 42.26 LIG 0.18  C 
BRANCH 22 23
ATOM     23  N   VAL D4842     -63.214  27.952  34.580  1.00 51.43 LIG-0.34  N 
ATOM     24 H    VAL D4842     -63.957  28.166  34.205  1.00 51.43 LIG 0.16  HD
ATOM     25  C   LEU D4841     -62.021  28.277  34.085  1.00 54.30 LIG 0.26  C 
ATOM     26 O    LEU D4841     -61.880  29.052  33.141  1.00 66.57 LIG-0.27  OA
BRANCH 25 27
ATOM     27  CA  LEU D4841     -60.809  27.669  34.774  1.00 50.85 LIG 0.40  C 
ATOM     28  N   LEU D4841     -59.669  27.601  33.854  1.00 66.18 LIG 0.61  N 
BRANCH 27 29
ATOM     29  CB  LEU D4841     -60.435  28.487  36.016  1.00 58.40 LIG 0.06  C 
BRANCH 29 30
ATOM     30  CG  LEU D4841     -59.693  27.747  37.136  1.00 54.26 LIG-0.02  C 
ATOM     31  CD2 LEU D4841     -58.187  27.570  36.830  1.00 54.78 LIG 0.01  C 
ATOM     32  CD1 LEU D4841     -60.358  26.403  37.464  1.00 32.44 LIG 0.01  C 
ENDBRANCH 29 30
ENDBRANCH 27 29
ENDBRANCH 25 27
ENDBRANCH 22 23
BRANCH 22 33
ATOM     33  CB  VAL D4842     -64.553  27.722  36.676  1.00 48.47 LIG 0.01  C 
ATOM     34  CG2 VAL D4842     -64.253  27.624  38.146  1.00 42.42 LIG 0.01  C 
ATOM     35  CG1 VAL D4842     -65.806  26.926  36.349  1.00 34.87 LIG 0.01  C 
ENDBRANCH 22 33
ENDBRANCH 1 22
TORSDOF 13
ENDMDL
MODEL 196
USER: ADFR SOLUTION from run 32
USER: SCORE 8.243774 LL:  -2.412 LR:  -6.769 RR:   0.000 FEB:  -2.891
USER: RMSD 7.742664
USER: SEED 31
USER: STATUS no improvement in best in 33 clusters for 5 generations
USER: GENES 15
USER: genes 0 Translation |==|  0.38228 0.44742 0.29884
USER: genes 1 Rotation |==|  0.32330 0.93068 0.40590 0.65634
USER: genes 2 Torsion [C]-N--CA-[CB] |==|  0.46667
USER: genes 3 Torsion [N]-CA--C-[N] |==|  0.45319
USER: genes 4 Torsion [C]-N--CA-[CB] |==|  0.83196
USER: genes 5 Torsion [N]-CA--CB-[CG] |==|  0.77103
USER: genes 6 Torsion [CA]-CB--CG-[OD1] |==|  0.62182
USER: genes 7 Torsion [N]-CA--C-[O] |==|  0.98442
USER: genes 8 Torsion [N]-CA--CB-[CG2] |==|  0.65249
USER: genes 9 Torsion [N]-C--CA-[N] |==|  0.09818
USER: genes 10 Torsion [C]-CA--N-[C] |==|  0.15712
USER: genes 11 Torsion [N]-C--CA-[N] |==|  0.26857
USER: genes 12 Torsion [C]-CA--CB-[CG] |==|  0.19413
USER: genes 13 Torsion [CA]-CB--CG-[CD2] |==|  0.68068
USER: genes 14 Torsion [C]-CA--CB-[CG2] |==|  0.55970
ROOT
ATOM      1  C   VAL D4842     -59.512  26.699  36.063  1.00 57.35 LIG 0.24  C 
ATOM      2 O    VAL D4842     -60.338  27.179  36.849  1.00 61.28 LIG-0.27  OA
ATOM      3  N   VAL D4843     -58.574  25.842  36.444  1.00 52.36 LIG-0.35  N 
ATOM      4 H    VAL D4843     -58.110  25.377  35.889  1.00 52.36 LIG 0.16  HD
ENDROOT
BRANCH 3 5
ATOM      5  CA  VAL D4843     -58.232  25.596  37.837  1.00 37.99 LIG 0.18  C 
BRANCH 5 6
ATOM      6  C   VAL D4843     -57.481  26.878  38.272  1.00 51.29 LIG 0.24  C 
ATOM      7  N   ASN D4844     -57.324  27.130  39.565  1.00 50.43 LIG-0.35  N 
ATOM      8 H    ASN D4844     -57.586  26.622  40.207  1.00 50.43 LIG 0.16  HD
ATOM      9 O    VAL D4843     -57.041  27.663  37.419  1.00 47.22 LIG-0.27  OA
BRANCH 7 10
ATOM     10  CA  ASN D4844     -56.648  28.372  39.970  1.00 46.88 LIG 0.17  C 
BRANCH 10 11
ATOM     11  CB  ASN D4844     -55.222  28.406  39.419  1.00 66.72 LIG 0.14  C 
BRANCH 11 12
ATOM     12  CG  ASN D4844     -54.244  27.630  40.279  1.00 62.42 LIG 0.22  C 
ATOM     13 OD1  ASN D4844     -53.132  28.086  40.554  1.00 56.11 LIG-0.27  OA
ATOM     14  ND2 ASN D4844     -54.659  26.444  40.710  1.00 67.26 LIG-0.37  N 
ATOM     15 21HD ASN D4844     -54.145  25.961  41.202  1.00 67.26 LIG 0.16  HD
ATOM     16 22HD ASN D4844     -55.442  26.159  40.496  1.00 67.26 LIG 0.16  HD
ENDBRANCH 11 12
ENDBRANCH 10 11
BRANCH 10 17
ATOM     17  C   ASN D4844     -57.389  29.676  39.627  1.00 52.57 LIG 0.22  C 
ATOM     18 O    ASN D4844     -58.434  29.668  38.957  1.00 48.91 LIG-0.29  OA
ENDBRANCH 10 17
ENDBRANCH 7 10
ENDBRANCH 5 6
BRANCH 5 19
ATOM     19  CB  VAL D4843     -57.325  24.327  37.889  1.00 37.59 LIG 0.01  C 
ATOM     20  CG1 VAL D4843     -55.903  24.657  38.247  1.00 42.19 LIG 0.01  C 
ATOM     21  CG2 VAL D4843     -57.906  23.275  38.839  1.00 33.91 LIG 0.01  C 
ENDBRANCH 5 19
ENDBRANCH 3 5
BRANCH 1 22
ATOM     22  CA  VAL D4842     -59.534  27.016  34.554  1.00 42.26 LIG 0.18  C 
BRANCH 22 23
ATOM     23  N   VAL D4842     -59.195  25.908  33.656  1.00 51.43 LIG-0.34  N 
ATOM     24 H    VAL D4842     -58.537  26.077  33.127  1.00 51.43 LIG 0.16  HD
ATOM     25  C   LEU D4841     -59.851  24.750  33.666  1.00 54.30 LIG 0.26  C 
ATOM     26 O    LEU D4841     -59.471  23.763  33.040  1.00 66.57 LIG-0.27  OA
BRANCH 25 27
ATOM     27  CA  LEU D4841     -61.099  24.682  34.534  1.00 50.85 LIG 0.40  C 
ATOM     28  N   LEU D4841     -62.302  24.927  33.733  1.00 66.18 LIG 0.61  N 
BRANCH 27 29
ATOM     29  CB  LEU D4841     -61.194  23.316  35.225  1.00 58.40 LIG 0.06  C 
BRANCH 29 30
ATOM     30  CG  LEU D4841     -60.168  23.023  36.326  1.00 54.26 LIG-0.02  C 
ATOM     31  CD2 LEU D4841     -59.215  21.863  35.951  1.00 54.78 LIG 0.01  C 
ATOM     32  CD1 LEU D4841     -60.847  22.772  37.679  1.00 32.44 LIG 0.01  C 
ENDBRANCH 29 30
ENDBRANCH 27 29
ENDBRANCH 25 27
ENDBRANCH 22 23
BRANCH 22 33
ATOM     33  CB  VAL D4842     -60.872  27.691  34.157  1.00 48.47 LIG 0.01  C 
ATOM     34  CG2 VAL D4842     -61.143  27.539  32.686  1.00 42.42 LIG 0.01  C 
ATOM     35  CG1 VAL D4842     -60.822  29.164  34.525  1.00 34.87 LIG 0.01  C 
ENDBRANCH 22 33
ENDBRANCH 1 22
TORSDOF 13
ENDMDL
MODEL 197
USER: ADFR SOLUTION from run 128
USER: SCORE 8.350837 LL:  -2.701 LR:  -6.771 RR:   0.000 FEB:  -2.893
USER: RMSD 8.984467
USER: SEED 127
USER: STATUS no improvement in best in 14 clusters for 5 generations
USER: GENES 15
USER: genes 0 Translation |==|  0.35350 0.18841 0.15694
USER: genes 1 Rotation |==|  0.34071 0.48660 0.97344 0.48268
USER: genes 2 Torsion [C]-N--CA-[CB] |==|  0.24181
USER: genes 3 Torsion [N]-CA--C-[N] |==|  0.35209
USER: genes 4 Torsion [C]-N--CA-[CB] |==|  0.27590
USER: genes 5 Torsion [N]-CA--CB-[CG] |==|  0.75579
USER: genes 6 Torsion [CA]-CB--CG-[OD1] |==|  0.25013
USER: genes 7 Torsion [N]-CA--C-[O] |==|  0.81962
USER: genes 8 Torsion [N]-CA--CB-[CG2] |==|  0.67931
USER: genes 9 Torsion [N]-C--CA-[N] |==|  0.95678
USER: genes 10 Torsion [C]-CA--N-[C] |==|  0.76165
USER: genes 11 Torsion [N]-C--CA-[N] |==|  0.41759
USER: genes 12 Torsion [C]-CA--CB-[CG] |==|  0.40086
USER: genes 13 Torsion [CA]-CB--CG-[CD2] |==|  0.23591
USER: genes 14 Torsion [C]-CA--CB-[CG2] |==|  0.24853
ROOT
ATOM      1  C   VAL D4842     -60.116  22.426  33.934  1.00 57.35 LIG 0.24  C 
ATOM      2 O    VAL D4842     -59.215  22.220  33.112  1.00 61.28 LIG-0.27  OA
ATOM      3  N   VAL D4843     -60.443  23.642  34.351  1.00 52.36 LIG-0.35  N 
ATOM      4 H    VAL D4843     -61.166  23.812  34.783  1.00 52.36 LIG 0.16  HD
ENDROOT
BRANCH 3 5
ATOM      5  CA  VAL D4843     -59.614  24.817  34.120  1.00 37.99 LIG 0.18  C 
BRANCH 5 6
ATOM      6  C   VAL D4843     -59.977  25.767  35.288  1.00 51.29 LIG 0.24  C 
ATOM      7  N   ASN D4844     -59.008  26.260  36.048  1.00 50.43 LIG-0.35  N 
ATOM      8 H    ASN D4844     -58.167  26.117  35.938  1.00 50.43 LIG 0.16  HD
ATOM      9 O    VAL D4843     -61.162  26.056  35.513  1.00 47.22 LIG-0.27  OA
BRANCH 7 10
ATOM     10  CA  ASN D4844     -59.364  27.127  37.181  1.00 46.88 LIG 0.17  C 
BRANCH 10 11
ATOM     11  CB  ASN D4844     -59.351  26.330  38.485  1.00 66.72 LIG 0.14  C 
BRANCH 11 12
ATOM     12  CG  ASN D4844     -60.682  25.665  38.779  1.00 62.42 LIG 0.22  C 
ATOM     13 OD1  ASN D4844     -60.931  24.527  38.377  1.00 56.11 LIG-0.27  OA
ATOM     14  ND2 ASN D4844     -61.547  26.380  39.488  1.00 67.26 LIG-0.37  N 
ATOM     15 21HD ASN D4844     -62.318  26.052  39.684  1.00 67.26 LIG 0.16  HD
ATOM     16 22HD ASN D4844     -61.337  27.172  39.750  1.00 67.26 LIG 0.16  HD
ENDBRANCH 11 12
ENDBRANCH 10 11
BRANCH 10 17
ATOM     17  C   ASN D4844     -58.529  28.411  37.326  1.00 52.57 LIG 0.22  C 
ATOM     18 O    ASN D4844     -57.315  28.367  37.580  1.00 48.91 LIG-0.29  OA
ENDBRANCH 10 17
ENDBRANCH 7 10
ENDBRANCH 5 6
BRANCH 5 19
ATOM     19  CB  VAL D4843     -59.999  25.407  32.728  1.00 37.59 LIG 0.01  C 
ATOM     20  CG1 VAL D4843     -60.518  26.814  32.830  1.00 42.19 LIG 0.01  C 
ATOM     21  CG2 VAL D4843     -58.824  25.320  31.751  1.00 33.91 LIG 0.01  C 
ENDBRANCH 5 19
ENDBRANCH 3 5
BRANCH 1 22
ATOM     22  CA  VAL D4842     -60.980  21.286  34.508  1.00 42.26 LIG 0.18  C 
BRANCH 22 23
ATOM     23  N   VAL D4842     -61.795  21.618  35.680  1.00 51.43 LIG-0.34  N 
ATOM     24 H    VAL D4842     -62.600  21.854  35.490  1.00 51.43 LIG 0.16  HD
ATOM     25  C   LEU D4841     -61.322  21.557  36.923  1.00 54.30 LIG 0.26  C 
ATOM     26 O    LEU D4841     -62.038  21.670  37.916  1.00 66.57 LIG-0.27  OA
BRANCH 25 27
ATOM     27  CA  LEU D4841     -59.829  21.298  37.072  1.00 50.85 LIG 0.40  C 
ATOM     28  N   LEU D4841     -59.314  21.918  38.296  1.00 66.18 LIG 0.61  N 
BRANCH 27 29
ATOM     29  CB  LEU D4841     -59.550  19.790  37.088  1.00 58.40 LIG 0.06  C 
BRANCH 29 30
ATOM     30  CG  LEU D4841     -58.257  19.317  36.412  1.00 54.26 LIG-0.02  C 
ATOM     31  CD2 LEU D4841     -57.034  19.397  37.356  1.00 54.78 LIG 0.01  C 
ATOM     32  CD1 LEU D4841     -57.998  20.067  35.099  1.00 32.44 LIG 0.01  C 
ENDBRANCH 29 30
ENDBRANCH 27 29
ENDBRANCH 25 27
ENDBRANCH 22 23
BRANCH 22 33
ATOM     33  CB  VAL D4842     -61.824  20.622  33.390  1.00 48.47 LIG 0.01  C 
ATOM     34  CG2 VAL D4842     -61.078  19.488  32.743  1.00 42.42 LIG 0.01  C 
ATOM     35  CG1 VAL D4842     -62.186  21.666  32.346  1.00 34.87 LIG 0.01  C 
ENDBRANCH 22 33
ENDBRANCH 1 22
TORSDOF 13
ENDMDL
MODEL 198
USER: ADFR SOLUTION from run 65
USER: SCORE 8.384910 LL:  -2.717 LR:  -6.774 RR:   0.000 FEB:  -2.896
USER: RMSD 6.834115
USER: SEED 64
USER: STATUS no improvement in best in 27 clusters for 5 generations
USER: GENES 15
USER: genes 0 Translation |==|  0.34391 0.34792 0.25710
USER: genes 1 Rotation |==|  0.26695 0.83601 0.50290 0.78771
USER: genes 2 Torsion [C]-N--CA-[CB] |==|  0.26620
USER: genes 3 Torsion [N]-CA--C-[N] |==|  0.38934
USER: genes 4 Torsion [C]-N--CA-[CB] |==|  0.28598
USER: genes 5 Torsion [N]-CA--CB-[CG] |==|  0.74102
USER: genes 6 Torsion [CA]-CB--CG-[OD1] |==|  0.19448
USER: genes 7 Torsion [N]-CA--C-[O] |==|  0.17544
USER: genes 8 Torsion [N]-CA--CB-[CG2] |==|  0.38064
USER: genes 9 Torsion [N]-C--CA-[N] |==|  0.91627
USER: genes 10 Torsion [C]-CA--N-[C] |==|  0.80872
USER: genes 11 Torsion [N]-C--CA-[N] |==|  0.24951
USER: genes 12 Torsion [C]-CA--CB-[CG] |==|  0.71642
USER: genes 13 Torsion [CA]-CB--CG-[CD2] |==|  0.61222
USER: genes 14 Torsion [C]-CA--CB-[CG2] |==|  0.04837
ROOT
ATOM      1  C   VAL D4842     -60.318  25.058  35.436  1.00 57.35 LIG 0.24  C 
ATOM      2 O    VAL D4842     -61.437  24.716  35.838  1.00 61.28 LIG-0.27  OA
ATOM      3  N   VAL D4843     -59.194  24.621  35.990  1.00 52.36 LIG-0.35  N 
ATOM      4 H    VAL D4843     -58.423  24.714  35.621  1.00 52.36 LIG 0.16  HD
ENDROOT
BRANCH 3 5
ATOM      5  CA  VAL D4843     -59.145  23.942  37.276  1.00 37.99 LIG 0.18  C 
BRANCH 5 6
ATOM      6  C   VAL D4843     -57.818  24.429  37.908  1.00 51.29 LIG 0.24  C 
ATOM      7  N   ASN D4844     -57.780  24.704  39.206  1.00 50.43 LIG-0.35  N 
ATOM      8 H    ASN D4844     -58.437  24.613  39.753  1.00 50.43 LIG 0.16  HD
ATOM      9 O    VAL D4843     -56.806  24.567  37.206  1.00 47.22 LIG-0.27  OA
BRANCH 7 10
ATOM     10  CA  ASN D4844     -56.528  25.207  39.790  1.00 46.88 LIG 0.17  C 
BRANCH 10 11
ATOM     11  CB  ASN D4844     -56.618  26.714  40.023  1.00 66.72 LIG 0.14  C 
BRANCH 11 12
ATOM     12  CG  ASN D4844     -56.073  27.521  38.861  1.00 62.42 LIG 0.22  C 
ATOM     13 OD1  ASN D4844     -56.665  27.568  37.781  1.00 56.11 LIG-0.27  OA
ATOM     14  ND2 ASN D4844     -54.933  28.165  39.082  1.00 67.26 LIG-0.37  N 
ATOM     15 21HD ASN D4844     -54.578  28.639  38.457  1.00 67.26 LIG 0.16  HD
ATOM     16 22HD ASN D4844     -54.548  28.108  39.849  1.00 67.26 LIG 0.16  HD
ENDBRANCH 11 12
ENDBRANCH 10 11
BRANCH 10 17
ATOM     17  C   ASN D4844     -56.053  24.491  41.066  1.00 52.57 LIG 0.22  C 
ATOM     18 O    ASN D4844     -55.743  23.289  41.055  1.00 48.91 LIG-0.29  OA
ENDBRANCH 10 17
ENDBRANCH 7 10
ENDBRANCH 5 6
BRANCH 5 19
ATOM     19  CB  VAL D4843     -59.149  22.405  37.005  1.00 37.59 LIG 0.01  C 
ATOM     20  CG1 VAL D4843     -58.914  22.082  35.557  1.00 42.19 LIG 0.01  C 
ATOM     21  CG2 VAL D4843     -58.139  21.686  37.904  1.00 33.91 LIG 0.01  C 
ENDBRANCH 5 19
ENDBRANCH 3 5
BRANCH 1 22
ATOM     22  CA  VAL D4842     -60.130  25.982  34.218  1.00 42.26 LIG 0.18  C 
BRANCH 22 23
ATOM     23  N   VAL D4842     -58.915  26.803  34.209  1.00 51.43 LIG-0.34  N 
ATOM     24 H    VAL D4842     -58.344  26.575  33.608  1.00 51.43 LIG 0.16  HD
ATOM     25  C   LEU D4841     -58.723  27.808  35.061  1.00 54.30 LIG 0.26  C 
ATOM     26 O    LEU D4841     -57.791  28.603  34.955  1.00 66.57 LIG-0.27  OA
BRANCH 25 27
ATOM     27  CA  LEU D4841     -59.748  27.962  36.175  1.00 50.85 LIG 0.40  C 
ATOM     28  N   LEU D4841     -59.351  27.189  37.355  1.00 66.18 LIG 0.61  N 
BRANCH 27 29
ATOM     29  CB  LEU D4841     -59.914  29.441  36.546  1.00 58.40 LIG 0.06  C 
BRANCH 29 30
ATOM     30  CG  LEU D4841     -59.212  29.919  37.822  1.00 54.26 LIG-0.02  C 
ATOM     31  CD2 LEU D4841     -60.082  30.900  38.644  1.00 54.78 LIG 0.01  C 
ATOM     32  CD1 LEU D4841     -57.832  30.518  37.518  1.00 32.44 LIG 0.01  C 
ENDBRANCH 29 30
ENDBRANCH 27 29
ENDBRANCH 25 27
ENDBRANCH 22 23
BRANCH 22 33
ATOM     33  CB  VAL D4842     -60.297  25.188  32.898  1.00 48.47 LIG 0.01  C 
ATOM     34  CG2 VAL D4842     -60.995  23.877  33.134  1.00 42.42 LIG 0.01  C 
ATOM     35  CG1 VAL D4842     -58.931  24.942  32.281  1.00 34.87 LIG 0.01  C 
ENDBRANCH 22 33
ENDBRANCH 1 22
TORSDOF 13
ENDMDL
MODEL 199
USER: ADFR SOLUTION from run 125
USER: SCORE 8.613549 LL:  -2.605 LR:  -6.756 RR:   0.000 FEB:  -2.879
USER: RMSD 8.243841
USER: SEED 124
USER: STATUS no improvement in best in 15 clusters for 5 generations
USER: GENES 15
USER: genes 0 Translation |==|  0.35070 0.47000 0.15489
USER: genes 1 Rotation |==|  0.59947 0.27567 0.92641 0.58922
USER: genes 2 Torsion [C]-N--CA-[CB] |==|  0.15075
USER: genes 3 Torsion [N]-CA--C-[N] |==|  0.67152
USER: genes 4 Torsion [C]-N--CA-[CB] |==|  0.23926
USER: genes 5 Torsion [N]-CA--CB-[CG] |==|  0.68950
USER: genes 6 Torsion [CA]-CB--CG-[OD1] |==|  0.09758
USER: genes 7 Torsion [N]-CA--C-[O] |==|  0.03845
USER: genes 8 Torsion [N]-CA--CB-[CG2] |==|  0.49822
USER: genes 9 Torsion [N]-C--CA-[N] |==|  0.30557
USER: genes 10 Torsion [C]-CA--N-[C] |==|  0.74525
USER: genes 11 Torsion [N]-C--CA-[N] |==|  0.43030
USER: genes 12 Torsion [C]-CA--CB-[CG] |==|  0.39045
USER: genes 13 Torsion [CA]-CB--CG-[CD2] |==|  0.07903
USER: genes 14 Torsion [C]-CA--CB-[CG2] |==|  0.43437
ROOT
ATOM      1  C   VAL D4842     -60.175  27.072  33.903  1.00 57.35 LIG 0.24  C 
ATOM      2 O    VAL D4842     -60.354  27.872  32.977  1.00 61.28 LIG-0.27  OA
ATOM      3  N   VAL D4843     -59.448  27.366  34.973  1.00 52.36 LIG-0.35  N 
ATOM      4 H    VAL D4843     -59.456  26.892  35.691  1.00 52.36 LIG 0.16  HD
ENDROOT
BRANCH 3 5
ATOM      5  CA  VAL D4843     -58.563  28.519  35.048  1.00 37.99 LIG 0.18  C 
BRANCH 5 6
ATOM      6  C   VAL D4843     -58.072  28.521  36.517  1.00 51.29 LIG 0.24  C 
ATOM      7  N   ASN D4844     -58.357  29.559  37.294  1.00 50.43 LIG-0.35  N 
ATOM      8 H    ASN D4844     -58.823  30.243  37.061  1.00 50.43 LIG 0.16  HD
ATOM      9 O    VAL D4843     -57.415  27.567  36.957  1.00 47.22 LIG-0.27  OA
BRANCH 7 10
ATOM     10  CA  ASN D4844     -57.851  29.572  38.675  1.00 46.88 LIG 0.17  C 
BRANCH 10 11
ATOM     11  CB  ASN D4844     -56.437  30.149  38.717  1.00 66.72 LIG 0.14  C 
BRANCH 11 12
ATOM     12  CG  ASN D4844     -55.391  29.113  39.080  1.00 62.42 LIG 0.22  C 
ATOM     13 OD1  ASN D4844     -55.494  27.943  38.707  1.00 56.11 LIG-0.27  OA
ATOM     14  ND2 ASN D4844     -54.373  29.544  39.816  1.00 67.26 LIG-0.37  N 
ATOM     15 21HD ASN D4844     -53.751  28.999  40.050  1.00 67.26 LIG 0.16  HD
ATOM     16 22HD ASN D4844     -54.337  30.369  40.058  1.00 67.26 LIG 0.16  HD
ENDBRANCH 11 12
ENDBRANCH 10 11
BRANCH 10 17
ATOM     17  C   ASN D4844     -58.751  30.274  39.707  1.00 52.57 LIG 0.22  C 
ATOM     18 O    ASN D4844     -59.929  30.564  39.446  1.00 48.91 LIG-0.29  OA
ENDBRANCH 10 17
ENDBRANCH 7 10
ENDBRANCH 5 6
BRANCH 5 19
ATOM     19  CB  VAL D4843     -59.401  29.788  34.697  1.00 37.59 LIG 0.01  C 
ATOM     20  CG1 VAL D4843     -60.628  29.916  35.555  1.00 42.19 LIG 0.01  C 
ATOM     21  CG2 VAL D4843     -58.540  31.052  34.770  1.00 33.91 LIG 0.01  C 
ENDBRANCH 5 19
ENDBRANCH 3 5
BRANCH 1 22
ATOM     22  CA  VAL D4842     -60.829  25.677  33.921  1.00 42.26 LIG 0.18  C 
BRANCH 22 23
ATOM     23  N   VAL D4842     -62.287  25.647  34.075  1.00 51.43 LIG-0.34  N 
ATOM     24 H    VAL D4842     -62.717  25.692  33.332  1.00 51.43 LIG 0.16  HD
ATOM     25  C   LEU D4841     -62.881  25.558  35.263  1.00 54.30 LIG 0.26  C 
ATOM     26 O    LEU D4841     -64.088  25.364  35.392  1.00 66.57 LIG-0.27  OA
BRANCH 25 27
ATOM     27  CA  LEU D4841     -61.980  25.670  36.485  1.00 50.85 LIG 0.40  C 
ATOM     28  N   LEU D4841     -62.738  26.146  37.646  1.00 66.18 LIG 0.61  N 
BRANCH 27 29
ATOM     29  CB  LEU D4841     -61.335  24.314  36.797  1.00 58.40 LIG 0.06  C 
BRANCH 29 30
ATOM     30  CG  LEU D4841     -59.870  24.331  37.249  1.00 54.26 LIG-0.02  C 
ATOM     31  CD2 LEU D4841     -59.490  25.645  37.973  1.00 54.78 LIG 0.01  C 
ATOM     32  CD1 LEU D4841     -58.915  24.040  36.083  1.00 32.44 LIG 0.01  C 
ENDBRANCH 29 30
ENDBRANCH 27 29
ENDBRANCH 25 27
ENDBRANCH 22 23
BRANCH 22 33
ATOM     33  CB  VAL D4842     -60.361  24.838  32.705  1.00 48.47 LIG 0.01  C 
ATOM     34  CG2 VAL D4842     -60.495  23.365  32.974  1.00 42.42 LIG 0.01  C 
ATOM     35  CG1 VAL D4842     -58.915  25.177  32.385  1.00 34.87 LIG 0.01  C 
ENDBRANCH 22 33
ENDBRANCH 1 22
TORSDOF 13
ENDMDL
MODEL 200
USER: ADFR SOLUTION from run 97
USER: SCORE 8.568284 LL:  -2.448 LR:  -6.756 RR:   0.000 FEB:  -2.878
USER: RMSD 8.905778
USER: SEED 96
USER: STATUS no improvement in best in 15 clusters for 5 generations
USER: GENES 15
USER: genes 0 Translation |==|  0.37232 0.29322 0.11225
USER: genes 1 Rotation |==|  0.38058 0.66400 0.04555 0.54813
USER: genes 2 Torsion [C]-N--CA-[CB] |==|  0.14777
USER: genes 3 Torsion [N]-CA--C-[N] |==|  0.11256
USER: genes 4 Torsion [C]-N--CA-[CB] |==|  0.43890
USER: genes 5 Torsion [N]-CA--CB-[CG] |==|  0.21545
USER: genes 6 Torsion [CA]-CB--CG-[OD1] |==|  0.88030
USER: genes 7 Torsion [N]-CA--C-[O] |==|  0.00751
USER: genes 8 Torsion [N]-CA--CB-[CG2] |==|  0.51469
USER: genes 9 Torsion [N]-C--CA-[N] |==|  0.97778
USER: genes 10 Torsion [C]-CA--N-[C] |==|  0.18542
USER: genes 11 Torsion [N]-C--CA-[N] |==|  0.30925
USER: genes 12 Torsion [C]-CA--CB-[CG] |==|  0.54821
USER: genes 13 Torsion [CA]-CB--CG-[CD2] |==|  0.87539
USER: genes 14 Torsion [C]-CA--CB-[CG2] |==|  0.52377
ROOT
ATOM      1  C   VAL D4842     -59.721  24.155  33.264  1.00 57.35 LIG 0.24  C 
ATOM      2 O    VAL D4842     -60.122  24.642  32.199  1.00 61.28 LIG-0.27  OA
ATOM      3  N   VAL D4843     -59.481  24.889  34.342  1.00 52.36 LIG-0.35  N 
ATOM      4 H    VAL D4843     -59.368  24.551  35.125  1.00 52.36 LIG 0.16  HD
ENDROOT
BRANCH 3 5
ATOM      5  CA  VAL D4843     -59.383  26.342  34.317  1.00 37.99 LIG 0.18  C 
BRANCH 5 6
ATOM      6  C   VAL D4843     -59.284  26.737  35.811  1.00 51.29 LIG 0.24  C 
ATOM      7  N   ASN D4844     -58.540  26.002  36.628  1.00 50.43 LIG-0.35  N 
ATOM      8 H    ASN D4844     -58.073  25.318  36.397  1.00 50.43 LIG 0.16  HD
ATOM      9 O    VAL D4843     -59.900  27.724  36.238  1.00 47.22 LIG-0.27  OA
BRANCH 7 10
ATOM     10  CA  ASN D4844     -58.486  26.358  38.054  1.00 46.88 LIG 0.17  C 
BRANCH 10 11
ATOM     11  CB  ASN D4844     -58.063  25.149  38.889  1.00 66.72 LIG 0.14  C 
BRANCH 11 12
ATOM     12  CG  ASN D4844     -56.573  24.881  38.819  1.00 62.42 LIG 0.22  C 
ATOM     13 OD1  ASN D4844     -55.961  24.941  37.750  1.00 56.11 LIG-0.27  OA
ATOM     14  ND2 ASN D4844     -55.980  24.582  39.969  1.00 67.26 LIG-0.37  N 
ATOM     15 21HD ASN D4844     -55.135  24.421  39.988  1.00 67.26 LIG 0.16  HD
ATOM     16 22HD ASN D4844     -56.441  24.549  40.694  1.00 67.26 LIG 0.16  HD
ENDBRANCH 11 12
ENDBRANCH 10 11
BRANCH 10 17
ATOM     17  C   ASN D4844     -57.622  27.582  38.402  1.00 52.57 LIG 0.22  C 
ATOM     18 O    ASN D4844     -57.057  28.247  37.519  1.00 48.91 LIG-0.29  OA
ENDBRANCH 10 17
ENDBRANCH 7 10
ENDBRANCH 5 6
BRANCH 5 19
ATOM     19  CB  VAL D4843     -60.673  26.896  33.637  1.00 37.59 LIG 0.01  C 
ATOM     20  CG1 VAL D4843     -61.920  26.506  34.379  1.00 42.19 LIG 0.01  C 
ATOM     21  CG2 VAL D4843     -60.589  28.414  33.454  1.00 33.91 LIG 0.01  C 
ENDBRANCH 5 19
ENDBRANCH 3 5
BRANCH 1 22
ATOM     22  CA  VAL D4842     -59.517  22.639  33.447  1.00 42.26 LIG 0.18  C 
BRANCH 22 23
ATOM     23  N   VAL D4842     -58.915  22.215  34.715  1.00 51.43 LIG-0.34  N 
ATOM     24 H    VAL D4842     -58.131  21.872  34.632  1.00 51.43 LIG 0.16  HD
ATOM     25  C   LEU D4841     -59.535  22.356  35.885  1.00 54.30 LIG 0.26  C 
ATOM     26 O    LEU D4841     -58.977  22.161  36.963  1.00 66.57 LIG-0.27  OA
BRANCH 25 27
ATOM     27  CA  LEU D4841     -60.985  22.815  35.837  1.00 50.85 LIG 0.40  C 
ATOM     28  N   LEU D4841     -61.884  21.738  36.261  1.00 66.18 LIG 0.61  N 
BRANCH 27 29
ATOM     29  CB  LEU D4841     -61.183  24.048  36.726  1.00 58.40 LIG 0.06  C 
BRANCH 29 30
ATOM     30  CG  LEU D4841     -62.624  24.395  37.120  1.00 54.26 LIG-0.02  C 
ATOM     31  CD2 LEU D4841     -63.601  24.310  35.922  1.00 54.78 LIG 0.01  C 
ATOM     32  CD1 LEU D4841     -62.708  25.762  37.812  1.00 32.44 LIG 0.01  C 
ENDBRANCH 29 30
ENDBRANCH 27 29
ENDBRANCH 25 27
ENDBRANCH 22 23
BRANCH 22 33
ATOM     33  CB  VAL D4842     -60.830  21.870  33.148  1.00 48.47 LIG 0.01  C 
ATOM     34  CG2 VAL D4842     -60.709  20.419  33.520  1.00 42.42 LIG 0.01  C 
ATOM     35  CG1 VAL D4842     -61.165  22.000  31.672  1.00 34.87 LIG 0.01  C 
ENDBRANCH 22 33
ENDBRANCH 1 22
TORSDOF 13
ENDMDL
MODEL 201
USER: ADFR SOLUTION from run 4
USER: SCORE 8.141272 LL:  -2.622 LR:  -6.753 RR:   0.000 FEB:  -2.875
USER: RMSD 7.239589
USER: SEED 655436
USER: STATUS no improvement in best in 11 clusters for 5 generations
USER: GENES 15
USER: genes 0 Translation |==|  0.25431 0.37782 0.27437
USER: genes 1 Rotation |==|  0.42271 0.93911 0.68930 0.62398
USER: genes 2 Torsion [C]-N--CA-[CB] |==|  0.51373
USER: genes 3 Torsion [N]-CA--C-[N] |==|  0.75001
USER: genes 4 Torsion [C]-N--CA-[CB] |==|  0.78256
USER: genes 5 Torsion [N]-CA--CB-[CG] |==|  0.69604
USER: genes 6 Torsion [CA]-CB--CG-[OD1] |==|  0.28746
USER: genes 7 Torsion [N]-CA--C-[O] |==|  0.42922
USER: genes 8 Torsion [N]-CA--CB-[CG2] |==|  0.08225
USER: genes 9 Torsion [N]-C--CA-[N] |==|  0.00761
USER: genes 10 Torsion [C]-CA--N-[C] |==|  0.75734
USER: genes 11 Torsion [N]-C--CA-[N] |==|  0.34361
USER: genes 12 Torsion [C]-CA--CB-[CG] |==|  0.71473
USER: genes 13 Torsion [CA]-CB--CG-[CD2] |==|  0.58136
USER: genes 14 Torsion [C]-CA--CB-[CG2] |==|  0.54972
ROOT
ATOM      1  C   VAL D4842     -62.200  25.551  35.696  1.00 57.35 LIG 0.24  C 
ATOM      2 O    VAL D4842     -62.542  24.894  36.686  1.00 61.28 LIG-0.27  OA
ATOM      3  N   VAL D4843     -61.442  25.048  34.729  1.00 52.36 LIG-0.35  N 
ATOM      4 H    VAL D4843     -61.340  25.431  33.966  1.00 52.36 LIG 0.16  HD
ENDROOT
BRANCH 3 5
ATOM      5  CA  VAL D4843     -60.706  23.799  34.856  1.00 37.99 LIG 0.18  C 
BRANCH 5 6
ATOM      6  C   VAL D4843     -59.840  24.001  36.124  1.00 51.29 LIG 0.24  C 
ATOM      7  N   ASN D4844     -58.625  24.522  36.002  1.00 50.43 LIG-0.35  N 
ATOM      8 H    ASN D4844     -58.269  24.788  35.267  1.00 50.43 LIG 0.16  HD
ATOM      9 O    VAL D4843     -60.275  23.672  37.236  1.00 47.22 LIG-0.27  OA
BRANCH 7 10
ATOM     10  CA  ASN D4844     -57.792  24.670  37.205  1.00 46.88 LIG 0.17  C 
BRANCH 10 11
ATOM     11  CB  ASN D4844     -58.233  25.892  38.010  1.00 66.72 LIG 0.14  C 
BRANCH 11 12
ATOM     12  CG  ASN D4844     -57.226  27.024  37.955  1.00 62.42 LIG 0.22  C 
ATOM     13 OD1  ASN D4844     -57.415  28.016  37.247  1.00 56.11 LIG-0.27  OA
ATOM     14  ND2 ASN D4844     -56.144  26.878  38.711  1.00 67.26 LIG-0.37  N 
ATOM     15 21HD ASN D4844     -55.539  27.491  38.719  1.00 67.26 LIG 0.16  HD
ATOM     16 22HD ASN D4844     -56.047  26.172  39.192  1.00 67.26 LIG 0.16  HD
ENDBRANCH 11 12
ENDBRANCH 10 11
BRANCH 10 17
ATOM     17  C   ASN D4844     -57.705  23.431  38.112  1.00 52.57 LIG 0.22  C 
ATOM     18 O    ASN D4844     -56.729  23.243  38.857  1.00 48.91 LIG-0.29  OA
ENDBRANCH 10 17
ENDBRANCH 7 10
ENDBRANCH 5 6
BRANCH 5 19
ATOM     19  CB  VAL D4843     -59.845  23.619  33.567  1.00 37.59 LIG 0.01  C 
ATOM     20  CG1 VAL D4843     -60.528  22.759  32.541  1.00 42.19 LIG 0.01  C 
ATOM     21  CG2 VAL D4843     -59.448  24.976  32.978  1.00 33.91 LIG 0.01  C 
ENDBRANCH 5 19
ENDBRANCH 3 5
BRANCH 1 22
ATOM     22  CA  VAL D4842     -62.670  27.001  35.469  1.00 42.26 LIG 0.18  C 
BRANCH 22 23
ATOM     23  N   VAL D4842     -62.279  27.617  34.198  1.00 51.43 LIG-0.34  N 
ATOM     24 H    VAL D4842     -62.863  27.529  33.573  1.00 51.43 LIG 0.16  HD
ATOM     25  C   LEU D4841     -61.121  28.255  34.037  1.00 54.30 LIG 0.26  C 
ATOM     26 O    LEU D4841     -60.858  28.916  33.034  1.00 66.57 LIG-0.27  OA
BRANCH 25 27
ATOM     27  CA  LEU D4841     -60.128  28.165  35.187  1.00 50.85 LIG 0.40  C 
ATOM     28  N   LEU D4841     -58.846  27.625  34.723  1.00 66.18 LIG 0.61  N 
BRANCH 27 29
ATOM     29  CB  LEU D4841     -59.921  29.545  35.821  1.00 58.40 LIG 0.06  C 
BRANCH 29 30
ATOM     30  CG  LEU D4841     -58.630  30.289  35.457  1.00 54.26 LIG-0.02  C 
ATOM     31  CD2 LEU D4841     -58.150  31.229  36.589  1.00 54.78 LIG 0.01  C 
ATOM     32  CD1 LEU D4841     -58.767  31.041  34.127  1.00 32.44 LIG 0.01  C 
ENDBRANCH 29 30
ENDBRANCH 27 29
ENDBRANCH 25 27
ENDBRANCH 22 23
BRANCH 22 33
ATOM     33  CB  VAL D4842     -64.194  27.127  35.725  1.00 48.47 LIG 0.01  C 
ATOM     34  CG2 VAL D4842     -64.749  28.382  35.109  1.00 42.42 LIG 0.01  C 
ATOM     35  CG1 VAL D4842     -64.455  27.127  37.222  1.00 34.87 LIG 0.01  C 
ENDBRANCH 22 33
ENDBRANCH 1 22
TORSDOF 13
ENDMDL
MODEL 202
USER: ADFR SOLUTION from run 106
USER: SCORE 8.213622 LL:  -2.240 LR:  -6.749 RR:   0.000 FEB:  -2.871
USER: RMSD 8.288880
USER: SEED 105
USER: STATUS no improvement in best in 22 clusters for 5 generations
USER: GENES 15
USER: genes 0 Translation |==|  0.36476 0.38682 0.31600
USER: genes 1 Rotation |==|  0.90568 0.44629 0.69596 0.71009
USER: genes 2 Torsion [C]-N--CA-[CB] |==|  0.89905
USER: genes 3 Torsion [N]-CA--C-[N] |==|  0.85779
USER: genes 4 Torsion [C]-N--CA-[CB] |==|  0.78461
USER: genes 5 Torsion [N]-CA--CB-[CG] |==|  0.89522
USER: genes 6 Torsion [CA]-CB--CG-[OD1] |==|  0.25258
USER: genes 7 Torsion [N]-CA--C-[O] |==|  0.63940
USER: genes 8 Torsion [N]-CA--CB-[CG2] |==|  0.68178
USER: genes 9 Torsion [N]-C--CA-[N] |==|  0.94219
USER: genes 10 Torsion [C]-CA--N-[C] |==|  0.71669
USER: genes 11 Torsion [N]-C--CA-[N] |==|  0.84607
USER: genes 12 Torsion [C]-CA--CB-[CG] |==|  0.18990
USER: genes 13 Torsion [CA]-CB--CG-[CD2] |==|  0.11761
USER: genes 14 Torsion [C]-CA--CB-[CG2] |==|  0.73926
ROOT
ATOM      1  C   VAL D4842     -59.880  25.700  36.320  1.00 57.35 LIG 0.24  C 
ATOM      2 O    VAL D4842     -60.817  26.383  36.751  1.00 61.28 LIG-0.27  OA
ATOM      3  N   VAL D4843     -59.045  26.136  35.386  1.00 52.36 LIG-0.35  N 
ATOM      4 H    VAL D4843     -58.301  25.746  35.202  1.00 52.36 LIG 0.16  HD
ENDROOT
BRANCH 3 5
ATOM      5  CA  VAL D4843     -59.298  27.317  34.573  1.00 37.99 LIG 0.18  C 
BRANCH 5 6
ATOM      6  C   VAL D4843     -58.821  28.492  35.462  1.00 51.29 LIG 0.24  C 
ATOM      7  N   ASN D4844     -59.264  28.581  36.710  1.00 50.43 LIG-0.35  N 
ATOM      8 H    ASN D4844     -59.788  28.019  37.094  1.00 50.43 LIG 0.16  HD
ATOM      9 O    VAL D4843     -58.043  29.343  35.008  1.00 47.22 LIG-0.27  OA
BRANCH 7 10
ATOM     10  CA  ASN D4844     -58.841  29.724  37.533  1.00 46.88 LIG 0.17  C 
BRANCH 10 11
ATOM     11  CB  ASN D4844     -57.413  29.516  38.040  1.00 66.72 LIG 0.14  C 
BRANCH 11 12
ATOM     12  CG  ASN D4844     -57.126  28.073  38.407  1.00 62.42 LIG 0.22  C 
ATOM     13 OD1  ASN D4844     -56.667  27.281  37.581  1.00 56.11 LIG-0.27  OA
ATOM     14  ND2 ASN D4844     -57.399  27.725  39.659  1.00 67.26 LIG-0.37  N 
ATOM     15 21HD ASN D4844     -57.255  26.918  39.922  1.00 67.26 LIG 0.16  HD
ATOM     16 22HD ASN D4844     -57.719  28.306  40.207  1.00 67.26 LIG 0.16  HD
ENDBRANCH 11 12
ENDBRANCH 10 11
BRANCH 10 17
ATOM     17  C   ASN D4844     -58.983  31.108  36.877  1.00 52.57 LIG 0.22  C 
ATOM     18 O    ASN D4844     -58.041  31.916  36.863  1.00 48.91 LIG-0.29  OA
ENDBRANCH 10 17
ENDBRANCH 7 10
ENDBRANCH 5 6
BRANCH 5 19
ATOM     19  CB  VAL D4843     -60.829  27.374  34.278  1.00 37.59 LIG 0.01  C 
ATOM     20  CG1 VAL D4843     -61.463  28.633  34.798  1.00 42.19 LIG 0.01  C 
ATOM     21  CG2 VAL D4843     -61.107  27.191  32.783  1.00 33.91 LIG 0.01  C 
ENDBRANCH 5 19
ENDBRANCH 3 5
BRANCH 1 22
ATOM     22  CA  VAL D4842     -59.566  24.296  36.873  1.00 42.26 LIG 0.18  C 
BRANCH 22 23
ATOM     23  N   VAL D4842     -58.733  23.438  36.025  1.00 51.43 LIG-0.34  N 
ATOM     24 H    VAL D4842     -57.895  23.627  36.053  1.00 51.43 LIG 0.16  HD
ATOM     25  C   LEU D4841     -59.239  22.455  35.282  1.00 54.30 LIG 0.26  C 
ATOM     26 O    LEU D4841     -58.538  21.628  34.703  1.00 66.57 LIG-0.27  OA
BRANCH 25 27
ATOM     27  CA  LEU D4841     -60.757  22.370  35.209  1.00 50.85 LIG 0.40  C 
ATOM     28  N   LEU D4841     -61.337  22.283  36.553  1.00 66.18 LIG 0.61  N 
BRANCH 27 29
ATOM     29  CB  LEU D4841     -61.324  23.588  34.469  1.00 58.40 LIG 0.06  C 
BRANCH 29 30
ATOM     30  CG  LEU D4841     -61.025  23.688  32.968  1.00 54.26 LIG-0.02  C 
ATOM     31  CD2 LEU D4841     -61.171  22.328  32.244  1.00 54.78 LIG 0.01  C 
ATOM     32  CD1 LEU D4841     -59.648  24.314  32.707  1.00 32.44 LIG 0.01  C 
ENDBRANCH 29 30
ENDBRANCH 27 29
ENDBRANCH 25 27
ENDBRANCH 22 23
BRANCH 22 33
ATOM     33  CB  VAL D4842     -59.013  24.388  38.318  1.00 48.47 LIG 0.01  C 
ATOM     34  CG2 VAL D4842     -57.510  24.419  38.326  1.00 42.42 LIG 0.01  C 
ATOM     35  CG1 VAL D4842     -59.510  23.201  39.125  1.00 34.87 LIG 0.01  C 
ENDBRANCH 22 33
ENDBRANCH 1 22
TORSDOF 13
ENDMDL
MODEL 203
USER: ADFR SOLUTION from run 108
USER: SCORE 8.609556 LL:  -2.903 LR:  -6.736 RR:   0.000 FEB:  -2.858
USER: RMSD 6.587687
USER: SEED 107
USER: STATUS no improvement in best in 34 clusters for 5 generations
USER: GENES 15
USER: genes 0 Translation |==|  0.41634 0.24701 0.27498
USER: genes 1 Rotation |==|  0.40942 0.25374 0.09001 0.61429
USER: genes 2 Torsion [C]-N--CA-[CB] |==|  0.22643
USER: genes 3 Torsion [N]-CA--C-[N] |==|  0.00009
USER: genes 4 Torsion [C]-N--CA-[CB] |==|  0.25196
USER: genes 5 Torsion [N]-CA--CB-[CG] |==|  0.10573
USER: genes 6 Torsion [CA]-CB--CG-[OD1] |==|  0.21567
USER: genes 7 Torsion [N]-CA--C-[O] |==|  0.01498
USER: genes 8 Torsion [N]-CA--CB-[CG2] |==|  0.08433
USER: genes 9 Torsion [N]-C--CA-[N] |==|  0.84209
USER: genes 10 Torsion [C]-CA--N-[C] |==|  0.62520
USER: genes 11 Torsion [N]-C--CA-[N] |==|  0.42741
USER: genes 12 Torsion [C]-CA--CB-[CG] |==|  0.38766
USER: genes 13 Torsion [CA]-CB--CG-[CD2] |==|  0.95039
USER: genes 14 Torsion [C]-CA--CB-[CG2] |==|  0.10300
ROOT
ATOM      1  C   VAL D4842     -58.797  23.393  35.705  1.00 57.35 LIG 0.24  C 
ATOM      2 O    VAL D4842     -58.541  22.258  35.285  1.00 61.28 LIG-0.27  OA
ATOM      3  N   VAL D4843     -59.414  24.307  34.968  1.00 52.36 LIG-0.35  N 
ATOM      4 H    VAL D4843     -59.746  25.029  35.297  1.00 52.36 LIG 0.16  HD
ENDROOT
BRANCH 3 5
ATOM      5  CA  VAL D4843     -59.597  24.187  33.529  1.00 37.99 LIG 0.18  C 
BRANCH 5 6
ATOM      6  C   VAL D4843     -59.837  25.642  33.058  1.00 51.29 LIG 0.24  C 
ATOM      7  N   ASN D4844     -59.831  26.622  33.953  1.00 50.43 LIG-0.35  N 
ATOM      8 H    ASN D4844     -59.680  26.527  34.794  1.00 50.43 LIG 0.16  HD
ATOM      9 O    VAL D4843     -60.040  25.885  31.859  1.00 47.22 LIG-0.27  OA
BRANCH 7 10
ATOM     10  CA  ASN D4844     -60.102  27.996  33.504  1.00 46.88 LIG 0.17  C 
BRANCH 10 11
ATOM     11  CB  ASN D4844     -61.599  28.297  33.587  1.00 66.72 LIG 0.14  C 
BRANCH 11 12
ATOM     12  CG  ASN D4844     -62.254  27.680  34.808  1.00 62.42 LIG 0.22  C 
ATOM     13 OD1  ASN D4844     -62.130  28.186  35.925  1.00 56.11 LIG-0.27  OA
ATOM     14  ND2 ASN D4844     -62.959  26.576  34.595  1.00 67.26 LIG-0.37  N 
ATOM     15 21HD ASN D4844     -63.353  26.184  35.251  1.00 67.26 LIG 0.16  HD
ATOM     16 22HD ASN D4844     -63.022  26.252  33.800  1.00 67.26 LIG 0.16  HD
ENDBRANCH 11 12
ENDBRANCH 10 11
BRANCH 10 17
ATOM     17  C   ASN D4844     -59.291  29.098  34.205  1.00 52.57 LIG 0.22  C 
ATOM     18 O    ASN D4844     -58.394  28.822  35.019  1.00 48.91 LIG-0.29  OA
ENDBRANCH 10 17
ENDBRANCH 7 10
ENDBRANCH 5 6
BRANCH 5 19
ATOM     19  CB  VAL D4843     -60.833  23.267  33.280  1.00 37.59 LIG 0.01  C 
ATOM     20  CG1 VAL D4843     -60.442  21.833  33.061  1.00 42.19 LIG 0.01  C 
ATOM     21  CG2 VAL D4843     -61.851  23.397  34.417  1.00 33.91 LIG 0.01  C 
ENDBRANCH 5 19
ENDBRANCH 3 5
BRANCH 1 22
ATOM     22  CA  VAL D4842     -58.468  23.828  37.146  1.00 42.26 LIG 0.18  C 
BRANCH 22 23
ATOM     23  N   VAL D4842     -57.653  25.039  37.286  1.00 51.43 LIG-0.34  N 
ATOM     24 H    VAL D4842     -57.901  25.688  36.779  1.00 51.43 LIG 0.16  HD
ATOM     25  C   LEU D4841     -56.623  25.116  38.126  1.00 54.30 LIG 0.26  C 
ATOM     26 O    LEU D4841     -56.041  26.171  38.373  1.00 66.57 LIG-0.27  OA
BRANCH 25 27
ATOM     27  CA  LEU D4841     -56.207  23.824  38.815  1.00 50.85 LIG 0.40  C 
ATOM     28  N   LEU D4841     -54.790  23.867  39.185  1.00 66.18 LIG 0.61  N 
BRANCH 27 29
ATOM     29  CB  LEU D4841     -57.070  23.583  40.060  1.00 58.40 LIG 0.06  C 
BRANCH 29 30
ATOM     30  CG  LEU D4841     -57.525  22.142  40.320  1.00 54.26 LIG-0.02  C 
ATOM     31  CD2 LEU D4841     -57.408  21.249  39.061  1.00 54.78 LIG 0.01  C 
ATOM     32  CD1 LEU D4841     -58.941  22.094  40.909  1.00 32.44 LIG 0.01  C 
ENDBRANCH 29 30
ENDBRANCH 27 29
ENDBRANCH 25 27
ENDBRANCH 22 23
BRANCH 22 33
ATOM     33  CB  VAL D4842     -59.757  23.900  38.003  1.00 48.47 LIG 0.01  C 
ATOM     34  CG2 VAL D4842     -60.715  22.799  37.642  1.00 42.42 LIG 0.01  C 
ATOM     35  CG1 VAL D4842     -60.422  25.251  37.801  1.00 34.87 LIG 0.01  C 
ENDBRANCH 22 33
ENDBRANCH 1 22
TORSDOF 13
ENDMDL
MODEL 204
USER: ADFR SOLUTION from run 94
USER: SCORE 8.454536 LL:  -2.903 LR:  -6.737 RR:   0.000 FEB:  -2.859
USER: RMSD 4.960215
USER: SEED 93
USER: STATUS no improvement in best in 16 clusters for 5 generations
USER: GENES 15
USER: genes 0 Translation |==|  0.46387 0.50085 0.39863
USER: genes 1 Rotation |==|  0.43056 0.10308 0.46804 0.79430
USER: genes 2 Torsion [C]-N--CA-[CB] |==|  0.26109
USER: genes 3 Torsion [N]-CA--C-[N] |==|  0.28959
USER: genes 4 Torsion [C]-N--CA-[CB] |==|  0.27132
USER: genes 5 Torsion [N]-CA--CB-[CG] |==|  0.15668
USER: genes 6 Torsion [CA]-CB--CG-[OD1] |==|  0.16282
USER: genes 7 Torsion [N]-CA--C-[O] |==|  0.52923
USER: genes 8 Torsion [N]-CA--CB-[CG2] |==|  0.77128
USER: genes 9 Torsion [N]-C--CA-[N] |==|  0.44348
USER: genes 10 Torsion [C]-CA--N-[C] |==|  0.79632
USER: genes 11 Torsion [N]-C--CA-[N] |==|  0.43570
USER: genes 12 Torsion [C]-CA--CB-[CG] |==|  0.39236
USER: genes 13 Torsion [CA]-CB--CG-[CD2] |==|  0.05505
USER: genes 14 Torsion [C]-CA--CB-[CG2] |==|  0.24337
ROOT
ATOM      1  C   VAL D4842     -57.799  27.581  37.559  1.00 57.35 LIG 0.24  C 
ATOM      2 O    VAL D4842     -56.570  27.527  37.695  1.00 61.28 LIG-0.27  OA
ATOM      3  N   VAL D4843     -58.557  26.497  37.456  1.00 52.36 LIG-0.35  N 
ATOM      4 H    VAL D4843     -59.413  26.515  37.532  1.00 52.36 LIG 0.16  HD
ENDROOT
BRANCH 3 5
ATOM      5  CA  VAL D4843     -58.023  25.167  37.205  1.00 37.99 LIG 0.18  C 
BRANCH 5 6
ATOM      6  C   VAL D4843     -59.114  24.480  36.347  1.00 51.29 LIG 0.24  C 
ATOM      7  N   ASN D4844     -58.915  24.332  35.043  1.00 50.43 LIG-0.35  N 
ATOM      8 H    ASN D4844     -58.206  24.567  34.618  1.00 50.43 LIG 0.16  HD
ATOM      9 O    VAL D4843     -60.164  24.083  36.872  1.00 47.22 LIG-0.27  OA
BRANCH 7 10
ATOM     10  CA  ASN D4844     -59.974  23.719  34.228  1.00 46.88 LIG 0.17  C 
BRANCH 10 11
ATOM     11  CB  ASN D4844     -60.812  24.799  33.545  1.00 66.72 LIG 0.14  C 
BRANCH 11 12
ATOM     12  CG  ASN D4844     -59.979  25.738  32.695  1.00 62.42 LIG 0.22  C 
ATOM     13 OD1  ASN D4844     -59.290  25.318  31.763  1.00 56.11 LIG-0.27  OA
ATOM     14  ND2 ASN D4844     -60.041  27.025  33.018  1.00 67.26 LIG-0.37  N 
ATOM     15 21HD ASN D4844     -59.588  27.603  32.569  1.00 67.26 LIG 0.16  HD
ATOM     16 22HD ASN D4844     -60.533  27.280  33.676  1.00 67.26 LIG 0.16  HD
ENDBRANCH 11 12
ENDBRANCH 10 11
BRANCH 10 17
ATOM     17  C   ASN D4844     -59.504  22.673  33.203  1.00 52.57 LIG 0.22  C 
ATOM     18 O    ASN D4844     -60.271  22.231  32.332  1.00 48.91 LIG-0.29  OA
ENDBRANCH 10 17
ENDBRANCH 7 10
ENDBRANCH 5 6
BRANCH 5 19
ATOM     19  CB  VAL D4843     -57.820  24.466  38.584  1.00 37.59 LIG 0.01  C 
ATOM     20  CG1 VAL D4843     -57.920  22.970  38.483  1.00 42.19 LIG 0.01  C 
ATOM     21  CG2 VAL D4843     -56.496  24.890  39.226  1.00 33.91 LIG 0.01  C 
ENDBRANCH 5 19
ENDBRANCH 3 5
BRANCH 1 22
ATOM     22  CA  VAL D4842     -58.565  28.918  37.553  1.00 42.26 LIG 0.18  C 
BRANCH 22 23
ATOM     23  N   VAL D4842     -57.858  30.073  38.114  1.00 51.43 LIG-0.34  N 
ATOM     24 H    VAL D4842     -57.587  30.636  37.524  1.00 51.43 LIG 0.16  HD
ATOM     25  C   LEU D4841     -57.658  30.225  39.422  1.00 54.30 LIG 0.26  C 
ATOM     26 O    LEU D4841     -57.218  31.262  39.913  1.00 66.57 LIG-0.27  OA
BRANCH 25 27
ATOM     27  CA  LEU D4841     -58.042  29.051  40.310  1.00 50.85 LIG 0.40  C 
ATOM     28  N   LEU D4841     -57.305  29.096  41.577  1.00 66.18 LIG 0.61  N 
BRANCH 27 29
ATOM     29  CB  LEU D4841     -59.552  29.056  40.578  1.00 58.40 LIG 0.06  C 
BRANCH 29 30
ATOM     30  CG  LEU D4841     -60.257  27.694  40.600  1.00 54.26 LIG-0.02  C 
ATOM     31  CD2 LEU D4841     -59.273  26.523  40.831  1.00 54.78 LIG 0.01  C 
ATOM     32  CD1 LEU D4841     -61.101  27.475  39.337  1.00 32.44 LIG 0.01  C 
ENDBRANCH 29 30
ENDBRANCH 27 29
ENDBRANCH 25 27
ENDBRANCH 22 23
BRANCH 22 33
ATOM     33  CB  VAL D4842     -59.128  29.219  36.141  1.00 48.47 LIG 0.01  C 
ATOM     34  CG2 VAL D4842     -60.485  28.599  35.950  1.00 42.42 LIG 0.01  C 
ATOM     35  CG1 VAL D4842     -58.165  28.689  35.091  1.00 34.87 LIG 0.01  C 
ENDBRANCH 22 33
ENDBRANCH 1 22
TORSDOF 13
ENDMDL
MODEL 205
USER: ADFR SOLUTION from run 90
USER: SCORE 8.678302 LL:  -3.299 LR:  -6.745 RR:   0.000 FEB:  -2.867
USER: RMSD 7.920204
USER: SEED 89
USER: STATUS no improvement in best in 17 clusters for 5 generations
USER: GENES 15
USER: genes 0 Translation |==|  0.35976 0.45473 0.28503
USER: genes 1 Rotation |==|  0.91118 0.22396 0.53320 0.56026
USER: genes 2 Torsion [C]-N--CA-[CB] |==|  0.85000
USER: genes 3 Torsion [N]-CA--C-[N] |==|  0.06372
USER: genes 4 Torsion [C]-N--CA-[CB] |==|  0.25093
USER: genes 5 Torsion [N]-CA--CB-[CG] |==|  0.14579
USER: genes 6 Torsion [CA]-CB--CG-[OD1] |==|  0.17318
USER: genes 7 Torsion [N]-CA--C-[O] |==|  0.12589
USER: genes 8 Torsion [N]-CA--CB-[CG2] |==|  0.84846
USER: genes 9 Torsion [N]-C--CA-[N] |==|  0.38965
USER: genes 10 Torsion [C]-CA--N-[C] |==|  0.73166
USER: genes 11 Torsion [N]-C--CA-[N] |==|  0.34891
USER: genes 12 Torsion [C]-CA--CB-[CG] |==|  0.22559
USER: genes 13 Torsion [CA]-CB--CG-[CD2] |==|  0.11697
USER: genes 14 Torsion [C]-CA--CB-[CG2] |==|  0.20015
ROOT
ATOM      1  C   VAL D4842     -59.985  26.820  35.855  1.00 57.35 LIG 0.24  C 
ATOM      2 O    VAL D4842     -60.317  27.218  36.979  1.00 61.28 LIG-0.27  OA
ATOM      3  N   VAL D4843     -58.859  27.199  35.264  1.00 52.36 LIG-0.35  N 
ATOM      4 H    VAL D4843     -58.539  26.806  34.570  1.00 52.36 LIG 0.16  HD
ENDROOT
BRANCH 3 5
ATOM      5  CA  VAL D4843     -58.049  28.317  35.726  1.00 37.99 LIG 0.18  C 
BRANCH 5 6
ATOM      6  C   VAL D4843     -57.533  27.859  37.112  1.00 51.29 LIG 0.24  C 
ATOM      7  N   ASN D4844     -57.477  26.562  37.387  1.00 50.43 LIG-0.35  N 
ATOM      8 H    ASN D4844     -57.684  25.929  36.843  1.00 50.43 LIG 0.16  HD
ATOM      9 O    VAL D4843     -57.185  28.697  37.957  1.00 47.22 LIG-0.27  OA
BRANCH 7 10
ATOM     10  CA  ASN D4844     -57.027  26.137  38.720  1.00 46.88 LIG 0.17  C 
BRANCH 10 11
ATOM     11  CB  ASN D4844     -58.218  26.015  39.670  1.00 66.72 LIG 0.14  C 
BRANCH 11 12
ATOM     12  CG  ASN D4844     -59.327  25.145  39.112  1.00 62.42 LIG 0.22  C 
ATOM     13 OD1  ASN D4844     -59.141  23.952  38.865  1.00 56.11 LIG-0.27  OA
ATOM     14  ND2 ASN D4844     -60.494  25.746  38.910  1.00 67.26 LIG-0.37  N 
ATOM     15 21HD ASN D4844     -61.159  25.300  38.595  1.00 67.26 LIG 0.16  HD
ATOM     16 22HD ASN D4844     -60.585  26.581  39.095  1.00 67.26 LIG 0.16  HD
ENDBRANCH 11 12
ENDBRANCH 10 11
BRANCH 10 17
ATOM     17  C   ASN D4844     -56.174  24.857  38.759  1.00 52.57 LIG 0.22  C 
ATOM     18 O    ASN D4844     -55.245  24.674  37.955  1.00 48.91 LIG-0.29  OA
ENDBRANCH 10 17
ENDBRANCH 7 10
ENDBRANCH 5 6
BRANCH 5 19
ATOM     19  CB  VAL D4843     -58.973  29.571  35.817  1.00 37.59 LIG 0.01  C 
ATOM     20  CG1 VAL D4843     -58.232  30.793  36.282  1.00 42.19 LIG 0.01  C 
ATOM     21  CG2 VAL D4843     -59.684  29.827  34.485  1.00 33.91 LIG 0.01  C 
ENDBRANCH 5 19
ENDBRANCH 3 5
BRANCH 1 22
ATOM     22  CA  VAL D4842     -60.828  25.802  35.063  1.00 42.26 LIG 0.18  C 
BRANCH 22 23
ATOM     23  N   VAL D4842     -61.461  24.737  35.846  1.00 51.43 LIG-0.34  N 
ATOM     24 H    VAL D4842     -62.209  24.965  36.206  1.00 51.43 LIG 0.16  HD
ATOM     25  C   LEU D4841     -60.920  23.528  35.982  1.00 54.30 LIG 0.26  C 
ATOM     26 O    LEU D4841     -61.518  22.583  36.491  1.00 66.57 LIG-0.27  OA
BRANCH 25 27
ATOM     27  CA  LEU D4841     -59.512  23.347  35.433  1.00 50.85 LIG 0.40  C 
ATOM     28  N   LEU D4841     -58.615  22.823  36.467  1.00 66.18 LIG 0.61  N 
BRANCH 27 29
ATOM     29  CB  LEU D4841     -59.529  22.405  34.223  1.00 58.40 LIG 0.06  C 
BRANCH 29 30
ATOM     30  CG  LEU D4841     -59.928  23.015  32.874  1.00 54.26 LIG-0.02  C 
ATOM     31  CD2 LEU D4841     -59.290  24.406  32.642  1.00 54.78 LIG 0.01  C 
ATOM     32  CD1 LEU D4841     -61.452  23.065  32.705  1.00 32.44 LIG 0.01  C 
ENDBRANCH 29 30
ENDBRANCH 27 29
ENDBRANCH 25 27
ENDBRANCH 22 23
BRANCH 22 33
ATOM     33  CB  VAL D4842     -61.849  26.530  34.151  1.00 48.47 LIG 0.01  C 
ATOM     34  CG2 VAL D4842     -61.165  27.191  32.986  1.00 42.42 LIG 0.01  C 
ATOM     35  CG1 VAL D4842     -62.602  27.568  34.965  1.00 34.87 LIG 0.01  C 
ENDBRANCH 22 33
ENDBRANCH 1 22
TORSDOF 13
ENDMDL
MODEL 206
USER: ADFR SOLUTION from run 199
USER: SCORE 8.949695 LL:  -2.765 LR:  -6.733 RR:   0.000 FEB:  -2.855
USER: RMSD 8.130766
USER: SEED 198
USER: STATUS no improvement in best in 15 clusters for 5 generations
USER: GENES 15
USER: genes 0 Translation |==|  0.38885 0.41688 0.31497
USER: genes 1 Rotation |==|  0.97221 0.35834 0.57902 0.52662
USER: genes 2 Torsion [C]-N--CA-[CB] |==|  0.89444
USER: genes 3 Torsion [N]-CA--C-[N] |==|  0.88138
USER: genes 4 Torsion [C]-N--CA-[CB] |==|  0.34249
USER: genes 5 Torsion [N]-CA--CB-[CG] |==|  0.87607
USER: genes 6 Torsion [CA]-CB--CG-[OD1] |==|  0.21741
USER: genes 7 Torsion [N]-CA--C-[O] |==|  0.10332
USER: genes 8 Torsion [N]-CA--CB-[CG2] |==|  0.78017
USER: genes 9 Torsion [N]-C--CA-[N] |==|  0.93860
USER: genes 10 Torsion [C]-CA--N-[C] |==|  0.78050
USER: genes 11 Torsion [N]-C--CA-[N] |==|  0.40243
USER: genes 12 Torsion [C]-CA--CB-[CG] |==|  0.08718
USER: genes 13 Torsion [CA]-CB--CG-[CD2] |==|  0.70888
USER: genes 14 Torsion [C]-CA--CB-[CG2] |==|  0.32994
ROOT
ATOM      1  C   VAL D4842     -59.374  26.196  36.305  1.00 57.35 LIG 0.24  C 
ATOM      2 O    VAL D4842     -60.023  26.276  37.355  1.00 61.28 LIG-0.27  OA
ATOM      3  N   VAL D4843     -58.607  27.182  35.859  1.00 52.36 LIG-0.35  N 
ATOM      4 H    VAL D4843     -58.027  27.079  35.232  1.00 52.36 LIG 0.16  HD
ENDROOT
BRANCH 3 5
ATOM      5  CA  VAL D4843     -58.663  28.539  36.382  1.00 37.99 LIG 0.18  C 
BRANCH 5 6
ATOM      6  C   VAL D4843     -57.801  28.482  37.668  1.00 51.29 LIG 0.24  C 
ATOM      7  N   ASN D4844     -57.926  27.445  38.486  1.00 50.43 LIG-0.35  N 
ATOM      8 H    ASN D4844     -58.439  26.767  38.356  1.00 50.43 LIG 0.16  HD
ATOM      9 O    VAL D4843     -57.011  29.400  37.931  1.00 47.22 LIG-0.27  OA
BRANCH 7 10
ATOM     10  CA  ASN D4844     -57.136  27.419  39.726  1.00 46.88 LIG 0.17  C 
BRANCH 10 11
ATOM     11  CB  ASN D4844     -58.055  27.276  40.939  1.00 66.72 LIG 0.14  C 
BRANCH 11 12
ATOM     12  CG  ASN D4844     -59.268  28.183  40.866  1.00 62.42 LIG 0.22  C 
ATOM     13 OD1  ASN D4844     -60.238  27.900  40.161  1.00 56.11 LIG-0.27  OA
ATOM     14  ND2 ASN D4844     -59.215  29.287  41.602  1.00 67.26 LIG-0.37  N 
ATOM     15 21HD ASN D4844     -59.875  29.838  41.599  1.00 67.26 LIG 0.16  HD
ATOM     16 22HD ASN D4844     -58.519  29.451  42.081  1.00 67.26 LIG 0.16  HD
ENDBRANCH 11 12
ENDBRANCH 10 11
BRANCH 10 17
ATOM     17  C   ASN D4844     -56.010  26.372  39.776  1.00 52.57 LIG 0.22  C 
ATOM     18 O    ASN D4844     -55.336  26.099  38.770  1.00 48.91 LIG-0.29  OA
ENDBRANCH 10 17
ENDBRANCH 7 10
ENDBRANCH 5 6
BRANCH 5 19
ATOM     19  CB  VAL D4843     -60.157  28.875  36.680  1.00 37.59 LIG 0.01  C 
ATOM     20  CG1 VAL D4843     -60.304  29.948  37.721  1.00 42.19 LIG 0.01  C 
ATOM     21  CG2 VAL D4843     -60.904  29.245  35.394  1.00 33.91 LIG 0.01  C 
ENDBRANCH 5 19
ENDBRANCH 3 5
BRANCH 1 22
ATOM     22  CA  VAL D4842     -59.357  24.916  35.446  1.00 42.26 LIG 0.18  C 
BRANCH 22 23
ATOM     23  N   VAL D4842     -58.945  25.080  34.048  1.00 51.43 LIG-0.34  N 
ATOM     24 H    VAL D4842     -58.131  24.846  33.895  1.00 51.43 LIG 0.16  HD
ATOM     25  C   LEU D4841     -59.764  25.550  33.109  1.00 54.30 LIG 0.26  C 
ATOM     26 O    LEU D4841     -59.485  25.534  31.912  1.00 66.57 LIG-0.27  OA
BRANCH 25 27
ATOM     27  CA  LEU D4841     -61.107  26.085  33.584  1.00 50.85 LIG 0.40  C 
ATOM     28  N   LEU D4841     -61.526  27.230  32.770  1.00 66.18 LIG 0.61  N 
BRANCH 27 29
ATOM     29  CB  LEU D4841     -62.171  24.981  33.526  1.00 58.40 LIG 0.06  C 
BRANCH 29 30
ATOM     30  CG  LEU D4841     -61.692  23.544  33.763  1.00 54.26 LIG-0.02  C 
ATOM     31  CD2 LEU D4841     -61.622  22.721  32.454  1.00 54.78 LIG 0.01  C 
ATOM     32  CD1 LEU D4841     -62.542  22.833  34.825  1.00 32.44 LIG 0.01  C 
ENDBRANCH 29 30
ENDBRANCH 27 29
ENDBRANCH 25 27
ENDBRANCH 22 23
BRANCH 22 33
ATOM     33  CB  VAL D4842     -58.558  23.793  36.154  1.00 48.47 LIG 0.01  C 
ATOM     34  CG2 VAL D4842     -59.428  22.599  36.436  1.00 42.42 LIG 0.01  C 
ATOM     35  CG1 VAL D4842     -57.977  24.328  37.451  1.00 34.87 LIG 0.01  C 
ENDBRANCH 22 33
ENDBRANCH 1 22
TORSDOF 13
ENDMDL
MODEL 207
USER: ADFR SOLUTION from run 66
USER: SCORE 8.573671 LL:  -2.712 LR:  -6.729 RR:   0.000 FEB:  -2.851
USER: RMSD 7.616559
USER: SEED 65
USER: STATUS no improvement in best in 29 clusters for 5 generations
USER: GENES 15
USER: genes 0 Translation |==|  0.32506 0.36463 0.27311
USER: genes 1 Rotation |==|  0.24207 0.19856 0.35943 0.76991
USER: genes 2 Torsion [C]-N--CA-[CB] |==|  0.49005
USER: genes 3 Torsion [N]-CA--C-[N] |==|  0.40756
USER: genes 4 Torsion [C]-N--CA-[CB] |==|  0.81538
USER: genes 5 Torsion [N]-CA--CB-[CG] |==|  0.85677
USER: genes 6 Torsion [CA]-CB--CG-[OD1] |==|  0.31311
USER: genes 7 Torsion [N]-CA--C-[O] |==|  0.07434
USER: genes 8 Torsion [N]-CA--CB-[CG2] |==|  0.24388
USER: genes 9 Torsion [N]-C--CA-[N] |==|  0.41112
USER: genes 10 Torsion [C]-CA--N-[C] |==|  0.64179
USER: genes 11 Torsion [N]-C--CA-[N] |==|  0.41368
USER: genes 12 Torsion [C]-CA--CB-[CG] |==|  0.93672
USER: genes 13 Torsion [CA]-CB--CG-[CD2] |==|  0.70550
USER: genes 14 Torsion [C]-CA--CB-[CG2] |==|  0.22993
ROOT
ATOM      1  C   VAL D4842     -60.714  25.333  35.677  1.00 57.35 LIG 0.24  C 
ATOM      2 O    VAL D4842     -60.031  24.303  35.720  1.00 61.28 LIG-0.27  OA
ATOM      3  N   VAL D4843     -62.036  25.323  35.787  1.00 52.36 LIG-0.35  N 
ATOM      4 H    VAL D4843     -62.501  26.032  35.927  1.00 52.36 LIG 0.16  HD
ENDROOT
BRANCH 3 5
ATOM      5  CA  VAL D4843     -62.839  24.113  35.682  1.00 37.99 LIG 0.18  C 
BRANCH 5 6
ATOM      6  C   VAL D4843     -62.610  23.636  34.227  1.00 51.29 LIG 0.24  C 
ATOM      7  N   ASN D4844     -62.604  22.335  33.965  1.00 50.43 LIG-0.35  N 
ATOM      8 H    ASN D4844     -62.742  21.710  34.540  1.00 50.43 LIG 0.16  HD
ATOM      9 O    VAL D4843     -62.428  24.461  33.320  1.00 47.22 LIG-0.27  OA
BRANCH 7 10
ATOM     10  CA  ASN D4844     -62.343  21.888  32.589  1.00 46.88 LIG 0.17  C 
BRANCH 10 11
ATOM     11  CB  ASN D4844     -63.484  22.317  31.665  1.00 66.72 LIG 0.14  C 
BRANCH 11 12
ATOM     12  CG  ASN D4844     -64.847  21.913  32.191  1.00 62.42 LIG 0.22  C 
ATOM     13 OD1  ASN D4844     -65.666  22.756  32.562  1.00 56.11 LIG-0.27  OA
ATOM     14  ND2 ASN D4844     -65.096  20.608  32.223  1.00 67.26 LIG-0.37  N 
ATOM     15 21HD ASN D4844     -65.854  20.322  32.511  1.00 67.26 LIG 0.16  HD
ATOM     16 22HD ASN D4844     -64.499  20.050  31.955  1.00 67.26 LIG 0.16  HD
ENDBRANCH 11 12
ENDBRANCH 10 11
BRANCH 10 17
ATOM     17  C   ASN D4844     -60.986  22.306  31.998  1.00 52.57 LIG 0.22  C 
ATOM     18 O    ASN D4844     -60.004  22.523  32.726  1.00 48.91 LIG-0.29  OA
ENDBRANCH 10 17
ENDBRANCH 7 10
ENDBRANCH 5 6
BRANCH 5 19
ATOM     19  CB  VAL D4843     -64.325  24.501  35.957  1.00 37.59 LIG 0.01  C 
ATOM     20  CG1 VAL D4843     -64.452  25.549  37.027  1.00 42.19 LIG 0.01  C 
ATOM     21  CG2 VAL D4843     -65.026  24.938  34.667  1.00 33.91 LIG 0.01  C 
ENDBRANCH 5 19
ENDBRANCH 3 5
BRANCH 1 22
ATOM     22  CA  VAL D4842     -60.081  26.732  35.545  1.00 42.26 LIG 0.18  C 
BRANCH 22 23
ATOM     23  N   VAL D4842     -58.744  26.895  36.125  1.00 51.43 LIG-0.34  N 
ATOM     24 H    VAL D4842     -58.179  26.297  35.874  1.00 51.43 LIG 0.16  HD
ATOM     25  C   LEU D4841     -58.443  27.884  36.964  1.00 54.30 LIG 0.26  C 
ATOM     26 O    LEU D4841     -57.293  28.128  37.323  1.00 66.57 LIG-0.27  OA
BRANCH 25 27
ATOM     27  CA  LEU D4841     -59.602  28.747  37.444  1.00 50.85 LIG 0.40  C 
ATOM     28  N   LEU D4841     -59.350  29.247  38.799  1.00 66.18 LIG 0.61  N 
BRANCH 27 29
ATOM     29  CB  LEU D4841     -59.826  29.920  36.482  1.00 58.40 LIG 0.06  C 
BRANCH 29 30
ATOM     30  CG  LEU D4841     -58.635  30.342  35.613  1.00 54.26 LIG-0.02  C 
ATOM     31  CD2 LEU D4841     -57.993  31.666  36.092  1.00 54.78 LIG 0.01  C 
ATOM     32  CD1 LEU D4841     -59.015  30.411  34.128  1.00 32.44 LIG 0.01  C 
ENDBRANCH 29 30
ENDBRANCH 27 29
ENDBRANCH 25 27
ENDBRANCH 22 23
BRANCH 22 33
ATOM     33  CB  VAL D4842     -60.132  27.219  34.074  1.00 48.47 LIG 0.01  C 
ATOM     34  CG2 VAL D4842     -61.469  27.824  33.746  1.00 42.42 LIG 0.01  C 
ATOM     35  CG1 VAL D4842     -59.851  26.049  33.145  1.00 34.87 LIG 0.01  C 
ENDBRANCH 22 33
ENDBRANCH 1 22
TORSDOF 13
ENDMDL
MODEL 208
USER: ADFR SOLUTION from run 120
USER: SCORE 8.930822 LL:  -2.670 LR:  -6.723 RR:   0.000 FEB:  -2.846
USER: RMSD 9.180135
USER: SEED 119
USER: STATUS no improvement in best in 32 clusters for 5 generations
USER: GENES 15
USER: genes 0 Translation |==|  0.37773 0.25750 0.26370
USER: genes 1 Rotation |==|  0.04955 0.68856 0.49255 0.60719
USER: genes 2 Torsion [C]-N--CA-[CB] |==|  0.89405
USER: genes 3 Torsion [N]-CA--C-[N] |==|  0.36815
USER: genes 4 Torsion [C]-N--CA-[CB] |==|  0.42112
USER: genes 5 Torsion [N]-CA--CB-[CG] |==|  0.59108
USER: genes 6 Torsion [CA]-CB--CG-[OD1] |==|  0.33332
USER: genes 7 Torsion [N]-CA--C-[O] |==|  0.50212
USER: genes 8 Torsion [N]-CA--CB-[CG2] |==|  0.70187
USER: genes 9 Torsion [N]-C--CA-[N] |==|  0.95361
USER: genes 10 Torsion [C]-CA--N-[C] |==|  0.80362
USER: genes 11 Torsion [N]-C--CA-[N] |==|  0.45486
USER: genes 12 Torsion [C]-CA--CB-[CG] |==|  0.40616
USER: genes 13 Torsion [CA]-CB--CG-[CD2] |==|  0.05319
USER: genes 14 Torsion [C]-CA--CB-[CG2] |==|  0.31479
ROOT
ATOM      1  C   VAL D4842     -59.608  23.566  35.536  1.00 57.35 LIG 0.24  C 
ATOM      2 O    VAL D4842     -60.184  23.077  36.515  1.00 61.28 LIG-0.27  OA
ATOM      3  N   VAL D4843     -58.720  24.546  35.641  1.00 52.36 LIG-0.35  N 
ATOM      4 H    VAL D4843     -58.195  24.775  35.000  1.00 52.36 LIG 0.16  HD
ENDROOT
BRANCH 3 5
ATOM      5  CA  VAL D4843     -58.540  25.337  36.850  1.00 37.99 LIG 0.18  C 
BRANCH 5 6
ATOM      6  C   VAL D4843     -57.638  24.452  37.746  1.00 51.29 LIG 0.24  C 
ATOM      7  N   ASN D4844     -56.580  24.994  38.337  1.00 50.43 LIG-0.35  N 
ATOM      8 H    ASN D4844     -56.353  25.822  38.289  1.00 50.43 LIG 0.16  HD
ATOM      9 O    VAL D4843     -57.898  23.250  37.900  1.00 47.22 LIG-0.27  OA
BRANCH 7 10
ATOM     10  CA  ASN D4844     -55.705  24.138  39.151  1.00 46.88 LIG 0.17  C 
BRANCH 10 11
ATOM     11  CB  ASN D4844     -54.277  24.685  39.152  1.00 66.72 LIG 0.14  C 
BRANCH 11 12
ATOM     12  CG  ASN D4844     -53.231  23.591  39.234  1.00 62.42 LIG 0.22  C 
ATOM     13 OD1  ASN D4844     -52.388  23.442  38.347  1.00 56.11 LIG-0.27  OA
ATOM     14  ND2 ASN D4844     -53.282  22.815  40.311  1.00 67.26 LIG-0.37  N 
ATOM     15 21HD ASN D4844     -52.712  22.179  40.410  1.00 67.26 LIG 0.16  HD
ATOM     16 22HD ASN D4844     -53.886  22.950  40.909  1.00 67.26 LIG 0.16  HD
ENDBRANCH 11 12
ENDBRANCH 10 11
BRANCH 10 17
ATOM     17  C   ASN D4844     -56.181  23.873  40.589  1.00 52.57 LIG 0.22  C 
ATOM     18 O    ASN D4844     -55.516  23.176  41.372  1.00 48.91 LIG-0.29  OA
ENDBRANCH 10 17
ENDBRANCH 7 10
ENDBRANCH 5 6
BRANCH 5 19
ATOM     19  CB  VAL D4843     -59.948  25.580  37.477  1.00 37.59 LIG 0.01  C 
ATOM     20  CG1 VAL D4843     -60.004  25.182  38.925  1.00 42.19 LIG 0.01  C 
ATOM     21  CG2 VAL D4843     -60.392  27.032  37.284  1.00 33.91 LIG 0.01  C 
ENDBRANCH 5 19
ENDBRANCH 3 5
BRANCH 1 22
ATOM     22  CA  VAL D4842     -59.832  23.039  34.105  1.00 42.26 LIG 0.18  C 
BRANCH 22 23
ATOM     23  N   VAL D4842     -59.356  23.899  33.017  1.00 51.43 LIG-0.34  N 
ATOM     24 H    VAL D4842     -58.666  23.591  32.605  1.00 51.43 LIG 0.16  HD
ATOM     25  C   LEU D4841     -59.946  25.050  32.703  1.00 54.30 LIG 0.26  C 
ATOM     26 O    LEU D4841     -59.661  25.692  31.694  1.00 66.57 LIG-0.27  OA
BRANCH 25 27
ATOM     27  CA  LEU D4841     -61.040  25.534  33.644  1.00 50.85 LIG 0.40  C 
ATOM     28  N   LEU D4841     -61.329  26.953  33.417  1.00 66.18 LIG 0.61  N 
BRANCH 27 29
ATOM     29  CB  LEU D4841     -62.312  24.699  33.455  1.00 58.40 LIG 0.06  C 
BRANCH 29 30
ATOM     30  CG  LEU D4841     -63.168  24.448  34.702  1.00 54.26 LIG-0.02  C 
ATOM     31  CD2 LEU D4841     -62.867  25.455  35.838  1.00 54.78 LIG 0.01  C 
ATOM     32  CD1 LEU D4841     -63.042  22.999  35.192  1.00 32.44 LIG 0.01  C 
ENDBRANCH 29 30
ENDBRANCH 27 29
ENDBRANCH 25 27
ENDBRANCH 22 23
BRANCH 22 33
ATOM     33  CB  VAL D4842     -59.301  21.589  33.966  1.00 48.47 LIG 0.01  C 
ATOM     34  CG2 VAL D4842     -60.424  20.617  33.734  1.00 42.42 LIG 0.01  C 
ATOM     35  CG1 VAL D4842     -58.540  21.209  35.225  1.00 34.87 LIG 0.01  C 
ENDBRANCH 22 33
ENDBRANCH 1 22
TORSDOF 13
ENDMDL
MODEL 209
USER: ADFR SOLUTION from run 109
USER: SCORE 9.352136 LL:  -3.267 LR:  -6.716 RR:   0.000 FEB:  -2.838
USER: RMSD 8.387064
USER: SEED 108
USER: STATUS no improvement in best in 33 clusters for 5 generations
USER: GENES 15
USER: genes 0 Translation |==|  0.35883 0.46111 0.16588
USER: genes 1 Rotation |==|  0.88619 0.45988 0.20124 0.59997
USER: genes 2 Torsion [C]-N--CA-[CB] |==|  0.51898
USER: genes 3 Torsion [N]-CA--C-[N] |==|  0.38465
USER: genes 4 Torsion [C]-N--CA-[CB] |==|  0.17599
USER: genes 5 Torsion [N]-CA--CB-[CG] |==|  0.19557
USER: genes 6 Torsion [CA]-CB--CG-[OD1] |==|  0.20369
USER: genes 7 Torsion [N]-CA--C-[O] |==|  0.06359
USER: genes 8 Torsion [N]-CA--CB-[CG2] |==|  0.46838
USER: genes 9 Torsion [N]-C--CA-[N] |==|  0.89262
USER: genes 10 Torsion [C]-CA--N-[C] |==|  0.79225
USER: genes 11 Torsion [N]-C--CA-[N] |==|  0.44736
USER: genes 12 Torsion [C]-CA--CB-[CG] |==|  0.33999
USER: genes 13 Torsion [CA]-CB--CG-[CD2] |==|  0.65034
USER: genes 14 Torsion [C]-CA--CB-[CG2] |==|  0.42025
ROOT
ATOM      1  C   VAL D4842     -60.005  26.925  34.068  1.00 57.35 LIG 0.24  C 
ATOM      2 O    VAL D4842     -58.899  26.978  34.620  1.00 61.28 LIG-0.27  OA
ATOM      3  N   VAL D4843     -60.582  27.985  33.518  1.00 52.36 LIG-0.35  N 
ATOM      4 H    VAL D4843     -61.259  27.930  32.990  1.00 52.36 LIG 0.16  HD
ENDROOT
BRANCH 3 5
ATOM      5  CA  VAL D4843     -60.132  29.351  33.746  1.00 37.99 LIG 0.18  C 
BRANCH 5 6
ATOM      6  C   VAL D4843     -60.114  29.488  35.288  1.00 51.29 LIG 0.24  C 
ATOM      7  N   ASN D4844     -59.104  30.122  35.870  1.00 50.43 LIG-0.35  N 
ATOM      8 H    ASN D4844     -58.449  30.498  35.460  1.00 50.43 LIG 0.16  HD
ATOM      9 O    VAL D4843     -61.028  29.002  35.969  1.00 47.22 LIG-0.27  OA
BRANCH 7 10
ATOM     10  CA  ASN D4844     -59.072  30.210  37.338  1.00 46.88 LIG 0.17  C 
BRANCH 10 11
ATOM     11  CB  ASN D4844     -58.950  28.815  37.952  1.00 66.72 LIG 0.14  C 
BRANCH 11 12
ATOM     12  CG  ASN D4844     -57.588  28.190  37.723  1.00 62.42 LIG 0.22  C 
ATOM     13 OD1  ASN D4844     -56.593  28.581  38.336  1.00 56.11 LIG-0.27  OA
ATOM     14  ND2 ASN D4844     -57.540  27.208  36.830  1.00 67.26 LIG-0.37  N 
ATOM     15 21HD ASN D4844     -56.793  26.817  36.661  1.00 67.26 LIG 0.16  HD
ATOM     16 22HD ASN D4844     -58.256  26.963  36.421  1.00 67.26 LIG 0.16  HD
ENDBRANCH 11 12
ENDBRANCH 10 11
BRANCH 10 17
ATOM     17  C   ASN D4844     -58.007  31.151  37.926  1.00 52.57 LIG 0.22  C 
ATOM     18 O    ASN D4844     -57.528  32.082  37.258  1.00 48.91 LIG-0.29  OA
ENDBRANCH 10 17
ENDBRANCH 7 10
ENDBRANCH 5 6
BRANCH 5 19
ATOM     19  CB  VAL D4843     -61.163  30.311  33.074  1.00 37.59 LIG 0.01  C 
ATOM     20  CG1 VAL D4843     -62.583  29.896  33.335  1.00 42.19 LIG 0.01  C 
ATOM     21  CG2 VAL D4843     -60.922  31.762  33.502  1.00 33.91 LIG 0.01  C 
ENDBRANCH 5 19
ENDBRANCH 3 5
BRANCH 1 22
ATOM     22  CA  VAL D4842     -60.788  25.606  33.923  1.00 42.26 LIG 0.18  C 
BRANCH 22 23
ATOM     23  N   VAL D4842     -62.245  25.701  34.053  1.00 51.43 LIG-0.34  N 
ATOM     24 H    VAL D4842     -62.667  25.637  33.306  1.00 51.43 LIG 0.16  HD
ATOM     25  C   LEU D4841     -62.851  25.871  35.226  1.00 54.30 LIG 0.26  C 
ATOM     26 O    LEU D4841     -64.069  25.784  35.367  1.00 66.57 LIG-0.27  OA
BRANCH 25 27
ATOM     27  CA  LEU D4841     -61.952  26.144  36.423  1.00 50.85 LIG 0.40  C 
ATOM     28  N   LEU D4841     -62.717  26.743  37.521  1.00 66.18 LIG 0.61  N 
BRANCH 27 29
ATOM     29  CB  LEU D4841     -61.282  24.848  36.894  1.00 58.40 LIG 0.06  C 
BRANCH 29 30
ATOM     30  CG  LEU D4841     -59.749  24.831  36.926  1.00 54.26 LIG-0.02  C 
ATOM     31  CD2 LEU D4841     -59.154  23.648  36.126  1.00 54.78 LIG 0.01  C 
ATOM     32  CD1 LEU D4841     -59.213  24.858  38.364  1.00 32.44 LIG 0.01  C 
ENDBRANCH 29 30
ENDBRANCH 27 29
ENDBRANCH 25 27
ENDBRANCH 22 23
BRANCH 22 33
ATOM     33  CB  VAL D4842     -60.373  24.863  32.628  1.00 48.47 LIG 0.01  C 
ATOM     34  CG2 VAL D4842     -60.536  23.376  32.775  1.00 42.42 LIG 0.01  C 
ATOM     35  CG1 VAL D4842     -58.927  25.195  32.298  1.00 34.87 LIG 0.01  C 
ENDBRANCH 22 33
ENDBRANCH 1 22
TORSDOF 13
ENDMDL
MODEL 210
USER: ADFR SOLUTION from run 70
USER: SCORE 8.793144 LL:  -3.180 LR:  -6.711 RR:   0.000 FEB:  -2.833
USER: RMSD 7.442297
USER: SEED 69
USER: STATUS no improvement in best in 30 clusters for 5 generations
USER: GENES 15
USER: genes 0 Translation |==|  0.36271 0.33916 0.27991
USER: genes 1 Rotation |==|  0.21128 0.80549 0.49711 0.77076
USER: genes 2 Torsion [C]-N--CA-[CB] |==|  0.23494
USER: genes 3 Torsion [N]-CA--C-[N] |==|  0.37153
USER: genes 4 Torsion [C]-N--CA-[CB] |==|  0.19621
USER: genes 5 Torsion [N]-CA--CB-[CG] |==|  0.10762
USER: genes 6 Torsion [CA]-CB--CG-[OD1] |==|  0.70095
USER: genes 7 Torsion [N]-CA--C-[O] |==|  0.78598
USER: genes 8 Torsion [N]-CA--CB-[CG2] |==|  0.37179
USER: genes 9 Torsion [N]-C--CA-[N] |==|  0.89797
USER: genes 10 Torsion [C]-CA--N-[C] |==|  0.81337
USER: genes 11 Torsion [N]-C--CA-[N] |==|  0.45067
USER: genes 12 Torsion [C]-CA--CB-[CG] |==|  0.41840
USER: genes 13 Torsion [CA]-CB--CG-[CD2] |==|  0.03077
USER: genes 14 Torsion [C]-CA--CB-[CG2] |==|  0.53222
ROOT
ATOM      1  C   VAL D4842     -59.923  24.913  35.779  1.00 57.35 LIG 0.24  C 
ATOM      2 O    VAL D4842     -60.977  24.433  36.212  1.00 61.28 LIG-0.27  OA
ATOM      3  N   VAL D4843     -58.768  24.805  36.422  1.00 52.36 LIG-0.35  N 
ATOM      4 H    VAL D4843     -58.009  24.982  36.058  1.00 52.36 LIG 0.16  HD
ENDROOT
BRANCH 3 5
ATOM      5  CA  VAL D4843     -58.661  24.376  37.809  1.00 37.99 LIG 0.18  C 
BRANCH 5 6
ATOM      6  C   VAL D4843     -57.319  24.984  38.287  1.00 51.29 LIG 0.24  C 
ATOM      7  N   ASN D4844     -57.271  25.608  39.457  1.00 50.43 LIG-0.35  N 
ATOM      8 H    ASN D4844     -57.929  25.692  40.005  1.00 50.43 LIG 0.16  HD
ATOM      9 O    VAL D4843     -56.305  24.893  37.580  1.00 47.22 LIG-0.27  OA
BRANCH 7 10
ATOM     10  CA  ASN D4844     -56.004  26.220  39.884  1.00 46.88 LIG 0.17  C 
BRANCH 10 11
ATOM     11  CB  ASN D4844     -55.694  27.452  39.034  1.00 66.72 LIG 0.14  C 
BRANCH 11 12
ATOM     12  CG  ASN D4844     -56.931  28.269  38.714  1.00 62.42 LIG 0.22  C 
ATOM     13 OD1  ASN D4844     -57.415  28.281  37.580  1.00 56.11 LIG-0.27  OA
ATOM     14  ND2 ASN D4844     -57.449  28.961  39.722  1.00 67.26 LIG-0.37  N 
ATOM     15 21HD ASN D4844     -58.152  29.442  39.597  1.00 67.26 LIG 0.16  HD
ATOM     16 22HD ASN D4844     -57.083  28.928  40.499  1.00 67.26 LIG 0.16  HD
ENDBRANCH 11 12
ENDBRANCH 10 11
BRANCH 10 17
ATOM     17  C   ASN D4844     -55.899  26.559  41.381  1.00 52.57 LIG 0.22  C 
ATOM     18 O    ASN D4844     -56.465  27.555  41.860  1.00 48.91 LIG-0.29  OA
ENDBRANCH 10 17
ENDBRANCH 7 10
ENDBRANCH 5 6
BRANCH 5 19
ATOM     19  CB  VAL D4843     -58.650  22.816  37.827  1.00 37.59 LIG 0.01  C 
ATOM     20  CG1 VAL D4843     -58.540  22.231  36.447  1.00 42.19 LIG 0.01  C 
ATOM     21  CG2 VAL D4843     -57.543  22.285  38.743  1.00 33.91 LIG 0.01  C 
ENDBRANCH 5 19
ENDBRANCH 3 5
BRANCH 1 22
ATOM     22  CA  VAL D4842     -59.848  25.637  34.420  1.00 42.26 LIG 0.18  C 
BRANCH 22 23
ATOM     23  N   VAL D4842     -58.915  26.764  34.337  1.00 51.43 LIG-0.34  N 
ATOM     24 H    VAL D4842     -58.246  26.626  33.815  1.00 51.43 LIG 0.16  HD
ATOM     25  C   LEU D4841     -59.097  27.896  35.014  1.00 54.30 LIG 0.26  C 
ATOM     26 O    LEU D4841     -58.417  28.903  34.825  1.00 66.57 LIG-0.27  OA
BRANCH 25 27
ATOM     27  CA  LEU D4841     -60.232  27.909  36.028  1.00 50.85 LIG 0.40  C 
ATOM     28  N   LEU D4841     -60.068  29.014  36.976  1.00 66.18 LIG 0.61  N 
BRANCH 27 29
ATOM     29  CB  LEU D4841     -61.584  28.023  35.313  1.00 58.40 LIG 0.06  C 
BRANCH 29 30
ATOM     30  CG  LEU D4841     -62.792  27.383  36.008  1.00 54.26 LIG-0.02  C 
ATOM     31  CD2 LEU D4841     -62.480  26.958  37.463  1.00 54.78 LIG 0.01  C 
ATOM     32  CD1 LEU D4841     -63.358  26.213  35.193  1.00 32.44 LIG 0.01  C 
ENDBRANCH 29 30
ENDBRANCH 27 29
ENDBRANCH 25 27
ENDBRANCH 22 23
BRANCH 22 33
ATOM     33  CB  VAL D4842     -59.626  24.620  33.271  1.00 48.47 LIG 0.01  C 
ATOM     34  CG2 VAL D4842     -59.272  25.317  31.987  1.00 42.42 LIG 0.01  C 
ATOM     35  CG1 VAL D4842     -60.885  23.792  33.080  1.00 34.87 LIG 0.01  C 
ENDBRANCH 22 33
ENDBRANCH 1 22
TORSDOF 13
ENDMDL
MODEL 211
USER: ADFR SOLUTION from run 178
USER: SCORE 8.491953 LL:  -2.188 LR:  -6.714 RR:   0.000 FEB:  -2.836
USER: RMSD 7.890196
USER: SEED 177
USER: STATUS no improvement in best in 26 clusters for 5 generations
USER: GENES 15
USER: genes 0 Translation |==|  0.43681 0.50801 0.36643
USER: genes 1 Rotation |==|  0.35227 0.10722 0.75397 0.59696
USER: genes 2 Torsion [C]-N--CA-[CB] |==|  0.54092
USER: genes 3 Torsion [N]-CA--C-[N] |==|  0.40190
USER: genes 4 Torsion [C]-N--CA-[CB] |==|  0.43499
USER: genes 5 Torsion [N]-CA--CB-[CG] |==|  0.29338
USER: genes 6 Torsion [CA]-CB--CG-[OD1] |==|  0.30356
USER: genes 7 Torsion [N]-CA--C-[O] |==|  0.25971
USER: genes 8 Torsion [N]-CA--CB-[CG2] |==|  0.23237
USER: genes 9 Torsion [N]-C--CA-[N] |==|  0.04110
USER: genes 10 Torsion [C]-CA--N-[C] |==|  0.72146
USER: genes 11 Torsion [N]-C--CA-[N] |==|  0.20140
USER: genes 12 Torsion [C]-CA--CB-[CG] |==|  0.23718
USER: genes 13 Torsion [CA]-CB--CG-[CD2] |==|  0.00383
USER: genes 14 Torsion [C]-CA--CB-[CG2] |==|  0.89117
ROOT
ATOM      1  C   VAL D4842     -58.367  27.699  37.076  1.00 57.35 LIG 0.24  C 
ATOM      2 O    VAL D4842     -57.415  28.462  37.282  1.00 61.28 LIG-0.27  OA
ATOM      3  N   VAL D4843     -58.928  26.978  38.038  1.00 52.36 LIG-0.35  N 
ATOM      4 H    VAL D4843     -59.685  26.581  37.946  1.00 52.36 LIG 0.16  HD
ENDROOT
BRANCH 3 5
ATOM      5  CA  VAL D4843     -58.324  26.782  39.349  1.00 37.99 LIG 0.18  C 
BRANCH 5 6
ATOM      6  C   VAL D4843     -56.846  26.447  39.035  1.00 51.29 LIG 0.24  C 
ATOM      7  N   ASN D4844     -55.895  26.879  39.854  1.00 50.43 LIG-0.35  N 
ATOM      8 H    ASN D4844     -56.026  27.321  40.580  1.00 50.43 LIG 0.16  HD
ATOM      9 O    VAL D4843     -56.555  25.791  38.024  1.00 47.22 LIG-0.27  OA
BRANCH 7 10
ATOM     10  CA  ASN D4844     -54.491  26.593  39.526  1.00 46.88 LIG 0.17  C 
BRANCH 10 11
ATOM     11  CB  ASN D4844     -53.569  27.606  40.205  1.00 66.72 LIG 0.14  C 
BRANCH 11 12
ATOM     12  CG  ASN D4844     -52.828  27.022  41.391  1.00 62.42 LIG 0.22  C 
ATOM     13 OD1  ASN D4844     -51.615  26.806  41.346  1.00 56.11 LIG-0.27  OA
ATOM     14  ND2 ASN D4844     -53.562  26.761  42.467  1.00 67.26 LIG-0.37  N 
ATOM     15 21HD ASN D4844     -53.193  26.428  43.169  1.00 67.26 LIG 0.16  HD
ATOM     16 22HD ASN D4844     -54.407  26.924  42.460  1.00 67.26 LIG 0.16  HD
ENDBRANCH 11 12
ENDBRANCH 10 11
BRANCH 10 17
ATOM     17  C   ASN D4844     -54.018  25.158  39.813  1.00 52.57 LIG 0.22  C 
ATOM     18 O    ASN D4844     -54.047  24.280  38.935  1.00 48.91 LIG-0.29  OA
ENDBRANCH 10 17
ENDBRANCH 7 10
ENDBRANCH 5 6
BRANCH 5 19
ATOM     19  CB  VAL D4843     -59.069  25.602  40.046  1.00 37.59 LIG 0.01  C 
ATOM     20  CG1 VAL D4843     -60.555  25.659  39.832  1.00 42.19 LIG 0.01  C 
ATOM     21  CG2 VAL D4843     -58.497  24.252  39.601  1.00 33.91 LIG 0.01  C 
ENDBRANCH 5 19
ENDBRANCH 3 5
BRANCH 1 22
ATOM     22  CA  VAL D4842     -59.023  27.560  35.689  1.00 42.26 LIG 0.18  C 
BRANCH 22 23
ATOM     23  N   VAL D4842     -60.351  26.940  35.660  1.00 51.43 LIG-0.34  N 
ATOM     24 H    VAL D4842     -60.990  27.473  35.877  1.00 51.43 LIG 0.16  HD
ATOM     25  C   LEU D4841     -60.540  25.665  35.326  1.00 54.30 LIG 0.26  C 
ATOM     26 O    LEU D4841     -61.655  25.184  35.137  1.00 66.57 LIG-0.27  OA
BRANCH 25 27
ATOM     27  CA  LEU D4841     -59.290  24.816  35.146  1.00 50.85 LIG 0.40  C 
ATOM     28  N   LEU D4841     -58.668  24.528  36.441  1.00 66.18 LIG 0.61  N 
BRANCH 27 29
ATOM     29  CB  LEU D4841     -59.634  23.508  34.424  1.00 58.40 LIG 0.06  C 
BRANCH 29 30
ATOM     30  CG  LEU D4841     -59.660  23.548  32.891  1.00 54.26 LIG-0.02  C 
ATOM     31  CD2 LEU D4841     -59.290  24.942  32.330  1.00 54.78 LIG 0.01  C 
ATOM     32  CD1 LEU D4841     -61.006  23.062  32.336  1.00 32.44 LIG 0.01  C 
ENDBRANCH 29 30
ENDBRANCH 27 29
ENDBRANCH 25 27
ENDBRANCH 22 23
BRANCH 22 33
ATOM     33  CB  VAL D4842     -59.004  28.915  34.937  1.00 48.47 LIG 0.01  C 
ATOM     34  CG2 VAL D4842     -59.284  30.061  35.869  1.00 42.42 LIG 0.01  C 
ATOM     35  CG1 VAL D4842     -60.039  28.889  33.824  1.00 34.87 LIG 0.01  C 
ENDBRANCH 22 33
ENDBRANCH 1 22
TORSDOF 13
ENDMDL
MODEL 212
USER: ADFR SOLUTION from run 22
USER: SCORE 8.725413 LL:  -2.788 LR:  -6.715 RR:   0.000 FEB:  -2.837
USER: RMSD 8.508512
USER: SEED 21
USER: STATUS no improvement in best in 50 clusters for 5 generations
USER: GENES 15
USER: genes 0 Translation |==|  0.38676 0.21710 0.30908
USER: genes 1 Rotation |==|  0.34627 0.29888 0.93059 0.52264
USER: genes 2 Torsion [C]-N--CA-[CB] |==|  0.88808
USER: genes 3 Torsion [N]-CA--C-[N] |==|  0.34484
USER: genes 4 Torsion [C]-N--CA-[CB] |==|  0.78051
USER: genes 5 Torsion [N]-CA--CB-[CG] |==|  0.31027
USER: genes 6 Torsion [CA]-CB--CG-[OD1] |==|  0.25753
USER: genes 7 Torsion [N]-CA--C-[O] |==|  0.31858
USER: genes 8 Torsion [N]-CA--CB-[CG2] |==|  0.77054
USER: genes 9 Torsion [N]-C--CA-[N] |==|  0.16810
USER: genes 10 Torsion [C]-CA--N-[C] |==|  0.16111
USER: genes 11 Torsion [N]-C--CA-[N] |==|  0.30221
USER: genes 12 Torsion [C]-CA--CB-[CG] |==|  0.44490
USER: genes 13 Torsion [CA]-CB--CG-[CD2] |==|  0.41548
USER: genes 14 Torsion [C]-CA--CB-[CG2] |==|  0.54162
ROOT
ATOM      1  C   VAL D4842     -59.418  22.899  36.216  1.00 57.35 LIG 0.24  C 
ATOM      2 O    VAL D4842     -58.530  23.413  35.525  1.00 61.28 LIG-0.27  OA
ATOM      3  N   VAL D4843     -59.836  23.431  37.357  1.00 52.36 LIG-0.35  N 
ATOM      4 H    VAL D4843     -60.557  23.183  37.754  1.00 52.36 LIG 0.16  HD
ENDROOT
BRANCH 3 5
ATOM      5  CA  VAL D4843     -59.123  24.490  38.057  1.00 37.99 LIG 0.18  C 
BRANCH 5 6
ATOM      6  C   VAL D4843     -59.510  25.776  37.286  1.00 51.29 LIG 0.24  C 
ATOM      7  N   ASN D4844     -60.055  26.789  37.947  1.00 50.43 LIG-0.35  N 
ATOM      8 H    ASN D4844     -60.198  26.811  38.795  1.00 50.43 LIG 0.16  HD
ATOM      9 O    VAL D4843     -59.319  25.852  36.063  1.00 47.22 LIG-0.27  OA
BRANCH 7 10
ATOM     10  CA  ASN D4844     -60.459  27.990  37.201  1.00 46.88 LIG 0.17  C 
BRANCH 10 11
ATOM     11  CB  ASN D4844     -59.242  28.865  36.900  1.00 66.72 LIG 0.14  C 
BRANCH 11 12
ATOM     12  CG  ASN D4844     -58.900  28.905  35.424  1.00 62.42 LIG 0.22  C 
ATOM     13 OD1  ASN D4844     -59.347  29.787  34.687  1.00 56.11 LIG-0.27  OA
ATOM     14  ND2 ASN D4844     -58.098  27.942  34.985  1.00 67.26 LIG-0.37  N 
ATOM     15 21HD ASN D4844     -57.871  27.917  34.155  1.00 67.26 LIG 0.16  HD
ATOM     16 22HD ASN D4844     -57.807  27.344  35.530  1.00 67.26 LIG 0.16  HD
ENDBRANCH 11 12
ENDBRANCH 10 11
BRANCH 10 17
ATOM     17  C   ASN D4844     -61.270  27.736  35.919  1.00 52.57 LIG 0.22  C 
ATOM     18 O    ASN D4844     -62.451  28.106  35.817  1.00 48.91 LIG-0.29  OA
ENDBRANCH 10 17
ENDBRANCH 7 10
ENDBRANCH 5 6
BRANCH 5 19
ATOM     19  CB  VAL D4843     -57.597  24.177  37.968  1.00 37.59 LIG 0.01  C 
ATOM     20  CG1 VAL D4843     -56.756  25.421  38.027  1.00 42.19 LIG 0.01  C 
ATOM     21  CG2 VAL D4843     -57.179  23.173  39.046  1.00 33.91 LIG 0.01  C 
ENDBRANCH 5 19
ENDBRANCH 3 5
BRANCH 1 22
ATOM     22  CA  VAL D4842     -60.158  21.619  35.783  1.00 42.26 LIG 0.18  C 
BRANCH 22 23
ATOM     23  N   VAL D4842     -61.600  21.750  35.556  1.00 51.43 LIG-0.34  N 
ATOM     24 H    VAL D4842     -62.079  21.227  36.042  1.00 51.43 LIG 0.16  HD
ATOM     25  C   LEU D4841     -62.112  22.605  34.673  1.00 54.30 LIG 0.26  C 
ATOM     26 O    LEU D4841     -63.315  22.843  34.595  1.00 66.57 LIG-0.27  OA
BRANCH 25 27
ATOM     27  CA  LEU D4841     -61.121  23.325  33.769  1.00 50.85 LIG 0.40  C 
ATOM     28  N   LEU D4841     -61.217  22.825  32.394  1.00 66.18 LIG 0.61  N 
BRANCH 27 29
ATOM     29  CB  LEU D4841     -61.374  24.837  33.799  1.00 58.40 LIG 0.06  C 
BRANCH 29 30
ATOM     30  CG  LEU D4841     -60.222  25.742  33.344  1.00 54.26 LIG-0.02  C 
ATOM     31  CD2 LEU D4841     -60.723  27.057  32.701  1.00 54.78 LIG 0.01  C 
ATOM     32  CD1 LEU D4841     -59.253  24.999  32.415  1.00 32.44 LIG 0.01  C 
ENDBRANCH 29 30
ENDBRANCH 27 29
ENDBRANCH 25 27
ENDBRANCH 22 23
BRANCH 22 33
ATOM     33  CB  VAL D4842     -59.443  20.956  34.578  1.00 48.47 LIG 0.01  C 
ATOM     34  CG2 VAL D4842     -60.325  19.933  33.915  1.00 42.42 LIG 0.01  C 
ATOM     35  CG1 VAL D4842     -58.157  20.300  35.052  1.00 34.87 LIG 0.01  C 
ENDBRANCH 22 33
ENDBRANCH 1 22
TORSDOF 13
ENDMDL
MODEL 213
USER: ADFR SOLUTION from run 72
USER: SCORE 8.936972 LL:  -3.022 LR:  -6.701 RR:   0.000 FEB:  -2.823
USER: RMSD 8.253230
USER: SEED 71
USER: STATUS no improvement in best in 19 clusters for 5 generations
USER: GENES 15
USER: genes 0 Translation |==|  0.31386 0.27988 0.32221
USER: genes 1 Rotation |==|  0.34403 0.96931 0.43147 0.52692
USER: genes 2 Torsion [C]-N--CA-[CB] |==|  0.47962
USER: genes 3 Torsion [N]-CA--C-[N] |==|  0.46803
USER: genes 4 Torsion [C]-N--CA-[CB] |==|  0.23589
USER: genes 5 Torsion [N]-CA--CB-[CG] |==|  0.66217
USER: genes 6 Torsion [CA]-CB--CG-[OD1] |==|  0.64321
USER: genes 7 Torsion [N]-CA--C-[O] |==|  0.20381
USER: genes 8 Torsion [N]-CA--CB-[CG2] |==|  0.91620
USER: genes 9 Torsion [N]-C--CA-[N] |==|  0.00622
USER: genes 10 Torsion [C]-CA--N-[C] |==|  0.71917
USER: genes 11 Torsion [N]-C--CA-[N] |==|  0.44665
USER: genes 12 Torsion [C]-CA--CB-[CG] |==|  0.41683
USER: genes 13 Torsion [CA]-CB--CG-[CD2] |==|  0.85652
USER: genes 14 Torsion [C]-CA--CB-[CG2] |==|  0.57912
ROOT
ATOM      1  C   VAL D4842     -60.949  23.935  36.413  1.00 57.35 LIG 0.24  C 
ATOM      2 O    VAL D4842     -61.175  24.557  37.458  1.00 61.28 LIG-0.27  OA
ATOM      3  N   VAL D4843     -60.111  22.908  36.358  1.00 52.36 LIG-0.35  N 
ATOM      4 H    VAL D4843     -60.074  22.368  35.690  1.00 52.36 LIG 0.16  HD
ENDROOT
BRANCH 3 5
ATOM      5  CA  VAL D4843     -59.169  22.584  37.419  1.00 37.99 LIG 0.18  C 
BRANCH 5 6
ATOM      6  C   VAL D4843     -58.158  23.757  37.394  1.00 51.29 LIG 0.24  C 
ATOM      7  N   ASN D4844     -57.294  23.889  38.392  1.00 50.43 LIG-0.35  N 
ATOM      8 H    ASN D4844     -57.222  23.356  39.062  1.00 50.43 LIG 0.16  HD
ATOM      9 O    VAL D4843     -58.164  24.566  36.455  1.00 47.22 LIG-0.27  OA
BRANCH 7 10
ATOM     10  CA  ASN D4844     -56.366  25.030  38.382  1.00 46.88 LIG 0.17  C 
BRANCH 10 11
ATOM     11  CB  ASN D4844     -57.033  26.264  38.991  1.00 66.72 LIG 0.14  C 
BRANCH 11 12
ATOM     12  CG  ASN D4844     -57.076  27.439  38.034  1.00 62.42 LIG 0.22  C 
ATOM     13 OD1  ASN D4844     -56.665  28.552  38.368  1.00 56.11 LIG-0.27  OA
ATOM     14  ND2 ASN D4844     -57.579  27.192  36.830  1.00 67.26 LIG-0.37  N 
ATOM     15 21HD ASN D4844     -57.627  27.823  36.246  1.00 67.26 LIG 0.16  HD
ATOM     16 22HD ASN D4844     -57.857  26.402  36.634  1.00 67.26 LIG 0.16  HD
ENDBRANCH 11 12
ENDBRANCH 10 11
BRANCH 10 17
ATOM     17  C   ASN D4844     -54.996  24.781  39.036  1.00 52.57 LIG 0.22  C 
ATOM     18 O    ASN D4844     -54.133  24.083  38.480  1.00 48.91 LIG-0.29  OA
ENDBRANCH 10 17
ENDBRANCH 7 10
ENDBRANCH 5 6
BRANCH 5 19
ATOM     19  CB  VAL D4843     -58.505  21.217  37.068  1.00 37.59 LIG 0.01  C 
ATOM     20  CG1 VAL D4843     -57.995  20.501  38.287  1.00 42.19 LIG 0.01  C 
ATOM     21  CG2 VAL D4843     -59.463  20.331  36.265  1.00 33.91 LIG 0.01  C 
ENDBRANCH 5 19
ENDBRANCH 3 5
BRANCH 1 22
ATOM     22  CA  VAL D4842     -61.665  24.266  35.089  1.00 42.26 LIG 0.18  C 
BRANCH 22 23
ATOM     23  N   VAL D4842     -61.373  23.382  33.957  1.00 51.43 LIG-0.34  N 
ATOM     24 H    VAL D4842     -61.799  22.635  33.979  1.00 51.43 LIG 0.16  HD
ATOM     25  C   LEU D4841     -60.523  23.715  32.987  1.00 54.30 LIG 0.26  C 
ATOM     26 O    LEU D4841     -60.399  23.060  31.955  1.00 66.57 LIG-0.27  OA
BRANCH 25 27
ATOM     27  CA  LEU D4841     -59.721  24.992  33.194  1.00 50.85 LIG 0.40  C 
ATOM     28  N   LEU D4841     -58.540  25.008  32.325  1.00 66.18 LIG 0.61  N 
BRANCH 27 29
ATOM     29  CB  LEU D4841     -60.595  26.221  32.919  1.00 58.40 LIG 0.06  C 
BRANCH 29 30
ATOM     30  CG  LEU D4841     -60.262  27.498  33.701  1.00 54.26 LIG-0.02  C 
ATOM     31  CD2 LEU D4841     -60.172  27.250  35.226  1.00 54.78 LIG 0.01  C 
ATOM     32  CD1 LEU D4841     -61.244  28.631  33.377  1.00 32.44 LIG 0.01  C 
ENDBRANCH 29 30
ENDBRANCH 27 29
ENDBRANCH 25 27
ENDBRANCH 22 23
BRANCH 22 33
ATOM     33  CB  VAL D4842     -63.189  24.426  35.317  1.00 48.47 LIG 0.01  C 
ATOM     34  CG2 VAL D4842     -63.967  24.065  34.081  1.00 42.42 LIG 0.01  C 
ATOM     35  CG1 VAL D4842     -63.492  25.860  35.718  1.00 34.87 LIG 0.01  C 
ENDBRANCH 22 33
ENDBRANCH 1 22
TORSDOF 13
ENDMDL
MODEL 214
USER: ADFR SOLUTION from run 126
USER: SCORE 8.437499 LL:  -3.097 LR:  -6.702 RR:   0.000 FEB:  -2.824
USER: RMSD 9.046600
USER: SEED 125
USER: STATUS no improvement in best in 18 clusters for 5 generations
USER: GENES 15
USER: genes 0 Translation |==|  0.25097 0.47130 0.26971
USER: genes 1 Rotation |==|  0.27408 0.07444 0.41224 0.60080
USER: genes 2 Torsion [C]-N--CA-[CB] |==|  0.47668
USER: genes 3 Torsion [N]-CA--C-[N] |==|  0.86783
USER: genes 4 Torsion [C]-N--CA-[CB] |==|  0.80688
USER: genes 5 Torsion [N]-CA--CB-[CG] |==|  0.76405
USER: genes 6 Torsion [CA]-CB--CG-[OD1] |==|  0.89457
USER: genes 7 Torsion [N]-CA--C-[O] |==|  0.08208
USER: genes 8 Torsion [N]-CA--CB-[CG2] |==|  0.75821
USER: genes 9 Torsion [N]-C--CA-[N] |==|  0.36111
USER: genes 10 Torsion [C]-CA--N-[C] |==|  0.78374
USER: genes 11 Torsion [N]-C--CA-[N] |==|  0.40723
USER: genes 12 Torsion [C]-CA--CB-[CG] |==|  0.29219
USER: genes 13 Torsion [CA]-CB--CG-[CD2] |==|  0.67941
USER: genes 14 Torsion [C]-CA--CB-[CG2] |==|  0.56081
ROOT
ATOM      1  C   VAL D4842     -62.270  27.093  35.626  1.00 57.35 LIG 0.24  C 
ATOM      2 O    VAL D4842     -61.690  26.540  36.568  1.00 61.28 LIG-0.27  OA
ATOM      3  N   VAL D4843     -63.375  26.605  35.077  1.00 52.36 LIG-0.35  N 
ATOM      4 H    VAL D4843     -63.874  27.059  34.545  1.00 52.36 LIG 0.16  HD
ENDROOT
BRANCH 3 5
ATOM      5  CA  VAL D4843     -63.859  25.254  35.318  1.00 37.99 LIG 0.18  C 
BRANCH 5 6
ATOM      6  C   VAL D4843     -62.815  24.350  34.617  1.00 51.29 LIG 0.24  C 
ATOM      7  N   ASN D4844     -62.434  24.641  33.379  1.00 50.43 LIG-0.35  N 
ATOM      8 H    ASN D4844     -62.702  25.317  32.922  1.00 50.43 LIG 0.16  HD
ATOM      9 O    VAL D4843     -62.348  23.364  35.204  1.00 47.22 LIG-0.27  OA
BRANCH 7 10
ATOM     10  CA  ASN D4844     -61.474  23.754  32.705  1.00 46.88 LIG 0.17  C 
BRANCH 10 11
ATOM     11  CB  ASN D4844     -60.094  23.872  33.352  1.00 66.72 LIG 0.14  C 
BRANCH 11 12
ATOM     12  CG  ASN D4844     -59.283  25.026  32.796  1.00 62.42 LIG 0.22  C 
ATOM     13 OD1  ASN D4844     -59.321  25.317  31.599  1.00 56.11 LIG-0.27  OA
ATOM     14  ND2 ASN D4844     -58.541  25.692  33.673  1.00 67.26 LIG-0.37  N 
ATOM     15 21HD ASN D4844     -58.060  26.357  33.413  1.00 67.26 LIG 0.16  HD
ATOM     16 22HD ASN D4844     -58.540  25.459  34.501  1.00 67.26 LIG 0.16  HD
ENDBRANCH 11 12
ENDBRANCH 10 11
BRANCH 10 17
ATOM     17  C   ASN D4844     -61.894  22.278  32.596  1.00 52.57 LIG 0.22  C 
ATOM     18 O    ASN D4844     -63.089  21.949  32.530  1.00 48.91 LIG-0.29  OA
ENDBRANCH 10 17
ENDBRANCH 7 10
ENDBRANCH 5 6
BRANCH 5 19
ATOM     19  CB  VAL D4843     -65.277  25.134  34.679  1.00 37.59 LIG 0.01  C 
ATOM     20  CG1 VAL D4843     -65.556  23.749  34.167  1.00 42.19 LIG 0.01  C 
ATOM     21  CG2 VAL D4843     -66.362  25.591  35.658  1.00 33.91 LIG 0.01  C 
ENDBRANCH 5 19
ENDBRANCH 3 5
BRANCH 1 22
ATOM     22  CA  VAL D4842     -61.786  28.433  35.038  1.00 42.26 LIG 0.18  C 
BRANCH 22 23
ATOM     23  N   VAL D4842     -61.485  29.493  36.005  1.00 51.43 LIG-0.34  N 
ATOM     24 H    VAL D4842     -60.645  29.603  36.153  1.00 51.43 LIG 0.16  HD
ATOM     25  C   LEU D4841     -62.435  30.216  36.595  1.00 54.30 LIG 0.26  C 
ATOM     26 O    LEU D4841     -62.191  31.211  37.274  1.00 66.57 LIG-0.27  OA
BRANCH 25 27
ATOM     27  CA  LEU D4841     -63.872  29.773  36.359  1.00 50.85 LIG 0.40  C 
ATOM     28  N   LEU D4841     -64.697  30.037  37.543  1.00 66.18 LIG 0.61  N 
BRANCH 27 29
ATOM     29  CB  LEU D4841     -64.458  30.494  35.139  1.00 58.40 LIG 0.06  C 
BRANCH 29 30
ATOM     30  CG  LEU D4841     -64.605  29.671  33.853  1.00 54.26 LIG-0.02  C 
ATOM     31  CD2 LEU D4841     -63.705  30.198  32.709  1.00 54.78 LIG 0.01  C 
ATOM     32  CD1 LEU D4841     -66.070  29.571  33.410  1.00 32.44 LIG 0.01  C 
ENDBRANCH 29 30
ENDBRANCH 27 29
ENDBRANCH 25 27
ENDBRANCH 22 23
BRANCH 22 33
ATOM     33  CB  VAL D4842     -60.613  28.206  34.050  1.00 48.47 LIG 0.01  C 
ATOM     34  CG2 VAL D4842     -59.794  29.455  33.878  1.00 42.42 LIG 0.01  C 
ATOM     35  CG1 VAL D4842     -61.165  27.759  32.707  1.00 34.87 LIG 0.01  C 
ENDBRANCH 22 33
ENDBRANCH 1 22
TORSDOF 13
ENDMDL
MODEL 215
USER: ADFR SOLUTION from run 92
USER: SCORE 8.804596 LL:  -2.696 LR:  -6.693 RR:   0.000 FEB:  -2.815
USER: RMSD 6.902648
USER: SEED 91
USER: STATUS no improvement in best in 40 clusters for 5 generations
USER: GENES 15
USER: genes 0 Translation |==|  0.37133 0.63794 0.18749
USER: genes 1 Rotation |==|  0.32826 0.48970 0.73491 0.90647
USER: genes 2 Torsion [C]-N--CA-[CB] |==|  0.54126
USER: genes 3 Torsion [N]-CA--C-[N] |==|  0.29033
USER: genes 4 Torsion [C]-N--CA-[CB] |==|  0.15615
USER: genes 5 Torsion [N]-CA--CB-[CG] |==|  0.63304
USER: genes 6 Torsion [CA]-CB--CG-[OD1] |==|  0.16580
USER: genes 7 Torsion [N]-CA--C-[O] |==|  0.95873
USER: genes 8 Torsion [N]-CA--CB-[CG2] |==|  0.43876
USER: genes 9 Torsion [N]-C--CA-[N] |==|  0.41105
USER: genes 10 Torsion [C]-CA--N-[C] |==|  0.81632
USER: genes 11 Torsion [N]-C--CA-[N] |==|  0.42619
USER: genes 12 Torsion [C]-CA--CB-[CG] |==|  0.38481
USER: genes 13 Torsion [CA]-CB--CG-[CD2] |==|  0.68619
USER: genes 14 Torsion [C]-CA--CB-[CG2] |==|  0.20727
ROOT
ATOM      1  C   VAL D4842     -59.742  29.843  34.392  1.00 57.35 LIG 0.24  C 
ATOM      2 O    VAL D4842     -59.665  29.142  33.376  1.00 61.28 LIG-0.27  OA
ATOM      3  N   VAL D4843     -58.990  29.636  35.465  1.00 52.36 LIG-0.35  N 
ATOM      4 H    VAL D4843     -58.912  30.209  36.102  1.00 52.36 LIG 0.16  HD
ENDROOT
BRANCH 3 5
ATOM      5  CA  VAL D4843     -58.217  28.421  35.679  1.00 37.99 LIG 0.18  C 
BRANCH 5 6
ATOM      6  C   VAL D4843     -59.201  27.281  35.318  1.00 51.29 LIG 0.24  C 
ATOM      7  N   ASN D4844     -59.058  26.644  34.163  1.00 50.43 LIG-0.35  N 
ATOM      8 H    ASN D4844     -58.437  26.790  33.586  1.00 50.43 LIG 0.16  HD
ATOM      9 O    VAL D4843     -60.116  26.976  36.096  1.00 47.22 LIG-0.27  OA
BRANCH 7 10
ATOM     10  CA  ASN D4844     -60.022  25.592  33.807  1.00 46.88 LIG 0.17  C 
BRANCH 10 11
ATOM     11  CB  ASN D4844     -61.446  26.146  33.831  1.00 66.72 LIG 0.14  C 
BRANCH 11 12
ATOM     12  CG  ASN D4844     -62.409  25.257  34.593  1.00 62.42 LIG 0.22  C 
ATOM     13 OD1  ASN D4844     -62.231  24.995  35.784  1.00 56.11 LIG-0.27  OA
ATOM     14  ND2 ASN D4844     -63.441  24.788  33.902  1.00 67.26 LIG-0.37  N 
ATOM     15 21HD ASN D4844     -64.019  24.279  34.285  1.00 67.26 LIG 0.16  HD
ATOM     16 22HD ASN D4844     -63.531  24.993  33.071  1.00 67.26 LIG 0.16  HD
ENDBRANCH 11 12
ENDBRANCH 10 11
BRANCH 10 17
ATOM     17  C   ASN D4844     -59.751  24.859  32.483  1.00 52.57 LIG 0.22  C 
ATOM     18 O    ASN D4844     -58.955  25.313  31.644  1.00 48.91 LIG-0.29  OA
ENDBRANCH 10 17
ENDBRANCH 7 10
ENDBRANCH 5 6
BRANCH 5 19
ATOM     19  CB  VAL D4843     -57.788  28.386  37.179  1.00 37.59 LIG 0.01  C 
ATOM     20  CG1 VAL D4843     -58.811  29.018  38.079  1.00 42.19 LIG 0.01  C 
ATOM     21  CG2 VAL D4843     -57.465  26.957  37.625  1.00 33.91 LIG 0.01  C 
ENDBRANCH 5 19
ENDBRANCH 3 5
BRANCH 1 22
ATOM     22  CA  VAL D4842     -60.685  31.059  34.481  1.00 42.26 LIG 0.18  C 
BRANCH 22 23
ATOM     23  N   VAL D4842     -60.962  31.756  33.222  1.00 51.43 LIG-0.34  N 
ATOM     24 H    VAL D4842     -61.780  31.698  32.963  1.00 51.43 LIG 0.16  HD
ATOM     25  C   LEU D4841     -60.024  32.418  32.547  1.00 54.30 LIG 0.26  C 
ATOM     26 O    LEU D4841     -60.278  33.141  31.587  1.00 66.57 LIG-0.27  OA
BRANCH 25 27
ATOM     27  CA  LEU D4841     -58.594  32.271  33.048  1.00 50.85 LIG 0.40  C 
ATOM     28  N   LEU D4841     -57.639  32.477  31.956  1.00 66.18 LIG 0.61  N 
BRANCH 27 29
ATOM     29  CB  LEU D4841     -58.322  33.268  34.181  1.00 58.40 LIG 0.06  C 
BRANCH 29 30
ATOM     30  CG  LEU D4841     -57.515  32.753  35.379  1.00 54.26 LIG-0.02  C 
ATOM     31  CD2 LEU D4841     -58.358  32.687  36.675  1.00 54.78 LIG 0.01  C 
ATOM     32  CD1 LEU D4841     -56.231  33.568  35.588  1.00 32.44 LIG 0.01  C 
ENDBRANCH 29 30
ENDBRANCH 27 29
ENDBRANCH 25 27
ENDBRANCH 22 23
BRANCH 22 33
ATOM     33  CB  VAL D4842     -61.989  30.685  35.231  1.00 48.47 LIG 0.01  C 
ATOM     34  CG2 VAL D4842     -61.753  30.564  36.711  1.00 42.42 LIG 0.01  C 
ATOM     35  CG1 VAL D4842     -62.527  29.373  34.684  1.00 34.87 LIG 0.01  C 
ENDBRANCH 22 33
ENDBRANCH 1 22
TORSDOF 13
ENDMDL
MODEL 216
USER: ADFR SOLUTION from run 116
USER: SCORE 8.500608 LL:  -3.114 LR:  -6.690 RR:   0.000 FEB:  -2.812
USER: RMSD 9.408776
USER: SEED 115
USER: STATUS no improvement in best in 38 clusters for 5 generations
USER: GENES 15
USER: genes 0 Translation |==|  0.37715 0.21019 0.24992
USER: genes 1 Rotation |==|  0.56711 0.67291 0.04751 0.60415
USER: genes 2 Torsion [C]-N--CA-[CB] |==|  0.83439
USER: genes 3 Torsion [N]-CA--C-[N] |==|  0.72349
USER: genes 4 Torsion [C]-N--CA-[CB] |==|  0.27654
USER: genes 5 Torsion [N]-CA--CB-[CG] |==|  0.66454
USER: genes 6 Torsion [CA]-CB--CG-[OD1] |==|  0.62291
USER: genes 7 Torsion [N]-CA--C-[O] |==|  0.02837
USER: genes 8 Torsion [N]-CA--CB-[CG2] |==|  0.85257
USER: genes 9 Torsion [N]-C--CA-[N] |==|  0.43330
USER: genes 10 Torsion [C]-CA--N-[C] |==|  0.80044
USER: genes 11 Torsion [N]-C--CA-[N] |==|  0.45343
USER: genes 12 Torsion [C]-CA--CB-[CG] |==|  0.43690
USER: genes 13 Torsion [CA]-CB--CG-[CD2] |==|  0.02594
USER: genes 14 Torsion [C]-CA--CB-[CG2] |==|  0.55542
ROOT
ATOM      1  C   VAL D4842     -59.620  22.785  35.329  1.00 57.35 LIG 0.24  C 
ATOM      2 O    VAL D4842     -59.177  23.446  34.381  1.00 61.28 LIG-0.27  OA
ATOM      3  N   VAL D4843     -60.205  23.344  36.380  1.00 52.36 LIG-0.35  N 
ATOM      4 H    VAL D4843     -60.662  22.897  36.955  1.00 52.36 LIG 0.16  HD
ENDROOT
BRANCH 3 5
ATOM      5  CA  VAL D4843     -60.139  24.769  36.671  1.00 37.99 LIG 0.18  C 
BRANCH 5 6
ATOM      6  C   VAL D4843     -60.780  25.436  35.430  1.00 51.29 LIG 0.24  C 
ATOM      7  N   ASN D4844     -59.994  25.942  34.488  1.00 50.43 LIG-0.35  N 
ATOM      8 H    ASN D4844     -59.134  25.915  34.489  1.00 50.43 LIG 0.16  HD
ATOM      9 O    VAL D4843     -62.013  25.502  35.323  1.00 47.22 LIG-0.27  OA
BRANCH 7 10
ATOM     10  CA  ASN D4844     -60.609  26.612  33.333  1.00 46.88 LIG 0.17  C 
BRANCH 10 11
ATOM     11  CB  ASN D4844     -60.578  28.129  33.519  1.00 66.72 LIG 0.14  C 
BRANCH 11 12
ATOM     12  CG  ASN D4844     -61.962  28.750  33.503  1.00 62.42 LIG 0.22  C 
ATOM     13 OD1  ASN D4844     -62.193  29.782  32.871  1.00 56.11 LIG-0.27  OA
ATOM     14  ND2 ASN D4844     -62.893  28.115  34.205  1.00 67.26 LIG-0.37  N 
ATOM     15 21HD ASN D4844     -63.697  28.423  34.231  1.00 67.26 LIG 0.16  HD
ATOM     16 22HD ASN D4844     -62.693  27.397  34.634  1.00 67.26 LIG 0.16  HD
ENDBRANCH 11 12
ENDBRANCH 10 11
BRANCH 10 17
ATOM     17  C   ASN D4844     -60.040  26.226  31.957  1.00 52.57 LIG 0.22  C 
ATOM     18 O    ASN D4844     -59.256  25.272  31.827  1.00 48.91 LIG-0.29  OA
ENDBRANCH 10 17
ENDBRANCH 7 10
ENDBRANCH 5 6
BRANCH 5 19
ATOM     19  CB  VAL D4843     -58.636  25.151  36.845  1.00 37.59 LIG 0.01  C 
ATOM     20  CG1 VAL D4843     -58.453  26.601  37.192  1.00 42.19 LIG 0.01  C 
ATOM     21  CG2 VAL D4843     -57.955  24.245  37.875  1.00 33.91 LIG 0.01  C 
ENDBRANCH 5 19
ENDBRANCH 3 5
BRANCH 1 22
ATOM     22  CA  VAL D4842     -59.578  21.245  35.347  1.00 42.26 LIG 0.18  C 
BRANCH 22 23
ATOM     23  N   VAL D4842     -59.461  20.585  34.042  1.00 51.43 LIG-0.34  N 
ATOM     24 H    VAL D4842     -58.691  20.230  33.898  1.00 51.43 LIG 0.16  HD
ATOM     25  C   LEU D4841     -60.463  20.545  33.167  1.00 54.30 LIG 0.26  C 
ATOM     26 O    LEU D4841     -60.433  19.857  32.149  1.00 66.57 LIG-0.27  OA
BRANCH 25 27
ATOM     27  CA  LEU D4841     -61.694  21.375  33.503  1.00 50.85 LIG 0.40  C 
ATOM     28  N   LEU D4841     -62.532  21.564  32.315  1.00 66.18 LIG 0.61  N 
BRANCH 27 29
ATOM     29  CB  LEU D4841     -62.504  20.700  34.617  1.00 58.40 LIG 0.06  C 
BRANCH 29 30
ATOM     30  CG  LEU D4841     -63.434  21.600  35.441  1.00 54.26 LIG-0.02  C 
ATOM     31  CD2 LEU D4841     -63.562  23.021  34.843  1.00 54.78 LIG 0.01  C 
ATOM     32  CD1 LEU D4841     -63.011  21.650  36.915  1.00 32.44 LIG 0.01  C 
ENDBRANCH 29 30
ENDBRANCH 27 29
ENDBRANCH 25 27
ENDBRANCH 22 23
BRANCH 22 33
ATOM     33  CB  VAL D4842     -58.506  20.738  36.345  1.00 48.47 LIG 0.01  C 
ATOM     34  CG2 VAL D4842     -58.106  19.321  36.045  1.00 42.42 LIG 0.01  C 
ATOM     35  CG1 VAL D4842     -59.051  20.834  37.761  1.00 34.87 LIG 0.01  C 
ENDBRANCH 22 33
ENDBRANCH 1 22
TORSDOF 13
ENDMDL
MODEL 217
USER: ADFR SOLUTION from run 71
USER: SCORE 9.146232 LL:  -3.418 LR:  -6.688 RR:   0.000 FEB:  -2.811
USER: RMSD 8.480078
USER: SEED 70
USER: STATUS no improvement in best in 33 clusters for 5 generations
USER: GENES 15
USER: genes 0 Translation |==|  0.39754 0.20244 0.24927
USER: genes 1 Rotation |==|  0.49357 0.27015 0.07808 0.63825
USER: genes 2 Torsion [C]-N--CA-[CB] |==|  0.27222
USER: genes 3 Torsion [N]-CA--C-[N] |==|  0.99669
USER: genes 4 Torsion [C]-N--CA-[CB] |==|  0.28265
USER: genes 5 Torsion [N]-CA--CB-[CG] |==|  0.14016
USER: genes 6 Torsion [CA]-CB--CG-[OD1] |==|  0.04982
USER: genes 7 Torsion [N]-CA--C-[O] |==|  0.10578
USER: genes 8 Torsion [N]-CA--CB-[CG2] |==|  0.15049
USER: genes 9 Torsion [N]-C--CA-[N] |==|  0.40048
USER: genes 10 Torsion [C]-CA--N-[C] |==|  0.75823
USER: genes 11 Torsion [N]-C--CA-[N] |==|  0.38257
USER: genes 12 Torsion [C]-CA--CB-[CG] |==|  0.33583
USER: genes 13 Torsion [CA]-CB--CG-[CD2] |==|  0.07359
USER: genes 14 Torsion [C]-CA--CB-[CG2] |==|  0.57235
ROOT
ATOM      1  C   VAL D4842     -59.192  22.657  35.319  1.00 57.35 LIG 0.24  C 
ATOM      2 O    VAL D4842     -58.595  21.699  34.813  1.00 61.28 LIG-0.27  OA
ATOM      3  N   VAL D4843     -59.848  23.556  34.596  1.00 52.36 LIG-0.35  N 
ATOM      4 H    VAL D4843     -60.400  24.120  34.938  1.00 52.36 LIG 0.16  HD
ENDROOT
BRANCH 3 5
ATOM      5  CA  VAL D4843     -59.706  23.682  33.153  1.00 37.99 LIG 0.18  C 
BRANCH 5 6
ATOM      6  C   VAL D4843     -59.765  25.209  32.902  1.00 51.29 LIG 0.24  C 
ATOM      7  N   ASN D4844     -59.942  26.028  33.931  1.00 50.43 LIG-0.35  N 
ATOM      8 H    ASN D4844     -60.005  25.787  34.754  1.00 50.43 LIG 0.16  HD
ATOM      9 O    VAL D4843     -59.657  25.657  31.752  1.00 47.22 LIG-0.27  OA
BRANCH 7 10
ATOM     10  CA  ASN D4844     -60.040  27.473  33.680  1.00 46.88 LIG 0.17  C 
BRANCH 10 11
ATOM     11  CB  ASN D4844     -61.500  27.924  33.732  1.00 66.72 LIG 0.14  C 
BRANCH 11 12
ATOM     12  CG  ASN D4844     -62.215  27.452  34.983  1.00 62.42 LIG 0.22  C 
ATOM     13 OD1  ASN D4844     -61.588  27.072  35.974  1.00 56.11 LIG-0.27  OA
ATOM     14  ND2 ASN D4844     -63.542  27.475  34.939  1.00 67.26 LIG-0.37  N 
ATOM     15 21HD ASN D4844     -64.000  27.218  35.621  1.00 67.26 LIG 0.16  HD
ATOM     16 22HD ASN D4844     -63.944  27.746  34.228  1.00 67.26 LIG 0.16  HD
ENDBRANCH 11 12
ENDBRANCH 10 11
BRANCH 10 17
ATOM     17  C   ASN D4844     -59.168  28.367  34.578  1.00 52.57 LIG 0.22  C 
ATOM     18 O    ASN D4844     -58.023  28.023  34.916  1.00 48.91 LIG-0.29  OA
ENDBRANCH 10 17
ENDBRANCH 7 10
ENDBRANCH 5 6
BRANCH 5 19
ATOM     19  CB  VAL D4843     -60.895  22.921  32.488  1.00 37.59 LIG 0.01  C 
ATOM     20  CG1 VAL D4843     -60.767  21.430  32.629  1.00 42.19 LIG 0.01  C 
ATOM     21  CG2 VAL D4843     -62.237  23.416  33.033  1.00 33.91 LIG 0.01  C 
ENDBRANCH 5 19
ENDBRANCH 3 5
BRANCH 1 22
ATOM     22  CA  VAL D4842     -59.270  22.862  36.844  1.00 42.26 LIG 0.18  C 
BRANCH 22 23
ATOM     23  N   VAL D4842     -59.326  21.645  37.659  1.00 51.43 LIG-0.34  N 
ATOM     24 H    VAL D4842     -58.557  21.369  37.929  1.00 51.43 LIG 0.16  HD
ATOM     25  C   LEU D4841     -60.470  21.029  37.950  1.00 54.30 LIG 0.26  C 
ATOM     26 O    LEU D4841     -60.545  20.112  38.765  1.00 66.57 LIG-0.27  OA
BRANCH 25 27
ATOM     27  CA  LEU D4841     -61.718  21.544  37.247  1.00 50.85 LIG 0.40  C 
ATOM     28  N   LEU D4841     -62.558  20.429  36.800  1.00 66.18 LIG 0.61  N 
BRANCH 27 29
ATOM     29  CB  LEU D4841     -62.516  22.462  38.181  1.00 58.40 LIG 0.06  C 
BRANCH 29 30
ATOM     30  CG  LEU D4841     -62.751  23.900  37.705  1.00 54.26 LIG-0.02  C 
ATOM     31  CD2 LEU D4841     -62.737  24.021  36.162  1.00 54.78 LIG 0.01  C 
ATOM     32  CD1 LEU D4841     -61.762  24.879  38.351  1.00 32.44 LIG 0.01  C 
ENDBRANCH 29 30
ENDBRANCH 27 29
ENDBRANCH 25 27
ENDBRANCH 22 23
BRANCH 22 33
ATOM     33  CB  VAL D4842     -58.154  23.825  37.325  1.00 48.47 LIG 0.01  C 
ATOM     34  CG2 VAL D4842     -57.794  23.570  38.762  1.00 42.42 LIG 0.01  C 
ATOM     35  CG1 VAL D4842     -58.621  25.262  37.155  1.00 34.87 LIG 0.01  C 
ENDBRANCH 22 33
ENDBRANCH 1 22
TORSDOF 13
ENDMDL
MODEL 218
USER: ADFR SOLUTION from run 53
USER: SCORE 8.320545 LL:  -2.461 LR:  -6.684 RR:   0.000 FEB:  -2.807
USER: RMSD 6.657064
USER: SEED 52
USER: STATUS no improvement in best in 30 clusters for 5 generations
USER: GENES 15
USER: genes 0 Translation |==|  0.59963 0.58595 0.52477
USER: genes 1 Rotation |==|  0.50773 0.78665 0.50282 0.90959
USER: genes 2 Torsion [C]-N--CA-[CB] |==|  0.25000
USER: genes 3 Torsion [N]-CA--C-[N] |==|  0.96788
USER: genes 4 Torsion [C]-N--CA-[CB] |==|  0.18763
USER: genes 5 Torsion [N]-CA--CB-[CG] |==|  0.17338
USER: genes 6 Torsion [CA]-CB--CG-[OD1] |==|  0.75064
USER: genes 7 Torsion [N]-CA--C-[O] |==|  0.01560
USER: genes 8 Torsion [N]-CA--CB-[CG2] |==|  0.75640
USER: genes 9 Torsion [N]-C--CA-[N] |==|  0.46192
USER: genes 10 Torsion [C]-CA--N-[C] |==|  0.66175
USER: genes 11 Torsion [N]-C--CA-[N] |==|  0.45136
USER: genes 12 Torsion [C]-CA--CB-[CG] |==|  0.80581
USER: genes 13 Torsion [CA]-CB--CG-[CD2] |==|  0.72497
USER: genes 14 Torsion [C]-CA--CB-[CG2] |==|  0.25756
ROOT
ATOM      1  C   VAL D4842     -54.948  28.985  39.452  1.00 57.35 LIG 0.24  C 
ATOM      2 O    VAL D4842     -56.126  29.305  39.253  1.00 61.28 LIG-0.27  OA
ATOM      3  N   VAL D4843     -54.564  27.725  39.611  1.00 52.36 LIG-0.35  N 
ATOM      4 H    VAL D4843     -53.741  27.478  39.579  1.00 52.36 LIG 0.16  HD
ENDROOT
BRANCH 3 5
ATOM      5  CA  VAL D4843     -55.491  26.630  39.854  1.00 37.99 LIG 0.18  C 
BRANCH 5 6
ATOM      6  C   VAL D4843     -54.668  25.621  40.693  1.00 51.29 LIG 0.24  C 
ATOM      7  N   ASN D4844     -53.357  25.791  40.807  1.00 50.43 LIG-0.35  N 
ATOM      8 H    ASN D4844     -52.908  26.441  40.468  1.00 50.43 LIG 0.16  HD
ATOM      9 O    VAL D4843     -55.229  24.663  41.244  1.00 47.22 LIG-0.27  OA
BRANCH 7 10
ATOM     10  CA  ASN D4844     -52.576  24.805  41.569  1.00 46.88 LIG 0.17  C 
BRANCH 10 11
ATOM     11  CB  ASN D4844     -52.564  23.460  40.842  1.00 66.72 LIG 0.14  C 
BRANCH 11 12
ATOM     12  CG  ASN D4844     -51.900  23.534  39.481  1.00 62.42 LIG 0.22  C 
ATOM     13 OD1  ASN D4844     -52.547  23.799  38.467  1.00 56.11 LIG-0.27  OA
ATOM     14  ND2 ASN D4844     -50.593  23.299  39.457  1.00 67.26 LIG-0.37  N 
ATOM     15 21HD ASN D4844     -50.165  23.329  38.711  1.00 67.26 LIG 0.16  HD
ATOM     16 22HD ASN D4844     -50.175  23.117  40.187  1.00 67.26 LIG 0.16  HD
ENDBRANCH 11 12
ENDBRANCH 10 11
BRANCH 10 17
ATOM     17  C   ASN D4844     -51.145  25.230  41.939  1.00 52.57 LIG 0.22  C 
ATOM     18 O    ASN D4844     -50.729  26.375  41.699  1.00 48.91 LIG-0.29  OA
ENDBRANCH 10 17
ENDBRANCH 7 10
ENDBRANCH 5 6
BRANCH 5 19
ATOM     19  CB  VAL D4843     -55.917  26.048  38.471  1.00 37.59 LIG 0.01  C 
ATOM     20  CG1 VAL D4843     -56.173  24.569  38.529  1.00 42.19 LIG 0.01  C 
ATOM     21  CG2 VAL D4843     -57.129  26.798  37.909  1.00 33.91 LIG 0.01  C 
ENDBRANCH 5 19
ENDBRANCH 3 5
BRANCH 1 22
ATOM     22  CA  VAL D4842     -53.809  30.023  39.477  1.00 42.26 LIG 0.18  C 
BRANCH 22 23
ATOM     23  N   VAL D4842     -54.148  31.368  39.000  1.00 51.43 LIG-0.34  N 
ATOM     24 H    VAL D4842     -54.791  31.740  39.433  1.00 51.43 LIG 0.16  HD
ATOM     25  C   LEU D4841     -53.511  31.950  37.987  1.00 54.30 LIG 0.26  C 
ATOM     26 O    LEU D4841     -53.671  33.132  37.689  1.00 66.57 LIG-0.27  OA
BRANCH 25 27
ATOM     27  CA  LEU D4841     -52.523  31.086  37.217  1.00 50.85 LIG 0.40  C 
ATOM     28  N   LEU D4841     -52.212  31.686  35.916  1.00 66.18 LIG 0.61  N 
BRANCH 27 29
ATOM     29  CB  LEU D4841     -51.236  30.894  38.029  1.00 58.40 LIG 0.06  C 
BRANCH 29 30
ATOM     30  CG  LEU D4841     -50.335  32.123  38.200  1.00 54.26 LIG-0.02  C 
ATOM     31  CD2 LEU D4841     -49.149  32.130  37.205  1.00 54.78 LIG 0.01  C 
ATOM     32  CD1 LEU D4841     -49.849  32.271  39.648  1.00 32.44 LIG 0.01  C 
ENDBRANCH 29 30
ENDBRANCH 27 29
ENDBRANCH 25 27
ENDBRANCH 22 23
BRANCH 22 33
ATOM     33  CB  VAL D4842     -53.135  30.061  40.872  1.00 48.47 LIG 0.01  C 
ATOM     34  CG2 VAL D4842     -51.950  29.138  40.931  1.00 42.42 LIG 0.01  C 
ATOM     35  CG1 VAL D4842     -54.149  29.668  41.933  1.00 34.87 LIG 0.01  C 
ENDBRANCH 22 33
ENDBRANCH 1 22
TORSDOF 13
ENDMDL
MODEL 219
USER: ADFR SOLUTION from run 145
USER: SCORE 8.680033 LL:  -2.653 LR:  -6.676 RR:   0.000 FEB:  -2.798
USER: RMSD 6.990388
USER: SEED 144
USER: STATUS no improvement in best in 15 clusters for 5 generations
USER: GENES 15
USER: genes 0 Translation |==|  0.44862 0.30712 0.38505
USER: genes 1 Rotation |==|  0.42978 0.06054 0.36704 0.68512
USER: genes 2 Torsion [C]-N--CA-[CB] |==|  0.18855
USER: genes 3 Torsion [N]-CA--C-[N] |==|  0.01684
USER: genes 4 Torsion [C]-N--CA-[CB] |==|  0.49760
USER: genes 5 Torsion [N]-CA--CB-[CG] |==|  0.87979
USER: genes 6 Torsion [CA]-CB--CG-[OD1] |==|  0.98793
USER: genes 7 Torsion [N]-CA--C-[O] |==|  0.75576
USER: genes 8 Torsion [N]-CA--CB-[CG2] |==|  0.54673
USER: genes 9 Torsion [N]-C--CA-[N] |==|  0.10106
USER: genes 10 Torsion [C]-CA--N-[C] |==|  0.67279
USER: genes 11 Torsion [N]-C--CA-[N] |==|  0.83933
USER: genes 12 Torsion [C]-CA--CB-[CG] |==|  0.30211
USER: genes 13 Torsion [CA]-CB--CG-[CD2] |==|  0.37321
USER: genes 14 Torsion [C]-CA--CB-[CG2] |==|  0.53764
ROOT
ATOM      1  C   VAL D4842     -58.119  24.385  37.356  1.00 57.35 LIG 0.24  C 
ATOM      2 O    VAL D4842     -57.161  23.947  38.004  1.00 61.28 LIG-0.27  OA
ATOM      3  N   VAL D4843     -58.891  23.608  36.607  1.00 52.36 LIG-0.35  N 
ATOM      4 H    VAL D4843     -59.649  23.864  36.292  1.00 52.36 LIG 0.16  HD
ENDROOT
BRANCH 3 5
ATOM      5  CA  VAL D4843     -58.540  22.244  36.239  1.00 37.99 LIG 0.18  C 
BRANCH 5 6
ATOM      6  C   VAL D4843     -59.635  21.835  35.224  1.00 51.29 LIG 0.24  C 
ATOM      7  N   ASN D4844     -60.514  22.743  34.818  1.00 50.43 LIG-0.35  N 
ATOM      8 H    ASN D4844     -60.521  23.570  35.055  1.00 50.43 LIG 0.16  HD
ATOM      9 O    VAL D4843     -59.693  20.671  34.802  1.00 47.22 LIG-0.27  OA
BRANCH 7 10
ATOM     10  CA  ASN D4844     -61.577  22.337  33.887  1.00 46.88 LIG 0.17  C 
BRANCH 10 11
ATOM     11  CB  ASN D4844     -62.487  23.522  33.568  1.00 66.72 LIG 0.14  C 
BRANCH 11 12
ATOM     12  CG  ASN D4844     -62.837  24.340  34.796  1.00 62.42 LIG 0.22  C 
ATOM     13 OD1  ASN D4844     -62.473  23.993  35.921  1.00 56.11 LIG-0.27  OA
ATOM     14  ND2 ASN D4844     -63.552  25.438  34.580  1.00 67.26 LIG-0.37  N 
ATOM     15 21HD ASN D4844     -63.779  25.941  35.241  1.00 67.26 LIG 0.16  HD
ATOM     16 22HD ASN D4844     -63.788  25.648  33.780  1.00 67.26 LIG 0.16  HD
ENDBRANCH 11 12
ENDBRANCH 10 11
BRANCH 10 17
ATOM     17  C   ASN D4844     -61.104  21.656  32.591  1.00 52.57 LIG 0.22  C 
ATOM     18 O    ASN D4844     -60.813  22.319  31.582  1.00 48.91 LIG-0.29  OA
ENDBRANCH 10 17
ENDBRANCH 7 10
ENDBRANCH 5 6
BRANCH 5 19
ATOM     19  CB  VAL D4843     -58.574  21.376  37.535  1.00 37.59 LIG 0.01  C 
ATOM     20  CG1 VAL D4843     -59.974  21.142  38.028  1.00 42.19 LIG 0.01  C 
ATOM     21  CG2 VAL D4843     -57.830  20.054  37.331  1.00 33.91 LIG 0.01  C 
ENDBRANCH 5 19
ENDBRANCH 3 5
BRANCH 1 22
ATOM     22  CA  VAL D4842     -58.534  25.868  37.404  1.00 42.26 LIG 0.18  C 
BRANCH 22 23
ATOM     23  N   VAL D4842     -59.975  26.137  37.398  1.00 51.43 LIG-0.34  N 
ATOM     24 H    VAL D4842     -60.393  25.817  38.078  1.00 51.43 LIG 0.16  HD
ATOM     25  C   LEU D4841     -60.574  26.817  36.422  1.00 54.30 LIG 0.26  C 
ATOM     26 O    LEU D4841     -61.743  27.191  36.489  1.00 66.57 LIG-0.27  OA
BRANCH 25 27
ATOM     27  CA  LEU D4841     -59.722  27.156  35.207  1.00 50.85 LIG 0.40  C 
ATOM     28  N   LEU D4841     -58.543  27.934  35.601  1.00 66.18 LIG 0.61  N 
BRANCH 27 29
ATOM     29  CB  LEU D4841     -59.290  25.874  34.485  1.00 58.40 LIG 0.06  C 
BRANCH 29 30
ATOM     30  CG  LEU D4841     -59.945  25.589  33.127  1.00 54.26 LIG-0.02  C 
ATOM     31  CD2 LEU D4841     -58.917  25.153  32.056  1.00 54.78 LIG 0.01  C 
ATOM     32  CD1 LEU D4841     -60.785  26.779  32.644  1.00 32.44 LIG 0.01  C 
ENDBRANCH 29 30
ENDBRANCH 27 29
ENDBRANCH 25 27
ENDBRANCH 22 23
BRANCH 22 33
ATOM     33  CB  VAL D4842     -57.817  26.599  38.567  1.00 48.47 LIG 0.01  C 
ATOM     34  CG2 VAL D4842     -58.443  27.939  38.837  1.00 42.42 LIG 0.01  C 
ATOM     35  CG1 VAL D4842     -56.348  26.774  38.223  1.00 34.87 LIG 0.01  C 
ENDBRANCH 22 33
ENDBRANCH 1 22
TORSDOF 13
ENDMDL
MODEL 220
USER: ADFR SOLUTION from run 35
USER: SCORE 8.309906 LL:  -2.463 LR:  -6.678 RR:   0.000 FEB:  -2.800
USER: RMSD 8.436262
USER: SEED 34
USER: STATUS no improvement in best in 48 clusters for 5 generations
USER: GENES 15
USER: genes 0 Translation |==|  0.42682 0.52817 0.26825
USER: genes 1 Rotation |==|  0.91122 0.42778 0.23498 0.57383
USER: genes 2 Torsion [C]-N--CA-[CB] |==|  0.53965
USER: genes 3 Torsion [N]-CA--C-[N] |==|  0.38372
USER: genes 4 Torsion [C]-N--CA-[CB] |==|  0.30485
USER: genes 5 Torsion [N]-CA--CB-[CG] |==|  0.82219
USER: genes 6 Torsion [CA]-CB--CG-[OD1] |==|  0.30306
USER: genes 7 Torsion [N]-CA--C-[O] |==|  0.04347
USER: genes 8 Torsion [N]-CA--CB-[CG2] |==|  0.81877
USER: genes 9 Torsion [N]-C--CA-[N] |==|  0.25081
USER: genes 10 Torsion [C]-CA--N-[C] |==|  0.65000
USER: genes 11 Torsion [N]-C--CA-[N] |==|  0.82486
USER: genes 12 Torsion [C]-CA--CB-[CG] |==|  0.56325
USER: genes 13 Torsion [CA]-CB--CG-[CD2] |==|  0.59786
USER: genes 14 Torsion [C]-CA--CB-[CG2] |==|  0.11727
ROOT
ATOM      1  C   VAL D4842     -58.577  28.032  35.604  1.00 57.35 LIG 0.24  C 
ATOM      2 O    VAL D4842     -57.604  27.943  36.363  1.00 61.28 LIG-0.27  OA
ATOM      3  N   VAL D4843     -58.897  29.157  34.978  1.00 52.36 LIG-0.35  N 
ATOM      4 H    VAL D4843     -59.458  29.189  34.327  1.00 52.36 LIG 0.16  HD
ENDROOT
BRANCH 3 5
ATOM      5  CA  VAL D4843     -58.336  30.455  35.325  1.00 37.99 LIG 0.18  C 
BRANCH 5 6
ATOM      6  C   VAL D4843     -58.430  30.504  36.870  1.00 51.29 LIG 0.24  C 
ATOM      7  N   ASN D4844     -57.411  30.992  37.566  1.00 50.43 LIG-0.35  N 
ATOM      8 H    ASN D4844     -56.689  31.315  37.231  1.00 50.43 LIG 0.16  HD
ATOM      9 O    VAL D4843     -59.444  30.085  37.447  1.00 47.22 LIG-0.27  OA
BRANCH 7 10
ATOM     10  CA  ASN D4844     -57.491  30.996  39.034  1.00 46.88 LIG 0.17  C 
BRANCH 10 11
ATOM     11  CB  ASN D4844     -56.518  29.975  39.623  1.00 66.72 LIG 0.14  C 
BRANCH 11 12
ATOM     12  CG  ASN D4844     -56.860  28.549  39.237  1.00 62.42 LIG 0.22  C 
ATOM     13 OD1  ASN D4844     -56.159  27.914  38.446  1.00 56.11 LIG-0.27  OA
ATOM     14  ND2 ASN D4844     -57.948  28.037  39.801  1.00 67.26 LIG-0.37  N 
ATOM     15 21HD ASN D4844     -58.189  27.232  39.618  1.00 67.26 LIG 0.16  HD
ATOM     16 22HD ASN D4844     -58.412  28.512  40.348  1.00 67.26 LIG 0.16  HD
ENDBRANCH 11 12
ENDBRANCH 10 11
BRANCH 10 17
ATOM     17  C   ASN D4844     -57.308  32.366  39.708  1.00 52.57 LIG 0.22  C 
ATOM     18 O    ASN D4844     -57.392  33.422  39.060  1.00 48.91 LIG-0.29  OA
ENDBRANCH 10 17
ENDBRANCH 7 10
ENDBRANCH 5 6
BRANCH 5 19
ATOM     19  CB  VAL D4843     -59.207  31.551  34.638  1.00 37.59 LIG 0.01  C 
ATOM     20  CG1 VAL D4843     -58.874  32.933  35.126  1.00 42.19 LIG 0.01  C 
ATOM     21  CG2 VAL D4843     -59.101  31.462  33.113  1.00 33.91 LIG 0.01  C 
ENDBRANCH 5 19
ENDBRANCH 3 5
BRANCH 1 22
ATOM     22  CA  VAL D4842     -59.474  26.823  35.274  1.00 42.26 LIG 0.18  C 
BRANCH 22 23
ATOM     23  N   VAL D4842     -59.047  25.988  34.148  1.00 51.43 LIG-0.34  N 
ATOM     24 H    VAL D4842     -58.238  25.702  34.212  1.00 51.43 LIG 0.16  HD
ATOM     25  C   LEU D4841     -59.847  25.703  33.122  1.00 54.30 LIG 0.26  C 
ATOM     26 O    LEU D4841     -59.559  24.874  32.262  1.00 66.57 LIG-0.27  OA
BRANCH 25 27
ATOM     27  CA  LEU D4841     -61.181  26.434  33.077  1.00 50.85 LIG 0.40  C 
ATOM     28  N   LEU D4841     -62.005  26.083  34.237  1.00 66.18 LIG 0.61  N 
BRANCH 27 29
ATOM     29  CB  LEU D4841     -60.957  27.951  33.030  1.00 58.40 LIG 0.06  C 
BRANCH 29 30
ATOM     30  CG  LEU D4841     -62.111  28.838  33.512  1.00 54.26 LIG-0.02  C 
ATOM     31  CD2 LEU D4841     -62.222  30.153  32.704  1.00 54.78 LIG 0.01  C 
ATOM     32  CD1 LEU D4841     -62.021  29.114  35.018  1.00 32.44 LIG 0.01  C 
ENDBRANCH 29 30
ENDBRANCH 27 29
ENDBRANCH 25 27
ENDBRANCH 22 23
BRANCH 22 33
ATOM     33  CB  VAL D4842     -59.743  25.979  36.546  1.00 48.47 LIG 0.01  C 
ATOM     34  CG2 VAL D4842     -60.025  26.857  37.734  1.00 42.42 LIG 0.01  C 
ATOM     35  CG1 VAL D4842     -58.540  25.096  36.830  1.00 34.87 LIG 0.01  C 
ENDBRANCH 22 33
ENDBRANCH 1 22
TORSDOF 13
ENDMDL
MODEL 221
USER: ADFR SOLUTION from run 152
USER: SCORE 8.068845 LL:  -2.826 LR:  -6.680 RR:   0.000 FEB:  -2.802
USER: RMSD 8.068612
USER: SEED 151
USER: STATUS no improvement in best in 46 clusters for 5 generations
USER: GENES 15
USER: genes 0 Translation |==|  0.41278 0.50060 0.24660
USER: genes 1 Rotation |==|  0.30029 0.23375 0.86403 0.58193
USER: genes 2 Torsion [C]-N--CA-[CB] |==|  0.49034
USER: genes 3 Torsion [N]-CA--C-[N] |==|  0.85496
USER: genes 4 Torsion [C]-N--CA-[CB] |==|  0.15816
USER: genes 5 Torsion [N]-CA--CB-[CG] |==|  0.60740
USER: genes 6 Torsion [CA]-CB--CG-[OD1] |==|  0.92456
USER: genes 7 Torsion [N]-CA--C-[O] |==|  0.10334
USER: genes 8 Torsion [N]-CA--CB-[CG2] |==|  0.45625
USER: genes 9 Torsion [N]-C--CA-[N] |==|  0.31111
USER: genes 10 Torsion [C]-CA--N-[C] |==|  0.77593
USER: genes 11 Torsion [N]-C--CA-[N] |==|  0.40320
USER: genes 12 Torsion [C]-CA--CB-[CG] |==|  0.22894
USER: genes 13 Torsion [CA]-CB--CG-[CD2] |==|  0.67140
USER: genes 14 Torsion [C]-CA--CB-[CG2] |==|  0.58926
ROOT
ATOM      1  C   VAL D4842     -58.872  27.577  35.279  1.00 57.35 LIG 0.24  C 
ATOM      2 O    VAL D4842     -57.791  28.084  34.955  1.00 61.28 LIG-0.27  OA
ATOM      3  N   VAL D4843     -59.405  27.734  36.484  1.00 52.36 LIG-0.35  N 
ATOM      4 H    VAL D4843     -60.221  27.533  36.665  1.00 52.36 LIG 0.16  HD
ENDROOT
BRANCH 3 5
ATOM      5  CA  VAL D4843     -58.668  28.261  37.623  1.00 37.99 LIG 0.18  C 
BRANCH 5 6
ATOM      6  C   VAL D4843     -57.557  27.211  37.870  1.00 51.29 LIG 0.24  C 
ATOM      7  N   ASN D4844     -57.890  25.933  37.998  1.00 50.43 LIG-0.35  N 
ATOM      8 H    ASN D4844     -58.687  25.617  37.932  1.00 50.43 LIG 0.16  HD
ATOM      9 O    VAL D4843     -56.372  27.564  37.955  1.00 47.22 LIG-0.27  OA
BRANCH 7 10
ATOM     10  CA  ASN D4844     -56.834  24.948  38.275  1.00 46.88 LIG 0.17  C 
BRANCH 10 11
ATOM     11  CB  ASN D4844     -56.079  25.322  39.550  1.00 66.72 LIG 0.14  C 
BRANCH 11 12
ATOM     12  CG  ASN D4844     -54.589  25.057  39.447  1.00 62.42 LIG 0.22  C 
ATOM     13 OD1  ASN D4844     -54.144  24.183  38.700  1.00 56.11 LIG-0.27  OA
ATOM     14  ND2 ASN D4844     -53.808  25.818  40.205  1.00 67.26 LIG-0.37  N 
ATOM     15 21HD ASN D4844     -52.955  25.712  40.186  1.00 67.26 LIG 0.16  HD
ATOM     16 22HD ASN D4844     -54.156  26.418  40.715  1.00 67.26 LIG 0.16  HD
ENDBRANCH 11 12
ENDBRANCH 10 11
BRANCH 10 17
ATOM     17  C   ASN D4844     -57.290  23.480  38.330  1.00 52.57 LIG 0.22  C 
ATOM     18 O    ASN D4844     -58.164  23.045  37.562  1.00 48.91 LIG-0.29  OA
ENDBRANCH 10 17
ENDBRANCH 7 10
ENDBRANCH 5 6
BRANCH 5 19
ATOM     19  CB  VAL D4843     -59.660  28.373  38.823  1.00 37.59 LIG 0.01  C 
ATOM     20  CG1 VAL D4843     -60.613  27.213  38.885  1.00 42.19 LIG 0.01  C 
ATOM     21  CG2 VAL D4843     -58.906  28.543  40.145  1.00 33.91 LIG 0.01  C 
ENDBRANCH 5 19
ENDBRANCH 3 5
BRANCH 1 22
ATOM     22  CA  VAL D4842     -59.724  26.759  34.289  1.00 42.26 LIG 0.18  C 
BRANCH 22 23
ATOM     23  N   VAL D4842     -60.282  27.497  33.153  1.00 51.43 LIG-0.34  N 
ATOM     24 H    VAL D4842     -59.835  27.406  32.424  1.00 51.43 LIG 0.16  HD
ATOM     25  C   LEU D4841     -61.385  28.237  33.250  1.00 54.30 LIG 0.26  C 
ATOM     26 O    LEU D4841     -61.952  28.720  32.273  1.00 66.57 LIG-0.27  OA
BRANCH 25 27
ATOM     27  CA  LEU D4841     -61.950  28.435  34.650  1.00 50.85 LIG 0.40  C 
ATOM     28  N   LEU D4841     -62.535  29.771  34.789  1.00 66.18 LIG 0.61  N 
BRANCH 27 29
ATOM     29  CB  LEU D4841     -63.004  27.364  34.955  1.00 58.40 LIG 0.06  C 
BRANCH 29 30
ATOM     30  CG  LEU D4841     -62.490  26.000  35.433  1.00 54.26 LIG-0.02  C 
ATOM     31  CD2 LEU D4841     -62.872  24.853  34.467  1.00 54.78 LIG 0.01  C 
ATOM     32  CD1 LEU D4841     -62.943  25.697  36.867  1.00 32.44 LIG 0.01  C 
ENDBRANCH 29 30
ENDBRANCH 27 29
ENDBRANCH 25 27
ENDBRANCH 22 23
BRANCH 22 33
ATOM     33  CB  VAL D4842     -58.962  25.488  33.833  1.00 48.47 LIG 0.01  C 
ATOM     34  CG2 VAL D4842     -59.320  25.115  32.421  1.00 42.42 LIG 0.01  C 
ATOM     35  CG1 VAL D4842     -59.291  24.339  34.771  1.00 34.87 LIG 0.01  C 
ENDBRANCH 22 33
ENDBRANCH 1 22
TORSDOF 13
ENDMDL
