MODEL 1
USER: ADFR SOLUTION from run 130
USER: SCORE 17.658612 LL:  -4.016 LR: -13.989 RR:   0.000 FEB:  -8.918
USER: RMSD 2.164948
USER: SEED 129
USER: STATUS no improvement in best in 3 clusters for 5 generations
USER: GENES 19
USER: genes 0 Translation |==|  0.53263 0.52303 0.55883
USER: genes 1 Rotation |==|  0.49435 0.51784 0.51547 0.99941
USER: genes 2 Torsion [C]-N--CA-[C] |==|  0.82384
USER: genes 3 Torsion [N]-CA--CB-[CG] |==|  0.18773
USER: genes 4 Torsion [CA]-CB--CG-[CD1] |==|  0.75303
USER: genes 5 Torsion [N]-CA--C-[N] |==|  0.38738
USER: genes 6 Torsion [C]-N--CA-[C] |==|  0.65645
USER: genes 7 Torsion [N]-CA--C-[O] |==|  0.41549
USER: genes 8 Torsion [N]-CA--CB-[CG] |==|  0.90166
USER: genes 9 Torsion [CA]-CB--CG-[CD] |==|  0.75470
USER: genes 10 Torsion [CB]-CG--CD-[OE1] |==|  0.04151
USER: genes 11 Torsion [N]-C--CA-[N] |==|  0.15760
USER: genes 12 Torsion [C]-CA--CB-[CG] |==|  0.31183
USER: genes 13 Torsion [CA]-CB--CG-[CD1] |==|  0.11686
USER: genes 14 Torsion [CE1]-CZ--OH-[HH] |==|  0.51129
USER: genes 15 Torsion [C]-CA--N-[C] |==|  0.75180
USER: genes 16 Torsion [N]-C--CA-[N] |==|  0.43615
USER: genes 17 Torsion [C]-CA--CB-[CG] |==|  0.90211
USER: genes 18 Torsion [CA]-CB--CG-[CD1] |==|  0.32942
ROOT
ATOM      1  C   TYR C  12     -37.111  69.466  14.953  1.00 66.29 LIG 0.24  C 
ATOM      2 O    TYR C  12     -36.660  70.049  15.939  1.00 72.73 LIG-0.27  OA
ATOM      3  N   PHE C  13     -36.335  68.920  14.020  1.00 62.12 LIG-0.35  N 
ATOM      4 H    PHE C  13     -36.632  68.532  13.311  1.00 62.12 LIG 0.16  HD
ENDROOT
BRANCH 3 5
ATOM      5  CA  PHE C  13     -34.881  68.942  14.136  1.00 61.15 LIG 0.18  C 
BRANCH 5 6
ATOM      6  CB  PHE C  13     -34.230  68.111  13.024  1.00 57.79 LIG 0.07  C 
BRANCH 6 7
ATOM      7  CG  PHE C  13     -34.399  68.690  11.644  1.00 55.93 LIG-0.06  A 
ATOM      8  CD1 PHE C  13     -35.502  68.366  10.870  1.00 55.40 LIG 0.01  A 
ATOM      9  CE1 PHE C  13     -35.663  68.904   9.604  1.00 55.08 LIG 0.00  A 
ATOM     10  CZ  PHE C  13     -34.721  69.780   9.102  1.00 53.84 LIG 0.00  A 
ATOM     11  CE2 PHE C  13     -33.624  70.119   9.869  1.00 62.38 LIG 0.00  A 
ATOM     12  CD2 PHE C  13     -33.465  69.575  11.131  1.00 55.52 LIG 0.01  A 
ENDBRANCH 6 7
ENDBRANCH 5 6
BRANCH 5 13
ATOM     13  C   PHE C  13     -34.351  70.370  14.111  1.00 64.85 LIG 0.24  C 
ATOM     14 O    PHE C  13     -34.830  71.207  13.347  1.00 62.65 LIG-0.27  OA
ATOM     15  N   GLN C  14     -33.363  70.641  14.958  1.00 69.96 LIG-0.34  N 
ATOM     16 H    GLN C  14     -33.001  70.056  15.474  1.00 69.96 LIG 0.16  HD
BRANCH 15 17
ATOM     17  CA  GLN C  14     -32.798  71.980  15.085  1.00 68.16 LIG 0.19  C 
BRANCH 17 18
ATOM     18  C   GLN C  14     -31.291  71.978  14.841  1.00 80.56 LIG 0.20  C 
ATOM     19 O    GLN C  14     -30.720  72.959  14.361  1.00 73.75 LIG-0.65  OA
ATOM     20 OXT  GLN C  14     -30.608  70.992  15.121  1.00 84.17 LIG-0.65  OA
ENDBRANCH 17 18
BRANCH 17 21
ATOM     21  CB  GLN C  14     -33.105  72.555  16.470  1.00 71.08 LIG 0.04  C 
BRANCH 21 22
ATOM     22  CG  GLN C  14     -34.463  72.154  17.024  1.00 84.90 LIG 0.10  C 
BRANCH 22 23
ATOM     23  CD  GLN C  14     -35.566  73.105  16.607  1.00 85.71 LIG 0.21  C 
ATOM     24  NE2 GLN C  14     -36.711  73.017  17.275  1.00 87.27 LIG-0.37  N 
ATOM     25 22HE GLN C  14     -37.367  73.534  17.074  1.00 87.27 LIG 0.16  HD
ATOM     26 21HE GLN C  14     -36.795  72.442  17.910  1.00 87.27 LIG 0.16  HD
ATOM     27 OE1  GLN C  14     -35.393  73.909  15.691  1.00 92.83 LIG-0.27  OA
ENDBRANCH 22 23
ENDBRANCH 21 22
ENDBRANCH 17 21
ENDBRANCH 15 17
ENDBRANCH 5 13
ENDBRANCH 3 5
BRANCH 1 28
ATOM     28  CA  TYR C  12     -38.617  69.346  14.748  1.00 72.08 LIG 0.18  C 
BRANCH 28 29
ATOM     29  CB  TYR C  12     -39.350  70.016  15.913  1.00 70.95 LIG 0.07  C 
BRANCH 29 30
ATOM     30  CG  TYR C  12     -40.106  71.266  15.531  1.00 83.06 LIG-0.06  A 
ATOM     31  CD1 TYR C  12     -40.847  71.324  14.357  1.00 86.94 LIG 0.01  A 
ATOM     32  CE1 TYR C  12     -41.542  72.466  14.005  1.00 80.65 LIG 0.04  A 
ATOM     33  CZ  TYR C  12     -41.506  73.567  14.833  1.00 81.62 LIG 0.07  A 
ATOM     34  CE2 TYR C  12     -40.780  73.534  16.006  1.00 86.89 LIG 0.04  A 
ATOM     35  CD2 TYR C  12     -40.087  72.389  16.349  1.00 81.98 LIG 0.01  A 
BRANCH 33 36
ATOM     36 OH   TYR C  12     -42.196  74.706  14.486  1.00 83.24 LIG-0.36  OA
ATOM     37 HH   TYR C  12     -42.041  75.310  15.049  1.00 83.24 LIG 0.22  HD
ENDBRANCH 33 36
ENDBRANCH 29 30
ENDBRANCH 28 29
BRANCH 28 38
ATOM     38  N   TYR C  12     -39.033  67.954  14.615  1.00 66.73 LIG-0.34  N 
ATOM     39  C   LEU C  11     -39.073  67.348  13.433  1.00 75.02 LIG 0.26  C 
ATOM     40 O    LEU C  11     -38.772  67.910  12.380  1.00 79.88 LIG-0.27  OA
ATOM     41 H    TYR C  12     -39.245  67.574  15.356  1.00 66.73 LIG 0.16  HD
BRANCH 39 42
ATOM     42  CA  LEU C  11     -39.519  65.890  13.435  1.00 79.60 LIG 0.40  C 
ATOM     43  N   LEU C  11     -40.039  65.492  12.131  1.00 85.33 LIG 0.61  N 
BRANCH 42 44
ATOM     44  CB  LEU C  11     -38.354  64.987  13.847  1.00 82.02 LIG 0.06  C 
BRANCH 44 45
ATOM     45  CG  LEU C  11     -36.957  65.408  13.386  1.00 84.03 LIG-0.02  C 
ATOM     46  CD1 LEU C  11     -36.056  65.677  14.581  1.00 79.83 LIG 0.01  C 
ATOM     47  CD2 LEU C  11     -36.348  64.348  12.482  1.00 84.62 LIG 0.01  C 
ENDBRANCH 44 45
ENDBRANCH 42 44
ENDBRANCH 39 42
ENDBRANCH 28 38
ENDBRANCH 1 28
TORSDOF 17
ENDMDL
MODEL 2
USER: ADFR SOLUTION from run 66
USER: SCORE 15.904975 LL:  -3.394 LR: -13.191 RR:   0.000 FEB:  -8.120
USER: RMSD 5.989168
USER: SEED 65
USER: STATUS no improvement in best in 10 clusters for 5 generations
USER: GENES 19
USER: genes 0 Translation |==|  0.61021 0.52891 0.53702
USER: genes 1 Rotation |==|  0.21497 0.13057 0.59016 0.65540
USER: genes 2 Torsion [C]-N--CA-[C] |==|  0.75846
USER: genes 3 Torsion [N]-CA--CB-[CG] |==|  0.66071
USER: genes 4 Torsion [CA]-CB--CG-[CD1] |==|  0.00520
USER: genes 5 Torsion [N]-CA--C-[N] |==|  0.93744
USER: genes 6 Torsion [C]-N--CA-[C] |==|  0.58778
USER: genes 7 Torsion [N]-CA--C-[O] |==|  0.28260
USER: genes 8 Torsion [N]-CA--CB-[CG] |==|  0.72401
USER: genes 9 Torsion [CA]-CB--CG-[CD] |==|  0.27282
USER: genes 10 Torsion [CB]-CG--CD-[OE1] |==|  0.00825
USER: genes 11 Torsion [N]-C--CA-[N] |==|  0.33215
USER: genes 12 Torsion [C]-CA--CB-[CG] |==|  0.83941
USER: genes 13 Torsion [CA]-CB--CG-[CD1] |==|  0.36179
USER: genes 14 Torsion [CE1]-CZ--OH-[HH] |==|  0.76750
USER: genes 15 Torsion [C]-CA--N-[C] |==|  0.52778
USER: genes 16 Torsion [N]-C--CA-[N] |==|  0.55315
USER: genes 17 Torsion [C]-CA--CB-[CG] |==|  0.26327
USER: genes 18 Torsion [CA]-CB--CG-[CD1] |==|  0.32786
ROOT
ATOM      1  C   TYR C  12     -35.365  69.576  14.593  1.00 66.29 LIG 0.24  C 
ATOM      2 O    TYR C  12     -35.725  70.213  13.602  1.00 72.73 LIG-0.27  OA
ATOM      3  N   PHE C  13     -35.320  70.104  15.813  1.00 62.12 LIG-0.35  N 
ATOM      4 H    PHE C  13     -35.046  69.682  16.511  1.00 62.12 LIG 0.16  HD
ENDROOT
BRANCH 3 5
ATOM      5  CA  PHE C  13     -35.744  71.478  16.061  1.00 61.15 LIG 0.18  C 
BRANCH 5 6
ATOM      6  CB  PHE C  13     -36.305  71.631  17.480  1.00 57.79 LIG 0.07  C 
BRANCH 6 7
ATOM      7  CG  PHE C  13     -37.720  72.143  17.530  1.00 55.93 LIG-0.06  A 
ATOM      8  CD1 PHE C  13     -38.423  72.400  16.363  1.00 55.40 LIG 0.01  A 
ATOM      9  CE1 PHE C  13     -39.726  72.864  16.408  1.00 55.08 LIG 0.00  A 
ATOM     10  CZ  PHE C  13     -40.344  73.070  17.625  1.00 53.84 LIG 0.00  A 
ATOM     11  CE2 PHE C  13     -39.658  72.808  18.794  1.00 62.38 LIG 0.00  A 
ATOM     12  CD2 PHE C  13     -38.353  72.348  18.745  1.00 55.52 LIG 0.01  A 
ENDBRANCH 6 7
ENDBRANCH 5 6
BRANCH 5 13
ATOM     13  C   PHE C  13     -34.596  72.453  15.835  1.00 64.85 LIG 0.24  C 
ATOM     14 O    PHE C  13     -34.815  73.639  15.591  1.00 62.65 LIG-0.27  OA
ATOM     15  N   GLN C  14     -33.371  71.944  15.925  1.00 69.96 LIG-0.34  N 
ATOM     16 H    GLN C  14     -33.209  71.111  16.064  1.00 69.96 LIG 0.16  HD
BRANCH 15 17
ATOM     17  CA  GLN C  14     -32.177  72.771  15.790  1.00 68.16 LIG 0.19  C 
BRANCH 17 18
ATOM     18  C   GLN C  14     -31.021  71.990  15.170  1.00 80.56 LIG 0.20  C 
ATOM     19 O    GLN C  14     -30.721  72.128  13.983  1.00 73.75 LIG-0.65  OA
ATOM     20 OXT  GLN C  14     -30.359  71.201  15.845  1.00 84.17 LIG-0.65  OA
ENDBRANCH 17 18
BRANCH 17 21
ATOM     21  CB  GLN C  14     -31.762  73.328  17.154  1.00 71.08 LIG 0.04  C 
BRANCH 21 22
ATOM     22  CG  GLN C  14     -32.205  74.761  17.402  1.00 84.90 LIG 0.10  C 
BRANCH 22 23
ATOM     23  CD  GLN C  14     -33.474  74.845  18.226  1.00 85.71 LIG 0.21  C 
ATOM     24  NE2 GLN C  14     -33.964  76.061  18.441  1.00 87.27 LIG-0.37  N 
ATOM     25 22HE GLN C  14     -34.681  76.159  18.905  1.00 87.27 LIG 0.16  HD
ATOM     26 21HE GLN C  14     -33.564  76.749  18.116  1.00 87.27 LIG 0.16  HD
ATOM     27 OE1  GLN C  14     -34.006  73.827  18.668  1.00 92.83 LIG-0.27  OA
ENDBRANCH 22 23
ENDBRANCH 21 22
ENDBRANCH 17 21
ENDBRANCH 15 17
ENDBRANCH 5 13
ENDBRANCH 3 5
BRANCH 1 28
ATOM     28  CA  TYR C  12     -34.938  68.118  14.459  1.00 72.08 LIG 0.18  C 
BRANCH 28 29
ATOM     29  CB  TYR C  12     -33.709  68.022  13.554  1.00 70.95 LIG 0.07  C 
BRANCH 29 30
ATOM     30  CG  TYR C  12     -33.913  68.594  12.170  1.00 83.06 LIG-0.06  A 
ATOM     31  CD1 TYR C  12     -33.004  69.494  11.627  1.00 86.94 LIG 0.01  A 
ATOM     32  CE1 TYR C  12     -33.186  70.018  10.361  1.00 80.65 LIG 0.04  A 
ATOM     33  CZ  TYR C  12     -34.285  69.639   9.619  1.00 81.62 LIG 0.07  A 
ATOM     34  CE2 TYR C  12     -35.201  68.745  10.135  1.00 86.89 LIG 0.04  A 
ATOM     35  CD2 TYR C  12     -35.012  68.228  11.402  1.00 81.98 LIG 0.01  A 
BRANCH 33 36
ATOM     36 OH   TYR C  12     -34.470  70.159   8.358  1.00 83.24 LIG-0.36  OA
ATOM     37 HH   TYR C  12     -34.847  70.907   8.416  1.00 83.24 LIG 0.22  HD
ENDBRANCH 33 36
ENDBRANCH 29 30
ENDBRANCH 28 29
BRANCH 28 38
ATOM     38  N   TYR C  12     -36.020  67.286  13.944  1.00 66.73 LIG-0.34  N 
ATOM     39  C   LEU C  11     -35.936  65.960  13.932  1.00 75.02 LIG 0.26  C 
ATOM     40 O    LEU C  11     -34.951  65.347  14.344  1.00 79.88 LIG-0.27  OA
ATOM     41 H    TYR C  12     -36.700  67.726  13.656  1.00 66.73 LIG 0.16  HD
BRANCH 39 42
ATOM     42  CA  LEU C  11     -37.139  65.210  13.373  1.00 79.60 LIG 0.40  C 
ATOM     43  N   LEU C  11     -37.145  63.817  13.806  1.00 85.33 LIG 0.61  N 
BRANCH 42 44
ATOM     44  CB  LEU C  11     -38.434  65.909  13.795  1.00 82.02 LIG 0.06  C 
BRANCH 44 45
ATOM     45  CG  LEU C  11     -39.032  66.911  12.804  1.00 84.03 LIG-0.02  C 
ATOM     46  CD1 LEU C  11     -40.413  66.462  12.355  1.00 79.83 LIG 0.01  C 
ATOM     47  CD2 LEU C  11     -39.093  68.302  13.418  1.00 84.62 LIG 0.01  C 
ENDBRANCH 44 45
ENDBRANCH 42 44
ENDBRANCH 39 42
ENDBRANCH 28 38
ENDBRANCH 1 28
TORSDOF 17
ENDMDL
MODEL 3
USER: ADFR SOLUTION from run 171
USER: SCORE 15.689210 LL:  -3.453 LR: -13.141 RR:   0.000 FEB:  -8.070
USER: RMSD 6.790490
USER: SEED 170
USER: STATUS no improvement in best in 9 clusters for 5 generations
USER: GENES 19
USER: genes 0 Translation |==|  0.68617 0.35029 0.56991
USER: genes 1 Rotation |==|  0.80803 0.82132 0.47906 0.72678
USER: genes 2 Torsion [C]-N--CA-[C] |==|  0.65935
USER: genes 3 Torsion [N]-CA--CB-[CG] |==|  0.53201
USER: genes 4 Torsion [CA]-CB--CG-[CD1] |==|  0.99790
USER: genes 5 Torsion [N]-CA--C-[N] |==|  0.28555
USER: genes 6 Torsion [C]-N--CA-[C] |==|  0.50036
USER: genes 7 Torsion [N]-CA--C-[O] |==|  0.87963
USER: genes 8 Torsion [N]-CA--CB-[CG] |==|  0.54727
USER: genes 9 Torsion [CA]-CB--CG-[CD] |==|  0.26788
USER: genes 10 Torsion [CB]-CG--CD-[OE1] |==|  0.78120
USER: genes 11 Torsion [N]-C--CA-[N] |==|  0.80174
USER: genes 12 Torsion [C]-CA--CB-[CG] |==|  0.15684
USER: genes 13 Torsion [CA]-CB--CG-[CD1] |==|  0.67637
USER: genes 14 Torsion [CE1]-CZ--OH-[HH] |==|  0.40292
USER: genes 15 Torsion [C]-CA--N-[C] |==|  0.62962
USER: genes 16 Torsion [N]-C--CA-[N] |==|  0.48145
USER: genes 17 Torsion [C]-CA--CB-[CG] |==|  0.94055
USER: genes 18 Torsion [CA]-CB--CG-[CD1] |==|  0.31638
ROOT
ATOM      1  C   TYR C  12     -33.656  66.227  15.136  1.00 66.29 LIG 0.24  C 
ATOM      2 O    TYR C  12     -32.595  66.034  14.541  1.00 72.73 LIG-0.27  OA
ATOM      3  N   PHE C  13     -34.468  67.243  14.854  1.00 62.12 LIG-0.35  N 
ATOM      4 H    PHE C  13     -35.199  67.408  15.277  1.00 62.12 LIG 0.16  HD
ENDROOT
BRANCH 3 5
ATOM      5  CA  PHE C  13     -34.165  68.178  13.775  1.00 61.15 LIG 0.18  C 
BRANCH 5 6
ATOM      6  CB  PHE C  13     -35.201  68.069  12.650  1.00 57.79 LIG 0.07  C 
BRANCH 6 7
ATOM      7  CG  PHE C  13     -34.816  68.794  11.388  1.00 55.93 LIG-0.06  A 
ATOM      8  CD1 PHE C  13     -33.624  69.498  11.310  1.00 55.40 LIG 0.01  A 
ATOM      9  CE1 PHE C  13     -33.265  70.159  10.148  1.00 55.08 LIG 0.00  A 
ATOM     10  CZ  PHE C  13     -34.095  70.116   9.045  1.00 53.84 LIG 0.00  A 
ATOM     11  CE2 PHE C  13     -35.278  69.409   9.107  1.00 62.38 LIG 0.00  A 
ATOM     12  CD2 PHE C  13     -35.636  68.753  10.272  1.00 55.52 LIG 0.01  A 
ENDBRANCH 6 7
ENDBRANCH 5 6
BRANCH 5 13
ATOM     13  C   PHE C  13     -34.094  69.608  14.296  1.00 64.85 LIG 0.24  C 
ATOM     14 O    PHE C  13     -35.120  70.239  14.549  1.00 62.65 LIG-0.27  OA
ATOM     15  N   GLN C  14     -32.874  70.111  14.456  1.00 69.96 LIG-0.34  N 
ATOM     16 H    GLN C  14     -32.153  69.690  14.252  1.00 69.96 LIG 0.16  HD
BRANCH 15 17
ATOM     17  CA  GLN C  14     -32.653  71.446  15.002  1.00 68.16 LIG 0.19  C 
BRANCH 17 18
ATOM     18  C   GLN C  14     -31.165  71.780  15.078  1.00 80.56 LIG 0.20  C 
ATOM     19 O    GLN C  14     -30.345  70.954  15.484  1.00 73.75 LIG-0.65  OA
ATOM     20 OXT  GLN C  14     -30.747  72.886  14.732  1.00 84.17 LIG-0.65  OA
ENDBRANCH 17 18
BRANCH 17 21
ATOM     21  CB  GLN C  14     -33.289  71.564  16.389  1.00 71.08 LIG 0.04  C 
BRANCH 21 22
ATOM     22  CG  GLN C  14     -33.476  72.995  16.868  1.00 84.90 LIG 0.10  C 
BRANCH 22 23
ATOM     23  CD  GLN C  14     -34.872  73.520  16.604  1.00 85.71 LIG 0.21  C 
ATOM     24  NE2 GLN C  14     -35.708  73.533  17.637  1.00 87.27 LIG-0.37  N 
ATOM     25 22HE GLN C  14     -36.511  73.820  17.536  1.00 87.27 LIG 0.16  HD
ATOM     26 21HE GLN C  14     -35.444  73.253  18.406  1.00 87.27 LIG 0.16  HD
ATOM     27 OE1  GLN C  14     -35.197  73.909  15.482  1.00 92.83 LIG-0.27  OA
ENDBRANCH 22 23
ENDBRANCH 21 22
ENDBRANCH 17 21
ENDBRANCH 15 17
ENDBRANCH 5 13
ENDBRANCH 3 5
BRANCH 1 28
ATOM     28  CA  TYR C  12     -34.094  65.289  16.255  1.00 72.08 LIG 0.18  C 
BRANCH 28 29
ATOM     29  CB  TYR C  12     -35.528  64.819  16.002  1.00 70.95 LIG 0.07  C 
BRANCH 29 30
ATOM     30  CG  TYR C  12     -35.733  64.146  14.665  1.00 83.06 LIG-0.06  A 
ATOM     31  CD1 TYR C  12     -36.575  64.698  13.708  1.00 86.94 LIG 0.01  A 
ATOM     32  CE1 TYR C  12     -36.763  64.086  12.482  1.00 80.65 LIG 0.04  A 
ATOM     33  CZ  TYR C  12     -36.102  62.910  12.200  1.00 81.62 LIG 0.07  A 
ATOM     34  CE2 TYR C  12     -35.258  62.343  13.133  1.00 86.89 LIG 0.04  A 
ATOM     35  CD2 TYR C  12     -35.077  62.960  14.356  1.00 81.98 LIG 0.01  A 
BRANCH 33 36
ATOM     36 OH   TYR C  12     -36.287  62.297  10.982  1.00 83.24 LIG-0.36  OA
ATOM     37 HH   TYR C  12     -35.569  61.936  10.738  1.00 83.24 LIG 0.22  HD
ENDBRANCH 33 36
ENDBRANCH 29 30
ENDBRANCH 28 29
BRANCH 28 38
ATOM     38  N   TYR C  12     -33.988  65.926  17.563  1.00 66.73 LIG-0.34  N 
ATOM     39  C   LEU C  11     -33.428  65.307  18.598  1.00 75.02 LIG 0.26  C 
ATOM     40 O    LEU C  11     -32.970  64.167  18.528  1.00 79.88 LIG-0.27  OA
ATOM     41 H    TYR C  12     -34.315  66.720  17.599  1.00 66.73 LIG 0.16  HD
BRANCH 39 42
ATOM     42  CA  LEU C  11     -33.374  66.088  19.906  1.00 79.60 LIG 0.40  C 
ATOM     43  N   LEU C  11     -32.885  65.257  21.000  1.00 85.33 LIG 0.61  N 
BRANCH 42 44
ATOM     44  CB  LEU C  11     -32.495  67.330  19.738  1.00 82.02 LIG 0.06  C 
BRANCH 44 45
ATOM     45  CG  LEU C  11     -31.481  67.309  18.592  1.00 84.03 LIG-0.02  C 
ATOM     46  CD1 LEU C  11     -31.835  68.350  17.543  1.00 79.83 LIG 0.01  C 
ATOM     47  CD2 LEU C  11     -30.072  67.534  19.118  1.00 84.62 LIG 0.01  C 
ENDBRANCH 44 45
ENDBRANCH 42 44
ENDBRANCH 39 42
ENDBRANCH 28 38
ENDBRANCH 1 28
TORSDOF 17
ENDMDL
MODEL 4
USER: ADFR SOLUTION from run 64
USER: SCORE 15.328817 LL:  -3.346 LR: -12.928 RR:   0.000 FEB:  -7.857
USER: RMSD 7.366587
USER: SEED 63
USER: STATUS no improvement in best in 14 clusters for 5 generations
USER: GENES 19
USER: genes 0 Translation |==|  0.68620 0.34104 0.57443
USER: genes 1 Rotation |==|  0.80225 0.82553 0.51905 0.72873
USER: genes 2 Torsion [C]-N--CA-[C] |==|  0.73582
USER: genes 3 Torsion [N]-CA--CB-[CG] |==|  0.59246
USER: genes 4 Torsion [CA]-CB--CG-[CD1] |==|  0.36799
USER: genes 5 Torsion [N]-CA--C-[N] |==|  0.24600
USER: genes 6 Torsion [C]-N--CA-[C] |==|  0.67160
USER: genes 7 Torsion [N]-CA--C-[O] |==|  0.89421
USER: genes 8 Torsion [N]-CA--CB-[CG] |==|  0.04123
USER: genes 9 Torsion [CA]-CB--CG-[CD] |==|  0.38093
USER: genes 10 Torsion [CB]-CG--CD-[OE1] |==|  0.81278
USER: genes 11 Torsion [N]-C--CA-[N] |==|  0.76910
USER: genes 12 Torsion [C]-CA--CB-[CG] |==|  0.17702
USER: genes 13 Torsion [CA]-CB--CG-[CD1] |==|  0.65077
USER: genes 14 Torsion [CE1]-CZ--OH-[HH] |==|  0.43073
USER: genes 15 Torsion [C]-CA--N-[C] |==|  0.62251
USER: genes 16 Torsion [N]-C--CA-[N] |==|  0.40826
USER: genes 17 Torsion [C]-CA--CB-[CG] |==|  0.40235
USER: genes 18 Torsion [CA]-CB--CG-[CD1] |==|  0.39705
ROOT
ATOM      1  C   TYR C  12     -33.655  66.054  15.210  1.00 66.29 LIG 0.24  C 
ATOM      2 O    TYR C  12     -32.531  66.017  14.709  1.00 72.73 LIG-0.27  OA
ATOM      3  N   PHE C  13     -34.537  67.011  14.936  1.00 62.12 LIG-0.35  N 
ATOM      4 H    PHE C  13     -35.317  67.067  15.296  1.00 62.12 LIG 0.16  HD
ENDROOT
BRANCH 3 5
ATOM      5  CA  PHE C  13     -34.236  68.066  13.974  1.00 61.15 LIG 0.18  C 
BRANCH 5 6
ATOM      6  CB  PHE C  13     -35.474  68.417  13.139  1.00 57.79 LIG 0.07  C 
BRANCH 6 7
ATOM      7  CG  PHE C  13     -35.165  68.826  11.723  1.00 55.93 LIG-0.06  A 
ATOM      8  CD1 PHE C  13     -35.871  68.284  10.660  1.00 55.40 LIG 0.01  A 
ATOM      9  CE1 PHE C  13     -35.594  68.665   9.358  1.00 55.08 LIG 0.00  A 
ATOM     10  CZ  PHE C  13     -34.609  69.600   9.107  1.00 53.84 LIG 0.00  A 
ATOM     11  CE2 PHE C  13     -33.909  70.154  10.159  1.00 62.38 LIG 0.00  A 
ATOM     12  CD2 PHE C  13     -34.186  69.768  11.458  1.00 55.52 LIG 0.01  A 
ENDBRANCH 6 7
ENDBRANCH 5 6
BRANCH 5 13
ATOM     13  C   PHE C  13     -33.698  69.307  14.674  1.00 64.85 LIG 0.24  C 
ATOM     14 O    PHE C  13     -34.457  70.202  15.043  1.00 62.65 LIG-0.27  OA
ATOM     15  N   GLN C  14     -32.382  69.350  14.858  1.00 69.96 LIG-0.34  N 
ATOM     16 H    GLN C  14     -31.840  68.744  14.577  1.00 69.96 LIG 0.16  HD
BRANCH 15 17
ATOM     17  CA  GLN C  14     -31.734  70.448  15.567  1.00 68.16 LIG 0.19  C 
BRANCH 17 18
ATOM     18  C   GLN C  14     -30.757  71.197  14.664  1.00 80.56 LIG 0.20  C 
ATOM     19 O    GLN C  14     -30.057  70.599  13.845  1.00 73.75 LIG-0.65  OA
ATOM     20 OXT  GLN C  14     -30.646  72.422  14.732  1.00 84.17 LIG-0.65  OA
ENDBRANCH 17 18
BRANCH 17 21
ATOM     21  CB  GLN C  14     -31.007  69.924  16.807  1.00 71.08 LIG 0.04  C 
BRANCH 21 22
ATOM     22  CG  GLN C  14     -30.816  68.416  16.825  1.00 84.90 LIG 0.10  C 
BRANCH 22 23
ATOM     23  CD  GLN C  14     -29.432  68.008  17.289  1.00 85.71 LIG 0.21  C 
ATOM     24  NE2 GLN C  14     -29.359  67.378  18.457  1.00 87.27 LIG-0.37  N 
ATOM     25 22HE GLN C  14     -28.596  67.129  18.763  1.00 87.27 LIG 0.16  HD
ATOM     26 21HE GLN C  14     -30.075  67.220  18.906  1.00 87.27 LIG 0.16  HD
ATOM     27 OE1  GLN C  14     -28.439  68.259  16.607  1.00 92.83 LIG-0.27  OA
ENDBRANCH 22 23
ENDBRANCH 21 22
ENDBRANCH 17 21
ENDBRANCH 15 17
ENDBRANCH 5 13
ENDBRANCH 3 5
BRANCH 1 28
ATOM     28  CA  TYR C  12     -34.095  64.979  16.199  1.00 72.08 LIG 0.18  C 
BRANCH 28 29
ATOM     29  CB  TYR C  12     -35.558  64.611  15.943  1.00 70.95 LIG 0.07  C 
BRANCH 29 30
ATOM     30  CG  TYR C  12     -35.812  63.989  14.590  1.00 83.06 LIG-0.06  A 
ATOM     31  CD1 TYR C  12     -36.765  64.518  13.728  1.00 86.94 LIG 0.01  A 
ATOM     32  CE1 TYR C  12     -36.999  63.954  12.487  1.00 80.65 LIG 0.04  A 
ATOM     33  CZ  TYR C  12     -36.274  62.849  12.094  1.00 81.62 LIG 0.07  A 
ATOM     34  CE2 TYR C  12     -35.321  62.307  12.931  1.00 86.89 LIG 0.04  A 
ATOM     35  CD2 TYR C  12     -35.094  62.876  14.169  1.00 81.98 LIG 0.01  A 
BRANCH 33 36
ATOM     36 OH   TYR C  12     -36.505  62.284  10.861  1.00 83.24 LIG-0.36  OA
ATOM     37 HH   TYR C  12     -35.817  61.875  10.607  1.00 83.24 LIG 0.22  HD
ENDBRANCH 33 36
ENDBRANCH 29 30
ENDBRANCH 28 29
BRANCH 28 38
ATOM     38  N   TYR C  12     -33.910  65.411  17.580  1.00 66.73 LIG-0.34  N 
ATOM     39  C   LEU C  11     -33.387  64.606  18.499  1.00 75.02 LIG 0.26  C 
ATOM     40 O    LEU C  11     -33.031  63.453  18.256  1.00 79.88 LIG-0.27  OA
ATOM     41 H    TYR C  12     -34.166  66.216  17.738  1.00 66.73 LIG 0.16  HD
BRANCH 39 42
ATOM     42  CA  LEU C  11     -33.243  65.184  19.902  1.00 79.60 LIG 0.40  C 
ATOM     43  N   LEU C  11     -33.423  64.156  20.921  1.00 85.33 LIG 0.61  N 
BRANCH 42 44
ATOM     44  CB  LEU C  11     -31.876  65.857  20.053  1.00 82.02 LIG 0.06  C 
BRANCH 44 45
ATOM     45  CG  LEU C  11     -31.817  67.113  20.926  1.00 84.03 LIG-0.02  C 
ATOM     46  CD1 LEU C  11     -30.519  67.155  21.717  1.00 79.83 LIG 0.01  C 
ATOM     47  CD2 LEU C  11     -31.969  68.365  20.076  1.00 84.62 LIG 0.01  C 
ENDBRANCH 44 45
ENDBRANCH 42 44
ENDBRANCH 39 42
ENDBRANCH 28 38
ENDBRANCH 1 28
TORSDOF 17
ENDMDL
MODEL 5
USER: ADFR SOLUTION from run 147
USER: SCORE 15.485792 LL:  -3.114 LR: -12.908 RR:   0.000 FEB:  -7.837
USER: RMSD 6.706598
USER: SEED 146
USER: STATUS no improvement in best in 26 clusters for 5 generations
USER: GENES 19
USER: genes 0 Translation |==|  0.50424 0.50699 0.56893
USER: genes 1 Rotation |==|  0.08341 0.65757 0.72589 0.52441
USER: genes 2 Torsion [C]-N--CA-[C] |==|  0.73547
USER: genes 3 Torsion [N]-CA--CB-[CG] |==|  0.60820
USER: genes 4 Torsion [CA]-CB--CG-[CD1] |==|  0.98694
USER: genes 5 Torsion [N]-CA--C-[N] |==|  0.98335
USER: genes 6 Torsion [C]-N--CA-[C] |==|  0.20402
USER: genes 7 Torsion [N]-CA--C-[O] |==|  0.96803
USER: genes 8 Torsion [N]-CA--CB-[CG] |==|  0.40272
USER: genes 9 Torsion [CA]-CB--CG-[CD] |==|  0.68773
USER: genes 10 Torsion [CB]-CG--CD-[OE1] |==|  0.02267
USER: genes 11 Torsion [N]-C--CA-[N] |==|  0.17039
USER: genes 12 Torsion [C]-CA--CB-[CG] |==|  0.76152
USER: genes 13 Torsion [CA]-CB--CG-[CD1] |==|  0.27386
USER: genes 14 Torsion [CE1]-CZ--OH-[HH] |==|  0.43394
USER: genes 15 Torsion [C]-CA--N-[C] |==|  0.61285
USER: genes 16 Torsion [N]-C--CA-[N] |==|  0.55518
USER: genes 17 Torsion [C]-CA--CB-[CG] |==|  0.77769
USER: genes 18 Torsion [CA]-CB--CG-[CD1] |==|  0.36753
ROOT
ATOM      1  C   TYR C  12     -37.750  69.165  15.119  1.00 66.29 LIG 0.24  C 
ATOM      2 O    TYR C  12     -38.635  68.918  14.300  1.00 72.73 LIG-0.27  OA
ATOM      3  N   PHE C  13     -36.464  68.909  14.893  1.00 62.12 LIG-0.35  N 
ATOM      4 H    PHE C  13     -35.836  69.050  15.464  1.00 62.12 LIG 0.16  HD
ENDROOT
BRANCH 3 5
ATOM      5  CA  PHE C  13     -36.015  68.354  13.621  1.00 61.15 LIG 0.18  C 
BRANCH 5 6
ATOM      6  CB  PHE C  13     -34.679  68.975  13.193  1.00 57.79 LIG 0.07  C 
BRANCH 6 7
ATOM      7  CG  PHE C  13     -34.572  69.245  11.715  1.00 55.93 LIG-0.06  A 
ATOM      8  CD1 PHE C  13     -35.580  68.852  10.848  1.00 55.40 LIG 0.01  A 
ATOM      9  CE1 PHE C  13     -35.487  69.107   9.490  1.00 55.08 LIG 0.00  A 
ATOM     10  CZ  PHE C  13     -34.383  69.766   8.987  1.00 53.84 LIG 0.00  A 
ATOM     11  CE2 PHE C  13     -33.379  70.173   9.842  1.00 62.38 LIG 0.00  A 
ATOM     12  CD2 PHE C  13     -33.475  69.912  11.198  1.00 55.52 LIG 0.01  A 
ENDBRANCH 6 7
ENDBRANCH 5 6
BRANCH 5 13
ATOM     13  C   PHE C  13     -35.894  66.837  13.698  1.00 64.85 LIG 0.24  C 
ATOM     14 O    PHE C  13     -35.631  66.173  12.697  1.00 62.65 LIG-0.27  OA
ATOM     15  N   GLN C  14     -36.086  66.297  14.898  1.00 69.96 LIG-0.34  N 
ATOM     16 H    GLN C  14     -36.301  66.749  15.597  1.00 69.96 LIG 0.16  HD
BRANCH 15 17
ATOM     17  CA  GLN C  14     -35.944  64.864  15.134  1.00 68.16 LIG 0.19  C 
BRANCH 17 18
ATOM     18  C   GLN C  14     -34.478  64.438  15.124  1.00 80.56 LIG 0.20  C 
ATOM     19 O    GLN C  14     -33.593  65.201  14.732  1.00 73.75 LIG-0.65  OA
ATOM     20 OXT  GLN C  14     -34.143  63.318  15.512  1.00 84.17 LIG-0.65  OA
ENDBRANCH 17 18
BRANCH 17 21
ATOM     21  CB  GLN C  14     -36.727  64.074  14.082  1.00 71.08 LIG 0.04  C 
BRANCH 21 22
ATOM     22  CG  GLN C  14     -36.069  62.767  13.670  1.00 84.90 LIG 0.10  C 
BRANCH 22 23
ATOM     23  CD  GLN C  14     -35.581  62.786  12.236  1.00 85.71 LIG 0.21  C 
ATOM     24  NE2 GLN C  14     -35.143  61.634  11.741  1.00 87.27 LIG-0.37  N 
ATOM     25 22HE GLN C  14     -34.854  61.596  10.933  1.00 87.27 LIG 0.16  HD
ATOM     26 21HE GLN C  14     -35.148  60.926  12.230  1.00 87.27 LIG 0.16  HD
ATOM     27 OE1  GLN C  14     -35.595  63.828  11.580  1.00 92.83 LIG-0.27  OA
ENDBRANCH 22 23
ENDBRANCH 21 22
ENDBRANCH 17 21
ENDBRANCH 15 17
ENDBRANCH 5 13
ENDBRANCH 3 5
BRANCH 1 28
ATOM     28  CA  TYR C  12     -38.098  69.785  16.468  1.00 72.08 LIG 0.18  C 
BRANCH 28 29
ATOM     29  CB  TYR C  12     -39.617  69.913  16.599  1.00 70.95 LIG 0.07  C 
BRANCH 29 30
ATOM     30  CG  TYR C  12     -40.185  71.179  16.000  1.00 83.06 LIG-0.06  A 
ATOM     31  CD1 TYR C  12     -40.753  71.177  14.732  1.00 86.94 LIG 0.01  A 
ATOM     32  CE1 TYR C  12     -41.276  72.332  14.181  1.00 80.65 LIG 0.04  A 
ATOM     33  CZ  TYR C  12     -41.240  73.508  14.902  1.00 81.62 LIG 0.07  A 
ATOM     34  CE2 TYR C  12     -40.683  73.534  16.164  1.00 86.89 LIG 0.04  A 
ATOM     35  CD2 TYR C  12     -40.161  72.375  16.706  1.00 81.98 LIG 0.01  A 
BRANCH 33 36
ATOM     36 OH   TYR C  12     -41.758  74.659  14.357  1.00 83.24 LIG-0.36  OA
ATOM     37 HH   TYR C  12     -41.970  75.190  14.972  1.00 83.24 LIG 0.22  HD
ENDBRANCH 33 36
ENDBRANCH 29 30
ENDBRANCH 28 29
BRANCH 28 38
ATOM     38  N   TYR C  12     -37.458  71.084  16.645  1.00 66.73 LIG-0.34  N 
ATOM     39  C   LEU C  11     -36.927  71.448  17.808  1.00 75.02 LIG 0.26  C 
ATOM     40 O    LEU C  11     -36.942  70.729  18.806  1.00 79.88 LIG-0.27  OA
ATOM     41 H    TYR C  12     -37.457  71.578  15.942  1.00 66.73 LIG 0.16  HD
BRANCH 39 42
ATOM     42  CA  LEU C  11     -36.283  72.829  17.855  1.00 79.60 LIG 0.40  C 
ATOM     43  N   LEU C  11     -35.353  72.943  18.973  1.00 85.33 LIG 0.61  N 
BRANCH 42 44
ATOM     44  CB  LEU C  11     -35.571  73.120  16.531  1.00 82.02 LIG 0.06  C 
BRANCH 44 45
ATOM     45  CG  LEU C  11     -34.187  72.496  16.339  1.00 84.03 LIG-0.02  C 
ATOM     46  CD1 LEU C  11     -34.085  71.825  14.979  1.00 79.83 LIG 0.01  C 
ATOM     47  CD2 LEU C  11     -33.098  73.545  16.504  1.00 84.62 LIG 0.01  C 
ENDBRANCH 44 45
ENDBRANCH 42 44
ENDBRANCH 39 42
ENDBRANCH 28 38
ENDBRANCH 1 28
TORSDOF 17
ENDMDL
MODEL 6
USER: ADFR SOLUTION from run 21
USER: SCORE 15.244605 LL:  -3.942 LR: -12.881 RR:   0.000 FEB:  -7.809
USER: RMSD 7.843143
USER: SEED 20
USER: STATUS no improvement in best in 14 clusters for 5 generations
USER: GENES 19
USER: genes 0 Translation |==|  0.62660 0.57333 0.52336
USER: genes 1 Rotation |==|  0.28514 0.91643 0.51944 0.67334
USER: genes 2 Torsion [C]-N--CA-[C] |==|  0.52285
USER: genes 3 Torsion [N]-CA--CB-[CG] |==|  0.73123
USER: genes 4 Torsion [CA]-CB--CG-[CD1] |==|  0.84947
USER: genes 5 Torsion [N]-CA--C-[N] |==|  0.74134
USER: genes 6 Torsion [C]-N--CA-[C] |==|  0.49136
USER: genes 7 Torsion [N]-CA--C-[O] |==|  0.43668
USER: genes 8 Torsion [N]-CA--CB-[CG] |==|  0.27782
USER: genes 9 Torsion [CA]-CB--CG-[CD] |==|  0.77025
USER: genes 10 Torsion [CB]-CG--CD-[OE1] |==|  0.99723
USER: genes 11 Torsion [N]-C--CA-[N] |==|  0.85719
USER: genes 12 Torsion [C]-CA--CB-[CG] |==|  0.97310
USER: genes 13 Torsion [CA]-CB--CG-[CD1] |==|  0.74654
USER: genes 14 Torsion [CE1]-CZ--OH-[HH] |==|  0.72654
USER: genes 15 Torsion [C]-CA--N-[C] |==|  0.67169
USER: genes 16 Torsion [N]-C--CA-[N] |==|  0.31788
USER: genes 17 Torsion [C]-CA--CB-[CG] |==|  0.12185
USER: genes 18 Torsion [CA]-CB--CG-[CD1] |==|  0.15017
ROOT
ATOM      1  C   TYR C  12     -34.996  70.409  14.367  1.00 66.29 LIG 0.24  C 
ATOM      2 O    TYR C  12     -34.994  70.833  13.211  1.00 72.73 LIG-0.27  OA
ATOM      3  N   PHE C  13     -35.368  69.171  14.682  1.00 62.12 LIG-0.35  N 
ATOM      4 H    PHE C  13     -35.402  68.866  15.485  1.00 62.12 LIG 0.16  HD
ENDROOT
BRANCH 3 5
ATOM      5  CA  PHE C  13     -35.758  68.213  13.652  1.00 61.15 LIG 0.18  C 
BRANCH 5 6
ATOM      6  CB  PHE C  13     -34.572  67.874  12.741  1.00 57.79 LIG 0.07  C 
BRANCH 6 7
ATOM      7  CG  PHE C  13     -34.533  68.667  11.462  1.00 55.93 LIG-0.06  A 
ATOM      8  CD1 PHE C  13     -35.627  68.694  10.611  1.00 55.40 LIG 0.01  A 
ATOM      9  CE1 PHE C  13     -35.595  69.429   9.438  1.00 55.08 LIG 0.00  A 
ATOM     10  CZ  PHE C  13     -34.467  70.152   9.108  1.00 53.84 LIG 0.00  A 
ATOM     11  CE2 PHE C  13     -33.376  70.142   9.953  1.00 62.38 LIG 0.00  A 
ATOM     12  CD2 PHE C  13     -33.410  69.403  11.122  1.00 55.52 LIG 0.01  A 
ENDBRANCH 6 7
ENDBRANCH 5 6
BRANCH 5 13
ATOM     13  C   PHE C  13     -36.329  66.945  14.275  1.00 64.85 LIG 0.24  C 
ATOM     14 O    PHE C  13     -37.525  66.862  14.554  1.00 62.65 LIG-0.27  OA
ATOM     15  N   GLN C  14     -35.465  65.956  14.484  1.00 69.96 LIG-0.34  N 
ATOM     16 H    GLN C  14     -34.623  66.016  14.321  1.00 69.96 LIG 0.16  HD
BRANCH 15 17
ATOM     17  CA  GLN C  14     -35.881  64.664  15.018  1.00 68.16 LIG 0.19  C 
BRANCH 17 18
ATOM     18  C   GLN C  14     -34.711  63.686  15.090  1.00 80.56 LIG 0.20  C 
ATOM     19 O    GLN C  14     -34.728  62.726  15.863  1.00 73.75 LIG-0.65  OA
ATOM     20 OXT  GLN C  14     -33.720  63.833  14.374  1.00 84.17 LIG-0.65  OA
ENDBRANCH 17 18
BRANCH 17 21
ATOM     21  CB  GLN C  14     -37.006  64.075  14.164  1.00 71.08 LIG 0.04  C 
BRANCH 21 22
ATOM     22  CG  GLN C  14     -36.546  63.019  13.173  1.00 84.90 LIG 0.10  C 
BRANCH 22 23
ATOM     23  CD  GLN C  14     -35.995  63.618  11.895  1.00 85.71 LIG 0.21  C 
ATOM     24  NE2 GLN C  14     -35.548  62.763  10.982  1.00 87.27 LIG-0.37  N 
ATOM     25 22HE GLN C  14     -35.224  63.056  10.242  1.00 87.27 LIG 0.16  HD
ATOM     26 21HE GLN C  14     -35.583  61.917  11.132  1.00 87.27 LIG 0.16  HD
ATOM     27 OE1  GLN C  14     -35.969  64.838  11.732  1.00 92.83 LIG-0.27  OA
ENDBRANCH 22 23
ENDBRANCH 21 22
ENDBRANCH 17 21
ENDBRANCH 15 17
ENDBRANCH 5 13
ENDBRANCH 3 5
BRANCH 1 28
ATOM     28  CA  TYR C  12     -34.569  71.310  15.521  1.00 72.08 LIG 0.18  C 
BRANCH 28 29
ATOM     29  CB  TYR C  12     -33.213  70.849  16.060  1.00 70.95 LIG 0.07  C 
BRANCH 29 30
ATOM     30  CG  TYR C  12     -32.746  69.523  15.508  1.00 83.06 LIG-0.06  A 
ATOM     31  CD1 TYR C  12     -33.052  68.331  16.155  1.00 86.94 LIG 0.01  A 
ATOM     32  CE1 TYR C  12     -32.628  67.115  15.652  1.00 80.65 LIG 0.04  A 
ATOM     33  CZ  TYR C  12     -31.894  67.079  14.485  1.00 81.62 LIG 0.07  A 
ATOM     34  CE2 TYR C  12     -31.580  68.248  13.823  1.00 86.89 LIG 0.04  A 
ATOM     35  CD2 TYR C  12     -32.006  69.459  14.334  1.00 81.98 LIG 0.01  A 
BRANCH 33 36
ATOM     36 OH   TYR C  12     -31.469  65.871  13.982  1.00 83.24 LIG-0.36  OA
ATOM     37 HH   TYR C  12     -30.671  65.739  14.205  1.00 83.24 LIG 0.22  HD
ENDBRANCH 33 36
ENDBRANCH 29 30
ENDBRANCH 28 29
BRANCH 28 38
ATOM     38  N   TYR C  12     -35.564  71.328  16.587  1.00 66.73 LIG-0.34  N 
ATOM     39  C   LEU C  11     -36.188  72.447  16.942  1.00 75.02 LIG 0.26  C 
ATOM     40 O    LEU C  11     -35.970  73.534  16.407  1.00 79.88 LIG-0.27  OA
ATOM     41 H    TYR C  12     -35.704  70.564  16.955  1.00 66.73 LIG 0.16  HD
BRANCH 39 42
ATOM     42  CA  LEU C  11     -37.210  72.325  18.066  1.00 79.60 LIG 0.40  C 
ATOM     43  N   LEU C  11     -36.787  73.064  19.250  1.00 85.33 LIG 0.61  N 
BRANCH 42 44
ATOM     44  CB  LEU C  11     -38.578  72.816  17.585  1.00 82.02 LIG 0.06  C 
BRANCH 44 45
ATOM     45  CG  LEU C  11     -39.026  72.361  16.194  1.00 84.03 LIG-0.02  C 
ATOM     46  CD1 LEU C  11     -38.967  70.846  16.081  1.00 79.83 LIG 0.01  C 
ATOM     47  CD2 LEU C  11     -40.426  72.869  15.889  1.00 84.62 LIG 0.01  C 
ENDBRANCH 44 45
ENDBRANCH 42 44
ENDBRANCH 39 42
ENDBRANCH 28 38
ENDBRANCH 1 28
TORSDOF 17
ENDMDL
MODEL 7
USER: ADFR SOLUTION from run 115
USER: SCORE 14.537904 LL:  -2.171 LR: -12.773 RR:   0.000 FEB:  -7.702
USER: RMSD 6.603373
USER: SEED 114
USER: STATUS no improvement in best in 6 clusters for 5 generations
USER: GENES 19
USER: genes 0 Translation |==|  0.53595 0.52827 0.59409
USER: genes 1 Rotation |==|  0.74086 0.37424 0.16003 0.74616
USER: genes 2 Torsion [C]-N--CA-[C] |==|  0.75712
USER: genes 3 Torsion [N]-CA--CB-[CG] |==|  0.13318
USER: genes 4 Torsion [CA]-CB--CG-[CD1] |==|  0.06012
USER: genes 5 Torsion [N]-CA--C-[N] |==|  0.05986
USER: genes 6 Torsion [C]-N--CA-[C] |==|  0.10512
USER: genes 7 Torsion [N]-CA--C-[O] |==|  0.21742
USER: genes 8 Torsion [N]-CA--CB-[CG] |==|  0.67740
USER: genes 9 Torsion [CA]-CB--CG-[CD] |==|  0.71337
USER: genes 10 Torsion [CB]-CG--CD-[OE1] |==|  0.95482
USER: genes 11 Torsion [N]-C--CA-[N] |==|  0.39355
USER: genes 12 Torsion [C]-CA--CB-[CG] |==|  0.48117
USER: genes 13 Torsion [CA]-CB--CG-[CD1] |==|  0.22632
USER: genes 14 Torsion [CE1]-CZ--OH-[HH] |==|  0.88451
USER: genes 15 Torsion [C]-CA--N-[C] |==|  0.84999
USER: genes 16 Torsion [N]-C--CA-[N] |==|  0.02025
USER: genes 17 Torsion [C]-CA--CB-[CG] |==|  0.17069
USER: genes 18 Torsion [CA]-CB--CG-[CD1] |==|  0.14079
ROOT
ATOM      1  C   TYR C  12     -37.036  69.564  15.535  1.00 66.29 LIG 0.24  C 
ATOM      2 O    TYR C  12     -37.759  68.844  16.224  1.00 72.73 LIG-0.27  OA
ATOM      3  N   PHE C  13     -36.520  69.170  14.374  1.00 62.12 LIG-0.35  N 
ATOM      4 H    PHE C  13     -35.992  69.649  13.892  1.00 62.12 LIG 0.16  HD
ENDROOT
BRANCH 3 5
ATOM      5  CA  PHE C  13     -36.822  67.855  13.817  1.00 61.15 LIG 0.18  C 
BRANCH 5 6
ATOM      6  CB  PHE C  13     -36.795  67.889  12.285  1.00 57.79 LIG 0.07  C 
BRANCH 6 7
ATOM      7  CG  PHE C  13     -35.581  68.565  11.706  1.00 55.93 LIG-0.06  A 
ATOM      8  CD1 PHE C  13     -34.419  68.694  12.450  1.00 55.40 LIG 0.01  A 
ATOM      9  CE1 PHE C  13     -33.299  69.309  11.916  1.00 55.08 LIG 0.00  A 
ATOM     10  CZ  PHE C  13     -33.329  69.796  10.625  1.00 53.84 LIG 0.00  A 
ATOM     11  CE2 PHE C  13     -34.477  69.663   9.870  1.00 62.38 LIG 0.00  A 
ATOM     12  CD2 PHE C  13     -35.596  69.052  10.409  1.00 55.52 LIG 0.01  A 
ENDBRANCH 6 7
ENDBRANCH 5 6
BRANCH 5 13
ATOM     13  C   PHE C  13     -35.853  66.803  14.343  1.00 64.85 LIG 0.24  C 
ATOM     14 O    PHE C  13     -35.668  65.753  13.729  1.00 62.65 LIG-0.27  OA
ATOM     15  N   GLN C  14     -35.233  67.098  15.481  1.00 69.96 LIG-0.34  N 
ATOM     16 H    GLN C  14     -35.378  67.815  15.933  1.00 69.96 LIG 0.16  HD
BRANCH 15 17
ATOM     17  CA  GLN C  14     -34.234  66.212  16.070  1.00 68.16 LIG 0.19  C 
BRANCH 17 18
ATOM     18  C   GLN C  14     -33.362  65.562  14.999  1.00 80.56 LIG 0.20  C 
ATOM     19 O    GLN C  14     -32.443  66.182  14.461  1.00 73.75 LIG-0.65  OA
ATOM     20 OXT  GLN C  14     -33.555  64.398  14.648  1.00 84.17 LIG-0.65  OA
ENDBRANCH 17 18
BRANCH 17 21
ATOM     21  CB  GLN C  14     -34.916  65.135  16.918  1.00 71.08 LIG 0.04  C 
BRANCH 21 22
ATOM     22  CG  GLN C  14     -34.577  65.202  18.398  1.00 84.90 LIG 0.10  C 
BRANCH 22 23
ATOM     23  CD  GLN C  14     -33.576  64.145  18.816  1.00 85.71 LIG 0.21  C 
ATOM     24  NE2 GLN C  14     -32.970  64.328  19.984  1.00 87.27 LIG-0.37  N 
ATOM     25 22HE GLN C  14     -32.393  63.756  20.263  1.00 87.27 LIG 0.16  HD
ATOM     26 21HE GLN C  14     -33.157  65.019  20.462  1.00 87.27 LIG 0.16  HD
ATOM     27 OE1  GLN C  14     -33.346  63.174  18.095  1.00 92.83 LIG-0.27  OA
ENDBRANCH 22 23
ENDBRANCH 21 22
ENDBRANCH 17 21
ENDBRANCH 15 17
ENDBRANCH 5 13
ENDBRANCH 3 5
BRANCH 1 28
ATOM     28  CA  TYR C  12     -36.686  70.974  15.997  1.00 72.08 LIG 0.18  C 
BRANCH 28 29
ATOM     29  CB  TYR C  12     -35.492  70.922  16.952  1.00 70.95 LIG 0.07  C 
BRANCH 29 30
ATOM     30  CG  TYR C  12     -34.956  72.277  17.348  1.00 83.06 LIG-0.06  A 
ATOM     31  CD1 TYR C  12     -35.560  73.019  18.356  1.00 86.94 LIG 0.01  A 
ATOM     32  CE1 TYR C  12     -35.072  74.259  18.723  1.00 80.65 LIG 0.04  A 
ATOM     33  CZ  TYR C  12     -33.963  74.771  18.082  1.00 81.62 LIG 0.07  A 
ATOM     34  CE2 TYR C  12     -33.343  74.052  17.080  1.00 86.89 LIG 0.04  A 
ATOM     35  CD2 TYR C  12     -33.839  72.815  16.719  1.00 81.98 LIG 0.01  A 
BRANCH 33 36
ATOM     36 OH   TYR C  12     -33.474  76.005  18.444  1.00 83.24 LIG-0.36  OA
ATOM     37 HH   TYR C  12     -34.114  76.534  18.566  1.00 83.24 LIG 0.22  HD
ENDBRANCH 33 36
ENDBRANCH 29 30
ENDBRANCH 28 29
BRANCH 28 38
ATOM     38  N   TYR C  12     -37.823  71.628  16.635  1.00 66.73 LIG-0.34  N 
ATOM     39  C   LEU C  11     -39.001  71.731  16.029  1.00 75.02 LIG 0.26  C 
ATOM     40 O    LEU C  11     -39.213  71.291  14.899  1.00 79.88 LIG-0.27  OA
ATOM     41 H    TYR C  12     -37.661  71.934  17.423  1.00 66.73 LIG 0.16  HD
BRANCH 39 42
ATOM     42  CA  LEU C  11     -40.107  72.432  16.811  1.00 79.60 LIG 0.40  C 
ATOM     43  N   LEU C  11     -39.594  73.019  18.044  1.00 85.33 LIG 0.61  N 
BRANCH 42 44
ATOM     44  CB  LEU C  11     -40.765  73.503  15.938  1.00 82.02 LIG 0.06  C 
BRANCH 44 45
ATOM     45  CG  LEU C  11     -41.454  73.024  14.658  1.00 84.03 LIG-0.02  C 
ATOM     46  CD1 LEU C  11     -42.408  71.879  14.958  1.00 79.83 LIG 0.01  C 
ATOM     47  CD2 LEU C  11     -42.189  74.171  13.982  1.00 84.62 LIG 0.01  C 
ENDBRANCH 44 45
ENDBRANCH 42 44
ENDBRANCH 39 42
ENDBRANCH 28 38
ENDBRANCH 1 28
TORSDOF 17
ENDMDL
MODEL 8
USER: ADFR SOLUTION from run 12
USER: SCORE 14.693364 LL:  -2.928 LR: -12.713 RR:   0.000 FEB:  -7.642
USER: RMSD 5.917743
USER: SEED 41074
USER: STATUS no improvement in best in 11 clusters for 5 generations
USER: GENES 19
USER: genes 0 Translation |==|  0.58443 0.33010 0.49194
USER: genes 1 Rotation |==|  0.03456 0.38090 0.63006 0.54764
USER: genes 2 Torsion [C]-N--CA-[C] |==|  0.59079
USER: genes 3 Torsion [N]-CA--CB-[CG] |==|  0.63766
USER: genes 4 Torsion [CA]-CB--CG-[CD1] |==|  0.25549
USER: genes 5 Torsion [N]-CA--C-[N] |==|  0.75056
USER: genes 6 Torsion [C]-N--CA-[C] |==|  0.19785
USER: genes 7 Torsion [N]-CA--C-[O] |==|  0.76970
USER: genes 8 Torsion [N]-CA--CB-[CG] |==|  0.55804
USER: genes 9 Torsion [CA]-CB--CG-[CD] |==|  0.70276
USER: genes 10 Torsion [CB]-CG--CD-[OE1] |==|  0.12003
USER: genes 11 Torsion [N]-C--CA-[N] |==|  0.34674
USER: genes 12 Torsion [C]-CA--CB-[CG] |==|  0.82477
USER: genes 13 Torsion [CA]-CB--CG-[CD1] |==|  0.78924
USER: genes 14 Torsion [CE1]-CZ--OH-[HH] |==|  0.49093
USER: genes 15 Torsion [C]-CA--N-[C] |==|  0.80597
USER: genes 16 Torsion [N]-C--CA-[N] |==|  0.43422
USER: genes 17 Torsion [C]-CA--CB-[CG] |==|  0.31154
USER: genes 18 Torsion [CA]-CB--CG-[CD1] |==|  0.93767
ROOT
ATOM      1  C   TYR C  12     -35.945  65.848  13.849  1.00 66.29 LIG 0.24  C 
ATOM      2 O    TYR C  12     -35.970  65.643  12.635  1.00 72.73 LIG-0.27  OA
ATOM      3  N   PHE C  13     -35.095  66.697  14.421  1.00 62.12 LIG-0.35  N 
ATOM      4 H    PHE C  13     -35.045  66.833  15.269  1.00 62.12 LIG 0.16  HD
ENDROOT
BRANCH 3 5
ATOM      5  CA  PHE C  13     -34.157  67.481  13.625  1.00 61.15 LIG 0.18  C 
BRANCH 5 6
ATOM      6  CB  PHE C  13     -34.779  68.818  13.205  1.00 57.79 LIG 0.07  C 
BRANCH 6 7
ATOM      7  CG  PHE C  13     -34.645  69.125  11.737  1.00 55.93 LIG-0.06  A 
ATOM      8  CD1 PHE C  13     -35.638  68.757  10.842  1.00 55.40 LIG 0.01  A 
ATOM      9  CE1 PHE C  13     -35.519  69.046   9.493  1.00 55.08 LIG 0.00  A 
ATOM     10  CZ  PHE C  13     -34.405  69.714   9.026  1.00 53.84 LIG 0.00  A 
ATOM     11  CE2 PHE C  13     -33.415  70.096   9.909  1.00 62.38 LIG 0.00  A 
ATOM     12  CD2 PHE C  13     -33.536  69.802  11.256  1.00 55.52 LIG 0.01  A 
ENDBRANCH 6 7
ENDBRANCH 5 6
BRANCH 5 13
ATOM     13  C   PHE C  13     -32.857  67.716  14.385  1.00 64.85 LIG 0.24  C 
ATOM     14 O    PHE C  13     -31.918  66.927  14.286  1.00 62.65 LIG-0.27  OA
ATOM     15  N   GLN C  14     -32.812  68.809  15.140  1.00 69.96 LIG-0.34  N 
ATOM     16 H    GLN C  14     -33.473  69.349  15.239  1.00 69.96 LIG 0.16  HD
BRANCH 15 17
ATOM     17  CA  GLN C  14     -31.612  69.191  15.877  1.00 68.16 LIG 0.19  C 
BRANCH 17 18
ATOM     18  C   GLN C  14     -30.512  69.683  14.938  1.00 80.56 LIG 0.20  C 
ATOM     19 O    GLN C  14     -29.767  68.891  14.359  1.00 73.75 LIG-0.65  OA
ATOM     20 OXT  GLN C  14     -30.345  70.886  14.737  1.00 84.17 LIG-0.65  OA
ENDBRANCH 17 18
BRANCH 17 21
ATOM     21  CB  GLN C  14     -31.104  68.012  16.710  1.00 71.08 LIG 0.04  C 
BRANCH 21 22
ATOM     22  CG  GLN C  14     -30.200  68.412  17.866  1.00 84.90 LIG 0.10  C 
BRANCH 22 23
ATOM     23  CD  GLN C  14     -28.746  68.068  17.615  1.00 85.71 LIG 0.21  C 
ATOM     24  NE2 GLN C  14     -28.078  67.534  18.632  1.00 87.27 LIG-0.37  N 
ATOM     25 22HE GLN C  14     -27.249  67.324  18.538  1.00 87.27 LIG 0.16  HD
ATOM     26 21HE GLN C  14     -28.474  67.400  19.383  1.00 87.27 LIG 0.16  HD
ATOM     27 OE1  GLN C  14     -28.228  68.282  16.519  1.00 92.83 LIG-0.27  OA
ENDBRANCH 22 23
ENDBRANCH 21 22
ENDBRANCH 17 21
ENDBRANCH 15 17
ENDBRANCH 5 13
ENDBRANCH 3 5
BRANCH 1 28
ATOM     28  CA  TYR C  12     -36.909  65.114  14.775  1.00 72.08 LIG 0.18  C 
BRANCH 28 29
ATOM     29  CB  TYR C  12     -36.565  63.624  14.800  1.00 70.95 LIG 0.07  C 
BRANCH 29 30
ATOM     30  CG  TYR C  12     -36.719  62.931  13.466  1.00 83.06 LIG-0.06  A 
ATOM     31  CD1 TYR C  12     -37.976  62.604  12.971  1.00 86.94 LIG 0.01  A 
ATOM     32  CE1 TYR C  12     -38.122  61.972  11.750  1.00 80.65 LIG 0.04  A 
ATOM     33  CZ  TYR C  12     -37.003  61.663  11.006  1.00 81.62 LIG 0.07  A 
ATOM     34  CE2 TYR C  12     -35.744  61.979  11.474  1.00 86.89 LIG 0.04  A 
ATOM     35  CD2 TYR C  12     -35.608  62.609  12.696  1.00 81.98 LIG 0.01  A 
BRANCH 33 36
ATOM     36 OH   TYR C  12     -37.144  61.033   9.791  1.00 83.24 LIG-0.36  OA
ATOM     37 HH   TYR C  12     -36.391  60.947   9.430  1.00 83.24 LIG 0.22  HD
ENDBRANCH 33 36
ENDBRANCH 29 30
ENDBRANCH 28 29
BRANCH 28 38
ATOM     38  N   TYR C  12     -38.297  65.312  14.374  1.00 66.73 LIG-0.34  N 
ATOM     39  C   LEU C  11     -38.902  66.489  14.506  1.00 75.02 LIG 0.26  C 
ATOM     40 O    LEU C  11     -38.343  67.480  14.975  1.00 79.88 LIG-0.27  OA
ATOM     41 H    TYR C  12     -38.677  64.612  14.052  1.00 66.73 LIG 0.16  HD
BRANCH 39 42
ATOM     42  CA  LEU C  11     -40.352  66.561  14.041  1.00 79.60 LIG 0.40  C 
ATOM     43  N   LEU C  11     -41.068  67.644  14.705  1.00 85.33 LIG 0.61  N 
BRANCH 42 44
ATOM     44  CB  LEU C  11     -40.406  66.732  12.521  1.00 82.02 LIG 0.06  C 
BRANCH 44 45
ATOM     45  CG  LEU C  11     -40.962  65.557  11.713  1.00 84.03 LIG-0.02  C 
ATOM     46  CD1 LEU C  11     -40.848  64.262  12.500  1.00 79.83 LIG 0.01  C 
ATOM     47  CD2 LEU C  11     -42.407  65.817  11.314  1.00 84.62 LIG 0.01  C 
ENDBRANCH 44 45
ENDBRANCH 42 44
ENDBRANCH 39 42
ENDBRANCH 28 38
ENDBRANCH 1 28
TORSDOF 17
ENDMDL
MODEL 9
USER: ADFR SOLUTION from run 131
USER: SCORE 16.128035 LL:  -3.596 LR: -12.698 RR:   0.000 FEB:  -7.626
USER: RMSD 3.287753
USER: SEED 130
USER: STATUS no improvement in best in 2 clusters for 5 generations
USER: GENES 19
USER: genes 0 Translation |==|  0.58342 0.41681 0.53550
USER: genes 1 Rotation |==|  0.82809 0.54628 0.59182 0.86302
USER: genes 2 Torsion [C]-N--CA-[C] |==|  0.61206
USER: genes 3 Torsion [N]-CA--CB-[CG] |==|  0.14794
USER: genes 4 Torsion [CA]-CB--CG-[CD1] |==|  0.30989
USER: genes 5 Torsion [N]-CA--C-[N] |==|  0.42224
USER: genes 6 Torsion [C]-N--CA-[C] |==|  0.61381
USER: genes 7 Torsion [N]-CA--C-[O] |==|  0.91993
USER: genes 8 Torsion [N]-CA--CB-[CG] |==|  0.85264
USER: genes 9 Torsion [CA]-CB--CG-[CD] |==|  0.74206
USER: genes 10 Torsion [CB]-CG--CD-[OE1] |==|  0.13777
USER: genes 11 Torsion [N]-C--CA-[N] |==|  0.37436
USER: genes 12 Torsion [C]-CA--CB-[CG] |==|  0.22090
USER: genes 13 Torsion [CA]-CB--CG-[CD1] |==|  0.73331
USER: genes 14 Torsion [CE1]-CZ--OH-[HH] |==|  0.05137
USER: genes 15 Torsion [C]-CA--N-[C] |==|  0.85895
USER: genes 16 Torsion [N]-C--CA-[N] |==|  0.20397
USER: genes 17 Torsion [C]-CA--CB-[CG] |==|  0.28274
USER: genes 18 Torsion [CA]-CB--CG-[CD1] |==|  0.54372
ROOT
ATOM      1  C   TYR C  12     -35.968  67.474  14.568  1.00 66.29 LIG 0.24  C 
ATOM      2 O    TYR C  12     -35.281  66.726  15.264  1.00 72.73 LIG-0.27  OA
ATOM      3  N   PHE C  13     -35.481  68.563  13.979  1.00 62.12 LIG-0.35  N 
ATOM      4 H    PHE C  13     -35.951  69.111  13.511  1.00 62.12 LIG 0.16  HD
ENDROOT
BRANCH 3 5
ATOM      5  CA  PHE C  13     -34.069  68.916  14.088  1.00 61.15 LIG 0.18  C 
BRANCH 5 6
ATOM      6  CB  PHE C  13     -33.287  68.436  12.859  1.00 57.79 LIG 0.07  C 
BRANCH 6 7
ATOM      7  CG  PHE C  13     -33.866  68.891  11.546  1.00 55.93 LIG-0.06  A 
ATOM      8  CD1 PHE C  13     -33.193  69.810  10.755  1.00 55.40 LIG 0.01  A 
ATOM      9  CE1 PHE C  13     -33.720  70.223   9.544  1.00 55.08 LIG 0.00  A 
ATOM     10  CZ  PHE C  13     -34.927  69.715   9.107  1.00 53.84 LIG 0.00  A 
ATOM     11  CE2 PHE C  13     -35.600  68.791   9.880  1.00 62.38 LIG 0.00  A 
ATOM     12  CD2 PHE C  13     -35.072  68.384  11.093  1.00 55.52 LIG 0.01  A 
ENDBRANCH 6 7
ENDBRANCH 5 6
BRANCH 5 13
ATOM     13  C   PHE C  13     -33.894  70.418  14.276  1.00 64.85 LIG 0.24  C 
ATOM     14 O    PHE C  13     -34.726  71.210  13.835  1.00 62.65 LIG-0.27  OA
ATOM     15  N   GLN C  14     -32.807  70.801  14.939  1.00 69.96 LIG-0.34  N 
ATOM     16 H    GLN C  14     -32.204  70.257  15.223  1.00 69.96 LIG 0.16  HD
BRANCH 15 17
ATOM     17  CA  GLN C  14     -32.540  72.202  15.244  1.00 68.16 LIG 0.19  C 
BRANCH 17 18
ATOM     18  C   GLN C  14     -31.065  72.546  15.046  1.00 80.56 LIG 0.20  C 
ATOM     19 O    GLN C  14     -30.185  71.696  15.192  1.00 73.75 LIG-0.65  OA
ATOM     20 OXT  GLN C  14     -30.720  73.686  14.732  1.00 84.17 LIG-0.65  OA
ENDBRANCH 17 18
BRANCH 17 21
ATOM     21  CB  GLN C  14     -32.966  72.523  16.679  1.00 71.08 LIG 0.04  C 
BRANCH 21 22
ATOM     22  CG  GLN C  14     -34.399  72.135  17.003  1.00 84.90 LIG 0.10  C 
BRANCH 22 23
ATOM     23  CD  GLN C  14     -35.375  73.272  16.781  1.00 85.71 LIG 0.21  C 
ATOM     24  NE2 GLN C  14     -36.220  73.533  17.773  1.00 87.27 LIG-0.37  N 
ATOM     25 22HE GLN C  14     -36.794  74.167  17.693  1.00 87.27 LIG 0.16  HD
ATOM     26 21HE GLN C  14     -36.193  73.066  18.495  1.00 87.27 LIG 0.16  HD
ATOM     27 OE1  GLN C  14     -35.372  73.909  15.727  1.00 92.83 LIG-0.27  OA
ENDBRANCH 22 23
ENDBRANCH 21 22
ENDBRANCH 17 21
ENDBRANCH 15 17
ENDBRANCH 5 13
ENDBRANCH 3 5
BRANCH 1 28
ATOM     28  CA  TYR C  12     -37.448  67.181  14.350  1.00 72.08 LIG 0.18  C 
BRANCH 28 29
ATOM     29  CB  TYR C  12     -38.243  67.589  15.593  1.00 70.95 LIG 0.07  C 
BRANCH 29 30
ATOM     30  CG  TYR C  12     -38.522  69.070  15.690  1.00 83.06 LIG-0.06  A 
ATOM     31  CD1 TYR C  12     -37.703  69.904  16.441  1.00 86.94 LIG 0.01  A 
ATOM     32  CE1 TYR C  12     -37.954  71.261  16.532  1.00 80.65 LIG 0.04  A 
ATOM     33  CZ  TYR C  12     -39.032  71.800  15.863  1.00 81.62 LIG 0.07  A 
ATOM     34  CE2 TYR C  12     -39.859  70.993  15.108  1.00 86.89 LIG 0.04  A 
ATOM     35  CD2 TYR C  12     -39.602  69.638  15.025  1.00 81.98 LIG 0.01  A 
BRANCH 33 36
ATOM     36 OH   TYR C  12     -39.286  73.149  15.951  1.00 83.24 LIG-0.36  OA
ATOM     37 HH   TYR C  12     -38.595  73.547  16.215  1.00 83.24 LIG 0.22  HD
ENDBRANCH 33 36
ENDBRANCH 29 30
ENDBRANCH 28 29
BRANCH 28 38
ATOM     38  N   TYR C  12     -37.678  65.776  14.034  1.00 66.73 LIG-0.34  N 
ATOM     39  C   LEU C  11     -36.995  65.153  13.079  1.00 75.02 LIG 0.26  C 
ATOM     40 O    LEU C  11     -36.136  65.712  12.397  1.00 79.88 LIG-0.27  OA
ATOM     41 H    TYR C  12     -38.283  65.398  14.515  1.00 66.73 LIG 0.16  HD
BRANCH 39 42
ATOM     42  CA  LEU C  11     -37.329  63.683  12.856  1.00 79.60 LIG 0.40  C 
ATOM     43  N   LEU C  11     -38.618  63.525  12.192  1.00 85.33 LIG 0.61  N 
BRANCH 42 44
ATOM     44  CB  LEU C  11     -36.219  63.012  12.043  1.00 82.02 LIG 0.06  C 
BRANCH 44 45
ATOM     45  CG  LEU C  11     -35.218  62.151  12.817  1.00 84.03 LIG-0.02  C 
ATOM     46  CD1 LEU C  11     -33.983  61.876  11.975  1.00 79.83 LIG 0.01  C 
ATOM     47  CD2 LEU C  11     -34.836  62.821  14.128  1.00 84.62 LIG 0.01  C 
ENDBRANCH 44 45
ENDBRANCH 42 44
ENDBRANCH 39 42
ENDBRANCH 28 38
ENDBRANCH 1 28
TORSDOF 17
ENDMDL
MODEL 10
USER: ADFR SOLUTION from run 189
USER: SCORE 16.039019 LL:  -3.556 LR: -12.678 RR:   0.000 FEB:  -7.607
USER: RMSD 6.721049
USER: SEED 188
USER: STATUS no improvement in best in 1 clusters for 5 generations
USER: GENES 19
USER: genes 0 Translation |==|  0.62162 0.54239 0.54075
USER: genes 1 Rotation |==|  0.20111 0.12339 0.54173 0.63072
USER: genes 2 Torsion [C]-N--CA-[C] |==|  0.80134
USER: genes 3 Torsion [N]-CA--CB-[CG] |==|  0.67589
USER: genes 4 Torsion [CA]-CB--CG-[CD1] |==|  0.00297
USER: genes 5 Torsion [N]-CA--C-[N] |==|  0.91169
USER: genes 6 Torsion [C]-N--CA-[C] |==|  0.61918
USER: genes 7 Torsion [N]-CA--C-[O] |==|  0.79320
USER: genes 8 Torsion [N]-CA--CB-[CG] |==|  0.72397
USER: genes 9 Torsion [CA]-CB--CG-[CD] |==|  0.24215
USER: genes 10 Torsion [CB]-CG--CD-[OE1] |==|  0.01878
USER: genes 11 Torsion [N]-C--CA-[N] |==|  0.05234
USER: genes 12 Torsion [C]-CA--CB-[CG] |==|  0.17631
USER: genes 13 Torsion [CA]-CB--CG-[CD1] |==|  0.57166
USER: genes 14 Torsion [CE1]-CZ--OH-[HH] |==|  0.11467
USER: genes 15 Torsion [C]-CA--N-[C] |==|  0.66910
USER: genes 16 Torsion [N]-C--CA-[N] |==|  0.42871
USER: genes 17 Torsion [C]-CA--CB-[CG] |==|  0.15031
USER: genes 18 Torsion [CA]-CB--CG-[CD1] |==|  0.16416
ROOT
ATOM      1  C   TYR C  12     -35.109  69.829  14.654  1.00 66.29 LIG 0.24  C 
ATOM      2 O    TYR C  12     -35.221  70.556  13.667  1.00 72.73 LIG-0.27  OA
ATOM      3  N   PHE C  13     -35.281  70.268  15.898  1.00 62.12 LIG-0.35  N 
ATOM      4 H    PHE C  13     -35.181  69.781  16.600  1.00 62.12 LIG 0.16  HD
ENDROOT
BRANCH 3 5
ATOM      5  CA  PHE C  13     -35.665  71.650  16.167  1.00 61.15 LIG 0.18  C 
BRANCH 5 6
ATOM      6  CB  PHE C  13     -36.149  71.812  17.613  1.00 57.79 LIG 0.07  C 
BRANCH 6 7
ATOM      7  CG  PHE C  13     -37.591  72.228  17.737  1.00 55.93 LIG-0.06  A 
ATOM      8  CD1 PHE C  13     -38.374  72.412  16.608  1.00 55.40 LIG 0.01  A 
ATOM      9  CE1 PHE C  13     -39.703  72.787  16.720  1.00 55.08 LIG 0.00  A 
ATOM     10  CZ  PHE C  13     -40.263  72.976  17.967  1.00 53.84 LIG 0.00  A 
ATOM     11  CE2 PHE C  13     -39.495  72.785  19.099  1.00 62.38 LIG 0.00  A 
ATOM     12  CD2 PHE C  13     -38.167  72.414  18.982  1.00 55.52 LIG 0.01  A 
ENDBRANCH 6 7
ENDBRANCH 5 6
BRANCH 5 13
ATOM     13  C   PHE C  13     -34.511  72.603  15.883  1.00 64.85 LIG 0.24  C 
ATOM     14 O    PHE C  13     -34.723  73.748  15.485  1.00 62.65 LIG-0.27  OA
ATOM     15  N   GLN C  14     -33.290  72.121  16.094  1.00 69.96 LIG-0.34  N 
ATOM     16 H    GLN C  14     -33.132  71.314  16.342  1.00 69.96 LIG 0.16  HD
BRANCH 15 17
ATOM     17  CA  GLN C  14     -32.095  72.939  15.921  1.00 68.16 LIG 0.19  C 
BRANCH 17 18
ATOM     18  C   GLN C  14     -30.990  72.169  15.201  1.00 80.56 LIG 0.20  C 
ATOM     19 O    GLN C  14     -30.342  71.293  15.777  1.00 73.75 LIG-0.65  OA
ATOM     20 OXT  GLN C  14     -30.721  72.405  14.023  1.00 84.17 LIG-0.65  OA
ENDBRANCH 17 18
BRANCH 17 21
ATOM     21  CB  GLN C  14     -31.590  73.436  17.278  1.00 71.08 LIG 0.04  C 
BRANCH 21 22
ATOM     22  CG  GLN C  14     -31.997  74.863  17.608  1.00 84.90 LIG 0.10  C 
BRANCH 22 23
ATOM     23  CD  GLN C  14     -33.352  74.942  18.281  1.00 85.71 LIG 0.21  C 
ATOM     24  NE2 GLN C  14     -33.846  76.159  18.482  1.00 87.27 LIG-0.37  N 
ATOM     25 22HE GLN C  14     -34.611  76.255  18.862  1.00 87.27 LIG 0.16  HD
ATOM     26 21HE GLN C  14     -33.400  76.851  18.232  1.00 87.27 LIG 0.16  HD
ATOM     27 OE1  GLN C  14     -33.948  73.920  18.619  1.00 92.83 LIG-0.27  OA
ENDBRANCH 22 23
ENDBRANCH 21 22
ENDBRANCH 17 21
ENDBRANCH 15 17
ENDBRANCH 5 13
ENDBRANCH 3 5
BRANCH 1 28
ATOM     28  CA  TYR C  12     -34.750  68.356  14.491  1.00 72.08 LIG 0.18  C 
BRANCH 28 29
ATOM     29  CB  TYR C  12     -35.466  67.785  13.265  1.00 70.95 LIG 0.07  C 
BRANCH 29 30
ATOM     30  CG  TYR C  12     -35.052  68.415  11.956  1.00 83.06 LIG-0.06  A 
ATOM     31  CD1 TYR C  12     -35.912  68.428  10.865  1.00 86.94 LIG 0.01  A 
ATOM     32  CE1 TYR C  12     -35.537  69.006   9.666  1.00 80.65 LIG 0.04  A 
ATOM     33  CZ  TYR C  12     -34.291  69.584   9.549  1.00 81.62 LIG 0.07  A 
ATOM     34  CE2 TYR C  12     -33.419  69.586  10.619  1.00 86.89 LIG 0.04  A 
ATOM     35  CD2 TYR C  12     -33.802  69.005  11.812  1.00 81.98 LIG 0.01  A 
BRANCH 33 36
ATOM     36 OH   TYR C  12     -33.914  70.159   8.357  1.00 83.24 LIG-0.36  OA
ATOM     37 HH   TYR C  12     -34.560  70.588   8.036  1.00 83.24 LIG 0.22  HD
ENDBRANCH 33 36
ENDBRANCH 29 30
ENDBRANCH 28 29
BRANCH 28 38
ATOM     38  N   TYR C  12     -35.084  67.585  15.683  1.00 66.73 LIG-0.34  N 
ATOM     39  C   LEU C  11     -34.155  66.937  16.379  1.00 75.02 LIG 0.26  C 
ATOM     40 O    LEU C  11     -32.965  66.937  16.069  1.00 79.88 LIG-0.27  OA
ATOM     41 H    TYR C  12     -35.920  67.590  15.887  1.00 66.73 LIG 0.16  HD
BRANCH 39 42
ATOM     42  CA  LEU C  11     -34.638  66.176  17.609  1.00 79.60 LIG 0.40  C 
ATOM     43  N   LEU C  11     -33.745  65.069  17.932  1.00 85.33 LIG 0.61  N 
BRANCH 42 44
ATOM     44  CB  LEU C  11     -34.765  67.131  18.798  1.00 82.02 LIG 0.06  C 
BRANCH 44 45
ATOM     45  CG  LEU C  11     -35.626  68.380  18.594  1.00 84.03 LIG-0.02  C 
ATOM     46  CD1 LEU C  11     -37.049  67.996  18.223  1.00 79.83 LIG 0.01  C 
ATOM     47  CD2 LEU C  11     -35.612  69.251  19.840  1.00 84.62 LIG 0.01  C 
ENDBRANCH 44 45
ENDBRANCH 42 44
ENDBRANCH 39 42
ENDBRANCH 28 38
ENDBRANCH 1 28
TORSDOF 17
ENDMDL
MODEL 11
USER: ADFR SOLUTION from run 91
USER: SCORE 15.623556 LL:  -3.135 LR: -12.657 RR:   0.000 FEB:  -7.586
USER: RMSD 6.121387
USER: SEED 90
USER: STATUS no improvement in best in 8 clusters for 5 generations
USER: GENES 19
USER: genes 0 Translation |==|  0.61322 0.53729 0.53739
USER: genes 1 Rotation |==|  0.21130 0.12933 0.57294 0.65471
USER: genes 2 Torsion [C]-N--CA-[C] |==|  0.77571
USER: genes 3 Torsion [N]-CA--CB-[CG] |==|  0.66782
USER: genes 4 Torsion [CA]-CB--CG-[CD1] |==|  0.50060
USER: genes 5 Torsion [N]-CA--C-[N] |==|  0.91697
USER: genes 6 Torsion [C]-N--CA-[C] |==|  0.60622
USER: genes 7 Torsion [N]-CA--C-[O] |==|  0.79081
USER: genes 8 Torsion [N]-CA--CB-[CG] |==|  0.72334
USER: genes 9 Torsion [CA]-CB--CG-[CD] |==|  0.25516
USER: genes 10 Torsion [CB]-CG--CD-[OE1] |==|  0.00531
USER: genes 11 Torsion [N]-C--CA-[N] |==|  0.08551
USER: genes 12 Torsion [C]-CA--CB-[CG] |==|  0.17878
USER: genes 13 Torsion [CA]-CB--CG-[CD1] |==|  0.06030
USER: genes 14 Torsion [CE1]-CZ--OH-[HH] |==|  0.61706
USER: genes 15 Torsion [C]-CA--N-[C] |==|  0.17116
USER: genes 16 Torsion [N]-C--CA-[N] |==|  0.44326
USER: genes 17 Torsion [C]-CA--CB-[CG] |==|  0.99346
USER: genes 18 Torsion [CA]-CB--CG-[CD1] |==|  0.31501
ROOT
ATOM      1  C   TYR C  12     -35.298  69.733  14.599  1.00 66.29 LIG 0.24  C 
ATOM      2 O    TYR C  12     -35.593  70.424  13.624  1.00 72.73 LIG-0.27  OA
ATOM      3  N   PHE C  13     -35.294  70.204  15.843  1.00 62.12 LIG-0.35  N 
ATOM      4 H    PHE C  13     -35.065  69.743  16.533  1.00 62.12 LIG 0.16  HD
ENDROOT
BRANCH 3 5
ATOM      5  CA  PHE C  13     -35.690  71.577  16.135  1.00 61.15 LIG 0.18  C 
BRANCH 5 6
ATOM      6  CB  PHE C  13     -36.169  71.713  17.586  1.00 57.79 LIG 0.07  C 
BRANCH 6 7
ATOM      7  CG  PHE C  13     -37.594  72.179  17.722  1.00 55.93 LIG-0.06  A 
ATOM      8  CD1 PHE C  13     -38.166  72.353  18.973  1.00 55.40 LIG 0.01  A 
ATOM      9  CE1 PHE C  13     -39.474  72.789  19.101  1.00 55.08 LIG 0.00  A 
ATOM     10  CZ  PHE C  13     -40.223  73.063  17.974  1.00 53.84 LIG 0.00  A 
ATOM     11  CE2 PHE C  13     -39.660  72.904  16.723  1.00 62.38 LIG 0.00  A 
ATOM     12  CD2 PHE C  13     -38.354  72.464  16.600  1.00 55.52 LIG 0.01  A 
ENDBRANCH 6 7
ENDBRANCH 5 6
BRANCH 5 13
ATOM     13  C   PHE C  13     -34.548  72.547  15.859  1.00 64.85 LIG 0.24  C 
ATOM     14 O    PHE C  13     -34.773  73.706  15.513  1.00 62.65 LIG-0.27  OA
ATOM     15  N   GLN C  14     -33.320  72.063  16.020  1.00 69.96 LIG-0.34  N 
ATOM     16 H    GLN C  14     -33.152  71.246  16.232  1.00 69.96 LIG 0.16  HD
BRANCH 15 17
ATOM     17  CA  GLN C  14     -32.132  72.892  15.849  1.00 68.16 LIG 0.19  C 
BRANCH 17 18
ATOM     18  C   GLN C  14     -31.003  72.119  15.173  1.00 80.56 LIG 0.20  C 
ATOM     19 O    GLN C  14     -30.345  71.279  15.789  1.00 73.75 LIG-0.65  OA
ATOM     20 OXT  GLN C  14     -30.722  72.316  13.990  1.00 84.17 LIG-0.65  OA
ENDBRANCH 17 18
BRANCH 17 21
ATOM     21  CB  GLN C  14     -31.662  73.431  17.202  1.00 71.08 LIG 0.04  C 
BRANCH 21 22
ATOM     22  CG  GLN C  14     -32.091  74.863  17.484  1.00 84.90 LIG 0.10  C 
BRANCH 22 23
ATOM     23  CD  GLN C  14     -33.409  74.942  18.227  1.00 85.71 LIG 0.21  C 
ATOM     24  NE2 GLN C  14     -33.875  76.159  18.482  1.00 87.27 LIG-0.37  N 
ATOM     25 22HE GLN C  14     -34.619  76.255  18.903  1.00 87.27 LIG 0.16  HD
ATOM     26 21HE GLN C  14     -33.433  76.851  18.226  1.00 87.27 LIG 0.16  HD
ATOM     27 OE1  GLN C  14     -34.001  73.918  18.570  1.00 92.83 LIG-0.27  OA
ENDBRANCH 22 23
ENDBRANCH 21 22
ENDBRANCH 17 21
ENDBRANCH 15 17
ENDBRANCH 5 13
ENDBRANCH 3 5
BRANCH 1 28
ATOM     28  CA  TYR C  12     -34.906  68.271  14.418  1.00 72.08 LIG 0.18  C 
BRANCH 28 29
ATOM     29  CB  TYR C  12     -35.557  67.716  13.149  1.00 70.95 LIG 0.07  C 
BRANCH 29 30
ATOM     30  CG  TYR C  12     -35.081  68.370  11.873  1.00 83.06 LIG-0.06  A 
ATOM     31  CD1 TYR C  12     -33.862  69.034  11.821  1.00 86.94 LIG 0.01  A 
ATOM     32  CE1 TYR C  12     -33.422  69.632  10.655  1.00 80.65 LIG 0.04  A 
ATOM     33  CZ  TYR C  12     -34.201  69.566   9.519  1.00 81.62 LIG 0.07  A 
ATOM     34  CE2 TYR C  12     -35.415  68.910   9.545  1.00 86.89 LIG 0.04  A 
ATOM     35  CD2 TYR C  12     -35.848  68.317  10.715  1.00 81.98 LIG 0.01  A 
BRANCH 33 36
ATOM     36 OH   TYR C  12     -33.767  70.160   8.357  1.00 83.24 LIG-0.36  OA
ATOM     37 HH   TYR C  12     -34.410  70.555   7.988  1.00 83.24 LIG 0.22  HD
ENDBRANCH 33 36
ENDBRANCH 29 30
ENDBRANCH 28 29
BRANCH 28 38
ATOM     38  N   TYR C  12     -35.278  67.467  15.576  1.00 66.73 LIG-0.34  N 
ATOM     39  C   LEU C  11     -36.544  67.332  15.957  1.00 75.02 LIG 0.26  C 
ATOM     40 O    LEU C  11     -37.480  67.874  15.370  1.00 79.88 LIG-0.27  OA
ATOM     41 H    TYR C  12     -34.614  67.097  15.980  1.00 66.73 LIG 0.16  HD
BRANCH 39 42
ATOM     42  CA  LEU C  11     -36.795  66.458  17.180  1.00 79.60 LIG 0.40  C 
ATOM     43  N   LEU C  11     -38.088  66.752  17.786  1.00 85.33 LIG 0.61  N 
BRANCH 42 44
ATOM     44  CB  LEU C  11     -36.705  64.980  16.794  1.00 82.02 LIG 0.06  C 
BRANCH 44 45
ATOM     45  CG  LEU C  11     -36.451  64.665  15.317  1.00 84.03 LIG-0.02  C 
ATOM     46  CD1 LEU C  11     -35.086  64.024  15.132  1.00 79.83 LIG 0.01  C 
ATOM     47  CD2 LEU C  11     -37.546  63.766  14.764  1.00 84.62 LIG 0.01  C 
ENDBRANCH 44 45
ENDBRANCH 42 44
ENDBRANCH 39 42
ENDBRANCH 28 38
ENDBRANCH 1 28
TORSDOF 17
ENDMDL
MODEL 12
USER: ADFR SOLUTION from run 76
USER: SCORE 16.195452 LL:  -3.922 LR: -12.589 RR:   0.000 FEB:  -7.518
USER: RMSD 3.750434
USER: SEED 75
USER: STATUS no improvement in best in 4 clusters for 5 generations
USER: GENES 19
USER: genes 0 Translation |==|  0.54616 0.52209 0.60816
USER: genes 1 Rotation |==|  0.46934 0.58193 0.51443 0.99208
USER: genes 2 Torsion [C]-N--CA-[C] |==|  0.83612
USER: genes 3 Torsion [N]-CA--CB-[CG] |==|  0.25408
USER: genes 4 Torsion [CA]-CB--CG-[CD1] |==|  0.73814
USER: genes 5 Torsion [N]-CA--C-[N] |==|  0.34696
USER: genes 6 Torsion [C]-N--CA-[C] |==|  0.66395
USER: genes 7 Torsion [N]-CA--C-[O] |==|  0.96186
USER: genes 8 Torsion [N]-CA--CB-[CG] |==|  0.90443
USER: genes 9 Torsion [CA]-CB--CG-[CD] |==|  0.75525
USER: genes 10 Torsion [CB]-CG--CD-[OE1] |==|  0.03290
USER: genes 11 Torsion [N]-C--CA-[N] |==|  0.49321
USER: genes 12 Torsion [C]-CA--CB-[CG] |==|  0.58072
USER: genes 13 Torsion [CA]-CB--CG-[CD1] |==|  0.33871
USER: genes 14 Torsion [CE1]-CZ--OH-[HH] |==|  0.03836
USER: genes 15 Torsion [C]-CA--N-[C] |==|  0.73889
USER: genes 16 Torsion [N]-C--CA-[N] |==|  0.58408
USER: genes 17 Torsion [C]-CA--CB-[CG] |==|  0.28580
USER: genes 18 Torsion [CA]-CB--CG-[CD1] |==|  0.68419
ROOT
ATOM      1  C   TYR C  12     -36.806  69.448  15.767  1.00 66.29 LIG 0.24  C 
ATOM      2 O    TYR C  12     -36.129  70.127  16.539  1.00 72.73 LIG-0.27  OA
ATOM      3  N   PHE C  13     -36.284  68.793  14.733  1.00 62.12 LIG-0.35  N 
ATOM      4 H    PHE C  13     -36.745  68.337  14.168  1.00 62.12 LIG 0.16  HD
ENDROOT
BRANCH 3 5
ATOM      5  CA  PHE C  13     -34.848  68.804  14.477  1.00 61.15 LIG 0.18  C 
BRANCH 5 6
ATOM      6  CB  PHE C  13     -34.502  67.933  13.263  1.00 57.79 LIG 0.07  C 
BRANCH 6 7
ATOM      7  CG  PHE C  13     -34.483  68.679  11.956  1.00 55.93 LIG-0.06  A 
ATOM      8  CD1 PHE C  13     -35.606  68.713  11.143  1.00 55.40 LIG 0.01  A 
ATOM      9  CE1 PHE C  13     -35.594  69.406   9.944  1.00 55.08 LIG 0.00  A 
ATOM     10  CZ  PHE C  13     -34.455  70.079   9.549  1.00 53.84 LIG 0.00  A 
ATOM     11  CE2 PHE C  13     -33.335  70.062  10.355  1.00 62.38 LIG 0.00  A 
ATOM     12  CD2 PHE C  13     -33.351  69.365  11.550  1.00 55.52 LIG 0.01  A 
ENDBRANCH 6 7
ENDBRANCH 5 6
BRANCH 5 13
ATOM     13  C   PHE C  13     -34.339  70.225  14.274  1.00 64.85 LIG 0.24  C 
ATOM     14 O    PHE C  13     -34.842  70.960  13.424  1.00 62.65 LIG-0.27  OA
ATOM     15  N   GLN C  14     -33.340  70.606  15.064  1.00 69.96 LIG-0.34  N 
ATOM     16 H    GLN C  14     -32.961  70.090  15.638  1.00 69.96 LIG 0.16  HD
BRANCH 15 17
ATOM     17  CA  GLN C  14     -32.792  71.957  15.021  1.00 68.16 LIG 0.19  C 
BRANCH 17 18
ATOM     18  C   GLN C  14     -31.302  71.947  14.685  1.00 80.56 LIG 0.20  C 
ATOM     19 O    GLN C  14     -30.644  70.906  14.732  1.00 73.75 LIG-0.65  OA
ATOM     20 OXT  GLN C  14     -30.722  72.982  14.357  1.00 84.17 LIG-0.65  OA
ENDBRANCH 17 18
BRANCH 17 21
ATOM     21  CB  GLN C  14     -33.023  72.666  16.358  1.00 71.08 LIG 0.04  C 
BRANCH 21 22
ATOM     22  CG  GLN C  14     -34.327  72.289  17.044  1.00 84.90 LIG 0.10  C 
BRANCH 22 23
ATOM     23  CD  GLN C  14     -35.488  73.159  16.607  1.00 85.71 LIG 0.21  C 
ATOM     24  NE2 GLN C  14     -36.604  73.064  17.321  1.00 87.27 LIG-0.37  N 
ATOM     25 22HE GLN C  14     -37.290  73.537  17.111  1.00 87.27 LIG 0.16  HD
ATOM     26 21HE GLN C  14     -36.639  72.530  17.995  1.00 87.27 LIG 0.16  HD
ATOM     27 OE1  GLN C  14     -35.384  73.907  15.634  1.00 92.83 LIG-0.27  OA
ENDBRANCH 22 23
ENDBRANCH 21 22
ENDBRANCH 17 21
ENDBRANCH 15 17
ENDBRANCH 5 13
ENDBRANCH 3 5
BRANCH 1 28
ATOM     28  CA  TYR C  12     -38.314  69.332  15.962  1.00 72.08 LIG 0.18  C 
BRANCH 28 29
ATOM     29  CB  TYR C  12     -39.037  69.862  14.721  1.00 70.95 LIG 0.07  C 
BRANCH 29 30
ATOM     30  CG  TYR C  12     -40.403  70.442  15.001  1.00 83.06 LIG-0.06  A 
ATOM     31  CD1 TYR C  12     -40.703  71.757  14.667  1.00 86.94 LIG 0.01  A 
ATOM     32  CE1 TYR C  12     -41.953  72.291  14.919  1.00 80.65 LIG 0.04  A 
ATOM     33  CZ  TYR C  12     -42.923  71.507  15.509  1.00 81.62 LIG 0.07  A 
ATOM     34  CE2 TYR C  12     -42.649  70.198  15.848  1.00 86.89 LIG 0.04  A 
ATOM     35  CD2 TYR C  12     -41.397  69.673  15.593  1.00 81.98 LIG 0.01  A 
BRANCH 33 36
ATOM     36 OH   TYR C  12     -44.167  72.036  15.763  1.00 83.24 LIG-0.36  OA
ATOM     37 HH   TYR C  12     -44.254  72.760  15.346  1.00 83.24 LIG 0.22  HD
ENDBRANCH 33 36
ENDBRANCH 29 30
ENDBRANCH 28 29
BRANCH 28 38
ATOM     38  N   TYR C  12     -38.759  70.043  17.155  1.00 66.73 LIG-0.34  N 
ATOM     39  C   LEU C  11     -38.895  69.428  18.325  1.00 75.02 LIG 0.26  C 
ATOM     40 O    LEU C  11     -38.664  68.229  18.482  1.00 79.88 LIG-0.27  OA
ATOM     41 H    TYR C  12     -38.921  70.879  17.031  1.00 66.73 LIG 0.16  HD
BRANCH 39 42
ATOM     42  CA  LEU C  11     -39.360  70.289  19.494  1.00 79.60 LIG 0.40  C 
ATOM     43  N   LEU C  11     -38.827  69.799  20.760  1.00 85.33 LIG 0.61  N 
BRANCH 42 44
ATOM     44  CB  LEU C  11     -38.951  71.746  19.265  1.00 82.02 LIG 0.06  C 
BRANCH 44 45
ATOM     45  CG  LEU C  11     -40.048  72.708  18.800  1.00 84.03 LIG-0.02  C 
ATOM     46  CD1 LEU C  11     -39.769  73.198  17.389  1.00 79.83 LIG 0.01  C 
ATOM     47  CD2 LEU C  11     -41.413  72.042  18.878  1.00 84.62 LIG 0.01  C 
ENDBRANCH 44 45
ENDBRANCH 42 44
ENDBRANCH 39 42
ENDBRANCH 28 38
ENDBRANCH 1 28
TORSDOF 17
ENDMDL
MODEL 13
USER: ADFR SOLUTION from run 129
USER: SCORE 15.117134 LL:  -2.787 LR: -12.586 RR:   0.000 FEB:  -7.515
USER: RMSD 6.812848
USER: SEED 128
USER: STATUS no improvement in best in 14 clusters for 5 generations
USER: GENES 19
USER: genes 0 Translation |==|  0.61111 0.57777 0.55584
USER: genes 1 Rotation |==|  0.09411 0.22069 0.48381 0.58351
USER: genes 2 Torsion [C]-N--CA-[C] |==|  0.79640
USER: genes 3 Torsion [N]-CA--CB-[CG] |==|  0.34016
USER: genes 4 Torsion [CA]-CB--CG-[CD1] |==|  0.27080
USER: genes 5 Torsion [N]-CA--C-[N] |==|  0.95290
USER: genes 6 Torsion [C]-N--CA-[C] |==|  0.79905
USER: genes 7 Torsion [N]-CA--C-[O] |==|  0.22841
USER: genes 8 Torsion [N]-CA--CB-[CG] |==|  0.52503
USER: genes 9 Torsion [CA]-CB--CG-[CD] |==|  0.56543
USER: genes 10 Torsion [CB]-CG--CD-[OE1] |==|  0.25321
USER: genes 11 Torsion [N]-C--CA-[N] |==|  0.26611
USER: genes 12 Torsion [C]-CA--CB-[CG] |==|  0.84049
USER: genes 13 Torsion [CA]-CB--CG-[CD1] |==|  0.29441
USER: genes 14 Torsion [CE1]-CZ--OH-[HH] |==|  0.67151
USER: genes 15 Torsion [C]-CA--N-[C] |==|  0.76956
USER: genes 16 Torsion [N]-C--CA-[N] |==|  0.24948
USER: genes 17 Torsion [C]-CA--CB-[CG] |==|  0.18776
USER: genes 18 Torsion [CA]-CB--CG-[CD1] |==|  0.36728
ROOT
ATOM      1  C   TYR C  12     -35.345  70.492  14.903  1.00 66.29 LIG 0.24  C 
ATOM      2 O    TYR C  12     -34.839  71.008  13.906  1.00 72.73 LIG-0.27  OA
ATOM      3  N   PHE C  13     -35.451  71.125  16.069  1.00 62.12 LIG-0.35  N 
ATOM      4 H    PHE C  13     -35.778  70.772  16.782  1.00 62.12 LIG 0.16  HD
ENDROOT
BRANCH 3 5
ATOM      5  CA  PHE C  13     -35.008  72.507  16.224  1.00 61.15 LIG 0.18  C 
BRANCH 5 6
ATOM      6  CB  PHE C  13     -35.594  73.130  17.497  1.00 57.79 LIG 0.07  C 
BRANCH 6 7
ATOM      7  CG  PHE C  13     -34.559  73.650  18.459  1.00 55.93 LIG-0.06  A 
ATOM      8  CD1 PHE C  13     -34.219  74.994  18.476  1.00 55.40 LIG 0.01  A 
ATOM      9  CE1 PHE C  13     -33.274  75.475  19.366  1.00 55.08 LIG 0.00  A 
ATOM     10  CZ  PHE C  13     -32.662  74.613  20.255  1.00 53.84 LIG 0.00  A 
ATOM     11  CE2 PHE C  13     -33.000  73.275  20.254  1.00 62.38 LIG 0.00  A 
ATOM     12  CD2 PHE C  13     -33.943  72.798  19.360  1.00 55.52 LIG 0.01  A 
ENDBRANCH 6 7
ENDBRANCH 5 6
BRANCH 5 13
ATOM     13  C   PHE C  13     -33.487  72.594  16.240  1.00 64.85 LIG 0.24  C 
ATOM     14 O    PHE C  13     -32.915  73.668  16.056  1.00 62.65 LIG-0.27  OA
ATOM     15  N   GLN C  14     -32.839  71.455  16.467  1.00 69.96 LIG-0.34  N 
ATOM     16 H    GLN C  14     -33.229  70.696  16.567  1.00 69.96 LIG 0.16  HD
BRANCH 15 17
ATOM     17  CA  GLN C  14     -31.385  71.400  16.570  1.00 68.16 LIG 0.19  C 
BRANCH 17 18
ATOM     18  C   GLN C  14     -30.721  71.586  15.207  1.00 80.56 LIG 0.20  C 
ATOM     19 O    GLN C  14     -30.543  72.709  14.732  1.00 73.75 LIG-0.65  OA
ATOM     20 OXT  GLN C  14     -30.345  70.615  14.550  1.00 84.17 LIG-0.65  OA
ENDBRANCH 17 18
BRANCH 17 21
ATOM     21  CB  GLN C  14     -30.948  70.070  17.190  1.00 71.08 LIG 0.04  C 
BRANCH 21 22
ATOM     22  CG  GLN C  14     -29.470  70.003  17.537  1.00 84.90 LIG 0.10  C 
BRANCH 22 23
ATOM     23  CD  GLN C  14     -28.949  68.581  17.598  1.00 85.71 LIG 0.21  C 
ATOM     24  NE2 GLN C  14     -29.037  67.966  18.772  1.00 87.27 LIG-0.37  N 
ATOM     25 22HE GLN C  14     -28.754  67.159  18.857  1.00 87.27 LIG 0.16  HD
ATOM     26 21HE GLN C  14     -29.379  68.375  19.448  1.00 87.27 LIG 0.16  HD
ATOM     27 OE1  GLN C  14     -28.470  68.042  16.601  1.00 92.83 LIG-0.27  OA
ENDBRANCH 22 23
ENDBRANCH 21 22
ENDBRANCH 17 21
ENDBRANCH 15 17
ENDBRANCH 5 13
ENDBRANCH 3 5
BRANCH 1 28
ATOM     28  CA  TYR C  12     -35.880  69.066  14.846  1.00 72.08 LIG 0.18  C 
BRANCH 28 29
ATOM     29  CB  TYR C  12     -34.954  68.202  13.988  1.00 70.95 LIG 0.07  C 
BRANCH 29 30
ATOM     30  CG  TYR C  12     -34.762  68.710  12.579  1.00 83.06 LIG-0.06  A 
ATOM     31  CD1 TYR C  12     -33.574  69.318  12.193  1.00 86.94 LIG 0.01  A 
ATOM     32  CE1 TYR C  12     -33.394  69.783  10.904  1.00 80.65 LIG 0.04  A 
ATOM     33  CZ  TYR C  12     -34.407  69.638   9.980  1.00 81.62 LIG 0.07  A 
ATOM     34  CE2 TYR C  12     -35.596  69.035  10.338  1.00 86.89 LIG 0.04  A 
ATOM     35  CD2 TYR C  12     -35.767  68.575  11.629  1.00 81.98 LIG 0.01  A 
BRANCH 33 36
ATOM     36 OH   TYR C  12     -34.232  70.100   8.696  1.00 83.24 LIG-0.36  OA
ATOM     37 HH   TYR C  12     -34.801  70.696   8.533  1.00 83.24 LIG 0.22  HD
ENDBRANCH 33 36
ENDBRANCH 29 30
ENDBRANCH 28 29
BRANCH 28 38
ATOM     38  N   TYR C  12     -37.243  69.022  14.329  1.00 66.73 LIG-0.34  N 
ATOM     39  C   LEU C  11     -38.295  69.248  15.111  1.00 75.02 LIG 0.26  C 
ATOM     40 O    LEU C  11     -38.195  69.500  16.311  1.00 79.88 LIG-0.27  OA
ATOM     41 H    TYR C  12     -37.300  68.841  13.490  1.00 66.73 LIG 0.16  HD
BRANCH 39 42
ATOM     42  CA  LEU C  11     -39.663  69.179  14.442  1.00 79.60 LIG 0.40  C 
ATOM     43  N   LEU C  11     -40.210  67.827  14.490  1.00 85.33 LIG 0.61  N 
BRANCH 42 44
ATOM     44  CB  LEU C  11     -40.620  70.171  15.107  1.00 82.02 LIG 0.06  C 
BRANCH 44 45
ATOM     45  CG  LEU C  11     -40.318  71.659  14.913  1.00 84.03 LIG-0.02  C 
ATOM     46  CD1 LEU C  11     -41.573  72.412  14.503  1.00 79.83 LIG 0.01  C 
ATOM     47  CD2 LEU C  11     -39.724  72.255  16.180  1.00 84.62 LIG 0.01  C 
ENDBRANCH 44 45
ENDBRANCH 42 44
ENDBRANCH 39 42
ENDBRANCH 28 38
ENDBRANCH 1 28
TORSDOF 17
ENDMDL
MODEL 14
USER: ADFR SOLUTION from run 94
USER: SCORE 15.525014 LL:  -3.197 LR: -12.535 RR:   0.000 FEB:  -7.464
USER: RMSD 5.961123
USER: SEED 93
USER: STATUS no improvement in best in 11 clusters for 5 generations
USER: GENES 19
USER: genes 0 Translation |==|  0.60014 0.53762 0.54083
USER: genes 1 Rotation |==|  0.13797 0.19574 0.54580 0.65577
USER: genes 2 Torsion [C]-N--CA-[C] |==|  0.72086
USER: genes 3 Torsion [N]-CA--CB-[CG] |==|  0.79755
USER: genes 4 Torsion [CA]-CB--CG-[CD1] |==|  0.58082
USER: genes 5 Torsion [N]-CA--C-[N] |==|  0.99534
USER: genes 6 Torsion [C]-N--CA-[C] |==|  0.73577
USER: genes 7 Torsion [N]-CA--C-[O] |==|  0.76490
USER: genes 8 Torsion [N]-CA--CB-[CG] |==|  0.47115
USER: genes 9 Torsion [CA]-CB--CG-[CD] |==|  0.58820
USER: genes 10 Torsion [CB]-CG--CD-[OE1] |==|  0.26756
USER: genes 11 Torsion [N]-C--CA-[N] |==|  0.31389
USER: genes 12 Torsion [C]-CA--CB-[CG] |==|  0.85434
USER: genes 13 Torsion [CA]-CB--CG-[CD1] |==|  0.29047
USER: genes 14 Torsion [CE1]-CZ--OH-[HH] |==|  0.66245
USER: genes 15 Torsion [C]-CA--N-[C] |==|  0.76828
USER: genes 16 Torsion [N]-C--CA-[N] |==|  0.63660
USER: genes 17 Torsion [C]-CA--CB-[CG] |==|  0.31231
USER: genes 18 Torsion [CA]-CB--CG-[CD1] |==|  0.87993
ROOT
ATOM      1  C   TYR C  12     -35.592  69.739  14.656  1.00 66.29 LIG 0.24  C 
ATOM      2 O    TYR C  12     -35.579  70.442  13.644  1.00 72.73 LIG-0.27  OA
ATOM      3  N   PHE C  13     -35.414  70.231  15.879  1.00 62.12 LIG-0.35  N 
ATOM      4 H    PHE C  13     -35.394  69.753  16.594  1.00 62.12 LIG 0.16  HD
ENDROOT
BRANCH 3 5
ATOM      5  CA  PHE C  13     -35.236  71.662  16.102  1.00 61.15 LIG 0.18  C 
BRANCH 5 6
ATOM      6  CB  PHE C  13     -36.062  72.137  17.303  1.00 57.79 LIG 0.07  C 
BRANCH 6 7
ATOM      7  CG  PHE C  13     -37.544  72.201  17.044  1.00 55.93 LIG-0.06  A 
ATOM      8  CD1 PHE C  13     -38.343  73.112  17.718  1.00 55.40 LIG 0.01  A 
ATOM      9  CE1 PHE C  13     -39.704  73.177  17.475  1.00 55.08 LIG 0.00  A 
ATOM     10  CZ  PHE C  13     -40.281  72.333  16.548  1.00 53.84 LIG 0.00  A 
ATOM     11  CE2 PHE C  13     -39.494  71.429  15.863  1.00 62.38 LIG 0.00  A 
ATOM     12  CD2 PHE C  13     -38.134  71.364  16.112  1.00 55.52 LIG 0.01  A 
ENDBRANCH 6 7
ENDBRANCH 5 6
BRANCH 5 13
ATOM     13  C   PHE C  13     -33.765  72.006  16.300  1.00 64.85 LIG 0.24  C 
ATOM     14 O    PHE C  13     -33.407  73.170  16.475  1.00 62.65 LIG-0.27  OA
ATOM     15  N   GLN C  14     -32.918  70.981  16.274  1.00 69.96 LIG-0.34  N 
ATOM     16 H    GLN C  14     -33.155  70.169  16.121  1.00 69.96 LIG 0.16  HD
BRANCH 15 17
ATOM     17  CA  GLN C  14     -31.488  71.153  16.508  1.00 68.16 LIG 0.19  C 
BRANCH 17 18
ATOM     18  C   GLN C  14     -30.720  71.296  15.196  1.00 80.56 LIG 0.20  C 
ATOM     19 O    GLN C  14     -30.352  70.307  14.560  1.00 73.75 LIG-0.65  OA
ATOM     20 OXT  GLN C  14     -30.451  72.408  14.740  1.00 84.17 LIG-0.65  OA
ENDBRANCH 17 18
BRANCH 17 21
ATOM     21  CB  GLN C  14     -30.937  69.974  17.313  1.00 71.08 LIG 0.04  C 
BRANCH 21 22
ATOM     22  CG  GLN C  14     -29.419  69.933  17.396  1.00 84.90 LIG 0.10  C 
BRANCH 22 23
ATOM     23  CD  GLN C  14     -28.878  68.520  17.471  1.00 85.71 LIG 0.21  C 
ATOM     24  NE2 GLN C  14     -28.847  67.959  18.675  1.00 87.27 LIG-0.37  N 
ATOM     25 22HE GLN C  14     -28.546  67.159  18.769  1.00 87.27 LIG 0.16  HD
ATOM     26 21HE GLN C  14     -29.128  68.396  19.361  1.00 87.27 LIG 0.16  HD
ATOM     27 OE1  GLN C  14     -28.488  67.939  16.458  1.00 92.83 LIG-0.27  OA
ENDBRANCH 22 23
ENDBRANCH 21 22
ENDBRANCH 17 21
ENDBRANCH 15 17
ENDBRANCH 5 13
ENDBRANCH 3 5
BRANCH 1 28
ATOM     28  CA  TYR C  12     -35.811  68.235  14.547  1.00 72.08 LIG 0.18  C 
BRANCH 28 29
ATOM     29  CB  TYR C  12     -34.771  67.629  13.602  1.00 70.95 LIG 0.07  C 
BRANCH 29 30
ATOM     30  CG  TYR C  12     -34.692  68.306  12.253  1.00 83.06 LIG-0.06  A 
ATOM     31  CD1 TYR C  12     -33.642  69.162  11.943  1.00 86.94 LIG 0.01  A 
ATOM     32  CE1 TYR C  12     -33.565  69.781  10.709  1.00 80.65 LIG 0.04  A 
ATOM     33  CZ  TYR C  12     -34.543  69.544   9.766  1.00 81.62 LIG 0.07  A 
ATOM     34  CE2 TYR C  12     -35.594  68.696  10.049  1.00 86.89 LIG 0.04  A 
ATOM     35  CD2 TYR C  12     -35.663  68.083  11.285  1.00 81.98 LIG 0.01  A 
BRANCH 33 36
ATOM     36 OH   TYR C  12     -34.470  70.159   8.537  1.00 83.24 LIG-0.36  OA
ATOM     37 HH   TYR C  12     -35.163  70.617   8.412  1.00 83.24 LIG 0.22  HD
ENDBRANCH 33 36
ENDBRANCH 29 30
ENDBRANCH 28 29
BRANCH 28 38
ATOM     38  N   TYR C  12     -37.160  67.919  14.092  1.00 66.73 LIG-0.34  N 
ATOM     39  C   LEU C  11     -38.188  67.868  14.934  1.00 75.02 LIG 0.26  C 
ATOM     40 O    LEU C  11     -38.075  68.076  16.141  1.00 79.88 LIG-0.27  OA
ATOM     41 H    TYR C  12     -37.225  67.772  13.247  1.00 66.73 LIG 0.16  HD
BRANCH 39 42
ATOM     42  CA  LEU C  11     -39.545  67.534  14.326  1.00 79.60 LIG 0.40  C 
ATOM     43  N   LEU C  11     -40.569  68.477  14.762  1.00 85.33 LIG 0.61  N 
BRANCH 42 44
ATOM     44  CB  LEU C  11     -39.445  67.517  12.799  1.00 82.02 LIG 0.06  C 
BRANCH 44 45
ATOM     45  CG  LEU C  11     -39.618  66.161  12.110  1.00 84.03 LIG-0.02  C 
ATOM     46  CD1 LEU C  11     -38.855  65.079  12.856  1.00 79.83 LIG 0.01  C 
ATOM     47  CD2 LEU C  11     -41.091  65.800  11.999  1.00 84.62 LIG 0.01  C 
ENDBRANCH 44 45
ENDBRANCH 42 44
ENDBRANCH 39 42
ENDBRANCH 28 38
ENDBRANCH 1 28
TORSDOF 17
ENDMDL
MODEL 15
USER: ADFR SOLUTION from run 140
USER: SCORE 14.726996 LL:  -3.868 LR: -12.408 RR:   0.000 FEB:  -7.337
USER: RMSD 7.921626
USER: SEED 139
USER: STATUS no improvement in best in 12 clusters for 5 generations
USER: GENES 19
USER: genes 0 Translation |==|  0.57360 0.54240 0.52342
USER: genes 1 Rotation |==|  0.37414 0.89462 0.50129 0.78006
USER: genes 2 Torsion [C]-N--CA-[C] |==|  0.52569
USER: genes 3 Torsion [N]-CA--CB-[CG] |==|  0.71058
USER: genes 4 Torsion [CA]-CB--CG-[CD1] |==|  0.31929
USER: genes 5 Torsion [N]-CA--C-[N] |==|  0.79437
USER: genes 6 Torsion [C]-N--CA-[C] |==|  0.79187
USER: genes 7 Torsion [N]-CA--C-[O] |==|  0.50821
USER: genes 8 Torsion [N]-CA--CB-[CG] |==|  0.74390
USER: genes 9 Torsion [CA]-CB--CG-[CD] |==|  0.23970
USER: genes 10 Torsion [CB]-CG--CD-[OE1] |==|  0.98501
USER: genes 11 Torsion [N]-C--CA-[N] |==|  0.82892
USER: genes 12 Torsion [C]-CA--CB-[CG] |==|  0.09182
USER: genes 13 Torsion [CA]-CB--CG-[CD1] |==|  0.67662
USER: genes 14 Torsion [CE1]-CZ--OH-[HH] |==|  0.75554
USER: genes 15 Torsion [C]-CA--N-[C] |==|  0.67879
USER: genes 16 Torsion [N]-C--CA-[N] |==|  0.33989
USER: genes 17 Torsion [C]-CA--CB-[CG] |==|  0.33064
USER: genes 18 Torsion [CA]-CB--CG-[CD1] |==|  0.52868
ROOT
ATOM      1  C   TYR C  12     -36.189  69.829  14.368  1.00 66.29 LIG 0.24  C 
ATOM      2 O    TYR C  12     -35.595  70.427  13.471  1.00 72.73 LIG-0.27  OA
ATOM      3  N   PHE C  13     -36.942  68.756  14.145  1.00 62.12 LIG-0.35  N 
ATOM      4 H    PHE C  13     -37.385  68.341  14.756  1.00 62.12 LIG 0.16  HD
ENDROOT
BRANCH 3 5
ATOM      5  CA  PHE C  13     -37.074  68.187  12.808  1.00 61.15 LIG 0.18  C 
BRANCH 5 6
ATOM      6  CB  PHE C  13     -35.738  67.612  12.322  1.00 57.79 LIG 0.07  C 
BRANCH 6 7
ATOM      7  CG  PHE C  13     -35.033  68.470  11.305  1.00 55.93 LIG-0.06  A 
ATOM      8  CD1 PHE C  13     -33.814  69.061  11.599  1.00 55.40 LIG 0.01  A 
ATOM      9  CE1 PHE C  13     -33.161  69.843  10.662  1.00 55.08 LIG 0.00  A 
ATOM     10  CZ  PHE C  13     -33.720  70.037   9.415  1.00 53.84 LIG 0.00  A 
ATOM     11  CE2 PHE C  13     -34.928  69.445   9.107  1.00 62.38 LIG 0.00  A 
ATOM     12  CD2 PHE C  13     -35.580  68.667  10.048  1.00 55.52 LIG 0.01  A 
ENDBRANCH 6 7
ENDBRANCH 5 6
BRANCH 5 13
ATOM     13  C   PHE C  13     -38.157  67.115  12.774  1.00 64.85 LIG 0.24  C 
ATOM     14 O    PHE C  13     -39.245  67.334  12.241  1.00 62.65 LIG-0.27  OA
ATOM     15  N   GLN C  14     -37.848  65.954  13.343  1.00 69.96 LIG-0.34  N 
ATOM     16 H    GLN C  14     -37.103  65.803  13.745  1.00 69.96 LIG 0.16  HD
BRANCH 15 17
ATOM     17  CA  GLN C  14     -38.764  64.819  13.334  1.00 68.16 LIG 0.19  C 
BRANCH 17 18
ATOM     18  C   GLN C  14     -39.910  65.017  14.323  1.00 80.56 LIG 0.20  C 
ATOM     19 O    GLN C  14     -40.760  64.142  14.500  1.00 73.75 LIG-0.65  OA
ATOM     20 OXT  GLN C  14     -40.012  66.060  14.971  1.00 84.17 LIG-0.65  OA
ENDBRANCH 17 18
BRANCH 17 21
ATOM     21  CB  GLN C  14     -38.010  63.527  13.656  1.00 71.08 LIG 0.04  C 
BRANCH 21 22
ATOM     22  CG  GLN C  14     -37.499  62.783  12.433  1.00 84.90 LIG 0.10  C 
BRANCH 22 23
ATOM     23  CD  GLN C  14     -36.141  63.277  11.976  1.00 85.71 LIG 0.21  C 
ATOM     24  NE2 GLN C  14     -35.568  62.606  10.982  1.00 87.27 LIG-0.37  N 
ATOM     25 22HE GLN C  14     -34.797  62.847  10.690  1.00 87.27 LIG 0.16  HD
ATOM     26 21HE GLN C  14     -35.970  61.931  10.631  1.00 87.27 LIG 0.16  HD
ATOM     27 OE1  GLN C  14     -35.611  64.249  12.512  1.00 92.83 LIG-0.27  OA
ENDBRANCH 22 23
ENDBRANCH 21 22
ENDBRANCH 17 21
ENDBRANCH 15 17
ENDBRANCH 5 13
ENDBRANCH 3 5
BRANCH 1 28
ATOM     28  CA  TYR C  12     -36.090  70.310  15.812  1.00 72.08 LIG 0.18  C 
BRANCH 28 29
ATOM     29  CB  TYR C  12     -35.467  69.213  16.679  1.00 70.95 LIG 0.07  C 
BRANCH 29 30
ATOM     30  CG  TYR C  12     -34.443  68.366  15.963  1.00 83.06 LIG-0.06  A 
ATOM     31  CD1 TYR C  12     -34.652  67.006  15.764  1.00 86.94 LIG 0.01  A 
ATOM     32  CE1 TYR C  12     -33.718  66.227  15.107  1.00 80.65 LIG 0.04  A 
ATOM     33  CZ  TYR C  12     -32.559  66.806  14.635  1.00 81.62 LIG 0.07  A 
ATOM     34  CE2 TYR C  12     -32.329  68.155  14.817  1.00 86.89 LIG 0.04  A 
ATOM     35  CD2 TYR C  12     -33.267  68.925  15.476  1.00 81.98 LIG 0.01  A 
BRANCH 33 36
ATOM     36 OH   TYR C  12     -31.626  66.034  13.982  1.00 83.24 LIG-0.36  OA
ATOM     37 HH   TYR C  12     -31.095  65.702  14.542  1.00 83.24 LIG 0.22  HD
ENDBRANCH 33 36
ENDBRANCH 29 30
ENDBRANCH 28 29
BRANCH 28 38
ATOM     38  N   TYR C  12     -37.393  70.700  16.339  1.00 66.73 LIG-0.34  N 
ATOM     39  C   LEU C  11     -37.657  71.954  16.692  1.00 75.02 LIG 0.26  C 
ATOM     40 O    LEU C  11     -36.830  72.862  16.606  1.00 79.88 LIG-0.27  OA
ATOM     41 H    TYR C  12     -37.960  70.056  16.399  1.00 66.73 LIG 0.16  HD
BRANCH 39 42
ATOM     42  CA  LEU C  11     -39.060  72.228  17.222  1.00 79.60 LIG 0.40  C 
ATOM     43  N   LEU C  11     -39.018  72.800  18.563  1.00 85.33 LIG 0.61  N 
BRANCH 42 44
ATOM     44  CB  LEU C  11     -39.808  73.158  16.264  1.00 82.02 LIG 0.06  C 
BRANCH 44 45
ATOM     45  CG  LEU C  11     -41.089  72.610  15.629  1.00 84.03 LIG-0.02  C 
ATOM     46  CD1 LEU C  11     -41.576  73.531  14.523  1.00 79.83 LIG 0.01  C 
ATOM     47  CD2 LEU C  11     -40.863  71.203  15.095  1.00 84.62 LIG 0.01  C 
ENDBRANCH 44 45
ENDBRANCH 42 44
ENDBRANCH 39 42
ENDBRANCH 28 38
ENDBRANCH 1 28
TORSDOF 17
ENDMDL
MODEL 16
USER: ADFR SOLUTION from run 75
USER: SCORE 14.420840 LL:  -2.593 LR: -12.371 RR:   0.000 FEB:  -7.300
USER: RMSD 6.347812
USER: SEED 74
USER: STATUS no improvement in best in 9 clusters for 5 generations
USER: GENES 19
USER: genes 0 Translation |==|  0.60337 0.54059 0.53216
USER: genes 1 Rotation |==|  0.12226 0.20840 0.50542 0.64918
USER: genes 2 Torsion [C]-N--CA-[C] |==|  0.77859
USER: genes 3 Torsion [N]-CA--CB-[CG] |==|  0.40779
USER: genes 4 Torsion [CA]-CB--CG-[CD1] |==|  0.72185
USER: genes 5 Torsion [N]-CA--C-[N] |==|  0.91298
USER: genes 6 Torsion [C]-N--CA-[C] |==|  0.81233
USER: genes 7 Torsion [N]-CA--C-[O] |==|  0.71926
USER: genes 8 Torsion [N]-CA--CB-[CG] |==|  0.55346
USER: genes 9 Torsion [CA]-CB--CG-[CD] |==|  0.62909
USER: genes 10 Torsion [CB]-CG--CD-[OE1] |==|  0.40760
USER: genes 11 Torsion [N]-C--CA-[N] |==|  0.30860
USER: genes 12 Torsion [C]-CA--CB-[CG] |==|  0.83996
USER: genes 13 Torsion [CA]-CB--CG-[CD1] |==|  0.29493
USER: genes 14 Torsion [CE1]-CZ--OH-[HH] |==|  0.65398
USER: genes 15 Torsion [C]-CA--N-[C] |==|  0.55557
USER: genes 16 Torsion [N]-C--CA-[N] |==|  0.10202
USER: genes 17 Torsion [C]-CA--CB-[CG] |==|  0.56147
USER: genes 18 Torsion [CA]-CB--CG-[CD1] |==|  0.47457
ROOT
ATOM      1  C   TYR C  12     -35.519  69.795  14.513  1.00 66.29 LIG 0.24  C 
ATOM      2 O    TYR C  12     -35.295  70.537  13.556  1.00 72.73 LIG-0.27  OA
ATOM      3  N   PHE C  13     -35.440  70.202  15.777  1.00 62.12 LIG-0.35  N 
ATOM      4 H    PHE C  13     -35.566  69.692  16.457  1.00 62.12 LIG 0.16  HD
ENDROOT
BRANCH 3 5
ATOM      5  CA  PHE C  13     -35.122  71.588  16.108  1.00 61.15 LIG 0.18  C 
BRANCH 5 6
ATOM      6  CB  PHE C  13     -35.627  71.945  17.511  1.00 57.79 LIG 0.07  C 
BRANCH 6 7
ATOM      7  CG  PHE C  13     -34.760  72.934  18.243  1.00 55.93 LIG-0.06  A 
ATOM      8  CD1 PHE C  13     -33.855  72.508  19.204  1.00 55.40 LIG 0.01  A 
ATOM      9  CE1 PHE C  13     -33.052  73.416  19.873  1.00 55.08 LIG 0.00  A 
ATOM     10  CZ  PHE C  13     -33.141  74.762  19.582  1.00 53.84 LIG 0.00  A 
ATOM     11  CE2 PHE C  13     -34.030  75.197  18.619  1.00 62.38 LIG 0.00  A 
ATOM     12  CD2 PHE C  13     -34.835  74.287  17.956  1.00 55.52 LIG 0.01  A 
ENDBRANCH 6 7
ENDBRANCH 5 6
BRANCH 5 13
ATOM     13  C   PHE C  13     -33.624  71.846  16.001  1.00 64.85 LIG 0.24  C 
ATOM     14 O    PHE C  13     -33.197  72.953  15.677  1.00 62.65 LIG-0.27  OA
ATOM     15  N   GLN C  14     -32.833  70.814  16.280  1.00 69.96 LIG-0.34  N 
ATOM     16 H    GLN C  14     -33.123  70.029  16.477  1.00 69.96 LIG 0.16  HD
BRANCH 15 17
ATOM     17  CA  GLN C  14     -31.379  70.932  16.277  1.00 68.16 LIG 0.19  C 
BRANCH 17 18
ATOM     18  C   GLN C  14     -30.841  71.173  14.868  1.00 80.56 LIG 0.20  C 
ATOM     19 O    GLN C  14     -30.345  70.257  14.208  1.00 73.75 LIG-0.65  OA
ATOM     20 OXT  GLN C  14     -30.891  72.291  14.356  1.00 84.17 LIG-0.65  OA
ENDBRANCH 17 18
BRANCH 17 21
ATOM     21  CB  GLN C  14     -30.744  69.673  16.873  1.00 71.08 LIG 0.04  C 
BRANCH 21 22
ATOM     22  CG  GLN C  14     -29.309  69.861  17.339  1.00 84.90 LIG 0.10  C 
BRANCH 22 23
ATOM     23  CD  GLN C  14     -28.395  68.745  16.877  1.00 85.71 LIG 0.21  C 
ATOM     24  NE2 GLN C  14     -28.933  67.534  16.787  1.00 87.27 LIG-0.37  N 
ATOM     25 22HE GLN C  14     -28.454  66.868  16.531  1.00 87.27 LIG 0.16  HD
ATOM     26 21HE GLN C  14     -29.763  67.416  16.984  1.00 87.27 LIG 0.16  HD
ATOM     27 OE1  GLN C  14     -27.214  68.968  16.607  1.00 92.83 LIG-0.27  OA
ENDBRANCH 22 23
ENDBRANCH 21 22
ENDBRANCH 17 21
ENDBRANCH 15 17
ENDBRANCH 5 13
ENDBRANCH 3 5
BRANCH 1 28
ATOM     28  CA  TYR C  12     -35.900  68.337  14.285  1.00 72.08 LIG 0.18  C 
BRANCH 28 29
ATOM     29  CB  TYR C  12     -34.853  67.663  13.395  1.00 70.95 LIG 0.07  C 
BRANCH 29 30
ATOM     30  CG  TYR C  12     -34.659  68.331  12.054  1.00 83.06 LIG-0.06  A 
ATOM     31  CD1 TYR C  12     -33.525  69.089  11.790  1.00 86.94 LIG 0.01  A 
ATOM     32  CE1 TYR C  12     -33.342  69.700  10.563  1.00 80.65 LIG 0.04  A 
ATOM     33  CZ  TYR C  12     -34.298  69.552   9.580  1.00 81.62 LIG 0.07  A 
ATOM     34  CE2 TYR C  12     -35.432  68.802   9.817  1.00 86.89 LIG 0.04  A 
ATOM     35  CD2 TYR C  12     -35.607  68.197  11.046  1.00 81.98 LIG 0.01  A 
BRANCH 33 36
ATOM     36 OH   TYR C  12     -34.120  70.159   8.358  1.00 83.24 LIG-0.36  OA
ATOM     37 HH   TYR C  12     -34.784  70.645   8.188  1.00 83.24 LIG 0.22  HD
ENDBRANCH 33 36
ENDBRANCH 29 30
ENDBRANCH 28 29
BRANCH 28 38
ATOM     38  N   TYR C  12     -37.228  68.213  13.695  1.00 66.73 LIG-0.34  N 
ATOM     39  C   LEU C  11     -37.922  67.082  13.765  1.00 75.02 LIG 0.26  C 
ATOM     40 O    LEU C  11     -37.497  66.069  14.321  1.00 79.88 LIG-0.27  OA
ATOM     41 H    TYR C  12     -37.512  68.926  13.306  1.00 66.73 LIG 0.16  HD
BRANCH 39 42
ATOM     42  CA  LEU C  11     -39.300  67.090  13.113  1.00 79.60 LIG 0.40  C 
ATOM     43  N   LEU C  11     -39.303  67.885  11.889  1.00 85.33 LIG 0.61  N 
BRANCH 42 44
ATOM     44  CB  LEU C  11     -39.751  65.656  12.824  1.00 82.02 LIG 0.06  C 
BRANCH 44 45
ATOM     45  CG  LEU C  11     -40.816  65.471  11.740  1.00 84.03 LIG-0.02  C 
ATOM     46  CD1 LEU C  11     -40.996  63.999  11.410  1.00 79.83 LIG 0.01  C 
ATOM     47  CD2 LEU C  11     -42.136  66.090  12.173  1.00 84.62 LIG 0.01  C 
ENDBRANCH 44 45
ENDBRANCH 42 44
ENDBRANCH 39 42
ENDBRANCH 28 38
ENDBRANCH 1 28
TORSDOF 17
ENDMDL
MODEL 17
USER: ADFR SOLUTION from run 171
USER: SCORE 14.366320 LL:  -2.976 LR: -12.335 RR:   0.000 FEB:  -7.264
USER: RMSD 7.110503
USER: SEED 170
USER: STATUS no improvement in best in 9 clusters for 5 generations
USER: GENES 19
USER: genes 0 Translation |==|  0.66633 0.36602 0.60858
USER: genes 1 Rotation |==|  0.81942 0.79663 0.40760 0.72681
USER: genes 2 Torsion [C]-N--CA-[C] |==|  0.63592
USER: genes 3 Torsion [N]-CA--CB-[CG] |==|  0.52492
USER: genes 4 Torsion [CA]-CB--CG-[CD1] |==|  0.97816
USER: genes 5 Torsion [N]-CA--C-[N] |==|  0.20092
USER: genes 6 Torsion [C]-N--CA-[C] |==|  0.61353
USER: genes 7 Torsion [N]-CA--C-[O] |==|  0.89953
USER: genes 8 Torsion [N]-CA--CB-[CG] |==|  0.60177
USER: genes 9 Torsion [CA]-CB--CG-[CD] |==|  0.17073
USER: genes 10 Torsion [CB]-CG--CD-[OE1] |==|  0.75824
USER: genes 11 Torsion [N]-C--CA-[N] |==|  0.51618
USER: genes 12 Torsion [C]-CA--CB-[CG] |==|  0.77591
USER: genes 13 Torsion [CA]-CB--CG-[CD1] |==|  0.19878
USER: genes 14 Torsion [CE1]-CZ--OH-[HH] |==|  0.82927
USER: genes 15 Torsion [C]-CA--N-[C] |==|  0.53333
USER: genes 16 Torsion [N]-C--CA-[N] |==|  0.41892
USER: genes 17 Torsion [C]-CA--CB-[CG] |==|  0.42646
USER: genes 18 Torsion [CA]-CB--CG-[CD1] |==|  0.68234
ROOT
ATOM      1  C   TYR C  12     -34.103  66.522  15.774  1.00 66.29 LIG 0.24  C 
ATOM      2 O    TYR C  12     -33.203  66.005  15.110  1.00 72.73 LIG-0.27  OA
ATOM      3  N   PHE C  13     -34.719  67.642  15.405  1.00 62.12 LIG-0.35  N 
ATOM      4 H    PHE C  13     -35.330  68.031  15.868  1.00 62.12 LIG 0.16  HD
ENDROOT
BRANCH 3 5
ATOM      5  CA  PHE C  13     -34.391  68.309  14.149  1.00 61.15 LIG 0.18  C 
BRANCH 5 6
ATOM      6  CB  PHE C  13     -35.496  68.091  13.108  1.00 57.79 LIG 0.07  C 
BRANCH 6 7
ATOM      7  CG  PHE C  13     -35.139  68.565  11.725  1.00 55.93 LIG-0.06  A 
ATOM      8  CD1 PHE C  13     -33.976  69.285  11.500  1.00 55.40 LIG 0.01  A 
ATOM      9  CE1 PHE C  13     -33.643  69.715  10.227  1.00 55.08 LIG 0.00  A 
ATOM     10  CZ  PHE C  13     -34.470  69.422   9.161  1.00 53.84 LIG 0.00  A 
ATOM     11  CE2 PHE C  13     -35.625  68.696   9.371  1.00 62.38 LIG 0.00  A 
ATOM     12  CD2 PHE C  13     -35.957  68.272  10.646  1.00 55.52 LIG 0.01  A 
ENDBRANCH 6 7
ENDBRANCH 5 6
BRANCH 5 13
ATOM     13  C   PHE C  13     -34.153  69.798  14.368  1.00 64.85 LIG 0.24  C 
ATOM     14 O    PHE C  13     -34.976  70.631  13.989  1.00 62.65 LIG-0.27  OA
ATOM     15  N   GLN C  14     -33.021  70.124  14.986  1.00 69.96 LIG-0.34  N 
ATOM     16 H    GLN C  14     -32.427  69.551  15.226  1.00 69.96 LIG 0.16  HD
BRANCH 15 17
ATOM     17  CA  GLN C  14     -32.689  71.505  15.314  1.00 68.16 LIG 0.19  C 
BRANCH 17 18
ATOM     18  C   GLN C  14     -31.214  71.803  15.056  1.00 80.56 LIG 0.20  C 
ATOM     19 O    GLN C  14     -30.345  70.955  15.267  1.00 73.75 LIG-0.65  OA
ATOM     20 OXT  GLN C  14     -30.857  72.901  14.626  1.00 84.17 LIG-0.65  OA
ENDBRANCH 17 18
BRANCH 17 21
ATOM     21  CB  GLN C  14     -33.036  71.801  16.776  1.00 71.08 LIG 0.04  C 
BRANCH 21 22
ATOM     22  CG  GLN C  14     -33.573  73.203  17.016  1.00 84.90 LIG 0.10  C 
BRANCH 22 23
ATOM     23  CD  GLN C  14     -34.863  73.469  16.267  1.00 85.71 LIG 0.21  C 
ATOM     24  NE2 GLN C  14     -35.992  73.231  16.925  1.00 87.27 LIG-0.37  N 
ATOM     25 22HE GLN C  14     -36.749  73.365  16.542  1.00 87.27 LIG 0.16  HD
ATOM     26 21HE GLN C  14     -35.965  72.941  17.735  1.00 87.27 LIG 0.16  HD
ATOM     27 OE1  GLN C  14     -34.845  73.883  15.108  1.00 92.83 LIG-0.27  OA
ENDBRANCH 22 23
ENDBRANCH 21 22
ENDBRANCH 17 21
ENDBRANCH 15 17
ENDBRANCH 5 13
ENDBRANCH 3 5
BRANCH 1 28
ATOM     28  CA  TYR C  12     -34.556  65.889  17.084  1.00 72.08 LIG 0.18  C 
BRANCH 28 29
ATOM     29  CB  TYR C  12     -34.546  66.940  18.195  1.00 70.95 LIG 0.07  C 
BRANCH 29 30
ATOM     30  CG  TYR C  12     -33.181  67.198  18.790  1.00 83.06 LIG-0.06  A 
ATOM     31  CD1 TYR C  12     -32.204  67.875  18.071  1.00 86.94 LIG 0.01  A 
ATOM     32  CE1 TYR C  12     -30.955  68.115  18.612  1.00 80.65 LIG 0.04  A 
ATOM     33  CZ  TYR C  12     -30.671  67.681  19.890  1.00 81.62 LIG 0.07  A 
ATOM     34  CE2 TYR C  12     -31.626  67.009  20.626  1.00 86.89 LIG 0.04  A 
ATOM     35  CD2 TYR C  12     -32.871  66.772  20.076  1.00 81.98 LIG 0.01  A 
BRANCH 33 36
ATOM     36 OH   TYR C  12     -29.429  67.917  20.432  1.00 83.24 LIG-0.36  OA
ATOM     37 HH   TYR C  12     -28.844  67.534  19.968  1.00 83.24 LIG 0.22  HD
ENDBRANCH 33 36
ENDBRANCH 29 30
ENDBRANCH 28 29
BRANCH 28 38
ATOM     38  N   TYR C  12     -33.721  64.750  17.449  1.00 66.73 LIG-0.34  N 
ATOM     39  C   LEU C  11     -34.070  63.910  18.418  1.00 75.02 LIG 0.26  C 
ATOM     40 O    LEU C  11     -35.105  64.034  19.071  1.00 79.88 LIG-0.27  OA
ATOM     41 H    TYR C  12     -32.999  64.677  16.989  1.00 66.73 LIG 0.16  HD
BRANCH 39 42
ATOM     42  CA  LEU C  11     -33.110  62.758  18.694  1.00 79.60 LIG 0.40  C 
ATOM     43  N   LEU C  11     -33.171  62.339  20.090  1.00 85.33 LIG 0.61  N 
BRANCH 42 44
ATOM     44  CB  LEU C  11     -33.423  61.583  17.765  1.00 82.02 LIG 0.06  C 
BRANCH 44 45
ATOM     45  CG  LEU C  11     -32.267  60.634  17.437  1.00 84.03 LIG-0.02  C 
ATOM     46  CD1 LEU C  11     -31.913  60.709  15.961  1.00 79.83 LIG 0.01  C 
ATOM     47  CD2 LEU C  11     -31.053  60.950  18.297  1.00 84.62 LIG 0.01  C 
ENDBRANCH 44 45
ENDBRANCH 42 44
ENDBRANCH 39 42
ENDBRANCH 28 38
ENDBRANCH 1 28
TORSDOF 17
ENDMDL
MODEL 18
USER: ADFR SOLUTION from run 190
USER: SCORE 15.742442 LL:  -3.918 LR: -12.282 RR:   0.000 FEB:  -7.210
USER: RMSD 8.815455
USER: SEED 189
USER: STATUS no improvement in best in 16 clusters for 5 generations
USER: GENES 19
USER: genes 0 Translation |==|  0.65528 0.61016 0.51002
USER: genes 1 Rotation |==|  0.22794 0.90977 0.54829 0.57575
USER: genes 2 Torsion [C]-N--CA-[C] |==|  0.54513
USER: genes 3 Torsion [N]-CA--CB-[CG] |==|  0.73221
USER: genes 4 Torsion [CA]-CB--CG-[CD1] |==|  0.32561
USER: genes 5 Torsion [N]-CA--C-[N] |==|  0.46526
USER: genes 6 Torsion [C]-N--CA-[C] |==|  0.77845
USER: genes 7 Torsion [N]-CA--C-[O] |==|  0.97637
USER: genes 8 Torsion [N]-CA--CB-[CG] |==|  0.27231
USER: genes 9 Torsion [CA]-CB--CG-[CD] |==|  0.78019
USER: genes 10 Torsion [CB]-CG--CD-[OE1] |==|  0.00931
USER: genes 11 Torsion [N]-C--CA-[N] |==|  0.89636
USER: genes 12 Torsion [C]-CA--CB-[CG] |==|  0.83682
USER: genes 13 Torsion [CA]-CB--CG-[CD1] |==|  0.27240
USER: genes 14 Torsion [CE1]-CZ--OH-[HH] |==|  0.85021
USER: genes 15 Torsion [C]-CA--N-[C] |==|  0.71988
USER: genes 16 Torsion [N]-C--CA-[N] |==|  0.88162
USER: genes 17 Torsion [C]-CA--CB-[CG] |==|  0.04924
USER: genes 18 Torsion [CA]-CB--CG-[CD1] |==|  0.37796
ROOT
ATOM      1  C   TYR C  12     -34.351  71.100  14.147  1.00 66.29 LIG 0.24  C 
ATOM      2 O    TYR C  12     -34.845  71.284  13.034  1.00 72.73 LIG-0.27  OA
ATOM      3  N   PHE C  13     -34.241  69.894  14.698  1.00 62.12 LIG-0.35  N 
ATOM      4 H    PHE C  13     -33.924  69.749  15.484  1.00 62.12 LIG 0.16  HD
ENDROOT
BRANCH 3 5
ATOM      5  CA  PHE C  13     -34.665  68.693  13.984  1.00 61.15 LIG 0.18  C 
BRANCH 5 6
ATOM      6  CB  PHE C  13     -33.682  68.348  12.860  1.00 57.79 LIG 0.07  C 
BRANCH 6 7
ATOM      7  CG  PHE C  13     -34.094  68.858  11.504  1.00 55.93 LIG-0.06  A 
ATOM      8  CD1 PHE C  13     -33.314  69.785  10.829  1.00 55.40 LIG 0.01  A 
ATOM      9  CE1 PHE C  13     -33.687  70.249   9.579  1.00 55.08 LIG 0.00  A 
ATOM     10  CZ  PHE C  13     -34.845  69.784   8.988  1.00 53.84 LIG 0.00  A 
ATOM     11  CE2 PHE C  13     -35.623  68.853   9.646  1.00 62.38 LIG 0.00  A 
ATOM     12  CD2 PHE C  13     -35.248  68.395  10.897  1.00 55.52 LIG 0.01  A 
ENDBRANCH 6 7
ENDBRANCH 5 6
BRANCH 5 13
ATOM     13  C   PHE C  13     -34.816  67.515  14.938  1.00 64.85 LIG 0.24  C 
ATOM     14 O    PHE C  13     -34.382  67.574  16.088  1.00 62.65 LIG-0.27  OA
ATOM     15  N   GLN C  14     -35.440  66.446  14.452  1.00 69.96 LIG-0.34  N 
ATOM     16 H    GLN C  14     -35.719  66.384  13.641  1.00 69.96 LIG 0.16  HD
BRANCH 15 17
ATOM     17  CA  GLN C  14     -35.708  65.268  15.269  1.00 68.16 LIG 0.19  C 
BRANCH 17 18
ATOM     18  C   GLN C  14     -34.470  64.383  15.398  1.00 80.56 LIG 0.20  C 
ATOM     19 O    GLN C  14     -33.457  64.602  14.732  1.00 73.75 LIG-0.65  OA
ATOM     20 OXT  GLN C  14     -34.455  63.429  16.176  1.00 84.17 LIG-0.65  OA
ENDBRANCH 17 18
BRANCH 17 21
ATOM     21  CB  GLN C  14     -36.868  64.464  14.676  1.00 71.08 LIG 0.04  C 
BRANCH 21 22
ATOM     22  CG  GLN C  14     -36.434  63.282  13.824  1.00 84.90 LIG 0.10  C 
BRANCH 22 23
ATOM     23  CD  GLN C  14     -36.005  63.695  12.430  1.00 85.71 LIG 0.21  C 
ATOM     24  NE2 GLN C  14     -35.672  62.716  11.596  1.00 87.27 LIG-0.37  N 
ATOM     25 22HE GLN C  14     -35.420  62.900  10.796  1.00 87.27 LIG 0.16  HD
ATOM     26 21HE GLN C  14     -35.708  61.897  11.858  1.00 87.27 LIG 0.16  HD
ATOM     27 OE1  GLN C  14     -35.970  64.882  12.107  1.00 92.83 LIG-0.27  OA
ENDBRANCH 22 23
ENDBRANCH 21 22
ENDBRANCH 17 21
ENDBRANCH 15 17
ENDBRANCH 5 13
ENDBRANCH 3 5
BRANCH 1 28
ATOM     28  CA  TYR C  12     -33.837  72.277  14.968  1.00 72.08 LIG 0.18  C 
BRANCH 28 29
ATOM     29  CB  TYR C  12     -32.335  72.452  14.732  1.00 70.95 LIG 0.07  C 
BRANCH 29 30
ATOM     30  CG  TYR C  12     -31.507  71.240  15.090  1.00 83.06 LIG-0.06  A 
ATOM     31  CD1 TYR C  12     -31.101  70.338  14.113  1.00 86.94 LIG 0.01  A 
ATOM     32  CE1 TYR C  12     -30.342  69.229  14.436  1.00 80.65 LIG 0.04  A 
ATOM     33  CZ  TYR C  12     -29.975  69.012  15.747  1.00 81.62 LIG 0.07  A 
ATOM     34  CE2 TYR C  12     -30.364  69.895  16.734  1.00 86.89 LIG 0.04  A 
ATOM     35  CD2 TYR C  12     -31.124  71.000  16.403  1.00 81.98 LIG 0.01  A 
BRANCH 33 36
ATOM     36 OH   TYR C  12     -29.220  67.909  16.072  1.00 83.24 LIG-0.36  OA
ATOM     37 HH   TYR C  12     -29.598  67.216  15.784  1.00 83.24 LIG 0.22  HD
ENDBRANCH 33 36
ENDBRANCH 29 30
ENDBRANCH 28 29
BRANCH 28 38
ATOM     38  N   TYR C  12     -34.115  72.106  16.389  1.00 66.73 LIG-0.34  N 
ATOM     39  C   LEU C  11     -35.130  72.726  16.982  1.00 75.02 LIG 0.26  C 
ATOM     40 O    LEU C  11     -35.894  73.483  16.384  1.00 79.88 LIG-0.27  OA
ATOM     41 H    TYR C  12     -33.572  71.577  16.796  1.00 66.73 LIG 0.16  HD
BRANCH 39 42
ATOM     42  CA  LEU C  11     -35.314  72.453  18.471  1.00 79.60 LIG 0.40  C 
ATOM     43  N   LEU C  11     -35.134  71.039  18.778  1.00 85.33 LIG 0.61  N 
BRANCH 42 44
ATOM     44  CB  LEU C  11     -34.337  73.308  19.283  1.00 82.02 LIG 0.06  C 
BRANCH 44 45
ATOM     45  CG  LEU C  11     -33.712  74.509  18.569  1.00 84.03 LIG-0.02  C 
ATOM     46  CD1 LEU C  11     -33.720  75.733  19.471  1.00 79.83 LIG 0.01  C 
ATOM     47  CD2 LEU C  11     -32.296  74.186  18.116  1.00 84.62 LIG 0.01  C 
ENDBRANCH 44 45
ENDBRANCH 42 44
ENDBRANCH 39 42
ENDBRANCH 28 38
ENDBRANCH 1 28
TORSDOF 17
ENDMDL
MODEL 19
USER: ADFR SOLUTION from run 199
USER: SCORE 14.897600 LL:  -3.530 LR: -12.210 RR:   0.000 FEB:  -7.139
USER: RMSD 4.506767
USER: SEED 198
USER: STATUS no improvement in best in 12 clusters for 5 generations
USER: GENES 19
USER: genes 0 Translation |==|  0.53294 0.50244 0.59519
USER: genes 1 Rotation |==|  0.73729 0.51793 0.48048 0.93931
USER: genes 2 Torsion [C]-N--CA-[C] |==|  0.64403
USER: genes 3 Torsion [N]-CA--CB-[CG] |==|  0.22863
USER: genes 4 Torsion [CA]-CB--CG-[CD1] |==|  0.23571
USER: genes 5 Torsion [N]-CA--C-[N] |==|  0.37651
USER: genes 6 Torsion [C]-N--CA-[C] |==|  0.56909
USER: genes 7 Torsion [N]-CA--C-[O] |==|  0.05571
USER: genes 8 Torsion [N]-CA--CB-[CG] |==|  0.06492
USER: genes 9 Torsion [CA]-CB--CG-[CD] |==|  0.59870
USER: genes 10 Torsion [CB]-CG--CD-[OE1] |==|  0.21425
USER: genes 11 Torsion [N]-C--CA-[N] |==|  0.77222
USER: genes 12 Torsion [C]-CA--CB-[CG] |==|  0.18235
USER: genes 13 Torsion [CA]-CB--CG-[CD1] |==|  0.28818
USER: genes 14 Torsion [CE1]-CZ--OH-[HH] |==|  0.71405
USER: genes 15 Torsion [C]-CA--N-[C] |==|  0.61535
USER: genes 16 Torsion [N]-C--CA-[N] |==|  0.88177
USER: genes 17 Torsion [C]-CA--CB-[CG] |==|  0.04859
USER: genes 18 Torsion [CA]-CB--CG-[CD1] |==|  0.22268
ROOT
ATOM      1  C   TYR C  12     -37.104  69.080  15.553  1.00 66.29 LIG 0.24  C 
ATOM      2 O    TYR C  12     -36.612  68.495  16.518  1.00 72.73 LIG-0.27  OA
ATOM      3  N   PHE C  13     -36.384  69.482  14.509  1.00 62.12 LIG-0.35  N 
ATOM      4 H    PHE C  13     -36.706  69.915  13.838  1.00 62.12 LIG 0.16  HD
ENDROOT
BRANCH 3 5
ATOM      5  CA  PHE C  13     -34.953  69.210  14.424  1.00 61.15 LIG 0.18  C 
BRANCH 5 6
ATOM      6  CB  PHE C  13     -34.659  68.149  13.356  1.00 57.79 LIG 0.07  C 
BRANCH 6 7
ATOM      7  CG  PHE C  13     -34.589  68.692  11.954  1.00 55.93 LIG-0.06  A 
ATOM      8  CD1 PHE C  13     -33.413  69.236  11.462  1.00 55.40 LIG 0.01  A 
ATOM      9  CE1 PHE C  13     -33.345  69.728  10.169  1.00 55.08 LIG 0.00  A 
ATOM     10  CZ  PHE C  13     -34.456  69.675   9.352  1.00 53.84 LIG 0.00  A 
ATOM     11  CE2 PHE C  13     -35.629  69.125   9.827  1.00 62.38 LIG 0.00  A 
ATOM     12  CD2 PHE C  13     -35.694  68.638  11.120  1.00 55.52 LIG 0.01  A 
ENDBRANCH 6 7
ENDBRANCH 5 6
BRANCH 5 13
ATOM     13  C   PHE C  13     -34.170  70.485  14.137  1.00 64.85 LIG 0.24  C 
ATOM     14 O    PHE C  13     -34.558  71.285  13.286  1.00 62.65 LIG-0.27  OA
ATOM     15  N   GLN C  14     -33.068  70.668  14.858  1.00 69.96 LIG-0.34  N 
ATOM     16 H    GLN C  14     -32.772  70.100  15.432  1.00 69.96 LIG 0.16  HD
BRANCH 15 17
ATOM     17  CA  GLN C  14     -32.252  71.870  14.732  1.00 68.16 LIG 0.19  C 
BRANCH 17 18
ATOM     18  C   GLN C  14     -30.806  71.611  15.150  1.00 80.56 LIG 0.20  C 
ATOM     19 O    GLN C  14     -30.345  70.469  15.183  1.00 73.75 LIG-0.65  OA
ATOM     20 OXT  GLN C  14     -30.063  72.542  15.463  1.00 84.17 LIG-0.65  OA
ENDBRANCH 17 18
BRANCH 17 21
ATOM     21  CB  GLN C  14     -32.846  73.004  15.571  1.00 71.08 LIG 0.04  C 
BRANCH 21 22
ATOM     22  CG  GLN C  14     -33.726  72.534  16.717  1.00 84.90 LIG 0.10  C 
BRANCH 22 23
ATOM     23  CD  GLN C  14     -34.901  73.457  16.967  1.00 85.71 LIG 0.21  C 
ATOM     24  NE2 GLN C  14     -34.804  74.276  18.009  1.00 87.27 LIG-0.37  N 
ATOM     25 22HE GLN C  14     -35.446  74.817  18.192  1.00 87.27 LIG 0.16  HD
ATOM     26 21HE GLN C  14     -34.097  74.264  18.500  1.00 87.27 LIG 0.16  HD
ATOM     27 OE1  GLN C  14     -35.889  73.433  16.232  1.00 92.83 LIG-0.27  OA
ENDBRANCH 22 23
ENDBRANCH 21 22
ENDBRANCH 17 21
ENDBRANCH 15 17
ENDBRANCH 5 13
ENDBRANCH 3 5
BRANCH 1 28
ATOM     28  CA  TYR C  12     -38.598  69.382  15.513  1.00 72.08 LIG 0.18  C 
BRANCH 28 29
ATOM     29  CB  TYR C  12     -39.136  69.135  14.102  1.00 70.95 LIG 0.07  C 
BRANCH 29 30
ATOM     30  CG  TYR C  12     -39.084  67.691  13.663  1.00 83.06 LIG-0.06  A 
ATOM     31  CD1 TYR C  12     -40.232  66.908  13.641  1.00 86.94 LIG 0.01  A 
ATOM     32  CE1 TYR C  12     -40.188  65.586  13.237  1.00 80.65 LIG 0.04  A 
ATOM     33  CZ  TYR C  12     -38.987  65.033  12.846  1.00 81.62 LIG 0.07  A 
ATOM     34  CE2 TYR C  12     -37.834  65.791  12.857  1.00 86.89 LIG 0.04  A 
ATOM     35  CD2 TYR C  12     -37.887  67.110  13.263  1.00 81.98 LIG 0.01  A 
BRANCH 33 36
ATOM     36 OH   TYR C  12     -38.940  63.718  12.445  1.00 83.24 LIG-0.36  OA
ATOM     37 HH   TYR C  12     -38.619  63.248  13.062  1.00 83.24 LIG 0.22  HD
ENDBRANCH 33 36
ENDBRANCH 29 30
ENDBRANCH 28 29
BRANCH 28 38
ATOM     38  N   TYR C  12     -38.882  70.748  15.938  1.00 66.73 LIG-0.34  N 
ATOM     39  C   LEU C  11     -39.911  71.034  16.729  1.00 75.02 LIG 0.26  C 
ATOM     40 O    LEU C  11     -40.690  70.180  17.150  1.00 79.88 LIG-0.27  OA
ATOM     41 H    TYR C  12     -38.333  71.336  15.634  1.00 66.73 LIG 0.16  HD
BRANCH 39 42
ATOM     42  CA  LEU C  11     -40.090  72.502  17.102  1.00 79.60 LIG 0.40  C 
ATOM     43  N   LEU C  11     -38.813  73.126  17.427  1.00 85.33 LIG 0.61  N 
BRANCH 42 44
ATOM     44  CB  LEU C  11     -40.781  73.251  15.961  1.00 82.02 LIG 0.06  C 
BRANCH 44 45
ATOM     45  CG  LEU C  11     -41.510  72.401  14.917  1.00 84.03 LIG-0.02  C 
ATOM     46  CD1 LEU C  11     -42.876  71.975  15.430  1.00 79.83 LIG 0.01  C 
ATOM     47  CD2 LEU C  11     -41.641  73.159  13.604  1.00 84.62 LIG 0.01  C 
ENDBRANCH 44 45
ENDBRANCH 42 44
ENDBRANCH 39 42
ENDBRANCH 28 38
ENDBRANCH 1 28
TORSDOF 17
ENDMDL
MODEL 20
USER: ADFR SOLUTION from run 60
USER: SCORE 15.244061 LL:  -3.597 LR: -12.172 RR:   0.000 FEB:  -7.100
USER: RMSD 4.339962
USER: SEED 59
USER: STATUS no improvement in best in 3 clusters for 5 generations
USER: GENES 19
USER: genes 0 Translation |==|  0.58040 0.40439 0.50792
USER: genes 1 Rotation |==|  0.91629 0.55603 0.56934 0.76221
USER: genes 2 Torsion [C]-N--CA-[C] |==|  0.52222
USER: genes 3 Torsion [N]-CA--CB-[CG] |==|  0.16319
USER: genes 4 Torsion [CA]-CB--CG-[CD1] |==|  0.28833
USER: genes 5 Torsion [N]-CA--C-[N] |==|  0.39714
USER: genes 6 Torsion [C]-N--CA-[C] |==|  0.61603
USER: genes 7 Torsion [N]-CA--C-[O] |==|  0.42049
USER: genes 8 Torsion [N]-CA--CB-[CG] |==|  0.87398
USER: genes 9 Torsion [CA]-CB--CG-[CD] |==|  0.72526
USER: genes 10 Torsion [CB]-CG--CD-[OE1] |==|  0.10358
USER: genes 11 Torsion [N]-C--CA-[N] |==|  0.91194
USER: genes 12 Torsion [C]-CA--CB-[CG] |==|  0.43847
USER: genes 13 Torsion [CA]-CB--CG-[CD1] |==|  0.27290
USER: genes 14 Torsion [CE1]-CZ--OH-[HH] |==|  0.22333
USER: genes 15 Torsion [C]-CA--N-[C] |==|  0.79993
USER: genes 16 Torsion [N]-C--CA-[N] |==|  0.49507
USER: genes 17 Torsion [C]-CA--CB-[CG] |==|  0.40286
USER: genes 18 Torsion [CA]-CB--CG-[CD1] |==|  0.88400
ROOT
ATOM      1  C   TYR C  12     -36.036  67.241  14.113  1.00 66.29 LIG 0.24  C 
ATOM      2 O    TYR C  12     -35.268  66.284  14.219  1.00 72.73 LIG-0.27  OA
ATOM      3  N   PHE C  13     -35.615  68.501  14.051  1.00 62.12 LIG-0.35  N 
ATOM      4 H    PHE C  13     -36.137  69.184  14.004  1.00 62.12 LIG 0.16  HD
ENDROOT
BRANCH 3 5
ATOM      5  CA  PHE C  13     -34.192  68.826  14.059  1.00 61.15 LIG 0.18  C 
BRANCH 5 6
ATOM      6  CB  PHE C  13     -33.499  68.284  12.803  1.00 57.79 LIG 0.07  C 
BRANCH 6 7
ATOM      7  CG  PHE C  13     -34.068  68.807  11.512  1.00 55.93 LIG-0.06  A 
ATOM      8  CD1 PHE C  13     -33.402  69.784  10.787  1.00 55.40 LIG 0.01  A 
ATOM      9  CE1 PHE C  13     -33.920  70.261   9.595  1.00 55.08 LIG 0.00  A 
ATOM     10  CZ  PHE C  13     -35.112  69.759   9.112  1.00 53.84 LIG 0.00  A 
ATOM     11  CE2 PHE C  13     -35.779  68.778   9.818  1.00 62.38 LIG 0.00  A 
ATOM     12  CD2 PHE C  13     -35.259  68.307  11.011  1.00 55.52 LIG 0.01  A 
ENDBRANCH 6 7
ENDBRANCH 5 6
BRANCH 5 13
ATOM     13  C   PHE C  13     -33.975  70.330  14.178  1.00 64.85 LIG 0.24  C 
ATOM     14 O    PHE C  13     -34.731  71.122  13.617  1.00 62.65 LIG-0.27  OA
ATOM     15  N   GLN C  14     -32.939  70.713  14.918  1.00 69.96 LIG-0.34  N 
ATOM     16 H    GLN C  14     -32.388  70.167  15.288  1.00 69.96 LIG 0.16  HD
BRANCH 15 17
ATOM     17  CA  GLN C  14     -32.645  72.120  15.168  1.00 68.16 LIG 0.19  C 
BRANCH 17 18
ATOM     18  C   GLN C  14     -31.148  72.405  15.072  1.00 80.56 LIG 0.20  C 
ATOM     19 O    GLN C  14     -30.730  73.513  14.732  1.00 73.75 LIG-0.65  OA
ATOM     20 OXT  GLN C  14     -30.321  71.531  15.333  1.00 84.17 LIG-0.65  OA
ENDBRANCH 17 18
BRANCH 17 21
ATOM     21  CB  GLN C  14     -33.171  72.534  16.545  1.00 71.08 LIG 0.04  C 
BRANCH 21 22
ATOM     22  CG  GLN C  14     -34.581  72.051  16.844  1.00 84.90 LIG 0.10  C 
BRANCH 22 23
ATOM     23  CD  GLN C  14     -35.627  73.121  16.607  1.00 85.71 LIG 0.21  C 
ATOM     24  NE2 GLN C  14     -36.647  73.153  17.457  1.00 87.27 LIG-0.37  N 
ATOM     25 22HE GLN C  14     -37.267  73.741  17.362  1.00 87.27 LIG 0.16  HD
ATOM     26 21HE GLN C  14     -36.688  72.586  18.102  1.00 87.27 LIG 0.16  HD
ATOM     27 OE1  GLN C  14     -35.521  73.909  15.667  1.00 92.83 LIG-0.27  OA
ENDBRANCH 22 23
ENDBRANCH 21 22
ENDBRANCH 17 21
ENDBRANCH 15 17
ENDBRANCH 5 13
ENDBRANCH 3 5
BRANCH 1 28
ATOM     28  CA  TYR C  12     -37.543  67.018  14.053  1.00 72.08 LIG 0.18  C 
BRANCH 28 29
ATOM     29  CB  TYR C  12     -37.978  66.820  12.600  1.00 70.95 LIG 0.07  C 
BRANCH 29 30
ATOM     30  CG  TYR C  12     -39.290  66.089  12.440  1.00 83.06 LIG-0.06  A 
ATOM     31  CD1 TYR C  12     -40.474  66.784  12.228  1.00 86.94 LIG 0.01  A 
ATOM     32  CE1 TYR C  12     -41.677  66.119  12.079  1.00 80.65 LIG 0.04  A 
ATOM     33  CZ  TYR C  12     -41.705  64.741  12.138  1.00 81.62 LIG 0.07  A 
ATOM     34  CE2 TYR C  12     -40.542  64.029  12.346  1.00 86.89 LIG 0.04  A 
ATOM     35  CD2 TYR C  12     -39.345  64.702  12.495  1.00 81.98 LIG 0.01  A 
BRANCH 33 36
ATOM     36 OH   TYR C  12     -42.900  64.075  11.991  1.00 83.24 LIG-0.36  OA
ATOM     37 HH   TYR C  12     -43.092  64.020  11.176  1.00 83.24 LIG 0.22  HD
ENDBRANCH 33 36
ENDBRANCH 29 30
ENDBRANCH 28 29
BRANCH 28 38
ATOM     38  N   TYR C  12     -38.275  68.125  14.660  1.00 66.73 LIG-0.34  N 
ATOM     39  C   LEU C  11     -38.288  68.317  15.975  1.00 75.02 LIG 0.26  C 
ATOM     40 O    LEU C  11     -37.696  67.581  16.765  1.00 79.88 LIG-0.27  OA
ATOM     41 H    TYR C  12     -38.687  68.628  14.098  1.00 66.73 LIG 0.16  HD
BRANCH 39 42
ATOM     42  CA  LEU C  11     -39.086  69.515  16.477  1.00 79.60 LIG 0.40  C 
ATOM     43  N   LEU C  11     -39.061  69.597  17.933  1.00 85.33 LIG 0.61  N 
BRANCH 42 44
ATOM     44  CB  LEU C  11     -38.542  70.803  15.855  1.00 82.02 LIG 0.06  C 
BRANCH 44 45
ATOM     45  CG  LEU C  11     -39.562  71.899  15.532  1.00 84.03 LIG-0.02  C 
ATOM     46  CD1 LEU C  11     -40.819  71.299  14.924  1.00 79.83 LIG 0.01  C 
ATOM     47  CD2 LEU C  11     -39.899  72.702  16.779  1.00 84.62 LIG 0.01  C 
ENDBRANCH 44 45
ENDBRANCH 42 44
ENDBRANCH 39 42
ENDBRANCH 28 38
ENDBRANCH 1 28
TORSDOF 17
ENDMDL
MODEL 21
USER: ADFR SOLUTION from run 190
USER: SCORE 14.791150 LL:  -3.582 LR: -12.109 RR:   0.000 FEB:  -7.038
USER: RMSD 6.302439
USER: SEED 189
USER: STATUS no improvement in best in 16 clusters for 5 generations
USER: GENES 19
USER: genes 0 Translation |==|  0.60805 0.53780 0.53939
USER: genes 1 Rotation |==|  0.18444 0.15007 0.56051 0.65591
USER: genes 2 Torsion [C]-N--CA-[C] |==|  0.80002
USER: genes 3 Torsion [N]-CA--CB-[CG] |==|  0.34303
USER: genes 4 Torsion [CA]-CB--CG-[CD1] |==|  0.21370
USER: genes 5 Torsion [N]-CA--C-[N] |==|  0.88261
USER: genes 6 Torsion [C]-N--CA-[C] |==|  0.63074
USER: genes 7 Torsion [N]-CA--C-[O] |==|  0.29477
USER: genes 8 Torsion [N]-CA--CB-[CG] |==|  0.61947
USER: genes 9 Torsion [CA]-CB--CG-[CD] |==|  0.79825
USER: genes 10 Torsion [CB]-CG--CD-[OE1] |==|  0.30064
USER: genes 11 Torsion [N]-C--CA-[N] |==|  0.32321
USER: genes 12 Torsion [C]-CA--CB-[CG] |==|  0.83273
USER: genes 13 Torsion [CA]-CB--CG-[CD1] |==|  0.84775
USER: genes 14 Torsion [CE1]-CZ--OH-[HH] |==|  0.25038
USER: genes 15 Torsion [C]-CA--N-[C] |==|  0.50556
USER: genes 16 Torsion [N]-C--CA-[N] |==|  0.51153
USER: genes 17 Torsion [C]-CA--CB-[CG] |==|  0.25752
USER: genes 18 Torsion [CA]-CB--CG-[CD1] |==|  0.71142
ROOT
ATOM      1  C   TYR C  12     -35.414  69.743  14.632  1.00 66.29 LIG 0.24  C 
ATOM      2 O    TYR C  12     -35.593  70.463  13.649  1.00 72.73 LIG-0.27  OA
ATOM      3  N   PHE C  13     -35.361  70.216  15.874  1.00 62.12 LIG-0.35  N 
ATOM      4 H    PHE C  13     -35.210  69.733  16.569  1.00 62.12 LIG 0.16  HD
ENDROOT
BRANCH 3 5
ATOM      5  CA  PHE C  13     -35.561  71.635  16.153  1.00 61.15 LIG 0.18  C 
BRANCH 5 6
ATOM      6  CB  PHE C  13     -35.824  71.867  17.646  1.00 57.79 LIG 0.07  C 
BRANCH 6 7
ATOM      7  CG  PHE C  13     -34.866  72.829  18.297  1.00 55.93 LIG-0.06  A 
ATOM      8  CD1 PHE C  13     -34.995  74.196  18.106  1.00 55.40 LIG 0.01  A 
ATOM      9  CE1 PHE C  13     -34.120  75.082  18.710  1.00 55.08 LIG 0.00  A 
ATOM     10  CZ  PHE C  13     -33.107  74.608  19.520  1.00 53.84 LIG 0.00  A 
ATOM     11  CE2 PHE C  13     -32.976  73.249  19.727  1.00 62.38 LIG 0.00  A 
ATOM     12  CD2 PHE C  13     -33.851  72.367  19.117  1.00 55.52 LIG 0.01  A 
ENDBRANCH 6 7
ENDBRANCH 5 6
BRANCH 5 13
ATOM     13  C   PHE C  13     -34.365  72.457  15.690  1.00 64.85 LIG 0.24  C 
ATOM     14 O    PHE C  13     -34.524  73.534  15.117  1.00 62.65 LIG-0.27  OA
ATOM     15  N   GLN C  14     -33.167  71.941  15.949  1.00 69.96 LIG-0.34  N 
ATOM     16 H    GLN C  14     -33.046  71.176  16.321  1.00 69.96 LIG 0.16  HD
BRANCH 15 17
ATOM     17  CA  GLN C  14     -31.933  72.645  15.616  1.00 68.16 LIG 0.19  C 
BRANCH 17 18
ATOM     18  C   GLN C  14     -30.937  71.727  14.912  1.00 80.56 LIG 0.20  C 
ATOM     19 O    GLN C  14     -30.721  71.826  13.703  1.00 73.75 LIG-0.65  OA
ATOM     20 OXT  GLN C  14     -30.322  70.863  15.540  1.00 84.17 LIG-0.65  OA
ENDBRANCH 17 18
BRANCH 17 21
ATOM     21  CB  GLN C  14     -31.302  73.235  16.880  1.00 71.08 LIG 0.04  C 
BRANCH 21 22
ATOM     22  CG  GLN C  14     -30.776  74.651  16.710  1.00 84.90 LIG 0.10  C 
BRANCH 22 23
ATOM     23  CD  GLN C  14     -29.510  74.707  15.879  1.00 85.71 LIG 0.21  C 
ATOM     24  NE2 GLN C  14     -28.403  74.245  16.449  1.00 87.27 LIG-0.37  N 
ATOM     25 22HE GLN C  14     -27.660  74.258  16.018  1.00 87.27 LIG 0.16  HD
ATOM     26 21HE GLN C  14     -28.431  73.933  17.251  1.00 87.27 LIG 0.16  HD
ATOM     27 OE1  GLN C  14     -29.527  75.165  14.736  1.00 92.83 LIG-0.27  OA
ENDBRANCH 22 23
ENDBRANCH 21 22
ENDBRANCH 17 21
ENDBRANCH 15 17
ENDBRANCH 5 13
ENDBRANCH 3 5
BRANCH 1 28
ATOM     28  CA  TYR C  12     -35.233  68.238  14.463  1.00 72.08 LIG 0.18  C 
BRANCH 28 29
ATOM     29  CB  TYR C  12     -34.027  67.962  13.564  1.00 70.95 LIG 0.07  C 
BRANCH 29 30
ATOM     30  CG  TYR C  12     -34.143  68.545  12.175  1.00 83.06 LIG-0.06  A 
ATOM     31  CD1 TYR C  12     -35.236  68.254  11.367  1.00 86.94 LIG 0.01  A 
ATOM     32  CE1 TYR C  12     -35.348  68.788  10.096  1.00 80.65 LIG 0.04  A 
ATOM     33  CZ  TYR C  12     -34.362  69.627   9.621  1.00 81.62 LIG 0.07  A 
ATOM     34  CE2 TYR C  12     -33.269  69.933  10.406  1.00 86.89 LIG 0.04  A 
ATOM     35  CD2 TYR C  12     -33.165  69.394  11.673  1.00 81.98 LIG 0.01  A 
BRANCH 33 36
ATOM     36 OH   TYR C  12     -34.469  70.159   8.357  1.00 83.24 LIG-0.36  OA
ATOM     37 HH   TYR C  12     -34.878  70.892   8.395  1.00 83.24 LIG 0.22  HD
ENDBRANCH 33 36
ENDBRANCH 29 30
ENDBRANCH 28 29
BRANCH 28 38
ATOM     38  N   TYR C  12     -36.432  67.610  13.919  1.00 66.73 LIG-0.34  N 
ATOM     39  C   LEU C  11     -36.507  66.297  13.728  1.00 75.02 LIG 0.26  C 
ATOM     40 O    LEU C  11     -35.581  65.528  13.988  1.00 79.88 LIG-0.27  OA
ATOM     41 H    TYR C  12     -37.069  68.158  13.738  1.00 66.73 LIG 0.16  HD
BRANCH 39 42
ATOM     42  CA  LEU C  11     -37.819  65.769  13.159  1.00 79.60 LIG 0.40  C 
ATOM     43  N   LEU C  11     -37.818  64.312  13.086  1.00 85.33 LIG 0.61  N 
BRANCH 42 44
ATOM     44  CB  LEU C  11     -38.993  66.264  14.008  1.00 82.02 LIG 0.06  C 
BRANCH 44 45
ATOM     45  CG  LEU C  11     -39.668  67.564  13.562  1.00 84.03 LIG-0.02  C 
ATOM     46  CD1 LEU C  11     -39.248  68.720  14.456  1.00 79.83 LIG 0.01  C 
ATOM     47  CD2 LEU C  11     -39.344  67.865  12.107  1.00 84.62 LIG 0.01  C 
ENDBRANCH 44 45
ENDBRANCH 42 44
ENDBRANCH 39 42
ENDBRANCH 28 38
ENDBRANCH 1 28
TORSDOF 17
ENDMDL
MODEL 22
USER: ADFR SOLUTION from run 113
USER: SCORE 14.955587 LL:  -3.483 LR: -12.093 RR:   0.000 FEB:  -7.022
USER: RMSD 6.933230
USER: SEED 112
USER: STATUS no improvement in best in 14 clusters for 5 generations
USER: GENES 19
USER: genes 0 Translation |==|  0.62282 0.52124 0.54113
USER: genes 1 Rotation |==|  0.22328 0.15109 0.60045 0.70395
USER: genes 2 Torsion [C]-N--CA-[C] |==|  0.67782
USER: genes 3 Torsion [N]-CA--CB-[CG] |==|  0.69505
USER: genes 4 Torsion [CA]-CB--CG-[CD1] |==|  0.14818
USER: genes 5 Torsion [N]-CA--C-[N] |==|  0.04613
USER: genes 6 Torsion [C]-N--CA-[C] |==|  0.69526
USER: genes 7 Torsion [N]-CA--C-[O] |==|  0.35988
USER: genes 8 Torsion [N]-CA--CB-[CG] |==|  0.02221
USER: genes 9 Torsion [CA]-CB--CG-[CD] |==|  0.33746
USER: genes 10 Torsion [CB]-CG--CD-[OE1] |==|  0.12569
USER: genes 11 Torsion [N]-C--CA-[N] |==|  0.11264
USER: genes 12 Torsion [C]-CA--CB-[CG] |==|  0.17966
USER: genes 13 Torsion [CA]-CB--CG-[CD1] |==|  0.05302
USER: genes 14 Torsion [CE1]-CZ--OH-[HH] |==|  0.58296
USER: genes 15 Torsion [C]-CA--N-[C] |==|  0.59845
USER: genes 16 Torsion [N]-C--CA-[N] |==|  0.37139
USER: genes 17 Torsion [C]-CA--CB-[CG] |==|  0.05881
USER: genes 18 Torsion [CA]-CB--CG-[CD1] |==|  0.22013
ROOT
ATOM      1  C   TYR C  12     -35.082  69.432  14.661  1.00 66.29 LIG 0.24  C 
ATOM      2 O    TYR C  12     -35.595  70.159  13.809  1.00 72.73 LIG-0.27  OA
ATOM      3  N   PHE C  13     -34.771  69.859  15.882  1.00 62.12 LIG-0.35  N 
ATOM      4 H    PHE C  13     -34.388  69.373  16.480  1.00 62.12 LIG 0.16  HD
ENDROOT
BRANCH 3 5
ATOM      5  CA  PHE C  13     -35.067  71.223  16.306  1.00 61.15 LIG 0.18  C 
BRANCH 5 6
ATOM      6  CB  PHE C  13     -35.988  71.229  17.532  1.00 57.79 LIG 0.07  C 
BRANCH 6 7
ATOM      7  CG  PHE C  13     -37.385  71.713  17.250  1.00 55.93 LIG-0.06  A 
ATOM      8  CD1 PHE C  13     -38.141  71.146  16.234  1.00 55.40 LIG 0.01  A 
ATOM      9  CE1 PHE C  13     -39.429  71.585  15.979  1.00 55.08 LIG 0.00  A 
ATOM     10  CZ  PHE C  13     -39.978  72.595  16.743  1.00 53.84 LIG 0.00  A 
ATOM     11  CE2 PHE C  13     -39.239  73.159  17.764  1.00 62.38 LIG 0.00  A 
ATOM     12  CD2 PHE C  13     -37.951  72.720  18.013  1.00 55.52 LIG 0.01  A 
ENDBRANCH 6 7
ENDBRANCH 5 6
BRANCH 5 13
ATOM     13  C   PHE C  13     -33.786  71.994  16.600  1.00 64.85 LIG 0.24  C 
ATOM     14 O    PHE C  13     -33.813  73.037  17.253  1.00 62.65 LIG-0.27  OA
ATOM     15  N   GLN C  14     -32.664  71.469  16.117  1.00 69.96 LIG-0.34  N 
ATOM     16 H    GLN C  14     -32.639  70.758  15.633  1.00 69.96 LIG 0.16  HD
BRANCH 15 17
ATOM     17  CA  GLN C  14     -31.358  72.066  16.370  1.00 68.16 LIG 0.19  C 
BRANCH 17 18
ATOM     18  C   GLN C  14     -30.775  72.695  15.107  1.00 80.56 LIG 0.20  C 
ATOM     19 O    GLN C  14     -30.345  73.850  15.108  1.00 73.75 LIG-0.65  OA
ATOM     20 OXT  GLN C  14     -30.720  72.060  14.053  1.00 84.17 LIG-0.65  OA
ENDBRANCH 17 18
BRANCH 17 21
ATOM     21  CB  GLN C  14     -30.394  71.016  16.927  1.00 71.08 LIG 0.04  C 
BRANCH 21 22
ATOM     22  CG  GLN C  14     -30.939  69.597  16.903  1.00 84.90 LIG 0.10  C 
BRANCH 22 23
ATOM     23  CD  GLN C  14     -30.069  68.651  16.100  1.00 85.71 LIG 0.21  C 
ATOM     24  NE2 GLN C  14     -30.697  67.832  15.263  1.00 87.27 LIG-0.37  N 
ATOM     25 22HE GLN C  14     -30.246  67.276  14.788  1.00 87.27 LIG 0.16  HD
ATOM     26 21HE GLN C  14     -31.554  67.858  15.198  1.00 87.27 LIG 0.16  HD
ATOM     27 OE1  GLN C  14     -28.845  68.655  16.232  1.00 92.83 LIG-0.27  OA
ENDBRANCH 22 23
ENDBRANCH 21 22
ENDBRANCH 17 21
ENDBRANCH 15 17
ENDBRANCH 5 13
ENDBRANCH 3 5
BRANCH 1 28
ATOM     28  CA  TYR C  12     -34.765  67.975  14.342  1.00 72.08 LIG 0.18  C 
BRANCH 28 29
ATOM     29  CB  TYR C  12     -35.536  67.541  13.094  1.00 70.95 LIG 0.07  C 
BRANCH 29 30
ATOM     30  CG  TYR C  12     -35.132  68.268  11.833  1.00 83.06 LIG-0.06  A 
ATOM     31  CD1 TYR C  12     -33.914  68.931  11.749  1.00 86.94 LIG 0.01  A 
ATOM     32  CE1 TYR C  12     -33.539  69.596  10.596  1.00 80.65 LIG 0.04  A 
ATOM     33  CZ  TYR C  12     -34.383  69.598   9.506  1.00 81.62 LIG 0.07  A 
ATOM     34  CE2 TYR C  12     -35.597  68.943   9.563  1.00 86.89 LIG 0.04  A 
ATOM     35  CD2 TYR C  12     -35.964  68.284  10.720  1.00 81.98 LIG 0.01  A 
BRANCH 33 36
ATOM     36 OH   TYR C  12     -34.014  70.258   8.357  1.00 83.24 LIG-0.36  OA
ATOM     37 HH   TYR C  12     -34.700  70.534   7.960  1.00 83.24 LIG 0.22  HD
ENDBRANCH 33 36
ENDBRANCH 29 30
ENDBRANCH 28 29
BRANCH 28 38
ATOM     38  N   TYR C  12     -35.076  67.099  15.466  1.00 66.73 LIG-0.34  N 
ATOM     39  C   LEU C  11     -34.333  66.033  15.747  1.00 75.02 LIG 0.26  C 
ATOM     40 O    LEU C  11     -33.347  65.710  15.085  1.00 79.88 LIG-0.27  OA
ATOM     41 H    TYR C  12     -35.769  67.333  15.917  1.00 66.73 LIG 0.16  HD
BRANCH 39 42
ATOM     42  CA  LEU C  11     -34.765  65.206  16.953  1.00 79.60 LIG 0.40  C 
ATOM     43  N   LEU C  11     -34.768  63.780  16.645  1.00 85.33 LIG 0.61  N 
BRANCH 42 44
ATOM     44  CB  LEU C  11     -33.847  65.498  18.143  1.00 82.02 LIG 0.06  C 
BRANCH 44 45
ATOM     45  CG  LEU C  11     -33.072  66.818  18.110  1.00 84.03 LIG-0.02  C 
ATOM     46  CD1 LEU C  11     -33.966  67.975  18.523  1.00 79.83 LIG 0.01  C 
ATOM     47  CD2 LEU C  11     -31.845  66.741  19.005  1.00 84.62 LIG 0.01  C 
ENDBRANCH 44 45
ENDBRANCH 42 44
ENDBRANCH 39 42
ENDBRANCH 28 38
ENDBRANCH 1 28
TORSDOF 17
ENDMDL
MODEL 23
USER: ADFR SOLUTION from run 23
USER: SCORE 15.446740 LL:  -3.460 LR: -12.082 RR:   0.000 FEB:  -7.011
USER: RMSD 7.324861
USER: SEED 22
USER: STATUS no improvement in best in 14 clusters for 5 generations
USER: GENES 19
USER: genes 0 Translation |==|  0.65999 0.32407 0.55095
USER: genes 1 Rotation |==|  0.80928 0.78044 0.59651 0.75765
USER: genes 2 Torsion [C]-N--CA-[C] |==|  0.77825
USER: genes 3 Torsion [N]-CA--CB-[CG] |==|  0.62557
USER: genes 4 Torsion [CA]-CB--CG-[CD1] |==|  0.85529
USER: genes 5 Torsion [N]-CA--C-[N] |==|  0.42823
USER: genes 6 Torsion [C]-N--CA-[C] |==|  0.47915
USER: genes 7 Torsion [N]-CA--C-[O] |==|  0.90603
USER: genes 8 Torsion [N]-CA--CB-[CG] |==|  0.30733
USER: genes 9 Torsion [CA]-CB--CG-[CD] |==|  0.74623
USER: genes 10 Torsion [CB]-CG--CD-[OE1] |==|  0.57438
USER: genes 11 Torsion [N]-C--CA-[N] |==|  0.44870
USER: genes 12 Torsion [C]-CA--CB-[CG] |==|  0.80966
USER: genes 13 Torsion [CA]-CB--CG-[CD1] |==|  0.72234
USER: genes 14 Torsion [CE1]-CZ--OH-[HH] |==|  0.96081
USER: genes 15 Torsion [C]-CA--N-[C] |==|  0.78274
USER: genes 16 Torsion [N]-C--CA-[N] |==|  0.29549
USER: genes 17 Torsion [C]-CA--CB-[CG] |==|  0.22815
USER: genes 18 Torsion [CA]-CB--CG-[CD1] |==|  0.24187
ROOT
ATOM      1  C   TYR C  12     -34.245  65.735  14.823  1.00 66.29 LIG 0.24  C 
ATOM      2 O    TYR C  12     -33.017  65.756  14.732  1.00 72.73 LIG-0.27  OA
ATOM      3  N   PHE C  13     -35.017  66.737  14.410  1.00 62.12 LIG-0.35  N 
ATOM      4 H    PHE C  13     -35.873  66.751  14.489  1.00 62.12 LIG 0.16  HD
ENDROOT
BRANCH 3 5
ATOM      5  CA  PHE C  13     -34.446  67.920  13.773  1.00 61.15 LIG 0.18  C 
BRANCH 5 6
ATOM      6  CB  PHE C  13     -35.490  68.631  12.904  1.00 57.79 LIG 0.07  C 
BRANCH 6 7
ATOM      7  CG  PHE C  13     -34.984  69.044  11.547  1.00 55.93 LIG-0.06  A 
ATOM      8  CD1 PHE C  13     -33.818  69.784  11.421  1.00 55.40 LIG 0.01  A 
ATOM      9  CE1 PHE C  13     -33.347  70.157  10.174  1.00 55.08 LIG 0.00  A 
ATOM     10  CZ  PHE C  13     -34.036  69.787   9.037  1.00 53.84 LIG 0.00  A 
ATOM     11  CE2 PHE C  13     -35.191  69.040   9.150  1.00 62.38 LIG 0.00  A 
ATOM     12  CD2 PHE C  13     -35.661  68.673  10.398  1.00 55.52 LIG 0.01  A 
ENDBRANCH 6 7
ENDBRANCH 5 6
BRANCH 5 13
ATOM     13  C   PHE C  13     -33.877  68.879  14.811  1.00 64.85 LIG 0.24  C 
ATOM     14 O    PHE C  13     -34.307  68.889  15.964  1.00 62.65 LIG-0.27  OA
ATOM     15  N   GLN C  14     -32.902  69.680  14.393  1.00 69.96 LIG-0.34  N 
ATOM     16 H    GLN C  14     -32.616  69.702  13.582  1.00 69.96 LIG 0.16  HD
BRANCH 15 17
ATOM     17  CA  GLN C  14     -32.223  70.607  15.292  1.00 68.16 LIG 0.19  C 
BRANCH 17 18
ATOM     18  C   GLN C  14     -31.029  71.273  14.611  1.00 80.56 LIG 0.20  C 
ATOM     19 O    GLN C  14     -30.350  70.669  13.778  1.00 73.75 LIG-0.65  OA
ATOM     20 OXT  GLN C  14     -30.717  72.433  14.879  1.00 84.17 LIG-0.65  OA
ENDBRANCH 17 18
BRANCH 17 21
ATOM     21  CB  GLN C  14     -31.766  69.878  16.558  1.00 71.08 LIG 0.04  C 
BRANCH 21 22
ATOM     22  CG  GLN C  14     -30.258  69.721  16.675  1.00 84.90 LIG 0.10  C 
BRANCH 22 23
ATOM     23  CD  GLN C  14     -29.759  68.423  16.074  1.00 85.71 LIG 0.21  C 
ATOM     24  NE2 GLN C  14     -30.496  67.896  15.103  1.00 87.27 LIG-0.37  N 
ATOM     25 22HE GLN C  14     -30.254  67.159  14.732  1.00 87.27 LIG 0.16  HD
ATOM     26 21HE GLN C  14     -31.215  68.291  14.846  1.00 87.27 LIG 0.16  HD
ATOM     27 OE1  GLN C  14     -28.722  67.899  16.480  1.00 92.83 LIG-0.27  OA
ENDBRANCH 22 23
ENDBRANCH 21 22
ENDBRANCH 17 21
ENDBRANCH 15 17
ENDBRANCH 5 13
ENDBRANCH 3 5
BRANCH 1 28
ATOM     28  CA  TYR C  12     -34.953  64.532  15.434  1.00 72.08 LIG 0.18  C 
BRANCH 28 29
ATOM     29  CB  TYR C  12     -35.420  64.873  16.851  1.00 70.95 LIG 0.07  C 
BRANCH 29 30
ATOM     30  CG  TYR C  12     -34.298  65.056  17.845  1.00 83.06 LIG-0.06  A 
ATOM     31  CD1 TYR C  12     -33.949  64.038  18.725  1.00 86.94 LIG 0.01  A 
ATOM     32  CE1 TYR C  12     -32.921  64.200  19.635  1.00 80.65 LIG 0.04  A 
ATOM     33  CZ  TYR C  12     -32.224  65.389  19.670  1.00 81.62 LIG 0.07  A 
ATOM     34  CE2 TYR C  12     -32.549  66.414  18.805  1.00 86.89 LIG 0.04  A 
ATOM     35  CD2 TYR C  12     -33.579  66.244  17.901  1.00 81.98 LIG 0.01  A 
BRANCH 33 36
ATOM     36 OH   TYR C  12     -31.201  65.554  20.575  1.00 83.24 LIG-0.36  OA
ATOM     37 HH   TYR C  12     -31.238  64.948  21.154  1.00 83.24 LIG 0.22  HD
ENDBRANCH 33 36
ENDBRANCH 29 30
ENDBRANCH 28 29
BRANCH 28 38
ATOM     38  N   TYR C  12     -34.095  63.352  15.449  1.00 66.73 LIG-0.34  N 
ATOM     39  C   LEU C  11     -33.891  62.623  14.357  1.00 75.02 LIG 0.26  C 
ATOM     40 O    LEU C  11     -34.409  62.883  13.271  1.00 79.88 LIG-0.27  OA
ATOM     41 H    TYR C  12     -33.742  63.179  16.214  1.00 66.73 LIG 0.16  HD
BRANCH 39 42
ATOM     42  CA  LEU C  11     -32.966  61.420  14.509  1.00 79.60 LIG 0.40  C 
ATOM     43  N   LEU C  11     -33.716  60.169  14.500  1.00 85.33 LIG 0.61  N 
BRANCH 42 44
ATOM     44  CB  LEU C  11     -31.915  61.425  13.396  1.00 82.02 LIG 0.06  C 
BRANCH 44 45
ATOM     45  CG  LEU C  11     -30.690  62.318  13.607  1.00 84.03 LIG-0.02  C 
ATOM     46  CD1 LEU C  11     -29.611  61.575  14.378  1.00 79.83 LIG 0.01  C 
ATOM     47  CD2 LEU C  11     -30.151  62.814  12.274  1.00 84.62 LIG 0.01  C 
ENDBRANCH 44 45
ENDBRANCH 42 44
ENDBRANCH 39 42
ENDBRANCH 28 38
ENDBRANCH 1 28
TORSDOF 17
ENDMDL
MODEL 24
USER: ADFR SOLUTION from run 102
USER: SCORE 13.748477 LL:  -2.957 LR: -12.079 RR:   0.000 FEB:  -7.008
USER: RMSD 1.553391
USER: SEED 101
USER: STATUS no improvement in best in 4 clusters for 5 generations
USER: GENES 19
USER: genes 0 Translation |==|  0.54539 0.50670 0.53006
USER: genes 1 Rotation |==|  0.14166 0.49389 0.48119 0.84814
USER: genes 2 Torsion [C]-N--CA-[C] |==|  0.10440
USER: genes 3 Torsion [N]-CA--CB-[CG] |==|  0.14718
USER: genes 4 Torsion [CA]-CB--CG-[CD1] |==|  0.25803
USER: genes 5 Torsion [N]-CA--C-[N] |==|  0.58889
USER: genes 6 Torsion [C]-N--CA-[C] |==|  0.46746
USER: genes 7 Torsion [N]-CA--C-[O] |==|  0.89772
USER: genes 8 Torsion [N]-CA--CB-[CG] |==|  0.62728
USER: genes 9 Torsion [CA]-CB--CG-[CD] |==|  0.23245
USER: genes 10 Torsion [CB]-CG--CD-[OE1] |==|  0.71028
USER: genes 11 Torsion [N]-C--CA-[N] |==|  0.88452
USER: genes 12 Torsion [C]-CA--CB-[CG] |==|  0.30388
USER: genes 13 Torsion [CA]-CB--CG-[CD1] |==|  0.73261
USER: genes 14 Torsion [CE1]-CZ--OH-[HH] |==|  0.98365
USER: genes 15 Torsion [C]-CA--N-[C] |==|  0.75203
USER: genes 16 Torsion [N]-C--CA-[N] |==|  0.89789
USER: genes 17 Torsion [C]-CA--CB-[CG] |==|  0.24926
USER: genes 18 Torsion [CA]-CB--CG-[CD1] |==|  0.30987
ROOT
ATOM      1  C   TYR C  12     -36.824  69.160  14.478  1.00 66.29 LIG 0.24  C 
ATOM      2 O    TYR C  12     -36.337  70.158  13.946  1.00 72.73 LIG-0.27  OA
ATOM      3  N   PHE C  13     -36.093  68.261  15.132  1.00 62.12 LIG-0.35  N 
ATOM      4 H    PHE C  13     -36.412  67.544  15.486  1.00 62.12 LIG 0.16  HD
ENDROOT
BRANCH 3 5
ATOM      5  CA  PHE C  13     -34.654  68.431  15.300  1.00 61.15 LIG 0.18  C 
BRANCH 5 6
ATOM      6  CB  PHE C  13     -33.892  67.886  14.086  1.00 57.79 LIG 0.07  C 
BRANCH 6 7
ATOM      7  CG  PHE C  13     -34.363  68.435  12.766  1.00 55.93 LIG-0.06  A 
ATOM      8  CD1 PHE C  13     -33.761  69.552  12.207  1.00 55.40 LIG 0.01  A 
ATOM      9  CE1 PHE C  13     -34.188  70.054  10.990  1.00 55.08 LIG 0.00  A 
ATOM     10  CZ  PHE C  13     -35.222  69.437  10.314  1.00 53.84 LIG 0.00  A 
ATOM     11  CE2 PHE C  13     -35.822  68.318  10.855  1.00 62.38 LIG 0.00  A 
ATOM     12  CD2 PHE C  13     -35.394  67.822  12.074  1.00 55.52 LIG 0.01  A 
ENDBRANCH 6 7
ENDBRANCH 5 6
BRANCH 5 13
ATOM     13  C   PHE C  13     -34.300  69.895  15.535  1.00 64.85 LIG 0.24  C 
ATOM     14 O    PHE C  13     -35.075  70.643  16.131  1.00 62.65 LIG-0.27  OA
ATOM     15  N   GLN C  14     -33.122  70.294  15.066  1.00 69.96 LIG-0.34  N 
ATOM     16 H    GLN C  14     -32.588  69.787  14.622  1.00 69.96 LIG 0.16  HD
BRANCH 15 17
ATOM     17  CA  GLN C  14     -32.627  71.651  15.270  1.00 68.16 LIG 0.19  C 
BRANCH 17 18
ATOM     18  C   GLN C  14     -31.152  71.771  14.893  1.00 80.56 LIG 0.20  C 
ATOM     19 O    GLN C  14     -30.359  70.855  15.119  1.00 73.75 LIG-0.65  OA
ATOM     20 OXT  GLN C  14     -30.720  72.789  14.351  1.00 84.17 LIG-0.65  OA
ENDBRANCH 17 18
BRANCH 17 21
ATOM     21  CB  GLN C  14     -32.834  72.078  16.725  1.00 71.08 LIG 0.04  C 
BRANCH 21 22
ATOM     22  CG  GLN C  14     -33.417  73.472  16.887  1.00 84.90 LIG 0.10  C 
BRANCH 22 23
ATOM     23  CD  GLN C  14     -34.927  73.490  16.771  1.00 85.71 LIG 0.21  C 
ATOM     24  NE2 GLN C  14     -35.610  73.035  17.815  1.00 87.27 LIG-0.37  N 
ATOM     25 22HE GLN C  14     -36.469  73.023  17.796  1.00 87.27 LIG 0.16  HD
ATOM     26 21HE GLN C  14     -35.192  72.751  18.512  1.00 87.27 LIG 0.16  HD
ATOM     27 OE1  GLN C  14     -35.476  73.907  15.750  1.00 92.83 LIG-0.27  OA
ENDBRANCH 22 23
ENDBRANCH 21 22
ENDBRANCH 17 21
ENDBRANCH 15 17
ENDBRANCH 5 13
ENDBRANCH 3 5
BRANCH 1 28
ATOM     28  CA  TYR C  12     -38.324  68.900  14.402  1.00 72.08 LIG 0.18  C 
BRANCH 28 29
ATOM     29  CB  TYR C  12     -38.993  69.355  15.700  1.00 70.95 LIG 0.07  C 
BRANCH 29 30
ATOM     30  CG  TYR C  12     -39.849  70.591  15.555  1.00 83.06 LIG-0.06  A 
ATOM     31  CD1 TYR C  12     -39.345  71.850  15.857  1.00 86.94 LIG 0.01  A 
ATOM     32  CE1 TYR C  12     -40.125  72.984  15.723  1.00 80.65 LIG 0.04  A 
ATOM     33  CZ  TYR C  12     -41.425  72.868  15.278  1.00 81.62 LIG 0.07  A 
ATOM     34  CE2 TYR C  12     -41.947  71.629  14.968  1.00 86.89 LIG 0.04  A 
ATOM     35  CD2 TYR C  12     -41.162  70.501  15.107  1.00 81.98 LIG 0.01  A 
BRANCH 33 36
ATOM     36 OH   TYR C  12     -42.204  73.994  15.144  1.00 83.24 LIG-0.36  OA
ATOM     37 HH   TYR C  12     -41.788  74.659  15.442  1.00 83.24 LIG 0.22  HD
ENDBRANCH 33 36
ENDBRANCH 29 30
ENDBRANCH 28 29
BRANCH 28 38
ATOM     38  N   TYR C  12     -38.614  67.494  14.143  1.00 66.73 LIG-0.34  N 
ATOM     39  C   LEU C  11     -38.717  67.017  12.907  1.00 75.02 LIG 0.26  C 
ATOM     40 O    LEU C  11     -38.582  67.719  11.905  1.00 79.88 LIG-0.27  OA
ATOM     41 H    TYR C  12     -38.710  67.015  14.851  1.00 66.73 LIG 0.16  HD
BRANCH 39 42
ATOM     42  CA  LEU C  11     -39.016  65.528  12.778  1.00 79.60 LIG 0.40  C 
ATOM     43  N   LEU C  11     -38.335  64.758  13.813  1.00 85.33 LIG 0.61  N 
BRANCH 42 44
ATOM     44  CB  LEU C  11     -40.527  65.291  12.837  1.00 82.02 LIG 0.06  C 
BRANCH 44 45
ATOM     45  CG  LEU C  11     -41.285  65.323  11.508  1.00 84.03 LIG-0.02  C 
ATOM     46  CD1 LEU C  11     -41.800  63.938  11.150  1.00 79.83 LIG 0.01  C 
ATOM     47  CD2 LEU C  11     -42.430  66.323  11.566  1.00 84.62 LIG 0.01  C 
ENDBRANCH 44 45
ENDBRANCH 42 44
ENDBRANCH 39 42
ENDBRANCH 28 38
ENDBRANCH 1 28
TORSDOF 17
ENDMDL
MODEL 25
USER: ADFR SOLUTION from run 76
USER: SCORE 15.646493 LL:  -3.834 LR: -12.064 RR:   0.000 FEB:  -6.993
USER: RMSD 3.000904
USER: SEED 75
USER: STATUS no improvement in best in 4 clusters for 5 generations
USER: GENES 19
USER: genes 0 Translation |==|  0.52748 0.50793 0.56558
USER: genes 1 Rotation |==|  0.54341 0.52723 0.51095 0.99725
USER: genes 2 Torsion [C]-N--CA-[C] |==|  0.79294
USER: genes 3 Torsion [N]-CA--CB-[CG] |==|  0.21524
USER: genes 4 Torsion [CA]-CB--CG-[CD1] |==|  0.75924
USER: genes 5 Torsion [N]-CA--C-[N] |==|  0.37851
USER: genes 6 Torsion [C]-N--CA-[C] |==|  0.64920
USER: genes 7 Torsion [N]-CA--C-[O] |==|  0.92354
USER: genes 8 Torsion [N]-CA--CB-[CG] |==|  0.90919
USER: genes 9 Torsion [CA]-CB--CG-[CD] |==|  0.71536
USER: genes 10 Torsion [CB]-CG--CD-[OE1] |==|  0.07921
USER: genes 11 Torsion [N]-C--CA-[N] |==|  0.38759
USER: genes 12 Torsion [C]-CA--CB-[CG] |==|  0.73455
USER: genes 13 Torsion [CA]-CB--CG-[CD1] |==|  0.12078
USER: genes 14 Torsion [CE1]-CZ--OH-[HH] |==|  0.13843
USER: genes 15 Torsion [C]-CA--N-[C] |==|  0.60557
USER: genes 16 Torsion [N]-C--CA-[N] |==|  0.96643
USER: genes 17 Torsion [C]-CA--CB-[CG] |==|  0.88331
USER: genes 18 Torsion [CA]-CB--CG-[CD1] |==|  0.30080
ROOT
ATOM      1  C   TYR C  12     -37.227  69.183  15.064  1.00 66.29 LIG 0.24  C 
ATOM      2 O    TYR C  12     -36.719  69.555  16.123  1.00 72.73 LIG-0.27  OA
ATOM      3  N   PHE C  13     -36.506  68.812  14.009  1.00 62.12 LIG-0.35  N 
ATOM      4 H    PHE C  13     -36.843  68.575  13.253  1.00 62.12 LIG 0.16  HD
ENDROOT
BRANCH 3 5
ATOM      5  CA  PHE C  13     -35.048  68.780  14.060  1.00 61.15 LIG 0.18  C 
BRANCH 5 6
ATOM      6  CB  PHE C  13     -34.478  67.928  12.920  1.00 57.79 LIG 0.07  C 
BRANCH 6 7
ATOM      7  CG  PHE C  13     -34.475  68.615  11.581  1.00 55.93 LIG-0.06  A 
ATOM      8  CD1 PHE C  13     -35.588  68.567  10.756  1.00 55.40 LIG 0.01  A 
ATOM      9  CE1 PHE C  13     -35.589  69.205   9.527  1.00 55.08 LIG 0.00  A 
ATOM     10  CZ  PHE C  13     -34.474  69.906   9.113  1.00 53.84 LIG 0.00  A 
ATOM     11  CE2 PHE C  13     -33.364  69.971   9.931  1.00 62.38 LIG 0.00  A 
ATOM     12  CD2 PHE C  13     -33.366  69.328  11.156  1.00 55.52 LIG 0.01  A 
ENDBRANCH 6 7
ENDBRANCH 5 6
BRANCH 5 13
ATOM     13  C   PHE C  13     -34.469  70.189  14.012  1.00 64.85 LIG 0.24  C 
ATOM     14 O    PHE C  13     -34.912  71.026  13.227  1.00 62.65 LIG-0.27  OA
ATOM     15  N   GLN C  14     -33.477  70.442  14.860  1.00 69.96 LIG-0.34  N 
ATOM     16 H    GLN C  14     -33.140  69.854  15.390  1.00 69.96 LIG 0.16  HD
BRANCH 15 17
ATOM     17  CA  GLN C  14     -32.867  71.762  14.966  1.00 68.16 LIG 0.19  C 
BRANCH 17 18
ATOM     18  C   GLN C  14     -31.351  71.693  14.797  1.00 80.56 LIG 0.20  C 
ATOM     19 O    GLN C  14     -30.721  70.676  15.093  1.00 73.75 LIG-0.65  OA
ATOM     20 OXT  GLN C  14     -30.720  72.655  14.357  1.00 84.17 LIG-0.65  OA
ENDBRANCH 17 18
BRANCH 17 21
ATOM     21  CB  GLN C  14     -33.216  72.402  16.312  1.00 71.08 LIG 0.04  C 
BRANCH 21 22
ATOM     22  CG  GLN C  14     -34.589  72.022  16.843  1.00 84.90 LIG 0.10  C 
BRANCH 22 23
ATOM     23  CD  GLN C  14     -35.616  73.117  16.640  1.00 85.71 LIG 0.21  C 
ATOM     24  NE2 GLN C  14     -36.613  73.168  17.517  1.00 87.27 LIG-0.37  N 
ATOM     25 22HE GLN C  14     -37.221  73.770  17.443  1.00 87.27 LIG 0.16  HD
ATOM     26 21HE GLN C  14     -36.649  72.597  18.160  1.00 87.27 LIG 0.16  HD
ATOM     27 OE1  GLN C  14     -35.517  73.909  15.703  1.00 92.83 LIG-0.27  OA
ENDBRANCH 22 23
ENDBRANCH 21 22
ENDBRANCH 17 21
ENDBRANCH 15 17
ENDBRANCH 5 13
ENDBRANCH 3 5
BRANCH 1 28
ATOM     28  CA  TYR C  12     -38.743  69.136  14.910  1.00 72.08 LIG 0.18  C 
BRANCH 28 29
ATOM     29  CB  TYR C  12     -39.269  70.532  14.567  1.00 70.95 LIG 0.07  C 
BRANCH 29 30
ATOM     30  CG  TYR C  12     -39.751  71.322  15.761  1.00 83.06 LIG-0.06  A 
ATOM     31  CD1 TYR C  12     -39.023  71.343  16.945  1.00 86.94 LIG 0.01  A 
ATOM     32  CE1 TYR C  12     -39.460  72.067  18.040  1.00 80.65 LIG 0.04  A 
ATOM     33  CZ  TYR C  12     -40.634  72.784  17.957  1.00 81.62 LIG 0.07  A 
ATOM     34  CE2 TYR C  12     -41.373  72.781  16.792  1.00 86.89 LIG 0.04  A 
ATOM     35  CD2 TYR C  12     -40.930  72.054  15.704  1.00 81.98 LIG 0.01  A 
BRANCH 33 36
ATOM     36 OH   TYR C  12     -41.072  73.505  19.044  1.00 83.24 LIG-0.36  OA
ATOM     37 HH   TYR C  12     -40.444  73.981  19.336  1.00 83.24 LIG 0.22  HD
ENDBRANCH 33 36
ENDBRANCH 29 30
ENDBRANCH 28 29
BRANCH 28 38
ATOM     38  N   TYR C  12     -39.391  68.626  16.113  1.00 66.73 LIG-0.34  N 
ATOM     39  C   LEU C  11     -40.452  67.829  16.051  1.00 75.02 LIG 0.26  C 
ATOM     40 O    LEU C  11     -40.960  67.472  14.988  1.00 79.88 LIG-0.27  OA
ATOM     41 H    TYR C  12     -39.029  68.886  16.849  1.00 66.73 LIG 0.16  HD
BRANCH 39 42
ATOM     42  CA  LEU C  11     -41.028  67.362  17.383  1.00 79.60 LIG 0.40  C 
ATOM     43  N   LEU C  11     -40.122  67.661  18.486  1.00 85.33 LIG 0.61  N 
BRANCH 42 44
ATOM     44  CB  LEU C  11     -42.394  68.010  17.618  1.00 82.02 LIG 0.06  C 
BRANCH 44 45
ATOM     45  CG  LEU C  11     -42.527  69.492  17.258  1.00 84.03 LIG-0.02  C 
ATOM     46  CD1 LEU C  11     -43.376  69.667  16.010  1.00 79.83 LIG 0.01  C 
ATOM     47  CD2 LEU C  11     -43.115  70.276  18.422  1.00 84.62 LIG 0.01  C 
ENDBRANCH 44 45
ENDBRANCH 42 44
ENDBRANCH 39 42
ENDBRANCH 28 38
ENDBRANCH 1 28
TORSDOF 17
ENDMDL
MODEL 26
USER: ADFR SOLUTION from run 6
USER: SCORE 15.202667 LL:  -4.339 LR: -12.050 RR:   0.000 FEB:  -6.979
USER: RMSD 6.181794
USER: SEED 220115
USER: STATUS no improvement in best in 12 clusters for 5 generations
USER: GENES 19
USER: genes 0 Translation |==|  0.68612 0.37093 0.59116
USER: genes 1 Rotation |==|  0.82127 0.80556 0.40235 0.70948
USER: genes 2 Torsion [C]-N--CA-[C] |==|  0.62144
USER: genes 3 Torsion [N]-CA--CB-[CG] |==|  0.52409
USER: genes 4 Torsion [CA]-CB--CG-[CD1] |==|  0.01017
USER: genes 5 Torsion [N]-CA--C-[N] |==|  0.19402
USER: genes 6 Torsion [C]-N--CA-[C] |==|  0.59793
USER: genes 7 Torsion [N]-CA--C-[O] |==|  0.38926
USER: genes 8 Torsion [N]-CA--CB-[CG] |==|  0.84375
USER: genes 9 Torsion [CA]-CB--CG-[CD] |==|  0.73801
USER: genes 10 Torsion [CB]-CG--CD-[OE1] |==|  0.09899
USER: genes 11 Torsion [N]-C--CA-[N] |==|  0.76946
USER: genes 12 Torsion [C]-CA--CB-[CG] |==|  0.77953
USER: genes 13 Torsion [CA]-CB--CG-[CD1] |==|  0.29809
USER: genes 14 Torsion [CE1]-CZ--OH-[HH] |==|  0.58520
USER: genes 15 Torsion [C]-CA--N-[C] |==|  0.61884
USER: genes 16 Torsion [N]-C--CA-[N] |==|  0.56500
USER: genes 17 Torsion [C]-CA--CB-[CG] |==|  0.85669
USER: genes 18 Torsion [CA]-CB--CG-[CD1] |==|  0.33023
ROOT
ATOM      1  C   TYR C  12     -33.657  66.614  15.486  1.00 66.29 LIG 0.24  C 
ATOM      2 O    TYR C  12     -32.809  66.123  14.741  1.00 72.73 LIG-0.27  OA
ATOM      3  N   PHE C  13     -34.292  67.750  15.208  1.00 62.12 LIG-0.35  N 
ATOM      4 H    PHE C  13     -34.868  68.121  15.729  1.00 62.12 LIG 0.16  HD
ENDROOT
BRANCH 3 5
ATOM      5  CA  PHE C  13     -34.048  68.468  13.962  1.00 61.15 LIG 0.18  C 
BRANCH 5 6
ATOM      6  CB  PHE C  13     -35.162  68.193  12.944  1.00 57.79 LIG 0.07  C 
BRANCH 6 7
ATOM      7  CG  PHE C  13     -34.882  68.730  11.565  1.00 55.93 LIG-0.06  A 
ATOM      8  CD1 PHE C  13     -33.671  69.341  11.275  1.00 55.40 LIG 0.01  A 
ATOM      9  CE1 PHE C  13     -33.409  69.828  10.006  1.00 55.08 LIG 0.00  A 
ATOM     10  CZ  PHE C  13     -34.356  69.703   9.010  1.00 53.84 LIG 0.00  A 
ATOM     11  CE2 PHE C  13     -35.561  69.086   9.284  1.00 62.38 LIG 0.00  A 
ATOM     12  CD2 PHE C  13     -35.820  68.604  10.555  1.00 55.52 LIG 0.01  A 
ENDBRANCH 6 7
ENDBRANCH 5 6
BRANCH 5 13
ATOM     13  C   PHE C  13     -33.914  69.966  14.211  1.00 64.85 LIG 0.24  C 
ATOM     14 O    PHE C  13     -34.786  70.748  13.833  1.00 62.65 LIG-0.27  OA
ATOM     15  N   GLN C  14     -32.818  70.355  14.854  1.00 69.96 LIG-0.34  N 
ATOM     16 H    GLN C  14     -32.189  69.819  15.094  1.00 69.96 LIG 0.16  HD
BRANCH 15 17
ATOM     17  CA  GLN C  14     -32.585  71.749  15.213  1.00 68.16 LIG 0.19  C 
BRANCH 17 18
ATOM     18  C   GLN C  14     -31.105  72.112  15.117  1.00 80.56 LIG 0.20  C 
ATOM     19 O    GLN C  14     -30.742  73.200  14.665  1.00 73.75 LIG-0.65  OA
ATOM     20 OXT  GLN C  14     -30.236  71.324  15.491  1.00 84.17 LIG-0.65  OA
ENDBRANCH 17 18
BRANCH 17 21
ATOM     21  CB  GLN C  14     -33.102  72.026  16.627  1.00 71.08 LIG 0.04  C 
BRANCH 21 22
ATOM     22  CG  GLN C  14     -34.570  71.688  16.829  1.00 84.90 LIG 0.10  C 
BRANCH 22 23
ATOM     23  CD  GLN C  14     -35.478  72.884  16.625  1.00 85.71 LIG 0.21  C 
ATOM     24  NE2 GLN C  14     -36.548  72.959  17.408  1.00 87.27 LIG-0.37  N 
ATOM     25 22HE GLN C  14     -37.094  73.618  17.328  1.00 87.27 LIG 0.16  HD
ATOM     26 21HE GLN C  14     -36.696  72.347  17.995  1.00 87.27 LIG 0.16  HD
ATOM     27 OE1  GLN C  14     -35.220  73.732  15.770  1.00 92.83 LIG-0.27  OA
ENDBRANCH 22 23
ENDBRANCH 21 22
ENDBRANCH 17 21
ENDBRANCH 15 17
ENDBRANCH 5 13
ENDBRANCH 3 5
BRANCH 1 28
ATOM     28  CA  TYR C  12     -34.023  65.928  16.798  1.00 72.08 LIG 0.18  C 
BRANCH 28 29
ATOM     29  CB  TYR C  12     -35.532  66.026  17.028  1.00 70.95 LIG 0.07  C 
BRANCH 29 30
ATOM     30  CG  TYR C  12     -35.991  67.362  17.563  1.00 83.06 LIG-0.06  A 
ATOM     31  CD1 TYR C  12     -36.681  68.257  16.755  1.00 86.94 LIG 0.01  A 
ATOM     32  CE1 TYR C  12     -37.104  69.480  17.242  1.00 80.65 LIG 0.04  A 
ATOM     33  CZ  TYR C  12     -36.844  69.819  18.553  1.00 81.62 LIG 0.07  A 
ATOM     34  CE2 TYR C  12     -36.163  68.945  19.376  1.00 86.89 LIG 0.04  A 
ATOM     35  CD2 TYR C  12     -35.742  67.726  18.881  1.00 81.98 LIG 0.01  A 
BRANCH 33 36
ATOM     36 OH   TYR C  12     -37.263  71.035  19.041  1.00 83.24 LIG-0.36  OA
ATOM     37 HH   TYR C  12     -36.730  71.297  19.635  1.00 83.24 LIG 0.22  HD
ENDBRANCH 33 36
ENDBRANCH 29 30
ENDBRANCH 28 29
BRANCH 28 38
ATOM     38  N   TYR C  12     -33.295  66.499  17.925  1.00 66.73 LIG-0.34  N 
ATOM     39  C   LEU C  11     -32.759  65.735  18.871  1.00 75.02 LIG 0.26  C 
ATOM     40 O    LEU C  11     -32.841  64.507  18.866  1.00 79.88 LIG-0.27  OA
ATOM     41 H    TYR C  12     -33.248  67.358  17.919  1.00 66.73 LIG 0.16  HD
BRANCH 39 42
ATOM     42  CA  LEU C  11     -32.019  66.460  19.990  1.00 79.60 LIG 0.40  C 
ATOM     43  N   LEU C  11     -31.042  65.588  20.632  1.00 85.33 LIG 0.61  N 
BRANCH 42 44
ATOM     44  CB  LEU C  11     -31.340  67.716  19.439  1.00 82.02 LIG 0.06  C 
BRANCH 44 45
ATOM     45  CG  LEU C  11     -30.454  67.537  18.204  1.00 84.03 LIG-0.02  C 
ATOM     46  CD1 LEU C  11     -30.985  68.356  17.039  1.00 79.83 LIG 0.01  C 
ATOM     47  CD2 LEU C  11     -29.015  67.919  18.516  1.00 84.62 LIG 0.01  C 
ENDBRANCH 44 45
ENDBRANCH 42 44
ENDBRANCH 39 42
ENDBRANCH 28 38
ENDBRANCH 1 28
TORSDOF 17
ENDMDL
MODEL 27
USER: ADFR SOLUTION from run 200
USER: SCORE 13.434208 LL:  -2.824 LR: -12.026 RR:   0.000 FEB:  -6.955
USER: RMSD 8.762945
USER: SEED 199
USER: STATUS no improvement in best in 15 clusters for 5 generations
USER: GENES 19
USER: genes 0 Translation |==|  0.68178 0.59580 0.53839
USER: genes 1 Rotation |==|  0.19502 0.86652 0.64103 0.55255
USER: genes 2 Torsion [C]-N--CA-[C] |==|  0.55556
USER: genes 3 Torsion [N]-CA--CB-[CG] |==|  0.69723
USER: genes 4 Torsion [CA]-CB--CG-[CD1] |==|  0.87218
USER: genes 5 Torsion [N]-CA--C-[N] |==|  0.22252
USER: genes 6 Torsion [C]-N--CA-[C] |==|  0.76054
USER: genes 7 Torsion [N]-CA--C-[O] |==|  0.22235
USER: genes 8 Torsion [N]-CA--CB-[CG] |==|  0.67926
USER: genes 9 Torsion [CA]-CB--CG-[CD] |==|  0.79654
USER: genes 10 Torsion [CB]-CG--CD-[OE1] |==|  0.02014
USER: genes 11 Torsion [N]-C--CA-[N] |==|  0.72484
USER: genes 12 Torsion [C]-CA--CB-[CG] |==|  0.38745
USER: genes 13 Torsion [CA]-CB--CG-[CD1] |==|  0.86104
USER: genes 14 Torsion [CE1]-CZ--OH-[HH] |==|  0.15396
USER: genes 15 Torsion [C]-CA--N-[C] |==|  0.72418
USER: genes 16 Torsion [N]-C--CA-[N] |==|  0.85147
USER: genes 17 Torsion [C]-CA--CB-[CG] |==|  0.01680
USER: genes 18 Torsion [CA]-CB--CG-[CD1] |==|  0.23795
ROOT
ATOM      1  C   TYR C  12     -33.755  70.830  14.615  1.00 66.29 LIG 0.24  C 
ATOM      2 O    TYR C  12     -34.556  71.095  13.719  1.00 72.73 LIG-0.27  OA
ATOM      3  N   PHE C  13     -33.227  69.620  14.778  1.00 62.12 LIG-0.35  N 
ATOM      4 H    PHE C  13     -32.687  69.410  15.414  1.00 62.12 LIG 0.16  HD
ENDROOT
BRANCH 3 5
ATOM      5  CA  PHE C  13     -33.537  68.529  13.860  1.00 61.15 LIG 0.18  C 
BRANCH 5 6
ATOM      6  CB  PHE C  13     -32.764  68.683  12.545  1.00 57.79 LIG 0.07  C 
BRANCH 6 7
ATOM      7  CG  PHE C  13     -33.623  69.063  11.368  1.00 55.93 LIG-0.06  A 
ATOM      8  CD1 PHE C  13     -34.825  68.415  11.129  1.00 55.40 LIG 0.01  A 
ATOM      9  CE1 PHE C  13     -35.619  68.770  10.051  1.00 55.08 LIG 0.00  A 
ATOM     10  CZ  PHE C  13     -35.220  69.783   9.204  1.00 53.84 LIG 0.00  A 
ATOM     11  CE2 PHE C  13     -34.031  70.443   9.439  1.00 62.38 LIG 0.00  A 
ATOM     12  CD2 PHE C  13     -33.238  70.083  10.514  1.00 55.52 LIG 0.01  A 
ENDBRANCH 6 7
ENDBRANCH 5 6
BRANCH 5 13
ATOM     13  C   PHE C  13     -33.238  67.177  14.497  1.00 64.85 LIG 0.24  C 
ATOM     14 O    PHE C  13     -32.196  66.575  14.239  1.00 62.65 LIG-0.27  OA
ATOM     15  N   GLN C  14     -34.158  66.710  15.335  1.00 69.96 LIG-0.34  N 
ATOM     16 H    GLN C  14     -34.903  67.109  15.498  1.00 69.96 LIG 0.16  HD
BRANCH 15 17
ATOM     17  CA  GLN C  14     -33.979  65.458  16.062  1.00 68.16 LIG 0.19  C 
BRANCH 17 18
ATOM     18  C   GLN C  14     -34.438  64.260  15.235  1.00 80.56 LIG 0.20  C 
ATOM     19 O    GLN C  14     -33.720  63.778  14.357  1.00 73.75 LIG-0.65  OA
ATOM     20 OXT  GLN C  14     -35.539  63.744  15.427  1.00 84.17 LIG-0.65  OA
ENDBRANCH 17 18
BRANCH 17 21
ATOM     21  CB  GLN C  14     -34.740  65.502  17.390  1.00 71.08 LIG 0.04  C 
BRANCH 21 22
ATOM     22  CG  GLN C  14     -33.849  65.441  18.620  1.00 84.90 LIG 0.10  C 
BRANCH 22 23
ATOM     23  CD  GLN C  14     -33.267  64.062  18.851  1.00 85.71 LIG 0.21  C 
ATOM     24  NE2 GLN C  14     -32.595  63.882  19.982  1.00 87.27 LIG-0.37  N 
ATOM     25 22HE GLN C  14     -32.244  63.117  20.157  1.00 87.27 LIG 0.16  HD
ATOM     26 21HE GLN C  14     -32.511  64.531  20.540  1.00 87.27 LIG 0.16  HD
ATOM     27 OE1  GLN C  14     -33.417  63.167  18.018  1.00 92.83 LIG-0.27  OA
ENDBRANCH 22 23
ENDBRANCH 21 22
ENDBRANCH 17 21
ENDBRANCH 15 17
ENDBRANCH 5 13
ENDBRANCH 3 5
BRANCH 1 28
ATOM     28  CA  TYR C  12     -33.327  71.904  15.609  1.00 72.08 LIG 0.18  C 
BRANCH 28 29
ATOM     29  CB  TYR C  12     -31.968  71.539  16.210  1.00 70.95 LIG 0.07  C 
BRANCH 29 30
ATOM     30  CG  TYR C  12     -31.027  72.709  16.372  1.00 83.06 LIG-0.06  A 
ATOM     31  CD1 TYR C  12     -30.783  73.581  15.318  1.00 86.94 LIG 0.01  A 
ATOM     32  CE1 TYR C  12     -29.925  74.656  15.462  1.00 80.65 LIG 0.04  A 
ATOM     33  CZ  TYR C  12     -29.302  74.871  16.673  1.00 81.62 LIG 0.07  A 
ATOM     34  CE2 TYR C  12     -29.530  74.021  17.736  1.00 86.89 LIG 0.04  A 
ATOM     35  CD2 TYR C  12     -30.388  72.949  17.582  1.00 81.98 LIG 0.01  A 
BRANCH 33 36
ATOM     36 OH   TYR C  12     -28.446  75.939  16.821  1.00 83.24 LIG-0.36  OA
ATOM     37 HH   TYR C  12     -28.845  76.648  16.614  1.00 83.24 LIG 0.22  HD
ENDBRANCH 33 36
ENDBRANCH 29 30
ENDBRANCH 28 29
BRANCH 28 38
ATOM     38  N   TYR C  12     -34.318  72.089  16.663  1.00 66.73 LIG-0.34  N 
ATOM     39  C   LEU C  11     -35.201  73.082  16.625  1.00 75.02 LIG 0.26  C 
ATOM     40 O    LEU C  11     -35.241  73.909  15.715  1.00 79.88 LIG-0.27  OA
ATOM     41 H    TYR C  12     -34.278  71.508  17.295  1.00 66.73 LIG 0.16  HD
BRANCH 39 42
ATOM     42  CA  LEU C  11     -36.186  73.157  17.786  1.00 79.60 LIG 0.40  C 
ATOM     43  N   LEU C  11     -36.884  71.889  17.972  1.00 85.33 LIG 0.61  N 
BRANCH 42 44
ATOM     44  CB  LEU C  11     -35.454  73.561  19.068  1.00 82.02 LIG 0.06  C 
BRANCH 44 45
ATOM     45  CG  LEU C  11     -33.978  73.942  18.931  1.00 84.03 LIG-0.02  C 
ATOM     46  CD1 LEU C  11     -33.835  75.409  18.561  1.00 79.83 LIG 0.01  C 
ATOM     47  CD2 LEU C  11     -33.223  73.636  20.215  1.00 84.62 LIG 0.01  C 
ENDBRANCH 44 45
ENDBRANCH 42 44
ENDBRANCH 39 42
ENDBRANCH 28 38
ENDBRANCH 1 28
TORSDOF 17
ENDMDL
MODEL 28
USER: ADFR SOLUTION from run 30
USER: SCORE 14.676638 LL:  -3.013 LR: -12.010 RR:   0.000 FEB:  -6.939
USER: RMSD 6.165461
USER: SEED 29
USER: STATUS no improvement in best in 27 clusters for 5 generations
USER: GENES 19
USER: genes 0 Translation |==|  0.68805 0.39803 0.54885
USER: genes 1 Rotation |==|  0.88304 0.71768 0.46604 0.73397
USER: genes 2 Torsion [C]-N--CA-[C] |==|  0.75114
USER: genes 3 Torsion [N]-CA--CB-[CG] |==|  0.76197
USER: genes 4 Torsion [CA]-CB--CG-[CD1] |==|  0.68995
USER: genes 5 Torsion [N]-CA--C-[N] |==|  0.86761
USER: genes 6 Torsion [C]-N--CA-[C] |==|  0.18957
USER: genes 7 Torsion [N]-CA--C-[O] |==|  0.01672
USER: genes 8 Torsion [N]-CA--CB-[CG] |==|  0.89183
USER: genes 9 Torsion [CA]-CB--CG-[CD] |==|  0.49950
USER: genes 10 Torsion [CB]-CG--CD-[OE1] |==|  0.81198
USER: genes 11 Torsion [N]-C--CA-[N] |==|  0.11976
USER: genes 12 Torsion [C]-CA--CB-[CG] |==|  0.33673
USER: genes 13 Torsion [CA]-CB--CG-[CD1] |==|  0.44242
USER: genes 14 Torsion [CE1]-CZ--OH-[HH] |==|  0.42023
USER: genes 15 Torsion [C]-CA--N-[C] |==|  0.16663
USER: genes 16 Torsion [N]-C--CA-[N] |==|  0.19249
USER: genes 17 Torsion [C]-CA--CB-[CG] |==|  0.32628
USER: genes 18 Torsion [CA]-CB--CG-[CD1] |==|  0.34915
ROOT
ATOM      1  C   TYR C  12     -33.614  67.122  14.788  1.00 66.29 LIG 0.24  C 
ATOM      2 O    TYR C  12     -32.659  66.474  14.359  1.00 72.73 LIG-0.27  OA
ATOM      3  N   PHE C  13     -33.810  68.403  14.490  1.00 62.12 LIG-0.35  N 
ATOM      4 H    PHE C  13     -34.456  68.878  14.801  1.00 62.12 LIG 0.16  HD
ENDROOT
BRANCH 3 5
ATOM      5  CA  PHE C  13     -32.914  69.116  13.584  1.00 61.15 LIG 0.18  C 
BRANCH 5 6
ATOM      6  CB  PHE C  13     -33.678  70.176  12.781  1.00 57.79 LIG 0.07  C 
BRANCH 6 7
ATOM      7  CG  PHE C  13     -34.325  69.650  11.528  1.00 55.93 LIG-0.06  A 
ATOM      8  CD1 PHE C  13     -33.864  70.033  10.277  1.00 55.40 LIG 0.01  A 
ATOM      9  CE1 PHE C  13     -34.454  69.544   9.124  1.00 55.08 LIG 0.00  A 
ATOM     10  CZ  PHE C  13     -35.510  68.659   9.211  1.00 53.84 LIG 0.00  A 
ATOM     11  CE2 PHE C  13     -35.970  68.262  10.450  1.00 62.38 LIG 0.00  A 
ATOM     12  CD2 PHE C  13     -35.380  68.756  11.600  1.00 55.52 LIG 0.01  A 
ENDBRANCH 6 7
ENDBRANCH 5 6
BRANCH 5 13
ATOM     13  C   PHE C  13     -31.761  69.756  14.347  1.00 64.85 LIG 0.24  C 
ATOM     14 O    PHE C  13     -30.601  69.632  13.957  1.00 62.65 LIG-0.27  OA
ATOM     15  N   GLN C  14     -32.092  70.445  15.435  1.00 69.96 LIG-0.34  N 
ATOM     16 H    GLN C  14     -32.896  70.511  15.733  1.00 69.96 LIG 0.16  HD
BRANCH 15 17
ATOM     17  CA  GLN C  14     -31.099  71.159  16.230  1.00 68.16 LIG 0.19  C 
BRANCH 17 18
ATOM     18  C   GLN C  14     -30.524  72.351  15.468  1.00 80.56 LIG 0.20  C 
ATOM     19 O    GLN C  14     -30.974  72.684  14.370  1.00 73.75 LIG-0.65  OA
ATOM     20 OXT  GLN C  14     -29.595  73.010  15.935  1.00 84.17 LIG-0.65  OA
ENDBRANCH 17 18
BRANCH 17 21
ATOM     21  CB  GLN C  14     -29.973  70.211  16.649  1.00 71.08 LIG 0.04  C 
BRANCH 21 22
ATOM     22  CG  GLN C  14     -30.444  68.816  17.028  1.00 84.90 LIG 0.10  C 
BRANCH 22 23
ATOM     23  CD  GLN C  14     -29.302  67.905  17.433  1.00 85.71 LIG 0.21  C 
ATOM     24  NE2 GLN C  14     -29.259  67.537  18.708  1.00 87.27 LIG-0.37  N 
ATOM     25 22HE GLN C  14     -28.629  67.023  18.986  1.00 87.27 LIG 0.16  HD
ATOM     26 21HE GLN C  14     -29.861  67.814  19.257  1.00 87.27 LIG 0.16  HD
ATOM     27 OE1  GLN C  14     -28.466  67.538  16.607  1.00 92.83 LIG-0.27  OA
ENDBRANCH 22 23
ENDBRANCH 21 22
ENDBRANCH 17 21
ENDBRANCH 15 17
ENDBRANCH 5 13
ENDBRANCH 3 5
BRANCH 1 28
ATOM     28  CA  TYR C  12     -34.637  66.468  15.710  1.00 72.08 LIG 0.18  C 
BRANCH 28 29
ATOM     29  CB  TYR C  12     -34.470  64.948  15.670  1.00 70.95 LIG 0.07  C 
BRANCH 29 30
ATOM     30  CG  TYR C  12     -34.173  64.322  17.012  1.00 83.06 LIG-0.06  A 
ATOM     31  CD1 TYR C  12     -34.411  62.972  17.240  1.00 86.94 LIG 0.01  A 
ATOM     32  CE1 TYR C  12     -34.138  62.394  18.466  1.00 80.65 LIG 0.04  A 
ATOM     33  CZ  TYR C  12     -33.617  63.167  19.482  1.00 81.62 LIG 0.07  A 
ATOM     34  CE2 TYR C  12     -33.369  64.510  19.280  1.00 86.89 LIG 0.04  A 
ATOM     35  CD2 TYR C  12     -33.646  65.079  18.052  1.00 81.98 LIG 0.01  A 
BRANCH 33 36
ATOM     36 OH   TYR C  12     -33.345  62.597  20.704  1.00 83.24 LIG-0.36  OA
ATOM     37 HH   TYR C  12     -32.714  63.010  21.072  1.00 83.24 LIG 0.22  HD
ENDBRANCH 33 36
ENDBRANCH 29 30
ENDBRANCH 28 29
BRANCH 28 38
ATOM     38  N   TYR C  12     -36.000  66.843  15.353  1.00 66.73 LIG-0.34  N 
ATOM     39  C   LEU C  11     -36.508  66.572  14.155  1.00 75.02 LIG 0.26  C 
ATOM     40 O    LEU C  11     -35.871  65.998  13.272  1.00 79.88 LIG-0.27  OA
ATOM     41 H    TYR C  12     -36.433  67.246  15.977  1.00 66.73 LIG 0.16  HD
BRANCH 39 42
ATOM     42  CA  LEU C  11     -37.948  67.012  13.914  1.00 79.60 LIG 0.40  C 
ATOM     43  N   LEU C  11     -38.054  68.465  13.846  1.00 85.33 LIG 0.61  N 
BRANCH 42 44
ATOM     44  CB  LEU C  11     -38.482  66.372  12.630  1.00 82.02 LIG 0.06  C 
BRANCH 44 45
ATOM     45  CG  LEU C  11     -39.674  65.422  12.775  1.00 84.03 LIG-0.02  C 
ATOM     46  CD1 LEU C  11     -40.815  65.849  11.866  1.00 79.83 LIG 0.01  C 
ATOM     47  CD2 LEU C  11     -39.257  63.990  12.478  1.00 84.62 LIG 0.01  C 
ENDBRANCH 44 45
ENDBRANCH 42 44
ENDBRANCH 39 42
ENDBRANCH 28 38
ENDBRANCH 1 28
TORSDOF 17
ENDMDL
MODEL 29
USER: ADFR SOLUTION from run 26
USER: SCORE 15.137404 LL:  -3.303 LR: -11.995 RR:   0.000 FEB:  -6.924
USER: RMSD 6.414317
USER: SEED 25
USER: STATUS no improvement in best in 13 clusters for 5 generations
USER: GENES 19
USER: genes 0 Translation |==|  0.57429 0.32348 0.48495
USER: genes 1 Rotation |==|  0.03710 0.33934 0.59593 0.52659
USER: genes 2 Torsion [C]-N--CA-[C] |==|  0.56929
USER: genes 3 Torsion [N]-CA--CB-[CG] |==|  0.62564
USER: genes 4 Torsion [CA]-CB--CG-[CD1] |==|  0.29073
USER: genes 5 Torsion [N]-CA--C-[N] |==|  0.45799
USER: genes 6 Torsion [C]-N--CA-[C] |==|  0.57794
USER: genes 7 Torsion [N]-CA--C-[O] |==|  0.92297
USER: genes 8 Torsion [N]-CA--CB-[CG] |==|  0.65821
USER: genes 9 Torsion [CA]-CB--CG-[CD] |==|  0.63840
USER: genes 10 Torsion [CB]-CG--CD-[OE1] |==|  0.05455
USER: genes 11 Torsion [N]-C--CA-[N] |==|  0.40141
USER: genes 12 Torsion [C]-CA--CB-[CG] |==|  0.88632
USER: genes 13 Torsion [CA]-CB--CG-[CD1] |==|  0.34827
USER: genes 14 Torsion [CE1]-CZ--OH-[HH] |==|  0.49300
USER: genes 15 Torsion [C]-CA--N-[C] |==|  0.80311
USER: genes 16 Torsion [N]-C--CA-[N] |==|  0.59579
USER: genes 17 Torsion [C]-CA--CB-[CG] |==|  0.24749
USER: genes 18 Torsion [CA]-CB--CG-[CD1] |==|  0.26615
ROOT
ATOM      1  C   TYR C  12     -36.173  65.724  13.734  1.00 66.29 LIG 0.24  C 
ATOM      2 O    TYR C  12     -35.970  65.532  12.534  1.00 72.73 LIG-0.27  OA
ATOM      3  N   PHE C  13     -35.577  66.694  14.421  1.00 62.12 LIG-0.35  N 
ATOM      4 H    PHE C  13     -35.686  66.827  15.264  1.00 62.12 LIG 0.16  HD
ENDROOT
BRANCH 3 5
ATOM      5  CA  PHE C  13     -34.666  67.633  13.772  1.00 61.15 LIG 0.18  C 
BRANCH 5 6
ATOM      6  CB  PHE C  13     -35.442  68.755  13.073  1.00 57.79 LIG 0.07  C 
BRANCH 6 7
ATOM      7  CG  PHE C  13     -34.953  69.068  11.684  1.00 55.93 LIG-0.06  A 
ATOM      8  CD1 PHE C  13     -35.667  68.652  10.570  1.00 55.40 LIG 0.01  A 
ATOM      9  CE1 PHE C  13     -35.222  68.946   9.292  1.00 55.08 LIG 0.00  A 
ATOM     10  CZ  PHE C  13     -34.058  69.667   9.116  1.00 53.84 LIG 0.00  A 
ATOM     11  CE2 PHE C  13     -33.345  70.096  10.217  1.00 62.38 LIG 0.00  A 
ATOM     12  CD2 PHE C  13     -33.791  69.797  11.492  1.00 55.52 LIG 0.01  A 
ENDBRANCH 6 7
ENDBRANCH 5 6
BRANCH 5 13
ATOM     13  C   PHE C  13     -33.677  68.215  14.774  1.00 64.85 LIG 0.24  C 
ATOM     14 O    PHE C  13     -33.868  68.106  15.985  1.00 62.65 LIG-0.27  OA
ATOM     15  N   GLN C  14     -32.617  68.829  14.258  1.00 69.96 LIG-0.34  N 
ATOM     16 H    GLN C  14     -32.491  68.937  13.414  1.00 69.96 LIG 0.16  HD
BRANCH 15 17
ATOM     17  CA  GLN C  14     -31.558  69.382  15.096  1.00 68.16 LIG 0.19  C 
BRANCH 17 18
ATOM     18  C   GLN C  14     -30.868  70.564  14.419  1.00 80.56 LIG 0.20  C 
ATOM     19 O    GLN C  14     -30.817  70.656  13.191  1.00 73.75 LIG-0.65  OA
ATOM     20 OXT  GLN C  14     -30.345  71.457  15.086  1.00 84.17 LIG-0.65  OA
ENDBRANCH 17 18
BRANCH 17 21
ATOM     21  CB  GLN C  14     -30.532  68.299  15.437  1.00 71.08 LIG 0.04  C 
BRANCH 21 22
ATOM     22  CG  GLN C  14     -30.326  68.085  16.928  1.00 84.90 LIG 0.10  C 
BRANCH 22 23
ATOM     23  CD  GLN C  14     -28.863  68.095  17.322  1.00 85.71 LIG 0.21  C 
ATOM     24  NE2 GLN C  14     -28.557  67.534  18.487  1.00 87.27 LIG-0.37  N 
ATOM     25 22HE GLN C  14     -27.741  67.517  18.754  1.00 87.27 LIG 0.16  HD
ATOM     26 21HE GLN C  14     -29.177  67.187  18.973  1.00 87.27 LIG 0.16  HD
ATOM     27 OE1  GLN C  14     -28.016  68.605  16.588  1.00 92.83 LIG-0.27  OA
ENDBRANCH 22 23
ENDBRANCH 21 22
ENDBRANCH 17 21
ENDBRANCH 15 17
ENDBRANCH 5 13
ENDBRANCH 3 5
BRANCH 1 28
ATOM     28  CA  TYR C  12     -37.138  64.830  14.505  1.00 72.08 LIG 0.18  C 
BRANCH 28 29
ATOM     29  CB  TYR C  12     -36.393  63.601  15.031  1.00 70.95 LIG 0.07  C 
BRANCH 29 30
ATOM     30  CG  TYR C  12     -35.408  63.009  14.051  1.00 83.06 LIG-0.06  A 
ATOM     31  CD1 TYR C  12     -34.077  62.818  14.403  1.00 86.94 LIG 0.01  A 
ATOM     32  CE1 TYR C  12     -33.172  62.273  13.510  1.00 80.65 LIG 0.04  A 
ATOM     33  CZ  TYR C  12     -33.595  61.909  12.249  1.00 81.62 LIG 0.07  A 
ATOM     34  CE2 TYR C  12     -34.913  62.087  11.877  1.00 86.89 LIG 0.04  A 
ATOM     35  CD2 TYR C  12     -35.809  62.633  12.775  1.00 81.98 LIG 0.01  A 
BRANCH 33 36
ATOM     36 OH   TYR C  12     -32.698  61.368  11.357  1.00 83.24 LIG-0.36  OA
ATOM     37 HH   TYR C  12     -33.098  61.163  10.647  1.00 83.24 LIG 0.22  HD
ENDBRANCH 33 36
ENDBRANCH 29 30
ENDBRANCH 28 29
BRANCH 28 38
ATOM     38  N   TYR C  12     -38.273  64.427  13.683  1.00 66.73 LIG-0.34  N 
ATOM     39  C   LEU C  11     -39.220  65.290  13.328  1.00 75.02 LIG 0.26  C 
ATOM     40 O    LEU C  11     -39.210  66.473  13.668  1.00 79.88 LIG-0.27  OA
ATOM     41 H    TYR C  12     -38.271  63.598  13.456  1.00 66.73 LIG 0.16  HD
BRANCH 39 42
ATOM     42  CA  LEU C  11     -40.347  64.740  12.462  1.00 79.60 LIG 0.40  C 
ATOM     43  N   LEU C  11     -40.820  65.738  11.510  1.00 85.33 LIG 0.61  N 
BRANCH 42 44
ATOM     44  CB  LEU C  11     -39.878  63.479  11.732  1.00 82.02 LIG 0.06  C 
BRANCH 44 45
ATOM     45  CG  LEU C  11     -40.077  62.146  12.457  1.00 84.03 LIG-0.02  C 
ATOM     46  CD1 LEU C  11     -41.365  61.476  12.007  1.00 79.83 LIG 0.01  C 
ATOM     47  CD2 LEU C  11     -38.886  61.227  12.228  1.00 84.62 LIG 0.01  C 
ENDBRANCH 44 45
ENDBRANCH 42 44
ENDBRANCH 39 42
ENDBRANCH 28 38
ENDBRANCH 1 28
TORSDOF 17
ENDMDL
