MODEL 1
USER: ADFR SOLUTION from run 54
USER: SCORE 20.458885 LL:  -2.820 LR: -17.718 RR:   0.000 FEB: -12.348
USER: RMSD 1.926085
USER: SEED 53
USER: STATUS no improvement in best in 2 clusters for 5 generations
USER: GENES 20
USER: genes 0 Translation |==|  0.53658 0.41221 0.45187
USER: genes 1 Rotation |==|  0.42105 0.46812 0.57402 0.98711
USER: genes 2 Torsion [N]-CA--C-[N] |==|  0.39444
USER: genes 3 Torsion [C]-N--CA-[C] |==|  0.78697
USER: genes 4 Torsion [N]-CA--C-[N] |==|  0.44957
USER: genes 5 Torsion [C]-N--CA-[CB] |==|  0.18196
USER: genes 6 Torsion [N]-CA--CB-[CG] |==|  0.57825
USER: genes 7 Torsion [CA]-CB--CG-[CD1] |==|  0.20888
USER: genes 8 Torsion [N]-CA--C-[OXT] |==|  0.52237
USER: genes 9 Torsion [N]-CA--CB-[CG] |==|  0.84491
USER: genes 10 Torsion [CA]-CB--CG-[CD] |==|  0.75982
USER: genes 11 Torsion [CB]-CG--CD-[OE2] |==|  0.40616
USER: genes 12 Torsion [C]-CA--CB-[CG] |==|  0.27733
USER: genes 13 Torsion [CA]-CB--CG-[CD] |==|  0.69765
USER: genes 14 Torsion [CB]-CG--CD-[OE1] |==|  0.26889
USER: genes 15 Torsion [C]-CA--N-[C] |==|  0.79396
USER: genes 16 Torsion [N]-C--CA-[N] |==|  0.09906
USER: genes 17 Torsion [C]-CA--N-[H2] |==|  0.60535
USER: genes 18 Torsion [C]-CA--CB-[CG] |==|  0.47881
USER: genes 19 Torsion [CA]-CB--CG-[CD1] |==|  0.38074
ROOT
ATOM      1  CA  GLU E   2     -21.331 -12.923 -25.195  1.00 18.96 LIG 0.18  C 
ENDROOT
BRANCH 1 2
ATOM      2  C   GLU E   2     -21.261 -11.541 -25.845  1.00 19.39 LIG 0.24  C 
ATOM      3 O    GLU E   2     -22.276 -10.887 -26.023  1.00 16.83 LIG-0.27  OA
ATOM      4  N   GLU E   3     -20.055 -11.070 -26.144  1.00 20.18 LIG-0.35  N 
ATOM      5 H    GLU E   3     -19.322 -11.509 -26.045  1.00 20.18 LIG 0.16  HD
BRANCH 4 6
ATOM      6  CA  GLU E   3     -19.894  -9.717 -26.681  1.00 16.65 LIG 0.18  C 
BRANCH 6 7
ATOM      7  C   GLU E   3     -20.289  -9.683 -28.158  1.00 17.64 LIG 0.24  C 
ATOM      8 O    GLU E   3     -20.371 -10.730 -28.809  1.00 25.54 LIG-0.27  OA
ATOM      9  N   LEU E   4     -20.554  -8.488 -28.682  1.00 17.38 LIG-0.34  N 
ATOM     10 H    LEU E   4     -20.490  -7.744 -28.257  1.00 17.38 LIG 0.16  HD
BRANCH 9 11
ATOM     11  CA  LEU E   4     -20.986  -8.369 -30.069  1.00 18.86 LIG 0.18  C 
BRANCH 11 12
ATOM     12  CB  LEU E   4     -22.354  -9.023 -30.268  1.00 23.62 LIG 0.04  C 
BRANCH 12 13
ATOM     13  CG  LEU E   4     -22.670  -9.581 -31.654  1.00 21.70 LIG-0.02  C 
ATOM     14  CD2 LEU E   4     -24.163  -9.807 -31.828  1.00 23.28 LIG 0.01  C 
ATOM     15  CD1 LEU E   4     -21.912 -10.890 -31.864  1.00 18.19 LIG 0.01  C 
ENDBRANCH 12 13
ENDBRANCH 11 12
BRANCH 11 16
ATOM     16  C   LEU E   4     -21.034  -6.902 -30.496  1.00 26.72 LIG 0.20  C 
ATOM     17 OXT  LEU E   4     -21.511  -6.545 -31.581  1.00 25.91 LIG-0.65  OA
ATOM     18 O    LEU E   4     -20.584  -6.030 -29.754  1.00 22.73 LIG-0.65  OA
ENDBRANCH 11 16
ENDBRANCH 9 11
ENDBRANCH 6 7
BRANCH 6 19
ATOM     19  CB  GLU E   3     -18.450  -9.238 -26.491  1.00 17.46 LIG 0.04  C 
BRANCH 19 20
ATOM     20  CG  GLU E   3     -17.982  -9.289 -25.040  1.00 17.22 LIG 0.12  C 
BRANCH 20 21
ATOM     21  CD  GLU E   3     -18.341  -8.034 -24.275  1.00 22.54 LIG 0.17  C 
ATOM     22 OE2  GLU E   3     -18.625  -8.122 -23.057  1.00 22.26 LIG-0.65  OA
ATOM     23 OE1  GLU E   3     -18.340  -6.955 -24.898  1.00 23.90 LIG-0.65  OA
ENDBRANCH 20 21
ENDBRANCH 19 20
ENDBRANCH 6 19
ENDBRANCH 4 6
ENDBRANCH 1 2
BRANCH 1 24
ATOM     24  CB  GLU E   2     -21.583 -14.035 -26.224  1.00 24.38 LIG 0.04  C 
BRANCH 24 25
ATOM     25  CG  GLU E   2     -20.329 -14.813 -26.653  1.00 27.62 LIG 0.12  C 
BRANCH 25 26
ATOM     26  CD  GLU E   2     -19.881 -14.513 -28.084  1.00 34.01 LIG 0.17  C 
ATOM     27 OE2  GLU E   2     -20.436 -15.129 -29.022  1.00 31.63 LIG-0.65  OA
ATOM     28 OE1  GLU E   2     -18.976 -13.666 -28.272  1.00 33.59 LIG-0.65  OA
ENDBRANCH 25 26
ENDBRANCH 24 25
ENDBRANCH 1 24
BRANCH 1 29
ATOM     29  N   GLU E   2     -22.389 -12.864 -24.209  1.00 16.88 LIG-0.35  N 
ATOM     30  C   TRP E   1     -22.204 -12.215 -23.064  1.00 25.23 LIG 0.25  C 
ATOM     31 O    TRP E   1     -21.101 -11.800 -22.702  1.00 23.92 LIG-0.27  OA
ATOM     32 H    GLU E   2     -23.114 -13.270 -24.428  1.00 16.88 LIG 0.16  HD
BRANCH 30 33
ATOM     33  CA  TRP E   1     -23.439 -11.973 -22.215  1.00 23.48 LIG 0.28  C 
BRANCH 33 34
ATOM     34  N   TRP E   1     -24.400 -13.069 -22.273  1.00 27.44 LIG-0.07  N 
ATOM     35 H2   TRP E   1     -25.227 -12.740 -22.273  1.00 27.44 LIG 0.28  HD
ATOM     36 H1   TRP E   1     -24.291 -13.597 -21.565  1.00 27.44 LIG 0.28  HD
ATOM     37 H3   TRP E   1     -24.268 -13.541 -23.016  1.00 27.44 LIG 0.28  HD
ENDBRANCH 33 34
BRANCH 33 38
ATOM     38  CB  TRP E   1     -22.990 -11.731 -20.773  1.00 28.17 LIG 0.08  C 
BRANCH 38 39
ATOM     39  CG  TRP E   1     -24.077 -11.304 -19.858  1.00 25.63 LIG-0.03  A 
ATOM     40  CD1 TRP E   1     -24.298 -11.745 -18.584  1.00 24.31 LIG 0.10  A 
ATOM     41  NE1 TRP E   1     -25.394 -11.115 -18.051  1.00 27.21 LIG-0.36  N 
ATOM     42 HE1  TRP E   1     -25.716 -11.249 -17.264  1.00 27.21 LIG 0.17  HD
ATOM     43  CE2 TRP E   1     -25.893 -10.234 -18.978  1.00 24.74 LIG 0.04  A 
ATOM     44  CD2 TRP E   1     -25.082 -10.326 -20.126  1.00 19.22 LIG-0.00  A 
ATOM     45  CZ2 TRP E   1     -26.979  -9.360 -18.895  1.00 22.29 LIG 0.03  A 
ATOM     46  CE3 TRP E   1     -25.382  -9.521 -21.228  1.00 22.29 LIG 0.01  A 
ATOM     47  CZ3 TRP E   1     -26.453  -8.659 -21.145  1.00 20.39 LIG 0.00  A 
ATOM     48  CH2 TRP E   1     -27.239  -8.589 -19.995  1.00 19.87 LIG 0.00  A 
ENDBRANCH 38 39
ENDBRANCH 33 38
ENDBRANCH 30 33
ENDBRANCH 1 29
TORSDOF 18
ENDMDL
MODEL 2
USER: ADFR SOLUTION from run 194
USER: SCORE 20.234569 LL:  -2.784 LR: -17.695 RR:   0.000 FEB: -12.325
USER: RMSD 2.541706
USER: SEED 193
USER: STATUS no improvement in best in 1 clusters for 5 generations
USER: GENES 20
USER: genes 0 Translation |==|  0.53628 0.41946 0.45039
USER: genes 1 Rotation |==|  0.41782 0.47608 0.55223 0.98984
USER: genes 2 Torsion [N]-CA--C-[N] |==|  0.40115
USER: genes 3 Torsion [C]-N--CA-[C] |==|  0.76856
USER: genes 4 Torsion [N]-CA--C-[N] |==|  0.23537
USER: genes 5 Torsion [C]-N--CA-[CB] |==|  0.81320
USER: genes 6 Torsion [N]-CA--CB-[CG] |==|  0.85714
USER: genes 7 Torsion [CA]-CB--CG-[CD1] |==|  0.26892
USER: genes 8 Torsion [N]-CA--C-[OXT] |==|  0.09167
USER: genes 9 Torsion [N]-CA--CB-[CG] |==|  0.57106
USER: genes 10 Torsion [CA]-CB--CG-[CD] |==|  0.21082
USER: genes 11 Torsion [CB]-CG--CD-[OE2] |==|  0.60757
USER: genes 12 Torsion [C]-CA--CB-[CG] |==|  0.05775
USER: genes 13 Torsion [CA]-CB--CG-[CD] |==|  0.25715
USER: genes 14 Torsion [CB]-CG--CD-[OE1] |==|  0.25855
USER: genes 15 Torsion [C]-CA--N-[C] |==|  0.80582
USER: genes 16 Torsion [N]-C--CA-[N] |==|  0.09403
USER: genes 17 Torsion [C]-CA--N-[H2] |==|  0.94681
USER: genes 18 Torsion [C]-CA--CB-[CG] |==|  0.51091
USER: genes 19 Torsion [CA]-CB--CG-[CD1] |==|  0.36204
ROOT
ATOM      1  CA  GLU E   2     -21.336 -12.798 -25.227  1.00 18.96 LIG 0.18  C 
ENDROOT
BRANCH 1 2
ATOM      2  C   GLU E   2     -21.150 -11.434 -25.893  1.00 19.39 LIG 0.24  C 
ATOM      3 O    GLU E   2     -22.095 -10.673 -26.022  1.00 16.83 LIG-0.27  OA
ATOM      4  N   GLU E   3     -19.917 -11.100 -26.260  1.00 20.18 LIG-0.35  N 
ATOM      5 H    GLU E   3     -19.232 -11.617 -26.197  1.00 20.18 LIG 0.16  HD
BRANCH 4 6
ATOM      6  CA  GLU E   3     -19.638  -9.776 -26.818  1.00 16.65 LIG 0.18  C 
BRANCH 6 7
ATOM      7  C   GLU E   3     -19.954  -9.753 -28.314  1.00 17.64 LIG 0.24  C 
ATOM      8 O    GLU E   3     -19.065  -9.968 -29.145  1.00 25.54 LIG-0.27  OA
ATOM      9  N   LEU E   4     -21.217  -9.515 -28.659  1.00 17.38 LIG-0.34  N 
ATOM     10 H    LEU E   4     -21.851  -9.347 -28.103  1.00 17.38 LIG 0.16  HD
BRANCH 9 11
ATOM     11  CA  LEU E   4     -21.615  -9.525 -30.061  1.00 18.86 LIG 0.18  C 
BRANCH 11 12
ATOM     12  CB  LEU E   4     -20.977  -8.358 -30.813  1.00 23.62 LIG 0.04  C 
BRANCH 12 13
ATOM     13  CG  LEU E   4     -21.140  -6.962 -30.213  1.00 21.70 LIG-0.02  C 
ATOM     14  CD2 LEU E   4     -21.370  -5.921 -31.296  1.00 23.28 LIG 0.01  C 
ATOM     15  CD1 LEU E   4     -19.900  -6.608 -29.396  1.00 18.19 LIG 0.01  C 
ENDBRANCH 12 13
ENDBRANCH 11 12
BRANCH 11 16
ATOM     16  C   LEU E   4     -21.235 -10.851 -30.721  1.00 26.72 LIG 0.20  C 
ATOM     17 OXT  LEU E   4     -21.239 -11.922 -30.100  1.00 25.91 LIG-0.65  OA
ATOM     18 O    LEU E   4     -20.906 -10.877 -31.906  1.00 22.73 LIG-0.65  OA
ENDBRANCH 11 16
ENDBRANCH 9 11
ENDBRANCH 6 7
BRANCH 6 19
ATOM     19  CB  GLU E   3     -18.176  -9.389 -26.563  1.00 17.46 LIG 0.04  C 
BRANCH 19 20
ATOM     20  CG  GLU E   3     -17.947  -7.880 -26.528  1.00 17.22 LIG 0.12  C 
BRANCH 20 21
ATOM     21  CD  GLU E   3     -18.427  -7.255 -25.237  1.00 22.54 LIG 0.17  C 
ATOM     22 OE2  GLU E   3     -18.989  -6.135 -25.273  1.00 22.26 LIG-0.65  OA
ATOM     23 OE1  GLU E   3     -18.239  -7.890 -24.181  1.00 23.90 LIG-0.65  OA
ENDBRANCH 20 21
ENDBRANCH 19 20
ENDBRANCH 6 19
ENDBRANCH 4 6
ENDBRANCH 1 2
BRANCH 1 24
ATOM     24  CB  GLU E   2     -21.707 -13.892 -26.240  1.00 24.38 LIG 0.04  C 
BRANCH 24 25
ATOM     25  CG  GLU E   2     -21.339 -13.572 -27.697  1.00 27.62 LIG 0.12  C 
BRANCH 25 26
ATOM     26  CD  GLU E   2     -19.963 -14.095 -28.112  1.00 34.01 LIG 0.17  C 
ATOM     27 OE2  GLU E   2     -18.963 -13.373 -27.898  1.00 31.63 LIG-0.65  OA
ATOM     28 OE1  GLU E   2     -19.881 -15.224 -28.653  1.00 33.59 LIG-0.65  OA
ENDBRANCH 25 26
ENDBRANCH 24 25
ENDBRANCH 1 24
BRANCH 1 29
ATOM     29  N   GLU E   2     -22.368 -12.632 -24.225  1.00 16.88 LIG-0.35  N 
ATOM     30  C   TRP E   1     -22.130 -11.920 -23.128  1.00 25.23 LIG 0.25  C 
ATOM     31 O    TRP E   1     -21.004 -11.529 -22.816  1.00 23.92 LIG-0.27  OA
ATOM     32 H    GLU E   2     -23.114 -13.021 -24.403  1.00 16.88 LIG 0.16  HD
BRANCH 30 33
ATOM     33  CA  TRP E   1     -23.335 -11.573 -22.272  1.00 23.48 LIG 0.28  C 
BRANCH 33 34
ATOM     34  N   TRP E   1     -24.359 -12.612 -22.273  1.00 27.44 LIG-0.07  N 
ATOM     35 H2   TRP E   1     -24.242 -13.145 -22.977  1.00 27.44 LIG 0.28  HD
ATOM     36 H1   TRP E   1     -25.164 -12.236 -22.317  1.00 27.44 LIG 0.28  HD
ATOM     37 H3   TRP E   1     -24.296 -13.092 -21.526  1.00 27.44 LIG 0.28  HD
ENDBRANCH 33 34
BRANCH 33 38
ATOM     38  CB  TRP E   1     -22.848 -11.304 -20.847  1.00 28.17 LIG 0.08  C 
BRANCH 38 39
ATOM     39  CG  TRP E   1     -23.933 -11.040 -19.871  1.00 25.63 LIG-0.03  A 
ATOM     40  CD1 TRP E   1     -24.099 -11.629 -18.649  1.00 24.31 LIG 0.10  A 
ATOM     41  NE1 TRP E   1     -25.213 -11.123 -18.029  1.00 27.21 LIG-0.36  N 
ATOM     42 HE1  TRP E   1     -25.508 -11.360 -17.256  1.00 27.21 LIG 0.17  HD
ATOM     43  CE2 TRP E   1     -25.782 -10.176 -18.844  1.00 24.74 LIG 0.04  A 
ATOM     44  CD2 TRP E   1     -24.996 -10.097 -20.010  1.00 19.22 LIG-0.00  A 
ATOM     45  CZ2 TRP E   1     -26.910  -9.378 -18.646  1.00 22.29 LIG 0.03  A 
ATOM     46  CE3 TRP E   1     -25.365  -9.196 -21.012  1.00 22.29 LIG 0.01  A 
ATOM     47  CZ3 TRP E   1     -26.479  -8.409 -20.814  1.00 20.39 LIG 0.00  A 
ATOM     48  CH2 TRP E   1     -27.239  -8.508 -19.649  1.00 19.87 LIG 0.00  A 
ENDBRANCH 38 39
ENDBRANCH 33 38
ENDBRANCH 30 33
ENDBRANCH 1 29
TORSDOF 18
ENDMDL
MODEL 3
USER: ADFR SOLUTION from run 75
USER: SCORE 20.216609 LL:  -3.831 LR: -16.605 RR:   0.000 FEB: -11.236
USER: RMSD 9.391510
USER: SEED 74
USER: STATUS 1 or 2 clusters left
USER: GENES 20
USER: genes 0 Translation |==|  0.64127 0.55150 0.40366
USER: genes 1 Rotation |==|  0.13041 0.82208 0.59315 0.53140
USER: genes 2 Torsion [N]-CA--C-[N] |==|  0.45299
USER: genes 3 Torsion [C]-N--CA-[C] |==|  0.66286
USER: genes 4 Torsion [N]-CA--C-[N] |==|  0.37546
USER: genes 5 Torsion [C]-N--CA-[CB] |==|  0.34286
USER: genes 6 Torsion [N]-CA--CB-[CG] |==|  0.91346
USER: genes 7 Torsion [CA]-CB--CG-[CD1] |==|  0.29901
USER: genes 8 Torsion [N]-CA--C-[OXT] |==|  0.56630
USER: genes 9 Torsion [N]-CA--CB-[CG] |==|  0.87597
USER: genes 10 Torsion [CA]-CB--CG-[CD] |==|  0.26436
USER: genes 11 Torsion [CB]-CG--CD-[OE2] |==|  0.72625
USER: genes 12 Torsion [C]-CA--CB-[CG] |==|  0.58348
USER: genes 13 Torsion [CA]-CB--CG-[CD] |==|  0.25314
USER: genes 14 Torsion [CB]-CG--CD-[OE1] |==|  0.16457
USER: genes 15 Torsion [C]-CA--N-[C] |==|  0.77098
USER: genes 16 Torsion [N]-C--CA-[N] |==|  0.16388
USER: genes 17 Torsion [C]-CA--N-[H2] |==|  0.11947
USER: genes 18 Torsion [C]-CA--CB-[CG] |==|  0.27331
USER: genes 19 Torsion [CA]-CB--CG-[CD1] |==|  0.15382
ROOT
ATOM      1  CA  GLU E   2     -19.446 -10.521 -26.243  1.00 18.96 LIG 0.18  C 
ENDROOT
BRANCH 1 2
ATOM      2  C   GLU E   2     -20.770 -11.241 -25.980  1.00 19.39 LIG 0.24  C 
ATOM      3 O    GLU E   2     -21.832 -10.659 -26.126  1.00 16.83 LIG-0.27  OA
ATOM      4  N   GLU E   3     -20.706 -12.527 -25.651  1.00 20.18 LIG-0.35  N 
ATOM      5 H    GLU E   3     -19.975 -12.963 -25.526  1.00 20.18 LIG 0.16  HD
BRANCH 4 6
ATOM      6  CA  GLU E   3     -21.929 -13.313 -25.475  1.00 16.65 LIG 0.18  C 
BRANCH 6 7
ATOM      7  C   GLU E   3     -21.985 -13.898 -24.063  1.00 17.64 LIG 0.24  C 
ATOM      8 O    GLU E   3     -20.981 -14.409 -23.556  1.00 25.54 LIG-0.27  OA
ATOM      9  N   LEU E   4     -23.147 -13.806 -23.420  1.00 17.38 LIG-0.34  N 
ATOM     10 H    LEU E   4     -23.864 -13.469 -23.754  1.00 17.38 LIG 0.16  HD
BRANCH 9 11
ATOM     11  CA  LEU E   4     -23.275 -14.292 -22.052  1.00 18.86 LIG 0.18  C 
BRANCH 11 12
ATOM     12  CB  LEU E   4     -23.766 -13.179 -21.126  1.00 23.62 LIG 0.04  C 
BRANCH 12 13
ATOM     13  CG  LEU E   4     -23.360 -11.748 -21.472  1.00 21.70 LIG-0.02  C 
ATOM     14  CD2 LEU E   4     -22.781 -11.033 -20.262  1.00 23.28 LIG 0.01  C 
ATOM     15  CD1 LEU E   4     -24.572 -10.985 -22.003  1.00 18.19 LIG 0.01  C 
ENDBRANCH 12 13
ENDBRANCH 11 12
BRANCH 11 16
ATOM     16  C   LEU E   4     -24.224 -15.489 -21.991  1.00 26.72 LIG 0.20  C 
ATOM     17 OXT  LEU E   4     -24.826 -15.802 -20.955  1.00 25.91 LIG-0.65  OA
ATOM     18 O    LEU E   4     -24.406 -16.182 -22.990  1.00 22.73 LIG-0.65  OA
ENDBRANCH 11 16
ENDBRANCH 9 11
ENDBRANCH 6 7
BRANCH 6 19
ATOM     19  CB  GLU E   3     -22.003 -14.424 -26.529  1.00 17.46 LIG 0.04  C 
BRANCH 19 20
ATOM     20  CG  GLU E   3     -21.641 -13.951 -27.934  1.00 17.22 LIG 0.12  C 
BRANCH 20 21
ATOM     21  CD  GLU E   3     -20.188 -14.204 -28.270  1.00 22.54 LIG 0.17  C 
ATOM     22 OE2  GLU E   3     -19.364 -13.266 -28.157  1.00 22.26 LIG-0.65  OA
ATOM     23 OE1  GLU E   3     -19.872 -15.347 -28.649  1.00 23.90 LIG-0.65  OA
ENDBRANCH 20 21
ENDBRANCH 19 20
ENDBRANCH 6 19
ENDBRANCH 4 6
ENDBRANCH 1 2
BRANCH 1 24
ATOM     24  CB  GLU E   2     -18.681 -10.223 -24.946  1.00 24.38 LIG 0.04  C 
BRANCH 24 25
ATOM     25  CG  GLU E   2     -17.802  -8.963 -24.990  1.00 27.62 LIG 0.12  C 
BRANCH 25 26
ATOM     26  CD  GLU E   2     -18.521  -7.697 -24.523  1.00 34.01 LIG 0.17  C 
ATOM     27 OE2  GLU E   2     -18.614  -6.737 -25.322  1.00 31.63 LIG-0.65  OA
ATOM     28 OE1  GLU E   2     -18.989  -7.658 -23.361  1.00 33.59 LIG-0.65  OA
ENDBRANCH 25 26
ENDBRANCH 24 25
ENDBRANCH 1 24
BRANCH 1 29
ATOM     29  N   GLU E   2     -19.773  -9.304 -26.957  1.00 16.88 LIG-0.35  N 
ATOM     30  C   TRP E   1     -19.966  -9.329 -28.272  1.00 25.23 LIG 0.25  C 
ATOM     31 O    TRP E   1     -19.706 -10.313 -28.967  1.00 23.92 LIG-0.27  OA
ATOM     32 H    GLU E   2     -19.826  -8.598 -26.469  1.00 16.88 LIG 0.16  HD
BRANCH 30 33
ATOM     33  CA  TRP E   1     -20.564  -8.078 -28.892  1.00 23.48 LIG 0.28  C 
BRANCH 33 34
ATOM     34  N   TRP E   1     -19.757  -6.884 -28.667  1.00 27.44 LIG-0.07  N 
ATOM     35 H2   TRP E   1     -18.897  -7.078 -28.793  1.00 27.44 LIG 0.28  HD
ATOM     36 H1   TRP E   1     -19.877  -6.597 -27.833  1.00 27.44 LIG 0.28  HD
ATOM     37 H3   TRP E   1     -20.003  -6.247 -29.238  1.00 27.44 LIG 0.28  HD
ENDBRANCH 33 34
BRANCH 33 38
ATOM     38  CB  TRP E   1     -20.745  -8.327 -30.390  1.00 28.17 LIG 0.08  C 
BRANCH 38 39
ATOM     39  CG  TRP E   1     -22.121  -8.719 -30.782  1.00 25.63 LIG-0.03  A 
ATOM     40  CD1 TRP E   1     -23.275  -8.034 -30.523  1.00 24.31 LIG 0.10  A 
ATOM     41  NE1 TRP E   1     -24.350  -8.706 -31.049  1.00 27.21 LIG-0.36  N 
ATOM     42 HE1  TRP E   1     -25.171  -8.457 -30.994  1.00 27.21 LIG 0.17  HD
ATOM     43  CE2 TRP E   1     -23.899  -9.839 -31.678  1.00 24.74 LIG 0.04  A 
ATOM     44  CD2 TRP E   1     -22.499  -9.874 -31.532  1.00 19.22 LIG-0.00  A 
ATOM     45  CZ2 TRP E   1     -24.605 -10.825 -32.370  1.00 22.29 LIG 0.03  A 
ATOM     46  CE3 TRP E   1     -21.789 -10.941 -32.090  1.00 22.29 LIG 0.01  A 
ATOM     47  CZ3 TRP E   1     -22.487 -11.912 -32.773  1.00 20.39 LIG 0.00  A 
ATOM     48  CH2 TRP E   1     -23.874 -11.852 -32.903  1.00 19.87 LIG 0.00  A 
ENDBRANCH 38 39
ENDBRANCH 33 38
ENDBRANCH 30 33
ENDBRANCH 1 29
TORSDOF 18
ENDMDL
MODEL 4
USER: ADFR SOLUTION from run 196
USER: SCORE 19.036662 LL:  -3.301 LR: -16.537 RR:   0.000 FEB: -11.167
USER: RMSD 3.924612
USER: SEED 195
USER: STATUS no improvement in best in 1 clusters for 5 generations
USER: GENES 20
USER: genes 0 Translation |==|  0.50304 0.40570 0.42866
USER: genes 1 Rotation |==|  0.45960 0.60097 0.45889 0.98630
USER: genes 2 Torsion [N]-CA--C-[N] |==|  0.46338
USER: genes 3 Torsion [C]-N--CA-[C] |==|  0.18801
USER: genes 4 Torsion [N]-CA--C-[N] |==|  0.69381
USER: genes 5 Torsion [C]-N--CA-[CB] |==|  0.21383
USER: genes 6 Torsion [N]-CA--CB-[CG] |==|  0.15818
USER: genes 7 Torsion [CA]-CB--CG-[CD1] |==|  0.45253
USER: genes 8 Torsion [N]-CA--C-[OXT] |==|  0.25207
USER: genes 9 Torsion [N]-CA--CB-[CG] |==|  0.69231
USER: genes 10 Torsion [CA]-CB--CG-[CD] |==|  0.01003
USER: genes 11 Torsion [CB]-CG--CD-[OE2] |==|  0.22959
USER: genes 12 Torsion [C]-CA--CB-[CG] |==|  0.26087
USER: genes 13 Torsion [CA]-CB--CG-[CD] |==|  0.00995
USER: genes 14 Torsion [CB]-CG--CD-[OE1] |==|  0.67182
USER: genes 15 Torsion [C]-CA--N-[C] |==|  0.77107
USER: genes 16 Torsion [N]-C--CA-[N] |==|  0.63309
USER: genes 17 Torsion [C]-CA--N-[H2] |==|  0.85874
USER: genes 18 Torsion [C]-CA--CB-[CG] |==|  0.45342
USER: genes 19 Torsion [CA]-CB--CG-[CD1] |==|  0.95752
ROOT
ATOM      1  CA  GLU E   2     -21.934 -13.036 -25.700  1.00 18.96 LIG 0.18  C 
ENDROOT
BRANCH 1 2
ATOM      2  C   GLU E   2     -21.441 -11.740 -26.346  1.00 19.39 LIG 0.24  C 
ATOM      3 O    GLU E   2     -21.586 -10.669 -25.779  1.00 16.83 LIG-0.27  OA
ATOM      4  N   GLU E   3     -20.804 -11.846 -27.508  1.00 20.18 LIG-0.35  N 
ATOM      5 H    GLU E   3     -20.698 -12.581 -27.941  1.00 20.18 LIG 0.16  HD
BRANCH 4 6
ATOM      6  CA  GLU E   3     -20.218 -10.666 -28.147  1.00 16.65 LIG 0.18  C 
BRANCH 6 7
ATOM      7  C   GLU E   3     -19.042 -10.144 -27.321  1.00 17.64 LIG 0.24  C 
ATOM      8 O    GLU E   3     -17.983 -10.779 -27.269  1.00 25.54 LIG-0.27  OA
ATOM      9  N   LEU E   4     -19.215  -8.982 -26.694  1.00 17.38 LIG-0.34  N 
ATOM     10 H    LEU E   4     -19.945  -8.529 -26.701  1.00 17.38 LIG 0.16  HD
BRANCH 9 11
ATOM     11  CA  LEU E   4     -18.128  -8.388 -25.926  1.00 18.86 LIG 0.18  C 
BRANCH 11 12
ATOM     12  CB  LEU E   4     -17.102  -7.738 -26.854  1.00 23.62 LIG 0.04  C 
BRANCH 12 13
ATOM     13  CG  LEU E   4     -17.607  -6.662 -27.815  1.00 21.70 LIG-0.02  C 
ATOM     14  CD2 LEU E   4     -18.374  -7.276 -28.974  1.00 23.28 LIG 0.01  C 
ATOM     15  CD1 LEU E   4     -16.425  -5.848 -28.338  1.00 18.19 LIG 0.01  C 
ENDBRANCH 12 13
ENDBRANCH 11 12
BRANCH 11 16
ATOM     16  C   LEU E   4     -18.669  -7.360 -24.932  1.00 26.72 LIG 0.20  C 
ATOM     17 OXT  LEU E   4     -18.989  -7.665 -23.776  1.00 25.91 LIG-0.65  OA
ATOM     18 O    LEU E   4     -18.804  -6.186 -25.273  1.00 22.73 LIG-0.65  OA
ENDBRANCH 11 16
ENDBRANCH 9 11
ENDBRANCH 6 7
BRANCH 6 19
ATOM     19  CB  GLU E   3     -21.283  -9.576 -28.328  1.00 17.46 LIG 0.04  C 
BRANCH 19 20
ATOM     20  CG  GLU E   3     -21.663  -9.339 -29.787  1.00 17.22 LIG 0.12  C 
BRANCH 20 21
ATOM     21  CD  GLU E   3     -20.965 -10.297 -30.726  1.00 22.54 LIG 0.17  C 
ATOM     22 OE2  GLU E   3     -21.443 -11.443 -30.895  1.00 22.26 LIG-0.65  OA
ATOM     23 OE1  GLU E   3     -19.931  -9.898 -31.297  1.00 23.90 LIG-0.65  OA
ENDBRANCH 20 21
ENDBRANCH 19 20
ENDBRANCH 6 19
ENDBRANCH 4 6
ENDBRANCH 1 2
BRANCH 1 24
ATOM     24  CB  GLU E   2     -23.117 -13.651 -26.462  1.00 24.38 LIG 0.04  C 
BRANCH 24 25
ATOM     25  CG  GLU E   2     -22.729 -14.710 -27.506  1.00 27.62 LIG 0.12  C 
BRANCH 25 26
ATOM     26  CD  GLU E   2     -21.233 -15.024 -27.535  1.00 34.01 LIG 0.17  C 
ATOM     27 OE2  GLU E   2     -20.705 -15.499 -26.504  1.00 31.63 LIG-0.65  OA
ATOM     28 OE1  GLU E   2     -20.585 -14.795 -28.584  1.00 33.59 LIG-0.65  OA
ENDBRANCH 25 26
ENDBRANCH 24 25
ENDBRANCH 1 24
BRANCH 1 29
ATOM     29  N   GLU E   2     -22.297 -12.705 -24.337  1.00 16.88 LIG-0.35  N 
ATOM     30  C   TRP E   1     -21.365 -12.642 -23.392  1.00 25.23 LIG 0.25  C 
ATOM     31 O    TRP E   1     -20.208 -13.029 -23.566  1.00 23.92 LIG-0.27  OA
ATOM     32 H    GLU E   2     -23.134 -12.561 -24.208  1.00 16.88 LIG 0.16  HD
BRANCH 30 33
ATOM     33  CA  TRP E   1     -21.786 -12.031 -22.067  1.00 23.48 LIG 0.28  C 
BRANCH 33 34
ATOM     34  N   TRP E   1     -20.845 -11.033 -21.570  1.00 27.44 LIG-0.07  N 
ATOM     35 H2   TRP E   1     -20.021 -11.371 -21.576  1.00 27.44 LIG 0.28  HD
ATOM     36 H1   TRP E   1     -21.065 -10.805 -20.738  1.00 27.44 LIG 0.28  HD
ATOM     37 H3   TRP E   1     -20.873 -10.312 -22.091  1.00 27.44 LIG 0.28  HD
ENDBRANCH 33 34
BRANCH 33 38
ATOM     38  CB  TRP E   1     -23.174 -11.415 -22.244  1.00 28.17 LIG 0.08  C 
BRANCH 38 39
ATOM     39  CG  TRP E   1     -23.883 -11.131 -20.971  1.00 25.63 LIG-0.03  A 
ATOM     40  CD1 TRP E   1     -23.568 -11.612 -19.732  1.00 24.31 LIG 0.10  A 
ATOM     41  NE1 TRP E   1     -24.447 -11.122 -18.799  1.00 27.21 LIG-0.36  N 
ATOM     42 HE1  TRP E   1     -24.438 -11.304 -17.958  1.00 27.21 LIG 0.17  HD
ATOM     43  CE2 TRP E   1     -25.343 -10.295 -19.427  1.00 24.74 LIG 0.04  A 
ATOM     44  CD2 TRP E   1     -25.012 -10.274 -20.796  1.00 19.22 LIG-0.00  A 
ATOM     45  CZ2 TRP E   1     -26.406  -9.556 -18.903  1.00 22.29 LIG 0.03  A 
ATOM     46  CE3 TRP E   1     -25.781  -9.496 -21.664  1.00 22.29 LIG 0.01  A 
ATOM     47  CZ3 TRP E   1     -26.829  -8.768 -21.145  1.00 20.39 LIG 0.00  A 
ATOM     48  CH2 TRP E   1     -27.135  -8.806 -19.785  1.00 19.87 LIG 0.00  A 
ENDBRANCH 38 39
ENDBRANCH 33 38
ENDBRANCH 30 33
ENDBRANCH 1 29
TORSDOF 18
ENDMDL
MODEL 5
USER: ADFR SOLUTION from run 112
USER: SCORE 19.063757 LL:  -3.194 LR: -16.424 RR:   0.000 FEB: -11.055
USER: RMSD 3.822710
USER: SEED 111
USER: STATUS no improvement in best in 6 clusters for 5 generations
USER: GENES 20
USER: genes 0 Translation |==|  0.46981 0.36879 0.58939
USER: genes 1 Rotation |==|  0.40757 0.54733 0.53877 0.98756
USER: genes 2 Torsion [N]-CA--C-[N] |==|  0.38588
USER: genes 3 Torsion [C]-N--CA-[C] |==|  0.72726
USER: genes 4 Torsion [N]-CA--C-[N] |==|  0.85710
USER: genes 5 Torsion [C]-N--CA-[CB] |==|  0.17117
USER: genes 6 Torsion [N]-CA--CB-[CG] |==|  0.69543
USER: genes 7 Torsion [CA]-CB--CG-[CD1] |==|  0.37046
USER: genes 8 Torsion [N]-CA--C-[OXT] |==|  0.80709
USER: genes 9 Torsion [N]-CA--CB-[CG] |==|  0.46349
USER: genes 10 Torsion [CA]-CB--CG-[CD] |==|  0.34220
USER: genes 11 Torsion [CB]-CG--CD-[OE2] |==|  0.03723
USER: genes 12 Torsion [C]-CA--CB-[CG] |==|  0.72344
USER: genes 13 Torsion [CA]-CB--CG-[CD] |==|  0.51570
USER: genes 14 Torsion [CB]-CG--CD-[OE1] |==|  0.18885
USER: genes 15 Torsion [C]-CA--N-[C] |==|  0.60859
USER: genes 16 Torsion [N]-C--CA-[N] |==|  0.50132
USER: genes 17 Torsion [C]-CA--N-[H2] |==|  0.93432
USER: genes 18 Torsion [C]-CA--CB-[CG] |==|  0.34580
USER: genes 19 Torsion [CA]-CB--CG-[CD1] |==|  0.24119
ROOT
ATOM      1  CA  GLU E   2     -22.532 -13.672 -22.204  1.00 18.96 LIG 0.18  C 
ENDROOT
BRANCH 1 2
ATOM      2  C   GLU E   2     -22.408 -12.375 -23.004  1.00 19.39 LIG 0.24  C 
ATOM      3 O    GLU E   2     -23.324 -11.568 -23.025  1.00 16.83 LIG-0.27  OA
ATOM      4  N   GLU E   3     -21.249 -12.145 -23.614  1.00 20.18 LIG-0.35  N 
ATOM      5 H    GLU E   3     -20.590 -12.698 -23.631  1.00 20.18 LIG 0.16  HD
BRANCH 4 6
ATOM      6  CA  GLU E   3     -21.015 -10.885 -24.321  1.00 16.65 LIG 0.18  C 
BRANCH 6 7
ATOM      7  C   GLU E   3     -21.257 -11.066 -25.821  1.00 17.64 LIG 0.24  C 
ATOM      8 O    GLU E   3     -21.989 -10.284 -26.436  1.00 25.54 LIG-0.27  OA
ATOM      9  N   LEU E   4     -20.628 -12.079 -26.413  1.00 17.38 LIG-0.34  N 
ATOM     10 H    LEU E   4     -20.126 -12.646 -26.006  1.00 17.38 LIG 0.16  HD
BRANCH 9 11
ATOM     11  CA  LEU E   4     -20.762 -12.294 -27.848  1.00 18.86 LIG 0.18  C 
BRANCH 11 12
ATOM     12  CB  LEU E   4     -20.222 -11.095 -28.627  1.00 23.62 LIG 0.04  C 
BRANCH 12 13
ATOM     13  CG  LEU E   4     -21.238 -10.212 -29.350  1.00 21.70 LIG-0.02  C 
ATOM     14  CD2 LEU E   4     -21.221 -10.467 -30.848  1.00 23.28 LIG 0.01  C 
ATOM     15  CD1 LEU E   4     -20.937  -8.743 -29.063  1.00 18.19 LIG 0.01  C 
ENDBRANCH 12 13
ENDBRANCH 11 12
BRANCH 11 16
ATOM     16  C   LEU E   4     -20.036 -13.571 -28.273  1.00 26.72 LIG 0.20  C 
ATOM     17 OXT  LEU E   4     -18.802 -13.664 -28.261  1.00 25.91 LIG-0.65  OA
ATOM     18 O    LEU E   4     -20.681 -14.549 -28.648  1.00 22.73 LIG-0.65  OA
ENDBRANCH 11 16
ENDBRANCH 9 11
ENDBRANCH 6 7
BRANCH 6 19
ATOM     19  CB  GLU E   3     -19.592 -10.382 -24.055  1.00 17.46 LIG 0.04  C 
BRANCH 19 20
ATOM     20  CG  GLU E   3     -19.161  -9.259 -24.994  1.00 17.22 LIG 0.12  C 
BRANCH 20 21
ATOM     21  CD  GLU E   3     -18.738  -8.014 -24.246  1.00 22.54 LIG 0.17  C 
ATOM     22 OE2  GLU E   3     -18.531  -8.085 -23.011  1.00 22.26 LIG-0.65  OA
ATOM     23 OE1  GLU E   3     -18.615  -6.960 -24.898  1.00 23.90 LIG-0.65  OA
ENDBRANCH 20 21
ENDBRANCH 19 20
ENDBRANCH 6 19
ENDBRANCH 4 6
ENDBRANCH 1 2
BRANCH 1 24
ATOM     24  CB  GLU E   2     -23.256 -14.773 -22.993  1.00 24.38 LIG 0.04  C 
BRANCH 24 25
ATOM     25  CG  GLU E   2     -24.741 -14.951 -22.637  1.00 27.62 LIG 0.12  C 
BRANCH 25 26
ATOM     26  CD  GLU E   2     -25.401 -16.140 -23.337  1.00 34.01 LIG 0.17  C 
ATOM     27 OE2  GLU E   2     -26.277 -15.909 -24.202  1.00 31.63 LIG-0.65  OA
ATOM     28 OE1  GLU E   2     -25.048 -17.301 -23.023  1.00 33.59 LIG-0.65  OA
ENDBRANCH 25 26
ENDBRANCH 24 25
ENDBRANCH 1 24
BRANCH 1 29
ATOM     29  N   GLU E   2     -23.241 -13.340 -20.986  1.00 16.88 LIG-0.35  N 
ATOM     30  C   TRP E   1     -22.886 -13.894 -19.831  1.00 25.23 LIG 0.25  C 
ATOM     31 O    TRP E   1     -22.086 -14.829 -19.755  1.00 23.92 LIG-0.27  OA
ATOM     32 H    GLU E   2     -23.883 -12.777 -21.080  1.00 16.88 LIG 0.16  HD
BRANCH 30 33
ATOM     33  CA  TRP E   1     -23.495 -13.293 -18.576  1.00 23.48 LIG 0.28  C 
BRANCH 33 34
ATOM     34  N   TRP E   1     -23.049 -13.947 -17.351  1.00 27.44 LIG-0.07  N 
ATOM     35 H2   TRP E   1     -22.778 -14.775 -17.536  1.00 27.44 LIG 0.28  HD
ATOM     36 H1   TRP E   1     -23.721 -13.979 -16.769  1.00 27.44 LIG 0.28  HD
ATOM     37 H3   TRP E   1     -22.373 -13.487 -16.998  1.00 27.44 LIG 0.28  HD
ENDBRANCH 33 34
BRANCH 33 38
ATOM     38  CB  TRP E   1     -23.150 -11.804 -18.543  1.00 28.17 LIG 0.08  C 
BRANCH 38 39
ATOM     39  CG  TRP E   1     -24.327 -10.907 -18.433  1.00 25.63 LIG-0.03  A 
ATOM     40  CD1 TRP E   1     -24.944 -10.500 -17.283  1.00 24.31 LIG 0.10  A 
ATOM     41  NE1 TRP E   1     -25.994  -9.668 -17.581  1.00 27.21 LIG-0.36  N 
ATOM     42 HE1  TRP E   1     -26.522  -9.305 -17.008  1.00 27.21 LIG 0.17  HD
ATOM     43  CE2 TRP E   1     -26.061  -9.510 -18.942  1.00 24.74 LIG 0.04  A 
ATOM     44  CD2 TRP E   1     -25.022 -10.274 -19.508  1.00 19.22 LIG-0.00  A 
ATOM     45  CZ2 TRP E   1     -26.940  -8.751 -19.718  1.00 22.29 LIG 0.03  A 
ATOM     46  CE3 TRP E   1     -24.871 -10.283 -20.897  1.00 22.29 LIG 0.01  A 
ATOM     47  CZ3 TRP E   1     -25.739  -9.534 -21.660  1.00 20.39 LIG 0.00  A 
ATOM     48  CH2 TRP E   1     -26.760  -8.786 -21.074  1.00 19.87 LIG 0.00  A 
ENDBRANCH 38 39
ENDBRANCH 33 38
ENDBRANCH 30 33
ENDBRANCH 1 29
TORSDOF 18
ENDMDL
MODEL 6
USER: ADFR SOLUTION from run 61
USER: SCORE 18.133734 LL:  -2.527 LR: -16.097 RR:   0.000 FEB: -10.727
USER: RMSD 5.530105
USER: SEED 60
USER: STATUS no improvement in best in 5 clusters for 5 generations
USER: GENES 20
USER: genes 0 Translation |==|  0.56199 0.54796 0.53188
USER: genes 1 Rotation |==|  0.26706 0.34000 0.86131 0.69899
USER: genes 2 Torsion [N]-CA--C-[N] |==|  0.88482
USER: genes 3 Torsion [C]-N--CA-[C] |==|  0.51740
USER: genes 4 Torsion [N]-CA--C-[N] |==|  0.49391
USER: genes 5 Torsion [C]-N--CA-[CB] |==|  0.41516
USER: genes 6 Torsion [N]-CA--CB-[CG] |==|  0.31706
USER: genes 7 Torsion [CA]-CB--CG-[CD1] |==|  0.32383
USER: genes 8 Torsion [N]-CA--C-[OXT] |==|  0.39606
USER: genes 9 Torsion [N]-CA--CB-[CG] |==|  0.08986
USER: genes 10 Torsion [CA]-CB--CG-[CD] |==|  0.30443
USER: genes 11 Torsion [CB]-CG--CD-[OE2] |==|  0.02976
USER: genes 12 Torsion [C]-CA--CB-[CG] |==|  0.15801
USER: genes 13 Torsion [CA]-CB--CG-[CD] |==|  0.20044
USER: genes 14 Torsion [CB]-CG--CD-[OE1] |==|  0.12463
USER: genes 15 Torsion [C]-CA--N-[C] |==|  0.80108
USER: genes 16 Torsion [N]-C--CA-[N] |==|  0.83614
USER: genes 17 Torsion [C]-CA--N-[H2] |==|  0.29712
USER: genes 18 Torsion [C]-CA--CB-[CG] |==|  0.26659
USER: genes 19 Torsion [CA]-CB--CG-[CD1] |==|  0.43778
ROOT
ATOM      1  CA  GLU E   2     -20.873 -10.582 -23.455  1.00 18.96 LIG 0.18  C 
ENDROOT
BRANCH 1 2
ATOM      2  C   GLU E   2     -21.175 -10.867 -24.927  1.00 19.39 LIG 0.24  C 
ATOM      3 O    GLU E   2     -21.239  -9.956 -25.735  1.00 16.83 LIG-0.27  OA
ATOM      4  N   GLU E   3     -21.301 -12.142 -25.285  1.00 20.18 LIG-0.35  N 
ATOM      5 H    GLU E   3     -21.276 -12.806 -24.739  1.00 20.18 LIG 0.16  HD
BRANCH 4 6
ATOM      6  CA  GLU E   3     -21.496 -12.505 -26.689  1.00 16.65 LIG 0.18  C 
BRANCH 6 7
ATOM      7  C   GLU E   3     -21.766 -14.005 -26.817  1.00 17.64 LIG 0.24  C 
ATOM      8 O    GLU E   3     -21.773 -14.728 -25.814  1.00 25.54 LIG-0.27  OA
ATOM      9  N   LEU E   4     -22.008 -14.471 -28.040  1.00 17.38 LIG-0.34  N 
ATOM     10 H    LEU E   4     -21.994 -13.994 -28.755  1.00 17.38 LIG 0.16  HD
BRANCH 9 11
ATOM     11  CA  LEU E   4     -22.324 -15.879 -28.246  1.00 18.86 LIG 0.18  C 
BRANCH 11 12
ATOM     12  CB  LEU E   4     -23.251 -16.055 -29.448  1.00 23.62 LIG 0.04  C 
BRANCH 12 13
ATOM     13  CG  LEU E   4     -22.693 -16.798 -30.662  1.00 21.70 LIG-0.02  C 
ATOM     14  CD2 LEU E   4     -22.739 -15.929 -31.907  1.00 23.28 LIG 0.01  C 
ATOM     15  CD1 LEU E   4     -23.489 -18.082 -30.886  1.00 18.19 LIG 0.01  C 
ENDBRANCH 12 13
ENDBRANCH 11 12
BRANCH 11 16
ATOM     16  C   LEU E   4     -21.047 -16.697 -28.437  1.00 26.72 LIG 0.20  C 
ATOM     17 OXT  LEU E   4     -20.920 -17.839 -27.978  1.00 25.91 LIG-0.65  OA
ATOM     18 O    LEU E   4     -20.099 -16.221 -29.060  1.00 22.73 LIG-0.65  OA
ENDBRANCH 11 16
ENDBRANCH 9 11
ENDBRANCH 6 7
BRANCH 6 19
ATOM     19  CB  GLU E   3     -20.272 -12.098 -27.519  1.00 17.46 LIG 0.04  C 
BRANCH 19 20
ATOM     20  CG  GLU E   3     -18.961 -12.179 -26.742  1.00 17.22 LIG 0.12  C 
BRANCH 20 21
ATOM     21  CD  GLU E   3     -18.080 -13.314 -27.216  1.00 22.54 LIG 0.17  C 
ATOM     22 OE2  GLU E   3     -18.379 -13.917 -28.273  1.00 22.26 LIG-0.65  OA
ATOM     23 OE1  GLU E   3     -17.085 -13.602 -26.524  1.00 23.90 LIG-0.65  OA
ENDBRANCH 20 21
ENDBRANCH 19 20
ENDBRANCH 6 19
ENDBRANCH 4 6
ENDBRANCH 1 2
BRANCH 1 24
ATOM     24  CB  GLU E   2     -19.384 -10.757 -23.125  1.00 24.38 LIG 0.04  C 
BRANCH 24 25
ATOM     25  CG  GLU E   2     -18.431  -9.895 -23.968  1.00 27.62 LIG 0.12  C 
BRANCH 25 26
ATOM     26  CD  GLU E   2     -18.471  -8.408 -23.613  1.00 34.01 LIG 0.17  C 
ATOM     27 OE2  GLU E   2     -18.511  -7.575 -24.546  1.00 31.63 LIG-0.65  OA
ATOM     28 OE1  GLU E   2     -18.462  -8.072 -22.405  1.00 33.59 LIG-0.65  OA
ENDBRANCH 25 26
ENDBRANCH 24 25
ENDBRANCH 1 24
BRANCH 1 29
ATOM     29  N   GLU E   2     -21.697 -11.487 -22.681  1.00 16.88 LIG-0.35  N 
ATOM     30  C   TRP E   1     -23.012 -11.301 -22.608  1.00 25.23 LIG 0.25  C 
ATOM     31 O    TRP E   1     -23.567 -10.282 -23.023  1.00 23.92 LIG-0.27  OA
ATOM     32 H    GLU E   2     -21.272 -12.124 -22.292  1.00 16.88 LIG 0.16  HD
BRANCH 30 33
ATOM     33  CA  TRP E   1     -23.823 -12.436 -22.009  1.00 23.48 LIG 0.28  C 
BRANCH 33 34
ATOM     34  N   TRP E   1     -23.673 -13.694 -22.732  1.00 27.44 LIG-0.07  N 
ATOM     35 H2   TRP E   1     -23.175 -14.255 -22.254  1.00 27.44 LIG 0.28  HD
ATOM     36 H1   TRP E   1     -23.278 -13.541 -23.515  1.00 27.44 LIG 0.28  HD
ATOM     37 H3   TRP E   1     -24.475 -14.055 -22.871  1.00 27.44 LIG 0.28  HD
ENDBRANCH 33 34
BRANCH 33 38
ATOM     38  CB  TRP E   1     -23.401 -12.606 -20.549  1.00 28.17 LIG 0.08  C 
BRANCH 38 39
ATOM     39  CG  TRP E   1     -24.273 -11.903 -19.575  1.00 25.63 LIG-0.03  A 
ATOM     40  CD1 TRP E   1     -24.421 -12.193 -18.248  1.00 24.31 LIG 0.10  A 
ATOM     41  NE1 TRP E   1     -25.309 -11.319 -17.672  1.00 27.21 LIG-0.36  N 
ATOM     42 HE1  TRP E   1     -25.555 -11.327 -16.847  1.00 27.21 LIG 0.17  HD
ATOM     43  CE2 TRP E   1     -25.739 -10.432 -18.625  1.00 24.74 LIG 0.04  A 
ATOM     44  CD2 TRP E   1     -25.101 -10.769 -19.835  1.00 19.22 LIG-0.00  A 
ATOM     45  CZ2 TRP E   1     -26.624  -9.357 -18.520  1.00 22.29 LIG 0.03  A 
ATOM     46  CE3 TRP E   1     -25.372 -10.009 -20.975  1.00 22.29 LIG 0.01  A 
ATOM     47  CZ3 TRP E   1     -26.244  -8.948 -20.869  1.00 20.39 LIG 0.00  A 
ATOM     48  CH2 TRP E   1     -26.862  -8.636 -19.659  1.00 19.87 LIG 0.00  A 
ENDBRANCH 38 39
ENDBRANCH 33 38
ENDBRANCH 30 33
ENDBRANCH 1 29
TORSDOF 18
ENDMDL
MODEL 7
USER: ADFR SOLUTION from run 132
USER: SCORE 19.945104 LL:  -4.229 LR: -15.934 RR:   0.000 FEB: -10.565
USER: RMSD 9.552142
USER: SEED 131
USER: STATUS no improvement in best in 4 clusters for 5 generations
USER: GENES 20
USER: genes 0 Translation |==|  0.62920 0.53881 0.42162
USER: genes 1 Rotation |==|  0.13156 0.82352 0.55845 0.57856
USER: genes 2 Torsion [N]-CA--C-[N] |==|  0.46067
USER: genes 3 Torsion [C]-N--CA-[C] |==|  0.62640
USER: genes 4 Torsion [N]-CA--C-[N] |==|  0.46820
USER: genes 5 Torsion [C]-N--CA-[CB] |==|  0.18359
USER: genes 6 Torsion [N]-CA--CB-[CG] |==|  0.63487
USER: genes 7 Torsion [CA]-CB--CG-[CD1] |==|  0.73054
USER: genes 8 Torsion [N]-CA--C-[OXT] |==|  0.95986
USER: genes 9 Torsion [N]-CA--CB-[CG] |==|  0.09166
USER: genes 10 Torsion [CA]-CB--CG-[CD] |==|  0.74516
USER: genes 11 Torsion [CB]-CG--CD-[OE2] |==|  0.93312
USER: genes 12 Torsion [C]-CA--CB-[CG] |==|  0.74384
USER: genes 13 Torsion [CA]-CB--CG-[CD] |==|  0.77162
USER: genes 14 Torsion [CB]-CG--CD-[OE1] |==|  0.81410
USER: genes 15 Torsion [C]-CA--N-[C] |==|  0.75001
USER: genes 16 Torsion [N]-C--CA-[N] |==|  0.14682
USER: genes 17 Torsion [C]-CA--N-[H2] |==|  0.94762
USER: genes 18 Torsion [C]-CA--CB-[CG] |==|  0.19803
USER: genes 19 Torsion [CA]-CB--CG-[CD1] |==|  0.64772
ROOT
ATOM      1  CA  GLU E   2     -19.663 -10.739 -25.853  1.00 18.96 LIG 0.18  C 
ENDROOT
BRANCH 1 2
ATOM      2  C   GLU E   2     -21.043 -11.395 -25.927  1.00 19.39 LIG 0.24  C 
ATOM      3 O    GLU E   2     -22.010 -10.762 -26.319  1.00 16.83 LIG-0.27  OA
ATOM      4  N   GLU E   3     -21.122 -12.683 -25.608  1.00 20.18 LIG-0.35  N 
ATOM      5 H    GLU E   3     -20.465 -13.154 -25.315  1.00 20.18 LIG 0.16  HD
BRANCH 4 6
ATOM      6  CA  GLU E   3     -22.387 -13.408 -25.743  1.00 16.65 LIG 0.18  C 
BRANCH 6 7
ATOM      7  C   GLU E   3     -22.648 -14.255 -24.497  1.00 17.64 LIG 0.24  C 
ATOM      8 O    GLU E   3     -21.764 -14.411 -23.648  1.00 25.54 LIG-0.27  OA
ATOM      9  N   LEU E   4     -23.864 -14.784 -24.374  1.00 17.38 LIG-0.34  N 
ATOM     10 H    LEU E   4     -24.491 -14.704 -24.955  1.00 17.38 LIG 0.16  HD
BRANCH 9 11
ATOM     11  CA  LEU E   4     -24.214 -15.563 -23.193  1.00 18.86 LIG 0.18  C 
BRANCH 11 12
ATOM     12  CB  LEU E   4     -24.225 -14.680 -21.945  1.00 23.62 LIG 0.04  C 
BRANCH 12 13
ATOM     13  CG  LEU E   4     -23.475 -15.191 -20.716  1.00 21.70 LIG-0.02  C 
ATOM     14  CD2 LEU E   4     -22.371 -16.158 -21.108  1.00 23.28 LIG 0.01  C 
ATOM     15  CD1 LEU E   4     -24.457 -15.871 -19.764  1.00 18.19 LIG 0.01  C 
ENDBRANCH 12 13
ENDBRANCH 11 12
BRANCH 11 16
ATOM     16  C   LEU E   4     -25.574 -16.238 -23.375  1.00 26.72 LIG 0.20  C 
ATOM     17 OXT  LEU E   4     -26.358 -15.910 -24.275  1.00 25.91 LIG-0.65  OA
ATOM     18 O    LEU E   4     -25.923 -17.136 -22.610  1.00 22.73 LIG-0.65  OA
ENDBRANCH 11 16
ENDBRANCH 9 11
ENDBRANCH 6 7
BRANCH 6 19
ATOM     19  CB  GLU E   3     -22.365 -14.283 -27.003  1.00 17.46 LIG 0.04  C 
BRANCH 19 20
ATOM     20  CG  GLU E   3     -20.981 -14.833 -27.334  1.00 17.22 LIG 0.12  C 
BRANCH 20 21
ATOM     21  CD  GLU E   3     -20.213 -13.930 -28.273  1.00 22.54 LIG 0.17  C 
ATOM     22 OE2  GLU E   3     -20.846 -13.150 -29.023  1.00 22.26 LIG-0.65  OA
ATOM     23 OE1  GLU E   3     -18.969 -14.004 -28.261  1.00 23.90 LIG-0.65  OA
ENDBRANCH 20 21
ENDBRANCH 19 20
ENDBRANCH 6 19
ENDBRANCH 4 6
ENDBRANCH 1 2
BRANCH 1 24
ATOM     24  CB  GLU E   2     -19.193 -10.541 -24.404  1.00 24.38 LIG 0.04  C 
BRANCH 24 25
ATOM     25  CG  GLU E   2     -19.549  -9.178 -23.792  1.00 27.62 LIG 0.12  C 
BRANCH 25 26
ATOM     26  CD  GLU E   2     -18.574  -8.062 -24.170  1.00 34.01 LIG 0.17  C 
ATOM     27 OE2  GLU E   2     -18.989  -7.131 -24.898  1.00 31.63 LIG-0.65  OA
ATOM     28 OE1  GLU E   2     -17.396  -8.115 -23.745  1.00 33.59 LIG-0.65  OA
ENDBRANCH 25 26
ENDBRANCH 24 25
ENDBRANCH 1 24
BRANCH 1 29
ATOM     29  N   GLU E   2     -19.767  -9.476 -26.553  1.00 16.88 LIG-0.35  N 
ATOM     30  C   TRP E   1     -19.516  -9.410 -27.857  1.00 25.23 LIG 0.25  C 
ATOM     31 O    TRP E   1     -19.017 -10.342 -28.490  1.00 23.92 LIG-0.27  OA
ATOM     32 H    GLU E   2     -19.996  -8.807 -26.065  1.00 16.88 LIG 0.16  HD
BRANCH 30 33
ATOM     33  CA  TRP E   1     -19.908  -8.121 -28.557  1.00 23.48 LIG 0.28  C 
BRANCH 33 34
ATOM     34  N   TRP E   1     -19.364  -6.930 -27.913  1.00 27.44 LIG-0.07  N 
ATOM     35 H2   TRP E   1     -19.125  -7.126 -27.078  1.00 27.44 LIG 0.28  HD
ATOM     36 H1   TRP E   1     -19.982  -6.290 -27.901  1.00 27.44 LIG 0.28  HD
ATOM     37 H3   TRP E   1     -18.652  -6.646 -28.366  1.00 27.44 LIG 0.28  HD
ENDBRANCH 33 34
BRANCH 33 38
ATOM     38  CB  TRP E   1     -19.440  -8.204 -30.010  1.00 28.17 LIG 0.08  C 
BRANCH 38 39
ATOM     39  CG  TRP E   1     -20.213  -9.153 -30.848  1.00 25.63 LIG-0.03  A 
ATOM     40  CD1 TRP E   1     -19.713 -10.170 -31.612  1.00 24.31 LIG 0.10  A 
ATOM     41  NE1 TRP E   1     -20.736 -10.836 -32.238  1.00 27.21 LIG-0.36  N 
ATOM     42 HE1  TRP E   1     -20.645 -11.503 -32.773  1.00 27.21 LIG 0.17  HD
ATOM     43  CE2 TRP E   1     -21.927 -10.264 -31.870  1.00 24.74 LIG 0.04  A 
ATOM     44  CD2 TRP E   1     -21.633  -9.204 -30.991  1.00 19.22 LIG-0.00  A 
ATOM     45  CZ2 TRP E   1     -23.235 -10.600 -32.228  1.00 22.29 LIG 0.03  A 
ATOM     46  CE3 TRP E   1     -22.687  -8.452 -30.466  1.00 22.29 LIG 0.01  A 
ATOM     47  CZ3 TRP E   1     -23.976  -8.784 -30.819  1.00 20.39 LIG 0.00  A 
ATOM     48  CH2 TRP E   1     -24.239  -9.839 -31.692  1.00 19.87 LIG 0.00  A 
ENDBRANCH 38 39
ENDBRANCH 33 38
ENDBRANCH 30 33
ENDBRANCH 1 29
TORSDOF 18
ENDMDL
MODEL 8
USER: ADFR SOLUTION from run 81
USER: SCORE 17.689756 LL:  -2.827 LR: -15.834 RR:   0.000 FEB: -10.464
USER: RMSD 5.197693
USER: SEED 80
USER: STATUS 1 or 2 clusters left
USER: GENES 20
USER: genes 0 Translation |==|  0.56296 0.57323 0.43668
USER: genes 1 Rotation |==|  0.26579 0.33644 0.85560 0.70481
USER: genes 2 Torsion [N]-CA--C-[N] |==|  0.41194
USER: genes 3 Torsion [C]-N--CA-[C] |==|  0.62659
USER: genes 4 Torsion [N]-CA--C-[N] |==|  0.21419
USER: genes 5 Torsion [C]-N--CA-[CB] |==|  0.26772
USER: genes 6 Torsion [N]-CA--CB-[CG] |==|  0.77679
USER: genes 7 Torsion [CA]-CB--CG-[CD1] |==|  0.89552
USER: genes 8 Torsion [N]-CA--C-[OXT] |==|  0.73910
USER: genes 9 Torsion [N]-CA--CB-[CG] |==|  0.47421
USER: genes 10 Torsion [CA]-CB--CG-[CD] |==|  0.17814
USER: genes 11 Torsion [CB]-CG--CD-[OE2] |==|  0.78759
USER: genes 12 Torsion [C]-CA--CB-[CG] |==|  0.22366
USER: genes 13 Torsion [CA]-CB--CG-[CD] |==|  0.21740
USER: genes 14 Torsion [CB]-CG--CD-[OE1] |==|  0.66587
USER: genes 15 Torsion [C]-CA--N-[C] |==|  0.51667
USER: genes 16 Torsion [N]-C--CA-[N] |==|  0.11179
USER: genes 17 Torsion [C]-CA--N-[H2] |==|  0.20488
USER: genes 18 Torsion [C]-CA--CB-[CG] |==|  0.33685
USER: genes 19 Torsion [CA]-CB--CG-[CD1] |==|  0.46814
ROOT
ATOM      1  CA  GLU E   2     -20.856 -10.146 -25.525  1.00 18.96 LIG 0.18  C 
ENDROOT
BRANCH 1 2
ATOM      2  C   GLU E   2     -21.145 -10.386 -27.008  1.00 19.39 LIG 0.24  C 
ATOM      3 O    GLU E   2     -21.518 -11.481 -27.398  1.00 16.83 LIG-0.27  OA
ATOM      4  N   GLU E   3     -21.031  -9.344 -27.826  1.00 20.18 LIG-0.35  N 
ATOM      5 H    GLU E   3     -20.757  -8.565 -27.587  1.00 20.18 LIG 0.16  HD
BRANCH 4 6
ATOM      6  CA  GLU E   3     -21.381  -9.467 -29.242  1.00 16.65 LIG 0.18  C 
BRANCH 6 7
ATOM      7  C   GLU E   3     -20.302  -8.821 -30.113  1.00 17.64 LIG 0.24  C 
ATOM      8 O    GLU E   3     -20.480  -7.700 -30.602  1.00 25.54 LIG-0.27  OA
ATOM      9  N   LEU E   4     -19.178  -9.512 -30.289  1.00 17.38 LIG-0.34  N 
ATOM     10 H    LEU E   4     -19.034 -10.298 -29.973  1.00 17.38 LIG 0.16  HD
BRANCH 9 11
ATOM     11  CA  LEU E   4     -18.078  -8.949 -31.063  1.00 18.86 LIG 0.18  C 
BRANCH 11 12
ATOM     12  CB  LEU E   4     -17.046  -8.298 -30.142  1.00 23.62 LIG 0.04  C 
BRANCH 12 13
ATOM     13  CG  LEU E   4     -17.354  -6.893 -29.625  1.00 21.70 LIG-0.02  C 
ATOM     14  CD2 LEU E   4     -18.233  -6.943 -28.387  1.00 23.28 LIG 0.01  C 
ATOM     15  CD1 LEU E   4     -18.037  -6.081 -30.724  1.00 18.19 LIG 0.01  C 
ENDBRANCH 12 13
ENDBRANCH 11 12
BRANCH 11 16
ATOM     16  C   LEU E   4     -17.416 -10.026 -31.922  1.00 26.72 LIG 0.20  C 
ATOM     17 OXT  LEU E   4     -16.424 -10.659 -31.538  1.00 25.91 LIG-0.65  OA
ATOM     18 O    LEU E   4     -17.863 -10.285 -33.038  1.00 22.73 LIG-0.65  OA
ENDBRANCH 11 16
ENDBRANCH 9 11
ENDBRANCH 6 7
BRANCH 6 19
ATOM     19  CB  GLU E   3     -22.750  -8.830 -29.508  1.00 17.46 LIG 0.04  C 
BRANCH 19 20
ATOM     20  CG  GLU E   3     -23.086  -8.716 -30.993  1.00 17.22 LIG 0.12  C 
BRANCH 20 21
ATOM     21  CD  GLU E   3     -23.213 -10.068 -31.659  1.00 22.54 LIG 0.17  C 
ATOM     22 OE2  GLU E   3     -22.173 -10.711 -31.938  1.00 22.26 LIG-0.65  OA
ATOM     23 OE1  GLU E   3     -24.360 -10.488 -31.905  1.00 23.90 LIG-0.65  OA
ENDBRANCH 20 21
ENDBRANCH 19 20
ENDBRANCH 6 19
ENDBRANCH 4 6
ENDBRANCH 1 2
BRANCH 1 24
ATOM     24  CB  GLU E   2     -19.375 -10.361 -25.182  1.00 24.38 LIG 0.04  C 
BRANCH 24 25
ATOM     25  CG  GLU E   2     -18.456  -9.177 -25.522  1.00 27.62 LIG 0.12  C 
BRANCH 25 26
ATOM     26  CD  GLU E   2     -18.526  -8.034 -24.507  1.00 34.01 LIG 0.17  C 
ATOM     27 OE2  GLU E   2     -18.228  -8.278 -23.316  1.00 31.63 LIG-0.65  OA
ATOM     28 OE1  GLU E   2     -18.881  -6.897 -24.898  1.00 33.59 LIG-0.65  OA
ENDBRANCH 25 26
ENDBRANCH 24 25
ENDBRANCH 1 24
BRANCH 1 29
ATOM     29  N   GLU E   2     -21.708 -11.053 -24.785  1.00 16.88 LIG-0.35  N 
ATOM     30  C   TRP E   1     -21.763 -10.989 -23.459  1.00 25.23 LIG 0.25  C 
ATOM     31 O    TRP E   1     -20.984 -10.310 -22.789  1.00 23.92 LIG-0.27  OA
ATOM     32 H    GLU E   2     -22.153 -11.609 -25.267  1.00 16.88 LIG 0.16  HD
BRANCH 30 33
ATOM     33  CA  TRP E   1     -22.872 -11.782 -22.789  1.00 23.48 LIG 0.28  C 
BRANCH 33 34
ATOM     34  N   TRP E   1     -23.090 -13.090 -23.397  1.00 27.44 LIG-0.07  N 
ATOM     35 H2   TRP E   1     -22.426 -13.639 -23.171  1.00 27.44 LIG 0.28  HD
ATOM     36 H1   TRP E   1     -23.116 -13.006 -24.283  1.00 27.44 LIG 0.28  HD
ATOM     37 H3   TRP E   1     -23.863 -13.426 -23.110  1.00 27.44 LIG 0.28  HD
ENDBRANCH 33 34
BRANCH 33 38
ATOM     38  CB  TRP E   1     -22.524 -11.934 -21.307  1.00 28.17 LIG 0.08  C 
BRANCH 38 39
ATOM     39  CG  TRP E   1     -23.540 -11.375 -20.382  1.00 25.63 LIG-0.03  A 
ATOM     40  CD1 TRP E   1     -23.605 -11.556 -19.029  1.00 24.31 LIG 0.10  A 
ATOM     41  NE1 TRP E   1     -24.681 -10.877 -18.514  1.00 27.21 LIG-0.36  N 
ATOM     42 HE1  TRP E   1     -24.913 -10.861 -17.686  1.00 27.21 LIG 0.17  HD
ATOM     43  CE2 TRP E   1     -25.324 -10.226 -19.536  1.00 24.74 LIG 0.04  A 
ATOM     44  CD2 TRP E   1     -24.627 -10.515 -20.726  1.00 19.22 LIG-0.00  A 
ATOM     45  CZ2 TRP E   1     -26.449  -9.399 -19.510  1.00 22.29 LIG 0.03  A 
ATOM     46  CE3 TRP E   1     -25.084  -9.965 -21.926  1.00 22.29 LIG 0.01  A 
ATOM     47  CZ3 TRP E   1     -26.194  -9.150 -21.898  1.00 20.39 LIG 0.00  A 
ATOM     48  CH2 TRP E   1     -26.865  -8.880 -20.706  1.00 19.87 LIG 0.00  A 
ENDBRANCH 38 39
ENDBRANCH 33 38
ENDBRANCH 30 33
ENDBRANCH 1 29
TORSDOF 18
ENDMDL
