MODEL 1
USER: ADFR SOLUTION from run 160
USER: SCORE 22.657111 LL:  -4.977 LR: -20.544 RR:   0.000 FEB: -12.490
USER: RMSD 1.784724
USER: SEED 159
USER: STATUS no improvement in best in 1 clusters for 5 generations
USER: GENES 29
USER: genes 0 Translation |==|  0.48330 0.49511 0.54622
USER: genes 1 Rotation |==|  0.49976 0.42771 0.45456 0.99266
USER: genes 2 Torsion [C]-N--CA-[CB] |==|  0.26124
USER: genes 3 Torsion [N]-CA--CB-[CG] |==|  0.49137
USER: genes 4 Torsion [CA]-CB--CG-[CD] |==|  0.42304
USER: genes 5 Torsion [CB]-CG--CD-[OE1] |==|  0.46448
USER: genes 6 Torsion [N]-CA--C-[N] |==|  0.40173
USER: genes 7 Torsion [C]-N--CA-[CB] |==|  0.24374
USER: genes 8 Torsion [N]-CA--CB-[CG2] |==|  0.45751
USER: genes 9 Torsion [CA]-CB--OG1-[HG1] |==|  0.17983
USER: genes 10 Torsion [N]-CA--C-[N] |==|  0.34012
USER: genes 11 Torsion [C]-N--CA-[CB] |==|  0.49444
USER: genes 12 Torsion [N]-CA--C-[N] |==|  0.42800
USER: genes 13 Torsion [C]-N--CA-[CB] |==|  0.24655
USER: genes 14 Torsion [N]-CA--CB-[CG1] |==|  0.69714
USER: genes 15 Torsion [N]-CA--C-[OXT] |==|  0.87805
USER: genes 16 Torsion [N]-C--CA-[N] |==|  0.46108
USER: genes 17 Torsion [C]-CA--N-[C] |==|  0.78448
USER: genes 18 Torsion [N]-C--CA-[N] |==|  0.26498
USER: genes 19 Torsion [C]-CA--N-[C] |==|  0.72966
USER: genes 20 Torsion [N]-C--CA-[N] |==|  0.97204
USER: genes 21 Torsion [C]-CA--CB-[CG] |==|  0.28533
USER: genes 22 Torsion [CA]-CB--CG-[CD] |==|  0.83197
USER: genes 23 Torsion [CB]-CG--CD-[OE1] |==|  0.22737
USER: genes 24 Torsion [C]-CA--CB-[CG] |==|  0.78444
USER: genes 25 Torsion [CA]-CB--CG-[OD2] |==|  0.48263
USER: genes 26 Torsion [C]-CA--CB-[CG] |==|  0.29578
USER: genes 27 Torsion [CA]-CB--CG-[CD] |==|  0.70219
USER: genes 28 Torsion [CB]-CG--CD-[NE2] |==|  0.60626
ROOT
ATOM      1  C   GLN P 203      48.414  23.685  63.333  1.00  9.42 LIG 0.24  C 
ATOM      2 O    GLN P 203      48.304  22.685  64.039  1.00  9.14 LIG-0.27  OA
ATOM      3  N   GLU P 204      48.334  23.670  62.006  1.00  8.86 LIG-0.35  N 
ATOM      4 H    GLU P 204      48.396  24.380  61.525  1.00  8.86 LIG 0.16  HD
ENDROOT
BRANCH 3 5
ATOM      5  CA  GLU P 204      48.135  22.460  61.234  1.00  8.20 LIG 0.18  C 
BRANCH 5 6
ATOM      6  CB  GLU P 204      46.642  22.250  60.949  1.00  8.38 LIG 0.04  C 
BRANCH 6 7
ATOM      7  CG  GLU P 204      46.342  21.045  60.081  1.00  8.68 LIG 0.12  C 
BRANCH 7 8
ATOM      8  CD  GLU P 204      44.978  20.436  60.312  1.00  9.48 LIG 0.17  C 
ATOM      9 OE2  GLU P 204      44.346  20.809  61.328  1.00  9.77 LIG-0.65  OA
ATOM     10 OE1  GLU P 204      44.520  19.591  59.495  1.00 12.74 LIG-0.65  OA
ENDBRANCH 7 8
ENDBRANCH 6 7
ENDBRANCH 5 6
BRANCH 5 11
ATOM     11  C   GLU P 204      48.925  22.563  59.933  1.00  7.44 LIG 0.24  C 
ATOM     12  N   THR P 205      49.459  21.433  59.482  1.00  7.26 LIG-0.34  N 
ATOM     13 H    THR P 205      49.337  20.669  59.858  1.00  7.26 LIG 0.16  HD
ATOM     14 O    GLU P 204      49.029  23.641  59.342  1.00  9.81 LIG-0.27  OA
BRANCH 12 15
ATOM     15  CA  THR P 205      50.316  21.380  58.291  1.00  8.42 LIG 0.20  C 
BRANCH 15 16
ATOM     16  CB  THR P 205      51.793  21.636  58.661  1.00  8.21 LIG 0.15  C 
ATOM     17  CG2 THR P 205      52.732  21.221  57.531  1.00 10.35 LIG 0.04  C 
BRANCH 16 18
ATOM     18 OG1  THR P 205      51.967  23.021  58.938  1.00  9.36 LIG-0.39  OA
ATOM     19 HG1  THR P 205      51.522  23.229  59.619  1.00  9.36 LIG 0.21  HD
ENDBRANCH 16 18
ENDBRANCH 15 16
BRANCH 15 20
ATOM     20  C   THR P 205      50.195  20.005  57.651  1.00  8.16 LIG 0.24  C 
ATOM     21  N   ALA P 206      49.796  19.958  56.378  1.00  8.68 LIG-0.35  N 
ATOM     22 H    ALA P 206      49.524  20.647  55.942  1.00  8.68 LIG 0.16  HD
ATOM     23 O    THR P 205      50.481  19.002  58.298  1.00  8.51 LIG-0.27  OA
BRANCH 21 24
ATOM     24  CA  ALA P 206      49.782  18.717  55.601  1.00  9.43 LIG 0.17  C 
ATOM     25  CB  ALA P 206      49.236  18.971  54.213  1.00 10.70 LIG 0.04  C 
BRANCH 24 26
ATOM     26  C   ALA P 206      51.199  18.182  55.494  1.00  8.67 LIG 0.24  C 
ATOM     27  N   VAL P 207      51.340  16.877  55.314  1.00  8.87 LIG-0.34  N 
ATOM     28 H    VAL P 207      50.676  16.333  55.260  1.00  8.87 LIG 0.16  HD
ATOM     29 O    ALA P 206      52.159  18.953  55.548  1.00 12.25 LIG-0.27  OA
BRANCH 27 30
ATOM     30  CA  VAL P 207      52.649  16.231  55.189  1.00 10.42 LIG 0.19  C 
BRANCH 30 31
ATOM     31  CB  VAL P 207      53.205  15.820  56.567  1.00 10.06 LIG 0.01  C 
ATOM     32  CG2 VAL P 207      52.130  15.880  57.635  1.00  9.34 LIG 0.01  C 
ATOM     33  CG1 VAL P 207      54.376  16.705  56.948  1.00 12.13 LIG 0.01  C 
ENDBRANCH 30 31
BRANCH 30 34
ATOM     34  C   VAL P 207      52.579  15.005  54.281  1.00 10.78 LIG 0.20  C 
ATOM     35 OXT  VAL P 207      51.639  14.182  54.377  1.00 11.55 LIG-0.65  OA
ATOM     36 O    VAL P 207      53.482  14.813  53.465  1.00 12.79 LIG-0.65  OA
ENDBRANCH 30 34
ENDBRANCH 27 30
ENDBRANCH 24 26
ENDBRANCH 21 24
ENDBRANCH 15 20
ENDBRANCH 12 15
ENDBRANCH 5 11
ENDBRANCH 3 5
BRANCH 1 37
ATOM     37  CA  GLN P 203      48.623  25.040  63.973  1.00 11.41 LIG 0.18  C 
BRANCH 37 38
ATOM     38  N   GLN P 203      48.344  24.870  65.391  1.00 12.67 LIG-0.35  N 
ATOM     39 H    GLN P 203      49.050  24.821  65.879  1.00 12.67 LIG 0.16  HD
ATOM     40  C   ASP P 202      47.120  24.798  65.881  1.00 21.18 LIG 0.24  C 
ATOM     41 O    ASP P 202      46.108  24.934  65.197  1.00 33.25 LIG-0.27  OA
BRANCH 40 42
ATOM     42  CA  ASP P 202      47.042  24.548  67.377  1.00 16.67 LIG 0.19  C 
BRANCH 42 43
ATOM     43  N   ASP P 202      46.899  25.812  68.092  1.00 26.09 LIG-0.34  N 
ATOM     44 H    ASP P 202      46.091  26.104  68.124  1.00 26.09 LIG 0.16  HD
ATOM     45  C   GLU P 201      47.930  26.449  68.640  1.00 35.13 LIG 0.26  C 
ATOM     46 O    GLU P 201      49.104  26.057  68.578  1.00 29.54 LIG-0.27  OA
BRANCH 45 47
ATOM     47  CA  GLU P 201      47.585  27.728  69.381  1.00 34.09 LIG 0.40  C 
ATOM     48  N   GLU P 201      46.199  28.099  69.121  1.00 44.06 LIG 0.61  N 
BRANCH 47 49
ATOM     49  CB  GLU P 201      47.822  27.532  70.873  1.00 39.23 LIG 0.06  C 
BRANCH 49 50
ATOM     50  CG  GLU P 201      49.099  28.172  71.365  1.00 50.88 LIG 0.12  C 
BRANCH 50 51
ATOM     51  CD  GLU P 201      50.326  27.612  70.688  1.00 53.24 LIG 0.17  C 
ATOM     52 OE1  GLU P 201      50.646  28.050  69.561  1.00 48.77 LIG-0.65  OA
ATOM     53 OE2  GLU P 201      50.961  26.709  71.268  1.00 60.00 LIG-0.65  OA
ENDBRANCH 50 51
ENDBRANCH 49 50
ENDBRANCH 47 49
ENDBRANCH 45 47
ENDBRANCH 42 43
BRANCH 42 54
ATOM     54  CB  ASP P 202      45.866  23.610  67.671  1.00 19.05 LIG 0.15  C 
BRANCH 54 55
ATOM     55  CG  ASP P 202      44.502  24.319  67.630  1.00 27.39 LIG 0.17  C 
ATOM     56 OD2  ASP P 202      43.466  23.626  67.737  1.00 38.79 LIG-0.65  OA
ATOM     57 OD1  ASP P 202      44.457  25.559  67.490  1.00 28.21 LIG-0.65  OA
ENDBRANCH 54 55
ENDBRANCH 42 54
ENDBRANCH 40 42
ENDBRANCH 37 38
BRANCH 37 58
ATOM     58  CB  GLN P 203      50.064  25.533  63.771  1.00 11.55 LIG 0.04  C 
BRANCH 58 59
ATOM     59  CG  GLN P 203      50.210  26.650  62.757  1.00 10.86 LIG 0.10  C 
BRANCH 59 60
ATOM     60  CD  GLN P 203      50.846  26.192  61.459  1.00 14.61 LIG 0.21  C 
ATOM     61  NE2 GLN P 203      51.691  27.045  60.890  1.00 16.54 LIG-0.37  N 
ATOM     62 21HE GLN P 203      51.835  27.812  61.250  1.00 16.54 LIG 0.16  HD
ATOM     63 22HE GLN P 203      52.092  26.830  60.161  1.00 16.54 LIG 0.16  HD
ATOM     64 OE1  GLN P 203      50.602  25.082  60.986  1.00 19.59 LIG-0.27  OA
ENDBRANCH 59 60
ENDBRANCH 58 59
ENDBRANCH 37 58
ENDBRANCH 1 37
TORSDOF 27
ENDMDL
MODEL 2
USER: ADFR SOLUTION from run 77
USER: SCORE 21.570605 LL:  -5.488 LR: -19.281 RR:   0.000 FEB: -11.226
USER: RMSD 4.051522
USER: SEED 76
USER: STATUS no improvement in best in 4 clusters for 5 generations
USER: GENES 29
USER: genes 0 Translation |==|  0.48018 0.49370 0.55088
USER: genes 1 Rotation |==|  0.49096 0.39786 0.43656 0.98524
USER: genes 2 Torsion [C]-N--CA-[CB] |==|  0.22340
USER: genes 3 Torsion [N]-CA--CB-[CG] |==|  0.47892
USER: genes 4 Torsion [CA]-CB--CG-[CD] |==|  0.46068
USER: genes 5 Torsion [CB]-CG--CD-[OE1] |==|  0.46409
USER: genes 6 Torsion [N]-CA--C-[N] |==|  0.41073
USER: genes 7 Torsion [C]-N--CA-[CB] |==|  0.23071
USER: genes 8 Torsion [N]-CA--CB-[CG2] |==|  0.48671
USER: genes 9 Torsion [CA]-CB--OG1-[HG1] |==|  0.22088
USER: genes 10 Torsion [N]-CA--C-[N] |==|  0.35903
USER: genes 11 Torsion [C]-N--CA-[CB] |==|  0.48573
USER: genes 12 Torsion [N]-CA--C-[N] |==|  0.44594
USER: genes 13 Torsion [C]-N--CA-[CB] |==|  0.22774
USER: genes 14 Torsion [N]-CA--CB-[CG1] |==|  0.72980
USER: genes 15 Torsion [N]-CA--C-[OXT] |==|  0.37861
USER: genes 16 Torsion [N]-C--CA-[N] |==|  0.44300
USER: genes 17 Torsion [C]-CA--N-[C] |==|  0.82246
USER: genes 18 Torsion [N]-C--CA-[N] |==|  0.81492
USER: genes 19 Torsion [C]-CA--N-[C] |==|  0.61111
USER: genes 20 Torsion [N]-C--CA-[N] |==|  0.20609
USER: genes 21 Torsion [C]-CA--CB-[CG] |==|  0.73074
USER: genes 22 Torsion [CA]-CB--CG-[CD] |==|  0.78419
USER: genes 23 Torsion [CB]-CG--CD-[OE1] |==|  0.81947
USER: genes 24 Torsion [C]-CA--CB-[CG] |==|  0.70732
USER: genes 25 Torsion [CA]-CB--CG-[OD2] |==|  0.32631
USER: genes 26 Torsion [C]-CA--CB-[CG] |==|  0.22219
USER: genes 27 Torsion [CA]-CB--CG-[CD] |==|  0.11043
USER: genes 28 Torsion [CB]-CG--CD-[NE2] |==|  0.58435
ROOT
ATOM      1  C   GLN P 203      48.358  23.648  63.456  1.00  9.42 LIG 0.24  C 
ATOM      2 O    GLN P 203      48.086  22.688  64.173  1.00  9.14 LIG-0.27  OA
ATOM      3  N   GLU P 204      48.433  23.587  62.130  1.00  8.86 LIG-0.35  N 
ATOM      4 H    GLU P 204      48.608  24.270  61.637  1.00  8.86 LIG 0.16  HD
ENDROOT
BRANCH 3 5
ATOM      5  CA  GLU P 204      48.229  22.365  61.376  1.00  8.20 LIG 0.18  C 
BRANCH 5 6
ATOM      6  CB  GLU P 204      46.729  22.086  61.212  1.00  8.38 LIG 0.04  C 
BRANCH 6 7
ATOM      7  CG  GLU P 204      46.413  20.929  60.285  1.00  8.68 LIG 0.12  C 
BRANCH 7 8
ATOM      8  CD  GLU P 204      44.989  20.431  60.374  1.00  9.48 LIG 0.17  C 
ATOM      9 OE2  GLU P 204      44.300  20.831  61.341  1.00  9.77 LIG-0.65  OA
ATOM     10 OE1  GLU P 204      44.542  19.648  59.493  1.00 12.74 LIG-0.65  OA
ENDBRANCH 7 8
ENDBRANCH 6 7
ENDBRANCH 5 6
BRANCH 5 11
ATOM     11  C   GLU P 204      48.906  22.500  60.015  1.00  7.44 LIG 0.24  C 
ATOM     12  N   THR P 205      49.396  21.381  59.493  1.00  7.26 LIG-0.34  N 
ATOM     13 H    THR P 205      49.302  20.608  59.859  1.00  7.26 LIG 0.16  HD
ATOM     14 O    GLU P 204      48.964  23.592  59.445  1.00  9.81 LIG-0.27  OA
BRANCH 12 15
ATOM     15  CA  THR P 205      50.148  21.356  58.232  1.00  8.42 LIG 0.20  C 
BRANCH 15 16
ATOM     16  CB  THR P 205      51.631  21.715  58.467  1.00  8.21 LIG 0.15  C 
ATOM     17  CG2 THR P 205      52.448  21.579  57.185  1.00 10.35 LIG 0.04  C 
BRANCH 16 18
ATOM     18 OG1  THR P 205      51.714  23.054  58.942  1.00  9.36 LIG-0.39  OA
ATOM     19 HG1  THR P 205      51.532  23.072  59.762  1.00  9.36 LIG 0.21  HD
ENDBRANCH 16 18
ENDBRANCH 15 16
BRANCH 15 20
ATOM     20  C   THR P 205      50.063  19.962  57.629  1.00  8.16 LIG 0.24  C 
ATOM     21  N   ALA P 206      49.692  19.873  56.350  1.00  8.68 LIG-0.35  N 
ATOM     22 H    ALA P 206      49.418  20.545  55.888  1.00  8.68 LIG 0.16  HD
ATOM     23 O    THR P 205      50.352  18.982  58.310  1.00  8.51 LIG-0.27  OA
BRANCH 21 24
ATOM     24  CA  ALA P 206      49.716  18.611  55.607  1.00  9.43 LIG 0.17  C 
ATOM     25  CB  ALA P 206      49.124  18.800  54.228  1.00 10.70 LIG 0.04  C 
BRANCH 24 26
ATOM     26  C   ALA P 206      51.152  18.137  55.478  1.00  8.67 LIG 0.24  C 
ATOM     27  N   VAL P 207      51.343  16.856  55.199  1.00  8.87 LIG-0.34  N 
ATOM     28 H    VAL P 207      50.700  16.294  55.094  1.00  8.87 LIG 0.16  HD
ATOM     29 O    ALA P 206      52.082  18.936  55.604  1.00 12.25 LIG-0.27  OA
BRANCH 27 30
ATOM     30  CA  VAL P 207      52.677  16.269  55.041  1.00 10.42 LIG 0.19  C 
BRANCH 30 31
ATOM     31  CB  VAL P 207      53.303  15.927  56.407  1.00 10.06 LIG 0.01  C 
ATOM     32  CG2 VAL P 207      52.235  15.685  57.458  1.00  9.34 LIG 0.01  C 
ATOM     33  CG1 VAL P 207      54.237  17.035  56.852  1.00 12.13 LIG 0.01  C 
ENDBRANCH 30 31
BRANCH 30 34
ATOM     34  C   VAL P 207      52.632  15.015  54.172  1.00 10.78 LIG 0.20  C 
ATOM     35 OXT  VAL P 207      53.491  14.814  53.281  1.00 11.55 LIG-0.65  OA
ATOM     36 O    VAL P 207      51.715  14.208  54.333  1.00 12.79 LIG-0.65  OA
ENDBRANCH 30 34
ENDBRANCH 27 30
ENDBRANCH 24 26
ENDBRANCH 21 24
ENDBRANCH 15 20
ENDBRANCH 12 15
ENDBRANCH 5 11
ENDBRANCH 3 5
BRANCH 1 37
ATOM     37  CA  GLN P 203      48.599  25.008  64.075  1.00 11.41 LIG 0.18  C 
BRANCH 37 38
ATOM     38  N   GLN P 203      48.002  24.965  65.400  1.00 12.67 LIG-0.35  N 
ATOM     39 H    GLN P 203      48.571  25.052  66.039  1.00 12.67 LIG 0.16  HD
ATOM     40  C   ASP P 202      46.707  24.808  65.603  1.00 21.18 LIG 0.24  C 
ATOM     41 O    ASP P 202      45.881  24.750  64.693  1.00 33.25 LIG-0.27  OA
BRANCH 40 42
ATOM     42  CA  ASP P 202      46.292  24.717  67.061  1.00 16.67 LIG 0.19  C 
BRANCH 42 43
ATOM     43  N   ASP P 202      46.819  23.495  67.659  1.00 26.09 LIG-0.34  N 
ATOM     44 H    ASP P 202      47.619  23.304  67.411  1.00 26.09 LIG 0.16  HD
ATOM     45  C   GLU P 201      46.117  22.750  68.510  1.00 35.13 LIG 0.26  C 
ATOM     46 O    GLU P 201      44.953  22.996  68.855  1.00 29.54 LIG-0.27  OA
BRANCH 45 47
ATOM     47  CA  GLU P 201      46.844  21.538  69.064  1.00 34.09 LIG 0.40  C 
ATOM     48  N   GLU P 201      47.833  21.954  70.052  1.00 44.06 LIG 0.61  N 
BRANCH 47 49
ATOM     49  CB  GLU P 201      45.835  20.576  69.679  1.00 39.23 LIG 0.06  C 
BRANCH 49 50
ATOM     50  CG  GLU P 201      45.698  20.730  71.176  1.00 50.88 LIG 0.12  C 
BRANCH 50 51
ATOM     51  CD  GLU P 201      46.836  20.088  71.932  1.00 53.24 LIG 0.17  C 
ATOM     52 OE1  GLU P 201      46.974  18.846  71.874  1.00 48.77 LIG-0.65  OA
ATOM     53 OE2  GLU P 201      47.581  20.820  72.612  1.00 60.00 LIG-0.65  OA
ENDBRANCH 50 51
ENDBRANCH 49 50
ENDBRANCH 47 49
ENDBRANCH 45 47
ENDBRANCH 42 43
BRANCH 42 54
ATOM     54  CB  ASP P 202      46.792  25.959  67.807  1.00 19.05 LIG 0.15  C 
BRANCH 54 55
ATOM     55  CG  ASP P 202      48.004  25.674  68.710  1.00 27.39 LIG 0.17  C 
ATOM     56 OD2  ASP P 202      49.084  26.253  68.461  1.00 38.79 LIG-0.65  OA
ATOM     57 OD1  ASP P 202      47.886  24.877  69.665  1.00 28.21 LIG-0.65  OA
ENDBRANCH 54 55
ENDBRANCH 42 54
ENDBRANCH 40 42
ENDBRANCH 37 38
BRANCH 37 58
ATOM     58  CB  GLN P 203      50.101  25.311  64.178  1.00 11.55 LIG 0.04  C 
BRANCH 58 59
ATOM     59  CG  GLN P 203      50.736  25.789  62.888  1.00 10.86 LIG 0.10  C 
BRANCH 59 60
ATOM     60  CD  GLN P 203      49.850  26.742  62.109  1.00 14.61 LIG 0.21  C 
ATOM     61  NE2 GLN P 203      49.988  26.720  60.788  1.00 16.54 LIG-0.37  N 
ATOM     62 21HE GLN P 203      50.566  26.198  60.424  1.00 16.54 LIG 0.16  HD
ATOM     63 22HE GLN P 203      49.499  27.229  60.297  1.00 16.54 LIG 0.16  HD
ATOM     64 OE1  GLN P 203      49.039  27.469  62.681  1.00 19.59 LIG-0.27  OA
ENDBRANCH 59 60
ENDBRANCH 58 59
ENDBRANCH 37 58
ENDBRANCH 1 37
TORSDOF 27
ENDMDL
MODEL 3
USER: ADFR SOLUTION from run 109
USER: SCORE 19.250679 LL:  -4.621 LR: -19.054 RR:   0.000 FEB: -11.000
USER: RMSD 3.946534
USER: SEED 108
USER: STATUS 1 or 2 clusters left
USER: GENES 29
USER: genes 0 Translation |==|  0.50339 0.49913 0.53831
USER: genes 1 Rotation |==|  0.47249 0.44570 0.45972 0.99464
USER: genes 2 Torsion [C]-N--CA-[CB] |==|  0.24080
USER: genes 3 Torsion [N]-CA--CB-[CG] |==|  0.42272
USER: genes 4 Torsion [CA]-CB--CG-[CD] |==|  0.45074
USER: genes 5 Torsion [CB]-CG--CD-[OE1] |==|  0.51322
USER: genes 6 Torsion [N]-CA--C-[N] |==|  0.36405
USER: genes 7 Torsion [C]-N--CA-[CB] |==|  0.27181
USER: genes 8 Torsion [N]-CA--CB-[CG2] |==|  0.51489
USER: genes 9 Torsion [CA]-CB--OG1-[HG1] |==|  0.18552
USER: genes 10 Torsion [N]-CA--C-[N] |==|  0.39058
USER: genes 11 Torsion [C]-N--CA-[CB] |==|  0.43382
USER: genes 12 Torsion [N]-CA--C-[N] |==|  0.16127
USER: genes 13 Torsion [C]-N--CA-[CB] |==|  0.80053
USER: genes 14 Torsion [N]-CA--CB-[CG1] |==|  0.89803
USER: genes 15 Torsion [N]-CA--C-[OXT] |==|  0.55255
USER: genes 16 Torsion [N]-C--CA-[N] |==|  0.44680
USER: genes 17 Torsion [C]-CA--N-[C] |==|  0.63041
USER: genes 18 Torsion [N]-C--CA-[N] |==|  0.84731
USER: genes 19 Torsion [C]-CA--N-[C] |==|  0.64358
USER: genes 20 Torsion [N]-C--CA-[N] |==|  0.08497
USER: genes 21 Torsion [C]-CA--CB-[CG] |==|  0.23256
USER: genes 22 Torsion [CA]-CB--CG-[CD] |==|  0.11410
USER: genes 23 Torsion [CB]-CG--CD-[OE1] |==|  0.58433
USER: genes 24 Torsion [C]-CA--CB-[CG] |==|  0.42637
USER: genes 25 Torsion [CA]-CB--CG-[OD2] |==|  0.04448
USER: genes 26 Torsion [C]-CA--CB-[CG] |==|  0.28006
USER: genes 27 Torsion [CA]-CB--CG-[CD] |==|  0.85807
USER: genes 28 Torsion [CB]-CG--CD-[NE2] |==|  0.73580
ROOT
ATOM      1  C   GLN P 203      48.776  23.790  63.126  1.00  9.42 LIG 0.24  C 
ATOM      2 O    GLN P 203      48.733  22.869  63.937  1.00  9.14 LIG-0.27  OA
ATOM      3  N   GLU P 204      48.588  23.638  61.818  1.00  8.86 LIG-0.35  N 
ATOM      4 H    GLU P 204      48.604  24.294  61.262  1.00  8.86 LIG 0.16  HD
ENDROOT
BRANCH 3 5
ATOM      5  CA  GLU P 204      48.338  22.353  61.195  1.00  8.20 LIG 0.18  C 
BRANCH 5 6
ATOM      6  CB  GLU P 204      46.838  22.032  61.221  1.00  8.38 LIG 0.04  C 
BRANCH 6 7
ATOM      7  CG  GLU P 204      46.378  21.133  60.091  1.00  8.68 LIG 0.12  C 
BRANCH 7 8
ATOM      8  CD  GLU P 204      45.039  20.473  60.327  1.00  9.48 LIG 0.17  C 
ATOM      9 OE2  GLU P 204      44.410  20.800  61.360  1.00  9.77 LIG-0.65  OA
ATOM     10 OE1  GLU P 204      44.598  19.634  59.495  1.00 12.74 LIG-0.65  OA
ENDBRANCH 7 8
ENDBRANCH 6 7
ENDBRANCH 5 6
BRANCH 5 11
ATOM     11  C   GLU P 204      48.859  22.386  59.760  1.00  7.44 LIG 0.24  C 
ATOM     12  N   THR P 205      49.625  21.364  59.393  1.00  7.26 LIG-0.34  N 
ATOM     13 H    THR P 205      49.787  20.689  59.901  1.00  7.26 LIG 0.16  HD
ATOM     14 O    GLU P 204      48.555  23.309  59.000  1.00  9.81 LIG-0.27  OA
BRANCH 12 15
ATOM     15  CA  THR P 205      50.271  21.289  58.077  1.00  8.42 LIG 0.20  C 
BRANCH 15 16
ATOM     16  CB  THR P 205      51.740  21.758  58.154  1.00  8.21 LIG 0.15  C 
ATOM     17  CG2 THR P 205      52.383  21.810  56.772  1.00 10.35 LIG 0.04  C 
BRANCH 16 18
ATOM     18 OG1  THR P 205      51.781  23.052  58.747  1.00  9.36 LIG-0.39  OA
ATOM     19 HG1  THR P 205      51.540  23.001  59.550  1.00  9.36 LIG 0.21  HD
ENDBRANCH 16 18
ENDBRANCH 15 16
BRANCH 15 20
ATOM     20  C   THR P 205      50.234  19.850  57.586  1.00  8.16 LIG 0.24  C 
ATOM     21  N   ALA P 206      49.991  19.655  56.288  1.00  8.68 LIG-0.35  N 
ATOM     22 H    ALA P 206      49.770  20.286  55.747  1.00  8.68 LIG 0.16  HD
ATOM     23 O    THR P 205      50.446  18.930  58.370  1.00  8.51 LIG-0.27  OA
BRANCH 21 24
ATOM     24  CA  ALA P 206      50.077  18.335  55.658  1.00  9.43 LIG 0.17  C 
ATOM     25  CB  ALA P 206      49.225  18.292  54.409  1.00 10.70 LIG 0.04  C 
BRANCH 24 26
ATOM     26  C   ALA P 206      51.523  18.053  55.292  1.00  8.67 LIG 0.24  C 
ATOM     27  N   VAL P 207      52.411  18.077  56.275  1.00  8.87 LIG-0.34  N 
ATOM     28 H    VAL P 207      52.206  18.245  57.093  1.00  8.87 LIG 0.16  HD
ATOM     29 O    ALA P 206      51.828  17.790  54.127  1.00 12.25 LIG-0.27  OA
BRANCH 27 30
ATOM     30  CA  VAL P 207      53.837  17.816  56.062  1.00 10.42 LIG 0.19  C 
BRANCH 30 31
ATOM     31  CB  VAL P 207      54.095  16.327  55.764  1.00 10.06 LIG 0.01  C 
ATOM     32  CG2 VAL P 207      53.933  16.023  54.287  1.00  9.34 LIG 0.01  C 
ATOM     33  CG1 VAL P 207      53.165  15.456  56.585  1.00 12.13 LIG 0.01  C 
ENDBRANCH 30 31
BRANCH 30 34
ATOM     34  C   VAL P 207      54.393  18.668  54.923  1.00 10.78 LIG 0.20  C 
ATOM     35 OXT  VAL P 207      55.465  18.363  54.350  1.00 11.55 LIG-0.65  OA
ATOM     36 O    VAL P 207      53.787  19.689  54.589  1.00 12.79 LIG-0.65  OA
ENDBRANCH 30 34
ENDBRANCH 27 30
ENDBRANCH 24 26
ENDBRANCH 21 24
ENDBRANCH 15 20
ENDBRANCH 12 15
ENDBRANCH 5 11
ENDBRANCH 3 5
BRANCH 1 37
ATOM     37  CA  GLN P 203      49.023  25.205  63.603  1.00 11.41 LIG 0.18  C 
BRANCH 37 38
ATOM     38  N   GLN P 203      48.741  25.211  65.030  1.00 12.67 LIG-0.35  N 
ATOM     39 H    GLN P 203      49.101  24.556  65.456  1.00 12.67 LIG 0.16  HD
ATOM     40  C   ASP P 202      48.002  26.134  65.615  1.00 21.18 LIG 0.24  C 
ATOM     41 O    ASP P 202      47.539  27.107  65.022  1.00 33.25 LIG-0.27  OA
BRANCH 40 42
ATOM     42  CA  ASP P 202      47.766  25.921  67.101  1.00 16.67 LIG 0.19  C 
BRANCH 42 43
ATOM     43  N   ASP P 202      47.195  24.600  67.335  1.00 26.09 LIG-0.34  N 
ATOM     44 H    ASP P 202      47.635  23.959  66.968  1.00 26.09 LIG 0.16  HD
ATOM     45  C   GLU P 201      46.090  24.411  68.053  1.00 35.13 LIG 0.26  C 
ATOM     46 O    GLU P 201      45.427  25.324  68.565  1.00 29.54 LIG-0.27  OA
BRANCH 45 47
ATOM     47  CA  GLU P 201      45.668  22.964  68.227  1.00 34.09 LIG 0.40  C 
ATOM     48  N   GLU P 201      46.840  22.095  68.225  1.00 44.06 LIG 0.61  N 
BRANCH 47 49
ATOM     49  CB  GLU P 201      44.885  22.813  69.526  1.00 39.23 LIG 0.06  C 
BRANCH 49 50
ATOM     50  CG  GLU P 201      43.422  23.163  69.387  1.00 50.88 LIG 0.12  C 
BRANCH 50 51
ATOM     51  CD  GLU P 201      42.821  22.645  68.103  1.00 53.24 LIG 0.17  C 
ATOM     52 OE1  GLU P 201      41.883  23.283  67.576  1.00 48.77 LIG-0.65  OA
ATOM     53 OE2  GLU P 201      43.264  21.580  67.631  1.00 60.00 LIG-0.65  OA
ENDBRANCH 50 51
ENDBRANCH 49 50
ENDBRANCH 47 49
ENDBRANCH 45 47
ENDBRANCH 42 43
BRANCH 42 54
ATOM     54  CB  ASP P 202      49.091  26.092  67.851  1.00 19.05 LIG 0.15  C 
BRANCH 54 55
ATOM     55  CG  ASP P 202      48.905  26.539  69.311  1.00 27.39 LIG 0.17  C 
ATOM     56 OD2  ASP P 202      47.773  26.425  69.831  1.00 38.79 LIG-0.65  OA
ATOM     57 OD1  ASP P 202      49.878  27.002  69.942  1.00 28.21 LIG-0.65  OA
ENDBRANCH 54 55
ENDBRANCH 42 54
ENDBRANCH 40 42
ENDBRANCH 37 38
BRANCH 37 58
ATOM     58  CB  GLN P 203      50.477  25.630  63.347  1.00 11.55 LIG 0.04  C 
BRANCH 58 59
ATOM     59  CG  GLN P 203      50.669  26.509  62.126  1.00 10.86 LIG 0.10  C 
BRANCH 59 60
ATOM     60  CD  GLN P 203      50.034  25.933  60.876  1.00 14.61 LIG 0.21  C 
ATOM     61  NE2 GLN P 203      50.834  25.225  60.087  1.00 16.54 LIG-0.37  N 
ATOM     62 21HE GLN P 203      51.664  25.129  60.291  1.00 16.54 LIG 0.16  HD
ATOM     63 22HE GLN P 203      50.523  24.862  59.373  1.00 16.54 LIG 0.16  HD
ATOM     64 OE1  GLN P 203      48.839  26.101  60.633  1.00 19.59 LIG-0.27  OA
ENDBRANCH 59 60
ENDBRANCH 58 59
ENDBRANCH 37 58
ENDBRANCH 1 37
TORSDOF 27
ENDMDL
MODEL 4
USER: ADFR SOLUTION from run 96
USER: SCORE 20.711274 LL:  -4.517 LR: -18.777 RR:   0.000 FEB: -10.723
USER: RMSD 2.999819
USER: SEED 95
USER: STATUS no improvement in best in 3 clusters for 5 generations
USER: GENES 29
USER: genes 0 Translation |==|  0.47629 0.48865 0.54259
USER: genes 1 Rotation |==|  0.49018 0.43765 0.46669 0.99488
USER: genes 2 Torsion [C]-N--CA-[CB] |==|  0.23428
USER: genes 3 Torsion [N]-CA--CB-[CG] |==|  0.47783
USER: genes 4 Torsion [CA]-CB--CG-[CD] |==|  0.50418
USER: genes 5 Torsion [CB]-CG--CD-[OE1] |==|  0.48047
USER: genes 6 Torsion [N]-CA--C-[N] |==|  0.38347
USER: genes 7 Torsion [C]-N--CA-[CB] |==|  0.25690
USER: genes 8 Torsion [N]-CA--CB-[CG2] |==|  0.78491
USER: genes 9 Torsion [CA]-CB--OG1-[HG1] |==|  0.75425
USER: genes 10 Torsion [N]-CA--C-[N] |==|  0.37664
USER: genes 11 Torsion [C]-N--CA-[CB] |==|  0.49362
USER: genes 12 Torsion [N]-CA--C-[N] |==|  0.43953
USER: genes 13 Torsion [C]-N--CA-[CB] |==|  0.22609
USER: genes 14 Torsion [N]-CA--CB-[CG1] |==|  0.72695
USER: genes 15 Torsion [N]-CA--C-[OXT] |==|  0.89287
USER: genes 16 Torsion [N]-C--CA-[N] |==|  0.44788
USER: genes 17 Torsion [C]-CA--N-[C] |==|  0.79604
USER: genes 18 Torsion [N]-C--CA-[N] |==|  0.36680
USER: genes 19 Torsion [C]-CA--N-[C] |==|  0.83725
USER: genes 20 Torsion [N]-C--CA-[N] |==|  0.50582
USER: genes 21 Torsion [C]-CA--CB-[CG] |==|  0.93200
USER: genes 22 Torsion [CA]-CB--CG-[CD] |==|  0.68702
USER: genes 23 Torsion [CB]-CG--CD-[OE1] |==|  0.58909
USER: genes 24 Torsion [C]-CA--CB-[CG] |==|  0.75347
USER: genes 25 Torsion [CA]-CB--CG-[OD2] |==|  0.48888
USER: genes 26 Torsion [C]-CA--CB-[CG] |==|  0.29721
USER: genes 27 Torsion [CA]-CB--CG-[CD] |==|  0.71704
USER: genes 28 Torsion [CB]-CG--CD-[NE2] |==|  0.62515
ROOT
ATOM      1  C   GLN P 203      48.288  23.515  63.238  1.00  9.42 LIG 0.24  C 
ATOM      2 O    GLN P 203      48.252  22.542  63.987  1.00  9.14 LIG-0.27  OA
ATOM      3  N   GLU P 204      48.152  23.442  61.918  1.00  8.86 LIG-0.35  N 
ATOM      4 H    GLU P 204      48.162  24.133  61.405  1.00  8.86 LIG 0.16  HD
ENDROOT
BRANCH 3 5
ATOM      5  CA  GLU P 204      47.973  22.192  61.204  1.00  8.20 LIG 0.18  C 
BRANCH 5 6
ATOM      6  CB  GLU P 204      46.493  21.786  61.206  1.00  8.38 LIG 0.04  C 
BRANCH 6 7
ATOM      7  CG  GLU P 204      46.178  20.595  60.323  1.00  8.68 LIG 0.12  C 
BRANCH 7 8
ATOM      8  CD  GLU P 204      44.716  20.213  60.292  1.00  9.48 LIG 0.17  C 
ATOM      9 OE2  GLU P 204      43.948  20.813  61.079  1.00  9.77 LIG-0.65  OA
ATOM     10 OE1  GLU P 204      44.317  19.323  59.492  1.00 12.74 LIG-0.65  OA
ENDBRANCH 7 8
ENDBRANCH 6 7
ENDBRANCH 5 6
BRANCH 5 11
ATOM     11  C   GLU P 204      48.488  22.355  59.777  1.00  7.44 LIG 0.24  C 
ATOM     12  N   THR P 205      49.191  21.338  59.290  1.00  7.26 LIG-0.34  N 
ATOM     13 H    THR P 205      49.316  20.602  59.717  1.00  7.26 LIG 0.16  HD
ATOM     14 O    GLU P 204      48.236  23.373  59.127  1.00  9.81 LIG-0.27  OA
BRANCH 12 15
ATOM     15  CA  THR P 205      49.826  21.374  57.966  1.00  8.42 LIG 0.20  C 
BRANCH 15 16
ATOM     16  CB  THR P 205      51.283  21.874  58.065  1.00  8.21 LIG 0.15  C 
ATOM     17  CG2 THR P 205      51.343  23.389  58.233  1.00 10.35 LIG 0.04  C 
BRANCH 16 18
ATOM     18 OG1  THR P 205      51.912  21.248  59.178  1.00  9.36 LIG-0.39  OA
ATOM     19 HG1  THR P 205      51.782  21.708  59.869  1.00  9.36 LIG 0.21  HD
ENDBRANCH 16 18
ENDBRANCH 15 16
BRANCH 15 20
ATOM     20  C   THR P 205      49.821  19.972  57.375  1.00  8.16 LIG 0.24  C 
ATOM     21  N   ALA P 206      49.469  19.853  56.092  1.00  8.68 LIG-0.35  N 
ATOM     22 H    ALA P 206      49.166  20.506  55.622  1.00  8.68 LIG 0.16  HD
ATOM     23 O    THR P 205      50.153  19.014  58.066  1.00  8.51 LIG-0.27  OA
BRANCH 21 24
ATOM     24  CA  ALA P 206      49.567  18.588  55.361  1.00  9.43 LIG 0.17  C 
ATOM     25  CB  ALA P 206      49.045  18.754  53.951  1.00 10.70 LIG 0.04  C 
BRANCH 24 26
ATOM     26  C   ALA P 206      51.021  18.154  55.312  1.00  8.67 LIG 0.24  C 
ATOM     27  N   VAL P 207      51.260  16.868  55.099  1.00  8.87 LIG-0.34  N 
ATOM     28 H    VAL P 207      50.639  16.283  54.994  1.00  8.87 LIG 0.16  HD
ATOM     29 O    ALA P 206      51.921  18.985  55.440  1.00 12.25 LIG-0.27  OA
BRANCH 27 30
ATOM     30  CA  VAL P 207      52.616  16.316  55.023  1.00 10.42 LIG 0.19  C 
BRANCH 30 31
ATOM     31  CB  VAL P 207      53.198  16.067  56.428  1.00 10.06 LIG 0.01  C 
ATOM     32  CG2 VAL P 207      52.099  15.873  57.454  1.00  9.34 LIG 0.01  C 
ATOM     33  CG1 VAL P 207      54.102  17.215  56.835  1.00 12.13 LIG 0.01  C 
ENDBRANCH 30 31
BRANCH 30 34
ATOM     34  C   VAL P 207      52.642  15.017  54.222  1.00 10.78 LIG 0.20  C 
ATOM     35 OXT  VAL P 207      51.715  14.178  54.318  1.00 11.55 LIG-0.65  OA
ATOM     36 O    VAL P 207      53.609  14.782  53.495  1.00 12.79 LIG-0.65  OA
ENDBRANCH 30 34
ENDBRANCH 27 30
ENDBRANCH 24 26
ENDBRANCH 21 24
ENDBRANCH 15 20
ENDBRANCH 12 15
ENDBRANCH 5 11
ENDBRANCH 3 5
BRANCH 1 37
ATOM     37  CA  GLN P 203      48.464  24.904  63.813  1.00 11.41 LIG 0.18  C 
BRANCH 37 38
ATOM     38  N   GLN P 203      48.142  24.805  65.228  1.00 12.67 LIG-0.35  N 
ATOM     39 H    GLN P 203      48.830  24.845  65.743  1.00 12.67 LIG 0.16  HD
ATOM     40  C   ASP P 202      46.910  24.665  65.678  1.00 21.18 LIG 0.24  C 
ATOM     41 O    ASP P 202      45.918  24.673  64.952  1.00 33.25 LIG-0.27  OA
BRANCH 40 42
ATOM     42  CA  ASP P 202      46.791  24.507  67.185  1.00 16.67 LIG 0.19  C 
BRANCH 42 43
ATOM     43  N   ASP P 202      45.762  25.401  67.704  1.00 26.09 LIG-0.34  N 
ATOM     44 H    ASP P 202      45.127  24.997  68.120  1.00 26.09 LIG 0.16  HD
ATOM     45  C   GLU P 201      45.808  26.722  67.544  1.00 35.13 LIG 0.26  C 
ATOM     46 O    GLU P 201      46.701  27.317  66.924  1.00 29.54 LIG-0.27  OA
BRANCH 45 47
ATOM     47  CA  GLU P 201      44.674  27.495  68.191  1.00 34.09 LIG 0.40  C 
ATOM     48  N   GLU P 201      44.810  28.918  67.904  1.00 44.06 LIG 0.61  N 
BRANCH 47 49
ATOM     49  CB  GLU P 201      43.340  26.965  67.679  1.00 39.23 LIG 0.06  C 
BRANCH 49 50
ATOM     50  CG  GLU P 201      43.439  26.298  66.327  1.00 50.88 LIG 0.12  C 
BRANCH 50 51
ATOM     51  CD  GLU P 201      42.721  27.069  65.246  1.00 53.24 LIG 0.17  C 
ATOM     52 OE1  GLU P 201      42.197  26.438  64.302  1.00 48.77 LIG-0.65  OA
ATOM     53 OE2  GLU P 201      42.704  28.314  65.320  1.00 60.00 LIG-0.65  OA
ENDBRANCH 50 51
ENDBRANCH 49 50
ENDBRANCH 47 49
ENDBRANCH 45 47
ENDBRANCH 42 43
BRANCH 42 54
ATOM     54  CB  ASP P 202      46.471  23.045  67.515  1.00 19.05 LIG 0.15  C 
BRANCH 54 55
ATOM     55  CG  ASP P 202      44.963  22.745  67.536  1.00 27.39 LIG 0.17  C 
ATOM     56 OD2  ASP P 202      44.592  21.565  67.720  1.00 38.79 LIG-0.65  OA
ATOM     57 OD1  ASP P 202      44.148  23.676  67.370  1.00 28.21 LIG-0.65  OA
ENDBRANCH 54 55
ENDBRANCH 42 54
ENDBRANCH 40 42
ENDBRANCH 37 38
BRANCH 37 58
ATOM     58  CB  GLN P 203      49.907  25.401  63.630  1.00 11.55 LIG 0.04  C 
BRANCH 58 59
ATOM     59  CG  GLN P 203      50.072  26.474  62.573  1.00 10.86 LIG 0.10  C 
BRANCH 59 60
ATOM     60  CD  GLN P 203      50.630  25.940  61.269  1.00 14.61 LIG 0.21  C 
ATOM     61  NE2 GLN P 203      51.598  26.657  60.710  1.00 16.54 LIG-0.37  N 
ATOM     62 21HE GLN P 203      51.861  27.388  61.080  1.00 16.54 LIG 0.16  HD
ATOM     63 22HE GLN P 203      51.962  26.392  59.977  1.00 16.54 LIG 0.16  HD
ATOM     64 OE1  GLN P 203      50.216  24.888  60.782  1.00 19.59 LIG-0.27  OA
ENDBRANCH 59 60
ENDBRANCH 58 59
ENDBRANCH 37 58
ENDBRANCH 1 37
TORSDOF 27
ENDMDL
MODEL 5
USER: ADFR SOLUTION from run 78
USER: SCORE 20.128711 LL:  -4.581 LR: -18.747 RR:   0.000 FEB: -10.693
USER: RMSD 2.627395
USER: SEED 77
USER: STATUS no improvement in best in 4 clusters for 5 generations
USER: GENES 29
USER: genes 0 Translation |==|  0.50301 0.49368 0.53879
USER: genes 1 Rotation |==|  0.48403 0.44800 0.45939 0.99537
USER: genes 2 Torsion [C]-N--CA-[CB] |==|  0.25721
USER: genes 3 Torsion [N]-CA--CB-[CG] |==|  0.47364
USER: genes 4 Torsion [CA]-CB--CG-[CD] |==|  0.46444
USER: genes 5 Torsion [CB]-CG--CD-[OE1] |==|  0.48417
USER: genes 6 Torsion [N]-CA--C-[N] |==|  0.35122
USER: genes 7 Torsion [C]-N--CA-[CB] |==|  0.22729
USER: genes 8 Torsion [N]-CA--CB-[CG2] |==|  0.56597
USER: genes 9 Torsion [CA]-CB--OG1-[HG1] |==|  0.17780
USER: genes 10 Torsion [N]-CA--C-[N] |==|  0.59192
USER: genes 11 Torsion [C]-N--CA-[CB] |==|  0.16044
USER: genes 12 Torsion [N]-CA--C-[N] |==|  0.60322
USER: genes 13 Torsion [C]-N--CA-[CB] |==|  0.45897
USER: genes 14 Torsion [N]-CA--CB-[CG1] |==|  0.21125
USER: genes 15 Torsion [N]-CA--C-[OXT] |==|  0.04641
USER: genes 16 Torsion [N]-C--CA-[N] |==|  0.45507
USER: genes 17 Torsion [C]-CA--N-[C] |==|  0.58979
USER: genes 18 Torsion [N]-C--CA-[N] |==|  0.44600
USER: genes 19 Torsion [C]-CA--N-[C] |==|  0.55666
USER: genes 20 Torsion [N]-C--CA-[N] |==|  0.46866
USER: genes 21 Torsion [C]-CA--CB-[CG] |==|  0.87735
USER: genes 22 Torsion [CA]-CB--CG-[CD] |==|  0.84051
USER: genes 23 Torsion [CB]-CG--CD-[OE1] |==|  0.30105
USER: genes 24 Torsion [C]-CA--CB-[CG] |==|  0.97482
USER: genes 25 Torsion [CA]-CB--CG-[OD2] |==|  0.75919
USER: genes 26 Torsion [C]-CA--CB-[CG] |==|  0.29316
USER: genes 27 Torsion [CA]-CB--CG-[CD] |==|  0.81381
USER: genes 28 Torsion [CB]-CG--CD-[NE2] |==|  0.28206
ROOT
ATOM      1  C   GLN P 203      48.769  23.647  63.138  1.00  9.42 LIG 0.24  C 
ATOM      2 O    GLN P 203      48.734  22.689  63.906  1.00  9.14 LIG-0.27  OA
ATOM      3  N   GLU P 204      48.574  23.555  61.826  1.00  8.86 LIG-0.35  N 
ATOM      4 H    GLU P 204      48.585  24.237  61.301  1.00  8.86 LIG 0.16  HD
ENDROOT
BRANCH 3 5
ATOM      5  CA  GLU P 204      48.325  22.300  61.145  1.00  8.20 LIG 0.18  C 
BRANCH 5 6
ATOM      6  CB  GLU P 204      46.816  22.045  61.036  1.00  8.38 LIG 0.04  C 
BRANCH 6 7
ATOM      7  CG  GLU P 204      46.450  20.876  60.143  1.00  8.68 LIG 0.12  C 
BRANCH 7 8
ATOM      8  CD  GLU P 204      45.012  20.426  60.265  1.00  9.48 LIG 0.17  C 
ATOM      9 OE2  GLU P 204      44.311  20.976  61.145  1.00  9.77 LIG-0.65  OA
ATOM     10 OE1  GLU P 204      44.566  19.533  59.495  1.00 12.74 LIG-0.65  OA
ENDBRANCH 7 8
ENDBRANCH 6 7
ENDBRANCH 5 6
BRANCH 5 11
ATOM     11  C   GLU P 204      48.967  22.349  59.761  1.00  7.44 LIG 0.24  C 
ATOM     12  N   THR P 205      49.794  21.351  59.465  1.00  7.26 LIG-0.34  N 
ATOM     13 H    THR P 205      49.933  20.682  59.987  1.00  7.26 LIG 0.16  HD
ATOM     14 O    GLU P 204      48.702  23.261  58.974  1.00  9.81 LIG-0.27  OA
BRANCH 12 15
ATOM     15  CA  THR P 205      50.554  21.296  58.210  1.00  8.42 LIG 0.20  C 
BRANCH 15 16
ATOM     16  CB  THR P 205      51.830  22.160  58.298  1.00  8.21 LIG 0.15  C 
ATOM     17  CG2 THR P 205      52.309  22.592  56.916  1.00 10.35 LIG 0.04  C 
BRANCH 16 18
ATOM     18 OG1  THR P 205      51.555  23.312  59.088  1.00  9.36 LIG-0.39  OA
ATOM     19 HG1  THR P 205      51.373  23.077  59.873  1.00  9.36 LIG 0.21  HD
ENDBRANCH 16 18
ENDBRANCH 15 16
BRANCH 15 20
ATOM     20  C   THR P 205      50.948  19.854  57.930  1.00  8.16 LIG 0.24  C 
ATOM     21  N   ALA P 206      52.113  19.650  57.311  1.00  8.68 LIG-0.35  N 
ATOM     22 H    ALA P 206      52.597  20.284  56.991  1.00  8.68 LIG 0.16  HD
ATOM     23 O    THR P 205      50.215  18.938  58.290  1.00  8.51 LIG-0.27  OA
BRANCH 21 24
ATOM     24  CA  ALA P 206      52.680  18.314  57.117  1.00  9.43 LIG 0.17  C 
ATOM     25  CB  ALA P 206      51.715  17.437  56.350  1.00 10.70 LIG 0.04  C 
BRANCH 24 26
ATOM     26  C   ALA P 206      53.978  18.433  56.339  1.00  8.67 LIG 0.24  C 
ATOM     27  N   VAL P 207      54.241  17.484  55.453  1.00  8.87 LIG-0.34  N 
ATOM     28 H    VAL P 207      53.720  16.816  55.307  1.00  8.87 LIG 0.16  HD
ATOM     29 O    ALA P 206      54.725  19.397  56.522  1.00 12.25 LIG-0.27  OA
BRANCH 27 30
ATOM     30  CA  VAL P 207      55.455  17.480  54.631  1.00 10.42 LIG 0.19  C 
BRANCH 30 31
ATOM     31  CB  VAL P 207      55.681  16.105  53.973  1.00 10.06 LIG 0.01  C 
ATOM     32  CG2 VAL P 207      57.118  15.941  53.517  1.00  9.34 LIG 0.01  C 
ATOM     33  CG1 VAL P 207      54.733  15.918  52.804  1.00 12.13 LIG 0.01  C 
ENDBRANCH 30 31
BRANCH 30 34
ATOM     34  C   VAL P 207      55.397  18.559  53.552  1.00 10.78 LIG 0.20  C 
ATOM     35 OXT  VAL P 207      54.576  19.503  53.624  1.00 11.55 LIG-0.65  OA
ATOM     36 O    VAL P 207      56.152  18.475  52.582  1.00 12.79 LIG-0.65  OA
ENDBRANCH 30 34
ENDBRANCH 27 30
ENDBRANCH 24 26
ENDBRANCH 21 24
ENDBRANCH 15 20
ENDBRANCH 12 15
ENDBRANCH 5 11
ENDBRANCH 3 5
BRANCH 1 37
ATOM     37  CA  GLN P 203      49.014  25.039  63.680  1.00 11.41 LIG 0.18  C 
BRANCH 37 38
ATOM     38  N   GLN P 203      48.810  24.960  65.118  1.00 12.67 LIG-0.35  N 
ATOM     39 H    GLN P 203      49.030  24.201  65.457  1.00 12.67 LIG 0.16  HD
ATOM     40  C   ASP P 202      48.333  25.961  65.834  1.00 21.18 LIG 0.24  C 
ATOM     41 O    ASP P 202      48.080  27.069  65.365  1.00 33.25 LIG-0.27  OA
BRANCH 40 42
ATOM     42  CA  ASP P 202      48.127  25.655  67.308  1.00 16.67 LIG 0.19  C 
BRANCH 42 43
ATOM     43  N   ASP P 202      48.050  26.895  68.072  1.00 26.09 LIG-0.34  N 
ATOM     44 H    ASP P 202      47.853  27.585  67.599  1.00 26.09 LIG 0.16  HD
ATOM     45  C   GLU P 201      48.268  26.945  69.385  1.00 35.13 LIG 0.26  C 
ATOM     46 O    GLU P 201      48.580  25.966  70.077  1.00 29.54 LIG-0.27  OA
BRANCH 45 47
ATOM     47  CA  GLU P 201      48.101  28.314  70.019  1.00 34.09 LIG 0.40  C 
ATOM     48  N   GLU P 201      48.099  28.197  71.472  1.00 44.06 LIG 0.61  N 
BRANCH 47 49
ATOM     49  CB  GLU P 201      49.223  29.233  69.551  1.00 39.23 LIG 0.06  C 
BRANCH 49 50
ATOM     50  CG  GLU P 201      50.582  28.573  69.566  1.00 50.88 LIG 0.12  C 
BRANCH 50 51
ATOM     51  CD  GLU P 201      50.957  28.048  70.931  1.00 53.24 LIG 0.17  C 
ATOM     52 OE1  GLU P 201      50.967  26.812  71.121  1.00 48.77 LIG-0.65  OA
ATOM     53 OE2  GLU P 201      51.214  28.873  71.831  1.00 60.00 LIG-0.65  OA
ENDBRANCH 50 51
ENDBRANCH 49 50
ENDBRANCH 47 49
ENDBRANCH 45 47
ENDBRANCH 42 43
BRANCH 42 54
ATOM     54  CB  ASP P 202      46.853  24.820  67.477  1.00 19.05 LIG 0.15  C 
BRANCH 54 55
ATOM     55  CG  ASP P 202      46.026  24.711  66.184  1.00 27.39 LIG 0.17  C 
ATOM     56 OD2  ASP P 202      45.193  25.609  65.931  1.00 38.79 LIG-0.65  OA
ATOM     57 OD1  ASP P 202      46.202  23.738  65.422  1.00 28.21 LIG-0.65  OA
ENDBRANCH 54 55
ENDBRANCH 42 54
ENDBRANCH 40 42
ENDBRANCH 37 38
BRANCH 37 58
ATOM     58  CB  GLN P 203      50.444  25.510  63.371  1.00 11.55 LIG 0.04  C 
BRANCH 58 59
ATOM     59  CG  GLN P 203      50.540  26.543  62.266  1.00 10.86 LIG 0.10  C 
BRANCH 59 60
ATOM     60  CD  GLN P 203      50.158  25.994  60.906  1.00 14.61 LIG 0.21  C 
ATOM     61  NE2 GLN P 203      48.941  26.301  60.472  1.00 16.54 LIG-0.37  N 
ATOM     62 21HE GLN P 203      48.415  26.772  60.964  1.00 16.54 LIG 0.16  HD
ATOM     63 22HE GLN P 203      48.678  26.029  59.701  1.00 16.54 LIG 0.16  HD
ATOM     64 OE1  GLN P 203      50.950  25.323  60.244  1.00 19.59 LIG-0.27  OA
ENDBRANCH 59 60
ENDBRANCH 58 59
ENDBRANCH 37 58
ENDBRANCH 1 37
TORSDOF 27
ENDMDL
MODEL 6
USER: ADFR SOLUTION from run 67
USER: SCORE 21.231984 LL:  -5.387 LR: -18.581 RR:   0.000 FEB: -10.527
USER: RMSD 5.625034
USER: SEED 66
USER: STATUS no improvement in best in 4 clusters for 5 generations
USER: GENES 29
USER: genes 0 Translation |==|  0.49472 0.49640 0.54620
USER: genes 1 Rotation |==|  0.49572 0.42391 0.45467 0.99207
USER: genes 2 Torsion [C]-N--CA-[CB] |==|  0.25225
USER: genes 3 Torsion [N]-CA--CB-[CG] |==|  0.50296
USER: genes 4 Torsion [CA]-CB--CG-[CD] |==|  0.44959
USER: genes 5 Torsion [CB]-CG--CD-[OE1] |==|  0.94149
USER: genes 6 Torsion [N]-CA--C-[N] |==|  0.41113
USER: genes 7 Torsion [C]-N--CA-[CB] |==|  0.23635
USER: genes 8 Torsion [N]-CA--CB-[CG2] |==|  0.45135
USER: genes 9 Torsion [CA]-CB--OG1-[HG1] |==|  0.27917
USER: genes 10 Torsion [N]-CA--C-[N] |==|  0.34669
USER: genes 11 Torsion [C]-N--CA-[CB] |==|  0.49417
USER: genes 12 Torsion [N]-CA--C-[N] |==|  0.42860
USER: genes 13 Torsion [C]-N--CA-[CB] |==|  0.22954
USER: genes 14 Torsion [N]-CA--CB-[CG1] |==|  0.72907
USER: genes 15 Torsion [N]-CA--C-[OXT] |==|  0.87388
USER: genes 16 Torsion [N]-C--CA-[N] |==|  0.93915
USER: genes 17 Torsion [C]-CA--N-[C] |==|  0.73535
USER: genes 18 Torsion [N]-C--CA-[N] |==|  0.44512
USER: genes 19 Torsion [C]-CA--N-[C] |==|  0.79896
USER: genes 20 Torsion [N]-C--CA-[N] |==|  0.57079
USER: genes 21 Torsion [C]-CA--CB-[CG] |==|  0.66882
USER: genes 22 Torsion [CA]-CB--CG-[CD] |==|  0.23035
USER: genes 23 Torsion [CB]-CG--CD-[OE1] |==|  0.47298
USER: genes 24 Torsion [C]-CA--CB-[CG] |==|  0.62755
USER: genes 25 Torsion [CA]-CB--CG-[OD2] |==|  0.25948
USER: genes 26 Torsion [C]-CA--CB-[CG] |==|  0.04067
USER: genes 27 Torsion [CA]-CB--CG-[CD] |==|  0.25933
USER: genes 28 Torsion [CB]-CG--CD-[NE2] |==|  0.82697
ROOT
ATOM      1  C   GLN P 203      48.620  23.718  63.333  1.00  9.42 LIG 0.24  C 
ATOM      2 O    GLN P 203      48.498  22.731  64.054  1.00  9.14 LIG-0.27  OA
ATOM      3  N   GLU P 204      48.558  23.681  62.005  1.00  8.86 LIG-0.35  N 
ATOM      4 H    GLU P 204      48.628  24.383  61.512  1.00  8.86 LIG 0.16  HD
ENDROOT
BRANCH 3 5
ATOM      5  CA  GLU P 204      48.367  22.458  61.252  1.00  8.20 LIG 0.18  C 
BRANCH 5 6
ATOM      6  CB  GLU P 204      46.871  22.205  61.019  1.00  8.38 LIG 0.04  C 
BRANCH 6 7
ATOM      7  CG  GLU P 204      46.572  20.929  60.258  1.00  8.68 LIG 0.12  C 
BRANCH 7 8
ATOM      8  CD  GLU P 204      45.146  20.445  60.392  1.00  9.48 LIG 0.17  C 
ATOM      9 OE2  GLU P 204      44.719  19.664  59.511  1.00  9.77 LIG-0.65  OA
ATOM     10 OE1  GLU P 204      44.442  20.827  61.366  1.00 12.74 LIG-0.65  OA
ENDBRANCH 7 8
ENDBRANCH 6 7
ENDBRANCH 5 6
BRANCH 5 11
ATOM     11  C   GLU P 204      49.110  22.570  59.923  1.00  7.44 LIG 0.24  C 
ATOM     12  N   THR P 205      49.600  21.437  59.431  1.00  7.26 LIG-0.34  N 
ATOM     13 H    THR P 205      49.473  20.669  59.796  1.00  7.26 LIG 0.16  HD
ATOM     14 O    GLU P 204      49.217  23.657  59.350  1.00  9.81 LIG-0.27  OA
BRANCH 12 15
ATOM     15  CA  THR P 205      50.410  21.389  58.207  1.00  8.42 LIG 0.20  C 
BRANCH 15 16
ATOM     16  CB  THR P 205      51.897  21.669  58.517  1.00  8.21 LIG 0.15  C 
ATOM     17  CG2 THR P 205      52.800  21.211  57.376  1.00 10.35 LIG 0.04  C 
BRANCH 16 18
ATOM     18 OG1  THR P 205      52.070  23.066  58.728  1.00  9.36 LIG-0.39  OA
ATOM     19 HG1  THR P 205      52.105  23.223  59.552  1.00  9.36 LIG 0.21  HD
ENDBRANCH 16 18
ENDBRANCH 15 16
BRANCH 15 20
ATOM     20  C   THR P 205      50.285  20.008  57.581  1.00  8.16 LIG 0.24  C 
ATOM     21  N   ALA P 206      49.883  19.949  56.310  1.00  8.68 LIG-0.35  N 
ATOM     22 H    ALA P 206      49.612  20.634  55.867  1.00  8.68 LIG 0.16  HD
ATOM     23 O    THR P 205      50.570  19.011  58.237  1.00  8.51 LIG-0.27  OA
BRANCH 21 24
ATOM     24  CA  ALA P 206      49.865  18.701  55.544  1.00  9.43 LIG 0.17  C 
ATOM     25  CB  ALA P 206      49.314  18.942  54.156  1.00 10.70 LIG 0.04  C 
BRANCH 24 26
ATOM     26  C   ALA P 206      51.280  18.163  55.438  1.00  8.67 LIG 0.24  C 
ATOM     27  N   VAL P 207      51.419  16.856  55.266  1.00  8.87 LIG-0.34  N 
ATOM     28 H    VAL P 207      50.754  16.313  55.216  1.00  8.87 LIG 0.16  HD
ATOM     29 O    ALA P 206      52.242  18.933  55.485  1.00 12.25 LIG-0.27  OA
BRANCH 27 30
ATOM     30  CA  VAL P 207      52.727  16.207  55.142  1.00 10.42 LIG 0.19  C 
BRANCH 30 31
ATOM     31  CB  VAL P 207      53.353  15.942  56.525  1.00 10.06 LIG 0.01  C 
ATOM     32  CG2 VAL P 207      52.289  15.827  57.599  1.00  9.34 LIG 0.01  C 
ATOM     33  CG1 VAL P 207      54.340  17.039  56.876  1.00 12.13 LIG 0.01  C 
ENDBRANCH 30 31
BRANCH 30 34
ATOM     34  C   VAL P 207      52.625  14.896  54.367  1.00 10.78 LIG 0.20  C 
ATOM     35 OXT  VAL P 207      51.715  14.069  54.612  1.00 11.55 LIG-0.65  OA
ATOM     36 O    VAL P 207      53.473  14.639  53.511  1.00 12.79 LIG-0.65  OA
ENDBRANCH 30 34
ENDBRANCH 27 30
ENDBRANCH 24 26
ENDBRANCH 21 24
ENDBRANCH 15 20
ENDBRANCH 12 15
ENDBRANCH 5 11
ENDBRANCH 3 5
BRANCH 1 37
ATOM     37  CA  GLN P 203      48.822  25.085  63.952  1.00 11.41 LIG 0.18  C 
BRANCH 37 38
ATOM     38  N   GLN P 203      49.411  25.920  62.917  1.00 12.67 LIG-0.35  N 
ATOM     39 H    GLN P 203      48.833  26.275  62.389  1.00 12.67 LIG 0.16  HD
ATOM     40  C   ASP P 202      50.711  26.113  62.800  1.00 21.18 LIG 0.24  C 
ATOM     41 O    ASP P 202      51.537  25.661  63.590  1.00 33.25 LIG-0.27  OA
BRANCH 40 42
ATOM     42  CA  ASP P 202      51.130  26.960  61.610  1.00 16.67 LIG 0.19  C 
BRANCH 42 43
ATOM     43  N   ASP P 202      52.471  27.494  61.820  1.00 26.09 LIG-0.34  N 
ATOM     44 H    ASP P 202      53.074  27.125  61.331  1.00 26.09 LIG 0.16  HD
ATOM     45  C   GLU P 201      52.730  28.466  62.693  1.00 35.13 LIG 0.26  C 
ATOM     46 O    GLU P 201      51.878  28.989  63.425  1.00 29.54 LIG-0.27  OA
BRANCH 45 47
ATOM     47  CA  GLU P 201      54.175  28.925  62.745  1.00 34.09 LIG 0.40  C 
ATOM     48  N   GLU P 201      54.474  29.495  64.053  1.00 44.06 LIG 0.61  N 
BRANCH 47 49
ATOM     49  CB  GLU P 201      55.095  27.747  62.445  1.00 39.23 LIG 0.06  C 
BRANCH 49 50
ATOM     50  CG  GLU P 201      56.038  27.420  63.579  1.00 50.88 LIG 0.12  C 
BRANCH 50 51
ATOM     51  CD  GLU P 201      55.395  26.556  64.637  1.00 53.24 LIG 0.17  C 
ATOM     52 OE1  GLU P 201      56.116  26.063  65.532  1.00 48.77 LIG-0.65  OA
ATOM     53 OE2  GLU P 201      54.170  26.340  64.560  1.00 60.00 LIG-0.65  OA
ENDBRANCH 50 51
ENDBRANCH 49 50
ENDBRANCH 47 49
ENDBRANCH 45 47
ENDBRANCH 42 43
BRANCH 42 54
ATOM     54  CB  ASP P 202      51.067  26.109  60.337  1.00 19.05 LIG 0.15  C 
BRANCH 54 55
ATOM     55  CG  ASP P 202      52.310  26.264  59.444  1.00 27.39 LIG 0.17  C 
ATOM     56 OD2  ASP P 202      53.251  25.452  59.585  1.00 38.79 LIG-0.65  OA
ATOM     57 OD1  ASP P 202      52.353  27.187  58.605  1.00 28.21 LIG-0.65  OA
ENDBRANCH 54 55
ENDBRANCH 42 54
ENDBRANCH 40 42
ENDBRANCH 37 38
BRANCH 37 58
ATOM     58  CB  GLN P 203      47.488  25.683  64.422  1.00 11.55 LIG 0.04  C 
BRANCH 58 59
ATOM     59  CG  GLN P 203      46.346  24.689  64.499  1.00 10.86 LIG 0.10  C 
BRANCH 59 60
ATOM     60  CD  GLN P 203      46.187  24.075  65.876  1.00 14.61 LIG 0.21  C 
ATOM     61  NE2 GLN P 203      47.215  23.359  66.318  1.00 16.54 LIG-0.37  N 
ATOM     62 21HE GLN P 203      47.910  23.253  65.824  1.00 16.54 LIG 0.16  HD
ATOM     63 22HE GLN P 203      47.185  23.001  67.099  1.00 16.54 LIG 0.16  HD
ATOM     64 OE1  GLN P 203      45.168  24.258  66.542  1.00 19.59 LIG-0.27  OA
ENDBRANCH 59 60
ENDBRANCH 58 59
ENDBRANCH 37 58
ENDBRANCH 1 37
TORSDOF 27
ENDMDL
