MODEL 1
USER: ADFR SOLUTION from run 193
USER: SCORE 18.594249 LL:  -2.965 LR: -17.795 RR:   0.000 FEB: -10.635
USER: RMSD 1.835457
USER: SEED 192
USER: STATUS no improvement in best in 2 clusters for 5 generations
USER: GENES 26
USER: genes 0 Translation |==|  0.52049 0.56210 0.51111
USER: genes 1 Rotation |==|  0.54436 0.72374 0.74799 0.86942
USER: genes 2 Torsion [N]-C--CA-[N] |==|  0.17494
USER: genes 3 Torsion [C]-CA--CB-[CG] |==|  0.82955
USER: genes 4 Torsion [CA]-CB--CG-[CD] |==|  0.34690
USER: genes 5 Torsion [CB]-CG--CD-[OE1] |==|  0.08698
USER: genes 6 Torsion [C]-CA--N-[C] |==|  0.65327
USER: genes 7 Torsion [N]-C--CA-[N] |==|  0.39461
USER: genes 8 Torsion [C]-CA--CB-[CG] |==|  0.71838
USER: genes 9 Torsion [CA]-CB--CG-[CD] |==|  0.37333
USER: genes 10 Torsion [CB]-CG--CD-[NE] |==|  0.52200
USER: genes 11 Torsion [CG]-CD--NE-[CZ] |==|  0.62267
USER: genes 12 Torsion [C]-CA--N-[C] |==|  0.84835
USER: genes 13 Torsion [N]-C--CA-[N] |==|  0.52369
USER: genes 14 Torsion [C]-N--CA-[CB] |==|  0.50020
USER: genes 15 Torsion [N]-CA--CB-[CG2] |==|  0.59047
USER: genes 16 Torsion [CA]-CB--OG1-[HG1] |==|  0.17114
USER: genes 17 Torsion [N]-CA--C-[N] |==|  0.37689
USER: genes 18 Torsion [C]-N--CA-[CB] |==|  0.46668
USER: genes 19 Torsion [N]-CA--CB-[CG] |==|  0.58555
USER: genes 20 Torsion [CA]-CB--CG-[CD] |==|  0.62640
USER: genes 21 Torsion [CB]-CG--CD-[OE1] |==|  0.75313
USER: genes 22 Torsion [N]-CA--C-[N] |==|  0.46429
USER: genes 23 Torsion [C]-N--CA-[C] |==|  0.56231
USER: genes 24 Torsion [N]-CA--C-[O] |==|  0.36005
USER: genes 25 Torsion [N]-CA--CB-[CG2] |==|  0.08418
ROOT
ATOM      1  C   GLU E  10      35.600 -32.645  -8.856  1.00 63.15 LIG 0.24  C 
ATOM      2 O    GLU E  10      36.558 -32.644  -9.632  1.00 62.80 LIG-0.27  OA
ATOM      3  N   THR E  11      34.548 -33.475  -8.986  1.00 58.35 LIG-0.34  N 
ATOM      4 H    THR E  11      33.877 -33.472  -8.448  1.00 58.35 LIG 0.16  HD
ENDROOT
BRANCH 1 5
ATOM      5  CA  GLU E  10      35.575 -31.676  -7.670  1.00 61.04 LIG 0.18  C 
BRANCH 5 6
ATOM      6  CB  GLU E  10      36.763 -30.699  -7.724  1.00 62.44 LIG 0.04  C 
BRANCH 6 7
ATOM      7  CG  GLU E  10      38.127 -31.371  -7.656  1.00 71.88 LIG 0.12  C 
BRANCH 7 8
ATOM      8  CD  GLU E  10      39.079 -31.044  -8.790  1.00 89.61 LIG 0.17  C 
ATOM      9 OE1  GLU E  10      39.011 -29.914  -9.327  1.00 85.83 LIG-0.65  OA
ATOM     10 OE2  GLU E  10      39.930 -31.905  -9.110  1.00 80.51 LIG-0.65  OA
ENDBRANCH 7 8
ENDBRANCH 6 7
ENDBRANCH 5 6
BRANCH 5 11
ATOM     11  N   GLU E  10      35.586 -32.434  -6.419  1.00 62.09 LIG-0.35  N 
ATOM     12  C   ARG E   9      34.673 -32.309  -5.444  1.00 67.00 LIG 0.24  C 
ATOM     13 O    ARG E   9      33.726 -31.520  -5.496  1.00 66.41 LIG-0.27  OA
ATOM     14 H    GLU E  10      36.247 -32.981  -6.364  1.00 62.09 LIG 0.16  HD
BRANCH 12 15
ATOM     15  CA  ARG E   9      34.855 -33.212  -4.224  1.00 65.18 LIG 0.18  C 
BRANCH 15 16
ATOM     16  CB  ARG E   9      34.025 -34.498  -4.394  1.00 65.91 LIG 0.04  C 
BRANCH 16 17
ATOM     17  CG  ARG E   9      32.708 -34.522  -3.617  1.00 77.53 LIG 0.02  C 
BRANCH 17 18
ATOM     18  CD  ARG E   9      31.516 -35.018  -4.434  1.00 87.32 LIG 0.14  C 
BRANCH 18 19
ATOM     19  NE  ARG E   9      30.234 -34.861  -3.738  1.00 94.16 LIG-0.23  N 
ATOM     20  CZ  ARG E   9      29.279 -35.786  -3.689  1.00107.18 LIG 0.67  C 
ATOM     21  NH2 ARG E   9      28.151 -35.547  -3.034  1.00 92.81 LIG-0.23  N 
ATOM     22  NH1 ARG E   9      29.446 -36.958  -4.290  1.00 95.67 LIG-0.23  N 
ATOM     23 1HH2 ARG E   9      28.035 -34.792  -2.639  1.00 92.81 LIG 0.17  HD
ATOM     24 2HH2 ARG E   9      27.536 -36.148  -3.004  1.00 92.81 LIG 0.17  HD
ATOM     25 2HH1 ARG E   9      28.825 -37.553  -4.254  1.00 95.67 LIG 0.17  HD
ATOM     26 1HH1 ARG E   9      30.175 -37.124  -4.714  1.00 95.67 LIG 0.17  HD
ATOM     27 HE   ARG E   9      30.089 -34.117  -3.333  1.00 94.16 LIG 0.18  HD
ENDBRANCH 18 19
ENDBRANCH 17 18
ENDBRANCH 16 17
ENDBRANCH 15 16
BRANCH 15 28
ATOM     28  N   ARG E   9      34.517 -32.538  -2.966  1.00 66.15 LIG-0.35  N 
ATOM     29 H    ARG E   9      33.932 -32.966  -2.504  1.00 66.15 LIG 0.16  HD
ATOM     30  C   GLY E   8      35.050 -31.370  -2.554  1.00 70.79 LIG 0.25  C 
ATOM     31 O    GLY E   8      35.890 -30.741  -3.205  1.00 70.42 LIG-0.27  OA
BRANCH 30 32
ATOM     32  CA  GLY E   8      34.569 -30.841  -1.220  1.00 68.19 LIG 0.47  C 
ATOM     33  N   GLY E   8      35.039 -29.492  -0.940  1.00 68.87 LIG 0.61  N 
ENDBRANCH 30 32
ENDBRANCH 15 28
ENDBRANCH 12 15
ENDBRANCH 5 11
ENDBRANCH 1 5
BRANCH 3 34
ATOM     34  CA  THR E  11      34.441 -34.468 -10.058  1.00 57.37 LIG 0.20  C 
BRANCH 34 35
ATOM     35  CB  THR E  11      33.122 -35.258  -9.933  1.00 62.59 LIG 0.15  C 
ATOM     36  CG2 THR E  11      33.246 -36.704 -10.408  1.00 60.54 LIG 0.04  C 
BRANCH 35 37
ATOM     37 OG1  THR E  11      32.684 -35.241  -8.574  1.00 61.42 LIG-0.39  OA
ATOM     38 HG1  THR E  11      32.538 -34.449  -8.336  1.00 61.42 LIG 0.21  HD
ENDBRANCH 35 37
ENDBRANCH 34 35
BRANCH 34 39
ATOM     39  C   THR E  11      34.609 -33.829 -11.440  1.00 59.93 LIG 0.24  C 
ATOM     40 O    THR E  11      34.021 -32.781 -11.710  1.00 59.05 LIG-0.27  OA
ATOM     41  N   GLU E  12      35.398 -34.482 -12.310  1.00 55.90 LIG-0.35  N 
ATOM     42 H    GLU E  12      35.818 -35.204 -12.106  1.00 55.90 LIG 0.16  HD
BRANCH 41 43
ATOM     43  CA  GLU E  12      35.632 -34.046 -13.687  1.00 55.43 LIG 0.18  C 
BRANCH 43 44
ATOM     44  CB  GLU E  12      36.800 -34.823 -14.329  1.00 56.88 LIG 0.04  C 
BRANCH 44 45
ATOM     45  CG  GLU E  12      37.592 -34.045 -15.367  1.00 68.03 LIG 0.12  C 
BRANCH 45 46
ATOM     46  CD  GLU E  12      37.902 -34.795 -16.649  1.00 88.63 LIG 0.17  C 
ATOM     47 OE1  GLU E  12      38.951 -35.476 -16.709  1.00 85.30 LIG-0.65  OA
ATOM     48 OE2  GLU E  12      37.069 -34.736 -17.582  1.00 81.03 LIG-0.65  OA
ENDBRANCH 45 46
ENDBRANCH 44 45
ENDBRANCH 43 44
BRANCH 43 49
ATOM     49  C   GLU E  12      34.347 -34.272 -14.484  1.00 58.58 LIG 0.24  C 
ATOM     50 O    GLU E  12      33.432 -34.936 -13.990  1.00 58.36 LIG-0.27  OA
ATOM     51  N   VAL E  13      34.264 -33.695 -15.698  1.00 54.46 LIG-0.34  N 
ATOM     52 H    VAL E  13      34.892 -33.211 -16.030  1.00 54.46 LIG 0.16  HD
BRANCH 51 53
ATOM     53  CA  VAL E  13      33.094 -33.831 -16.580  1.00 55.96 LIG 0.19  C 
BRANCH 53 54
ATOM     54  C   VAL E  13      33.432 -33.574 -18.062  1.00 65.43 LIG 0.20  C 
ATOM     55 O    VAL E  13      33.069 -34.413 -18.915  1.00 66.90 LIG-0.65  OA
ATOM     56 OXT  VAL E  13      34.075 -32.545 -18.365  1.00 83.99 LIG-0.65  OA
ENDBRANCH 53 54
BRANCH 53 57
ATOM     57  CB  VAL E  13      31.826 -33.056 -16.104  1.00 59.73 LIG 0.01  C 
ATOM     58  CG2 VAL E  13      32.182 -31.795 -15.320  1.00 59.40 LIG 0.01  C 
ATOM     59  CG1 VAL E  13      30.887 -33.955 -15.302  1.00 59.53 LIG 0.01  C 
ENDBRANCH 53 57
ENDBRANCH 51 53
ENDBRANCH 43 49
ENDBRANCH 41 43
ENDBRANCH 34 39
ENDBRANCH 3 34
TORSDOF 24
ENDMDL
MODEL 2
USER: ADFR SOLUTION from run 44
USER: SCORE 19.934838 LL:  -4.305 LR: -17.593 RR:   0.000 FEB: -10.434
USER: RMSD 5.753078
USER: SEED 43
USER: STATUS 1 or 2 clusters left
USER: GENES 26
USER: genes 0 Translation |==|  0.39933 0.39526 0.47278
USER: genes 1 Rotation |==|  0.72451 0.56663 0.08537 0.65243
USER: genes 2 Torsion [N]-C--CA-[N] |==|  0.36135
USER: genes 3 Torsion [C]-CA--CB-[CG] |==|  0.80470
USER: genes 4 Torsion [CA]-CB--CG-[CD] |==|  0.72427
USER: genes 5 Torsion [CB]-CG--CD-[OE1] |==|  0.58855
USER: genes 6 Torsion [C]-CA--N-[C] |==|  0.82848
USER: genes 7 Torsion [N]-C--CA-[N] |==|  0.07418
USER: genes 8 Torsion [C]-CA--CB-[CG] |==|  0.29096
USER: genes 9 Torsion [CA]-CB--CG-[CD] |==|  0.38731
USER: genes 10 Torsion [CB]-CG--CD-[NE] |==|  0.70074
USER: genes 11 Torsion [CG]-CD--NE-[CZ] |==|  0.23301
USER: genes 12 Torsion [C]-CA--N-[C] |==|  0.16677
USER: genes 13 Torsion [N]-C--CA-[N] |==|  0.05409
USER: genes 14 Torsion [C]-N--CA-[CB] |==|  0.41018
USER: genes 15 Torsion [N]-CA--CB-[CG2] |==|  0.13173
USER: genes 16 Torsion [CA]-CB--OG1-[HG1] |==|  0.29197
USER: genes 17 Torsion [N]-CA--C-[N] |==|  0.85132
USER: genes 18 Torsion [C]-N--CA-[CB] |==|  0.51667
USER: genes 19 Torsion [N]-CA--CB-[CG] |==|  0.64393
USER: genes 20 Torsion [CA]-CB--CG-[CD] |==|  0.73984
USER: genes 21 Torsion [CB]-CG--CD-[OE1] |==|  0.63764
USER: genes 22 Torsion [N]-CA--C-[N] |==|  0.39228
USER: genes 23 Torsion [C]-N--CA-[C] |==|  0.58163
USER: genes 24 Torsion [N]-CA--C-[O] |==|  0.39849
USER: genes 25 Torsion [N]-CA--CB-[CG2] |==|  0.09185
ROOT
ATOM      1  C   GLU E  10      33.237 -35.398  -9.919  1.00 63.15 LIG 0.24  C 
ATOM      2 O    GLU E  10      32.165 -34.907 -10.280  1.00 62.80 LIG-0.27  OA
ATOM      3  N   THR E  11      34.402 -34.727  -9.951  1.00 58.35 LIG-0.34  N 
ATOM      4 H    THR E  11      35.151 -35.071  -9.705  1.00 58.35 LIG 0.16  HD
ENDROOT
BRANCH 1 5
ATOM      5  CA  GLU E  10      33.280 -36.837  -9.396  1.00 61.04 LIG 0.18  C 
BRANCH 5 6
ATOM      6  CB  GLU E  10      33.105 -37.852 -10.539  1.00 62.44 LIG 0.04  C 
BRANCH 6 7
ATOM      7  CG  GLU E  10      31.704 -37.886 -11.133  1.00 71.88 LIG 0.12  C 
BRANCH 7 8
ATOM      8  CD  GLU E  10      30.807 -39.003 -10.637  1.00 89.61 LIG 0.17  C 
ATOM      9 OE1  GLU E  10      29.952 -39.483 -11.419  1.00 85.83 LIG-0.65  OA
ATOM     10 OE2  GLU E  10      30.991 -39.435  -9.477  1.00 80.51 LIG-0.65  OA
ENDBRANCH 7 8
ENDBRANCH 6 7
ENDBRANCH 5 6
BRANCH 5 11
ATOM     11  N   GLU E  10      32.244 -37.019  -8.381  1.00 62.09 LIG-0.35  N 
ATOM     12  C   ARG E   9      32.185 -36.345  -7.221  1.00 67.00 LIG 0.24  C 
ATOM     13 O    ARG E   9      33.019 -35.503  -6.882  1.00 66.41 LIG-0.27  OA
ATOM     14 H    GLU E  10      31.660 -37.612  -8.599  1.00 62.09 LIG 0.16  HD
BRANCH 12 15
ATOM     15  CA  ARG E   9      31.004 -36.670  -6.306  1.00 65.18 LIG 0.18  C 
BRANCH 15 16
ATOM     16  CB  ARG E   9      31.402 -36.447  -4.836  1.00 65.91 LIG 0.04  C 
BRANCH 16 17
ATOM     17  CG  ARG E   9      30.831 -35.178  -4.200  1.00 77.53 LIG 0.02  C 
BRANCH 17 18
ATOM     18  CD  ARG E   9      30.353 -35.367  -2.761  1.00 87.32 LIG 0.14  C 
BRANCH 18 19
ATOM     19  NE  ARG E   9      28.891 -35.355  -2.633  1.00 94.16 LIG-0.23  N 
ATOM     20  CZ  ARG E   9      28.103 -36.408  -2.830  1.00107.18 LIG 0.67  C 
ATOM     21  NH2 ARG E   9      26.790 -36.295  -2.692  1.00 92.81 LIG-0.23  N 
ATOM     22  NH1 ARG E   9      28.622 -37.584  -3.163  1.00 95.67 LIG-0.23  N 
ATOM     23 1HH2 ARG E   9      26.444 -35.538  -2.473  1.00 92.81 LIG 0.17  HD
ATOM     24 2HH2 ARG E   9      26.283 -36.978  -2.820  1.00 92.81 LIG 0.17  HD
ATOM     25 2HH1 ARG E   9      28.108 -38.262  -3.289  1.00 95.67 LIG 0.17  HD
ATOM     26 1HH1 ARG E   9      29.474 -37.668  -3.252  1.00 95.67 LIG 0.17  HD
ATOM     27 HE   ARG E   9      28.517 -34.612  -2.414  1.00 94.16 LIG 0.18  HD
ENDBRANCH 18 19
ENDBRANCH 17 18
ENDBRANCH 16 17
ENDBRANCH 15 16
BRANCH 15 28
ATOM     28  N   ARG E   9      30.493 -38.030  -6.506  1.00 66.15 LIG-0.35  N 
ATOM     29 H    ARG E   9      29.669 -38.045  -6.750  1.00 66.15 LIG 0.16  HD
ATOM     30  C   GLY E   8      31.216 -39.154  -6.333  1.00 70.79 LIG 0.25  C 
ATOM     31 O    GLY E   8      32.400 -39.152  -5.981  1.00 70.42 LIG-0.27  OA
BRANCH 30 32
ATOM     32  CA  GLY E   8      30.503 -40.464  -6.594  1.00 68.19 LIG 0.47  C 
ATOM     33  N   GLY E   8      29.308 -40.307  -7.411  1.00 68.87 LIG 0.61  N 
ENDBRANCH 30 32
ENDBRANCH 15 28
ENDBRANCH 12 15
ENDBRANCH 5 11
ENDBRANCH 1 5
BRANCH 3 34
ATOM     34  CA  THR E  11      34.514 -33.339 -10.408  1.00 57.37 LIG 0.20  C 
BRANCH 34 35
ATOM     35  CB  THR E  11      35.633 -32.605  -9.641  1.00 62.59 LIG 0.15  C 
ATOM     36  CG2 THR E  11      36.931 -33.407  -9.571  1.00 60.54 LIG 0.04  C 
BRANCH 35 37
ATOM     37 OG1  THR E  11      35.887 -31.344 -10.260  1.00 61.42 LIG-0.39  OA
ATOM     38 HG1  THR E  11      35.559 -30.730  -9.790  1.00 61.42 LIG 0.21  HD
ENDBRANCH 35 37
ENDBRANCH 34 35
BRANCH 34 39
ATOM     39  C   THR E  11      34.696 -33.256 -11.926  1.00 59.93 LIG 0.24  C 
ATOM     40 O    THR E  11      33.929 -32.569 -12.602  1.00 59.05 LIG-0.27  OA
ATOM     41  N   GLU E  12      35.703 -33.977 -12.450  1.00 55.90 LIG-0.35  N 
ATOM     42 H    GLU E  12      36.243 -34.440 -11.967  1.00 55.90 LIG 0.16  HD
BRANCH 41 43
ATOM     43  CA  GLU E  12      35.992 -34.056 -13.882  1.00 55.43 LIG 0.18  C 
BRANCH 43 44
ATOM     44  CB  GLU E  12      37.112 -35.078 -14.169  1.00 56.88 LIG 0.04  C 
BRANCH 44 45
ATOM     45  CG  GLU E  12      38.259 -34.548 -15.016  1.00 68.03 LIG 0.12  C 
BRANCH 45 46
ATOM     46  CD  GLU E  12      38.138 -34.795 -16.508  1.00 88.63 LIG 0.17  C 
ATOM     47 OE1  GLU E  12      39.114 -35.290 -17.116  1.00 85.30 LIG-0.65  OA
ATOM     48 OE2  GLU E  12      37.046 -34.532 -17.062  1.00 81.03 LIG-0.65  OA
ENDBRANCH 45 46
ENDBRANCH 44 45
ENDBRANCH 43 44
BRANCH 43 49
ATOM     49  C   GLU E  12      34.708 -34.463 -14.606  1.00 58.58 LIG 0.24  C 
ATOM     50 O    GLU E  12      33.943 -35.275 -14.080  1.00 58.36 LIG-0.27  OA
ATOM     51  N   VAL E  13      34.456 -33.877 -15.792  1.00 54.46 LIG-0.34  N 
ATOM     52 H    VAL E  13      34.978 -33.292 -16.145  1.00 54.46 LIG 0.16  HD
BRANCH 51 53
ATOM     53  CA  VAL E  13      33.267 -34.174 -16.605  1.00 55.96 LIG 0.19  C 
BRANCH 53 54
ATOM     54  C   VAL E  13      33.516 -33.993 -18.116  1.00 65.43 LIG 0.20  C 
ATOM     55 O    VAL E  13      32.967 -34.783 -18.914  1.00 66.90 LIG-0.65  OA
ATOM     56 OXT  VAL E  13      34.275 -33.074 -18.496  1.00 83.99 LIG-0.65  OA
ENDBRANCH 53 54
BRANCH 53 57
ATOM     57  CB  VAL E  13      31.956 -33.480 -16.119  1.00 59.73 LIG 0.01  C 
ATOM     58  CG2 VAL E  13      32.225 -32.112 -15.499  1.00 59.40 LIG 0.01  C 
ATOM     59  CG1 VAL E  13      31.170 -34.374 -15.162  1.00 59.53 LIG 0.01  C 
ENDBRANCH 53 57
ENDBRANCH 51 53
ENDBRANCH 43 49
ENDBRANCH 41 43
ENDBRANCH 34 39
ENDBRANCH 3 34
TORSDOF 24
ENDMDL
MODEL 3
USER: ADFR SOLUTION from run 166
USER: SCORE 19.244213 LL:  -2.611 LR: -17.547 RR:   0.000 FEB: -10.388
USER: RMSD 5.440295
USER: SEED 165
USER: STATUS searching
USER: GENES 26
USER: genes 0 Translation |==|  0.40995 0.36035 0.50597
USER: genes 1 Rotation |==|  0.82163 0.30637 0.63824 0.79992
USER: genes 2 Torsion [N]-C--CA-[N] |==|  0.84455
USER: genes 3 Torsion [C]-CA--CB-[CG] |==|  0.09858
USER: genes 4 Torsion [CA]-CB--CG-[CD] |==|  0.34893
USER: genes 5 Torsion [CB]-CG--CD-[OE1] |==|  0.12578
USER: genes 6 Torsion [C]-CA--N-[C] |==|  0.60116
USER: genes 7 Torsion [N]-C--CA-[N] |==|  0.44307
USER: genes 8 Torsion [C]-CA--CB-[CG] |==|  0.54851
USER: genes 9 Torsion [CA]-CB--CG-[CD] |==|  0.80202
USER: genes 10 Torsion [CB]-CG--CD-[NE] |==|  0.37201
USER: genes 11 Torsion [CG]-CD--NE-[CZ] |==|  0.17927
USER: genes 12 Torsion [C]-CA--N-[C] |==|  0.60386
USER: genes 13 Torsion [N]-C--CA-[N] |==|  0.55557
USER: genes 14 Torsion [C]-N--CA-[CB] |==|  0.82221
USER: genes 15 Torsion [N]-CA--CB-[CG2] |==|  0.49861
USER: genes 16 Torsion [CA]-CB--OG1-[HG1] |==|  0.76832
USER: genes 17 Torsion [N]-CA--C-[N] |==|  0.42853
USER: genes 18 Torsion [C]-N--CA-[CB] |==|  0.86099
USER: genes 19 Torsion [N]-CA--CB-[CG] |==|  0.38650
USER: genes 20 Torsion [CA]-CB--CG-[CD] |==|  0.27223
USER: genes 21 Torsion [CB]-CG--CD-[OE1] |==|  0.70537
USER: genes 22 Torsion [N]-CA--C-[N] |==|  0.39444
USER: genes 23 Torsion [C]-N--CA-[C] |==|  0.56286
USER: genes 24 Torsion [N]-CA--C-[O] |==|  0.89378
USER: genes 25 Torsion [N]-CA--CB-[CG2] |==|  0.08533
ROOT
ATOM      1  C   GLU E  10      33.444 -35.974  -8.998  1.00 63.15 LIG 0.24  C 
ATOM      2 O    GLU E  10      34.605 -36.349  -9.180  1.00 62.80 LIG-0.27  OA
ATOM      3  N   THR E  11      33.007 -34.745  -9.325  1.00 58.35 LIG-0.34  N 
ATOM      4 H    THR E  11      32.199 -34.482  -9.194  1.00 58.35 LIG 0.16  HD
ENDROOT
BRANCH 1 5
ATOM      5  CA  GLU E  10      32.420 -36.932  -8.382  1.00 61.04 LIG 0.18  C 
BRANCH 5 6
ATOM      6  CB  GLU E  10      31.329 -37.312  -9.398  1.00 62.44 LIG 0.04  C 
BRANCH 6 7
ATOM      7  CG  GLU E  10      31.830 -37.445 -10.830  1.00 71.88 LIG 0.12  C 
BRANCH 7 8
ATOM      8  CD  GLU E  10      31.524 -38.763 -11.514  1.00 89.61 LIG 0.17  C 
ATOM      9 OE1  GLU E  10      30.370 -39.242 -11.411  1.00 85.83 LIG-0.65  OA
ATOM     10 OE2  GLU E  10      32.427 -39.295 -12.198  1.00 80.51 LIG-0.65  OA
ENDBRANCH 7 8
ENDBRANCH 6 7
ENDBRANCH 5 6
BRANCH 5 11
ATOM     11  N   GLU E  10      31.828 -36.316  -7.195  1.00 62.09 LIG-0.35  N 
ATOM     12  C   ARG E   9      31.487 -36.981  -6.080  1.00 67.00 LIG 0.24  C 
ATOM     13 O    ARG E   9      31.626 -38.198  -5.945  1.00 66.41 LIG-0.27  OA
ATOM     14 H    GLU E  10      31.714 -35.467  -7.278  1.00 62.09 LIG 0.16  HD
BRANCH 12 15
ATOM     15  CA  ARG E   9      30.900 -36.143  -4.943  1.00 65.18 LIG 0.18  C 
BRANCH 15 16
ATOM     16  CB  ARG E   9      32.023 -35.372  -4.226  1.00 65.91 LIG 0.04  C 
BRANCH 16 17
ATOM     17  CG  ARG E   9      31.654 -34.838  -2.840  1.00 77.53 LIG 0.02  C 
BRANCH 17 18
ATOM     18  CD  ARG E   9      30.669 -33.670  -2.869  1.00 87.32 LIG 0.14  C 
BRANCH 18 19
ATOM     19  NE  ARG E   9      29.575 -33.814  -1.902  1.00 94.16 LIG-0.23  N 
ATOM     20  CZ  ARG E   9      29.727 -33.829  -0.581  1.00107.18 LIG 0.67  C 
ATOM     21  NH2 ARG E   9      28.673 -33.967   0.211  1.00 92.81 LIG-0.23  N 
ATOM     22  NH1 ARG E   9      30.933 -33.700  -0.041  1.00 95.67 LIG-0.23  N 
ATOM     23 1HH2 ARG E   9      27.887 -34.048  -0.129  1.00 92.81 LIG 0.17  HD
ATOM     24 2HH2 ARG E   9      28.775 -33.975   1.065  1.00 92.81 LIG 0.17  HD
ATOM     25 2HH1 ARG E   9      31.025 -33.709   0.814  1.00 95.67 LIG 0.17  HD
ATOM     26 1HH1 ARG E   9      31.623 -33.606  -0.547  1.00 95.67 LIG 0.17  HD
ATOM     27 HE   ARG E   9      28.777 -33.896  -2.213  1.00 94.16 LIG 0.18  HD
ENDBRANCH 18 19
ENDBRANCH 17 18
ENDBRANCH 16 17
ENDBRANCH 15 16
BRANCH 15 28
ATOM     28  N   ARG E   9      30.130 -36.947  -3.989  1.00 66.15 LIG-0.35  N 
ATOM     29 H    ARG E   9      30.476 -37.721  -3.848  1.00 66.15 LIG 0.16  HD
ATOM     30  C   GLY E   8      28.997 -36.541  -3.382  1.00 70.79 LIG 0.25  C 
ATOM     31 O    GLY E   8      28.484 -35.434  -3.573  1.00 70.42 LIG-0.27  OA
BRANCH 30 32
ATOM     32  CA  GLY E   8      28.354 -37.522  -2.425  1.00 68.19 LIG 0.47  C 
ATOM     33  N   GLY E   8      26.949 -37.234  -2.174  1.00 68.87 LIG 0.61  N 
ENDBRANCH 30 32
ENDBRANCH 15 28
ENDBRANCH 12 15
ENDBRANCH 5 11
ENDBRANCH 1 5
BRANCH 3 34
ATOM     34  CA  THR E  11      33.865 -33.728  -9.940  1.00 57.37 LIG 0.20  C 
BRANCH 34 35
ATOM     35  CB  THR E  11      35.002 -33.326  -8.978  1.00 62.59 LIG 0.15  C 
ATOM     36  CG2 THR E  11      35.939 -32.275  -9.569  1.00 60.54 LIG 0.04  C 
BRANCH 35 37
ATOM     37 OG1  THR E  11      34.443 -32.832  -7.761  1.00 61.42 LIG-0.39  OA
ATOM     38 HG1  THR E  11      34.244 -32.021  -7.852  1.00 61.42 LIG 0.21  HD
ENDBRANCH 35 37
ENDBRANCH 34 35
BRANCH 34 39
ATOM     39  C   THR E  11      34.391 -34.182 -11.305  1.00 59.93 LIG 0.24  C 
ATOM     40 O    THR E  11      34.514 -35.383 -11.550  1.00 59.05 LIG-0.27  OA
ATOM     41  N   GLU E  12      34.714 -33.211 -12.177  1.00 55.90 LIG-0.35  N 
ATOM     42 H    GLU E  12      34.608 -32.376 -12.002  1.00 55.90 LIG 0.16  HD
BRANCH 41 43
ATOM     43  CA  GLU E  12      35.276 -33.459 -13.504  1.00 55.43 LIG 0.18  C 
BRANCH 43 44
ATOM     44  CB  GLU E  12      36.480 -34.422 -13.431  1.00 56.88 LIG 0.04  C 
BRANCH 44 45
ATOM     45  CG  GLU E  12      36.536 -35.461 -14.540  1.00 68.03 LIG 0.12  C 
BRANCH 45 46
ATOM     46  CD  GLU E  12      37.450 -35.125 -15.703  1.00 88.63 LIG 0.17  C 
ATOM     47 OE1  GLU E  12      36.936 -34.773 -16.790  1.00 85.30 LIG-0.65  OA
ATOM     48 OE2  GLU E  12      38.687 -35.172 -15.513  1.00 81.03 LIG-0.65  OA
ENDBRANCH 45 46
ENDBRANCH 44 45
ENDBRANCH 43 44
BRANCH 43 49
ATOM     49  C   GLU E  12      34.177 -34.054 -14.385  1.00 58.58 LIG 0.24  C 
ATOM     50 O    GLU E  12      33.357 -34.833 -13.892  1.00 58.36 LIG-0.27  OA
ATOM     51  N   VAL E  13      34.139 -33.664 -15.673  1.00 54.46 LIG-0.34  N 
ATOM     52 H    VAL E  13      34.695 -33.102 -16.009  1.00 54.46 LIG 0.16  HD
BRANCH 51 53
ATOM     53  CA  VAL E  13      33.144 -34.158 -16.639  1.00 55.96 LIG 0.19  C 
BRANCH 53 54
ATOM     54  C   VAL E  13      33.615 -34.025 -18.101  1.00 65.43 LIG 0.20  C 
ATOM     55 O    VAL E  13      34.265 -33.008 -18.431  1.00 66.90 LIG-0.65  OA
ATOM     56 OXT  VAL E  13      33.318 -34.925 -18.916  1.00 83.99 LIG-0.65  OA
ENDBRANCH 53 54
BRANCH 53 57
ATOM     57  CB  VAL E  13      31.697 -33.618 -16.416  1.00 59.73 LIG 0.01  C 
ATOM     58  CG2 VAL E  13      31.692 -32.217 -15.810  1.00 59.40 LIG 0.01  C 
ATOM     59  CG1 VAL E  13      30.861 -34.583 -15.579  1.00 59.53 LIG 0.01  C 
ENDBRANCH 53 57
ENDBRANCH 51 53
ENDBRANCH 43 49
ENDBRANCH 41 43
ENDBRANCH 34 39
ENDBRANCH 3 34
TORSDOF 24
ENDMDL
MODEL 4
USER: ADFR SOLUTION from run 28
USER: SCORE 18.647650 LL:  -3.455 LR: -17.499 RR:   0.000 FEB: -10.340
USER: RMSD 3.235179
USER: SEED 27
USER: STATUS searching
USER: GENES 26
USER: genes 0 Translation |==|  0.52616 0.54926 0.48370
USER: genes 1 Rotation |==|  0.57558 0.70383 0.68978 0.90832
USER: genes 2 Torsion [N]-C--CA-[N] |==|  0.07896
USER: genes 3 Torsion [C]-CA--CB-[CG] |==|  0.40498
USER: genes 4 Torsion [CA]-CB--CG-[CD] |==|  0.73621
USER: genes 5 Torsion [CB]-CG--CD-[OE1] |==|  0.53050
USER: genes 6 Torsion [C]-CA--N-[C] |==|  0.16718
USER: genes 7 Torsion [N]-C--CA-[N] |==|  0.44340
USER: genes 8 Torsion [C]-CA--CB-[CG] |==|  0.55043
USER: genes 9 Torsion [CA]-CB--CG-[CD] |==|  0.86768
USER: genes 10 Torsion [CB]-CG--CD-[NE] |==|  0.45503
USER: genes 11 Torsion [CG]-CD--NE-[CZ] |==|  0.47623
USER: genes 12 Torsion [C]-CA--N-[C] |==|  0.83132
USER: genes 13 Torsion [N]-C--CA-[N] |==|  0.34428
USER: genes 14 Torsion [C]-N--CA-[CB] |==|  0.52414
USER: genes 15 Torsion [N]-CA--CB-[CG2] |==|  0.48884
USER: genes 16 Torsion [CA]-CB--OG1-[HG1] |==|  0.20916
USER: genes 17 Torsion [N]-CA--C-[N] |==|  0.30686
USER: genes 18 Torsion [C]-N--CA-[CB] |==|  0.45556
USER: genes 19 Torsion [N]-CA--CB-[CG] |==|  0.01653
USER: genes 20 Torsion [CA]-CB--CG-[CD] |==|  0.27927
USER: genes 21 Torsion [CB]-CG--CD-[OE1] |==|  0.26735
USER: genes 22 Torsion [N]-CA--C-[N] |==|  0.25000
USER: genes 23 Torsion [C]-N--CA-[C] |==|  0.73260
USER: genes 24 Torsion [N]-CA--C-[O] |==|  0.79283
USER: genes 25 Torsion [N]-CA--CB-[CG2] |==|  0.08591
ROOT
ATOM      1  C   GLU E  10      35.710 -32.857  -9.616  1.00 63.15 LIG 0.24  C 
ATOM      2 O    GLU E  10      36.659 -33.147 -10.350  1.00 62.80 LIG-0.27  OA
ATOM      3  N   THR E  11      34.462 -33.321  -9.809  1.00 58.35 LIG-0.34  N 
ATOM      4 H    THR E  11      33.800 -33.114  -9.301  1.00 58.35 LIG 0.16  HD
ENDROOT
BRANCH 1 5
ATOM      5  CA  GLU E  10      35.929 -31.935  -8.413  1.00 61.04 LIG 0.18  C 
BRANCH 5 6
ATOM      6  CB  GLU E  10      37.367 -32.049  -7.878  1.00 62.44 LIG 0.04  C 
BRANCH 6 7
ATOM      7  CG  GLU E  10      37.933 -30.747  -7.328  1.00 71.88 LIG 0.12  C 
BRANCH 7 8
ATOM      8  CD  GLU E  10      38.762 -29.928  -8.299  1.00 89.61 LIG 0.17  C 
ATOM      9 OE1  GLU E  10      39.425 -28.960  -7.858  1.00 85.83 LIG-0.65  OA
ATOM     10 OE2  GLU E  10      38.788 -30.286  -9.498  1.00 80.51 LIG-0.65  OA
ENDBRANCH 7 8
ENDBRANCH 6 7
ENDBRANCH 5 6
BRANCH 5 11
ATOM     11  N   GLU E  10      34.961 -32.261  -7.366  1.00 62.09 LIG-0.35  N 
ATOM     12  C   ARG E   9      34.861 -33.458  -6.766  1.00 67.00 LIG 0.24  C 
ATOM     13 O    ARG E   9      35.574 -34.422  -7.050  1.00 66.41 LIG-0.27  OA
ATOM     14 H    GLU E  10      34.449 -31.600  -7.164  1.00 62.09 LIG 0.16  HD
BRANCH 12 15
ATOM     15  CA  ARG E   9      33.794 -33.584  -5.678  1.00 65.18 LIG 0.18  C 
BRANCH 15 16
ATOM     16  CB  ARG E   9      34.275 -32.894  -4.388  1.00 65.91 LIG 0.04  C 
BRANCH 16 17
ATOM     17  CG  ARG E   9      33.525 -33.307  -3.120  1.00 77.53 LIG 0.02  C 
BRANCH 17 18
ATOM     18  CD  ARG E   9      32.004 -33.295  -3.268  1.00 87.32 LIG 0.14  C 
BRANCH 18 19
ATOM     19  NE  ARG E   9      31.316 -34.037  -2.206  1.00 94.16 LIG-0.23  N 
ATOM     20  CZ  ARG E   9      29.999 -34.043  -2.014  1.00107.18 LIG 0.67  C 
ATOM     21  NH2 ARG E   9      29.472 -34.745  -1.022  1.00 92.81 LIG-0.23  N 
ATOM     22  NH1 ARG E   9      29.200 -33.350  -2.818  1.00 95.67 LIG-0.23  N 
ATOM     23 1HH2 ARG E   9      29.981 -35.199  -0.498  1.00 92.81 LIG 0.17  HD
ATOM     24 2HH2 ARG E   9      28.620 -34.746  -0.901  1.00 92.81 LIG 0.17  HD
ATOM     25 2HH1 ARG E   9      28.349 -33.358  -2.690  1.00 95.67 LIG 0.17  HD
ATOM     26 1HH1 ARG E   9      29.533 -32.894  -3.466  1.00 95.67 LIG 0.17  HD
ATOM     27 HE   ARG E   9      31.799 -34.501  -1.667  1.00 94.16 LIG 0.18  HD
ENDBRANCH 18 19
ENDBRANCH 17 18
ENDBRANCH 16 17
ENDBRANCH 15 16
BRANCH 15 28
ATOM     28  N   ARG E   9      33.418 -34.976  -5.414  1.00 66.15 LIG-0.35  N 
ATOM     29 H    ARG E   9      33.575 -35.217  -4.604  1.00 66.15 LIG 0.16  HD
ATOM     30  C   GLY E   8      32.881 -35.812  -6.326  1.00 70.79 LIG 0.25  C 
ATOM     31 O    GLY E   8      32.650 -35.483  -7.493  1.00 70.42 LIG-0.27  OA
BRANCH 30 32
ATOM     32  CA  GLY E   8      32.560 -37.213  -5.851  1.00 68.19 LIG 0.47  C 
ATOM     33  N   GLY E   8      31.167 -37.579  -6.061  1.00 68.87 LIG 0.61  N 
ENDBRANCH 30 32
ENDBRANCH 15 28
ENDBRANCH 12 15
ENDBRANCH 5 11
ENDBRANCH 1 5
BRANCH 3 34
ATOM     34  CA  THR E  11      34.105 -34.226 -10.905  1.00 57.37 LIG 0.20  C 
BRANCH 34 35
ATOM     35  CB  THR E  11      32.574 -34.400 -10.984  1.00 62.59 LIG 0.15  C 
ATOM     36  CG2 THR E  11      32.134 -35.256 -12.170  1.00 60.54 LIG 0.04  C 
BRANCH 35 37
ATOM     37 OG1  THR E  11      32.099 -34.986  -9.773  1.00 61.42 LIG-0.39  OA
ATOM     38 HG1  THR E  11      32.097 -34.409  -9.163  1.00 61.42 LIG 0.21  HD
ENDBRANCH 35 37
ENDBRANCH 34 35
BRANCH 34 39
ATOM     39  C   THR E  11      34.710 -33.769 -12.235  1.00 59.93 LIG 0.24  C 
ATOM     40 O    THR E  11      34.280 -32.757 -12.792  1.00 59.05 LIG-0.27  OA
ATOM     41  N   GLU E  12      35.691 -34.534 -12.743  1.00 55.90 LIG-0.35  N 
ATOM     42 H    GLU E  12      35.996 -35.229 -12.338  1.00 55.90 LIG 0.16  HD
BRANCH 41 43
ATOM     43  CA  GLU E  12      36.348 -34.277 -14.025  1.00 55.43 LIG 0.18  C 
BRANCH 43 44
ATOM     44  CB  GLU E  12      37.668 -35.066 -14.144  1.00 56.88 LIG 0.04  C 
BRANCH 44 45
ATOM     45  CG  GLU E  12      37.941 -36.034 -13.003  1.00 68.03 LIG 0.12  C 
BRANCH 45 46
ATOM     46  CD  GLU E  12      37.630 -37.490 -13.294  1.00 88.63 LIG 0.17  C 
ATOM     47 OE1  GLU E  12      38.562 -38.241 -13.664  1.00 85.30 LIG-0.65  OA
ATOM     48 OE2  GLU E  12      36.459 -37.891 -13.108  1.00 81.03 LIG-0.65  OA
ENDBRANCH 45 46
ENDBRANCH 44 45
ENDBRANCH 43 44
BRANCH 43 49
ATOM     49  C   GLU E  12      35.387 -34.685 -15.142  1.00 58.58 LIG 0.24  C 
ATOM     50 O    GLU E  12      35.391 -35.847 -15.557  1.00 58.36 LIG-0.27  OA
ATOM     51  N   VAL E  13      34.544 -33.743 -15.605  1.00 54.46 LIG-0.34  N 
ATOM     52 H    VAL E  13      34.524 -32.940 -15.298  1.00 54.46 LIG 0.16  HD
BRANCH 51 53
ATOM     53  CA  VAL E  13      33.570 -33.986 -16.682  1.00 55.96 LIG 0.19  C 
BRANCH 53 54
ATOM     54  C   VAL E  13      34.089 -33.547 -18.066  1.00 65.43 LIG 0.20  C 
ATOM     55 O    VAL E  13      34.132 -32.326 -18.331  1.00 66.90 LIG-0.65  OA
ATOM     56 OXT  VAL E  13      34.431 -34.424 -18.888  1.00 83.99 LIG-0.65  OA
ENDBRANCH 53 54
BRANCH 53 57
ATOM     57  CB  VAL E  13      32.127 -33.470 -16.383  1.00 59.73 LIG 0.01  C 
ATOM     58  CG2 VAL E  13      32.132 -32.234 -15.488  1.00 59.40 LIG 0.01  C 
ATOM     59  CG1 VAL E  13      31.248 -34.572 -15.796  1.00 59.53 LIG 0.01  C 
ENDBRANCH 53 57
ENDBRANCH 51 53
ENDBRANCH 43 49
ENDBRANCH 41 43
ENDBRANCH 34 39
ENDBRANCH 3 34
TORSDOF 24
ENDMDL
MODEL 5
USER: ADFR SOLUTION from run 65
USER: SCORE 19.131854 LL:  -3.222 LR: -17.281 RR:   0.000 FEB: -10.122
USER: RMSD 4.880866
USER: SEED 64
USER: STATUS 1 or 2 clusters left
USER: GENES 26
USER: genes 0 Translation |==|  0.39307 0.38779 0.47168
USER: genes 1 Rotation |==|  0.80726 0.40383 0.17742 0.70564
USER: genes 2 Torsion [N]-C--CA-[N] |==|  0.12173
USER: genes 3 Torsion [C]-CA--CB-[CG] |==|  0.33593
USER: genes 4 Torsion [CA]-CB--CG-[CD] |==|  0.69995
USER: genes 5 Torsion [CB]-CG--CD-[OE1] |==|  0.71836
USER: genes 6 Torsion [C]-CA--N-[C] |==|  0.63295
USER: genes 7 Torsion [N]-C--CA-[N] |==|  0.89643
USER: genes 8 Torsion [C]-CA--CB-[CG] |==|  0.59341
USER: genes 9 Torsion [CA]-CB--CG-[CD] |==|  0.64676
USER: genes 10 Torsion [CB]-CG--CD-[NE] |==|  0.71168
USER: genes 11 Torsion [CG]-CD--NE-[CZ] |==|  0.21515
USER: genes 12 Torsion [C]-CA--N-[C] |==|  0.83788
USER: genes 13 Torsion [N]-C--CA-[N] |==|  0.54352
USER: genes 14 Torsion [C]-N--CA-[CB] |==|  0.50005
USER: genes 15 Torsion [N]-CA--CB-[CG2] |==|  0.31360
USER: genes 16 Torsion [CA]-CB--OG1-[HG1] |==|  0.96288
USER: genes 17 Torsion [N]-CA--C-[N] |==|  0.44886
USER: genes 18 Torsion [C]-N--CA-[CB] |==|  0.87090
USER: genes 19 Torsion [N]-CA--CB-[CG] |==|  0.63699
USER: genes 20 Torsion [CA]-CB--CG-[CD] |==|  0.76721
USER: genes 21 Torsion [CB]-CG--CD-[OE1] |==|  0.62551
USER: genes 22 Torsion [N]-CA--C-[N] |==|  0.32778
USER: genes 23 Torsion [C]-N--CA-[C] |==|  0.59970
USER: genes 24 Torsion [N]-CA--C-[O] |==|  0.40785
USER: genes 25 Torsion [N]-CA--CB-[CG2] |==|  0.06853
ROOT
ATOM      1  C   GLU E  10      33.115 -35.521  -9.950  1.00 63.15 LIG 0.24  C 
ATOM      2 O    GLU E  10      32.598 -35.381 -11.061  1.00 62.80 LIG-0.27  OA
ATOM      3  N   THR E  11      34.176 -34.806  -9.536  1.00 58.35 LIG-0.34  N 
ATOM      4 H    THR E  11      34.540 -34.908  -8.764  1.00 58.35 LIG 0.16  HD
ENDROOT
BRANCH 1 5
ATOM      5  CA  GLU E  10      32.541 -36.544  -8.964  1.00 61.04 LIG 0.18  C 
BRANCH 5 6
ATOM      6  CB  GLU E  10      31.158 -37.041  -9.419  1.00 62.44 LIG 0.04  C 
BRANCH 6 7
ATOM      7  CG  GLU E  10      31.077 -38.545  -9.641  1.00 71.88 LIG 0.12  C 
BRANCH 7 8
ATOM      8  CD  GLU E  10      30.985 -38.993 -11.087  1.00 89.61 LIG 0.17  C 
ATOM      9 OE1  GLU E  10      29.867 -39.328 -11.544  1.00 85.83 LIG-0.65  OA
ATOM     10 OE2  GLU E  10      32.026 -38.961 -11.780  1.00 80.51 LIG-0.65  OA
ENDBRANCH 7 8
ENDBRANCH 6 7
ENDBRANCH 5 6
BRANCH 5 11
ATOM     11  N   GLU E  10      32.463 -35.947  -7.632  1.00 62.09 LIG-0.35  N 
ATOM     12  C   ARG E   9      32.899 -36.535  -6.506  1.00 67.00 LIG 0.24  C 
ATOM     13 O    ARG E   9      33.403 -37.660  -6.478  1.00 66.41 LIG-0.27  OA
ATOM     14 H    GLU E  10      32.104 -35.166  -7.634  1.00 62.09 LIG 0.16  HD
BRANCH 12 15
ATOM     15  CA  ARG E   9      32.744 -35.729  -5.216  1.00 65.18 LIG 0.18  C 
BRANCH 15 16
ATOM     16  CB  ARG E   9      31.349 -35.971  -4.610  1.00 65.91 LIG 0.04  C 
BRANCH 16 17
ATOM     17  CG  ARG E   9      30.743 -34.766  -3.888  1.00 77.53 LIG 0.02  C 
BRANCH 17 18
ATOM     18  CD  ARG E   9      30.281 -35.067  -2.463  1.00 87.32 LIG 0.14  C 
BRANCH 18 19
ATOM     19  NE  ARG E   9      28.825 -35.200  -2.345  1.00 94.16 LIG-0.23  N 
ATOM     20  CZ  ARG E   9      28.128 -36.273  -2.711  1.00107.18 LIG 0.67  C 
ATOM     21  NH2 ARG E   9      26.811 -36.295  -2.566  1.00 92.81 LIG-0.23  N 
ATOM     22  NH1 ARG E   9      28.745 -37.333  -3.220  1.00 95.67 LIG-0.23  N 
ATOM     23 1HH2 ARG E   9      26.403 -35.614  -2.233  1.00 92.81 LIG 0.17  HD
ATOM     24 2HH2 ARG E   9      26.364 -36.991  -2.804  1.00 92.81 LIG 0.17  HD
ATOM     25 2HH1 ARG E   9      28.289 -38.024  -3.455  1.00 95.67 LIG 0.17  HD
ATOM     26 1HH1 ARG E   9      29.600 -37.329  -3.316  1.00 95.67 LIG 0.17  HD
ATOM     27 HE   ARG E   9      28.390 -34.536  -2.015  1.00 94.16 LIG 0.18  HD
ENDBRANCH 18 19
ENDBRANCH 17 18
ENDBRANCH 16 17
ENDBRANCH 15 16
BRANCH 15 28
ATOM     28  N   ARG E   9      32.984 -34.297  -5.413  1.00 66.15 LIG-0.35  N 
ATOM     29 H    ARG E   9      32.311 -33.811  -5.190  1.00 66.15 LIG 0.16  HD
ATOM     30  C   GLY E   8      34.129 -33.769  -5.890  1.00 70.79 LIG 0.25  C 
ATOM     31 O    GLY E   8      35.106 -34.451  -6.216  1.00 70.42 LIG-0.27  OA
BRANCH 30 32
ATOM     32  CA  GLY E   8      34.178 -32.261  -6.015  1.00 68.19 LIG 0.47  C 
ATOM     33  N   GLY E   8      35.271 -31.795  -6.856  1.00 68.87 LIG 0.61  N 
ENDBRANCH 30 32
ENDBRANCH 15 28
ENDBRANCH 12 15
ENDBRANCH 5 11
ENDBRANCH 1 5
BRANCH 3 34
ATOM     34  CA  THR E  11      34.820 -33.780 -10.360  1.00 57.37 LIG 0.20  C 
BRANCH 34 35
ATOM     35  CB  THR E  11      36.005 -33.144  -9.604  1.00 62.59 LIG 0.15  C 
ATOM     36  CG2 THR E  11      37.357 -33.469 -10.235  1.00 60.54 LIG 0.04  C 
BRANCH 35 37
ATOM     37 OG1  THR E  11      35.833 -31.728  -9.554  1.00 61.42 LIG-0.39  OA
ATOM     38 HG1  THR E  11      35.230 -31.499 -10.093  1.00 61.42 LIG 0.21  HD
ENDBRANCH 35 37
ENDBRANCH 34 35
BRANCH 34 39
ATOM     39  C   THR E  11      35.229 -34.329 -11.730  1.00 59.93 LIG 0.24  C 
ATOM     40 O    THR E  11      35.341 -35.545 -11.898  1.00 59.05 LIG-0.27  OA
ATOM     41  N   GLU E  12      35.469 -33.422 -12.693  1.00 55.90 LIG-0.35  N 
ATOM     42 H    GLU E  12      35.373 -32.577 -12.570  1.00 55.90 LIG 0.16  HD
BRANCH 41 43
ATOM     43  CA  GLU E  12      35.917 -33.763 -14.043  1.00 55.43 LIG 0.18  C 
BRANCH 43 44
ATOM     44  CB  GLU E  12      37.072 -34.786 -14.007  1.00 56.88 LIG 0.04  C 
BRANCH 44 45
ATOM     45  CG  GLU E  12      38.277 -34.420 -14.859  1.00 68.03 LIG 0.12  C 
BRANCH 45 46
ATOM     46  CD  GLU E  12      38.178 -34.795 -16.326  1.00 88.63 LIG 0.17  C 
ATOM     47 OE1  GLU E  12      39.164 -35.339 -16.875  1.00 85.30 LIG-0.65  OA
ATOM     48 OE2  GLU E  12      37.095 -34.584 -16.916  1.00 81.03 LIG-0.65  OA
ENDBRANCH 45 46
ENDBRANCH 44 45
ENDBRANCH 43 44
BRANCH 43 49
ATOM     49  C   GLU E  12      34.726 -34.339 -14.810  1.00 58.58 LIG 0.24  C 
ATOM     50 O    GLU E  12      34.171 -35.361 -14.396  1.00 58.36 LIG-0.27  OA
ATOM     51  N   VAL E  13      34.313 -33.670 -15.902  1.00 54.46 LIG-0.34  N 
ATOM     52 H    VAL E  13      34.684 -32.944 -16.175  1.00 54.46 LIG 0.16  HD
BRANCH 51 53
ATOM     53  CA  VAL E  13      33.187 -34.108 -16.743  1.00 55.96 LIG 0.19  C 
BRANCH 53 54
ATOM     54  C   VAL E  13      33.413 -33.819 -18.240  1.00 65.43 LIG 0.20  C 
ATOM     55 O    VAL E  13      32.940 -34.613 -19.083  1.00 66.90 LIG-0.65  OA
ATOM     56 OXT  VAL E  13      34.078 -32.812 -18.568  1.00 83.99 LIG-0.65  OA
ENDBRANCH 53 54
BRANCH 53 57
ATOM     57  CB  VAL E  13      31.783 -33.647 -16.241  1.00 59.73 LIG 0.01  C 
ATOM     58  CG2 VAL E  13      31.863 -32.389 -15.380  1.00 59.40 LIG 0.01  C 
ATOM     59  CG1 VAL E  13      31.053 -34.771 -15.508  1.00 59.53 LIG 0.01  C 
ENDBRANCH 53 57
ENDBRANCH 51 53
ENDBRANCH 43 49
ENDBRANCH 41 43
ENDBRANCH 34 39
ENDBRANCH 3 34
TORSDOF 24
ENDMDL
MODEL 6
USER: ADFR SOLUTION from run 169
USER: SCORE 17.722976 LL:  -3.825 LR: -17.117 RR:   0.000 FEB:  -9.958
USER: RMSD 7.449103
USER: SEED 168
USER: STATUS no improvement in best in 2 clusters for 5 generations
USER: GENES 26
USER: genes 0 Translation |==|  0.43932 0.47180 0.30334
USER: genes 1 Rotation |==|  0.40854 0.51115 0.16761 0.86198
USER: genes 2 Torsion [N]-C--CA-[N] |==|  0.48665
USER: genes 3 Torsion [C]-CA--CB-[CG] |==|  0.25558
USER: genes 4 Torsion [CA]-CB--CG-[CD] |==|  0.54408
USER: genes 5 Torsion [CB]-CG--CD-[OE1] |==|  0.31059
USER: genes 6 Torsion [C]-CA--N-[C] |==|  0.78802
USER: genes 7 Torsion [N]-C--CA-[N] |==|  0.46350
USER: genes 8 Torsion [C]-CA--CB-[CG] |==|  0.79630
USER: genes 9 Torsion [CA]-CB--CG-[CD] |==|  0.54988
USER: genes 10 Torsion [CB]-CG--CD-[NE] |==|  0.26201
USER: genes 11 Torsion [CG]-CD--NE-[CZ] |==|  0.48158
USER: genes 12 Torsion [C]-CA--N-[C] |==|  0.58890
USER: genes 13 Torsion [N]-C--CA-[N] |==|  0.28733
USER: genes 14 Torsion [C]-N--CA-[CB] |==|  0.50687
USER: genes 15 Torsion [N]-CA--CB-[CG2] |==|  0.91632
USER: genes 16 Torsion [CA]-CB--OG1-[HG1] |==|  0.24357
USER: genes 17 Torsion [N]-CA--C-[N] |==|  0.79358
USER: genes 18 Torsion [C]-N--CA-[CB] |==|  0.38329
USER: genes 19 Torsion [N]-CA--CB-[CG] |==|  0.68312
USER: genes 20 Torsion [CA]-CB--CG-[CD] |==|  0.21314
USER: genes 21 Torsion [CB]-CG--CD-[OE1] |==|  0.90251
USER: genes 22 Torsion [N]-CA--C-[N] |==|  0.13260
USER: genes 23 Torsion [C]-N--CA-[C] |==|  0.85556
USER: genes 24 Torsion [N]-CA--C-[O] |==|  0.83781
USER: genes 25 Torsion [N]-CA--CB-[CG2] |==|  0.53227
ROOT
ATOM      1  C   GLU E  10      34.017 -34.135 -14.621  1.00 63.15 LIG 0.24  C 
ATOM      2 O    GLU E  10      33.130 -34.658 -13.942  1.00 62.80 LIG-0.27  OA
ATOM      3  N   THR E  11      33.820 -33.698 -15.878  1.00 58.35 LIG-0.34  N 
ATOM      4 H    THR E  11      34.440 -33.339 -16.354  1.00 58.35 LIG 0.16  HD
ENDROOT
BRANCH 1 5
ATOM      5  CA  GLU E  10      35.419 -33.950 -14.034  1.00 61.04 LIG 0.18  C 
BRANCH 5 6
ATOM      6  CB  GLU E  10      36.469 -34.734 -14.841  1.00 62.44 LIG 0.04  C 
BRANCH 6 7
ATOM      7  CG  GLU E  10      37.126 -33.932 -15.956  1.00 71.88 LIG 0.12  C 
BRANCH 7 8
ATOM      8  CD  GLU E  10      37.872 -34.742 -16.998  1.00 89.61 LIG 0.17  C 
ATOM      9 OE1  GLU E  10      37.414 -34.793 -18.164  1.00 85.83 LIG-0.65  OA
ATOM     10 OE2  GLU E  10      38.946 -35.289 -16.660  1.00 80.51 LIG-0.65  OA
ENDBRANCH 7 8
ENDBRANCH 6 7
ENDBRANCH 5 6
BRANCH 5 11
ATOM     11  N   GLU E  10      35.423 -34.372 -12.634  1.00 62.09 LIG-0.35  N 
ATOM     12  C   ARG E   9      34.913 -33.655 -11.621  1.00 67.00 LIG 0.24  C 
ATOM     13 O    ARG E   9      34.396 -32.545 -11.765  1.00 66.41 LIG-0.27  OA
ATOM     14 H    GLU E  10      35.791 -35.140 -12.516  1.00 62.09 LIG 0.16  HD
BRANCH 12 15
ATOM     15  CA  ARG E   9      34.999 -34.288 -10.231  1.00 65.18 LIG 0.18  C 
BRANCH 15 16
ATOM     16  CB  ARG E   9      34.058 -35.504 -10.149  1.00 65.91 LIG 0.04  C 
BRANCH 16 17
ATOM     17  CG  ARG E   9      32.569 -35.162 -10.072  1.00 77.53 LIG 0.02  C 
BRANCH 17 18
ATOM     18  CD  ARG E   9      31.696 -36.309  -9.563  1.00 87.32 LIG 0.14  C 
BRANCH 18 19
ATOM     19  NE  ARG E   9      31.450 -36.249  -8.118  1.00 94.16 LIG-0.23  N 
ATOM     20  CZ  ARG E   9      30.623 -37.053  -7.455  1.00107.18 LIG 0.67  C 
ATOM     21  NH2 ARG E   9      30.466 -36.918  -6.146  1.00 92.81 LIG-0.23  N 
ATOM     22  NH1 ARG E   9      29.950 -38.002  -8.096  1.00 95.67 LIG-0.23  N 
ATOM     23 1HH2 ARG E   9      30.901 -36.308  -5.722  1.00 92.81 LIG 0.17  HD
ATOM     24 2HH2 ARG E   9      29.931 -37.440  -5.721  1.00 92.81 LIG 0.17  HD
ATOM     25 2HH1 ARG E   9      29.417 -38.519  -7.662  1.00 95.67 LIG 0.17  HD
ATOM     26 1HH1 ARG E   9      30.047 -38.099  -8.945  1.00 95.67 LIG 0.17  HD
ATOM     27 HE   ARG E   9      31.871 -35.650  -7.667  1.00 94.16 LIG 0.18  HD
ENDBRANCH 18 19
ENDBRANCH 17 18
ENDBRANCH 16 17
ENDBRANCH 15 16
BRANCH 15 28
ATOM     28  N   ARG E   9      34.709 -33.333  -9.157  1.00 66.15 LIG-0.35  N 
ATOM     29 H    ARG E   9      34.140 -32.732  -9.388  1.00 66.15 LIG 0.16  HD
ATOM     30  C   GLY E   8      35.262 -33.370  -7.928  1.00 70.79 LIG 0.25  C 
ATOM     31 O    GLY E   8      36.082 -34.224  -7.578  1.00 70.42 LIG-0.27  OA
BRANCH 30 32
ATOM     32  CA  GLY E   8      34.826 -32.292  -6.958  1.00 68.19 LIG 0.47  C 
ATOM     33  N   GLY E   8      33.879 -32.771  -5.963  1.00 68.87 LIG 0.61  N 
ENDBRANCH 30 32
ENDBRANCH 15 28
ENDBRANCH 12 15
ENDBRANCH 5 11
ENDBRANCH 1 5
BRANCH 3 34
ATOM     34  CA  THR E  11      32.529 -33.790 -16.564  1.00 57.37 LIG 0.20  C 
BRANCH 34 35
ATOM     35  CB  THR E  11      32.645 -33.262 -18.009  1.00 62.59 LIG 0.15  C 
ATOM     36  CG2 THR E  11      33.704 -32.171 -18.160  1.00 60.54 LIG 0.04  C 
BRANCH 35 37
ATOM     37 OG1  THR E  11      32.949 -34.344 -18.889  1.00 61.42 LIG-0.39  OA
ATOM     38 HG1  THR E  11      32.236 -34.705 -19.146  1.00 61.42 LIG 0.21  HD
ENDBRANCH 35 37
ENDBRANCH 34 35
BRANCH 34 39
ATOM     39  C   THR E  11      31.958 -35.210 -16.507  1.00 59.93 LIG 0.24  C 
ATOM     40 O    THR E  11      31.026 -35.470 -15.743  1.00 59.05 LIG-0.27  OA
ATOM     41  N   GLU E  12      32.538 -36.123 -17.305  1.00 55.90 LIG-0.35  N 
ATOM     42 H    GLU E  12      33.177 -35.928 -17.847  1.00 55.90 LIG 0.16  HD
BRANCH 41 43
ATOM     43  CA  GLU E  12      32.157 -37.535 -17.344  1.00 55.43 LIG 0.18  C 
BRANCH 43 44
ATOM     44  CB  GLU E  12      32.111 -38.062 -18.794  1.00 56.88 LIG 0.04  C 
BRANCH 44 45
ATOM     45  CG  GLU E  12      30.729 -38.458 -19.287  1.00 68.03 LIG 0.12  C 
BRANCH 45 46
ATOM     46  CD  GLU E  12      29.816 -37.307 -19.665  1.00 88.63 LIG 0.17  C 
ATOM     47 OE1  GLU E  12      29.884 -36.244 -19.006  1.00 85.30 LIG-0.65  OA
ATOM     48 OE2  GLU E  12      29.060 -37.454 -20.652  1.00 81.03 LIG-0.65  OA
ENDBRANCH 45 46
ENDBRANCH 44 45
ENDBRANCH 43 44
BRANCH 43 49
ATOM     49  C   GLU E  12      33.178 -38.328 -16.527  1.00 58.58 LIG 0.24  C 
ATOM     50 O    GLU E  12      33.694 -39.339 -17.011  1.00 58.36 LIG-0.27  OA
ATOM     51  N   VAL E  13      33.494 -37.854 -15.307  1.00 54.46 LIG-0.34  N 
ATOM     52 H    VAL E  13      33.153 -37.135 -14.981  1.00 54.46 LIG 0.16  HD
BRANCH 51 53
ATOM     53  CA  VAL E  13      34.452 -38.513 -14.405  1.00 55.96 LIG 0.19  C 
BRANCH 53 54
ATOM     54  C   VAL E  13      34.137 -40.006 -14.188  1.00 65.43 LIG 0.20  C 
ATOM     55 O    VAL E  13      33.021 -40.322 -13.720  1.00 66.90 LIG-0.65  OA
ATOM     56 OXT  VAL E  13      35.011 -40.855 -14.467  1.00 83.99 LIG-0.65  OA
ENDBRANCH 53 54
BRANCH 53 57
ATOM     57  CB  VAL E  13      34.721 -37.749 -13.071  1.00 59.73 LIG 0.01  C 
ATOM     58  CG2 VAL E  13      35.917 -38.319 -12.312  1.00 59.40 LIG 0.01  C 
ATOM     59  CG1 VAL E  13      33.476 -37.709 -12.187  1.00 59.53 LIG 0.01  C 
ENDBRANCH 53 57
ENDBRANCH 51 53
ENDBRANCH 43 49
ENDBRANCH 41 43
ENDBRANCH 34 39
ENDBRANCH 3 34
TORSDOF 24
ENDMDL
MODEL 7
USER: ADFR SOLUTION from run 193
USER: SCORE 18.368465 LL:  -3.659 LR: -16.921 RR:   0.000 FEB:  -9.762
USER: RMSD 2.831331
USER: SEED 192
USER: STATUS no improvement in best in 2 clusters for 5 generations
USER: GENES 26
USER: genes 0 Translation |==|  0.51671 0.55507 0.50371
USER: genes 1 Rotation |==|  0.55122 0.72673 0.73669 0.87409
USER: genes 2 Torsion [N]-C--CA-[N] |==|  0.19668
USER: genes 3 Torsion [C]-CA--CB-[CG] |==|  0.81368
USER: genes 4 Torsion [CA]-CB--CG-[CD] |==|  0.44648
USER: genes 5 Torsion [CB]-CG--CD-[OE1] |==|  0.10045
USER: genes 6 Torsion [C]-CA--N-[C] |==|  0.80555
USER: genes 7 Torsion [N]-C--CA-[N] |==|  0.96003
USER: genes 8 Torsion [C]-CA--CB-[CG] |==|  0.29188
USER: genes 9 Torsion [CA]-CB--CG-[CD] |==|  0.71740
USER: genes 10 Torsion [CB]-CG--CD-[NE] |==|  0.46675
USER: genes 11 Torsion [CG]-CD--NE-[CZ] |==|  0.40373
USER: genes 12 Torsion [C]-CA--N-[C] |==|  0.83304
USER: genes 13 Torsion [N]-C--CA-[N] |==|  0.62918
USER: genes 14 Torsion [C]-N--CA-[CB] |==|  0.50255
USER: genes 15 Torsion [N]-CA--CB-[CG2] |==|  0.57807
USER: genes 16 Torsion [CA]-CB--OG1-[HG1] |==|  0.11631
USER: genes 17 Torsion [N]-CA--C-[N] |==|  0.35207
USER: genes 18 Torsion [C]-N--CA-[CB] |==|  0.47390
USER: genes 19 Torsion [N]-CA--CB-[CG] |==|  0.58890
USER: genes 20 Torsion [CA]-CB--CG-[CD] |==|  0.63048
USER: genes 21 Torsion [CB]-CG--CD-[OE1] |==|  0.74229
USER: genes 22 Torsion [N]-CA--C-[N] |==|  0.43499
USER: genes 23 Torsion [C]-N--CA-[C] |==|  0.59107
USER: genes 24 Torsion [N]-CA--C-[O] |==|  0.35943
USER: genes 25 Torsion [N]-CA--CB-[CG2] |==|  0.08947
ROOT
ATOM      1  C   GLU E  10      35.526 -32.761  -9.061  1.00 63.15 LIG 0.24  C 
ATOM      2 O    GLU E  10      36.469 -32.817  -9.854  1.00 62.80 LIG-0.27  OA
ATOM      3  N   THR E  11      34.429 -33.534  -9.166  1.00 58.35 LIG-0.34  N 
ATOM      4 H    THR E  11      33.769 -33.491  -8.616  1.00 58.35 LIG 0.16  HD
ENDROOT
BRANCH 1 5
ATOM      5  CA  GLU E  10      35.575 -31.784  -7.883  1.00 61.04 LIG 0.18  C 
BRANCH 5 6
ATOM      6  CB  GLU E  10      36.698 -30.748  -8.065  1.00 62.44 LIG 0.04  C 
BRANCH 6 7
ATOM      7  CG  GLU E  10      38.102 -31.333  -8.000  1.00 71.88 LIG 0.12  C 
BRANCH 7 8
ATOM      8  CD  GLU E  10      39.199 -30.480  -8.609  1.00 89.61 LIG 0.17  C 
ATOM      9 OE1  GLU E  10      39.130 -29.235  -8.492  1.00 85.83 LIG-0.65  OA
ATOM     10 OE2  GLU E  10      40.157 -31.063  -9.164  1.00 80.51 LIG-0.65  OA
ENDBRANCH 7 8
ENDBRANCH 6 7
ENDBRANCH 5 6
BRANCH 5 11
ATOM     11  N   GLU E  10      35.756 -32.529  -6.638  1.00 62.09 LIG-0.35  N 
ATOM     12  C   ARG E   9      34.824 -33.316  -6.078  1.00 67.00 LIG 0.24  C 
ATOM     13 O    ARG E   9      33.699 -33.482  -6.554  1.00 66.41 LIG-0.27  OA
ATOM     14 H    GLU E  10      36.533 -32.414  -6.287  1.00 62.09 LIG 0.16  HD
BRANCH 12 15
ATOM     15  CA  ARG E   9      35.223 -34.024  -4.783  1.00 65.18 LIG 0.18  C 
BRANCH 15 16
ATOM     16  CB  ARG E   9      34.458 -33.415  -3.593  1.00 65.91 LIG 0.04  C 
BRANCH 16 17
ATOM     17  CG  ARG E   9      33.316 -34.278  -3.053  1.00 77.53 LIG 0.02  C 
BRANCH 17 18
ATOM     18  CD  ARG E   9      31.929 -33.823  -3.507  1.00 87.32 LIG 0.14  C 
BRANCH 18 19
ATOM     19  NE  ARG E   9      30.878 -34.805  -3.219  1.00 94.16 LIG-0.23  N 
ATOM     20  CZ  ARG E   9      29.627 -34.501  -2.881  1.00107.18 LIG 0.67  C 
ATOM     21  NH2 ARG E   9      28.749 -35.464  -2.638  1.00 92.81 LIG-0.23  N 
ATOM     22  NH1 ARG E   9      29.245 -33.233  -2.789  1.00 95.67 LIG-0.23  N 
ATOM     23 1HH2 ARG E   9      28.987 -36.288  -2.699  1.00 92.81 LIG 0.17  HD
ATOM     24 2HH2 ARG E   9      27.941 -35.263  -2.420  1.00 92.81 LIG 0.17  HD
ATOM     25 2HH1 ARG E   9      28.435 -33.043  -2.571  1.00 95.67 LIG 0.17  HD
ATOM     26 1HH1 ARG E   9      29.807 -32.602  -2.948  1.00 95.67 LIG 0.17  HD
ATOM     27 HE   ARG E   9      31.085 -35.638  -3.273  1.00 94.16 LIG 0.18  HD
ENDBRANCH 18 19
ENDBRANCH 17 18
ENDBRANCH 16 17
ENDBRANCH 15 16
BRANCH 15 28
ATOM     28  N   ARG E   9      36.669 -33.991  -4.544  1.00 66.15 LIG-0.35  N 
ATOM     29 H    ARG E   9      36.878 -33.596  -3.809  1.00 66.15 LIG 0.16  HD
ATOM     30  C   GLY E   8      37.596 -34.516  -5.370  1.00 70.79 LIG 0.25  C 
ATOM     31 O    GLY E   8      37.316 -35.085  -6.429  1.00 70.42 LIG-0.27  OA
BRANCH 30 32
ATOM     32  CA  GLY E   8      39.041 -34.379  -4.939  1.00 68.19 LIG 0.47  C 
ATOM     33  N   GLY E   8      39.914 -33.923  -6.010  1.00 68.87 LIG 0.61  N 
ENDBRANCH 30 32
ENDBRANCH 15 28
ENDBRANCH 12 15
ENDBRANCH 5 11
ENDBRANCH 1 5
BRANCH 3 34
ATOM     34  CA  THR E  11      34.249 -34.527 -10.228  1.00 57.37 LIG 0.20  C 
BRANCH 34 35
ATOM     35  CB  THR E  11      32.883 -35.229 -10.085  1.00 62.59 LIG 0.15  C 
ATOM     36  CG2 THR E  11      32.881 -36.649 -10.647  1.00 60.54 LIG 0.04  C 
BRANCH 35 37
ATOM     37 OG1  THR E  11      32.507 -35.264  -8.708  1.00 61.42 LIG-0.39  OA
ATOM     38 HG1  THR E  11      32.687 -34.526  -8.349  1.00 61.42 LIG 0.21  HD
ENDBRANCH 35 37
ENDBRANCH 34 35
BRANCH 34 39
ATOM     39  C   THR E  11      34.446 -33.913 -11.616  1.00 59.93 LIG 0.24  C 
ATOM     40 O    THR E  11      33.797 -32.920 -11.949  1.00 59.05 LIG-0.27  OA
ATOM     41  N   GLU E  12      35.331 -34.525 -12.423  1.00 55.90 LIG-0.35  N 
ATOM     42 H    GLU E  12      35.791 -35.207 -12.175  1.00 55.90 LIG 0.16  HD
BRANCH 41 43
ATOM     43  CA  GLU E  12      35.609 -34.107 -13.797  1.00 55.43 LIG 0.18  C 
BRANCH 43 44
ATOM     44  CB  GLU E  12      36.829 -34.856 -14.373  1.00 56.88 LIG 0.04  C 
BRANCH 44 45
ATOM     45  CG  GLU E  12      37.654 -34.061 -15.372  1.00 68.03 LIG 0.12  C 
BRANCH 45 46
ATOM     46  CD  GLU E  12      38.021 -34.795 -16.648  1.00 88.63 LIG 0.17  C 
ATOM     47 OE1  GLU E  12      39.113 -35.405 -16.698  1.00 85.30 LIG-0.65  OA
ATOM     48 OE2  GLU E  12      37.191 -34.795 -17.586  1.00 81.03 LIG-0.65  OA
ENDBRANCH 45 46
ENDBRANCH 44 45
ENDBRANCH 43 44
BRANCH 43 49
ATOM     49  C   GLU E  12      34.367 -34.392 -14.643  1.00 58.58 LIG 0.24  C 
ATOM     50 O    GLU E  12      33.547 -35.229 -14.259  1.00 58.36 LIG-0.27  OA
ATOM     51  N   VAL E  13      34.211 -33.675 -15.772  1.00 54.46 LIG-0.34  N 
ATOM     52 H    VAL E  13      34.771 -33.073 -16.026  1.00 54.46 LIG 0.16  HD
BRANCH 51 53
ATOM     53  CA  VAL E  13      33.072 -33.845 -16.688  1.00 55.96 LIG 0.19  C 
BRANCH 53 54
ATOM     54  C   VAL E  13      33.449 -33.593 -18.162  1.00 65.43 LIG 0.20  C 
ATOM     55 O    VAL E  13      33.135 -34.451 -19.016  1.00 66.90 LIG-0.65  OA
ATOM     56 OXT  VAL E  13      34.075 -32.552 -18.456  1.00 83.99 LIG-0.65  OA
ENDBRANCH 53 54
BRANCH 53 57
ATOM     57  CB  VAL E  13      31.773 -33.094 -16.258  1.00 59.73 LIG 0.01  C 
ATOM     58  CG2 VAL E  13      32.078 -31.795 -15.517  1.00 59.40 LIG 0.01  C 
ATOM     59  CG1 VAL E  13      30.852 -33.993 -15.436  1.00 59.53 LIG 0.01  C 
ENDBRANCH 53 57
ENDBRANCH 51 53
ENDBRANCH 43 49
ENDBRANCH 41 43
ENDBRANCH 34 39
ENDBRANCH 3 34
TORSDOF 24
ENDMDL
MODEL 8
USER: ADFR SOLUTION from run 32
USER: SCORE 19.986175 LL:  -4.000 LR: -16.790 RR:   0.000 FEB:  -9.631
USER: RMSD 5.648569
USER: SEED 31
USER: STATUS searching
USER: GENES 26
USER: genes 0 Translation |==|  0.39729 0.50433 0.41912
USER: genes 1 Rotation |==|  0.68392 0.69797 0.82126 0.77161
USER: genes 2 Torsion [N]-C--CA-[N] |==|  0.01681
USER: genes 3 Torsion [C]-CA--CB-[CG] |==|  0.39998
USER: genes 4 Torsion [CA]-CB--CG-[CD] |==|  0.65483
USER: genes 5 Torsion [CB]-CG--CD-[OE1] |==|  0.83629
USER: genes 6 Torsion [C]-CA--N-[C] |==|  0.20429
USER: genes 7 Torsion [N]-C--CA-[N] |==|  0.47192
USER: genes 8 Torsion [C]-CA--CB-[CG] |==|  0.46648
USER: genes 9 Torsion [CA]-CB--CG-[CD] |==|  0.64437
USER: genes 10 Torsion [CB]-CG--CD-[NE] |==|  0.42663
USER: genes 11 Torsion [CG]-CD--NE-[CZ] |==|  0.49719
USER: genes 12 Torsion [C]-CA--N-[C] |==|  0.74473
USER: genes 13 Torsion [N]-C--CA-[N] |==|  0.54140
USER: genes 14 Torsion [C]-N--CA-[CB] |==|  0.85333
USER: genes 15 Torsion [N]-CA--CB-[CG2] |==|  0.28956
USER: genes 16 Torsion [CA]-CB--OG1-[HG1] |==|  0.12724
USER: genes 17 Torsion [N]-CA--C-[N] |==|  0.89594
USER: genes 18 Torsion [C]-N--CA-[CB] |==|  0.86667
USER: genes 19 Torsion [N]-CA--CB-[CG] |==|  0.87055
USER: genes 20 Torsion [CA]-CB--CG-[CD] |==|  0.35555
USER: genes 21 Torsion [CB]-CG--CD-[OE1] |==|  0.18622
USER: genes 22 Torsion [N]-CA--C-[N] |==|  0.86342
USER: genes 23 Torsion [C]-N--CA-[C] |==|  0.92201
USER: genes 24 Torsion [N]-CA--C-[O] |==|  0.24013
USER: genes 25 Torsion [N]-CA--CB-[CG2] |==|  0.20282
ROOT
ATOM      1  C   GLU E  10      33.197 -33.599 -11.408  1.00 63.15 LIG 0.24  C 
ATOM      2 O    GLU E  10      33.797 -32.923 -12.248  1.00 62.80 LIG-0.27  OA
ATOM      3  N   THR E  11      32.199 -34.445 -11.720  1.00 58.35 LIG-0.34  N 
ATOM      4 H    THR E  11      31.778 -34.912 -11.134  1.00 58.35 LIG 0.16  HD
ENDROOT
BRANCH 1 5
ATOM      5  CA  GLU E  10      33.587 -33.501  -9.930  1.00 61.04 LIG 0.18  C 
BRANCH 5 6
ATOM      6  CB  GLU E  10      35.103 -33.686  -9.740  1.00 62.44 LIG 0.04  C 
BRANCH 6 7
ATOM      7  CG  GLU E  10      35.701 -32.827  -8.635  1.00 71.88 LIG 0.12  C 
BRANCH 7 8
ATOM      8  CD  GLU E  10      36.849 -31.927  -9.051  1.00 89.61 LIG 0.17  C 
ATOM      9 OE1  GLU E  10      37.876 -32.448  -9.545  1.00 85.83 LIG-0.65  OA
ATOM     10 OE2  GLU E  10      36.702 -30.690  -8.927  1.00 80.51 LIG-0.65  OA
ENDBRANCH 7 8
ENDBRANCH 6 7
ENDBRANCH 5 6
BRANCH 5 11
ATOM     11  N   GLU E  10      32.844 -34.500  -9.163  1.00 62.09 LIG-0.35  N 
ATOM     12  C   ARG E   9      33.095 -35.819  -9.184  1.00 67.00 LIG 0.24  C 
ATOM     13 O    ARG E   9      33.979 -36.332  -9.873  1.00 66.41 LIG-0.27  OA
ATOM     14 H    GLU E  10      32.216 -34.158  -8.684  1.00 62.09 LIG 0.16  HD
BRANCH 12 15
ATOM     15  CA  ARG E   9      32.214 -36.691  -8.289  1.00 65.18 LIG 0.18  C 
BRANCH 15 16
ATOM     16  CB  ARG E   9      32.483 -36.365  -6.808  1.00 65.91 LIG 0.04  C 
BRANCH 16 17
ATOM     17  CG  ARG E   9      31.470 -36.954  -5.825  1.00 77.53 LIG 0.02  C 
BRANCH 17 18
ATOM     18  CD  ARG E   9      30.875 -35.929  -4.861  1.00 87.32 LIG 0.14  C 
BRANCH 18 19
ATOM     19  NE  ARG E   9      29.541 -36.300  -4.376  1.00 94.16 LIG-0.23  N 
ATOM     20  CZ  ARG E   9      28.820 -35.587  -3.514  1.00107.18 LIG 0.67  C 
ATOM     21  NH2 ARG E   9      27.623 -36.009  -3.134  1.00 92.81 LIG-0.23  N 
ATOM     22  NH1 ARG E   9      29.290 -34.443  -3.030  1.00 95.67 LIG-0.23  N 
ATOM     23 1HH2 ARG E   9      27.308 -36.747  -3.445  1.00 92.81 LIG 0.17  HD
ATOM     24 2HH2 ARG E   9      27.160 -35.545  -2.577  1.00 92.81 LIG 0.17  HD
ATOM     25 2HH1 ARG E   9      28.819 -33.985  -2.474  1.00 95.67 LIG 0.17  HD
ATOM     26 1HH1 ARG E   9      30.065 -34.159  -3.273  1.00 95.67 LIG 0.17  HD
ATOM     27 HE   ARG E   9      29.200 -37.033  -4.670  1.00 94.16 LIG 0.18  HD
ENDBRANCH 18 19
ENDBRANCH 17 18
ENDBRANCH 16 17
ENDBRANCH 15 16
BRANCH 15 28
ATOM     28  N   ARG E   9      32.392 -38.124  -8.546  1.00 66.15 LIG-0.35  N 
ATOM     29 H    ARG E   9      33.026 -38.471  -8.081  1.00 66.15 LIG 0.16  HD
ATOM     30  C   GLY E   8      31.654 -38.845  -9.413  1.00 70.79 LIG 0.25  C 
ATOM     31 O    GLY E   8      30.740 -38.364 -10.090  1.00 70.42 LIG-0.27  OA
BRANCH 30 32
ATOM     32  CA  GLY E   8      31.995 -40.315  -9.531  1.00 68.19 LIG 0.47  C 
ATOM     33  N   GLY E   8      31.410 -40.943 -10.707  1.00 68.87 LIG 0.61  N 
ENDBRANCH 30 32
ENDBRANCH 15 28
ENDBRANCH 12 15
ENDBRANCH 5 11
ENDBRANCH 1 5
BRANCH 3 34
ATOM     34  CA  THR E  11      31.731 -34.658 -13.092  1.00 57.37 LIG 0.20  C 
BRANCH 34 35
ATOM     35  CB  THR E  11      31.386 -33.312 -13.761  1.00 62.59 LIG 0.15  C 
ATOM     36  CG2 THR E  11      32.445 -32.856 -14.763  1.00 60.54 LIG 0.04  C 
BRANCH 35 37
ATOM     37 OG1  THR E  11      30.124 -33.417 -14.419  1.00 61.42 LIG-0.39  OA
ATOM     38 HG1  THR E  11      29.572 -33.794 -13.911  1.00 61.42 LIG 0.21  HD
ENDBRANCH 35 37
ENDBRANCH 34 35
BRANCH 34 39
ATOM     39  C   THR E  11      32.733 -35.477 -13.911  1.00 59.93 LIG 0.24  C 
ATOM     40 O    THR E  11      32.329 -36.319 -14.716  1.00 59.05 LIG-0.27  OA
ATOM     41  N   GLU E  12      34.035 -35.234 -13.683  1.00 55.90 LIG-0.35  N 
ATOM     42 H    GLU E  12      34.306 -34.632 -13.132  1.00 55.90 LIG 0.16  HD
BRANCH 41 43
ATOM     43  CA  GLU E  12      35.127 -35.955 -14.337  1.00 55.43 LIG 0.18  C 
BRANCH 43 44
ATOM     44  CB  GLU E  12      34.900 -37.481 -14.284  1.00 56.88 LIG 0.04  C 
BRANCH 44 45
ATOM     45  CG  GLU E  12      34.486 -38.018 -12.923  1.00 68.03 LIG 0.12  C 
BRANCH 45 46
ATOM     46  CD  GLU E  12      33.241 -38.884 -12.915  1.00 88.63 LIG 0.17  C 
ATOM     47 OE1  GLU E  12      33.279 -39.998 -13.487  1.00 85.30 LIG-0.65  OA
ATOM     48 OE2  GLU E  12      32.236 -38.466 -12.297  1.00 81.03 LIG-0.65  OA
ENDBRANCH 45 46
ENDBRANCH 44 45
ENDBRANCH 43 44
BRANCH 43 49
ATOM     49  C   GLU E  12      35.208 -35.484 -15.789  1.00 58.58 LIG 0.24  C 
ATOM     50 O    GLU E  12      36.301 -35.174 -16.270  1.00 58.36 LIG-0.27  OA
ATOM     51  N   VAL E  13      34.062 -35.462 -16.496  1.00 54.46 LIG-0.34  N 
ATOM     52 H    VAL E  13      33.305 -35.704 -16.168  1.00 54.46 LIG 0.16  HD
BRANCH 51 53
ATOM     53  CA  VAL E  13      33.984 -35.026 -17.899  1.00 55.96 LIG 0.19  C 
BRANCH 53 54
ATOM     54  C   VAL E  13      35.075 -34.000 -18.266  1.00 65.43 LIG 0.20  C 
ATOM     55 O    VAL E  13      36.193 -34.420 -18.637  1.00 66.90 LIG-0.65  OA
ATOM     56 OXT  VAL E  13      34.817 -32.781 -18.164  1.00 83.99 LIG-0.65  OA
ENDBRANCH 53 54
BRANCH 53 57
ATOM     57  CB  VAL E  13      32.560 -34.591 -18.367  1.00 59.73 LIG 0.01  C 
ATOM     58  CG2 VAL E  13      32.149 -33.242 -17.783  1.00 59.40 LIG 0.01  C 
ATOM     59  CG1 VAL E  13      31.517 -35.665 -18.062  1.00 59.53 LIG 0.01  C 
ENDBRANCH 53 57
ENDBRANCH 51 53
ENDBRANCH 43 49
ENDBRANCH 41 43
ENDBRANCH 34 39
ENDBRANCH 3 34
TORSDOF 24
ENDMDL
MODEL 9
USER: ADFR SOLUTION from run 38
USER: SCORE 18.287017 LL:  -3.591 LR: -16.775 RR:   0.000 FEB:  -9.616
USER: RMSD 4.723025
USER: SEED 37
USER: STATUS 1 or 2 clusters left
USER: GENES 26
USER: genes 0 Translation |==|  0.48688 0.51337 0.48851
USER: genes 1 Rotation |==|  0.60194 0.35535 0.34202 0.94014
USER: genes 2 Torsion [N]-C--CA-[N] |==|  0.47119
USER: genes 3 Torsion [C]-CA--CB-[CG] |==|  0.23578
USER: genes 4 Torsion [CA]-CB--CG-[CD] |==|  0.66601
USER: genes 5 Torsion [CB]-CG--CD-[OE1] |==|  0.51374
USER: genes 6 Torsion [C]-CA--N-[C] |==|  0.55618
USER: genes 7 Torsion [N]-C--CA-[N] |==|  0.12328
USER: genes 8 Torsion [C]-CA--CB-[CG] |==|  0.27642
USER: genes 9 Torsion [CA]-CB--CG-[CD] |==|  0.32386
USER: genes 10 Torsion [CB]-CG--CD-[NE] |==|  0.57496
USER: genes 11 Torsion [CG]-CD--NE-[CZ] |==|  0.24813
USER: genes 12 Torsion [C]-CA--N-[C] |==|  0.74448
USER: genes 13 Torsion [N]-C--CA-[N] |==|  0.73506
USER: genes 14 Torsion [C]-N--CA-[CB] |==|  0.85556
USER: genes 15 Torsion [N]-CA--CB-[CG2] |==|  0.28024
USER: genes 16 Torsion [CA]-CB--OG1-[HG1] |==|  0.19658
USER: genes 17 Torsion [N]-CA--C-[N] |==|  0.40626
USER: genes 18 Torsion [C]-N--CA-[CB] |==|  0.49988
USER: genes 19 Torsion [N]-CA--CB-[CG] |==|  0.25585
USER: genes 20 Torsion [CA]-CB--CG-[CD] |==|  0.59778
USER: genes 21 Torsion [CB]-CG--CD-[OE1] |==|  0.42796
USER: genes 22 Torsion [N]-CA--C-[N] |==|  0.90414
USER: genes 23 Torsion [C]-N--CA-[C] |==|  0.77869
USER: genes 24 Torsion [N]-CA--C-[O] |==|  0.47884
USER: genes 25 Torsion [N]-CA--CB-[CG2] |==|  0.63458
ROOT
ATOM      1  C   GLU E  10      34.944 -33.449  -9.483  1.00 63.15 LIG 0.24  C 
ATOM      2 O    GLU E  10      34.652 -34.635  -9.655  1.00 62.80 LIG-0.27  OA
ATOM      3  N   THR E  11      35.300 -32.625 -10.485  1.00 58.35 LIG-0.34  N 
ATOM      4 H    THR E  11      35.509 -31.800 -10.364  1.00 58.35 LIG 0.16  HD
ENDROOT
BRANCH 1 5
ATOM      5  CA  GLU E  10      34.902 -32.850  -8.074  1.00 61.04 LIG 0.18  C 
BRANCH 5 6
ATOM      6  CB  GLU E  10      36.313 -32.481  -7.583  1.00 62.44 LIG 0.04  C 
BRANCH 6 7
ATOM      7  CG  GLU E  10      36.791 -31.107  -8.033  1.00 71.88 LIG 0.12  C 
BRANCH 7 8
ATOM      8  CD  GLU E  10      38.056 -31.092  -8.869  1.00 89.61 LIG 0.17  C 
ATOM      9 OE1  GLU E  10      38.553 -29.988  -9.192  1.00 85.83 LIG-0.65  OA
ATOM     10 OE2  GLU E  10      38.581 -32.190  -9.162  1.00 80.51 LIG-0.65  OA
ENDBRANCH 7 8
ENDBRANCH 6 7
ENDBRANCH 5 6
BRANCH 5 11
ATOM     11  N   GLU E  10      34.268 -33.797  -7.159  1.00 62.09 LIG-0.35  N 
ATOM     12  C   ARG E   9      33.726 -33.468  -5.976  1.00 67.00 LIG 0.24  C 
ATOM     13 O    ARG E   9      33.720 -32.320  -5.527  1.00 66.41 LIG-0.27  OA
ATOM     14 H    GLU E  10      34.274 -34.605  -7.454  1.00 62.09 LIG 0.16  HD
BRANCH 12 15
ATOM     15  CA  ARG E   9      33.092 -34.609  -5.178  1.00 65.18 LIG 0.18  C 
BRANCH 15 16
ATOM     16  CB  ARG E   9      32.780 -34.139  -3.746  1.00 65.91 LIG 0.04  C 
BRANCH 16 17
ATOM     17  CG  ARG E   9      31.322 -33.742  -3.502  1.00 77.53 LIG 0.02  C 
BRANCH 17 18
ATOM     18  CD  ARG E   9      30.604 -34.623  -2.480  1.00 87.32 LIG 0.14  C 
BRANCH 18 19
ATOM     19  NE  ARG E   9      29.153 -34.684  -2.690  1.00 94.16 LIG-0.23  N 
ATOM     20  CZ  ARG E   9      28.535 -35.573  -3.463  1.00107.18 LIG 0.67  C 
ATOM     21  NH2 ARG E   9      27.216 -35.545  -3.590  1.00 92.81 LIG-0.23  N 
ATOM     22  NH1 ARG E   9      29.230 -36.501  -4.109  1.00 95.67 LIG-0.23  N 
ATOM     23 1HH2 ARG E   9      26.756 -34.949  -3.172  1.00 92.81 LIG 0.17  HD
ATOM     24 2HH2 ARG E   9      26.820 -36.122  -4.090  1.00 92.81 LIG 0.17  HD
ATOM     25 2HH1 ARG E   9      28.825 -37.074  -4.607  1.00 95.67 LIG 0.17  HD
ATOM     26 1HH1 ARG E   9      30.087 -36.530  -4.031  1.00 95.67 LIG 0.17  HD
ATOM     27 HE   ARG E   9      28.667 -34.102  -2.285  1.00 94.16 LIG 0.18  HD
ENDBRANCH 18 19
ENDBRANCH 17 18
ENDBRANCH 16 17
ENDBRANCH 15 16
BRANCH 15 28
ATOM     28  N   ARG E   9      33.925 -35.815  -5.160  1.00 66.15 LIG-0.35  N 
ATOM     29 H    ARG E   9      34.494 -35.819  -4.515  1.00 66.15 LIG 0.16  HD
ATOM     30  C   GLY E   8      33.832 -36.826  -6.047  1.00 70.79 LIG 0.25  C 
ATOM     31 O    GLY E   8      33.023 -36.837  -6.980  1.00 70.42 LIG-0.27  OA
BRANCH 30 32
ATOM     32  CA  GLY E   8      34.784 -37.987  -5.852  1.00 68.19 LIG 0.47  C 
ATOM     33  N   GLY E   8      35.989 -37.877  -6.661  1.00 68.87 LIG 0.61  N 
ENDBRANCH 30 32
ENDBRANCH 15 28
ENDBRANCH 12 15
ENDBRANCH 5 11
ENDBRANCH 1 5
BRANCH 3 34
ATOM     34  CA  THR E  11      35.366 -33.051 -11.885  1.00 57.37 LIG 0.20  C 
BRANCH 34 35
ATOM     35  CB  THR E  11      36.226 -34.324 -12.024  1.00 62.59 LIG 0.15  C 
ATOM     36  CG2 THR E  11      35.390 -35.596 -12.155  1.00 60.54 LIG 0.04  C 
BRANCH 35 37
ATOM     37 OG1  THR E  11      37.082 -34.199 -13.159  1.00 61.42 LIG-0.39  OA
ATOM     38 HG1  THR E  11      37.678 -33.629 -12.999  1.00 61.42 LIG 0.21  HD
ENDBRANCH 35 37
ENDBRANCH 34 35
BRANCH 34 39
ATOM     39  C   THR E  11      33.970 -33.221 -12.491  1.00 59.93 LIG 0.24  C 
ATOM     40 O    THR E  11      33.042 -33.636 -11.794  1.00 59.05 LIG-0.27  OA
ATOM     41  N   GLU E  12      33.840 -32.917 -13.794  1.00 55.90 LIG-0.35  N 
ATOM     42 H    GLU E  12      34.490 -32.613 -14.268  1.00 55.90 LIG 0.16  HD
BRANCH 41 43
ATOM     43  CA  GLU E  12      32.595 -33.068 -14.548  1.00 55.43 LIG 0.18  C 
BRANCH 43 44
ATOM     44  CB  GLU E  12      32.775 -32.632 -16.018  1.00 56.88 LIG 0.04  C 
BRANCH 44 45
ATOM     45  CG  GLU E  12      33.161 -33.750 -16.973  1.00 68.03 LIG 0.12  C 
BRANCH 45 46
ATOM     46  CD  GLU E  12      34.103 -33.355 -18.094  1.00 88.63 LIG 0.17  C 
ATOM     47 OE1  GLU E  12      34.839 -34.234 -18.600  1.00 85.30 LIG-0.65  OA
ATOM     48 OE2  GLU E  12      34.074 -32.170 -18.498  1.00 81.03 LIG-0.65  OA
ENDBRANCH 45 46
ENDBRANCH 44 45
ENDBRANCH 43 44
BRANCH 43 49
ATOM     49  C   GLU E  12      32.171 -34.535 -14.481  1.00 58.58 LIG 0.24  C 
ATOM     50 O    GLU E  12      30.971 -34.823 -14.472  1.00 58.36 LIG-0.27  OA
ATOM     51  N   VAL E  13      33.149 -35.460 -14.467  1.00 54.46 LIG-0.34  N 
ATOM     52 H    VAL E  13      33.984 -35.259 -14.499  1.00 54.46 LIG 0.16  HD
BRANCH 51 53
ATOM     53  CA  VAL E  13      32.893 -36.908 -14.397  1.00 55.96 LIG 0.19  C 
BRANCH 53 54
ATOM     54  C   VAL E  13      32.577 -37.389 -12.967  1.00 65.43 LIG 0.20  C 
ATOM     55 O    VAL E  13      32.201 -38.570 -12.800  1.00 66.90 LIG-0.65  OA
ATOM     56 OXT  VAL E  13      32.686 -36.580 -12.020  1.00 83.99 LIG-0.65  OA
ENDBRANCH 53 54
BRANCH 53 57
ATOM     57  CB  VAL E  13      33.961 -37.793 -15.113  1.00 59.73 LIG 0.01  C 
ATOM     58  CG2 VAL E  13      33.325 -38.836 -16.028  1.00 59.40 LIG 0.01  C 
ATOM     59  CG1 VAL E  13      34.911 -38.446 -14.111  1.00 59.53 LIG 0.01  C 
ENDBRANCH 53 57
ENDBRANCH 51 53
ENDBRANCH 43 49
ENDBRANCH 41 43
ENDBRANCH 34 39
ENDBRANCH 3 34
TORSDOF 24
ENDMDL
MODEL 10
USER: ADFR SOLUTION from run 19
USER: SCORE 18.111943 LL:  -3.405 LR: -16.633 RR:   0.000 FEB:  -9.474
USER: RMSD 4.251691
USER: SEED 18
USER: STATUS no improvement in best in 1 clusters for 5 generations
USER: GENES 26
USER: genes 0 Translation |==|  0.54550 0.47378 0.39111
USER: genes 1 Rotation |==|  0.54151 0.14139 0.17419 0.61629
USER: genes 2 Torsion [N]-C--CA-[N] |==|  0.71537
USER: genes 3 Torsion [C]-CA--CB-[CG] |==|  0.55823
USER: genes 4 Torsion [CA]-CB--CG-[CD] |==|  0.62476
USER: genes 5 Torsion [CB]-CG--CD-[OE1] |==|  0.48136
USER: genes 6 Torsion [C]-CA--N-[C] |==|  0.10442
USER: genes 7 Torsion [N]-C--CA-[N] |==|  0.88544
USER: genes 8 Torsion [C]-CA--CB-[CG] |==|  0.45081
USER: genes 9 Torsion [CA]-CB--CG-[CD] |==|  0.01107
USER: genes 10 Torsion [CB]-CG--CD-[NE] |==|  0.49581
USER: genes 11 Torsion [CG]-CD--NE-[CZ] |==|  0.40431
USER: genes 12 Torsion [C]-CA--N-[C] |==|  0.84967
USER: genes 13 Torsion [N]-C--CA-[N] |==|  0.62538
USER: genes 14 Torsion [C]-N--CA-[CB] |==|  0.76656
USER: genes 15 Torsion [N]-CA--CB-[CG2] |==|  0.19448
USER: genes 16 Torsion [CA]-CB--OG1-[HG1] |==|  0.28633
USER: genes 17 Torsion [N]-CA--C-[N] |==|  0.16027
USER: genes 18 Torsion [C]-N--CA-[CB] |==|  0.72778
USER: genes 19 Torsion [N]-CA--CB-[CG] |==|  0.67881
USER: genes 20 Torsion [CA]-CB--CG-[CD] |==|  0.25096
USER: genes 21 Torsion [CB]-CG--CD-[OE1] |==|  0.26867
USER: genes 22 Torsion [N]-CA--C-[N] |==|  0.16083
USER: genes 23 Torsion [C]-N--CA-[C] |==|  0.83738
USER: genes 24 Torsion [N]-CA--C-[O] |==|  0.44292
USER: genes 25 Torsion [N]-CA--CB-[CG2] |==|  0.11963
ROOT
ATOM      1  C   GLU E  10      36.087 -34.103 -12.186  1.00 63.15 LIG 0.24  C 
ATOM      2 O    GLU E  10      35.290 -34.243 -13.117  1.00 62.80 LIG-0.27  OA
ATOM      3  N   THR E  11      37.246 -34.780 -12.100  1.00 58.35 LIG-0.34  N 
ATOM      4 H    THR E  11      37.799 -34.687 -11.448  1.00 58.35 LIG 0.16  HD
ENDROOT
BRANCH 1 5
ATOM      5  CA  GLU E  10      35.780 -33.111 -11.060  1.00 61.04 LIG 0.18  C 
BRANCH 5 6
ATOM      6  CB  GLU E  10      37.059 -32.709 -10.306  1.00 62.44 LIG 0.04  C 
BRANCH 6 7
ATOM      7  CG  GLU E  10      36.813 -32.155  -8.910  1.00 71.88 LIG 0.12  C 
BRANCH 7 8
ATOM      8  CD  GLU E  10      37.594 -30.906  -8.550  1.00 89.61 LIG 0.17  C 
ATOM      9 OE1  GLU E  10      37.342 -30.329  -7.466  1.00 85.83 LIG-0.65  OA
ATOM     10 OE2  GLU E  10      38.496 -30.531  -9.331  1.00 80.51 LIG-0.65  OA
ENDBRANCH 7 8
ENDBRANCH 6 7
ENDBRANCH 5 6
BRANCH 5 11
ATOM     11  N   GLU E  10      34.803 -33.699 -10.144  1.00 62.09 LIG-0.35  N 
ATOM     12  C   ARG E   9      34.775 -34.993  -9.788  1.00 67.00 LIG 0.24  C 
ATOM     13 O    ARG E   9      35.571 -35.832 -10.213  1.00 66.41 LIG-0.27  OA
ATOM     14 H    GLU E  10      34.234 -33.126  -9.847  1.00 62.09 LIG 0.16  HD
BRANCH 12 15
ATOM     15  CA  ARG E   9      33.682 -35.400  -8.798  1.00 65.18 LIG 0.18  C 
BRANCH 15 16
ATOM     16  CB  ARG E   9      32.362 -35.652  -9.549  1.00 65.91 LIG 0.04  C 
BRANCH 16 17
ATOM     17  CG  ARG E   9      31.323 -36.460  -8.769  1.00 77.53 LIG 0.02  C 
BRANCH 17 18
ATOM     18  CD  ARG E   9      31.744 -36.794  -7.339  1.00 87.32 LIG 0.14  C 
BRANCH 18 19
ATOM     19  NE  ARG E   9      30.721 -37.538  -6.595  1.00 94.16 LIG-0.23  N 
ATOM     20  CZ  ARG E   9      30.975 -38.474  -5.685  1.00107.18 LIG 0.67  C 
ATOM     21  NH2 ARG E   9      29.979 -39.092  -5.067  1.00 92.81 LIG-0.23  N 
ATOM     22  NH1 ARG E   9      32.227 -38.795  -5.381  1.00 95.67 LIG-0.23  N 
ATOM     23 1HH2 ARG E   9      29.164 -38.889  -5.254  1.00 92.81 LIG 0.17  HD
ATOM     24 2HH2 ARG E   9      30.147 -39.697  -4.479  1.00 92.81 LIG 0.17  HD
ATOM     25 2HH1 ARG E   9      32.386 -39.401  -4.792  1.00 95.67 LIG 0.17  HD
ATOM     26 1HH1 ARG E   9      32.881 -38.397  -5.775  1.00 95.67 LIG 0.17  HD
ATOM     27 HE   ARG E   9      29.897 -37.355  -6.760  1.00 94.16 LIG 0.18  HD
ENDBRANCH 18 19
ENDBRANCH 17 18
ENDBRANCH 16 17
ENDBRANCH 15 16
BRANCH 15 28
ATOM     28  N   ARG E   9      33.493 -34.416  -7.729  1.00 66.15 LIG-0.35  N 
ATOM     29 H    ARG E   9      32.678 -34.151  -7.658  1.00 66.15 LIG 0.16  HD
ATOM     30  C   GLY E   8      34.474 -33.956  -6.926  1.00 70.79 LIG 0.25  C 
ATOM     31 O    GLY E   8      35.650 -34.324  -7.014  1.00 70.42 LIG-0.27  OA
BRANCH 30 32
ATOM     32  CA  GLY E   8      34.070 -32.942  -5.878  1.00 68.19 LIG 0.47  C 
ATOM     33  N   GLY E   8      34.986 -31.813  -5.796  1.00 68.87 LIG 0.61  N 
ENDBRANCH 30 32
ENDBRANCH 15 28
ENDBRANCH 12 15
ENDBRANCH 5 11
ENDBRANCH 1 5
BRANCH 3 34
ATOM     34  CA  THR E  11      37.684 -35.747 -13.110  1.00 57.37 LIG 0.20  C 
BRANCH 34 35
ATOM     35  CB  THR E  11      37.053 -37.130 -12.845  1.00 62.59 LIG 0.15  C 
ATOM     36  CG2 THR E  11      35.550 -37.160 -13.117  1.00 60.54 LIG 0.04  C 
BRANCH 35 37
ATOM     37 OG1  THR E  11      37.701 -38.112 -13.652  1.00 61.42 LIG-0.39  OA
ATOM     38 HG1  THR E  11      38.233 -38.557 -13.179  1.00 61.42 LIG 0.21  HD
ENDBRANCH 35 37
ENDBRANCH 34 35
BRANCH 34 39
ATOM     39  C   THR E  11      37.411 -35.244 -14.530  1.00 59.93 LIG 0.24  C 
ATOM     40 O    THR E  11      36.726 -35.918 -15.302  1.00 59.05 LIG-0.27  OA
ATOM     41  N   GLU E  12      37.969 -34.069 -14.869  1.00 55.90 LIG-0.35  N 
ATOM     42 H    GLU E  12      38.432 -33.599 -14.318  1.00 55.90 LIG 0.16  HD
BRANCH 41 43
ATOM     43  CA  GLU E  12      37.856 -33.463 -16.195  1.00 55.43 LIG 0.18  C 
BRANCH 43 44
ATOM     44  CB  GLU E  12      39.106 -33.756 -17.052  1.00 56.88 LIG 0.04  C 
BRANCH 44 45
ATOM     45  CG  GLU E  12      39.923 -32.531 -17.430  1.00 68.03 LIG 0.12  C 
BRANCH 45 46
ATOM     46  CD  GLU E  12      41.025 -32.156 -16.458  1.00 88.63 LIG 0.17  C 
ATOM     47 OE1  GLU E  12      42.193 -32.543 -16.694  1.00 85.30 LIG-0.65  OA
ATOM     48 OE2  GLU E  12      40.727 -31.435 -15.478  1.00 81.03 LIG-0.65  OA
ENDBRANCH 45 46
ENDBRANCH 44 45
ENDBRANCH 43 44
BRANCH 43 49
ATOM     49  C   GLU E  12      36.607 -34.028 -16.873  1.00 58.58 LIG 0.24  C 
ATOM     50 O    GLU E  12      36.716 -34.637 -17.941  1.00 58.36 LIG-0.27  OA
ATOM     51  N   VAL E  13      35.431 -33.857 -16.241  1.00 54.46 LIG-0.34  N 
ATOM     52 H    VAL E  13      35.359 -33.455 -15.484  1.00 54.46 LIG 0.16  HD
BRANCH 51 53
ATOM     53  CA  VAL E  13      34.147 -34.339 -16.776  1.00 55.96 LIG 0.19  C 
BRANCH 53 54
ATOM     54  C   VAL E  13      33.820 -33.751 -18.163  1.00 65.43 LIG 0.20  C 
ATOM     55 O    VAL E  13      32.993 -34.347 -18.888  1.00 66.90 LIG-0.65  OA
ATOM     56 OXT  VAL E  13      34.405 -32.709 -18.530  1.00 83.99 LIG-0.65  OA
ENDBRANCH 53 54
BRANCH 53 57
ATOM     57  CB  VAL E  13      32.950 -34.243 -15.779  1.00 59.73 LIG 0.01  C 
ATOM     58  CG2 VAL E  13      32.938 -32.919 -15.019  1.00 59.40 LIG 0.01  C 
ATOM     59  CG1 VAL E  13      32.924 -35.429 -14.817  1.00 59.53 LIG 0.01  C 
ENDBRANCH 53 57
ENDBRANCH 51 53
ENDBRANCH 43 49
ENDBRANCH 41 43
ENDBRANCH 34 39
ENDBRANCH 3 34
TORSDOF 24
ENDMDL
MODEL 11
USER: ADFR SOLUTION from run 89
USER: SCORE 18.136326 LL:  -3.211 LR: -16.520 RR:   0.000 FEB:  -9.360
USER: RMSD 6.495429
USER: SEED 88
USER: STATUS searching
USER: GENES 26
USER: genes 0 Translation |==|  0.55473 0.32726 0.37566
USER: genes 1 Rotation |==|  0.81154 0.26113 0.48099 0.80907
USER: genes 2 Torsion [N]-C--CA-[N] |==|  0.92988
USER: genes 3 Torsion [C]-CA--CB-[CG] |==|  0.09985
USER: genes 4 Torsion [CA]-CB--CG-[CD] |==|  0.34041
USER: genes 5 Torsion [CB]-CG--CD-[OE1] |==|  0.47549
USER: genes 6 Torsion [C]-CA--N-[C] |==|  0.22211
USER: genes 7 Torsion [N]-C--CA-[N] |==|  0.88563
USER: genes 8 Torsion [C]-CA--CB-[CG] |==|  0.64171
USER: genes 9 Torsion [CA]-CB--CG-[CD] |==|  0.63858
USER: genes 10 Torsion [CB]-CG--CD-[NE] |==|  0.22597
USER: genes 11 Torsion [CG]-CD--NE-[CZ] |==|  0.23459
USER: genes 12 Torsion [C]-CA--N-[C] |==|  0.85398
USER: genes 13 Torsion [N]-C--CA-[N] |==|  0.41584
USER: genes 14 Torsion [C]-N--CA-[CB] |==|  0.83454
USER: genes 15 Torsion [N]-CA--CB-[CG2] |==|  0.26842
USER: genes 16 Torsion [CA]-CB--OG1-[HG1] |==|  0.92450
USER: genes 17 Torsion [N]-CA--C-[N] |==|  0.40985
USER: genes 18 Torsion [C]-N--CA-[CB] |==|  0.79354
USER: genes 19 Torsion [N]-CA--CB-[CG] |==|  0.84751
USER: genes 20 Torsion [CA]-CB--CG-[CD] |==|  0.87735
USER: genes 21 Torsion [CB]-CG--CD-[OE1] |==|  0.49994
USER: genes 22 Torsion [N]-CA--C-[N] |==|  0.05961
USER: genes 23 Torsion [C]-N--CA-[C] |==|  0.86892
USER: genes 24 Torsion [N]-CA--C-[O] |==|  0.40136
USER: genes 25 Torsion [N]-CA--CB-[CG2] |==|  0.01217
ROOT
ATOM      1  C   GLU E  10      36.267 -36.520 -12.615  1.00 63.15 LIG 0.24  C 
ATOM      2 O    GLU E  10      36.982 -37.305 -13.243  1.00 62.80 LIG-0.27  OA
ATOM      3  N   THR E  11      36.487 -35.194 -12.575  1.00 58.35 LIG-0.34  N 
ATOM      4 H    THR E  11      35.992 -34.648 -12.133  1.00 58.35 LIG 0.16  HD
ENDROOT
BRANCH 1 5
ATOM      5  CA  GLU E  10      35.056 -37.046 -11.837  1.00 61.04 LIG 0.18  C 
BRANCH 5 6
ATOM      6  CB  GLU E  10      33.842 -37.240 -12.762  1.00 62.44 LIG 0.04  C 
BRANCH 6 7
ATOM      7  CG  GLU E  10      34.195 -37.727 -14.161  1.00 71.88 LIG 0.12  C 
BRANCH 7 8
ATOM      8  CD  GLU E  10      33.540 -39.025 -14.591  1.00 89.61 LIG 0.17  C 
ATOM      9 OE1  GLU E  10      33.654 -39.392 -15.784  1.00 85.83 LIG-0.65  OA
ATOM     10 OE2  GLU E  10      32.950 -39.703 -13.720  1.00 80.51 LIG-0.65  OA
ENDBRANCH 7 8
ENDBRANCH 6 7
ENDBRANCH 5 6
BRANCH 5 11
ATOM     11  N   GLU E  10      34.735 -36.121 -10.751  1.00 62.09 LIG-0.35  N 
ATOM     12  C   ARG E   9      34.050 -34.977 -10.901  1.00 67.00 LIG 0.24  C 
ATOM     13 O    ARG E   9      33.628 -34.574 -11.987  1.00 66.41 LIG-0.27  OA
ATOM     14 H    GLU E  10      35.032 -36.383  -9.987  1.00 62.09 LIG 0.16  HD
BRANCH 12 15
ATOM     15  CA  ARG E   9      33.801 -34.163  -9.630  1.00 65.18 LIG 0.18  C 
BRANCH 15 16
ATOM     16  CB  ARG E   9      35.034 -33.297  -9.312  1.00 65.91 LIG 0.04  C 
BRANCH 16 17
ATOM     17  CG  ARG E   9      35.554 -33.422  -7.878  1.00 77.53 LIG 0.02  C 
BRANCH 17 18
ATOM     18  CD  ARG E   9      35.777 -32.080  -7.182  1.00 87.32 LIG 0.14  C 
BRANCH 18 19
ATOM     19  NE  ARG E   9      34.545 -31.503  -6.634  1.00 94.16 LIG-0.23  N 
ATOM     20  CZ  ARG E   9      34.029 -31.805  -5.445  1.00107.18 LIG 0.67  C 
ATOM     21  NH2 ARG E   9      32.906 -31.229  -5.039  1.00 92.81 LIG-0.23  N 
ATOM     22  NH1 ARG E   9      34.635 -32.680  -4.652  1.00 95.67 LIG-0.23  N 
ATOM     23 1HH2 ARG E   9      32.508 -30.658  -5.545  1.00 92.81 LIG 0.17  HD
ATOM     24 2HH2 ARG E   9      32.575 -31.427  -4.270  1.00 92.81 LIG 0.17  HD
ATOM     25 2HH1 ARG E   9      34.297 -32.871  -3.884  1.00 95.67 LIG 0.17  HD
ATOM     26 1HH1 ARG E   9      35.365 -33.056  -4.905  1.00 95.67 LIG 0.17  HD
ATOM     27 HE   ARG E   9      34.125 -30.928  -7.116  1.00 94.16 LIG 0.18  HD
ENDBRANCH 18 19
ENDBRANCH 17 18
ENDBRANCH 16 17
ENDBRANCH 15 16
BRANCH 15 28
ATOM     28  N   ARG E   9      33.445 -35.003  -8.483  1.00 66.15 LIG-0.35  N 
ATOM     29 H    ARG E   9      33.935 -34.853  -7.793  1.00 66.15 LIG 0.16  HD
ATOM     30  C   GLY E   8      32.457 -35.920  -8.481  1.00 70.79 LIG 0.25  C 
ATOM     31 O    GLY E   8      31.743 -36.150  -9.462  1.00 70.42 LIG-0.27  OA
BRANCH 30 32
ATOM     32  CA  GLY E   8      32.246 -36.683  -7.191  1.00 68.19 LIG 0.47  C 
ATOM     33  N   GLY E   8      30.862 -37.088  -6.989  1.00 68.87 LIG 0.61  N 
ENDBRANCH 30 32
ENDBRANCH 15 28
ENDBRANCH 12 15
ENDBRANCH 5 11
ENDBRANCH 1 5
BRANCH 3 34
ATOM     34  CA  THR E  11      37.593 -34.545 -13.284  1.00 57.37 LIG 0.20  C 
BRANCH 34 35
ATOM     35  CB  THR E  11      38.947 -35.105 -12.802  1.00 62.59 LIG 0.15  C 
ATOM     36  CG2 THR E  11      39.491 -36.208 -13.709  1.00 60.54 LIG 0.04  C 
BRANCH 35 37
ATOM     37 OG1  THR E  11      39.899 -34.045 -12.721  1.00 61.42 LIG-0.39  OA
ATOM     38 HG1  THR E  11      39.694 -33.441 -13.266  1.00 61.42 LIG 0.21  HD
ENDBRANCH 35 37
ENDBRANCH 34 35
BRANCH 34 39
ATOM     39  C   THR E  11      37.427 -34.644 -14.803  1.00 59.93 LIG 0.24  C 
ATOM     40 O    THR E  11      36.897 -35.639 -15.301  1.00 59.05 LIG-0.27  OA
ATOM     41  N   GLU E  12      37.903 -33.617 -15.528  1.00 55.90 LIG-0.35  N 
ATOM     42 H    GLU E  12      38.257 -32.920 -15.169  1.00 55.90 LIG 0.16  HD
BRANCH 41 43
ATOM     43  CA  GLU E  12      37.876 -33.566 -16.990  1.00 55.43 LIG 0.18  C 
BRANCH 43 44
ATOM     44  CB  GLU E  12      38.939 -34.503 -17.601  1.00 56.88 LIG 0.04  C 
BRANCH 44 45
ATOM     45  CG  GLU E  12      40.358 -34.266 -17.111  1.00 68.03 LIG 0.12  C 
BRANCH 45 46
ATOM     46  CD  GLU E  12      40.788 -32.813 -17.033  1.00 88.63 LIG 0.17  C 
ATOM     47 OE1  GLU E  12      41.946 -32.549 -16.636  1.00 85.30 LIG-0.65  OA
ATOM     48 OE2  GLU E  12      39.977 -31.938 -17.413  1.00 81.03 LIG-0.65  OA
ENDBRANCH 45 46
ENDBRANCH 44 45
ENDBRANCH 43 44
BRANCH 43 49
ATOM     49  C   GLU E  12      36.479 -33.978 -17.455  1.00 58.58 LIG 0.24  C 
ATOM     50 O    GLU E  12      36.323 -34.420 -18.597  1.00 58.36 LIG-0.27  OA
ATOM     51  N   VAL E  13      35.474 -33.866 -16.567  1.00 54.46 LIG-0.34  N 
ATOM     52 H    VAL E  13      35.589 -33.582 -15.763  1.00 54.46 LIG 0.16  HD
BRANCH 51 53
ATOM     53  CA  VAL E  13      34.078 -34.216 -16.874  1.00 55.96 LIG 0.19  C 
BRANCH 53 54
ATOM     54  C   VAL E  13      33.598 -33.629 -18.217  1.00 65.43 LIG 0.20  C 
ATOM     55 O    VAL E  13      32.807 -34.299 -18.916  1.00 66.90 LIG-0.65  OA
ATOM     56 OXT  VAL E  13      34.028 -32.511 -18.575  1.00 83.99 LIG-0.65  OA
ENDBRANCH 53 54
BRANCH 53 57
ATOM     57  CB  VAL E  13      33.072 -33.965 -15.708  1.00 59.73 LIG 0.01  C 
ATOM     58  CG2 VAL E  13      33.738 -33.299 -14.506  1.00 59.40 LIG 0.01  C 
ATOM     59  CG1 VAL E  13      32.356 -35.250 -15.298  1.00 59.53 LIG 0.01  C 
ENDBRANCH 53 57
ENDBRANCH 51 53
ENDBRANCH 43 49
ENDBRANCH 41 43
ENDBRANCH 34 39
ENDBRANCH 3 34
TORSDOF 24
ENDMDL
MODEL 12
USER: ADFR SOLUTION from run 27
USER: SCORE 18.829131 LL:  -3.705 LR: -16.395 RR:   0.000 FEB:  -9.236
USER: RMSD 10.348068
USER: SEED 26
USER: STATUS searching
USER: GENES 26
USER: genes 0 Translation |==|  0.67704 0.44015 0.26599
USER: genes 1 Rotation |==|  0.25818 0.91393 0.52784 0.63932
USER: genes 2 Torsion [N]-C--CA-[N] |==|  0.85315
USER: genes 3 Torsion [C]-CA--CB-[CG] |==|  0.21824
USER: genes 4 Torsion [CA]-CB--CG-[CD] |==|  0.69888
USER: genes 5 Torsion [CB]-CG--CD-[OE1] |==|  0.43387
USER: genes 6 Torsion [C]-CA--N-[C] |==|  0.65376
USER: genes 7 Torsion [N]-C--CA-[N] |==|  0.99603
USER: genes 8 Torsion [C]-CA--CB-[CG] |==|  0.47783
USER: genes 9 Torsion [CA]-CB--CG-[CD] |==|  0.96131
USER: genes 10 Torsion [CB]-CG--CD-[NE] |==|  0.67172
USER: genes 11 Torsion [CG]-CD--NE-[CZ] |==|  0.18766
USER: genes 12 Torsion [C]-CA--N-[C] |==|  0.76811
USER: genes 13 Torsion [N]-C--CA-[N] |==|  0.92463
USER: genes 14 Torsion [C]-N--CA-[CB] |==|  0.21445
USER: genes 15 Torsion [N]-CA--CB-[CG2] |==|  0.69560
USER: genes 16 Torsion [CA]-CB--OG1-[HG1] |==|  0.09301
USER: genes 17 Torsion [N]-CA--C-[N] |==|  0.97531
USER: genes 18 Torsion [C]-N--CA-[CB] |==|  0.86111
USER: genes 19 Torsion [N]-CA--CB-[CG] |==|  0.88595
USER: genes 20 Torsion [CA]-CB--CG-[CD] |==|  0.68449
USER: genes 21 Torsion [CB]-CG--CD-[OE1] |==|  0.53908
USER: genes 22 Torsion [N]-CA--C-[N] |==|  0.33350
USER: genes 23 Torsion [C]-N--CA-[C] |==|  0.19234
USER: genes 24 Torsion [N]-CA--C-[O] |==|  0.37348
USER: genes 25 Torsion [N]-CA--CB-[CG2] |==|  0.74715
ROOT
ATOM      1  C   GLU E  10      38.652 -34.658 -15.658  1.00 63.15 LIG 0.24  C 
ATOM      2 O    GLU E  10      39.446 -35.548 -15.974  1.00 62.80 LIG-0.27  OA
ATOM      3  N   THR E  11      38.293 -34.408 -14.385  1.00 58.35 LIG-0.34  N 
ATOM      4 H    THR E  11      37.736 -33.791 -14.166  1.00 58.35 LIG 0.16  HD
ENDROOT
BRANCH 1 5
ATOM      5  CA  GLU E  10      38.033 -33.767 -16.739  1.00 61.04 LIG 0.18  C 
BRANCH 5 6
ATOM      6  CB  GLU E  10      38.586 -32.333 -16.664  1.00 62.44 LIG 0.04  C 
BRANCH 6 7
ATOM      7  CG  GLU E  10      39.970 -32.165 -17.274  1.00 71.88 LIG 0.12  C 
BRANCH 7 8
ATOM      8  CD  GLU E  10      41.101 -31.941 -16.289  1.00 89.61 LIG 0.17  C 
ATOM      9 OE1  GLU E  10      42.269 -32.238 -16.634  1.00 85.83 LIG-0.65  OA
ATOM     10 OE2  GLU E  10      40.825 -31.420 -15.185  1.00 80.51 LIG-0.65  OA
ENDBRANCH 7 8
ENDBRANCH 6 7
ENDBRANCH 5 6
BRANCH 5 11
ATOM     11  N   GLU E  10      36.578 -33.768 -16.599  1.00 62.09 LIG-0.35  N 
ATOM     12  C   ARG E   9      35.718 -34.096 -17.576  1.00 67.00 LIG 0.24  C 
ATOM     13 O    ARG E   9      36.071 -34.420 -18.712  1.00 66.41 LIG-0.27  OA
ATOM     14 H    GLU E  10      36.316 -33.533 -15.814  1.00 62.09 LIG 0.16  HD
BRANCH 12 15
ATOM     15  CA  ARG E   9      34.232 -34.053 -17.215  1.00 65.18 LIG 0.18  C 
BRANCH 15 16
ATOM     16  CB  ARG E   9      33.489 -33.095 -18.164  1.00 65.91 LIG 0.04  C 
BRANCH 16 17
ATOM     17  CG  ARG E   9      31.965 -33.109 -18.029  1.00 77.53 LIG 0.02  C 
BRANCH 17 18
ATOM     18  CD  ARG E   9      31.426 -34.295 -17.229  1.00 87.32 LIG 0.14  C 
BRANCH 18 19
ATOM     19  NE  ARG E   9      30.546 -35.167 -18.014  1.00 94.16 LIG-0.23  N 
ATOM     20  CZ  ARG E   9      30.941 -35.925 -19.034  1.00107.18 LIG 0.67  C 
ATOM     21  NH2 ARG E   9      30.066 -36.680 -19.683  1.00 92.81 LIG-0.23  N 
ATOM     22  NH1 ARG E   9      32.215 -35.938 -19.408  1.00 95.67 LIG-0.23  N 
ATOM     23 1HH2 ARG E   9      29.239 -36.681 -19.446  1.00 92.81 LIG 0.17  HD
ATOM     24 2HH2 ARG E   9      30.325 -37.169 -20.342  1.00 92.81 LIG 0.17  HD
ATOM     25 2HH1 ARG E   9      32.464 -36.430 -20.068  1.00 95.67 LIG 0.17  HD
ATOM     26 1HH1 ARG E   9      32.790 -35.454 -18.991  1.00 95.67 LIG 0.17  HD
ATOM     27 HE   ARG E   9      29.713 -35.190 -17.799  1.00 94.16 LIG 0.18  HD
ENDBRANCH 18 19
ENDBRANCH 17 18
ENDBRANCH 16 17
ENDBRANCH 15 16
BRANCH 15 28
ATOM     28  N   ARG E   9      34.002 -33.681 -15.816  1.00 66.15 LIG-0.35  N 
ATOM     29 H    ARG E   9      33.833 -32.844 -15.715  1.00 66.15 LIG 0.16  HD
ATOM     30  C   GLY E   8      34.045 -34.539 -14.777  1.00 70.79 LIG 0.25  C 
ATOM     31 O    GLY E   8      34.288 -35.744 -14.901  1.00 70.42 LIG-0.27  OA
BRANCH 30 32
ATOM     32  CA  GLY E   8      33.774 -33.956 -13.406  1.00 68.19 LIG 0.47  C 
ATOM     33  N   GLY E   8      34.120 -32.545 -13.310  1.00 68.87 LIG 0.61  N 
ENDBRANCH 30 32
ENDBRANCH 15 28
ENDBRANCH 12 15
ENDBRANCH 5 11
ENDBRANCH 1 5
BRANCH 3 34
ATOM     34  CA  THR E  11      38.817 -35.164 -13.244  1.00 57.37 LIG 0.20  C 
BRANCH 34 35
ATOM     35  CB  THR E  11      40.249 -34.703 -12.902  1.00 62.59 LIG 0.15  C 
ATOM     36  CG2 THR E  11      41.308 -35.748 -13.244  1.00 60.54 LIG 0.04  C 
BRANCH 35 37
ATOM     37 OG1  THR E  11      40.537 -33.490 -13.596  1.00 61.42 LIG-0.39  OA
ATOM     38 HG1  THR E  11      39.836 -33.032 -13.664  1.00 61.42 LIG 0.21  HD
ENDBRANCH 35 37
ENDBRANCH 34 35
BRANCH 34 39
ATOM     39  C   THR E  11      37.876 -35.089 -12.038  1.00 59.93 LIG 0.24  C 
ATOM     40 O    THR E  11      38.072 -35.812 -11.059  1.00 59.05 LIG-0.27  OA
ATOM     41  N   GLU E  12      36.850 -34.227 -12.129  1.00 55.90 LIG-0.35  N 
ATOM     42 H    GLU E  12      36.732 -33.715 -12.810  1.00 55.90 LIG 0.16  HD
BRANCH 41 43
ATOM     43  CA  GLU E  12      35.827 -34.061 -11.096  1.00 55.43 LIG 0.18  C 
BRANCH 43 44
ATOM     44  CB  GLU E  12      35.240 -35.422 -10.667  1.00 56.88 LIG 0.04  C 
BRANCH 44 45
ATOM     45  CG  GLU E  12      34.988 -36.397 -11.806  1.00 68.03 LIG 0.12  C 
BRANCH 45 46
ATOM     46  CD  GLU E  12      33.531 -36.727 -12.071  1.00 88.63 LIG 0.17  C 
ATOM     47 OE1  GLU E  12      33.260 -37.709 -12.801  1.00 85.30 LIG-0.65  OA
ATOM     48 OE2  GLU E  12      32.656 -36.028 -11.511  1.00 81.03 LIG-0.65  OA
ENDBRANCH 45 46
ENDBRANCH 44 45
ENDBRANCH 43 44
BRANCH 43 49
ATOM     49  C   GLU E  12      36.469 -33.362  -9.897  1.00 58.58 LIG 0.24  C 
ATOM     50 O    GLU E  12      37.442 -33.877  -9.340  1.00 58.36 LIG-0.27  OA
ATOM     51  N   VAL E  13      35.950 -32.178  -9.522  1.00 54.46 LIG-0.34  N 
ATOM     52 H    VAL E  13      35.288 -31.807  -9.927  1.00 54.46 LIG 0.16  HD
BRANCH 51 53
ATOM     53  CA  VAL E  13      36.458 -31.395  -8.384  1.00 55.96 LIG 0.19  C 
BRANCH 53 54
ATOM     54  C   VAL E  13      37.858 -30.804  -8.644  1.00 65.43 LIG 0.20  C 
ATOM     55 O    VAL E  13      38.069 -29.608  -8.344  1.00 66.90 LIG-0.65  OA
ATOM     56 OXT  VAL E  13      38.733 -31.530  -9.164  1.00 83.99 LIG-0.65  OA
ENDBRANCH 53 54
BRANCH 53 57
ATOM     57  CB  VAL E  13      36.348 -32.111  -7.001  1.00 59.73 LIG 0.01  C 
ATOM     58  CG2 VAL E  13      35.034 -31.795  -6.292  1.00 59.40 LIG 0.01  C 
ATOM     59  CG1 VAL E  13      37.546 -31.792  -6.109  1.00 59.53 LIG 0.01  C 
ENDBRANCH 53 57
ENDBRANCH 51 53
ENDBRANCH 43 49
ENDBRANCH 41 43
ENDBRANCH 34 39
ENDBRANCH 3 34
TORSDOF 24
ENDMDL
MODEL 13
USER: ADFR SOLUTION from run 147
USER: SCORE 17.461685 LL:  -3.095 LR: -16.337 RR:   0.000 FEB:  -9.178
USER: RMSD 3.864594
USER: SEED 146
USER: STATUS no improvement in best in 4 clusters for 5 generations
USER: GENES 26
USER: genes 0 Translation |==|  0.50075 0.53076 0.50545
USER: genes 1 Rotation |==|  0.58360 0.34332 0.33060 0.93562
USER: genes 2 Torsion [N]-C--CA-[N] |==|  0.50401
USER: genes 3 Torsion [C]-CA--CB-[CG] |==|  0.20930
USER: genes 4 Torsion [CA]-CB--CG-[CD] |==|  0.64195
USER: genes 5 Torsion [CB]-CG--CD-[OE1] |==|  0.08838
USER: genes 6 Torsion [C]-CA--N-[C] |==|  0.60194
USER: genes 7 Torsion [N]-C--CA-[N] |==|  0.45895
USER: genes 8 Torsion [C]-CA--CB-[CG] |==|  0.60082
USER: genes 9 Torsion [CA]-CB--CG-[CD] |==|  0.44829
USER: genes 10 Torsion [CB]-CG--CD-[NE] |==|  0.52279
USER: genes 11 Torsion [CG]-CD--NE-[CZ] |==|  0.16433
USER: genes 12 Torsion [C]-CA--N-[C] |==|  0.77201
USER: genes 13 Torsion [N]-C--CA-[N] |==|  0.41557
USER: genes 14 Torsion [C]-N--CA-[CB] |==|  0.82772
USER: genes 15 Torsion [N]-CA--CB-[CG2] |==|  0.92482
USER: genes 16 Torsion [CA]-CB--OG1-[HG1] |==|  0.39727
USER: genes 17 Torsion [N]-CA--C-[N] |==|  0.43485
USER: genes 18 Torsion [C]-N--CA-[CB] |==|  0.47302
USER: genes 19 Torsion [N]-CA--CB-[CG] |==|  0.17049
USER: genes 20 Torsion [CA]-CB--CG-[CD] |==|  0.50493
USER: genes 21 Torsion [CB]-CG--CD-[OE1] |==|  0.15978
USER: genes 22 Torsion [N]-CA--C-[N] |==|  0.96858
USER: genes 23 Torsion [C]-N--CA-[C] |==|  0.18412
USER: genes 24 Torsion [N]-CA--C-[O] |==|  0.54938
USER: genes 25 Torsion [N]-CA--CB-[CG2] |==|  0.93142
ROOT
ATOM      1  C   GLU E  10      35.215 -33.162  -9.013  1.00 63.15 LIG 0.24  C 
ATOM      2 O    GLU E  10      34.834 -34.331  -9.116  1.00 62.80 LIG-0.27  OA
ATOM      3  N   THR E  11      35.645 -32.433 -10.058  1.00 58.35 LIG-0.34  N 
ATOM      4 H    THR E  11      35.916 -31.620  -9.985  1.00 58.35 LIG 0.16  HD
ENDROOT
BRANCH 1 5
ATOM      5  CA  GLU E  10      35.201 -32.473  -7.645  1.00 61.04 LIG 0.18  C 
BRANCH 5 6
ATOM      6  CB  GLU E  10      36.592 -31.921  -7.285  1.00 62.44 LIG 0.04  C 
BRANCH 6 7
ATOM      7  CG  GLU E  10      36.972 -30.652  -8.035  1.00 71.88 LIG 0.12  C 
BRANCH 7 8
ATOM      8  CD  GLU E  10      38.323 -30.674  -8.723  1.00 89.61 LIG 0.17  C 
ATOM      9 OE1  GLU E  10      38.754 -31.763  -9.171  1.00 85.83 LIG-0.65  OA
ATOM     10 OE2  GLU E  10      38.932 -29.589  -8.859  1.00 80.51 LIG-0.65  OA
ENDBRANCH 7 8
ENDBRANCH 6 7
ENDBRANCH 5 6
BRANCH 5 11
ATOM     11  N   GLU E  10      34.741 -33.417  -6.627  1.00 62.09 LIG-0.35  N 
ATOM     12  C   ARG E   9      33.968 -33.090  -5.579  1.00 67.00 LIG 0.24  C 
ATOM     13 O    ARG E   9      33.575 -31.944  -5.355  1.00 66.41 LIG-0.27  OA
ATOM     14 H    GLU E  10      35.017 -34.220  -6.764  1.00 62.09 LIG 0.16  HD
BRANCH 12 15
ATOM     15  CA  ARG E   9      33.580 -34.234  -4.641  1.00 65.18 LIG 0.18  C 
BRANCH 15 16
ATOM     16  CB  ARG E   9      32.576 -35.169  -5.340  1.00 65.91 LIG 0.04  C 
BRANCH 16 17
ATOM     17  CG  ARG E   9      31.497 -35.752  -4.426  1.00 77.53 LIG 0.02  C 
BRANCH 17 18
ATOM     18  CD  ARG E   9      30.278 -36.292  -5.174  1.00 87.32 LIG 0.14  C 
BRANCH 18 19
ATOM     19  NE  ARG E   9      29.176 -36.671  -4.283  1.00 94.16 LIG-0.23  N 
ATOM     20  CZ  ARG E   9      28.563 -35.844  -3.440  1.00107.18 LIG 0.67  C 
ATOM     21  NH2 ARG E   9      27.576 -36.284  -2.672  1.00 92.81 LIG-0.23  N 
ATOM     22  NH1 ARG E   9      28.930 -34.571  -3.360  1.00 95.67 LIG-0.23  N 
ATOM     23 1HH2 ARG E   9      27.329 -37.107  -2.719  1.00 92.81 LIG 0.17  HD
ATOM     24 2HH2 ARG E   9      27.182 -35.747  -2.128  1.00 92.81 LIG 0.17  HD
ATOM     25 2HH1 ARG E   9      28.530 -34.041  -2.813  1.00 95.67 LIG 0.17  HD
ATOM     26 1HH1 ARG E   9      29.568 -34.275  -3.856  1.00 95.67 LIG 0.17  HD
ATOM     27 HE   ARG E   9      28.906 -37.487  -4.309  1.00 94.16 LIG 0.18  HD
ENDBRANCH 18 19
ENDBRANCH 17 18
ENDBRANCH 16 17
ENDBRANCH 15 16
BRANCH 15 28
ATOM     28  N   ARG E   9      33.043 -33.757  -3.362  1.00 66.15 LIG-0.35  N 
ATOM     29 H    ARG E   9      32.184 -33.754  -3.340  1.00 66.15 LIG 0.16  HD
ATOM     30  C   GLY E   8      33.794 -33.359  -2.315  1.00 70.79 LIG 0.25  C 
ATOM     31 O    GLY E   8      35.028 -33.355  -2.329  1.00 70.42 LIG-0.27  OA
BRANCH 30 32
ATOM     32  CA  GLY E   8      33.045 -32.905  -1.081  1.00 68.19 LIG 0.47  C 
ATOM     33  N   GLY E   8      33.773 -33.161   0.153  1.00 68.87 LIG 0.61  N 
ENDBRANCH 30 32
ENDBRANCH 15 28
ENDBRANCH 12 15
ENDBRANCH 5 11
ENDBRANCH 1 5
BRANCH 3 34
ATOM     34  CA  THR E  11      35.696 -32.950 -11.428  1.00 57.37 LIG 0.20  C 
BRANCH 34 35
ATOM     35  CB  THR E  11      36.661 -34.151 -11.517  1.00 62.59 LIG 0.15  C 
ATOM     36  CG2 THR E  11      37.763 -34.108 -10.461  1.00 60.54 LIG 0.04  C 
BRANCH 35 37
ATOM     37 OG1  THR E  11      35.923 -35.365 -11.384  1.00 61.42 LIG-0.39  OA
ATOM     38 HG1  THR E  11      36.252 -35.950 -11.890  1.00 61.42 LIG 0.21  HD
ENDBRANCH 35 37
ENDBRANCH 34 35
BRANCH 34 39
ATOM     39  C   THR E  11      34.299 -33.284 -11.958  1.00 59.93 LIG 0.24  C 
ATOM     40 O    THR E  11      33.387 -33.545 -11.172  1.00 59.05 LIG-0.27  OA
ATOM     41  N   GLU E  12      34.151 -33.293 -13.294  1.00 55.90 LIG-0.35  N 
ATOM     42 H    GLU E  12      34.789 -33.094 -13.834  1.00 55.90 LIG 0.16  HD
BRANCH 41 43
ATOM     43  CA  GLU E  12      32.903 -33.639 -13.976  1.00 55.43 LIG 0.18  C 
BRANCH 43 44
ATOM     44  CB  GLU E  12      32.984 -33.324 -15.484  1.00 56.88 LIG 0.04  C 
BRANCH 44 45
ATOM     45  CG  GLU E  12      34.059 -34.088 -16.240  1.00 68.03 LIG 0.12  C 
BRANCH 45 46
ATOM     46  CD  GLU E  12      34.180 -33.758 -17.716  1.00 88.63 LIG 0.17  C 
ATOM     47 OE1  GLU E  12      34.401 -32.572 -18.051  1.00 85.30 LIG-0.65  OA
ATOM     48 OE2  GLU E  12      34.096 -34.699 -18.539  1.00 81.03 LIG-0.65  OA
ENDBRANCH 45 46
ENDBRANCH 44 45
ENDBRANCH 43 44
BRANCH 43 49
ATOM     49  C   GLU E  12      32.640 -35.130 -13.762  1.00 58.58 LIG 0.24  C 
ATOM     50 O    GLU E  12      31.553 -35.611 -14.093  1.00 58.36 LIG-0.27  OA
ATOM     51  N   VAL E  13      33.641 -35.865 -13.242  1.00 54.46 LIG-0.34  N 
ATOM     52 H    VAL E  13      34.407 -35.534 -13.035  1.00 54.46 LIG 0.16  HD
BRANCH 51 53
ATOM     53  CA  VAL E  13      33.530 -37.308 -12.973  1.00 55.96 LIG 0.19  C 
BRANCH 53 54
ATOM     54  C   VAL E  13      33.383 -38.145 -14.259  1.00 65.43 LIG 0.20  C 
ATOM     55 O    VAL E  13      32.950 -39.314 -14.168  1.00 66.90 LIG-0.65  OA
ATOM     56 OXT  VAL E  13      33.720 -37.638 -15.351  1.00 83.99 LIG-0.65  OA
ENDBRANCH 53 54
BRANCH 53 57
ATOM     57  CB  VAL E  13      32.484 -37.688 -11.879  1.00 59.73 LIG 0.01  C 
ATOM     58  CG2 VAL E  13      32.226 -36.541 -10.905  1.00 59.40 LIG 0.01  C 
ATOM     59  CG1 VAL E  13      32.886 -38.960 -11.136  1.00 59.53 LIG 0.01  C 
ENDBRANCH 53 57
ENDBRANCH 51 53
ENDBRANCH 43 49
ENDBRANCH 41 43
ENDBRANCH 34 39
ENDBRANCH 3 34
TORSDOF 24
ENDMDL
MODEL 14
USER: ADFR SOLUTION from run 97
USER: SCORE 16.976155 LL:  -3.414 LR: -16.176 RR:   0.000 FEB:  -9.017
USER: RMSD 11.509893
USER: SEED 96
USER: STATUS no improvement in best in 4 clusters for 5 generations
USER: GENES 26
USER: genes 0 Translation |==|  0.46709 0.49453 0.32500
USER: genes 1 Rotation |==|  0.87282 0.78075 0.32121 0.51482
USER: genes 2 Torsion [N]-C--CA-[N] |==|  0.80646
USER: genes 3 Torsion [C]-CA--CB-[CG] |==|  0.14154
USER: genes 4 Torsion [CA]-CB--CG-[CD] |==|  0.38922
USER: genes 5 Torsion [CB]-CG--CD-[OE1] |==|  0.91647
USER: genes 6 Torsion [C]-CA--N-[C] |==|  0.58909
USER: genes 7 Torsion [N]-C--CA-[N] |==|  0.06229
USER: genes 8 Torsion [C]-CA--CB-[CG] |==|  0.51683
USER: genes 9 Torsion [CA]-CB--CG-[CD] |==|  0.48566
USER: genes 10 Torsion [CB]-CG--CD-[NE] |==|  0.12251
USER: genes 11 Torsion [CG]-CD--NE-[CZ] |==|  0.72779
USER: genes 12 Torsion [C]-CA--N-[C] |==|  0.17778
USER: genes 13 Torsion [N]-C--CA-[N] |==|  0.32651
USER: genes 14 Torsion [C]-N--CA-[CB] |==|  0.22012
USER: genes 15 Torsion [N]-CA--CB-[CG2] |==|  0.19884
USER: genes 16 Torsion [CA]-CB--OG1-[HG1] |==|  0.02564
USER: genes 17 Torsion [N]-CA--C-[N] |==|  0.48928
USER: genes 18 Torsion [C]-N--CA-[CB] |==|  0.26138
USER: genes 19 Torsion [N]-CA--CB-[CG] |==|  0.55284
USER: genes 20 Torsion [CA]-CB--CG-[CD] |==|  0.50365
USER: genes 21 Torsion [CB]-CG--CD-[OE1] |==|  0.89326
USER: genes 22 Torsion [N]-CA--C-[N] |==|  0.96583
USER: genes 23 Torsion [C]-N--CA-[C] |==|  0.17688
USER: genes 24 Torsion [N]-CA--C-[O] |==|  0.27601
USER: genes 25 Torsion [N]-CA--CB-[CG2] |==|  0.86933
ROOT
ATOM      1  C   GLU E  10      34.558 -33.760 -14.020  1.00 63.15 LIG 0.24  C 
ATOM      2 O    GLU E  10      33.567 -33.037 -14.146  1.00 62.80 LIG-0.27  OA
ATOM      3  N   THR E  11      35.214 -33.916 -12.856  1.00 58.35 LIG-0.34  N 
ATOM      4 H    THR E  11      35.908 -34.416 -12.770  1.00 58.35 LIG 0.16  HD
ENDROOT
BRANCH 1 5
ATOM      5  CA  GLU E  10      35.091 -34.542 -15.225  1.00 61.04 LIG 0.18  C 
BRANCH 5 6
ATOM      6  CB  GLU E  10      35.224 -36.041 -14.902  1.00 62.44 LIG 0.04  C 
BRANCH 6 7
ATOM      7  CG  GLU E  10      33.972 -36.663 -14.302  1.00 71.88 LIG 0.12  C 
BRANCH 7 8
ATOM      8  CD  GLU E  10      33.631 -38.058 -14.791  1.00 89.61 LIG 0.17  C 
ATOM      9 OE1  GLU E  10      33.959 -38.386 -15.955  1.00 85.83 LIG-0.65  OA
ATOM     10 OE2  GLU E  10      33.077 -38.843 -13.989  1.00 80.51 LIG-0.65  OA
ENDBRANCH 7 8
ENDBRANCH 6 7
ENDBRANCH 5 6
BRANCH 5 11
ATOM     11  N   GLU E  10      36.378 -33.986 -15.638  1.00 62.09 LIG-0.35  N 
ATOM     12  C   ARG E   9      36.827 -33.959 -16.903  1.00 67.00 LIG 0.24  C 
ATOM     13 O    ARG E   9      36.198 -34.420 -17.857  1.00 66.41 LIG-0.27  OA
ATOM     14 H    GLU E  10      36.834 -33.670 -14.981  1.00 62.09 LIG 0.16  HD
BRANCH 12 15
ATOM     15  CA  ARG E   9      38.195 -33.311 -17.124  1.00 65.18 LIG 0.18  C 
BRANCH 15 16
ATOM     16  CB  ARG E   9      38.933 -34.023 -18.273  1.00 65.91 LIG 0.04  C 
BRANCH 16 17
ATOM     17  CG  ARG E   9      40.374 -33.560 -18.495  1.00 77.53 LIG 0.02  C 
BRANCH 17 18
ATOM     18  CD  ARG E   9      41.126 -34.364 -19.555  1.00 87.32 LIG 0.14  C 
BRANCH 18 19
ATOM     19  NE  ARG E   9      40.328 -34.617 -20.760  1.00 94.16 LIG-0.23  N 
ATOM     20  CZ  ARG E   9      39.664 -35.742 -21.009  1.00107.18 LIG 0.67  C 
ATOM     21  NH2 ARG E   9      38.972 -35.875 -22.131  1.00 92.81 LIG-0.23  N 
ATOM     22  NH1 ARG E   9      39.683 -36.741 -20.135  1.00 95.67 LIG-0.23  N 
ATOM     23 1HH2 ARG E   9      38.950 -35.232 -22.702  1.00 92.81 LIG 0.17  HD
ATOM     24 2HH2 ARG E   9      38.543 -36.605 -22.289  1.00 92.81 LIG 0.17  HD
ATOM     25 2HH1 ARG E   9      39.251 -37.467 -20.300  1.00 95.67 LIG 0.17  HD
ATOM     26 1HH1 ARG E   9      40.127 -36.663 -19.402  1.00 95.67 LIG 0.17  HD
ATOM     27 HE   ARG E   9      40.287 -33.992 -21.349  1.00 94.16 LIG 0.18  HD
ENDBRANCH 18 19
ENDBRANCH 17 18
ENDBRANCH 16 17
ENDBRANCH 15 16
BRANCH 15 28
ATOM     28  N   ARG E   9      39.015 -33.295 -15.909  1.00 66.15 LIG-0.35  N 
ATOM     29 H    ARG E   9      39.185 -32.500 -15.631  1.00 66.15 LIG 0.16  HD
ATOM     30  C   GLY E   8      39.467 -34.395 -15.275  1.00 70.79 LIG 0.25  C 
ATOM     31 O    GLY E   8      39.234 -35.545 -15.660  1.00 70.42 LIG-0.27  OA
BRANCH 30 32
ATOM     32  CA  GLY E   8      40.298 -34.164 -14.030  1.00 68.19 LIG 0.47  C 
ATOM     33  N   GLY E   8      39.687 -34.712 -12.828  1.00 68.87 LIG 0.61  N 
ENDBRANCH 30 32
ENDBRANCH 15 28
ENDBRANCH 12 15
ENDBRANCH 5 11
ENDBRANCH 1 5
BRANCH 3 34
ATOM     34  CA  THR E  11      34.811 -33.248 -11.615  1.00 57.37 LIG 0.20  C 
BRANCH 34 35
ATOM     35  CB  THR E  11      33.623 -33.988 -10.965  1.00 62.59 LIG 0.15  C 
ATOM     36  CG2 THR E  11      34.019 -35.332 -10.358  1.00 60.54 LIG 0.04  C 
BRANCH 35 37
ATOM     37 OG1  THR E  11      33.045 -33.162  -9.954  1.00 61.42 LIG-0.39  OA
ATOM     38 HG1  THR E  11      33.379 -32.393  -9.995  1.00 61.42 LIG 0.21  HD
ENDBRANCH 35 37
ENDBRANCH 34 35
BRANCH 34 39
ATOM     39  C   THR E  11      35.991 -33.081 -10.654  1.00 59.93 LIG 0.24  C 
ATOM     40 O    THR E  11      37.087 -33.569 -10.933  1.00 59.05 LIG-0.27  OA
ATOM     41  N   GLU E  12      35.747 -32.408  -9.516  1.00 55.90 LIG-0.35  N 
ATOM     42 H    GLU E  12      34.982 -32.057  -9.338  1.00 55.90 LIG 0.16  HD
BRANCH 41 43
ATOM     43  CA  GLU E  12      36.740 -32.197  -8.463  1.00 55.43 LIG 0.18  C 
BRANCH 43 44
ATOM     44  CB  GLU E  12      37.463 -30.844  -8.639  1.00 56.88 LIG 0.04  C 
BRANCH 44 45
ATOM     45  CG  GLU E  12      38.787 -30.726  -7.902  1.00 68.03 LIG 0.12  C 
BRANCH 45 46
ATOM     46  CD  GLU E  12      39.494 -29.391  -8.040  1.00 88.63 LIG 0.17  C 
ATOM     47 OE1  GLU E  12      39.464 -28.806  -9.147  1.00 85.30 LIG-0.65  OA
ATOM     48 OE2  GLU E  12      40.044 -28.907  -7.024  1.00 81.03 LIG-0.65  OA
ENDBRANCH 45 46
ENDBRANCH 44 45
ENDBRANCH 43 44
BRANCH 43 49
ATOM     49  C   GLU E  12      36.021 -32.239  -7.114  1.00 58.58 LIG 0.24  C 
ATOM     50 O    GLU E  12      36.682 -32.282  -6.072  1.00 58.36 LIG-0.27  OA
ATOM     51  N   VAL E  13      34.676 -32.192  -7.130  1.00 54.46 LIG-0.34  N 
ATOM     52 H    VAL E  13      34.218 -32.136  -7.855  1.00 54.46 LIG 0.16  HD
BRANCH 51 53
ATOM     53  CA  VAL E  13      33.850 -32.233  -5.912  1.00 55.96 LIG 0.19  C 
BRANCH 53 54
ATOM     54  C   VAL E  13      34.079 -31.014  -4.996  1.00 65.43 LIG 0.20  C 
ATOM     55 O    VAL E  13      33.263 -30.069  -5.039  1.00 66.90 LIG-0.65  OA
ATOM     56 OXT  VAL E  13      35.084 -30.999  -4.252  1.00 83.99 LIG-0.65  OA
ENDBRANCH 53 54
BRANCH 53 57
ATOM     57  CB  VAL E  13      33.893 -33.589  -5.141  1.00 59.73 LIG 0.01  C 
ATOM     58  CG2 VAL E  13      33.713 -34.786  -6.071  1.00 59.40 LIG 0.01  C 
ATOM     59  CG1 VAL E  13      32.876 -33.619  -4.002  1.00 59.53 LIG 0.01  C 
ENDBRANCH 53 57
ENDBRANCH 51 53
ENDBRANCH 43 49
ENDBRANCH 41 43
ENDBRANCH 34 39
ENDBRANCH 3 34
TORSDOF 24
ENDMDL
MODEL 15
USER: ADFR SOLUTION from run 191
USER: SCORE 18.530363 LL:  -3.960 LR: -16.118 RR:   0.000 FEB:  -8.959
USER: RMSD 5.735191
USER: SEED 190
USER: STATUS no improvement in best in 1 clusters for 5 generations
USER: GENES 26
USER: genes 0 Translation |==|  0.41099 0.28894 0.48063
USER: genes 1 Rotation |==|  0.44180 0.51714 0.94153 0.72665
USER: genes 2 Torsion [N]-C--CA-[N] |==|  0.46042
USER: genes 3 Torsion [C]-CA--CB-[CG] |==|  0.31574
USER: genes 4 Torsion [CA]-CB--CG-[CD] |==|  0.71023
USER: genes 5 Torsion [CB]-CG--CD-[OE1] |==|  0.63627
USER: genes 6 Torsion [C]-CA--N-[C] |==|  0.55588
USER: genes 7 Torsion [N]-C--CA-[N] |==|  0.43626
USER: genes 8 Torsion [C]-CA--CB-[CG] |==|  0.31608
USER: genes 9 Torsion [CA]-CB--CG-[CD] |==|  0.70507
USER: genes 10 Torsion [CB]-CG--CD-[NE] |==|  0.24875
USER: genes 11 Torsion [CG]-CD--NE-[CZ] |==|  0.19517
USER: genes 12 Torsion [C]-CA--N-[C] |==|  0.53485
USER: genes 13 Torsion [N]-C--CA-[N] |==|  0.85399
USER: genes 14 Torsion [C]-N--CA-[CB] |==|  0.49096
USER: genes 15 Torsion [N]-CA--CB-[CG2] |==|  0.26988
USER: genes 16 Torsion [CA]-CB--OG1-[HG1] |==|  0.51513
USER: genes 17 Torsion [N]-CA--C-[N] |==|  0.46817
USER: genes 18 Torsion [C]-N--CA-[CB] |==|  0.50698
USER: genes 19 Torsion [N]-CA--CB-[CG] |==|  0.39936
USER: genes 20 Torsion [CA]-CB--CG-[CD] |==|  0.64095
USER: genes 21 Torsion [CB]-CG--CD-[OE1] |==|  0.92896
USER: genes 22 Torsion [N]-CA--C-[N] |==|  0.43172
USER: genes 23 Torsion [C]-N--CA-[C] |==|  0.70903
USER: genes 24 Torsion [N]-CA--C-[O] |==|  0.82729
USER: genes 25 Torsion [N]-CA--CB-[CG2] |==|  0.11777
ROOT
ATOM      1  C   GLU E  10      33.464 -37.153  -9.701  1.00 63.15 LIG 0.24  C 
ATOM      2 O    GLU E  10      33.976 -36.044  -9.525  1.00 62.80 LIG-0.27  OA
ATOM      3  N   THR E  11      33.895 -38.023 -10.632  1.00 58.35 LIG-0.34  N 
ATOM      4 H    THR E  11      33.535 -38.793 -10.759  1.00 58.35 LIG 0.16  HD
ENDROOT
BRANCH 1 5
ATOM      5  CA  GLU E  10      32.285 -37.596  -8.831  1.00 61.04 LIG 0.18  C 
BRANCH 5 6
ATOM      6  CB  GLU E  10      30.974 -37.618  -9.637  1.00 62.44 LIG 0.04  C 
BRANCH 6 7
ATOM      7  CG  GLU E  10      30.385 -39.008  -9.832  1.00 71.88 LIG 0.12  C 
BRANCH 7 8
ATOM      8  CD  GLU E  10      30.566 -39.612 -11.212  1.00 89.61 LIG 0.17  C 
ATOM      9 OE1  GLU E  10      29.569 -40.105 -11.789  1.00 85.83 LIG-0.65  OA
ATOM     10 OE2  GLU E  10      31.699 -39.547 -11.739  1.00 80.51 LIG-0.65  OA
ENDBRANCH 7 8
ENDBRANCH 6 7
ENDBRANCH 5 6
BRANCH 5 11
ATOM     11  N   GLU E  10      32.167 -36.706  -7.677  1.00 62.09 LIG-0.35  N 
ATOM     12  C   ARG E   9      31.519 -37.010  -6.542  1.00 67.00 LIG 0.24  C 
ATOM     13 O    ARG E   9      30.936 -38.081  -6.358  1.00 66.41 LIG-0.27  OA
ATOM     14 H    GLU E  10      32.559 -35.949  -7.795  1.00 62.09 LIG 0.16  HD
BRANCH 12 15
ATOM     15  CA  ARG E   9      31.532 -35.944  -5.446  1.00 65.18 LIG 0.18  C 
BRANCH 15 16
ATOM     16  CB  ARG E   9      32.881 -35.970  -4.704  1.00 65.91 LIG 0.04  C 
BRANCH 16 17
ATOM     17  CG  ARG E   9      33.742 -34.719  -4.891  1.00 77.53 LIG 0.02  C 
BRANCH 17 18
ATOM     18  CD  ARG E   9      34.944 -34.927  -5.811  1.00 87.32 LIG 0.14  C 
BRANCH 18 19
ATOM     19  NE  ARG E   9      34.644 -34.657  -7.222  1.00 94.16 LIG-0.23  N 
ATOM     20  CZ  ARG E   9      34.411 -33.451  -7.731  1.00107.18 LIG 0.67  C 
ATOM     21  NH2 ARG E   9      34.146 -33.311  -9.022  1.00 92.81 LIG-0.23  N 
ATOM     22  NH1 ARG E   9      34.446 -32.375  -6.954  1.00 95.67 LIG-0.23  N 
ATOM     23 1HH2 ARG E   9      34.125 -34.002  -9.534  1.00 92.81 LIG 0.17  HD
ATOM     24 2HH2 ARG E   9      33.996 -32.529  -9.348  1.00 92.81 LIG 0.17  HD
ATOM     25 2HH1 ARG E   9      34.295 -31.597  -7.289  1.00 95.67 LIG 0.17  HD
ATOM     26 1HH1 ARG E   9      34.621 -32.455  -6.116  1.00 95.67 LIG 0.17  HD
ATOM     27 HE   ARG E   9      34.617 -35.329  -7.758  1.00 94.16 LIG 0.18  HD
ENDBRANCH 18 19
ENDBRANCH 17 18
ENDBRANCH 16 17
ENDBRANCH 15 16
BRANCH 15 28
ATOM     28  N   ARG E   9      30.418 -36.088  -4.504  1.00 66.15 LIG-0.35  N 
ATOM     29 H    ARG E   9      30.008 -36.840  -4.583  1.00 66.15 LIG 0.16  HD
ATOM     30  C   GLY E   8      30.052 -35.158  -3.599  1.00 70.79 LIG 0.25  C 
ATOM     31 O    GLY E   8      30.627 -34.073  -3.472  1.00 70.42 LIG-0.27  OA
BRANCH 30 32
ATOM     32  CA  GLY E   8      28.873 -35.503  -2.714  1.00 68.19 LIG 0.47  C 
ATOM     33  N   GLY E   8      27.699 -35.920  -3.467  1.00 68.87 LIG 0.61  N 
ENDBRANCH 30 32
ENDBRANCH 15 28
ENDBRANCH 12 15
ENDBRANCH 5 11
ENDBRANCH 1 5
BRANCH 3 34
ATOM     34  CA  THR E  11      35.024 -37.746 -11.524  1.00 57.37 LIG 0.20  C 
BRANCH 34 35
ATOM     35  CB  THR E  11      35.320 -38.969 -12.417  1.00 62.59 LIG 0.15  C 
ATOM     36  CG2 THR E  11      34.684 -38.863 -13.802  1.00 60.54 LIG 0.04  C 
BRANCH 35 37
ATOM     37 OG1  THR E  11      36.732 -39.128 -12.555  1.00 61.42 LIG-0.39  OA
ATOM     38 HG1  THR E  11      36.893 -39.746 -13.100  1.00 61.42 LIG 0.21  HD
ENDBRANCH 35 37
ENDBRANCH 34 35
BRANCH 34 39
ATOM     39  C   THR E  11      34.801 -36.469 -12.339  1.00 59.93 LIG 0.24  C 
ATOM     40 O    THR E  11      33.687 -35.945 -12.370  1.00 59.05 LIG-0.27  OA
ATOM     41  N   GLU E  12      35.864 -35.991 -13.009  1.00 55.90 LIG-0.35  N 
ATOM     42 H    GLU E  12      36.642 -36.356 -12.968  1.00 55.90 LIG 0.16  HD
BRANCH 41 43
ATOM     43  CA  GLU E  12      35.822 -34.813 -13.876  1.00 55.43 LIG 0.18  C 
BRANCH 43 44
ATOM     44  CB  GLU E  12      37.189 -34.564 -14.547  1.00 56.88 LIG 0.04  C 
BRANCH 44 45
ATOM     45  CG  GLU E  12      37.116 -34.039 -15.972  1.00 68.03 LIG 0.12  C 
BRANCH 45 46
ATOM     46  CD  GLU E  12      37.952 -34.793 -16.989  1.00 88.63 LIG 0.17  C 
ATOM     47 OE1  GLU E  12      38.963 -35.417 -16.592  1.00 85.30 LIG-0.65  OA
ATOM     48 OE2  GLU E  12      37.569 -34.795 -18.181  1.00 81.03 LIG-0.65  OA
ENDBRANCH 45 46
ENDBRANCH 44 45
ENDBRANCH 43 44
BRANCH 43 49
ATOM     49  C   GLU E  12      34.747 -35.041 -14.939  1.00 58.58 LIG 0.24  C 
ATOM     50 O    GLU E  12      34.405 -36.192 -15.224  1.00 58.36 LIG-0.27  OA
ATOM     51  N   VAL E  13      34.191 -33.950 -15.499  1.00 54.46 LIG-0.34  N 
ATOM     52 H    VAL E  13      34.411 -33.148 -15.281  1.00 54.46 LIG 0.16  HD
BRANCH 51 53
ATOM     53  CA  VAL E  13      33.152 -34.014 -16.539  1.00 55.96 LIG 0.19  C 
BRANCH 53 54
ATOM     54  C   VAL E  13      33.693 -33.682 -17.944  1.00 65.43 LIG 0.20  C 
ATOM     55 O    VAL E  13      34.169 -32.545 -18.150  1.00 66.90 LIG-0.65  OA
ATOM     56 OXT  VAL E  13      33.621 -34.552 -18.840  1.00 83.99 LIG-0.65  OA
ENDBRANCH 53 54
BRANCH 53 57
ATOM     57  CB  VAL E  13      31.840 -33.242 -16.196  1.00 59.73 LIG 0.01  C 
ATOM     58  CG2 VAL E  13      32.121 -31.884 -15.557  1.00 59.40 LIG 0.01  C 
ATOM     59  CG1 VAL E  13      30.908 -34.079 -15.322  1.00 59.53 LIG 0.01  C 
ENDBRANCH 53 57
ENDBRANCH 51 53
ENDBRANCH 43 49
ENDBRANCH 41 43
ENDBRANCH 34 39
ENDBRANCH 3 34
TORSDOF 24
ENDMDL
MODEL 16
USER: ADFR SOLUTION from run 129
USER: SCORE 16.261877 LL:  -2.876 LR: -16.039 RR:   0.000 FEB:  -8.880
USER: RMSD 7.284234
USER: SEED 128
USER: STATUS no improvement in best in 7 clusters for 5 generations
USER: GENES 26
USER: genes 0 Translation |==|  0.41517 0.45394 0.28834
USER: genes 1 Rotation |==|  0.59368 0.26213 0.25692 0.85434
USER: genes 2 Torsion [N]-C--CA-[N] |==|  0.76572
USER: genes 3 Torsion [C]-CA--CB-[CG] |==|  0.17389
USER: genes 4 Torsion [CA]-CB--CG-[CD] |==|  0.04405
USER: genes 5 Torsion [CB]-CG--CD-[OE1] |==|  0.14736
USER: genes 6 Torsion [C]-CA--N-[C] |==|  0.45152
USER: genes 7 Torsion [N]-C--CA-[N] |==|  0.41936
USER: genes 8 Torsion [C]-CA--CB-[CG] |==|  0.85685
USER: genes 9 Torsion [CA]-CB--CG-[CD] |==|  0.38363
USER: genes 10 Torsion [CB]-CG--CD-[NE] |==|  0.27563
USER: genes 11 Torsion [CG]-CD--NE-[CZ] |==|  0.41042
USER: genes 12 Torsion [C]-CA--N-[C] |==|  0.70962
USER: genes 13 Torsion [N]-C--CA-[N] |==|  0.80686
USER: genes 14 Torsion [C]-N--CA-[CB] |==|  0.22665
USER: genes 15 Torsion [N]-CA--CB-[CG2] |==|  0.81838
USER: genes 16 Torsion [CA]-CB--OG1-[HG1] |==|  0.95559
USER: genes 17 Torsion [N]-CA--C-[N] |==|  0.03318
USER: genes 18 Torsion [C]-N--CA-[CB] |==|  0.57900
USER: genes 19 Torsion [N]-CA--CB-[CG] |==|  0.50424
USER: genes 20 Torsion [CA]-CB--CG-[CD] |==|  0.13831
USER: genes 21 Torsion [CB]-CG--CD-[OE1] |==|  0.64733
USER: genes 22 Torsion [N]-CA--C-[N] |==|  0.33371
USER: genes 23 Torsion [C]-N--CA-[C] |==|  0.71319
USER: genes 24 Torsion [N]-CA--C-[O] |==|  0.76781
USER: genes 25 Torsion [N]-CA--CB-[CG2] |==|  0.84883
ROOT
ATOM      1  C   GLU E  10      33.546 -34.430 -15.037  1.00 63.15 LIG 0.24  C 
ATOM      2 O    GLU E  10      32.811 -35.344 -15.421  1.00 62.80 LIG-0.27  OA
ATOM      3  N   THR E  11      34.559 -33.940 -15.775  1.00 58.35 LIG-0.34  N 
ATOM      4 H    THR E  11      35.074 -33.307 -15.505  1.00 58.35 LIG 0.16  HD
ENDROOT
BRANCH 1 5
ATOM      5  CA  GLU E  10      33.317 -33.791 -13.664  1.00 61.04 LIG 0.18  C 
BRANCH 5 6
ATOM      6  CB  GLU E  10      33.545 -32.270 -13.712  1.00 62.44 LIG 0.04  C 
BRANCH 6 7
ATOM      7  CG  GLU E  10      32.588 -31.525 -14.630  1.00 71.88 LIG 0.12  C 
BRANCH 7 8
ATOM      8  CD  GLU E  10      31.351 -32.293 -15.055  1.00 89.61 LIG 0.17  C 
ATOM      9 OE1  GLU E  10      30.629 -32.810 -14.170  1.00 85.83 LIG-0.65  OA
ATOM     10 OE2  GLU E  10      31.075 -32.336 -16.275  1.00 80.51 LIG-0.65  OA
ENDBRANCH 7 8
ENDBRANCH 6 7
ENDBRANCH 5 6
BRANCH 5 11
ATOM     11  N   GLU E  10      34.202 -34.416 -12.682  1.00 62.09 LIG-0.35  N 
ATOM     12  C   ARG E   9      34.503 -33.890 -11.484  1.00 67.00 LIG 0.24  C 
ATOM     13 O    ARG E   9      34.072 -32.805 -11.090  1.00 66.41 LIG-0.27  OA
ATOM     14 H    GLU E  10      34.520 -35.170 -12.947  1.00 62.09 LIG 0.16  HD
BRANCH 12 15
ATOM     15  CA  ARG E   9      35.434 -34.716 -10.595  1.00 65.18 LIG 0.18  C 
BRANCH 15 16
ATOM     16  CB  ARG E   9      34.618 -35.753  -9.801  1.00 65.91 LIG 0.04  C 
BRANCH 16 17
ATOM     17  CG  ARG E   9      33.421 -35.182  -9.037  1.00 77.53 LIG 0.02  C 
BRANCH 17 18
ATOM     18  CD  ARG E   9      32.163 -36.045  -9.123  1.00 87.32 LIG 0.14  C 
BRANCH 18 19
ATOM     19  NE  ARG E   9      31.963 -36.890  -7.940  1.00 94.16 LIG-0.23  N 
ATOM     20  CZ  ARG E   9      30.777 -37.242  -7.451  1.00107.18 LIG 0.67  C 
ATOM     21  NH2 ARG E   9      30.700 -38.010  -6.373  1.00 92.81 LIG-0.23  N 
ATOM     22  NH1 ARG E   9      29.658 -36.833  -8.039  1.00 95.67 LIG-0.23  N 
ATOM     23 1HH2 ARG E   9      31.419 -38.283  -5.988  1.00 92.81 LIG 0.17  HD
ATOM     24 2HH2 ARG E   9      29.931 -38.236  -6.060  1.00 92.81 LIG 0.17  HD
ATOM     25 2HH1 ARG E   9      28.894 -37.065  -7.719  1.00 95.67 LIG 0.17  HD
ATOM     26 1HH1 ARG E   9      29.698 -36.337  -8.741  1.00 95.67 LIG 0.17  HD
ATOM     27 HE   ARG E   9      32.663 -37.179  -7.534  1.00 94.16 LIG 0.18  HD
ENDBRANCH 18 19
ENDBRANCH 17 18
ENDBRANCH 16 17
ENDBRANCH 15 16
BRANCH 15 28
ATOM     28  N   ARG E   9      36.237 -33.886  -9.693  1.00 66.15 LIG-0.35  N 
ATOM     29 H    ARG E   9      35.786 -33.579  -9.029  1.00 66.15 LIG 0.16  HD
ATOM     30  C   GLY E   8      37.547 -33.615  -9.862  1.00 70.79 LIG 0.25  C 
ATOM     31 O    GLY E   8      38.212 -34.045 -10.809  1.00 70.42 LIG-0.27  OA
BRANCH 30 32
ATOM     32  CA  GLY E   8      38.196 -32.737  -8.813  1.00 68.19 LIG 0.47  C 
ATOM     33  N   GLY E   8      37.735 -31.357  -8.861  1.00 68.87 LIG 0.61  N 
ENDBRANCH 30 32
ENDBRANCH 15 28
ENDBRANCH 12 15
ENDBRANCH 5 11
ENDBRANCH 1 5
BRANCH 3 34
ATOM     34  CA  THR E  11      34.886 -34.437 -17.114  1.00 57.37 LIG 0.20  C 
BRANCH 34 35
ATOM     35  CB  THR E  11      33.963 -33.793 -18.170  1.00 62.59 LIG 0.15  C 
ATOM     36  CG2 THR E  11      32.499 -34.197 -18.006  1.00 60.54 LIG 0.04  C 
BRANCH 35 37
ATOM     37 OG1  THR E  11      34.075 -32.372 -18.097  1.00 61.42 LIG-0.39  OA
ATOM     38 HG1  THR E  11      34.438 -32.156 -17.371  1.00 61.42 LIG 0.21  HD
ENDBRANCH 35 37
ENDBRANCH 34 35
BRANCH 34 39
ATOM     39  C   THR E  11      36.369 -34.245 -17.442  1.00 59.93 LIG 0.24  C 
ATOM     40 O    THR E  11      36.774 -34.419 -18.593  1.00 59.05 LIG-0.27  OA
ATOM     41  N   GLU E  12      37.171 -33.906 -16.418  1.00 55.90 LIG-0.35  N 
ATOM     42 H    GLU E  12      36.876 -33.771 -15.621  1.00 55.90 LIG 0.16  HD
BRANCH 41 43
ATOM     43  CA  GLU E  12      38.619 -33.731 -16.537  1.00 55.43 LIG 0.18  C 
BRANCH 43 44
ATOM     44  CB  GLU E  12      39.331 -34.045 -15.204  1.00 56.88 LIG 0.04  C 
BRANCH 44 45
ATOM     45  CG  GLU E  12      40.839 -33.854 -15.225  1.00 68.03 LIG 0.12  C 
BRANCH 45 46
ATOM     46  CD  GLU E  12      41.322 -32.527 -15.781  1.00 88.63 LIG 0.17  C 
ATOM     47 OE1  GLU E  12      42.172 -32.535 -16.701  1.00 85.30 LIG-0.65  OA
ATOM     48 OE2  GLU E  12      40.814 -31.477 -15.325  1.00 81.03 LIG-0.65  OA
ENDBRANCH 45 46
ENDBRANCH 44 45
ENDBRANCH 43 44
BRANCH 43 49
ATOM     49  C   GLU E  12      39.124 -34.665 -17.637  1.00 58.58 LIG 0.24  C 
ATOM     50 O    GLU E  12      38.929 -35.880 -17.543  1.00 58.36 LIG-0.27  OA
ATOM     51  N   VAL E  13      39.740 -34.100 -18.692  1.00 54.46 LIG-0.34  N 
ATOM     52 H    VAL E  13      39.853 -33.251 -18.769  1.00 54.46 LIG 0.16  HD
BRANCH 51 53
ATOM     53  CA  VAL E  13      40.284 -34.872 -19.821  1.00 55.96 LIG 0.19  C 
BRANCH 53 54
ATOM     54  C   VAL E  13      41.819 -35.010 -19.765  1.00 65.43 LIG 0.20  C 
ATOM     55 O    VAL E  13      42.522 -34.080 -20.217  1.00 66.90 LIG-0.65  OA
ATOM     56 OXT  VAL E  13      42.314 -36.055 -19.288  1.00 83.99 LIG-0.65  OA
ENDBRANCH 53 54
BRANCH 53 57
ATOM     57  CB  VAL E  13      39.766 -34.425 -21.224  1.00 59.73 LIG 0.01  C 
ATOM     58  CG2 VAL E  13      38.242 -34.420 -21.300  1.00 59.40 LIG 0.01  C 
ATOM     59  CG1 VAL E  13      40.370 -35.273 -22.341  1.00 59.53 LIG 0.01  C 
ENDBRANCH 53 57
ENDBRANCH 51 53
ENDBRANCH 43 49
ENDBRANCH 41 43
ENDBRANCH 34 39
ENDBRANCH 3 34
TORSDOF 24
ENDMDL
MODEL 17
USER: ADFR SOLUTION from run 78
USER: SCORE 17.511213 LL:  -4.535 LR: -15.979 RR:   0.000 FEB:  -8.820
USER: RMSD 11.406384
USER: SEED 77
USER: STATUS no improvement in best in 6 clusters for 5 generations
USER: GENES 26
USER: genes 0 Translation |==|  0.36113 0.52154 0.21836
USER: genes 1 Rotation |==|  0.90897 0.78615 0.47124 0.50610
USER: genes 2 Torsion [N]-C--CA-[N] |==|  0.83681
USER: genes 3 Torsion [C]-CA--CB-[CG] |==|  0.19361
USER: genes 4 Torsion [CA]-CB--CG-[CD] |==|  0.68988
USER: genes 5 Torsion [CB]-CG--CD-[OE1] |==|  0.40609
USER: genes 6 Torsion [C]-CA--N-[C] |==|  0.45057
USER: genes 7 Torsion [N]-C--CA-[N] |==|  0.11113
USER: genes 8 Torsion [C]-CA--CB-[CG] |==|  0.20082
USER: genes 9 Torsion [CA]-CB--CG-[CD] |==|  0.55726
USER: genes 10 Torsion [CB]-CG--CD-[NE] |==|  0.34437
USER: genes 11 Torsion [CG]-CD--NE-[CZ] |==|  0.61297
USER: genes 12 Torsion [C]-CA--N-[C] |==|  0.14164
USER: genes 13 Torsion [N]-C--CA-[N] |==|  0.72242
USER: genes 14 Torsion [C]-N--CA-[CB] |==|  0.17566
USER: genes 15 Torsion [N]-CA--CB-[CG2] |==|  0.15785
USER: genes 16 Torsion [CA]-CB--OG1-[HG1] |==|  0.55941
USER: genes 17 Torsion [N]-CA--C-[N] |==|  0.18811
USER: genes 18 Torsion [C]-N--CA-[CB] |==|  0.21331
USER: genes 19 Torsion [N]-CA--CB-[CG] |==|  0.78555
USER: genes 20 Torsion [CA]-CB--CG-[CD] |==|  0.34266
USER: genes 21 Torsion [CB]-CG--CD-[OE1] |==|  0.48371
USER: genes 22 Torsion [N]-CA--C-[N] |==|  0.44570
USER: genes 23 Torsion [C]-N--CA-[C] |==|  0.84996
USER: genes 24 Torsion [N]-CA--C-[O] |==|  0.91857
USER: genes 25 Torsion [N]-CA--CB-[CG2] |==|  0.86707
ROOT
ATOM      1  C   GLU E  10      32.492 -33.315 -16.980  1.00 63.15 LIG 0.24  C 
ATOM      2 O    GLU E  10      31.651 -32.455 -17.254  1.00 62.80 LIG-0.27  OA
ATOM      3  N   THR E  11      32.532 -33.954 -15.797  1.00 58.35 LIG-0.34  N 
ATOM      4 H    THR E  11      33.122 -34.550 -15.604  1.00 58.35 LIG 0.16  HD
ENDROOT
BRANCH 1 5
ATOM      5  CA  GLU E  10      33.551 -33.705 -18.015  1.00 61.04 LIG 0.18  C 
BRANCH 5 6
ATOM      6  CB  GLU E  10      33.391 -35.173 -18.450  1.00 62.44 LIG 0.04  C 
BRANCH 6 7
ATOM      7  CG  GLU E  10      32.149 -35.442 -19.288  1.00 71.88 LIG 0.12  C 
BRANCH 7 8
ATOM      8  CD  GLU E  10      31.078 -36.287 -18.625  1.00 89.61 LIG 0.17  C 
ATOM      9 OE1  GLU E  10      29.875 -36.051 -18.888  1.00 85.83 LIG-0.65  OA
ATOM     10 OE2  GLU E  10      31.445 -37.220 -17.876  1.00 80.51 LIG-0.65  OA
ENDBRANCH 7 8
ENDBRANCH 6 7
ENDBRANCH 5 6
BRANCH 5 11
ATOM     11  N   GLU E  10      34.884 -33.474 -17.461  1.00 62.09 LIG-0.35  N 
ATOM     12  C   ARG E   9      36.015 -34.011 -17.946  1.00 67.00 LIG 0.24  C 
ATOM     13 O    ARG E   9      36.044 -34.777 -18.911  1.00 66.41 LIG-0.27  OA
ATOM     14 H    GLU E  10      34.879 -32.949 -16.780  1.00 62.09 LIG 0.16  HD
BRANCH 12 15
ATOM     15  CA  ARG E   9      37.311 -33.623 -17.232  1.00 65.18 LIG 0.18  C 
BRANCH 15 16
ATOM     16  CB  ARG E   9      38.438 -34.595 -17.624  1.00 65.91 LIG 0.04  C 
BRANCH 16 17
ATOM     17  CG  ARG E   9      38.964 -34.429 -19.051  1.00 77.53 LIG 0.02  C 
BRANCH 17 18
ATOM     18  CD  ARG E   9      39.690 -35.661 -19.591  1.00 87.32 LIG 0.14  C 
BRANCH 18 19
ATOM     19  NE  ARG E   9      39.121 -36.160 -20.848  1.00 94.16 LIG-0.23  N 
ATOM     20  CZ  ARG E   9      38.950 -37.445 -21.147  1.00107.18 LIG 0.67  C 
ATOM     21  NH2 ARG E   9      38.429 -37.795 -22.314  1.00 92.81 LIG-0.23  N 
ATOM     22  NH1 ARG E   9      39.294 -38.389 -20.279  1.00 95.67 LIG-0.23  N 
ATOM     23 1HH2 ARG E   9      38.199 -37.190 -22.882  1.00 92.81 LIG 0.17  HD
ATOM     24 2HH2 ARG E   9      38.319 -38.627 -22.504  1.00 92.81 LIG 0.17  HD
ATOM     25 2HH1 ARG E   9      39.181 -39.218 -20.478  1.00 95.67 LIG 0.17  HD
ATOM     26 1HH1 ARG E   9      39.631 -38.171 -19.518  1.00 95.67 LIG 0.17  HD
ATOM     27 HE   ARG E   9      38.882 -35.579 -21.435  1.00 94.16 LIG 0.18  HD
ENDBRANCH 18 19
ENDBRANCH 17 18
ENDBRANCH 16 17
ENDBRANCH 15 16
BRANCH 15 28
ATOM     28  N   ARG E   9      37.157 -33.564 -15.776  1.00 66.15 LIG-0.35  N 
ATOM     29 H    ARG E   9      37.445 -32.828 -15.438  1.00 66.15 LIG 0.16  HD
ATOM     30  C   GLY E   8      36.624 -34.546 -15.020  1.00 70.79 LIG 0.25  C 
ATOM     31 O    GLY E   8      36.206 -35.610 -15.487  1.00 70.42 LIG-0.27  OA
BRANCH 30 32
ATOM     32  CA  GLY E   8      36.551 -34.288 -13.530  1.00 68.19 LIG 0.47  C 
ATOM     33  N   GLY E   8      37.625 -34.933 -12.788  1.00 68.87 LIG 0.61  N 
ENDBRANCH 30 32
ENDBRANCH 15 28
ENDBRANCH 12 15
ENDBRANCH 5 11
ENDBRANCH 1 5
BRANCH 3 34
ATOM     34  CA  THR E  11      31.574 -33.701 -14.717  1.00 57.37 LIG 0.20  C 
BRANCH 34 35
ATOM     35  CB  THR E  11      30.147 -34.084 -15.160  1.00 62.59 LIG 0.15  C 
ATOM     36  CG2 THR E  11      30.035 -35.538 -15.614  1.00 60.54 LIG 0.04  C 
BRANCH 35 37
ATOM     37 OG1  THR E  11      29.237 -33.851 -14.086  1.00 61.42 LIG-0.39  OA
ATOM     38 HG1  THR E  11      28.544 -34.311 -14.200  1.00 61.42 LIG 0.21  HD
ENDBRANCH 35 37
ENDBRANCH 34 35
BRANCH 34 39
ATOM     39  C   THR E  11      31.989 -34.398 -13.418  1.00 59.93 LIG 0.24  C 
ATOM     40 O    THR E  11      31.306 -35.319 -12.968  1.00 59.05 LIG-0.27  OA
ATOM     41  N   GLU E  12      33.098 -33.936 -12.816  1.00 55.90 LIG-0.35  N 
ATOM     42 H    GLU E  12      33.578 -33.303 -13.148  1.00 55.90 LIG 0.16  HD
BRANCH 41 43
ATOM     43  CA  GLU E  12      33.613 -34.447 -11.546  1.00 55.43 LIG 0.18  C 
BRANCH 43 44
ATOM     44  CB  GLU E  12      34.328 -35.801 -11.737  1.00 56.88 LIG 0.04  C 
BRANCH 44 45
ATOM     45  CG  GLU E  12      33.403 -36.995 -11.905  1.00 68.03 LIG 0.12  C 
BRANCH 45 46
ATOM     46  CD  GLU E  12      33.602 -37.802 -13.174  1.00 88.63 LIG 0.17  C 
ATOM     47 OE1  GLU E  12      32.950 -38.861 -13.321  1.00 85.30 LIG-0.65  OA
ATOM     48 OE2  GLU E  12      34.381 -37.350 -14.044  1.00 81.03 LIG-0.65  OA
ENDBRANCH 45 46
ENDBRANCH 44 45
ENDBRANCH 43 44
BRANCH 43 49
ATOM     49  C   GLU E  12      34.583 -33.413 -10.973  1.00 58.58 LIG 0.24  C 
ATOM     50 O    GLU E  12      35.055 -32.545 -11.712  1.00 58.36 LIG-0.27  OA
ATOM     51  N   VAL E  13      34.854 -33.484  -9.657  1.00 54.46 LIG-0.34  N 
ATOM     52 H    VAL E  13      34.505 -34.074  -9.137  1.00 54.46 LIG 0.16  HD
BRANCH 51 53
ATOM     53  CA  VAL E  13      35.774 -32.564  -8.968  1.00 55.96 LIG 0.19  C 
BRANCH 53 54
ATOM     54  C   VAL E  13      37.165 -32.505  -9.630  1.00 65.43 LIG 0.20  C 
ATOM     55 O    VAL E  13      37.588 -33.518 -10.229  1.00 66.90 LIG-0.65  OA
ATOM     56 OXT  VAL E  13      37.838 -31.456  -9.530  1.00 83.99 LIG-0.65  OA
ENDBRANCH 53 54
BRANCH 53 57
ATOM     57  CB  VAL E  13      35.845 -32.752  -7.421  1.00 59.73 LIG 0.01  C 
ATOM     58  CG2 VAL E  13      34.459 -32.836  -6.787  1.00 59.40 LIG 0.01  C 
ATOM     59  CG1 VAL E  13      36.686 -31.661  -6.761  1.00 59.53 LIG 0.01  C 
ENDBRANCH 53 57
ENDBRANCH 51 53
ENDBRANCH 43 49
ENDBRANCH 41 43
ENDBRANCH 34 39
ENDBRANCH 3 34
TORSDOF 24
ENDMDL
MODEL 18
USER: ADFR SOLUTION from run 78
USER: SCORE 17.518487 LL:  -4.436 LR: -15.985 RR:   0.000 FEB:  -8.825
USER: RMSD 11.012559
USER: SEED 77
USER: STATUS no improvement in best in 6 clusters for 5 generations
USER: GENES 26
USER: genes 0 Translation |==|  0.36121 0.52026 0.21952
USER: genes 1 Rotation |==|  0.90560 0.79056 0.47039 0.51377
USER: genes 2 Torsion [N]-C--CA-[N] |==|  0.85029
USER: genes 3 Torsion [C]-CA--CB-[CG] |==|  0.18130
USER: genes 4 Torsion [CA]-CB--CG-[CD] |==|  0.68783
USER: genes 5 Torsion [CB]-CG--CD-[OE1] |==|  0.41476
USER: genes 6 Torsion [C]-CA--N-[C] |==|  0.46513
USER: genes 7 Torsion [N]-C--CA-[N] |==|  0.08505
USER: genes 8 Torsion [C]-CA--CB-[CG] |==|  0.24865
USER: genes 9 Torsion [CA]-CB--CG-[CD] |==|  0.22093
USER: genes 10 Torsion [CB]-CG--CD-[NE] |==|  0.82855
USER: genes 11 Torsion [CG]-CD--NE-[CZ] |==|  0.26663
USER: genes 12 Torsion [C]-CA--N-[C] |==|  0.16878
USER: genes 13 Torsion [N]-C--CA-[N] |==|  0.67883
USER: genes 14 Torsion [C]-N--CA-[CB] |==|  0.17139
USER: genes 15 Torsion [N]-CA--CB-[CG2] |==|  0.16169
USER: genes 16 Torsion [CA]-CB--OG1-[HG1] |==|  0.51139
USER: genes 17 Torsion [N]-CA--C-[N] |==|  0.18318
USER: genes 18 Torsion [C]-N--CA-[CB] |==|  0.21402
USER: genes 19 Torsion [N]-CA--CB-[CG] |==|  0.78973
USER: genes 20 Torsion [CA]-CB--CG-[CD] |==|  0.34352
USER: genes 21 Torsion [CB]-CG--CD-[OE1] |==|  0.48252
USER: genes 22 Torsion [N]-CA--C-[N] |==|  0.44697
USER: genes 23 Torsion [C]-N--CA-[C] |==|  0.85215
USER: genes 24 Torsion [N]-CA--C-[O] |==|  0.91888
USER: genes 25 Torsion [N]-CA--CB-[CG2] |==|  0.86690
ROOT
ATOM      1  C   GLU E  10      32.494 -33.336 -16.947  1.00 63.15 LIG 0.24  C 
ATOM      2 O    GLU E  10      31.637 -32.504 -17.256  1.00 62.80 LIG-0.27  OA
ATOM      3  N   THR E  11      32.532 -33.943 -15.748  1.00 58.35 LIG-0.34  N 
ATOM      4 H    THR E  11      33.133 -34.519 -15.531  1.00 58.35 LIG 0.16  HD
ENDROOT
BRANCH 1 5
ATOM      5  CA  GLU E  10      33.576 -33.728 -17.958  1.00 61.04 LIG 0.18  C 
BRANCH 5 6
ATOM      6  CB  GLU E  10      33.384 -35.174 -18.447  1.00 62.44 LIG 0.04  C 
BRANCH 6 7
ATOM      7  CG  GLU E  10      32.109 -35.397 -19.248  1.00 71.88 LIG 0.12  C 
BRANCH 7 8
ATOM      8  CD  GLU E  10      31.062 -36.274 -18.588  1.00 89.61 LIG 0.17  C 
ATOM      9 OE1  GLU E  10      29.853 -36.060 -18.837  1.00 85.83 LIG-0.65  OA
ATOM     10 OE2  GLU E  10      31.456 -37.210 -17.856  1.00 80.51 LIG-0.65  OA
ENDBRANCH 7 8
ENDBRANCH 6 7
ENDBRANCH 5 6
BRANCH 5 11
ATOM     11  N   GLU E  10      34.895 -33.559 -17.351  1.00 62.09 LIG-0.35  N 
ATOM     12  C   ARG E   9      36.039 -34.034 -17.868  1.00 67.00 LIG 0.24  C 
ATOM     13 O    ARG E   9      36.094 -34.683 -18.914  1.00 66.41 LIG-0.27  OA
ATOM     14 H    GLU E  10      34.872 -33.116 -16.613  1.00 62.09 LIG 0.16  HD
BRANCH 12 15
ATOM     15  CA  ARG E   9      37.317 -33.728 -17.084  1.00 65.18 LIG 0.18  C 
BRANCH 15 16
ATOM     16  CB  ARG E   9      38.387 -34.792 -17.388  1.00 65.91 LIG 0.04  C 
BRANCH 16 17
ATOM     17  CG  ARG E   9      39.291 -34.474 -18.580  1.00 77.53 LIG 0.02  C 
BRANCH 17 18
ATOM     18  CD  ARG E   9      40.410 -33.484 -18.261  1.00 87.32 LIG 0.14  C 
BRANCH 18 19
ATOM     19  NE  ARG E   9      39.914 -32.170 -17.836  1.00 94.16 LIG-0.23  N 
ATOM     20  CZ  ARG E   9      39.765 -31.787 -16.571  1.00107.18 LIG 0.67  C 
ATOM     21  NH2 ARG E   9      39.305 -30.577 -16.289  1.00 92.81 LIG-0.23  N 
ATOM     22  NH1 ARG E   9      40.079 -32.611 -15.578  1.00 95.67 LIG-0.23  N 
ATOM     23 1HH2 ARG E   9      39.103 -30.034 -16.926  1.00 92.81 LIG 0.17  HD
ATOM     24 2HH2 ARG E   9      39.211 -30.333 -15.469  1.00 92.81 LIG 0.17  HD
ATOM     25 2HH1 ARG E   9      39.981 -32.358 -14.762  1.00 95.67 LIG 0.17  HD
ATOM     26 1HH1 ARG E   9      40.381 -33.398 -15.751  1.00 95.67 LIG 0.17  HD
ATOM     27 HE   ARG E   9      39.704 -31.606 -18.451  1.00 94.16 LIG 0.18  HD
ENDBRANCH 18 19
ENDBRANCH 17 18
ENDBRANCH 16 17
ENDBRANCH 15 16
BRANCH 15 28
ATOM     28  N   ARG E   9      37.082 -33.623 -15.641  1.00 66.15 LIG-0.35  N 
ATOM     29 H    ARG E   9      37.284 -32.849 -15.324  1.00 66.15 LIG 0.16  HD
ATOM     30  C   GLY E   8      36.601 -34.617 -14.867  1.00 70.79 LIG 0.25  C 
ATOM     31 O    GLY E   8      36.307 -35.734 -15.304  1.00 70.42 LIG-0.27  OA
BRANCH 30 32
ATOM     32  CA  GLY E   8      36.427 -34.304 -13.396  1.00 68.19 LIG 0.47  C 
ATOM     33  N   GLY E   8      37.291 -35.103 -12.539  1.00 68.87 LIG 0.61  N 
ENDBRANCH 30 32
ENDBRANCH 15 28
ENDBRANCH 12 15
ENDBRANCH 5 11
ENDBRANCH 1 5
BRANCH 3 34
ATOM     34  CA  THR E  11      31.554 -33.685 -14.688  1.00 57.37 LIG 0.20  C 
BRANCH 34 35
ATOM     35  CB  THR E  11      30.136 -34.078 -15.154  1.00 62.59 LIG 0.15  C 
ATOM     36  CG2 THR E  11      30.030 -35.545 -15.566  1.00 60.54 LIG 0.04  C 
BRANCH 35 37
ATOM     37 OG1  THR E  11      29.201 -33.809 -14.110  1.00 61.42 LIG-0.39  OA
ATOM     38 HG1  THR E  11      28.438 -34.075 -14.341  1.00 61.42 LIG 0.21  HD
ENDBRANCH 35 37
ENDBRANCH 34 35
BRANCH 34 39
ATOM     39  C   THR E  11      31.947 -34.369 -13.376  1.00 59.93 LIG 0.24  C 
ATOM     40 O    THR E  11      31.241 -35.268 -12.914  1.00 59.05 LIG-0.27  OA
ATOM     41  N   GLU E  12      33.064 -33.921 -12.777  1.00 55.90 LIG-0.35  N 
ATOM     42 H    GLU E  12      33.558 -33.305 -13.116  1.00 55.90 LIG 0.16  HD
BRANCH 41 43
ATOM     43  CA  GLU E  12      33.561 -34.423 -11.495  1.00 55.43 LIG 0.18  C 
BRANCH 43 44
ATOM     44  CB  GLU E  12      34.253 -35.792 -11.662  1.00 56.88 LIG 0.04  C 
BRANCH 44 45
ATOM     45  CG  GLU E  12      33.307 -36.967 -11.853  1.00 68.03 LIG 0.12  C 
BRANCH 45 46
ATOM     46  CD  GLU E  12      33.531 -37.787 -13.110  1.00 88.63 LIG 0.17  C 
ATOM     47 OE1  GLU E  12      32.867 -38.837 -13.269  1.00 85.30 LIG-0.65  OA
ATOM     48 OE2  GLU E  12      34.343 -37.354 -13.959  1.00 81.03 LIG-0.65  OA
ENDBRANCH 45 46
ENDBRANCH 44 45
ENDBRANCH 43 44
BRANCH 43 49
ATOM     49  C   GLU E  12      34.547 -33.398 -10.932  1.00 58.58 LIG 0.24  C 
ATOM     50 O    GLU E  12      35.032 -32.545 -11.680  1.00 58.36 LIG-0.27  OA
ATOM     51  N   VAL E  13      34.816 -33.460  -9.615  1.00 54.46 LIG-0.34  N 
ATOM     52 H    VAL E  13      34.457 -34.040  -9.090  1.00 54.46 LIG 0.16  HD
BRANCH 51 53
ATOM     53  CA  VAL E  13      35.749 -32.547  -8.935  1.00 55.96 LIG 0.19  C 
BRANCH 53 54
ATOM     54  C   VAL E  13      37.136 -32.502  -9.608  1.00 65.43 LIG 0.20  C 
ATOM     55 O    VAL E  13      37.543 -33.519 -10.211  1.00 66.90 LIG-0.65  OA
ATOM     56 OXT  VAL E  13      37.819 -31.459  -9.513  1.00 83.99 LIG-0.65  OA
ENDBRANCH 53 54
BRANCH 53 57
ATOM     57  CB  VAL E  13      35.830 -32.734  -7.388  1.00 59.73 LIG 0.01  C 
ATOM     58  CG2 VAL E  13      34.449 -32.804  -6.742  1.00 59.40 LIG 0.01  C 
ATOM     59  CG1 VAL E  13      36.688 -31.650  -6.737  1.00 59.53 LIG 0.01  C 
ENDBRANCH 53 57
ENDBRANCH 51 53
ENDBRANCH 43 49
ENDBRANCH 41 43
ENDBRANCH 34 39
ENDBRANCH 3 34
TORSDOF 24
ENDMDL
MODEL 19
USER: ADFR SOLUTION from run 130
USER: SCORE 17.474235 LL:  -4.480 LR: -15.960 RR:   0.000 FEB:  -8.801
USER: RMSD 9.600054
USER: SEED 129
USER: STATUS no improvement in best in 9 clusters for 5 generations
USER: GENES 26
USER: genes 0 Translation |==|  0.70037 0.43519 0.25302
USER: genes 1 Rotation |==|  0.28314 0.94217 0.54735 0.57223
USER: genes 2 Torsion [N]-C--CA-[N] |==|  0.82603
USER: genes 3 Torsion [C]-CA--CB-[CG] |==|  0.15175
USER: genes 4 Torsion [CA]-CB--CG-[CD] |==|  0.72957
USER: genes 5 Torsion [CB]-CG--CD-[OE1] |==|  0.43219
USER: genes 6 Torsion [C]-CA--N-[C] |==|  0.65319
USER: genes 7 Torsion [N]-C--CA-[N] |==|  0.01508
USER: genes 8 Torsion [C]-CA--CB-[CG] |==|  0.44223
USER: genes 9 Torsion [CA]-CB--CG-[CD] |==|  0.92757
USER: genes 10 Torsion [CB]-CG--CD-[NE] |==|  0.65776
USER: genes 11 Torsion [CG]-CD--NE-[CZ] |==|  0.17427
USER: genes 12 Torsion [C]-CA--N-[C] |==|  0.82661
USER: genes 13 Torsion [N]-C--CA-[N] |==|  0.56494
USER: genes 14 Torsion [C]-N--CA-[CB] |==|  0.50237
USER: genes 15 Torsion [N]-CA--CB-[CG2] |==|  0.40196
USER: genes 16 Torsion [CA]-CB--OG1-[HG1] |==|  0.11419
USER: genes 17 Torsion [N]-CA--C-[N] |==|  0.79471
USER: genes 18 Torsion [C]-N--CA-[CB] |==|  0.15434
USER: genes 19 Torsion [N]-CA--CB-[CG] |==|  0.64240
USER: genes 20 Torsion [CA]-CB--CG-[CD] |==|  0.02228
USER: genes 21 Torsion [CB]-CG--CD-[OE1] |==|  0.74344
USER: genes 22 Torsion [N]-CA--C-[N] |==|  0.20552
USER: genes 23 Torsion [C]-N--CA-[C] |==|  0.72483
USER: genes 24 Torsion [N]-CA--C-[O] |==|  0.90400
USER: genes 25 Torsion [N]-CA--CB-[CG2] |==|  0.66714
ROOT
ATOM      1  C   GLU E  10      39.107 -34.739 -16.018  1.00 63.15 LIG 0.24  C 
ATOM      2 O    GLU E  10      39.686 -35.717 -16.498  1.00 62.80 LIG-0.27  OA
ATOM      3  N   THR E  11      39.165 -34.418 -14.713  1.00 58.35 LIG-0.34  N 
ATOM      4 H    THR E  11      38.757 -33.739 -14.377  1.00 58.35 LIG 0.16  HD
ENDROOT
BRANCH 1 5
ATOM      5  CA  GLU E  10      38.282 -33.819 -16.922  1.00 61.04 LIG 0.18  C 
BRANCH 5 6
ATOM      6  CB  GLU E  10      38.829 -32.381 -16.902  1.00 62.44 LIG 0.04  C 
BRANCH 6 7
ATOM      7  CG  GLU E  10      40.306 -32.271 -17.252  1.00 71.88 LIG 0.12  C 
BRANCH 7 8
ATOM      8  CD  GLU E  10      41.257 -32.190 -16.073  1.00 89.61 LIG 0.17  C 
ATOM      9 OE1  GLU E  10      42.445 -32.556 -16.230  1.00 85.83 LIG-0.65  OA
ATOM     10 OE2  GLU E  10      40.825 -31.712 -15.000  1.00 80.51 LIG-0.65  OA
ENDBRANCH 7 8
ENDBRANCH 6 7
ENDBRANCH 5 6
BRANCH 5 11
ATOM     11  N   GLU E  10      36.883 -33.845 -16.499  1.00 62.09 LIG-0.35  N 
ATOM     12  C   ARG E   9      35.849 -34.146 -17.301  1.00 67.00 LIG 0.24  C 
ATOM     13 O    ARG E   9      35.974 -34.420 -18.497  1.00 66.41 LIG-0.27  OA
ATOM     14 H    GLU E  10      36.779 -33.645 -15.669  1.00 62.09 LIG 0.16  HD
BRANCH 12 15
ATOM     15  CA  ARG E   9      34.463 -34.138 -16.654  1.00 65.18 LIG 0.18  C 
BRANCH 15 16
ATOM     16  CB  ARG E   9      33.496 -33.287 -17.497  1.00 65.91 LIG 0.04  C 
BRANCH 16 17
ATOM     17  CG  ARG E   9      32.012 -33.584 -17.269  1.00 77.53 LIG 0.02  C 
BRANCH 17 18
ATOM     18  CD  ARG E   9      31.733 -35.003 -16.777  1.00 87.32 LIG 0.14  C 
BRANCH 18 19
ATOM     19  NE  ARG E   9      30.810 -35.743 -17.644  1.00 94.16 LIG-0.23  N 
ATOM     20  CZ  ARG E   9      31.048 -36.056 -18.915  1.00107.18 LIG 0.67  C 
ATOM     21  NH2 ARG E   9      30.147 -36.727 -19.618  1.00 92.81 LIG-0.23  N 
ATOM     22  NH1 ARG E   9      32.192 -35.705 -19.491  1.00 95.67 LIG-0.23  N 
ATOM     23 1HH2 ARG E   9      29.404 -36.962 -19.252  1.00 92.81 LIG 0.17  HD
ATOM     24 2HH2 ARG E   9      30.304 -36.928 -20.440  1.00 92.81 LIG 0.17  HD
ATOM     25 2HH1 ARG E   9      32.341 -35.910 -20.313  1.00 95.67 LIG 0.17  HD
ATOM     26 1HH1 ARG E   9      32.784 -35.272 -19.042  1.00 95.67 LIG 0.17  HD
ATOM     27 HE   ARG E   9      30.059 -35.992 -17.306  1.00 94.16 LIG 0.18  HD
ENDBRANCH 18 19
ENDBRANCH 17 18
ENDBRANCH 16 17
ENDBRANCH 15 16
BRANCH 15 28
ATOM     28  N   ARG E   9      34.492 -33.670 -15.265  1.00 66.15 LIG-0.35  N 
ATOM     29 H    ARG E   9      34.037 -32.951 -15.145  1.00 66.15 LIG 0.16  HD
ATOM     30  C   GLY E   8      35.153 -34.283 -14.263  1.00 70.79 LIG 0.25  C 
ATOM     31 O    GLY E   8      35.812 -35.315 -14.416  1.00 70.42 LIG-0.27  OA
BRANCH 30 32
ATOM     32  CA  GLY E   8      35.053 -33.640 -12.896  1.00 68.19 LIG 0.47  C 
ATOM     33  N   GLY E   8      36.161 -33.992 -12.019  1.00 68.87 LIG 0.61  N 
ENDBRANCH 30 32
ENDBRANCH 15 28
ENDBRANCH 12 15
ENDBRANCH 5 11
ENDBRANCH 1 5
BRANCH 3 34
ATOM     34  CA  THR E  11      39.930 -35.192 -13.731  1.00 57.37 LIG 0.20  C 
BRANCH 34 35
ATOM     35  CB  THR E  11      39.777 -34.580 -12.323  1.00 62.59 LIG 0.15  C 
ATOM     36  CG2 THR E  11      39.752 -35.633 -11.216  1.00 60.54 LIG 0.04  C 
BRANCH 35 37
ATOM     37 OG1  THR E  11      40.846 -33.665 -12.083  1.00 61.42 LIG-0.39  OA
ATOM     38 HG1  THR E  11      40.990 -33.214 -12.777  1.00 61.42 LIG 0.21  HD
ENDBRANCH 35 37
ENDBRANCH 34 35
BRANCH 34 39
ATOM     39  C   THR E  11      39.556 -36.676 -13.766  1.00 59.93 LIG 0.24  C 
ATOM     40 O    THR E  11      40.322 -37.493 -14.280  1.00 59.05 LIG-0.27  OA
ATOM     41  N   GLU E  12      38.367 -37.008 -13.233  1.00 55.90 LIG-0.35  N 
ATOM     42 H    GLU E  12      37.847 -36.433 -12.862  1.00 55.90 LIG 0.16  HD
BRANCH 41 43
ATOM     43  CA  GLU E  12      37.827 -38.368 -13.224  1.00 55.43 LIG 0.18  C 
BRANCH 43 44
ATOM     44  CB  GLU E  12      38.810 -39.356 -12.561  1.00 56.88 LIG 0.04  C 
BRANCH 44 45
ATOM     45  CG  GLU E  12      39.118 -40.598 -13.381  1.00 68.03 LIG 0.12  C 
BRANCH 45 46
ATOM     46  CD  GLU E  12      38.572 -40.598 -14.797  1.00 88.63 LIG 0.17  C 
ATOM     47 OE1  GLU E  12      37.446 -41.105 -15.007  1.00 85.30 LIG-0.65  OA
ATOM     48 OE2  GLU E  12      39.254 -40.050 -15.692  1.00 81.03 LIG-0.65  OA
ENDBRANCH 45 46
ENDBRANCH 44 45
ENDBRANCH 43 44
BRANCH 43 49
ATOM     49  C   GLU E  12      36.502 -38.350 -12.461  1.00 58.58 LIG 0.24  C 
ATOM     50 O    GLU E  12      36.453 -38.800 -11.313  1.00 58.36 LIG-0.27  OA
ATOM     51  N   VAL E  13      35.440 -37.801 -13.080  1.00 54.46 LIG-0.34  N 
ATOM     52 H    VAL E  13      35.481 -37.464 -13.870  1.00 54.46 LIG 0.16  HD
BRANCH 51 53
ATOM     53  CA  VAL E  13      34.101 -37.721 -12.474  1.00 55.96 LIG 0.19  C 
BRANCH 53 54
ATOM     54  C   VAL E  13      33.157 -38.837 -12.962  1.00 65.43 LIG 0.20  C 
ATOM     55 O    VAL E  13      33.258 -39.235 -14.143  1.00 66.90 LIG-0.65  OA
ATOM     56 OXT  VAL E  13      32.305 -39.297 -12.170  1.00 83.99 LIG-0.65  OA
ENDBRANCH 53 54
BRANCH 53 57
ATOM     57  CB  VAL E  13      33.447 -36.305 -12.529  1.00 59.73 LIG 0.01  C 
ATOM     58  CG2 VAL E  13      33.144 -35.756 -11.137  1.00 59.40 LIG 0.01  C 
ATOM     59  CG1 VAL E  13      32.197 -36.298 -13.407  1.00 59.53 LIG 0.01  C 
ENDBRANCH 53 57
ENDBRANCH 51 53
ENDBRANCH 43 49
ENDBRANCH 41 43
ENDBRANCH 34 39
ENDBRANCH 3 34
TORSDOF 24
ENDMDL
MODEL 20
USER: ADFR SOLUTION from run 102
USER: SCORE 17.420034 LL:  -3.274 LR: -15.947 RR:   0.000 FEB:  -8.788
USER: RMSD 6.632490
USER: SEED 101
USER: STATUS no improvement in best in 4 clusters for 5 generations
USER: GENES 26
USER: genes 0 Translation |==|  0.45991 0.46610 0.42488
USER: genes 1 Rotation |==|  0.20272 0.45489 0.89504 0.55944
USER: genes 2 Torsion [N]-C--CA-[N] |==|  0.28454
USER: genes 3 Torsion [C]-CA--CB-[CG] |==|  0.33078
USER: genes 4 Torsion [CA]-CB--CG-[CD] |==|  0.12876
USER: genes 5 Torsion [CB]-CG--CD-[OE1] |==|  0.08184
USER: genes 6 Torsion [C]-CA--N-[C] |==|  0.75970
USER: genes 7 Torsion [N]-C--CA-[N] |==|  0.17778
USER: genes 8 Torsion [C]-CA--CB-[CG] |==|  0.55986
USER: genes 9 Torsion [CA]-CB--CG-[CD] |==|  0.80842
USER: genes 10 Torsion [CB]-CG--CD-[NE] |==|  0.43104
USER: genes 11 Torsion [CG]-CD--NE-[CZ] |==|  0.46418
USER: genes 12 Torsion [C]-CA--N-[C] |==|  0.15284
USER: genes 13 Torsion [N]-C--CA-[N] |==|  0.64325
USER: genes 14 Torsion [C]-N--CA-[CB] |==|  0.19736
USER: genes 15 Torsion [N]-CA--CB-[CG2] |==|  0.61105
USER: genes 16 Torsion [CA]-CB--OG1-[HG1] |==|  0.70315
USER: genes 17 Torsion [N]-CA--C-[N] |==|  0.23190
USER: genes 18 Torsion [C]-N--CA-[CB] |==|  0.19347
USER: genes 19 Torsion [N]-CA--CB-[CG] |==|  0.15988
USER: genes 20 Torsion [CA]-CB--CG-[CD] |==|  0.39611
USER: genes 21 Torsion [CB]-CG--CD-[OE1] |==|  0.12854
USER: genes 22 Torsion [N]-CA--C-[N] |==|  0.08269
USER: genes 23 Torsion [C]-N--CA-[C] |==|  0.68977
USER: genes 24 Torsion [N]-CA--C-[O] |==|  0.82479
USER: genes 25 Torsion [N]-CA--CB-[CG2] |==|  0.96688
ROOT
ATOM      1  C   GLU E  10      34.418 -34.229 -11.249  1.00 63.15 LIG 0.24  C 
ATOM      2 O    GLU E  10      34.104 -33.043 -11.375  1.00 62.80 LIG-0.27  OA
ATOM      3  N   THR E  11      35.669 -34.633 -10.964  1.00 58.35 LIG-0.34  N 
ATOM      4 H    THR E  11      35.890 -35.460 -10.881  1.00 58.35 LIG 0.16  HD
ENDROOT
BRANCH 1 5
ATOM      5  CA  GLU E  10      33.357 -35.322 -11.408  1.00 61.04 LIG 0.18  C 
BRANCH 5 6
ATOM      6  CB  GLU E  10      32.479 -35.070 -12.646  1.00 62.44 LIG 0.04  C 
BRANCH 6 7
ATOM      7  CG  GLU E  10      32.540 -36.175 -13.691  1.00 71.88 LIG 0.12  C 
BRANCH 7 8
ATOM      8  CD  GLU E  10      32.419 -37.590 -13.159  1.00 89.61 LIG 0.17  C 
ATOM      9 OE1  GLU E  10      31.754 -37.787 -12.115  1.00 85.83 LIG-0.65  OA
ATOM     10 OE2  GLU E  10      32.950 -38.513 -13.816  1.00 80.51 LIG-0.65  OA
ENDBRANCH 7 8
ENDBRANCH 6 7
ENDBRANCH 5 6
BRANCH 5 11
ATOM     11  N   GLU E  10      32.538 -35.388 -10.199  1.00 62.09 LIG-0.35  N 
ATOM     12  C   ARG E   9      32.843 -36.112  -9.110  1.00 67.00 LIG 0.24  C 
ATOM     13 O    ARG E   9      33.851 -36.816  -9.022  1.00 66.41 LIG-0.27  OA
ATOM     14 H    GLU E  10      31.825 -34.910 -10.249  1.00 62.09 LIG 0.16  HD
BRANCH 12 15
ATOM     15  CA  ARG E   9      31.861 -36.025  -7.941  1.00 65.18 LIG 0.18  C 
BRANCH 15 16
ATOM     16  CB  ARG E   9      32.447 -36.740  -6.709  1.00 65.91 LIG 0.04  C 
BRANCH 16 17
ATOM     17  CG  ARG E   9      31.414 -37.180  -5.669  1.00 77.53 LIG 0.02  C 
BRANCH 17 18
ATOM     18  CD  ARG E   9      30.752 -36.021  -4.925  1.00 87.32 LIG 0.14  C 
BRANCH 18 19
ATOM     19  NE  ARG E   9      29.427 -36.359  -4.393  1.00 94.16 LIG-0.23  N 
ATOM     20  CZ  ARG E   9      28.754 -35.626  -3.511  1.00107.18 LIG 0.67  C 
ATOM     21  NH2 ARG E   9      27.561 -36.019  -3.088  1.00 92.81 LIG-0.23  N 
ATOM     22  NH1 ARG E   9      29.266 -34.491  -3.049  1.00 95.67 LIG-0.23  N 
ATOM     23 1HH2 ARG E   9      27.219 -36.751  -3.384  1.00 92.81 LIG 0.17  HD
ATOM     24 2HH2 ARG E   9      27.128 -35.542  -2.518  1.00 92.81 LIG 0.17  HD
ATOM     25 2HH1 ARG E   9      28.825 -34.021  -2.479  1.00 95.67 LIG 0.17  HD
ATOM     26 1HH1 ARG E   9      30.038 -34.226  -3.320  1.00 95.67 LIG 0.17  HD
ATOM     27 HE   ARG E   9      29.060 -37.085  -4.672  1.00 94.16 LIG 0.18  HD
ENDBRANCH 18 19
ENDBRANCH 17 18
ENDBRANCH 16 17
ENDBRANCH 15 16
BRANCH 15 28
ATOM     28  N   ARG E   9      30.538 -36.563  -8.274  1.00 66.15 LIG-0.35  N 
ATOM     29 H    ARG E   9      29.903 -36.001  -8.133  1.00 66.15 LIG 0.16  HD
ATOM     30  C   GLY E   8      30.313 -37.803  -8.753  1.00 70.79 LIG 0.25  C 
ATOM     31 O    GLY E   8      31.211 -38.624  -8.961  1.00 70.42 LIG-0.27  OA
BRANCH 30 32
ATOM     32  CA  GLY E   8      28.871 -38.165  -9.038  1.00 68.19 LIG 0.47  C 
ATOM     33  N   GLY E   8      28.465 -39.417  -8.418  1.00 68.87 LIG 0.61  N 
ENDBRANCH 30 32
ENDBRANCH 15 28
ENDBRANCH 12 15
ENDBRANCH 5 11
ENDBRANCH 1 5
BRANCH 3 34
ATOM     34  CA  THR E  11      36.784 -33.703 -10.764  1.00 57.37 LIG 0.20  C 
BRANCH 34 35
ATOM     35  CB  THR E  11      36.621 -32.942  -9.432  1.00 62.59 LIG 0.15  C 
ATOM     36  CG2 THR E  11      37.012 -31.469  -9.536  1.00 60.54 LIG 0.04  C 
BRANCH 35 37
ATOM     37 OG1  THR E  11      35.268 -33.043  -8.989  1.00 61.42 LIG-0.39  OA
ATOM     38 HG1  THR E  11      34.881 -32.306  -9.098  1.00 61.42 LIG 0.21  HD
ENDBRANCH 35 37
ENDBRANCH 34 35
BRANCH 34 39
ATOM     39  C   THR E  11      38.138 -34.412 -10.869  1.00 59.93 LIG 0.24  C 
ATOM     40 O    THR E  11      38.725 -34.773  -9.847  1.00 59.05 LIG-0.27  OA
ATOM     41  N   GLU E  12      38.630 -34.586 -12.107  1.00 55.90 LIG-0.35  N 
ATOM     42 H    GLU E  12      38.204 -34.345 -12.815  1.00 55.90 LIG 0.16  HD
BRANCH 41 43
ATOM     43  CA  GLU E  12      39.928 -35.197 -12.392  1.00 55.43 LIG 0.18  C 
BRANCH 43 44
ATOM     44  CB  GLU E  12      39.918 -36.706 -12.072  1.00 56.88 LIG 0.04  C 
BRANCH 44 45
ATOM     45  CG  GLU E  12      38.862 -37.510 -12.813  1.00 68.03 LIG 0.12  C 
BRANCH 45 46
ATOM     46  CD  GLU E  12      39.288 -38.897 -13.257  1.00 88.63 LIG 0.17  C 
ATOM     47 OE1  GLU E  12      39.888 -39.632 -12.440  1.00 85.30 LIG-0.65  OA
ATOM     48 OE2  GLU E  12      38.982 -39.265 -14.414  1.00 81.03 LIG-0.65  OA
ENDBRANCH 45 46
ENDBRANCH 44 45
ENDBRANCH 43 44
BRANCH 43 49
ATOM     49  C   GLU E  12      40.246 -34.973 -13.871  1.00 58.58 LIG 0.24  C 
ATOM     50 O    GLU E  12      40.912 -35.811 -14.485  1.00 58.36 LIG-0.27  OA
ATOM     51  N   VAL E  13      39.745 -33.865 -14.450  1.00 54.46 LIG-0.34  N 
ATOM     52 H    VAL E  13      39.260 -33.295 -14.027  1.00 54.46 LIG 0.16  HD
BRANCH 51 53
ATOM     53  CA  VAL E  13      39.974 -33.515 -15.861  1.00 55.96 LIG 0.19  C 
BRANCH 53 54
ATOM     54  C   VAL E  13      40.865 -32.267 -16.028  1.00 65.43 LIG 0.20  C 
ATOM     55 O    VAL E  13      40.453 -31.172 -15.587  1.00 66.90 LIG-0.65  OA
ATOM     56 OXT  VAL E  13      41.962 -32.383 -16.617  1.00 83.99 LIG-0.65  OA
ENDBRANCH 53 54
BRANCH 53 57
ATOM     57  CB  VAL E  13      38.682 -33.460 -16.735  1.00 59.73 LIG 0.01  C 
ATOM     58  CG2 VAL E  13      37.476 -34.063 -16.019  1.00 59.40 LIG 0.01  C 
ATOM     59  CG1 VAL E  13      38.899 -34.116 -18.097  1.00 59.53 LIG 0.01  C 
ENDBRANCH 53 57
ENDBRANCH 51 53
ENDBRANCH 43 49
ENDBRANCH 41 43
ENDBRANCH 34 39
ENDBRANCH 3 34
TORSDOF 24
ENDMDL
MODEL 21
USER: ADFR SOLUTION from run 149
USER: SCORE 15.992394 LL:  -3.506 LR: -15.915 RR:   0.000 FEB:  -8.756
USER: RMSD 3.869239
USER: SEED 148
USER: STATUS no improvement in best in 15 clusters for 5 generations
USER: GENES 26
USER: genes 0 Translation |==|  0.48799 0.51713 0.50827
USER: genes 1 Rotation |==|  0.58932 0.33541 0.39928 0.95253
USER: genes 2 Torsion [N]-C--CA-[N] |==|  0.47269
USER: genes 3 Torsion [C]-CA--CB-[CG] |==|  0.18200
USER: genes 4 Torsion [CA]-CB--CG-[CD] |==|  0.60598
USER: genes 5 Torsion [CB]-CG--CD-[OE1] |==|  0.38796
USER: genes 6 Torsion [C]-CA--N-[C] |==|  0.53719
USER: genes 7 Torsion [N]-C--CA-[N] |==|  0.64591
USER: genes 8 Torsion [C]-CA--CB-[CG] |==|  0.57990
USER: genes 9 Torsion [CA]-CB--CG-[CD] |==|  0.41281
USER: genes 10 Torsion [CB]-CG--CD-[NE] |==|  0.71612
USER: genes 11 Torsion [CG]-CD--NE-[CZ] |==|  0.29777
USER: genes 12 Torsion [C]-CA--N-[C] |==|  0.67166
USER: genes 13 Torsion [N]-C--CA-[N] |==|  0.29973
USER: genes 14 Torsion [C]-N--CA-[CB] |==|  0.84007
USER: genes 15 Torsion [N]-CA--CB-[CG2] |==|  0.57597
USER: genes 16 Torsion [CA]-CB--OG1-[HG1] |==|  0.34385
USER: genes 17 Torsion [N]-CA--C-[N] |==|  0.60299
USER: genes 18 Torsion [C]-N--CA-[CB] |==|  0.82219
USER: genes 19 Torsion [N]-CA--CB-[CG] |==|  0.77048
USER: genes 20 Torsion [CA]-CB--CG-[CD] |==|  0.77475
USER: genes 21 Torsion [CB]-CG--CD-[OE1] |==|  0.64425
USER: genes 22 Torsion [N]-CA--C-[N] |==|  0.18022
USER: genes 23 Torsion [C]-N--CA-[C] |==|  0.53322
USER: genes 24 Torsion [N]-CA--C-[O] |==|  0.68893
USER: genes 25 Torsion [N]-CA--CB-[CG2] |==|  0.06923
ROOT
ATOM      1  C   GLU E  10      34.966 -33.387  -8.934  1.00 63.15 LIG 0.24  C 
ATOM      2 O    GLU E  10      34.909 -34.619  -8.944  1.00 62.80 LIG-0.27  OA
ATOM      3  N   THR E  11      35.266 -32.655 -10.022  1.00 58.35 LIG-0.34  N 
ATOM      4 H    THR E  11      35.311 -31.797 -10.014  1.00 58.35 LIG 0.16  HD
ENDROOT
BRANCH 1 5
ATOM      5  CA  GLU E  10      34.677 -32.620  -7.641  1.00 61.04 LIG 0.18  C 
BRANCH 5 6
ATOM      6  CB  GLU E  10      35.941 -31.913  -7.118  1.00 62.44 LIG 0.04  C 
BRANCH 6 7
ATOM      7  CG  GLU E  10      36.457 -30.807  -8.027  1.00 71.88 LIG 0.12  C 
BRANCH 7 8
ATOM      8  CD  GLU E  10      37.966 -30.699  -8.140  1.00 89.61 LIG 0.17  C 
ATOM      9 OE1  GLU E  10      38.470 -30.457  -9.262  1.00 85.83 LIG-0.65  OA
ATOM     10 OE2  GLU E  10      38.643 -30.807  -7.094  1.00 80.51 LIG-0.65  OA
ENDBRANCH 7 8
ENDBRANCH 6 7
ENDBRANCH 5 6
BRANCH 5 11
ATOM     11  N   GLU E  10      34.147 -33.539  -6.635  1.00 62.09 LIG-0.35  N 
ATOM     12  C   ARG E   9      33.556 -33.160  -5.491  1.00 67.00 LIG 0.24  C 
ATOM     13 O    ARG E   9      33.411 -31.982  -5.159  1.00 66.41 LIG-0.27  OA
ATOM     14 H    GLU E  10      34.250 -34.366  -6.848  1.00 62.09 LIG 0.16  HD
BRANCH 12 15
ATOM     15  CA  ARG E   9      33.050 -34.282  -4.584  1.00 65.18 LIG 0.18  C 
BRANCH 15 16
ATOM     16  CB  ARG E   9      33.273 -35.646  -5.262  1.00 65.91 LIG 0.04  C 
BRANCH 16 17
ATOM     17  CG  ARG E   9      32.271 -36.733  -4.867  1.00 77.53 LIG 0.02  C 
BRANCH 17 18
ATOM     18  CD  ARG E   9      31.984 -37.743  -5.977  1.00 87.32 LIG 0.14  C 
BRANCH 18 19
ATOM     19  NE  ARG E   9      30.705 -37.506  -6.656  1.00 94.16 LIG-0.23  N 
ATOM     20  CZ  ARG E   9      30.578 -37.018  -7.887  1.00107.18 LIG 0.67  C 
ATOM     21  NH2 ARG E   9      29.375 -36.838  -8.413  1.00 92.81 LIG-0.23  N 
ATOM     22  NH1 ARG E   9      31.654 -36.712  -8.604  1.00 95.67 LIG-0.23  N 
ATOM     23 1HH2 ARG E   9      28.673 -37.037  -7.959  1.00 92.81 LIG 0.17  HD
ATOM     24 2HH2 ARG E   9      29.297 -36.522  -9.210  1.00 92.81 LIG 0.17  HD
ATOM     25 2HH1 ARG E   9      31.566 -36.397  -9.399  1.00 95.67 LIG 0.17  HD
ATOM     26 1HH1 ARG E   9      32.439 -36.828  -8.272  1.00 95.67 LIG 0.17  HD
ATOM     27 HE   ARG E   9      29.985 -37.697  -6.227  1.00 94.16 LIG 0.18  HD
ENDBRANCH 18 19
ENDBRANCH 17 18
ENDBRANCH 16 17
ENDBRANCH 15 16
BRANCH 15 28
ATOM     28  N   ARG E   9      31.643 -34.113  -4.208  1.00 66.15 LIG-0.35  N 
ATOM     29 H    ARG E   9      31.112 -34.125  -4.883  1.00 66.15 LIG 0.16  HD
ATOM     30  C   GLY E   8      31.201 -33.953  -2.944  1.00 70.79 LIG 0.25  C 
ATOM     31 O    GLY E   8      31.948 -33.932  -1.961  1.00 70.42 LIG-0.27  OA
BRANCH 30 32
ATOM     32  CA  GLY E   8      29.705 -33.797  -2.766  1.00 68.19 LIG 0.47  C 
ATOM     33  N   GLY E   8      29.077 -34.969  -2.174  1.00 68.87 LIG 0.61  N 
ENDBRANCH 30 32
ENDBRANCH 15 28
ENDBRANCH 12 15
ENDBRANCH 5 11
ENDBRANCH 1 5
BRANCH 3 34
ATOM     34  CA  THR E  11      35.547 -33.248 -11.333  1.00 57.37 LIG 0.20  C 
BRANCH 34 35
ATOM     35  CB  THR E  11      36.725 -34.240 -11.237  1.00 62.59 LIG 0.15  C 
ATOM     36  CG2 THR E  11      37.491 -34.382 -12.550  1.00 60.54 LIG 0.04  C 
BRANCH 35 37
ATOM     37 OG1  THR E  11      37.619 -33.817 -10.209  1.00 61.42 LIG-0.39  OA
ATOM     38 HG1  THR E  11      37.718 -34.437  -9.651  1.00 61.42 LIG 0.21  HD
ENDBRANCH 35 37
ENDBRANCH 34 35
BRANCH 34 39
ATOM     39  C   THR E  11      34.296 -33.886 -11.944  1.00 59.93 LIG 0.24  C 
ATOM     40 O    THR E  11      33.192 -33.364 -11.775  1.00 59.05 LIG-0.27  OA
ATOM     41  N   GLU E  12      34.479 -35.024 -12.635  1.00 55.90 LIG-0.35  N 
ATOM     42 H    GLU E  12      35.255 -35.371 -12.762  1.00 55.90 LIG 0.16  HD
BRANCH 41 43
ATOM     43  CA  GLU E  12      33.394 -35.794 -13.244  1.00 55.43 LIG 0.18  C 
BRANCH 43 44
ATOM     44  CB  GLU E  12      32.435 -36.351 -12.171  1.00 56.88 LIG 0.04  C 
BRANCH 44 45
ATOM     45  CG  GLU E  12      32.892 -37.643 -11.512  1.00 68.03 LIG 0.12  C 
BRANCH 45 46
ATOM     46  CD  GLU E  12      32.617 -38.910 -12.299  1.00 88.63 LIG 0.17  C 
ATOM     47 OE1  GLU E  12      32.024 -39.855 -11.729  1.00 85.30 LIG-0.65  OA
ATOM     48 OE2  GLU E  12      32.958 -38.942 -13.504  1.00 81.03 LIG-0.65  OA
ENDBRANCH 45 46
ENDBRANCH 44 45
ENDBRANCH 43 44
BRANCH 43 49
ATOM     49  C   GLU E  12      32.637 -34.876 -14.204  1.00 58.58 LIG 0.24  C 
ATOM     50 O    GLU E  12      31.470 -34.563 -13.954  1.00 58.36 LIG-0.27  OA
ATOM     51  N   VAL E  13      33.307 -34.419 -15.279  1.00 54.46 LIG-0.34  N 
ATOM     52 H    VAL E  13      34.128 -34.617 -15.438  1.00 54.46 LIG 0.16  HD
BRANCH 51 53
ATOM     53  CA  VAL E  13      32.707 -33.535 -16.291  1.00 55.96 LIG 0.19  C 
BRANCH 53 54
ATOM     54  C   VAL E  13      33.579 -33.398 -17.555  1.00 65.43 LIG 0.20  C 
ATOM     55 O    VAL E  13      34.115 -32.295 -17.797  1.00 66.90 LIG-0.65  OA
ATOM     56 OXT  VAL E  13      33.708 -34.387 -18.310  1.00 83.99 LIG-0.65  OA
ENDBRANCH 53 54
BRANCH 53 57
ATOM     57  CB  VAL E  13      32.212 -32.160 -15.743  1.00 59.73 LIG 0.01  C 
ATOM     58  CG2 VAL E  13      32.952 -31.745 -14.475  1.00 59.40 LIG 0.01  C 
ATOM     59  CG1 VAL E  13      30.700 -32.155 -15.524  1.00 59.53 LIG 0.01  C 
ENDBRANCH 53 57
ENDBRANCH 51 53
ENDBRANCH 43 49
ENDBRANCH 41 43
ENDBRANCH 34 39
ENDBRANCH 3 34
TORSDOF 24
ENDMDL
MODEL 22
USER: ADFR SOLUTION from run 32
USER: SCORE 19.675260 LL:  -4.685 LR: -15.900 RR:   0.000 FEB:  -8.741
USER: RMSD 5.501397
USER: SEED 31
USER: STATUS searching
USER: GENES 26
USER: genes 0 Translation |==|  0.41359 0.51519 0.41321
USER: genes 1 Rotation |==|  0.69012 0.72571 0.78990 0.78084
USER: genes 2 Torsion [N]-C--CA-[N] |==|  0.01124
USER: genes 3 Torsion [C]-CA--CB-[CG] |==|  0.46960
USER: genes 4 Torsion [CA]-CB--CG-[CD] |==|  0.76144
USER: genes 5 Torsion [CB]-CG--CD-[OE1] |==|  0.80689
USER: genes 6 Torsion [C]-CA--N-[C] |==|  0.19448
USER: genes 7 Torsion [N]-C--CA-[N] |==|  0.37051
USER: genes 8 Torsion [C]-CA--CB-[CG] |==|  0.32955
USER: genes 9 Torsion [CA]-CB--CG-[CD] |==|  0.68216
USER: genes 10 Torsion [CB]-CG--CD-[NE] |==|  0.17956
USER: genes 11 Torsion [CG]-CD--NE-[CZ] |==|  0.26066
USER: genes 12 Torsion [C]-CA--N-[C] |==|  0.66647
USER: genes 13 Torsion [N]-C--CA-[N] |==|  0.47799
USER: genes 14 Torsion [C]-N--CA-[CB] |==|  0.83769
USER: genes 15 Torsion [N]-CA--CB-[CG2] |==|  0.28011
USER: genes 16 Torsion [CA]-CB--OG1-[HG1] |==|  0.12700
USER: genes 17 Torsion [N]-CA--C-[N] |==|  0.91918
USER: genes 18 Torsion [C]-N--CA-[CB] |==|  0.86976
USER: genes 19 Torsion [N]-CA--CB-[CG] |==|  0.86632
USER: genes 20 Torsion [CA]-CB--CG-[CD] |==|  0.35045
USER: genes 21 Torsion [CB]-CG--CD-[OE1] |==|  0.17749
USER: genes 22 Torsion [N]-CA--C-[N] |==|  0.85000
USER: genes 23 Torsion [C]-N--CA-[C] |==|  0.90611
USER: genes 24 Torsion [N]-CA--C-[O] |==|  0.24072
USER: genes 25 Torsion [N]-CA--CB-[CG2] |==|  0.19366
ROOT
ATOM      1  C   GLU E  10      33.515 -33.419 -11.573  1.00 63.15 LIG 0.24  C 
ATOM      2 O    GLU E  10      34.054 -32.889 -12.547  1.00 62.80 LIG-0.27  OA
ATOM      3  N   THR E  11      32.444 -34.228 -11.672  1.00 58.35 LIG-0.34  N 
ATOM      4 H    THR E  11      32.066 -34.593 -10.992  1.00 58.35 LIG 0.16  HD
ENDROOT
BRANCH 1 5
ATOM      5  CA  GLU E  10      34.071 -33.176 -10.166  1.00 61.04 LIG 0.18  C 
BRANCH 5 6
ATOM      6  CB  GLU E  10      35.577 -33.486 -10.101  1.00 62.44 LIG 0.04  C 
BRANCH 6 7
ATOM      7  CG  GLU E  10      36.254 -33.022  -8.818  1.00 71.88 LIG 0.12  C 
BRANCH 7 8
ATOM      8  CD  GLU E  10      36.734 -31.584  -8.811  1.00 89.61 LIG 0.17  C 
ATOM      9 OE1  GLU E  10      37.704 -31.268  -9.538  1.00 85.83 LIG-0.65  OA
ATOM     10 OE2  GLU E  10      36.105 -30.757  -8.112  1.00 80.51 LIG-0.65  OA
ENDBRANCH 7 8
ENDBRANCH 6 7
ENDBRANCH 5 6
BRANCH 5 11
ATOM     11  N   GLU E  10      33.333 -33.990  -9.202  1.00 62.09 LIG-0.35  N 
ATOM     12  C   ARG E   9      33.415 -35.327  -9.112  1.00 67.00 LIG 0.24  C 
ATOM     13 O    ARG E   9      34.118 -36.016  -9.854  1.00 66.41 LIG-0.27  OA
ATOM     14 H    GLU E  10      32.830 -33.524  -8.683  1.00 62.09 LIG 0.16  HD
BRANCH 12 15
ATOM     15  CA  ARG E   9      32.575 -35.986  -8.017  1.00 65.18 LIG 0.18  C 
BRANCH 15 16
ATOM     16  CB  ARG E   9      33.473 -36.369  -6.826  1.00 65.91 LIG 0.04  C 
BRANCH 16 17
ATOM     17  CG  ARG E   9      33.117 -35.683  -5.506  1.00 77.53 LIG 0.02  C 
BRANCH 17 18
ATOM     18  CD  ARG E   9      34.194 -34.726  -4.996  1.00 87.32 LIG 0.14  C 
BRANCH 18 19
ATOM     19  NE  ARG E   9      34.406 -33.574  -5.879  1.00 94.16 LIG-0.23  N 
ATOM     20  CZ  ARG E   9      33.810 -32.392  -5.742  1.00107.18 LIG 0.67  C 
ATOM     21  NH2 ARG E   9      34.068 -31.412  -6.596  1.00 92.81 LIG-0.23  N 
ATOM     22  NH1 ARG E   9      32.956 -32.181  -4.748  1.00 95.67 LIG-0.23  N 
ATOM     23 1HH2 ARG E   9      34.622 -31.538  -7.242  1.00 92.81 LIG 0.17  HD
ATOM     24 2HH2 ARG E   9      33.681 -30.649  -6.504  1.00 92.81 LIG 0.17  HD
ATOM     25 2HH1 ARG E   9      32.574 -31.415  -4.664  1.00 95.67 LIG 0.17  HD
ATOM     26 1HH1 ARG E   9      32.785 -32.810  -4.187  1.00 95.67 LIG 0.17  HD
ATOM     27 HE   ARG E   9      34.956 -33.669  -6.533  1.00 94.16 LIG 0.18  HD
ENDBRANCH 18 19
ENDBRANCH 17 18
ENDBRANCH 16 17
ENDBRANCH 15 16
BRANCH 15 28
ATOM     28  N   ARG E   9      31.830 -37.152  -8.502  1.00 66.15 LIG-0.35  N 
ATOM     29 H    ARG E   9      32.340 -37.770  -8.814  1.00 66.15 LIG 0.16  HD
ATOM     30  C   GLY E   8      30.487 -37.270  -8.474  1.00 70.79 LIG 0.25  C 
ATOM     31 O    GLY E   8      29.738 -36.394  -8.032  1.00 70.42 LIG-0.27  OA
BRANCH 30 32
ATOM     32  CA  GLY E   8      29.911 -38.559  -9.021  1.00 68.19 LIG 0.47  C 
ATOM     33  N   GLY E   8      28.479 -38.685  -8.789  1.00 68.87 LIG 0.61  N 
ENDBRANCH 30 32
ENDBRANCH 15 28
ENDBRANCH 12 15
ENDBRANCH 5 11
ENDBRANCH 1 5
BRANCH 3 34
ATOM     34  CA  THR E  11      31.815 -34.569 -12.951  1.00 57.37 LIG 0.20  C 
BRANCH 34 35
ATOM     35  CB  THR E  11      31.345 -33.292 -13.679  1.00 62.59 LIG 0.15  C 
ATOM     36  CG2 THR E  11      32.299 -32.854 -14.788  1.00 60.54 LIG 0.04  C 
BRANCH 35 37
ATOM     37 OG1  THR E  11      30.046 -33.510 -14.229  1.00 61.42 LIG-0.39  OA
ATOM     38 HG1  THR E  11      29.556 -33.880 -13.655  1.00 61.42 LIG 0.21  HD
ENDBRANCH 35 37
ENDBRANCH 34 35
BRANCH 34 39
ATOM     39  C   THR E  11      32.734 -35.431 -13.821  1.00 59.93 LIG 0.24  C 
ATOM     40 O    THR E  11      32.250 -36.244 -14.611  1.00 59.05 LIG-0.27  OA
ATOM     41  N   GLU E  12      34.056 -35.259 -13.652  1.00 55.90 LIG-0.35  N 
ATOM     42 H    GLU E  12      34.384 -34.677 -13.111  1.00 55.90 LIG 0.16  HD
BRANCH 41 43
ATOM     43  CA  GLU E  12      35.078 -36.030 -14.360  1.00 55.43 LIG 0.18  C 
BRANCH 43 44
ATOM     44  CB  GLU E  12      34.759 -37.540 -14.330  1.00 56.88 LIG 0.04  C 
BRANCH 44 45
ATOM     45  CG  GLU E  12      34.397 -38.089 -12.959  1.00 68.03 LIG 0.12  C 
BRANCH 45 46
ATOM     46  CD  GLU E  12      33.081 -38.840 -12.884  1.00 88.63 LIG 0.17  C 
ATOM     47 OE1  GLU E  12      32.955 -39.900 -13.539  1.00 85.30 LIG-0.65  OA
ATOM     48 OE2  GLU E  12      32.187 -38.388 -12.132  1.00 81.03 LIG-0.65  OA
ENDBRANCH 45 46
ENDBRANCH 44 45
ENDBRANCH 43 44
BRANCH 43 49
ATOM     49  C   GLU E  12      35.136 -35.532 -15.805  1.00 58.58 LIG 0.24  C 
ATOM     50 O    GLU E  12      36.218 -35.193 -16.291  1.00 58.36 LIG-0.27  OA
ATOM     51  N   VAL E  13      33.983 -35.520 -16.500  1.00 54.46 LIG-0.34  N 
ATOM     52 H    VAL E  13      33.233 -35.780 -16.169  1.00 54.46 LIG 0.16  HD
BRANCH 51 53
ATOM     53  CA  VAL E  13      33.883 -35.060 -17.895  1.00 55.96 LIG 0.19  C 
BRANCH 53 54
ATOM     54  C   VAL E  13      34.857 -33.909 -18.215  1.00 65.43 LIG 0.20  C 
ATOM     55 O    VAL E  13      36.021 -34.191 -18.574  1.00 66.90 LIG-0.65  OA
ATOM     56 OXT  VAL E  13      34.461 -32.730 -18.087  1.00 83.99 LIG-0.65  OA
ENDBRANCH 53 54
BRANCH 53 57
ATOM     57  CB  VAL E  13      32.428 -34.778 -18.384  1.00 59.73 LIG 0.01  C 
ATOM     58  CG2 VAL E  13      31.826 -33.543 -17.718  1.00 59.40 LIG 0.01  C 
ATOM     59  CG1 VAL E  13      31.527 -35.997 -18.200  1.00 59.53 LIG 0.01  C 
ENDBRANCH 53 57
ENDBRANCH 51 53
ENDBRANCH 43 49
ENDBRANCH 41 43
ENDBRANCH 34 39
ENDBRANCH 3 34
TORSDOF 24
ENDMDL
MODEL 23
USER: ADFR SOLUTION from run 35
USER: SCORE 18.106591 LL:  -3.603 LR: -15.871 RR:   0.000 FEB:  -8.712
USER: RMSD 5.081146
USER: SEED 34
USER: STATUS 1 or 2 clusters left
USER: GENES 26
USER: genes 0 Translation |==|  0.51475 0.35151 0.47484
USER: genes 1 Rotation |==|  0.89702 0.39093 0.71441 0.68575
USER: genes 2 Torsion [N]-C--CA-[N] |==|  0.85556
USER: genes 3 Torsion [C]-CA--CB-[CG] |==|  0.78912
USER: genes 4 Torsion [CA]-CB--CG-[CD] |==|  0.54921
USER: genes 5 Torsion [CB]-CG--CD-[OE1] |==|  0.85314
USER: genes 6 Torsion [C]-CA--N-[C] |==|  0.86972
USER: genes 7 Torsion [N]-C--CA-[N] |==|  0.36634
USER: genes 8 Torsion [C]-CA--CB-[CG] |==|  0.42293
USER: genes 9 Torsion [CA]-CB--CG-[CD] |==|  0.29238
USER: genes 10 Torsion [CB]-CG--CD-[NE] |==|  0.46670
USER: genes 11 Torsion [CG]-CD--NE-[CZ] |==|  0.63172
USER: genes 12 Torsion [C]-CA--N-[C] |==|  0.81411
USER: genes 13 Torsion [N]-C--CA-[N] |==|  0.58541
USER: genes 14 Torsion [C]-N--CA-[CB] |==|  0.86041
USER: genes 15 Torsion [N]-CA--CB-[CG2] |==|  0.41072
USER: genes 16 Torsion [CA]-CB--OG1-[HG1] |==|  0.69111
USER: genes 17 Torsion [N]-CA--C-[N] |==|  0.87811
USER: genes 18 Torsion [C]-N--CA-[CB] |==|  0.47652
USER: genes 19 Torsion [N]-CA--CB-[CG] |==|  0.91197
USER: genes 20 Torsion [CA]-CB--CG-[CD] |==|  0.61585
USER: genes 21 Torsion [CB]-CG--CD-[OE1] |==|  0.84712
USER: genes 22 Torsion [N]-CA--C-[N] |==|  0.41336
USER: genes 23 Torsion [C]-N--CA-[C] |==|  0.56843
USER: genes 24 Torsion [N]-CA--C-[O] |==|  0.13558
USER: genes 25 Torsion [N]-CA--CB-[CG2] |==|  0.07791
ROOT
ATOM      1  C   GLU E  10      35.488 -36.120  -9.862  1.00 63.15 LIG 0.24  C 
ATOM      2 O    GLU E  10      36.634 -35.668  -9.926  1.00 62.80 LIG-0.27  OA
ATOM      3  N   THR E  11      34.387 -35.356  -9.980  1.00 58.35 LIG-0.34  N 
ATOM      4 H    THR E  11      33.588 -35.670  -9.930  1.00 58.35 LIG 0.16  HD
ENDROOT
BRANCH 1 5
ATOM      5  CA  GLU E  10      35.270 -37.621  -9.648  1.00 61.04 LIG 0.18  C 
BRANCH 5 6
ATOM      6  CB  GLU E  10      34.730 -38.293 -10.923  1.00 62.44 LIG 0.04  C 
BRANCH 6 7
ATOM      7  CG  GLU E  10      33.256 -38.027 -11.193  1.00 71.88 LIG 0.12  C 
BRANCH 7 8
ATOM      8  CD  GLU E  10      32.584 -38.974 -12.167  1.00 89.61 LIG 0.17  C 
ATOM      9 OE1  GLU E  10      33.104 -39.151 -13.293  1.00 85.83 LIG-0.65  OA
ATOM     10 OE2  GLU E  10      31.558 -39.580 -11.785  1.00 80.51 LIG-0.65  OA
ENDBRANCH 7 8
ENDBRANCH 6 7
ENDBRANCH 5 6
BRANCH 5 11
ATOM     11  N   GLU E  10      34.352 -37.826  -8.528  1.00 62.09 LIG-0.35  N 
ATOM     12  C   ARG E   9      34.445 -37.205  -7.342  1.00 67.00 LIG 0.24  C 
ATOM     13 O    ARG E   9      35.335 -36.397  -7.066  1.00 66.41 LIG-0.27  OA
ATOM     14 H    GLU E  10      33.732 -38.396  -8.702  1.00 62.09 LIG 0.16  HD
BRANCH 12 15
ATOM     15  CA  ARG E   9      33.369 -37.546  -6.311  1.00 65.18 LIG 0.18  C 
BRANCH 15 16
ATOM     16  CB  ARG E   9      32.351 -36.396  -6.214  1.00 65.91 LIG 0.04  C 
BRANCH 16 17
ATOM     17  CG  ARG E   9      30.944 -36.816  -5.783  1.00 77.53 LIG 0.02  C 
BRANCH 17 18
ATOM     18  CD  ARG E   9      30.602 -36.445  -4.340  1.00 87.32 LIG 0.14  C 
BRANCH 18 19
ATOM     19  NE  ARG E   9      29.177 -36.597  -4.029  1.00 94.16 LIG-0.23  N 
ATOM     20  CZ  ARG E   9      28.435 -35.687  -3.402  1.00107.18 LIG 0.67  C 
ATOM     21  NH2 ARG E   9      27.152 -35.920  -3.164  1.00 92.81 LIG-0.23  N 
ATOM     22  NH1 ARG E   9      28.970 -34.536  -3.013  1.00 95.67 LIG-0.23  N 
ATOM     23 1HH2 ARG E   9      26.796 -36.662  -3.415  1.00 92.81 LIG 0.17  HD
ATOM     24 2HH2 ARG E   9      26.676 -35.329  -2.759  1.00 92.81 LIG 0.17  HD
ATOM     25 2HH1 ARG E   9      28.486 -33.951  -2.609  1.00 95.67 LIG 0.17  HD
ATOM     26 1HH1 ARG E   9      29.801 -34.375  -3.166  1.00 95.67 LIG 0.17  HD
ATOM     27 HE   ARG E   9      28.792 -37.328  -4.269  1.00 94.16 LIG 0.18  HD
ENDBRANCH 18 19
ENDBRANCH 17 18
ENDBRANCH 16 17
ENDBRANCH 15 16
BRANCH 15 28
ATOM     28  N   ARG E   9      33.930 -37.857  -4.992  1.00 66.15 LIG-0.35  N 
ATOM     29 H    ARG E   9      33.726 -37.273  -4.396  1.00 66.15 LIG 0.16  HD
ATOM     30  C   GLY E   8      34.687 -38.937  -4.716  1.00 70.79 LIG 0.25  C 
ATOM     31 O    GLY E   8      34.992 -39.786  -5.559  1.00 70.42 LIG-0.27  OA
BRANCH 30 32
ATOM     32  CA  GLY E   8      35.167 -39.078  -3.287  1.00 68.19 LIG 0.47  C 
ATOM     33  N   GLY E   8      36.453 -39.753  -3.182  1.00 68.87 LIG 0.61  N 
ENDBRANCH 30 32
ENDBRANCH 15 28
ENDBRANCH 12 15
ENDBRANCH 5 11
ENDBRANCH 1 5
BRANCH 3 34
ATOM     34  CA  THR E  11      34.438 -33.909 -10.207  1.00 57.37 LIG 0.20  C 
BRANCH 34 35
ATOM     35  CB  THR E  11      35.382 -33.235  -9.190  1.00 62.59 LIG 0.15  C 
ATOM     36  CG2 THR E  11      36.092 -32.008  -9.758  1.00 60.54 LIG 0.04  C 
BRANCH 35 37
ATOM     37 OG1  THR E  11      34.640 -32.859  -8.029  1.00 61.42 LIG-0.39  OA
ATOM     38 HG1  THR E  11      34.591 -32.022  -7.987  1.00 61.42 LIG 0.21  HD
ENDBRANCH 35 37
ENDBRANCH 34 35
BRANCH 34 39
ATOM     39  C   THR E  11      34.808 -33.576 -11.655  1.00 59.93 LIG 0.24  C 
ATOM     40 O    THR E  11      34.184 -32.707 -12.267  1.00 59.05 LIG-0.27  OA
ATOM     41  N   GLU E  12      35.812 -34.288 -12.197  1.00 55.90 LIG-0.35  N 
ATOM     42 H    GLU E  12      36.252 -34.881 -11.756  1.00 55.90 LIG 0.16  HD
BRANCH 41 43
ATOM     43  CA  GLU E  12      36.265 -34.140 -13.580  1.00 55.43 LIG 0.18  C 
BRANCH 43 44
ATOM     44  CB  GLU E  12      37.560 -34.940 -13.832  1.00 56.88 LIG 0.04  C 
BRANCH 44 45
ATOM     45  CG  GLU E  12      38.483 -35.059 -12.630  1.00 68.03 LIG 0.12  C 
BRANCH 45 46
ATOM     46  CD  GLU E  12      39.962 -34.891 -12.923  1.00 88.63 LIG 0.17  C 
ATOM     47 OE1  GLU E  12      40.490 -35.623 -13.792  1.00 85.30 LIG-0.65  OA
ATOM     48 OE2  GLU E  12      40.586 -33.994 -12.312  1.00 81.03 LIG-0.65  OA
ENDBRANCH 45 46
ENDBRANCH 44 45
ENDBRANCH 43 44
BRANCH 43 49
ATOM     49  C   GLU E  12      35.151 -34.634 -14.503  1.00 58.58 LIG 0.24  C 
ATOM     50 O    GLU E  12      34.384 -35.518 -14.113  1.00 58.36 LIG-0.27  OA
ATOM     51  N   VAL E  13      35.040 -34.045 -15.708  1.00 54.46 LIG-0.34  N 
ATOM     52 H    VAL E  13      35.560 -33.411 -15.969  1.00 54.46 LIG 0.16  HD
BRANCH 51 53
ATOM     53  CA  VAL E  13      34.023 -34.421 -16.703  1.00 55.96 LIG 0.19  C 
BRANCH 53 54
ATOM     54  C   VAL E  13      34.445 -34.078 -18.146  1.00 65.43 LIG 0.20  C 
ATOM     55 O    VAL E  13      35.582 -34.421 -18.536  1.00 66.90 LIG-0.65  OA
ATOM     56 OXT  VAL E  13      33.647 -33.450 -18.875  1.00 83.99 LIG-0.65  OA
ENDBRANCH 53 54
BRANCH 53 57
ATOM     57  CB  VAL E  13      32.575 -33.946 -16.365  1.00 59.73 LIG 0.01  C 
ATOM     58  CG2 VAL E  13      32.569 -32.678 -15.515  1.00 59.40 LIG 0.01  C 
ATOM     59  CG1 VAL E  13      31.761 -35.056 -15.704  1.00 59.53 LIG 0.01  C 
ENDBRANCH 53 57
ENDBRANCH 51 53
ENDBRANCH 43 49
ENDBRANCH 41 43
ENDBRANCH 34 39
ENDBRANCH 3 34
TORSDOF 24
ENDMDL
MODEL 24
USER: ADFR SOLUTION from run 129
USER: SCORE 17.974653 LL:  -4.006 LR: -15.840 RR:   0.000 FEB:  -8.681
USER: RMSD 7.855963
USER: SEED 128
USER: STATUS no improvement in best in 7 clusters for 5 generations
USER: GENES 26
USER: genes 0 Translation |==|  0.43619 0.42848 0.29337
USER: genes 1 Rotation |==|  0.61166 0.33602 0.29157 0.90890
USER: genes 2 Torsion [N]-C--CA-[N] |==|  0.55523
USER: genes 3 Torsion [C]-CA--CB-[CG] |==|  0.77254
USER: genes 4 Torsion [CA]-CB--CG-[CD] |==|  0.14501
USER: genes 5 Torsion [CB]-CG--CD-[OE1] |==|  0.22063
USER: genes 6 Torsion [C]-CA--N-[C] |==|  0.72573
USER: genes 7 Torsion [N]-C--CA-[N] |==|  0.95414
USER: genes 8 Torsion [C]-CA--CB-[CG] |==|  0.44804
USER: genes 9 Torsion [CA]-CB--CG-[CD] |==|  0.46753
USER: genes 10 Torsion [CB]-CG--CD-[NE] |==|  0.39297
USER: genes 11 Torsion [CG]-CD--NE-[CZ] |==|  0.30127
USER: genes 12 Torsion [C]-CA--N-[C] |==|  0.78351
USER: genes 13 Torsion [N]-C--CA-[N] |==|  0.92114
USER: genes 14 Torsion [C]-N--CA-[CB] |==|  0.27717
USER: genes 15 Torsion [N]-CA--CB-[CG2] |==|  0.87023
USER: genes 16 Torsion [CA]-CB--OG1-[HG1] |==|  0.87311
USER: genes 17 Torsion [N]-CA--C-[N] |==|  0.98745
USER: genes 18 Torsion [C]-N--CA-[CB] |==|  0.57222
USER: genes 19 Torsion [N]-CA--CB-[CG] |==|  0.43746
USER: genes 20 Torsion [CA]-CB--CG-[CD] |==|  0.27560
USER: genes 21 Torsion [CB]-CG--CD-[OE1] |==|  0.53113
USER: genes 22 Torsion [N]-CA--C-[N] |==|  0.38424
USER: genes 23 Torsion [C]-N--CA-[C] |==|  0.71212
USER: genes 24 Torsion [N]-CA--C-[O] |==|  0.77167
USER: genes 25 Torsion [N]-CA--CB-[CG2] |==|  0.86267
ROOT
ATOM      1  C   GLU E  10      33.956 -34.850 -14.898  1.00 63.15 LIG 0.24  C 
ATOM      2 O    GLU E  10      33.430 -35.922 -15.208  1.00 62.80 LIG-0.27  OA
ATOM      3  N   THR E  11      34.565 -34.044 -15.786  1.00 58.35 LIG-0.34  N 
ATOM      4 H    THR E  11      34.936 -33.300 -15.569  1.00 58.35 LIG 0.16  HD
ENDROOT
BRANCH 1 5
ATOM      5  CA  GLU E  10      33.925 -34.377 -13.441  1.00 61.04 LIG 0.18  C 
BRANCH 5 6
ATOM      6  CB  GLU E  10      35.236 -33.671 -13.057  1.00 62.44 LIG 0.04  C 
BRANCH 6 7
ATOM      7  CG  GLU E  10      36.367 -34.617 -12.680  1.00 71.88 LIG 0.12  C 
BRANCH 7 8
ATOM      8  CD  GLU E  10      36.672 -35.712 -13.685  1.00 89.61 LIG 0.17  C 
ATOM      9 OE1  GLU E  10      37.354 -35.428 -14.697  1.00 85.83 LIG-0.65  OA
ATOM     10 OE2  GLU E  10      36.268 -36.869 -13.434  1.00 80.51 LIG-0.65  OA
ENDBRANCH 7 8
ENDBRANCH 6 7
ENDBRANCH 5 6
BRANCH 5 11
ATOM     11  N   GLU E  10      33.676 -35.519 -12.562  1.00 62.09 LIG-0.35  N 
ATOM     12  C   ARG E   9      32.478 -35.840 -12.050  1.00 67.00 LIG 0.24  C 
ATOM     13 O    ARG E   9      31.453 -35.188 -12.257  1.00 66.41 LIG-0.27  OA
ATOM     14 H    GLU E  10      34.385 -35.979 -12.399  1.00 62.09 LIG 0.16  HD
BRANCH 12 15
ATOM     15  CA  ARG E   9      32.429 -37.090 -11.169  1.00 65.18 LIG 0.18  C 
BRANCH 15 16
ATOM     16  CB  ARG E   9      32.253 -36.685  -9.694  1.00 65.91 LIG 0.04  C 
BRANCH 16 17
ATOM     17  CG  ARG E   9      31.747 -37.801  -8.777  1.00 77.53 LIG 0.02  C 
BRANCH 17 18
ATOM     18  CD  ARG E   9      31.846 -37.471  -7.288  1.00 87.32 LIG 0.14  C 
BRANCH 18 19
ATOM     19  NE  ARG E   9      30.700 -37.958  -6.512  1.00 94.16 LIG-0.23  N 
ATOM     20  CZ  ARG E   9      30.739 -38.976  -5.657  1.00107.18 LIG 0.67  C 
ATOM     21  NH2 ARG E   9      29.646 -39.342  -5.003  1.00 92.81 LIG-0.23  N 
ATOM     22  NH1 ARG E   9      31.874 -39.632  -5.444  1.00 95.67 LIG-0.23  N 
ATOM     23 1HH2 ARG E   9      28.907 -38.920  -5.132  1.00 92.81 LIG 0.17  HD
ATOM     24 2HH2 ARG E   9      29.675 -40.000  -4.451  1.00 92.81 LIG 0.17  HD
ATOM     25 2HH1 ARG E   9      31.894 -40.289  -4.889  1.00 95.67 LIG 0.17  HD
ATOM     26 1HH1 ARG E   9      32.590 -39.400  -5.861  1.00 95.67 LIG 0.17  HD
ATOM     27 HE   ARG E   9      29.948 -37.555  -6.618  1.00 94.16 LIG 0.18  HD
ENDBRANCH 18 19
ENDBRANCH 17 18
ENDBRANCH 16 17
ENDBRANCH 15 16
BRANCH 15 28
ATOM     28  N   ARG E   9      33.609 -37.944 -11.336  1.00 66.15 LIG-0.35  N 
ATOM     29 H    ARG E   9      34.177 -37.860 -10.696  1.00 66.15 LIG 0.16  HD
ATOM     30  C   GLY E   8      33.808 -38.783 -12.373  1.00 70.79 LIG 0.25  C 
ATOM     31 O    GLY E   8      33.005 -38.917 -13.301  1.00 70.42 LIG-0.27  OA
BRANCH 30 32
ATOM     32  CA  GLY E   8      35.093 -39.583 -12.357  1.00 68.19 LIG 0.47  C 
ATOM     33  N   GLY E   8      36.174 -38.910 -11.653  1.00 68.87 LIG 0.61  N 
ENDBRANCH 30 32
ENDBRANCH 15 28
ENDBRANCH 12 15
ENDBRANCH 5 11
ENDBRANCH 1 5
BRANCH 3 34
ATOM     34  CA  THR E  11      34.657 -34.354 -17.216  1.00 57.37 LIG 0.20  C 
BRANCH 34 35
ATOM     35  CB  THR E  11      33.583 -33.579 -18.007  1.00 62.59 LIG 0.15  C 
ATOM     36  CG2 THR E  11      32.199 -33.657 -17.366  1.00 60.54 LIG 0.04  C 
BRANCH 35 37
ATOM     37 OG1  THR E  11      33.974 -32.211 -18.125  1.00 61.42 LIG-0.39  OA
ATOM     38 HG1  THR E  11      34.243 -31.931 -17.380  1.00 61.42 LIG 0.21  HD
ENDBRANCH 35 37
ENDBRANCH 34 35
BRANCH 34 39
ATOM     39  C   THR E  11      36.068 -34.113 -17.757  1.00 59.93 LIG 0.24  C 
ATOM     40 O    THR E  11      36.344 -34.420 -18.919  1.00 59.05 LIG-0.27  OA
ATOM     41  N   GLU E  12      36.957 -33.581 -16.901  1.00 55.90 LIG-0.35  N 
ATOM     42 H    GLU E  12      36.750 -33.354 -16.097  1.00 55.90 LIG 0.16  HD
BRANCH 41 43
ATOM     43  CA  GLU E  12      38.360 -33.329 -17.230  1.00 55.43 LIG 0.18  C 
BRANCH 43 44
ATOM     44  CB  GLU E  12      39.243 -33.343 -15.965  1.00 56.88 LIG 0.04  C 
BRANCH 44 45
ATOM     45  CG  GLU E  12      40.715 -33.628 -16.215  1.00 68.03 LIG 0.12  C 
BRANCH 45 46
ATOM     46  CD  GLU E  12      41.618 -32.410 -16.254  1.00 88.63 LIG 0.17  C 
ATOM     47 OE1  GLU E  12      42.794 -32.546 -16.663  1.00 85.30 LIG-0.65  OA
ATOM     48 OE2  GLU E  12      41.134 -31.306 -15.914  1.00 81.03 LIG-0.65  OA
ENDBRANCH 45 46
ENDBRANCH 44 45
ENDBRANCH 43 44
BRANCH 43 49
ATOM     49  C   GLU E  12      38.822 -34.410 -18.208  1.00 58.58 LIG 0.24  C 
ATOM     50 O    GLU E  12      38.455 -35.576 -18.045  1.00 58.36 LIG-0.27  OA
ATOM     51  N   VAL E  13      39.596 -34.020 -19.238  1.00 54.46 LIG-0.34  N 
ATOM     52 H    VAL E  13      39.830 -33.203 -19.366  1.00 54.46 LIG 0.16  HD
BRANCH 51 53
ATOM     53  CA  VAL E  13      40.122 -34.949 -20.253  1.00 55.96 LIG 0.19  C 
BRANCH 53 54
ATOM     54  C   VAL E  13      41.615 -35.273 -20.048  1.00 65.43 LIG 0.20  C 
ATOM     55 O    VAL E  13      42.468 -34.468 -20.480  1.00 66.90 LIG-0.65  OA
ATOM     56 OXT  VAL E  13      41.928 -36.339 -19.475  1.00 83.99 LIG-0.65  OA
ENDBRANCH 53 54
BRANCH 53 57
ATOM     57  CB  VAL E  13      39.781 -34.563 -21.726  1.00 59.73 LIG 0.01  C 
ATOM     58  CG2 VAL E  13      38.298 -34.254 -21.913  1.00 59.40 LIG 0.01  C 
ATOM     59  CG1 VAL E  13      40.248 -35.634 -22.709  1.00 59.53 LIG 0.01  C 
ENDBRANCH 53 57
ENDBRANCH 51 53
ENDBRANCH 43 49
ENDBRANCH 41 43
ENDBRANCH 34 39
ENDBRANCH 3 34
TORSDOF 24
ENDMDL
MODEL 25
USER: ADFR SOLUTION from run 149
USER: SCORE 15.771818 LL:  -3.282 LR: -15.823 RR:   0.000 FEB:  -8.664
USER: RMSD 3.605524
USER: SEED 148
USER: STATUS no improvement in best in 15 clusters for 5 generations
USER: GENES 26
USER: genes 0 Translation |==|  0.50199 0.49755 0.49317
USER: genes 1 Rotation |==|  0.58217 0.33069 0.38201 0.94795
USER: genes 2 Torsion [N]-C--CA-[N] |==|  0.49944
USER: genes 3 Torsion [C]-CA--CB-[CG] |==|  0.18119
USER: genes 4 Torsion [CA]-CB--CG-[CD] |==|  0.64128
USER: genes 5 Torsion [CB]-CG--CD-[OE1] |==|  0.58894
USER: genes 6 Torsion [C]-CA--N-[C] |==|  0.54658
USER: genes 7 Torsion [N]-C--CA-[N] |==|  0.37279
USER: genes 8 Torsion [C]-CA--CB-[CG] |==|  0.73857
USER: genes 9 Torsion [CA]-CB--CG-[CD] |==|  0.69508
USER: genes 10 Torsion [CB]-CG--CD-[NE] |==|  0.66309
USER: genes 11 Torsion [CG]-CD--NE-[CZ] |==|  0.29666
USER: genes 12 Torsion [C]-CA--N-[C] |==|  0.59913
USER: genes 13 Torsion [N]-C--CA-[N] |==|  0.55563
USER: genes 14 Torsion [C]-N--CA-[CB] |==|  0.82147
USER: genes 15 Torsion [N]-CA--CB-[CG2] |==|  0.56658
USER: genes 16 Torsion [CA]-CB--OG1-[HG1] |==|  0.28147
USER: genes 17 Torsion [N]-CA--C-[N] |==|  0.62597
USER: genes 18 Torsion [C]-N--CA-[CB] |==|  0.89831
USER: genes 19 Torsion [N]-CA--CB-[CG] |==|  0.73289
USER: genes 20 Torsion [CA]-CB--CG-[CD] |==|  0.88112
USER: genes 21 Torsion [CB]-CG--CD-[OE1] |==|  0.96290
USER: genes 22 Torsion [N]-CA--C-[N] |==|  0.94422
USER: genes 23 Torsion [C]-N--CA-[C] |==|  0.71481
USER: genes 24 Torsion [N]-CA--C-[O] |==|  0.00005
USER: genes 25 Torsion [N]-CA--CB-[CG2] |==|  0.98788
ROOT
ATOM      1  C   GLU E  10      35.239 -33.710  -9.353  1.00 63.15 LIG 0.24  C 
ATOM      2 O    GLU E  10      35.085 -34.934  -9.359  1.00 62.80 LIG-0.27  OA
ATOM      3  N   THR E  11      35.601 -33.009 -10.442  1.00 58.35 LIG-0.34  N 
ATOM      4 H    THR E  11      35.714 -32.156 -10.437  1.00 58.35 LIG 0.16  HD
ENDROOT
BRANCH 1 5
ATOM      5  CA  GLU E  10      35.006 -32.917  -8.064  1.00 61.04 LIG 0.18  C 
BRANCH 5 6
ATOM      6  CB  GLU E  10      36.258 -32.117  -7.667  1.00 62.44 LIG 0.04  C 
BRANCH 6 7
ATOM      7  CG  GLU E  10      36.633 -31.018  -8.651  1.00 71.88 LIG 0.12  C 
BRANCH 7 8
ATOM      8  CD  GLU E  10      38.077 -31.016  -9.117  1.00 89.61 LIG 0.17  C 
ATOM      9 OE1  GLU E  10      38.621 -29.920  -9.389  1.00 85.83 LIG-0.65  OA
ATOM     10 OE2  GLU E  10      38.681 -32.110  -9.163  1.00 80.51 LIG-0.65  OA
ENDBRANCH 7 8
ENDBRANCH 6 7
ENDBRANCH 5 6
BRANCH 5 11
ATOM     11  N   GLU E  10      34.616 -33.832  -6.992  1.00 62.09 LIG-0.35  N 
ATOM     12  C   ARG E   9      34.036 -33.456  -5.841  1.00 67.00 LIG 0.24  C 
ATOM     13 O    ARG E   9      33.781 -32.283  -5.560  1.00 66.41 LIG-0.27  OA
ATOM     14 H    GLU E  10      34.798 -34.654  -7.169  1.00 62.09 LIG 0.16  HD
BRANCH 12 15
ATOM     15  CA  ARG E   9      33.688 -34.575  -4.859  1.00 65.18 LIG 0.18  C 
BRANCH 15 16
ATOM     16  CB  ARG E   9      32.184 -34.892  -4.935  1.00 65.91 LIG 0.04  C 
BRANCH 16 17
ATOM     17  CG  ARG E   9      31.318 -34.153  -3.913  1.00 77.53 LIG 0.02  C 
BRANCH 17 18
ATOM     18  CD  ARG E   9      30.747 -35.055  -2.818  1.00 87.32 LIG 0.14  C 
BRANCH 18 19
ATOM     19  NE  ARG E   9      29.281 -35.038  -2.764  1.00 94.16 LIG-0.23  N 
ATOM     20  CZ  ARG E   9      28.495 -36.032  -3.170  1.00107.18 LIG 0.67  C 
ATOM     21  NH2 ARG E   9      27.178 -35.920  -3.081  1.00 92.81 LIG-0.23  N 
ATOM     22  NH1 ARG E   9      29.021 -37.147  -3.663  1.00 95.67 LIG-0.23  N 
ATOM     23 1HH2 ARG E   9      26.827 -35.203  -2.760  1.00 92.81 LIG 0.17  HD
ATOM     24 2HH2 ARG E   9      26.673 -36.565  -3.345  1.00 92.81 LIG 0.17  HD
ATOM     25 2HH1 ARG E   9      28.508 -37.787  -3.923  1.00 95.67 LIG 0.17  HD
ATOM     26 1HH1 ARG E   9      29.876 -37.230  -3.721  1.00 95.67 LIG 0.17  HD
ATOM     27 HE   ARG E   9      28.902 -34.335  -2.446  1.00 94.16 LIG 0.18  HD
ENDBRANCH 18 19
ENDBRANCH 17 18
ENDBRANCH 16 17
ENDBRANCH 15 16
BRANCH 15 28
ATOM     28  N   ARG E   9      34.085 -34.261  -3.483  1.00 66.15 LIG-0.35  N 
ATOM     29 H    ARG E   9      33.993 -33.428  -3.290  1.00 66.15 LIG 0.16  HD
ATOM     30  C   GLY E   8      34.547 -35.161  -2.592  1.00 70.79 LIG 0.25  C 
ATOM     31 O    GLY E   8      34.686 -36.361  -2.851  1.00 70.42 LIG-0.27  OA
BRANCH 30 32
ATOM     32  CA  GLY E   8      34.898 -34.634  -1.218  1.00 68.19 LIG 0.47  C 
ATOM     33  N   GLY E   8      35.796 -35.514  -0.483  1.00 68.87 LIG 0.61  N 
ENDBRANCH 30 32
ENDBRANCH 15 28
ENDBRANCH 12 15
ENDBRANCH 5 11
ENDBRANCH 1 5
BRANCH 3 34
ATOM     34  CA  THR E  11      35.840 -33.627 -11.749  1.00 57.37 LIG 0.20  C 
BRANCH 34 35
ATOM     35  CB  THR E  11      37.047 -34.586 -11.681  1.00 62.59 LIG 0.15  C 
ATOM     36  CG2 THR E  11      37.710 -34.806 -13.039  1.00 60.54 LIG 0.04  C 
BRANCH 35 37
ATOM     37 OG1  THR E  11      38.010 -34.075 -10.760  1.00 61.42 LIG-0.39  OA
ATOM     38 HG1  THR E  11      37.948 -34.487 -10.031  1.00 61.42 LIG 0.21  HD
ENDBRANCH 35 37
ENDBRANCH 34 35
BRANCH 34 39
ATOM     39  C   THR E  11      34.581 -34.310 -12.290  1.00 59.93 LIG 0.24  C 
ATOM     40 O    THR E  11      33.492 -33.739 -12.220  1.00 59.05 LIG-0.27  OA
ATOM     41  N   GLU E  12      34.742 -35.540 -12.809  1.00 55.90 LIG-0.35  N 
ATOM     42 H    GLU E  12      35.509 -35.923 -12.868  1.00 55.90 LIG 0.16  HD
BRANCH 41 43
ATOM     43  CA  GLU E  12      33.645 -36.359 -13.325  1.00 55.43 LIG 0.18  C 
BRANCH 43 44
ATOM     44  CB  GLU E  12      32.366 -36.176 -12.480  1.00 56.88 LIG 0.04  C 
BRANCH 44 45
ATOM     45  CG  GLU E  12      32.154 -37.229 -11.404  1.00 68.03 LIG 0.12  C 
BRANCH 45 46
ATOM     46  CD  GLU E  12      32.441 -38.659 -11.825  1.00 88.63 LIG 0.17  C 
ATOM     47 OE1  GLU E  12      32.575 -38.911 -13.044  1.00 85.30 LIG-0.65  OA
ATOM     48 OE2  GLU E  12      32.576 -39.521 -10.927  1.00 81.03 LIG-0.65  OA
ENDBRANCH 45 46
ENDBRANCH 44 45
ENDBRANCH 43 44
BRANCH 43 49
ATOM     49  C   GLU E  12      33.383 -35.948 -14.774  1.00 58.58 LIG 0.24  C 
ATOM     50 O    GLU E  12      32.756 -36.706 -15.519  1.00 58.36 LIG-0.27  OA
ATOM     51  N   VAL E  13      33.831 -34.739 -15.163  1.00 54.46 LIG-0.34  N 
ATOM     52 H    VAL E  13      34.245 -34.201 -14.636  1.00 54.46 LIG 0.16  HD
BRANCH 51 53
ATOM     53  CA  VAL E  13      33.659 -34.213 -16.527  1.00 55.96 LIG 0.19  C 
BRANCH 53 54
ATOM     54  C   VAL E  13      34.948 -34.305 -17.368  1.00 65.43 LIG 0.20  C 
ATOM     55 O    VAL E  13      35.973 -34.795 -16.844  1.00 66.90 LIG-0.65  OA
ATOM     56 OXT  VAL E  13      34.936 -33.871 -18.540  1.00 83.99 LIG-0.65  OA
ENDBRANCH 53 54
BRANCH 53 57
ATOM     57  CB  VAL E  13      32.986 -32.807 -16.602  1.00 59.73 LIG 0.01  C 
ATOM     58  CG2 VAL E  13      32.542 -32.307 -15.229  1.00 59.40 LIG 0.01  C 
ATOM     59  CG1 VAL E  13      31.825 -32.793 -17.595  1.00 59.53 LIG 0.01  C 
ENDBRANCH 53 57
ENDBRANCH 51 53
ENDBRANCH 43 49
ENDBRANCH 41 43
ENDBRANCH 34 39
ENDBRANCH 3 34
TORSDOF 24
ENDMDL
