MODEL 1
USER: ADFR SOLUTION from run 183
USER: SCORE 12.028448 LL:  -1.799 LR: -12.013 RR:   0.000 FEB:  -8.135
USER: RMSD 7.027603
USER: SEED 182
USER: STATUS no improvement in best in 15 clusters for 5 generations
USER: GENES 15
USER: genes 0 Translation |==|  0.66347 0.48958 0.46281
USER: genes 1 Rotation |==|  0.69607 0.90647 0.34028 0.64432
USER: genes 2 Torsion [CB]-CA--N-[C] |==|  0.84598
USER: genes 3 Torsion [N]-C--CA-[N] |==|  0.87936
USER: genes 4 Torsion [C]-CA--CB-[OG] |==|  0.59548
USER: genes 5 Torsion [CA]-CB--OG-[HG] |==|  0.17658
USER: genes 6 Torsion [C]-CA--N-[C] |==|  0.81111
USER: genes 7 Torsion [N]-C--CA-[N] |==|  0.48452
USER: genes 8 Torsion [N]-CA--CB-[CG] |==|  0.79452
USER: genes 9 Torsion [CA]-CB--CG-[CD1] |==|  0.11687
USER: genes 10 Torsion [N]-CA--C-[N] |==|  0.68298
USER: genes 11 Torsion [C]-N--CA-[C] |==|  0.92686
USER: genes 12 Torsion [N]-CA--CB-[CG] |==|  0.69407
USER: genes 13 Torsion [CA]-CB--CG-[ND1] |==|  0.00386
USER: genes 14 Torsion [N]-CA--C-[O] |==|  0.32153
ROOT
ATOM      1  CA  TRP G 420     -36.460 -28.445  29.947  1.00 30.19 LIG 0.18  C 
ENDROOT
BRANCH 1 2
ATOM      2  N   TRP G 420     -37.015 -29.650  29.332  1.00 29.90 LIG-0.35  N 
ATOM      3 H    TRP G 420     -36.442 -30.112  28.887  1.00 29.90 LIG 0.16  HD
ATOM      4  C   SER G 419     -38.304 -29.993  29.456  1.00 34.18 LIG 0.24  C 
ATOM      5 O    SER G 419     -39.102 -29.370  30.154  1.00 34.33 LIG-0.27  OA
BRANCH 4 6
ATOM      6  CA  SER G 419     -38.768 -31.214  28.659  1.00 31.26 LIG 0.20  C 
BRANCH 6 7
ATOM      7  CB  SER G 419     -38.367 -32.489  29.401  1.00 37.91 LIG 0.20  C 
BRANCH 7 8
ATOM      8 OG   SER G 419     -38.038 -33.517  28.479  1.00 57.41 LIG-0.40  OA
ATOM      9 HG   SER G 419     -37.365 -33.288  28.031  1.00 57.41 LIG 0.21  HD
ENDBRANCH 7 8
ENDBRANCH 6 7
BRANCH 6 10
ATOM     10  N   SER G 419     -38.239 -31.210  27.295  1.00 31.62 LIG-0.34  N 
ATOM     11 H    SER G 419     -37.666 -31.828  27.128  1.00 31.62 LIG 0.16  HD
ATOM     12  C   GLY G 418     -38.648 -30.292  26.403  1.00 37.47 LIG 0.25  C 
ATOM     13 O    GLY G 418     -39.458 -29.412  26.692  1.00 34.17 LIG-0.27  OA
BRANCH 12 14
ATOM     14  CA  GLY G 418     -38.040 -30.329  25.016  1.00 40.24 LIG 0.47  C 
ATOM     15  N   GLY G 418     -38.630 -29.383  24.076  1.00 42.39 LIG 0.61  N 
ENDBRANCH 12 14
ENDBRANCH 6 10
ENDBRANCH 4 6
ENDBRANCH 1 2
BRANCH 1 16
ATOM     16  CB  TRP G 420     -37.240 -27.209  29.510  1.00 27.27 LIG 0.07  C 
BRANCH 16 17
ATOM     17  CG  TRP G 420     -36.980 -26.766  28.102  1.00 26.68 LIG-0.03  A 
ATOM     18  CD1 TRP G 420     -36.861 -27.554  26.999  1.00 29.02 LIG 0.10  A 
ATOM     19  NE1 TRP G 420     -36.511 -26.792  25.907  1.00 28.83 LIG-0.36  N 
ATOM     20 HE1  TRP G 420     -36.346 -27.094  25.118  1.00 28.83 LIG 0.17  HD
ATOM     21  CE2 TRP G 420     -36.466 -25.474  26.281  1.00 29.48 LIG 0.04  A 
ATOM     22  CD2 TRP G 420     -36.747 -25.422  27.665  1.00 26.13 LIG-0.00  A 
ATOM     23  CZ2 TRP G 420     -36.165 -24.327  25.535  1.00 28.18 LIG 0.03  A 
ATOM     24  CE3 TRP G 420     -36.729 -24.177  28.317  1.00 26.84 LIG 0.01  A 
ATOM     25  CZ3 TRP G 420     -36.446 -23.038  27.569  1.00 27.14 LIG 0.00  A 
ATOM     26  CH2 TRP G 420     -36.166 -23.124  26.203  1.00 27.58 LIG 0.00  A 
ENDBRANCH 16 17
ENDBRANCH 1 16
BRANCH 1 27
ATOM     27  C   TRP G 420     -36.516 -28.592  31.463  1.00 38.21 LIG 0.24  C 
ATOM     28 O    TRP G 420     -35.790 -29.412  32.014  1.00 38.32 LIG-0.27  OA
ATOM     29  N   HIS G 421     -37.327 -27.757  32.137  1.00 36.18 LIG-0.35  N 
ATOM     30 H    HIS G 421     -37.819 -27.168  31.749  1.00 36.18 LIG 0.16  HD
BRANCH 29 31
ATOM     31  CA  HIS G 421     -37.458 -27.763  33.595  1.00 85.07 LIG 0.17  C 
BRANCH 31 32
ATOM     32  CB  HIS G 421     -38.863 -27.308  34.016  1.00 86.25 LIG 0.09  C 
BRANCH 32 33
ATOM     33  CG  HIS G 421     -38.875 -25.963  34.675  1.00 90.14 LIG 0.06  A 
ATOM     34 ND1  HIS G 421     -37.712 -25.227  34.837  1.00 92.13 LIG-0.24  NA
ATOM     35  CE1 HIS G 421     -38.081 -24.104  35.435  1.00 91.61 LIG 0.23  A 
ATOM     36 NE2  HIS G 421     -39.398 -24.073  35.653  1.00 91.87 LIG-0.25  NA
ATOM     37  CD2 HIS G 421     -39.915 -25.255  35.176  1.00 92.02 LIG 0.14  A 
ENDBRANCH 32 33
ENDBRANCH 31 32
BRANCH 31 38
ATOM     38  C   HIS G 421     -37.134 -29.124  34.187  1.00112.71 LIG 0.22  C 
ATOM     39 O    HIS G 421     -36.165 -29.249  34.933  1.00 75.09 LIG-0.29  OA
ENDBRANCH 31 38
ENDBRANCH 29 31
ENDBRANCH 1 27
TORSDOF 13
ENDMDL
MODEL 2
USER: ADFR SOLUTION from run 150
USER: SCORE 11.150587 LL:  -1.509 LR: -11.236 RR:   0.000 FEB:  -7.358
USER: RMSD 7.244414
USER: SEED 149
USER: STATUS no improvement in best in 10 clusters for 5 generations
USER: GENES 15
USER: genes 0 Translation |==|  0.65578 0.43831 0.40892
USER: genes 1 Rotation |==|  0.75683 0.90929 0.39894 0.57939
USER: genes 2 Torsion [CB]-CA--N-[C] |==|  0.91780
USER: genes 3 Torsion [N]-C--CA-[N] |==|  0.85556
USER: genes 4 Torsion [C]-CA--CB-[OG] |==|  0.79808
USER: genes 5 Torsion [CA]-CB--OG-[HG] |==|  0.06724
USER: genes 6 Torsion [C]-CA--N-[C] |==|  0.72472
USER: genes 7 Torsion [N]-C--CA-[N] |==|  0.41259
USER: genes 8 Torsion [N]-CA--CB-[CG] |==|  0.80427
USER: genes 9 Torsion [CA]-CB--CG-[CD1] |==|  0.05723
USER: genes 10 Torsion [N]-CA--C-[N] |==|  0.74620
USER: genes 11 Torsion [C]-N--CA-[C] |==|  0.51439
USER: genes 12 Torsion [N]-CA--CB-[CG] |==|  0.27318
USER: genes 13 Torsion [CA]-CB--CG-[ND1] |==|  0.39605
USER: genes 14 Torsion [N]-CA--C-[O] |==|  0.97275
ROOT
ATOM      1  CA  TRP G 420     -36.570 -29.368  28.735  1.00 30.19 LIG 0.18  C 
ENDROOT
BRANCH 1 2
ATOM      2  N   TRP G 420     -37.371 -30.134  27.781  1.00 29.90 LIG-0.35  N 
ATOM      3 H    TRP G 420     -36.940 -30.767  27.391  1.00 29.90 LIG 0.16  HD
ATOM      4  C   SER G 419     -38.661 -29.864  27.545  1.00 34.18 LIG 0.24  C 
ATOM      5 O    SER G 419     -39.293 -29.008  28.161  1.00 34.33 LIG-0.27  OA
BRANCH 4 6
ATOM      6  CA  SER G 419     -39.339 -30.671  26.435  1.00 31.26 LIG 0.20  C 
BRANCH 6 7
ATOM      7  CB  SER G 419     -39.542 -32.112  26.904  1.00 37.91 LIG 0.20  C 
BRANCH 7 8
ATOM      8 OG   SER G 419     -38.302 -32.803  26.935  1.00 57.41 LIG-0.40  OA
ATOM      9 HG   SER G 419     -37.675 -32.251  27.019  1.00 57.41 LIG 0.21  HD
ENDBRANCH 7 8
ENDBRANCH 6 7
BRANCH 6 10
ATOM     10  N   SER G 419     -38.579 -30.626  25.185  1.00 31.62 LIG-0.34  N 
ATOM     11 H    SER G 419     -37.915 -31.170  25.146  1.00 31.62 LIG 0.16  HD
ATOM     12  C   GLY G 418     -38.931 -29.783  24.199  1.00 37.47 LIG 0.25  C 
ATOM     13 O    GLY G 418     -39.880 -29.008  24.307  1.00 34.17 LIG-0.27  OA
BRANCH 12 14
ATOM     14  CA  GLY G 418     -38.086 -29.769  22.942  1.00 40.24 LIG 0.47  C 
ATOM     15  N   GLY G 418     -38.825 -29.456  21.724  1.00 42.39 LIG 0.61  N 
ENDBRANCH 12 14
ENDBRANCH 6 10
ENDBRANCH 4 6
ENDBRANCH 1 2
BRANCH 1 16
ATOM     16  CB  TRP G 420     -37.073 -27.931  28.829  1.00 27.27 LIG 0.07  C 
BRANCH 16 17
ATOM     17  CG  TRP G 420     -36.804 -27.090  27.616  1.00 26.68 LIG-0.03  A 
ATOM     18  CD1 TRP G 420     -36.540 -27.525  26.355  1.00 29.02 LIG 0.10  A 
ATOM     19  NE1 TRP G 420     -36.236 -26.458  25.539  1.00 28.83 LIG-0.36  N 
ATOM     20 HE1  TRP G 420     -36.000 -26.511  24.713  1.00 28.83 LIG 0.17  HD
ATOM     21  CE2 TRP G 420     -36.370 -25.298  26.258  1.00 29.48 LIG 0.04  A 
ATOM     22  CD2 TRP G 420     -36.718 -25.661  27.578  1.00 26.13 LIG-0.00  A 
ATOM     23  CZ2 TRP G 420     -36.177 -23.964  25.874  1.00 28.18 LIG 0.03  A 
ATOM     24  CE3 TRP G 420     -36.881 -24.651  28.541  1.00 26.84 LIG 0.01  A 
ATOM     25  CZ3 TRP G 420     -36.707 -23.326  28.153  1.00 27.14 LIG 0.00  A 
ATOM     26  CH2 TRP G 420     -36.356 -23.000  26.840  1.00 27.58 LIG 0.00  A 
ENDBRANCH 16 17
ENDBRANCH 1 16
BRANCH 1 27
ATOM     27  C   TRP G 420     -36.647 -30.040  30.100  1.00 38.21 LIG 0.24  C 
ATOM     28 O    TRP G 420     -35.803 -30.876  30.406  1.00 38.32 LIG-0.27  OA
ATOM     29  N   HIS G 421     -37.616 -29.633  30.938  1.00 36.18 LIG-0.35  N 
ATOM     30 H    HIS G 421     -38.194 -29.031  30.728  1.00 36.18 LIG 0.16  HD
BRANCH 29 31
ATOM     31  CA  HIS G 421     -37.791 -30.167  32.290  1.00 85.07 LIG 0.17  C 
BRANCH 31 32
ATOM     32  CB  HIS G 421     -36.547 -29.891  33.148  1.00 86.25 LIG 0.09  C 
BRANCH 32 33
ATOM     33  CG  HIS G 421     -36.694 -28.690  34.032  1.00 90.14 LIG 0.06  A 
ATOM     34 ND1  HIS G 421     -36.165 -28.667  35.312  1.00 92.13 LIG-0.24  NA
ATOM     35  CE1 HIS G 421     -36.463 -27.472  35.800  1.00 91.61 LIG 0.23  A 
ATOM     36 NE2  HIS G 421     -37.135 -26.733  34.913  1.00 91.87 LIG-0.25  NA
ATOM     37  CD2 HIS G 421     -37.291 -27.501  33.782  1.00 92.02 LIG 0.14  A 
ENDBRANCH 32 33
ENDBRANCH 31 32
BRANCH 31 38
ATOM     38  C   HIS G 421     -39.038 -29.615  32.959  1.00112.71 LIG 0.22  C 
ATOM     39 O    HIS G 421     -39.652 -28.689  32.434  1.00 75.09 LIG-0.29  OA
ENDBRANCH 31 38
ENDBRANCH 29 31
ENDBRANCH 1 27
TORSDOF 13
ENDMDL
MODEL 3
USER: ADFR SOLUTION from run 197
USER: SCORE 11.369013 LL:  -1.831 LR: -11.161 RR:   0.000 FEB:  -7.283
USER: RMSD 6.753790
USER: SEED 196
USER: STATUS no improvement in best in 14 clusters for 5 generations
USER: GENES 15
USER: genes 0 Translation |==|  0.63151 0.44612 0.45832
USER: genes 1 Rotation |==|  0.62148 0.86931 0.21787 0.63877
USER: genes 2 Torsion [CB]-CA--N-[C] |==|  0.44589
USER: genes 3 Torsion [N]-C--CA-[N] |==|  0.24972
USER: genes 4 Torsion [C]-CA--CB-[OG] |==|  0.74010
USER: genes 5 Torsion [CA]-CB--OG-[HG] |==|  0.45207
USER: genes 6 Torsion [C]-CA--N-[C] |==|  0.77750
USER: genes 7 Torsion [N]-C--CA-[N] |==|  0.80020
USER: genes 8 Torsion [N]-CA--CB-[CG] |==|  0.64371
USER: genes 9 Torsion [CA]-CB--CG-[CD1] |==|  0.18648
USER: genes 10 Torsion [N]-CA--C-[N] |==|  0.85002
USER: genes 11 Torsion [C]-N--CA-[C] |==|  0.78402
USER: genes 12 Torsion [N]-CA--CB-[CG] |==|  0.63535
USER: genes 13 Torsion [CA]-CB--CG-[ND1] |==|  0.99612
USER: genes 14 Torsion [N]-CA--C-[O] |==|  0.37912
ROOT
ATOM      1  CA  TRP G 420     -36.916 -29.228  29.846  1.00 30.19 LIG 0.18  C 
ENDROOT
BRANCH 1 2
ATOM      2  N   TRP G 420     -37.476 -30.558  30.077  1.00 29.90 LIG-0.35  N 
ATOM      3 H    TRP G 420     -38.332 -30.595  30.002  1.00 29.90 LIG 0.16  HD
ATOM      4  C   SER G 419     -36.714 -31.617  30.378  1.00 34.18 LIG 0.24  C 
ATOM      5 O    SER G 419     -35.486 -31.576  30.409  1.00 34.33 LIG-0.27  OA
BRANCH 4 6
ATOM      6  CA  SER G 419     -37.448 -32.918  30.710  1.00 31.26 LIG 0.20  C 
BRANCH 6 7
ATOM      7  CB  SER G 419     -36.657 -33.697  31.760  1.00 37.91 LIG 0.20  C 
BRANCH 7 8
ATOM      8 OG   SER G 419     -35.790 -34.632  31.136  1.00 57.41 LIG-0.40  OA
ATOM      9 HG   SER G 419     -35.204 -34.880  31.684  1.00 57.41 LIG 0.21  HD
ENDBRANCH 7 8
ENDBRANCH 6 7
BRANCH 6 10
ATOM     10  N   SER G 419     -37.683 -33.733  29.517  1.00 31.62 LIG-0.34  N 
ATOM     11 H    SER G 419     -37.128 -34.380  29.406  1.00 31.62 LIG 0.16  HD
ATOM     12  C   GLY G 418     -38.702 -33.455  28.685  1.00 37.47 LIG 0.25  C 
ATOM     13 O    GLY G 418     -39.461 -32.505  28.875  1.00 34.17 LIG-0.27  OA
BRANCH 12 14
ATOM     14  CA  GLY G 418     -38.872 -34.322  27.456  1.00 40.24 LIG 0.47  C 
ATOM     15  N   GLY G 418     -37.863 -34.107  26.425  1.00 42.39 LIG 0.61  N 
ENDBRANCH 12 14
ENDBRANCH 6 10
ENDBRANCH 4 6
ENDBRANCH 1 2
BRANCH 1 16
ATOM     16  CB  TRP G 420     -37.901 -28.355  29.075  1.00 27.27 LIG 0.07  C 
BRANCH 16 17
ATOM     17  CG  TRP G 420     -37.334 -27.695  27.854  1.00 26.68 LIG-0.03  A 
ATOM     18  CD1 TRP G 420     -36.918 -28.300  26.709  1.00 29.02 LIG 0.10  A 
ATOM     19  NE1 TRP G 420     -36.355 -27.373  25.860  1.00 28.83 LIG-0.36  N 
ATOM     20 HE1  TRP G 420     -35.992 -27.547  25.099  1.00 28.83 LIG 0.17  HD
ATOM     21  CE2 TRP G 420     -36.465 -26.129  26.425  1.00 29.48 LIG 0.04  A 
ATOM     22  CD2 TRP G 420     -37.069 -26.297  27.691  1.00 26.13 LIG-0.00  A 
ATOM     23  CZ2 TRP G 420     -36.050 -24.877  25.954  1.00 28.18 LIG 0.03  A 
ATOM     24  CE3 TRP G 420     -37.268 -25.168  28.506  1.00 26.84 LIG 0.01  A 
ATOM     25  CZ3 TRP G 420     -36.871 -23.924  28.027  1.00 27.14 LIG 0.00  A 
ATOM     26  CH2 TRP G 420     -36.269 -23.793  26.773  1.00 27.58 LIG 0.00  A 
ENDBRANCH 16 17
ENDBRANCH 1 16
BRANCH 1 27
ATOM     27  C   TRP G 420     -36.588 -28.587  31.189  1.00 38.21 LIG 0.24  C 
ATOM     28 O    TRP G 420     -35.473 -28.111  31.371  1.00 38.32 LIG-0.27  OA
ATOM     29  N   HIS G 421     -37.574 -28.520  32.101  1.00 36.18 LIG-0.35  N 
ATOM     30 H    HIS G 421     -38.362 -28.836  31.963  1.00 36.18 LIG 0.16  HD
BRANCH 29 31
ATOM     31  CA  HIS G 421     -37.412 -27.905  33.420  1.00 85.07 LIG 0.17  C 
BRANCH 31 32
ATOM     32  CB  HIS G 421     -38.775 -27.499  34.001  1.00 86.25 LIG 0.09  C 
BRANCH 32 33
ATOM     33  CG  HIS G 421     -38.798 -26.096  34.525  1.00 90.14 LIG 0.06  A 
ATOM     34 ND1  HIS G 421     -37.669 -25.294  34.494  1.00 92.13 LIG-0.24  NA
ATOM     35  CE1 HIS G 421     -38.039 -24.135  35.015  1.00 91.61 LIG 0.23  A 
ATOM     36 NE2  HIS G 421     -39.329 -24.143  35.365  1.00 91.87 LIG-0.25  NA
ATOM     37  CD2 HIS G 421     -39.822 -25.390  35.060  1.00 92.02 LIG 0.14  A 
ENDBRANCH 32 33
ENDBRANCH 31 32
BRANCH 31 38
ATOM     38  C   HIS G 421     -36.669 -28.817  34.382  1.00112.71 LIG 0.22  C 
ATOM     39 O    HIS G 421     -35.792 -28.352  35.106  1.00 75.09 LIG-0.29  OA
ENDBRANCH 31 38
ENDBRANCH 29 31
ENDBRANCH 1 27
TORSDOF 13
ENDMDL
MODEL 4
USER: ADFR SOLUTION from run 197
USER: SCORE 11.491372 LL:  -1.903 LR: -10.869 RR:   0.000 FEB:  -6.992
USER: RMSD 6.058306
USER: SEED 196
USER: STATUS no improvement in best in 14 clusters for 5 generations
USER: GENES 15
USER: genes 0 Translation |==|  0.63476 0.43982 0.46139
USER: genes 1 Rotation |==|  0.60403 0.86005 0.20386 0.64781
USER: genes 2 Torsion [CB]-CA--N-[C] |==|  0.42740
USER: genes 3 Torsion [N]-C--CA-[N] |==|  0.92782
USER: genes 4 Torsion [C]-CA--CB-[OG] |==|  0.22666
USER: genes 5 Torsion [CA]-CB--OG-[HG] |==|  0.72079
USER: genes 6 Torsion [C]-CA--N-[C] |==|  0.81820
USER: genes 7 Torsion [N]-C--CA-[N] |==|  0.80374
USER: genes 8 Torsion [N]-CA--CB-[CG] |==|  0.62701
USER: genes 9 Torsion [CA]-CB--CG-[CD1] |==|  0.20045
USER: genes 10 Torsion [N]-CA--C-[N] |==|  0.87245
USER: genes 11 Torsion [C]-N--CA-[C] |==|  0.76716
USER: genes 12 Torsion [N]-CA--CB-[CG] |==|  0.62621
USER: genes 13 Torsion [CA]-CB--CG-[ND1] |==|  0.98576
USER: genes 14 Torsion [N]-CA--C-[O] |==|  0.41604
ROOT
ATOM      1  CA  TRP G 420     -36.870 -29.341  29.915  1.00 30.19 LIG 0.18  C 
ENDROOT
BRANCH 1 2
ATOM      2  N   TRP G 420     -37.362 -30.670  30.275  1.00 29.90 LIG-0.35  N 
ATOM      3 H    TRP G 420     -38.219 -30.728  30.307  1.00 29.90 LIG 0.16  HD
ATOM      4  C   SER G 419     -36.541 -31.696  30.530  1.00 34.18 LIG 0.24  C 
ATOM      5 O    SER G 419     -35.319 -31.628  30.409  1.00 34.33 LIG-0.27  OA
BRANCH 4 6
ATOM      6  CA  SER G 419     -37.195 -32.994  31.009  1.00 31.26 LIG 0.20  C 
BRANCH 6 7
ATOM      7  CB  SER G 419     -37.366 -33.947  29.826  1.00 37.91 LIG 0.20  C 
BRANCH 7 8
ATOM      8 OG   SER G 419     -36.152 -34.635  29.563  1.00 57.41 LIG-0.40  OA
ATOM      9 HG   SER G 419     -35.760 -34.274  28.914  1.00 57.41 LIG 0.21  HD
ENDBRANCH 7 8
ENDBRANCH 6 7
BRANCH 6 10
ATOM     10  N   SER G 419     -38.474 -32.748  31.676  1.00 31.62 LIG-0.34  N 
ATOM     11 H    SER G 419     -39.161 -33.066  31.269  1.00 31.62 LIG 0.16  HD
ATOM     12  C   GLY G 418     -38.524 -32.072  32.837  1.00 37.47 LIG 0.25  C 
ATOM     13 O    GLY G 418     -37.515 -31.618  33.374  1.00 34.17 LIG-0.27  OA
BRANCH 12 14
ATOM     14  CA  GLY G 418     -39.883 -31.830  33.459  1.00 40.24 LIG 0.47  C 
ATOM     15  N   GLY G 418     -40.712 -30.869  32.739  1.00 42.39 LIG 0.61  N 
ENDBRANCH 12 14
ENDBRANCH 6 10
ENDBRANCH 4 6
ENDBRANCH 1 2
BRANCH 1 16
ATOM     16  CB  TRP G 420     -37.906 -28.588  29.086  1.00 27.27 LIG 0.07  C 
BRANCH 16 17
ATOM     17  CG  TRP G 420     -37.360 -27.897  27.873  1.00 26.68 LIG-0.03  A 
ATOM     18  CD1 TRP G 420     -36.925 -28.475  26.722  1.00 29.02 LIG 0.10  A 
ATOM     19  NE1 TRP G 420     -36.391 -27.521  25.884  1.00 28.83 LIG-0.36  N 
ATOM     20 HE1  TRP G 420     -36.023 -27.674  25.122  1.00 28.83 LIG 0.17  HD
ATOM     21  CE2 TRP G 420     -36.540 -26.288  26.464  1.00 29.48 LIG 0.04  A 
ATOM     22  CD2 TRP G 420     -37.139 -26.489  27.728  1.00 26.13 LIG-0.00  A 
ATOM     23  CZ2 TRP G 420     -36.165 -25.018  26.008  1.00 28.18 LIG 0.03  A 
ATOM     24  CE3 TRP G 420     -37.373 -25.377  28.555  1.00 26.84 LIG 0.01  A 
ATOM     25  CZ3 TRP G 420     -37.015 -24.115  28.091  1.00 27.14 LIG 0.00  A 
ATOM     26  CH2 TRP G 420     -36.417 -23.951  26.839  1.00 27.58 LIG 0.00  A 
ENDBRANCH 16 17
ENDBRANCH 1 16
BRANCH 1 27
ATOM     27  C   TRP G 420     -36.555 -28.567  31.189  1.00 38.21 LIG 0.24  C 
ATOM     28 O    TRP G 420     -35.526 -27.902  31.248  1.00 38.32 LIG-0.27  OA
ATOM     29  N   HIS G 421     -37.465 -28.603  32.177  1.00 36.18 LIG-0.35  N 
ATOM     30 H    HIS G 421     -38.196 -29.053  32.125  1.00 36.18 LIG 0.16  HD
BRANCH 29 31
ATOM     31  CA  HIS G 421     -37.311 -27.883  33.443  1.00 85.07 LIG 0.17  C 
BRANCH 31 32
ATOM     32  CB  HIS G 421     -38.682 -27.536  34.042  1.00 86.25 LIG 0.09  C 
BRANCH 32 33
ATOM     33  CG  HIS G 421     -38.770 -26.125  34.537  1.00 90.14 LIG 0.06  A 
ATOM     34 ND1  HIS G 421     -37.665 -25.290  34.538  1.00 92.13 LIG-0.24  NA
ATOM     35  CE1 HIS G 421     -38.093 -24.133  35.022  1.00 91.61 LIG 0.23  A 
ATOM     36 NE2  HIS G 421     -39.395 -24.175  35.317  1.00 91.87 LIG-0.25  NA
ATOM     37  CD2 HIS G 421     -39.837 -25.442  35.016  1.00 92.02 LIG 0.14  A 
ENDBRANCH 32 33
ENDBRANCH 31 32
BRANCH 31 38
ATOM     38  C   HIS G 421     -36.471 -28.664  34.440  1.00112.71 LIG 0.22  C 
ATOM     39 O    HIS G 421     -35.790 -28.062  35.266  1.00 75.09 LIG-0.29  OA
ENDBRANCH 31 38
ENDBRANCH 29 31
ENDBRANCH 1 27
TORSDOF 13
ENDMDL
MODEL 5
USER: ADFR SOLUTION from run 119
USER: SCORE 11.043541 LL:  -1.994 LR: -10.859 RR:   0.000 FEB:  -6.981
USER: RMSD 3.016828
USER: SEED 118
USER: STATUS no improvement in best in 16 clusters for 5 generations
USER: GENES 15
USER: genes 0 Translation |==|  0.63321 0.50637 0.47935
USER: genes 1 Rotation |==|  0.34032 0.44778 0.69666 0.92790
USER: genes 2 Torsion [CB]-CA--N-[C] |==|  0.39666
USER: genes 3 Torsion [N]-C--CA-[N] |==|  0.45365
USER: genes 4 Torsion [C]-CA--CB-[OG] |==|  0.29618
USER: genes 5 Torsion [CA]-CB--OG-[HG] |==|  0.00729
USER: genes 6 Torsion [C]-CA--N-[C] |==|  0.74072
USER: genes 7 Torsion [N]-C--CA-[N] |==|  0.45535
USER: genes 8 Torsion [N]-CA--CB-[CG] |==|  0.59074
USER: genes 9 Torsion [CA]-CB--CG-[CD1] |==|  0.79716
USER: genes 10 Torsion [N]-CA--C-[N] |==|  0.13972
USER: genes 11 Torsion [C]-N--CA-[C] |==|  0.18149
USER: genes 12 Torsion [N]-CA--CB-[CG] |==|  0.93922
USER: genes 13 Torsion [CA]-CB--CG-[ND1] |==|  0.84501
USER: genes 14 Torsion [N]-CA--C-[O] |==|  0.86982
ROOT
ATOM      1  CA  TRP G 420     -36.892 -28.143  30.319  1.00 30.19 LIG 0.18  C 
ENDROOT
BRANCH 1 2
ATOM      2  N   TRP G 420     -36.742 -27.883  31.750  1.00 29.90 LIG-0.35  N 
ATOM      3 H    TRP G 420     -35.928 -27.913  32.028  1.00 29.90 LIG 0.16  HD
ATOM      4  C   SER G 419     -37.786 -27.624  32.547  1.00 34.18 LIG 0.24  C 
ATOM      5 O    SER G 419     -38.937 -27.508  32.132  1.00 34.33 LIG-0.27  OA
BRANCH 4 6
ATOM      6  CA  SER G 419     -37.490 -27.490  34.043  1.00 31.26 LIG 0.20  C 
BRANCH 6 7
ATOM      7  CB  SER G 419     -37.196 -28.869  34.630  1.00 37.91 LIG 0.20  C 
BRANCH 7 8
ATOM      8 OG   SER G 419     -35.810 -29.007  34.905  1.00 57.41 LIG-0.40  OA
ATOM      9 HG   SER G 419     -35.415 -28.288  34.725  1.00 57.41 LIG 0.21  HD
ENDBRANCH 7 8
ENDBRANCH 6 7
BRANCH 6 10
ATOM     10  N   SER G 419     -38.584 -26.835  34.760  1.00 31.62 LIG-0.34  N 
ATOM     11 H    SER G 419     -39.209 -27.362  35.026  1.00 31.62 LIG 0.16  HD
ATOM     12  C   GLY G 418     -38.572 -25.506  34.965  1.00 37.47 LIG 0.25  C 
ATOM     13 O    GLY G 418     -37.665 -24.787  34.549  1.00 34.17 LIG-0.27  OA
BRANCH 12 14
ATOM     14  CA  GLY G 418     -39.749 -24.889  35.692  1.00 40.24 LIG 0.47  C 
ATOM     15  N   GLY G 418     -39.505 -23.543  36.197  1.00 42.39 LIG 0.61  N 
ENDBRANCH 12 14
ENDBRANCH 6 10
ENDBRANCH 4 6
ENDBRANCH 1 2
BRANCH 1 16
ATOM     16  CB  TRP G 420     -35.736 -27.528  29.536  1.00 27.27 LIG 0.07  C 
BRANCH 16 17
ATOM     17  CG  TRP G 420     -36.094 -27.043  28.163  1.00 26.68 LIG-0.03  A 
ATOM     18  CD1 TRP G 420     -36.358 -27.801  27.065  1.00 29.02 LIG 0.10  A 
ATOM     19  NE1 TRP G 420     -36.534 -26.995  25.963  1.00 28.83 LIG-0.36  N 
ATOM     20 HE1  TRP G 420     -36.672 -27.269  25.159  1.00 28.83 LIG 0.17  HD
ATOM     21  CE2 TRP G 420     -36.454 -25.684  26.355  1.00 29.48 LIG 0.04  A 
ATOM     22  CD2 TRP G 420     -36.165 -25.678  27.738  1.00 26.13 LIG-0.00  A 
ATOM     23  CZ2 TRP G 420     -36.570 -24.503  25.610  1.00 28.18 LIG 0.03  A 
ATOM     24  CE3 TRP G 420     -35.993 -24.445  28.393  1.00 26.84 LIG 0.01  A 
ATOM     25  CZ3 TRP G 420     -36.126 -23.275  27.652  1.00 27.14 LIG 0.00  A 
ATOM     26  CH2 TRP G 420     -36.405 -23.315  26.284  1.00 27.58 LIG 0.00  A 
ENDBRANCH 16 17
ENDBRANCH 1 16
BRANCH 1 27
ATOM     27  C   TRP G 420     -36.937 -29.649  30.090  1.00 38.21 LIG 0.24  C 
ATOM     28 O    TRP G 420     -36.165 -30.157  29.284  1.00 38.32 LIG-0.27  OA
ATOM     29  N   HIS G 421     -37.794 -30.364  30.840  1.00 36.18 LIG-0.35  N 
ATOM     30 H    HIS G 421     -38.320 -30.007  31.419  1.00 36.18 LIG 0.16  HD
BRANCH 29 31
ATOM     31  CA  HIS G 421     -37.923 -31.820  30.750  1.00 85.07 LIG 0.17  C 
BRANCH 31 32
ATOM     32  CB  HIS G 421     -38.307 -32.245  29.325  1.00 86.25 LIG 0.09  C 
BRANCH 32 33
ATOM     33  CG  HIS G 421     -38.951 -31.148  28.535  1.00 90.14 LIG 0.06  A 
ATOM     34 ND1  HIS G 421     -40.083 -30.495  28.996  1.00 92.13 LIG-0.24  NA
ATOM     35  CE1 HIS G 421     -40.374 -29.591  28.072  1.00 91.61 LIG 0.23  A 
ATOM     36 NE2  HIS G 421     -39.500 -29.621  27.063  1.00 91.87 LIG-0.25  NA
ATOM     37  CD2 HIS G 421     -38.589 -30.612  27.345  1.00 92.02 LIG 0.14  A 
ENDBRANCH 32 33
ENDBRANCH 31 32
BRANCH 31 38
ATOM     38  C   HIS G 421     -36.656 -32.529  31.199  1.00112.71 LIG 0.22  C 
ATOM     39 O    HIS G 421     -35.565 -32.146  30.784  1.00 75.09 LIG-0.29  OA
ENDBRANCH 31 38
ENDBRANCH 29 31
ENDBRANCH 1 27
TORSDOF 13
ENDMDL
MODEL 6
USER: ADFR SOLUTION from run 144
USER: SCORE 11.288417 LL:  -1.848 LR: -10.802 RR:   0.000 FEB:  -6.924
USER: RMSD 7.385169
USER: SEED 143
USER: STATUS no improvement in best in 35 clusters for 5 generations
USER: GENES 15
USER: genes 0 Translation |==|  0.65048 0.44696 0.41539
USER: genes 1 Rotation |==|  0.73336 0.92568 0.38329 0.52683
USER: genes 2 Torsion [CB]-CA--N-[C] |==|  0.18489
USER: genes 3 Torsion [N]-C--CA-[N] |==|  0.60958
USER: genes 4 Torsion [C]-CA--CB-[OG] |==|  0.72726
USER: genes 5 Torsion [CA]-CB--OG-[HG] |==|  0.29038
USER: genes 6 Torsion [C]-CA--N-[C] |==|  0.76797
USER: genes 7 Torsion [N]-C--CA-[N] |==|  0.80268
USER: genes 8 Torsion [N]-CA--CB-[CG] |==|  0.59674
USER: genes 9 Torsion [CA]-CB--CG-[CD1] |==|  0.89276
USER: genes 10 Torsion [N]-CA--C-[N] |==|  0.02543
USER: genes 11 Torsion [C]-N--CA-[C] |==|  0.55487
USER: genes 12 Torsion [N]-CA--CB-[CG] |==|  0.72056
USER: genes 13 Torsion [CA]-CB--CG-[ND1] |==|  0.77896
USER: genes 14 Torsion [N]-CA--C-[O] |==|  0.28019
ROOT
ATOM      1  CA  TRP G 420     -36.646 -29.213  28.880  1.00 30.19 LIG 0.18  C 
ENDROOT
BRANCH 1 2
ATOM      2  N   TRP G 420     -37.607 -29.982  28.092  1.00 29.90 LIG-0.35  N 
ATOM      3 H    TRP G 420     -37.943 -30.654  28.508  1.00 29.90 LIG 0.16  HD
ATOM      4  C   SER G 419     -37.927 -29.657  26.832  1.00 34.18 LIG 0.24  C 
ATOM      5 O    SER G 419     -37.501 -28.652  26.267  1.00 34.33 LIG-0.27  OA
BRANCH 4 6
ATOM      6  CA  SER G 419     -38.856 -30.622  26.091  1.00 31.26 LIG 0.20  C 
BRANCH 6 7
ATOM      7  CB  SER G 419     -38.884 -31.964  26.820  1.00 37.91 LIG 0.20  C 
BRANCH 7 8
ATOM      8 OG   SER G 419     -38.000 -32.885  26.199  1.00 57.41 LIG-0.40  OA
ATOM      9 HG   SER G 419     -37.307 -32.969  26.667  1.00 57.41 LIG 0.21  HD
ENDBRANCH 7 8
ENDBRANCH 6 7
BRANCH 6 10
ATOM     10  N   SER G 419     -38.465 -30.791  24.691  1.00 31.62 LIG-0.34  N 
ATOM     11 H    SER G 419     -37.978 -31.481  24.533  1.00 31.62 LIG 0.16  HD
ATOM     12  C   GLY G 418     -38.859 -29.908  23.757  1.00 37.47 LIG 0.25  C 
ATOM     13 O    GLY G 418     -39.540 -28.922  24.034  1.00 34.17 LIG-0.27  OA
BRANCH 12 14
ATOM     14  CA  GLY G 418     -38.396 -30.129  22.332  1.00 40.24 LIG 0.47  C 
ATOM     15  N   GLY G 418     -36.976 -29.876  22.116  1.00 42.39 LIG 0.61  N 
ENDBRANCH 12 14
ENDBRANCH 6 10
ENDBRANCH 4 6
ENDBRANCH 1 2
BRANCH 1 16
ATOM     16  CB  TRP G 420     -37.185 -27.816  29.175  1.00 27.27 LIG 0.07  C 
BRANCH 16 17
ATOM     17  CG  TRP G 420     -36.148 -26.734  29.206  1.00 26.68 LIG-0.03  A 
ATOM     18  CD1 TRP G 420     -34.887 -26.816  29.711  1.00 29.02 LIG 0.10  A 
ATOM     19  NE1 TRP G 420     -34.275 -25.583  29.659  1.00 28.83 LIG-0.36  N 
ATOM     20 HE1  TRP G 420     -33.490 -25.401  29.961  1.00 28.83 LIG 0.17  HD
ATOM     21  CE2 TRP G 420     -35.120 -24.694  29.047  1.00 29.48 LIG 0.04  A 
ATOM     22  CD2 TRP G 420     -36.317 -25.385  28.757  1.00 26.13 LIG-0.00  A 
ATOM     23  CZ2 TRP G 420     -34.953 -23.333  28.758  1.00 28.18 LIG 0.03  A 
ATOM     24  CE3 TRP G 420     -37.378 -24.686  28.154  1.00 26.84 LIG 0.01  A 
ATOM     25  CZ3 TRP G 420     -37.202 -23.339  27.853  1.00 27.14 LIG 0.00  A 
ATOM     26  CH2 TRP G 420     -36.007 -22.683  28.159  1.00 27.58 LIG 0.00  A 
ENDBRANCH 16 17
ENDBRANCH 1 16
BRANCH 1 27
ATOM     27  C   TRP G 420     -36.367 -29.953  30.183  1.00 38.21 LIG 0.24  C 
ATOM     28 O    TRP G 420     -35.766 -29.377  31.084  1.00 38.32 LIG-0.27  OA
ATOM     29  N   HIS G 421     -36.856 -31.199  30.304  1.00 36.18 LIG-0.35  N 
ATOM     30 H    HIS G 421     -37.295 -31.593  29.679  1.00 36.18 LIG 0.16  HD
BRANCH 29 31
ATOM     31  CA  HIS G 421     -36.692 -32.016  31.508  1.00 85.07 LIG 0.17  C 
BRANCH 31 32
ATOM     32  CB  HIS G 421     -37.640 -31.542  32.620  1.00 86.25 LIG 0.09  C 
BRANCH 32 33
ATOM     33  CG  HIS G 421     -36.963 -30.689  33.649  1.00 90.14 LIG 0.06  A 
ATOM     34 ND1  HIS G 421     -36.199 -31.248  34.660  1.00 92.13 LIG-0.24  NA
ATOM     35  CE1 HIS G 421     -35.748 -30.226  35.372  1.00 91.61 LIG 0.23  A 
ATOM     36 NE2  HIS G 421     -36.165 -29.058  34.875  1.00 91.87 LIG-0.25  NA
ATOM     37  CD2 HIS G 421     -36.944 -29.342  33.777  1.00 92.02 LIG 0.14  A 
ENDBRANCH 32 33
ENDBRANCH 31 32
BRANCH 31 38
ATOM     38  C   HIS G 421     -36.898 -33.494  31.221  1.00112.71 LIG 0.22  C 
ATOM     39 O    HIS G 421     -35.923 -34.231  31.092  1.00 75.09 LIG-0.29  OA
ENDBRANCH 31 38
ENDBRANCH 29 31
ENDBRANCH 1 27
TORSDOF 13
ENDMDL
MODEL 7
USER: ADFR SOLUTION from run 127
USER: SCORE 12.341107 LL:  -2.217 LR: -10.742 RR:   0.000 FEB:  -6.864
USER: RMSD 7.036429
USER: SEED 126
USER: STATUS no improvement in best in 10 clusters for 5 generations
USER: GENES 15
USER: genes 0 Translation |==|  0.66754 0.47654 0.47466
USER: genes 1 Rotation |==|  0.86244 0.65303 0.35954 0.77476
USER: genes 2 Torsion [CB]-CA--N-[C] |==|  0.51982
USER: genes 3 Torsion [N]-C--CA-[N] |==|  0.99742
USER: genes 4 Torsion [C]-CA--CB-[OG] |==|  0.61703
USER: genes 5 Torsion [CA]-CB--OG-[HG] |==|  0.21968
USER: genes 6 Torsion [C]-CA--N-[C] |==|  0.73551
USER: genes 7 Torsion [N]-C--CA-[N] |==|  0.40936
USER: genes 8 Torsion [N]-CA--CB-[CG] |==|  0.11767
USER: genes 9 Torsion [CA]-CB--CG-[CD1] |==|  0.81317
USER: genes 10 Torsion [N]-CA--C-[N] |==|  0.36111
USER: genes 11 Torsion [C]-N--CA-[C] |==|  0.73444
USER: genes 12 Torsion [N]-CA--CB-[CG] |==|  0.14547
USER: genes 13 Torsion [CA]-CB--CG-[ND1] |==|  0.30041
USER: genes 14 Torsion [N]-CA--C-[O] |==|  0.70827
ROOT
ATOM      1  CA  TRP G 420     -36.403 -28.680  30.214  1.00 30.19 LIG 0.18  C 
ENDROOT
BRANCH 1 2
ATOM      2  N   TRP G 420     -37.011 -29.602  29.256  1.00 29.90 LIG-0.35  N 
ATOM      3 H    TRP G 420     -36.679 -29.554  28.465  1.00 29.90 LIG 0.16  HD
ATOM      4  C   SER G 419     -37.999 -30.441  29.594  1.00 34.18 LIG 0.24  C 
ATOM      5 O    SER G 419     -38.419 -30.559  30.743  1.00 34.33 LIG-0.27  OA
BRANCH 4 6
ATOM      6  CA  SER G 419     -38.619 -31.261  28.460  1.00 31.26 LIG 0.20  C 
BRANCH 6 7
ATOM      7  CB  SER G 419     -38.498 -32.750  28.782  1.00 37.91 LIG 0.20  C 
BRANCH 7 8
ATOM      8 OG   SER G 419     -38.120 -33.480  27.624  1.00 57.41 LIG-0.40  OA
ATOM      9 HG   SER G 419     -37.294 -33.396  27.497  1.00 57.41 LIG 0.21  HD
ENDBRANCH 7 8
ENDBRANCH 6 7
BRANCH 6 10
ATOM     10  N   SER G 419     -38.011 -30.952  27.165  1.00 31.62 LIG-0.34  N 
ATOM     11 H    SER G 419     -37.290 -31.386  26.992  1.00 31.62 LIG 0.16  HD
ATOM     12  C   GLY G 418     -38.572 -30.049  26.342  1.00 37.47 LIG 0.25  C 
ATOM     13 O    GLY G 418     -39.596 -29.437  26.641  1.00 34.17 LIG-0.27  OA
BRANCH 12 14
ATOM     14  CA  GLY G 418     -37.876 -29.758  25.029  1.00 40.24 LIG 0.47  C 
ATOM     15  N   GLY G 418     -38.778 -29.428  23.931  1.00 42.39 LIG 0.61  N 
ENDBRANCH 12 14
ENDBRANCH 6 10
ENDBRANCH 4 6
ENDBRANCH 1 2
BRANCH 1 16
ATOM     16  CB  TRP G 420     -35.435 -27.734  29.510  1.00 27.27 LIG 0.07  C 
BRANCH 16 17
ATOM     17  CG  TRP G 420     -35.926 -27.190  28.202  1.00 26.68 LIG-0.03  A 
ATOM     18  CD1 TRP G 420     -36.140 -27.882  27.051  1.00 29.02 LIG 0.10  A 
ATOM     19  NE1 TRP G 420     -36.482 -27.018  26.034  1.00 28.83 LIG-0.36  N 
ATOM     20 HE1  TRP G 420     -36.622 -27.240  25.215  1.00 28.83 LIG 0.17  HD
ATOM     21  CE2 TRP G 420     -36.561 -25.747  26.541  1.00 29.48 LIG 0.04  A 
ATOM     22  CD2 TRP G 420     -36.205 -25.817  27.906  1.00 26.13 LIG-0.00  A 
ATOM     23  CZ2 TRP G 420     -36.874 -24.535  25.910  1.00 28.18 LIG 0.03  A 
ATOM     24  CE3 TRP G 420     -36.168 -24.632  28.662  1.00 26.84 LIG 0.01  A 
ATOM     25  CZ3 TRP G 420     -36.498 -23.433  28.037  1.00 27.14 LIG 0.00  A 
ATOM     26  CH2 TRP G 420     -36.839 -23.397  26.682  1.00 27.58 LIG 0.00  A 
ENDBRANCH 16 17
ENDBRANCH 1 16
BRANCH 1 27
ATOM     27  C   TRP G 420     -37.503 -27.885  30.906  1.00 38.21 LIG 0.24  C 
ATOM     28 O    TRP G 420     -38.393 -27.379  30.232  1.00 38.32 LIG-0.27  OA
ATOM     29  N   HIS G 421     -37.475 -27.829  32.249  1.00 36.18 LIG-0.35  N 
ATOM     30 H    HIS G 421     -36.861 -28.202  32.721  1.00 36.18 LIG 0.16  HD
BRANCH 29 31
ATOM     31  CA  HIS G 421     -38.482 -27.128  33.048  1.00 85.07 LIG 0.17  C 
BRANCH 31 32
ATOM     32  CB  HIS G 421     -38.825 -27.928  34.314  1.00 86.25 LIG 0.09  C 
BRANCH 32 33
ATOM     33  CG  HIS G 421     -37.619 -28.312  35.114  1.00 90.14 LIG 0.06  A 
ATOM     34 ND1  HIS G 421     -37.336 -27.708  36.329  1.00 92.13 LIG-0.24  NA
ATOM     35  CE1 HIS G 421     -36.225 -28.283  36.763  1.00 91.61 LIG 0.23  A 
ATOM     36 NE2  HIS G 421     -35.790 -29.217  35.912  1.00 91.87 LIG-0.25  NA
ATOM     37  CD2 HIS G 421     -36.670 -29.242  34.855  1.00 92.02 LIG 0.14  A 
ENDBRANCH 32 33
ENDBRANCH 31 32
BRANCH 31 38
ATOM     38  C   HIS G 421     -38.041 -25.719  33.406  1.00112.71 LIG 0.22  C 
ATOM     39 O    HIS G 421     -37.664 -25.471  34.550  1.00 75.09 LIG-0.29  OA
ENDBRANCH 31 38
ENDBRANCH 29 31
ENDBRANCH 1 27
TORSDOF 13
ENDMDL
MODEL 8
USER: ADFR SOLUTION from run 4
USER: SCORE 11.892190 LL:  -2.006 LR: -10.696 RR:   0.000 FEB:  -6.818
USER: RMSD 6.903293
USER: SEED 929355
USER: STATUS no improvement in best in 14 clusters for 5 generations
USER: GENES 15
USER: genes 0 Translation |==|  0.62625 0.42530 0.39700
USER: genes 1 Rotation |==|  0.80493 0.82406 0.35767 0.67818
USER: genes 2 Torsion [CB]-CA--N-[C] |==|  0.86628
USER: genes 3 Torsion [N]-C--CA-[N] |==|  0.80000
USER: genes 4 Torsion [C]-CA--CB-[OG] |==|  0.78204
USER: genes 5 Torsion [CA]-CB--OG-[HG] |==|  0.20042
USER: genes 6 Torsion [C]-CA--N-[C] |==|  0.80079
USER: genes 7 Torsion [N]-C--CA-[N] |==|  0.44266
USER: genes 8 Torsion [N]-CA--CB-[CG] |==|  0.53383
USER: genes 9 Torsion [CA]-CB--CG-[CD1] |==|  0.01608
USER: genes 10 Torsion [N]-CA--C-[N] |==|  0.37010
USER: genes 11 Torsion [C]-N--CA-[C] |==|  0.66899
USER: genes 12 Torsion [N]-CA--CB-[CG] |==|  0.92479
USER: genes 13 Torsion [CA]-CB--CG-[ND1] |==|  0.85662
USER: genes 14 Torsion [N]-CA--C-[O] |==|  0.73557
ROOT
ATOM      1  CA  TRP G 420     -36.991 -29.603  28.467  1.00 30.19 LIG 0.18  C 
ENDROOT
BRANCH 1 2
ATOM      2  N   TRP G 420     -37.716 -30.508  27.577  1.00 29.90 LIG-0.35  N 
ATOM      3 H    TRP G 420     -37.294 -31.236  27.398  1.00 29.90 LIG 0.16  HD
ATOM      4  C   SER G 419     -38.930 -30.220  27.090  1.00 34.18 LIG 0.24  C 
ATOM      5 O    SER G 419     -39.561 -29.214  27.409  1.00 34.33 LIG-0.27  OA
BRANCH 4 6
ATOM      6  CA  SER G 419     -39.515 -31.207  26.078  1.00 31.26 LIG 0.20  C 
BRANCH 6 7
ATOM      7  CB  SER G 419     -39.451 -32.622  26.651  1.00 37.91 LIG 0.20  C 
BRANCH 7 8
ATOM      8 OG   SER G 419     -38.137 -33.148  26.532  1.00 57.41 LIG-0.40  OA
ATOM      9 HG   SER G 419     -37.631 -32.763  27.081  1.00 57.41 LIG 0.21  HD
ENDBRANCH 7 8
ENDBRANCH 6 7
BRANCH 6 10
ATOM     10  N   SER G 419     -38.835 -31.131  24.785  1.00 31.62 LIG-0.34  N 
ATOM     11 H    SER G 419     -38.331 -31.803  24.602  1.00 31.62 LIG 0.16  HD
ATOM     12  C   GLY G 418     -39.014 -30.072  23.976  1.00 37.47 LIG 0.25  C 
ATOM     13 O    GLY G 418     -39.731 -29.123  24.289  1.00 34.17 LIG-0.27  OA
BRANCH 12 14
ATOM     14  CA  GLY G 418     -38.259 -30.046  22.663  1.00 40.24 LIG 0.47  C 
ATOM     15  N   GLY G 418     -38.832 -29.158  21.658  1.00 42.39 LIG 0.61  N 
ENDBRANCH 12 14
ENDBRANCH 6 10
ENDBRANCH 4 6
ENDBRANCH 1 2
BRANCH 1 16
ATOM     16  CB  TRP G 420     -36.997 -28.182  27.910  1.00 27.27 LIG 0.07  C 
BRANCH 16 17
ATOM     17  CG  TRP G 420     -36.049 -27.237  28.587  1.00 26.68 LIG-0.03  A 
ATOM     18  CD1 TRP G 420     -35.131 -27.537  29.544  1.00 29.02 LIG 0.10  A 
ATOM     19  NE1 TRP G 420     -34.527 -26.387  30.000  1.00 28.83 LIG-0.36  N 
ATOM     20 HE1  TRP G 420     -33.945 -26.344  30.632  1.00 28.83 LIG 0.17  HD
ATOM     21  CE2 TRP G 420     -35.006 -25.321  29.284  1.00 29.48 LIG 0.04  A 
ATOM     22  CD2 TRP G 420     -35.979 -25.821  28.389  1.00 26.13 LIG-0.00  A 
ATOM     23  CZ2 TRP G 420     -34.701 -23.956  29.371  1.00 28.18 LIG 0.03  A 
ATOM     24  CE3 TRP G 420     -36.661 -24.920  27.552  1.00 26.84 LIG 0.01  A 
ATOM     25  CZ3 TRP G 420     -36.342 -23.568  27.628  1.00 27.14 LIG 0.00  A 
ATOM     26  CH2 TRP G 420     -35.380 -23.104  28.530  1.00 27.58 LIG 0.00  A 
ENDBRANCH 16 17
ENDBRANCH 1 16
BRANCH 1 27
ATOM     27  C   TRP G 420     -37.644 -29.630  29.843  1.00 38.21 LIG 0.24  C 
ATOM     28 O    TRP G 420     -38.867 -29.596  29.928  1.00 38.32 LIG-0.27  OA
ATOM     29  N   HIS G 421     -36.836 -29.752  30.910  1.00 36.18 LIG-0.35  N 
ATOM     30 H    HIS G 421     -35.980 -29.796  30.846  1.00 36.18 LIG 0.16  HD
BRANCH 29 31
ATOM     31  CA  HIS G 421     -37.325 -29.822  32.288  1.00 85.07 LIG 0.17  C 
BRANCH 31 32
ATOM     32  CB  HIS G 421     -36.969 -31.175  32.923  1.00 86.25 LIG 0.09  C 
BRANCH 32 33
ATOM     33  CG  HIS G 421     -36.829 -32.279  31.921  1.00 90.14 LIG 0.06  A 
ATOM     34 ND1  HIS G 421     -37.818 -32.535  30.986  1.00 92.13 LIG-0.24  NA
ATOM     35  CE1 HIS G 421     -37.372 -33.552  30.264  1.00 91.61 LIG 0.23  A 
ATOM     36 NE2  HIS G 421     -36.163 -33.950  30.671  1.00 91.87 LIG-0.25  NA
ATOM     37  CD2 HIS G 421     -35.808 -33.147  31.729  1.00 92.02 LIG 0.14  A 
ENDBRANCH 32 33
ENDBRANCH 31 32
BRANCH 31 38
ATOM     38  C   HIS G 421     -36.797 -28.676  33.135  1.00112.71 LIG 0.22  C 
ATOM     39 O    HIS G 421     -35.790 -28.838  33.820  1.00 75.09 LIG-0.29  OA
ENDBRANCH 31 38
ENDBRANCH 29 31
ENDBRANCH 1 27
TORSDOF 13
ENDMDL
MODEL 9
USER: ADFR SOLUTION from run 28
USER: SCORE 10.893228 LL:  -1.303 LR: -10.658 RR:   0.000 FEB:  -6.780
USER: RMSD 7.180944
USER: SEED 27
USER: STATUS no improvement in best in 26 clusters for 5 generations
USER: GENES 15
USER: genes 0 Translation |==|  0.58366 0.50171 0.46545
USER: genes 1 Rotation |==|  0.19622 0.20348 0.76220 0.53226
USER: genes 2 Torsion [CB]-CA--N-[C] |==|  0.24422
USER: genes 3 Torsion [N]-C--CA-[N] |==|  0.49444
USER: genes 4 Torsion [C]-CA--CB-[OG] |==|  0.86909
USER: genes 5 Torsion [CA]-CB--OG-[HG] |==|  0.65869
USER: genes 6 Torsion [C]-CA--N-[C] |==|  0.59155
USER: genes 7 Torsion [N]-C--CA-[N] |==|  0.54139
USER: genes 8 Torsion [N]-CA--CB-[CG] |==|  0.74256
USER: genes 9 Torsion [CA]-CB--CG-[CD1] |==|  0.98033
USER: genes 10 Torsion [N]-CA--C-[N] |==|  0.86022
USER: genes 11 Torsion [C]-N--CA-[C] |==|  0.90501
USER: genes 12 Torsion [N]-CA--CB-[CG] |==|  0.78066
USER: genes 13 Torsion [CA]-CB--CG-[ND1] |==|  0.92818
USER: genes 14 Torsion [N]-CA--C-[O] |==|  0.40324
ROOT
ATOM      1  CA  TRP G 420     -37.598 -28.227  30.007  1.00 30.19 LIG 0.18  C 
ENDROOT
BRANCH 1 2
ATOM      2  N   TRP G 420     -39.041 -28.462  29.992  1.00 29.90 LIG-0.35  N 
ATOM      3 H    TRP G 420     -39.427 -28.314  30.746  1.00 29.90 LIG 0.16  HD
ATOM      4  C   SER G 419     -39.692 -28.871  28.895  1.00 34.18 LIG 0.24  C 
ATOM      5 O    SER G 419     -39.148 -29.009  27.801  1.00 34.33 LIG-0.27  OA
BRANCH 4 6
ATOM      6  CA  SER G 419     -41.179 -29.190  29.060  1.00 31.26 LIG 0.20  C 
BRANCH 6 7
ATOM      7  CB  SER G 419     -41.353 -30.280  30.117  1.00 37.91 LIG 0.20  C 
BRANCH 7 8
ATOM      8 OG   SER G 419     -40.444 -31.346  29.886  1.00 57.41 LIG-0.40  OA
ATOM      9 HG   SER G 419     -40.870 -32.064  29.798  1.00 57.41 LIG 0.21  HD
ENDBRANCH 7 8
ENDBRANCH 6 7
BRANCH 6 10
ATOM     10  N   SER G 419     -41.799 -29.581  27.794  1.00 31.62 LIG-0.34  N 
ATOM     11 H    SER G 419     -41.282 -30.007  27.255  1.00 31.62 LIG 0.16  HD
ATOM     12  C   GLY G 418     -43.082 -29.276  27.534  1.00 37.47 LIG 0.25  C 
ATOM     13 O    GLY G 418     -43.779 -28.647  28.328  1.00 34.17 LIG-0.27  OA
BRANCH 12 14
ATOM     14  CA  GLY G 418     -43.652 -29.688  26.193  1.00 40.24 LIG 0.47  C 
ATOM     15  N   GLY G 418     -44.912 -29.037  25.850  1.00 42.39 LIG 0.61  N 
ENDBRANCH 12 14
ENDBRANCH 6 10
ENDBRANCH 4 6
ENDBRANCH 1 2
BRANCH 1 16
ATOM     16  CB  TRP G 420     -37.280 -26.796  29.584  1.00 27.27 LIG 0.07  C 
BRANCH 16 17
ATOM     17  CG  TRP G 420     -37.009 -26.618  28.120  1.00 26.68 LIG-0.03  A 
ATOM     18  CD1 TRP G 420     -36.886 -27.594  27.181  1.00 29.02 LIG 0.10  A 
ATOM     19  NE1 TRP G 420     -36.525 -27.045  25.970  1.00 28.83 LIG-0.36  N 
ATOM     20 HE1  TRP G 420     -36.357 -27.486  25.251  1.00 28.83 LIG 0.17  HD
ATOM     21  CE2 TRP G 420     -36.477 -25.681  26.099  1.00 29.48 LIG 0.04  A 
ATOM     22  CD2 TRP G 420     -36.766 -25.377  27.448  1.00 26.13 LIG-0.00  A 
ATOM     23  CZ2 TRP G 420     -36.165 -24.690  25.159  1.00 28.18 LIG 0.03  A 
ATOM     24  CE3 TRP G 420     -36.747 -24.034  27.862  1.00 26.84 LIG 0.01  A 
ATOM     25  CZ3 TRP G 420     -36.454 -23.051  26.922  1.00 27.14 LIG 0.00  A 
ATOM     26  CH2 TRP G 420     -36.165 -23.386  25.596  1.00 27.58 LIG 0.00  A 
ENDBRANCH 16 17
ENDBRANCH 1 16
BRANCH 1 27
ATOM     27  C   TRP G 420     -37.067 -28.489  31.411  1.00 38.21 LIG 0.24  C 
ATOM     28 O    TRP G 420     -36.063 -29.179  31.554  1.00 38.32 LIG-0.27  OA
ATOM     29  N   HIS G 421     -37.700 -27.890  32.434  1.00 36.18 LIG-0.35  N 
ATOM     30 H    HIS G 421     -38.390 -27.389  32.329  1.00 36.18 LIG 0.16  HD
BRANCH 29 31
ATOM     31  CA  HIS G 421     -37.282 -28.026  33.831  1.00 85.07 LIG 0.17  C 
BRANCH 31 32
ATOM     32  CB  HIS G 421     -38.447 -27.709  34.780  1.00 86.25 LIG 0.09  C 
BRANCH 32 33
ATOM     33  CG  HIS G 421     -38.684 -26.240  34.955  1.00 90.14 LIG 0.06  A 
ATOM     34 ND1  HIS G 421     -37.666 -25.318  34.776  1.00 92.13 LIG-0.24  NA
ATOM     35  CE1 HIS G 421     -38.215 -24.133  34.993  1.00 91.61 LIG 0.23  A 
ATOM     36 NE2  HIS G 421     -39.514 -24.240  35.288  1.00 91.87 LIG-0.25  NA
ATOM     37  CD2 HIS G 421     -39.823 -25.580  35.270  1.00 92.02 LIG 0.14  A 
ENDBRANCH 32 33
ENDBRANCH 31 32
BRANCH 31 38
ATOM     38  C   HIS G 421     -36.713 -29.405  34.120  1.00112.71 LIG 0.22  C 
ATOM     39 O    HIS G 421     -35.791 -29.527  34.922  1.00 75.09 LIG-0.29  OA
ENDBRANCH 31 38
ENDBRANCH 29 31
ENDBRANCH 1 27
TORSDOF 13
ENDMDL
MODEL 10
USER: ADFR SOLUTION from run 5
USER: SCORE 10.247305 LL:  -1.726 LR: -10.647 RR:   0.000 FEB:  -6.769
USER: RMSD 6.385873
USER: SEED 701690
USER: STATUS no improvement in best in 28 clusters for 5 generations
USER: GENES 15
USER: genes 0 Translation |==|  0.65552 0.46845 0.52337
USER: genes 1 Rotation |==|  0.72352 0.87023 0.30961 0.66346
USER: genes 2 Torsion [CB]-CA--N-[C] |==|  0.36933
USER: genes 3 Torsion [N]-C--CA-[N] |==|  0.76111
USER: genes 4 Torsion [C]-CA--CB-[OG] |==|  0.19110
USER: genes 5 Torsion [CA]-CB--OG-[HG] |==|  0.06063
USER: genes 6 Torsion [C]-CA--N-[C] |==|  0.73039
USER: genes 7 Torsion [N]-C--CA-[N] |==|  0.59519
USER: genes 8 Torsion [N]-CA--CB-[CG] |==|  0.82568
USER: genes 9 Torsion [CA]-CB--CG-[CD1] |==|  0.06137
USER: genes 10 Torsion [N]-CA--C-[N] |==|  0.83972
USER: genes 11 Torsion [C]-N--CA-[C] |==|  0.47601
USER: genes 12 Torsion [N]-CA--CB-[CG] |==|  0.23285
USER: genes 13 Torsion [CA]-CB--CG-[ND1] |==|  0.72936
USER: genes 14 Torsion [N]-CA--C-[O] |==|  0.93524
ROOT
ATOM      1  CA  TRP G 420     -36.574 -28.826  31.310  1.00 30.19 LIG 0.18  C 
ENDROOT
BRANCH 1 2
ATOM      2  N   TRP G 420     -37.267 -30.013  30.811  1.00 29.90 LIG-0.35  N 
ATOM      3 H    TRP G 420     -38.122 -29.932  30.783  1.00 29.90 LIG 0.16  HD
ATOM      4  C   SER G 419     -36.616 -31.121  30.435  1.00 34.18 LIG 0.24  C 
ATOM      5 O    SER G 419     -35.390 -31.204  30.406  1.00 34.33 LIG-0.27  OA
BRANCH 4 6
ATOM      6  CA  SER G 419     -37.478 -32.324  30.048  1.00 31.26 LIG 0.20  C 
BRANCH 6 7
ATOM      7  CB  SER G 419     -38.719 -31.842  29.297  1.00 37.91 LIG 0.20  C 
BRANCH 7 8
ATOM      8 OG   SER G 419     -38.359 -31.324  28.025  1.00 57.41 LIG-0.40  OA
ATOM      9 HG   SER G 419     -37.615 -31.636  27.794  1.00 57.41 LIG 0.21  HD
ENDBRANCH 7 8
ENDBRANCH 6 7
BRANCH 6 10
ATOM     10  N   SER G 419     -37.848 -33.130  31.212  1.00 31.62 LIG-0.34  N 
ATOM     11 H    SER G 419     -38.529 -32.841  31.649  1.00 31.62 LIG 0.16  HD
ATOM     12  C   GLY G 418     -37.146 -34.230  31.535  1.00 37.47 LIG 0.25  C 
ATOM     13 O    GLY G 418     -36.165 -34.595  30.889  1.00 34.17 LIG-0.27  OA
BRANCH 12 14
ATOM     14  CA  GLY G 418     -37.567 -35.003  32.768  1.00 40.24 LIG 0.47  C 
ATOM     15  N   GLY G 418     -36.463 -35.614  33.500  1.00 42.39 LIG 0.61  N 
ENDBRANCH 12 14
ENDBRANCH 6 10
ENDBRANCH 4 6
ENDBRANCH 1 2
BRANCH 1 16
ATOM     16  CB  TRP G 420     -37.105 -27.567  30.631  1.00 27.27 LIG 0.07  C 
BRANCH 16 17
ATOM     17  CG  TRP G 420     -36.891 -27.513  29.149  1.00 26.68 LIG-0.03  A 
ATOM     18  CD1 TRP G 420     -36.681 -28.561  28.308  1.00 29.02 LIG 0.10  A 
ATOM     19  NE1 TRP G 420     -36.414 -28.105  27.037  1.00 28.83 LIG-0.36  N 
ATOM     20 HE1  TRP G 420     -36.215 -28.597  26.360  1.00 28.83 LIG 0.17  HD
ATOM     21  CE2 TRP G 420     -36.518 -26.738  27.026  1.00 29.48 LIG 0.04  A 
ATOM     22  CD2 TRP G 420     -36.807 -26.329  28.347  1.00 26.13 LIG-0.00  A 
ATOM     23  CZ2 TRP G 420     -36.343 -25.822  25.980  1.00 28.18 LIG 0.03  A 
ATOM     24  CE3 TRP G 420     -36.930 -24.956  28.623  1.00 26.84 LIG 0.01  A 
ATOM     25  CZ3 TRP G 420     -36.774 -24.050  27.579  1.00 27.14 LIG 0.00  A 
ATOM     26  CH2 TRP G 420     -36.480 -24.487  26.284  1.00 27.58 LIG 0.00  A 
ENDBRANCH 16 17
ENDBRANCH 1 16
BRANCH 1 27
ATOM     27  C   TRP G 420     -36.772 -28.732  32.818  1.00 38.21 LIG 0.24  C 
ATOM     28 O    TRP G 420     -35.790 -28.652  33.548  1.00 38.32 LIG-0.27  OA
ATOM     29  N   HIS G 421     -38.035 -28.680  33.275  1.00 36.18 LIG-0.35  N 
ATOM     30 H    HIS G 421     -38.722 -28.716  32.758  1.00 36.18 LIG 0.16  HD
BRANCH 29 31
ATOM     31  CA  HIS G 421     -38.375 -28.558  34.694  1.00 85.07 LIG 0.17  C 
BRANCH 31 32
ATOM     32  CB  HIS G 421     -37.544 -27.451  35.359  1.00 86.25 LIG 0.09  C 
BRANCH 32 33
ATOM     33  CG  HIS G 421     -38.126 -26.084  35.175  1.00 90.14 LIG 0.06  A 
ATOM     34 ND1  HIS G 421     -37.674 -25.235  34.178  1.00 92.13 LIG-0.24  NA
ATOM     35  CE1 HIS G 421     -38.401 -24.133  34.291  1.00 91.61 LIG 0.23  A 
ATOM     36 NE2  HIS G 421     -39.289 -24.230  35.284  1.00 91.87 LIG-0.25  NA
ATOM     37  CD2 HIS G 421     -39.121 -25.469  35.857  1.00 92.02 LIG 0.14  A 
ENDBRANCH 32 33
ENDBRANCH 31 32
BRANCH 31 38
ATOM     38  C   HIS G 421     -39.861 -28.312  34.900  1.00112.71 LIG 0.22  C 
ATOM     39 O    HIS G 421     -40.528 -27.821  33.993  1.00 75.09 LIG-0.29  OA
ENDBRANCH 31 38
ENDBRANCH 29 31
ENDBRANCH 1 27
TORSDOF 13
ENDMDL
MODEL 11
USER: ADFR SOLUTION from run 106
USER: SCORE 10.706712 LL:  -1.973 LR: -10.493 RR:   0.000 FEB:  -6.615
USER: RMSD 3.542061
USER: SEED 105
USER: STATUS no improvement in best in 8 clusters for 5 generations
USER: GENES 15
USER: genes 0 Translation |==|  0.61000 0.52459 0.47731
USER: genes 1 Rotation |==|  0.37177 0.50257 0.57884 0.97680
USER: genes 2 Torsion [CB]-CA--N-[C] |==|  0.46613
USER: genes 3 Torsion [N]-C--CA-[N] |==|  0.45556
USER: genes 4 Torsion [C]-CA--CB-[OG] |==|  0.36472
USER: genes 5 Torsion [CA]-CB--OG-[HG] |==|  0.01397
USER: genes 6 Torsion [C]-CA--N-[C] |==|  0.80554
USER: genes 7 Torsion [N]-C--CA-[N] |==|  0.48034
USER: genes 8 Torsion [N]-CA--CB-[CG] |==|  0.55829
USER: genes 9 Torsion [CA]-CB--CG-[CD1] |==|  0.71907
USER: genes 10 Torsion [N]-CA--C-[N] |==|  0.66326
USER: genes 11 Torsion [C]-N--CA-[C] |==|  0.20411
USER: genes 12 Torsion [N]-CA--CB-[CG] |==|  0.79078
USER: genes 13 Torsion [CA]-CB--CG-[ND1] |==|  0.20497
USER: genes 14 Torsion [N]-CA--C-[O] |==|  0.06693
ROOT
ATOM      1  CA  TRP G 420     -37.223 -27.815  30.273  1.00 30.19 LIG 0.18  C 
ENDROOT
BRANCH 1 2
ATOM      2  N   TRP G 420     -36.864 -27.895  31.688  1.00 29.90 LIG-0.35  N 
ATOM      3 H    TRP G 420     -36.033 -28.066  31.829  1.00 29.90 LIG 0.16  HD
ATOM      4  C   SER G 419     -37.758 -27.717  32.669  1.00 34.18 LIG 0.24  C 
ATOM      5 O    SER G 419     -38.928 -27.399  32.463  1.00 34.33 LIG-0.27  OA
BRANCH 4 6
ATOM      6  CA  SER G 419     -37.264 -27.948  34.098  1.00 31.26 LIG 0.20  C 
BRANCH 6 7
ATOM      7  CB  SER G 419     -37.063 -29.444  34.333  1.00 37.91 LIG 0.20  C 
BRANCH 7 8
ATOM      8 OG   SER G 419     -35.792 -29.689  34.917  1.00 57.41 LIG-0.40  OA
ATOM      9 HG   SER G 419     -35.416 -28.958  35.088  1.00 57.41 LIG 0.21  HD
ENDBRANCH 7 8
ENDBRANCH 6 7
BRANCH 6 10
ATOM     10  N   SER G 419     -38.175 -27.377  35.091  1.00 31.62 LIG-0.34  N 
ATOM     11 H    SER G 419     -38.609 -27.954  35.557  1.00 31.62 LIG 0.16  HD
ATOM     12  C   GLY G 418     -38.293 -26.045  35.229  1.00 37.47 LIG 0.25  C 
ATOM     13 O    GLY G 418     -37.665 -25.256  34.525  1.00 34.17 LIG-0.27  OA
BRANCH 12 14
ATOM     14  CA  GLY G 418     -39.274 -25.522  36.257  1.00 40.24 LIG 0.47  C 
ATOM     15  N   GLY G 418     -39.222 -24.078  36.456  1.00 42.39 LIG 0.61  N 
ENDBRANCH 12 14
ENDBRANCH 6 10
ENDBRANCH 4 6
ENDBRANCH 1 2
BRANCH 1 16
ATOM     16  CB  TRP G 420     -35.971 -27.759  29.402  1.00 27.27 LIG 0.07  C 
BRANCH 16 17
ATOM     17  CG  TRP G 420     -36.184 -27.193  28.030  1.00 26.68 LIG-0.03  A 
ATOM     18  CD1 TRP G 420     -36.312 -27.883  26.865  1.00 29.02 LIG 0.10  A 
ATOM     19  NE1 TRP G 420     -36.380 -27.011  25.802  1.00 28.83 LIG-0.36  N 
ATOM     20 HE1  TRP G 420     -36.424 -27.236  24.973  1.00 28.83 LIG 0.17  HD
ATOM     21  CE2 TRP G 420     -36.368 -25.727  26.281  1.00 29.48 LIG 0.04  A 
ATOM     22  CD2 TRP G 420     -36.233 -25.804  27.685  1.00 26.13 LIG-0.00  A 
ATOM     23  CZ2 TRP G 420     -36.421 -24.503  25.601  1.00 28.18 LIG 0.03  A 
ATOM     24  CE3 TRP G 420     -36.156 -24.614  28.429  1.00 26.84 LIG 0.01  A 
ATOM     25  CZ3 TRP G 420     -36.228 -23.400  27.751  1.00 27.14 LIG 0.00  A 
ATOM     26  CH2 TRP G 420     -36.353 -23.357  26.360  1.00 27.58 LIG 0.00  A 
ENDBRANCH 16 17
ENDBRANCH 1 16
BRANCH 1 27
ATOM     27  C   TRP G 420     -38.063 -29.032  29.905  1.00 38.21 LIG 0.24  C 
ATOM     28 O    TRP G 420     -39.143 -29.206  30.461  1.00 38.32 LIG-0.27  OA
ATOM     29  N   HIS G 421     -37.601 -29.833  28.929  1.00 36.18 LIG-0.35  N 
ATOM     30 H    HIS G 421     -36.853 -29.696  28.527  1.00 36.18 LIG 0.16  HD
BRANCH 29 31
ATOM     31  CA  HIS G 421     -38.316 -31.017  28.451  1.00 85.07 LIG 0.17  C 
BRANCH 31 32
ATOM     32  CB  HIS G 421     -38.732 -31.913  29.627  1.00 86.25 LIG 0.09  C 
BRANCH 32 33
ATOM     33  CG  HIS G 421     -37.592 -32.691  30.209  1.00 90.14 LIG 0.06  A 
ATOM     34 ND1  HIS G 421     -36.626 -32.081  30.991  1.00 92.13 LIG-0.24  NA
ATOM     35  CE1 HIS G 421     -35.789 -33.046  31.342  1.00 91.61 LIG 0.23  A 
ATOM     36 NE2  HIS G 421     -36.165 -34.227  30.844  1.00 91.87 LIG-0.25  NA
ATOM     37  CD2 HIS G 421     -37.312 -34.013  30.117  1.00 92.02 LIG 0.14  A 
ENDBRANCH 32 33
ENDBRANCH 31 32
BRANCH 31 38
ATOM     38  C   HIS G 421     -39.523 -30.646  27.605  1.00112.71 LIG 0.22  C 
ATOM     39 O    HIS G 421     -39.554 -29.558  27.035  1.00 75.09 LIG-0.29  OA
ENDBRANCH 31 38
ENDBRANCH 29 31
ENDBRANCH 1 27
TORSDOF 13
ENDMDL
MODEL 12
USER: ADFR SOLUTION from run 44
USER: SCORE 10.613180 LL:  -1.722 LR: -10.469 RR:   0.000 FEB:  -6.591
USER: RMSD 7.679695
USER: SEED 43
USER: STATUS no improvement in best in 24 clusters for 5 generations
USER: GENES 15
USER: genes 0 Translation |==|  0.60819 0.52417 0.64620
USER: genes 1 Rotation |==|  0.37852 0.29027 0.20297 0.82099
USER: genes 2 Torsion [CB]-CA--N-[C] |==|  0.43334
USER: genes 3 Torsion [N]-C--CA-[N] |==|  0.01187
USER: genes 4 Torsion [C]-CA--CB-[OG] |==|  0.24873
USER: genes 5 Torsion [CA]-CB--OG-[HG] |==|  0.81300
USER: genes 6 Torsion [C]-CA--N-[C] |==|  0.18764
USER: genes 7 Torsion [N]-C--CA-[N] |==|  0.73246
USER: genes 8 Torsion [N]-CA--CB-[CG] |==|  0.77959
USER: genes 9 Torsion [CA]-CB--CG-[CD1] |==|  0.04383
USER: genes 10 Torsion [N]-CA--C-[N] |==|  0.46887
USER: genes 11 Torsion [C]-N--CA-[C] |==|  0.69004
USER: genes 12 Torsion [N]-CA--CB-[CG] |==|  0.64365
USER: genes 13 Torsion [CA]-CB--CG-[ND1] |==|  0.29285
USER: genes 14 Torsion [N]-CA--C-[O] |==|  0.80950
ROOT
ATOM      1  CA  TRP G 420     -37.248 -27.823  34.074  1.00 30.19 LIG 0.18  C 
ENDROOT
BRANCH 1 2
ATOM      2  N   TRP G 420     -38.385 -27.138  34.686  1.00 29.90 LIG-0.35  N 
ATOM      3 H    TRP G 420     -38.954 -27.665  35.056  1.00 29.90 LIG 0.16  HD
ATOM      4  C   SER G 419     -38.518 -25.805  34.665  1.00 34.18 LIG 0.24  C 
ATOM      5 O    SER G 419     -37.665 -25.051  34.202  1.00 34.33 LIG-0.27  OA
BRANCH 4 6
ATOM      6  CA  SER G 419     -39.817 -25.237  35.241  1.00 31.26 LIG 0.20  C 
BRANCH 6 7
ATOM      7  CB  SER G 419     -39.489 -24.163  36.278  1.00 37.91 LIG 0.20  C 
BRANCH 7 8
ATOM      8 OG   SER G 419     -39.389 -22.889  35.659  1.00 57.41 LIG-0.40  OA
ATOM      9 HG   SER G 419     -38.718 -22.874  35.154  1.00 57.41 LIG 0.21  HD
ENDBRANCH 7 8
ENDBRANCH 6 7
BRANCH 6 10
ATOM     10  N   SER G 419     -40.664 -26.282  35.816  1.00 31.62 LIG-0.34  N 
ATOM     11 H    SER G 419     -41.398 -26.426  35.393  1.00 31.62 LIG 0.16  HD
ATOM     12  C   GLY G 418     -40.282 -26.943  36.923  1.00 37.47 LIG 0.25  C 
ATOM     13 O    GLY G 418     -39.229 -26.690  37.506  1.00 34.17 LIG-0.27  OA
BRANCH 12 14
ATOM     14  CA  GLY G 418     -41.219 -27.995  37.480  1.00 40.24 LIG 0.47  C 
ATOM     15  N   GLY G 418     -42.080 -27.522  38.558  1.00 42.39 LIG 0.61  N 
ENDBRANCH 12 14
ENDBRANCH 6 10
ENDBRANCH 4 6
ENDBRANCH 1 2
BRANCH 1 16
ATOM     16  CB  TRP G 420     -37.030 -29.188  34.720  1.00 27.27 LIG 0.07  C 
BRANCH 16 17
ATOM     17  CG  TRP G 420     -36.316 -29.153  36.038  1.00 26.68 LIG-0.03  A 
ATOM     18  CD1 TRP G 420     -36.117 -28.071  36.838  1.00 29.02 LIG 0.10  A 
ATOM     19  NE1 TRP G 420     -35.321 -28.413  37.909  1.00 28.83 LIG-0.36  N 
ATOM     20 HE1  TRP G 420     -35.040 -27.873  38.516  1.00 28.83 LIG 0.17  HD
ATOM     21  CE2 TRP G 420     -35.050 -29.756  37.849  1.00 29.48 LIG 0.04  A 
ATOM     22  CD2 TRP G 420     -35.654 -30.253  36.673  1.00 26.13 LIG-0.00  A 
ATOM     23  CZ2 TRP G 420     -34.293 -30.569  38.703  1.00 28.18 LIG 0.03  A 
ATOM     24  CE3 TRP G 420     -35.497 -31.612  36.348  1.00 26.84 LIG 0.01  A 
ATOM     25  CZ3 TRP G 420     -34.759 -32.420  37.208  1.00 27.14 LIG 0.00  A 
ATOM     26  CH2 TRP G 420     -34.168 -31.896  38.360  1.00 27.58 LIG 0.00  A 
ENDBRANCH 16 17
ENDBRANCH 1 16
BRANCH 1 27
ATOM     27  C   TRP G 420     -37.511 -27.986  32.582  1.00 38.21 LIG 0.24  C 
ATOM     28 O    TRP G 420     -38.616 -27.698  32.132  1.00 38.32 LIG-0.27  OA
ATOM     29  N   HIS G 421     -36.484 -28.385  31.811  1.00 36.18 LIG-0.35  N 
ATOM     30 H    HIS G 421     -35.705 -28.565  32.126  1.00 36.18 LIG 0.16  HD
BRANCH 29 31
ATOM     31  CA  HIS G 421     -36.583 -28.553  30.360  1.00 85.07 LIG 0.17  C 
BRANCH 31 32
ATOM     32  CB  HIS G 421     -35.516 -27.714  29.641  1.00 86.25 LIG 0.09  C 
BRANCH 32 33
ATOM     33  CG  HIS G 421     -36.080 -26.841  28.562  1.00 90.14 LIG 0.06  A 
ATOM     34 ND1  HIS G 421     -36.214 -25.473  28.736  1.00 92.13 LIG-0.24  NA
ATOM     35  CE1 HIS G 421     -36.725 -25.018  27.602  1.00 91.61 LIG 0.23  A 
ATOM     36 NE2  HIS G 421     -36.915 -26.002  26.719  1.00 91.87 LIG-0.25  NA
ATOM     37  CD2 HIS G 421     -36.510 -27.170  27.321  1.00 92.02 LIG 0.14  A 
ENDBRANCH 32 33
ENDBRANCH 31 32
BRANCH 31 38
ATOM     38  C   HIS G 421     -36.481 -30.014  29.952  1.00112.71 LIG 0.22  C 
ATOM     39 O    HIS G 421     -35.415 -30.610  30.086  1.00 75.09 LIG-0.29  OA
ENDBRANCH 31 38
ENDBRANCH 29 31
ENDBRANCH 1 27
TORSDOF 13
ENDMDL
MODEL 13
USER: ADFR SOLUTION from run 194
USER: SCORE 10.978705 LL:  -1.034 LR: -10.388 RR:   0.000 FEB:  -6.510
USER: RMSD 7.785347
USER: SEED 193
USER: STATUS no improvement in best in 20 clusters for 5 generations
USER: GENES 15
USER: genes 0 Translation |==|  0.64854 0.47084 0.65250
USER: genes 1 Rotation |==|  0.35471 0.24273 0.15981 0.71673
USER: genes 2 Torsion [CB]-CA--N-[C] |==|  0.17746
USER: genes 3 Torsion [N]-C--CA-[N] |==|  0.48479
USER: genes 4 Torsion [C]-CA--CB-[OG] |==|  0.73188
USER: genes 5 Torsion [CA]-CB--OG-[HG] |==|  0.70171
USER: genes 6 Torsion [C]-CA--N-[C] |==|  0.52605
USER: genes 7 Torsion [N]-C--CA-[N] |==|  0.08268
USER: genes 8 Torsion [N]-CA--CB-[CG] |==|  0.61526
USER: genes 9 Torsion [CA]-CB--CG-[CD1] |==|  0.75906
USER: genes 10 Torsion [N]-CA--C-[N] |==|  0.09855
USER: genes 11 Torsion [C]-N--CA-[C] |==|  0.99366
USER: genes 12 Torsion [N]-CA--CB-[CG] |==|  0.62142
USER: genes 13 Torsion [CA]-CB--CG-[ND1] |==|  0.69017
USER: genes 14 Torsion [N]-CA--C-[O] |==|  0.76184
ROOT
ATOM      1  CA  TRP G 420     -36.673 -28.783  34.215  1.00 30.19 LIG 0.18  C 
ENDROOT
BRANCH 1 2
ATOM      2  N   TRP G 420     -37.586 -27.648  34.338  1.00 29.90 LIG-0.35  N 
ATOM      3 H    TRP G 420     -37.995 -27.447  33.609  1.00 29.90 LIG 0.16  HD
ATOM      4  C   SER G 419     -37.762 -26.987  35.490  1.00 34.18 LIG 0.24  C 
ATOM      5 O    SER G 419     -37.233 -27.325  36.547  1.00 34.33 LIG-0.27  OA
BRANCH 4 6
ATOM      6  CA  SER G 419     -38.657 -25.747  35.439  1.00 31.26 LIG 0.20  C 
BRANCH 6 7
ATOM      7  CB  SER G 419     -38.043 -24.712  34.497  1.00 37.91 LIG 0.20  C 
BRANCH 7 8
ATOM      8 OG   SER G 419     -37.290 -23.758  35.232  1.00 57.41 LIG-0.40  OA
ATOM      9 HG   SER G 419     -37.703 -23.027  35.247  1.00 57.41 LIG 0.21  HD
ENDBRANCH 7 8
ENDBRANCH 6 7
BRANCH 6 10
ATOM     10  N   SER G 419     -38.883 -25.181  36.769  1.00 31.62 LIG-0.34  N 
ATOM     11 H    SER G 419     -38.398 -25.519  37.393  1.00 31.62 LIG 0.16  HD
ATOM     12  C   GLY G 418     -39.789 -24.205  36.955  1.00 37.47 LIG 0.25  C 
ATOM     13 O    GLY G 418     -40.475 -23.765  36.034  1.00 34.17 LIG-0.27  OA
BRANCH 12 14
ATOM     14  CA  GLY G 418     -39.991 -23.683  38.362  1.00 40.24 LIG 0.47  C 
ATOM     15  N   GLY G 418     -38.803 -23.757  39.206  1.00 42.39 LIG 0.61  N 
ENDBRANCH 12 14
ENDBRANCH 6 10
ENDBRANCH 4 6
ENDBRANCH 1 2
BRANCH 1 16
ATOM     16  CB  TRP G 420     -37.136 -29.944  35.091  1.00 27.27 LIG 0.07  C 
BRANCH 16 17
ATOM     17  CG  TRP G 420     -36.039 -30.655  35.824  1.00 26.68 LIG-0.03  A 
ATOM     18  CD1 TRP G 420     -35.275 -31.684  35.368  1.00 29.02 LIG 0.10  A 
ATOM     19  NE1 TRP G 420     -34.452 -32.145  36.370  1.00 28.83 LIG-0.36  N 
ATOM     20 HE1  TRP G 420     -33.915 -32.815  36.309  1.00 28.83 LIG 0.17  HD
ATOM     21  CE2 TRP G 420     -34.626 -31.363  37.482  1.00 29.48 LIG 0.04  A 
ATOM     22  CD2 TRP G 420     -35.630 -30.418  37.176  1.00 26.13 LIG-0.00  A 
ATOM     23  CZ2 TRP G 420     -34.019 -31.427  38.743  1.00 28.18 LIG 0.03  A 
ATOM     24  CE3 TRP G 420     -36.033 -29.506  38.168  1.00 26.84 LIG 0.01  A 
ATOM     25  CZ3 TRP G 420     -35.415 -29.562  39.413  1.00 27.14 LIG 0.00  A 
ATOM     26  CH2 TRP G 420     -34.430 -30.514  39.687  1.00 27.58 LIG 0.00  A 
ENDBRANCH 16 17
ENDBRANCH 1 16
BRANCH 1 27
ATOM     27  C   TRP G 420     -36.615 -29.218  32.756  1.00 38.21 LIG 0.24  C 
ATOM     28 O    TRP G 420     -36.556 -30.413  32.488  1.00 38.32 LIG-0.27  OA
ATOM     29  N   HIS G 421     -36.693 -28.256  31.819  1.00 36.18 LIG-0.35  N 
ATOM     30 H    HIS G 421     -36.755 -27.420  32.010  1.00 36.18 LIG 0.16  HD
BRANCH 29 31
ATOM     31  CA  HIS G 421     -36.681 -28.529  30.381  1.00 85.07 LIG 0.17  C 
BRANCH 31 32
ATOM     32  CB  HIS G 421     -35.585 -27.711  29.682  1.00 86.25 LIG 0.09  C 
BRANCH 32 33
ATOM     33  CG  HIS G 421     -36.042 -27.086  28.399  1.00 90.14 LIG 0.06  A 
ATOM     34 ND1  HIS G 421     -35.550 -27.508  27.175  1.00 92.13 LIG-0.24  NA
ATOM     35  CE1 HIS G 421     -36.165 -26.764  26.268  1.00 91.61 LIG 0.23  A 
ATOM     36 NE2  HIS G 421     -37.020 -25.907  26.833  1.00 91.87 LIG-0.25  NA
ATOM     37  CD2 HIS G 421     -36.948 -26.101  28.192  1.00 92.02 LIG 0.14  A 
ENDBRANCH 32 33
ENDBRANCH 31 32
BRANCH 31 38
ATOM     38  C   HIS G 421     -36.514 -30.011  30.088  1.00112.71 LIG 0.22  C 
ATOM     39 O    HIS G 421     -35.387 -30.498  30.034  1.00 75.09 LIG-0.29  OA
ENDBRANCH 31 38
ENDBRANCH 29 31
ENDBRANCH 1 27
TORSDOF 13
ENDMDL
MODEL 14
USER: ADFR SOLUTION from run 147
USER: SCORE 11.476589 LL:  -1.963 LR: -10.394 RR:   0.000 FEB:  -6.516
USER: RMSD 7.226708
USER: SEED 146
USER: STATUS no improvement in best in 29 clusters for 5 generations
USER: GENES 15
USER: genes 0 Translation |==|  0.68964 0.46174 0.53874
USER: genes 1 Rotation |==|  0.85455 0.71116 0.28794 0.68636
USER: genes 2 Torsion [CB]-CA--N-[C] |==|  0.21640
USER: genes 3 Torsion [N]-C--CA-[N] |==|  0.36703
USER: genes 4 Torsion [C]-CA--CB-[OG] |==|  0.72489
USER: genes 5 Torsion [CA]-CB--OG-[HG] |==|  0.04377
USER: genes 6 Torsion [C]-CA--N-[C] |==|  0.75000
USER: genes 7 Torsion [N]-C--CA-[N] |==|  0.66892
USER: genes 8 Torsion [N]-CA--CB-[CG] |==|  0.11837
USER: genes 9 Torsion [CA]-CB--CG-[CD1] |==|  0.92804
USER: genes 10 Torsion [N]-CA--C-[N] |==|  0.89558
USER: genes 11 Torsion [C]-N--CA-[C] |==|  0.62201
USER: genes 12 Torsion [N]-CA--CB-[CG] |==|  0.53849
USER: genes 13 Torsion [CA]-CB--CG-[ND1] |==|  0.76362
USER: genes 14 Torsion [N]-CA--C-[O] |==|  0.04706
ROOT
ATOM      1  CA  TRP G 420     -36.088 -28.947  31.656  1.00 30.19 LIG 0.18  C 
ENDROOT
BRANCH 1 2
ATOM      2  N   TRP G 420     -37.158 -29.610  30.913  1.00 29.90 LIG-0.35  N 
ATOM      3 H    TRP G 420     -37.947 -29.335  31.117  1.00 29.90 LIG 0.16  HD
ATOM      4  C   SER G 419     -36.919 -30.560  30.001  1.00 34.18 LIG 0.24  C 
ATOM      5 O    SER G 419     -35.787 -30.896  29.659  1.00 34.33 LIG-0.27  OA
BRANCH 4 6
ATOM      6  CA  SER G 419     -38.143 -31.248  29.390  1.00 31.26 LIG 0.20  C 
BRANCH 6 7
ATOM      7  CB  SER G 419     -38.301 -32.641  29.999  1.00 37.91 LIG 0.20  C 
BRANCH 7 8
ATOM      8 OG   SER G 419     -37.766 -33.627  29.129  1.00 57.41 LIG-0.40  OA
ATOM      9 HG   SER G 419     -37.277 -33.258  28.553  1.00 57.41 LIG 0.21  HD
ENDBRANCH 7 8
ENDBRANCH 6 7
BRANCH 6 10
ATOM     10  N   SER G 419     -38.060 -31.318  27.931  1.00 31.62 LIG-0.34  N 
ATOM     11 H    SER G 419     -37.679 -32.024  27.624  1.00 31.62 LIG 0.16  HD
ATOM     12  C   GLY G 418     -38.556 -30.329  27.168  1.00 37.47 LIG 0.25  C 
ATOM     13 O    GLY G 418     -39.077 -29.325  27.653  1.00 34.17 LIG-0.27  OA
BRANCH 12 14
ATOM     14  CA  GLY G 418     -38.413 -30.452  25.665  1.00 40.24 LIG 0.47  C 
ATOM     15  N   GLY G 418     -37.640 -29.382  25.045  1.00 42.39 LIG 0.61  N 
ENDBRANCH 12 14
ENDBRANCH 6 10
ENDBRANCH 4 6
ENDBRANCH 1 2
BRANCH 1 16
ATOM     16  CB  TRP G 420     -35.406 -27.891  30.790  1.00 27.27 LIG 0.07  C 
BRANCH 16 17
ATOM     17  CG  TRP G 420     -36.339 -27.047  29.975  1.00 26.68 LIG-0.03  A 
ATOM     18  CD1 TRP G 420     -37.581 -27.383  29.535  1.00 29.02 LIG 0.10  A 
ATOM     19  NE1 TRP G 420     -38.081 -26.391  28.721  1.00 28.83 LIG-0.36  N 
ATOM     20 HE1  TRP G 420     -38.834 -26.416  28.306  1.00 28.83 LIG 0.17  HD
ATOM     21  CE2 TRP G 420     -37.183 -25.356  28.681  1.00 29.48 LIG 0.04  A 
ATOM     22  CD2 TRP G 420     -36.065 -25.742  29.453  1.00 26.13 LIG-0.00  A 
ATOM     23  CZ2 TRP G 420     -37.237 -24.132  28.002  1.00 28.18 LIG 0.03  A 
ATOM     24  CE3 TRP G 420     -34.968 -24.867  29.549  1.00 26.84 LIG 0.01  A 
ATOM     25  CZ3 TRP G 420     -35.033 -23.645  28.887  1.00 27.14 LIG 0.00  A 
ATOM     26  CH2 TRP G 420     -36.151 -23.296  28.125  1.00 27.58 LIG 0.00  A 
ENDBRANCH 16 17
ENDBRANCH 1 16
BRANCH 1 27
ATOM     27  C   TRP G 420     -36.675 -28.301  32.904  1.00 38.21 LIG 0.24  C 
ATOM     28 O    TRP G 420     -36.007 -28.264  33.932  1.00 38.32 LIG-0.27  OA
ATOM     29  N   HIS G 421     -37.893 -27.741  32.798  1.00 36.18 LIG-0.35  N 
ATOM     30 H    HIS G 421     -38.350 -27.749  32.070  1.00 36.18 LIG 0.16  HD
BRANCH 29 31
ATOM     31  CA  HIS G 421     -38.566 -27.059  33.905  1.00 85.07 LIG 0.17  C 
BRANCH 31 32
ATOM     32  CB  HIS G 421     -38.413 -25.535  33.779  1.00 86.25 LIG 0.09  C 
BRANCH 32 33
ATOM     33  CG  HIS G 421     -38.785 -24.799  35.029  1.00 90.14 LIG 0.06  A 
ATOM     34 ND1  HIS G 421     -40.098 -24.452  35.299  1.00 92.13 LIG-0.24  NA
ATOM     35  CE1 HIS G 421     -40.070 -23.833  36.470  1.00 91.61 LIG 0.23  A 
ATOM     36 NE2  HIS G 421     -38.830 -23.773  36.964  1.00 91.87 LIG-0.25  NA
ATOM     37  CD2 HIS G 421     -38.002 -24.384  36.052  1.00 92.02 LIG 0.14  A 
ENDBRANCH 32 33
ENDBRANCH 31 32
BRANCH 31 38
ATOM     38  C   HIS G 421     -40.033 -27.446  33.999  1.00112.71 LIG 0.22  C 
ATOM     39 O    HIS G 421     -40.435 -28.452  33.420  1.00 75.09 LIG-0.29  OA
ENDBRANCH 31 38
ENDBRANCH 29 31
ENDBRANCH 1 27
TORSDOF 13
ENDMDL
MODEL 15
USER: ADFR SOLUTION from run 101
USER: SCORE 11.355240 LL:  -1.699 LR: -10.367 RR:   0.000 FEB:  -6.489
USER: RMSD 6.385463
USER: SEED 100
USER: STATUS no improvement in best in 21 clusters for 5 generations
USER: GENES 15
USER: genes 0 Translation |==|  0.58210 0.49361 0.46311
USER: genes 1 Rotation |==|  0.22667 0.18018 0.77013 0.50575
USER: genes 2 Torsion [CB]-CA--N-[C] |==|  0.22151
USER: genes 3 Torsion [N]-C--CA-[N] |==|  0.96666
USER: genes 4 Torsion [C]-CA--CB-[OG] |==|  0.64060
USER: genes 5 Torsion [CA]-CB--OG-[HG] |==|  0.67855
USER: genes 6 Torsion [C]-CA--N-[C] |==|  0.80015
USER: genes 7 Torsion [N]-C--CA-[N] |==|  0.46118
USER: genes 8 Torsion [N]-CA--CB-[CG] |==|  0.71872
USER: genes 9 Torsion [CA]-CB--CG-[CD1] |==|  0.01316
USER: genes 10 Torsion [N]-CA--C-[N] |==|  0.86388
USER: genes 11 Torsion [C]-N--CA-[C] |==|  0.87757
USER: genes 12 Torsion [N]-CA--CB-[CG] |==|  0.76412
USER: genes 13 Torsion [CA]-CB--CG-[ND1] |==|  0.93804
USER: genes 14 Torsion [N]-CA--C-[O] |==|  0.41452
ROOT
ATOM      1  CA  TRP G 420     -37.620 -28.373  29.954  1.00 30.19 LIG 0.18  C 
ENDROOT
BRANCH 1 2
ATOM      2  N   TRP G 420     -38.994 -28.871  29.969  1.00 29.90 LIG-0.35  N 
ATOM      3 H    TRP G 420     -39.355 -28.880  30.750  1.00 29.90 LIG 0.16  HD
ATOM      4  C   SER G 419     -39.624 -29.277  28.859  1.00 34.18 LIG 0.24  C 
ATOM      5 O    SER G 419     -39.132 -29.193  27.736  1.00 34.33 LIG-0.27  OA
BRANCH 4 6
ATOM      6  CA  SER G 419     -41.017 -29.885  29.045  1.00 31.26 LIG 0.20  C 
BRANCH 6 7
ATOM      7  CB  SER G 419     -42.066 -28.947  28.449  1.00 37.91 LIG 0.20  C 
BRANCH 7 8
ATOM      8 OG   SER G 419     -43.104 -28.704  29.387  1.00 57.41 LIG-0.40  OA
ATOM      9 HG   SER G 419     -43.827 -29.015  29.093  1.00 57.41 LIG 0.21  HD
ENDBRANCH 7 8
ENDBRANCH 6 7
BRANCH 6 10
ATOM     10  N   SER G 419     -41.305 -30.173  30.450  1.00 31.62 LIG-0.34  N 
ATOM     11 H    SER G 419     -41.880 -29.649  30.816  1.00 31.62 LIG 0.16  HD
ATOM     12  C   GLY G 418     -40.693 -31.190  31.082  1.00 37.47 LIG 0.25  C 
ATOM     13 O    GLY G 418     -39.861 -31.903  30.523  1.00 34.17 LIG-0.27  OA
BRANCH 12 14
ATOM     14  CA  GLY G 418     -41.018 -31.415  32.544  1.00 40.24 LIG 0.47  C 
ATOM     15  N   GLY G 418     -40.576 -32.703  33.066  1.00 42.39 LIG 0.61  N 
ENDBRANCH 12 14
ENDBRANCH 6 10
ENDBRANCH 4 6
ENDBRANCH 1 2
BRANCH 1 16
ATOM     16  CB  TRP G 420     -37.579 -26.920  29.490  1.00 27.27 LIG 0.07  C 
BRANCH 16 17
ATOM     17  CG  TRP G 420     -37.164 -26.727  28.063  1.00 26.68 LIG-0.03  A 
ATOM     18  CD1 TRP G 420     -36.915 -27.694  27.139  1.00 29.02 LIG 0.10  A 
ATOM     19  NE1 TRP G 420     -36.449 -27.128  25.973  1.00 28.83 LIG-0.36  N 
ATOM     20 HE1  TRP G 420     -36.194 -27.561  25.275  1.00 28.83 LIG 0.17  HD
ATOM     21  CE2 TRP G 420     -36.456 -25.764  26.108  1.00 29.48 LIG 0.04  A 
ATOM     22  CD2 TRP G 420     -36.892 -25.476  27.421  1.00 26.13 LIG-0.00  A 
ATOM     23  CZ2 TRP G 420     -36.080 -24.760  25.207  1.00 28.18 LIG 0.03  A 
ATOM     24  CE3 TRP G 420     -36.957 -24.135  27.837  1.00 26.84 LIG 0.01  A 
ATOM     25  CZ3 TRP G 420     -36.599 -23.139  26.933  1.00 27.14 LIG 0.00  A 
ATOM     26  CH2 TRP G 420     -36.165 -23.458  25.644  1.00 27.58 LIG 0.00  A 
ENDBRANCH 16 17
ENDBRANCH 1 16
BRANCH 1 27
ATOM     27  C   TRP G 420     -37.033 -28.492  31.355  1.00 38.21 LIG 0.24  C 
ATOM     28 O    TRP G 420     -35.907 -28.958  31.496  1.00 38.32 LIG-0.27  OA
ATOM     29  N   HIS G 421     -37.766 -28.018  32.377  1.00 36.18 LIG-0.35  N 
ATOM     30 H    HIS G 421     -38.547 -27.672  32.272  1.00 36.18 LIG 0.16  HD
BRANCH 29 31
ATOM     31  CA  HIS G 421     -37.317 -28.038  33.770  1.00 85.07 LIG 0.17  C 
BRANCH 31 32
ATOM     32  CB  HIS G 421     -38.476 -27.705  34.721  1.00 86.25 LIG 0.09  C 
BRANCH 32 33
ATOM     33  CG  HIS G 421     -38.683 -26.234  34.908  1.00 90.14 LIG 0.06  A 
ATOM     34 ND1  HIS G 421     -37.665 -25.325  34.669  1.00 92.13 LIG-0.24  NA
ATOM     35  CE1 HIS G 421     -38.185 -24.133  34.918  1.00 91.61 LIG 0.23  A 
ATOM     36 NE2  HIS G 421     -39.465 -24.223  35.290  1.00 91.87 LIG-0.25  NA
ATOM     37  CD2 HIS G 421     -39.793 -25.559  35.290  1.00 92.02 LIG 0.14  A 
ENDBRANCH 32 33
ENDBRANCH 31 32
BRANCH 31 38
ATOM     38  C   HIS G 421     -36.682 -29.368  34.141  1.00112.71 LIG 0.22  C 
ATOM     39 O    HIS G 421     -35.790 -29.403  34.985  1.00 75.09 LIG-0.29  OA
ENDBRANCH 31 38
ENDBRANCH 29 31
ENDBRANCH 1 27
TORSDOF 13
ENDMDL
MODEL 16
USER: ADFR SOLUTION from run 115
USER: SCORE 11.202465 LL:  -1.931 LR: -10.362 RR:   0.000 FEB:  -6.484
USER: RMSD 7.638166
USER: SEED 114
USER: STATUS no improvement in best in 24 clusters for 5 generations
USER: GENES 15
USER: genes 0 Translation |==|  0.58375 0.45617 0.44077
USER: genes 1 Rotation |==|  0.93323 0.60958 0.32320 0.63802
USER: genes 2 Torsion [CB]-CA--N-[C] |==|  0.23685
USER: genes 3 Torsion [N]-C--CA-[N] |==|  0.41116
USER: genes 4 Torsion [C]-CA--CB-[OG] |==|  0.35360
USER: genes 5 Torsion [CA]-CB--OG-[HG] |==|  0.49471
USER: genes 6 Torsion [C]-CA--N-[C] |==|  0.67492
USER: genes 7 Torsion [N]-C--CA-[N] |==|  0.52438
USER: genes 8 Torsion [N]-CA--CB-[CG] |==|  0.05510
USER: genes 9 Torsion [CA]-CB--CG-[CD1] |==|  0.76958
USER: genes 10 Torsion [N]-CA--C-[N] |==|  0.42869
USER: genes 11 Torsion [C]-N--CA-[C] |==|  0.17211
USER: genes 12 Torsion [N]-CA--CB-[CG] |==|  0.54441
USER: genes 13 Torsion [CA]-CB--CG-[ND1] |==|  0.43164
USER: genes 14 Torsion [N]-CA--C-[O] |==|  0.00014
ROOT
ATOM      1  CA  TRP G 420     -37.597 -29.047  29.451  1.00 30.19 LIG 0.18  C 
ENDROOT
BRANCH 1 2
ATOM      2  N   TRP G 420     -38.542 -29.100  28.338  1.00 29.90 LIG-0.35  N 
ATOM      3 H    TRP G 420     -39.107 -28.452  28.327  1.00 29.90 LIG 0.16  HD
ATOM      4  C   SER G 419     -38.521 -30.077  27.422  1.00 34.18 LIG 0.24  C 
ATOM      5 O    SER G 419     -37.665 -30.959  27.398  1.00 34.33 LIG-0.27  OA
BRANCH 4 6
ATOM      6  CA  SER G 419     -39.645 -30.067  26.384  1.00 31.26 LIG 0.20  C 
BRANCH 6 7
ATOM      7  CB  SER G 419     -40.840 -30.856  26.918  1.00 37.91 LIG 0.20  C 
BRANCH 7 8
ATOM      8 OG   SER G 419     -42.024 -30.076  26.843  1.00 57.41 LIG-0.40  OA
ATOM      9 HG   SER G 419     -42.676 -30.530  27.114  1.00 57.41 LIG 0.21  HD
ENDBRANCH 7 8
ENDBRANCH 6 7
BRANCH 6 10
ATOM     10  N   SER G 419     -39.201 -30.594  25.093  1.00 31.62 LIG-0.34  N 
ATOM     11 H    SER G 419     -38.955 -31.417  25.104  1.00 31.62 LIG 0.16  HD
ATOM     12  C   GLY G 418     -39.196 -29.814  23.998  1.00 37.47 LIG 0.25  C 
ATOM     13 O    GLY G 418     -39.540 -28.633  24.034  1.00 34.17 LIG-0.27  OA
BRANCH 12 14
ATOM     14  CA  GLY G 418     -38.700 -30.415  22.700  1.00 40.24 LIG 0.47  C 
ATOM     15  N   GLY G 418     -38.537 -29.453  21.616  1.00 42.39 LIG 0.61  N 
ENDBRANCH 12 14
ENDBRANCH 6 10
ENDBRANCH 4 6
ENDBRANCH 1 2
BRANCH 1 16
ATOM     16  CB  TRP G 420     -36.302 -28.360  29.027  1.00 27.27 LIG 0.07  C 
BRANCH 16 17
ATOM     17  CG  TRP G 420     -36.417 -27.501  27.804  1.00 26.68 LIG-0.03  A 
ATOM     18  CD1 TRP G 420     -36.363 -27.905  26.506  1.00 29.02 LIG 0.10  A 
ATOM     19  NE1 TRP G 420     -36.394 -26.813  25.667  1.00 28.83 LIG-0.36  N 
ATOM     20 HE1  TRP G 420     -36.331 -26.839  24.810  1.00 28.83 LIG 0.17  HD
ATOM     21  CE2 TRP G 420     -36.539 -25.678  26.422  1.00 29.48 LIG 0.04  A 
ATOM     22  CD2 TRP G 420     -36.546 -26.075  27.778  1.00 26.13 LIG-0.00  A 
ATOM     23  CZ2 TRP G 420     -36.624 -24.334  26.036  1.00 28.18 LIG 0.03  A 
ATOM     24  CE3 TRP G 420     -36.648 -25.090  28.776  1.00 26.84 LIG 0.01  A 
ATOM     25  CZ3 TRP G 420     -36.750 -23.758  28.387  1.00 27.14 LIG 0.00  A 
ATOM     26  CH2 TRP G 420     -36.733 -23.397  27.038  1.00 27.58 LIG 0.00  A 
ENDBRANCH 16 17
ENDBRANCH 1 16
BRANCH 1 27
ATOM     27  C   TRP G 420     -38.235 -28.291  30.610  1.00 38.21 LIG 0.24  C 
ATOM     28 O    TRP G 420     -39.152 -27.508  30.383  1.00 38.32 LIG-0.27  OA
ATOM     29  N   HIS G 421     -37.796 -28.569  31.849  1.00 36.18 LIG-0.35  N 
ATOM     30 H    HIS G 421     -37.167 -29.134  32.007  1.00 36.18 LIG 0.16  HD
BRANCH 29 31
ATOM     31  CA  HIS G 421     -38.338 -27.944  33.057  1.00 85.07 LIG 0.17  C 
BRANCH 31 32
ATOM     32  CB  HIS G 421     -38.109 -26.425  33.032  1.00 86.25 LIG 0.09  C 
BRANCH 32 33
ATOM     33  CG  HIS G 421     -38.286 -25.779  34.372  1.00 90.14 LIG 0.06  A 
ATOM     34 ND1  HIS G 421     -37.665 -24.581  34.684  1.00 92.13 LIG-0.24  NA
ATOM     35  CE1 HIS G 421     -38.040 -24.296  35.922  1.00 91.61 LIG 0.23  A 
ATOM     36 NE2  HIS G 421     -38.864 -25.226  36.412  1.00 91.87 LIG-0.25  NA
ATOM     37  CD2 HIS G 421     -39.025 -26.179  35.433  1.00 92.02 LIG 0.14  A 
ENDBRANCH 32 33
ENDBRANCH 31 32
BRANCH 31 38
ATOM     38  C   HIS G 421     -39.812 -28.262  33.246  1.00112.71 LIG 0.22  C 
ATOM     39 O    HIS G 421     -40.391 -28.971  32.427  1.00 75.09 LIG-0.29  OA
ENDBRANCH 31 38
ENDBRANCH 29 31
ENDBRANCH 1 27
TORSDOF 13
ENDMDL
MODEL 17
USER: ADFR SOLUTION from run 56
USER: SCORE 11.180318 LL:  -2.008 LR: -10.329 RR:   0.000 FEB:  -6.451
USER: RMSD 7.383300
USER: SEED 55
USER: STATUS no improvement in best in 22 clusters for 5 generations
USER: GENES 15
USER: genes 0 Translation |==|  0.63272 0.43638 0.41220
USER: genes 1 Rotation |==|  0.80695 0.77268 0.32114 0.72234
USER: genes 2 Torsion [CB]-CA--N-[C] |==|  0.86507
USER: genes 3 Torsion [N]-C--CA-[N] |==|  0.75612
USER: genes 4 Torsion [C]-CA--CB-[OG] |==|  0.71236
USER: genes 5 Torsion [CA]-CB--OG-[HG] |==|  0.20517
USER: genes 6 Torsion [C]-CA--N-[C] |==|  0.82134
USER: genes 7 Torsion [N]-C--CA-[N] |==|  0.50068
USER: genes 8 Torsion [N]-CA--CB-[CG] |==|  0.50813
USER: genes 9 Torsion [CA]-CB--CG-[CD1] |==|  0.09202
USER: genes 10 Torsion [N]-CA--C-[N] |==|  0.37477
USER: genes 11 Torsion [C]-N--CA-[C] |==|  0.17904
USER: genes 12 Torsion [N]-CA--CB-[CG] |==|  0.60826
USER: genes 13 Torsion [CA]-CB--CG-[ND1] |==|  0.45734
USER: genes 14 Torsion [N]-CA--C-[O] |==|  0.09157
ROOT
ATOM      1  CA  TRP G 420     -36.899 -29.403  28.808  1.00 30.19 LIG 0.18  C 
ENDROOT
BRANCH 1 2
ATOM      2  N   TRP G 420     -37.671 -30.418  28.093  1.00 29.90 LIG-0.35  N 
ATOM      3 H    TRP G 420     -37.341 -31.210  28.146  1.00 29.90 LIG 0.16  HD
ATOM      4  C   SER G 419     -38.790 -30.127  27.419  1.00 34.18 LIG 0.24  C 
ATOM      5 O    SER G 419     -39.299 -29.008  27.409  1.00 34.33 LIG-0.27  OA
BRANCH 4 6
ATOM      6  CA  SER G 419     -39.426 -31.268  26.621  1.00 31.26 LIG 0.20  C 
BRANCH 6 7
ATOM      7  CB  SER G 419     -39.249 -32.582  27.381  1.00 37.91 LIG 0.20  C 
BRANCH 7 8
ATOM      8 OG   SER G 419     -38.218 -33.361  26.793  1.00 57.41 LIG-0.40  OA
ATOM      9 HG   SER G 419     -37.471 -33.027  26.981  1.00 57.41 LIG 0.21  HD
ENDBRANCH 7 8
ENDBRANCH 6 7
BRANCH 6 10
ATOM     10  N   SER G 419     -38.874 -31.364  25.269  1.00 31.62 LIG-0.34  N 
ATOM     11 H    SER G 419     -38.444 -32.090  25.105  1.00 31.62 LIG 0.16  HD
ATOM     12  C   GLY G 418     -39.050 -30.367  24.384  1.00 37.47 LIG 0.25  C 
ATOM     13 O    GLY G 418     -39.657 -29.337  24.670  1.00 34.17 LIG-0.27  OA
BRANCH 12 14
ATOM     14  CA  GLY G 418     -38.429 -30.520  23.011  1.00 40.24 LIG 0.47  C 
ATOM     15  N   GLY G 418     -38.664 -29.392  22.117  1.00 42.39 LIG 0.61  N 
ENDBRANCH 12 14
ENDBRANCH 6 10
ENDBRANCH 4 6
ENDBRANCH 1 2
BRANCH 1 16
ATOM     16  CB  TRP G 420     -36.655 -28.187  27.920  1.00 27.27 LIG 0.07  C 
BRANCH 16 17
ATOM     17  CG  TRP G 420     -35.810 -27.114  28.540  1.00 26.68 LIG-0.03  A 
ATOM     18  CD1 TRP G 420     -34.783 -27.279  29.417  1.00 29.02 LIG 0.10  A 
ATOM     19  NE1 TRP G 420     -34.327 -26.053  29.849  1.00 28.83 LIG-0.36  N 
ATOM     20 HE1  TRP G 420     -33.710 -25.927  30.435  1.00 28.83 LIG 0.17  HD
ATOM     21  CE2 TRP G 420     -35.018 -25.067  29.193  1.00 29.48 LIG 0.04  A 
ATOM     22  CD2 TRP G 420     -35.971 -25.702  28.366  1.00 26.13 LIG-0.00  A 
ATOM     23  CZ2 TRP G 420     -34.916 -23.672  29.284  1.00 28.18 LIG 0.03  A 
ATOM     24  CE3 TRP G 420     -36.846 -24.909  27.603  1.00 26.84 LIG 0.01  A 
ATOM     25  CZ3 TRP G 420     -36.730 -23.525  27.682  1.00 27.14 LIG 0.00  A 
ATOM     26  CH2 TRP G 420     -35.781 -22.927  28.516  1.00 27.58 LIG 0.00  A 
ENDBRANCH 16 17
ENDBRANCH 1 16
BRANCH 1 27
ATOM     27  C   TRP G 420     -37.660 -28.992  30.062  1.00 38.21 LIG 0.24  C 
ATOM     28 O    TRP G 420     -38.874 -28.824  30.000  1.00 38.32 LIG-0.27  OA
ATOM     29  N   HIS G 421     -36.962 -28.891  31.207  1.00 36.18 LIG-0.35  N 
ATOM     30 H    HIS G 421     -36.115 -29.030  31.252  1.00 36.18 LIG 0.16  HD
BRANCH 29 31
ATOM     31  CA  HIS G 421     -37.567 -28.536  32.492  1.00 85.07 LIG 0.17  C 
BRANCH 31 32
ATOM     32  CB  HIS G 421     -38.235 -27.155  32.416  1.00 86.25 LIG 0.09  C 
BRANCH 32 33
ATOM     33  CG  HIS G 421     -38.046 -26.339  33.657  1.00 90.14 LIG 0.06  A 
ATOM     34 ND1  HIS G 421     -38.293 -24.975  33.669  1.00 92.13 LIG-0.24  NA
ATOM     35  CE1 HIS G 421     -38.040 -24.578  34.907  1.00 91.61 LIG 0.23  A 
ATOM     36 NE2  HIS G 421     -37.660 -25.598  35.683  1.00 91.87 LIG-0.25  NA
ATOM     37  CD2 HIS G 421     -37.657 -26.725  34.895  1.00 92.02 LIG 0.14  A 
ENDBRANCH 32 33
ENDBRANCH 31 32
BRANCH 31 38
ATOM     38  C   HIS G 421     -38.559 -29.588  32.960  1.00112.71 LIG 0.22  C 
ATOM     39 O    HIS G 421     -38.366 -30.770  32.689  1.00 75.09 LIG-0.29  OA
ENDBRANCH 31 38
ENDBRANCH 29 31
ENDBRANCH 1 27
TORSDOF 13
ENDMDL
MODEL 18
USER: ADFR SOLUTION from run 121
USER: SCORE 10.979155 LL:  -1.523 LR: -10.264 RR:   0.000 FEB:  -6.386
USER: RMSD 7.528485
USER: SEED 120
USER: STATUS no improvement in best in 26 clusters for 5 generations
USER: GENES 15
USER: genes 0 Translation |==|  0.63770 0.46202 0.45723
USER: genes 1 Rotation |==|  0.80576 0.84217 0.37979 0.65805
USER: genes 2 Torsion [CB]-CA--N-[C] |==|  0.87774
USER: genes 3 Torsion [N]-C--CA-[N] |==|  0.82486
USER: genes 4 Torsion [C]-CA--CB-[OG] |==|  0.70976
USER: genes 5 Torsion [CA]-CB--OG-[HG] |==|  0.15051
USER: genes 6 Torsion [C]-CA--N-[C] |==|  0.67303
USER: genes 7 Torsion [N]-C--CA-[N] |==|  0.48560
USER: genes 8 Torsion [N]-CA--CB-[CG] |==|  0.87905
USER: genes 9 Torsion [CA]-CB--CG-[CD1] |==|  0.00479
USER: genes 10 Torsion [N]-CA--C-[N] |==|  0.33889
USER: genes 11 Torsion [C]-N--CA-[C] |==|  0.68847
USER: genes 12 Torsion [N]-CA--CB-[CG] |==|  0.34060
USER: genes 13 Torsion [CA]-CB--CG-[ND1] |==|  0.20781
USER: genes 14 Torsion [N]-CA--C-[O] |==|  0.00196
ROOT
ATOM      1  CA  TRP G 420     -36.828 -28.942  29.822  1.00 30.19 LIG 0.18  C 
ENDROOT
BRANCH 1 2
ATOM      2  N   TRP G 420     -37.531 -29.763  28.838  1.00 29.90 LIG-0.35  N 
ATOM      3 H    TRP G 420     -37.101 -30.469  28.600  1.00 29.90 LIG 0.16  HD
ATOM      4  C   SER G 419     -38.736 -29.435  28.356  1.00 34.18 LIG 0.24  C 
ATOM      5 O    SER G 419     -39.379 -28.465  28.755  1.00 34.33 LIG-0.27  OA
BRANCH 4 6
ATOM      6  CA  SER G 419     -39.297 -30.326  27.245  1.00 31.26 LIG 0.20  C 
BRANCH 6 7
ATOM      7  CB  SER G 419     -39.444 -31.756  27.764  1.00 37.91 LIG 0.20  C 
BRANCH 7 8
ATOM      8 OG   SER G 419     -38.412 -32.581  27.245  1.00 57.41 LIG-0.40  OA
ATOM      9 HG   SER G 419     -37.665 -32.237  27.416  1.00 57.41 LIG 0.21  HD
ENDBRANCH 7 8
ENDBRANCH 6 7
BRANCH 6 10
ATOM     10  N   SER G 419     -38.466 -30.286  26.041  1.00 31.62 LIG-0.34  N 
ATOM     11 H    SER G 419     -37.664 -30.575  26.146  1.00 31.62 LIG 0.16  HD
ATOM     12  C   GLY G 418     -38.962 -29.823  24.880  1.00 37.47 LIG 0.25  C 
ATOM     13 O    GLY G 418     -40.113 -29.400  24.782  1.00 34.17 LIG-0.27  OA
BRANCH 12 14
ATOM     14  CA  GLY G 418     -38.040 -29.785  23.680  1.00 40.24 LIG 0.47  C 
ATOM     15  N   GLY G 418     -38.689 -29.383  22.437  1.00 42.39 LIG 0.61  N 
ENDBRANCH 12 14
ENDBRANCH 6 10
ENDBRANCH 4 6
ENDBRANCH 1 2
BRANCH 1 16
ATOM     16  CB  TRP G 420     -36.918 -27.464  29.453  1.00 27.27 LIG 0.07  C 
BRANCH 16 17
ATOM     17  CG  TRP G 420     -36.696 -27.162  28.001  1.00 26.68 LIG-0.03  A 
ATOM     18  CD1 TRP G 420     -36.460 -28.055  27.002  1.00 29.02 LIG 0.10  A 
ATOM     19  NE1 TRP G 420     -36.194 -27.390  25.826  1.00 28.83 LIG-0.36  N 
ATOM     20 HE1  TRP G 420     -35.980 -27.760  25.079  1.00 28.83 LIG 0.17  HD
ATOM     21  CE2 TRP G 420     -36.324 -26.042  26.039  1.00 29.48 LIG 0.04  A 
ATOM     22  CD2 TRP G 420     -36.630 -25.862  27.406  1.00 26.13 LIG-0.00  A 
ATOM     23  CZ2 TRP G 420     -36.160 -24.963  25.160  1.00 28.18 LIG 0.03  A 
ATOM     24  CE3 TRP G 420     -36.781 -24.556  27.903  1.00 26.84 LIG 0.01  A 
ATOM     25  CZ3 TRP G 420     -36.635 -23.487  27.024  1.00 27.14 LIG 0.00  A 
ATOM     26  CH2 TRP G 420     -36.325 -23.699  25.678  1.00 27.58 LIG 0.00  A 
ENDBRANCH 16 17
ENDBRANCH 1 16
BRANCH 1 27
ATOM     27  C   TRP G 420     -37.442 -29.178  31.196  1.00 38.21 LIG 0.24  C 
ATOM     28 O    TRP G 420     -38.648 -29.014  31.350  1.00 38.32 LIG-0.27  OA
ATOM     29  N   HIS G 421     -36.629 -29.619  32.171  1.00 36.18 LIG-0.35  N 
ATOM     30 H    HIS G 421     -35.788 -29.752  32.054  1.00 36.18 LIG 0.16  HD
BRANCH 29 31
ATOM     31  CA  HIS G 421     -37.087 -29.917  33.529  1.00 85.07 LIG 0.17  C 
BRANCH 31 32
ATOM     32  CB  HIS G 421     -36.735 -31.361  33.917  1.00 86.25 LIG 0.09  C 
BRANCH 32 33
ATOM     33  CG  HIS G 421     -35.895 -31.453  35.153  1.00 90.14 LIG 0.06  A 
ATOM     34 ND1  HIS G 421     -36.436 -31.247  36.412  1.00 92.13 LIG-0.24  NA
ATOM     35  CE1 HIS G 421     -35.435 -31.413  37.262  1.00 91.61 LIG 0.23  A 
ATOM     36 NE2  HIS G 421     -34.299 -31.719  36.630  1.00 91.87 LIG-0.25  NA
ATOM     37  CD2 HIS G 421     -34.579 -31.744  35.284  1.00 92.02 LIG 0.14  A 
ENDBRANCH 32 33
ENDBRANCH 31 32
BRANCH 31 38
ATOM     38  C   HIS G 421     -36.523 -28.936  34.544  1.00112.71 LIG 0.22  C 
ATOM     39 O    HIS G 421     -35.790 -28.025  34.168  1.00 75.09 LIG-0.29  OA
ENDBRANCH 31 38
ENDBRANCH 29 31
ENDBRANCH 1 27
TORSDOF 13
ENDMDL
MODEL 19
USER: ADFR SOLUTION from run 154
USER: SCORE 10.800936 LL:  -2.486 LR: -10.226 RR:   0.000 FEB:  -6.348
USER: RMSD 5.993394
USER: SEED 153
USER: STATUS no improvement in best in 4 clusters for 5 generations
USER: GENES 15
USER: genes 0 Translation |==|  0.65603 0.49206 0.47175
USER: genes 1 Rotation |==|  0.77210 0.86429 0.33675 0.62887
USER: genes 2 Torsion [CB]-CA--N-[C] |==|  0.47629
USER: genes 3 Torsion [N]-C--CA-[N] |==|  0.21102
USER: genes 4 Torsion [C]-CA--CB-[OG] |==|  0.67067
USER: genes 5 Torsion [CA]-CB--OG-[HG] |==|  0.12558
USER: genes 6 Torsion [C]-CA--N-[C] |==|  0.76580
USER: genes 7 Torsion [N]-C--CA-[N] |==|  0.66240
USER: genes 8 Torsion [N]-CA--CB-[CG] |==|  0.84537
USER: genes 9 Torsion [CA]-CB--CG-[CD1] |==|  0.04325
USER: genes 10 Torsion [N]-CA--C-[N] |==|  0.73686
USER: genes 11 Torsion [C]-N--CA-[C] |==|  0.15154
USER: genes 12 Torsion [N]-CA--CB-[CG] |==|  0.93655
USER: genes 13 Torsion [CA]-CB--CG-[ND1] |==|  0.85020
USER: genes 14 Torsion [N]-CA--C-[O] |==|  0.74668
ROOT
ATOM      1  CA  TRP G 420     -36.567 -28.401  30.148  1.00 30.19 LIG 0.18  C 
ENDROOT
BRANCH 1 2
ATOM      2  N   TRP G 420     -37.426 -29.331  29.418  1.00 29.90 LIG-0.35  N 
ATOM      3 H    TRP G 420     -38.038 -28.949  28.951  1.00 29.90 LIG 0.16  HD
ATOM      4  C   SER G 419     -37.264 -30.659  29.479  1.00 34.18 LIG 0.24  C 
ATOM      5 O    SER G 419     -36.341 -31.198  30.087  1.00 34.33 LIG-0.27  OA
BRANCH 4 6
ATOM      6  CA  SER G 419     -38.310 -31.511  28.757  1.00 31.26 LIG 0.20  C 
BRANCH 6 7
ATOM      7  CB  SER G 419     -38.277 -32.936  29.310  1.00 37.91 LIG 0.20  C 
BRANCH 7 8
ATOM      8 OG   SER G 419     -37.938 -33.858  28.285  1.00 57.41 LIG-0.40  OA
ATOM      9 HG   SER G 419     -37.290 -33.560  27.842  1.00 57.41 LIG 0.21  HD
ENDBRANCH 7 8
ENDBRANCH 6 7
BRANCH 6 10
ATOM     10  N   SER G 419     -38.115 -31.505  27.307  1.00 31.62 LIG-0.34  N 
ATOM     11 H    SER G 419     -37.665 -32.169  27.000  1.00 31.62 LIG 0.16  HD
ATOM     12  C   GLY G 418     -38.621 -30.514  26.551  1.00 37.47 LIG 0.25  C 
ATOM     13 O    GLY G 418     -39.244 -29.572  27.038  1.00 34.17 LIG-0.27  OA
BRANCH 12 14
ATOM     14  CA  GLY G 418     -38.359 -30.555  25.060  1.00 40.24 LIG 0.47  C 
ATOM     15  N   GLY G 418     -37.665 -29.383  24.540  1.00 42.39 LIG 0.61  N 
ENDBRANCH 12 14
ENDBRANCH 6 10
ENDBRANCH 4 6
ENDBRANCH 1 2
BRANCH 1 16
ATOM     16  CB  TRP G 420     -36.849 -26.962  29.726  1.00 27.27 LIG 0.07  C 
BRANCH 16 17
ATOM     17  CG  TRP G 420     -36.723 -26.702  28.255  1.00 26.68 LIG-0.03  A 
ATOM     18  CD1 TRP G 420     -36.682 -27.624  27.256  1.00 29.02 LIG 0.10  A 
ATOM     19  NE1 TRP G 420     -36.447 -27.005  26.049  1.00 28.83 LIG-0.36  N 
ATOM     20 HE1  TRP G 420     -36.345 -27.405  25.294  1.00 28.83 LIG 0.17  HD
ATOM     21  CE2 TRP G 420     -36.402 -25.650  26.246  1.00 29.48 LIG 0.04  A 
ATOM     22  CD2 TRP G 420     -36.561 -25.423  27.631  1.00 26.13 LIG-0.00  A 
ATOM     23  CZ2 TRP G 420     -36.194 -24.605  25.336  1.00 28.18 LIG 0.03  A 
ATOM     24  CE3 TRP G 420     -36.516 -24.104  28.115  1.00 26.84 LIG 0.01  A 
ATOM     25  CZ3 TRP G 420     -36.327 -23.067  27.206  1.00 27.14 LIG 0.00  A 
ATOM     26  CH2 TRP G 420     -36.165 -23.326  25.842  1.00 27.58 LIG 0.00  A 
ENDBRANCH 16 17
ENDBRANCH 1 16
BRANCH 1 27
ATOM     27  C   TRP G 420     -36.813 -28.567  31.643  1.00 38.21 LIG 0.24  C 
ATOM     28 O    TRP G 420     -36.165 -29.398  32.270  1.00 38.32 LIG-0.27  OA
ATOM     29  N   HIS G 421     -37.700 -27.738  32.220  1.00 36.18 LIG-0.35  N 
ATOM     30 H    HIS G 421     -38.138 -27.141  31.782  1.00 36.18 LIG 0.16  HD
BRANCH 29 31
ATOM     31  CA  HIS G 421     -38.014 -27.761  33.650  1.00 85.07 LIG 0.17  C 
BRANCH 31 32
ATOM     32  CB  HIS G 421     -38.784 -29.038  34.017  1.00 86.25 LIG 0.09  C 
BRANCH 32 33
ATOM     33  CG  HIS G 421     -39.493 -29.656  32.851  1.00 90.14 LIG 0.06  A 
ATOM     34 ND1  HIS G 421     -40.371 -28.923  32.069  1.00 92.13 LIG-0.24  NA
ATOM     35  CE1 HIS G 421     -40.802 -29.760  31.137  1.00 91.61 LIG 0.23  A 
ATOM     36 NE2  HIS G 421     -40.249 -30.969  31.268  1.00 91.87 LIG-0.25  NA
ATOM     37  CD2 HIS G 421     -39.415 -30.915  32.360  1.00 92.02 LIG 0.14  A 
ENDBRANCH 32 33
ENDBRANCH 31 32
BRANCH 31 38
ATOM     38  C   HIS G 421     -36.765 -27.623  34.506  1.00112.71 LIG 0.22  C 
ATOM     39 O    HIS G 421     -36.165 -28.630  34.874  1.00 75.09 LIG-0.29  OA
ENDBRANCH 31 38
ENDBRANCH 29 31
ENDBRANCH 1 27
TORSDOF 13
ENDMDL
MODEL 20
USER: ADFR SOLUTION from run 195
USER: SCORE 11.176417 LL:  -1.618 LR: -10.210 RR:   0.000 FEB:  -6.332
USER: RMSD 6.466844
USER: SEED 194
USER: STATUS no improvement in best in 26 clusters for 5 generations
USER: GENES 15
USER: genes 0 Translation |==|  0.54564 0.49162 0.61466
USER: genes 1 Rotation |==|  0.54783 0.29523 0.84392 0.79581
USER: genes 2 Torsion [CB]-CA--N-[C] |==|  0.85505
USER: genes 3 Torsion [N]-C--CA-[N] |==|  0.14365
USER: genes 4 Torsion [C]-CA--CB-[OG] |==|  0.38408
USER: genes 5 Torsion [CA]-CB--OG-[HG] |==|  0.47782
USER: genes 6 Torsion [C]-CA--N-[C] |==|  0.19444
USER: genes 7 Torsion [N]-C--CA-[N] |==|  0.46249
USER: genes 8 Torsion [N]-CA--CB-[CG] |==|  0.85660
USER: genes 9 Torsion [CA]-CB--CG-[CD1] |==|  0.93167
USER: genes 10 Torsion [N]-CA--C-[N] |==|  0.40523
USER: genes 11 Torsion [C]-N--CA-[C] |==|  0.12089
USER: genes 12 Torsion [N]-CA--CB-[CG] |==|  0.71053
USER: genes 13 Torsion [CA]-CB--CG-[ND1] |==|  0.82774
USER: genes 14 Torsion [N]-CA--C-[O] |==|  0.23625
ROOT
ATOM      1  CA  TRP G 420     -38.140 -28.409  33.364  1.00 30.19 LIG 0.18  C 
ENDROOT
BRANCH 1 2
ATOM      2  N   TRP G 420     -37.833 -29.088  34.622  1.00 29.90 LIG-0.35  N 
ATOM      3 H    TRP G 420     -38.352 -29.751  34.797  1.00 29.90 LIG 0.16  HD
ATOM      4  C   SER G 419     -36.830 -28.703  35.421  1.00 34.18 LIG 0.24  C 
ATOM      5 O    SER G 419     -36.044 -27.804  35.129  1.00 34.33 LIG-0.27  OA
BRANCH 4 6
ATOM      6  CA  SER G 419     -36.703 -29.432  36.761  1.00 31.26 LIG 0.20  C 
BRANCH 6 7
ATOM      7  CB  SER G 419     -35.447 -28.949  37.486  1.00 37.91 LIG 0.20  C 
BRANCH 7 8
ATOM      8 OG   SER G 419     -35.712 -28.767  38.869  1.00 57.41 LIG-0.40  OA
ATOM      9 HG   SER G 419     -34.994 -28.608  39.274  1.00 57.41 LIG 0.21  HD
ENDBRANCH 7 8
ENDBRANCH 6 7
BRANCH 6 10
ATOM     10  N   SER G 419     -36.688 -30.885  36.593  1.00 31.62 LIG-0.34  N 
ATOM     11 H    SER G 419     -37.391 -31.289  36.877  1.00 31.62 LIG 0.16  HD
ATOM     12  C   GLY G 418     -35.632 -31.501  36.032  1.00 37.47 LIG 0.25  C 
ATOM     13 O    GLY G 418     -34.637 -30.883  35.657  1.00 34.17 LIG-0.27  OA
BRANCH 12 14
ATOM     14  CA  GLY G 418     -35.671 -33.010  35.913  1.00 40.24 LIG 0.47  C 
ATOM     15  N   GLY G 418     -34.654 -33.570  35.030  1.00 42.39 LIG 0.61  N 
ENDBRANCH 12 14
ENDBRANCH 6 10
ENDBRANCH 4 6
ENDBRANCH 1 2
BRANCH 1 16
ATOM     16  CB  TRP G 420     -38.294 -26.907  33.586  1.00 27.27 LIG 0.07  C 
BRANCH 16 17
ATOM     17  CG  TRP G 420     -39.243 -26.528  34.683  1.00 26.68 LIG-0.03  A 
ATOM     18  CD1 TRP G 420     -40.282 -27.263  35.164  1.00 29.02 LIG 0.10  A 
ATOM     19  NE1 TRP G 420     -40.991 -26.532  36.091  1.00 28.83 LIG-0.36  N 
ATOM     20 HE1  TRP G 420     -41.707 -26.791  36.491  1.00 28.83 LIG 0.17  HD
ATOM     21  CE2 TRP G 420     -40.368 -25.324  36.274  1.00 29.48 LIG 0.04  A 
ATOM     22  CD2 TRP G 420     -39.266 -25.283  35.391  1.00 26.13 LIG-0.00  A 
ATOM     23  CZ2 TRP G 420     -40.700 -24.248  37.108  1.00 28.18 LIG 0.03  A 
ATOM     24  CE3 TRP G 420     -38.469 -24.126  35.349  1.00 26.84 LIG 0.01  A 
ATOM     25  CZ3 TRP G 420     -38.791 -23.066  36.192  1.00 27.14 LIG 0.00  A 
ATOM     26  CH2 TRP G 420     -39.893 -23.135  37.049  1.00 27.58 LIG 0.00  A 
ENDBRANCH 16 17
ENDBRANCH 1 16
BRANCH 1 27
ATOM     27  C   TRP G 420     -37.019 -28.679  32.368  1.00 38.21 LIG 0.24  C 
ATOM     28 O    TRP G 420     -35.875 -28.841  32.780  1.00 38.32 LIG-0.27  OA
ATOM     29  N   HIS G 421     -37.355 -28.788  31.071  1.00 36.18 LIG-0.35  N 
ATOM     30 H    HIS G 421     -38.162 -28.695  30.787  1.00 36.18 LIG 0.16  HD
BRANCH 29 31
ATOM     31  CA  HIS G 421     -36.390 -29.076  30.008  1.00 85.07 LIG 0.17  C 
BRANCH 31 32
ATOM     32  CB  HIS G 421     -35.634 -27.802  29.600  1.00 86.25 LIG 0.09  C 
BRANCH 32 33
ATOM     33  CG  HIS G 421     -36.102 -27.230  28.297  1.00 90.14 LIG 0.06  A 
ATOM     34 ND1  HIS G 421     -35.994 -27.944  27.115  1.00 92.13 LIG-0.24  NA
ATOM     35  CE1 HIS G 421     -36.503 -27.160  26.177  1.00 91.61 LIG 0.23  A 
ATOM     36 NE2  HIS G 421     -36.935 -26.003  26.685  1.00 91.87 LIG-0.25  NA
ATOM     37  CD2 HIS G 421     -36.682 -26.035  28.036  1.00 92.02 LIG 0.14  A 
ENDBRANCH 32 33
ENDBRANCH 31 32
BRANCH 31 38
ATOM     38  C   HIS G 421     -35.417 -30.172  30.410  1.00112.71 LIG 0.22  C 
ATOM     39 O    HIS G 421     -35.728 -31.350  30.252  1.00 75.09 LIG-0.29  OA
ENDBRANCH 31 38
ENDBRANCH 29 31
ENDBRANCH 1 27
TORSDOF 13
ENDMDL
MODEL 21
USER: ADFR SOLUTION from run 124
USER: SCORE 11.130039 LL:  -1.802 LR: -10.201 RR:   0.000 FEB:  -6.323
USER: RMSD 7.052042
USER: SEED 123
USER: STATUS no improvement in best in 22 clusters for 5 generations
USER: GENES 15
USER: genes 0 Translation |==|  0.62165 0.48941 0.59110
USER: genes 1 Rotation |==|  0.41569 0.31038 0.09036 0.69782
USER: genes 2 Torsion [CB]-CA--N-[C] |==|  0.22516
USER: genes 3 Torsion [N]-C--CA-[N] |==|  0.47640
USER: genes 4 Torsion [C]-CA--CB-[OG] |==|  0.72239
USER: genes 5 Torsion [CA]-CB--OG-[HG] |==|  0.68581
USER: genes 6 Torsion [C]-CA--N-[C] |==|  0.55186
USER: genes 7 Torsion [N]-C--CA-[N] |==|  0.18125
USER: genes 8 Torsion [N]-CA--CB-[CG] |==|  0.60649
USER: genes 9 Torsion [CA]-CB--CG-[CD1] |==|  0.67632
USER: genes 10 Torsion [N]-CA--C-[N] |==|  0.94447
USER: genes 11 Torsion [C]-N--CA-[C] |==|  0.15141
USER: genes 12 Torsion [N]-CA--CB-[CG] |==|  0.61703
USER: genes 13 Torsion [CA]-CB--CG-[ND1] |==|  0.85539
USER: genes 14 Torsion [N]-CA--C-[O] |==|  0.29857
ROOT
ATOM      1  CA  TRP G 420     -37.057 -28.449  32.834  1.00 30.19 LIG 0.18  C 
ENDROOT
BRANCH 1 2
ATOM      2  N   TRP G 420     -37.874 -27.323  33.284  1.00 29.90 LIG-0.35  N 
ATOM      3 H    TRP G 420     -38.308 -26.931  32.653  1.00 29.90 LIG 0.16  HD
ATOM      4  C   SER G 419     -37.934 -26.946  34.567  1.00 34.18 LIG 0.24  C 
ATOM      5 O    SER G 419     -37.372 -27.555  35.475  1.00 34.33 LIG-0.27  OA
BRANCH 4 6
ATOM      6  CA  SER G 419     -38.736 -25.679  34.873  1.00 31.26 LIG 0.20  C 
BRANCH 6 7
ATOM      7  CB  SER G 419     -38.058 -24.476  34.218  1.00 37.91 LIG 0.20  C 
BRANCH 7 8
ATOM      8 OG   SER G 419     -37.290 -23.758  35.172  1.00 57.41 LIG-0.40  OA
ATOM      9 HG   SER G 419     -37.633 -23.002  35.297  1.00 57.41 LIG 0.21  HD
ENDBRANCH 7 8
ENDBRANCH 6 7
BRANCH 6 10
ATOM     10  N   SER G 419     -38.902 -25.470  36.311  1.00 31.62 LIG-0.34  N 
ATOM     11 H    SER G 419     -38.348 -25.903  36.806  1.00 31.62 LIG 0.16  HD
ATOM     12  C   GLY G 418     -39.862 -24.654  36.780  1.00 37.47 LIG 0.25  C 
ATOM     13 O    GLY G 418     -40.646 -24.069  36.034  1.00 34.17 LIG-0.27  OA
BRANCH 12 14
ATOM     14  CA  GLY G 418     -39.996 -24.504  38.281  1.00 40.24 LIG 0.47  C 
ATOM     15  N   GLY G 418     -38.850 -23.873  38.926  1.00 42.39 LIG 0.61  N 
ENDBRANCH 12 14
ENDBRANCH 6 10
ENDBRANCH 4 6
ENDBRANCH 1 2
BRANCH 1 16
ATOM     16  CB  TRP G 420     -37.776 -29.771  33.083  1.00 27.27 LIG 0.07  C 
BRANCH 16 17
ATOM     17  CG  TRP G 420     -36.891 -30.894  33.533  1.00 26.68 LIG-0.03  A 
ATOM     18  CD1 TRP G 420     -36.640 -32.059  32.876  1.00 29.02 LIG 0.10  A 
ATOM     19  NE1 TRP G 420     -35.867 -32.888  33.659  1.00 28.83 LIG-0.36  N 
ATOM     20 HE1  TRP G 420     -35.625 -33.687  33.454  1.00 28.83 LIG 0.17  HD
ATOM     21  CE2 TRP G 420     -35.547 -32.231  34.819  1.00 29.48 LIG 0.04  A 
ATOM     22  CD2 TRP G 420     -36.187 -30.972  34.777  1.00 26.13 LIG-0.00  A 
ATOM     23  CZ2 TRP G 420     -34.785 -32.647  35.918  1.00 28.18 LIG 0.03  A 
ATOM     24  CE3 TRP G 420     -36.051 -30.103  35.874  1.00 26.84 LIG 0.01  A 
ATOM     25  CZ3 TRP G 420     -35.279 -30.513  36.956  1.00 27.14 LIG 0.00  A 
ATOM     26  CH2 TRP G 420     -34.665 -31.768  36.970  1.00 27.58 LIG 0.00  A 
ENDBRANCH 16 17
ENDBRANCH 1 16
BRANCH 1 27
ATOM     27  C   TRP G 420     -36.761 -28.285  31.348  1.00 38.21 LIG 0.24  C 
ATOM     28 O    TRP G 420     -35.849 -28.930  30.842  1.00 38.32 LIG-0.27  OA
ATOM     29  N   HIS G 421     -37.567 -27.473  30.642  1.00 36.18 LIG-0.35  N 
ATOM     30 H    HIS G 421     -38.219 -27.038  30.995  1.00 36.18 LIG 0.16  HD
BRANCH 29 31
ATOM     31  CA  HIS G 421     -37.421 -27.244  29.203  1.00 85.07 LIG 0.17  C 
BRANCH 31 32
ATOM     32  CB  HIS G 421     -36.148 -26.438  28.906  1.00 86.25 LIG 0.09  C 
BRANCH 32 33
ATOM     33  CG  HIS G 421     -36.349 -25.375  27.870  1.00 90.14 LIG 0.06  A 
ATOM     34 ND1  HIS G 421     -36.915 -25.665  26.639  1.00 92.13 LIG-0.24  NA
ATOM     35  CE1 HIS G 421     -36.954 -24.514  25.985  1.00 91.61 LIG 0.23  A 
ATOM     36 NE2  HIS G 421     -36.462 -23.514  26.721  1.00 91.87 LIG-0.25  NA
ATOM     37  CD2 HIS G 421     -36.070 -24.052  27.924  1.00 92.02 LIG 0.14  A 
ENDBRANCH 32 33
ENDBRANCH 31 32
BRANCH 31 38
ATOM     38  C   HIS G 421     -37.426 -28.547  28.420  1.00112.71 LIG 0.22  C 
ATOM     39 O    HIS G 421     -38.406 -28.844  27.740  1.00 75.09 LIG-0.29  OA
ENDBRANCH 31 38
ENDBRANCH 29 31
ENDBRANCH 1 27
TORSDOF 13
ENDMDL
MODEL 22
USER: ADFR SOLUTION from run 87
USER: SCORE 11.616487 LL:  -1.708 LR: -10.199 RR:   0.000 FEB:  -6.321
USER: RMSD 3.056366
USER: SEED 86
USER: STATUS no improvement in best in 14 clusters for 5 generations
USER: GENES 15
USER: genes 0 Translation |==|  0.54058 0.54105 0.47569
USER: genes 1 Rotation |==|  0.33575 0.45724 0.57167 0.96482
USER: genes 2 Torsion [CB]-CA--N-[C] |==|  0.86667
USER: genes 3 Torsion [N]-C--CA-[N] |==|  0.07660
USER: genes 4 Torsion [C]-CA--CB-[OG] |==|  0.34323
USER: genes 5 Torsion [CA]-CB--OG-[HG] |==|  0.96680
USER: genes 6 Torsion [C]-CA--N-[C] |==|  0.69108
USER: genes 7 Torsion [N]-C--CA-[N] |==|  0.44691
USER: genes 8 Torsion [N]-CA--CB-[CG] |==|  0.56361
USER: genes 9 Torsion [CA]-CB--CG-[CD1] |==|  0.74180
USER: genes 10 Torsion [N]-CA--C-[N] |==|  0.35153
USER: genes 11 Torsion [C]-N--CA-[C] |==|  0.69418
USER: genes 12 Torsion [N]-CA--CB-[CG] |==|  0.19993
USER: genes 13 Torsion [CA]-CB--CG-[ND1] |==|  0.20242
USER: genes 14 Torsion [N]-CA--C-[O] |==|  0.04902
ROOT
ATOM      1  CA  TRP G 420     -38.212 -27.519  30.237  1.00 30.19 LIG 0.18  C 
ENDROOT
BRANCH 1 2
ATOM      2  N   TRP G 420     -38.146 -27.418  31.694  1.00 29.90 LIG-0.35  N 
ATOM      3 H    TRP G 420     -38.673 -26.826  32.028  1.00 29.90 LIG 0.16  HD
ATOM      4  C   SER G 419     -37.333 -28.184  32.432  1.00 34.18 LIG 0.24  C 
ATOM      5 O    SER G 419     -36.637 -29.080  31.958  1.00 34.33 LIG-0.27  OA
BRANCH 4 6
ATOM      6  CA  SER G 419     -37.285 -27.884  33.932  1.00 31.26 LIG 0.20  C 
BRANCH 6 7
ATOM      7  CB  SER G 419     -36.950 -29.164  34.697  1.00 37.91 LIG 0.20  C 
BRANCH 7 8
ATOM      8 OG   SER G 419     -35.793 -28.976  35.499  1.00 57.41 LIG-0.40  OA
ATOM      9 HG   SER G 419     -35.415 -28.257  35.282  1.00 57.41 LIG 0.21  HD
ENDBRANCH 7 8
ENDBRANCH 6 7
BRANCH 6 10
ATOM     10  N   SER G 419     -38.535 -27.296  34.413  1.00 31.62 LIG-0.34  N 
ATOM     11 H    SER G 419     -39.209 -27.829  34.412  1.00 31.62 LIG 0.16  HD
ATOM     12  C   GLY G 418     -38.580 -26.014  34.816  1.00 37.47 LIG 0.25  C 
ATOM     13 O    GLY G 418     -37.592 -25.282  34.782  1.00 34.17 LIG-0.27  OA
BRANCH 12 14
ATOM     14  CA  GLY G 418     -39.912 -25.461  35.278  1.00 40.24 LIG 0.47  C 
ATOM     15  N   GLY G 418     -39.812 -24.254  36.091  1.00 42.39 LIG 0.61  N 
ENDBRANCH 12 14
ENDBRANCH 6 10
ENDBRANCH 4 6
ENDBRANCH 1 2
BRANCH 1 16
ATOM     16  CB  TRP G 420     -36.810 -27.516  29.633  1.00 27.27 LIG 0.07  C 
BRANCH 16 17
ATOM     17  CG  TRP G 420     -36.744 -27.081  28.200  1.00 26.68 LIG-0.03  A 
ATOM     18  CD1 TRP G 420     -36.787 -27.874  27.095  1.00 29.02 LIG 0.10  A 
ATOM     19  NE1 TRP G 420     -36.584 -27.119  25.961  1.00 28.83 LIG-0.36  N 
ATOM     20 HE1  TRP G 420     -36.534 -27.426  25.159  1.00 28.83 LIG 0.17  HD
ATOM     21  CE2 TRP G 420     -36.475 -25.801  26.320  1.00 29.48 LIG 0.04  A 
ATOM     22  CD2 TRP G 420     -36.560 -25.741  27.729  1.00 26.13 LIG-0.00  A 
ATOM     23  CZ2 TRP G 420     -36.269 -24.659  25.534  1.00 28.18 LIG 0.03  A 
ATOM     24  CE3 TRP G 420     -36.439 -24.494  28.366  1.00 26.84 LIG 0.01  A 
ATOM     25  CZ3 TRP G 420     -36.252 -23.361  27.581  1.00 27.14 LIG 0.00  A 
ATOM     26  CH2 TRP G 420     -36.165 -23.454  26.189  1.00 27.58 LIG 0.00  A 
ENDBRANCH 16 17
ENDBRANCH 1 16
BRANCH 1 27
ATOM     27  C   TRP G 420     -38.942 -28.802  29.861  1.00 38.21 LIG 0.24  C 
ATOM     28 O    TRP G 420     -38.593 -29.863  30.369  1.00 38.32 LIG-0.27  OA
ATOM     29  N   HIS G 421     -39.989 -28.697  29.024  1.00 36.18 LIG-0.35  N 
ATOM     30 H    HIS G 421     -40.245 -27.949  28.686  1.00 36.18 LIG 0.16  HD
BRANCH 29 31
ATOM     31  CA  HIS G 421     -40.801 -29.840  28.601  1.00 85.07 LIG 0.17  C 
BRANCH 31 32
ATOM     32  CB  HIS G 421     -42.289 -29.583  28.883  1.00 86.25 LIG 0.09  C 
BRANCH 32 33
ATOM     33  CG  HIS G 421     -42.898 -28.568  27.966  1.00 90.14 LIG 0.06  A 
ATOM     34 ND1  HIS G 421     -43.164 -28.862  26.638  1.00 92.13 LIG-0.24  NA
ATOM     35  CE1 HIS G 421     -43.701 -27.763  26.130  1.00 91.61 LIG 0.23  A 
ATOM     36 NE2  HIS G 421     -43.802 -26.797  27.047  1.00 91.87 LIG-0.25  NA
ATOM     37  CD2 HIS G 421     -43.290 -27.298  28.221  1.00 92.02 LIG 0.14  A 
ENDBRANCH 32 33
ENDBRANCH 31 32
BRANCH 31 38
ATOM     38  C   HIS G 421     -40.583 -30.177  27.135  1.00112.71 LIG 0.22  C 
ATOM     39 O    HIS G 421     -39.589 -29.749  26.554  1.00 75.09 LIG-0.29  OA
ENDBRANCH 31 38
ENDBRANCH 29 31
ENDBRANCH 1 27
TORSDOF 13
ENDMDL
MODEL 23
USER: ADFR SOLUTION from run 82
USER: SCORE 11.025153 LL:  -1.738 LR: -10.173 RR:   0.000 FEB:  -6.295
USER: RMSD 7.065247
USER: SEED 81
USER: STATUS no improvement in best in 16 clusters for 5 generations
USER: GENES 15
USER: genes 0 Translation |==|  0.62735 0.43421 0.40229
USER: genes 1 Rotation |==|  0.81295 0.79335 0.34005 0.70106
USER: genes 2 Torsion [CB]-CA--N-[C] |==|  0.85663
USER: genes 3 Torsion [N]-C--CA-[N] |==|  0.78333
USER: genes 4 Torsion [C]-CA--CB-[OG] |==|  0.75968
USER: genes 5 Torsion [CA]-CB--OG-[HG] |==|  0.20166
USER: genes 6 Torsion [C]-CA--N-[C] |==|  0.80374
USER: genes 7 Torsion [N]-C--CA-[N] |==|  0.43507
USER: genes 8 Torsion [N]-CA--CB-[CG] |==|  0.52021
USER: genes 9 Torsion [CA]-CB--CG-[CD1] |==|  0.05192
USER: genes 10 Torsion [N]-CA--C-[N] |==|  0.36023
USER: genes 11 Torsion [C]-N--CA-[C] |==|  0.48572
USER: genes 12 Torsion [N]-CA--CB-[CG] |==|  0.64479
USER: genes 13 Torsion [CA]-CB--CG-[ND1] |==|  0.46001
USER: genes 14 Torsion [N]-CA--C-[O] |==|  0.30008
ROOT
ATOM      1  CA  TRP G 420     -36.975 -29.442  28.585  1.00 30.19 LIG 0.18  C 
ENDROOT
BRANCH 1 2
ATOM      2  N   TRP G 420     -37.729 -30.385  27.761  1.00 29.90 LIG-0.35  N 
ATOM      3 H    TRP G 420     -37.346 -31.149  27.665  1.00 29.90 LIG 0.16  HD
ATOM      4  C   SER G 419     -38.909 -30.074  27.209  1.00 34.18 LIG 0.24  C 
ATOM      5 O    SER G 419     -39.487 -29.008  27.410  1.00 34.33 LIG-0.27  OA
BRANCH 4 6
ATOM      6  CA  SER G 419     -39.524 -31.118  26.274  1.00 31.26 LIG 0.20  C 
BRANCH 6 7
ATOM      7  CB  SER G 419     -39.426 -32.501  26.918  1.00 37.91 LIG 0.20  C 
BRANCH 7 8
ATOM      8 OG   SER G 419     -38.175 -33.101  26.618  1.00 57.41 LIG-0.40  OA
ATOM      9 HG   SER G 419     -37.568 -32.718  27.055  1.00 57.41 LIG 0.21  HD
ENDBRANCH 7 8
ENDBRANCH 6 7
BRANCH 6 10
ATOM     10  N   SER G 419     -38.895 -31.108  24.953  1.00 31.62 LIG-0.34  N 
ATOM     11 H    SER G 419     -38.404 -31.792  24.781  1.00 31.62 LIG 0.16  HD
ATOM     12  C   GLY G 418     -39.096 -30.085  24.104  1.00 37.47 LIG 0.25  C 
ATOM     13 O    GLY G 418     -39.793 -29.115  24.402  1.00 34.17 LIG-0.27  OA
BRANCH 12 14
ATOM     14  CA  GLY G 418     -38.394 -30.125  22.764  1.00 40.24 LIG 0.47  C 
ATOM     15  N   GLY G 418     -39.035 -29.327  21.725  1.00 42.39 LIG 0.61  N 
ENDBRANCH 12 14
ENDBRANCH 6 10
ENDBRANCH 4 6
ENDBRANCH 1 2
BRANCH 1 16
ATOM     16  CB  TRP G 420     -36.806 -28.109  27.862  1.00 27.27 LIG 0.07  C 
BRANCH 16 17
ATOM     17  CG  TRP G 420     -35.902 -27.131  28.550  1.00 26.68 LIG-0.03  A 
ATOM     18  CD1 TRP G 420     -34.973 -27.399  29.507  1.00 29.02 LIG 0.10  A 
ATOM     19  NE1 TRP G 420     -34.422 -26.228  29.976  1.00 28.83 LIG-0.36  N 
ATOM     20 HE1  TRP G 420     -33.844 -26.165  30.609  1.00 28.83 LIG 0.17  HD
ATOM     21  CE2 TRP G 420     -34.946 -25.177  29.268  1.00 29.48 LIG 0.04  A 
ATOM     22  CD2 TRP G 420     -35.893 -25.710  28.366  1.00 26.13 LIG-0.00  A 
ATOM     23  CZ2 TRP G 420     -34.701 -23.801  29.368  1.00 28.18 LIG 0.03  A 
ATOM     24  CE3 TRP G 420     -36.612 -24.833  27.535  1.00 26.84 LIG 0.01  A 
ATOM     25  CZ3 TRP G 420     -36.353 -23.469  27.626  1.00 27.14 LIG 0.00  A 
ATOM     26  CH2 TRP G 420     -35.415 -22.972  28.534  1.00 27.58 LIG 0.00  A 
ENDBRANCH 16 17
ENDBRANCH 1 16
BRANCH 1 27
ATOM     27  C   TRP G 420     -37.713 -29.234  29.902  1.00 38.21 LIG 0.24  C 
ATOM     28 O    TRP G 420     -38.920 -29.015  29.886  1.00 38.32 LIG-0.27  OA
ATOM     29  N   HIS G 421     -37.005 -29.363  31.037  1.00 36.18 LIG-0.35  N 
ATOM     30 H    HIS G 421     -36.163 -29.538  31.046  1.00 36.18 LIG 0.16  HD
BRANCH 29 31
ATOM     31  CA  HIS G 421     -37.588 -29.222  32.373  1.00 85.07 LIG 0.17  C 
BRANCH 31 32
ATOM     32  CB  HIS G 421     -38.842 -30.097  32.514  1.00 86.25 LIG 0.09  C 
BRANCH 32 33
ATOM     33  CG  HIS G 421     -40.037 -29.342  33.008  1.00 90.14 LIG 0.06  A 
ATOM     34 ND1  HIS G 421     -41.314 -29.874  32.922  1.00 92.13 LIG-0.24  NA
ATOM     35  CE1 HIS G 421     -42.116 -28.962  33.451  1.00 91.61 LIG 0.23  A 
ATOM     36 NE2  HIS G 421     -41.435 -27.895  33.875  1.00 91.87 LIG-0.25  NA
ATOM     37  CD2 HIS G 421     -40.108 -28.124  33.595  1.00 92.02 LIG 0.14  A 
ENDBRANCH 32 33
ENDBRANCH 31 32
BRANCH 31 38
ATOM     38  C   HIS G 421     -36.582 -29.543  33.466  1.00112.71 LIG 0.22  C 
ATOM     39 O    HIS G 421     -36.122 -28.635  34.155  1.00 75.09 LIG-0.29  OA
ENDBRANCH 31 38
ENDBRANCH 29 31
ENDBRANCH 1 27
TORSDOF 13
ENDMDL
MODEL 24
USER: ADFR SOLUTION from run 174
USER: SCORE 11.522473 LL:  -2.381 LR: -10.172 RR:   0.000 FEB:  -6.294
USER: RMSD 5.676117
USER: SEED 173
USER: STATUS no improvement in best in 9 clusters for 5 generations
USER: GENES 15
USER: genes 0 Translation |==|  0.59756 0.49549 0.56640
USER: genes 1 Rotation |==|  0.44284 0.34241 0.05744 0.66136
USER: genes 2 Torsion [CB]-CA--N-[C] |==|  0.23036
USER: genes 3 Torsion [N]-C--CA-[N] |==|  0.48565
USER: genes 4 Torsion [C]-CA--CB-[OG] |==|  0.69119
USER: genes 5 Torsion [CA]-CB--OG-[HG] |==|  0.65997
USER: genes 6 Torsion [C]-CA--N-[C] |==|  0.54444
USER: genes 7 Torsion [N]-C--CA-[N] |==|  0.24530
USER: genes 8 Torsion [N]-CA--CB-[CG] |==|  0.35747
USER: genes 9 Torsion [CA]-CB--CG-[CD1] |==|  0.23680
USER: genes 10 Torsion [N]-CA--C-[N] |==|  0.87705
USER: genes 11 Torsion [C]-N--CA-[C] |==|  0.15004
USER: genes 12 Torsion [N]-CA--CB-[CG] |==|  0.57111
USER: genes 13 Torsion [CA]-CB--CG-[ND1] |==|  0.93148
USER: genes 14 Torsion [N]-CA--C-[O] |==|  0.29777
ROOT
ATOM      1  CA  TRP G 420     -37.400 -28.339  32.278  1.00 30.19 LIG 0.18  C 
ENDROOT
BRANCH 1 2
ATOM      2  N   TRP G 420     -38.102 -27.186  32.839  1.00 29.90 LIG-0.35  N 
ATOM      3 H    TRP G 420     -38.414 -26.645  32.248  1.00 29.90 LIG 0.16  HD
ATOM      4  C   SER G 419     -38.239 -26.999  34.158  1.00 34.18 LIG 0.24  C 
ATOM      5 O    SER G 419     -37.858 -27.813  34.996  1.00 34.33 LIG-0.27  OA
BRANCH 4 6
ATOM      6  CA  SER G 419     -38.893 -25.688  34.600  1.00 31.26 LIG 0.20  C 
BRANCH 6 7
ATOM      7  CB  SER G 419     -38.040 -24.510  34.131  1.00 37.91 LIG 0.20  C 
BRANCH 7 8
ATOM      8 OG   SER G 419     -37.436 -23.861  35.240  1.00 57.41 LIG-0.40  OA
ATOM      9 HG   SER G 419     -37.661 -23.052  35.248  1.00 57.41 LIG 0.21  HD
ENDBRANCH 7 8
ENDBRANCH 6 7
BRANCH 6 10
ATOM     10  N   SER G 419     -39.103 -25.642  36.047  1.00 31.62 LIG-0.34  N 
ATOM     11 H    SER G 419     -38.659 -26.226  36.495  1.00 31.62 LIG 0.16  HD
ATOM     12  C   GLY G 418     -39.937 -24.739  36.592  1.00 37.47 LIG 0.25  C 
ATOM     13 O    GLY G 418     -40.567 -23.934  35.908  1.00 34.17 LIG-0.27  OA
BRANCH 12 14
ATOM     14  CA  GLY G 418     -40.128 -24.764  38.094  1.00 40.24 LIG 0.47  C 
ATOM     15  N   GLY G 418     -39.166 -23.956  38.835  1.00 42.39 LIG 0.61  N 
ENDBRANCH 12 14
ENDBRANCH 6 10
ENDBRANCH 4 6
ENDBRANCH 1 2
BRANCH 1 16
ATOM     16  CB  TRP G 420     -38.324 -29.551  32.209  1.00 27.27 LIG 0.07  C 
BRANCH 16 17
ATOM     17  CG  TRP G 420     -38.380 -30.225  30.871  1.00 26.68 LIG-0.03  A 
ATOM     18  CD1 TRP G 420     -37.533 -31.176  30.392  1.00 29.02 LIG 0.10  A 
ATOM     19  NE1 TRP G 420     -37.840 -31.468  29.082  1.00 28.83 LIG-0.36  N 
ATOM     20 HE1  TRP G 420     -37.407 -32.012  28.576  1.00 28.83 LIG 0.17  HD
ATOM     21  CE2 TRP G 420     -38.948 -30.749  28.715  1.00 29.48 LIG 0.04  A 
ATOM     22  CD2 TRP G 420     -39.309 -29.944  29.819  1.00 26.13 LIG-0.00  A 
ATOM     23  CZ2 TRP G 420     -39.641 -30.704  27.498  1.00 28.18 LIG 0.03  A 
ATOM     24  CE3 TRP G 420     -40.404 -29.071  29.696  1.00 26.84 LIG 0.01  A 
ATOM     25  CZ3 TRP G 420     -41.101 -29.043  28.491  1.00 27.14 LIG 0.00  A 
ATOM     26  CH2 TRP G 420     -40.714 -29.846  27.416  1.00 27.58 LIG 0.00  A 
ENDBRANCH 16 17
ENDBRANCH 1 16
BRANCH 1 27
ATOM     27  C   TRP G 420     -36.896 -27.985  30.884  1.00 38.21 LIG 0.24  C 
ATOM     28 O    TRP G 420     -35.776 -28.348  30.540  1.00 38.32 LIG-0.27  OA
ATOM     29  N   HIS G 421     -37.742 -27.334  30.067  1.00 36.18 LIG-0.35  N 
ATOM     30 H    HIS G 421     -38.535 -27.100  30.303  1.00 36.18 LIG 0.16  HD
BRANCH 29 31
ATOM     31  CA  HIS G 421     -37.406 -26.958  28.692  1.00 85.07 LIG 0.17  C 
BRANCH 31 32
ATOM     32  CB  HIS G 421     -36.354 -25.838  28.677  1.00 86.25 LIG 0.09  C 
BRANCH 32 33
ATOM     33  CG  HIS G 421     -36.399 -25.002  27.436  1.00 90.14 LIG 0.06  A 
ATOM     34 ND1  HIS G 421     -36.915 -25.498  26.249  1.00 92.13 LIG-0.24  NA
ATOM     35  CE1 HIS G 421     -36.814 -24.508  25.375  1.00 91.61 LIG 0.23  A 
ATOM     36 NE2  HIS G 421     -36.279 -23.416  25.928  1.00 91.87 LIG-0.25  NA
ATOM     37  CD2 HIS G 421     -36.008 -23.721  27.242  1.00 92.02 LIG 0.14  A 
ENDBRANCH 32 33
ENDBRANCH 31 32
BRANCH 31 38
ATOM     38  C   HIS G 421     -36.932 -28.151  27.879  1.00112.71 LIG 0.22  C 
ATOM     39 O    HIS G 421     -37.665 -28.628  27.015  1.00 75.09 LIG-0.29  OA
ENDBRANCH 31 38
ENDBRANCH 29 31
ENDBRANCH 1 27
TORSDOF 13
ENDMDL
MODEL 25
USER: ADFR SOLUTION from run 64
USER: SCORE 10.727234 LL:  -2.137 LR: -10.142 RR:   0.000 FEB:  -6.264
USER: RMSD 8.806148
USER: SEED 63
USER: STATUS no improvement in best in 17 clusters for 5 generations
USER: GENES 15
USER: genes 0 Translation |==|  0.53510 0.49657 0.48618
USER: genes 1 Rotation |==|  0.26430 0.92050 0.57983 0.60608
USER: genes 2 Torsion [CB]-CA--N-[C] |==|  0.16233
USER: genes 3 Torsion [N]-C--CA-[N] |==|  0.49307
USER: genes 4 Torsion [C]-CA--CB-[OG] |==|  0.78349
USER: genes 5 Torsion [CA]-CB--OG-[HG] |==|  0.39808
USER: genes 6 Torsion [C]-CA--N-[C] |==|  0.82748
USER: genes 7 Torsion [N]-C--CA-[N] |==|  0.22281
USER: genes 8 Torsion [N]-CA--CB-[CG] |==|  0.12109
USER: genes 9 Torsion [CA]-CB--CG-[CD1] |==|  0.71465
USER: genes 10 Torsion [N]-CA--C-[N] |==|  0.45621
USER: genes 11 Torsion [C]-N--CA-[C] |==|  0.85680
USER: genes 12 Torsion [N]-CA--CB-[CG] |==|  0.74723
USER: genes 13 Torsion [CA]-CB--CG-[ND1] |==|  0.86762
USER: genes 14 Torsion [N]-CA--C-[O] |==|  0.47179
ROOT
ATOM      1  CA  TRP G 420     -38.290 -28.320  30.473  1.00 30.19 LIG 0.18  C 
ENDROOT
BRANCH 1 2
ATOM      2  N   TRP G 420     -37.394 -28.347  29.318  1.00 29.90 LIG-0.35  N 
ATOM      3 H    TRP G 420     -36.561 -28.282  29.520  1.00 29.90 LIG 0.16  HD
ATOM      4  C   SER G 419     -37.843 -28.464  28.062  1.00 34.18 LIG 0.24  C 
ATOM      5 O    SER G 419     -39.029 -28.633  27.784  1.00 34.33 LIG-0.27  OA
BRANCH 4 6
ATOM      6  CA  SER G 419     -36.799 -28.359  26.948  1.00 31.26 LIG 0.20  C 
BRANCH 6 7
ATOM      7  CB  SER G 419     -36.094 -27.006  27.037  1.00 37.91 LIG 0.20  C 
BRANCH 7 8
ATOM      8 OG   SER G 419     -36.915 -25.981  26.497  1.00 57.41 LIG-0.40  OA
ATOM      9 HG   SER G 419     -36.819 -25.278  26.946  1.00 57.41 LIG 0.21  HD
ENDBRANCH 7 8
ENDBRANCH 6 7
BRANCH 6 10
ATOM     10  N   SER G 419     -37.390 -28.558  25.624  1.00 31.62 LIG-0.34  N 
ATOM     11 H    SER G 419     -37.329 -27.883  25.096  1.00 31.62 LIG 0.16  HD
ATOM     12  C   GLY G 418     -37.975 -29.725  25.302  1.00 37.47 LIG 0.25  C 
ATOM     13 O    GLY G 418     -38.057 -30.658  26.100  1.00 34.17 LIG-0.27  OA
BRANCH 12 14
ATOM     14  CA  GLY G 418     -38.589 -29.855  23.925  1.00 40.24 LIG 0.47  C 
ATOM     15  N   GLY G 418     -37.630 -30.137  22.863  1.00 42.39 LIG 0.61  N 
ENDBRANCH 12 14
ENDBRANCH 6 10
ENDBRANCH 4 6
ENDBRANCH 1 2
BRANCH 1 16
ATOM     16  CB  TRP G 420     -39.135 -29.589  30.530  1.00 27.27 LIG 0.07  C 
BRANCH 16 17
ATOM     17  CG  TRP G 420     -38.385 -30.858  30.257  1.00 26.68 LIG-0.03  A 
ATOM     18  CD1 TRP G 420     -38.386 -31.584  29.107  1.00 29.02 LIG 0.10  A 
ATOM     19  NE1 TRP G 420     -37.665 -32.745  29.277  1.00 28.83 LIG-0.36  N 
ATOM     20 HE1  TRP G 420     -37.570 -33.366  28.690  1.00 28.83 LIG 0.17  HD
ATOM     21  CE2 TRP G 420     -37.123 -32.749  30.537  1.00 29.48 LIG 0.04  A 
ATOM     22  CD2 TRP G 420     -37.567 -31.576  31.188  1.00 26.13 LIG-0.00  A 
ATOM     23  CZ2 TRP G 420     -36.316 -33.699  31.176  1.00 28.18 LIG 0.03  A 
ATOM     24  CE3 TRP G 420     -37.182 -31.350  32.521  1.00 26.84 LIG 0.01  A 
ATOM     25  CZ3 TRP G 420     -36.366 -32.287  33.146  1.00 27.14 LIG 0.00  A 
ATOM     26  CH2 TRP G 420     -35.950 -33.441  32.477  1.00 27.58 LIG 0.00  A 
ENDBRANCH 16 17
ENDBRANCH 1 16
BRANCH 1 27
ATOM     27  C   TRP G 420     -37.459 -28.186  31.743  1.00 38.21 LIG 0.24  C 
ATOM     28 O    TRP G 420     -36.246 -28.359  31.688  1.00 38.32 LIG-0.27  OA
ATOM     29  N   HIS G 421     -38.099 -27.821  32.867  1.00 36.18 LIG-0.35  N 
ATOM     30 H    HIS G 421     -38.947 -27.680  32.899  1.00 36.18 LIG 0.16  HD
BRANCH 29 31
ATOM     31  CA  HIS G 421     -37.425 -27.625  34.152  1.00 85.07 LIG 0.17  C 
BRANCH 31 32
ATOM     32  CB  HIS G 421     -38.444 -27.320  35.260  1.00 86.25 LIG 0.09  C 
BRANCH 32 33
ATOM     33  CG  HIS G 421     -38.704 -25.855  35.436  1.00 90.14 LIG 0.06  A 
ATOM     34 ND1  HIS G 421     -37.665 -24.942  35.521  1.00 92.13 LIG-0.24  NA
ATOM     35  CE1 HIS G 421     -38.241 -23.758  35.660  1.00 91.61 LIG 0.23  A 
ATOM     36 NE2  HIS G 421     -39.574 -23.857  35.659  1.00 91.87 LIG-0.25  NA
ATOM     37  CD2 HIS G 421     -39.880 -25.190  35.521  1.00 92.02 LIG 0.14  A 
ENDBRANCH 32 33
ENDBRANCH 31 32
BRANCH 31 38
ATOM     38  C   HIS G 421     -36.564 -28.819  34.528  1.00112.71 LIG 0.22  C 
ATOM     39 O    HIS G 421     -35.790 -28.737  35.478  1.00 75.09 LIG-0.29  OA
ENDBRANCH 31 38
ENDBRANCH 29 31
ENDBRANCH 1 27
TORSDOF 13
ENDMDL
MODEL 26
USER: ADFR SOLUTION from run 73
USER: SCORE 10.671240 LL:  -2.000 LR: -10.141 RR:   0.000 FEB:  -6.263
USER: RMSD 5.392409
USER: SEED 72
USER: STATUS no improvement in best in 24 clusters for 5 generations
USER: GENES 15
USER: genes 0 Translation |==|  0.61060 0.46622 0.47928
USER: genes 1 Rotation |==|  0.24576 0.49132 0.69525 0.88362
USER: genes 2 Torsion [CB]-CA--N-[C] |==|  0.50048
USER: genes 3 Torsion [N]-C--CA-[N] |==|  0.40690
USER: genes 4 Torsion [C]-CA--CB-[OG] |==|  0.14389
USER: genes 5 Torsion [CA]-CB--OG-[HG] |==|  0.70002
USER: genes 6 Torsion [C]-CA--N-[C] |==|  0.56177
USER: genes 7 Torsion [N]-C--CA-[N] |==|  0.41174
USER: genes 8 Torsion [N]-CA--CB-[CG] |==|  0.70766
USER: genes 9 Torsion [CA]-CB--CG-[CD1] |==|  0.73038
USER: genes 10 Torsion [N]-CA--C-[N] |==|  0.80526
USER: genes 11 Torsion [C]-N--CA-[C] |==|  0.12757
USER: genes 12 Torsion [N]-CA--CB-[CG] |==|  0.77041
USER: genes 13 Torsion [CA]-CB--CG-[ND1] |==|  0.30686
USER: genes 14 Torsion [N]-CA--C-[O] |==|  0.36420
ROOT
ATOM      1  CA  TRP G 420     -37.214 -28.866  30.318  1.00 30.19 LIG 0.18  C 
ENDROOT
BRANCH 1 2
ATOM      2  N   TRP G 420     -37.074 -28.011  31.495  1.00 29.90 LIG-0.35  N 
ATOM      3 H    TRP G 420     -36.360 -27.531  31.496  1.00 29.90 LIG 0.16  HD
ATOM      4  C   SER G 419     -37.982 -27.986  32.479  1.00 34.18 LIG 0.24  C 
ATOM      5 O    SER G 419     -39.037 -28.616  32.437  1.00 34.33 LIG-0.27  OA
BRANCH 4 6
ATOM      6  CA  SER G 419     -37.644 -27.132  33.703  1.00 31.26 LIG 0.20  C 
BRANCH 6 7
ATOM      7  CB  SER G 419     -36.893 -27.983  34.726  1.00 37.91 LIG 0.20  C 
BRANCH 7 8
ATOM      8 OG   SER G 419     -35.790 -28.636  34.115  1.00 57.41 LIG-0.40  OA
ATOM      9 HG   SER G 419     -35.955 -29.457  34.042  1.00 57.41 LIG 0.21  HD
ENDBRANCH 7 8
ENDBRANCH 6 7
BRANCH 6 10
ATOM     10  N   SER G 419     -38.838 -26.528  34.295  1.00 31.62 LIG-0.34  N 
ATOM     11 H    SER G 419     -39.575 -26.930  34.111  1.00 31.62 LIG 0.16  HD
ATOM     12  C   GLY G 418     -38.742 -25.429  35.064  1.00 37.47 LIG 0.25  C 
ATOM     13 O    GLY G 418     -37.665 -24.877  35.286  1.00 34.17 LIG-0.27  OA
BRANCH 12 14
ATOM     14  CA  GLY G 418     -40.020 -24.841  35.624  1.00 40.24 LIG 0.47  C 
ATOM     15  N   GLY G 418     -39.866 -24.199  36.924  1.00 42.39 LIG 0.61  N 
ENDBRANCH 12 14
ENDBRANCH 6 10
ENDBRANCH 4 6
ENDBRANCH 1 2
BRANCH 1 16
ATOM     16  CB  TRP G 420     -36.028 -28.684  29.375  1.00 27.27 LIG 0.07  C 
BRANCH 16 17
ATOM     17  CG  TRP G 420     -36.323 -27.888  28.140  1.00 26.68 LIG-0.03  A 
ATOM     18  CD1 TRP G 420     -36.631 -28.367  26.905  1.00 29.02 LIG 0.10  A 
ATOM     19  NE1 TRP G 420     -36.722 -27.330  26.003  1.00 28.83 LIG-0.36  N 
ATOM     20 HE1  TRP G 420     -36.870 -27.413  25.159  1.00 28.83 LIG 0.17  HD
ATOM     21  CE2 TRP G 420     -36.540 -26.146  26.668  1.00 29.48 LIG 0.04  A 
ATOM     22  CD2 TRP G 420     -36.274 -26.461  28.019  1.00 26.13 LIG-0.00  A 
ATOM     23  CZ2 TRP G 420     -36.545 -24.827  26.195  1.00 28.18 LIG 0.03  A 
ATOM     24  CE3 TRP G 420     -36.010 -25.418  28.923  1.00 26.84 LIG 0.01  A 
ATOM     25  CZ3 TRP G 420     -36.033 -24.108  28.453  1.00 27.14 LIG 0.00  A 
ATOM     26  CH2 TRP G 420     -36.293 -23.830  27.108  1.00 27.58 LIG 0.00  A 
ENDBRANCH 16 17
ENDBRANCH 1 16
BRANCH 1 27
ATOM     27  C   TRP G 420     -37.308 -30.319  30.768  1.00 38.21 LIG 0.24  C 
ATOM     28 O    TRP G 420     -38.359 -30.931  30.606  1.00 38.32 LIG-0.27  OA
ATOM     29  N   HIS G 421     -36.197 -30.885  31.272  1.00 36.18 LIG-0.35  N 
ATOM     30 H    HIS G 421     -35.456 -30.459  31.364  1.00 36.18 LIG 0.16  HD
BRANCH 29 31
ATOM     31  CA  HIS G 421     -36.132 -32.279  31.715  1.00 85.07 LIG 0.17  C 
BRANCH 31 32
ATOM     32  CB  HIS G 421     -36.780 -32.441  33.098  1.00 86.25 LIG 0.09  C 
BRANCH 32 33
ATOM     33  CG  HIS G 421     -35.861 -32.086  34.226  1.00 90.14 LIG 0.06  A 
ATOM     34 ND1  HIS G 421     -36.069 -30.955  34.999  1.00 92.13 LIG-0.24  NA
ATOM     35  CE1 HIS G 421     -35.095 -30.952  35.896  1.00 91.61 LIG 0.23  A 
ATOM     36 NE2  HIS G 421     -34.290 -32.008  35.751  1.00 91.87 LIG-0.25  NA
ATOM     37  CD2 HIS G 421     -34.767 -32.737  34.687  1.00 92.02 LIG 0.14  A 
ENDBRANCH 32 33
ENDBRANCH 31 32
BRANCH 31 38
ATOM     38  C   HIS G 421     -36.770 -33.222  30.709  1.00112.71 LIG 0.22  C 
ATOM     39 O    HIS G 421     -36.165 -34.230  30.351  1.00 75.09 LIG-0.29  OA
ENDBRANCH 31 38
ENDBRANCH 29 31
ENDBRANCH 1 27
TORSDOF 13
ENDMDL
MODEL 27
USER: ADFR SOLUTION from run 110
USER: SCORE 10.374858 LL:  -1.884 LR: -10.117 RR:   0.000 FEB:  -6.239
USER: RMSD 7.841300
USER: SEED 109
USER: STATUS no improvement in best in 27 clusters for 5 generations
USER: GENES 15
USER: genes 0 Translation |==|  0.65240 0.46210 0.66539
USER: genes 1 Rotation |==|  0.33535 0.23271 0.19880 0.74643
USER: genes 2 Torsion [CB]-CA--N-[C] |==|  0.23333
USER: genes 3 Torsion [N]-C--CA-[N] |==|  0.45162
USER: genes 4 Torsion [C]-CA--CB-[OG] |==|  0.80059
USER: genes 5 Torsion [CA]-CB--OG-[HG] |==|  0.76151
USER: genes 6 Torsion [C]-CA--N-[C] |==|  0.50016
USER: genes 7 Torsion [N]-C--CA-[N] |==|  0.51898
USER: genes 8 Torsion [N]-CA--CB-[CG] |==|  0.79858
USER: genes 9 Torsion [CA]-CB--CG-[CD1] |==|  0.75740
USER: genes 10 Torsion [N]-CA--C-[N] |==|  0.18414
USER: genes 11 Torsion [C]-N--CA-[C] |==|  0.81200
USER: genes 12 Torsion [N]-CA--CB-[CG] |==|  0.54367
USER: genes 13 Torsion [CA]-CB--CG-[ND1] |==|  0.58541
USER: genes 14 Torsion [N]-CA--C-[O] |==|  0.27357
ROOT
ATOM      1  CA  TRP G 420     -36.618 -28.940  34.505  1.00 30.19 LIG 0.18  C 
ENDROOT
BRANCH 1 2
ATOM      2  N   TRP G 420     -37.643 -27.908  34.650  1.00 29.90 LIG-0.35  N 
ATOM      3 H    TRP G 420     -38.318 -28.009  34.127  1.00 29.90 LIG 0.16  HD
ATOM      4  C   SER G 419     -37.530 -26.899  35.523  1.00 34.18 LIG 0.24  C 
ATOM      5 O    SER G 419     -36.599 -26.800  36.321  1.00 34.33 LIG-0.27  OA
BRANCH 4 6
ATOM      6  CA  SER G 419     -38.623 -25.829  35.480  1.00 31.26 LIG 0.20  C 
BRANCH 6 7
ATOM      7  CB  SER G 419     -38.431 -24.954  34.242  1.00 37.91 LIG 0.20  C 
BRANCH 7 8
ATOM      8 OG   SER G 419     -37.298 -24.113  34.398  1.00 57.41 LIG-0.40  OA
ATOM      9 HG   SER G 419     -37.522 -23.412  34.803  1.00 57.41 LIG 0.21  HD
ENDBRANCH 7 8
ENDBRANCH 6 7
BRANCH 6 10
ATOM     10  N   SER G 419     -38.644 -25.019  36.698  1.00 31.62 LIG-0.34  N 
ATOM     11 H    SER G 419     -38.052 -25.232  37.284  1.00 31.62 LIG 0.16  HD
ATOM     12  C   GLY G 418     -39.538 -24.026  36.848  1.00 37.47 LIG 0.25  C 
ATOM     13 O    GLY G 418     -40.380 -23.769  35.988  1.00 34.17 LIG-0.27  OA
BRANCH 12 14
ATOM     14  CA  GLY G 418     -39.521 -23.245  38.145  1.00 40.24 LIG 0.47  C 
ATOM     15  N   GLY G 418     -40.619 -22.295  38.288  1.00 42.39 LIG 0.61  N 
ENDBRANCH 12 14
ENDBRANCH 6 10
ENDBRANCH 4 6
ENDBRANCH 1 2
BRANCH 1 16
ATOM     16  CB  TRP G 420     -36.808 -30.038  35.548  1.00 27.27 LIG 0.07  C 
BRANCH 16 17
ATOM     17  CG  TRP G 420     -36.443 -29.645  36.948  1.00 26.68 LIG-0.03  A 
ATOM     18  CD1 TRP G 420     -35.216 -29.720  37.532  1.00 29.02 LIG 0.10  A 
ATOM     19  NE1 TRP G 420     -35.302 -29.375  38.862  1.00 28.83 LIG-0.36  N 
ATOM     20 HE1  TRP G 420     -34.652 -29.392  39.426  1.00 28.83 LIG 0.17  HD
ATOM     21  CE2 TRP G 420     -36.591 -29.002  39.142  1.00 29.48 LIG 0.04  A 
ATOM     22  CD2 TRP G 420     -37.342 -29.171  37.957  1.00 26.13 LIG-0.00  A 
ATOM     23  CZ2 TRP G 420     -37.172 -28.569  40.341  1.00 28.18 LIG 0.03  A 
ATOM     24  CE3 TRP G 420     -38.720 -28.891  37.978  1.00 26.84 LIG 0.01  A 
ATOM     25  CZ3 TRP G 420     -39.290 -28.444  39.167  1.00 27.14 LIG 0.00  A 
ATOM     26  CH2 TRP G 420     -38.520 -28.294  40.323  1.00 27.58 LIG 0.00  A 
ENDBRANCH 16 17
ENDBRANCH 1 16
BRANCH 1 27
ATOM     27  C   TRP G 420     -36.702 -29.530  33.103  1.00 38.21 LIG 0.24  C 
ATOM     28 O    TRP G 420     -37.095 -30.683  32.959  1.00 38.32 LIG-0.27  OA
ATOM     29  N   HIS G 421     -36.394 -28.724  32.072  1.00 36.18 LIG-0.35  N 
ATOM     30 H    HIS G 421     -36.140 -27.909  32.175  1.00 36.18 LIG 0.16  HD
BRANCH 29 31
ATOM     31  CA  HIS G 421     -36.460 -29.145  30.671  1.00 85.07 LIG 0.17  C 
BRANCH 31 32
ATOM     32  CB  HIS G 421     -36.333 -27.935  29.733  1.00 86.25 LIG 0.09  C 
BRANCH 32 33
ATOM     33  CG  HIS G 421     -36.760 -28.230  28.328  1.00 90.14 LIG 0.06  A 
ATOM     34 ND1  HIS G 421     -36.185 -27.580  27.248  1.00 92.13 LIG-0.24  NA
ATOM     35  CE1 HIS G 421     -36.778 -28.081  26.174  1.00 91.61 LIG 0.23  A 
ATOM     36 NE2  HIS G 421     -37.681 -29.009  26.500  1.00 91.87 LIG-0.25  NA
ATOM     37  CD2 HIS G 421     -37.681 -29.110  27.872  1.00 92.02 LIG 0.14  A 
ENDBRANCH 32 33
ENDBRANCH 31 32
BRANCH 31 38
ATOM     38  C   HIS G 421     -35.406 -30.190  30.345  1.00112.71 LIG 0.22  C 
ATOM     39 O    HIS G 421     -35.714 -31.379  30.327  1.00 75.09 LIG-0.29  OA
ENDBRANCH 31 38
ENDBRANCH 29 31
ENDBRANCH 1 27
TORSDOF 13
ENDMDL
MODEL 28
USER: ADFR SOLUTION from run 192
USER: SCORE 10.689075 LL:  -1.534 LR: -10.114 RR:   0.000 FEB:  -6.237
USER: RMSD 6.308621
USER: SEED 191
USER: STATUS no improvement in best in 13 clusters for 5 generations
USER: GENES 15
USER: genes 0 Translation |==|  0.66622 0.50336 0.47279
USER: genes 1 Rotation |==|  0.73172 0.89080 0.36643 0.66043
USER: genes 2 Torsion [CB]-CA--N-[C] |==|  0.88379
USER: genes 3 Torsion [N]-C--CA-[N] |==|  0.13889
USER: genes 4 Torsion [C]-CA--CB-[OG] |==|  0.17529
USER: genes 5 Torsion [CA]-CB--OG-[HG] |==|  0.33163
USER: genes 6 Torsion [C]-CA--N-[C] |==|  0.16004
USER: genes 7 Torsion [N]-C--CA-[N] |==|  0.76368
USER: genes 8 Torsion [N]-CA--CB-[CG] |==|  0.84043
USER: genes 9 Torsion [CA]-CB--CG-[CD1] |==|  0.08318
USER: genes 10 Torsion [N]-CA--C-[N] |==|  0.80208
USER: genes 11 Torsion [C]-N--CA-[C] |==|  0.49106
USER: genes 12 Torsion [N]-CA--CB-[CG] |==|  0.25531
USER: genes 13 Torsion [CA]-CB--CG-[ND1] |==|  0.70165
USER: genes 14 Torsion [N]-CA--C-[O] |==|  0.07239
ROOT
ATOM      1  CA  TRP G 420     -36.421 -28.197  30.172  1.00 30.19 LIG 0.18  C 
ENDROOT
BRANCH 1 2
ATOM      2  N   TRP G 420     -36.969 -29.295  29.376  1.00 29.90 LIG-0.35  N 
ATOM      3 H    TRP G 420     -36.385 -29.880  29.139  1.00 29.90 LIG 0.16  HD
ATOM      4  C   SER G 419     -38.266 -29.370  29.051  1.00 34.18 LIG 0.24  C 
ATOM      5 O    SER G 419     -39.109 -28.572  29.455  1.00 34.33 LIG-0.27  OA
BRANCH 4 6
ATOM      6  CA  SER G 419     -38.672 -30.510  28.114  1.00 31.26 LIG 0.20  C 
BRANCH 6 7
ATOM      7  CB  SER G 419     -40.194 -30.541  27.978  1.00 37.91 LIG 0.20  C 
BRANCH 7 8
ATOM      8 OG   SER G 419     -40.663 -29.342  27.379  1.00 57.41 LIG-0.40  OA
ATOM      9 HG   SER G 419     -41.059 -29.523  26.661  1.00 57.41 LIG 0.21  HD
ENDBRANCH 7 8
ENDBRANCH 6 7
BRANCH 6 10
ATOM     10  N   SER G 419     -38.159 -31.802  28.571  1.00 31.62 LIG-0.34  N 
ATOM     11 H    SER G 419     -37.662 -32.215  28.003  1.00 31.62 LIG 0.16  HD
ATOM     12  C   GLY G 418     -38.466 -32.270  29.793  1.00 37.47 LIG 0.25  C 
ATOM     13 O    GLY G 418     -39.198 -31.653  30.565  1.00 34.17 LIG-0.27  OA
BRANCH 12 14
ATOM     14  CA  GLY G 418     -37.923 -33.626  30.191  1.00 40.24 LIG 0.47  C 
ATOM     15  N   GLY G 418     -38.740 -34.753  29.753  1.00 42.39 LIG 0.61  N 
ENDBRANCH 12 14
ENDBRANCH 6 10
ENDBRANCH 4 6
ENDBRANCH 1 2
BRANCH 1 16
ATOM     16  CB  TRP G 420     -37.016 -26.863  29.731  1.00 27.27 LIG 0.07  C 
BRANCH 16 17
ATOM     17  CG  TRP G 420     -36.812 -26.531  28.283  1.00 26.68 LIG-0.03  A 
ATOM     18  CD1 TRP G 420     -36.704 -27.404  27.245  1.00 29.02 LIG 0.10  A 
ATOM     19  NE1 TRP G 420     -36.410 -26.726  26.084  1.00 28.83 LIG-0.36  N 
ATOM     20 HE1  TRP G 420     -36.261 -27.087  25.317  1.00 28.83 LIG 0.17  HD
ATOM     21  CE2 TRP G 420     -36.394 -25.381  26.347  1.00 29.48 LIG 0.04  A 
ATOM     22  CD2 TRP G 420     -36.633 -25.222  27.731  1.00 26.13 LIG-0.00  A 
ATOM     23  CZ2 TRP G 420     -36.150 -24.291  25.501  1.00 28.18 LIG 0.03  A 
ATOM     24  CE3 TRP G 420     -36.632 -23.927  28.278  1.00 26.84 LIG 0.01  A 
ATOM     25  CZ3 TRP G 420     -36.408 -22.847  27.431  1.00 27.14 LIG 0.00  A 
ATOM     26  CH2 TRP G 420     -36.166 -23.038  26.068  1.00 27.58 LIG 0.00  A 
ENDBRANCH 16 17
ENDBRANCH 1 16
BRANCH 1 27
ATOM     27  C   TRP G 420     -36.730 -28.448  31.642  1.00 38.21 LIG 0.24  C 
ATOM     28 O    TRP G 420     -35.812 -28.706  32.413  1.00 38.32 LIG-0.27  OA
ATOM     29  N   HIS G 421     -38.008 -28.313  32.039  1.00 36.18 LIG-0.35  N 
ATOM     30 H    HIS G 421     -38.647 -28.112  31.500  1.00 36.18 LIG 0.16  HD
BRANCH 29 31
ATOM     31  CA  HIS G 421     -38.445 -28.493  33.425  1.00 85.07 LIG 0.17  C 
BRANCH 31 32
ATOM     32  CB  HIS G 421     -37.610 -27.623  34.376  1.00 86.25 LIG 0.09  C 
BRANCH 32 33
ATOM     33  CG  HIS G 421     -38.213 -26.276  34.627  1.00 90.14 LIG 0.06  A 
ATOM     34 ND1  HIS G 421     -37.665 -25.126  34.080  1.00 92.13 LIG-0.24  NA
ATOM     35  CE1 HIS G 421     -38.440 -24.133  34.488  1.00 91.61 LIG 0.23  A 
ATOM     36 NE2  HIS G 421     -39.447 -24.575  35.247  1.00 91.87 LIG-0.25  NA
ATOM     37  CD2 HIS G 421     -39.310 -25.940  35.345  1.00 92.02 LIG 0.14  A 
ENDBRANCH 32 33
ENDBRANCH 31 32
BRANCH 31 38
ATOM     38  C   HIS G 421     -39.927 -28.201  33.592  1.00112.71 LIG 0.22  C 
ATOM     39 O    HIS G 421     -40.686 -28.333  32.635  1.00 75.09 LIG-0.29  OA
ENDBRANCH 31 38
ENDBRANCH 29 31
ENDBRANCH 1 27
TORSDOF 13
ENDMDL
MODEL 29
USER: ADFR SOLUTION from run 27
USER: SCORE 10.417194 LL:  -2.349 LR: -10.091 RR:   0.000 FEB:  -6.213
USER: RMSD 6.347864
USER: SEED 26
USER: STATUS no improvement in best in 18 clusters for 5 generations
USER: GENES 15
USER: genes 0 Translation |==|  0.63160 0.41667 0.40382
USER: genes 1 Rotation |==|  0.77178 0.89984 0.40778 0.58807
USER: genes 2 Torsion [CB]-CA--N-[C] |==|  0.92732
USER: genes 3 Torsion [N]-C--CA-[N] |==|  0.85559
USER: genes 4 Torsion [C]-CA--CB-[OG] |==|  0.80284
USER: genes 5 Torsion [CA]-CB--OG-[HG] |==|  0.09300
USER: genes 6 Torsion [C]-CA--N-[C] |==|  0.74663
USER: genes 7 Torsion [N]-C--CA-[N] |==|  0.43511
USER: genes 8 Torsion [N]-CA--CB-[CG] |==|  0.80302
USER: genes 9 Torsion [CA]-CB--CG-[CD1] |==|  0.04161
USER: genes 10 Torsion [N]-CA--C-[N] |==|  0.07897
USER: genes 11 Torsion [C]-N--CA-[C] |==|  0.60981
USER: genes 12 Torsion [N]-CA--CB-[CG] |==|  0.89039
USER: genes 13 Torsion [CA]-CB--CG-[ND1] |==|  0.28450
USER: genes 14 Torsion [N]-CA--C-[O] |==|  0.07626
ROOT
ATOM      1  CA  TRP G 420     -36.915 -29.758  28.620  1.00 30.19 LIG 0.18  C 
ENDROOT
BRANCH 1 2
ATOM      2  N   TRP G 420     -37.693 -30.467  27.606  1.00 29.90 LIG-0.35  N 
ATOM      3 H    TRP G 420     -37.290 -31.147  27.267  1.00 29.90 LIG 0.16  HD
ATOM      4  C   SER G 419     -38.923 -30.081  27.243  1.00 34.18 LIG 0.24  C 
ATOM      5 O    SER G 419     -39.525 -29.155  27.783  1.00 34.33 LIG-0.27  OA
BRANCH 4 6
ATOM      6  CA  SER G 419     -39.569 -30.847  26.086  1.00 31.26 LIG 0.20  C 
BRANCH 6 7
ATOM      7  CB  SER G 419     -39.953 -32.250  26.554  1.00 37.91 LIG 0.20  C 
BRANCH 7 8
ATOM      8 OG   SER G 419     -38.792 -33.043  26.752  1.00 57.41 LIG-0.40  OA
ATOM      9 HG   SER G 419     -38.164 -32.557  27.026  1.00 57.41 LIG 0.21  HD
ENDBRANCH 7 8
ENDBRANCH 6 7
BRANCH 6 10
ATOM     10  N   SER G 419     -38.695 -30.904  24.914  1.00 31.62 LIG-0.34  N 
ATOM     11 H    SER G 419     -38.156 -31.573  24.897  1.00 31.62 LIG 0.16  HD
ATOM     12  C   GLY G 418     -38.764 -29.960  23.959  1.00 37.47 LIG 0.25  C 
ATOM     13 O    GLY G 418     -39.540 -29.008  24.034  1.00 34.17 LIG-0.27  OA
BRANCH 12 14
ATOM     14  CA  GLY G 418     -37.813 -30.066  22.786  1.00 40.24 LIG 0.47  C 
ATOM     15  N   GLY G 418     -38.268 -29.383  21.580  1.00 42.39 LIG 0.61  N 
ENDBRANCH 12 14
ENDBRANCH 6 10
ENDBRANCH 4 6
ENDBRANCH 1 2
BRANCH 1 16
ATOM     16  CB  TRP G 420     -37.342 -28.295  28.702  1.00 27.27 LIG 0.07  C 
BRANCH 16 17
ATOM     17  CG  TRP G 420     -36.940 -27.455  27.527  1.00 26.68 LIG-0.03  A 
ATOM     18  CD1 TRP G 420     -36.509 -27.891  26.313  1.00 29.02 LIG 0.10  A 
ATOM     19  NE1 TRP G 420     -36.127 -26.821  25.534  1.00 28.83 LIG-0.36  N 
ATOM     20 HE1  TRP G 420     -35.787 -26.873  24.745  1.00 28.83 LIG 0.17  HD
ATOM     21  CE2 TRP G 420     -36.376 -25.661  26.220  1.00 29.48 LIG 0.04  A 
ATOM     22  CD2 TRP G 420     -36.880 -26.025  27.489  1.00 26.13 LIG-0.00  A 
ATOM     23  CZ2 TRP G 420     -36.165 -24.325  25.854  1.00 28.18 LIG 0.03  A 
ATOM     24  CE3 TRP G 420     -37.187 -25.013  28.416  1.00 26.84 LIG 0.01  A 
ATOM     25  CZ3 TRP G 420     -36.993 -23.687  28.042  1.00 27.14 LIG 0.00  A 
ATOM     26  CH2 TRP G 420     -36.485 -23.360  26.782  1.00 27.58 LIG 0.00  A 
ENDBRANCH 16 17
ENDBRANCH 1 16
BRANCH 1 27
ATOM     27  C   TRP G 420     -37.117 -30.440  29.967  1.00 38.21 LIG 0.24  C 
ATOM     28 O    TRP G 420     -37.077 -29.767  30.992  1.00 38.32 LIG-0.27  OA
ATOM     29  N   HIS G 421     -37.394 -31.755  29.961  1.00 36.18 LIG-0.35  N 
ATOM     30 H    HIS G 421     -37.442 -32.220  29.239  1.00 36.18 LIG 0.16  HD
BRANCH 29 31
ATOM     31  CA  HIS G 421     -37.642 -32.533  31.176  1.00 85.07 LIG 0.17  C 
BRANCH 31 32
ATOM     32  CB  HIS G 421     -39.149 -32.642  31.455  1.00 86.25 LIG 0.09  C 
BRANCH 32 33
ATOM     33  CG  HIS G 421     -39.895 -31.375  31.167  1.00 90.14 LIG 0.06  A 
ATOM     34 ND1  HIS G 421     -40.647 -31.226  30.013  1.00 92.13 LIG-0.24  NA
ATOM     35  CE1 HIS G 421     -41.172 -30.012  30.084  1.00 91.61 LIG 0.23  A 
ATOM     36 NE2  HIS G 421     -40.812 -29.386  31.208  1.00 91.87 LIG-0.25  NA
ATOM     37  CD2 HIS G 421     -39.995 -30.245  31.905  1.00 92.02 LIG 0.14  A 
ENDBRANCH 32 33
ENDBRANCH 31 32
BRANCH 31 38
ATOM     38  C   HIS G 421     -37.008 -33.913  31.104  1.00112.71 LIG 0.22  C 
ATOM     39 O    HIS G 421     -36.010 -34.088  30.409  1.00 75.09 LIG-0.29  OA
ENDBRANCH 31 38
ENDBRANCH 29 31
ENDBRANCH 1 27
TORSDOF 13
ENDMDL
MODEL 30
USER: ADFR SOLUTION from run 141
USER: SCORE 10.450080 LL:  -1.754 LR: -10.056 RR:   0.000 FEB:  -6.178
USER: RMSD 3.144987
USER: SEED 140
USER: STATUS no improvement in best in 24 clusters for 5 generations
USER: GENES 15
USER: genes 0 Translation |==|  0.60105 0.43354 0.44564
USER: genes 1 Rotation |==|  0.68748 0.47407 0.59820 0.95225
USER: genes 2 Torsion [CB]-CA--N-[C] |==|  0.22936
USER: genes 3 Torsion [N]-C--CA-[N] |==|  0.55931
USER: genes 4 Torsion [C]-CA--CB-[OG] |==|  0.47261
USER: genes 5 Torsion [CA]-CB--OG-[HG] |==|  0.38952
USER: genes 6 Torsion [C]-CA--N-[C] |==|  0.62587
USER: genes 7 Torsion [N]-C--CA-[N] |==|  0.27644
USER: genes 8 Torsion [N]-CA--CB-[CG] |==|  0.35560
USER: genes 9 Torsion [CA]-CB--CG-[CD1] |==|  0.81148
USER: genes 10 Torsion [N]-CA--C-[N] |==|  0.93889
USER: genes 11 Torsion [C]-N--CA-[C] |==|  0.57506
USER: genes 12 Torsion [N]-CA--CB-[CG] |==|  0.50148
USER: genes 13 Torsion [CA]-CB--CG-[ND1] |==|  0.24146
USER: genes 14 Torsion [N]-CA--C-[O] |==|  0.02415
ROOT
ATOM      1  CA  TRP G 420     -37.350 -29.454  29.561  1.00 30.19 LIG 0.18  C 
ENDROOT
BRANCH 1 2
ATOM      2  N   TRP G 420     -36.774 -30.762  29.868  1.00 29.90 LIG-0.35  N 
ATOM      3 H    TRP G 420     -36.715 -31.287  29.190  1.00 29.90 LIG 0.16  HD
ATOM      4  C   SER G 419     -36.377 -31.101  31.101  1.00 34.18 LIG 0.24  C 
ATOM      5 O    SER G 419     -36.393 -30.322  32.052  1.00 34.33 LIG-0.27  OA
BRANCH 4 6
ATOM      6  CA  SER G 419     -35.904 -32.544  31.297  1.00 31.26 LIG 0.20  C 
BRANCH 6 7
ATOM      7  CB  SER G 419     -36.728 -33.475  30.408  1.00 37.91 LIG 0.20  C 
BRANCH 7 8
ATOM      8 OG   SER G 419     -36.165 -34.779  30.399  1.00 57.41 LIG-0.40  OA
ATOM      9 HG   SER G 419     -36.780 -35.350  30.419  1.00 57.41 LIG 0.21  HD
ENDBRANCH 7 8
ENDBRANCH 6 7
BRANCH 6 10
ATOM     10  N   SER G 419     -35.974 -32.957  32.699  1.00 31.62 LIG-0.34  N 
ATOM     11 H    SER G 419     -36.702 -32.744  33.103  1.00 31.62 LIG 0.16  HD
ATOM     12  C   GLY G 418     -34.952 -33.616  33.272  1.00 37.47 LIG 0.25  C 
ATOM     13 O    GLY G 418     -33.919 -33.883  32.659  1.00 34.17 LIG-0.27  OA
BRANCH 12 14
ATOM     14  CA  GLY G 418     -35.079 -33.991  34.733  1.00 40.24 LIG 0.47  C 
ATOM     15  N   GLY G 418     -35.478 -35.374  34.967  1.00 42.39 LIG 0.61  N 
ENDBRANCH 12 14
ENDBRANCH 6 10
ENDBRANCH 4 6
ENDBRANCH 1 2
BRANCH 1 16
ATOM     16  CB  TRP G 420     -36.251 -28.418  29.347  1.00 27.27 LIG 0.07  C 
BRANCH 16 17
ATOM     17  CG  TRP G 420     -36.359 -27.641  28.069  1.00 26.68 LIG-0.03  A 
ATOM     18  CD1 TRP G 420     -36.196 -28.111  26.803  1.00 29.02 LIG 0.10  A 
ATOM     19  NE1 TRP G 420     -36.260 -27.074  25.900  1.00 28.83 LIG-0.36  N 
ATOM     20 HE1  TRP G 420     -36.144 -27.142  25.050  1.00 28.83 LIG 0.17  HD
ATOM     21  CE2 TRP G 420     -36.538 -25.914  26.575  1.00 29.48 LIG 0.04  A 
ATOM     22  CD2 TRP G 420     -36.596 -26.233  27.950  1.00 26.13 LIG-0.00  A 
ATOM     23  CZ2 TRP G 420     -36.704 -24.605  26.104  1.00 28.18 LIG 0.03  A 
ATOM     24  CE3 TRP G 420     -36.833 -25.205  28.879  1.00 26.84 LIG 0.01  A 
ATOM     25  CZ3 TRP G 420     -37.015 -23.910  28.406  1.00 27.14 LIG 0.00  A 
ATOM     26  CH2 TRP G 420     -36.944 -23.625  27.040  1.00 27.58 LIG 0.00  A 
ENDBRANCH 16 17
ENDBRANCH 1 16
BRANCH 1 27
ATOM     27  C   TRP G 420     -38.210 -29.572  28.308  1.00 38.21 LIG 0.24  C 
ATOM     28 O    TRP G 420     -39.050 -28.710  28.074  1.00 38.32 LIG-0.27  OA
ATOM     29  N   HIS G 421     -37.958 -30.600  27.478  1.00 36.18 LIG-0.35  N 
ATOM     30 H    HIS G 421     -37.354 -31.191  27.635  1.00 36.18 LIG 0.16  HD
BRANCH 29 31
ATOM     31  CA  HIS G 421     -38.683 -30.820  26.225  1.00 85.07 LIG 0.17  C 
BRANCH 31 32
ATOM     32  CB  HIS G 421     -38.089 -29.965  25.096  1.00 86.25 LIG 0.09  C 
BRANCH 32 33
ATOM     33  CG  HIS G 421     -38.799 -30.138  23.789  1.00 90.14 LIG 0.06  A 
ATOM     34 ND1  HIS G 421     -39.915 -29.383  23.467  1.00 92.13 LIG-0.24  NA
ATOM     35  CE1 HIS G 421     -40.276 -29.779  22.255  1.00 91.61 LIG 0.23  A 
ATOM     36 NE2  HIS G 421     -39.459 -30.725  21.784  1.00 91.87 LIG-0.25  NA
ATOM     37  CD2 HIS G 421     -38.515 -30.965  22.755  1.00 92.02 LIG 0.14  A 
ENDBRANCH 32 33
ENDBRANCH 31 32
BRANCH 31 38
ATOM     38  C   HIS G 421     -38.701 -32.289  25.834  1.00112.71 LIG 0.22  C 
ATOM     39 O    HIS G 421     -38.288 -33.134  26.624  1.00 75.09 LIG-0.29  OA
ENDBRANCH 31 38
ENDBRANCH 29 31
ENDBRANCH 1 27
TORSDOF 13
ENDMDL
