MODEL 1
USER: ADFR SOLUTION from run 11
USER: SCORE 19.767423 LL:  -4.647 LR: -18.597 RR:   0.000 FEB: -11.736
USER: RMSD 11.212064
USER: SEED 654871
USER: STATUS no improvement in best in 5 clusters for 5 generations
USER: GENES 25
USER: genes 0 Translation |==|  0.48895 0.46589 0.51432
USER: genes 1 Rotation |==|  0.81443 0.58653 0.12322 0.54096
USER: genes 2 Torsion [N]-C--CA-[N] |==|  0.20403
USER: genes 3 Torsion [C]-CA--N-[C] |==|  0.15847
USER: genes 4 Torsion [N]-C--CA-[N] |==|  0.87012
USER: genes 5 Torsion [C]-CA--CB-[CG] |==|  0.39697
USER: genes 6 Torsion [CA]-CB--CG-[CD2] |==|  0.54469
USER: genes 7 Torsion [C]-CA--N-[C] |==|  0.69063
USER: genes 8 Torsion [N]-C--CA-[N] |==|  0.46893
USER: genes 9 Torsion [C]-CA--CB-[CG] |==|  0.53300
USER: genes 10 Torsion [CA]-CB--CG-[OD2] |==|  0.02533
USER: genes 11 Torsion [C]-CA--CB-[CG] |==|  0.54608
USER: genes 12 Torsion [CA]-CB--CG-[ND2] |==|  0.78778
USER: genes 13 Torsion [C]-N--CA-[CB] |==|  0.43896
USER: genes 14 Torsion [N]-CA--CB-[CG] |==|  0.50002
USER: genes 15 Torsion [CA]-CB--CG-[CD1] |==|  0.60042
USER: genes 16 Torsion [N]-CA--C-[N] |==|  0.85556
USER: genes 17 Torsion [C]-N--CA-[C] |==|  0.48343
USER: genes 18 Torsion [N]-CA--C-[N] |==|  0.25331
USER: genes 19 Torsion [C]-N--CA-[CB] |==|  0.25277
USER: genes 20 Torsion [N]-CA--CB-[CG2] |==|  0.84000
USER: genes 21 Torsion [N]-CA--C-[O] |==|  0.67530
USER: genes 22 Torsion [N]-CA--CB-[CG] |==|  0.62591
USER: genes 23 Torsion [CA]-CB--CG-[CD] |==|  0.75776
USER: genes 24 Torsion [CB]-CG--CD-[OE1] |==|  0.20911
ROOT
ATOM      1  C   ASN P   4      33.648  -3.214 -31.063  1.00 47.61 LIG 0.24  C 
ATOM      2 O    ASN P   4      32.473  -3.482 -30.992  1.00 46.30 LIG-0.27  OA
ATOM      3  N   TRP P   5      34.109  -2.051 -30.608  1.00 43.61 LIG-0.35  N 
ATOM      4 H    TRP P   5      34.925  -1.780 -30.635  1.00 43.61 LIG 0.16  HD
ENDROOT
BRANCH 1 5
ATOM      5  CA  ASN P   4      34.625  -4.232 -31.660  1.00 56.71 LIG 0.18  C 
BRANCH 5 6
ATOM      6  N   ASN P   4      35.405  -4.846 -30.599  1.00 58.55 LIG-0.35  N 
ATOM      7  C   TRP P   3      34.811  -5.472 -29.602  1.00 51.89 LIG 0.24  C 
ATOM      8 O    TRP P   3      33.601  -5.401 -29.378  1.00 53.51 LIG-0.27  OA
ATOM      9 H    ASN P   4      36.257  -4.764 -30.684  1.00 58.55 LIG 0.16  HD
BRANCH 7 10
ATOM     10  CA  TRP P   3      35.692  -6.209 -28.667  1.00 49.09 LIG 0.18  C 
BRANCH 10 11
ATOM     11  CB  TRP P   3      36.313  -5.078 -27.845  1.00 45.21 LIG 0.07  C 
BRANCH 11 12
ATOM     12  CG  TRP P   3      36.575  -5.298 -26.300  1.00 38.74 LIG-0.03  A 
ATOM     13  CD1 TRP P   3      36.505  -6.487 -25.564  1.00 32.85 LIG 0.10  A 
ATOM     14  NE1 TRP P   3      36.715  -6.216 -24.199  1.00 33.71 LIG-0.36  N 
ATOM     15  CE2 TRP P   3      36.930  -4.873 -24.041  1.00 32.42 LIG 0.04  A 
ATOM     16 HE1  TRP P   3      36.709  -6.799 -23.567  1.00 33.71 LIG 0.17  HD
ATOM     17  CZ2 TRP P   3      37.119  -4.121 -22.854  1.00 29.39 LIG 0.03  A 
ATOM     18  CD2 TRP P   3      36.840  -4.255 -25.323  1.00 33.85 LIG-0.00  A 
ATOM     19  CH2 TRP P   3      37.318  -2.786 -23.012  1.00 25.26 LIG 0.00  A 
ATOM     20  CZ3 TRP P   3      37.267  -2.149 -24.248  1.00 33.31 LIG 0.00  A 
ATOM     21  CE3 TRP P   3      36.988  -2.874 -25.420  1.00 32.67 LIG 0.01  A 
ENDBRANCH 11 12
ENDBRANCH 10 11
BRANCH 10 22
ATOM     22  N   TRP P   3      36.737  -7.080 -29.348  1.00 48.62 LIG-0.34  N 
ATOM     23 H    TRP P   3      37.344  -6.628 -29.758  1.00 48.62 LIG 0.16  HD
ATOM     24  C   ASP P   2      36.723  -8.431 -29.320  1.00 44.46 LIG 0.26  C 
ATOM     25 O    ASP P   2      35.748  -9.070 -28.842  1.00 32.12 LIG-0.27  OA
BRANCH 24 26
ATOM     26  CA  ASP P   2      38.020  -9.210 -29.841  1.00 48.39 LIG 0.41  C 
ATOM     27  N   ASP P   2      37.926 -10.666 -29.482  1.00 44.52 LIG 0.61  N 
BRANCH 26 28
ATOM     28  CB  ASP P   2      38.380  -9.040 -31.364  1.00 55.68 LIG 0.16  C 
BRANCH 28 29
ATOM     29  CG  ASP P   2      39.498 -10.076 -31.879  1.00 65.31 LIG 0.17  C 
ATOM     30 OD2  ASP P   2      39.876 -11.041 -31.123  1.00 61.23 LIG-0.65  OA
ATOM     31 OD1  ASP P   2      40.011  -9.920 -33.038  1.00 59.39 LIG-0.65  OA
ENDBRANCH 28 29
ENDBRANCH 26 28
ENDBRANCH 24 26
ENDBRANCH 10 22
ENDBRANCH 7 10
ENDBRANCH 5 6
BRANCH 5 32
ATOM     32  CB  ASN P   4      33.903  -5.328 -32.491  1.00 62.15 LIG 0.14  C 
BRANCH 32 33
ATOM     33  CG  ASN P   4      34.781  -6.549 -32.748  1.00 66.74 LIG 0.22  C 
ATOM     34 OD1  ASN P   4      34.625  -7.584 -32.097  1.00 65.57 LIG-0.27  OA
ATOM     35  ND2 ASN P   4      35.720  -6.428 -33.679  1.00 62.00 LIG-0.37  N 
ATOM     36 21HD ASN P   4      36.248  -7.086 -33.846  1.00 62.00 LIG 0.16  HD
ATOM     37 22HD ASN P   4      35.801  -5.691 -34.115  1.00 62.00 LIG 0.16  HD
ENDBRANCH 32 33
ENDBRANCH 5 32
ENDBRANCH 1 5
BRANCH 3 38
ATOM     38  CA  TRP P   5      33.148  -1.150 -30.010  1.00 39.30 LIG 0.18  C 
BRANCH 38 39
ATOM     39  CB  TRP P   5      33.795  -0.122 -29.058  1.00 34.53 LIG 0.07  C 
BRANCH 39 40
ATOM     40  CG  TRP P   5      32.870   0.848 -28.397  1.00 28.80 LIG-0.03  A 
ATOM     41  CD1 TRP P   5      33.139   2.141 -28.125  1.00 24.67 LIG 0.10  A 
ATOM     42  NE1 TRP P   5      32.104   2.707 -27.488  1.00 28.39 LIG-0.36  N 
ATOM     43 HE1  TRP P   5      32.085   3.518 -27.199  1.00 28.39 LIG 0.17  HD
ATOM     44  CE2 TRP P   5      31.078   1.803 -27.365  1.00 28.85 LIG 0.04  A 
ATOM     45  CZ2 TRP P   5      29.810   1.950 -26.844  1.00 29.12 LIG 0.03  A 
ATOM     46  CD2 TRP P   5      31.521   0.609 -27.952  1.00 31.26 LIG-0.00  A 
ATOM     47  CH2 TRP P   5      28.995   0.846 -26.832  1.00 31.42 LIG 0.00  A 
ATOM     48  CZ3 TRP P   5      29.430  -0.396 -27.327  1.00 31.13 LIG 0.00  A 
ATOM     49  CE3 TRP P   5      30.691  -0.526 -27.899  1.00 35.06 LIG 0.01  A 
ENDBRANCH 39 40
ENDBRANCH 38 39
BRANCH 38 50
ATOM     50  C   TRP P   5      32.374  -0.555 -31.169  1.00 44.67 LIG 0.24  C 
ATOM     51 O    TRP P   5      31.160  -0.571 -31.183  1.00 47.12 LIG-0.27  OA
ATOM     52  N   GLU P   6      33.091  -0.020 -32.139  1.00 57.45 LIG-0.35  N 
ATOM     53 H    GLU P   6      33.939  -0.140 -32.224  1.00 57.45 LIG 0.16  HD
BRANCH 52 54
ATOM     54  CA  GLU P   6      32.507   0.830 -33.166  1.00 54.50 LIG 0.18  C 
BRANCH 54 55
ATOM     55  C   GLU P   6      33.578   1.402 -34.039  1.00 56.45 LIG 0.24  C 
ATOM     56 O    GLU P   6      34.130   2.498 -33.738  1.00 44.81 LIG-0.27  OA
ATOM     57  N   VAL P   7      33.866   0.669 -35.118  1.00 47.96 LIG-0.35  N 
ATOM     58 H    VAL P   7      33.625  -0.150 -35.220  1.00 47.96 LIG 0.16  HD
BRANCH 57 59
ATOM     59  CA  VAL P   7      34.620   1.208 -36.218  1.00 55.51 LIG 0.17  C 
BRANCH 59 60
ATOM     60  CB  VAL P   7      36.145   0.950 -36.021  1.00 57.72 LIG 0.01  C 
ATOM     61  CG2 VAL P   7      36.633   1.560 -34.698  1.00 57.86 LIG 0.01  C 
ATOM     62  CG1 VAL P   7      36.974   1.425 -37.218  1.00 55.94 LIG 0.01  C 
ENDBRANCH 59 60
BRANCH 59 63
ATOM     63  C   VAL P   7      34.027   0.573 -37.493  1.00 56.50 LIG 0.22  C 
ATOM     64 O    VAL P   7      34.712  -0.160 -38.214  1.00 61.93 LIG-0.29  OA
ENDBRANCH 59 63
ENDBRANCH 57 59
ENDBRANCH 54 55
BRANCH 54 65
ATOM     65  CB  GLU P   6      31.815   2.016 -32.510  1.00 55.84 LIG 0.04  C 
BRANCH 65 66
ATOM     66  CG  GLU P   6      30.443   2.307 -33.078  1.00 56.62 LIG 0.12  C 
BRANCH 66 67
ATOM     67  CD  GLU P   6      30.500   3.225 -34.287  1.00 56.54 LIG 0.17  C 
ATOM     68 OE1  GLU P   6      30.895   2.739 -35.403  1.00 46.52 LIG-0.65  OA
ATOM     69 OE2  GLU P   6      30.140   4.421 -34.077  1.00 53.74 LIG-0.65  OA
ENDBRANCH 66 67
ENDBRANCH 65 66
ENDBRANCH 54 65
ENDBRANCH 52 54
ENDBRANCH 38 50
ENDBRANCH 3 38
TORSDOF 23
ENDMDL
MODEL 2
USER: ADFR SOLUTION from run 188
USER: SCORE 22.113273 LL:  -5.555 LR: -18.453 RR:   0.000 FEB: -11.592
USER: RMSD 8.875080
USER: SEED 187
USER: STATUS searching
USER: GENES 25
USER: genes 0 Translation |==|  0.40184 0.59409 0.64741
USER: genes 1 Rotation |==|  0.71644 0.14386 0.51612 0.77578
USER: genes 2 Torsion [N]-C--CA-[N] |==|  0.08118
USER: genes 3 Torsion [C]-CA--N-[C] |==|  0.16397
USER: genes 4 Torsion [N]-C--CA-[N] |==|  0.34732
USER: genes 5 Torsion [C]-CA--CB-[CG] |==|  0.19426
USER: genes 6 Torsion [CA]-CB--CG-[CD2] |==|  0.17559
USER: genes 7 Torsion [C]-CA--N-[C] |==|  0.84742
USER: genes 8 Torsion [N]-C--CA-[N] |==|  0.68041
USER: genes 9 Torsion [C]-CA--CB-[CG] |==|  0.71478
USER: genes 10 Torsion [CA]-CB--CG-[OD2] |==|  0.31252
USER: genes 11 Torsion [C]-CA--CB-[CG] |==|  0.21246
USER: genes 12 Torsion [CA]-CB--CG-[ND2] |==|  0.70036
USER: genes 13 Torsion [C]-N--CA-[CB] |==|  0.83889
USER: genes 14 Torsion [N]-CA--CB-[CG] |==|  0.58871
USER: genes 15 Torsion [CA]-CB--CG-[CD1] |==|  0.28446
USER: genes 16 Torsion [N]-CA--C-[N] |==|  0.28743
USER: genes 17 Torsion [C]-N--CA-[C] |==|  0.49074
USER: genes 18 Torsion [N]-CA--C-[N] |==|  0.26375
USER: genes 19 Torsion [C]-N--CA-[CB] |==|  0.26140
USER: genes 20 Torsion [N]-CA--CB-[CG2] |==|  0.79963
USER: genes 21 Torsion [N]-CA--C-[O] |==|  0.86312
USER: genes 22 Torsion [N]-CA--CB-[CG] |==|  0.59932
USER: genes 23 Torsion [CA]-CB--CG-[CD] |==|  0.78214
USER: genes 24 Torsion [CB]-CG--CD-[OE1] |==|  0.21389
ROOT
ATOM      1  C   ASN P   4      31.819  -0.234 -28.268  1.00 47.61 LIG 0.24  C 
ATOM      2 O    ASN P   4      31.023  -1.036 -28.692  1.00 46.30 LIG-0.27  OA
ATOM      3  N   TRP P   5      33.064  -0.198 -28.739  1.00 43.61 LIG-0.35  N 
ATOM      4 H    TRP P   5      33.691   0.332 -28.481  1.00 43.61 LIG 0.16  HD
ENDROOT
BRANCH 1 5
ATOM      5  CA  ASN P   4      31.387   0.772 -27.196  1.00 56.71 LIG 0.18  C 
BRANCH 5 6
ATOM      6  N   ASN P   4      32.147   2.002 -27.340  1.00 58.55 LIG-0.35  N 
ATOM      7  C   TRP P   3      32.105   2.692 -28.462  1.00 51.89 LIG 0.24  C 
ATOM      8 O    TRP P   3      31.619   2.261 -29.509  1.00 53.51 LIG-0.27  OA
ATOM      9 H    ASN P   4      32.608   2.225 -26.648  1.00 58.55 LIG 0.16  HD
BRANCH 7 10
ATOM     10  CA  TRP P   3      32.775   4.014 -28.449  1.00 49.09 LIG 0.18  C 
BRANCH 10 11
ATOM     11  CB  TRP P   3      31.596   4.978 -28.594  1.00 45.21 LIG 0.07  C 
BRANCH 11 12
ATOM     12  CG  TRP P   3      30.582   5.147 -27.392  1.00 38.74 LIG-0.03  A 
ATOM     13  CD1 TRP P   3      29.197   4.939 -27.382  1.00 32.85 LIG 0.10  A 
ATOM     14  NE1 TRP P   3      28.669   5.300 -26.129  1.00 33.71 LIG-0.36  N 
ATOM     15  CE2 TRP P   3      29.691   5.729 -25.324  1.00 32.42 LIG 0.04  A 
ATOM     16 HE1  TRP P   3      27.840   5.259 -25.905  1.00 33.71 LIG 0.17  HD
ATOM     17  CZ2 TRP P   3      29.645   6.255 -24.009  1.00 29.39 LIG 0.03  A 
ATOM     18  CD2 TRP P   3      30.903   5.664 -26.072  1.00 33.85 LIG-0.00  A 
ATOM     19  CH2 TRP P   3      30.838   6.596 -23.454  1.00 25.26 LIG 0.00  A 
ATOM     20  CZ3 TRP P   3      32.046   6.519 -24.140  1.00 33.31 LIG 0.00  A 
ATOM     21  CE3 TRP P   3      32.089   6.086 -25.476  1.00 32.67 LIG 0.01  A 
ENDBRANCH 11 12
ENDBRANCH 10 11
BRANCH 10 22
ATOM     22  N   TRP P   3      33.818   4.195 -29.540  1.00 48.62 LIG-0.34  N 
ATOM     23 H    TRP P   3      33.683   4.889 -30.030  1.00 48.62 LIG 0.16  HD
ATOM     24  C   ASP P   2      34.860   3.356 -29.732  1.00 44.46 LIG 0.26  C 
ATOM     25 O    ASP P   2      34.955   2.269 -29.100  1.00 32.12 LIG-0.27  OA
BRANCH 24 26
ATOM     26  CA  ASP P   2      36.024   3.811 -30.731  1.00 48.39 LIG 0.41  C 
ATOM     27  N   ASP P   2      36.068   2.898 -31.923  1.00 44.52 LIG 0.61  N 
BRANCH 26 28
ATOM     28  CB  ASP P   2      36.009   5.317 -31.191  1.00 55.68 LIG 0.16  C 
BRANCH 28 29
ATOM     29  CG  ASP P   2      35.439   5.527 -32.681  1.00 65.31 LIG 0.17  C 
ATOM     30 OD2  ASP P   2      34.326   6.135 -32.863  1.00 61.23 LIG-0.65  OA
ATOM     31 OD1  ASP P   2      36.101   5.072 -33.673  1.00 59.39 LIG-0.65  OA
ENDBRANCH 28 29
ENDBRANCH 26 28
ENDBRANCH 24 26
ENDBRANCH 10 22
ENDBRANCH 7 10
ENDBRANCH 5 6
BRANCH 5 32
ATOM     32  CB  ASN P   4      29.865   1.079 -27.252  1.00 62.15 LIG 0.14  C 
BRANCH 32 33
ATOM     33  CG  ASN P   4      29.015  -0.038 -26.657  1.00 66.74 LIG 0.22  C 
ATOM     34 OD1  ASN P   4      29.005  -0.244 -25.442  1.00 65.57 LIG-0.27  OA
ATOM     35  ND2 ASN P   4      28.316  -0.780 -27.510  1.00 62.00 LIG-0.37  N 
ATOM     36 21HD ASN P   4      27.836  -1.431 -27.220  1.00 62.00 LIG 0.16  HD
ATOM     37 22HD ASN P   4      28.346  -0.608 -28.352  1.00 62.00 LIG 0.16  HD
ENDBRANCH 32 33
ENDBRANCH 5 32
ENDBRANCH 1 5
BRANCH 3 38
ATOM     38  CA  TRP P   5      33.400  -1.138 -29.786  1.00 39.30 LIG 0.18  C 
BRANCH 38 39
ATOM     39  CB  TRP P   5      33.177  -2.607 -29.372  1.00 34.53 LIG 0.07  C 
BRANCH 39 40
ATOM     40  CG  TRP P   5      34.101  -3.617 -29.973  1.00 28.80 LIG-0.03  A 
ATOM     41  CD1 TRP P   5      35.153  -4.194 -29.358  1.00 24.67 LIG 0.10  A 
ATOM     42  NE1 TRP P   5      35.790  -5.018 -30.202  1.00 28.39 LIG-0.36  N 
ATOM     43 HE1  TRP P   5      36.504  -5.460 -30.016  1.00 28.39 LIG 0.17  HD
ATOM     44  CE2 TRP P   5      35.134  -5.052 -31.408  1.00 28.85 LIG 0.04  A 
ATOM     45  CZ2 TRP P   5      35.381  -5.795 -32.543  1.00 29.12 LIG 0.03  A 
ATOM     46  CD2 TRP P   5      34.038  -4.185 -31.294  1.00 31.26 LIG-0.00  A 
ATOM     47  CH2 TRP P   5      34.559  -5.598 -33.624  1.00 31.42 LIG 0.00  A 
ATOM     48  CZ3 TRP P   5      33.502  -4.672 -33.586  1.00 31.13 LIG 0.00  A 
ATOM     49  CE3 TRP P   5      33.225  -3.963 -32.421  1.00 35.06 LIG 0.01  A 
ENDBRANCH 39 40
ENDBRANCH 38 39
BRANCH 38 50
ATOM     50  C   TRP P   5      32.617  -0.686 -31.003  1.00 44.67 LIG 0.24  C 
ATOM     51 O    TRP P   5      31.426  -0.899 -31.092  1.00 47.12 LIG-0.27  OA
ATOM     52  N   GLU P   6      33.301  -0.052 -31.937  1.00 57.45 LIG-0.35  N 
ATOM     53 H    GLU P   6      34.160  -0.033 -31.966  1.00 57.45 LIG 0.16  HD
BRANCH 52 54
ATOM     54  CA  GLU P   6      32.655   0.684 -33.014  1.00 54.50 LIG 0.18  C 
BRANCH 54 55
ATOM     55  C   GLU P   6      33.680   1.362 -33.867  1.00 56.45 LIG 0.24  C 
ATOM     56 O    GLU P   6      34.126   2.500 -33.547  1.00 44.81 LIG-0.27  OA
ATOM     57  N   VAL P   7      34.045   0.672 -34.951  1.00 47.96 LIG-0.35  N 
ATOM     58 H    VAL P   7      33.880  -0.164 -35.066  1.00 47.96 LIG 0.16  HD
BRANCH 57 59
ATOM     59  CA  VAL P   7      34.758   1.291 -36.036  1.00 55.51 LIG 0.17  C 
BRANCH 59 60
ATOM     60  CB  VAL P   7      36.296   1.102 -35.864  1.00 57.72 LIG 0.01  C 
ATOM     61  CG2 VAL P   7      36.827   1.981 -34.721  1.00 57.86 LIG 0.01  C 
ATOM     62  CG1 VAL P   7      37.060   1.329 -37.172  1.00 55.94 LIG 0.01  C 
ENDBRANCH 59 60
BRANCH 59 63
ATOM     63  C   VAL P   7      34.183   0.678 -37.330  1.00 56.50 LIG 0.22  C 
ATOM     64 O    VAL P   7      34.067  -0.546 -37.455  1.00 61.93 LIG-0.29  OA
ENDBRANCH 59 63
ENDBRANCH 57 59
ENDBRANCH 54 55
BRANCH 54 65
ATOM     65  CB  GLU P   6      31.791   1.791 -32.427  1.00 55.84 LIG 0.04  C 
BRANCH 65 66
ATOM     66  CG  GLU P   6      30.513   2.036 -33.201  1.00 56.62 LIG 0.12  C 
BRANCH 66 67
ATOM     67  CD  GLU P   6      30.748   2.851 -34.461  1.00 56.54 LIG 0.17  C 
ATOM     68 OE1  GLU P   6      31.255   2.265 -35.480  1.00 46.52 LIG-0.65  OA
ATOM     69 OE2  GLU P   6      30.411   4.069 -34.390  1.00 53.74 LIG-0.65  OA
ENDBRANCH 66 67
ENDBRANCH 65 66
ENDBRANCH 54 65
ENDBRANCH 52 54
ENDBRANCH 38 50
ENDBRANCH 3 38
TORSDOF 23
ENDMDL
MODEL 3
USER: ADFR SOLUTION from run 121
USER: SCORE 21.090445 LL:  -4.971 LR: -17.845 RR:   0.000 FEB: -10.984
USER: RMSD 6.213720
USER: SEED 120
USER: STATUS searching
USER: GENES 25
USER: genes 0 Translation |==|  0.52513 0.48342 0.62829
USER: genes 1 Rotation |==|  0.40986 0.19290 0.64270 0.85665
USER: genes 2 Torsion [N]-C--CA-[N] |==|  0.51846
USER: genes 3 Torsion [C]-CA--N-[C] |==|  0.77778
USER: genes 4 Torsion [N]-C--CA-[N] |==|  0.44959
USER: genes 5 Torsion [C]-CA--CB-[CG] |==|  0.41728
USER: genes 6 Torsion [CA]-CB--CG-[CD2] |==|  0.98189
USER: genes 7 Torsion [C]-CA--N-[C] |==|  0.72846
USER: genes 8 Torsion [N]-C--CA-[N] |==|  0.29419
USER: genes 9 Torsion [C]-CA--CB-[CG] |==|  0.77415
USER: genes 10 Torsion [CA]-CB--CG-[OD2] |==|  0.99899
USER: genes 11 Torsion [C]-CA--CB-[CG] |==|  0.51686
USER: genes 12 Torsion [CA]-CB--CG-[ND2] |==|  0.85960
USER: genes 13 Torsion [C]-N--CA-[CB] |==|  0.18872
USER: genes 14 Torsion [N]-CA--CB-[CG] |==|  0.17778
USER: genes 15 Torsion [CA]-CB--CG-[CD1] |==|  0.23072
USER: genes 16 Torsion [N]-CA--C-[N] |==|  0.51976
USER: genes 17 Torsion [C]-N--CA-[C] |==|  0.13708
USER: genes 18 Torsion [N]-CA--C-[N] |==|  0.17698
USER: genes 19 Torsion [C]-N--CA-[CB] |==|  0.31475
USER: genes 20 Torsion [N]-CA--CB-[CG2] |==|  0.87331
USER: genes 21 Torsion [N]-CA--C-[O] |==|  0.65266
USER: genes 22 Torsion [N]-CA--CB-[CG] |==|  0.89141
USER: genes 23 Torsion [CA]-CB--CG-[CD] |==|  0.69279
USER: genes 24 Torsion [CB]-CG--CD-[OE1] |==|  0.31647
ROOT
ATOM      1  C   ASN P   4      34.408  -2.807 -28.670  1.00 47.61 LIG 0.24  C 
ATOM      2 O    ASN P   4      33.286  -2.959 -28.251  1.00 46.30 LIG-0.27  OA
ATOM      3  N   TRP P   5      35.320  -3.768 -28.536  1.00 43.61 LIG-0.35  N 
ATOM      4 H    TRP P   5      36.140  -3.731 -28.793  1.00 43.61 LIG 0.16  HD
ENDROOT
BRANCH 1 5
ATOM      5  CA  ASN P   4      34.782  -1.505 -29.386  1.00 56.71 LIG 0.18  C 
BRANCH 5 6
ATOM      6  N   ASN P   4      33.692  -0.552 -29.277  1.00 58.55 LIG-0.35  N 
ATOM      7  C   TRP P   3      32.641  -0.635 -30.069  1.00 51.89 LIG 0.24  C 
ATOM      8 O    TRP P   3      32.597  -1.356 -31.067  1.00 53.51 LIG-0.27  OA
ATOM      9 H    ASN P   4      33.796   0.048 -28.668  1.00 58.55 LIG 0.16  HD
BRANCH 7 10
ATOM     10  CA  TRP P   3      31.512   0.274 -29.765  1.00 49.09 LIG 0.18  C 
BRANCH 10 11
ATOM     11  CB  TRP P   3      30.870  -0.397 -28.550  1.00 45.21 LIG 0.07  C 
BRANCH 11 12
ATOM     12  CG  TRP P   3      30.126   0.495 -27.476  1.00 38.74 LIG-0.03  A 
ATOM     13  CD1 TRP P   3      29.289   0.086 -26.431  1.00 32.85 LIG 0.10  A 
ATOM     14  NE1 TRP P   3      28.759   1.213 -25.776  1.00 33.71 LIG-0.36  N 
ATOM     15  CE2 TRP P   3      29.246   2.344 -26.375  1.00 32.42 LIG 0.04  A 
ATOM     16 HE1  TRP P   3      28.217   1.195 -25.108  1.00 33.71 LIG 0.17  HD
ATOM     17  CZ2 TRP P   3      28.947   3.705 -26.114  1.00 29.39 LIG 0.03  A 
ATOM     18  CD2 TRP P   3      30.093   1.948 -27.450  1.00 33.85 LIG-0.00  A 
ATOM     19  CH2 TRP P   3      29.598   4.622 -26.877  1.00 25.26 LIG 0.00  A 
ATOM     20  CZ3 TRP P   3      30.456   4.277 -27.916  1.00 33.31 LIG 0.00  A 
ATOM     21  CE3 TRP P   3      30.686   2.929 -28.242  1.00 32.67 LIG 0.01  A 
ENDBRANCH 11 12
ENDBRANCH 10 11
BRANCH 10 22
ATOM     22  N   TRP P   3      30.535   0.462 -30.916  1.00 48.62 LIG-0.34  N 
ATOM     23 H    TRP P   3      29.954  -0.169 -30.977  1.00 48.62 LIG 0.16  HD
ATOM     24  C   ASP P   2      30.566   1.513 -31.765  1.00 44.46 LIG 0.26  C 
ATOM     25 O    ASP P   2      31.512   2.345 -31.748  1.00 32.12 LIG-0.27  OA
BRANCH 24 26
ATOM     26  CA  ASP P   2      29.324   1.724 -32.751  1.00 48.39 LIG 0.41  C 
ATOM     27  N   ASP P   2      28.484   2.880 -32.284  1.00 44.52 LIG 0.61  N 
BRANCH 26 28
ATOM     28  CB  ASP P   2      29.657   1.869 -34.283  1.00 55.68 LIG 0.16  C 
BRANCH 28 29
ATOM     29  CG  ASP P   2      30.128   3.350 -34.700  1.00 65.31 LIG 0.17  C 
ATOM     30 OD2  ASP P   2      30.194   4.275 -33.816  1.00 61.23 LIG-0.65  OA
ATOM     31 OD1  ASP P   2      30.420   3.593 -35.919  1.00 59.39 LIG-0.65  OA
ENDBRANCH 28 29
ENDBRANCH 26 28
ENDBRANCH 24 26
ENDBRANCH 10 22
ENDBRANCH 7 10
ENDBRANCH 5 6
BRANCH 5 32
ATOM     32  CB  ASN P   4      36.092  -0.880 -28.832  1.00 62.15 LIG 0.14  C 
BRANCH 32 33
ATOM     33  CG  ASN P   4      36.395   0.488 -29.434  1.00 66.74 LIG 0.22  C 
ATOM     34 OD1  ASN P   4      36.634   1.456 -28.709  1.00 65.57 LIG-0.27  OA
ATOM     35  ND2 ASN P   4      36.364   0.581 -30.759  1.00 62.00 LIG-0.37  N 
ATOM     36 21HD ASN P   4      36.513   1.338 -31.140  1.00 62.00 LIG 0.16  HD
ATOM     37 22HD ASN P   4      36.194  -0.114 -31.235  1.00 62.00 LIG 0.16  HD
ENDBRANCH 32 33
ENDBRANCH 5 32
ENDBRANCH 1 5
BRANCH 3 38
ATOM     38  CA  TRP P   5      34.896  -4.994 -27.896  1.00 39.30 LIG 0.18  C 
BRANCH 38 39
ATOM     39  CB  TRP P   5      33.883  -5.796 -28.739  1.00 34.53 LIG 0.07  C 
BRANCH 39 40
ATOM     40  CG  TRP P   5      34.375  -6.321 -30.049  1.00 28.80 LIG-0.03  A 
ATOM     41  CD1 TRP P   5      35.073  -7.459 -30.236  1.00 24.67 LIG 0.10  A 
ATOM     42  NE1 TRP P   5      35.390  -7.603 -31.531  1.00 28.39 LIG-0.36  N 
ATOM     43 HE1  TRP P   5      35.860  -8.246 -31.856  1.00 28.39 LIG 0.17  HD
ATOM     44  CE2 TRP P   5      34.853  -6.571 -32.262  1.00 28.85 LIG 0.04  A 
ATOM     45  CZ2 TRP P   5      34.863  -6.335 -33.620  1.00 29.12 LIG 0.03  A 
ATOM     46  CD2 TRP P   5      34.180  -5.742 -31.353  1.00 31.26 LIG-0.00  A 
ATOM     47  CH2 TRP P   5      34.256  -5.189 -34.070  1.00 31.42 LIG 0.00  A 
ATOM     48  CZ3 TRP P   5      33.647  -4.282 -33.186  1.00 31.13 LIG 0.00  A 
ATOM     49  CE3 TRP P   5      33.594  -4.552 -31.822  1.00 35.06 LIG 0.01  A 
ENDBRANCH 39 40
ENDBRANCH 38 39
BRANCH 38 50
ATOM     50  C   TRP P   5      36.173  -5.733 -27.550  1.00 44.67 LIG 0.24  C 
ATOM     51 O    TRP P   5      37.257  -5.206 -27.695  1.00 47.12 LIG-0.27  OA
ATOM     52  N   GLU P   6      36.032  -6.959 -27.082  1.00 57.45 LIG-0.35  N 
ATOM     53 H    GLU P   6      35.296  -7.401 -27.123  1.00 57.45 LIG 0.16  HD
BRANCH 52 54
ATOM     54  CA  GLU P   6      37.123  -7.683 -26.446  1.00 54.50 LIG 0.18  C 
BRANCH 54 55
ATOM     55  C   GLU P   6      37.775  -6.831 -25.404  1.00 56.45 LIG 0.24  C 
ATOM     56 O    GLU P   6      38.984  -6.484 -25.527  1.00 44.81 LIG-0.27  OA
ATOM     57  N   VAL P   7      36.983  -6.501 -24.381  1.00 47.96 LIG-0.35  N 
ATOM     58 H    VAL P   7      36.127  -6.582 -24.390  1.00 47.96 LIG 0.16  HD
BRANCH 57 59
ATOM     59  CA  VAL P   7      37.516  -5.972 -23.153  1.00 55.51 LIG 0.17  C 
BRANCH 59 60
ATOM     60  CB  VAL P   7      37.075  -4.491 -22.953  1.00 57.72 LIG 0.01  C 
ATOM     61  CG2 VAL P   7      37.255  -3.690 -24.252  1.00 57.86 LIG 0.01  C 
ATOM     62  CG1 VAL P   7      37.779  -3.830 -21.764  1.00 55.94 LIG 0.01  C 
ENDBRANCH 59 60
BRANCH 59 63
ATOM     63  C   VAL P   7      37.047  -6.931 -22.038  1.00 56.50 LIG 0.22  C 
ATOM     64 O    VAL P   7      36.424  -6.509 -21.059  1.00 61.93 LIG-0.29  OA
ENDBRANCH 59 63
ENDBRANCH 57 59
ENDBRANCH 54 55
BRANCH 54 65
ATOM     65  CB  GLU P   6      38.199  -7.990 -27.478  1.00 55.84 LIG 0.04  C 
BRANCH 65 66
ATOM     66  CG  GLU P   6      37.645  -8.379 -28.833  1.00 56.62 LIG 0.12  C 
BRANCH 66 67
ATOM     67  CD  GLU P   6      37.885  -9.843 -29.156  1.00 56.54 LIG 0.17  C 
ATOM     68 OE1  GLU P   6      36.872 -10.620 -29.250  1.00 46.52 LIG-0.65  OA
ATOM     69 OE2  GLU P   6      39.098 -10.173 -29.310  1.00 53.74 LIG-0.65  OA
ENDBRANCH 66 67
ENDBRANCH 65 66
ENDBRANCH 54 65
ENDBRANCH 52 54
ENDBRANCH 38 50
ENDBRANCH 3 38
TORSDOF 23
ENDMDL
MODEL 4
USER: ADFR SOLUTION from run 31
USER: SCORE 20.239502 LL:  -4.351 LR: -17.747 RR:   0.000 FEB: -10.886
USER: RMSD 11.139949
USER: SEED 30
USER: STATUS searching
USER: GENES 25
USER: genes 0 Translation |==|  0.50584 0.47631 0.54115
USER: genes 1 Rotation |==|  0.28593 0.46570 0.11433 0.73293
USER: genes 2 Torsion [N]-C--CA-[N] |==|  0.56825
USER: genes 3 Torsion [C]-CA--N-[C] |==|  0.17943
USER: genes 4 Torsion [N]-C--CA-[N] |==|  0.92587
USER: genes 5 Torsion [C]-CA--CB-[CG] |==|  0.40472
USER: genes 6 Torsion [CA]-CB--CG-[CD2] |==|  0.05113
USER: genes 7 Torsion [C]-CA--N-[C] |==|  0.73257
USER: genes 8 Torsion [N]-C--CA-[N] |==|  0.25648
USER: genes 9 Torsion [C]-CA--CB-[CG] |==|  0.46623
USER: genes 10 Torsion [CA]-CB--CG-[OD2] |==|  0.57140
USER: genes 11 Torsion [C]-CA--CB-[CG] |==|  0.30689
USER: genes 12 Torsion [CA]-CB--CG-[ND2] |==|  0.86629
USER: genes 13 Torsion [C]-N--CA-[CB] |==|  0.85448
USER: genes 14 Torsion [N]-CA--CB-[CG] |==|  0.51502
USER: genes 15 Torsion [CA]-CB--CG-[CD1] |==|  0.81388
USER: genes 16 Torsion [N]-CA--C-[N] |==|  0.37588
USER: genes 17 Torsion [C]-N--CA-[C] |==|  0.16789
USER: genes 18 Torsion [N]-CA--C-[N] |==|  0.57033
USER: genes 19 Torsion [C]-N--CA-[CB] |==|  0.24102
USER: genes 20 Torsion [N]-CA--CB-[CG2] |==|  0.75375
USER: genes 21 Torsion [N]-CA--C-[O] |==|  0.16890
USER: genes 22 Torsion [N]-CA--CB-[CG] |==|  0.67630
USER: genes 23 Torsion [CA]-CB--CG-[CD] |==|  0.78886
USER: genes 24 Torsion [CB]-CG--CD-[OE1] |==|  0.90540
ROOT
ATOM      1  C   ASN P   4      34.003  -2.972 -30.500  1.00 47.61 LIG 0.24  C 
ATOM      2 O    ASN P   4      34.557  -2.370 -29.613  1.00 46.30 LIG-0.27  OA
ATOM      3  N   TRP P   5      32.851  -2.532 -31.003  1.00 43.61 LIG-0.35  N 
ATOM      4 H    TRP P   5      32.388  -2.909 -31.623  1.00 43.61 LIG 0.16  HD
ENDROOT
BRANCH 1 5
ATOM      5  CA  ASN P   4      34.642  -4.241 -31.073  1.00 56.71 LIG 0.18  C 
BRANCH 5 6
ATOM      6  N   ASN P   4      35.504  -4.851 -30.077  1.00 58.55 LIG-0.35  N 
ATOM      7  C   TRP P   3      35.003  -5.333 -28.956  1.00 51.89 LIG 0.24  C 
ATOM      8 O    TRP P   3      33.849  -5.119 -28.579  1.00 53.51 LIG-0.27  OA
ATOM      9 H    ASN P   4      36.339  -4.866 -30.282  1.00 58.55 LIG 0.16  HD
BRANCH 7 10
ATOM     10  CA  TRP P   3      35.936  -6.086 -28.086  1.00 49.09 LIG 0.18  C 
BRANCH 10 11
ATOM     11  CB  TRP P   3      36.399  -5.012 -27.099  1.00 45.21 LIG 0.07  C 
BRANCH 11 12
ATOM     12  CG  TRP P   3      36.703  -5.419 -25.601  1.00 38.74 LIG-0.03  A 
ATOM     13  CD1 TRP P   3      36.891  -4.587 -24.491  1.00 32.85 LIG 0.10  A 
ATOM     14  NE1 TRP P   3      37.238  -5.359 -23.368  1.00 33.71 LIG-0.36  N 
ATOM     15  CE2 TRP P   3      37.269  -6.680 -23.730  1.00 32.42 LIG 0.04  A 
ATOM     16 HE1  TRP P   3      37.404  -5.053 -22.582  1.00 33.71 LIG 0.17  HD
ATOM     17  CZ2 TRP P   3      37.631  -7.818 -22.966  1.00 29.39 LIG 0.03  A 
ATOM     18  CD2 TRP P   3      36.955  -6.767 -25.117  1.00 33.85 LIG-0.00  A 
ATOM     19  CH2 TRP P   3      37.558  -9.017 -23.602  1.00 25.26 LIG 0.00  A 
ATOM     20  CZ3 TRP P   3      37.227  -9.148 -24.947  1.00 33.31 LIG 0.00  A 
ATOM     21  CE3 TRP P   3      36.957  -8.015 -25.735  1.00 32.67 LIG 0.01  A 
ENDBRANCH 11 12
ENDBRANCH 10 11
BRANCH 10 22
ATOM     22  N   TRP P   3      37.093  -6.738 -28.827  1.00 48.62 LIG-0.34  N 
ATOM     23 H    TRP P   3      37.752  -6.204 -28.969  1.00 48.62 LIG 0.16  HD
ATOM     24  C   ASP P   2      37.096  -8.028 -29.230  1.00 44.46 LIG 0.26  C 
ATOM     25 O    ASP P   2      36.065  -8.747 -29.145  1.00 32.12 LIG-0.27  OA
BRANCH 24 26
ATOM     26  CA  ASP P   2      38.473  -8.653 -29.752  1.00 48.39 LIG 0.41  C 
ATOM     27  N   ASP P   2      39.203  -9.314 -28.617  1.00 44.52 LIG 0.61  N 
BRANCH 26 28
ATOM     28  CB  ASP P   2      38.384  -9.623 -30.989  1.00 55.68 LIG 0.16  C 
BRANCH 28 29
ATOM     29  CG  ASP P   2      39.814  -9.962 -31.643  1.00 65.31 LIG 0.17  C 
ATOM     30 OD2  ASP P   2      39.892 -10.298 -32.878  1.00 61.23 LIG-0.65  OA
ATOM     31 OD1  ASP P   2      40.863  -9.904 -30.918  1.00 59.39 LIG-0.65  OA
ENDBRANCH 28 29
ENDBRANCH 26 28
ENDBRANCH 24 26
ENDBRANCH 10 22
ENDBRANCH 7 10
ENDBRANCH 5 6
BRANCH 5 32
ATOM     32  CB  ASN P   4      33.583  -5.268 -31.560  1.00 62.15 LIG 0.14  C 
BRANCH 32 33
ATOM     33  CG  ASN P   4      33.557  -5.417 -33.078  1.00 66.74 LIG 0.22  C 
ATOM     34 OD1  ASN P   4      33.588  -6.532 -33.602  1.00 65.57 LIG-0.27  OA
ATOM     35  ND2 ASN P   4      33.526  -4.296 -33.790  1.00 62.00 LIG-0.37  N 
ATOM     36 21HD ASN P   4      33.527  -4.333 -34.649  1.00 62.00 LIG 0.16  HD
ATOM     37 22HD ASN P   4      33.505  -3.534 -33.392  1.00 62.00 LIG 0.16  HD
ENDBRANCH 32 33
ENDBRANCH 5 32
ENDBRANCH 1 5
BRANCH 3 38
ATOM     38  CA  TRP P   5      32.320  -1.302 -30.457  1.00 39.30 LIG 0.18  C 
BRANCH 38 39
ATOM     39  CB  TRP P   5      32.215  -1.320 -28.918  1.00 34.53 LIG 0.07  C 
BRANCH 39 40
ATOM     40  CG  TRP P   5      31.561  -0.137 -28.281  1.00 28.80 LIG-0.03  A 
ATOM     41  CD1 TRP P   5      32.044   1.122 -28.261  1.00 24.67 LIG 0.10  A 
ATOM     42  NE1 TRP P   5      31.224   1.924 -27.567  1.00 28.39 LIG-0.36  N 
ATOM     43 HE1  TRP P   5      31.366   2.758 -27.410  1.00 28.39 LIG 0.17  HD
ATOM     44  CE2 TRP P   5      30.125   1.218 -27.145  1.00 28.85 LIG 0.04  A 
ATOM     45  CZ2 TRP P   5      29.001   1.632 -26.462  1.00 29.12 LIG 0.03  A 
ATOM     46  CD2 TRP P   5      30.293  -0.098 -27.599  1.00 31.26 LIG-0.00  A 
ATOM     47  CH2 TRP P   5      28.061   0.682 -26.149  1.00 31.42 LIG 0.00  A 
ATOM     48  CZ3 TRP P   5      28.231  -0.667 -26.505  1.00 31.13 LIG 0.00  A 
ATOM     49  CE3 TRP P   5      29.341  -1.070 -27.239  1.00 35.06 LIG 0.01  A 
ENDBRANCH 39 40
ENDBRANCH 38 39
BRANCH 38 50
ATOM     50  C   TRP P   5      33.186  -0.198 -31.030  1.00 44.67 LIG 0.24  C 
ATOM     51 O    TRP P   5      34.395  -0.309 -31.067  1.00 47.12 LIG-0.27  OA
ATOM     52  N   GLU P   6      32.554   0.868 -31.484  1.00 57.45 LIG-0.35  N 
ATOM     53 H    GLU P   6      31.725   1.032 -31.323  1.00 57.45 LIG 0.16  HD
BRANCH 52 54
ATOM     54  CA  GLU P   6      33.207   1.872 -32.310  1.00 54.50 LIG 0.18  C 
BRANCH 54 55
ATOM     55  C   GLU P   6      33.713   1.256 -33.575  1.00 56.45 LIG 0.24  C 
ATOM     56 O    GLU P   6      33.178   0.207 -34.033  1.00 44.81 LIG-0.27  OA
ATOM     57  N   VAL P   7      34.742   1.899 -34.134  1.00 47.96 LIG-0.35  N 
ATOM     58 H    VAL P   7      34.980   2.698 -33.924  1.00 47.96 LIG 0.16  HD
BRANCH 57 59
ATOM     59  CA  VAL P   7      35.553   1.286 -35.153  1.00 55.51 LIG 0.17  C 
BRANCH 59 60
ATOM     60  CB  VAL P   7      34.930   1.515 -36.563  1.00 57.72 LIG 0.01  C 
ATOM     61  CG2 VAL P   7      33.936   0.394 -36.907  1.00 57.86 LIG 0.01  C 
ATOM     62  CG1 VAL P   7      35.997   1.695 -37.647  1.00 55.94 LIG 0.01  C 
ENDBRANCH 59 60
BRANCH 59 63
ATOM     63  C   VAL P   7      36.969   1.873 -34.980  1.00 56.50 LIG 0.22  C 
ATOM     64 O    VAL P   7      37.599   1.713 -33.929  1.00 61.93 LIG-0.29  OA
ENDBRANCH 59 63
ENDBRANCH 57 59
ENDBRANCH 54 55
BRANCH 54 65
ATOM     65  CB  GLU P   6      34.430   2.412 -31.581  1.00 55.84 LIG 0.04  C 
BRANCH 65 66
ATOM     66  CG  GLU P   6      34.335   3.886 -31.249  1.00 56.62 LIG 0.12  C 
BRANCH 66 67
ATOM     67  CD  GLU P   6      34.570   4.768 -32.462  1.00 56.54 LIG 0.17  C 
ATOM     68 OE1  GLU P   6      35.403   4.374 -33.350  1.00 46.52 LIG-0.65  OA
ATOM     69 OE2  GLU P   6      33.900   5.843 -32.489  1.00 53.74 LIG-0.65  OA
ENDBRANCH 66 67
ENDBRANCH 65 66
ENDBRANCH 54 65
ENDBRANCH 52 54
ENDBRANCH 38 50
ENDBRANCH 3 38
TORSDOF 23
ENDMDL
MODEL 5
USER: ADFR SOLUTION from run 121
USER: SCORE 21.318798 LL:  -5.320 LR: -17.718 RR:   0.000 FEB: -10.857
USER: RMSD 5.511085
USER: SEED 120
USER: STATUS searching
USER: GENES 25
USER: genes 0 Translation |==|  0.53040 0.48579 0.62433
USER: genes 1 Rotation |==|  0.40918 0.19982 0.66963 0.85053
USER: genes 2 Torsion [N]-C--CA-[N] |==|  0.53321
USER: genes 3 Torsion [C]-CA--N-[C] |==|  0.76110
USER: genes 4 Torsion [N]-C--CA-[N] |==|  0.44843
USER: genes 5 Torsion [C]-CA--CB-[CG] |==|  0.42110
USER: genes 6 Torsion [CA]-CB--CG-[CD2] |==|  0.98988
USER: genes 7 Torsion [C]-CA--N-[C] |==|  0.73399
USER: genes 8 Torsion [N]-C--CA-[N] |==|  0.29052
USER: genes 9 Torsion [C]-CA--CB-[CG] |==|  0.79872
USER: genes 10 Torsion [CA]-CB--CG-[OD2] |==|  0.00786
USER: genes 11 Torsion [C]-CA--CB-[CG] |==|  0.54928
USER: genes 12 Torsion [CA]-CB--CG-[ND2] |==|  0.82554
USER: genes 13 Torsion [C]-N--CA-[CB] |==|  0.19976
USER: genes 14 Torsion [N]-CA--CB-[CG] |==|  0.15004
USER: genes 15 Torsion [CA]-CB--CG-[CD1] |==|  0.23557
USER: genes 16 Torsion [N]-CA--C-[N] |==|  0.54444
USER: genes 17 Torsion [C]-N--CA-[C] |==|  0.66010
USER: genes 18 Torsion [N]-CA--C-[N] |==|  0.10343
USER: genes 19 Torsion [C]-N--CA-[CB] |==|  0.39345
USER: genes 20 Torsion [N]-CA--CB-[CG2] |==|  0.82653
USER: genes 21 Torsion [N]-CA--C-[O] |==|  0.26578
USER: genes 22 Torsion [N]-CA--CB-[CG] |==|  0.66505
USER: genes 23 Torsion [CA]-CB--CG-[CD] |==|  0.29096
USER: genes 24 Torsion [CB]-CG--CD-[OE1] |==|  0.35586
ROOT
ATOM      1  C   ASN P   4      34.518  -2.751 -28.753  1.00 47.61 LIG 0.24  C 
ATOM      2 O    ASN P   4      33.421  -2.955 -28.294  1.00 46.30 LIG-0.27  OA
ATOM      3  N   TRP P   5      35.505  -3.626 -28.567  1.00 43.61 LIG-0.35  N 
ATOM      4 H    TRP P   5      36.315  -3.548 -28.848  1.00 43.61 LIG 0.16  HD
ENDROOT
BRANCH 1 5
ATOM      5  CA  ASN P   4      34.775  -1.488 -29.580  1.00 56.71 LIG 0.18  C 
BRANCH 5 6
ATOM      6  N   ASN P   4      33.670  -0.559 -29.417  1.00 58.55 LIG-0.35  N 
ATOM      7  C   TRP P   3      32.596  -0.651 -30.176  1.00 51.89 LIG 0.24  C 
ATOM      8 O    TRP P   3      32.533  -1.355 -31.185  1.00 53.51 LIG-0.27  OA
ATOM      9 H    ASN P   4      33.783   0.032 -28.802  1.00 58.55 LIG 0.16  HD
BRANCH 7 10
ATOM     10  CA  TRP P   3      31.459   0.229 -29.819  1.00 49.09 LIG 0.18  C 
BRANCH 10 11
ATOM     11  CB  TRP P   3      30.865  -0.483 -28.602  1.00 45.21 LIG 0.07  C 
BRANCH 11 12
ATOM     12  CG  TRP P   3      30.107   0.366 -27.503  1.00 38.74 LIG-0.03  A 
ATOM     13  CD1 TRP P   3      29.351  -0.089 -26.416  1.00 32.85 LIG 0.10  A 
ATOM     14  NE1 TRP P   3      28.770   1.004 -25.747  1.00 33.71 LIG-0.36  N 
ATOM     15  CE2 TRP P   3      29.146   2.160 -26.377  1.00 32.42 LIG 0.04  A 
ATOM     16 HE1  TRP P   3      28.262   0.954 -25.055  1.00 33.71 LIG 0.17  HD
ATOM     17  CZ2 TRP P   3      28.761   3.499 -26.114  1.00 29.39 LIG 0.03  A 
ATOM     18  CD2 TRP P   3      29.970   1.813 -27.487  1.00 33.85 LIG-0.00  A 
ATOM     19  CH2 TRP P   3      29.309   4.451 -26.914  1.00 25.26 LIG 0.00  A 
ATOM     20  CZ3 TRP P   3      30.141   4.156 -27.989  1.00 33.31 LIG 0.00  A 
ATOM     21  CE3 TRP P   3      30.454   2.825 -28.313  1.00 32.67 LIG 0.01  A 
ENDBRANCH 11 12
ENDBRANCH 10 11
BRANCH 10 22
ATOM     22  N   TRP P   3      30.446   0.425 -30.936  1.00 48.62 LIG-0.34  N 
ATOM     23 H    TRP P   3      29.858  -0.202 -30.978  1.00 48.62 LIG 0.16  HD
ATOM     24  C   ASP P   2      30.456   1.476 -31.785  1.00 44.46 LIG 0.26  C 
ATOM     25 O    ASP P   2      31.408   2.302 -31.799  1.00 32.12 LIG-0.27  OA
BRANCH 24 26
ATOM     26  CA  ASP P   2      29.183   1.697 -32.729  1.00 48.39 LIG 0.41  C 
ATOM     27  N   ASP P   2      28.350   2.837 -32.215  1.00 44.52 LIG 0.61  N 
BRANCH 26 28
ATOM     28  CB  ASP P   2      29.469   1.872 -34.268  1.00 55.68 LIG 0.16  C 
BRANCH 28 29
ATOM     29  CG  ASP P   2      30.130   3.292 -34.639  1.00 65.31 LIG 0.17  C 
ATOM     30 OD2  ASP P   2      30.423   4.126 -33.711  1.00 61.23 LIG-0.65  OA
ATOM     31 OD1  ASP P   2      30.347   3.579 -35.864  1.00 59.39 LIG-0.65  OA
ENDBRANCH 28 29
ENDBRANCH 26 28
ENDBRANCH 24 26
ENDBRANCH 10 22
ENDBRANCH 7 10
ENDBRANCH 5 6
BRANCH 5 32
ATOM     32  CB  ASN P   4      36.112  -0.794 -29.201  1.00 62.15 LIG 0.14  C 
BRANCH 32 33
ATOM     33  CG  ASN P   4      36.184   0.653 -29.679  1.00 66.74 LIG 0.22  C 
ATOM     34 OD1  ASN P   4      36.255   1.580 -28.869  1.00 65.57 LIG-0.27  OA
ATOM     35  ND2 ASN P   4      36.143   0.854 -30.991  1.00 62.00 LIG-0.37  N 
ATOM     36 21HD ASN P   4      36.164   1.655 -31.304  1.00 62.00 LIG 0.16  HD
ATOM     37 22HD ASN P   4      36.094   0.184 -31.527  1.00 62.00 LIG 0.16  HD
ENDBRANCH 32 33
ENDBRANCH 5 32
ENDBRANCH 1 5
BRANCH 3 38
ATOM     38  CA  TRP P   5      35.191  -4.825 -27.821  1.00 39.30 LIG 0.18  C 
BRANCH 38 39
ATOM     39  CB  TRP P   5      34.306  -5.813 -28.610  1.00 34.53 LIG 0.07  C 
BRANCH 39 40
ATOM     40  CG  TRP P   5      34.804  -6.224 -29.957  1.00 28.80 LIG-0.03  A 
ATOM     41  CD1 TRP P   5      35.678  -7.219 -30.210  1.00 24.67 LIG 0.10  A 
ATOM     42  NE1 TRP P   5      35.938  -7.286 -31.524  1.00 28.39 LIG-0.36  N 
ATOM     43 HE1  TRP P   5      36.494  -7.832 -31.890  1.00 28.39 LIG 0.17  HD
ATOM     44  CE2 TRP P   5      35.189  -6.354 -32.198  1.00 28.85 LIG 0.04  A 
ATOM     45  CZ2 TRP P   5      35.077  -6.099 -33.549  1.00 29.12 LIG 0.03  A 
ATOM     46  CD2 TRP P   5      34.435  -5.669 -31.234  1.00 31.26 LIG-0.00  A 
ATOM     47  CH2 TRP P   5      34.255  -5.071 -33.937  1.00 31.42 LIG 0.00  A 
ATOM     48  CZ3 TRP P   5      33.550  -4.298 -32.998  1.00 31.13 LIG 0.00  A 
ATOM     49  CE3 TRP P   5      33.625  -4.593 -31.641  1.00 35.06 LIG 0.01  A 
ENDBRANCH 39 40
ENDBRANCH 38 39
BRANCH 38 50
ATOM     50  C   TRP P   5      36.526  -5.380 -27.366  1.00 44.67 LIG 0.24  C 
ATOM     51 O    TRP P   5      37.526  -4.692 -27.383  1.00 47.12 LIG-0.27  OA
ATOM     52  N   GLU P   6      36.529  -6.632 -26.950  1.00 57.45 LIG-0.35  N 
ATOM     53 H    GLU P   6      35.876  -7.177 -27.079  1.00 57.45 LIG 0.16  HD
BRANCH 52 54
ATOM     54  CA  GLU P   6      37.649  -7.213 -26.225  1.00 54.50 LIG 0.18  C 
BRANCH 54 55
ATOM     55  C   GLU P   6      38.171  -8.414 -26.949  1.00 56.45 LIG 0.24  C 
ATOM     56 O    GLU P   6      38.583  -9.419 -26.303  1.00 44.81 LIG-0.27  OA
ATOM     57  N   VAL P   7      38.160  -8.309 -28.280  1.00 47.96 LIG-0.35  N 
ATOM     58 H    VAL P   7      37.717  -7.711 -28.711  1.00 47.96 LIG 0.16  HD
BRANCH 57 59
ATOM     59  CA  VAL P   7      38.907  -9.211 -29.115  1.00 55.51 LIG 0.17  C 
BRANCH 59 60
ATOM     60  CB  VAL P   7      38.103  -9.565 -30.403  1.00 57.72 LIG 0.01  C 
ATOM     61  CG2 VAL P   7      36.798 -10.292 -30.046  1.00 57.86 LIG 0.01  C 
ATOM     62  CG1 VAL P   7      38.944 -10.347 -31.417  1.00 55.94 LIG 0.01  C 
ENDBRANCH 59 60
BRANCH 59 63
ATOM     63  C   VAL P   7      40.262  -8.522 -29.381  1.00 56.50 LIG 0.22  C 
ATOM     64 O    VAL P   7      41.253  -8.781 -28.689  1.00 61.93 LIG-0.29  OA
ENDBRANCH 59 63
ENDBRANCH 57 59
ENDBRANCH 54 55
BRANCH 54 65
ATOM     65  CB  GLU P   6      37.175  -7.708 -24.867  1.00 55.84 LIG 0.04  C 
BRANCH 65 66
ATOM     66  CG  GLU P   6      37.887  -7.055 -23.701  1.00 56.62 LIG 0.12  C 
BRANCH 66 67
ATOM     67  CD  GLU P   6      37.022  -6.021 -23.001  1.00 56.54 LIG 0.17  C 
ATOM     68 OE1  GLU P   6      36.880  -6.105 -21.732  1.00 46.52 LIG-0.65  OA
ATOM     69 OE2  GLU P   6      36.505  -5.145 -23.756  1.00 53.74 LIG-0.65  OA
ENDBRANCH 66 67
ENDBRANCH 65 66
ENDBRANCH 54 65
ENDBRANCH 52 54
ENDBRANCH 38 50
ENDBRANCH 3 38
TORSDOF 23
ENDMDL
MODEL 6
USER: ADFR SOLUTION from run 194
USER: SCORE 21.310583 LL:  -4.905 LR: -17.601 RR:   0.000 FEB: -10.740
USER: RMSD 4.859194
USER: SEED 193
USER: STATUS no improvement in best in 2 clusters for 5 generations
USER: GENES 25
USER: genes 0 Translation |==|  0.49033 0.52456 0.57181
USER: genes 1 Rotation |==|  0.35515 0.97176 0.43252 0.54373
USER: genes 2 Torsion [N]-C--CA-[N] |==|  0.45228
USER: genes 3 Torsion [C]-CA--N-[C] |==|  0.80465
USER: genes 4 Torsion [N]-C--CA-[N] |==|  0.13388
USER: genes 5 Torsion [C]-CA--CB-[CG] |==|  0.32389
USER: genes 6 Torsion [CA]-CB--CG-[CD2] |==|  0.12830
USER: genes 7 Torsion [C]-CA--N-[C] |==|  0.16061
USER: genes 8 Torsion [N]-C--CA-[N] |==|  0.43966
USER: genes 9 Torsion [C]-CA--CB-[CG] |==|  0.93476
USER: genes 10 Torsion [CA]-CB--CG-[OD2] |==|  0.79374
USER: genes 11 Torsion [C]-CA--CB-[CG] |==|  0.37302
USER: genes 12 Torsion [CA]-CB--CG-[ND2] |==|  0.45186
USER: genes 13 Torsion [C]-N--CA-[CB] |==|  0.46667
USER: genes 14 Torsion [N]-CA--CB-[CG] |==|  0.59906
USER: genes 15 Torsion [CA]-CB--CG-[CD1] |==|  0.64552
USER: genes 16 Torsion [N]-CA--C-[N] |==|  0.41053
USER: genes 17 Torsion [C]-N--CA-[C] |==|  0.71119
USER: genes 18 Torsion [N]-CA--C-[N] |==|  0.99795
USER: genes 19 Torsion [C]-N--CA-[CB] |==|  0.27569
USER: genes 20 Torsion [N]-CA--CB-[CG2] |==|  0.12384
USER: genes 21 Torsion [N]-CA--C-[O] |==|  0.42279
USER: genes 22 Torsion [N]-CA--CB-[CG] |==|  0.76234
USER: genes 23 Torsion [CA]-CB--CG-[CD] |==|  0.91046
USER: genes 24 Torsion [CB]-CG--CD-[OE1] |==|  0.84666
ROOT
ATOM      1  C   ASN P   4      33.677  -1.850 -29.856  1.00 47.61 LIG 0.24  C 
ATOM      2 O    ASN P   4      33.941  -2.300 -30.944  1.00 46.30 LIG-0.27  OA
ATOM      3  N   TRP P   5      34.354  -2.239 -28.777  1.00 43.61 LIG-0.35  N 
ATOM      4 H    TRP P   5      34.218  -1.978 -27.969  1.00 43.61 LIG 0.16  HD
ENDROOT
BRANCH 1 5
ATOM      5  CA  ASN P   4      32.569  -0.801 -29.715  1.00 56.71 LIG 0.18  C 
BRANCH 5 6
ATOM      6  N   ASN P   4      32.254  -0.239 -31.017  1.00 58.55 LIG-0.35  N 
ATOM      7  C   TRP P   3      33.108   0.555 -31.631  1.00 51.89 LIG 0.24  C 
ATOM      8 O    TRP P   3      34.100   1.042 -31.085  1.00 53.51 LIG-0.27  OA
ATOM      9 H    ASN P   4      31.487  -0.467 -31.333  1.00 58.55 LIG 0.16  HD
BRANCH 7 10
ATOM     10  CA  TRP P   3      32.770   0.937 -33.022  1.00 49.09 LIG 0.18  C 
BRANCH 10 11
ATOM     11  CB  TRP P   3      33.803   2.026 -33.321  1.00 45.21 LIG 0.07  C 
BRANCH 11 12
ATOM     12  CG  TRP P   3      34.870   1.787 -34.465  1.00 38.74 LIG-0.03  A 
ATOM     13  CD1 TRP P   3      36.232   2.108 -34.469  1.00 32.85 LIG 0.10  A 
ATOM     14  NE1 TRP P   3      36.789   1.811 -35.726  1.00 33.71 LIG-0.36  N 
ATOM     15  CE2 TRP P   3      35.812   1.294 -36.533  1.00 32.42 LIG 0.04  A 
ATOM     16 HE1  TRP P   3      37.610   1.935 -35.952  1.00 33.71 LIG 0.17  HD
ATOM     17  CZ2 TRP P   3      35.874   0.913 -37.898  1.00 29.39 LIG 0.03  A 
ATOM     18  CD2 TRP P   3      34.592   1.271 -35.796  1.00 33.85 LIG-0.00  A 
ATOM     19  CH2 TRP P   3      34.728   0.420 -38.438  1.00 25.26 LIG 0.00  A 
ATOM     20  CZ3 TRP P   3      33.525   0.353 -37.742  1.00 33.31 LIG 0.00  A 
ATOM     21  CE3 TRP P   3      33.433   0.815 -36.418  1.00 32.67 LIG 0.01  A 
ENDBRANCH 11 12
ENDBRANCH 10 11
BRANCH 10 22
ATOM     22  N   TRP P   3      31.340   1.420 -33.207  1.00 48.62 LIG-0.34  N 
ATOM     23 H    TRP P   3      30.896   0.960 -33.783  1.00 48.62 LIG 0.16  HD
ATOM     24  C   ASP P   2      30.807   2.466 -32.538  1.00 44.46 LIG 0.26  C 
ATOM     25 O    ASP P   2      31.515   3.213 -31.812  1.00 32.12 LIG-0.27  OA
BRANCH 24 26
ATOM     26  CA  ASP P   2      29.225   2.692 -32.627  1.00 48.39 LIG 0.41  C 
ATOM     27  N   ASP P   2      28.755   3.515 -31.460  1.00 44.52 LIG 0.61  N 
BRANCH 26 28
ATOM     28  CB  ASP P   2      28.672   3.284 -33.977  1.00 55.68 LIG 0.16  C 
BRANCH 28 29
ATOM     29  CG  ASP P   2      29.771   4.110 -34.813  1.00 65.31 LIG 0.17  C 
ATOM     30 OD2  ASP P   2      30.129   5.278 -34.424  1.00 61.23 LIG-0.65  OA
ATOM     31 OD1  ASP P   2      30.271   3.596 -35.869  1.00 59.39 LIG-0.65  OA
ENDBRANCH 28 29
ENDBRANCH 26 28
ENDBRANCH 24 26
ENDBRANCH 10 22
ENDBRANCH 7 10
ENDBRANCH 5 6
BRANCH 5 32
ATOM     32  CB  ASN P   4      31.284  -1.383 -29.063  1.00 62.15 LIG 0.14  C 
BRANCH 32 33
ATOM     33  CG  ASN P   4      30.711  -0.479 -27.977  1.00 66.74 LIG 0.22  C 
ATOM     34 OD1  ASN P   4      31.406   0.395 -27.454  1.00 65.57 LIG-0.27  OA
ATOM     35  ND2 ASN P   4      29.452  -0.699 -27.615  1.00 62.00 LIG-0.37  N 
ATOM     36 21HD ASN P   4      29.094  -0.223 -26.994  1.00 62.00 LIG 0.16  HD
ATOM     37 22HD ASN P   4      28.996  -1.317 -28.000  1.00 62.00 LIG 0.16  HD
ENDBRANCH 32 33
ENDBRANCH 5 32
ENDBRANCH 1 5
BRANCH 3 38
ATOM     38  CA  TRP P   5      35.422  -3.193 -28.978  1.00 39.30 LIG 0.18  C 
BRANCH 38 39
ATOM     39  CB  TRP P   5      36.327  -3.356 -27.739  1.00 34.53 LIG 0.07  C 
BRANCH 39 40
ATOM     40  CG  TRP P   5      37.781  -3.586 -28.001  1.00 28.80 LIG-0.03  A 
ATOM     41  CD1 TRP P   5      38.529  -4.588 -27.496  1.00 24.67 LIG 0.10  A 
ATOM     42  NE1 TRP P   5      39.801  -4.467 -27.901  1.00 28.39 LIG-0.36  N 
ATOM     43 HE1  TRP P   5      40.446  -4.987 -27.667  1.00 28.39 LIG 0.17  HD
ATOM     44  CE2 TRP P   5      39.924  -3.390 -28.745  1.00 28.85 LIG 0.04  A 
ATOM     45  CZ2 TRP P   5      41.014  -2.921 -29.448  1.00 29.12 LIG 0.03  A 
ATOM     46  CD2 TRP P   5      38.650  -2.814 -28.850  1.00 31.26 LIG-0.00  A 
ATOM     47  CH2 TRP P   5      40.843  -1.790 -30.206  1.00 31.42 LIG 0.00  A 
ATOM     48  CZ3 TRP P   5      39.605  -1.126 -30.269  1.00 31.13 LIG 0.00  A 
ATOM     49  CE3 TRP P   5      38.496  -1.633 -29.600  1.00 35.06 LIG 0.01  A 
ENDBRANCH 39 40
ENDBRANCH 38 39
BRANCH 38 50
ATOM     50  C   TRP P   5      34.747  -4.464 -29.453  1.00 44.67 LIG 0.24  C 
ATOM     51 O    TRP P   5      33.629  -4.754 -29.077  1.00 47.12 LIG-0.27  OA
ATOM     52  N   GLU P   6      35.435  -5.216 -30.291  1.00 57.45 LIG-0.35  N 
ATOM     53 H    GLU P   6      36.275  -5.112 -30.440  1.00 57.45 LIG 0.16  HD
BRANCH 52 54
ATOM     54  CA  GLU P   6      34.827  -6.300 -31.048  1.00 54.50 LIG 0.18  C 
BRANCH 54 55
ATOM     55  C   GLU P   6      35.195  -7.621 -30.450  1.00 56.45 LIG 0.24  C 
ATOM     56 O    GLU P   6      34.751  -8.694 -30.950  1.00 44.81 LIG-0.27  OA
ATOM     57  N   VAL P   7      35.996  -7.546 -29.384  1.00 47.96 LIG-0.35  N 
ATOM     58 H    VAL P   7      36.436  -6.841 -29.163  1.00 47.96 LIG 0.16  HD
BRANCH 57 59
ATOM     59  CA  VAL P   7      36.187  -8.666 -28.502  1.00 55.51 LIG 0.17  C 
BRANCH 59 60
ATOM     60  CB  VAL P   7      37.515  -9.410 -28.834  1.00 57.72 LIG 0.01  C 
ATOM     61  CG2 VAL P   7      38.658  -8.408 -29.057  1.00 57.86 LIG 0.01  C 
ATOM     62  CG1 VAL P   7      37.359 -10.381 -30.008  1.00 55.94 LIG 0.01  C 
ENDBRANCH 59 60
BRANCH 59 63
ATOM     63  C   VAL P   7      36.118  -8.096 -27.069  1.00 56.50 LIG 0.22  C 
ATOM     64 O    VAL P   7      35.743  -8.798 -26.124  1.00 61.93 LIG-0.29  OA
ENDBRANCH 59 63
ENDBRANCH 57 59
ENDBRANCH 54 55
BRANCH 54 65
ATOM     65  CB  GLU P   6      35.383  -6.305 -32.465  1.00 55.84 LIG 0.04  C 
BRANCH 65 66
ATOM     66  CG  GLU P   6      34.650  -5.373 -33.405  1.00 56.62 LIG 0.12  C 
BRANCH 66 67
ATOM     67  CD  GLU P   6      33.176  -5.248 -33.063  1.00 56.54 LIG 0.17  C 
ATOM     68 OE1  GLU P   6      32.474  -6.316 -32.992  1.00 46.52 LIG-0.65  OA
ATOM     69 OE2  GLU P   6      32.761  -4.067 -32.872  1.00 53.74 LIG-0.65  OA
ENDBRANCH 66 67
ENDBRANCH 65 66
ENDBRANCH 54 65
ENDBRANCH 52 54
ENDBRANCH 38 50
ENDBRANCH 3 38
TORSDOF 23
ENDMDL
MODEL 7
USER: ADFR SOLUTION from run 51
USER: SCORE 20.923729 LL:  -5.418 LR: -17.554 RR:   0.000 FEB: -10.693
USER: RMSD 3.093531
USER: SEED 50
USER: STATUS 1 or 2 clusters left
USER: GENES 25
USER: genes 0 Translation |==|  0.52260 0.52063 0.60225
USER: genes 1 Rotation |==|  0.51344 0.98400 0.38754 0.55398
USER: genes 2 Torsion [N]-C--CA-[N] |==|  0.54394
USER: genes 3 Torsion [C]-CA--N-[C] |==|  0.56446
USER: genes 4 Torsion [N]-C--CA-[N] |==|  0.27518
USER: genes 5 Torsion [C]-CA--CB-[CG] |==|  0.35254
USER: genes 6 Torsion [CA]-CB--CG-[CD2] |==|  0.13106
USER: genes 7 Torsion [C]-CA--N-[C] |==|  0.83333
USER: genes 8 Torsion [N]-C--CA-[N] |==|  0.76649
USER: genes 9 Torsion [C]-CA--CB-[CG] |==|  0.80574
USER: genes 10 Torsion [CA]-CB--CG-[OD2] |==|  0.94452
USER: genes 11 Torsion [C]-CA--CB-[CG] |==|  0.76158
USER: genes 12 Torsion [CA]-CB--CG-[ND2] |==|  0.14303
USER: genes 13 Torsion [C]-N--CA-[CB] |==|  0.85556
USER: genes 14 Torsion [N]-CA--CB-[CG] |==|  0.34406
USER: genes 15 Torsion [CA]-CB--CG-[CD1] |==|  0.19717
USER: genes 16 Torsion [N]-CA--C-[N] |==|  0.41970
USER: genes 17 Torsion [C]-N--CA-[C] |==|  0.57437
USER: genes 18 Torsion [N]-CA--C-[N] |==|  0.17051
USER: genes 19 Torsion [C]-N--CA-[CB] |==|  0.48217
USER: genes 20 Torsion [N]-CA--CB-[CG2] |==|  0.77477
USER: genes 21 Torsion [N]-CA--C-[O] |==|  0.24962
USER: genes 22 Torsion [N]-CA--CB-[CG] |==|  0.57024
USER: genes 23 Torsion [CA]-CB--CG-[CD] |==|  0.06134
USER: genes 24 Torsion [CB]-CG--CD-[OE1] |==|  0.21247
ROOT
ATOM      1  C   ASN P   4      34.355  -1.941 -29.217  1.00 47.61 LIG 0.24  C 
ATOM      2 O    ASN P   4      34.440  -2.612 -30.216  1.00 46.30 LIG-0.27  OA
ATOM      3  N   TRP P   5      34.516  -2.490 -28.014  1.00 43.61 LIG-0.35  N 
ATOM      4 H    TRP P   5      34.456  -2.085 -27.257  1.00 43.61 LIG 0.16  HD
ENDROOT
BRANCH 1 5
ATOM      5  CA  ASN P   4      34.083  -0.438 -29.331  1.00 56.71 LIG 0.18  C 
BRANCH 5 6
ATOM      6  N   ASN P   4      33.579  -0.127 -30.657  1.00 58.55 LIG-0.35  N 
ATOM      7  C   TRP P   3      33.697   1.087 -31.155  1.00 51.89 LIG 0.24  C 
ATOM      8 O    TRP P   3      34.029   2.068 -30.487  1.00 53.51 LIG-0.27  OA
ATOM      9 H    ASN P   4      33.211  -0.788 -31.067  1.00 58.55 LIG 0.16  HD
BRANCH 7 10
ATOM     10  CA  TRP P   3      33.308   1.259 -32.574  1.00 49.09 LIG 0.18  C 
BRANCH 10 11
ATOM     11  CB  TRP P   3      34.403   2.188 -33.103  1.00 45.21 LIG 0.07  C 
BRANCH 11 12
ATOM     12  CG  TRP P   3      35.215   1.769 -34.394  1.00 38.74 LIG-0.03  A 
ATOM     13  CD1 TRP P   3      36.589   1.885 -34.637  1.00 32.85 LIG 0.10  A 
ATOM     14  NE1 TRP P   3      36.877   1.482 -35.954  1.00 33.71 LIG-0.36  N 
ATOM     15  CE2 TRP P   3      35.713   1.097 -36.564  1.00 32.42 LIG 0.04  A 
ATOM     16 HE1  TRP P   3      37.657   1.478 -36.317  1.00 33.71 LIG 0.17  HD
ATOM     17  CZ2 TRP P   3      35.488   0.682 -37.901  1.00 29.39 LIG 0.03  A 
ATOM     18  CD2 TRP P   3      34.646   1.270 -35.635  1.00 33.85 LIG-0.00  A 
ATOM     19  CH2 TRP P   3      34.209   0.351 -38.222  1.00 25.26 LIG 0.00  A 
ATOM     20  CZ3 TRP P   3      33.145   0.478 -37.335  1.00 33.31 LIG 0.00  A 
ATOM     21  CE3 TRP P   3      33.345   0.977 -36.036  1.00 32.67 LIG 0.01  A 
ENDBRANCH 11 12
ENDBRANCH 10 11
BRANCH 10 22
ATOM     22  N   TRP P   3      31.911   1.827 -32.774  1.00 48.62 LIG-0.34  N 
ATOM     23 H    TRP P   3      31.904   2.572 -33.204  1.00 48.62 LIG 0.16  HD
ATOM     24  C   ASP P   2      30.785   1.230 -32.325  1.00 44.46 LIG 0.26  C 
ATOM     25 O    ASP P   2      30.830   0.220 -31.573  1.00 32.12 LIG-0.27  OA
BRANCH 24 26
ATOM     26  CA  ASP P   2      29.377   1.791 -32.837  1.00 48.39 LIG 0.41  C 
ATOM     27  N   ASP P   2      28.952   2.963 -31.998  1.00 44.52 LIG 0.61  N 
BRANCH 26 28
ATOM     28  CB  ASP P   2      29.273   2.142 -34.368  1.00 55.68 LIG 0.16  C 
BRANCH 28 29
ATOM     29  CG  ASP P   2      30.130   3.438 -34.788  1.00 65.31 LIG 0.17  C 
ATOM     30 OD2  ASP P   2      30.489   4.287 -33.897  1.00 61.23 LIG-0.65  OA
ATOM     31 OD1  ASP P   2      30.435   3.615 -36.015  1.00 59.39 LIG-0.65  OA
ENDBRANCH 28 29
ENDBRANCH 26 28
ENDBRANCH 24 26
ENDBRANCH 10 22
ENDBRANCH 7 10
ENDBRANCH 5 6
BRANCH 5 32
ATOM     32  CB  ASN P   4      33.086   0.067 -28.252  1.00 62.15 LIG 0.14  C 
BRANCH 32 33
ATOM     33  CG  ASN P   4      31.629  -0.095 -28.671  1.00 66.74 LIG 0.22  C 
ATOM     34 OD1  ASN P   4      30.842   0.851 -28.591  1.00 65.57 LIG-0.27  OA
ATOM     35  ND2 ASN P   4      31.257  -1.296 -29.097  1.00 62.00 LIG-0.37  N 
ATOM     36 21HD ASN P   4      30.440  -1.437 -29.329  1.00 62.00 LIG 0.16  HD
ATOM     37 22HD ASN P   4      31.832  -1.934 -29.141  1.00 62.00 LIG 0.16  HD
ENDBRANCH 32 33
ENDBRANCH 5 32
ENDBRANCH 1 5
BRANCH 3 38
ATOM     38  CA  TRP P   5      34.820  -3.904 -27.970  1.00 39.30 LIG 0.18  C 
BRANCH 38 39
ATOM     39  CB  TRP P   5      33.828  -4.760 -28.785  1.00 34.53 LIG 0.07  C 
BRANCH 39 40
ATOM     40  CG  TRP P   5      34.417  -5.635 -29.843  1.00 28.80 LIG-0.03  A 
ATOM     41  CD1 TRP P   5      35.151  -6.747 -29.635  1.00 24.67 LIG 0.10  A 
ATOM     42  NE1 TRP P   5      35.557  -7.262 -30.805  1.00 28.39 LIG-0.36  N 
ATOM     43 HE1  TRP P   5      36.061  -7.954 -30.891  1.00 28.39 LIG 0.17  HD
ATOM     44  CE2 TRP P   5      35.048  -6.522 -31.844  1.00 28.85 LIG 0.04  A 
ATOM     45  CZ2 TRP P   5      35.142  -6.707 -33.207  1.00 29.12 LIG 0.03  A 
ATOM     46  CD2 TRP P   5      34.297  -5.486 -31.270  1.00 31.26 LIG-0.00  A 
ATOM     47  CH2 TRP P   5      34.541  -5.777 -34.018  1.00 31.42 LIG 0.00  A 
ATOM     48  CZ3 TRP P   5      33.855  -4.671 -33.487  1.00 31.13 LIG 0.00  A 
ATOM     49  CE3 TRP P   5      33.718  -4.518 -32.112  1.00 35.06 LIG 0.01  A 
ENDBRANCH 39 40
ENDBRANCH 38 39
BRANCH 38 50
ATOM     50  C   TRP P   5      36.270  -4.020 -28.394  1.00 44.67 LIG 0.24  C 
ATOM     51 O    TRP P   5      36.768  -3.204 -29.143  1.00 47.12 LIG-0.27  OA
ATOM     52  N   GLU P   6      36.945  -5.040 -27.900  1.00 57.45 LIG-0.35  N 
ATOM     53 H    GLU P   6      36.574  -5.708 -27.504  1.00 57.45 LIG 0.16  HD
BRANCH 52 54
ATOM     54  CA  GLU P   6      38.395  -5.131 -27.981  1.00 54.50 LIG 0.18  C 
BRANCH 54 55
ATOM     55  C   GLU P   6      38.829  -6.562 -27.963  1.00 56.45 LIG 0.24  C 
ATOM     56 O    GLU P   6      39.574  -6.992 -27.036  1.00 44.81 LIG-0.27  OA
ATOM     57  N   VAL P   7      38.374  -7.294 -28.983  1.00 47.96 LIG-0.35  N 
ATOM     58 H    VAL P   7      37.732  -7.050 -29.500  1.00 47.96 LIG 0.16  HD
BRANCH 57 59
ATOM     59  CA  VAL P   7      38.939  -8.578 -29.303  1.00 55.51 LIG 0.17  C 
BRANCH 59 60
ATOM     60  CB  VAL P   7      38.117  -9.277 -30.428  1.00 57.72 LIG 0.01  C 
ATOM     61  CG2 VAL P   7      36.867  -9.954 -29.846  1.00 57.86 LIG 0.01  C 
ATOM     62  CG1 VAL P   7      38.969 -10.245 -31.254  1.00 55.94 LIG 0.01  C 
ENDBRANCH 59 60
BRANCH 59 63
ATOM     63  C   VAL P   7      40.416  -8.315 -29.664  1.00 56.50 LIG 0.22  C 
ATOM     64 O    VAL P   7      41.295  -8.338 -28.797  1.00 61.93 LIG-0.29  OA
ENDBRANCH 59 63
ENDBRANCH 57 59
ENDBRANCH 54 55
BRANCH 54 65
ATOM     65  CB  GLU P   6      39.014  -4.483 -26.750  1.00 55.84 LIG 0.04  C 
BRANCH 65 66
ATOM     66  CG  GLU P   6      40.423  -3.976 -26.976  1.00 56.62 LIG 0.12  C 
BRANCH 66 67
ATOM     67  CD  GLU P   6      40.719  -3.728 -28.444  1.00 56.54 LIG 0.17  C 
ATOM     68 OE1  GLU P   6      40.240  -2.676 -28.994  1.00 46.52 LIG-0.65  OA
ATOM     69 OE2  GLU P   6      41.434  -4.608 -29.009  1.00 53.74 LIG-0.65  OA
ENDBRANCH 66 67
ENDBRANCH 65 66
ENDBRANCH 54 65
ENDBRANCH 52 54
ENDBRANCH 38 50
ENDBRANCH 3 38
TORSDOF 23
ENDMDL
MODEL 8
USER: ADFR SOLUTION from run 108
USER: SCORE 19.694755 LL:  -4.410 LR: -17.521 RR:   0.000 FEB: -10.660
USER: RMSD 3.150125
USER: SEED 107
USER: STATUS no improvement in best in 4 clusters for 5 generations
USER: GENES 25
USER: genes 0 Translation |==|  0.51001 0.56235 0.57910
USER: genes 1 Rotation |==|  0.56466 0.96624 0.37538 0.61363
USER: genes 2 Torsion [N]-C--CA-[N] |==|  0.60155
USER: genes 3 Torsion [C]-CA--N-[C] |==|  0.15878
USER: genes 4 Torsion [N]-C--CA-[N] |==|  0.70247
USER: genes 5 Torsion [C]-CA--CB-[CG] |==|  0.39108
USER: genes 6 Torsion [CA]-CB--CG-[CD2] |==|  0.56808
USER: genes 7 Torsion [C]-CA--N-[C] |==|  0.72542
USER: genes 8 Torsion [N]-C--CA-[N] |==|  0.64622
USER: genes 9 Torsion [C]-CA--CB-[CG] |==|  0.20096
USER: genes 10 Torsion [CA]-CB--CG-[OD2] |==|  0.45143
USER: genes 11 Torsion [C]-CA--CB-[CG] |==|  0.51643
USER: genes 12 Torsion [CA]-CB--CG-[ND2] |==|  0.82994
USER: genes 13 Torsion [C]-N--CA-[CB] |==|  0.86926
USER: genes 14 Torsion [N]-CA--CB-[CG] |==|  0.36171
USER: genes 15 Torsion [CA]-CB--CG-[CD1] |==|  0.15181
USER: genes 16 Torsion [N]-CA--C-[N] |==|  0.38873
USER: genes 17 Torsion [C]-N--CA-[C] |==|  0.62222
USER: genes 18 Torsion [N]-CA--C-[N] |==|  0.92330
USER: genes 19 Torsion [C]-N--CA-[CB] |==|  0.87085
USER: genes 20 Torsion [N]-CA--CB-[CG2] |==|  0.65270
USER: genes 21 Torsion [N]-CA--C-[O] |==|  0.34737
USER: genes 22 Torsion [N]-CA--CB-[CG] |==|  0.35449
USER: genes 23 Torsion [CA]-CB--CG-[CD] |==|  0.63572
USER: genes 24 Torsion [CB]-CG--CD-[OE1] |==|  0.89453
ROOT
ATOM      1  C   ASN P   4      34.090  -0.971 -29.703  1.00 47.61 LIG 0.24  C 
ATOM      2 O    ASN P   4      34.343  -1.714 -30.620  1.00 46.30 LIG-0.27  OA
ATOM      3  N   TRP P   5      33.825  -1.454 -28.490  1.00 43.61 LIG-0.35  N 
ATOM      4 H    TRP P   5      33.623  -0.994 -27.792  1.00 43.61 LIG 0.16  HD
ENDROOT
BRANCH 1 5
ATOM      5  CA  ASN P   4      34.100   0.544 -29.927  1.00 56.71 LIG 0.18  C 
BRANCH 5 6
ATOM      6  N   ASN P   4      33.557   0.852 -31.238  1.00 58.55 LIG-0.35  N 
ATOM      7  C   TRP P   3      32.346   0.456 -31.576  1.00 51.89 LIG 0.24  C 
ATOM      8 O    TRP P   3      31.689  -0.358 -30.924  1.00 53.51 LIG-0.27  OA
ATOM      9 H    ASN P   4      34.084   1.299 -31.752  1.00 58.55 LIG 0.16  HD
BRANCH 7 10
ATOM     10  CA  TRP P   3      31.821   0.964 -32.865  1.00 49.09 LIG 0.18  C 
BRANCH 10 11
ATOM     11  CB  TRP P   3      33.083   1.502 -33.542  1.00 45.21 LIG 0.07  C 
BRANCH 11 12
ATOM     12  CG  TRP P   3      33.278   1.286 -35.097  1.00 38.74 LIG-0.03  A 
ATOM     13  CD1 TRP P   3      32.312   0.983 -36.064  1.00 32.85 LIG 0.10  A 
ATOM     14  NE1 TRP P   3      32.932   0.778 -37.311  1.00 33.71 LIG-0.36  N 
ATOM     15  CE2 TRP P   3      34.283   0.954 -37.168  1.00 32.42 LIG 0.04  A 
ATOM     16 HE1  TRP P   3      32.529   0.576 -38.043  1.00 33.71 LIG 0.17  HD
ATOM     17  CZ2 TRP P   3      35.321   0.788 -38.119  1.00 29.39 LIG 0.03  A 
ATOM     18  CD2 TRP P   3      34.550   1.259 -35.801  1.00 33.85 LIG-0.00  A 
ATOM     19  CH2 TRP P   3      36.583   1.043 -37.684  1.00 25.26 LIG 0.00  A 
ATOM     20  CZ3 TRP P   3      36.882   1.372 -36.366  1.00 33.31 LIG 0.00  A 
ATOM     21  CE3 TRP P   3      35.868   1.448 -35.395  1.00 32.67 LIG 0.01  A 
ENDBRANCH 11 12
ENDBRANCH 10 11
BRANCH 10 22
ATOM     22  N   TRP P   3      30.736   2.021 -32.724  1.00 48.62 LIG-0.34  N 
ATOM     23 H    TRP P   3      31.045   2.810 -32.573  1.00 48.62 LIG 0.16  HD
ATOM     24  C   ASP P   2      29.414   1.760 -32.824  1.00 44.46 LIG 0.26  C 
ATOM     25 O    ASP P   2      28.980   0.579 -32.898  1.00 32.12 LIG-0.27  OA
BRANCH 24 26
ATOM     26  CA  ASP P   2      28.405   2.997 -32.927  1.00 48.39 LIG 0.41  C 
ATOM     27  N   ASP P   2      27.329   2.875 -31.885  1.00 44.52 LIG 0.61  N 
BRANCH 26 28
ATOM     28  CB  ASP P   2      29.046   4.435 -32.891  1.00 55.68 LIG 0.16  C 
BRANCH 28 29
ATOM     29  CG  ASP P   2      29.835   4.819 -34.240  1.00 65.31 LIG 0.17  C 
ATOM     30 OD2  ASP P   2      30.114   6.044 -34.494  1.00 61.23 LIG-0.65  OA
ATOM     31 OD1  ASP P   2      30.166   3.895 -35.056  1.00 59.39 LIG-0.65  OA
ENDBRANCH 28 29
ENDBRANCH 26 28
ENDBRANCH 24 26
ENDBRANCH 10 22
ENDBRANCH 7 10
ENDBRANCH 5 6
BRANCH 5 32
ATOM     32  CB  ASN P   4      33.307   1.309 -28.832  1.00 62.15 LIG 0.14  C 
BRANCH 32 33
ATOM     33  CG  ASN P   4      33.188   2.802 -29.121  1.00 66.74 LIG 0.22  C 
ATOM     34 OD1  ASN P   4      32.085   3.323 -29.296  1.00 65.57 LIG-0.27  OA
ATOM     35  ND2 ASN P   4      34.321   3.491 -29.198  1.00 62.00 LIG-0.37  N 
ATOM     36 21HD ASN P   4      34.301   4.332 -29.376  1.00 62.00 LIG 0.16  HD
ATOM     37 22HD ASN P   4      35.073   3.095 -29.071  1.00 62.00 LIG 0.16  HD
ENDBRANCH 32 33
ENDBRANCH 5 32
ENDBRANCH 1 5
BRANCH 3 38
ATOM     38  CA  TRP P   5      33.880  -2.891 -28.326  1.00 39.30 LIG 0.18  C 
BRANCH 38 39
ATOM     39  CB  TRP P   5      33.130  -3.654 -29.438  1.00 34.53 LIG 0.07  C 
BRANCH 39 40
ATOM     40  CG  TRP P   5      33.876  -4.765 -30.103  1.00 28.80 LIG-0.03  A 
ATOM     41  CD1 TRP P   5      34.459  -5.812 -29.484  1.00 24.67 LIG 0.10  A 
ATOM     42  NE1 TRP P   5      35.079  -6.595 -30.378  1.00 28.39 LIG-0.36  N 
ATOM     43 HE1  TRP P   5      35.537  -7.297 -30.186  1.00 28.39 LIG 0.17  HD
ATOM     44  CE2 TRP P   5      34.875  -6.109 -31.647  1.00 28.85 LIG 0.04  A 
ATOM     45  CZ2 TRP P   5      35.262  -6.610 -32.872  1.00 29.12 LIG 0.03  A 
ATOM     46  CD2 TRP P   5      34.094  -4.952 -31.514  1.00 31.26 LIG-0.00  A 
ATOM     47  CH2 TRP P   5      34.933  -5.884 -33.989  1.00 31.42 LIG 0.00  A 
ATOM     48  CZ3 TRP P   5      34.228  -4.671 -33.897  1.00 31.13 LIG 0.00  A 
ATOM     49  CE3 TRP P   5      33.795  -4.197 -32.663  1.00 35.06 LIG 0.01  A 
ENDBRANCH 39 40
ENDBRANCH 38 39
BRANCH 38 50
ATOM     50  C   TRP P   5      35.352  -3.227 -28.195  1.00 44.67 LIG 0.24  C 
ATOM     51 O    TRP P   5      36.184  -2.663 -28.875  1.00 47.12 LIG-0.27  OA
ATOM     52  N   GLU P   6      35.664  -4.150 -27.305  1.00 57.45 LIG-0.35  N 
ATOM     53 H    GLU P   6      35.085  -4.667 -26.934  1.00 57.45 LIG 0.16  HD
BRANCH 52 54
ATOM     54  CA  GLU P   6      37.032  -4.378 -26.863  1.00 54.50 LIG 0.18  C 
BRANCH 54 55
ATOM     55  C   GLU P   6      37.323  -5.844 -26.809  1.00 56.45 LIG 0.24  C 
ATOM     56 O    GLU P   6      38.503  -6.267 -26.972  1.00 44.81 LIG-0.27  OA
ATOM     57  N   VAL P   7      36.256  -6.616 -26.588  1.00 47.96 LIG-0.35  N 
ATOM     58 H    VAL P   7      35.501  -6.321 -26.300  1.00 47.96 LIG 0.16  HD
BRANCH 57 59
ATOM     59  CA  VAL P   7      36.287  -8.035 -26.823  1.00 55.51 LIG 0.17  C 
BRANCH 59 60
ATOM     60  CB  VAL P   7      36.936  -8.351 -28.205  1.00 57.72 LIG 0.01  C 
ATOM     61  CG2 VAL P   7      35.994  -9.206 -29.065  1.00 57.86 LIG 0.01  C 
ATOM     62  CG1 VAL P   7      38.325  -8.982 -28.064  1.00 55.94 LIG 0.01  C 
ENDBRANCH 59 60
BRANCH 59 63
ATOM     63  C   VAL P   7      37.027  -8.650 -25.617  1.00 56.50 LIG 0.22  C 
ATOM     64 O    VAL P   7      36.507  -9.544 -24.942  1.00 61.93 LIG-0.29  OA
ENDBRANCH 59 63
ENDBRANCH 57 59
ENDBRANCH 54 55
BRANCH 54 65
ATOM     65  CB  GLU P   6      37.200  -3.859 -25.442  1.00 55.84 LIG 0.04  C 
BRANCH 65 66
ATOM     66  CG  GLU P   6      37.787  -4.879 -24.490  1.00 56.62 LIG 0.12  C 
BRANCH 66 67
ATOM     67  CD  GLU P   6      36.993  -4.990 -23.200  1.00 56.54 LIG 0.17  C 
ATOM     68 OE1  GLU P   6      36.505  -3.922 -22.690  1.00 46.52 LIG-0.65  OA
ATOM     69 OE2  GLU P   6      36.879  -6.161 -22.732  1.00 53.74 LIG-0.65  OA
ENDBRANCH 66 67
ENDBRANCH 65 66
ENDBRANCH 54 65
ENDBRANCH 52 54
ENDBRANCH 38 50
ENDBRANCH 3 38
TORSDOF 23
ENDMDL
MODEL 9
USER: ADFR SOLUTION from run 157
USER: SCORE 20.062543 LL:  -4.934 LR: -17.446 RR:   0.000 FEB: -10.585
USER: RMSD 9.566667
USER: SEED 156
USER: STATUS no improvement in best in 10 clusters for 5 generations
USER: GENES 25
USER: genes 0 Translation |==|  0.39474 0.60578 0.58505
USER: genes 1 Rotation |==|  0.72206 0.10135 0.41746 0.68696
USER: genes 2 Torsion [N]-C--CA-[N] |==|  0.20311
USER: genes 3 Torsion [C]-CA--N-[C] |==|  0.77755
USER: genes 4 Torsion [N]-C--CA-[N] |==|  0.67223
USER: genes 5 Torsion [C]-CA--CB-[CG] |==|  0.24606
USER: genes 6 Torsion [CA]-CB--CG-[CD2] |==|  0.10187
USER: genes 7 Torsion [C]-CA--N-[C] |==|  0.64551
USER: genes 8 Torsion [N]-C--CA-[N] |==|  0.76429
USER: genes 9 Torsion [C]-CA--CB-[CG] |==|  0.65879
USER: genes 10 Torsion [CA]-CB--CG-[OD2] |==|  0.15077
USER: genes 11 Torsion [C]-CA--CB-[CG] |==|  0.45645
USER: genes 12 Torsion [CA]-CB--CG-[ND2] |==|  0.30570
USER: genes 13 Torsion [C]-N--CA-[CB] |==|  0.84573
USER: genes 14 Torsion [N]-CA--CB-[CG] |==|  0.76414
USER: genes 15 Torsion [CA]-CB--CG-[CD1] |==|  0.16521
USER: genes 16 Torsion [N]-CA--C-[N] |==|  0.50556
USER: genes 17 Torsion [C]-N--CA-[C] |==|  0.76129
USER: genes 18 Torsion [N]-CA--C-[N] |==|  0.12816
USER: genes 19 Torsion [C]-N--CA-[CB] |==|  0.48795
USER: genes 20 Torsion [N]-CA--CB-[CG2] |==|  0.21064
USER: genes 21 Torsion [N]-CA--C-[O] |==|  0.23702
USER: genes 22 Torsion [N]-CA--CB-[CG] |==|  0.70128
USER: genes 23 Torsion [CA]-CB--CG-[CD] |==|  0.61673
USER: genes 24 Torsion [CB]-CG--CD-[OE1] |==|  0.37482
ROOT
ATOM      1  C   ASN P   4      31.670   0.038 -29.578  1.00 47.61 LIG 0.24  C 
ATOM      2 O    ASN P   4      30.839  -0.246 -30.406  1.00 46.30 LIG-0.27  OA
ATOM      3  N   TRP P   5      32.967  -0.102 -29.842  1.00 43.61 LIG-0.35  N 
ATOM      4 H    TRP P   5      33.618   0.065 -29.303  1.00 43.61 LIG 0.16  HD
ENDROOT
BRANCH 1 5
ATOM      5  CA  ASN P   4      31.230   0.591 -28.218  1.00 56.71 LIG 0.18  C 
BRANCH 5 6
ATOM      6  N   ASN P   4      31.502   2.016 -28.154  1.00 58.55 LIG-0.35  N 
ATOM      7  C   TRP P   3      32.715   2.460 -27.892  1.00 51.89 LIG 0.24  C 
ATOM      8 O    TRP P   3      33.628   1.742 -27.480  1.00 53.51 LIG-0.27  OA
ATOM      9 H    ASN P   4      30.820   2.521 -28.299  1.00 58.55 LIG 0.16  HD
BRANCH 7 10
ATOM     10  CA  TRP P   3      32.925   3.921 -28.018  1.00 49.09 LIG 0.18  C 
BRANCH 10 11
ATOM     11  CB  TRP P   3      31.517   4.426 -28.339  1.00 45.21 LIG 0.07  C 
BRANCH 11 12
ATOM     12  CG  TRP P   3      30.541   4.802 -27.152  1.00 38.74 LIG-0.03  A 
ATOM     13  CD1 TRP P   3      29.146   4.705 -27.105  1.00 32.85 LIG 0.10  A 
ATOM     14  NE1 TRP P   3      28.670   5.240 -25.894  1.00 33.71 LIG-0.36  N 
ATOM     15  CE2 TRP P   3      29.736   5.673 -25.152  1.00 32.42 LIG 0.04  A 
ATOM     16 HE1  TRP P   3      27.844   5.288 -25.658  1.00 33.71 LIG 0.17  HD
ATOM     17  CZ2 TRP P   3      29.755   6.341 -23.901  1.00 29.39 LIG 0.03  A 
ATOM     18  CD2 TRP P   3      30.925   5.434 -25.900  1.00 33.85 LIG-0.00  A 
ATOM     19  CH2 TRP P   3      30.980   6.647 -23.400  1.00 25.26 LIG 0.00  A 
ATOM     20  CZ3 TRP P   3      32.166   6.403 -24.085  1.00 33.31 LIG 0.00  A 
ATOM     21  CE3 TRP P   3      32.151   5.825 -25.367  1.00 32.67 LIG 0.01  A 
ENDBRANCH 11 12
ENDBRANCH 10 11
BRANCH 10 22
ATOM     22  N   TRP P   3      33.945   4.316 -29.075  1.00 48.62 LIG-0.34  N 
ATOM     23 H    TRP P   3      33.790   3.969 -29.846  1.00 48.62 LIG 0.16  HD
ATOM     24  C   ASP P   2      34.996   5.132 -28.838  1.00 44.46 LIG 0.26  C 
ATOM     25 O    ASP P   2      35.287   5.509 -27.671  1.00 32.12 LIG-0.27  OA
BRANCH 24 26
ATOM     26  CA  ASP P   2      35.826   5.679 -30.092  1.00 48.39 LIG 0.41  C 
ATOM     27  N   ASP P   2      36.867   4.675 -30.499  1.00 44.52 LIG 0.61  N 
BRANCH 26 28
ATOM     28  CB  ASP P   2      34.989   6.144 -31.342  1.00 55.68 LIG 0.16  C 
BRANCH 28 29
ATOM     29  CG  ASP P   2      35.381   5.372 -32.699  1.00 65.31 LIG 0.17  C 
ATOM     30 OD2  ASP P   2      35.362   4.090 -32.737  1.00 61.23 LIG-0.65  OA
ATOM     31 OD1  ASP P   2      35.721   6.047 -33.727  1.00 59.39 LIG-0.65  OA
ENDBRANCH 28 29
ENDBRANCH 26 28
ENDBRANCH 24 26
ENDBRANCH 10 22
ENDBRANCH 7 10
ENDBRANCH 5 6
BRANCH 5 32
ATOM     32  CB  ASN P   4      29.728   0.323 -27.928  1.00 62.15 LIG 0.14  C 
BRANCH 32 33
ATOM     33  CG  ASN P   4      29.365   0.515 -26.459  1.00 66.74 LIG 0.22  C 
ATOM     34 OD1  ASN P   4      29.747  -0.290 -25.607  1.00 65.57 LIG-0.27  OA
ATOM     35  ND2 ASN P   4      28.608   1.564 -26.160  1.00 62.00 LIG-0.37  N 
ATOM     36 21HD ASN P   4      28.366   1.701 -25.346  1.00 62.00 LIG 0.16  HD
ATOM     37 22HD ASN P   4      28.360   2.106 -26.779  1.00 62.00 LIG 0.16  HD
ENDBRANCH 32 33
ENDBRANCH 5 32
ENDBRANCH 1 5
BRANCH 3 38
ATOM     38  CA  TRP P   5      33.325  -0.580 -31.159  1.00 39.30 LIG 0.18  C 
BRANCH 38 39
ATOM     39  CB  TRP P   5      32.656  -1.924 -31.515  1.00 34.53 LIG 0.07  C 
BRANCH 39 40
ATOM     40  CG  TRP P   5      33.351  -3.160 -31.044  1.00 28.80 LIG-0.03  A 
ATOM     41  CD1 TRP P   5      33.629  -3.474 -29.763  1.00 24.67 LIG 0.10  A 
ATOM     42  NE1 TRP P   5      34.299  -4.634 -29.703  1.00 28.39 LIG-0.36  N 
ATOM     43 HE1  TRP P   5      34.597  -4.996 -28.981  1.00 28.39 LIG 0.17  HD
ATOM     44  CE2 TRP P   5      34.441  -5.158 -30.965  1.00 28.85 LIG 0.04  A 
ATOM     45  CZ2 TRP P   5      34.997  -6.349 -31.384  1.00 29.12 LIG 0.03  A 
ATOM     46  CD2 TRP P   5      33.830  -4.256 -31.847  1.00 31.26 LIG-0.00  A 
ATOM     47  CH2 TRP P   5      35.021  -6.599 -32.733  1.00 31.42 LIG 0.00  A 
ATOM     48  CZ3 TRP P   5      34.501  -5.680 -33.662  1.00 31.13 LIG 0.00  A 
ATOM     49  CE3 TRP P   5      33.894  -4.506 -33.230  1.00 35.06 LIG 0.01  A 
ENDBRANCH 39 40
ENDBRANCH 38 39
BRANCH 38 50
ATOM     50  C   TRP P   5      33.013   0.564 -32.104  1.00 44.67 LIG 0.24  C 
ATOM     51 O    TRP P   5      32.600   1.625 -31.683  1.00 47.12 LIG-0.27  OA
ATOM     52  N   GLU P   6      33.225   0.338 -33.386  1.00 57.45 LIG-0.35  N 
ATOM     53 H    GLU P   6      33.362  -0.445 -33.714  1.00 57.45 LIG 0.16  HD
BRANCH 52 54
ATOM     54  CA  GLU P   6      33.247   1.407 -34.374  1.00 54.50 LIG 0.18  C 
BRANCH 54 55
ATOM     55  C   GLU P   6      31.862   1.700 -34.855  1.00 56.45 LIG 0.24  C 
ATOM     56 O    GLU P   6      31.630   1.836 -36.091  1.00 44.81 LIG-0.27  OA
ATOM     57  N   VAL P   7      30.947   1.803 -33.888  1.00 47.96 LIG-0.35  N 
ATOM     58 H    VAL P   7      31.070   1.533 -33.081  1.00 47.96 LIG 0.16  HD
BRANCH 57 59
ATOM     59  CA  VAL P   7      29.656   2.389 -34.128  1.00 55.51 LIG 0.17  C 
BRANCH 59 60
ATOM     60  CB  VAL P   7      28.757   2.281 -32.859  1.00 57.72 LIG 0.01  C 
ATOM     61  CG2 VAL P   7      29.181   3.312 -31.803  1.00 57.86 LIG 0.01  C 
ATOM     62  CG1 VAL P   7      28.716   0.857 -32.296  1.00 55.94 LIG 0.01  C 
ENDBRANCH 59 60
BRANCH 59 63
ATOM     63  C   VAL P   7      29.925   3.835 -34.595  1.00 56.50 LIG 0.22  C 
ATOM     64 O    VAL P   7      30.156   4.085 -35.783  1.00 61.93 LIG-0.29  OA
ENDBRANCH 59 63
ENDBRANCH 57 59
ENDBRANCH 54 55
BRANCH 54 65
ATOM     65  CB  GLU P   6      34.035   0.953 -35.596  1.00 55.84 LIG 0.04  C 
BRANCH 65 66
ATOM     66  CG  GLU P   6      35.389   1.618 -35.725  1.00 56.62 LIG 0.12  C 
BRANCH 66 67
ATOM     67  CD  GLU P   6      35.700   2.023 -37.154  1.00 56.54 LIG 0.17  C 
ATOM     68 OE1  GLU P   6      36.190   3.187 -37.365  1.00 46.52 LIG-0.65  OA
ATOM     69 OE2  GLU P   6      35.441   1.150 -38.034  1.00 53.74 LIG-0.65  OA
ENDBRANCH 66 67
ENDBRANCH 65 66
ENDBRANCH 54 65
ENDBRANCH 52 54
ENDBRANCH 38 50
ENDBRANCH 3 38
TORSDOF 23
ENDMDL
MODEL 10
USER: ADFR SOLUTION from run 37
USER: SCORE 21.001489 LL:  -5.738 LR: -17.384 RR:   0.000 FEB: -10.523
USER: RMSD 2.604740
USER: SEED 36
USER: STATUS searching
USER: GENES 25
USER: genes 0 Translation |==|  0.51721 0.54101 0.61265
USER: genes 1 Rotation |==|  0.41080 0.20651 0.63759 0.87011
USER: genes 2 Torsion [N]-C--CA-[N] |==|  0.41804
USER: genes 3 Torsion [C]-CA--N-[C] |==|  0.78759
USER: genes 4 Torsion [N]-C--CA-[N] |==|  0.85895
USER: genes 5 Torsion [C]-CA--CB-[CG] |==|  0.08590
USER: genes 6 Torsion [CA]-CB--CG-[CD2] |==|  0.19901
USER: genes 7 Torsion [C]-CA--N-[C] |==|  0.18459
USER: genes 8 Torsion [N]-C--CA-[N] |==|  0.83468
USER: genes 9 Torsion [C]-CA--CB-[CG] |==|  0.52053
USER: genes 10 Torsion [CA]-CB--CG-[OD2] |==|  0.21264
USER: genes 11 Torsion [C]-CA--CB-[CG] |==|  0.88765
USER: genes 12 Torsion [CA]-CB--CG-[ND2] |==|  0.29433
USER: genes 13 Torsion [C]-N--CA-[CB] |==|  0.17852
USER: genes 14 Torsion [N]-CA--CB-[CG] |==|  0.10296
USER: genes 15 Torsion [CA]-CB--CG-[CD1] |==|  0.73184
USER: genes 16 Torsion [N]-CA--C-[N] |==|  0.52413
USER: genes 17 Torsion [C]-N--CA-[C] |==|  0.65817
USER: genes 18 Torsion [N]-CA--C-[N] |==|  0.17560
USER: genes 19 Torsion [C]-N--CA-[CB] |==|  0.80765
USER: genes 20 Torsion [N]-CA--CB-[CG2] |==|  0.91425
USER: genes 21 Torsion [N]-CA--C-[O] |==|  0.67853
USER: genes 22 Torsion [N]-CA--CB-[CG] |==|  0.67636
USER: genes 23 Torsion [CA]-CB--CG-[CD] |==|  0.28746
USER: genes 24 Torsion [CB]-CG--CD-[OE1] |==|  0.30661
ROOT
ATOM      1  C   ASN P   4      34.241  -1.467 -28.998  1.00 47.61 LIG 0.24  C 
ATOM      2 O    ASN P   4      33.146  -1.583 -28.504  1.00 46.30 LIG-0.27  OA
ATOM      3  N   TRP P   5      35.124  -2.463 -28.936  1.00 43.61 LIG-0.35  N 
ATOM      4 H    TRP P   5      35.925  -2.454 -29.249  1.00 43.61 LIG 0.16  HD
ENDROOT
BRANCH 1 5
ATOM      5  CA  ASN P   4      34.614  -0.173 -29.729  1.00 56.71 LIG 0.18  C 
BRANCH 5 6
ATOM      6  N   ASN P   4      33.420   0.443 -30.280  1.00 58.55 LIG-0.35  N 
ATOM      7  C   TRP P   3      32.858  -0.037 -31.372  1.00 51.89 LIG 0.24  C 
ATOM      8 O    TRP P   3      33.396  -0.867 -32.106  1.00 53.51 LIG-0.27  OA
ATOM      9 H    ASN P   4      33.128   1.123 -29.841  1.00 58.55 LIG 0.16  HD
BRANCH 7 10
ATOM     10  CA  TRP P   3      31.554   0.552 -31.756  1.00 49.09 LIG 0.18  C 
BRANCH 10 11
ATOM     11  CB  TRP P   3      31.954   1.950 -32.232  1.00 45.21 LIG 0.07  C 
BRANCH 11 12
ATOM     12  CG  TRP P   3      33.372   2.163 -32.898  1.00 38.74 LIG-0.03  A 
ATOM     13  CD1 TRP P   3      34.460   2.902 -32.419  1.00 32.85 LIG 0.10  A 
ATOM     14  NE1 TRP P   3      35.493   2.908 -33.374  1.00 33.71 LIG-0.36  N 
ATOM     15  CE2 TRP P   3      35.095   2.176 -34.461  1.00 32.42 LIG 0.04  A 
ATOM     16 HE1  TRP P   3      36.250   3.307 -33.290  1.00 33.71 LIG 0.17  HD
ATOM     17  CZ2 TRP P   3      35.760   1.954 -35.693  1.00 29.39 LIG 0.03  A 
ATOM     18  CD2 TRP P   3      33.773   1.701 -34.218  1.00 33.85 LIG-0.00  A 
ATOM     19  CH2 TRP P   3      35.112   1.169 -36.594  1.00 25.26 LIG 0.00  A 
ATOM     20  CZ3 TRP P   3      33.834   0.661 -36.382  1.00 33.31 LIG 0.00  A 
ATOM     21  CE3 TRP P   3      33.130   0.954 -35.201  1.00 32.67 LIG 0.01  A 
ENDBRANCH 11 12
ENDBRANCH 10 11
BRANCH 10 22
ATOM     22  N   TRP P   3      30.529   0.586 -30.632  1.00 48.62 LIG-0.34  N 
ATOM     23 H    TRP P   3      29.853   0.074 -30.770  1.00 48.62 LIG 0.16  HD
ATOM     24  C   ASP P   2      30.658   1.344 -29.520  1.00 44.46 LIG 0.26  C 
ATOM     25 O    ASP P   2      31.580   2.195 -29.406  1.00 32.12 LIG-0.27  OA
BRANCH 24 26
ATOM     26  CA  ASP P   2      29.651   1.080 -28.305  1.00 48.39 LIG 0.41  C 
ATOM     27  N   ASP P   2      28.232   1.290 -28.755  1.00 44.52 LIG 0.61  N 
BRANCH 26 28
ATOM     28  CB  ASP P   2      29.794  -0.299 -27.558  1.00 55.68 LIG 0.16  C 
BRANCH 28 29
ATOM     29  CG  ASP P   2      28.630  -0.566 -26.479  1.00 65.31 LIG 0.17  C 
ATOM     30 OD2  ASP P   2      27.462  -0.921 -26.869  1.00 61.23 LIG-0.65  OA
ATOM     31 OD1  ASP P   2      28.881  -0.410 -25.237  1.00 59.39 LIG-0.65  OA
ENDBRANCH 28 29
ENDBRANCH 26 28
ENDBRANCH 24 26
ENDBRANCH 10 22
ENDBRANCH 7 10
ENDBRANCH 5 6
BRANCH 5 32
ATOM     32  CB  ASN P   4      35.353   0.835 -28.806  1.00 62.15 LIG 0.14  C 
BRANCH 32 33
ATOM     33  CG  ASN P   4      34.763   0.893 -27.401  1.00 66.74 LIG 0.22  C 
ATOM     34 OD1  ASN P   4      33.697   1.474 -27.189  1.00 65.57 LIG-0.27  OA
ATOM     35  ND2 ASN P   4      35.463   0.314 -26.432  1.00 62.00 LIG-0.37  N 
ATOM     36 21HD ASN P   4      35.176   0.337 -25.621  1.00 62.00 LIG 0.16  HD
ATOM     37 22HD ASN P   4      36.203  -0.083 -26.614  1.00 62.00 LIG 0.16  HD
ENDBRANCH 32 33
ENDBRANCH 5 32
ENDBRANCH 1 5
BRANCH 3 38
ATOM     38  CA  TRP P   5      34.699  -3.680 -28.278  1.00 39.30 LIG 0.18  C 
BRANCH 38 39
ATOM     39  CB  TRP P   5      33.539  -4.388 -29.008  1.00 34.53 LIG 0.07  C 
BRANCH 39 40
ATOM     40  CG  TRP P   5      33.569  -4.348 -30.502  1.00 28.80 LIG-0.03  A 
ATOM     41  CD1 TRP P   5      32.908  -3.470 -31.285  1.00 24.67 LIG 0.10  A 
ATOM     42  NE1 TRP P   5      33.124  -3.748 -32.579  1.00 28.39 LIG-0.36  N 
ATOM     43 HE1  TRP P   5      32.770  -3.327 -33.240  1.00 28.39 LIG 0.17  HD
ATOM     44  CE2 TRP P   5      33.994  -4.805 -32.692  1.00 28.85 LIG 0.04  A 
ATOM     45  CZ2 TRP P   5      34.548  -5.395 -33.808  1.00 29.12 LIG 0.03  A 
ATOM     46  CD2 TRP P   5      34.317  -5.202 -31.386  1.00 31.26 LIG-0.00  A 
ATOM     47  CH2 TRP P   5      35.380  -6.469 -33.613  1.00 31.42 LIG 0.00  A 
ATOM     48  CZ3 TRP P   5      35.661  -6.959 -32.326  1.00 31.13 LIG 0.00  A 
ATOM     49  CE3 TRP P   5      35.140  -6.328 -31.201  1.00 35.06 LIG 0.01  A 
ENDBRANCH 39 40
ENDBRANCH 38 39
BRANCH 38 50
ATOM     50  C   TRP P   5      35.956  -4.510 -28.111  1.00 44.67 LIG 0.24  C 
ATOM     51 O    TRP P   5      37.050  -4.040 -28.349  1.00 47.12 LIG-0.27  OA
ATOM     52  N   GLU P   6      35.788  -5.749 -27.689  1.00 57.45 LIG-0.35  N 
ATOM     53 H    GLU P   6      35.024  -6.144 -27.670  1.00 57.45 LIG 0.16  HD
BRANCH 52 54
ATOM     54  CA  GLU P   6      36.892  -6.569 -27.213  1.00 54.50 LIG 0.18  C 
BRANCH 54 55
ATOM     55  C   GLU P   6      36.979  -7.835 -28.005  1.00 56.45 LIG 0.24  C 
ATOM     56 O    GLU P   6      36.812  -8.954 -27.441  1.00 44.81 LIG-0.27  OA
ATOM     57  N   VAL P   7      37.245  -7.662 -29.302  1.00 47.96 LIG-0.35  N 
ATOM     58 H    VAL P   7      37.177  -6.908 -29.710  1.00 47.96 LIG 0.16  HD
BRANCH 57 59
ATOM     59  CA  VAL P   7      37.679  -8.751 -30.136  1.00 55.51 LIG 0.17  C 
BRANCH 59 60
ATOM     60  CB  VAL P   7      39.118  -9.205 -29.747  1.00 57.72 LIG 0.01  C 
ATOM     61  CG2 VAL P   7      39.936  -8.019 -29.212  1.00 57.86 LIG 0.01  C 
ATOM     62  CG1 VAL P   7      39.830  -9.928 -30.894  1.00 55.94 LIG 0.01  C 
ENDBRANCH 59 60
BRANCH 59 63
ATOM     63  C   VAL P   7      36.606  -9.850 -29.994  1.00 56.50 LIG 0.22  C 
ATOM     64 O    VAL P   7      36.880 -10.944 -29.489  1.00 61.93 LIG-0.29  OA
ENDBRANCH 59 63
ENDBRANCH 57 59
ENDBRANCH 54 55
BRANCH 54 65
ATOM     65  CB  GLU P   6      36.631  -6.986 -25.773  1.00 55.84 LIG 0.04  C 
BRANCH 65 66
ATOM     66  CG  GLU P   6      37.648  -6.442 -24.792  1.00 56.62 LIG 0.12  C 
BRANCH 66 67
ATOM     67  CD  GLU P   6      37.108  -5.272 -23.989  1.00 56.54 LIG 0.17  C 
ATOM     68 OE1  GLU P   6      36.880  -5.441 -22.741  1.00 46.52 LIG-0.65  OA
ATOM     69 OE2  GLU P   6      36.929  -4.202 -24.643  1.00 53.74 LIG-0.65  OA
ENDBRANCH 66 67
ENDBRANCH 65 66
ENDBRANCH 54 65
ENDBRANCH 52 54
ENDBRANCH 38 50
ENDBRANCH 3 38
TORSDOF 23
ENDMDL
MODEL 11
USER: ADFR SOLUTION from run 42
USER: SCORE 20.684440 LL:  -5.883 LR: -17.228 RR:   0.000 FEB: -10.367
USER: RMSD 8.582733
USER: SEED 41
USER: STATUS no improvement in best in 1 clusters for 5 generations
USER: GENES 25
USER: genes 0 Translation |==|  0.35753 0.64433 0.51560
USER: genes 1 Rotation |==|  0.38307 0.08584 0.72221 0.62417
USER: genes 2 Torsion [N]-C--CA-[N] |==|  0.07735
USER: genes 3 Torsion [C]-CA--N-[C] |==|  0.19380
USER: genes 4 Torsion [N]-C--CA-[N] |==|  0.40112
USER: genes 5 Torsion [C]-CA--CB-[CG] |==|  0.77876
USER: genes 6 Torsion [CA]-CB--CG-[CD2] |==|  0.25614
USER: genes 7 Torsion [C]-CA--N-[C] |==|  0.53889
USER: genes 8 Torsion [N]-C--CA-[N] |==|  0.42649
USER: genes 9 Torsion [C]-CA--CB-[CG] |==|  0.54729
USER: genes 10 Torsion [CA]-CB--CG-[OD2] |==|  0.35230
USER: genes 11 Torsion [C]-CA--CB-[CG] |==|  0.31065
USER: genes 12 Torsion [CA]-CB--CG-[ND2] |==|  0.76036
USER: genes 13 Torsion [C]-N--CA-[CB] |==|  0.34847
USER: genes 14 Torsion [N]-CA--CB-[CG] |==|  0.78604
USER: genes 15 Torsion [CA]-CB--CG-[CD1] |==|  0.08017
USER: genes 16 Torsion [N]-CA--C-[N] |==|  0.27471
USER: genes 17 Torsion [C]-N--CA-[C] |==|  0.13904
USER: genes 18 Torsion [N]-CA--C-[N] |==|  0.14614
USER: genes 19 Torsion [C]-N--CA-[CB] |==|  0.16184
USER: genes 20 Torsion [N]-CA--CB-[CG2] |==|  0.52426
USER: genes 21 Torsion [N]-CA--C-[O] |==|  0.97017
USER: genes 22 Torsion [N]-CA--CB-[CG] |==|  0.58921
USER: genes 23 Torsion [CA]-CB--CG-[CD] |==|  0.18569
USER: genes 24 Torsion [CB]-CG--CD-[OE1] |==|  0.39081
ROOT
ATOM      1  C   ASN P   4      30.888   0.935 -31.036  1.00 47.61 LIG 0.24  C 
ATOM      2 O    ASN P   4      30.021   0.199 -31.441  1.00 46.30 LIG-0.27  OA
ATOM      3  N   TRP P   5      31.531   0.667 -29.901  1.00 43.61 LIG-0.35  N 
ATOM      4 H    TRP P   5      32.147   1.146 -29.540  1.00 43.61 LIG 0.16  HD
ENDROOT
BRANCH 1 5
ATOM      5  CA  ASN P   4      31.272   2.176 -31.848  1.00 56.71 LIG 0.18  C 
BRANCH 5 6
ATOM      6  N   ASN P   4      32.667   2.507 -31.612  1.00 58.55 LIG-0.35  N 
ATOM      7  C   TRP P   3      33.630   1.734 -32.074  1.00 51.89 LIG 0.24  C 
ATOM      8 O    TRP P   3      33.437   0.605 -32.530  1.00 53.51 LIG-0.27  OA
ATOM      9 H    ASN P   4      32.795   3.227 -31.159  1.00 58.55 LIG 0.16  HD
BRANCH 7 10
ATOM     10  CA  TRP P   3      35.012   2.245 -31.929  1.00 49.09 LIG 0.18  C 
BRANCH 10 11
ATOM     11  CB  TRP P   3      35.243   2.945 -33.270  1.00 45.21 LIG 0.07  C 
BRANCH 11 12
ATOM     12  CG  TRP P   3      35.614   2.079 -34.541  1.00 38.74 LIG-0.03  A 
ATOM     13  CD1 TRP P   3      36.882   1.756 -35.037  1.00 32.85 LIG 0.10  A 
ATOM     14  NE1 TRP P   3      36.755   1.048 -36.247  1.00 33.71 LIG-0.36  N 
ATOM     15  CE2 TRP P   3      35.425   0.898 -36.535  1.00 32.42 LIG 0.04  A 
ATOM     16 HE1  TRP P   3      37.406   0.756 -36.726  1.00 33.71 LIG 0.17  HD
ATOM     17  CZ2 TRP P   3      34.806   0.319 -37.672  1.00 29.39 LIG 0.03  A 
ATOM     18  CD2 TRP P   3      34.672   1.537 -35.507  1.00 33.85 LIG-0.00  A 
ATOM     19  CH2 TRP P   3      33.447   0.308 -37.678  1.00 25.26 LIG 0.00  A 
ATOM     20  CZ3 TRP P   3      32.676   0.894 -36.679  1.00 33.31 LIG 0.00  A 
ATOM     21  CE3 TRP P   3      33.282   1.552 -35.595  1.00 32.67 LIG 0.01  A 
ENDBRANCH 11 12
ENDBRANCH 10 11
BRANCH 10 22
ATOM     22  N   TRP P   3      36.049   1.170 -31.643  1.00 48.62 LIG-0.34  N 
ATOM     23 H    TRP P   3      35.761   0.372 -31.784  1.00 48.62 LIG 0.16  HD
ATOM     24  C   ASP P   2      37.303   1.430 -31.210  1.00 44.46 LIG 0.26  C 
ATOM     25 O    ASP P   2      37.655   2.591 -30.871  1.00 32.12 LIG-0.27  OA
BRANCH 24 26
ATOM     26  CA  ASP P   2      38.366   0.234 -31.212  1.00 48.39 LIG 0.41  C 
ATOM     27  N   ASP P   2      39.759   0.782 -31.339  1.00 44.52 LIG 0.61  N 
BRANCH 26 28
ATOM     28  CB  ASP P   2      38.281  -0.786 -30.016  1.00 55.68 LIG 0.16  C 
BRANCH 28 29
ATOM     29  CG  ASP P   2      39.608  -1.679 -29.839  1.00 65.31 LIG 0.17  C 
ATOM     30 OD2  ASP P   2      40.200  -1.733 -28.703  1.00 61.23 LIG-0.65  OA
ATOM     31 OD1  ASP P   2      40.068  -2.321 -30.842  1.00 59.39 LIG-0.65  OA
ENDBRANCH 28 29
ENDBRANCH 26 28
ENDBRANCH 24 26
ENDBRANCH 10 22
ENDBRANCH 7 10
ENDBRANCH 5 6
BRANCH 5 32
ATOM     32  CB  ASN P   4      31.021   1.989 -33.369  1.00 62.15 LIG 0.14  C 
BRANCH 32 33
ATOM     33  CG  ASN P   4      29.892   2.870 -33.895  1.00 66.74 LIG 0.22  C 
ATOM     34 OD1  ASN P   4      30.130   3.984 -34.365  1.00 65.57 LIG-0.27  OA
ATOM     35  ND2 ASN P   4      28.659   2.387 -33.797  1.00 62.00 LIG-0.37  N 
ATOM     36 21HD ASN P   4      27.991   2.856 -34.067  1.00 62.00 LIG 0.16  HD
ATOM     37 22HD ASN P   4      28.529   1.605 -33.465  1.00 62.00 LIG 0.16  HD
ENDBRANCH 32 33
ENDBRANCH 5 32
ENDBRANCH 1 5
BRANCH 3 38
ATOM     38  CA  TRP P   5      31.161  -0.545 -29.204  1.00 39.30 LIG 0.18  C 
BRANCH 38 39
ATOM     39  CB  TRP P   5      32.363  -1.469 -28.920  1.00 34.53 LIG 0.07  C 
BRANCH 39 40
ATOM     40  CG  TRP P   5      32.874  -2.271 -30.073  1.00 28.80 LIG-0.03  A 
ATOM     41  CD1 TRP P   5      32.807  -1.921 -31.374  1.00 24.67 LIG 0.10  A 
ATOM     42  NE1 TRP P   5      33.321  -2.891 -32.143  1.00 28.39 LIG-0.36  N 
ATOM     43 HE1  TRP P   5      33.346  -2.878 -33.003  1.00 28.39 LIG 0.17  HD
ATOM     44  CE2 TRP P   5      33.803  -3.908 -31.355  1.00 28.85 LIG 0.04  A 
ATOM     45  CZ2 TRP P   5      34.466  -5.068 -31.695  1.00 29.12 LIG 0.03  A 
ATOM     46  CD2 TRP P   5      33.554  -3.539 -30.026  1.00 31.26 LIG-0.00  A 
ATOM     47  CH2 TRP P   5      34.811  -5.924 -30.679  1.00 31.42 LIG 0.00  A 
ATOM     48  CZ3 TRP P   5      34.501  -5.638 -29.339  1.00 31.13 LIG 0.00  A 
ATOM     49  CE3 TRP P   5      33.878  -4.442 -28.997  1.00 35.06 LIG 0.01  A 
ENDBRANCH 39 40
ENDBRANCH 38 39
BRANCH 38 50
ATOM     50  C   TRP P   5      30.396  -0.089 -27.977  1.00 44.67 LIG 0.24  C 
ATOM     51 O    TRP P   5      30.980   0.298 -26.986  1.00 47.12 LIG-0.27  OA
ATOM     52  N   GLU P   6      29.080  -0.131 -28.059  1.00 57.45 LIG-0.35  N 
ATOM     53 H    GLU P   6      28.655  -0.546 -28.681  1.00 57.45 LIG 0.16  HD
BRANCH 52 54
ATOM     54  CA  GLU P   6      28.215   0.530 -27.092  1.00 54.50 LIG 0.18  C 
BRANCH 54 55
ATOM     55  C   GLU P   6      28.640   1.951 -26.900  1.00 56.45 LIG 0.24  C 
ATOM     56 O    GLU P   6      28.856   2.402 -25.739  1.00 44.81 LIG-0.27  OA
ATOM     57  N   VAL P   7      28.752   2.655 -28.029  1.00 47.96 LIG-0.35  N 
ATOM     58 H    VAL P   7      28.784   2.303 -28.813  1.00 47.96 LIG 0.16  HD
BRANCH 57 59
ATOM     59  CA  VAL P   7      28.830   4.091 -28.020  1.00 55.51 LIG 0.17  C 
BRANCH 59 60
ATOM     60  CB  VAL P   7      30.046   4.572 -27.170  1.00 57.72 LIG 0.01  C 
ATOM     61  CG2 VAL P   7      30.007   6.096 -26.979  1.00 57.86 LIG 0.01  C 
ATOM     62  CG1 VAL P   7      31.382   4.095 -27.746  1.00 55.94 LIG 0.01  C 
ENDBRANCH 59 60
BRANCH 59 63
ATOM     63  C   VAL P   7      28.878   4.525 -29.500  1.00 56.50 LIG 0.22  C 
ATOM     64 O    VAL P   7      29.045   3.694 -30.399  1.00 61.93 LIG-0.29  OA
ENDBRANCH 59 63
ENDBRANCH 57 59
ENDBRANCH 54 55
BRANCH 54 65
ATOM     65  CB  GLU P   6      28.363  -0.145 -25.735  1.00 55.84 LIG 0.04  C 
BRANCH 65 66
ATOM     66  CG  GLU P   6      27.094  -0.127 -24.909  1.00 56.62 LIG 0.12  C 
BRANCH 66 67
ATOM     67  CD  GLU P   6      25.994  -0.977 -25.521  1.00 56.54 LIG 0.17  C 
ATOM     68 OE1  GLU P   6      25.255  -1.672 -24.740  1.00 46.52 LIG-0.65  OA
ATOM     69 OE2  GLU P   6      25.903  -0.921 -26.783  1.00 53.74 LIG-0.65  OA
ENDBRANCH 66 67
ENDBRANCH 65 66
ENDBRANCH 54 65
ENDBRANCH 52 54
ENDBRANCH 38 50
ENDBRANCH 3 38
TORSDOF 23
ENDMDL
MODEL 12
USER: ADFR SOLUTION from run 11
USER: SCORE 19.135119 LL:  -4.606 LR: -17.231 RR:   0.000 FEB: -10.370
USER: RMSD 11.103895
USER: SEED 654871
USER: STATUS no improvement in best in 5 clusters for 5 generations
USER: GENES 25
USER: genes 0 Translation |==|  0.48357 0.48603 0.53392
USER: genes 1 Rotation |==|  0.84466 0.58603 0.15203 0.55218
USER: genes 2 Torsion [N]-C--CA-[N] |==|  0.15279
USER: genes 3 Torsion [C]-CA--N-[C] |==|  0.14229
USER: genes 4 Torsion [N]-C--CA-[N] |==|  0.87361
USER: genes 5 Torsion [C]-CA--CB-[CG] |==|  0.38867
USER: genes 6 Torsion [CA]-CB--CG-[CD2] |==|  0.06050
USER: genes 7 Torsion [C]-CA--N-[C] |==|  0.69425
USER: genes 8 Torsion [N]-C--CA-[N] |==|  0.16727
USER: genes 9 Torsion [C]-CA--CB-[CG] |==|  0.74787
USER: genes 10 Torsion [CA]-CB--CG-[OD2] |==|  0.01735
USER: genes 11 Torsion [C]-CA--CB-[CG] |==|  0.60919
USER: genes 12 Torsion [CA]-CB--CG-[ND2] |==|  0.86135
USER: genes 13 Torsion [C]-N--CA-[CB] |==|  0.46216
USER: genes 14 Torsion [N]-CA--CB-[CG] |==|  0.54435
USER: genes 15 Torsion [CA]-CB--CG-[CD1] |==|  0.57147
USER: genes 16 Torsion [N]-CA--C-[N] |==|  0.82445
USER: genes 17 Torsion [C]-N--CA-[C] |==|  0.52778
USER: genes 18 Torsion [N]-CA--C-[N] |==|  0.26723
USER: genes 19 Torsion [C]-N--CA-[CB] |==|  0.25455
USER: genes 20 Torsion [N]-CA--CB-[CG2] |==|  0.84442
USER: genes 21 Torsion [N]-CA--C-[O] |==|  0.67099
USER: genes 22 Torsion [N]-CA--CB-[CG] |==|  0.60379
USER: genes 23 Torsion [CA]-CB--CG-[CD] |==|  0.76849
USER: genes 24 Torsion [CB]-CG--CD-[OE1] |==|  0.20984
ROOT
ATOM      1  C   ASN P   4      33.535  -2.746 -30.652  1.00 47.61 LIG 0.24  C 
ATOM      2 O    ASN P   4      32.371  -3.038 -30.782  1.00 46.30 LIG-0.27  OA
ATOM      3  N   TRP P   5      33.887  -1.574 -30.126  1.00 43.61 LIG-0.35  N 
ATOM      4 H    TRP P   5      34.690  -1.286 -30.014  1.00 43.61 LIG 0.16  HD
ENDROOT
BRANCH 1 5
ATOM      5  CA  ASN P   4      34.621  -3.742 -31.071  1.00 56.71 LIG 0.18  C 
BRANCH 5 6
ATOM      6  N   ASN P   4      35.502  -4.011 -29.948  1.00 58.55 LIG-0.35  N 
ATOM      7  C   TRP P   3      35.012  -4.363 -28.776  1.00 51.89 LIG 0.24  C 
ATOM      8 O    TRP P   3      33.817  -4.282 -28.486  1.00 53.51 LIG-0.27  OA
ATOM      9 H    ASN P   4      36.341  -3.921 -30.117  1.00 58.55 LIG 0.16  HD
BRANCH 7 10
ATOM     10  CA  TRP P   3      35.994  -4.780 -27.748  1.00 49.09 LIG 0.18  C 
BRANCH 10 11
ATOM     11  CB  TRP P   3      36.575  -3.441 -27.290  1.00 45.21 LIG 0.07  C 
BRANCH 11 12
ATOM     12  CG  TRP P   3      36.868  -3.211 -25.752  1.00 38.74 LIG-0.03  A 
ATOM     13  CD1 TRP P   3      37.092  -2.006 -25.077  1.00 32.85 LIG 0.10  A 
ATOM     14  NE1 TRP P   3      37.412  -2.264 -23.731  1.00 33.71 LIG-0.36  N 
ATOM     15  CE2 TRP P   3      37.390  -3.618 -23.522  1.00 32.42 LIG 0.04  A 
ATOM     16 HE1  TRP P   3      37.593  -1.670 -23.137  1.00 33.71 LIG 0.17  HD
ATOM     17  CZ2 TRP P   3      37.710  -4.357 -22.356  1.00 29.39 LIG 0.03  A 
ATOM     18  CD2 TRP P   3      37.069  -4.253 -24.757  1.00 33.85 LIG-0.00  A 
ATOM     19  CH2 TRP P   3      37.589  -5.708 -22.447  1.00 25.26 LIG 0.00  A 
ATOM     20  CZ3 TRP P   3      37.248  -6.364 -23.626  1.00 33.31 LIG 0.00  A 
ATOM     21  CE3 TRP P   3      37.020  -5.643 -24.811  1.00 32.67 LIG 0.01  A 
ENDBRANCH 11 12
ENDBRANCH 10 11
BRANCH 10 22
ATOM     22  N   TRP P   3      37.060  -5.739 -28.256  1.00 48.62 LIG-0.34  N 
ATOM     23 H    TRP P   3      37.620  -5.372 -28.796  1.00 48.62 LIG 0.16  HD
ATOM     24  C   ASP P   2      37.131  -7.041 -27.901  1.00 44.46 LIG 0.26  C 
ATOM     25 O    ASP P   2      36.219  -7.591 -27.229  1.00 32.12 LIG-0.27  OA
BRANCH 24 26
ATOM     26  CA  ASP P   2      38.451  -7.859 -28.290  1.00 48.39 LIG 0.41  C 
ATOM     27  N   ASP P   2      39.656  -7.230 -27.649  1.00 44.52 LIG 0.61  N 
BRANCH 26 28
ATOM     28  CB  ASP P   2      38.426  -9.409 -28.015  1.00 55.68 LIG 0.16  C 
BRANCH 28 29
ATOM     29  CG  ASP P   2      38.976  -9.810 -26.557  1.00 65.31 LIG 0.17  C 
ATOM     30 OD2  ASP P   2      39.267  -8.896 -25.706  1.00 61.23 LIG-0.65  OA
ATOM     31 OD1  ASP P   2      39.130 -11.043 -26.264  1.00 59.39 LIG-0.65  OA
ENDBRANCH 28 29
ENDBRANCH 26 28
ENDBRANCH 24 26
ENDBRANCH 10 22
ENDBRANCH 7 10
ENDBRANCH 5 6
BRANCH 5 32
ATOM     32  CB  ASN P   4      34.027  -5.072 -31.610  1.00 62.15 LIG 0.14  C 
BRANCH 32 33
ATOM     33  CG  ASN P   4      34.814  -6.298 -31.158  1.00 66.74 LIG 0.22  C 
ATOM     34 OD1  ASN P   4      34.241  -7.256 -30.634  1.00 65.57 LIG-0.27  OA
ATOM     35  ND2 ASN P   4      36.130  -6.265 -31.333  1.00 62.00 LIG-0.37  N 
ATOM     36 21HD ASN P   4      36.615  -6.928 -31.078  1.00 62.00 LIG 0.16  HD
ATOM     37 22HD ASN P   4      36.497  -5.581 -31.702  1.00 62.00 LIG 0.16  HD
ENDBRANCH 32 33
ENDBRANCH 5 32
ENDBRANCH 1 5
BRANCH 3 38
ATOM     38  CA  TRP P   5      32.819  -0.694 -29.703  1.00 39.30 LIG 0.18  C 
BRANCH 38 39
ATOM     39  CB  TRP P   5      33.311   0.469 -28.817  1.00 34.53 LIG 0.07  C 
BRANCH 39 40
ATOM     40  CG  TRP P   5      32.266   1.202 -28.039  1.00 28.80 LIG-0.03  A 
ATOM     41  CD1 TRP P   5      32.345   2.479 -27.612  1.00 24.67 LIG 0.10  A 
ATOM     42  NE1 TRP P   5      31.251   2.802 -26.907  1.00 28.39 LIG-0.36  N 
ATOM     43 HE1  TRP P   5      31.118   3.559 -26.521  1.00 28.39 LIG 0.17  HD
ATOM     44  CE2 TRP P   5      30.374   1.744 -26.893  1.00 28.85 LIG 0.04  A 
ATOM     45  CZ2 TRP P   5      29.110   1.635 -26.353  1.00 29.12 LIG 0.03  A 
ATOM     46  CD2 TRP P   5      30.978   0.711 -27.623  1.00 31.26 LIG-0.00  A 
ATOM     47  CH2 TRP P   5      28.469   0.427 -26.473  1.00 31.42 LIG 0.00  A 
ATOM     48  CZ3 TRP P   5      29.074  -0.666 -27.118  1.00 31.13 LIG 0.00  A 
ATOM     49  CE3 TRP P   5      30.328  -0.534 -27.705  1.00 35.06 LIG 0.01  A 
ENDBRANCH 39 40
ENDBRANCH 38 39
BRANCH 38 50
ATOM     50  C   TRP P   5      32.108  -0.278 -30.975  1.00 44.67 LIG 0.24  C 
ATOM     51 O    TRP P   5      30.945  -0.570 -31.164  1.00 47.12 LIG-0.27  OA
ATOM     52  N   GLU P   6      32.819   0.416 -31.843  1.00 57.45 LIG-0.35  N 
ATOM     53 H    GLU P   6      33.675   0.493 -31.802  1.00 57.45 LIG 0.16  HD
BRANCH 52 54
ATOM     54  CA  GLU P   6      32.214   1.122 -32.962  1.00 54.50 LIG 0.18  C 
BRANCH 54 55
ATOM     55  C   GLU P   6      33.270   1.610 -33.902  1.00 56.45 LIG 0.24  C 
ATOM     56 O    GLU P   6      33.862   2.705 -33.684  1.00 44.81 LIG-0.27  OA
ATOM     57  N   VAL P   7      33.500   0.809 -34.945  1.00 47.96 LIG-0.35  N 
ATOM     58 H    VAL P   7      33.233  -0.008 -34.991  1.00 47.96 LIG 0.16  HD
BRANCH 57 59
ATOM     59  CA  VAL P   7      34.231   1.260 -36.099  1.00 55.51 LIG 0.17  C 
BRANCH 59 60
ATOM     60  CB  VAL P   7      35.751   0.954 -35.944  1.00 57.72 LIG 0.01  C 
ATOM     61  CG2 VAL P   7      36.303   1.579 -34.653  1.00 57.86 LIG 0.01  C 
ATOM     62  CG1 VAL P   7      36.557   1.370 -37.179  1.00 55.94 LIG 0.01  C 
ENDBRANCH 59 60
BRANCH 59 63
ATOM     63  C   VAL P   7      33.566   0.583 -37.315  1.00 56.50 LIG 0.22  C 
ATOM     64 O    VAL P   7      34.204  -0.191 -38.038  1.00 61.93 LIG-0.29  OA
ENDBRANCH 59 63
ENDBRANCH 57 59
ENDBRANCH 54 55
BRANCH 54 65
ATOM     65  CB  GLU P   6      31.493   2.362 -32.451  1.00 55.84 LIG 0.04  C 
BRANCH 65 66
ATOM     66  CG  GLU P   6      30.200   2.655 -33.181  1.00 56.62 LIG 0.12  C 
BRANCH 66 67
ATOM     67  CD  GLU P   6      30.426   3.420 -34.473  1.00 56.54 LIG 0.17  C 
ATOM     68 OE1  GLU P   6      30.885   2.785 -35.485  1.00 46.52 LIG-0.65  OA
ATOM     69 OE2  GLU P   6      30.130   4.651 -34.434  1.00 53.74 LIG-0.65  OA
ENDBRANCH 66 67
ENDBRANCH 65 66
ENDBRANCH 54 65
ENDBRANCH 52 54
ENDBRANCH 38 50
ENDBRANCH 3 38
TORSDOF 23
ENDMDL
MODEL 13
USER: ADFR SOLUTION from run 159
USER: SCORE 19.801022 LL:  -4.669 LR: -17.221 RR:   0.000 FEB: -10.360
USER: RMSD 10.328655
USER: SEED 158
USER: STATUS no improvement in best in 3 clusters for 5 generations
USER: GENES 25
USER: genes 0 Translation |==|  0.48128 0.47491 0.53835
USER: genes 1 Rotation |==|  0.88409 0.61439 0.20206 0.52488
USER: genes 2 Torsion [N]-C--CA-[N] |==|  0.10134
USER: genes 3 Torsion [C]-CA--N-[C] |==|  0.15502
USER: genes 4 Torsion [N]-C--CA-[N] |==|  0.28275
USER: genes 5 Torsion [C]-CA--CB-[CG] |==|  0.31950
USER: genes 6 Torsion [CA]-CB--CG-[CD2] |==|  0.76304
USER: genes 7 Torsion [C]-CA--N-[C] |==|  0.71675
USER: genes 8 Torsion [N]-C--CA-[N] |==|  0.75376
USER: genes 9 Torsion [C]-CA--CB-[CG] |==|  0.09510
USER: genes 10 Torsion [CA]-CB--CG-[OD2] |==|  0.09519
USER: genes 11 Torsion [C]-CA--CB-[CG] |==|  0.25986
USER: genes 12 Torsion [CA]-CB--CG-[ND2] |==|  0.89411
USER: genes 13 Torsion [C]-N--CA-[CB] |==|  0.46081
USER: genes 14 Torsion [N]-CA--CB-[CG] |==|  0.49291
USER: genes 15 Torsion [CA]-CB--CG-[CD1] |==|  0.66170
USER: genes 16 Torsion [N]-CA--C-[N] |==|  0.87447
USER: genes 17 Torsion [C]-N--CA-[C] |==|  0.56111
USER: genes 18 Torsion [N]-CA--C-[N] |==|  0.29265
USER: genes 19 Torsion [C]-N--CA-[CB] |==|  0.54726
USER: genes 20 Torsion [N]-CA--CB-[CG2] |==|  0.48188
USER: genes 21 Torsion [N]-CA--C-[O] |==|  0.37049
USER: genes 22 Torsion [N]-CA--CB-[CG] |==|  0.64916
USER: genes 23 Torsion [CA]-CB--CG-[CD] |==|  0.92512
USER: genes 24 Torsion [CB]-CG--CD-[OE1] |==|  0.73749
ROOT
ATOM      1  C   ASN P   4      33.487  -3.004 -30.559  1.00 47.61 LIG 0.24  C 
ATOM      2 O    ASN P   4      32.384  -3.234 -30.992  1.00 46.30 LIG-0.27  OA
ATOM      3  N   TRP P   5      33.696  -1.972 -29.743  1.00 43.61 LIG-0.35  N 
ATOM      4 H    TRP P   5      34.450  -1.735 -29.405  1.00 43.61 LIG 0.16  HD
ENDROOT
BRANCH 1 5
ATOM      5  CA  ASN P   4      34.655  -3.923 -30.929  1.00 56.71 LIG 0.18  C 
BRANCH 5 6
ATOM      6  N   ASN P   4      35.536  -4.086 -29.785  1.00 58.55 LIG-0.35  N 
ATOM      7  C   TRP P   3      35.069  -4.525 -28.633  1.00 51.89 LIG 0.24  C 
ATOM      8 O    TRP P   3      33.868  -4.619 -28.376  1.00 53.51 LIG-0.27  OA
ATOM      9 H    ASN P   4      36.358  -3.875 -29.929  1.00 58.55 LIG 0.16  HD
BRANCH 7 10
ATOM     10  CA  TRP P   3      36.073  -4.817 -27.583  1.00 49.09 LIG 0.18  C 
BRANCH 10 11
ATOM     11  CB  TRP P   3      35.578  -6.152 -27.022  1.00 45.21 LIG 0.07  C 
BRANCH 11 12
ATOM     12  CG  TRP P   3      36.472  -7.445 -27.199  1.00 38.74 LIG-0.03  A 
ATOM     13  CD1 TRP P   3      37.472  -7.937 -26.354  1.00 32.85 LIG 0.10  A 
ATOM     14  NE1 TRP P   3      38.084  -9.061 -26.940  1.00 33.71 LIG-0.36  N 
ATOM     15  CE2 TRP P   3      37.488  -9.310 -28.148  1.00 32.42 LIG 0.04  A 
ATOM     16 HE1  TRP P   3      38.727  -9.517 -26.597  1.00 33.71 LIG 0.17  HD
ATOM     17  CZ2 TRP P   3      37.803 -10.285 -29.127  1.00 29.39 LIG 0.03  A 
ATOM     18  CD2 TRP P   3      36.484  -8.320 -28.361  1.00 33.85 LIG-0.00  A 
ATOM     19  CH2 TRP P   3      37.021 -10.296 -30.239  1.00 25.26 LIG 0.00  A 
ATOM     20  CZ3 TRP P   3      36.013  -9.367 -30.470  1.00 33.31 LIG 0.00  A 
ATOM     21  CE3 TRP P   3      35.755  -8.339 -29.547  1.00 32.67 LIG 0.01  A 
ENDBRANCH 11 12
ENDBRANCH 10 11
BRANCH 10 22
ATOM     22  N   TRP P   3      36.193  -3.741 -26.516  1.00 48.62 LIG-0.34  N 
ATOM     23 H    TRP P   3      35.562  -3.766 -25.932  1.00 48.62 LIG 0.16  HD
ATOM     24  C   ASP P   2      37.188  -2.827 -26.478  1.00 44.46 LIG 0.26  C 
ATOM     25 O    ASP P   2      38.016  -2.715 -27.421  1.00 32.12 LIG-0.27  OA
BRANCH 24 26
ATOM     26  CA  ASP P   2      37.343  -1.934 -25.159  1.00 48.39 LIG 0.41  C 
ATOM     27  N   ASP P   2      36.501  -0.694 -25.274  1.00 44.52 LIG 0.61  N 
BRANCH 26 28
ATOM     28  CB  ASP P   2      37.080  -2.654 -23.785  1.00 55.68 LIG 0.16  C 
BRANCH 28 29
ATOM     29  CG  ASP P   2      37.541  -4.196 -23.770  1.00 65.31 LIG 0.17  C 
ATOM     30 OD2  ASP P   2      38.574  -4.563 -24.435  1.00 61.23 LIG-0.65  OA
ATOM     31 OD1  ASP P   2      36.862  -5.045 -23.101  1.00 59.39 LIG-0.65  OA
ENDBRANCH 28 29
ENDBRANCH 26 28
ENDBRANCH 24 26
ENDBRANCH 10 22
ENDBRANCH 7 10
ENDBRANCH 5 6
BRANCH 5 32
ATOM     32  CB  ASN P   4      34.178  -5.313 -31.433  1.00 62.15 LIG 0.14  C 
BRANCH 32 33
ATOM     33  CG  ASN P   4      34.047  -5.379 -32.951  1.00 66.74 LIG 0.22  C 
ATOM     34 OD1  ASN P   4      34.388  -6.389 -33.569  1.00 65.57 LIG-0.27  OA
ATOM     35  ND2 ASN P   4      33.577  -4.296 -33.560  1.00 62.00 LIG-0.37  N 
ATOM     36 21HD ASN P   4      33.501  -4.283 -34.417  1.00 62.00 LIG 0.16  HD
ATOM     37 22HD ASN P   4      33.348  -3.608 -33.098  1.00 62.00 LIG 0.16  HD
ENDBRANCH 32 33
ENDBRANCH 5 32
ENDBRANCH 1 5
BRANCH 3 38
ATOM     38  CA  TRP P   5      32.546  -1.169 -29.388  1.00 39.30 LIG 0.18  C 
BRANCH 38 39
ATOM     39  CB  TRP P   5      32.811  -0.231 -28.193  1.00 34.53 LIG 0.07  C 
BRANCH 39 40
ATOM     40  CG  TRP P   5      31.691   0.678 -27.798  1.00 28.80 LIG-0.03  A 
ATOM     41  CD1 TRP P   5      31.744   2.024 -27.746  1.00 24.67 LIG 0.10  A 
ATOM     42  NE1 TRP P   5      30.576   2.518 -27.311  1.00 28.39 LIG-0.36  N 
ATOM     43 HE1  TRP P   5      30.411   3.352 -27.177  1.00 28.39 LIG 0.17  HD
ATOM     44  CE2 TRP P   5      29.681   1.496 -27.109  1.00 28.85 LIG 0.04  A 
ATOM     45  CZ2 TRP P   5      28.356   1.526 -26.729  1.00 29.12 LIG 0.03  A 
ATOM     46  CD2 TRP P   5      30.350   0.306 -27.429  1.00 31.26 LIG-0.00  A 
ATOM     47  CH2 TRP P   5      27.709   0.324 -26.582  1.00 31.42 LIG 0.00  A 
ATOM     48  CZ3 TRP P   5      28.367  -0.898 -26.804  1.00 31.13 LIG 0.00  A 
ATOM     49  CE3 TRP P   5      29.688  -0.920 -27.237  1.00 35.06 LIG 0.01  A 
ENDBRANCH 39 40
ENDBRANCH 38 39
BRANCH 38 50
ATOM     50  C   TRP P   5      32.125  -0.476 -30.669  1.00 44.67 LIG 0.24  C 
ATOM     51 O    TRP P   5      30.957  -0.422 -30.994  1.00 47.12 LIG-0.27  OA
ATOM     52  N   GLU P   6      33.092   0.061 -31.389  1.00 57.45 LIG-0.35  N 
ATOM     53 H    GLU P   6      33.926  -0.103 -31.261  1.00 57.45 LIG 0.16  HD
BRANCH 52 54
ATOM     54  CA  GLU P   6      32.831   0.991 -32.477  1.00 54.50 LIG 0.18  C 
BRANCH 54 55
ATOM     55  C   GLU P   6      33.987   1.020 -33.426  1.00 56.45 LIG 0.24  C 
ATOM     56 O    GLU P   6      35.055   1.619 -33.112  1.00 44.81 LIG-0.27  OA
ATOM     57  N   VAL P   7      33.775   0.384 -34.580  1.00 47.96 LIG-0.35  N 
ATOM     58 H    VAL P   7      33.129  -0.168 -34.713  1.00 47.96 LIG 0.16  HD
BRANCH 57 59
ATOM     59  CA  VAL P   7      34.633   0.579 -35.719  1.00 55.51 LIG 0.17  C 
BRANCH 59 60
ATOM     60  CB  VAL P   7      33.941   0.078 -37.023  1.00 57.72 LIG 0.01  C 
ATOM     61  CG2 VAL P   7      34.785   0.432 -38.257  1.00 57.86 LIG 0.01  C 
ATOM     62  CG1 VAL P   7      32.498   0.579 -37.144  1.00 55.94 LIG 0.01  C 
ENDBRANCH 59 60
BRANCH 59 63
ATOM     63  C   VAL P   7      34.995   2.079 -35.727  1.00 56.50 LIG 0.22  C 
ATOM     64 O    VAL P   7      36.163   2.449 -35.890  1.00 61.93 LIG-0.29  OA
ENDBRANCH 59 63
ENDBRANCH 57 59
ENDBRANCH 54 55
BRANCH 54 65
ATOM     65  CB  GLU P   6      32.702   2.402 -31.920  1.00 55.84 LIG 0.04  C 
BRANCH 65 66
ATOM     66  CG  GLU P   6      31.420   3.098 -32.324  1.00 56.62 LIG 0.12  C 
BRANCH 66 67
ATOM     67  CD  GLU P   6      30.871   2.580 -33.641  1.00 56.54 LIG 0.17  C 
ATOM     68 OE1  GLU P   6      31.177   3.204 -34.717  1.00 46.52 LIG-0.65  OA
ATOM     69 OE2  GLU P   6      30.141   1.549 -33.557  1.00 53.74 LIG-0.65  OA
ENDBRANCH 66 67
ENDBRANCH 65 66
ENDBRANCH 54 65
ENDBRANCH 52 54
ENDBRANCH 38 50
ENDBRANCH 3 38
TORSDOF 23
ENDMDL
MODEL 14
USER: ADFR SOLUTION from run 118
USER: SCORE 20.213307 LL:  -4.304 LR: -17.114 RR:   0.000 FEB: -10.253
USER: RMSD 11.778991
USER: SEED 117
USER: STATUS no improvement in best in 10 clusters for 5 generations
USER: GENES 25
USER: genes 0 Translation |==|  0.48188 0.46252 0.51316
USER: genes 1 Rotation |==|  0.65562 0.55978 0.06220 0.67475
USER: genes 2 Torsion [N]-C--CA-[N] |==|  0.42414
USER: genes 3 Torsion [C]-CA--N-[C] |==|  0.80664
USER: genes 4 Torsion [N]-C--CA-[N] |==|  0.22544
USER: genes 5 Torsion [C]-CA--CB-[CG] |==|  0.53929
USER: genes 6 Torsion [CA]-CB--CG-[CD2] |==|  0.49491
USER: genes 7 Torsion [C]-CA--N-[C] |==|  0.73969
USER: genes 8 Torsion [N]-C--CA-[N] |==|  0.42835
USER: genes 9 Torsion [C]-CA--CB-[CG] |==|  0.63077
USER: genes 10 Torsion [CA]-CB--CG-[OD2] |==|  0.90048
USER: genes 11 Torsion [C]-CA--CB-[CG] |==|  0.53709
USER: genes 12 Torsion [CA]-CB--CG-[ND2] |==|  0.25695
USER: genes 13 Torsion [C]-N--CA-[CB] |==|  0.17450
USER: genes 14 Torsion [N]-CA--CB-[CG] |==|  0.46131
USER: genes 15 Torsion [CA]-CB--CG-[CD1] |==|  0.75692
USER: genes 16 Torsion [N]-CA--C-[N] |==|  0.06111
USER: genes 17 Torsion [C]-N--CA-[C] |==|  0.84619
USER: genes 18 Torsion [N]-CA--C-[N] |==|  0.80723
USER: genes 19 Torsion [C]-N--CA-[CB] |==|  0.85274
USER: genes 20 Torsion [N]-CA--CB-[CG2] |==|  0.77924
USER: genes 21 Torsion [N]-CA--C-[O] |==|  0.14067
USER: genes 22 Torsion [N]-CA--CB-[CG] |==|  0.70429
USER: genes 23 Torsion [CA]-CB--CG-[CD] |==|  0.57034
USER: genes 24 Torsion [CB]-CG--CD-[OE1] |==|  0.33819
ROOT
ATOM      1  C   ASN P   4      33.500  -3.292 -31.088  1.00 47.61 LIG 0.24  C 
ATOM      2 O    ASN P   4      32.763  -3.753 -30.250  1.00 46.30 LIG-0.27  OA
ATOM      3  N   TRP P   5      33.416  -2.009 -31.434  1.00 43.61 LIG-0.35  N 
ATOM      4 H    TRP P   5      33.892  -1.610 -32.030  1.00 43.61 LIG 0.16  HD
ENDROOT
BRANCH 1 5
ATOM      5  CA  ASN P   4      34.560  -4.184 -31.742  1.00 56.71 LIG 0.18  C 
BRANCH 5 6
ATOM      6  N   ASN P   4      34.917  -5.266 -30.841  1.00 58.55 LIG-0.35  N 
ATOM      7  C   TRP P   3      35.595  -5.026 -29.736  1.00 51.89 LIG 0.24  C 
ATOM      8 O    TRP P   3      36.147  -3.951 -29.496  1.00 53.51 LIG-0.27  OA
ATOM      9 H    ASN P   4      34.654  -6.046 -31.091  1.00 58.55 LIG 0.16  HD
BRANCH 7 10
ATOM     10  CA  TRP P   3      35.761  -6.165 -28.803  1.00 49.09 LIG 0.18  C 
BRANCH 10 11
ATOM     11  CB  TRP P   3      36.009  -5.460 -27.468  1.00 45.21 LIG 0.07  C 
BRANCH 11 12
ATOM     12  CG  TRP P   3      36.573  -6.293 -26.247  1.00 38.74 LIG-0.03  A 
ATOM     13  CD1 TRP P   3      36.770  -7.675 -26.150  1.00 32.85 LIG 0.10  A 
ATOM     14  NE1 TRP P   3      37.197  -8.007 -24.851  1.00 33.71 LIG-0.36  N 
ATOM     15  CE2 TRP P   3      37.288  -6.860 -24.108  1.00 32.42 LIG 0.04  A 
ATOM     16 HE1  TRP P   3      37.371  -8.800 -24.569  1.00 33.71 LIG 0.17  HD
ATOM     17  CZ2 TRP P   3      37.608  -6.695 -22.737  1.00 29.39 LIG 0.03  A 
ATOM     18  CD2 TRP P   3      36.896  -5.764 -24.931  1.00 33.85 LIG-0.00  A 
ATOM     19  CH2 TRP P   3      37.626  -5.417 -22.272  1.00 25.26 LIG 0.00  A 
ATOM     20  CZ3 TRP P   3      37.279  -4.319 -23.052  1.00 33.31 LIG 0.00  A 
ATOM     21  CE3 TRP P   3      36.871  -4.483 -24.387  1.00 32.67 LIG 0.01  A 
ENDBRANCH 11 12
ENDBRANCH 10 11
BRANCH 10 22
ATOM     22  N   TRP P   3      36.882  -7.121 -29.179  1.00 48.62 LIG-0.34  N 
ATOM     23 H    TRP P   3      37.651  -6.882 -28.875  1.00 48.62 LIG 0.16  HD
ATOM     24  C   ASP P   2      36.702  -8.239 -29.916  1.00 44.46 LIG 0.26  C 
ATOM     25 O    ASP P   2      35.599  -8.490 -30.473  1.00 32.12 LIG-0.27  OA
BRANCH 24 26
ATOM     26  CA  ASP P   2      37.907  -9.288 -30.005  1.00 48.39 LIG 0.41  C 
ATOM     27  N   ASP P   2      37.373 -10.664 -30.288  1.00 44.52 LIG 0.61  N 
BRANCH 26 28
ATOM     28  CB  ASP P   2      39.077  -8.935 -30.998  1.00 55.68 LIG 0.16  C 
BRANCH 28 29
ATOM     29  CG  ASP P   2      39.511 -10.166 -31.940  1.00 65.31 LIG 0.17  C 
ATOM     30 OD2  ASP P   2      39.495 -11.363 -31.481  1.00 61.23 LIG-0.65  OA
ATOM     31 OD1  ASP P   2      39.881  -9.934 -33.140  1.00 59.39 LIG-0.65  OA
ENDBRANCH 28 29
ENDBRANCH 26 28
ENDBRANCH 24 26
ENDBRANCH 10 22
ENDBRANCH 7 10
ENDBRANCH 5 6
BRANCH 5 32
ATOM     32  CB  ASN P   4      34.087  -4.762 -33.104  1.00 62.15 LIG 0.14  C 
BRANCH 32 33
ATOM     33  CG  ASN P   4      34.979  -5.893 -33.608  1.00 66.74 LIG 0.22  C 
ATOM     34 OD1  ASN P   4      35.967  -5.652 -34.305  1.00 65.57 LIG-0.27  OA
ATOM     35  ND2 ASN P   4      34.623  -7.130 -33.280  1.00 62.00 LIG-0.37  N 
ATOM     36 21HD ASN P   4      35.088  -7.798 -33.556  1.00 62.00 LIG 0.16  HD
ATOM     37 22HD ASN P   4      33.928  -7.261 -32.792  1.00 62.00 LIG 0.16  HD
ENDBRANCH 32 33
ENDBRANCH 5 32
ENDBRANCH 1 5
BRANCH 3 38
ATOM     38  CA  TRP P   5      32.430  -1.203 -30.748  1.00 39.30 LIG 0.18  C 
BRANCH 38 39
ATOM     39  CB  TRP P   5      32.693  -1.090 -29.231  1.00 34.53 LIG 0.07  C 
BRANCH 39 40
ATOM     40  CG  TRP P   5      31.931  -0.033 -28.500  1.00 28.80 LIG-0.03  A 
ATOM     41  CD1 TRP P   5      32.307   1.252 -28.345  1.00 24.67 LIG 0.10  A 
ATOM     42  NE1 TRP P   5      31.410   1.912 -27.598  1.00 28.39 LIG-0.36  N 
ATOM     43 HE1  TRP P   5      31.479   2.735 -27.356  1.00 28.39 LIG 0.17  HD
ATOM     44  CE2 TRP P   5      30.366   1.080 -27.276  1.00 28.85 LIG 0.04  A 
ATOM     45  CZ2 TRP P   5      29.198   1.332 -26.587  1.00 29.12 LIG 0.03  A 
ATOM     46  CD2 TRP P   5      30.652  -0.166 -27.852  1.00 31.26 LIG-0.00  A 
ATOM     47  CH2 TRP P   5      28.335   0.282 -26.393  1.00 31.42 LIG 0.00  A 
ATOM     48  CZ3 TRP P   5      28.624  -1.006 -26.874  1.00 31.13 LIG 0.00  A 
ATOM     49  CE3 TRP P   5      29.778  -1.243 -27.614  1.00 35.06 LIG 0.01  A 
ENDBRANCH 39 40
ENDBRANCH 38 39
BRANCH 38 50
ATOM     50  C   TRP P   5      32.393   0.115 -31.494  1.00 44.67 LIG 0.24  C 
ATOM     51 O    TRP P   5      31.987   1.125 -30.957  1.00 47.12 LIG-0.27  OA
ATOM     52  N   GLU P   6      32.831   0.096 -32.739  1.00 57.45 LIG-0.35  N 
ATOM     53 H    GLU P   6      32.969  -0.628 -33.182  1.00 57.45 LIG 0.16  HD
BRANCH 52 54
ATOM     54  CA  GLU P   6      33.123   1.311 -33.484  1.00 54.50 LIG 0.18  C 
BRANCH 54 55
ATOM     55  C   GLU P   6      31.928   2.211 -33.501  1.00 56.45 LIG 0.24  C 
ATOM     56 O    GLU P   6      31.936   3.296 -32.853  1.00 44.81 LIG-0.27  OA
ATOM     57  N   VAL P   7      30.905   1.761 -34.232  1.00 47.96 LIG-0.35  N 
ATOM     58 H    VAL P   7      30.969   1.127 -34.808  1.00 47.96 LIG 0.16  HD
BRANCH 57 59
ATOM     59  CA  VAL P   7      29.584   2.319 -34.106  1.00 55.51 LIG 0.17  C 
BRANCH 59 60
ATOM     60  CB  VAL P   7      29.121   2.310 -32.618  1.00 57.72 LIG 0.01  C 
ATOM     61  CG2 VAL P   7      28.629   0.913 -32.210  1.00 57.86 LIG 0.01  C 
ATOM     62  CG1 VAL P   7      28.083   3.398 -32.326  1.00 55.94 LIG 0.01  C 
ENDBRANCH 59 60
BRANCH 59 63
ATOM     63  C   VAL P   7      29.652   3.722 -34.743  1.00 56.50 LIG 0.22  C 
ATOM     64 O    VAL P   7      30.126   3.884 -35.873  1.00 61.93 LIG-0.29  OA
ENDBRANCH 59 63
ENDBRANCH 57 59
ENDBRANCH 54 55
BRANCH 54 65
ATOM     65  CB  GLU P   6      33.413   0.961 -34.936  1.00 55.84 LIG 0.04  C 
BRANCH 65 66
ATOM     66  CG  GLU P   6      34.877   1.068 -35.305  1.00 56.62 LIG 0.12  C 
BRANCH 66 67
ATOM     67  CD  GLU P   6      35.083   1.325 -36.787  1.00 56.54 LIG 0.17  C 
ATOM     68 OE1  GLU P   6      35.723   2.376 -37.141  1.00 46.52 LIG-0.65  OA
ATOM     69 OE2  GLU P   6      34.591   0.453 -37.562  1.00 53.74 LIG-0.65  OA
ENDBRANCH 66 67
ENDBRANCH 65 66
ENDBRANCH 54 65
ENDBRANCH 52 54
ENDBRANCH 38 50
ENDBRANCH 3 38
TORSDOF 23
ENDMDL
MODEL 15
USER: ADFR SOLUTION from run 76
USER: SCORE 19.622255 LL:  -4.419 LR: -17.093 RR:   0.000 FEB: -10.232
USER: RMSD 10.650346
USER: SEED 75
USER: STATUS no improvement in best in 6 clusters for 5 generations
USER: GENES 25
USER: genes 0 Translation |==|  0.44895 0.51932 0.54893
USER: genes 1 Rotation |==|  0.95090 0.58904 0.30351 0.51240
USER: genes 2 Torsion [N]-C--CA-[N] |==|  0.06629
USER: genes 3 Torsion [C]-CA--N-[C] |==|  0.61370
USER: genes 4 Torsion [N]-C--CA-[N] |==|  0.37042
USER: genes 5 Torsion [C]-CA--CB-[CG] |==|  0.44545
USER: genes 6 Torsion [CA]-CB--CG-[CD2] |==|  0.10405
USER: genes 7 Torsion [C]-CA--N-[C] |==|  0.79059
USER: genes 8 Torsion [N]-C--CA-[N] |==|  0.26844
USER: genes 9 Torsion [C]-CA--CB-[CG] |==|  0.60736
USER: genes 10 Torsion [CA]-CB--CG-[OD2] |==|  0.68424
USER: genes 11 Torsion [C]-CA--CB-[CG] |==|  0.26801
USER: genes 12 Torsion [CA]-CB--CG-[ND2] |==|  0.85567
USER: genes 13 Torsion [C]-N--CA-[CB] |==|  0.49012
USER: genes 14 Torsion [N]-CA--CB-[CG] |==|  0.60766
USER: genes 15 Torsion [CA]-CB--CG-[CD1] |==|  0.69320
USER: genes 16 Torsion [N]-CA--C-[N] |==|  0.84832
USER: genes 17 Torsion [C]-N--CA-[C] |==|  0.65626
USER: genes 18 Torsion [N]-CA--C-[N] |==|  0.36756
USER: genes 19 Torsion [C]-N--CA-[CB] |==|  0.51034
USER: genes 20 Torsion [N]-CA--CB-[CG2] |==|  0.88260
USER: genes 21 Torsion [N]-CA--C-[O] |==|  0.54866
USER: genes 22 Torsion [N]-CA--CB-[CG] |==|  0.34165
USER: genes 23 Torsion [CA]-CB--CG-[CD] |==|  0.37378
USER: genes 24 Torsion [CB]-CG--CD-[OE1] |==|  0.03874
ROOT
ATOM      1  C   ASN P   4      32.808  -1.972 -30.336  1.00 47.61 LIG 0.24  C 
ATOM      2 O    ASN P   4      32.005  -1.997 -31.237  1.00 46.30 LIG-0.27  OA
ATOM      3  N   TRP P   5      32.748  -1.027 -29.399  1.00 43.61 LIG-0.35  N 
ATOM      4 H    TRP P   5      33.288  -0.932 -28.736  1.00 43.61 LIG 0.16  HD
ENDROOT
BRANCH 1 5
ATOM      5  CA  ASN P   4      33.892  -3.051 -30.253  1.00 56.71 LIG 0.18  C 
BRANCH 5 6
ATOM      6  N   ASN P   4      34.338  -3.197 -28.879  1.00 58.55 LIG-0.35  N 
ATOM      7  C   TRP P   3      35.616  -3.359 -28.598  1.00 51.89 LIG 0.24  C 
ATOM      8 O    TRP P   3      36.472  -3.611 -29.448  1.00 53.51 LIG-0.27  OA
ATOM      9 H    ASN P   4      33.710  -3.168 -28.290  1.00 58.55 LIG 0.16  HD
BRANCH 7 10
ATOM     10  CA  TRP P   3      35.986  -3.326 -27.165  1.00 49.09 LIG 0.18  C 
BRANCH 10 11
ATOM     11  CB  TRP P   3      36.629  -1.944 -27.026  1.00 45.21 LIG 0.07  C 
BRANCH 11 12
ATOM     12  CG  TRP P   3      36.754  -1.290 -25.591  1.00 38.74 LIG-0.03  A 
ATOM     13  CD1 TRP P   3      36.707   0.065 -25.242  1.00 32.85 LIG 0.10  A 
ATOM     14  NE1 TRP P   3      36.959   0.213 -23.865  1.00 33.71 LIG-0.36  N 
ATOM     15  CE2 TRP P   3      37.158  -1.025 -23.316  1.00 32.42 LIG 0.04  A 
ATOM     16 HE1  TRP P   3      36.984   0.959 -23.439  1.00 33.71 LIG 0.17  HD
ATOM     17  CZ2 TRP P   3      37.509  -1.379 -21.988  1.00 29.39 LIG 0.03  A 
ATOM     18  CD2 TRP P   3      37.054  -1.995 -24.355  1.00 33.85 LIG-0.00  A 
ATOM     19  CH2 TRP P   3      37.635  -2.708 -21.732  1.00 25.26 LIG 0.00  A 
ATOM     20  CZ3 TRP P   3      37.510  -3.687 -22.712  1.00 33.31 LIG 0.00  A 
ATOM     21  CE3 TRP P   3      37.254  -3.339 -24.050  1.00 32.67 LIG 0.01  A 
ENDBRANCH 11 12
ENDBRANCH 10 11
BRANCH 10 22
ATOM     22  N   TRP P   3      36.915  -4.450 -26.733  1.00 48.62 LIG-0.34  N 
ATOM     23 H    TRP P   3      37.728  -4.196 -26.617  1.00 48.62 LIG 0.16  HD
ATOM     24  C   ASP P   2      36.514  -5.727 -26.548  1.00 44.46 LIG 0.26  C 
ATOM     25 O    ASP P   2      35.355  -6.107 -26.866  1.00 32.12 LIG-0.27  OA
BRANCH 24 26
ATOM     26  CA  ASP P   2      37.527  -6.742 -25.837  1.00 48.39 LIG 0.41  C 
ATOM     27  N   ASP P   2      37.214  -6.841 -24.370  1.00 44.52 LIG 0.61  N 
BRANCH 26 28
ATOM     28  CB  ASP P   2      37.650  -8.177 -26.473  1.00 55.68 LIG 0.16  C 
BRANCH 28 29
ATOM     29  CG  ASP P   2      37.789  -9.352 -25.382  1.00 65.31 LIG 0.17  C 
ATOM     30 OD2  ASP P   2      38.877 -10.024 -25.299  1.00 61.23 LIG-0.65  OA
ATOM     31 OD1  ASP P   2      36.804  -9.612 -24.614  1.00 59.39 LIG-0.65  OA
ENDBRANCH 28 29
ENDBRANCH 26 28
ENDBRANCH 24 26
ENDBRANCH 10 22
ENDBRANCH 7 10
ENDBRANCH 5 6
BRANCH 5 32
ATOM     32  CB  ASN P   4      33.406  -4.421 -30.801  1.00 62.15 LIG 0.14  C 
BRANCH 32 33
ATOM     33  CG  ASN P   4      33.811  -4.654 -32.253  1.00 66.74 LIG 0.22  C 
ATOM     34 OD1  ASN P   4      34.414  -5.678 -32.581  1.00 65.57 LIG-0.27  OA
ATOM     35  ND2 ASN P   4      33.505  -3.698 -33.123  1.00 62.00 LIG-0.37  N 
ATOM     36 21HD ASN P   4      33.729  -3.781 -33.949  1.00 62.00 LIG 0.16  HD
ATOM     37 22HD ASN P   4      33.083  -2.997 -32.860  1.00 62.00 LIG 0.16  HD
ENDBRANCH 32 33
ENDBRANCH 5 32
ENDBRANCH 1 5
BRANCH 3 38
ATOM     38  CA  TRP P   5      31.673  -0.065 -29.502  1.00 39.30 LIG 0.18  C 
BRANCH 38 39
ATOM     39  CB  TRP P   5      31.641   0.932 -28.323  1.00 34.53 LIG 0.07  C 
BRANCH 39 40
ATOM     40  CG  TRP P   5      30.290   1.312 -27.810  1.00 28.80 LIG-0.03  A 
ATOM     41  CD1 TRP P   5      29.704   2.520 -27.937  1.00 24.67 LIG 0.10  A 
ATOM     42  NE1 TRP P   5      28.513   2.527 -27.322  1.00 28.39 LIG-0.36  N 
ATOM     43 HE1  TRP P   5      27.993   3.209 -27.260  1.00 28.39 LIG 0.17  HD
ATOM     44  CE2 TRP P   5      28.246   1.282 -26.805  1.00 28.85 LIG 0.04  A 
ATOM     45  CZ2 TRP P   5      27.130   0.803 -26.153  1.00 29.12 LIG 0.03  A 
ATOM     46  CD2 TRP P   5      29.349   0.473 -27.114  1.00 31.26 LIG-0.00  A 
ATOM     47  CH2 TRP P   5      27.157  -0.500 -25.720  1.00 31.42 LIG 0.00  A 
ATOM     48  CZ3 TRP P   5      28.278  -1.321 -25.928  1.00 31.13 LIG 0.00  A 
ATOM     49  CE3 TRP P   5      29.380  -0.849 -26.633  1.00 35.06 LIG 0.01  A 
ENDBRANCH 39 40
ENDBRANCH 38 39
BRANCH 38 50
ATOM     50  C   TRP P   5      31.822   0.565 -30.872  1.00 44.67 LIG 0.24  C 
ATOM     51 O    TRP P   5      30.895   0.579 -31.656  1.00 47.12 LIG-0.27  OA
ATOM     52  N   GLU P   6      32.999   1.093 -31.150  1.00 57.45 LIG-0.35  N 
ATOM     53 H    GLU P   6      33.705   0.953 -30.679  1.00 57.45 LIG 0.16  HD
BRANCH 52 54
ATOM     54  CA  GLU P   6      33.212   1.971 -32.290  1.00 54.50 LIG 0.18  C 
BRANCH 54 55
ATOM     55  C   GLU P   6      34.298   1.432 -33.166  1.00 56.45 LIG 0.24  C 
ATOM     56 O    GLU P   6      35.394   1.052 -32.664  1.00 44.81 LIG-0.27  OA
ATOM     57  N   VAL P   7      34.000   1.404 -34.468  1.00 47.96 LIG-0.35  N 
ATOM     58 H    VAL P   7      33.203   1.489 -34.780  1.00 47.96 LIG 0.16  HD
BRANCH 57 59
ATOM     59  CA  VAL P   7      35.015   1.228 -35.472  1.00 55.51 LIG 0.17  C 
BRANCH 59 60
ATOM     60  CB  VAL P   7      34.401   1.329 -36.901  1.00 57.72 LIG 0.01  C 
ATOM     61  CG2 VAL P   7      33.063   0.577 -36.972  1.00 57.86 LIG 0.01  C 
ATOM     62  CG1 VAL P   7      35.379   0.874 -37.988  1.00 55.94 LIG 0.01  C 
ENDBRANCH 59 60
BRANCH 59 63
ATOM     63  C   VAL P   7      36.100   2.282 -35.170  1.00 56.50 LIG 0.22  C 
ATOM     64 O    VAL P   7      36.934   2.598 -36.026  1.00 61.93 LIG-0.29  OA
ENDBRANCH 59 63
ENDBRANCH 57 59
ENDBRANCH 54 55
BRANCH 54 65
ATOM     65  CB  GLU P   6      33.695   3.330 -31.803  1.00 55.84 LIG 0.04  C 
BRANCH 65 66
ATOM     66  CG  GLU P   6      35.022   3.750 -32.398  1.00 56.62 LIG 0.12  C 
BRANCH 66 67
ATOM     67  CD  GLU P   6      35.013   5.193 -32.869  1.00 56.54 LIG 0.17  C 
ATOM     68 OE1  GLU P   6      34.056   5.953 -32.489  1.00 46.52 LIG-0.65  OA
ATOM     69 OE2  GLU P   6      35.981   5.526 -33.616  1.00 53.74 LIG-0.65  OA
ENDBRANCH 66 67
ENDBRANCH 65 66
ENDBRANCH 54 65
ENDBRANCH 52 54
ENDBRANCH 38 50
ENDBRANCH 3 38
TORSDOF 23
ENDMDL
MODEL 16
USER: ADFR SOLUTION from run 98
USER: SCORE 21.081489 LL:  -5.626 LR: -17.068 RR:   0.000 FEB: -10.207
USER: RMSD 6.921908
USER: SEED 97
USER: STATUS no improvement in best in 7 clusters for 5 generations
USER: GENES 25
USER: genes 0 Translation |==|  0.47495 0.47766 0.59252
USER: genes 1 Rotation |==|  0.50043 0.33210 0.87095 0.79018
USER: genes 2 Torsion [N]-C--CA-[N] |==|  0.71815
USER: genes 3 Torsion [C]-CA--N-[C] |==|  0.17452
USER: genes 4 Torsion [N]-C--CA-[N] |==|  0.88873
USER: genes 5 Torsion [C]-CA--CB-[CG] |==|  0.63534
USER: genes 6 Torsion [CA]-CB--CG-[CD2] |==|  0.30283
USER: genes 7 Torsion [C]-CA--N-[C] |==|  0.82909
USER: genes 8 Torsion [N]-C--CA-[N] |==|  0.09633
USER: genes 9 Torsion [C]-CA--CB-[CG] |==|  0.82476
USER: genes 10 Torsion [CA]-CB--CG-[OD2] |==|  0.45019
USER: genes 11 Torsion [C]-CA--CB-[CG] |==|  0.17906
USER: genes 12 Torsion [CA]-CB--CG-[ND2] |==|  0.50060
USER: genes 13 Torsion [C]-N--CA-[CB] |==|  0.81111
USER: genes 14 Torsion [N]-CA--CB-[CG] |==|  0.55688
USER: genes 15 Torsion [CA]-CB--CG-[CD1] |==|  0.30492
USER: genes 16 Torsion [N]-CA--C-[N] |==|  0.19279
USER: genes 17 Torsion [C]-N--CA-[C] |==|  0.70824
USER: genes 18 Torsion [N]-CA--C-[N] |==|  0.97039
USER: genes 19 Torsion [C]-N--CA-[CB] |==|  0.24460
USER: genes 20 Torsion [N]-CA--CB-[CG2] |==|  0.31907
USER: genes 21 Torsion [N]-CA--C-[O] |==|  0.03174
USER: genes 22 Torsion [N]-CA--CB-[CG] |==|  0.16877
USER: genes 23 Torsion [CA]-CB--CG-[CD] |==|  0.60382
USER: genes 24 Torsion [CB]-CG--CD-[OE1] |==|  0.40889
ROOT
ATOM      1  C   ASN P   4      33.354  -2.940 -29.421  1.00 47.61 LIG 0.24  C 
ATOM      2 O    ASN P   4      32.990  -3.401 -28.367  1.00 46.30 LIG-0.27  OA
ATOM      3  N   TRP P   5      34.651  -2.817 -29.697  1.00 43.61 LIG-0.35  N 
ATOM      4 H    TRP P   5      34.990  -2.487 -30.416  1.00 43.61 LIG 0.16  HD
ENDROOT
BRANCH 1 5
ATOM      5  CA  ASN P   4      32.316  -2.517 -30.465  1.00 56.71 LIG 0.18  C 
BRANCH 5 6
ATOM      6  N   ASN P   4      31.774  -1.215 -30.121  1.00 58.55 LIG-0.35  N 
ATOM      7  C   TRP P   3      32.550  -0.150 -30.082  1.00 51.89 LIG 0.24  C 
ATOM      8 O    TRP P   3      33.781  -0.204 -30.115  1.00 53.51 LIG-0.27  OA
ATOM      9 H    ASN P   4      30.930  -1.208 -29.951  1.00 58.55 LIG 0.16  HD
BRANCH 7 10
ATOM     10  CA  TRP P   3      31.874   1.154 -29.889  1.00 49.09 LIG 0.18  C 
BRANCH 10 11
ATOM     11  CB  TRP P   3      31.671   1.195 -28.373  1.00 45.21 LIG 0.07  C 
BRANCH 11 12
ATOM     12  CG  TRP P   3      30.248   1.569 -27.793  1.00 38.74 LIG-0.03  A 
ATOM     13  CD1 TRP P   3      29.644   2.829 -27.705  1.00 32.85 LIG 0.10  A 
ATOM     14  NE1 TRP P   3      28.414   2.723 -27.030  1.00 33.71 LIG-0.36  N 
ATOM     15  CE2 TRP P   3      28.206   1.413 -26.689  1.00 32.42 LIG 0.04  A 
ATOM     16 HE1  TRP P   3      27.879   3.375 -26.860  1.00 33.71 LIG 0.17  HD
ATOM     17  CZ2 TRP P   3      27.150   0.829 -25.945  1.00 29.39 LIG 0.03  A 
ATOM     18  CD2 TRP P   3      29.330   0.655 -27.131  1.00 33.85 LIG-0.00  A 
ATOM     19  CH2 TRP P   3      27.211  -0.517 -25.768  1.00 25.26 LIG 0.00  A 
ATOM     20  CZ3 TRP P   3      28.275  -1.296 -26.210  1.00 33.31 LIG 0.00  A 
ATOM     21  CE3 TRP P   3      29.371  -0.711 -26.868  1.00 32.67 LIG 0.01  A 
ENDBRANCH 11 12
ENDBRANCH 10 11
BRANCH 10 22
ATOM     22  N   TRP P   3      30.570   1.301 -30.658  1.00 48.62 LIG-0.34  N 
ATOM     23 H    TRP P   3      29.885   1.420 -30.151  1.00 48.62 LIG 0.16  HD
ATOM     24  C   ASP P   2      30.483   1.251 -32.006  1.00 44.46 LIG 0.26  C 
ATOM     25 O    ASP P   2      31.471   0.929 -32.719  1.00 32.12 LIG-0.27  OA
BRANCH 24 26
ATOM     26  CA  ASP P   2      29.104   1.689 -32.690  1.00 48.39 LIG 0.41  C 
ATOM     27  N   ASP P   2      28.472   2.806 -31.910  1.00 44.52 LIG 0.61  N 
BRANCH 26 28
ATOM     28  CB  ASP P   2      29.161   2.049 -34.222  1.00 55.68 LIG 0.16  C 
BRANCH 28 29
ATOM     29  CG  ASP P   2      30.088   3.324 -34.546  1.00 65.31 LIG 0.17  C 
ATOM     30 OD2  ASP P   2      30.505   3.527 -35.742  1.00 61.23 LIG-0.65  OA
ATOM     31 OD1  ASP P   2      30.411   4.120 -33.602  1.00 59.39 LIG-0.65  OA
ENDBRANCH 28 29
ENDBRANCH 26 28
ENDBRANCH 24 26
ENDBRANCH 10 22
ENDBRANCH 7 10
ENDBRANCH 5 6
BRANCH 5 32
ATOM     32  CB  ASN P   4      32.903  -2.484 -31.903  1.00 62.15 LIG 0.14  C 
BRANCH 32 33
ATOM     33  CG  ASN P   4      33.334  -3.860 -32.398  1.00 66.74 LIG 0.22  C 
ATOM     34 OD1  ASN P   4      33.219  -4.853 -31.676  1.00 65.57 LIG-0.27  OA
ATOM     35  ND2 ASN P   4      33.852  -3.924 -33.619  1.00 62.00 LIG-0.37  N 
ATOM     36 21HD ASN P   4      34.124  -4.678 -33.932  1.00 62.00 LIG 0.16  HD
ATOM     37 22HD ASN P   4      33.917  -3.212 -34.096  1.00 62.00 LIG 0.16  HD
ENDBRANCH 32 33
ENDBRANCH 5 32
ENDBRANCH 1 5
BRANCH 3 38
ATOM     38  CA  TRP P   5      35.585  -3.280 -28.694  1.00 39.30 LIG 0.18  C 
BRANCH 38 39
ATOM     39  CB  TRP P   5      35.572  -2.419 -27.413  1.00 34.53 LIG 0.07  C 
BRANCH 39 40
ATOM     40  CG  TRP P   5      36.782  -2.505 -26.540  1.00 28.80 LIG-0.03  A 
ATOM     41  CD1 TRP P   5      37.700  -1.534 -26.360  1.00 24.67 LIG 0.10  A 
ATOM     42  NE1 TRP P   5      38.676  -1.962 -25.546  1.00 28.39 LIG-0.36  N 
ATOM     43 HE1  TRP P   5      39.373  -1.507 -25.328  1.00 28.39 LIG 0.17  HD
ATOM     44  CE2 TRP P   5      38.399  -3.236 -25.113  1.00 28.85 LIG 0.04  A 
ATOM     45  CZ2 TRP P   5      39.074  -4.048 -24.227  1.00 29.12 LIG 0.03  A 
ATOM     46  CD2 TRP P   5      37.186  -3.610 -25.710  1.00 31.26 LIG-0.00  A 
ATOM     47  CH2 TRP P   5      38.567  -5.304 -24.001  1.00 31.42 LIG 0.00  A 
ATOM     48  CZ3 TRP P   5      37.403  -5.754 -24.648  1.00 31.13 LIG 0.00  A 
ATOM     49  CE3 TRP P   5      36.697  -4.912 -25.501  1.00 35.06 LIG 0.01  A 
ENDBRANCH 39 40
ENDBRANCH 38 39
BRANCH 38 50
ATOM     50  C   TRP P   5      35.263  -4.746 -28.487  1.00 44.67 LIG 0.24  C 
ATOM     51 O    TRP P   5      34.757  -5.134 -27.454  1.00 47.12 LIG-0.27  OA
ATOM     52  N   GLU P   6      35.556  -5.557 -29.486  1.00 57.45 LIG-0.35  N 
ATOM     53 H    GLU P   6      36.054  -5.332 -30.150  1.00 57.45 LIG 0.16  HD
BRANCH 52 54
ATOM     54  CA  GLU P   6      35.057  -6.922 -29.556  1.00 54.50 LIG 0.18  C 
BRANCH 54 55
ATOM     55  C   GLU P   6      36.146  -7.892 -29.224  1.00 56.45 LIG 0.24  C 
ATOM     56 O    GLU P   6      35.876  -9.111 -29.025  1.00 44.81 LIG-0.27  OA
ATOM     57  N   VAL P   7      37.367  -7.356 -29.158  1.00 47.96 LIG-0.35  N 
ATOM     58 H    VAL P   7      37.568  -6.580 -29.468  1.00 47.96 LIG 0.16  HD
BRANCH 57 59
ATOM     59  CA  VAL P   7      38.466  -8.054 -28.545  1.00 55.51 LIG 0.17  C 
BRANCH 59 60
ATOM     60  CB  VAL P   7      39.192  -8.960 -29.584  1.00 57.72 LIG 0.01  C 
ATOM     61  CG2 VAL P   7      40.628  -8.470 -29.825  1.00 57.86 LIG 0.01  C 
ATOM     62  CG1 VAL P   7      38.401  -9.097 -30.889  1.00 55.94 LIG 0.01  C 
ENDBRANCH 59 60
BRANCH 59 63
ATOM     63  C   VAL P   7      39.361  -6.967 -27.914  1.00 56.50 LIG 0.22  C 
ATOM     64 O    VAL P   7      38.968  -5.800 -27.814  1.00 61.93 LIG-0.29  OA
ENDBRANCH 59 63
ENDBRANCH 57 59
ENDBRANCH 54 55
BRANCH 54 65
ATOM     65  CB  GLU P   6      34.630  -7.234 -30.984  1.00 55.84 LIG 0.04  C 
BRANCH 65 66
ATOM     66  CG  GLU P   6      35.757  -7.129 -31.989  1.00 56.62 LIG 0.12  C 
BRANCH 66 67
ATOM     67  CD  GLU P   6      35.296  -6.550 -33.315  1.00 56.54 LIG 0.17  C 
ATOM     68 OE1  GLU P   6      36.118  -5.833 -33.986  1.00 46.52 LIG-0.65  OA
ATOM     69 OE2  GLU P   6      34.109  -6.836 -33.649  1.00 53.74 LIG-0.65  OA
ENDBRANCH 66 67
ENDBRANCH 65 66
ENDBRANCH 54 65
ENDBRANCH 52 54
ENDBRANCH 38 50
ENDBRANCH 3 38
TORSDOF 23
ENDMDL
MODEL 17
USER: ADFR SOLUTION from run 63
USER: SCORE 18.592098 LL:  -4.257 LR: -17.052 RR:   0.000 FEB: -10.191
USER: RMSD 10.341466
USER: SEED 62
USER: STATUS no improvement in best in 3 clusters for 5 generations
USER: GENES 25
USER: genes 0 Translation |==|  0.50178 0.62032 0.62970
USER: genes 1 Rotation |==|  0.18261 0.21836 0.33046 0.70297
USER: genes 2 Torsion [N]-C--CA-[N] |==|  0.00653
USER: genes 3 Torsion [C]-CA--N-[C] |==|  0.21272
USER: genes 4 Torsion [N]-C--CA-[N] |==|  0.55469
USER: genes 5 Torsion [C]-CA--CB-[CG] |==|  0.43960
USER: genes 6 Torsion [CA]-CB--CG-[CD2] |==|  0.60552
USER: genes 7 Torsion [C]-CA--N-[C] |==|  0.69241
USER: genes 8 Torsion [N]-C--CA-[N] |==|  0.28959
USER: genes 9 Torsion [C]-CA--CB-[CG] |==|  0.18600
USER: genes 10 Torsion [CA]-CB--CG-[OD2] |==|  0.68433
USER: genes 11 Torsion [C]-CA--CB-[CG] |==|  0.00533
USER: genes 12 Torsion [CA]-CB--CG-[ND2] |==|  0.32079
USER: genes 13 Torsion [C]-N--CA-[CB] |==|  0.86650
USER: genes 14 Torsion [N]-CA--CB-[CG] |==|  0.61968
USER: genes 15 Torsion [CA]-CB--CG-[CD1] |==|  0.61829
USER: genes 16 Torsion [N]-CA--C-[N] |==|  0.70110
USER: genes 17 Torsion [C]-N--CA-[C] |==|  0.66642
USER: genes 18 Torsion [N]-CA--C-[N] |==|  0.34941
USER: genes 19 Torsion [C]-N--CA-[CB] |==|  0.24536
USER: genes 20 Torsion [N]-CA--CB-[CG2] |==|  0.74305
USER: genes 21 Torsion [N]-CA--C-[O] |==|  0.09699
USER: genes 22 Torsion [N]-CA--CB-[CG] |==|  0.52494
USER: genes 23 Torsion [CA]-CB--CG-[CD] |==|  0.69856
USER: genes 24 Torsion [CB]-CG--CD-[OE1] |==|  0.38945
ROOT
ATOM      1  C   ASN P   4      33.917   0.377 -28.640  1.00 47.61 LIG 0.24  C 
ATOM      2 O    ASN P   4      33.741   1.508 -29.022  1.00 46.30 LIG-0.27  OA
ATOM      3  N   TRP P   5      32.897  -0.474 -28.542  1.00 43.61 LIG-0.35  N 
ATOM      4 H    TRP P   5      32.937  -1.288 -28.267  1.00 43.61 LIG 0.16  HD
ENDROOT
BRANCH 1 5
ATOM      5  CA  ASN P   4      35.332  -0.097 -28.290  1.00 56.71 LIG 0.18  C 
BRANCH 5 6
ATOM      6  N   ASN P   4      35.307  -1.505 -27.937  1.00 58.55 LIG-0.35  N 
ATOM      7  C   TRP P   3      35.208  -2.431 -28.870  1.00 51.89 LIG 0.24  C 
ATOM      8 O    TRP P   3      34.919  -2.188 -30.043  1.00 53.51 LIG-0.27  OA
ATOM      9 H    ASN P   4      35.361  -1.668 -27.094  1.00 58.55 LIG 0.16  HD
BRANCH 7 10
ATOM     10  CA  TRP P   3      35.363  -3.836 -28.425  1.00 49.09 LIG 0.18  C 
BRANCH 10 11
ATOM     11  CB  TRP P   3      36.469  -3.724 -27.373  1.00 45.21 LIG 0.07  C 
BRANCH 11 12
ATOM     12  CG  TRP P   3      36.610  -4.856 -26.277  1.00 38.74 LIG-0.03  A 
ATOM     13  CD1 TRP P   3      36.338  -6.224 -26.394  1.00 32.85 LIG 0.10  A 
ATOM     14  NE1 TRP P   3      36.506  -6.853 -25.147  1.00 33.71 LIG-0.36  N 
ATOM     15  CE2 TRP P   3      36.892  -5.916 -24.226  1.00 32.42 LIG 0.04  A 
ATOM     16 HE1  TRP P   3      36.386  -7.690 -24.989  1.00 33.71 LIG 0.17  HD
ATOM     17  CZ2 TRP P   3      37.113  -6.056 -22.833  1.00 29.39 LIG 0.03  A 
ATOM     18  CD2 TRP P   3      36.958  -4.651 -24.880  1.00 33.85 LIG-0.00  A 
ATOM     19  CH2 TRP P   3      37.500  -4.935 -22.169  1.00 25.26 LIG 0.00  A 
ATOM     20  CZ3 TRP P   3      37.606  -3.688 -22.776  1.00 33.31 LIG 0.00  A 
ATOM     21  CE3 TRP P   3      37.298  -3.523 -24.138  1.00 32.67 LIG 0.01  A 
ENDBRANCH 11 12
ENDBRANCH 10 11
BRANCH 10 22
ATOM     22  N   TRP P   3      35.711  -4.810 -29.540  1.00 48.62 LIG-0.34  N 
ATOM     23 H    TRP P   3      36.505  -4.700 -29.853  1.00 48.62 LIG 0.16  HD
ATOM     24  C   ASP P   2      34.866  -5.757 -30.001  1.00 44.46 LIG 0.26  C 
ATOM     25 O    ASP P   2      33.662  -5.803 -29.632  1.00 32.12 LIG-0.27  OA
BRANCH 24 26
ATOM     26  CA  ASP P   2      35.452  -6.881 -30.979  1.00 48.39 LIG 0.41  C 
ATOM     27  N   ASP P   2      35.619  -8.176 -30.235  1.00 44.52 LIG 0.61  N 
BRANCH 26 28
ATOM     28  CB  ASP P   2      34.675  -7.115 -32.328  1.00 55.68 LIG 0.16  C 
BRANCH 28 29
ATOM     29  CG  ASP P   2      34.756  -5.866 -33.340  1.00 65.31 LIG 0.17  C 
ATOM     30 OD2  ASP P   2      33.698  -5.199 -33.622  1.00 61.23 LIG-0.65  OA
ATOM     31 OD1  ASP P   2      35.878  -5.558 -33.865  1.00 59.39 LIG-0.65  OA
ENDBRANCH 28 29
ENDBRANCH 26 28
ENDBRANCH 24 26
ENDBRANCH 10 22
ENDBRANCH 7 10
ENDBRANCH 5 6
BRANCH 5 32
ATOM     32  CB  ASN P   4      36.340   0.143 -29.447  1.00 62.15 LIG 0.14  C 
BRANCH 32 33
ATOM     33  CG  ASN P   4      35.706   0.836 -30.649  1.00 66.74 LIG 0.22  C 
ATOM     34 OD1  ASN P   4      34.835   0.271 -31.313  1.00 65.57 LIG-0.27  OA
ATOM     35  ND2 ASN P   4      36.156   2.049 -30.949  1.00 62.00 LIG-0.37  N 
ATOM     36 21HD ASN P   4      35.839   2.470 -31.629  1.00 62.00 LIG 0.16  HD
ATOM     37 22HD ASN P   4      36.765   2.413 -30.464  1.00 62.00 LIG 0.16  HD
ENDBRANCH 32 33
ENDBRANCH 5 32
ENDBRANCH 1 5
BRANCH 3 38
ATOM     38  CA  TRP P   5      31.593   0.013 -28.935  1.00 39.30 LIG 0.18  C 
BRANCH 38 39
ATOM     39  CB  TRP P   5      31.251   1.387 -28.320  1.00 34.53 LIG 0.07  C 
BRANCH 39 40
ATOM     40  CG  TRP P   5      29.865   1.551 -27.785  1.00 28.80 LIG-0.03  A 
ATOM     41  CD1 TRP P   5      29.075   2.632 -27.947  1.00 24.67 LIG 0.10  A 
ATOM     42  NE1 TRP P   5      27.914   2.460 -27.300  1.00 28.39 LIG-0.36  N 
ATOM     43 HE1  TRP P   5      27.284   3.045 -27.252  1.00 28.39 LIG 0.17  HD
ATOM     44  CE2 TRP P   5      27.879   1.214 -26.724  1.00 28.85 LIG 0.04  A 
ATOM     45  CZ2 TRP P   5      26.876   0.579 -26.021  1.00 29.12 LIG 0.03  A 
ATOM     46  CD2 TRP P   5      29.099   0.595 -27.029  1.00 31.26 LIG-0.00  A 
ATOM     47  CH2 TRP P   5      27.138  -0.678 -25.535  1.00 31.42 LIG 0.00  A 
ATOM     48  CZ3 TRP P   5      28.381  -1.301 -25.739  1.00 31.13 LIG 0.00  A 
ATOM     49  CE3 TRP P   5      29.370  -0.678 -26.493  1.00 35.06 LIG 0.01  A 
ENDBRANCH 39 40
ENDBRANCH 38 39
BRANCH 38 50
ATOM     50  C   TRP P   5      31.582  -0.034 -30.449  1.00 44.67 LIG 0.24  C 
ATOM     51 O    TRP P   5      31.508  -1.092 -31.040  1.00 47.12 LIG-0.27  OA
ATOM     52  N   GLU P   6      31.647   1.128 -31.072  1.00 57.45 LIG-0.35  N 
ATOM     53 H    GLU P   6      31.858   1.864 -30.682  1.00 57.45 LIG 0.16  HD
BRANCH 52 54
ATOM     54  CA  GLU P   6      31.364   1.270 -32.493  1.00 54.50 LIG 0.18  C 
BRANCH 54 55
ATOM     55  C   GLU P   6      32.560   1.809 -33.210  1.00 56.45 LIG 0.24  C 
ATOM     56 O    GLU P   6      33.101   2.886 -32.830  1.00 44.81 LIG-0.27  OA
ATOM     57  N   VAL P   7      32.967   1.070 -34.246  1.00 47.96 LIG-0.35  N 
ATOM     58 H    VAL P   7      32.716   0.260 -34.385  1.00 47.96 LIG 0.16  HD
BRANCH 57 59
ATOM     59  CA  VAL P   7      33.879   1.587 -35.231  1.00 55.51 LIG 0.17  C 
BRANCH 59 60
ATOM     60  CB  VAL P   7      35.356   1.338 -34.800  1.00 57.72 LIG 0.01  C 
ATOM     61  CG2 VAL P   7      35.907   2.545 -34.024  1.00 57.86 LIG 0.01  C 
ATOM     62  CG1 VAL P   7      36.250   0.954 -35.983  1.00 55.94 LIG 0.01  C 
ENDBRANCH 59 60
BRANCH 59 63
ATOM     63  C   VAL P   7      33.485   0.922 -36.566  1.00 56.50 LIG 0.22  C 
ATOM     64 O    VAL P   7      32.303   0.672 -36.827  1.00 61.93 LIG-0.29  OA
ENDBRANCH 59 63
ENDBRANCH 57 59
ENDBRANCH 54 55
BRANCH 54 65
ATOM     65  CB  GLU P   6      30.254   2.292 -32.689  1.00 55.84 LIG 0.04  C 
BRANCH 65 66
ATOM     66  CG  GLU P   6      29.735   2.357 -34.110  1.00 56.62 LIG 0.12  C 
BRANCH 66 67
ATOM     67  CD  GLU P   6      30.157   3.631 -34.822  1.00 56.54 LIG 0.17  C 
ATOM     68 OE1  GLU P   6      30.505   3.556 -36.052  1.00 46.52 LIG-0.65  OA
ATOM     69 OE2  GLU P   6      30.125   4.682 -34.117  1.00 53.74 LIG-0.65  OA
ENDBRANCH 66 67
ENDBRANCH 65 66
ENDBRANCH 54 65
ENDBRANCH 52 54
ENDBRANCH 38 50
ENDBRANCH 3 38
TORSDOF 23
ENDMDL
MODEL 18
USER: ADFR SOLUTION from run 139
USER: SCORE 20.319430 LL:  -5.000 LR: -17.029 RR:   0.000 FEB: -10.168
USER: RMSD 5.528431
USER: SEED 138
USER: STATUS no improvement in best in 3 clusters for 5 generations
USER: GENES 25
USER: genes 0 Translation |==|  0.53467 0.55551 0.61978
USER: genes 1 Rotation |==|  0.42742 0.27069 0.63500 0.91704
USER: genes 2 Torsion [N]-C--CA-[N] |==|  0.42755
USER: genes 3 Torsion [C]-CA--N-[C] |==|  0.78009
USER: genes 4 Torsion [N]-C--CA-[N] |==|  0.40528
USER: genes 5 Torsion [C]-CA--CB-[CG] |==|  0.42445
USER: genes 6 Torsion [CA]-CB--CG-[CD2] |==|  0.53873
USER: genes 7 Torsion [C]-CA--N-[C] |==|  0.58488
USER: genes 8 Torsion [N]-C--CA-[N] |==|  0.47207
USER: genes 9 Torsion [C]-CA--CB-[CG] |==|  0.74643
USER: genes 10 Torsion [CA]-CB--CG-[OD2] |==|  0.57729
USER: genes 11 Torsion [C]-CA--CB-[CG] |==|  0.86846
USER: genes 12 Torsion [CA]-CB--CG-[ND2] |==|  0.92134
USER: genes 13 Torsion [C]-N--CA-[CB] |==|  0.22939
USER: genes 14 Torsion [N]-CA--CB-[CG] |==|  0.06610
USER: genes 15 Torsion [CA]-CB--CG-[CD1] |==|  0.76760
USER: genes 16 Torsion [N]-CA--C-[N] |==|  0.47720
USER: genes 17 Torsion [C]-N--CA-[C] |==|  0.76974
USER: genes 18 Torsion [N]-CA--C-[N] |==|  0.82689
USER: genes 19 Torsion [C]-N--CA-[CB] |==|  0.25666
USER: genes 20 Torsion [N]-CA--CB-[CG2] |==|  0.94050
USER: genes 21 Torsion [N]-CA--C-[O] |==|  0.09778
USER: genes 22 Torsion [N]-CA--CB-[CG] |==|  0.82699
USER: genes 23 Torsion [CA]-CB--CG-[CD] |==|  0.59763
USER: genes 24 Torsion [CB]-CG--CD-[OE1] |==|  0.02435
ROOT
ATOM      1  C   ASN P   4      34.608  -1.130 -28.849  1.00 47.61 LIG 0.24  C 
ATOM      2 O    ASN P   4      33.717  -1.191 -28.037  1.00 46.30 LIG-0.27  OA
ATOM      3  N   TRP P   5      35.396  -2.180 -29.073  1.00 43.61 LIG-0.35  N 
ATOM      4 H    TRP P   5      36.058  -2.213 -29.621  1.00 43.61 LIG 0.16  HD
ENDROOT
BRANCH 1 5
ATOM      5  CA  ASN P   4      34.821   0.159 -29.649  1.00 56.71 LIG 0.18  C 
BRANCH 5 6
ATOM      6  N   ASN P   4      33.577   0.903 -29.725  1.00 58.55 LIG-0.35  N 
ATOM      7  C   TRP P   3      32.638   0.559 -30.584  1.00 51.89 LIG 0.24  C 
ATOM      8 O    TRP P   3      32.815  -0.245 -31.502  1.00 53.51 LIG-0.27  OA
ATOM      9 H    ASN P   4      33.516   1.563 -29.177  1.00 58.55 LIG 0.16  HD
BRANCH 7 10
ATOM     10  CA  TRP P   3      31.343   1.270 -30.467  1.00 49.09 LIG 0.18  C 
BRANCH 10 11
ATOM     11  CB  TRP P   3      30.552   0.354 -29.530  1.00 45.21 LIG 0.07  C 
BRANCH 11 12
ATOM     12  CG  TRP P   3      29.413   0.974 -28.624  1.00 38.74 LIG-0.03  A 
ATOM     13  CD1 TRP P   3      28.881   2.268 -28.654  1.00 32.85 LIG 0.10  A 
ATOM     14  NE1 TRP P   3      27.954   2.428 -27.607  1.00 33.71 LIG-0.36  N 
ATOM     15  CE2 TRP P   3      27.870   1.254 -26.906  1.00 32.42 LIG 0.04  A 
ATOM     16 HE1  TRP P   3      27.512   3.145 -27.435  1.00 33.71 LIG 0.17  HD
ATOM     17  CZ2 TRP P   3      27.129   0.951 -25.737  1.00 29.39 LIG 0.03  A 
ATOM     18  CD2 TRP P   3      28.772   0.320 -27.494  1.00 33.85 LIG-0.00  A 
ATOM     19  CH2 TRP P   3      27.241  -0.319 -25.265  1.00 25.26 LIG 0.00  A 
ATOM     20  CZ3 TRP P   3      28.087  -1.269 -25.827  1.00 33.31 LIG 0.00  A 
ATOM     21  CE3 TRP P   3      28.895  -0.948 -26.932  1.00 32.67 LIG 0.01  A 
ENDBRANCH 11 12
ENDBRANCH 10 11
BRANCH 10 22
ATOM     22  N   TRP P   3      30.637   1.504 -31.793  1.00 48.62 LIG-0.34  N 
ATOM     23 H    TRP P   3      30.798   0.894 -32.378  1.00 48.62 LIG 0.16  HD
ATOM     24  C   ASP P   2      29.833   2.561 -32.040  1.00 44.46 LIG 0.26  C 
ATOM     25 O    ASP P   2      29.730   3.515 -31.224  1.00 32.12 LIG-0.27  OA
BRANCH 24 26
ATOM     26  CA  ASP P   2      28.945   2.540 -33.372  1.00 48.39 LIG 0.41  C 
ATOM     27  N   ASP P   2      27.951   3.667 -33.347  1.00 44.52 LIG 0.61  N 
BRANCH 26 28
ATOM     28  CB  ASP P   2      29.725   2.522 -34.739  1.00 55.68 LIG 0.16  C 
BRANCH 28 29
ATOM     29  CG  ASP P   2      30.011   3.990 -35.333  1.00 65.31 LIG 0.17  C 
ATOM     30 OD2  ASP P   2      30.130   4.159 -36.599  1.00 61.23 LIG-0.65  OA
ATOM     31 OD1  ASP P   2      30.130   4.977 -34.532  1.00 59.39 LIG-0.65  OA
ENDBRANCH 28 29
ENDBRANCH 26 28
ENDBRANCH 24 26
ENDBRANCH 10 22
ENDBRANCH 7 10
ENDBRANCH 5 6
BRANCH 5 32
ATOM     32  CB  ASN P   4      35.938   1.053 -29.044  1.00 62.15 LIG 0.14  C 
BRANCH 32 33
ATOM     33  CG  ASN P   4      35.800   1.233 -27.536  1.00 66.74 LIG 0.22  C 
ATOM     34 OD1  ASN P   4      36.793   1.415 -26.829  1.00 65.57 LIG-0.27  OA
ATOM     35  ND2 ASN P   4      34.572   1.160 -27.033  1.00 62.00 LIG-0.37  N 
ATOM     36 21HD ASN P   4      34.450   1.239 -26.185  1.00 62.00 LIG 0.16  HD
ATOM     37 22HD ASN P   4      33.901   1.032 -27.555  1.00 62.00 LIG 0.16  HD
ENDBRANCH 32 33
ENDBRANCH 5 32
ENDBRANCH 1 5
BRANCH 3 38
ATOM     38  CA  TRP P   5      35.116  -3.386 -28.324  1.00 39.30 LIG 0.18  C 
BRANCH 38 39
ATOM     39  CB  TRP P   5      33.992  -4.238 -28.950  1.00 34.53 LIG 0.07  C 
BRANCH 39 40
ATOM     40  CG  TRP P   5      33.751  -4.052 -30.413  1.00 28.80 LIG-0.03  A 
ATOM     41  CD1 TRP P   5      32.995  -3.086 -30.976  1.00 24.67 LIG 0.10  A 
ATOM     42  NE1 TRP P   5      32.960  -3.241 -32.307  1.00 28.39 LIG-0.36  N 
ATOM     43 HE1  TRP P   5      32.509  -2.748 -32.849  1.00 28.39 LIG 0.17  HD
ATOM     44  CE2 TRP P   5      33.751  -4.301 -32.677  1.00 28.85 LIG 0.04  A 
ATOM     45  CZ2 TRP P   5      34.068  -4.791 -33.926  1.00 29.12 LIG 0.03  A 
ATOM     46  CD2 TRP P   5      34.290  -4.832 -31.496  1.00 31.26 LIG-0.00  A 
ATOM     47  CH2 TRP P   5      34.877  -5.898 -33.989  1.00 31.42 LIG 0.00  A 
ATOM     48  CZ3 TRP P   5      35.367  -6.518 -32.827  1.00 31.13 LIG 0.00  A 
ATOM     49  CE3 TRP P   5      35.086  -5.989 -31.571  1.00 35.06 LIG 0.01  A 
ENDBRANCH 39 40
ENDBRANCH 38 39
BRANCH 38 50
ATOM     50  C   TRP P   5      36.450  -4.090 -28.176  1.00 44.67 LIG 0.24  C 
ATOM     51 O    TRP P   5      37.435  -3.690 -28.762  1.00 47.12 LIG-0.27  OA
ATOM     52  N   GLU P   6      36.472  -5.141 -27.377  1.00 57.45 LIG-0.35  N 
ATOM     53 H    GLU P   6      35.763  -5.530 -27.085  1.00 57.45 LIG 0.16  HD
BRANCH 52 54
ATOM     54  CA  GLU P   6      37.713  -5.743 -26.913  1.00 54.50 LIG 0.18  C 
BRANCH 54 55
ATOM     55  C   GLU P   6      38.253  -6.682 -27.944  1.00 56.45 LIG 0.24  C 
ATOM     56 O    GLU P   6      39.375  -6.461 -28.484  1.00 44.81 LIG-0.27  OA
ATOM     57  N   VAL P   7      37.460  -7.720 -28.221  1.00 47.96 LIG-0.35  N 
ATOM     58 H    VAL P   7      36.797  -7.962 -27.730  1.00 47.96 LIG 0.16  HD
BRANCH 57 59
ATOM     59  CA  VAL P   7      37.658  -8.531 -29.393  1.00 55.51 LIG 0.17  C 
BRANCH 59 60
ATOM     60  CB  VAL P   7      38.569  -9.753 -29.070  1.00 57.72 LIG 0.01  C 
ATOM     61  CG2 VAL P   7      39.410  -9.487 -27.812  1.00 57.86 LIG 0.01  C 
ATOM     62  CG1 VAL P   7      39.432 -10.168 -30.266  1.00 55.94 LIG 0.01  C 
ENDBRANCH 59 60
BRANCH 59 63
ATOM     63  C   VAL P   7      36.248  -8.904 -29.896  1.00 56.50 LIG 0.22  C 
ATOM     64 O    VAL P   7      35.308  -8.108 -29.799  1.00 61.93 LIG-0.29  OA
ENDBRANCH 59 63
ENDBRANCH 57 59
ENDBRANCH 54 55
BRANCH 54 65
ATOM     65  CB  GLU P   6      37.438  -6.584 -25.675  1.00 55.84 LIG 0.04  C 
BRANCH 65 66
ATOM     66  CG  GLU P   6      36.912  -5.782 -24.503  1.00 56.62 LIG 0.12  C 
BRANCH 66 67
ATOM     67  CD  GLU P   6      37.415  -6.308 -23.170  1.00 56.54 LIG 0.17  C 
ATOM     68 OE1  GLU P   6      38.323  -7.211 -23.175  1.00 46.52 LIG-0.65  OA
ATOM     69 OE2  GLU P   6      36.879  -5.792 -22.146  1.00 53.74 LIG-0.65  OA
ENDBRANCH 66 67
ENDBRANCH 65 66
ENDBRANCH 54 65
ENDBRANCH 52 54
ENDBRANCH 38 50
ENDBRANCH 3 38
TORSDOF 23
ENDMDL
MODEL 19
USER: ADFR SOLUTION from run 16
USER: SCORE 20.037054 LL:  -4.782 LR: -17.022 RR:   0.000 FEB: -10.161
USER: RMSD 7.117207
USER: SEED 260928
USER: STATUS no improvement in best in 12 clusters for 5 generations
USER: GENES 25
USER: genes 0 Translation |==|  0.53437 0.46651 0.61063
USER: genes 1 Rotation |==|  0.54404 0.29603 0.92221 0.66792
USER: genes 2 Torsion [N]-C--CA-[N] |==|  0.85295
USER: genes 3 Torsion [C]-CA--N-[C] |==|  0.74901
USER: genes 4 Torsion [N]-C--CA-[N] |==|  0.30311
USER: genes 5 Torsion [C]-CA--CB-[CG] |==|  0.68223
USER: genes 6 Torsion [CA]-CB--CG-[CD2] |==|  0.28563
USER: genes 7 Torsion [C]-CA--N-[C] |==|  0.68189
USER: genes 8 Torsion [N]-C--CA-[N] |==|  0.18768
USER: genes 9 Torsion [C]-CA--CB-[CG] |==|  0.81506
USER: genes 10 Torsion [CA]-CB--CG-[OD2] |==|  0.95198
USER: genes 11 Torsion [C]-CA--CB-[CG] |==|  0.15481
USER: genes 12 Torsion [CA]-CB--CG-[ND2] |==|  0.72998
USER: genes 13 Torsion [C]-N--CA-[CB] |==|  0.87188
USER: genes 14 Torsion [N]-CA--CB-[CG] |==|  0.48650
USER: genes 15 Torsion [CA]-CB--CG-[CD1] |==|  0.80016
USER: genes 16 Torsion [N]-CA--C-[N] |==|  0.76348
USER: genes 17 Torsion [C]-N--CA-[C] |==|  0.69106
USER: genes 18 Torsion [N]-CA--C-[N] |==|  0.42579
USER: genes 19 Torsion [C]-N--CA-[CB] |==|  0.49853
USER: genes 20 Torsion [N]-CA--CB-[CG2] |==|  0.91071
USER: genes 21 Torsion [N]-CA--C-[O] |==|  0.54766
USER: genes 22 Torsion [N]-CA--CB-[CG] |==|  0.16571
USER: genes 23 Torsion [CA]-CB--CG-[CD] |==|  0.35688
USER: genes 24 Torsion [CB]-CG--CD-[OE1] |==|  0.06884
ROOT
ATOM      1  C   ASN P   4      34.602  -3.200 -29.041  1.00 47.61 LIG 0.24  C 
ATOM      2 O    ASN P   4      34.455  -3.949 -28.106  1.00 46.30 LIG-0.27  OA
ATOM      3  N   TRP P   5      35.657  -2.389 -29.103  1.00 43.61 LIG-0.35  N 
ATOM      4 H    TRP P   5      35.825  -1.818 -29.724  1.00 43.61 LIG 0.16  HD
ENDROOT
BRANCH 1 5
ATOM      5  CA  ASN P   4      33.579  -3.197 -30.182  1.00 56.71 LIG 0.18  C 
BRANCH 5 6
ATOM      6  N   ASN P   4      33.120  -1.842 -30.429  1.00 58.55 LIG-0.35  N 
ATOM      7  C   TRP P   3      32.066  -1.362 -29.799  1.00 51.89 LIG 0.24  C 
ATOM      8 O    TRP P   3      31.288  -2.059 -29.146  1.00 53.51 LIG-0.27  OA
ATOM      9 H    ASN P   4      33.586  -1.402 -31.004  1.00 58.55 LIG 0.16  HD
BRANCH 7 10
ATOM     10  CA  TRP P   3      31.783   0.079 -29.991  1.00 49.09 LIG 0.18  C 
BRANCH 10 11
ATOM     11  CB  TRP P   3      31.639   0.578 -28.552  1.00 45.21 LIG 0.07  C 
BRANCH 11 12
ATOM     12  CG  TRP P   3      30.234   1.110 -28.055  1.00 38.74 LIG-0.03  A 
ATOM     13  CD1 TRP P   3      29.670   2.379 -28.229  1.00 32.85 LIG 0.10  A 
ATOM     14  NE1 TRP P   3      28.445   2.456 -27.540  1.00 33.71 LIG-0.36  N 
ATOM     15  CE2 TRP P   3      28.203   1.254 -26.931  1.00 32.42 LIG 0.04  A 
ATOM     16 HE1  TRP P   3      27.932   3.145 -27.507  1.00 33.71 LIG 0.17  HD
ATOM     17  CZ2 TRP P   3      27.140   0.872 -26.074  1.00 29.39 LIG 0.03  A 
ATOM     18  CD2 TRP P   3      29.298   0.385 -27.211  1.00 33.85 LIG-0.00  A 
ATOM     19  CH2 TRP P   3      27.162  -0.408 -25.619  1.00 25.26 LIG 0.00  A 
ATOM     20  CZ3 TRP P   3      28.197  -1.296 -25.894  1.00 33.31 LIG 0.00  A 
ATOM     21  CE3 TRP P   3      29.302  -0.897 -26.667  1.00 32.67 LIG 0.01  A 
ENDBRANCH 11 12
ENDBRANCH 10 11
BRANCH 10 22
ATOM     22  N   TRP P   3      30.551   0.366 -30.837  1.00 48.62 LIG-0.34  N 
ATOM     23 H    TRP P   3      29.817   0.107 -30.470  1.00 48.62 LIG 0.16  HD
ATOM     24  C   ASP P   2      30.593   0.967 -32.046  1.00 44.46 LIG 0.26  C 
ATOM     25 O    ASP P   2      31.686   1.203 -32.628  1.00 32.12 LIG-0.27  OA
BRANCH 24 26
ATOM     26  CA  ASP P   2      29.213   1.449 -32.698  1.00 48.39 LIG 0.41  C 
ATOM     27  N   ASP P   2      28.632   2.581 -31.898  1.00 44.52 LIG 0.61  N 
BRANCH 26 28
ATOM     28  CB  ASP P   2      29.247   1.817 -34.229  1.00 55.68 LIG 0.16  C 
BRANCH 28 29
ATOM     29  CG  ASP P   2      30.134   3.120 -34.556  1.00 65.31 LIG 0.17  C 
ATOM     30 OD2  ASP P   2      30.449   3.934 -33.617  1.00 61.23 LIG-0.65  OA
ATOM     31 OD1  ASP P   2      30.505   3.338 -35.758  1.00 59.39 LIG-0.65  OA
ENDBRANCH 28 29
ENDBRANCH 26 28
ENDBRANCH 24 26
ENDBRANCH 10 22
ENDBRANCH 7 10
ENDBRANCH 5 6
BRANCH 5 32
ATOM     32  CB  ASN P   4      34.150  -3.812 -31.489  1.00 62.15 LIG 0.14  C 
BRANCH 32 33
ATOM     33  CG  ASN P   4      34.687  -5.225 -31.293  1.00 66.74 LIG 0.22  C 
ATOM     34 OD1  ASN P   4      33.925  -6.194 -31.291  1.00 65.57 LIG-0.27  OA
ATOM     35  ND2 ASN P   4      35.996  -5.350 -31.103  1.00 62.00 LIG-0.37  N 
ATOM     36 21HD ASN P   4      36.339  -6.127 -30.971  1.00 62.00 LIG 0.16  HD
ATOM     37 22HD ASN P   4      36.499  -4.653 -31.110  1.00 62.00 LIG 0.16  HD
ENDBRANCH 32 33
ENDBRANCH 5 32
ENDBRANCH 1 5
BRANCH 3 38
ATOM     38  CA  TRP P   5      36.615  -2.470 -28.022  1.00 39.30 LIG 0.18  C 
BRANCH 38 39
ATOM     39  CB  TRP P   5      35.953  -2.490 -26.628  1.00 34.53 LIG 0.07  C 
BRANCH 39 40
ATOM     40  CG  TRP P   5      36.865  -2.686 -25.461  1.00 28.80 LIG-0.03  A 
ATOM     41  CD1 TRP P   5      37.488  -3.834 -25.125  1.00 24.67 LIG 0.10  A 
ATOM     42  NE1 TRP P   5      38.194  -3.667 -23.997  1.00 28.39 LIG-0.36  N 
ATOM     43 HE1  TRP P   5      38.640  -4.286 -23.598  1.00 28.39 LIG 0.17  HD
ATOM     44  CE2 TRP P   5      38.101  -2.364 -23.575  1.00 28.85 LIG 0.04  A 
ATOM     45  CZ2 TRP P   5      38.701  -1.720 -22.513  1.00 29.12 LIG 0.03  A 
ATOM     46  CD2 TRP P   5      37.277  -1.700 -24.495  1.00 31.26 LIG-0.00  A 
ATOM     47  CH2 TRP P   5      38.396  -0.396 -22.318  1.00 31.42 LIG 0.00  A 
ATOM     48  CZ3 TRP P   5      37.504   0.286 -23.163  1.00 31.13 LIG 0.00  A 
ATOM     49  CE3 TRP P   5      36.942  -0.354 -24.263  1.00 35.06 LIG 0.01  A 
ENDBRANCH 39 40
ENDBRANCH 38 39
BRANCH 38 50
ATOM     50  C   TRP P   5      37.482  -3.672 -28.340  1.00 44.67 LIG 0.24  C 
ATOM     51 O    TRP P   5      38.540  -3.541 -28.922  1.00 47.12 LIG-0.27  OA
ATOM     52  N   GLU P   6      37.026  -4.845 -27.943  1.00 57.45 LIG-0.35  N 
ATOM     53 H    GLU P   6      36.219  -4.975 -27.678  1.00 57.45 LIG 0.16  HD
BRANCH 52 54
ATOM     54  CA  GLU P   6      37.858  -6.039 -27.918  1.00 54.50 LIG 0.18  C 
BRANCH 54 55
ATOM     55  C   GLU P   6      37.404  -7.011 -28.960  1.00 56.45 LIG 0.24  C 
ATOM     56 O    GLU P   6      36.201  -7.018 -29.346  1.00 44.81 LIG-0.27  OA
ATOM     57  N   VAL P   7      38.358  -7.831 -29.408  1.00 47.96 LIG-0.35  N 
ATOM     58 H    VAL P   7      39.199  -7.704 -29.281  1.00 47.96 LIG 0.16  HD
BRANCH 57 59
ATOM     59  CA  VAL P   7      38.043  -9.020 -30.155  1.00 55.51 LIG 0.17  C 
BRANCH 59 60
ATOM     60  CB  VAL P   7      39.344  -9.777 -30.561  1.00 57.72 LIG 0.01  C 
ATOM     61  CG2 VAL P   7      40.497  -8.789 -30.797  1.00 57.86 LIG 0.01  C 
ATOM     62  CG1 VAL P   7      39.125 -10.708 -31.757  1.00 55.94 LIG 0.01  C 
ENDBRANCH 59 60
BRANCH 59 63
ATOM     63  C   VAL P   7      37.081  -9.838 -29.269  1.00 56.50 LIG 0.22  C 
ATOM     64 O    VAL P   7      36.880 -11.037 -29.489  1.00 61.93 LIG-0.29  OA
ENDBRANCH 59 63
ENDBRANCH 57 59
ENDBRANCH 54 55
BRANCH 54 65
ATOM     65  CB  GLU P   6      37.694  -6.744 -26.579  1.00 55.84 LIG 0.04  C 
BRANCH 65 66
ATOM     66  CG  GLU P   6      36.271  -7.170 -26.289  1.00 56.62 LIG 0.12  C 
BRANCH 66 67
ATOM     67  CD  GLU P   6      36.174  -8.635 -25.899  1.00 56.54 LIG 0.17  C 
ATOM     68 OE1  GLU P   6      37.204  -9.200 -25.392  1.00 46.52 LIG-0.65  OA
ATOM     69 OE2  GLU P   6      35.051  -9.180 -26.114  1.00 53.74 LIG-0.65  OA
ENDBRANCH 66 67
ENDBRANCH 65 66
ENDBRANCH 54 65
ENDBRANCH 52 54
ENDBRANCH 38 50
ENDBRANCH 3 38
TORSDOF 23
ENDMDL
MODEL 20
USER: ADFR SOLUTION from run 113
USER: SCORE 20.632482 LL:  -5.393 LR: -17.010 RR:   0.000 FEB: -10.149
USER: RMSD 4.878535
USER: SEED 112
USER: STATUS no improvement in best in 1 clusters for 5 generations
USER: GENES 25
USER: genes 0 Translation |==|  0.54638 0.53141 0.59827
USER: genes 1 Rotation |==|  0.62576 0.03684 0.62602 0.56156
USER: genes 2 Torsion [N]-C--CA-[N] |==|  0.42494
USER: genes 3 Torsion [C]-CA--N-[C] |==|  0.63933
USER: genes 4 Torsion [N]-C--CA-[N] |==|  0.28575
USER: genes 5 Torsion [C]-CA--CB-[CG] |==|  0.34834
USER: genes 6 Torsion [CA]-CB--CG-[CD2] |==|  0.13963
USER: genes 7 Torsion [C]-CA--N-[C] |==|  0.81778
USER: genes 8 Torsion [N]-C--CA-[N] |==|  0.78743
USER: genes 9 Torsion [C]-CA--CB-[CG] |==|  0.79676
USER: genes 10 Torsion [CA]-CB--CG-[OD2] |==|  0.91579
USER: genes 11 Torsion [C]-CA--CB-[CG] |==|  0.56019
USER: genes 12 Torsion [CA]-CB--CG-[ND2] |==|  0.29138
USER: genes 13 Torsion [C]-N--CA-[CB] |==|  0.47778
USER: genes 14 Torsion [N]-CA--CB-[CG] |==|  0.15567
USER: genes 15 Torsion [CA]-CB--CG-[CD1] |==|  0.78208
USER: genes 16 Torsion [N]-CA--C-[N] |==|  0.39835
USER: genes 17 Torsion [C]-N--CA-[C] |==|  0.65953
USER: genes 18 Torsion [N]-CA--C-[N] |==|  0.09874
USER: genes 19 Torsion [C]-N--CA-[CB] |==|  0.31904
USER: genes 20 Torsion [N]-CA--CB-[CG2] |==|  0.31901
USER: genes 21 Torsion [N]-CA--C-[O] |==|  0.45036
USER: genes 22 Torsion [N]-CA--CB-[CG] |==|  0.80636
USER: genes 23 Torsion [CA]-CB--CG-[CD] |==|  0.50172
USER: genes 24 Torsion [CB]-CG--CD-[OE1] |==|  0.23946
ROOT
ATOM      1  C   ASN P   4      34.854  -1.691 -29.300  1.00 47.61 LIG 0.24  C 
ATOM      2 O    ASN P   4      34.706  -2.496 -30.187  1.00 46.30 LIG-0.27  OA
ATOM      3  N   TRP P   5      35.816  -1.848 -28.393  1.00 43.61 LIG-0.35  N 
ATOM      4 H    TRP P   5      35.976  -1.330 -27.725  1.00 43.61 LIG 0.16  HD
ENDROOT
BRANCH 1 5
ATOM      5  CA  ASN P   4      33.944  -0.460 -29.231  1.00 56.71 LIG 0.18  C 
BRANCH 5 6
ATOM      6  N   ASN P   4      33.445  -0.141 -30.557  1.00 58.55 LIG-0.35  N 
ATOM      7  C   TRP P   3      33.533   1.086 -31.032  1.00 51.89 LIG 0.24  C 
ATOM      8 O    TRP P   3      33.828   2.064 -30.343  1.00 53.51 LIG-0.27  OA
ATOM      9 H    ASN P   4      33.101  -0.804 -30.983  1.00 58.55 LIG 0.16  HD
BRANCH 7 10
ATOM     10  CA  TRP P   3      33.154   1.272 -32.452  1.00 49.09 LIG 0.18  C 
BRANCH 10 11
ATOM     11  CB  TRP P   3      34.282   2.162 -32.977  1.00 45.21 LIG 0.07  C 
BRANCH 11 12
ATOM     12  CG  TRP P   3      35.108   1.699 -34.244  1.00 38.74 LIG-0.03  A 
ATOM     13  CD1 TRP P   3      36.494   1.723 -34.440  1.00 32.85 LIG 0.10  A 
ATOM     14  NE1 TRP P   3      36.799   1.312 -35.751  1.00 33.71 LIG-0.36  N 
ATOM     15  CE2 TRP P   3      35.633   1.013 -36.404  1.00 32.42 LIG 0.04  A 
ATOM     16 HE1  TRP P   3      37.588   1.258 -36.087  1.00 33.71 LIG 0.17  HD
ATOM     17  CZ2 TRP P   3      35.426   0.625 -37.751  1.00 29.39 LIG 0.03  A 
ATOM     18  CD2 TRP P   3      34.548   1.251 -35.510  1.00 33.85 LIG-0.00  A 
ATOM     19  CH2 TRP P   3      34.139   0.386 -38.119  1.00 25.26 LIG 0.00  A 
ATOM     20  CZ3 TRP P   3      33.056   0.578 -37.267  1.00 33.31 LIG 0.00  A 
ATOM     21  CE3 TRP P   3      33.245   1.052 -35.957  1.00 32.67 LIG 0.01  A 
ENDBRANCH 11 12
ENDBRANCH 10 11
BRANCH 10 22
ATOM     22  N   TRP P   3      31.779   1.887 -32.657  1.00 48.62 LIG-0.34  N 
ATOM     23 H    TRP P   3      31.804   2.668 -33.017  1.00 48.62 LIG 0.16  HD
ATOM     24  C   ASP P   2      30.623   1.278 -32.309  1.00 44.46 LIG 0.26  C 
ATOM     25 O    ASP P   2      30.617   0.204 -31.650  1.00 32.12 LIG-0.27  OA
BRANCH 24 26
ATOM     26  CA  ASP P   2      29.249   1.915 -32.825  1.00 48.39 LIG 0.41  C 
ATOM     27  N   ASP P   2      28.906   3.131 -32.012  1.00 44.52 LIG 0.61  N 
BRANCH 26 28
ATOM     28  CB  ASP P   2      29.154   2.235 -34.364  1.00 55.68 LIG 0.16  C 
BRANCH 28 29
ATOM     29  CG  ASP P   2      30.024   3.514 -34.807  1.00 65.31 LIG 0.17  C 
ATOM     30 OD2  ASP P   2      30.218   4.475 -33.982  1.00 61.23 LIG-0.65  OA
ATOM     31 OD1  ASP P   2      30.504   3.564 -35.989  1.00 59.39 LIG-0.65  OA
ENDBRANCH 28 29
ENDBRANCH 26 28
ENDBRANCH 24 26
ENDBRANCH 10 22
ENDBRANCH 7 10
ENDBRANCH 5 6
BRANCH 5 32
ATOM     32  CB  ASN P   4      32.755  -0.658 -28.250  1.00 62.15 LIG 0.14  C 
BRANCH 32 33
ATOM     33  CG  ASN P   4      31.587   0.279 -28.540  1.00 66.74 LIG 0.22  C 
ATOM     34 OD1  ASN P   4      31.639   1.468 -28.218  1.00 65.57 LIG-0.27  OA
ATOM     35  ND2 ASN P   4      30.521  -0.254 -29.126  1.00 62.00 LIG-0.37  N 
ATOM     36 21HD ASN P   4      29.833   0.234 -29.293  1.00 62.00 LIG 0.16  HD
ATOM     37 22HD ASN P   4      30.519  -1.087 -29.337  1.00 62.00 LIG 0.16  HD
ENDBRANCH 32 33
ENDBRANCH 5 32
ENDBRANCH 1 5
BRANCH 3 38
ATOM     38  CA  TRP P   5      36.676  -3.002 -28.537  1.00 39.30 LIG 0.18  C 
BRANCH 38 39
ATOM     39  CB  TRP P   5      37.871  -2.990 -27.561  1.00 34.53 LIG 0.07  C 
BRANCH 39 40
ATOM     40  CG  TRP P   5      37.543  -2.882 -26.107  1.00 28.80 LIG-0.03  A 
ATOM     41  CD1 TRP P   5      37.201  -1.754 -25.453  1.00 24.67 LIG 0.10  A 
ATOM     42  NE1 TRP P   5      37.016  -2.010 -24.150  1.00 28.39 LIG-0.36  N 
ATOM     43 HE1  TRP P   5      36.823  -1.420 -23.553  1.00 28.39 LIG 0.17  HD
ATOM     44  CE2 TRP P   5      37.180  -3.352 -23.909  1.00 28.85 LIG 0.04  A 
ATOM     45  CZ2 TRP P   5      37.029  -4.079 -22.747  1.00 29.12 LIG 0.03  A 
ATOM     46  CD2 TRP P   5      37.497  -3.946 -25.138  1.00 31.26 LIG-0.00  A 
ATOM     47  CH2 TRP P   5      37.289  -5.426 -22.801  1.00 31.42 LIG 0.00  A 
ATOM     48  CZ3 TRP P   5      37.697  -6.049 -23.993  1.00 31.13 LIG 0.00  A 
ATOM     49  CE3 TRP P   5      37.798  -5.320 -25.173  1.00 35.06 LIG 0.01  A 
ENDBRANCH 39 40
ENDBRANCH 38 39
BRANCH 38 50
ATOM     50  C   TRP P   5      35.763  -4.206 -28.422  1.00 44.67 LIG 0.24  C 
ATOM     51 O    TRP P   5      34.817  -4.200 -27.661  1.00 47.12 LIG-0.27  OA
ATOM     52  N   GLU P   6      36.052  -5.237 -29.193  1.00 57.45 LIG-0.35  N 
ATOM     53 H    GLU P   6      36.797  -5.321 -29.613  1.00 57.45 LIG 0.16  HD
BRANCH 52 54
ATOM     54  CA  GLU P   6      35.124  -6.338 -29.406  1.00 54.50 LIG 0.18  C 
BRANCH 54 55
ATOM     55  C   GLU P   6      35.754  -7.634 -29.005  1.00 56.45 LIG 0.24  C 
ATOM     56 O    GLU P   6      35.499  -8.693 -29.646  1.00 44.81 LIG-0.27  OA
ATOM     57  N   VAL P   7      36.566  -7.554 -27.948  1.00 47.96 LIG-0.35  N 
ATOM     58 H    VAL P   7      36.875  -6.815 -27.635  1.00 47.96 LIG 0.16  HD
BRANCH 57 59
ATOM     59  CA  VAL P   7      36.995  -8.727 -27.234  1.00 55.51 LIG 0.17  C 
BRANCH 59 60
ATOM     60  CB  VAL P   7      38.534  -8.927 -27.377  1.00 57.72 LIG 0.01  C 
ATOM     61  CG2 VAL P   7      39.231  -8.773 -26.016  1.00 57.86 LIG 0.01  C 
ATOM     62  CG1 VAL P   7      39.142  -8.014 -28.446  1.00 55.94 LIG 0.01  C 
ENDBRANCH 59 60
BRANCH 59 63
ATOM     63  C   VAL P   7      36.509  -8.543 -25.781  1.00 56.50 LIG 0.22  C 
ATOM     64 O    VAL P   7      36.434  -9.506 -25.011  1.00 61.93 LIG-0.29  OA
ENDBRANCH 59 63
ENDBRANCH 57 59
ENDBRANCH 54 55
BRANCH 54 65
ATOM     65  CB  GLU P   6      34.811  -6.458 -30.891  1.00 55.84 LIG 0.04  C 
BRANCH 65 66
ATOM     66  CG  GLU P   6      33.974  -5.317 -31.428  1.00 56.62 LIG 0.12  C 
BRANCH 66 67
ATOM     67  CD  GLU P   6      33.666  -5.472 -32.907  1.00 56.54 LIG 0.17  C 
ATOM     68 OE1  GLU P   6      32.644  -6.165 -33.247  1.00 46.52 LIG-0.65  OA
ATOM     69 OE2  GLU P   6      34.467  -4.886 -33.692  1.00 53.74 LIG-0.65  OA
ENDBRANCH 66 67
ENDBRANCH 65 66
ENDBRANCH 54 65
ENDBRANCH 52 54
ENDBRANCH 38 50
ENDBRANCH 3 38
TORSDOF 23
ENDMDL
MODEL 21
USER: ADFR SOLUTION from run 177
USER: SCORE 19.832908 LL:  -4.497 LR: -16.977 RR:   0.000 FEB: -10.116
USER: RMSD 10.603278
USER: SEED 176
USER: STATUS no improvement in best in 10 clusters for 5 generations
USER: GENES 25
USER: genes 0 Translation |==|  0.37647 0.61712 0.54760
USER: genes 1 Rotation |==|  0.87483 0.25497 0.31879 0.62892
USER: genes 2 Torsion [N]-C--CA-[N] |==|  0.85556
USER: genes 3 Torsion [C]-CA--N-[C] |==|  0.85173
USER: genes 4 Torsion [N]-C--CA-[N] |==|  0.95053
USER: genes 5 Torsion [C]-CA--CB-[CG] |==|  0.30857
USER: genes 6 Torsion [CA]-CB--CG-[CD2] |==|  0.88418
USER: genes 7 Torsion [C]-CA--N-[C] |==|  0.81808
USER: genes 8 Torsion [N]-C--CA-[N] |==|  0.57781
USER: genes 9 Torsion [C]-CA--CB-[CG] |==|  0.35460
USER: genes 10 Torsion [CA]-CB--CG-[OD2] |==|  0.23128
USER: genes 11 Torsion [C]-CA--CB-[CG] |==|  0.39309
USER: genes 12 Torsion [CA]-CB--CG-[ND2] |==|  0.87846
USER: genes 13 Torsion [C]-N--CA-[CB] |==|  0.81580
USER: genes 14 Torsion [N]-CA--CB-[CG] |==|  0.66226
USER: genes 15 Torsion [CA]-CB--CG-[CD1] |==|  0.08373
USER: genes 16 Torsion [N]-CA--C-[N] |==|  0.69963
USER: genes 17 Torsion [C]-N--CA-[C] |==|  0.76310
USER: genes 18 Torsion [N]-CA--C-[N] |==|  0.43713
USER: genes 19 Torsion [C]-N--CA-[CB] |==|  0.29030
USER: genes 20 Torsion [N]-CA--CB-[CG2] |==|  0.31502
USER: genes 21 Torsion [N]-CA--C-[O] |==|  0.30141
USER: genes 22 Torsion [N]-CA--CB-[CG] |==|  0.62412
USER: genes 23 Torsion [CA]-CB--CG-[CD] |==|  0.19122
USER: genes 24 Torsion [CB]-CG--CD-[OE1] |==|  0.26893
ROOT
ATOM      1  C   ASN P   4      31.286   0.302 -30.364  1.00 47.61 LIG 0.24  C 
ATOM      2 O    ASN P   4      30.465   0.204 -31.243  1.00 46.30 LIG-0.27  OA
ATOM      3  N   TRP P   5      32.341   1.102 -30.507  1.00 43.61 LIG-0.35  N 
ATOM      4 H    TRP P   5      32.975   1.216 -29.936  1.00 43.61 LIG 0.16  HD
ENDROOT
BRANCH 1 5
ATOM      5  CA  ASN P   4      31.102  -0.481 -29.060  1.00 56.71 LIG 0.18  C 
BRANCH 5 6
ATOM      6  N   ASN P   4      32.316  -1.214 -28.750  1.00 58.55 LIG-0.35  N 
ATOM      7  C   TRP P   3      32.860  -2.023 -29.637  1.00 51.89 LIG 0.24  C 
ATOM      8 O    TRP P   3      32.293  -2.379 -30.671  1.00 53.51 LIG-0.27  OA
ATOM      9 H    ASN P   4      32.632  -1.073 -27.962  1.00 58.55 LIG 0.16  HD
BRANCH 7 10
ATOM     10  CA  TRP P   3      34.184  -2.589 -29.289  1.00 49.09 LIG 0.18  C 
BRANCH 10 11
ATOM     11  CB  TRP P   3      33.832  -4.026 -28.900  1.00 45.21 LIG 0.07  C 
BRANCH 11 12
ATOM     12  CG  TRP P   3      34.296  -5.216 -29.834  1.00 38.74 LIG-0.03  A 
ATOM     13  CD1 TRP P   3      34.917  -6.417 -29.473  1.00 32.85 LIG 0.10  A 
ATOM     14  NE1 TRP P   3      35.247  -7.150 -30.629  1.00 33.71 LIG-0.36  N 
ATOM     15  CE2 TRP P   3      34.840  -6.447 -31.731  1.00 32.42 LIG 0.04  A 
ATOM     16 HE1  TRP P   3      35.640  -7.915 -30.641  1.00 33.71 LIG 0.17  HD
ATOM     17  CZ2 TRP P   3      35.013  -6.743 -33.107  1.00 29.39 LIG 0.03  A 
ATOM     18  CD2 TRP P   3      34.252  -5.226 -31.287  1.00 33.85 LIG-0.00  A 
ATOM     19  CH2 TRP P   3      34.489  -5.848 -33.986  1.00 25.26 LIG 0.00  A 
ATOM     20  CZ3 TRP P   3      33.882  -4.660 -33.592  1.00 33.31 LIG 0.00  A 
ATOM     21  CE3 TRP P   3      33.789  -4.315 -32.233  1.00 32.67 LIG 0.01  A 
ENDBRANCH 11 12
ENDBRANCH 10 11
BRANCH 10 22
ATOM     22  N   TRP P   3      34.911  -1.843 -28.181  1.00 48.62 LIG-0.34  N 
ATOM     23 H    TRP P   3      35.015  -2.310 -27.466  1.00 48.62 LIG 0.16  HD
ATOM     24  C   ASP P   2      35.355  -0.572 -28.296  1.00 44.46 LIG 0.26  C 
ATOM     25 O    ASP P   2      35.064   0.140 -29.295  1.00 32.12 LIG-0.27  OA
BRANCH 24 26
ATOM     26  CA  ASP P   2      36.335  -0.008 -27.163  1.00 48.39 LIG 0.41  C 
ATOM     27  N   ASP P   2      36.184   1.482 -27.045  1.00 44.52 LIG 0.61  N 
BRANCH 26 28
ATOM     28  CB  ASP P   2      36.237  -0.687 -25.746  1.00 55.68 LIG 0.16  C 
BRANCH 28 29
ATOM     29  CG  ASP P   2      37.656  -1.191 -25.178  1.00 65.31 LIG 0.17  C 
ATOM     30 OD2  ASP P   2      38.436  -0.369 -24.579  1.00 61.23 LIG-0.65  OA
ATOM     31 OD1  ASP P   2      37.998  -2.410 -25.341  1.00 59.39 LIG-0.65  OA
ENDBRANCH 28 29
ENDBRANCH 26 28
ENDBRANCH 24 26
ENDBRANCH 10 22
ENDBRANCH 7 10
ENDBRANCH 5 6
BRANCH 5 32
ATOM     32  CB  ASN P   4      30.717   0.438 -27.868  1.00 62.15 LIG 0.14  C 
BRANCH 32 33
ATOM     33  CG  ASN P   4      29.692  -0.200 -26.936  1.00 66.74 LIG 0.22  C 
ATOM     34 OD1  ASN P   4      29.834  -0.146 -25.713  1.00 65.57 LIG-0.27  OA
ATOM     35  ND2 ASN P   4      28.670  -0.828 -27.507  1.00 62.00 LIG-0.37  N 
ATOM     36 21HD ASN P   4      28.077  -1.216 -27.020  1.00 62.00 LIG 0.16  HD
ATOM     37 22HD ASN P   4      28.602  -0.846 -28.364  1.00 62.00 LIG 0.16  HD
ENDBRANCH 32 33
ENDBRANCH 5 32
ENDBRANCH 1 5
BRANCH 3 38
ATOM     38  CA  TRP P   5      32.436   1.855 -31.739  1.00 39.30 LIG 0.18  C 
BRANCH 38 39
ATOM     39  CB  TRP P   5      32.654   0.960 -32.977  1.00 34.53 LIG 0.07  C 
BRANCH 39 40
ATOM     40  CG  TRP P   5      33.884   1.226 -33.783  1.00 28.80 LIG-0.03  A 
ATOM     41  CD1 TRP P   5      35.053   1.704 -33.311  1.00 24.67 LIG 0.10  A 
ATOM     42  NE1 TRP P   5      35.929   1.863 -34.314  1.00 28.39 LIG-0.36  N 
ATOM     43 HE1  TRP P   5      36.723   2.185 -34.230  1.00 28.39 LIG 0.17  HD
ATOM     44  CE2 TRP P   5      35.372   1.436 -35.494  1.00 28.85 LIG 0.04  A 
ATOM     45  CZ2 TRP P   5      35.911   1.350 -36.761  1.00 29.12 LIG 0.03  A 
ATOM     46  CD2 TRP P   5      34.073   1.002 -35.193  1.00 31.26 LIG-0.00  A 
ATOM     47  CH2 TRP P   5      35.095   0.901 -37.770  1.00 31.42 LIG 0.00  A 
ATOM     48  CZ3 TRP P   5      33.758   0.541 -37.530  1.00 31.13 LIG 0.00  A 
ATOM     49  CE3 TRP P   5      33.235   0.580 -36.241  1.00 35.06 LIG 0.01  A 
ENDBRANCH 39 40
ENDBRANCH 38 39
BRANCH 38 50
ATOM     50  C   TRP P   5      31.193   2.721 -31.781  1.00 44.67 LIG 0.24  C 
ATOM     51 O    TRP P   5      31.075   3.678 -31.043  1.00 47.12 LIG-0.27  OA
ATOM     52  N   GLU P   6      30.271   2.380 -32.661  1.00 57.45 LIG-0.35  N 
ATOM     53 H    GLU P   6      30.265   1.625 -33.074  1.00 57.45 LIG 0.16  HD
BRANCH 52 54
ATOM     54  CA  GLU P   6      29.169   3.260 -33.019  1.00 54.50 LIG 0.18  C 
BRANCH 54 55
ATOM     55  C   GLU P   6      28.041   3.101 -32.049  1.00 56.45 LIG 0.24  C 
ATOM     56 O    GLU P   6      27.925   2.040 -31.373  1.00 44.81 LIG-0.27  OA
ATOM     57  N   VAL P   7      27.212   4.146 -31.984  1.00 47.96 LIG-0.35  N 
ATOM     58 H    VAL P   7      27.394   4.924 -32.302  1.00 47.96 LIG 0.16  HD
BRANCH 57 59
ATOM     59  CA  VAL P   7      25.918   4.047 -31.363  1.00 55.51 LIG 0.17  C 
BRANCH 59 60
ATOM     60  CB  VAL P   7      25.924   4.733 -29.964  1.00 57.72 LIG 0.01  C 
ATOM     61  CG2 VAL P   7      25.021   5.976 -29.964  1.00 57.86 LIG 0.01  C 
ATOM     62  CG1 VAL P   7      27.342   5.046 -29.476  1.00 55.94 LIG 0.01  C 
ENDBRANCH 59 60
BRANCH 59 63
ATOM     63  C   VAL P   7      24.917   4.657 -32.366  1.00 56.50 LIG 0.22  C 
ATOM     64 O    VAL P   7      24.121   3.941 -32.984  1.00 61.93 LIG-0.29  OA
ENDBRANCH 59 63
ENDBRANCH 57 59
ENDBRANCH 54 55
BRANCH 54 65
ATOM     65  CB  GLU P   6      28.618   2.858 -34.380  1.00 55.84 LIG 0.04  C 
BRANCH 65 66
ATOM     66  CG  GLU P   6      28.360   4.033 -35.299  1.00 56.62 LIG 0.12  C 
BRANCH 66 67
ATOM     67  CD  GLU P   6      29.643   4.704 -35.755  1.00 56.54 LIG 0.17  C 
ATOM     68 OE1  GLU P   6      30.130   4.378 -36.894  1.00 46.52 LIG-0.65  OA
ATOM     69 OE2  GLU P   6      30.130   5.549 -34.948  1.00 53.74 LIG-0.65  OA
ENDBRANCH 66 67
ENDBRANCH 65 66
ENDBRANCH 54 65
ENDBRANCH 52 54
ENDBRANCH 38 50
ENDBRANCH 3 38
TORSDOF 23
ENDMDL
MODEL 22
USER: ADFR SOLUTION from run 36
USER: SCORE 18.467868 LL:  -4.339 LR: -16.977 RR:   0.000 FEB: -10.116
USER: RMSD 10.748013
USER: SEED 35
USER: STATUS no improvement in best in 24 clusters for 5 generations
USER: GENES 25
USER: genes 0 Translation |==|  0.48538 0.45977 0.52172
USER: genes 1 Rotation |==|  0.65060 0.54765 0.06043 0.67839
USER: genes 2 Torsion [N]-C--CA-[N] |==|  0.31908
USER: genes 3 Torsion [C]-CA--N-[C] |==|  0.20000
USER: genes 4 Torsion [N]-C--CA-[N] |==|  0.09562
USER: genes 5 Torsion [C]-CA--CB-[CG] |==|  0.48602
USER: genes 6 Torsion [CA]-CB--CG-[CD2] |==|  0.27082
USER: genes 7 Torsion [C]-CA--N-[C] |==|  0.16404
USER: genes 8 Torsion [N]-C--CA-[N] |==|  0.54644
USER: genes 9 Torsion [C]-CA--CB-[CG] |==|  0.26050
USER: genes 10 Torsion [CA]-CB--CG-[OD2] |==|  0.57484
USER: genes 11 Torsion [C]-CA--CB-[CG] |==|  0.37398
USER: genes 12 Torsion [CA]-CB--CG-[ND2] |==|  0.29701
USER: genes 13 Torsion [C]-N--CA-[CB] |==|  0.18293
USER: genes 14 Torsion [N]-CA--CB-[CG] |==|  0.46815
USER: genes 15 Torsion [CA]-CB--CG-[CD1] |==|  0.74516
USER: genes 16 Torsion [N]-CA--C-[N] |==|  0.88314
USER: genes 17 Torsion [C]-N--CA-[C] |==|  0.74981
USER: genes 18 Torsion [N]-CA--C-[N] |==|  0.69536
USER: genes 19 Torsion [C]-N--CA-[CB] |==|  0.49653
USER: genes 20 Torsion [N]-CA--CB-[CG2] |==|  0.46071
USER: genes 21 Torsion [N]-CA--C-[O] |==|  0.44847
USER: genes 22 Torsion [N]-CA--CB-[CG] |==|  0.62762
USER: genes 23 Torsion [CA]-CB--CG-[CD] |==|  0.72833
USER: genes 24 Torsion [CB]-CG--CD-[OE1] |==|  0.37740
ROOT
ATOM      1  C   ASN P   4      33.573  -3.356 -30.908  1.00 47.61 LIG 0.24  C 
ATOM      2 O    ASN P   4      32.836  -3.768 -30.045  1.00 46.30 LIG-0.27  OA
ATOM      3  N   TRP P   5      33.492  -2.094 -31.324  1.00 43.61 LIG-0.35  N 
ATOM      4 H    TRP P   5      33.969  -1.729 -31.941  1.00 43.61 LIG 0.16  HD
ENDROOT
BRANCH 1 5
ATOM      5  CA  ASN P   4      34.630  -4.286 -31.513  1.00 56.71 LIG 0.18  C 
BRANCH 5 6
ATOM      6  N   ASN P   4      35.589  -4.671 -30.493  1.00 58.55 LIG-0.35  N 
ATOM      7  C   TRP P   3      35.252  -5.512 -29.535  1.00 51.89 LIG 0.24  C 
ATOM      8 O    TRP P   3      34.090  -5.853 -29.306  1.00 53.51 LIG-0.27  OA
ATOM      9 H    ASN P   4      36.366  -4.311 -30.573  1.00 58.55 LIG 0.16  HD
BRANCH 7 10
ATOM     10  CA  TRP P   3      36.345  -5.973 -28.647  1.00 49.09 LIG 0.18  C 
BRANCH 10 11
ATOM     11  CB  TRP P   3      35.587  -6.380 -27.382  1.00 45.21 LIG 0.07  C 
BRANCH 11 12
ATOM     12  CG  TRP P   3      36.378  -7.056 -26.190  1.00 38.74 LIG-0.03  A 
ATOM     13  CD1 TRP P   3      36.657  -8.412 -25.987  1.00 32.85 LIG 0.10  A 
ATOM     14  NE1 TRP P   3      37.301  -8.587 -24.747  1.00 33.71 LIG-0.36  N 
ATOM     15  CE2 TRP P   3      37.452  -7.364 -24.150  1.00 32.42 LIG 0.04  A 
ATOM     16 HE1  TRP P   3      37.558  -9.339 -24.418  1.00 33.71 LIG 0.17  HD
ATOM     17  CZ2 TRP P   3      37.977  -7.040 -22.874  1.00 29.39 LIG 0.03  A 
ATOM     18  CD2 TRP P   3      36.880  -6.377 -25.006  1.00 33.85 LIG-0.00  A 
ATOM     19  CH2 TRP P   3      38.005  -5.720 -22.551  1.00 25.26 LIG 0.00  A 
ATOM     20  CZ3 TRP P   3      37.484  -4.724 -23.372  1.00 33.31 LIG 0.00  A 
ATOM     21  CE3 TRP P   3      36.878  -5.046 -24.599  1.00 32.67 LIG 0.01  A 
ENDBRANCH 11 12
ENDBRANCH 10 11
BRANCH 10 22
ATOM     22  N   TRP P   3      37.415  -4.926 -28.379  1.00 48.62 LIG-0.34  N 
ATOM     23 H    TRP P   3      38.202  -5.172 -28.623  1.00 48.62 LIG 0.16  HD
ATOM     24  C   ASP P   2      37.166  -3.725 -27.812  1.00 44.46 LIG 0.26  C 
ATOM     25 O    ASP P   2      36.036  -3.446 -27.329  1.00 32.12 LIG-0.27  OA
BRANCH 24 26
ATOM     26  CA  ASP P   2      38.326  -2.623 -27.838  1.00 48.39 LIG 0.41  C 
ATOM     27  N   ASP P   2      38.033  -1.541 -26.836  1.00 44.52 LIG 0.61  N 
BRANCH 26 28
ATOM     28  CB  ASP P   2      39.801  -3.147 -27.668  1.00 55.68 LIG 0.16  C 
BRANCH 28 29
ATOM     29  CG  ASP P   2      40.549  -3.424 -29.066  1.00 65.31 LIG 0.17  C 
ATOM     30 OD2  ASP P   2      41.489  -4.293 -29.130  1.00 61.23 LIG-0.65  OA
ATOM     31 OD1  ASP P   2      40.204  -2.761 -30.101  1.00 59.39 LIG-0.65  OA
ENDBRANCH 28 29
ENDBRANCH 26 28
ENDBRANCH 24 26
ENDBRANCH 10 22
ENDBRANCH 7 10
ENDBRANCH 5 6
BRANCH 5 32
ATOM     32  CB  ASN P   4      34.004  -5.552 -32.159  1.00 62.15 LIG 0.14  C 
BRANCH 32 33
ATOM     33  CG  ASN P   4      34.591  -5.868 -33.531  1.00 66.74 LIG 0.22  C 
ATOM     34 OD1  ASN P   4      34.290  -5.190 -34.516  1.00 65.57 LIG-0.27  OA
ATOM     35  ND2 ASN P   4      35.412  -6.910 -33.608  1.00 62.00 LIG-0.37  N 
ATOM     36 21HD ASN P   4      35.753  -7.133 -34.365  1.00 62.00 LIG 0.16  HD
ATOM     37 22HD ASN P   4      35.601  -7.360 -32.901  1.00 62.00 LIG 0.16  HD
ENDBRANCH 32 33
ENDBRANCH 5 32
ENDBRANCH 1 5
BRANCH 3 38
ATOM     38  CA  TRP P   5      32.509  -1.249 -30.682  1.00 39.30 LIG 0.18  C 
BRANCH 38 39
ATOM     39  CB  TRP P   5      32.815  -0.993 -29.191  1.00 34.53 LIG 0.07  C 
BRANCH 39 40
ATOM     40  CG  TRP P   5      32.010   0.072 -28.519  1.00 28.80 LIG-0.03  A 
ATOM     41  CD1 TRP P   5      32.347   1.374 -28.416  1.00 24.67 LIG 0.10  A 
ATOM     42  NE1 TRP P   5      31.419   2.039 -27.713  1.00 28.39 LIG-0.36  N 
ATOM     43 HE1  TRP P   5      31.460   2.874 -27.507  1.00 28.39 LIG 0.17  HD
ATOM     44  CE2 TRP P   5      30.394   1.192 -27.371  1.00 28.85 LIG 0.04  A 
ATOM     45  CZ2 TRP P   5      29.208   1.439 -26.711  1.00 29.12 LIG 0.03  A 
ATOM     46  CD2 TRP P   5      30.725  -0.070 -27.886  1.00 31.26 LIG-0.00  A 
ATOM     47  CH2 TRP P   5      28.373   0.374 -26.484  1.00 31.42 LIG 0.00  A 
ATOM     48  CZ3 TRP P   5      28.706  -0.926 -26.903  1.00 31.13 LIG 0.00  A 
ATOM     49  CE3 TRP P   5      29.879  -1.160 -27.614  1.00 35.06 LIG 0.01  A 
ENDBRANCH 39 40
ENDBRANCH 38 39
BRANCH 38 50
ATOM     50  C   TRP P   5      32.419  -0.006 -31.543  1.00 44.67 LIG 0.24  C 
ATOM     51 O    TRP P   5      31.346   0.504 -31.792  1.00 47.12 LIG-0.27  OA
ATOM     52  N   GLU P   6      33.561   0.482 -31.989  1.00 57.45 LIG-0.35  N 
ATOM     53 H    GLU P   6      34.305   0.052 -31.958  1.00 57.45 LIG 0.16  HD
BRANCH 52 54
ATOM     54  CA  GLU P   6      33.667   1.809 -32.579  1.00 54.50 LIG 0.18  C 
BRANCH 54 55
ATOM     55  C   GLU P   6      33.444   1.740 -34.056  1.00 56.45 LIG 0.24  C 
ATOM     56 O    GLU P   6      32.295   1.487 -34.517  1.00 44.81 LIG-0.27  OA
ATOM     57  N   VAL P   7      34.536   1.957 -34.794  1.00 47.96 LIG-0.35  N 
ATOM     58 H    VAL P   7      35.261   2.304 -34.488  1.00 47.96 LIG 0.16  HD
BRANCH 57 59
ATOM     59  CA  VAL P   7      34.583   1.618 -36.191  1.00 55.51 LIG 0.17  C 
BRANCH 59 60
ATOM     60  CB  VAL P   7      35.961   2.008 -36.807  1.00 57.72 LIG 0.01  C 
ATOM     61  CG2 VAL P   7      36.151   1.343 -38.179  1.00 57.86 LIG 0.01  C 
ATOM     62  CG1 VAL P   7      37.126   1.716 -35.855  1.00 55.94 LIG 0.01  C 
ENDBRANCH 59 60
BRANCH 59 63
ATOM     63  C   VAL P   7      34.252   0.113 -36.276  1.00 56.50 LIG 0.22  C 
ATOM     64 O    VAL P   7      33.884  -0.397 -37.339  1.00 61.93 LIG-0.29  OA
ENDBRANCH 59 63
ENDBRANCH 57 59
ENDBRANCH 54 55
BRANCH 54 65
ATOM     65  CB  GLU P   6      35.081   2.339 -32.386  1.00 55.84 LIG 0.04  C 
BRANCH 65 66
ATOM     66  CG  GLU P   6      35.129   3.771 -31.899  1.00 56.62 LIG 0.12  C 
BRANCH 66 67
ATOM     67  CD  GLU P   6      35.350   4.760 -33.031  1.00 56.54 LIG 0.17  C 
ATOM     68 OE1  GLU P   6      34.643   5.826 -33.056  1.00 46.52 LIG-0.65  OA
ATOM     69 OE2  GLU P   6      36.239   4.432 -33.872  1.00 53.74 LIG-0.65  OA
ENDBRANCH 66 67
ENDBRANCH 65 66
ENDBRANCH 54 65
ENDBRANCH 52 54
ENDBRANCH 38 50
ENDBRANCH 3 38
TORSDOF 23
ENDMDL
MODEL 23
USER: ADFR SOLUTION from run 16
USER: SCORE 20.486619 LL:  -5.397 LR: -16.972 RR:   0.000 FEB: -10.111
USER: RMSD 6.790786
USER: SEED 260928
USER: STATUS no improvement in best in 12 clusters for 5 generations
USER: GENES 25
USER: genes 0 Translation |==|  0.52555 0.48007 0.61027
USER: genes 1 Rotation |==|  0.51041 0.36149 0.92759 0.71880
USER: genes 2 Torsion [N]-C--CA-[N] |==|  0.81122
USER: genes 3 Torsion [C]-CA--N-[C] |==|  0.76954
USER: genes 4 Torsion [N]-C--CA-[N] |==|  0.27461
USER: genes 5 Torsion [C]-CA--CB-[CG] |==|  0.70814
USER: genes 6 Torsion [CA]-CB--CG-[CD2] |==|  0.26687
USER: genes 7 Torsion [C]-CA--N-[C] |==|  0.65725
USER: genes 8 Torsion [N]-C--CA-[N] |==|  0.18341
USER: genes 9 Torsion [C]-CA--CB-[CG] |==|  0.83140
USER: genes 10 Torsion [CA]-CB--CG-[OD2] |==|  0.97987
USER: genes 11 Torsion [C]-CA--CB-[CG] |==|  0.13707
USER: genes 12 Torsion [CA]-CB--CG-[ND2] |==|  0.74526
USER: genes 13 Torsion [C]-N--CA-[CB] |==|  0.87081
USER: genes 14 Torsion [N]-CA--CB-[CG] |==|  0.75439
USER: genes 15 Torsion [CA]-CB--CG-[CD1] |==|  0.64520
USER: genes 16 Torsion [N]-CA--C-[N] |==|  0.80061
USER: genes 17 Torsion [C]-N--CA-[C] |==|  0.72897
USER: genes 18 Torsion [N]-CA--C-[N] |==|  0.31920
USER: genes 19 Torsion [C]-N--CA-[CB] |==|  0.49115
USER: genes 20 Torsion [N]-CA--CB-[CG2] |==|  0.51808
USER: genes 21 Torsion [N]-CA--C-[O] |==|  0.41526
USER: genes 22 Torsion [N]-CA--CB-[CG] |==|  0.59780
USER: genes 23 Torsion [CA]-CB--CG-[CD] |==|  0.72101
USER: genes 24 Torsion [CB]-CG--CD-[OE1] |==|  0.39712
ROOT
ATOM      1  C   ASN P   4      34.417  -2.884 -29.048  1.00 47.61 LIG 0.24  C 
ATOM      2 O    ASN P   4      34.212  -3.293 -27.931  1.00 46.30 LIG-0.27  OA
ATOM      3  N   TRP P   5      35.594  -2.354 -29.373  1.00 43.61 LIG-0.35  N 
ATOM      4 H    TRP P   5      35.813  -2.029 -30.139  1.00 43.61 LIG 0.16  HD
ENDROOT
BRANCH 1 5
ATOM      5  CA  ASN P   4      33.320  -2.999 -30.113  1.00 56.71 LIG 0.18  C 
BRANCH 5 6
ATOM      6  N   ASN P   4      32.852  -1.675 -30.482  1.00 58.55 LIG-0.35  N 
ATOM      7  C   TRP P   3      31.944  -1.055 -29.755  1.00 51.89 LIG 0.24  C 
ATOM      8 O    TRP P   3      31.286  -1.607 -28.871  1.00 53.51 LIG-0.27  OA
ATOM      9 H    ASN P   4      33.211  -1.350 -31.193  1.00 58.55 LIG 0.16  HD
BRANCH 7 10
ATOM     10  CA  TRP P   3      31.660   0.354 -30.115  1.00 49.09 LIG 0.18  C 
BRANCH 10 11
ATOM     11  CB  TRP P   3      31.535   1.022 -28.745  1.00 45.21 LIG 0.07  C 
BRANCH 11 12
ATOM     12  CG  TRP P   3      30.101   1.414 -28.203  1.00 38.74 LIG-0.03  A 
ATOM     13  CD1 TRP P   3      29.394   2.608 -28.387  1.00 32.85 LIG 0.10  A 
ATOM     14  NE1 TRP P   3      28.196   2.572 -27.649  1.00 33.71 LIG-0.36  N 
ATOM     15  CE2 TRP P   3      28.111   1.370 -26.999  1.00 32.42 LIG 0.04  A 
ATOM     16 HE1  TRP P   3      27.612   3.203 -27.613  1.00 33.71 LIG 0.17  HD
ATOM     17  CZ2 TRP P   3      27.130   0.902 -26.089  1.00 29.39 LIG 0.03  A 
ATOM     18  CD2 TRP P   3      29.283   0.617 -27.302  1.00 33.85 LIG-0.00  A 
ATOM     19  CH2 TRP P   3      27.311  -0.353 -25.602  1.00 25.26 LIG 0.00  A 
ATOM     20  CZ3 TRP P   3      28.425  -1.132 -25.897  1.00 33.31 LIG 0.00  A 
ATOM     21  CE3 TRP P   3      29.449  -0.639 -26.725  1.00 32.67 LIG 0.01  A 
ENDBRANCH 11 12
ENDBRANCH 10 11
BRANCH 10 22
ATOM     22  N   TRP P   3      30.418   0.540 -30.973  1.00 48.62 LIG-0.34  N 
ATOM     23 H    TRP P   3      29.705   0.218 -30.617  1.00 48.62 LIG 0.16  HD
ATOM     24  C   ASP P   2      30.422   1.150 -32.180  1.00 44.46 LIG 0.26  C 
ATOM     25 O    ASP P   2      31.498   1.481 -32.747  1.00 32.12 LIG-0.27  OA
BRANCH 24 26
ATOM     26  CA  ASP P   2      29.014   1.518 -32.845  1.00 48.39 LIG 0.41  C 
ATOM     27  N   ASP P   2      28.313   2.564 -32.026  1.00 44.52 LIG 0.61  N 
BRANCH 26 28
ATOM     28  CB  ASP P   2      29.039   1.932 -34.364  1.00 55.68 LIG 0.16  C 
BRANCH 28 29
ATOM     29  CG  ASP P   2      29.928   3.241 -34.657  1.00 65.31 LIG 0.17  C 
ATOM     30 OD2  ASP P   2      30.415   3.918 -33.683  1.00 61.23 LIG-0.65  OA
ATOM     31 OD1  ASP P   2      30.130   3.602 -35.864  1.00 59.39 LIG-0.65  OA
ENDBRANCH 28 29
ENDBRANCH 26 28
ENDBRANCH 24 26
ENDBRANCH 10 22
ENDBRANCH 7 10
ENDBRANCH 5 6
BRANCH 5 32
ATOM     32  CB  ASN P   4      33.801  -3.764 -31.377  1.00 62.15 LIG 0.14  C 
BRANCH 32 33
ATOM     33  CG  ASN P   4      34.485  -5.086 -31.044  1.00 66.74 LIG 0.22  C 
ATOM     34 OD1  ASN P   4      33.826  -6.119 -30.908  1.00 65.57 LIG-0.27  OA
ATOM     35  ND2 ASN P   4      35.803  -5.056 -30.886  1.00 62.00 LIG-0.37  N 
ATOM     36 21HD ASN P   4      36.228  -5.776 -30.682  1.00 62.00 LIG 0.16  HD
ATOM     37 22HD ASN P   4      36.232  -4.318 -30.988  1.00 62.00 LIG 0.16  HD
ENDBRANCH 32 33
ENDBRANCH 5 32
ENDBRANCH 1 5
BRANCH 3 38
ATOM     38  CA  TRP P   5      36.608  -2.318 -28.341  1.00 39.30 LIG 0.18  C 
BRANCH 38 39
ATOM     39  CB  TRP P   5      36.075  -1.800 -26.989  1.00 34.53 LIG 0.07  C 
BRANCH 39 40
ATOM     40  CG  TRP P   5      36.127  -0.322 -26.774  1.00 28.80 LIG-0.03  A 
ATOM     41  CD1 TRP P   5      36.674   0.306 -25.714  1.00 24.67 LIG 0.10  A 
ATOM     42  NE1 TRP P   5      36.507   1.632 -25.822  1.00 28.39 LIG-0.36  N 
ATOM     43 HE1  TRP P   5      36.756   2.211 -25.236  1.00 28.39 LIG 0.17  HD
ATOM     44  CE2 TRP P   5      35.879   1.930 -27.007  1.00 28.85 LIG 0.04  A 
ATOM     45  CZ2 TRP P   5      35.559   3.147 -27.571  1.00 29.12 LIG 0.03  A 
ATOM     46  CD2 TRP P   5      35.639   0.709 -27.653  1.00 31.26 LIG-0.00  A 
ATOM     47  CH2 TRP P   5      34.899   3.135 -28.775  1.00 31.42 LIG 0.00  A 
ATOM     48  CZ3 TRP P   5      34.557   1.932 -29.416  1.00 31.13 LIG 0.00  A 
ATOM     49  CE3 TRP P   5      34.929   0.709 -28.868  1.00 35.06 LIG 0.01  A 
ENDBRANCH 39 40
ENDBRANCH 38 39
BRANCH 38 50
ATOM     50  C   TRP P   5      37.201  -3.712 -28.307  1.00 44.67 LIG 0.24  C 
ATOM     51 O    TRP P   5      38.324  -3.922 -28.719  1.00 47.12 LIG-0.27  OA
ATOM     52  N   GLU P   6      36.437  -4.662 -27.803  1.00 57.45 LIG-0.35  N 
ATOM     53 H    GLU P   6      35.595  -4.566 -27.657  1.00 57.45 LIG 0.16  HD
BRANCH 52 54
ATOM     54  CA  GLU P   6      36.955  -5.973 -27.443  1.00 54.50 LIG 0.18  C 
BRANCH 54 55
ATOM     55  C   GLU P   6      36.698  -6.954 -28.543  1.00 56.45 LIG 0.24  C 
ATOM     56 O    GLU P   6      35.514  -7.279 -28.844  1.00 44.81 LIG-0.27  OA
ATOM     57  N   VAL P   7      37.797  -7.429 -29.133  1.00 47.96 LIG-0.35  N 
ATOM     58 H    VAL P   7      38.577  -7.074 -29.052  1.00 47.96 LIG 0.16  HD
BRANCH 57 59
ATOM     59  CA  VAL P   7      37.761  -8.598 -29.970  1.00 55.51 LIG 0.17  C 
BRANCH 59 60
ATOM     60  CB  VAL P   7      39.164  -8.877 -30.590  1.00 57.72 LIG 0.01  C 
ATOM     61  CG2 VAL P   7      39.091 -10.025 -31.608  1.00 57.86 LIG 0.01  C 
ATOM     62  CG1 VAL P   7      40.234  -9.118 -29.520  1.00 55.94 LIG 0.01  C 
ENDBRANCH 59 60
BRANCH 59 63
ATOM     63  C   VAL P   7      37.219  -9.739 -29.085  1.00 56.50 LIG 0.22  C 
ATOM     64 O    VAL P   7      36.562 -10.665 -29.574  1.00 61.93 LIG-0.29  OA
ENDBRANCH 59 63
ENDBRANCH 57 59
ENDBRANCH 54 55
BRANCH 54 65
ATOM     65  CB  GLU P   6      36.210  -6.497 -26.223  1.00 55.84 LIG 0.04  C 
BRANCH 65 66
ATOM     66  CG  GLU P   6      37.080  -7.306 -25.284  1.00 56.62 LIG 0.12  C 
BRANCH 66 67
ATOM     67  CD  GLU P   6      36.888  -8.802 -25.463  1.00 56.54 LIG 0.17  C 
ATOM     68 OE1  GLU P   6      37.910  -9.564 -25.353  1.00 46.52 LIG-0.65  OA
ATOM     69 OE2  GLU P   6      35.703  -9.171 -25.711  1.00 53.74 LIG-0.65  OA
ENDBRANCH 66 67
ENDBRANCH 65 66
ENDBRANCH 54 65
ENDBRANCH 52 54
ENDBRANCH 38 50
ENDBRANCH 3 38
TORSDOF 23
ENDMDL
MODEL 24
USER: ADFR SOLUTION from run 11
USER: SCORE 19.230422 LL:  -4.568 LR: -16.953 RR:   0.000 FEB: -10.092
USER: RMSD 10.823022
USER: SEED 654871
USER: STATUS no improvement in best in 5 clusters for 5 generations
USER: GENES 25
USER: genes 0 Translation |==|  0.48073 0.50304 0.57309
USER: genes 1 Rotation |==|  0.80369 0.56735 0.13157 0.63229
USER: genes 2 Torsion [N]-C--CA-[N] |==|  0.11082
USER: genes 3 Torsion [C]-CA--N-[C] |==|  0.17778
USER: genes 4 Torsion [N]-C--CA-[N] |==|  0.02751
USER: genes 5 Torsion [C]-CA--CB-[CG] |==|  0.32076
USER: genes 6 Torsion [CA]-CB--CG-[CD2] |==|  0.96974
USER: genes 7 Torsion [C]-CA--N-[C] |==|  0.67247
USER: genes 8 Torsion [N]-C--CA-[N] |==|  0.35423
USER: genes 9 Torsion [C]-CA--CB-[CG] |==|  0.73449
USER: genes 10 Torsion [CA]-CB--CG-[OD2] |==|  0.10202
USER: genes 11 Torsion [C]-CA--CB-[CG] |==|  0.33187
USER: genes 12 Torsion [CA]-CB--CG-[ND2] |==|  0.22140
USER: genes 13 Torsion [C]-N--CA-[CB] |==|  0.40555
USER: genes 14 Torsion [N]-CA--CB-[CG] |==|  0.55827
USER: genes 15 Torsion [CA]-CB--CG-[CD1] |==|  0.58111
USER: genes 16 Torsion [N]-CA--C-[N] |==|  0.83595
USER: genes 17 Torsion [C]-N--CA-[C] |==|  0.53341
USER: genes 18 Torsion [N]-CA--C-[N] |==|  0.27267
USER: genes 19 Torsion [C]-N--CA-[CB] |==|  0.25506
USER: genes 20 Torsion [N]-CA--CB-[CG2] |==|  0.84545
USER: genes 21 Torsion [N]-CA--C-[O] |==|  0.67150
USER: genes 22 Torsion [N]-CA--CB-[CG] |==|  0.59942
USER: genes 23 Torsion [CA]-CB--CG-[CD] |==|  0.77125
USER: genes 24 Torsion [CB]-CG--CD-[OE1] |==|  0.21248
ROOT
ATOM      1  C   ASN P   4      33.475  -2.350 -29.829  1.00 47.61 LIG 0.24  C 
ATOM      2 O    ASN P   4      32.389  -2.863 -29.711  1.00 46.30 LIG-0.27  OA
ATOM      3  N   TRP P   5      33.619  -1.031 -29.716  1.00 43.61 LIG-0.35  N 
ATOM      4 H    TRP P   5      34.353  -0.590 -29.801  1.00 43.61 LIG 0.16  HD
ENDROOT
BRANCH 1 5
ATOM      5  CA  ASN P   4      34.706  -3.226 -30.085  1.00 56.71 LIG 0.18  C 
BRANCH 5 6
ATOM      6  N   ASN P   4      35.828  -2.740 -29.301  1.00 58.55 LIG-0.35  N 
ATOM      7  C   TRP P   3      35.789  -2.762 -27.983  1.00 51.89 LIG 0.24  C 
ATOM      8 O    TRP P   3      34.763  -2.979 -27.336  1.00 53.51 LIG-0.27  OA
ATOM      9 H    ASN P   4      36.493  -2.448 -29.763  1.00 58.55 LIG 0.16  HD
BRANCH 7 10
ATOM     10  CA  TRP P   3      37.043  -2.407 -27.280  1.00 49.09 LIG 0.18  C 
BRANCH 10 11
ATOM     11  CB  TRP P   3      36.557  -1.399 -26.236  1.00 45.21 LIG 0.07  C 
BRANCH 11 12
ATOM     12  CG  TRP P   3      36.677  -1.758 -24.700  1.00 38.74 LIG-0.03  A 
ATOM     13  CD1 TRP P   3      36.594  -0.902 -23.595  1.00 32.85 LIG 0.10  A 
ATOM     14  NE1 TRP P   3      36.855  -1.621 -22.414  1.00 33.71 LIG-0.36  N 
ATOM     15  CE2 TRP P   3      37.095  -2.931 -22.736  1.00 32.42 LIG 0.04  A 
ATOM     16 HE1  TRP P   3      36.863  -1.293 -21.619  1.00 33.71 LIG 0.17  HD
ATOM     17  CZ2 TRP P   3      37.469  -4.013 -21.900  1.00 29.39 LIG 0.03  A 
ATOM     18  CD2 TRP P   3      37.008  -3.063 -24.152  1.00 33.85 LIG-0.00  A 
ATOM     19  CH2 TRP P   3      37.635  -5.216 -22.510  1.00 25.26 LIG 0.00  A 
ATOM     20  CZ3 TRP P   3      37.529  -5.393 -23.886  1.00 33.31 LIG 0.00  A 
ATOM     21  CE3 TRP P   3      37.250  -4.306 -24.733  1.00 32.67 LIG 0.01  A 
ENDBRANCH 11 12
ENDBRANCH 10 11
BRANCH 10 22
ATOM     22  N   TRP P   3      38.126  -1.839 -28.183  1.00 48.62 LIG-0.34  N 
ATOM     23 H    TRP P   3      37.900  -1.102 -28.566  1.00 48.62 LIG 0.16  HD
ATOM     24  C   ASP P   2      39.330  -2.423 -28.374  1.00 44.46 LIG 0.26  C 
ATOM     25 O    ASP P   2      39.583  -3.572 -27.921  1.00 32.12 LIG-0.27  OA
BRANCH 24 26
ATOM     26  CA  ASP P   2      40.466  -1.586 -29.127  1.00 48.39 LIG 0.41  C 
ATOM     27  N   ASP P   2      41.727  -1.573 -28.309  1.00 44.52 LIG 0.61  N 
BRANCH 26 28
ATOM     28  CB  ASP P   2      40.777  -2.000 -30.614  1.00 55.68 LIG 0.16  C 
BRANCH 28 29
ATOM     29  CG  ASP P   2      42.020  -3.014 -30.750  1.00 65.31 LIG 0.17  C 
ATOM     30 OD2  ASP P   2      42.207  -3.922 -29.865  1.00 61.23 LIG-0.65  OA
ATOM     31 OD1  ASP P   2      42.818  -2.895 -31.739  1.00 59.39 LIG-0.65  OA
ENDBRANCH 28 29
ENDBRANCH 26 28
ENDBRANCH 24 26
ENDBRANCH 10 22
ENDBRANCH 7 10
ENDBRANCH 5 6
BRANCH 5 32
ATOM     32  CB  ASN P   4      34.444  -4.723 -29.766  1.00 62.15 LIG 0.14  C 
BRANCH 32 33
ATOM     33  CG  ASN P   4      34.625  -5.627 -30.980  1.00 66.74 LIG 0.22  C 
ATOM     34 OD1  ASN P   4      33.648  -6.045 -31.605  1.00 65.57 LIG-0.27  OA
ATOM     35  ND2 ASN P   4      35.871  -5.954 -31.306  1.00 62.00 LIG-0.37  N 
ATOM     36 21HD ASN P   4      36.018  -6.475 -31.974  1.00 62.00 LIG 0.16  HD
ATOM     37 22HD ASN P   4      36.529  -5.645 -30.848  1.00 62.00 LIG 0.16  HD
ENDBRANCH 32 33
ENDBRANCH 5 32
ENDBRANCH 1 5
BRANCH 3 38
ATOM     38  CA  TRP P   5      32.430  -0.261 -29.425  1.00 39.30 LIG 0.18  C 
BRANCH 38 39
ATOM     39  CB  TRP P   5      32.710   0.968 -28.535  1.00 34.53 LIG 0.07  C 
BRANCH 39 40
ATOM     40  CG  TRP P   5      31.543   1.533 -27.792  1.00 28.80 LIG-0.03  A 
ATOM     41  CD1 TRP P   5      31.381   2.822 -27.431  1.00 24.67 LIG 0.10  A 
ATOM     42  NE1 TRP P   5      30.242   2.972 -26.740  1.00 28.39 LIG-0.36  N 
ATOM     43 HE1  TRP P   5      29.968   3.710 -26.393  1.00 28.39 LIG 0.17  HD
ATOM     44  CE2 TRP P   5      29.576   1.772 -26.669  1.00 28.85 LIG 0.04  A 
ATOM     45  CZ2 TRP P   5      28.350   1.458 -26.121  1.00 29.12 LIG 0.03  A 
ATOM     46  CD2 TRP P   5      30.366   0.833 -27.347  1.00 31.26 LIG-0.00  A 
ATOM     47  CH2 TRP P   5      27.946   0.148 -26.178  1.00 31.42 LIG 0.00  A 
ATOM     48  CZ3 TRP P   5      28.747  -0.845 -26.768  1.00 31.13 LIG 0.00  A 
ATOM     49  CE3 TRP P   5      29.958  -0.513 -27.365  1.00 35.06 LIG 0.01  A 
ENDBRANCH 39 40
ENDBRANCH 38 39
BRANCH 38 50
ATOM     50  C   TRP P   5      31.807   0.049 -30.771  1.00 44.67 LIG 0.24  C 
ATOM     51 O    TRP P   5      30.676  -0.306 -31.031  1.00 47.12 LIG-0.27  OA
ATOM     52  N   GLU P   6      32.557   0.723 -31.623  1.00 57.45 LIG-0.35  N 
ATOM     53 H    GLU P   6      33.403   0.841 -31.520  1.00 57.45 LIG 0.16  HD
BRANCH 52 54
ATOM     54  CA  GLU P   6      32.015   1.335 -32.826  1.00 54.50 LIG 0.18  C 
BRANCH 54 55
ATOM     55  C   GLU P   6      33.123   1.771 -33.732  1.00 56.45 LIG 0.24  C 
ATOM     56 O    GLU P   6      33.712   2.872 -33.537  1.00 44.81 LIG-0.27  OA
ATOM     57  N   VAL P   7      33.401   0.918 -34.721  1.00 47.96 LIG-0.35  N 
ATOM     58 H    VAL P   7      33.130   0.102 -34.741  1.00 47.96 LIG 0.16  HD
BRANCH 57 59
ATOM     59  CA  VAL P   7      34.194   1.308 -35.856  1.00 55.51 LIG 0.17  C 
BRANCH 59 60
ATOM     60  CB  VAL P   7      35.702   0.997 -35.608  1.00 57.72 LIG 0.01  C 
ATOM     61  CG2 VAL P   7      36.191   1.671 -34.317  1.00 57.86 LIG 0.01  C 
ATOM     62  CG1 VAL P   7      36.575   1.356 -36.815  1.00 55.94 LIG 0.01  C 
ENDBRANCH 59 60
BRANCH 59 63
ATOM     63  C   VAL P   7      33.586   0.579 -37.072  1.00 56.50 LIG 0.22  C 
ATOM     64 O    VAL P   7      34.251  -0.236 -37.721  1.00 61.93 LIG-0.29  OA
ENDBRANCH 59 63
ENDBRANCH 57 59
ENDBRANCH 54 55
BRANCH 54 65
ATOM     65  CB  GLU P   6      31.249   2.597 -32.454  1.00 55.84 LIG 0.04  C 
BRANCH 65 66
ATOM     66  CG  GLU P   6      30.022   2.834 -33.308  1.00 56.62 LIG 0.12  C 
BRANCH 66 67
ATOM     67  CD  GLU P   6      30.358   3.500 -34.630  1.00 56.54 LIG 0.17  C 
ATOM     68 OE1  GLU P   6      30.878   2.787 -35.557  1.00 46.52 LIG-0.65  OA
ATOM     69 OE2  GLU P   6      30.084   4.735 -34.701  1.00 53.74 LIG-0.65  OA
ENDBRANCH 66 67
ENDBRANCH 65 66
ENDBRANCH 54 65
ENDBRANCH 52 54
ENDBRANCH 38 50
ENDBRANCH 3 38
TORSDOF 23
ENDMDL
MODEL 25
USER: ADFR SOLUTION from run 188
USER: SCORE 21.538039 LL:  -6.517 LR: -16.953 RR:   0.000 FEB: -10.092
USER: RMSD 8.108371
USER: SEED 187
USER: STATUS searching
USER: GENES 25
USER: genes 0 Translation |==|  0.40180 0.59390 0.64732
USER: genes 1 Rotation |==|  0.71751 0.14431 0.51786 0.77542
USER: genes 2 Torsion [N]-C--CA-[N] |==|  0.08461
USER: genes 3 Torsion [C]-CA--N-[C] |==|  0.15915
USER: genes 4 Torsion [N]-C--CA-[N] |==|  0.34554
USER: genes 5 Torsion [C]-CA--CB-[CG] |==|  0.82604
USER: genes 6 Torsion [CA]-CB--CG-[CD2] |==|  0.26081
USER: genes 7 Torsion [C]-CA--N-[C] |==|  0.85000
USER: genes 8 Torsion [N]-C--CA-[N] |==|  0.68316
USER: genes 9 Torsion [C]-CA--CB-[CG] |==|  0.71730
USER: genes 10 Torsion [CA]-CB--CG-[OD2] |==|  0.31319
USER: genes 11 Torsion [C]-CA--CB-[CG] |==|  0.21116
USER: genes 12 Torsion [CA]-CB--CG-[ND2] |==|  0.70089
USER: genes 13 Torsion [C]-N--CA-[CB] |==|  0.83925
USER: genes 14 Torsion [N]-CA--CB-[CG] |==|  0.58582
USER: genes 15 Torsion [CA]-CB--CG-[CD1] |==|  0.28400
USER: genes 16 Torsion [N]-CA--C-[N] |==|  0.28776
USER: genes 17 Torsion [C]-N--CA-[C] |==|  0.49076
USER: genes 18 Torsion [N]-CA--C-[N] |==|  0.26449
USER: genes 19 Torsion [C]-N--CA-[CB] |==|  0.26159
USER: genes 20 Torsion [N]-CA--CB-[CG2] |==|  0.79953
USER: genes 21 Torsion [N]-CA--C-[O] |==|  0.86322
USER: genes 22 Torsion [N]-CA--CB-[CG] |==|  0.59936
USER: genes 23 Torsion [CA]-CB--CG-[CD] |==|  0.78201
USER: genes 24 Torsion [CB]-CG--CD-[OE1] |==|  0.21380
ROOT
ATOM      1  C   ASN P   4      31.818  -0.238 -28.270  1.00 47.61 LIG 0.24  C 
ATOM      2 O    ASN P   4      31.030  -1.047 -28.695  1.00 46.30 LIG-0.27  OA
ATOM      3  N   TRP P   5      33.064  -0.193 -28.738  1.00 43.61 LIG-0.35  N 
ATOM      4 H    TRP P   5      33.687   0.341 -28.479  1.00 43.61 LIG 0.16  HD
ENDROOT
BRANCH 1 5
ATOM      5  CA  ASN P   4      31.375   0.767 -27.202  1.00 56.71 LIG 0.18  C 
BRANCH 5 6
ATOM      6  N   ASN P   4      32.105   2.012 -27.364  1.00 58.55 LIG-0.35  N 
ATOM      7  C   TRP P   3      32.062   2.675 -28.502  1.00 51.89 LIG 0.24  C 
ATOM      8 O    TRP P   3      31.603   2.206 -29.546  1.00 53.51 LIG-0.27  OA
ATOM      9 H    ASN P   4      32.550   2.263 -26.671  1.00 58.55 LIG 0.16  HD
BRANCH 7 10
ATOM     10  CA  TRP P   3      32.697   4.013 -28.511  1.00 49.09 LIG 0.18  C 
BRANCH 10 11
ATOM     11  CB  TRP P   3      31.498   4.942 -28.713  1.00 45.21 LIG 0.07  C 
BRANCH 11 12
ATOM     12  CG  TRP P   3      30.650   4.832 -30.044  1.00 38.74 LIG-0.03  A 
ATOM     13  CD1 TRP P   3      30.817   5.530 -31.245  1.00 32.85 LIG 0.10  A 
ATOM     14  NE1 TRP P   3      29.781   5.198 -32.138  1.00 33.71 LIG-0.36  N 
ATOM     15  CE2 TRP P   3      28.952   4.289 -31.537  1.00 32.42 LIG 0.04  A 
ATOM     16 HE1  TRP P   3      29.684   5.514 -32.932  1.00 33.71 LIG 0.17  HD
ATOM     17  CZ2 TRP P   3      27.744   3.716 -32.011  1.00 29.39 LIG 0.03  A 
ATOM     18  CD2 TRP P   3      29.444   4.038 -30.223  1.00 33.85 LIG-0.00  A 
ATOM     19  CH2 TRP P   3      27.135   2.827 -31.183  1.00 25.26 LIG 0.00  A 
ATOM     20  CZ3 TRP P   3      27.600   2.533 -29.905  1.00 33.31 LIG 0.00  A 
ATOM     21  CE3 TRP P   3      28.745   3.166 -29.393  1.00 32.67 LIG 0.01  A 
ENDBRANCH 11 12
ENDBRANCH 10 11
BRANCH 10 22
ATOM     22  N   TRP P   3      33.763   4.191 -29.582  1.00 48.62 LIG-0.34  N 
ATOM     23 H    TRP P   3      33.629   4.875 -30.086  1.00 48.62 LIG 0.16  HD
ATOM     24  C   ASP P   2      34.820   3.364 -29.735  1.00 44.46 LIG 0.26  C 
ATOM     25 O    ASP P   2      34.917   2.290 -29.083  1.00 32.12 LIG-0.27  OA
BRANCH 24 26
ATOM     26  CA  ASP P   2      36.000   3.819 -30.716  1.00 48.39 LIG 0.41  C 
ATOM     27  N   ASP P   2      36.069   2.900 -31.903  1.00 44.52 LIG 0.61  N 
BRANCH 26 28
ATOM     28  CB  ASP P   2      35.988   5.323 -31.183  1.00 55.68 LIG 0.16  C 
BRANCH 28 29
ATOM     29  CG  ASP P   2      35.422   5.526 -32.676  1.00 65.31 LIG 0.17  C 
ATOM     30 OD2  ASP P   2      34.312   6.138 -32.864  1.00 61.23 LIG-0.65  OA
ATOM     31 OD1  ASP P   2      36.084   5.061 -33.664  1.00 59.39 LIG-0.65  OA
ENDBRANCH 28 29
ENDBRANCH 26 28
ENDBRANCH 24 26
ENDBRANCH 10 22
ENDBRANCH 7 10
ENDBRANCH 5 6
BRANCH 5 32
ATOM     32  CB  ASN P   4      29.846   1.039 -27.242  1.00 62.15 LIG 0.14  C 
BRANCH 32 33
ATOM     33  CG  ASN P   4      29.027  -0.098 -26.640  1.00 66.74 LIG 0.22  C 
ATOM     34 OD1  ASN P   4      29.032  -0.302 -25.424  1.00 65.57 LIG-0.27  OA
ATOM     35  ND2 ASN P   4      28.341  -0.858 -27.486  1.00 62.00 LIG-0.37  N 
ATOM     36 21HD ASN P   4      27.879  -1.520 -27.191  1.00 62.00 LIG 0.16  HD
ATOM     37 22HD ASN P   4      28.360  -0.688 -28.328  1.00 62.00 LIG 0.16  HD
ENDBRANCH 32 33
ENDBRANCH 5 32
ENDBRANCH 1 5
BRANCH 3 38
ATOM     38  CA  TRP P   5      33.411  -1.133 -29.782  1.00 39.30 LIG 0.18  C 
BRANCH 38 39
ATOM     39  CB  TRP P   5      33.195  -2.603 -29.367  1.00 34.53 LIG 0.07  C 
BRANCH 39 40
ATOM     40  CG  TRP P   5      34.112  -3.611 -29.980  1.00 28.80 LIG-0.03  A 
ATOM     41  CD1 TRP P   5      35.174  -4.185 -29.380  1.00 24.67 LIG 0.10  A 
ATOM     42  NE1 TRP P   5      35.801  -5.008 -30.234  1.00 28.39 LIG-0.36  N 
ATOM     43 HE1  TRP P   5      36.519  -5.449 -30.057  1.00 28.39 LIG 0.17  HD
ATOM     44  CE2 TRP P   5      35.127  -5.044 -31.430  1.00 28.85 LIG 0.04  A 
ATOM     45  CZ2 TRP P   5      35.359  -5.788 -32.568  1.00 29.12 LIG 0.03  A 
ATOM     46  CD2 TRP P   5      34.030  -4.180 -31.300  1.00 31.26 LIG-0.00  A 
ATOM     47  CH2 TRP P   5      34.520  -5.593 -33.637  1.00 31.42 LIG 0.00  A 
ATOM     48  CZ3 TRP P   5      33.462  -4.670 -33.583  1.00 31.13 LIG 0.00  A 
ATOM     49  CE3 TRP P   5      33.201  -3.961 -32.415  1.00 35.06 LIG 0.01  A 
ENDBRANCH 39 40
ENDBRANCH 38 39
BRANCH 38 50
ATOM     50  C   TRP P   5      32.631  -0.688 -31.003  1.00 44.67 LIG 0.24  C 
ATOM     51 O    TRP P   5      31.440  -0.906 -31.096  1.00 47.12 LIG-0.27  OA
ATOM     52  N   GLU P   6      33.315  -0.053 -31.935  1.00 57.45 LIG-0.35  N 
ATOM     53 H    GLU P   6      34.174  -0.031 -31.961  1.00 57.45 LIG 0.16  HD
BRANCH 52 54
ATOM     54  CA  GLU P   6      32.670   0.677 -33.017  1.00 54.50 LIG 0.18  C 
BRANCH 54 55
ATOM     55  C   GLU P   6      33.694   1.357 -33.868  1.00 56.45 LIG 0.24  C 
ATOM     56 O    GLU P   6      34.139   2.496 -33.546  1.00 44.81 LIG-0.27  OA
ATOM     57  N   VAL P   7      34.063   0.669 -34.952  1.00 47.96 LIG-0.35  N 
ATOM     58 H    VAL P   7      33.899  -0.167 -35.068  1.00 47.96 LIG 0.16  HD
BRANCH 57 59
ATOM     59  CA  VAL P   7      34.777   1.290 -36.035  1.00 55.51 LIG 0.17  C 
BRANCH 59 60
ATOM     60  CB  VAL P   7      36.314   1.102 -35.862  1.00 57.72 LIG 0.01  C 
ATOM     61  CG2 VAL P   7      36.844   1.980 -34.718  1.00 57.86 LIG 0.01  C 
ATOM     62  CG1 VAL P   7      37.079   1.330 -37.169  1.00 55.94 LIG 0.01  C 
ENDBRANCH 59 60
BRANCH 59 63
ATOM     63  C   VAL P   7      34.203   0.678 -37.330  1.00 56.50 LIG 0.22  C 
ATOM     64 O    VAL P   7      34.088  -0.546 -37.457  1.00 61.93 LIG-0.29  OA
ENDBRANCH 59 63
ENDBRANCH 57 59
ENDBRANCH 54 55
BRANCH 54 65
ATOM     65  CB  GLU P   6      31.799   1.782 -32.436  1.00 55.84 LIG 0.04  C 
BRANCH 65 66
ATOM     66  CG  GLU P   6      30.523   2.020 -33.215  1.00 56.62 LIG 0.12  C 
BRANCH 66 67
ATOM     67  CD  GLU P   6      30.758   2.832 -34.476  1.00 56.54 LIG 0.17  C 
ATOM     68 OE1  GLU P   6      31.272   2.247 -35.491  1.00 46.52 LIG-0.65  OA
ATOM     69 OE2  GLU P   6      30.414   4.049 -34.409  1.00 53.74 LIG-0.65  OA
ENDBRANCH 66 67
ENDBRANCH 65 66
ENDBRANCH 54 65
ENDBRANCH 52 54
ENDBRANCH 38 50
ENDBRANCH 3 38
TORSDOF 23
ENDMDL
MODEL 26
USER: ADFR SOLUTION from run 185
USER: SCORE 19.350097 LL:  -4.817 LR: -16.905 RR:   0.000 FEB: -10.044
USER: RMSD 7.013701
USER: SEED 184
USER: STATUS no improvement in best in 9 clusters for 5 generations
USER: GENES 25
USER: genes 0 Translation |==|  0.55149 0.46725 0.63085
USER: genes 1 Rotation |==|  0.22774 0.85445 0.49807 0.72413
USER: genes 2 Torsion [N]-C--CA-[N] |==|  0.34829
USER: genes 3 Torsion [C]-CA--N-[C] |==|  0.60866
USER: genes 4 Torsion [N]-C--CA-[N] |==|  0.35209
USER: genes 5 Torsion [C]-CA--CB-[CG] |==|  0.70732
USER: genes 6 Torsion [CA]-CB--CG-[CD2] |==|  0.25676
USER: genes 7 Torsion [C]-CA--N-[C] |==|  0.66300
USER: genes 8 Torsion [N]-C--CA-[N] |==|  0.20116
USER: genes 9 Torsion [C]-CA--CB-[CG] |==|  0.81671
USER: genes 10 Torsion [CA]-CB--CG-[OD2] |==|  0.92205
USER: genes 11 Torsion [C]-CA--CB-[CG] |==|  0.77646
USER: genes 12 Torsion [CA]-CB--CG-[ND2] |==|  0.82077
USER: genes 13 Torsion [C]-N--CA-[CB] |==|  0.36203
USER: genes 14 Torsion [N]-CA--CB-[CG] |==|  0.74855
USER: genes 15 Torsion [CA]-CB--CG-[CD1] |==|  0.00966
USER: genes 16 Torsion [N]-CA--C-[N] |==|  0.76868
USER: genes 17 Torsion [C]-N--CA-[C] |==|  0.76665
USER: genes 18 Torsion [N]-CA--C-[N] |==|  0.21917
USER: genes 19 Torsion [C]-N--CA-[CB] |==|  0.38568
USER: genes 20 Torsion [N]-CA--CB-[CG2] |==|  0.97241
USER: genes 21 Torsion [N]-CA--C-[O] |==|  0.10759
USER: genes 22 Torsion [N]-CA--CB-[CG] |==|  0.82840
USER: genes 23 Torsion [CA]-CB--CG-[CD] |==|  0.31253
USER: genes 24 Torsion [CB]-CG--CD-[OE1] |==|  0.69830
ROOT
ATOM      1  C   ASN P   4      34.961  -3.182 -28.616  1.00 47.61 LIG 0.24  C 
ATOM      2 O    ASN P   4      35.847  -2.780 -29.331  1.00 46.30 LIG-0.27  OA
ATOM      3  N   TRP P   5      35.228  -3.633 -27.392  1.00 43.61 LIG-0.35  N 
ATOM      4 H    TRP P   5      34.659  -3.948 -26.829  1.00 43.61 LIG 0.16  HD
ENDROOT
BRANCH 1 5
ATOM      5  CA  ASN P   4      33.511  -3.151 -29.110  1.00 56.71 LIG 0.18  C 
BRANCH 5 6
ATOM      6  N   ASN P   4      33.172  -1.811 -29.556  1.00 58.55 LIG-0.35  N 
ATOM      7  C   TRP P   3      31.982  -1.300 -29.307  1.00 51.89 LIG 0.24  C 
ATOM      8 O    TRP P   3      31.030  -1.962 -28.891  1.00 53.51 LIG-0.27  OA
ATOM      9 H    ASN P   4      33.798  -1.402 -29.981  1.00 58.55 LIG 0.16  HD
BRANCH 7 10
ATOM     10  CA  TRP P   3      31.793   0.129 -29.650  1.00 49.09 LIG 0.18  C 
BRANCH 10 11
ATOM     11  CB  TRP P   3      31.665   0.781 -28.272  1.00 45.21 LIG 0.07  C 
BRANCH 11 12
ATOM     12  CG  TRP P   3      30.242   1.255 -27.770  1.00 38.74 LIG-0.03  A 
ATOM     13  CD1 TRP P   3      29.648   2.516 -27.895  1.00 32.85 LIG 0.10  A 
ATOM     14  NE1 TRP P   3      28.413   2.532 -27.219  1.00 33.71 LIG-0.36  N 
ATOM     15  CE2 TRP P   3      28.194   1.297 -26.668  1.00 32.42 LIG 0.04  A 
ATOM     16 HE1  TRP P   3      27.883   3.206 -27.162  1.00 33.71 LIG 0.17  HD
ATOM     17  CZ2 TRP P   3      27.130   0.852 -25.844  1.00 29.39 LIG 0.03  A 
ATOM     18  CD2 TRP P   3      29.314   0.469 -26.973  1.00 33.85 LIG-0.00  A 
ATOM     19  CH2 TRP P   3      27.179  -0.447 -25.447  1.00 25.26 LIG 0.00  A 
ATOM     20  CZ3 TRP P   3      28.239  -1.296 -25.748  1.00 33.31 LIG 0.00  A 
ATOM     21  CE3 TRP P   3      29.343  -0.835 -26.487  1.00 32.67 LIG 0.01  A 
ENDBRANCH 11 12
ENDBRANCH 10 11
BRANCH 10 22
ATOM     22  N   TRP P   3      30.592   0.403 -30.542  1.00 48.62 LIG-0.34  N 
ATOM     23 H    TRP P   3      29.847   0.144 -30.200  1.00 48.62 LIG 0.16  HD
ATOM     24  C   ASP P   2      30.676   0.995 -31.754  1.00 44.46 LIG 0.26  C 
ATOM     25 O    ASP P   2      31.788   1.231 -32.297  1.00 32.12 LIG-0.27  OA
BRANCH 24 26
ATOM     26  CA  ASP P   2      29.319   1.465 -32.460  1.00 48.39 LIG 0.41  C 
ATOM     27  N   ASP P   2      28.766   2.675 -31.760  1.00 44.52 LIG 0.61  N 
BRANCH 26 28
ATOM     28  CB  ASP P   2      29.380   1.707 -34.014  1.00 55.68 LIG 0.16  C 
BRANCH 28 29
ATOM     29  CG  ASP P   2      30.322   2.942 -34.435  1.00 65.31 LIG 0.17  C 
ATOM     30 OD2  ASP P   2      30.497   3.921 -33.625  1.00 61.23 LIG-0.65  OA
ATOM     31 OD1  ASP P   2      30.880   2.941 -35.583  1.00 59.39 LIG-0.65  OA
ENDBRANCH 28 29
ENDBRANCH 26 28
ENDBRANCH 24 26
ENDBRANCH 10 22
ENDBRANCH 7 10
ENDBRANCH 5 6
BRANCH 5 32
ATOM     32  CB  ASN P   4      33.253  -4.172 -30.252  1.00 62.15 LIG 0.14  C 
BRANCH 32 33
ATOM     33  CG  ASN P   4      33.718  -3.666 -31.614  1.00 66.74 LIG 0.22  C 
ATOM     34 OD1  ASN P   4      34.646  -4.218 -32.208  1.00 65.57 LIG-0.27  OA
ATOM     35  ND2 ASN P   4      33.093  -2.600 -32.103  1.00 62.00 LIG-0.37  N 
ATOM     36 21HD ASN P   4      33.334  -2.271 -32.861  1.00 62.00 LIG 0.16  HD
ATOM     37 22HD ASN P   4      32.450  -2.239 -31.662  1.00 62.00 LIG 0.16  HD
ENDBRANCH 32 33
ENDBRANCH 5 32
ENDBRANCH 1 5
BRANCH 3 38
ATOM     38  CA  TRP P   5      36.609  -3.592 -26.961  1.00 39.30 LIG 0.18  C 
BRANCH 38 39
ATOM     39  CB  TRP P   5      36.789  -2.943 -25.572  1.00 34.53 LIG 0.07  C 
BRANCH 39 40
ATOM     40  CG  TRP P   5      37.023  -1.468 -25.552  1.00 28.80 LIG-0.03  A 
ATOM     41  CD1 TRP P   5      37.026  -0.650 -26.624  1.00 24.67 LIG 0.10  A 
ATOM     42  NE1 TRP P   5      37.313   0.605 -26.251  1.00 28.39 LIG-0.36  N 
ATOM     43 HE1  TRP P   5      37.395   1.273 -26.787  1.00 28.39 LIG 0.17  HD
ATOM     44  CE2 TRP P   5      37.459   0.666 -24.886  1.00 28.85 LIG 0.04  A 
ATOM     45  CZ2 TRP P   5      37.691   1.743 -24.057  1.00 29.12 LIG 0.03  A 
ATOM     46  CD2 TRP P   5      37.260  -0.634 -24.402  1.00 31.26 LIG-0.00  A 
ATOM     47  CH2 TRP P   5      37.817   1.495 -22.712  1.00 31.42 LIG 0.00  A 
ATOM     48  CZ3 TRP P   5      37.716   0.193 -22.192  1.00 31.13 LIG 0.00  A 
ATOM     49  CE3 TRP P   5      37.429  -0.882 -23.027  1.00 35.06 LIG 0.01  A 
ENDBRANCH 39 40
ENDBRANCH 38 39
BRANCH 38 50
ATOM     50  C   TRP P   5      37.111  -5.017 -27.075  1.00 44.67 LIG 0.24  C 
ATOM     51 O    TRP P   5      37.732  -5.383 -28.051  1.00 47.12 LIG-0.27  OA
ATOM     52  N   GLU P   6      36.842  -5.816 -26.060  1.00 57.45 LIG-0.35  N 
ATOM     53 H    GLU P   6      36.275  -5.625 -25.442  1.00 57.45 LIG 0.16  HD
BRANCH 52 54
ATOM     54  CA  GLU P   6      37.489  -7.109 -25.890  1.00 54.50 LIG 0.18  C 
BRANCH 54 55
ATOM     55  C   GLU P   6      36.784  -8.153 -26.696  1.00 56.45 LIG 0.24  C 
ATOM     56 O    GLU P   6      35.984  -8.958 -26.139  1.00 44.81 LIG-0.27  OA
ATOM     57  N   VAL P   7      37.082  -8.146 -27.998  1.00 47.96 LIG-0.35  N 
ATOM     58 H    VAL P   7      37.476  -7.494 -28.396  1.00 47.96 LIG 0.16  HD
BRANCH 57 59
ATOM     59  CA  VAL P   7      36.760  -9.257 -28.853  1.00 55.51 LIG 0.17  C 
BRANCH 59 60
ATOM     60  CB  VAL P   7      36.224  -8.757 -30.228  1.00 57.72 LIG 0.01  C 
ATOM     61  CG2 VAL P   7      35.961  -7.244 -30.191  1.00 57.86 LIG 0.01  C 
ATOM     62  CG1 VAL P   7      34.998  -9.547 -30.697  1.00 55.94 LIG 0.01  C 
ENDBRANCH 59 60
BRANCH 59 63
ATOM     63  C   VAL P   7      38.041 -10.112 -28.942  1.00 56.50 LIG 0.22  C 
ATOM     64 O    VAL P   7      38.762 -10.280 -27.953  1.00 61.93 LIG-0.29  OA
ENDBRANCH 59 63
ENDBRANCH 57 59
ENDBRANCH 54 55
BRANCH 54 65
ATOM     65  CB  GLU P   6      37.376  -7.547 -24.436  1.00 55.84 LIG 0.04  C 
BRANCH 65 66
ATOM     66  CG  GLU P   6      38.062  -6.608 -23.467  1.00 56.62 LIG 0.12  C 
BRANCH 66 67
ATOM     67  CD  GLU P   6      37.075  -5.884 -22.567  1.00 56.54 LIG 0.17  C 
ATOM     68 OE1  GLU P   6      36.879  -4.634 -22.759  1.00 46.52 LIG-0.65  OA
ATOM     69 OE2  GLU P   6      36.518  -6.602 -21.685  1.00 53.74 LIG-0.65  OA
ENDBRANCH 66 67
ENDBRANCH 65 66
ENDBRANCH 54 65
ENDBRANCH 52 54
ENDBRANCH 38 50
ENDBRANCH 3 38
TORSDOF 23
ENDMDL
MODEL 27
USER: ADFR SOLUTION from run 18
USER: SCORE 20.235216 LL:  -4.509 LR: -16.895 RR:   0.000 FEB: -10.034
USER: RMSD 11.383139
USER: SEED 17
USER: STATUS no improvement in best in 10 clusters for 5 generations
USER: GENES 25
USER: genes 0 Translation |==|  0.51180 0.43061 0.52911
USER: genes 1 Rotation |==|  0.75813 0.56652 0.10891 0.66122
USER: genes 2 Torsion [N]-C--CA-[N] |==|  0.37887
USER: genes 3 Torsion [C]-CA--N-[C] |==|  0.82601
USER: genes 4 Torsion [N]-C--CA-[N] |==|  0.10766
USER: genes 5 Torsion [C]-CA--CB-[CG] |==|  0.51640
USER: genes 6 Torsion [CA]-CB--CG-[CD2] |==|  0.56651
USER: genes 7 Torsion [C]-CA--N-[C] |==|  0.17607
USER: genes 8 Torsion [N]-C--CA-[N] |==|  0.05878
USER: genes 9 Torsion [C]-CA--CB-[CG] |==|  0.57522
USER: genes 10 Torsion [CA]-CB--CG-[OD2] |==|  0.43925
USER: genes 11 Torsion [C]-CA--CB-[CG] |==|  0.96480
USER: genes 12 Torsion [CA]-CB--CG-[ND2] |==|  0.25087
USER: genes 13 Torsion [C]-N--CA-[CB] |==|  0.22578
USER: genes 14 Torsion [N]-CA--CB-[CG] |==|  0.38678
USER: genes 15 Torsion [CA]-CB--CG-[CD1] |==|  0.79380
USER: genes 16 Torsion [N]-CA--C-[N] |==|  0.88333
USER: genes 17 Torsion [C]-N--CA-[C] |==|  0.73439
USER: genes 18 Torsion [N]-CA--C-[N] |==|  0.23960
USER: genes 19 Torsion [C]-N--CA-[CB] |==|  0.16926
USER: genes 20 Torsion [N]-CA--CB-[CG2] |==|  0.69048
USER: genes 21 Torsion [N]-CA--C-[O] |==|  0.16136
USER: genes 22 Torsion [N]-CA--CB-[CG] |==|  0.47916
USER: genes 23 Torsion [CA]-CB--CG-[CD] |==|  0.13444
USER: genes 24 Torsion [CB]-CG--CD-[OE1] |==|  0.09494
ROOT
ATOM      1  C   ASN P   4      34.128  -4.034 -30.753  1.00 47.61 LIG 0.24  C 
ATOM      2 O    ASN P   4      33.130  -4.603 -30.381  1.00 46.30 LIG-0.27  OA
ATOM      3  N   TRP P   5      34.163  -2.705 -30.833  1.00 43.61 LIG-0.35  N 
ATOM      4 H    TRP P   5      34.827  -2.229 -31.101  1.00 43.61 LIG 0.16  HD
ENDROOT
BRANCH 1 5
ATOM      5  CA  ASN P   4      35.377  -4.846 -31.112  1.00 56.71 LIG 0.18  C 
BRANCH 5 6
ATOM      6  N   ASN P   4      35.579  -5.898 -30.131  1.00 58.55 LIG-0.35  N 
ATOM      7  C   TRP P   3      35.812  -5.605 -28.867  1.00 51.89 LIG 0.24  C 
ATOM      8 O    TRP P   3      36.085  -4.470 -28.470  1.00 53.51 LIG-0.27  OA
ATOM      9 H    ASN P   4      35.534  -6.698 -30.445  1.00 58.55 LIG 0.16  HD
BRANCH 7 10
ATOM     10  CA  TRP P   3      35.834  -6.743 -27.919  1.00 49.09 LIG 0.18  C 
BRANCH 10 11
ATOM     11  CB  TRP P   3      36.589  -6.157 -26.724  1.00 45.21 LIG 0.07  C 
BRANCH 11 12
ATOM     12  CG  TRP P   3      36.966  -7.100 -25.511  1.00 38.74 LIG-0.03  A 
ATOM     13  CD1 TRP P   3      37.030  -8.498 -25.478  1.00 32.85 LIG 0.10  A 
ATOM     14  NE1 TRP P   3      37.309  -8.933 -24.169  1.00 33.71 LIG-0.36  N 
ATOM     15  CE2 TRP P   3      37.438  -7.838 -23.356  1.00 32.42 LIG 0.04  A 
ATOM     16 HE1  TRP P   3      37.387  -9.752 -23.920  1.00 33.71 LIG 0.17  HD
ATOM     17  CZ2 TRP P   3      37.650  -7.773 -21.956  1.00 29.39 LIG 0.03  A 
ATOM     18  CD2 TRP P   3      37.219  -6.671 -24.144  1.00 33.85 LIG-0.00  A 
ATOM     19  CH2 TRP P   3      37.742  -6.528 -21.419  1.00 25.26 LIG 0.00  A 
ATOM     20  CZ3 TRP P   3      37.565  -5.364 -22.159  1.00 33.31 LIG 0.00  A 
ATOM     21  CE3 TRP P   3      37.262  -5.422 -23.531  1.00 32.67 LIG 0.01  A 
ENDBRANCH 11 12
ENDBRANCH 10 11
BRANCH 10 22
ATOM     22  N   TRP P   3      36.490  -8.000 -28.468  1.00 48.62 LIG-0.34  N 
ATOM     23 H    TRP P   3      35.950  -8.667 -28.532  1.00 48.62 LIG 0.16  HD
ATOM     24  C   ASP P   2      37.791  -8.076 -28.823  1.00 44.46 LIG 0.26  C 
ATOM     25 O    ASP P   2      38.595  -7.136 -28.582  1.00 32.12 LIG-0.27  OA
BRANCH 24 26
ATOM     26  CA  ASP P   2      38.280  -9.366 -29.633  1.00 48.39 LIG 0.41  C 
ATOM     27  N   ASP P   2      37.109 -10.032 -30.299  1.00 44.52 LIG 0.61  N 
BRANCH 26 28
ATOM     28  CB  ASP P   2      39.450  -9.149 -30.664  1.00 55.68 LIG 0.16  C 
BRANCH 28 29
ATOM     29  CG  ASP P   2      39.438 -10.204 -31.880  1.00 65.31 LIG 0.17  C 
ATOM     30 OD2  ASP P   2      40.031  -9.921 -32.981  1.00 61.23 LIG-0.65  OA
ATOM     31 OD1  ASP P   2      38.822 -11.313 -31.739  1.00 59.39 LIG-0.65  OA
ENDBRANCH 28 29
ENDBRANCH 26 28
ENDBRANCH 24 26
ENDBRANCH 10 22
ENDBRANCH 7 10
ENDBRANCH 5 6
BRANCH 5 32
ATOM     32  CB  ASN P   4      35.295  -5.458 -32.537  1.00 62.15 LIG 0.14  C 
BRANCH 32 33
ATOM     33  CG  ASN P   4      33.894  -5.381 -33.135  1.00 66.74 LIG 0.22  C 
ATOM     34 OD1  ASN P   4      33.090  -6.302 -32.976  1.00 65.57 LIG-0.27  OA
ATOM     35  ND2 ASN P   4      33.603  -4.296 -33.844  1.00 62.00 LIG-0.37  N 
ATOM     36 21HD ASN P   4      32.829  -4.218 -34.212  1.00 62.00 LIG 0.16  HD
ATOM     37 22HD ASN P   4      34.187  -3.672 -33.934  1.00 62.00 LIG 0.16  HD
ENDBRANCH 32 33
ENDBRANCH 5 32
ENDBRANCH 1 5
BRANCH 3 38
ATOM     38  CA  TRP P   5      32.971  -1.989 -30.434  1.00 39.30 LIG 0.18  C 
BRANCH 38 39
ATOM     39  CB  TRP P   5      32.858  -1.810 -28.905  1.00 34.53 LIG 0.07  C 
BRANCH 39 40
ATOM     40  CG  TRP P   5      32.369  -0.482 -28.425  1.00 28.80 LIG-0.03  A 
ATOM     41  CD1 TRP P   5      33.073   0.668 -28.418  1.00 24.67 LIG 0.10  A 
ATOM     42  NE1 TRP P   5      32.345   1.656 -27.880  1.00 28.39 LIG-0.36  N 
ATOM     43 HE1  TRP P   5      32.621   2.461 -27.755  1.00 28.39 LIG 0.17  HD
ATOM     44  CE2 TRP P   5      31.093   1.193 -27.557  1.00 28.85 LIG 0.04  A 
ATOM     45  CZ2 TRP P   5      29.997   1.854 -27.044  1.00 29.12 LIG 0.03  A 
ATOM     46  CD2 TRP P   5      31.063  -0.164 -27.909  1.00 31.26 LIG-0.00  A 
ATOM     47  CH2 TRP P   5      28.867   1.114 -26.795  1.00 31.42 LIG 0.00  A 
ATOM     48  CZ3 TRP P   5      28.822  -0.267 -27.048  1.00 31.13 LIG 0.00  A 
ATOM     49  CE3 TRP P   5      29.913  -0.919 -27.614  1.00 35.06 LIG 0.01  A 
ENDBRANCH 39 40
ENDBRANCH 38 39
BRANCH 38 50
ATOM     50  C   TRP P   5      32.985  -0.702 -31.233  1.00 44.67 LIG 0.24  C 
ATOM     51 O    TRP P   5      31.968  -0.265 -31.730  1.00 47.12 LIG-0.27  OA
ATOM     52  N   GLU P   6      34.151  -0.094 -31.344  1.00 57.45 LIG-0.35  N 
ATOM     53 H    GLU P   6      34.901  -0.463 -31.140  1.00 57.45 LIG 0.16  HD
BRANCH 52 54
ATOM     54  CA  GLU P   6      34.277   1.273 -31.827  1.00 54.50 LIG 0.18  C 
BRANCH 54 55
ATOM     55  C   GLU P   6      34.581   1.282 -33.291  1.00 56.45 LIG 0.24  C 
ATOM     56 O    GLU P   6      35.777   1.343 -33.695  1.00 44.81 LIG-0.27  OA
ATOM     57  N   VAL P   7      33.507   1.228 -34.082  1.00 47.96 LIG-0.35  N 
ATOM     58 H    VAL P   7      32.722   1.005 -33.811  1.00 47.96 LIG 0.16  HD
BRANCH 57 59
ATOM     59  CA  VAL P   7      33.582   1.549 -35.483  1.00 55.51 LIG 0.17  C 
BRANCH 59 60
ATOM     60  CB  VAL P   7      34.560   0.582 -36.218  1.00 57.72 LIG 0.01  C 
ATOM     61  CG2 VAL P   7      35.819   1.332 -36.680  1.00 57.86 LIG 0.01  C 
ATOM     62  CG1 VAL P   7      33.880  -0.171 -37.365  1.00 55.94 LIG 0.01  C 
ENDBRANCH 59 60
BRANCH 59 63
ATOM     63  C   VAL P   7      32.132   1.507 -36.008  1.00 56.50 LIG 0.22  C 
ATOM     64 O    VAL P   7      31.258   2.229 -35.517  1.00 61.93 LIG-0.29  OA
ENDBRANCH 59 63
ENDBRANCH 57 59
ENDBRANCH 54 55
BRANCH 54 65
ATOM     65  CB  GLU P   6      35.459   1.947 -31.144  1.00 55.84 LIG 0.04  C 
BRANCH 65 66
ATOM     66  CG  GLU P   6      35.787   3.313 -31.708  1.00 56.62 LIG 0.12  C 
BRANCH 66 67
ATOM     67  CD  GLU P   6      34.557   4.194 -31.838  1.00 56.54 LIG 0.17  C 
ATOM     68 OE1  GLU P   6      33.630   4.081 -30.963  1.00 46.52 LIG-0.65  OA
ATOM     69 OE2  GLU P   6      34.559   4.985 -32.827  1.00 53.74 LIG-0.65  OA
ENDBRANCH 66 67
ENDBRANCH 65 66
ENDBRANCH 54 65
ENDBRANCH 52 54
ENDBRANCH 38 50
ENDBRANCH 3 38
TORSDOF 23
ENDMDL
MODEL 28
USER: ADFR SOLUTION from run 88
USER: SCORE 21.164343 LL:  -5.826 LR: -16.837 RR:   0.000 FEB:  -9.976
USER: RMSD 7.709123
USER: SEED 87
USER: STATUS no improvement in best in 15 clusters for 5 generations
USER: GENES 25
USER: genes 0 Translation |==|  0.50009 0.45595 0.59561
USER: genes 1 Rotation |==|  0.56701 0.27459 0.90861 0.66655
USER: genes 2 Torsion [N]-C--CA-[N] |==|  0.87778
USER: genes 3 Torsion [C]-CA--N-[C] |==|  0.79049
USER: genes 4 Torsion [N]-C--CA-[N] |==|  0.25687
USER: genes 5 Torsion [C]-CA--CB-[CG] |==|  0.70425
USER: genes 6 Torsion [CA]-CB--CG-[CD2] |==|  0.27618
USER: genes 7 Torsion [C]-CA--N-[C] |==|  0.70782
USER: genes 8 Torsion [N]-C--CA-[N] |==|  0.16150
USER: genes 9 Torsion [C]-CA--CB-[CG] |==|  0.80102
USER: genes 10 Torsion [CA]-CB--CG-[OD2] |==|  0.46060
USER: genes 11 Torsion [C]-CA--CB-[CG] |==|  0.08340
USER: genes 12 Torsion [CA]-CB--CG-[ND2] |==|  0.77875
USER: genes 13 Torsion [C]-N--CA-[CB] |==|  0.20377
USER: genes 14 Torsion [N]-CA--CB-[CG] |==|  0.72713
USER: genes 15 Torsion [CA]-CB--CG-[CD1] |==|  0.87046
USER: genes 16 Torsion [N]-CA--C-[N] |==|  0.85886
USER: genes 17 Torsion [C]-N--CA-[C] |==|  0.66060
USER: genes 18 Torsion [N]-CA--C-[N] |==|  0.92671
USER: genes 19 Torsion [C]-N--CA-[CB] |==|  0.30000
USER: genes 20 Torsion [N]-CA--CB-[CG2] |==|  0.31497
USER: genes 21 Torsion [N]-CA--C-[O] |==|  0.88516
USER: genes 22 Torsion [N]-CA--CB-[CG] |==|  0.78684
USER: genes 23 Torsion [CA]-CB--CG-[CD] |==|  0.34701
USER: genes 24 Torsion [CB]-CG--CD-[OE1] |==|  0.53686
ROOT
ATOM      1  C   ASN P   4      33.882  -3.445 -29.356  1.00 47.61 LIG 0.24  C 
ATOM      2 O    ASN P   4      33.794  -4.308 -28.518  1.00 46.30 LIG-0.27  OA
ATOM      3  N   TRP P   5      34.921  -2.613 -29.368  1.00 43.61 LIG-0.35  N 
ATOM      4 H    TRP P   5      35.049  -1.966 -29.921  1.00 43.61 LIG 0.16  HD
ENDROOT
BRANCH 1 5
ATOM      5  CA  ASN P   4      32.801  -3.320 -30.435  1.00 56.71 LIG 0.18  C 
BRANCH 5 6
ATOM      6  N   ASN P   4      32.463  -1.922 -30.633  1.00 58.55 LIG-0.35  N 
ATOM      7  C   TRP P   3      31.719  -1.278 -29.756  1.00 51.89 LIG 0.24  C 
ATOM      8 O    TRP P   3      31.093  -1.836 -28.853  1.00 53.51 LIG-0.27  OA
ATOM      9 H    ASN P   4      32.783  -1.571 -31.351  1.00 58.55 LIG 0.16  HD
BRANCH 7 10
ATOM     10  CA  TRP P   3      31.573   0.183 -29.960  1.00 49.09 LIG 0.18  C 
BRANCH 10 11
ATOM     11  CB  TRP P   3      31.509   0.708 -28.525  1.00 45.21 LIG 0.07  C 
BRANCH 11 12
ATOM     12  CG  TRP P   3      30.124   1.206 -27.945  1.00 38.74 LIG-0.03  A 
ATOM     13  CD1 TRP P   3      29.538   2.473 -28.051  1.00 32.85 LIG 0.10  A 
ATOM     14  NE1 TRP P   3      28.347   2.512 -27.303  1.00 33.71 LIG-0.36  N 
ATOM     15  CE2 TRP P   3      28.147   1.289 -26.722  1.00 32.42 LIG 0.04  A 
ATOM     16 HE1  TRP P   3      27.829   3.194 -27.224  1.00 33.71 LIG 0.17  HD
ATOM     17  CZ2 TRP P   3      27.130   0.868 -25.829  1.00 29.39 LIG 0.03  A 
ATOM     18  CD2 TRP P   3      29.237   0.443 -27.081  1.00 33.85 LIG-0.00  A 
ATOM     19  CH2 TRP P   3      27.188  -0.426 -25.417  1.00 25.26 LIG 0.00  A 
ATOM     20  CZ3 TRP P   3      28.218  -1.292 -25.769  1.00 33.31 LIG 0.00  A 
ATOM     21  CE3 TRP P   3      29.281  -0.855 -26.579  1.00 32.67 LIG 0.01  A 
ENDBRANCH 11 12
ENDBRANCH 10 11
BRANCH 10 22
ATOM     22  N   TRP P   3      30.358   0.580 -30.785  1.00 48.62 LIG-0.34  N 
ATOM     23 H    TRP P   3      29.617   0.518 -30.353  1.00 48.62 LIG 0.16  HD
ATOM     24  C   ASP P   2      30.424   0.993 -32.070  1.00 44.46 LIG 0.26  C 
ATOM     25 O    ASP P   2      31.499   0.936 -32.726  1.00 32.12 LIG-0.27  OA
BRANCH 24 26
ATOM     26  CA  ASP P   2      29.113   1.635 -32.725  1.00 48.39 LIG 0.41  C 
ATOM     27  N   ASP P   2      28.671   2.831 -31.930  1.00 44.52 LIG 0.61  N 
BRANCH 26 28
ATOM     28  CB  ASP P   2      29.192   1.990 -34.257  1.00 55.68 LIG 0.16  C 
BRANCH 28 29
ATOM     29  CG  ASP P   2      30.130   3.259 -34.573  1.00 65.31 LIG 0.17  C 
ATOM     30 OD2  ASP P   2      30.505   3.496 -35.776  1.00 61.23 LIG-0.65  OA
ATOM     31 OD1  ASP P   2      30.503   4.015 -33.615  1.00 59.39 LIG-0.65  OA
ENDBRANCH 28 29
ENDBRANCH 26 28
ENDBRANCH 24 26
ENDBRANCH 10 22
ENDBRANCH 7 10
ENDBRANCH 5 6
BRANCH 5 32
ATOM     32  CB  ASN P   4      33.234  -3.958 -31.783  1.00 62.15 LIG 0.14  C 
BRANCH 32 33
ATOM     33  CG  ASN P   4      34.194  -5.130 -31.602  1.00 66.74 LIG 0.22  C 
ATOM     34 OD1  ASN P   4      33.783  -6.291 -31.645  1.00 65.57 LIG-0.27  OA
ATOM     35  ND2 ASN P   4      35.468  -4.832 -31.375  1.00 62.00 LIG-0.37  N 
ATOM     36 21HD ASN P   4      36.041  -5.462 -31.251  1.00 62.00 LIG 0.16  HD
ATOM     37 22HD ASN P   4      35.720  -4.011 -31.352  1.00 62.00 LIG 0.16  HD
ENDBRANCH 32 33
ENDBRANCH 5 32
ENDBRANCH 1 5
BRANCH 3 38
ATOM     38  CA  TRP P   5      35.936  -2.810 -28.356  1.00 39.30 LIG 0.18  C 
BRANCH 38 39
ATOM     39  CB  TRP P   5      36.815  -4.051 -28.617  1.00 34.53 LIG 0.07  C 
BRANCH 39 40
ATOM     40  CG  TRP P   5      36.452  -5.294 -27.871  1.00 28.80 LIG-0.03  A 
ATOM     41  CD1 TRP P   5      36.172  -5.375 -26.554  1.00 24.67 LIG 0.10  A 
ATOM     42  NE1 TRP P   5      35.931  -6.648 -26.208  1.00 28.39 LIG-0.36  N 
ATOM     43 HE1  TRP P   5      35.762  -6.919 -25.409  1.00 28.39 LIG 0.17  HD
ATOM     44  CE2 TRP P   5      35.992  -7.455 -27.318  1.00 28.85 LIG 0.04  A 
ATOM     45  CZ2 TRP P   5      35.755  -8.806 -27.458  1.00 29.12 LIG 0.03  A 
ATOM     46  CD2 TRP P   5      36.303  -6.623 -28.403  1.00 31.26 LIG-0.00  A 
ATOM     47  CH2 TRP P   5      35.920  -9.354 -28.706  1.00 31.42 LIG 0.00  A 
ATOM     48  CZ3 TRP P   5      36.319  -8.575 -29.805  1.00 31.13 LIG 0.00  A 
ATOM     49  CE3 TRP P   5      36.506  -7.203 -29.669  1.00 35.06 LIG 0.01  A 
ENDBRANCH 39 40
ENDBRANCH 38 39
BRANCH 38 50
ATOM     50  C   TRP P   5      36.686  -1.496 -28.273  1.00 44.67 LIG 0.24  C 
ATOM     51 O    TRP P   5      36.875  -0.953 -27.204  1.00 47.12 LIG-0.27  OA
ATOM     52  N   GLU P   6      37.119  -0.995 -29.414  1.00 57.45 LIG-0.35  N 
ATOM     53 H    GLU P   6      36.860  -1.277 -30.185  1.00 57.45 LIG 0.16  HD
BRANCH 52 54
ATOM     54  CA  GLU P   6      38.085   0.092 -29.475  1.00 54.50 LIG 0.18  C 
BRANCH 54 55
ATOM     55  C   GLU P   6      37.518   1.250 -30.232  1.00 56.45 LIG 0.24  C 
ATOM     56 O    GLU P   6      37.922   2.425 -29.999  1.00 44.81 LIG-0.27  OA
ATOM     57  N   VAL P   7      36.584   0.924 -31.129  1.00 47.96 LIG-0.35  N 
ATOM     58 H    VAL P   7      36.447   0.123 -31.410  1.00 47.96 LIG 0.16  HD
BRANCH 57 59
ATOM     59  CA  VAL P   7      35.714   1.913 -31.707  1.00 55.51 LIG 0.17  C 
BRANCH 59 60
ATOM     60  CB  VAL P   7      36.090   2.176 -33.197  1.00 57.72 LIG 0.01  C 
ATOM     61  CG2 VAL P   7      34.969   1.699 -34.133  1.00 57.86 LIG 0.01  C 
ATOM     62  CG1 VAL P   7      37.449   1.575 -33.568  1.00 55.94 LIG 0.01  C 
ENDBRANCH 59 60
BRANCH 59 63
ATOM     63  C   VAL P   7      34.277   1.392 -31.497  1.00 56.50 LIG 0.22  C 
ATOM     64 O    VAL P   7      34.005   0.198 -31.661  1.00 61.93 LIG-0.29  OA
ENDBRANCH 59 63
ENDBRANCH 57 59
ENDBRANCH 54 55
BRANCH 54 65
ATOM     65  CB  GLU P   6      39.314  -0.363 -30.249  1.00 55.84 LIG 0.04  C 
BRANCH 65 66
ATOM     66  CG  GLU P   6      40.232  -1.266 -29.453  1.00 56.62 LIG 0.12  C 
BRANCH 66 67
ATOM     67  CD  GLU P   6      40.499  -2.584 -30.157  1.00 56.54 LIG 0.17  C 
ATOM     68 OE1  GLU P   6      41.040  -3.533 -29.489  1.00 46.52 LIG-0.65  OA
ATOM     69 OE2  GLU P   6      40.152  -2.630 -31.374  1.00 53.74 LIG-0.65  OA
ENDBRANCH 66 67
ENDBRANCH 65 66
ENDBRANCH 54 65
ENDBRANCH 52 54
ENDBRANCH 38 50
ENDBRANCH 3 38
TORSDOF 23
ENDMDL
MODEL 29
USER: ADFR SOLUTION from run 87
USER: SCORE 20.607197 LL:  -5.507 LR: -16.801 RR:   0.000 FEB:  -9.940
USER: RMSD 7.989530
USER: SEED 86
USER: STATUS no improvement in best in 10 clusters for 5 generations
USER: GENES 25
USER: genes 0 Translation |==|  0.50702 0.45713 0.59305
USER: genes 1 Rotation |==|  0.54002 0.27544 0.91553 0.65907
USER: genes 2 Torsion [N]-C--CA-[N] |==|  0.86111
USER: genes 3 Torsion [C]-CA--N-[C] |==|  0.80986
USER: genes 4 Torsion [N]-C--CA-[N] |==|  0.25556
USER: genes 5 Torsion [C]-CA--CB-[CG] |==|  0.69427
USER: genes 6 Torsion [CA]-CB--CG-[CD2] |==|  0.27714
USER: genes 7 Torsion [C]-CA--N-[C] |==|  0.67282
USER: genes 8 Torsion [N]-C--CA-[N] |==|  0.18720
USER: genes 9 Torsion [C]-CA--CB-[CG] |==|  0.81922
USER: genes 10 Torsion [CA]-CB--CG-[OD2] |==|  0.95966
USER: genes 11 Torsion [C]-CA--CB-[CG] |==|  0.11562
USER: genes 12 Torsion [CA]-CB--CG-[ND2] |==|  0.76667
USER: genes 13 Torsion [C]-N--CA-[CB] |==|  0.17552
USER: genes 14 Torsion [N]-CA--CB-[CG] |==|  0.63639
USER: genes 15 Torsion [CA]-CB--CG-[CD1] |==|  0.36685
USER: genes 16 Torsion [N]-CA--C-[N] |==|  0.88817
USER: genes 17 Torsion [C]-N--CA-[C] |==|  0.66126
USER: genes 18 Torsion [N]-CA--C-[N] |==|  0.94638
USER: genes 19 Torsion [C]-N--CA-[CB] |==|  0.33372
USER: genes 20 Torsion [N]-CA--CB-[CG2] |==|  0.68096
USER: genes 21 Torsion [N]-CA--C-[O] |==|  0.98857
USER: genes 22 Torsion [N]-CA--CB-[CG] |==|  0.88854
USER: genes 23 Torsion [CA]-CB--CG-[CD] |==|  0.59406
USER: genes 24 Torsion [CB]-CG--CD-[OE1] |==|  0.92335
ROOT
ATOM      1  C   ASN P   4      34.028  -3.418 -29.410  1.00 47.61 LIG 0.24  C 
ATOM      2 O    ASN P   4      33.839  -4.239 -28.546  1.00 46.30 LIG-0.27  OA
ATOM      3  N   TRP P   5      35.077  -2.599 -29.352  1.00 43.61 LIG-0.35  N 
ATOM      4 H    TRP P   5      35.272  -1.981 -29.917  1.00 43.61 LIG 0.16  HD
ENDROOT
BRANCH 1 5
ATOM      5  CA  ASN P   4      33.067  -3.331 -30.600  1.00 56.71 LIG 0.18  C 
BRANCH 5 6
ATOM      6  N   ASN P   4      32.663  -1.952 -30.809  1.00 58.55 LIG-0.35  N 
ATOM      7  C   TRP P   3      31.894  -1.335 -29.933  1.00 51.89 LIG 0.24  C 
ATOM      8 O    TRP P   3      31.300  -1.914 -29.022  1.00 53.51 LIG-0.27  OA
ATOM      9 H    ASN P   4      32.964  -1.593 -31.531  1.00 58.55 LIG 0.16  HD
BRANCH 7 10
ATOM     10  CA  TRP P   3      31.681   0.115 -30.149  1.00 49.09 LIG 0.18  C 
BRANCH 10 11
ATOM     11  CB  TRP P   3      31.587   0.647 -28.717  1.00 45.21 LIG 0.07  C 
BRANCH 11 12
ATOM     12  CG  TRP P   3      30.194   1.163 -28.174  1.00 38.74 LIG-0.03  A 
ATOM     13  CD1 TRP P   3      29.623   2.434 -28.306  1.00 32.85 LIG 0.10  A 
ATOM     14  NE1 TRP P   3      28.415   2.492 -27.586  1.00 33.71 LIG-0.36  N 
ATOM     15  CE2 TRP P   3      28.191   1.276 -26.998  1.00 32.42 LIG 0.04  A 
ATOM     16 HE1  TRP P   3      27.902   3.180 -27.525  1.00 33.71 LIG 0.17  HD
ATOM     17  CZ2 TRP P   3      27.149   0.873 -26.125  1.00 29.39 LIG 0.03  A 
ATOM     18  CD2 TRP P   3      29.280   0.417 -27.324  1.00 33.85 LIG-0.00  A 
ATOM     19  CH2 TRP P   3      27.186  -0.417 -25.699  1.00 25.26 LIG 0.00  A 
ATOM     20  CZ3 TRP P   3      28.215  -1.296 -26.020  1.00 33.31 LIG 0.00  A 
ATOM     21  CE3 TRP P   3      29.300  -0.877 -26.809  1.00 32.67 LIG 0.01  A 
ENDBRANCH 11 12
ENDBRANCH 10 11
BRANCH 10 22
ATOM     22  N   TRP P   3      30.452   0.449 -30.980  1.00 48.62 LIG-0.34  N 
ATOM     23 H    TRP P   3      29.714   0.194 -30.616  1.00 48.62 LIG 0.16  HD
ATOM     24  C   ASP P   2      30.500   1.081 -32.173  1.00 44.46 LIG 0.26  C 
ATOM     25 O    ASP P   2      31.594   1.312 -32.753  1.00 32.12 LIG-0.27  OA
BRANCH 24 26
ATOM     26  CA  ASP P   2      29.127   1.608 -32.804  1.00 48.39 LIG 0.41  C 
ATOM     27  N   ASP P   2      28.569   2.726 -31.968  1.00 44.52 LIG 0.61  N 
BRANCH 26 28
ATOM     28  CB  ASP P   2      29.162   2.021 -34.323  1.00 55.68 LIG 0.16  C 
BRANCH 28 29
ATOM     29  CG  ASP P   2      30.101   3.293 -34.620  1.00 65.31 LIG 0.17  C 
ATOM     30 OD2  ASP P   2      30.505   4.033 -33.654  1.00 61.23 LIG-0.65  OA
ATOM     31 OD1  ASP P   2      30.427   3.563 -35.825  1.00 59.39 LIG-0.65  OA
ENDBRANCH 28 29
ENDBRANCH 26 28
ENDBRANCH 24 26
ENDBRANCH 10 22
ENDBRANCH 7 10
ENDBRANCH 5 6
BRANCH 5 32
ATOM     32  CB  ASN P   4      33.686  -3.906 -31.904  1.00 62.15 LIG 0.14  C 
BRANCH 32 33
ATOM     33  CG  ASN P   4      34.470  -5.193 -31.669  1.00 66.74 LIG 0.22  C 
ATOM     34 OD1  ASN P   4      33.935  -6.293 -31.826  1.00 65.57 LIG-0.27  OA
ATOM     35  ND2 ASN P   4      35.729  -5.065 -31.268  1.00 62.00 LIG-0.37  N 
ATOM     36 21HD ASN P   4      36.203  -5.765 -31.107  1.00 62.00 LIG 0.16  HD
ATOM     37 22HD ASN P   4      36.071  -4.282 -31.168  1.00 62.00 LIG 0.16  HD
ENDBRANCH 32 33
ENDBRANCH 5 32
ENDBRANCH 1 5
BRANCH 3 38
ATOM     38  CA  TRP P   5      35.977  -2.760 -28.231  1.00 39.30 LIG 0.18  C 
BRANCH 38 39
ATOM     39  CB  TRP P   5      36.675  -4.136 -28.211  1.00 34.53 LIG 0.07  C 
BRANCH 39 40
ATOM     40  CG  TRP P   5      36.643  -4.880 -26.915  1.00 28.80 LIG-0.03  A 
ATOM     41  CD1 TRP P   5      36.310  -6.177 -26.752  1.00 24.67 LIG 0.10  A 
ATOM     42  NE1 TRP P   5      36.345  -6.506 -25.453  1.00 28.39 LIG-0.36  N 
ATOM     43 HE1  TRP P   5      36.136  -7.278 -25.134  1.00 28.39 LIG 0.17  HD
ATOM     44  CE2 TRP P   5      36.763  -5.431 -24.708  1.00 28.85 LIG 0.04  A 
ATOM     45  CZ2 TRP P   5      37.008  -5.318 -23.356  1.00 29.12 LIG 0.03  A 
ATOM     46  CD2 TRP P   5      36.983  -4.379 -25.608  1.00 31.26 LIG-0.00  A 
ATOM     47  CH2 TRP P   5      37.400  -4.091 -22.881  1.00 31.42 LIG 0.00  A 
ATOM     48  CZ3 TRP P   5      37.546  -2.984 -23.735  1.00 31.13 LIG 0.00  A 
ATOM     49  CE3 TRP P   5      37.348  -3.117 -25.105  1.00 35.06 LIG 0.01  A 
ENDBRANCH 39 40
ENDBRANCH 38 39
BRANCH 38 50
ATOM     50  C   TRP P   5      36.910  -1.567 -28.286  1.00 44.67 LIG 0.24  C 
ATOM     51 O    TRP P   5      37.254  -0.997 -27.271  1.00 47.12 LIG-0.27  OA
ATOM     52  N   GLU P   6      37.322  -1.200 -29.485  1.00 57.45 LIG-0.35  N 
ATOM     53 H    GLU P   6      36.968  -1.484 -30.216  1.00 57.45 LIG 0.16  HD
BRANCH 52 54
ATOM     54  CA  GLU P   6      38.424  -0.271 -29.682  1.00 54.50 LIG 0.18  C 
BRANCH 54 55
ATOM     55  C   GLU P   6      37.970   0.915 -30.472  1.00 56.45 LIG 0.24  C 
ATOM     56 O    GLU P   6      38.632   1.992 -30.446  1.00 44.81 LIG-0.27  OA
ATOM     57  N   VAL P   7      36.844   0.725 -31.165  1.00 47.96 LIG-0.35  N 
ATOM     58 H    VAL P   7      36.504  -0.049 -31.324  1.00 47.96 LIG 0.16  HD
BRANCH 57 59
ATOM     59  CA  VAL P   7      36.096   1.826 -31.710  1.00 55.51 LIG 0.17  C 
BRANCH 59 60
ATOM     60  CB  VAL P   7      35.988   1.705 -33.260  1.00 57.72 LIG 0.01  C 
ATOM     61  CG2 VAL P   7      36.733   2.860 -33.949  1.00 57.86 LIG 0.01  C 
ATOM     62  CG1 VAL P   7      34.536   1.588 -33.734  1.00 55.94 LIG 0.01  C 
ENDBRANCH 59 60
BRANCH 59 63
ATOM     63  C   VAL P   7      34.739   1.824 -30.976  1.00 56.50 LIG 0.22  C 
ATOM     64 O    VAL P   7      34.457   0.935 -30.165  1.00 61.93 LIG-0.29  OA
ENDBRANCH 59 63
ENDBRANCH 57 59
ENDBRANCH 54 55
BRANCH 54 65
ATOM     65  CB  GLU P   6      39.512  -0.941 -30.510  1.00 55.84 LIG 0.04  C 
BRANCH 65 66
ATOM     66  CG  GLU P   6      39.746  -2.391 -30.141  1.00 56.62 LIG 0.12  C 
BRANCH 66 67
ATOM     67  CD  GLU P   6      41.202  -2.797 -30.290  1.00 56.54 LIG 0.17  C 
ATOM     68 OE1  GLU P   6      41.923  -2.177 -31.146  1.00 46.52 LIG-0.65  OA
ATOM     69 OE2  GLU P   6      41.583  -3.737 -29.531  1.00 53.74 LIG-0.65  OA
ENDBRANCH 66 67
ENDBRANCH 65 66
ENDBRANCH 54 65
ENDBRANCH 52 54
ENDBRANCH 38 50
ENDBRANCH 3 38
TORSDOF 23
ENDMDL
MODEL 30
USER: ADFR SOLUTION from run 175
USER: SCORE 21.403185 LL:  -6.261 LR: -16.797 RR:   0.000 FEB:  -9.936
USER: RMSD 7.196101
USER: SEED 174
USER: STATUS no improvement in best in 3 clusters for 5 generations
USER: GENES 25
USER: genes 0 Translation |==|  0.52180 0.42695 0.54851
USER: genes 1 Rotation |==|  0.29507 0.76725 0.60062 0.85561
USER: genes 2 Torsion [N]-C--CA-[N] |==|  0.41005
USER: genes 3 Torsion [C]-CA--N-[C] |==|  0.78333
USER: genes 4 Torsion [N]-C--CA-[N] |==|  0.24600
USER: genes 5 Torsion [C]-CA--CB-[CG] |==|  0.66030
USER: genes 6 Torsion [CA]-CB--CG-[CD2] |==|  0.25271
USER: genes 7 Torsion [C]-CA--N-[C] |==|  0.66074
USER: genes 8 Torsion [N]-C--CA-[N] |==|  0.23298
USER: genes 9 Torsion [C]-CA--CB-[CG] |==|  0.79230
USER: genes 10 Torsion [CA]-CB--CG-[OD2] |==|  0.43040
USER: genes 11 Torsion [C]-CA--CB-[CG] |==|  0.08823
USER: genes 12 Torsion [CA]-CB--CG-[ND2] |==|  0.74480
USER: genes 13 Torsion [C]-N--CA-[CB] |==|  0.24368
USER: genes 14 Torsion [N]-CA--CB-[CG] |==|  0.48340
USER: genes 15 Torsion [CA]-CB--CG-[CD1] |==|  0.58641
USER: genes 16 Torsion [N]-CA--C-[N] |==|  0.25419
USER: genes 17 Torsion [C]-N--CA-[C] |==|  0.83267
USER: genes 18 Torsion [N]-CA--C-[N] |==|  0.93189
USER: genes 19 Torsion [C]-N--CA-[CB] |==|  0.36639
USER: genes 20 Torsion [N]-CA--CB-[CG2] |==|  0.90745
USER: genes 21 Torsion [N]-CA--C-[O] |==|  0.29199
USER: genes 22 Torsion [N]-CA--CB-[CG] |==|  0.38313
USER: genes 23 Torsion [CA]-CB--CG-[CD] |==|  0.54937
USER: genes 24 Torsion [CB]-CG--CD-[OE1] |==|  0.80526
ROOT
ATOM      1  C   ASN P   4      34.338  -4.119 -30.345  1.00 47.61 LIG 0.24  C 
ATOM      2 O    ASN P   4      35.211  -3.287 -30.300  1.00 46.30 LIG-0.27  OA
ATOM      3  N   TRP P   5      34.446  -5.256 -29.659  1.00 43.61 LIG-0.35  N 
ATOM      4 H    TRP P   5      33.877  -5.901 -29.650  1.00 43.61 LIG 0.16  HD
ENDROOT
BRANCH 1 5
ATOM      5  CA  ASN P   4      33.080  -3.857 -31.180  1.00 56.71 LIG 0.18  C 
BRANCH 5 6
ATOM      6  N   ASN P   4      32.788  -2.435 -31.198  1.00 58.55 LIG-0.35  N 
ATOM      7  C   TRP P   3      32.215  -1.851 -30.164  1.00 51.89 LIG 0.24  C 
ATOM      8 O    TRP P   3      31.702  -2.471 -29.231  1.00 53.51 LIG-0.27  OA
ATOM      9 H    ASN P   4      33.017  -2.028 -31.921  1.00 58.55 LIG 0.16  HD
BRANCH 7 10
ATOM     10  CA  TRP P   3      32.117  -0.374 -30.211  1.00 49.09 LIG 0.18  C 
BRANCH 10 11
ATOM     11  CB  TRP P   3      32.190   0.005 -28.731  1.00 45.21 LIG 0.07  C 
BRANCH 11 12
ATOM     12  CG  TRP P   3      31.008   0.835 -28.085  1.00 38.74 LIG-0.03  A 
ATOM     13  CD1 TRP P   3      30.903   2.220 -27.918  1.00 32.85 LIG 0.10  A 
ATOM     14  NE1 TRP P   3      29.729   2.529 -27.207  1.00 33.71 LIG-0.36  N 
ATOM     15  CE2 TRP P   3      29.066   1.365 -26.920  1.00 32.42 LIG 0.04  A 
ATOM     16 HE1  TRP P   3      29.469   3.319 -26.989  1.00 33.71 LIG 0.17  HD
ATOM     17  CZ2 TRP P   3      27.882   1.161 -26.167  1.00 29.39 LIG 0.03  A 
ATOM     18  CD2 TRP P   3      29.832   0.279 -27.435  1.00 33.85 LIG-0.00  A 
ATOM     19  CH2 TRP P   3      27.454  -0.124 -26.054  1.00 25.26 LIG 0.00  A 
ATOM     20  CZ3 TRP P   3      28.157  -1.209 -26.568  1.00 33.31 LIG 0.00  A 
ATOM     21  CE3 TRP P   3      29.380  -1.023 -27.236  1.00 32.67 LIG 0.01  A 
ENDBRANCH 11 12
ENDBRANCH 10 11
BRANCH 10 22
ATOM     22  N   TRP P   3      30.858   0.147 -30.887  1.00 48.62 LIG-0.34  N 
ATOM     23 H    TRP P   3      30.132  -0.133 -30.520  1.00 48.62 LIG 0.16  HD
ATOM     24  C   ASP P   2      30.866   0.968 -31.960  1.00 44.46 LIG 0.26  C 
ATOM     25 O    ASP P   2      31.933   1.246 -32.570  1.00 32.12 LIG-0.27  OA
BRANCH 24 26
ATOM     26  CA  ASP P   2      29.487   1.652 -32.398  1.00 48.39 LIG 0.41  C 
ATOM     27  N   ASP P   2      29.246   2.894 -31.588  1.00 44.52 LIG 0.61  N 
BRANCH 26 28
ATOM     28  CB  ASP P   2      29.304   1.951 -33.933  1.00 55.68 LIG 0.16  C 
BRANCH 28 29
ATOM     29  CG  ASP P   2      30.162   3.212 -34.447  1.00 65.31 LIG 0.17  C 
ATOM     30 OD2  ASP P   2      30.505   3.296 -35.680  1.00 61.23 LIG-0.65  OA
ATOM     31 OD1  ASP P   2      30.505   4.116 -33.614  1.00 59.39 LIG-0.65  OA
ENDBRANCH 28 29
ENDBRANCH 26 28
ENDBRANCH 24 26
ENDBRANCH 10 22
ENDBRANCH 7 10
ENDBRANCH 5 6
BRANCH 5 32
ATOM     32  CB  ASN P   4      33.212  -4.391 -32.633  1.00 62.15 LIG 0.14  C 
BRANCH 32 33
ATOM     33  CG  ASN P   4      34.088  -5.636 -32.728  1.00 66.74 LIG 0.22  C 
ATOM     34 OD1  ASN P   4      33.606  -6.759 -32.565  1.00 65.57 LIG-0.27  OA
ATOM     35  ND2 ASN P   4      35.380  -5.444 -32.968  1.00 62.00 LIG-0.37  N 
ATOM     36 21HD ASN P   4      35.914  -6.117 -33.014  1.00 62.00 LIG 0.16  HD
ATOM     37 22HD ASN P   4      35.683  -4.647 -33.077  1.00 62.00 LIG 0.16  HD
ENDBRANCH 32 33
ENDBRANCH 5 32
ENDBRANCH 1 5
BRANCH 3 38
ATOM     38  CA  TRP P   5      35.632  -5.426 -28.849  1.00 39.30 LIG 0.18  C 
BRANCH 38 39
ATOM     39  CB  TRP P   5      35.481  -4.846 -27.427  1.00 34.53 LIG 0.07  C 
BRANCH 39 40
ATOM     40  CG  TRP P   5      36.609  -5.101 -26.480  1.00 28.80 LIG-0.03  A 
ATOM     41  CD1 TRP P   5      36.505  -5.241 -25.143  1.00 24.67 LIG 0.10  A 
ATOM     42  NE1 TRP P   5      37.718  -5.416 -24.599  1.00 28.39 LIG-0.36  N 
ATOM     43 HE1  TRP P   5      37.874  -5.494 -23.756  1.00 28.39 LIG 0.17  HD
ATOM     44  CE2 TRP P   5      38.673  -5.452 -25.585  1.00 28.85 LIG 0.04  A 
ATOM     45  CZ2 TRP P   5      40.032  -5.672 -25.509  1.00 29.12 LIG 0.03  A 
ATOM     46  CD2 TRP P   5      38.001  -5.275 -26.803  1.00 31.26 LIG-0.00  A 
ATOM     47  CH2 TRP P   5      40.750  -5.625 -26.678  1.00 31.42 LIG 0.00  A 
ATOM     48  CZ3 TRP P   5      40.131  -5.360 -27.912  1.00 31.13 LIG 0.00  A 
ATOM     49  CE3 TRP P   5      38.753  -5.191 -27.989  1.00 35.06 LIG 0.01  A 
ENDBRANCH 39 40
ENDBRANCH 38 39
BRANCH 38 50
ATOM     50  C   TRP P   5      35.954  -6.906 -28.909  1.00 44.67 LIG 0.24  C 
ATOM     51 O    TRP P   5      35.463  -7.684 -28.116  1.00 47.12 LIG-0.27  OA
ATOM     52  N   GLU P   6      36.779  -7.288 -29.865  1.00 57.45 LIG-0.35  N 
ATOM     53 H    GLU P   6      37.255  -6.742 -30.327  1.00 57.45 LIG 0.16  HD
BRANCH 52 54
ATOM     54  CA  GLU P   6      36.960  -8.686 -30.228  1.00 54.50 LIG 0.18  C 
BRANCH 54 55
ATOM     55  C   GLU P   6      37.464  -9.467 -29.057  1.00 56.45 LIG 0.24  C 
ATOM     56 O    GLU P   6      37.255 -10.712 -28.982  1.00 44.81 LIG-0.27  OA
ATOM     57  N   VAL P   7      38.116  -8.743 -28.144  1.00 47.96 LIG-0.35  N 
ATOM     58 H    VAL P   7      38.411  -7.947 -28.284  1.00 47.96 LIG 0.16  HD
BRANCH 57 59
ATOM     59  CA  VAL P   7      38.382  -9.251 -26.825  1.00 55.51 LIG 0.17  C 
BRANCH 59 60
ATOM     60  CB  VAL P   7      39.874  -9.024 -26.437  1.00 57.72 LIG 0.01  C 
ATOM     61  CG2 VAL P   7      40.780  -9.127 -27.674  1.00 57.86 LIG 0.01  C 
ATOM     62  CG1 VAL P   7      40.329  -9.953 -25.307  1.00 55.94 LIG 0.01  C 
ENDBRANCH 59 60
BRANCH 59 63
ATOM     63  C   VAL P   7      37.369  -8.558 -25.890  1.00 56.50 LIG 0.22  C 
ATOM     64 O    VAL P   7      36.391  -9.171 -25.448  1.00 61.93 LIG-0.29  OA
ENDBRANCH 59 63
ENDBRANCH 57 59
ENDBRANCH 54 55
BRANCH 54 65
ATOM     65  CB  GLU P   6      38.031  -8.796 -31.305  1.00 55.84 LIG 0.04  C 
BRANCH 65 66
ATOM     66  CG  GLU P   6      38.988  -9.949 -31.091  1.00 56.62 LIG 0.12  C 
BRANCH 66 67
ATOM     67  CD  GLU P   6      40.267  -9.795 -31.894  1.00 56.54 LIG 0.17  C 
ATOM     68 OE1  GLU P   6      40.207  -9.921 -33.167  1.00 46.52 LIG-0.65  OA
ATOM     69 OE2  GLU P   6      41.307  -9.548 -31.216  1.00 53.74 LIG-0.65  OA
ENDBRANCH 66 67
ENDBRANCH 65 66
ENDBRANCH 54 65
ENDBRANCH 52 54
ENDBRANCH 38 50
ENDBRANCH 3 38
TORSDOF 23
ENDMDL
MODEL 31
USER: ADFR SOLUTION from run 41
USER: SCORE 20.329121 LL:  -4.975 LR: -16.738 RR:   0.000 FEB:  -9.878
USER: RMSD 11.408296
USER: SEED 40
USER: STATUS 1 or 2 clusters left
USER: GENES 25
USER: genes 0 Translation |==|  0.50165 0.47325 0.53584
USER: genes 1 Rotation |==|  0.19843 0.44418 0.19645 0.75258
USER: genes 2 Torsion [N]-C--CA-[N] |==|  0.65186
USER: genes 3 Torsion [C]-CA--N-[C] |==|  0.18694
USER: genes 4 Torsion [N]-C--CA-[N] |==|  0.89477
USER: genes 5 Torsion [C]-CA--CB-[CG] |==|  0.40335
USER: genes 6 Torsion [CA]-CB--CG-[CD2] |==|  0.06088
USER: genes 7 Torsion [C]-CA--N-[C] |==|  0.71586
USER: genes 8 Torsion [N]-C--CA-[N] |==|  0.39890
USER: genes 9 Torsion [C]-CA--CB-[CG] |==|  0.51792
USER: genes 10 Torsion [CA]-CB--CG-[OD2] |==|  0.46686
USER: genes 11 Torsion [C]-CA--CB-[CG] |==|  0.30151
USER: genes 12 Torsion [CA]-CB--CG-[ND2] |==|  0.86480
USER: genes 13 Torsion [C]-N--CA-[CB] |==|  0.85556
USER: genes 14 Torsion [N]-CA--CB-[CG] |==|  0.51397
USER: genes 15 Torsion [CA]-CB--CG-[CD1] |==|  0.71759
USER: genes 16 Torsion [N]-CA--C-[N] |==|  0.42134
USER: genes 17 Torsion [C]-N--CA-[C] |==|  0.80932
USER: genes 18 Torsion [N]-CA--C-[N] |==|  0.86923
USER: genes 19 Torsion [C]-N--CA-[CB] |==|  0.80545
USER: genes 20 Torsion [N]-CA--CB-[CG2] |==|  0.22638
USER: genes 21 Torsion [N]-CA--C-[O] |==|  0.19385
USER: genes 22 Torsion [N]-CA--CB-[CG] |==|  0.60542
USER: genes 23 Torsion [CA]-CB--CG-[CD] |==|  0.76858
USER: genes 24 Torsion [CB]-CG--CD-[OE1] |==|  0.86186
ROOT
ATOM      1  C   ASN P   4      33.915  -3.043 -30.611  1.00 47.61 LIG 0.24  C 
ATOM      2 O    ASN P   4      34.560  -2.146 -30.126  1.00 46.30 LIG-0.27  OA
ATOM      3  N   TRP P   5      32.588  -2.958 -30.693  1.00 43.61 LIG-0.35  N 
ATOM      4 H    TRP P   5      32.058  -3.557 -31.011  1.00 43.61 LIG 0.16  HD
ENDROOT
BRANCH 1 5
ATOM      5  CA  ASN P   4      34.628  -4.281 -31.164  1.00 56.71 LIG 0.18  C 
BRANCH 5 6
ATOM      6  N   ASN P   4      35.461  -4.872 -30.132  1.00 58.55 LIG-0.35  N 
ATOM      7  C   TRP P   3      34.919  -5.433 -29.069  1.00 51.89 LIG 0.24  C 
ATOM      8 O    TRP P   3      33.730  -5.313 -28.767  1.00 53.51 LIG-0.27  OA
ATOM      9 H    ASN P   4      36.307  -4.821 -30.277  1.00 58.55 LIG 0.16  HD
BRANCH 7 10
ATOM     10  CA  TRP P   3      35.841  -6.155 -28.162  1.00 49.09 LIG 0.18  C 
BRANCH 10 11
ATOM     11  CB  TRP P   3      36.382  -5.028 -27.280  1.00 45.21 LIG 0.07  C 
BRANCH 11 12
ATOM     12  CG  TRP P   3      36.699  -5.320 -25.758  1.00 38.74 LIG-0.03  A 
ATOM     13  CD1 TRP P   3      36.890  -4.407 -24.715  1.00 32.85 LIG 0.10  A 
ATOM     14  NE1 TRP P   3      37.249  -5.092 -23.540  1.00 33.71 LIG-0.36  N 
ATOM     15  CE2 TRP P   3      37.285  -6.436 -23.803  1.00 32.42 LIG 0.04  A 
ATOM     16 HE1  TRP P   3      37.419  -4.727 -22.780  1.00 33.71 LIG 0.17  HD
ATOM     17  CZ2 TRP P   3      37.660  -7.512 -22.960  1.00 29.39 LIG 0.03  A 
ATOM     18  CD2 TRP P   3      36.962  -6.628 -25.178  1.00 33.85 LIG-0.00  A 
ATOM     19  CH2 TRP P   3      37.590  -8.756 -23.504  1.00 25.26 LIG 0.00  A 
ATOM     20  CZ3 TRP P   3      37.250  -8.987 -24.833  1.00 33.31 LIG 0.00  A 
ATOM     21  CE3 TRP P   3      36.967  -7.918 -25.701  1.00 32.67 LIG 0.01  A 
ENDBRANCH 11 12
ENDBRANCH 10 11
BRANCH 10 22
ATOM     22  N   TRP P   3      36.945  -6.922 -28.875  1.00 48.62 LIG-0.34  N 
ATOM     23 H    TRP P   3      37.587  -6.420 -29.149  1.00 48.62 LIG 0.16  HD
ATOM     24  C   ASP P   2      36.929  -8.260 -29.064  1.00 44.46 LIG 0.26  C 
ATOM     25 O    ASP P   2      35.914  -8.953 -28.786  1.00 32.12 LIG-0.27  OA
BRANCH 24 26
ATOM     26  CA  ASP P   2      38.269  -8.965 -29.582  1.00 48.39 LIG 0.41  C 
ATOM     27  N   ASP P   2      38.422 -10.316 -28.940  1.00 44.52 LIG 0.61  N 
BRANCH 26 28
ATOM     28  CB  ASP P   2      38.452  -9.072 -31.142  1.00 55.68 LIG 0.16  C 
BRANCH 28 29
ATOM     29  CG  ASP P   2      39.738  -9.936 -31.579  1.00 65.31 LIG 0.17  C 
ATOM     30 OD2  ASP P   2      39.883 -10.297 -32.800  1.00 61.23 LIG-0.65  OA
ATOM     31 OD1  ASP P   2      40.599 -10.265 -30.697  1.00 59.39 LIG-0.65  OA
ENDBRANCH 28 29
ENDBRANCH 26 28
ENDBRANCH 24 26
ENDBRANCH 10 22
ENDBRANCH 7 10
ENDBRANCH 5 6
BRANCH 5 32
ATOM     32  CB  ASN P   4      33.634  -5.340 -31.716  1.00 62.15 LIG 0.14  C 
BRANCH 32 33
ATOM     33  CG  ASN P   4      33.657  -5.437 -33.237  1.00 66.74 LIG 0.22  C 
ATOM     34 OD1  ASN P   4      33.766  -6.530 -33.797  1.00 65.57 LIG-0.27  OA
ATOM     35  ND2 ASN P   4      33.579  -4.296 -33.913  1.00 62.00 LIG-0.37  N 
ATOM     36 21HD ASN P   4      33.605  -4.303 -34.773  1.00 62.00 LIG 0.16  HD
ATOM     37 22HD ASN P   4      33.504  -3.551 -33.491  1.00 62.00 LIG 0.16  HD
ENDBRANCH 32 33
ENDBRANCH 5 32
ENDBRANCH 1 5
BRANCH 3 38
ATOM     38  CA  TRP P   5      31.973  -1.745 -30.201  1.00 39.30 LIG 0.18  C 
BRANCH 38 39
ATOM     39  CB  TRP P   5      32.413  -1.384 -28.766  1.00 34.53 LIG 0.07  C 
BRANCH 39 40
ATOM     40  CG  TRP P   5      31.737  -0.209 -28.137  1.00 28.80 LIG-0.03  A 
ATOM     41  CD1 TRP P   5      32.253   1.031 -28.015  1.00 24.67 LIG 0.10  A 
ATOM     42  NE1 TRP P   5      31.396   1.829 -27.362  1.00 28.39 LIG-0.36  N 
ATOM     43 HE1  TRP P   5      31.546   2.650 -27.154  1.00 28.39 LIG 0.17  HD
ATOM     44  CE2 TRP P   5      30.242   1.141 -27.076  1.00 28.85 LIG 0.04  A 
ATOM     45  CZ2 TRP P   5      29.071   1.562 -26.481  1.00 29.12 LIG 0.03  A 
ATOM     46  CD2 TRP P   5      30.413  -0.158 -27.574  1.00 31.26 LIG-0.00  A 
ATOM     47  CH2 TRP P   5      28.079   0.631 -26.300  1.00 31.42 LIG 0.00  A 
ATOM     48  CZ3 TRP P   5      28.242  -0.706 -26.701  1.00 31.13 LIG 0.00  A 
ATOM     49  CE3 TRP P   5      29.404  -1.113 -27.348  1.00 35.06 LIG 0.01  A 
ENDBRANCH 39 40
ENDBRANCH 38 39
BRANCH 38 50
ATOM     50  C   TRP P   5      32.266  -0.689 -31.248  1.00 44.67 LIG 0.24  C 
ATOM     51 O    TRP P   5      33.254  -0.762 -31.949  1.00 47.12 LIG-0.27  OA
ATOM     52  N   GLU P   6      31.389   0.291 -31.352  1.00 57.45 LIG-0.35  N 
ATOM     53 H    GLU P   6      30.778   0.446 -30.766  1.00 57.45 LIG 0.16  HD
BRANCH 52 54
ATOM     54  CA  GLU P   6      31.374   1.211 -32.479  1.00 54.50 LIG 0.18  C 
BRANCH 54 55
ATOM     55  C   GLU P   6      32.583   2.092 -32.448  1.00 56.45 LIG 0.24  C 
ATOM     56 O    GLU P   6      33.272   2.268 -33.493  1.00 44.81 LIG-0.27  OA
ATOM     57  N   VAL P   7      32.843   2.636 -31.256  1.00 47.96 LIG-0.35  N 
ATOM     58 H    VAL P   7      32.280   2.662 -30.607  1.00 47.96 LIG 0.16  HD
BRANCH 57 59
ATOM     59  CA  VAL P   7      34.118   3.235 -30.961  1.00 55.51 LIG 0.17  C 
BRANCH 59 60
ATOM     60  CB  VAL P   7      35.228   2.146 -30.856  1.00 57.72 LIG 0.01  C 
ATOM     61  CG2 VAL P   7      35.731   1.746 -32.251  1.00 57.86 LIG 0.01  C 
ATOM     62  CG1 VAL P   7      34.777   0.934 -30.034  1.00 55.94 LIG 0.01  C 
ENDBRANCH 59 60
BRANCH 59 63
ATOM     63  C   VAL P   7      34.360   4.286 -32.064  1.00 56.50 LIG 0.22  C 
ATOM     64 O    VAL P   7      33.686   5.320 -32.115  1.00 61.93 LIG-0.29  OA
ENDBRANCH 59 63
ENDBRANCH 57 59
ENDBRANCH 54 55
BRANCH 54 65
ATOM     65  CB  GLU P   6      30.171   2.136 -32.366  1.00 55.84 LIG 0.04  C 
BRANCH 65 66
ATOM     66  CG  GLU P   6      29.518   2.447 -33.696  1.00 56.62 LIG 0.12  C 
BRANCH 66 67
ATOM     67  CD  GLU P   6      30.215   3.578 -34.432  1.00 56.54 LIG 0.17  C 
ATOM     68 OE1  GLU P   6      30.456   4.662 -33.795  1.00 46.52 LIG-0.65  OA
ATOM     69 OE2  GLU P   6      30.505   3.340 -35.642  1.00 53.74 LIG-0.65  OA
ENDBRANCH 66 67
ENDBRANCH 65 66
ENDBRANCH 54 65
ENDBRANCH 52 54
ENDBRANCH 38 50
ENDBRANCH 3 38
TORSDOF 23
ENDMDL
MODEL 32
USER: ADFR SOLUTION from run 163
USER: SCORE 20.844008 LL:  -5.194 LR: -16.696 RR:   0.000 FEB:  -9.835
USER: RMSD 5.093674
USER: SEED 162
USER: STATUS no improvement in best in 3 clusters for 5 generations
USER: GENES 25
USER: genes 0 Translation |==|  0.53287 0.52474 0.60640
USER: genes 1 Rotation |==|  0.56018 0.97423 0.38500 0.59086
USER: genes 2 Torsion [N]-C--CA-[N] |==|  0.42534
USER: genes 3 Torsion [C]-CA--N-[C] |==|  0.54613
USER: genes 4 Torsion [N]-C--CA-[N] |==|  0.87222
USER: genes 5 Torsion [C]-CA--CB-[CG] |==|  0.51859
USER: genes 6 Torsion [CA]-CB--CG-[CD2] |==|  0.44390
USER: genes 7 Torsion [C]-CA--N-[C] |==|  0.87222
USER: genes 8 Torsion [N]-C--CA-[N] |==|  0.33874
USER: genes 9 Torsion [C]-CA--CB-[CG] |==|  0.57907
USER: genes 10 Torsion [CA]-CB--CG-[OD2] |==|  0.91488
USER: genes 11 Torsion [C]-CA--CB-[CG] |==|  0.87785
USER: genes 12 Torsion [CA]-CB--CG-[ND2] |==|  0.30702
USER: genes 13 Torsion [C]-N--CA-[CB] |==|  0.85548
USER: genes 14 Torsion [N]-CA--CB-[CG] |==|  0.33282
USER: genes 15 Torsion [CA]-CB--CG-[CD1] |==|  0.17518
USER: genes 16 Torsion [N]-CA--C-[N] |==|  0.39357
USER: genes 17 Torsion [C]-N--CA-[C] |==|  0.64144
USER: genes 18 Torsion [N]-CA--C-[N] |==|  0.21787
USER: genes 19 Torsion [C]-N--CA-[CB] |==|  0.40146
USER: genes 20 Torsion [N]-CA--CB-[CG2] |==|  0.74578
USER: genes 21 Torsion [N]-CA--C-[O] |==|  0.03783
USER: genes 22 Torsion [N]-CA--CB-[CG] |==|  0.10745
USER: genes 23 Torsion [CA]-CB--CG-[CD] |==|  0.61390
USER: genes 24 Torsion [CB]-CG--CD-[OE1] |==|  0.62303
ROOT
ATOM      1  C   ASN P   4      34.570  -1.846 -29.130  1.00 47.61 LIG 0.24  C 
ATOM      2 O    ASN P   4      34.741  -2.539 -30.103  1.00 46.30 LIG-0.27  OA
ATOM      3  N   TRP P   5      34.420  -2.393 -27.925  1.00 43.61 LIG-0.35  N 
ATOM      4 H    TRP P   5      34.281  -1.971 -27.188  1.00 43.61 LIG 0.16  HD
ENDROOT
BRANCH 1 5
ATOM      5  CA  ASN P   4      34.552  -0.321 -29.275  1.00 56.71 LIG 0.18  C 
BRANCH 5 6
ATOM      6  N   ASN P   4      35.325   0.072 -30.440  1.00 58.55 LIG-0.35  N 
ATOM      7  C   TRP P   3      35.727   1.318 -30.592  1.00 51.89 LIG 0.24  C 
ATOM      8 O    TRP P   3      35.315   2.256 -29.907  1.00 53.51 LIG-0.27  OA
ATOM      9 H    ASN P   4      35.486  -0.563 -30.998  1.00 58.55 LIG 0.16  HD
BRANCH 7 10
ATOM     10  CA  TRP P   3      36.650   1.580 -31.721  1.00 49.09 LIG 0.18  C 
BRANCH 10 11
ATOM     11  CB  TRP P   3      35.708   1.550 -32.927  1.00 45.21 LIG 0.07  C 
BRANCH 11 12
ATOM     12  CG  TRP P   3      36.314   1.631 -34.385  1.00 38.74 LIG-0.03  A 
ATOM     13  CD1 TRP P   3      37.527   2.196 -34.796  1.00 32.85 LIG 0.10  A 
ATOM     14  NE1 TRP P   3      37.631   2.139 -36.198  1.00 33.71 LIG-0.36  N 
ATOM     15  CE2 TRP P   3      36.509   1.535 -36.701  1.00 32.42 LIG 0.04  A 
ATOM     16 HE1  TRP P   3      38.291   2.434 -36.664  1.00 33.71 LIG 0.17  HD
ATOM     17  CZ2 TRP P   3      36.128   1.315 -38.049  1.00 29.39 LIG 0.03  A 
ATOM     18  CD2 TRP P   3      35.651   1.212 -35.609  1.00 33.85 LIG-0.00  A 
ATOM     19  CH2 TRP P   3      34.944   0.678 -38.243  1.00 25.26 LIG 0.00  A 
ATOM     20  CZ3 TRP P   3      34.092   0.319 -37.204  1.00 33.31 LIG 0.00  A 
ATOM     21  CE3 TRP P   3      34.419   0.617 -35.869  1.00 32.67 LIG 0.01  A 
ENDBRANCH 11 12
ENDBRANCH 10 11
BRANCH 10 22
ATOM     22  N   TRP P   3      37.789   0.579 -31.843  1.00 48.62 LIG-0.34  N 
ATOM     23 H    TRP P   3      37.913   0.299 -32.646  1.00 48.62 LIG 0.16  HD
ATOM     24  C   ASP P   2      38.538   0.163 -30.798  1.00 44.46 LIG 0.26  C 
ATOM     25 O    ASP P   2      38.245   0.473 -29.612  1.00 32.12 LIG-0.27  OA
BRANCH 24 26
ATOM     26  CA  ASP P   2      39.866  -0.675 -31.108  1.00 48.39 LIG 0.41  C 
ATOM     27  N   ASP P   2      41.064   0.021 -30.524  1.00 44.52 LIG 0.61  N 
BRANCH 26 28
ATOM     28  CB  ASP P   2      39.854  -2.194 -30.693  1.00 55.68 LIG 0.16  C 
BRANCH 28 29
ATOM     29  CG  ASP P   2      41.313  -2.775 -30.343  1.00 65.31 LIG 0.17  C 
ATOM     30 OD2  ASP P   2      42.350  -2.301 -30.928  1.00 61.23 LIG-0.65  OA
ATOM     31 OD1  ASP P   2      41.422  -3.717 -29.489  1.00 59.39 LIG-0.65  OA
ENDBRANCH 28 29
ENDBRANCH 26 28
ENDBRANCH 24 26
ENDBRANCH 10 22
ENDBRANCH 7 10
ENDBRANCH 5 6
BRANCH 5 32
ATOM     32  CB  ASN P   4      33.110   0.247 -29.378  1.00 62.15 LIG 0.14  C 
BRANCH 32 33
ATOM     33  CG  ASN P   4      32.220  -0.566 -30.312  1.00 66.74 LIG 0.22  C 
ATOM     34 OD1  ASN P   4      32.401  -0.544 -31.531  1.00 65.57 LIG-0.27  OA
ATOM     35  ND2 ASN P   4      31.241  -1.266 -29.750  1.00 62.00 LIG-0.37  N 
ATOM     36 21HD ASN P   4      30.705  -1.726 -30.241  1.00 62.00 LIG 0.16  HD
ATOM     37 22HD ASN P   4      31.143  -1.259 -28.896  1.00 62.00 LIG 0.16  HD
ENDBRANCH 32 33
ENDBRANCH 5 32
ENDBRANCH 1 5
BRANCH 3 38
ATOM     38  CA  TRP P   5      34.496  -3.835 -27.841  1.00 39.30 LIG 0.18  C 
BRANCH 38 39
ATOM     39  CB  TRP P   5      33.557  -4.548 -28.837  1.00 34.53 LIG 0.07  C 
BRANCH 39 40
ATOM     40  CG  TRP P   5      34.208  -5.447 -29.838  1.00 28.80 LIG-0.03  A 
ATOM     41  CD1 TRP P   5      34.910  -6.565 -29.562  1.00 24.67 LIG 0.10  A 
ATOM     42  NE1 TRP P   5      35.389  -7.103 -30.692  1.00 28.39 LIG-0.36  N 
ATOM     43 HE1  TRP P   5      35.889  -7.803 -30.732  1.00 28.39 LIG 0.17  HD
ATOM     44  CE2 TRP P   5      34.966  -6.373 -31.775  1.00 28.85 LIG 0.04  A 
ATOM     45  CZ2 TRP P   5      35.154  -6.581 -33.126  1.00 29.12 LIG 0.03  A 
ATOM     46  CD2 TRP P   5      34.191  -5.319 -31.272  1.00 31.26 LIG-0.00  A 
ATOM     47  CH2 TRP P   5      34.625  -5.656 -33.991  1.00 31.42 LIG 0.00  A 
ATOM     48  CZ3 TRP P   5      33.918  -4.533 -33.526  1.00 31.13 LIG 0.00  A 
ATOM     49  CE3 TRP P   5      33.687  -4.357 -32.166  1.00 35.06 LIG 0.01  A 
ENDBRANCH 39 40
ENDBRANCH 38 39
BRANCH 38 50
ATOM     50  C   TRP P   5      35.966  -4.172 -27.988  1.00 44.67 LIG 0.24  C 
ATOM     51 O    TRP P   5      36.675  -3.552 -28.754  1.00 47.12 LIG-0.27  OA
ATOM     52  N   GLU P   6      36.418  -5.159 -27.237  1.00 57.45 LIG-0.35  N 
ATOM     53 H    GLU P   6      35.907  -5.706 -26.815  1.00 57.45 LIG 0.16  HD
BRANCH 52 54
ATOM     54  CA  GLU P   6      37.840  -5.412 -27.053  1.00 54.50 LIG 0.18  C 
BRANCH 54 55
ATOM     55  C   GLU P   6      38.151  -6.849 -27.327  1.00 56.45 LIG 0.24  C 
ATOM     56 O    GLU P   6      38.327  -7.658 -26.372  1.00 44.81 LIG-0.27  OA
ATOM     57  N   VAL P   7      38.227  -7.165 -28.622  1.00 47.96 LIG-0.35  N 
ATOM     58 H    VAL P   7      37.932  -6.664 -29.257  1.00 47.96 LIG 0.16  HD
BRANCH 57 59
ATOM     59  CA  VAL P   7      38.825  -8.395 -29.067  1.00 55.51 LIG 0.17  C 
BRANCH 59 60
ATOM     60  CB  VAL P   7      38.076  -8.953 -30.315  1.00 57.72 LIG 0.01  C 
ATOM     61  CG2 VAL P   7      36.956  -9.916 -29.892  1.00 57.86 LIG 0.01  C 
ATOM     62  CG1 VAL P   7      39.031  -9.586 -31.331  1.00 55.94 LIG 0.01  C 
ENDBRANCH 59 60
BRANCH 59 63
ATOM     63  C   VAL P   7      40.316  -8.082 -29.308  1.00 56.50 LIG 0.22  C 
ATOM     64 O    VAL P   7      40.822  -7.037 -28.885  1.00 61.93 LIG-0.29  OA
ENDBRANCH 59 63
ENDBRANCH 57 59
ENDBRANCH 54 55
BRANCH 54 65
ATOM     65  CB  GLU P   6      38.216  -5.165 -25.599  1.00 55.84 LIG 0.04  C 
BRANCH 65 66
ATOM     66  CG  GLU P   6      37.166  -5.634 -24.614  1.00 56.62 LIG 0.12  C 
BRANCH 66 67
ATOM     67  CD  GLU P   6      36.968  -4.655 -23.470  1.00 56.54 LIG 0.17  C 
ATOM     68 OE1  GLU P   6      36.882  -5.118 -22.280  1.00 46.52 LIG-0.65  OA
ATOM     69 OE2  GLU P   6      36.905  -3.435 -23.805  1.00 53.74 LIG-0.65  OA
ENDBRANCH 66 67
ENDBRANCH 65 66
ENDBRANCH 54 65
ENDBRANCH 52 54
ENDBRANCH 38 50
ENDBRANCH 3 38
TORSDOF 23
ENDMDL
MODEL 33
USER: ADFR SOLUTION from run 179
USER: SCORE 19.325552 LL:  -5.993 LR: -16.692 RR:   0.000 FEB:  -9.831
USER: RMSD 8.693898
USER: SEED 178
USER: STATUS no improvement in best in 6 clusters for 5 generations
USER: GENES 25
USER: genes 0 Translation |==|  0.34151 0.63219 0.68243
USER: genes 1 Rotation |==|  0.69758 0.68494 0.77194 0.82063
USER: genes 2 Torsion [N]-C--CA-[N] |==|  0.71111
USER: genes 3 Torsion [C]-CA--N-[C] |==|  0.18753
USER: genes 4 Torsion [N]-C--CA-[N] |==|  0.03890
USER: genes 5 Torsion [C]-CA--CB-[CG] |==|  0.76755
USER: genes 6 Torsion [CA]-CB--CG-[CD2] |==|  0.22899
USER: genes 7 Torsion [C]-CA--N-[C] |==|  0.57687
USER: genes 8 Torsion [N]-C--CA-[N] |==|  0.66209
USER: genes 9 Torsion [C]-CA--CB-[CG] |==|  0.60118
USER: genes 10 Torsion [CA]-CB--CG-[OD2] |==|  0.17264
USER: genes 11 Torsion [C]-CA--CB-[CG] |==|  0.31471
USER: genes 12 Torsion [CA]-CB--CG-[ND2] |==|  0.10278
USER: genes 13 Torsion [C]-N--CA-[CB] |==|  0.25827
USER: genes 14 Torsion [N]-CA--CB-[CG] |==|  0.63328
USER: genes 15 Torsion [CA]-CB--CG-[CD1] |==|  0.13608
USER: genes 16 Torsion [N]-CA--C-[N] |==|  0.38313
USER: genes 17 Torsion [C]-N--CA-[C] |==|  0.52225
USER: genes 18 Torsion [N]-CA--C-[N] |==|  0.20188
USER: genes 19 Torsion [C]-N--CA-[CB] |==|  0.79271
USER: genes 20 Torsion [N]-CA--CB-[CG2] |==|  0.89447
USER: genes 21 Torsion [N]-CA--C-[O] |==|  0.61016
USER: genes 22 Torsion [N]-CA--CB-[CG] |==|  0.65150
USER: genes 23 Torsion [CA]-CB--CG-[CD] |==|  0.75121
USER: genes 24 Torsion [CB]-CG--CD-[OE1] |==|  0.69773
ROOT
ATOM      1  C   ASN P   4      30.552   0.652 -27.533  1.00 47.61 LIG 0.24  C 
ATOM      2 O    ASN P   4      31.711   0.646 -27.196  1.00 46.30 LIG-0.27  OA
ATOM      3  N   TRP P   5      30.192   0.218 -28.739  1.00 43.61 LIG-0.35  N 
ATOM      4 H    TRP P   5      29.394   0.203 -29.059  1.00 43.61 LIG 0.16  HD
ENDROOT
BRANCH 1 5
ATOM      5  CA  ASN P   4      29.478   1.141 -26.555  1.00 56.71 LIG 0.18  C 
BRANCH 5 6
ATOM      6  N   ASN P   4      29.489   2.592 -26.496  1.00 58.55 LIG-0.35  N 
ATOM      7  C   TRP P   3      29.123   3.311 -27.538  1.00 51.89 LIG 0.24  C 
ATOM      8 O    TRP P   3      28.961   2.842 -28.666  1.00 53.51 LIG-0.27  OA
ATOM      9 H    ASN P   4      29.747   2.921 -25.744  1.00 58.55 LIG 0.16  HD
BRANCH 7 10
ATOM     10  CA  TRP P   3      29.005   4.772 -27.322  1.00 49.09 LIG 0.18  C 
BRANCH 10 11
ATOM     11  CB  TRP P   3      29.683   5.342 -28.570  1.00 45.21 LIG 0.07  C 
BRANCH 11 12
ATOM     12  CG  TRP P   3      31.258   5.489 -28.595  1.00 38.74 LIG-0.03  A 
ATOM     13  CD1 TRP P   3      32.028   6.646 -28.433  1.00 32.85 LIG 0.10  A 
ATOM     14  NE1 TRP P   3      33.389   6.345 -28.626  1.00 33.71 LIG-0.36  N 
ATOM     15  CE2 TRP P   3      33.513   5.009 -28.900  1.00 32.42 LIG 0.04  A 
ATOM     16 HE1  TRP P   3      34.038   6.907 -28.579  1.00 33.71 LIG 0.17  HD
ATOM     17  CZ2 TRP P   3      34.668   4.257 -29.232  1.00 29.39 LIG 0.03  A 
ATOM     18  CD2 TRP P   3      32.208   4.434 -28.906  1.00 33.85 LIG-0.00  A 
ATOM     19  CH2 TRP P   3      34.480   2.929 -29.450  1.00 25.26 LIG 0.00  A 
ATOM     20  CZ3 TRP P   3      33.228   2.324 -29.434  1.00 33.31 LIG 0.00  A 
ATOM     21  CE3 TRP P   3      32.066   3.080 -29.198  1.00 32.67 LIG 0.01  A 
ENDBRANCH 11 12
ENDBRANCH 10 11
BRANCH 10 22
ATOM     22  N   TRP P   3      29.641   5.266 -26.032  1.00 48.62 LIG-0.34  N 
ATOM     23 H    TRP P   3      30.294   4.775 -25.763  1.00 48.62 LIG 0.16  HD
ATOM     24  C   ASP P   2      29.230   6.367 -25.365  1.00 44.46 LIG 0.26  C 
ATOM     25 O    ASP P   2      28.182   6.985 -25.695  1.00 32.12 LIG-0.27  OA
BRANCH 24 26
ATOM     26  CA  ASP P   2      30.154   6.922 -24.182  1.00 48.39 LIG 0.41  C 
ATOM     27  N   ASP P   2      29.380   6.953 -22.894  1.00 44.52 LIG 0.61  N 
BRANCH 26 28
ATOM     28  CB  ASP P   2      31.540   6.206 -23.975  1.00 55.68 LIG 0.16  C 
BRANCH 28 29
ATOM     29  CG  ASP P   2      31.974   6.082 -22.430  1.00 65.31 LIG 0.17  C 
ATOM     30 OD2  ASP P   2      31.253   5.405 -21.614  1.00 61.23 LIG-0.65  OA
ATOM     31 OD1  ASP P   2      33.032   6.673 -22.028  1.00 59.39 LIG-0.65  OA
ENDBRANCH 28 29
ENDBRANCH 26 28
ENDBRANCH 24 26
ENDBRANCH 10 22
ENDBRANCH 7 10
ENDBRANCH 5 6
BRANCH 5 32
ATOM     32  CB  ASN P   4      28.059   0.635 -26.934  1.00 62.15 LIG 0.14  C 
BRANCH 32 33
ATOM     33  CG  ASN P   4      27.487  -0.344 -25.915  1.00 66.74 LIG 0.22  C 
ATOM     34 OD1  ASN P   4      26.787  -1.292 -26.276  1.00 65.57 LIG-0.27  OA
ATOM     35  ND2 ASN P   4      27.762  -0.108 -24.637  1.00 62.00 LIG-0.37  N 
ATOM     36 21HD ASN P   4      27.446  -0.626 -24.026  1.00 62.00 LIG 0.16  HD
ATOM     37 22HD ASN P   4      28.254   0.562 -24.420  1.00 62.00 LIG 0.16  HD
ENDBRANCH 32 33
ENDBRANCH 5 32
ENDBRANCH 1 5
BRANCH 3 38
ATOM     38  CA  TRP P   5      31.243  -0.278 -29.601  1.00 39.30 LIG 0.18  C 
BRANCH 38 39
ATOM     39  CB  TRP P   5      31.447  -1.804 -29.488  1.00 34.53 LIG 0.07  C 
BRANCH 39 40
ATOM     40  CG  TRP P   5      32.854  -2.277 -29.321  1.00 28.80 LIG-0.03  A 
ATOM     41  CD1 TRP P   5      33.751  -1.801 -28.433  1.00 24.67 LIG 0.10  A 
ATOM     42  NE1 TRP P   5      34.929  -2.422 -28.584  1.00 28.39 LIG-0.36  N 
ATOM     43 HE1  TRP P   5      35.642  -2.244 -28.136  1.00 28.39 LIG 0.17  HD
ATOM     44  CE2 TRP P   5      34.830  -3.384 -29.560  1.00 28.85 LIG 0.04  A 
ATOM     45  CZ2 TRP P   5      35.755  -4.302 -30.010  1.00 29.12 LIG 0.03  A 
ATOM     46  CD2 TRP P   5      33.514  -3.336 -30.040  1.00 31.26 LIG-0.00  A 
ATOM     47  CH2 TRP P   5      35.376  -5.137 -31.032  1.00 31.42 LIG 0.00  A 
ATOM     48  CZ3 TRP P   5      34.095  -5.063 -31.606  1.00 31.13 LIG 0.00  A 
ATOM     49  CE3 TRP P   5      33.150  -4.170 -31.112  1.00 35.06 LIG 0.01  A 
ENDBRANCH 39 40
ENDBRANCH 38 39
BRANCH 38 50
ATOM     50  C   TRP P   5      30.899   0.224 -30.989  1.00 44.67 LIG 0.24  C 
ATOM     51 O    TRP P   5      29.755   0.204 -31.394  1.00 47.12 LIG-0.27  OA
ATOM     52  N   GLU P   6      31.904   0.683 -31.711  1.00 57.45 LIG-0.35  N 
ATOM     53 H    GLU P   6      32.730   0.559 -31.508  1.00 57.45 LIG 0.16  HD
BRANCH 52 54
ATOM     54  CA  GLU P   6      31.702   1.451 -32.931  1.00 54.50 LIG 0.18  C 
BRANCH 54 55
ATOM     55  C   GLU P   6      33.006   1.666 -33.631  1.00 56.45 LIG 0.24  C 
ATOM     56 O    GLU P   6      33.547   2.809 -33.637  1.00 44.81 LIG-0.27  OA
ATOM     57  N   VAL P   7      33.506   0.579 -34.224  1.00 47.96 LIG-0.35  N 
ATOM     58 H    VAL P   7      33.234  -0.222 -34.066  1.00 47.96 LIG 0.16  HD
BRANCH 57 59
ATOM     59  CA  VAL P   7      34.561   0.666 -35.198  1.00 55.51 LIG 0.17  C 
BRANCH 59 60
ATOM     60  CB  VAL P   7      34.015   1.204 -36.556  1.00 57.72 LIG 0.01  C 
ATOM     61  CG2 VAL P   7      32.616   0.638 -36.842  1.00 57.86 LIG 0.01  C 
ATOM     62  CG1 VAL P   7      34.988   0.956 -37.713  1.00 55.94 LIG 0.01  C 
ENDBRANCH 59 60
BRANCH 59 63
ATOM     63  C   VAL P   7      35.658   1.545 -34.561  1.00 56.50 LIG 0.22  C 
ATOM     64 O    VAL P   7      36.276   2.376 -35.234  1.00 61.93 LIG-0.29  OA
ENDBRANCH 59 63
ENDBRANCH 57 59
ENDBRANCH 54 55
BRANCH 54 65
ATOM     65  CB  GLU P   6      31.175   2.834 -32.580  1.00 55.84 LIG 0.04  C 
BRANCH 65 66
ATOM     66  CG  GLU P   6      29.886   3.189 -33.290  1.00 56.62 LIG 0.12  C 
BRANCH 66 67
ATOM     67  CD  GLU P   6      30.130   3.866 -34.628  1.00 56.54 LIG 0.17  C 
ATOM     68 OE1  GLU P   6      29.867   5.114 -34.737  1.00 46.52 LIG-0.65  OA
ATOM     69 OE2  GLU P   6      30.586   3.115 -35.540  1.00 53.74 LIG-0.65  OA
ENDBRANCH 66 67
ENDBRANCH 65 66
ENDBRANCH 54 65
ENDBRANCH 52 54
ENDBRANCH 38 50
ENDBRANCH 3 38
TORSDOF 23
ENDMDL
MODEL 34
USER: ADFR SOLUTION from run 88
USER: SCORE 19.860327 LL:  -4.991 LR: -16.652 RR:   0.000 FEB:  -9.791
USER: RMSD 7.479702
USER: SEED 87
USER: STATUS no improvement in best in 15 clusters for 5 generations
USER: GENES 25
USER: genes 0 Translation |==|  0.51523 0.44357 0.58590
USER: genes 1 Rotation |==|  0.52744 0.27967 0.90864 0.68361
USER: genes 2 Torsion [N]-C--CA-[N] |==|  0.84538
USER: genes 3 Torsion [C]-CA--N-[C] |==|  0.78635
USER: genes 4 Torsion [N]-C--CA-[N] |==|  0.28900
USER: genes 5 Torsion [C]-CA--CB-[CG] |==|  0.67457
USER: genes 6 Torsion [CA]-CB--CG-[CD2] |==|  0.26743
USER: genes 7 Torsion [C]-CA--N-[C] |==|  0.65836
USER: genes 8 Torsion [N]-C--CA-[N] |==|  0.21330
USER: genes 9 Torsion [C]-CA--CB-[CG] |==|  0.82060
USER: genes 10 Torsion [CA]-CB--CG-[OD2] |==|  0.41587
USER: genes 11 Torsion [C]-CA--CB-[CG] |==|  0.11820
USER: genes 12 Torsion [CA]-CB--CG-[ND2] |==|  0.76635
USER: genes 13 Torsion [C]-N--CA-[CB] |==|  0.15773
USER: genes 14 Torsion [N]-CA--CB-[CG] |==|  0.61454
USER: genes 15 Torsion [CA]-CB--CG-[CD1] |==|  0.41007
USER: genes 16 Torsion [N]-CA--C-[N] |==|  0.69406
USER: genes 17 Torsion [C]-N--CA-[C] |==|  0.66411
USER: genes 18 Torsion [N]-CA--C-[N] |==|  0.52765
USER: genes 19 Torsion [C]-N--CA-[CB] |==|  0.45536
USER: genes 20 Torsion [N]-CA--CB-[CG2] |==|  0.91509
USER: genes 21 Torsion [N]-CA--C-[O] |==|  0.51678
USER: genes 22 Torsion [N]-CA--CB-[CG] |==|  0.02334
USER: genes 23 Torsion [CA]-CB--CG-[CD] |==|  0.30390
USER: genes 24 Torsion [CB]-CG--CD-[OE1] |==|  0.46135
ROOT
ATOM      1  C   ASN P   4      34.200  -3.733 -29.560  1.00 47.61 LIG 0.24  C 
ATOM      2 O    ASN P   4      33.930  -4.506 -28.673  1.00 46.30 LIG-0.27  OA
ATOM      3  N   TRP P   5      35.334  -3.036 -29.532  1.00 43.61 LIG-0.35  N 
ATOM      4 H    TRP P   5      35.591  -2.457 -30.115  1.00 43.61 LIG 0.16  HD
ENDROOT
BRANCH 1 5
ATOM      5  CA  ASN P   4      33.241  -3.570 -30.744  1.00 56.71 LIG 0.18  C 
BRANCH 5 6
ATOM      6  N   ASN P   4      32.886  -2.170 -30.901  1.00 58.55 LIG-0.35  N 
ATOM      7  C   TRP P   3      32.009  -1.603 -30.097  1.00 51.89 LIG 0.24  C 
ATOM      8 O    TRP P   3      31.287  -2.235 -29.323  1.00 53.51 LIG-0.27  OA
ATOM      9 H    ASN P   4      33.289  -1.766 -31.545  1.00 58.55 LIG 0.16  HD
BRANCH 7 10
ATOM     10  CA  TRP P   3      31.844  -0.137 -30.229  1.00 49.09 LIG 0.18  C 
BRANCH 10 11
ATOM     11  CB  TRP P   3      31.868   0.327 -28.771  1.00 45.21 LIG 0.07  C 
BRANCH 11 12
ATOM     12  CG  TRP P   3      30.587   1.026 -28.161  1.00 38.74 LIG-0.03  A 
ATOM     13  CD1 TRP P   3      30.253   2.385 -28.156  1.00 32.85 LIG 0.10  A 
ATOM     14  NE1 TRP P   3      29.071   2.584 -27.419  1.00 33.71 LIG-0.36  N 
ATOM     15  CE2 TRP P   3      28.629   1.374 -26.955  1.00 32.42 LIG 0.04  A 
ATOM     16 HE1  TRP P   3      28.689   3.342 -27.282  1.00 33.71 LIG 0.17  HD
ATOM     17  CZ2 TRP P   3      27.527   1.076 -26.114  1.00 29.39 LIG 0.03  A 
ATOM     18  CD2 TRP P   3      29.549   0.372 -27.380  1.00 33.85 LIG-0.00  A 
ATOM     19  CH2 TRP P   3      27.329  -0.236 -25.822  1.00 25.26 LIG 0.00  A 
ATOM     20  CZ3 TRP P   3      28.187  -1.248 -26.243  1.00 33.31 LIG 0.00  A 
ATOM     21  CE3 TRP P   3      29.334  -0.950 -26.999  1.00 32.67 LIG 0.01  A 
ENDBRANCH 11 12
ENDBRANCH 10 11
BRANCH 10 22
ATOM     22  N   TRP P   3      30.578   0.285 -30.958  1.00 48.62 LIG-0.34  N 
ATOM     23 H    TRP P   3      29.858  -0.017 -30.596  1.00 48.62 LIG 0.16  HD
ATOM     24  C   ASP P   2      30.570   1.060 -32.065  1.00 44.46 LIG 0.26  C 
ATOM     25 O    ASP P   2      31.637   1.368 -32.660  1.00 32.12 LIG-0.27  OA
BRANCH 24 26
ATOM     26  CA  ASP P   2      29.169   1.649 -32.566  1.00 48.39 LIG 0.41  C 
ATOM     27  N   ASP P   2      28.758   2.808 -31.703  1.00 44.52 LIG 0.61  N 
BRANCH 26 28
ATOM     28  CB  ASP P   2      29.070   2.033 -34.089  1.00 55.68 LIG 0.16  C 
BRANCH 28 29
ATOM     29  CG  ASP P   2      30.047   3.240 -34.511  1.00 65.31 LIG 0.17  C 
ATOM     30 OD2  ASP P   2      30.523   3.296 -35.700  1.00 61.23 LIG-0.65  OA
ATOM     31 OD1  ASP P   2      30.351   4.129 -33.647  1.00 59.39 LIG-0.65  OA
ENDBRANCH 28 29
ENDBRANCH 26 28
ENDBRANCH 24 26
ENDBRANCH 10 22
ENDBRANCH 7 10
ENDBRANCH 5 6
BRANCH 5 32
ATOM     32  CB  ASN P   4      33.839  -4.118 -32.069  1.00 62.15 LIG 0.14  C 
BRANCH 32 33
ATOM     33  CG  ASN P   4      34.557  -5.451 -31.887  1.00 66.74 LIG 0.22  C 
ATOM     34 OD1  ASN P   4      33.970  -6.515 -32.091  1.00 65.57 LIG-0.27  OA
ATOM     35  ND2 ASN P   4      35.821  -5.401 -31.479  1.00 62.00 LIG-0.37  N 
ATOM     36 21HD ASN P   4      36.259  -6.129 -31.348  1.00 62.00 LIG 0.16  HD
ATOM     37 22HD ASN P   4      36.199  -4.641 -31.346  1.00 62.00 LIG 0.16  HD
ENDBRANCH 32 33
ENDBRANCH 5 32
ENDBRANCH 1 5
BRANCH 3 38
ATOM     38  CA  TRP P   5      36.224  -3.268 -28.416  1.00 39.30 LIG 0.18  C 
BRANCH 38 39
ATOM     39  CB  TRP P   5      36.640  -4.747 -28.273  1.00 34.53 LIG 0.07  C 
BRANCH 39 40
ATOM     40  CG  TRP P   5      36.681  -5.296 -26.883  1.00 28.80 LIG-0.03  A 
ATOM     41  CD1 TRP P   5      36.409  -6.567 -26.524  1.00 24.67 LIG 0.10  A 
ATOM     42  NE1 TRP P   5      36.500  -6.704 -25.194  1.00 28.39 LIG-0.36  N 
ATOM     43 HE1  TRP P   5      36.335  -7.428 -24.759  1.00 28.39 LIG 0.17  HD
ATOM     44  CE2 TRP P   5      36.896  -5.517 -24.627  1.00 28.85 LIG 0.04  A 
ATOM     45  CZ2 TRP P   5      37.180  -5.201 -23.315  1.00 29.12 LIG 0.03  A 
ATOM     46  CD2 TRP P   5      37.042  -4.599 -25.676  1.00 31.26 LIG-0.00  A 
ATOM     47  CH2 TRP P   5      37.534  -3.904 -23.036  1.00 31.42 LIG 0.00  A 
ATOM     48  CZ3 TRP P   5      37.605  -2.927 -24.044  1.00 31.13 LIG 0.00  A 
ATOM     49  CE3 TRP P   5      37.369  -3.264 -25.373  1.00 35.06 LIG 0.01  A 
ENDBRANCH 39 40
ENDBRANCH 38 39
BRANCH 38 50
ATOM     50  C   TRP P   5      37.369  -2.292 -28.600  1.00 44.67 LIG 0.24  C 
ATOM     51 O    TRP P   5      37.204  -1.100 -28.443  1.00 47.12 LIG-0.27  OA
ATOM     52  N   GLU P   6      38.536  -2.814 -28.927  1.00 57.45 LIG-0.35  N 
ATOM     53 H    GLU P   6      38.634  -3.625 -29.196  1.00 57.45 LIG 0.16  HD
BRANCH 52 54
ATOM     54  CA  GLU P   6      39.777  -2.057 -28.862  1.00 54.50 LIG 0.18  C 
BRANCH 54 55
ATOM     55  C   GLU P   6      40.425  -2.004 -30.209  1.00 56.45 LIG 0.24  C 
ATOM     56 O    GLU P   6      39.806  -2.412 -31.232  1.00 44.81 LIG-0.27  OA
ATOM     57  N   VAL P   7      41.667  -1.512 -30.209  1.00 47.96 LIG-0.35  N 
ATOM     58 H    VAL P   7      42.010  -1.074 -29.553  1.00 47.96 LIG 0.16  HD
BRANCH 57 59
ATOM     59  CA  VAL P   7      42.548  -1.684 -31.333  1.00 55.51 LIG 0.17  C 
BRANCH 59 60
ATOM     60  CB  VAL P   7      43.750  -0.696 -31.248  1.00 57.72 LIG 0.01  C 
ATOM     61  CG2 VAL P   7      43.338   0.601 -30.534  1.00 57.86 LIG 0.01  C 
ATOM     62  CG1 VAL P   7      44.380  -0.427 -32.618  1.00 55.94 LIG 0.01  C 
ENDBRANCH 59 60
BRANCH 59 63
ATOM     63  C   VAL P   7      42.948  -3.174 -31.337  1.00 56.50 LIG 0.22  C 
ATOM     64 O    VAL P   7      43.794  -3.602 -32.130  1.00 61.93 LIG-0.29  OA
ENDBRANCH 59 63
ENDBRANCH 57 59
ENDBRANCH 54 55
BRANCH 54 65
ATOM     65  CB  GLU P   6      40.759  -2.769 -27.944  1.00 55.84 LIG 0.04  C 
BRANCH 65 66
ATOM     66  CG  GLU P   6      40.295  -4.143 -27.509  1.00 56.62 LIG 0.12  C 
BRANCH 66 67
ATOM     67  CD  GLU P   6      41.105  -5.256 -28.148  1.00 56.54 LIG 0.17  C 
ATOM     68 OE1  GLU P   6      41.001  -6.439 -27.668  1.00 46.52 LIG-0.65  OA
ATOM     69 OE2  GLU P   6      41.829  -4.908 -29.126  1.00 53.74 LIG-0.65  OA
ENDBRANCH 66 67
ENDBRANCH 65 66
ENDBRANCH 54 65
ENDBRANCH 52 54
ENDBRANCH 38 50
ENDBRANCH 3 38
TORSDOF 23
ENDMDL
MODEL 35
USER: ADFR SOLUTION from run 184
USER: SCORE 19.617640 LL:  -5.198 LR: -16.642 RR:   0.000 FEB:  -9.781
USER: RMSD 10.605360
USER: SEED 183
USER: STATUS no improvement in best in 15 clusters for 5 generations
USER: GENES 25
USER: genes 0 Translation |==|  0.47624 0.47097 0.49563
USER: genes 1 Rotation |==|  0.08052 0.37909 0.73530 0.56362
USER: genes 2 Torsion [N]-C--CA-[N] |==|  0.19004
USER: genes 3 Torsion [C]-CA--N-[C] |==|  0.75008
USER: genes 4 Torsion [N]-C--CA-[N] |==|  0.32222
USER: genes 5 Torsion [C]-CA--CB-[CG] |==|  0.79851
USER: genes 6 Torsion [CA]-CB--CG-[CD2] |==|  0.28512
USER: genes 7 Torsion [C]-CA--N-[C] |==|  0.81475
USER: genes 8 Torsion [N]-C--CA-[N] |==|  0.31278
USER: genes 9 Torsion [C]-CA--CB-[CG] |==|  0.71221
USER: genes 10 Torsion [CA]-CB--CG-[OD2] |==|  0.39437
USER: genes 11 Torsion [C]-CA--CB-[CG] |==|  0.56198
USER: genes 12 Torsion [CA]-CB--CG-[ND2] |==|  0.77517
USER: genes 13 Torsion [C]-N--CA-[CB] |==|  0.47699
USER: genes 14 Torsion [N]-CA--CB-[CG] |==|  0.46104
USER: genes 15 Torsion [CA]-CB--CG-[CD1] |==|  0.72734
USER: genes 16 Torsion [N]-CA--C-[N] |==|  0.87050
USER: genes 17 Torsion [C]-N--CA-[C] |==|  0.63134
USER: genes 18 Torsion [N]-CA--C-[N] |==|  0.24805
USER: genes 19 Torsion [C]-N--CA-[CB] |==|  0.52252
USER: genes 20 Torsion [N]-CA--CB-[CG2] |==|  0.49634
USER: genes 21 Torsion [N]-CA--C-[O] |==|  0.48279
USER: genes 22 Torsion [N]-CA--CB-[CG] |==|  0.61892
USER: genes 23 Torsion [CA]-CB--CG-[CD] |==|  0.73388
USER: genes 24 Torsion [CB]-CG--CD-[OE1] |==|  0.54807
ROOT
ATOM      1  C   ASN P   4      33.381  -3.096 -31.456  1.00 47.61 LIG 0.24  C 
ATOM      2 O    ASN P   4      32.382  -2.902 -32.105  1.00 46.30 LIG-0.27  OA
ATOM      3  N   TRP P   5      33.573  -2.464 -30.300  1.00 43.61 LIG-0.35  N 
ATOM      4 H    TRP P   5      34.261  -2.535 -29.787  1.00 43.61 LIG 0.16  HD
ENDROOT
BRANCH 1 5
ATOM      5  CA  ASN P   4      34.428  -4.098 -31.952  1.00 56.71 LIG 0.18  C 
BRANCH 5 6
ATOM      6  N   ASN P   4      34.438  -5.267 -31.090  1.00 58.55 LIG-0.35  N 
ATOM      7  C   TRP P   3      35.223  -5.318 -30.033  1.00 51.89 LIG 0.24  C 
ATOM      8 O    TRP P   3      36.132  -4.514 -29.820  1.00 53.51 LIG-0.27  OA
ATOM      9 H    ASN P   4      33.902  -5.897 -31.329  1.00 58.55 LIG 0.16  HD
BRANCH 7 10
ATOM     10  CA  TRP P   3      35.036  -6.475 -29.126  1.00 49.09 LIG 0.18  C 
BRANCH 10 11
ATOM     11  CB  TRP P   3      34.717  -5.796 -27.793  1.00 45.21 LIG 0.07  C 
BRANCH 11 12
ATOM     12  CG  TRP P   3      35.873  -5.059 -27.004  1.00 38.74 LIG-0.03  A 
ATOM     13  CD1 TRP P   3      36.831  -5.609 -26.145  1.00 32.85 LIG 0.10  A 
ATOM     14  NE1 TRP P   3      37.609  -4.583 -25.578  1.00 33.71 LIG-0.36  N 
ATOM     15  CE2 TRP P   3      37.177  -3.378 -26.065  1.00 32.42 LIG 0.04  A 
ATOM     16 HE1  TRP P   3      38.252  -4.693 -25.017  1.00 33.71 LIG 0.17  HD
ATOM     17  CZ2 TRP P   3      37.602  -2.066 -25.737  1.00 29.39 LIG 0.03  A 
ATOM     18  CD2 TRP P   3      36.085  -3.622 -26.949  1.00 33.85 LIG-0.00  A 
ATOM     19  CH2 TRP P   3      36.983  -1.050 -26.396  1.00 25.26 LIG 0.00  A 
ATOM     20  CZ3 TRP P   3      35.935  -1.249 -27.289  1.00 33.31 LIG 0.00  A 
ATOM     21  CE3 TRP P   3      35.445  -2.540 -27.549  1.00 32.67 LIG 0.01  A 
ENDBRANCH 11 12
ENDBRANCH 10 11
BRANCH 10 22
ATOM     22  N   TRP P   3      36.239  -7.402 -29.039  1.00 48.62 LIG-0.34  N 
ATOM     23 H    TRP P   3      36.615  -7.401 -28.266  1.00 48.62 LIG 0.16  HD
ATOM     24  C   ASP P   2      36.682  -8.157 -30.069  1.00 44.46 LIG 0.26  C 
ATOM     25 O    ASP P   2      36.209  -8.031 -31.230  1.00 32.12 LIG-0.27  OA
BRANCH 24 26
ATOM     26  CA  ASP P   2      37.779  -9.281 -29.763  1.00 48.39 LIG 0.41  C 
ATOM     27  N   ASP P   2      37.188 -10.648 -29.964  1.00 44.52 LIG 0.61  N 
BRANCH 26 28
ATOM     28  CB  ASP P   2      39.149  -9.155 -30.529  1.00 55.68 LIG 0.16  C 
BRANCH 28 29
ATOM     29  CG  ASP P   2      39.299 -10.191 -31.751  1.00 65.31 LIG 0.17  C 
ATOM     30 OD2  ASP P   2      39.874  -9.825 -32.837  1.00 61.23 LIG-0.65  OA
ATOM     31 OD1  ASP P   2      38.829 -11.372 -31.630  1.00 59.39 LIG-0.65  OA
ENDBRANCH 28 29
ENDBRANCH 26 28
ENDBRANCH 24 26
ENDBRANCH 10 22
ENDBRANCH 7 10
ENDBRANCH 5 6
BRANCH 5 32
ATOM     32  CB  ASN P   4      34.186  -4.527 -33.425  1.00 62.15 LIG 0.14  C 
BRANCH 32 33
ATOM     33  CG  ASN P   4      34.832  -5.866 -33.766  1.00 66.74 LIG 0.22  C 
ATOM     34 OD1  ASN P   4      34.169  -6.905 -33.753  1.00 65.57 LIG-0.27  OA
ATOM     35  ND2 ASN P   4      36.130  -5.852 -34.047  1.00 62.00 LIG-0.37  N 
ATOM     36 21HD ASN P   4      36.538  -6.587 -34.229  1.00 62.00 LIG 0.16  HD
ATOM     37 22HD ASN P   4      36.561  -5.109 -34.047  1.00 62.00 LIG 0.16  HD
ENDBRANCH 32 33
ENDBRANCH 5 32
ENDBRANCH 1 5
BRANCH 3 38
ATOM     38  CA  TRP P   5      32.528  -1.567 -29.857  1.00 39.30 LIG 0.18  C 
BRANCH 38 39
ATOM     39  CB  TRP P   5      32.749  -1.043 -28.422  1.00 34.53 LIG 0.07  C 
BRANCH 39 40
ATOM     40  CG  TRP P   5      31.912   0.122 -28.002  1.00 28.80 LIG-0.03  A 
ATOM     41  CD1 TRP P   5      32.296   1.415 -28.004  1.00 24.67 LIG 0.10  A 
ATOM     42  NE1 TRP P   5      31.313   2.192 -27.525  1.00 28.39 LIG-0.36  N 
ATOM     43 HE1  TRP P   5      31.367   3.043 -27.414  1.00 28.39 LIG 0.17  HD
ATOM     44  CE2 TRP P   5      30.210   1.426 -27.237  1.00 28.85 LIG 0.04  A 
ATOM     45  CZ2 TRP P   5      28.958   1.791 -26.788  1.00 29.12 LIG 0.03  A 
ATOM     46  CD2 TRP P   5      30.546   0.101 -27.548  1.00 31.26 LIG-0.00  A 
ATOM     47  CH2 TRP P   5      28.047   0.790 -26.561  1.00 31.42 LIG 0.00  A 
ATOM     48  CZ3 TRP P   5      28.371  -0.561 -26.773  1.00 31.13 LIG 0.00  A 
ATOM     49  CE3 TRP P   5      29.617  -0.919 -27.275  1.00 35.06 LIG 0.01  A 
ENDBRANCH 39 40
ENDBRANCH 38 39
BRANCH 38 50
ATOM     50  C   TRP P   5      32.434  -0.496 -30.925  1.00 44.67 LIG 0.24  C 
ATOM     51 O    TRP P   5      31.357  -0.145 -31.363  1.00 47.12 LIG-0.27  OA
ATOM     52  N   GLU P   6      33.575   0.026 -31.334  1.00 57.45 LIG-0.35  N 
ATOM     53 H    GLU P   6      34.344  -0.316 -31.156  1.00 57.45 LIG 0.16  HD
BRANCH 52 54
ATOM     54  CA  GLU P   6      33.637   1.242 -32.131  1.00 54.50 LIG 0.18  C 
BRANCH 54 55
ATOM     55  C   GLU P   6      34.557   1.054 -33.295  1.00 56.45 LIG 0.24  C 
ATOM     56 O    GLU P   6      35.783   1.346 -33.193  1.00 44.81 LIG-0.27  OA
ATOM     57  N   VAL P   7      33.971   0.577 -34.396  1.00 47.96 LIG-0.35  N 
ATOM     58 H    VAL P   7      33.192   0.213 -34.406  1.00 47.96 LIG 0.16  HD
BRANCH 57 59
ATOM     59  CA  VAL P   7      34.615   0.638 -35.681  1.00 55.51 LIG 0.17  C 
BRANCH 59 60
ATOM     60  CB  VAL P   7      33.633   0.201 -36.810  1.00 57.72 LIG 0.01  C 
ATOM     61  CG2 VAL P   7      34.309   0.297 -38.187  1.00 57.86 LIG 0.01  C 
ATOM     62  CG1 VAL P   7      32.310   0.972 -36.760  1.00 55.94 LIG 0.01  C 
ENDBRANCH 59 60
BRANCH 59 63
ATOM     63  C   VAL P   7      35.147   2.079 -35.824  1.00 56.50 LIG 0.22  C 
ATOM     64 O    VAL P   7      35.851   2.403 -36.786  1.00 61.93 LIG-0.29  OA
ENDBRANCH 59 63
ENDBRANCH 57 59
ENDBRANCH 54 55
BRANCH 54 65
ATOM     65  CB  GLU P   6      34.232   2.367 -31.296  1.00 55.84 LIG 0.04  C 
BRANCH 65 66
ATOM     66  CG  GLU P   6      33.510   3.688 -31.458  1.00 56.62 LIG 0.12  C 
BRANCH 66 67
ATOM     67  CD  GLU P   6      34.175   4.588 -32.485  1.00 56.54 LIG 0.17  C 
ATOM     68 OE1  GLU P   6      33.884   5.834 -32.483  1.00 46.52 LIG-0.65  OA
ATOM     69 OE2  GLU P   6      34.980   4.009 -33.273  1.00 53.74 LIG-0.65  OA
ENDBRANCH 66 67
ENDBRANCH 65 66
ENDBRANCH 54 65
ENDBRANCH 52 54
ENDBRANCH 38 50
ENDBRANCH 3 38
TORSDOF 23
ENDMDL
MODEL 36
USER: ADFR SOLUTION from run 149
USER: SCORE 19.422308 LL:  -4.801 LR: -16.633 RR:   0.000 FEB:  -9.772
USER: RMSD 10.527734
USER: SEED 148
USER: STATUS no improvement in best in 11 clusters for 5 generations
USER: GENES 25
USER: genes 0 Translation |==|  0.48983 0.47014 0.51887
USER: genes 1 Rotation |==|  0.81901 0.50437 0.13145 0.61128
USER: genes 2 Torsion [N]-C--CA-[N] |==|  0.14112
USER: genes 3 Torsion [C]-CA--N-[C] |==|  0.16513
USER: genes 4 Torsion [N]-C--CA-[N] |==|  0.88725
USER: genes 5 Torsion [C]-CA--CB-[CG] |==|  0.32766
USER: genes 6 Torsion [CA]-CB--CG-[CD2] |==|  0.09929
USER: genes 7 Torsion [C]-CA--N-[C] |==|  0.68706
USER: genes 8 Torsion [N]-C--CA-[N] |==|  0.82047
USER: genes 9 Torsion [C]-CA--CB-[CG] |==|  0.67989
USER: genes 10 Torsion [CA]-CB--CG-[OD2] |==|  0.31662
USER: genes 11 Torsion [C]-CA--CB-[CG] |==|  0.45237
USER: genes 12 Torsion [CA]-CB--CG-[ND2] |==|  0.10507
USER: genes 13 Torsion [C]-N--CA-[CB] |==|  0.27222
USER: genes 14 Torsion [N]-CA--CB-[CG] |==|  0.71371
USER: genes 15 Torsion [CA]-CB--CG-[CD1] |==|  0.11612
USER: genes 16 Torsion [N]-CA--C-[N] |==|  0.83676
USER: genes 17 Torsion [C]-N--CA-[C] |==|  0.73356
USER: genes 18 Torsion [N]-CA--C-[N] |==|  0.24275
USER: genes 19 Torsion [C]-N--CA-[CB] |==|  0.52047
USER: genes 20 Torsion [N]-CA--CB-[CG2] |==|  0.93367
USER: genes 21 Torsion [N]-CA--C-[O] |==|  0.63719
USER: genes 22 Torsion [N]-CA--CB-[CG] |==|  0.66634
USER: genes 23 Torsion [CA]-CB--CG-[CD] |==|  0.83807
USER: genes 24 Torsion [CB]-CG--CD-[OE1] |==|  0.39806
ROOT
ATOM      1  C   ASN P   4      33.666  -3.115 -30.968  1.00 47.61 LIG 0.24  C 
ATOM      2 O    ASN P   4      32.486  -3.363 -30.919  1.00 46.30 LIG-0.27  OA
ATOM      3  N   TRP P   5      34.096  -1.855 -30.980  1.00 43.61 LIG-0.35  N 
ATOM      4 H    TRP P   5      34.915  -1.596 -31.028  1.00 43.61 LIG 0.16  HD
ENDROOT
BRANCH 1 5
ATOM      5  CA  ASN P   4      34.684  -4.260 -30.989  1.00 56.71 LIG 0.18  C 
BRANCH 5 6
ATOM      6  N   ASN P   4      35.681  -4.053 -29.954  1.00 58.55 LIG-0.35  N 
ATOM      7  C   TRP P   3      35.329  -3.971 -28.686  1.00 51.89 LIG 0.24  C 
ATOM      8 O    TRP P   3      34.161  -3.846 -28.311  1.00 53.51 LIG-0.27  OA
ATOM      9 H    ASN P   4      36.491  -3.992 -30.239  1.00 58.55 LIG 0.16  HD
BRANCH 7 10
ATOM     10  CA  TRP P   3      36.430  -3.931 -27.697  1.00 49.09 LIG 0.18  C 
BRANCH 10 11
ATOM     11  CB  TRP P   3      36.847  -2.459 -27.732  1.00 45.21 LIG 0.07  C 
BRANCH 11 12
ATOM     12  CG  TRP P   3      36.709  -1.585 -26.421  1.00 38.74 LIG-0.03  A 
ATOM     13  CD1 TRP P   3      36.461  -0.212 -26.309  1.00 32.85 LIG 0.10  A 
ATOM     14  NE1 TRP P   3      36.515   0.175 -24.957  1.00 33.71 LIG-0.36  N 
ATOM     15  CE2 TRP P   3      36.785  -0.927 -24.191  1.00 32.42 LIG 0.04  A 
ATOM     16 HE1  TRP P   3      36.398   0.974 -24.661  1.00 33.71 LIG 0.17  HD
ATOM     17  CZ2 TRP P   3      37.002  -1.025 -22.793  1.00 29.39 LIG 0.03  A 
ATOM     18  CD2 TRP P   3      36.929  -2.048 -25.060  1.00 33.85 LIG-0.00  A 
ATOM     19  CH2 TRP P   3      37.247  -2.271 -22.308  1.00 25.26 LIG 0.00  A 
ATOM     20  CZ3 TRP P   3      37.365  -3.395 -23.119  1.00 33.31 LIG 0.00  A 
ATOM     21  CE3 TRP P   3      37.244  -3.291 -24.515  1.00 32.67 LIG 0.01  A 
ENDBRANCH 11 12
ENDBRANCH 10 11
BRANCH 10 22
ATOM     22  N   TRP P   3      37.582  -4.874 -28.006  1.00 48.62 LIG-0.34  N 
ATOM     23 H    TRP P   3      38.024  -4.655 -28.711  1.00 48.62 LIG 0.16  HD
ATOM     24  C   ASP P   2      37.892  -5.954 -27.256  1.00 44.46 LIG 0.26  C 
ATOM     25 O    ASP P   2      37.146  -6.340 -26.316  1.00 32.12 LIG-0.27  OA
BRANCH 24 26
ATOM     26  CA  ASP P   2      39.282  -6.696 -27.537  1.00 48.39 LIG 0.41  C 
ATOM     27  N   ASP P   2      39.279  -7.294 -28.916  1.00 44.52 LIG 0.61  N 
BRANCH 26 28
ATOM     28  CB  ASP P   2      40.591  -5.853 -27.305  1.00 55.68 LIG 0.16  C 
BRANCH 28 29
ATOM     29  CG  ASP P   2      41.435  -5.595 -28.650  1.00 65.31 LIG 0.17  C 
ATOM     30 OD2  ASP P   2      41.556  -4.406 -29.114  1.00 61.23 LIG-0.65  OA
ATOM     31 OD1  ASP P   2      41.968  -6.585 -29.254  1.00 59.39 LIG-0.65  OA
ENDBRANCH 28 29
ENDBRANCH 26 28
ENDBRANCH 24 26
ENDBRANCH 10 22
ENDBRANCH 7 10
ENDBRANCH 5 6
BRANCH 5 32
ATOM     32  CB  ASN P   4      34.014  -5.650 -30.810  1.00 62.15 LIG 0.14  C 
BRANCH 32 33
ATOM     33  CG  ASN P   4      34.918  -6.802 -31.237  1.00 66.74 LIG 0.22  C 
ATOM     34 OD1  ASN P   4      34.449  -7.797 -31.795  1.00 65.57 LIG-0.27  OA
ATOM     35  ND2 ASN P   4      36.211  -6.686 -30.958  1.00 62.00 LIG-0.37  N 
ATOM     36 21HD ASN P   4      36.755  -7.319 -31.166  1.00 62.00 LIG 0.16  HD
ATOM     37 22HD ASN P   4      36.504  -5.978 -30.568  1.00 62.00 LIG 0.16  HD
ENDBRANCH 32 33
ENDBRANCH 5 32
ENDBRANCH 1 5
BRANCH 3 38
ATOM     38  CA  TRP P   5      33.093  -0.815 -30.908  1.00 39.30 LIG 0.18  C 
BRANCH 38 39
ATOM     39  CB  TRP P   5      32.901  -0.259 -29.481  1.00 34.53 LIG 0.07  C 
BRANCH 39 40
ATOM     40  CG  TRP P   5      31.692  -0.729 -28.739  1.00 28.80 LIG-0.03  A 
ATOM     41  CD1 TRP P   5      31.216  -1.991 -28.717  1.00 24.67 LIG 0.10  A 
ATOM     42  NE1 TRP P   5      30.091  -2.050 -27.989  1.00 28.39 LIG-0.36  N 
ATOM     43 HE1  TRP P   5      29.614  -2.757 -27.875  1.00 28.39 LIG 0.17  HD
ATOM     44  CE2 TRP P   5      29.814  -0.816 -27.454  1.00 28.85 LIG 0.04  A 
ATOM     45  CZ2 TRP P   5      28.809  -0.415 -26.599  1.00 29.12 LIG 0.03  A 
ATOM     46  CD2 TRP P   5      30.825   0.050 -27.894  1.00 31.26 LIG-0.00  A 
ATOM     47  CH2 TRP P   5      28.767   0.911 -26.246  1.00 31.42 LIG 0.00  A 
ATOM     48  CZ3 TRP P   5      29.707   1.834 -26.736  1.00 31.13 LIG 0.00  A 
ATOM     49  CE3 TRP P   5      30.749   1.413 -27.556  1.00 35.06 LIG 0.01  A 
ENDBRANCH 39 40
ENDBRANCH 38 39
BRANCH 38 50
ATOM     50  C   TRP P   5      33.495   0.210 -31.949  1.00 44.67 LIG 0.24  C 
ATOM     51 O    TRP P   5      32.741   0.510 -32.852  1.00 47.12 LIG-0.27  OA
ATOM     52  N   GLU P   6      34.690   0.750 -31.808  1.00 57.45 LIG-0.35  N 
ATOM     53 H    GLU P   6      35.292   0.439 -31.278  1.00 57.45 LIG 0.16  HD
BRANCH 52 54
ATOM     54  CA  GLU P   6      35.104   1.935 -32.544  1.00 54.50 LIG 0.18  C 
BRANCH 54 55
ATOM     55  C   GLU P   6      35.868   1.546 -33.770  1.00 56.45 LIG 0.24  C 
ATOM     56 O    GLU P   6      37.129   1.463 -33.737  1.00 44.81 LIG-0.27  OA
ATOM     57  N   VAL P   7      35.112   1.316 -34.846  1.00 47.96 LIG-0.35  N 
ATOM     58 H    VAL P   7      34.261   1.195 -34.818  1.00 47.96 LIG 0.16  HD
BRANCH 57 59
ATOM     59  CA  VAL P   7      35.677   1.251 -36.167  1.00 55.51 LIG 0.17  C 
BRANCH 59 60
ATOM     60  CB  VAL P   7      34.554   1.157 -37.244  1.00 57.72 LIG 0.01  C 
ATOM     61  CG2 VAL P   7      33.267   0.577 -36.637  1.00 57.86 LIG 0.01  C 
ATOM     62  CG1 VAL P   7      35.005   0.387 -38.489  1.00 55.94 LIG 0.01  C 
ENDBRANCH 59 60
BRANCH 59 63
ATOM     63  C   VAL P   7      36.586   2.490 -36.303  1.00 56.50 LIG 0.22  C 
ATOM     64 O    VAL P   7      36.505   3.232 -37.287  1.00 61.93 LIG-0.29  OA
ENDBRANCH 59 63
ENDBRANCH 57 59
ENDBRANCH 54 55
BRANCH 54 65
ATOM     65  CB  GLU P   6      36.061   2.756 -31.690  1.00 55.84 LIG 0.04  C 
BRANCH 65 66
ATOM     66  CG  GLU P   6      35.567   4.158 -31.405  1.00 56.62 LIG 0.12  C 
BRANCH 66 67
ATOM     67  CD  GLU P   6      35.314   4.951 -32.676  1.00 56.54 LIG 0.17  C 
ATOM     68 OE1  GLU P   6      34.321   5.758 -32.703  1.00 46.52 LIG-0.65  OA
ATOM     69 OE2  GLU P   6      36.130   4.737 -33.620  1.00 53.74 LIG-0.65  OA
ENDBRANCH 66 67
ENDBRANCH 65 66
ENDBRANCH 54 65
ENDBRANCH 52 54
ENDBRANCH 38 50
ENDBRANCH 3 38
TORSDOF 23
ENDMDL
MODEL 37
USER: ADFR SOLUTION from run 184
USER: SCORE 19.694497 LL:  -5.332 LR: -16.620 RR:   0.000 FEB:  -9.760
USER: RMSD 9.813483
USER: SEED 183
USER: STATUS no improvement in best in 15 clusters for 5 generations
USER: GENES 25
USER: genes 0 Translation |==|  0.47579 0.47405 0.51459
USER: genes 1 Rotation |==|  0.91301 0.63169 0.25100 0.50911
USER: genes 2 Torsion [N]-C--CA-[N] |==|  0.05174
USER: genes 3 Torsion [C]-CA--N-[C] |==|  0.18605
USER: genes 4 Torsion [N]-C--CA-[N] |==|  0.22634
USER: genes 5 Torsion [C]-CA--CB-[CG] |==|  0.29034
USER: genes 6 Torsion [CA]-CB--CG-[CD2] |==|  0.83804
USER: genes 7 Torsion [C]-CA--N-[C] |==|  0.78877
USER: genes 8 Torsion [N]-C--CA-[N] |==|  0.44577
USER: genes 9 Torsion [C]-CA--CB-[CG] |==|  0.85764
USER: genes 10 Torsion [CA]-CB--CG-[OD2] |==|  0.11747
USER: genes 11 Torsion [C]-CA--CB-[CG] |==|  0.27664
USER: genes 12 Torsion [CA]-CB--CG-[ND2] |==|  0.89798
USER: genes 13 Torsion [C]-N--CA-[CB] |==|  0.42803
USER: genes 14 Torsion [N]-CA--CB-[CG] |==|  0.46762
USER: genes 15 Torsion [CA]-CB--CG-[CD1] |==|  0.79664
USER: genes 16 Torsion [N]-CA--C-[N] |==|  0.91480
USER: genes 17 Torsion [C]-N--CA-[C] |==|  0.62222
USER: genes 18 Torsion [N]-CA--C-[N] |==|  0.24130
USER: genes 19 Torsion [C]-N--CA-[CB] |==|  0.52374
USER: genes 20 Torsion [N]-CA--CB-[CG2] |==|  0.49531
USER: genes 21 Torsion [N]-CA--C-[O] |==|  0.48282
USER: genes 22 Torsion [N]-CA--CB-[CG] |==|  0.61975
USER: genes 23 Torsion [CA]-CB--CG-[CD] |==|  0.73302
USER: genes 24 Torsion [CB]-CG--CD-[OE1] |==|  0.54844
ROOT
ATOM      1  C   ASN P   4      33.372  -3.024 -31.058  1.00 47.61 LIG 0.24  C 
ATOM      2 O    ASN P   4      32.381  -3.174 -31.730  1.00 46.30 LIG-0.27  OA
ATOM      3  N   TRP P   5      33.400  -2.119 -30.081  1.00 43.61 LIG-0.35  N 
ATOM      4 H    TRP P   5      34.068  -1.942 -29.569  1.00 43.61 LIG 0.16  HD
ENDROOT
BRANCH 1 5
ATOM      5  CA  ASN P   4      34.602  -3.901 -31.311  1.00 56.71 LIG 0.18  C 
BRANCH 5 6
ATOM      6  N   ASN P   4      35.465  -3.888 -30.143  1.00 58.55 LIG-0.35  N 
ATOM      7  C   TRP P   3      35.073  -4.437 -29.010  1.00 51.89 LIG 0.24  C 
ATOM      8 O    TRP P   3      33.914  -4.792 -28.791  1.00 53.51 LIG-0.27  OA
ATOM      9 H    ASN P   4      36.226  -3.503 -30.259  1.00 58.55 LIG 0.16  HD
BRANCH 7 10
ATOM     10  CA  TRP P   3      36.087  -4.524 -27.933  1.00 49.09 LIG 0.18  C 
BRANCH 10 11
ATOM     11  CB  TRP P   3      35.557  -5.676 -27.078  1.00 45.21 LIG 0.07  C 
BRANCH 11 12
ATOM     12  CG  TRP P   3      36.261  -7.090 -27.163  1.00 38.74 LIG-0.03  A 
ATOM     13  CD1 TRP P   3      36.943  -7.787 -26.159  1.00 32.85 LIG 0.10  A 
ATOM     14  NE1 TRP P   3      37.500  -8.965 -26.689  1.00 33.71 LIG-0.36  N 
ATOM     15  CE2 TRP P   3      37.182  -9.046 -28.019  1.00 32.42 LIG 0.04  A 
ATOM     16 HE1  TRP P   3      37.965  -9.540 -26.251  1.00 33.71 LIG 0.17  HD
ATOM     17  CZ2 TRP P   3      37.573 -10.008 -28.984  1.00 29.39 LIG 0.03  A 
ATOM     18  CD2 TRP P   3      36.420  -7.892 -28.365  1.00 33.85 LIG-0.00  A 
ATOM     19  CH2 TRP P   3      37.090  -9.829 -30.242  1.00 25.26 LIG 0.00  A 
ATOM     20  CZ3 TRP P   3      36.319  -8.733 -30.613  1.00 33.31 LIG 0.00  A 
ATOM     21  CE3 TRP P   3      36.004  -7.726 -29.683  1.00 32.67 LIG 0.01  A 
ENDBRANCH 11 12
ENDBRANCH 10 11
BRANCH 10 22
ATOM     22  N   TRP P   3      36.266  -3.239 -27.139  1.00 48.62 LIG-0.34  N 
ATOM     23 H    TRP P   3      35.898  -3.263 -26.363  1.00 48.62 LIG 0.16  HD
ATOM     24  C   ASP P   2      36.936  -2.159 -27.598  1.00 44.46 LIG 0.26  C 
ATOM     25 O    ASP P   2      37.339  -2.091 -28.791  1.00 32.12 LIG-0.27  OA
BRANCH 24 26
ATOM     26  CA  ASP P   2      37.280  -0.987 -26.564  1.00 48.39 LIG 0.41  C 
ATOM     27  N   ASP P   2      38.395  -0.135 -27.101  1.00 44.52 LIG 0.61  N 
BRANCH 26 28
ATOM     28  CB  ASP P   2      36.077  -0.088 -26.092  1.00 55.68 LIG 0.16  C 
BRANCH 28 29
ATOM     29  CG  ASP P   2      35.204   0.505 -27.308  1.00 65.31 LIG 0.17  C 
ATOM     30 OD2  ASP P   2      34.906  -0.240 -28.307  1.00 61.23 LIG-0.65  OA
ATOM     31 OD1  ASP P   2      34.826   1.724 -27.270  1.00 59.39 LIG-0.65  OA
ENDBRANCH 28 29
ENDBRANCH 26 28
ENDBRANCH 24 26
ENDBRANCH 10 22
ENDBRANCH 7 10
ENDBRANCH 5 6
BRANCH 5 32
ATOM     32  CB  ASN P   4      34.223  -5.363 -31.675  1.00 62.15 LIG 0.14  C 
BRANCH 32 33
ATOM     33  CG  ASN P   4      34.273  -5.631 -33.176  1.00 66.74 LIG 0.22  C 
ATOM     34 OD1  ASN P   4      34.686  -6.708 -33.609  1.00 65.57 LIG-0.27  OA
ATOM     35  ND2 ASN P   4      33.878  -4.646 -33.975  1.00 62.00 LIG-0.37  N 
ATOM     36 21HD ASN P   4      33.905  -4.748 -34.828  1.00 62.00 LIG 0.16  HD
ATOM     37 22HD ASN P   4      33.595  -3.907 -33.639  1.00 62.00 LIG 0.16  HD
ENDBRANCH 32 33
ENDBRANCH 5 32
ENDBRANCH 1 5
BRANCH 3 38
ATOM     38  CA  TRP P   5      32.192  -1.356 -29.855  1.00 39.30 LIG 0.18  C 
BRANCH 38 39
ATOM     39  CB  TRP P   5      32.068  -0.836 -28.408  1.00 34.53 LIG 0.07  C 
BRANCH 39 40
ATOM     40  CG  TRP P   5      31.001   0.179 -28.153  1.00 28.80 LIG-0.03  A 
ATOM     41  CD1 TRP P   5      31.026   1.471 -28.539  1.00 24.67 LIG 0.10  A 
ATOM     42  NE1 TRP P   5      29.928   2.106 -28.107  1.00 28.39 LIG-0.36  N 
ATOM     43 HE1  TRP P   5      29.765   2.944 -28.220  1.00 28.39 LIG 0.17  HD
ATOM     44  CE2 TRP P   5      29.101   1.223 -27.456  1.00 28.85 LIG 0.04  A 
ATOM     45  CZ2 TRP P   5      27.849   1.405 -26.906  1.00 29.12 LIG 0.03  A 
ATOM     46  CD2 TRP P   5      29.742  -0.023 -27.483  1.00 31.26 LIG-0.00  A 
ATOM     47  CH2 TRP P   5      27.264   0.329 -26.288  1.00 31.42 LIG 0.00  A 
ATOM     48  CZ3 TRP P   5      27.910  -0.917 -26.212  1.00 31.13 LIG 0.00  A 
ATOM     49  CE3 TRP P   5      29.149  -1.109 -26.813  1.00 35.06 LIG 0.01  A 
ENDBRANCH 39 40
ENDBRANCH 38 39
BRANCH 38 50
ATOM     50  C   TRP P   5      32.184  -0.284 -30.927  1.00 44.67 LIG 0.24  C 
ATOM     51 O    TRP P   5      31.139   0.152 -31.365  1.00 47.12 LIG-0.27  OA
ATOM     52  N   GLU P   6      33.363   0.143 -31.337  1.00 57.45 LIG-0.35  N 
ATOM     53 H    GLU P   6      34.102  -0.259 -31.159  1.00 57.45 LIG 0.16  HD
BRANCH 52 54
ATOM     54  CA  GLU P   6      33.523   1.348 -32.138  1.00 54.50 LIG 0.18  C 
BRANCH 54 55
ATOM     55  C   GLU P   6      34.486   1.105 -33.256  1.00 56.45 LIG 0.24  C 
ATOM     56 O    GLU P   6      35.711   1.380 -33.114  1.00 44.81 LIG-0.27  OA
ATOM     57  N   VAL P   7      33.937   0.600 -34.364  1.00 47.96 LIG-0.35  N 
ATOM     58 H    VAL P   7      33.152   0.249 -34.394  1.00 47.96 LIG 0.16  HD
BRANCH 57 59
ATOM     59  CA  VAL P   7      34.633   0.606 -35.623  1.00 55.51 LIG 0.17  C 
BRANCH 59 60
ATOM     60  CB  VAL P   7      33.687   0.158 -36.778  1.00 57.72 LIG 0.01  C 
ATOM     61  CG2 VAL P   7      34.418   0.204 -38.128  1.00 57.86 LIG 0.01  C 
ATOM     62  CG1 VAL P   7      32.378   0.954 -36.800  1.00 55.94 LIG 0.01  C 
ENDBRANCH 59 60
BRANCH 59 63
ATOM     63  C   VAL P   7      35.206   2.029 -35.786  1.00 56.50 LIG 0.22  C 
ATOM     64 O    VAL P   7      35.955   2.307 -36.728  1.00 61.93 LIG-0.29  OA
ENDBRANCH 59 63
ENDBRANCH 57 59
ENDBRANCH 54 55
BRANCH 54 65
ATOM     65  CB  GLU P   6      34.133   2.449 -31.283  1.00 55.84 LIG 0.04  C 
BRANCH 65 66
ATOM     66  CG  GLU P   6      33.481   3.801 -31.482  1.00 56.62 LIG 0.12  C 
BRANCH 66 67
ATOM     67  CD  GLU P   6      34.235   4.665 -32.478  1.00 56.54 LIG 0.17  C 
ATOM     68 OE1  GLU P   6      34.004   5.924 -32.489  1.00 46.52 LIG-0.65  OA
ATOM     69 OE2  GLU P   6      35.047   4.047 -33.227  1.00 53.74 LIG-0.65  OA
ENDBRANCH 66 67
ENDBRANCH 65 66
ENDBRANCH 54 65
ENDBRANCH 52 54
ENDBRANCH 38 50
ENDBRANCH 3 38
TORSDOF 23
ENDMDL
MODEL 38
USER: ADFR SOLUTION from run 149
USER: SCORE 19.527726 LL:  -4.747 LR: -16.621 RR:   0.000 FEB:  -9.760
USER: RMSD 10.046112
USER: SEED 148
USER: STATUS no improvement in best in 11 clusters for 5 generations
USER: GENES 25
USER: genes 0 Translation |==|  0.48291 0.50444 0.51975
USER: genes 1 Rotation |==|  0.84695 0.53575 0.14224 0.51884
USER: genes 2 Torsion [N]-C--CA-[N] |==|  0.11964
USER: genes 3 Torsion [C]-CA--N-[C] |==|  0.15648
USER: genes 4 Torsion [N]-C--CA-[N] |==|  0.35292
USER: genes 5 Torsion [C]-CA--CB-[CG] |==|  0.19706
USER: genes 6 Torsion [CA]-CB--CG-[CD2] |==|  0.30020
USER: genes 7 Torsion [C]-CA--N-[C] |==|  0.76480
USER: genes 8 Torsion [N]-C--CA-[N] |==|  0.78543
USER: genes 9 Torsion [C]-CA--CB-[CG] |==|  0.69890
USER: genes 10 Torsion [CA]-CB--CG-[OD2] |==|  0.34153
USER: genes 11 Torsion [C]-CA--CB-[CG] |==|  0.29838
USER: genes 12 Torsion [CA]-CB--CG-[ND2] |==|  0.95087
USER: genes 13 Torsion [C]-N--CA-[CB] |==|  0.35679
USER: genes 14 Torsion [N]-CA--CB-[CG] |==|  0.56494
USER: genes 15 Torsion [CA]-CB--CG-[CD1] |==|  0.67000
USER: genes 16 Torsion [N]-CA--C-[N] |==|  0.89180
USER: genes 17 Torsion [C]-N--CA-[C] |==|  0.62659
USER: genes 18 Torsion [N]-CA--C-[N] |==|  0.26793
USER: genes 19 Torsion [C]-N--CA-[CB] |==|  0.50308
USER: genes 20 Torsion [N]-CA--CB-[CG2] |==|  0.92800
USER: genes 21 Torsion [N]-CA--C-[O] |==|  0.63547
USER: genes 22 Torsion [N]-CA--CB-[CG] |==|  0.68618
USER: genes 23 Torsion [CA]-CB--CG-[CD] |==|  0.80639
USER: genes 24 Torsion [CB]-CG--CD-[OE1] |==|  0.40552
ROOT
ATOM      1  C   ASN P   4      33.521  -2.318 -30.949  1.00 47.61 LIG 0.24  C 
ATOM      2 O    ASN P   4      32.318  -2.333 -31.044  1.00 46.30 LIG-0.27  OA
ATOM      3  N   TRP P   5      34.153  -1.236 -30.496  1.00 43.61 LIG-0.35  N 
ATOM      4 H    TRP P   5      35.004  -1.141 -30.413  1.00 43.61 LIG 0.16  HD
ENDROOT
BRANCH 1 5
ATOM      5  CA  ASN P   4      34.330  -3.562 -31.329  1.00 56.71 LIG 0.18  C 
BRANCH 5 6
ATOM      6  N   ASN P   4      35.353  -3.809 -30.328  1.00 58.55 LIG-0.35  N 
ATOM      7  C   TRP P   3      35.031  -3.960 -29.059  1.00 51.89 LIG 0.24  C 
ATOM      8 O    TRP P   3      33.916  -3.696 -28.603  1.00 53.51 LIG-0.27  OA
ATOM      9 H    ASN P   4      36.157  -3.845 -30.633  1.00 58.55 LIG 0.16  HD
BRANCH 7 10
ATOM     10  CA  TRP P   3      36.120  -4.376 -28.146  1.00 49.09 LIG 0.18  C 
BRANCH 10 11
ATOM     11  CB  TRP P   3      35.707  -5.802 -27.773  1.00 45.21 LIG 0.07  C 
BRANCH 11 12
ATOM     12  CG  TRP P   3      35.808  -6.945 -28.862  1.00 38.74 LIG-0.03  A 
ATOM     13  CD1 TRP P   3      34.946  -7.208 -29.933  1.00 32.85 LIG 0.10  A 
ATOM     14  NE1 TRP P   3      35.352  -8.381 -30.596  1.00 33.71 LIG-0.36  N 
ATOM     15  CE2 TRP P   3      36.468  -8.877 -29.976  1.00 32.42 LIG 0.04  A 
ATOM     16 HE1  TRP P   3      34.963  -8.731 -31.278  1.00 33.71 LIG 0.17  HD
ATOM     17  CZ2 TRP P   3      37.194 -10.067 -30.237  1.00 29.39 LIG 0.03  A 
ATOM     18  CD2 TRP P   3      36.784  -8.023 -28.879  1.00 33.85 LIG-0.00  A 
ATOM     19  CH2 TRP P   3      38.278 -10.296 -29.449  1.00 25.26 LIG 0.00  A 
ATOM     20  CZ3 TRP P   3      38.636  -9.471 -28.388  1.00 33.31 LIG 0.00  A 
ATOM     21  CE3 TRP P   3      37.868  -8.339 -28.065  1.00 32.67 LIG 0.01  A 
ENDBRANCH 11 12
ENDBRANCH 10 11
BRANCH 10 22
ATOM     22  N   TRP P   3      36.293  -3.479 -26.930  1.00 48.62 LIG-0.34  N 
ATOM     23 H    TRP P   3      35.881  -3.767 -26.232  1.00 48.62 LIG 0.16  HD
ATOM     24  C   ASP P   2      37.021  -2.341 -26.932  1.00 44.46 LIG 0.26  C 
ATOM     25 O    ASP P   2      37.493  -1.863 -27.999  1.00 32.12 LIG-0.27  OA
BRANCH 24 26
ATOM     26  CA  ASP P   2      37.341  -1.645 -25.527  1.00 48.39 LIG 0.41  C 
ATOM     27  N   ASP P   2      36.131  -0.907 -25.029  1.00 44.52 LIG 0.61  N 
BRANCH 26 28
ATOM     28  CB  ASP P   2      37.924  -2.574 -24.398  1.00 55.68 LIG 0.16  C 
BRANCH 28 29
ATOM     29  CG  ASP P   2      36.880  -2.873 -23.210  1.00 65.31 LIG 0.17  C 
ATOM     30 OD2  ASP P   2      36.571  -4.082 -22.917  1.00 61.23 LIG-0.65  OA
ATOM     31 OD1  ASP P   2      36.357  -1.896 -22.577  1.00 59.39 LIG-0.65  OA
ENDBRANCH 28 29
ENDBRANCH 26 28
ENDBRANCH 24 26
ENDBRANCH 10 22
ENDBRANCH 7 10
ENDBRANCH 5 6
BRANCH 5 32
ATOM     32  CB  ASN P   4      33.436  -4.821 -31.496  1.00 62.15 LIG 0.14  C 
BRANCH 32 33
ATOM     33  CG  ASN P   4      33.271  -5.240 -32.953  1.00 66.74 LIG 0.22  C 
ATOM     34 OD1  ASN P   4      32.899  -6.379 -33.242  1.00 65.57 LIG-0.27  OA
ATOM     35  ND2 ASN P   4      33.569  -4.333 -33.876  1.00 62.00 LIG-0.37  N 
ATOM     36 21HD ASN P   4      33.506  -4.532 -34.711  1.00 62.00 LIG 0.16  HD
ATOM     37 22HD ASN P   4      33.825  -3.547 -33.639  1.00 62.00 LIG 0.16  HD
ENDBRANCH 32 33
ENDBRANCH 5 32
ENDBRANCH 1 5
BRANCH 3 38
ATOM     38  CA  TRP P   5      33.334  -0.110 -30.106  1.00 39.30 LIG 0.18  C 
BRANCH 38 39
ATOM     39  CB  TRP P   5      33.662   0.413 -28.691  1.00 34.53 LIG 0.07  C 
BRANCH 39 40
ATOM     40  CG  TRP P   5      32.578   1.169 -27.993  1.00 28.80 LIG-0.03  A 
ATOM     41  CD1 TRP P   5      32.643   2.452 -27.583  1.00 24.67 LIG 0.10  A 
ATOM     42  NE1 TRP P   5      31.510   2.797 -26.954  1.00 28.39 LIG-0.36  N 
ATOM     43 HE1  TRP P   5      31.361   3.562 -26.590  1.00 28.39 LIG 0.17  HD
ATOM     44  CE2 TRP P   5      30.624   1.748 -26.976  1.00 28.85 LIG 0.04  A 
ATOM     45  CZ2 TRP P   5      29.327   1.660 -26.516  1.00 29.12 LIG 0.03  A 
ATOM     46  CD2 TRP P   5      31.262   0.697 -27.650  1.00 31.26 LIG-0.00  A 
ATOM     47  CH2 TRP P   5      28.683   0.456 -26.655  1.00 31.42 LIG 0.00  A 
ATOM     48  CZ3 TRP P   5      29.316  -0.653 -27.242  1.00 31.13 LIG 0.00  A 
ATOM     49  CE3 TRP P   5      30.605  -0.544 -27.752  1.00 35.06 LIG 0.01  A 
ENDBRANCH 39 40
ENDBRANCH 38 39
BRANCH 38 50
ATOM     50  C   TRP P   5      33.487   0.907 -31.219  1.00 44.67 LIG 0.24  C 
ATOM     51 O    TRP P   5      32.541   1.571 -31.591  1.00 47.12 LIG-0.27  OA
ATOM     52  N   GLU P   6      34.693   1.028 -31.740  1.00 57.45 LIG-0.35  N 
ATOM     53 H    GLU P   6      35.328   0.464 -31.604  1.00 57.45 LIG 0.16  HD
BRANCH 52 54
ATOM     54  CA  GLU P   6      35.063   2.140 -32.603  1.00 54.50 LIG 0.18  C 
BRANCH 54 55
ATOM     55  C   GLU P   6      35.806   1.642 -33.802  1.00 56.45 LIG 0.24  C 
ATOM     56 O    GLU P   6      37.050   1.425 -33.738  1.00 44.81 LIG-0.27  OA
ATOM     57  N   VAL P   7      35.053   1.469 -34.891  1.00 47.96 LIG-0.35  N 
ATOM     58 H    VAL P   7      34.193   1.442 -34.881  1.00 47.96 LIG 0.16  HD
BRANCH 57 59
ATOM     59  CA  VAL P   7      35.636   1.313 -36.197  1.00 55.51 LIG 0.17  C 
BRANCH 59 60
ATOM     60  CB  VAL P   7      34.527   1.157 -37.281  1.00 57.72 LIG 0.01  C 
ATOM     61  CG2 VAL P   7      33.242   0.580 -36.665  1.00 57.86 LIG 0.01  C 
ATOM     62  CG1 VAL P   7      35.005   0.345 -38.489  1.00 55.94 LIG 0.01  C 
ENDBRANCH 59 60
BRANCH 59 63
ATOM     63  C   VAL P   7      36.557   2.534 -36.401  1.00 56.50 LIG 0.22  C 
ATOM     64 O    VAL P   7      36.503   3.203 -37.438  1.00 61.93 LIG-0.29  OA
ENDBRANCH 59 63
ENDBRANCH 57 59
ENDBRANCH 54 55
BRANCH 54 65
ATOM     65  CB  GLU P   6      36.021   3.061 -31.862  1.00 55.84 LIG 0.04  C 
BRANCH 65 66
ATOM     66  CG  GLU P   6      35.437   4.425 -31.558  1.00 56.62 LIG 0.12  C 
BRANCH 66 67
ATOM     67  CD  GLU P   6      35.253   5.266 -32.809  1.00 56.54 LIG 0.17  C 
ATOM     68 OE1  GLU P   6      34.256   6.067 -32.864  1.00 46.52 LIG-0.65  OA
ATOM     69 OE2  GLU P   6      36.127   5.098 -33.710  1.00 53.74 LIG-0.65  OA
ENDBRANCH 66 67
ENDBRANCH 65 66
ENDBRANCH 54 65
ENDBRANCH 52 54
ENDBRANCH 38 50
ENDBRANCH 3 38
TORSDOF 23
ENDMDL
MODEL 39
USER: ADFR SOLUTION from run 132
USER: SCORE 20.785115 LL:  -5.338 LR: -16.622 RR:   0.000 FEB:  -9.762
USER: RMSD 6.054133
USER: SEED 131
USER: STATUS no improvement in best in 2 clusters for 5 generations
USER: GENES 25
USER: genes 0 Translation |==|  0.51280 0.52373 0.63253
USER: genes 1 Rotation |==|  0.42538 0.21197 0.62551 0.88173
USER: genes 2 Torsion [N]-C--CA-[N] |==|  0.47110
USER: genes 3 Torsion [C]-CA--N-[C] |==|  0.79963
USER: genes 4 Torsion [N]-C--CA-[N] |==|  0.43094
USER: genes 5 Torsion [C]-CA--CB-[CG] |==|  0.39004
USER: genes 6 Torsion [CA]-CB--CG-[CD2] |==|  0.93774
USER: genes 7 Torsion [C]-CA--N-[C] |==|  0.64205
USER: genes 8 Torsion [N]-C--CA-[N] |==|  0.39728
USER: genes 9 Torsion [C]-CA--CB-[CG] |==|  0.80654
USER: genes 10 Torsion [CA]-CB--CG-[OD2] |==|  0.50147
USER: genes 11 Torsion [C]-CA--CB-[CG] |==|  0.81623
USER: genes 12 Torsion [CA]-CB--CG-[ND2] |==|  0.41982
USER: genes 13 Torsion [C]-N--CA-[CB] |==|  0.22222
USER: genes 14 Torsion [N]-CA--CB-[CG] |==|  0.05637
USER: genes 15 Torsion [CA]-CB--CG-[CD1] |==|  0.78427
USER: genes 16 Torsion [N]-CA--C-[N] |==|  0.46149
USER: genes 17 Torsion [C]-N--CA-[C] |==|  0.14311
USER: genes 18 Torsion [N]-CA--C-[N] |==|  0.11825
USER: genes 19 Torsion [C]-N--CA-[CB] |==|  0.34865
USER: genes 20 Torsion [N]-CA--CB-[CG2] |==|  0.78100
USER: genes 21 Torsion [N]-CA--C-[O] |==|  0.13102
USER: genes 22 Torsion [N]-CA--CB-[CG] |==|  0.67337
USER: genes 23 Torsion [CA]-CB--CG-[CD] |==|  0.93640
USER: genes 24 Torsion [CB]-CG--CD-[OE1] |==|  0.72191
ROOT
ATOM      1  C   ASN P   4      34.149  -1.869 -28.581  1.00 47.61 LIG 0.24  C 
ATOM      2 O    ASN P   4      33.078  -2.003 -28.041  1.00 46.30 LIG-0.27  OA
ATOM      3  N   TRP P   5      35.013  -2.881 -28.637  1.00 43.61 LIG-0.35  N 
ATOM      4 H    TRP P   5      35.798  -2.862 -28.989  1.00 43.61 LIG 0.16  HD
ENDROOT
BRANCH 1 5
ATOM      5  CA  ASN P   4      34.510  -0.530 -29.232  1.00 56.71 LIG 0.18  C 
BRANCH 5 6
ATOM      6  N   ASN P   4      33.343   0.333 -29.265  1.00 58.55 LIG-0.35  N 
ATOM      7  C   TRP P   3      32.346   0.086 -30.092  1.00 51.89 LIG 0.24  C 
ATOM      8 O    TRP P   3      32.413  -0.726 -31.016  1.00 53.51 LIG-0.27  OA
ATOM      9 H    ASN P   4      33.366   0.993 -28.714  1.00 58.55 LIG 0.16  HD
BRANCH 7 10
ATOM     10  CA  TRP P   3      31.132   0.920 -29.929  1.00 49.09 LIG 0.18  C 
BRANCH 10 11
ATOM     11  CB  TRP P   3      30.396   0.207 -28.793  1.00 45.21 LIG 0.07  C 
BRANCH 11 12
ATOM     12  CG  TRP P   3      29.666   1.067 -27.684  1.00 38.74 LIG-0.03  A 
ATOM     13  CD1 TRP P   3      28.553   0.726 -26.908  1.00 32.85 LIG 0.10  A 
ATOM     14  NE1 TRP P   3      28.170   1.823 -26.113  1.00 33.71 LIG-0.36  N 
ATOM     15  CE2 TRP P   3      29.024   2.865 -26.356  1.00 32.42 LIG 0.04  A 
ATOM     16 HE1  TRP P   3      27.508   1.836 -25.565  1.00 33.71 LIG 0.17  HD
ATOM     17  CZ2 TRP P   3      29.001   4.189 -25.850  1.00 29.39 LIG 0.03  A 
ATOM     18  CD2 TRP P   3      29.968   2.447 -27.340  1.00 33.85 LIG-0.00  A 
ATOM     19  CH2 TRP P   3      29.996   5.013 -26.272  1.00 25.26 LIG 0.00  A 
ATOM     20  CZ3 TRP P   3      30.953   4.634 -27.208  1.00 33.31 LIG 0.00  A 
ATOM     21  CE3 TRP P   3      30.928   3.352 -27.784  1.00 32.67 LIG 0.01  A 
ENDBRANCH 11 12
ENDBRANCH 10 11
BRANCH 10 22
ATOM     22  N   TRP P   3      30.287   1.046 -31.187  1.00 48.62 LIG-0.34  N 
ATOM     23 H    TRP P   3      30.099   0.289 -31.549  1.00 48.62 LIG 0.16  HD
ATOM     24  C   ASP P   2      29.868   2.225 -31.697  1.00 44.46 LIG 0.26  C 
ATOM     25 O    ASP P   2      30.278   3.324 -31.237  1.00 32.12 LIG-0.27  OA
BRANCH 24 26
ATOM     26  CA  ASP P   2      28.768   2.198 -32.859  1.00 48.39 LIG 0.41  C 
ATOM     27  N   ASP P   2      27.815   3.348 -32.695  1.00 44.52 LIG 0.61  N 
BRANCH 26 28
ATOM     28  CB  ASP P   2      29.306   2.133 -34.337  1.00 55.68 LIG 0.16  C 
BRANCH 28 29
ATOM     29  CG  ASP P   2      30.029   3.489 -34.817  1.00 65.31 LIG 0.17  C 
ATOM     30 OD2  ASP P   2      30.505   3.577 -36.004  1.00 61.23 LIG-0.65  OA
ATOM     31 OD1  ASP P   2      30.133   4.464 -34.000  1.00 59.39 LIG-0.65  OA
ENDBRANCH 28 29
ENDBRANCH 26 28
ENDBRANCH 24 26
ENDBRANCH 10 22
ENDBRANCH 7 10
ENDBRANCH 5 6
BRANCH 5 32
ATOM     32  CB  ASN P   4      35.680   0.186 -28.503  1.00 62.15 LIG 0.14  C 
BRANCH 32 33
ATOM     33  CG  ASN P   4      35.313   0.629 -27.090  1.00 66.74 LIG 0.22  C 
ATOM     34 OD1  ASN P   4      34.152   0.931 -26.807  1.00 65.57 LIG-0.27  OA
ATOM     35  ND2 ASN P   4      36.302   0.693 -26.206  1.00 62.00 LIG-0.37  N 
ATOM     36 21HD ASN P   4      36.143   0.953 -25.401  1.00 62.00 LIG 0.16  HD
ATOM     37 22HD ASN P   4      37.100   0.474 -26.437  1.00 62.00 LIG 0.16  HD
ENDBRANCH 32 33
ENDBRANCH 5 32
ENDBRANCH 1 5
BRANCH 3 38
ATOM     38  CA  TRP P   5      34.598  -4.136 -28.049  1.00 39.30 LIG 0.18  C 
BRANCH 38 39
ATOM     39  CB  TRP P   5      33.666  -4.954 -28.968  1.00 34.53 LIG 0.07  C 
BRANCH 39 40
ATOM     40  CG  TRP P   5      33.702  -4.617 -30.423  1.00 28.80 LIG-0.03  A 
ATOM     41  CD1 TRP P   5      33.107  -3.557 -31.007  1.00 24.67 LIG 0.10  A 
ATOM     42  NE1 TRP P   5      33.306  -3.584 -32.333  1.00 28.39 LIG-0.36  N 
ATOM     43 HE1  TRP P   5      32.984  -3.015 -32.892  1.00 28.39 LIG 0.17  HD
ATOM     44  CE2 TRP P   5      34.100  -4.655 -32.665  1.00 28.85 LIG 0.04  A 
ATOM     45  CZ2 TRP P   5      34.614  -5.045 -33.884  1.00 29.12 LIG 0.03  A 
ATOM     46  CD2 TRP P   5      34.391  -5.327 -31.470  1.00 31.26 LIG-0.00  A 
ATOM     47  CH2 TRP P   5      35.368  -6.192 -33.917  1.00 31.42 LIG 0.00  A 
ATOM     48  CZ3 TRP P   5      35.610  -6.948 -32.758  1.00 31.13 LIG 0.00  A 
ATOM     49  CE3 TRP P   5      35.132  -6.521 -31.523  1.00 35.06 LIG 0.01  A 
ENDBRANCH 39 40
ENDBRANCH 38 39
BRANCH 38 50
ATOM     50  C   TRP P   5      35.879  -4.837 -27.643  1.00 44.67 LIG 0.24  C 
ATOM     51 O    TRP P   5      36.956  -4.449 -28.046  1.00 47.12 LIG-0.27  OA
ATOM     52  N   GLU P   6      35.749  -5.870 -26.833  1.00 57.45 LIG-0.35  N 
ATOM     53 H    GLU P   6      34.997  -6.253 -26.668  1.00 57.45 LIG 0.16  HD
BRANCH 52 54
ATOM     54  CA  GLU P   6      36.881  -6.463 -26.136  1.00 54.50 LIG 0.18  C 
BRANCH 54 55
ATOM     55  C   GLU P   6      37.656  -5.409 -25.411  1.00 56.45 LIG 0.24  C 
ATOM     56 O    GLU P   6      38.920  -5.420 -25.428  1.00 44.81 LIG-0.27  OA
ATOM     57  N   VAL P   7      36.906  -4.507 -24.773  1.00 47.96 LIG-0.35  N 
ATOM     58 H    VAL P   7      36.065  -4.397 -24.913  1.00 47.96 LIG 0.16  HD
BRANCH 57 59
ATOM     59  CA  VAL P   7      37.462  -3.630 -23.777  1.00 55.51 LIG 0.17  C 
BRANCH 59 60
ATOM     60  CB  VAL P   7      37.159  -2.141 -24.123  1.00 57.72 LIG 0.01  C 
ATOM     61  CG2 VAL P   7      38.120  -1.629 -25.207  1.00 57.86 LIG 0.01  C 
ATOM     62  CG1 VAL P   7      37.158  -1.244 -22.881  1.00 55.94 LIG 0.01  C 
ENDBRANCH 59 60
BRANCH 59 63
ATOM     63  C   VAL P   7      36.883  -4.100 -22.426  1.00 56.50 LIG 0.22  C 
ATOM     64 O    VAL P   7      36.880  -5.296 -22.118  1.00 61.93 LIG-0.29  OA
ENDBRANCH 59 63
ENDBRANCH 57 59
ENDBRANCH 54 55
BRANCH 54 65
ATOM     65  CB  GLU P   6      37.839  -7.074 -27.149  1.00 55.84 LIG 0.04  C 
BRANCH 65 66
ATOM     66  CG  GLU P   6      38.002  -8.572 -27.001  1.00 56.62 LIG 0.12  C 
BRANCH 66 67
ATOM     67  CD  GLU P   6      37.653  -9.056 -25.605  1.00 56.54 LIG 0.17  C 
ATOM     68 OE1  GLU P   6      38.607  -9.291 -24.784  1.00 46.52 LIG-0.65  OA
ATOM     69 OE2  GLU P   6      36.416  -9.187 -25.369  1.00 53.74 LIG-0.65  OA
ENDBRANCH 66 67
ENDBRANCH 65 66
ENDBRANCH 54 65
ENDBRANCH 52 54
ENDBRANCH 38 50
ENDBRANCH 3 38
TORSDOF 23
ENDMDL
MODEL 40
USER: ADFR SOLUTION from run 121
USER: SCORE 20.910470 LL:  -5.749 LR: -16.610 RR:   0.000 FEB:  -9.750
USER: RMSD 5.480597
USER: SEED 120
USER: STATUS searching
USER: GENES 25
USER: genes 0 Translation |==|  0.53219 0.49085 0.61947
USER: genes 1 Rotation |==|  0.41045 0.22075 0.67778 0.86387
USER: genes 2 Torsion [N]-C--CA-[N] |==|  0.52682
USER: genes 3 Torsion [C]-CA--N-[C] |==|  0.75538
USER: genes 4 Torsion [N]-C--CA-[N] |==|  0.44244
USER: genes 5 Torsion [C]-CA--CB-[CG] |==|  0.42365
USER: genes 6 Torsion [CA]-CB--CG-[CD2] |==|  0.99474
USER: genes 7 Torsion [C]-CA--N-[C] |==|  0.75766
USER: genes 8 Torsion [N]-C--CA-[N] |==|  0.26752
USER: genes 9 Torsion [C]-CA--CB-[CG] |==|  0.79709
USER: genes 10 Torsion [CA]-CB--CG-[OD2] |==|  0.00066
USER: genes 11 Torsion [C]-CA--CB-[CG] |==|  0.53502
USER: genes 12 Torsion [CA]-CB--CG-[ND2] |==|  0.70564
USER: genes 13 Torsion [C]-N--CA-[CB] |==|  0.22177
USER: genes 14 Torsion [N]-CA--CB-[CG] |==|  0.11993
USER: genes 15 Torsion [CA]-CB--CG-[CD1] |==|  0.25094
USER: genes 16 Torsion [N]-CA--C-[N] |==|  0.91519
USER: genes 17 Torsion [C]-N--CA-[C] |==|  0.14349
USER: genes 18 Torsion [N]-CA--C-[N] |==|  0.15556
USER: genes 19 Torsion [C]-N--CA-[CB] |==|  0.30344
USER: genes 20 Torsion [N]-CA--CB-[CG2] |==|  0.28586
USER: genes 21 Torsion [N]-CA--C-[O] |==|  0.25962
USER: genes 22 Torsion [N]-CA--CB-[CG] |==|  0.72604
USER: genes 23 Torsion [CA]-CB--CG-[CD] |==|  0.02016
USER: genes 24 Torsion [CB]-CG--CD-[OE1] |==|  0.76840
ROOT
ATOM      1  C   ASN P   4      34.556  -2.634 -28.855  1.00 47.61 LIG 0.24  C 
ATOM      2 O    ASN P   4      33.508  -2.811 -28.284  1.00 46.30 LIG-0.27  OA
ATOM      3  N   TRP P   5      35.551  -3.511 -28.736  1.00 43.61 LIG-0.35  N 
ATOM      4 H    TRP P   5      36.330  -3.450 -29.098  1.00 43.61 LIG 0.16  HD
ENDROOT
BRANCH 1 5
ATOM      5  CA  ASN P   4      34.737  -1.401 -29.747  1.00 56.71 LIG 0.18  C 
BRANCH 5 6
ATOM      6  N   ASN P   4      33.631  -0.482 -29.549  1.00 58.55 LIG-0.35  N 
ATOM      7  C   TRP P   3      32.526  -0.595 -30.260  1.00 51.89 LIG 0.24  C 
ATOM      8 O    TRP P   3      32.428  -1.313 -31.256  1.00 53.51 LIG-0.27  OA
ATOM      9 H    ASN P   4      33.763   0.118 -28.947  1.00 58.55 LIG 0.16  HD
BRANCH 7 10
ATOM     10  CA  TRP P   3      31.396   0.278 -29.865  1.00 49.09 LIG 0.18  C 
BRANCH 10 11
ATOM     11  CB  TRP P   3      30.828  -0.454 -28.648  1.00 45.21 LIG 0.07  C 
BRANCH 11 12
ATOM     12  CG  TRP P   3      30.073   0.373 -27.531  1.00 38.74 LIG-0.03  A 
ATOM     13  CD1 TRP P   3      29.365  -0.102 -26.421  1.00 32.85 LIG 0.10  A 
ATOM     14  NE1 TRP P   3      28.765   0.973 -25.740  1.00 33.71 LIG-0.36  N 
ATOM     15  CE2 TRP P   3      29.082   2.139 -26.386  1.00 32.42 LIG 0.04  A 
ATOM     16 HE1  TRP P   3      28.279   0.910 -25.033  1.00 33.71 LIG 0.17  HD
ATOM     17  CZ2 TRP P   3      28.657   3.465 -26.118  1.00 29.39 LIG 0.03  A 
ATOM     18  CD2 TRP P   3      29.885   1.815 -27.518  1.00 33.85 LIG-0.00  A 
ATOM     19  CH2 TRP P   3      29.148   4.431 -26.938  1.00 25.26 LIG 0.00  A 
ATOM     20  CZ3 TRP P   3      29.959   4.160 -28.035  1.00 33.31 LIG 0.00  A 
ATOM     21  CE3 TRP P   3      30.308   2.838 -28.362  1.00 32.67 LIG 0.01  A 
ENDBRANCH 11 12
ENDBRANCH 10 11
BRANCH 10 22
ATOM     22  N   TRP P   3      30.359   0.489 -30.958  1.00 48.62 LIG-0.34  N 
ATOM     23 H    TRP P   3      29.708  -0.072 -30.925  1.00 48.62 LIG 0.16  HD
ATOM     24  C   ASP P   2      30.442   1.460 -31.895  1.00 44.46 LIG 0.26  C 
ATOM     25 O    ASP P   2      31.473   2.174 -32.015  1.00 32.12 LIG-0.27  OA
BRANCH 24 26
ATOM     26  CA  ASP P   2      29.158   1.739 -32.809  1.00 48.39 LIG 0.41  C 
ATOM     27  N   ASP P   2      28.361   2.881 -32.244  1.00 44.52 LIG 0.61  N 
BRANCH 26 28
ATOM     28  CB  ASP P   2      29.421   1.956 -34.346  1.00 55.68 LIG 0.16  C 
BRANCH 28 29
ATOM     29  CG  ASP P   2      30.095   3.377 -34.687  1.00 65.31 LIG 0.17  C 
ATOM     30 OD2  ASP P   2      30.368   4.201 -33.744  1.00 61.23 LIG-0.65  OA
ATOM     31 OD1  ASP P   2      30.341   3.676 -35.903  1.00 59.39 LIG-0.65  OA
ENDBRANCH 28 29
ENDBRANCH 26 28
ENDBRANCH 24 26
ENDBRANCH 10 22
ENDBRANCH 7 10
ENDBRANCH 5 6
BRANCH 5 32
ATOM     32  CB  ASN P   4      36.085  -0.674 -29.485  1.00 62.15 LIG 0.14  C 
BRANCH 32 33
ATOM     33  CG  ASN P   4      36.148   0.706 -30.131  1.00 66.74 LIG 0.22  C 
ATOM     34 OD1  ASN P   4      35.499   1.647 -29.670  1.00 65.57 LIG-0.27  OA
ATOM     35  ND2 ASN P   4      36.908   0.828 -31.214  1.00 62.00 LIG-0.37  N 
ATOM     36 21HD ASN P   4      36.960   1.584 -31.620  1.00 62.00 LIG 0.16  HD
ATOM     37 22HD ASN P   4      37.347   0.150 -31.508  1.00 62.00 LIG 0.16  HD
ENDBRANCH 32 33
ENDBRANCH 5 32
ENDBRANCH 1 5
BRANCH 3 38
ATOM     38  CA  TRP P   5      35.306  -4.680 -27.921  1.00 39.30 LIG 0.18  C 
BRANCH 38 39
ATOM     39  CB  TRP P   5      34.502  -5.772 -28.659  1.00 34.53 LIG 0.07  C 
BRANCH 39 40
ATOM     40  CG  TRP P   5      34.899  -6.052 -30.072  1.00 28.80 LIG-0.03  A 
ATOM     41  CD1 TRP P   5      35.812  -6.960 -30.474  1.00 24.67 LIG 0.10  A 
ATOM     42  NE1 TRP P   5      35.953  -6.918 -31.807  1.00 28.39 LIG-0.36  N 
ATOM     43 HE1  TRP P   5      36.508  -7.395 -32.260  1.00 28.39 LIG 0.17  HD
ATOM     44  CE2 TRP P   5      35.082  -6.000 -32.341  1.00 28.85 LIG 0.04  A 
ATOM     45  CZ2 TRP P   5      34.829  -5.663 -33.654  1.00 29.12 LIG 0.03  A 
ATOM     46  CD2 TRP P   5      34.377  -5.441 -31.266  1.00 31.26 LIG-0.00  A 
ATOM     47  CH2 TRP P   5      33.906  -4.675 -33.891  1.00 31.42 LIG 0.00  A 
ATOM     48  CZ3 TRP P   5      33.241  -4.023 -32.839  1.00 31.13 LIG 0.00  A 
ATOM     49  CE3 TRP P   5      33.462  -4.402 -31.519  1.00 35.06 LIG 0.01  A 
ENDBRANCH 39 40
ENDBRANCH 38 39
BRANCH 38 50
ATOM     50  C   TRP P   5      36.667  -5.115 -27.416  1.00 44.67 LIG 0.24  C 
ATOM     51 O    TRP P   5      36.785  -5.673 -26.344  1.00 47.12 LIG-0.27  OA
ATOM     52  N   GLU P   6      37.693  -4.860 -28.204  1.00 57.45 LIG-0.35  N 
ATOM     53 H    GLU P   6      37.652  -4.331 -28.881  1.00 57.45 LIG 0.16  HD
BRANCH 52 54
ATOM     54  CA  GLU P   6      39.004  -5.457 -27.998  1.00 54.50 LIG 0.18  C 
BRANCH 54 55
ATOM     55  C   GLU P   6      38.885  -6.943 -27.874  1.00 56.45 LIG 0.24  C 
ATOM     56 O    GLU P   6      39.341  -7.537 -26.855  1.00 44.81 LIG-0.27  OA
ATOM     57  N   VAL P   7      38.283  -7.541 -28.904  1.00 47.96 LIG-0.35  N 
ATOM     58 H    VAL P   7      37.818  -7.125 -29.497  1.00 47.96 LIG 0.16  HD
BRANCH 57 59
ATOM     59  CA  VAL P   7      38.367  -8.963 -29.108  1.00 55.51 LIG 0.17  C 
BRANCH 59 60
ATOM     60  CB  VAL P   7      36.995  -9.644 -28.816  1.00 57.72 LIG 0.01  C 
ATOM     61  CG2 VAL P   7      36.274  -9.998 -30.125  1.00 57.86 LIG 0.01  C 
ATOM     62  CG1 VAL P   7      36.118  -8.807 -27.880  1.00 55.94 LIG 0.01  C 
ENDBRANCH 59 60
BRANCH 59 63
ATOM     63  C   VAL P   7      38.879  -9.157 -30.550  1.00 56.50 LIG 0.22  C 
ATOM     64 O    VAL P   7      40.085  -9.292 -30.782  1.00 61.93 LIG-0.29  OA
ENDBRANCH 59 63
ENDBRANCH 57 59
ENDBRANCH 54 55
BRANCH 54 65
ATOM     65  CB  GLU P   6      39.586  -4.965 -26.681  1.00 55.84 LIG 0.04  C 
BRANCH 65 66
ATOM     66  CG  GLU P   6      40.572  -3.828 -26.841  1.00 56.62 LIG 0.12  C 
BRANCH 66 67
ATOM     67  CD  GLU P   6      40.631  -3.311 -28.268  1.00 56.54 LIG 0.17  C 
ATOM     68 OE1  GLU P   6      41.375  -3.926 -29.109  1.00 46.52 LIG-0.65  OA
ATOM     69 OE2  GLU P   6      39.918  -2.292 -28.506  1.00 53.74 LIG-0.65  OA
ENDBRANCH 66 67
ENDBRANCH 65 66
ENDBRANCH 54 65
ENDBRANCH 52 54
ENDBRANCH 38 50
ENDBRANCH 3 38
TORSDOF 23
ENDMDL
