MODEL 1
USER: ADFR SOLUTION from run 108
USER: SCORE 12.810019 LL:  -3.125 LR: -11.274 RR:   0.000 FEB:  -7.993
USER: RMSD 2.017192
USER: SEED 107
USER: STATUS no improvement in best in 8 clusters for 5 generations
USER: GENES 13
USER: genes 0 Translation |==|  0.55580 0.47991 0.56947
USER: genes 1 Rotation |==|  0.48816 0.49039 0.50757 0.99971
USER: genes 2 Torsion [CB]-CA--N-[C] |==|  0.47778
USER: genes 3 Torsion [N]-C--CA-[N] |==|  0.19704
USER: genes 4 Torsion [C]-CA--CB-[CG] |==|  0.46661
USER: genes 5 Torsion [CA]-CB--CG-[CD1] |==|  0.73257
USER: genes 6 Torsion [C]-CA--N-[C] |==|  0.77766
USER: genes 7 Torsion [N]-CA--C-[N] |==|  0.36213
USER: genes 8 Torsion [N]-CA--C-[N] |==|  0.37229
USER: genes 9 Torsion [C]-N--CA-[C] |==|  0.53118
USER: genes 10 Torsion [N]-CA--C-[N] |==|  0.49425
USER: genes 11 Torsion [N]-CA--CB-[CG] |==|  0.10895
USER: genes 12 Torsion [CA]-CB--CG-[ND1] |==|  0.75586
ROOT
ATOM      1  CA  HIS C   2      25.616   2.663  44.149  1.00 12.40 LIG 0.18  C 
ENDROOT
BRANCH 1 2
ATOM      2  N   HIS C   2      25.643   2.235  42.742  1.00  9.19 LIG-0.35  N 
ATOM      3 H    HIS C   2      25.929   2.836  42.198  1.00  9.19 LIG 0.16  HD
ATOM      4  C   PHE C   1      25.253   1.021  42.360  1.00 11.27 LIG 0.24  C 
ATOM      5 O    PHE C   1      24.928   0.133  43.159  1.00 15.22 LIG-0.27  OA
BRANCH 4 6
ATOM      6  CA  PHE C   1      25.250   0.752  40.854  1.00  8.70 LIG 0.18  C 
BRANCH 6 7
ATOM      7  CB  PHE C   1      24.472  -0.530  40.552  1.00  9.29 LIG 0.07  C 
BRANCH 7 8
ATOM      8  CG  PHE C   1      24.168  -0.728  39.095  1.00  9.78 LIG-0.06  A 
ATOM      9  CD1 PHE C   1      22.939  -0.346  38.560  1.00  9.46 LIG 0.01  A 
ATOM     10  CE1 PHE C   1      22.652  -0.540  37.203  1.00  9.12 LIG 0.00  A 
ATOM     11  CZ  PHE C   1      23.604  -1.115  36.372  1.00  8.05 LIG 0.00  A 
ATOM     12  CE2 PHE C   1      24.832  -1.504  36.902  1.00  7.93 LIG 0.00  A 
ATOM     13  CD2 PHE C   1      25.109  -1.305  38.256  1.00  6.20 LIG 0.01  A 
ENDBRANCH 7 8
ENDBRANCH 6 7
BRANCH 6 14
ATOM     14  N   PHE C   1      26.607   0.661  40.331  1.00 10.26 LIG-0.35  N 
ATOM     15 H    PHE C   1      26.892  -0.143  40.214  1.00 10.26 LIG 0.16  HD
ATOM     16  C   ACE C   0      27.323   1.749  40.065  1.00 10.83 LIG 0.21  C 
ATOM     17  CH3 ACE C   0      28.723   1.478  39.588  1.00 14.43 LIG 0.12  C 
ATOM     18 O    ACE C   0      26.872   2.889  40.146  1.00 14.21 LIG-0.27  OA
ENDBRANCH 6 14
ENDBRANCH 4 6
ENDBRANCH 1 2
BRANCH 1 19
ATOM     19  C   HIS C   2      24.172   2.763  44.634  1.00 15.02 LIG 0.24  C 
ATOM     20  N   PRO C   3      23.839   2.161  45.797  1.00 12.04 LIG-0.34  N 
ATOM     21  CA  PRO C   3      22.472   2.317  46.328  1.00 11.10 LIG 0.18  C 
ATOM     22  CD  PRO C   3      24.681   1.318  46.669  1.00 17.75 LIG 0.13  C 
ATOM     23  CB  PRO C   3      22.527   1.593  47.679  1.00 15.56 LIG 0.04  C 
ATOM     24  CG  PRO C   3      23.669   0.642  47.564  1.00 20.46 LIG 0.02  C 
ATOM     25 O    HIS C   2      23.371   3.405  43.977  1.00  9.69 LIG-0.27  OA
BRANCH 21 26
ATOM     26  C   PRO C   3      22.081   3.785  46.524  1.00 13.73 LIG 0.24  C 
ATOM     27  N   ALA C   4      20.879   4.156  46.082  1.00 10.66 LIG-0.35  N 
ATOM     28 H    ALA C   4      20.287   3.599  45.800  1.00 10.66 LIG 0.16  HD
ATOM     29 O    PRO C   3      22.862   4.547  47.098  1.00 16.34 LIG-0.27  OA
BRANCH 27 30
ATOM     30  CA  ALA C   4      20.446   5.553  46.031  1.00 15.22 LIG 0.18  C 
ATOM     31  CB  ALA C   4      21.257   6.304  44.987  1.00 14.26 LIG 0.04  C 
BRANCH 30 32
ATOM     32  C   ALA C   4      18.963   5.760  45.754  1.00 20.48 LIG 0.28  C 
ATOM     33 O    ALA C   4      18.228   4.788  45.578  1.00 25.68 LIG-0.27  OA
ATOM     34  N   NH2 C   5      18.523   7.011  45.742  1.00 12.85 LIG-0.11  N 
ENDBRANCH 30 32
ENDBRANCH 27 30
ENDBRANCH 21 26
ENDBRANCH 1 19
BRANCH 1 35
ATOM     35  CB  HIS C   2      26.297   4.022  44.323  1.00 13.77 LIG 0.10  C 
BRANCH 35 36
ATOM     36  CG  HIS C   2      26.018   4.996  43.222  1.00 15.95 LIG 0.06  A 
ATOM     37  CD2 HIS C   2      25.075   5.960  43.104  1.00 16.64 LIG 0.14  A 
ATOM     38 NE2  HIS C   2      25.278   6.579  41.892  1.00 23.10 LIG-0.25  NA
ATOM     39  CE1 HIS C   2      26.313   6.018  41.292  1.00 23.56 LIG 0.23  A 
ATOM     40 ND1  HIS C   2      26.781   5.062  42.075  1.00 22.80 LIG-0.24  NA
ENDBRANCH 35 36
ENDBRANCH 1 35
TORSDOF 11
ENDMDL
MODEL 2
USER: ADFR SOLUTION from run 133
USER: SCORE 11.985582 LL:  -2.662 LR: -10.837 RR:   0.000 FEB:  -7.556
USER: RMSD 2.369106
USER: SEED 132
USER: STATUS no improvement in best in 18 clusters for 5 generations
USER: GENES 13
USER: genes 0 Translation |==|  0.56501 0.45957 0.54824
USER: genes 1 Rotation |==|  0.45161 0.50804 0.51192 0.99744
USER: genes 2 Torsion [CB]-CA--N-[C] |==|  0.46111
USER: genes 3 Torsion [N]-C--CA-[N] |==|  0.44999
USER: genes 4 Torsion [C]-CA--CB-[CG] |==|  0.52945
USER: genes 5 Torsion [CA]-CB--CG-[CD1] |==|  0.41421
USER: genes 6 Torsion [C]-CA--N-[C] |==|  0.70314
USER: genes 7 Torsion [N]-CA--C-[N] |==|  0.28932
USER: genes 8 Torsion [N]-CA--C-[N] |==|  0.40084
USER: genes 9 Torsion [C]-N--CA-[C] |==|  0.77351
USER: genes 10 Torsion [N]-CA--C-[N] |==|  0.41571
USER: genes 11 Torsion [N]-CA--CB-[CG] |==|  0.97004
USER: genes 12 Torsion [CA]-CB--CG-[ND1] |==|  0.33811
ROOT
ATOM      1  CA  HIS C   2      25.796   2.313  43.719  1.00 12.40 LIG 0.18  C 
ENDROOT
BRANCH 1 2
ATOM      2  N   HIS C   2      25.735   1.682  42.392  1.00  9.19 LIG-0.35  N 
ATOM      3 H    HIS C   2      25.894   2.219  41.740  1.00  9.19 LIG 0.16  HD
ATOM      4  C   PHE C   1      25.456   0.390  42.230  1.00 11.27 LIG 0.24  C 
ATOM      5 O    PHE C   1      25.317  -0.395  43.177  1.00 15.22 LIG-0.27  OA
BRANCH 4 6
ATOM      6  CA  PHE C   1      25.337  -0.102  40.786  1.00  8.70 LIG 0.18  C 
BRANCH 6 7
ATOM      7  CB  PHE C   1      24.010   0.360  40.182  1.00  9.29 LIG 0.07  C 
BRANCH 7 8
ATOM      8  CG  PHE C   1      23.687  -0.280  38.862  1.00  9.78 LIG-0.06  A 
ATOM      9  CD1 PHE C   1      22.367  -0.508  38.480  1.00  9.46 LIG 0.01  A 
ATOM     10  CE1 PHE C   1      22.065  -1.113  37.253  1.00  9.12 LIG 0.00  A 
ATOM     11  CZ  PHE C   1      23.094  -1.488  36.398  1.00  8.05 LIG 0.00  A 
ATOM     12  CE2 PHE C   1      24.416  -1.267  36.777  1.00  7.93 LIG 0.00  A 
ATOM     13  CD2 PHE C   1      24.705  -0.662  38.002  1.00  6.20 LIG 0.01  A 
ENDBRANCH 7 8
ENDBRANCH 6 7
BRANCH 6 14
ATOM     14  N   PHE C   1      25.454  -1.554  40.712  1.00 10.26 LIG-0.35  N 
ATOM     15 H    PHE C   1      24.767  -1.982  41.002  1.00 10.26 LIG 0.16  HD
ATOM     16  C   ACE C   0      26.546  -2.138  40.230  1.00 10.83 LIG 0.21  C 
ATOM     17  CH3 ACE C   0      26.528  -3.641  40.279  1.00 14.43 LIG 0.12  C 
ATOM     18 O    ACE C   0      27.481  -1.514  39.732  1.00 14.21 LIG-0.27  OA
ENDBRANCH 6 14
ENDBRANCH 4 6
ENDBRANCH 1 2
BRANCH 1 19
ATOM     19  C   HIS C   2      24.386   2.472  44.283  1.00 15.02 LIG 0.24  C 
ATOM     20  N   PRO C   3      23.979   1.622  45.252  1.00 12.04 LIG-0.34  N 
ATOM     21  CA  PRO C   3      22.654   1.812  45.871  1.00 11.10 LIG 0.18  C 
ATOM     22  CD  PRO C   3      24.697   0.463  45.819  1.00 17.75 LIG 0.13  C 
ATOM     23  CB  PRO C   3      22.615   0.740  46.969  1.00 15.56 LIG 0.04  C 
ATOM     24  CG  PRO C   3      23.606  -0.289  46.543  1.00 20.46 LIG 0.02  C 
ATOM     25 O    HIS C   2      23.681   3.374  43.867  1.00  9.69 LIG-0.27  OA
BRANCH 21 26
ATOM     26  C   PRO C   3      22.484   3.207  46.480  1.00 13.73 LIG 0.24  C 
ATOM     27  N   ALA C   4      21.273   3.760  46.396  1.00 10.66 LIG-0.35  N 
ATOM     28 H    ALA C   4      20.578   3.335  46.122  1.00 10.66 LIG 0.16  HD
ATOM     29 O    PRO C   3      23.442   3.743  47.041  1.00 16.34 LIG-0.27  OA
BRANCH 27 30
ATOM     30  CA  ALA C   4      21.008   5.152  46.763  1.00 15.22 LIG 0.18  C 
ATOM     31  CB  ALA C   4      19.782   5.655  46.016  1.00 14.26 LIG 0.04  C 
BRANCH 30 32
ATOM     32  C   ALA C   4      20.820   5.402  48.253  1.00 20.48 LIG 0.28  C 
ATOM     33 O    ALA C   4      20.370   4.513  48.975  1.00 25.68 LIG-0.27  OA
ATOM     34  N   NH2 C   5      21.187   6.591  48.713  1.00 12.85 LIG-0.11  N 
ENDBRANCH 30 32
ENDBRANCH 27 30
ENDBRANCH 21 26
ENDBRANCH 1 19
BRANCH 1 35
ATOM     35  CB  HIS C   2      26.462   3.687  43.644  1.00 13.77 LIG 0.10  C 
BRANCH 35 36
ATOM     36  CG  HIS C   2      27.124   3.981  42.334  1.00 15.95 LIG 0.06  A 
ATOM     37  CD2 HIS C   2      28.091   3.318  41.657  1.00 16.64 LIG 0.14  A 
ATOM     38 NE2  HIS C   2      28.320   4.015  40.493  1.00 23.10 LIG-0.25  NA
ATOM     39  CE1 HIS C   2      27.517   5.063  40.456  1.00 23.56 LIG 0.23  A 
ATOM     40 ND1  HIS C   2      26.781   5.064  41.553  1.00 22.80 LIG-0.24  NA
ENDBRANCH 35 36
ENDBRANCH 1 35
TORSDOF 11
ENDMDL
MODEL 3
USER: ADFR SOLUTION from run 7
USER: SCORE 12.448239 LL:  -3.300 LR: -10.634 RR:   0.000 FEB:  -7.353
USER: RMSD 2.690463
USER: SEED 661244
USER: STATUS no improvement in best in 11 clusters for 5 generations
USER: GENES 13
USER: genes 0 Translation |==|  0.56084 0.48330 0.54804
USER: genes 1 Rotation |==|  0.42394 0.51918 0.56685 0.98926
USER: genes 2 Torsion [CB]-CA--N-[C] |==|  0.51120
USER: genes 3 Torsion [N]-C--CA-[N] |==|  0.43841
USER: genes 4 Torsion [C]-CA--CB-[CG] |==|  0.50122
USER: genes 5 Torsion [CA]-CB--CG-[CD1] |==|  0.42153
USER: genes 6 Torsion [C]-CA--N-[C] |==|  0.68950
USER: genes 7 Torsion [N]-CA--C-[N] |==|  0.30032
USER: genes 8 Torsion [N]-CA--C-[N] |==|  0.28407
USER: genes 9 Torsion [C]-N--CA-[C] |==|  0.67018
USER: genes 10 Torsion [N]-CA--C-[N] |==|  0.84028
USER: genes 11 Torsion [N]-CA--CB-[CG] |==|  0.43595
USER: genes 12 Torsion [CA]-CB--CG-[ND1] |==|  0.64607
ROOT
ATOM      1  CA  HIS C   2      25.714   2.722  43.715  1.00 12.40 LIG 0.18  C 
ENDROOT
BRANCH 1 2
ATOM      2  N   HIS C   2      25.726   1.942  42.468  1.00  9.19 LIG-0.35  N 
ATOM      3 H    HIS C   2      25.973   2.389  41.777  1.00  9.19 LIG 0.16  HD
ATOM      4  C   PHE C   1      25.380   0.657  42.429  1.00 11.27 LIG 0.24  C 
ATOM      5 O    PHE C   1      25.113  -0.002  43.443  1.00 15.22 LIG-0.27  OA
BRANCH 4 6
ATOM      6  CA  PHE C   1      25.352   0.003  41.046  1.00  8.70 LIG 0.18  C 
BRANCH 6 7
ATOM      7  CB  PHE C   1      24.062   0.378  40.315  1.00  9.29 LIG 0.07  C 
BRANCH 7 8
ATOM      8  CG  PHE C   1      23.939  -0.229  38.947  1.00  9.78 LIG-0.06  A 
ATOM      9  CD1 PHE C   1      22.691  -0.500  38.391  1.00  9.46 LIG 0.01  A 
ATOM     10  CE1 PHE C   1      22.577  -1.074  37.119  1.00  9.12 LIG 0.00  A 
ATOM     11  CZ  PHE C   1      23.722  -1.375  36.393  1.00  8.05 LIG 0.00  A 
ATOM     12  CE2 PHE C   1      24.973  -1.111  36.946  1.00  7.93 LIG 0.00  A 
ATOM     13  CD2 PHE C   1      25.075  -0.537  38.214  1.00  6.20 LIG 0.01  A 
ENDBRANCH 7 8
ENDBRANCH 6 7
BRANCH 6 14
ATOM     14  N   PHE C   1      25.481  -1.445  41.144  1.00 10.26 LIG-0.35  N 
ATOM     15 H    PHE C   1      24.805  -1.840  41.501  1.00 10.26 LIG 0.16  HD
ATOM     16  C   ACE C   0      26.567  -2.076  40.709  1.00 10.83 LIG 0.21  C 
ATOM     17  CH3 ACE C   0      26.564  -3.563  40.939  1.00 14.43 LIG 0.12  C 
ATOM     18 O    ACE C   0      27.483  -1.511  40.116  1.00 14.21 LIG-0.27  OA
ENDBRANCH 6 14
ENDBRANCH 4 6
ENDBRANCH 1 2
BRANCH 1 19
ATOM     19  C   HIS C   2      24.335   2.644  44.364  1.00 15.02 LIG 0.24  C 
ATOM     20  N   PRO C   3      24.192   1.911  45.491  1.00 12.04 LIG-0.34  N 
ATOM     21  CA  PRO C   3      22.889   1.892  46.181  1.00 11.10 LIG 0.18  C 
ATOM     22  CD  PRO C   3      25.197   1.075  46.176  1.00 17.75 LIG 0.13  C 
ATOM     23  CB  PRO C   3      23.163   1.057  47.439  1.00 15.56 LIG 0.04  C 
ATOM     24  CG  PRO C   3      24.357   0.230  47.104  1.00 20.46 LIG 0.02  C 
ATOM     25 O    HIS C   2      23.412   3.265  43.867  1.00  9.69 LIG-0.27  OA
BRANCH 21 26
ATOM     26  C   PRO C   3      22.406   3.294  46.565  1.00 13.73 LIG 0.24  C 
ATOM     27  N   ALA C   4      21.464   3.841  45.796  1.00 10.66 LIG-0.35  N 
ATOM     28 H    ALA C   4      21.049   3.410  45.179  1.00 10.66 LIG 0.16  HD
ATOM     29 O    PRO C   3      22.873   3.841  47.566  1.00 16.34 LIG-0.27  OA
BRANCH 27 30
ATOM     30  CA  ALA C   4      21.042   5.236  45.927  1.00 15.22 LIG 0.18  C 
ATOM     31  CB  ALA C   4      21.341   5.987  44.639  1.00 14.26 LIG 0.04  C 
BRANCH 30 32
ATOM     32  C   ALA C   4      19.576   5.436  46.291  1.00 20.48 LIG 0.28  C 
ATOM     33 O    ALA C   4      19.274   6.088  47.290  1.00 25.68 LIG-0.27  OA
ATOM     34  N   NH2 C   5      18.677   4.904  45.474  1.00 12.85 LIG-0.11  N 
ENDBRANCH 30 32
ENDBRANCH 27 30
ENDBRANCH 21 26
ENDBRANCH 1 19
BRANCH 1 35
ATOM     35  CB  HIS C   2      26.060   4.188  43.449  1.00 13.77 LIG 0.10  C 
BRANCH 35 36
ATOM     36  CG  HIS C   2      25.561   5.137  44.494  1.00 15.95 LIG 0.06  A 
ATOM     37  CD2 HIS C   2      25.731   5.152  45.837  1.00 16.64 LIG 0.14  A 
ATOM     38 NE2  HIS C   2      25.070   6.260  46.316  1.00 23.10 LIG-0.25  NA
ATOM     39  CE1 HIS C   2      24.521   6.904  45.301  1.00 23.56 LIG 0.23  A 
ATOM     40 ND1  HIS C   2      24.805   6.250  44.190  1.00 22.80 LIG-0.24  NA
ENDBRANCH 35 36
ENDBRANCH 1 35
TORSDOF 11
ENDMDL
MODEL 4
USER: ADFR SOLUTION from run 11
USER: SCORE 11.828220 LL:  -2.914 LR: -10.528 RR:   0.000 FEB:  -7.247
USER: RMSD 7.647779
USER: SEED 839131
USER: STATUS no improvement in best in 20 clusters for 5 generations
USER: GENES 13
USER: genes 0 Translation |==|  0.67305 0.29419 0.27998
USER: genes 1 Rotation |==|  0.79787 0.44536 0.28572 0.83522
USER: genes 2 Torsion [CB]-CA--N-[C] |==|  0.84371
USER: genes 3 Torsion [N]-C--CA-[N] |==|  0.84296
USER: genes 4 Torsion [C]-CA--CB-[CG] |==|  0.24806
USER: genes 5 Torsion [CA]-CB--CG-[CD1] |==|  0.82704
USER: genes 6 Torsion [C]-CA--N-[C] |==|  0.54444
USER: genes 7 Torsion [N]-CA--C-[N] |==|  0.31669
USER: genes 8 Torsion [N]-CA--C-[N] |==|  0.30238
USER: genes 9 Torsion [C]-N--CA-[C] |==|  0.60979
USER: genes 10 Torsion [N]-CA--C-[N] |==|  0.41526
USER: genes 11 Torsion [N]-CA--CB-[CG] |==|  0.55162
USER: genes 12 Torsion [CA]-CB--CG-[ND1] |==|  0.43297
ROOT
ATOM      1  CA  HIS C   2      27.902  -0.540  38.287  1.00 12.40 LIG 0.18  C 
ENDROOT
BRANCH 1 2
ATOM      2  N   HIS C   2      28.654   0.521  37.600  1.00  9.19 LIG-0.35  N 
ATOM      3 H    HIS C   2      28.633   0.466  36.742  1.00  9.19 LIG 0.16  HD
ATOM      4  C   PHE C   1      29.306   1.474  38.261  1.00 11.27 LIG 0.24  C 
ATOM      5 O    PHE C   1      29.256   1.597  39.492  1.00 15.22 LIG-0.27  OA
BRANCH 4 6
ATOM      6  CA  PHE C   1      30.119   2.455  37.412  1.00  8.70 LIG 0.18  C 
BRANCH 6 7
ATOM      7  CB  PHE C   1      29.183   3.297  36.544  1.00  9.29 LIG 0.07  C 
BRANCH 7 8
ATOM      8  CG  PHE C   1      28.713   4.561  37.206  1.00  9.78 LIG-0.06  A 
ATOM      9  CD1 PHE C   1      27.950   4.519  38.371  1.00  9.46 LIG 0.01  A 
ATOM     10  CE1 PHE C   1      27.503   5.697  38.983  1.00  9.12 LIG 0.00  A 
ATOM     11  CZ  PHE C   1      27.827   6.928  38.428  1.00  8.05 LIG 0.00  A 
ATOM     12  CE2 PHE C   1      28.586   6.976  37.260  1.00  7.93 LIG 0.00  A 
ATOM     13  CD2 PHE C   1      29.027   5.795  36.659  1.00  6.20 LIG 0.01  A 
ENDBRANCH 7 8
ENDBRANCH 6 7
BRANCH 6 14
ATOM     14  N   PHE C   1      31.092   1.754  36.583  1.00 10.26 LIG-0.35  N 
ATOM     15 H    PHE C   1      30.950   0.909  36.503  1.00 10.26 LIG 0.16  HD
ATOM     16  C   ACE C   0      32.105   2.396  36.010  1.00 10.83 LIG 0.21  C 
ATOM     17  CH3 ACE C   0      33.049   1.516  35.237  1.00 14.43 LIG 0.12  C 
ATOM     18 O    ACE C   0      32.241   3.616  36.054  1.00 14.21 LIG-0.27  OA
ENDBRANCH 6 14
ENDBRANCH 4 6
ENDBRANCH 1 2
BRANCH 1 19
ATOM     19  C   HIS C   2      26.731   0.067  39.056  1.00 15.02 LIG 0.24  C 
ATOM     20  N   PRO C   3      25.474  -0.233  38.660  1.00 12.04 LIG-0.34  N 
ATOM     21  CA  PRO C   3      24.330   0.274  39.440  1.00 11.10 LIG 0.18  C 
ATOM     22  CD  PRO C   3      25.044  -1.034  37.497  1.00 17.75 LIG 0.13  C 
ATOM     23  CB  PRO C   3      23.116  -0.359  38.747  1.00 15.56 LIG 0.04  C 
ATOM     24  CG  PRO C   3      23.581  -0.683  37.368  1.00 20.46 LIG 0.02  C 
ATOM     25 O    HIS C   2      26.962   0.779  40.017  1.00  9.69 LIG-0.27  OA
BRANCH 21 26
ATOM     26  C   PRO C   3      24.387  -0.151  40.911  1.00 13.73 LIG 0.24  C 
ATOM     27  N   ALA C   4      24.661   0.800  41.805  1.00 10.66 LIG-0.35  N 
ATOM     28 H    ALA C   4      24.696   1.636  41.609  1.00 10.66 LIG 0.16  HD
ATOM     29 O    PRO C   3      24.153  -1.323  41.212  1.00 16.34 LIG-0.27  OA
BRANCH 27 30
ATOM     30  CA  ALA C   4      24.931   0.513  43.214  1.00 15.22 LIG 0.18  C 
ATOM     31  CB  ALA C   4      26.432   0.433  43.444  1.00 14.26 LIG 0.04  C 
BRANCH 30 32
ATOM     32  C   ALA C   4      24.327   1.502  44.202  1.00 20.48 LIG 0.28  C 
ATOM     33 O    ALA C   4      24.153   2.674  43.871  1.00 25.68 LIG-0.27  OA
ATOM     34  N   NH2 C   5      23.987   1.029  45.394  1.00 12.85 LIG-0.11  N 
ENDBRANCH 30 32
ENDBRANCH 27 30
ENDBRANCH 21 26
ENDBRANCH 1 19
BRANCH 1 35
ATOM     35  CB  HIS C   2      28.798  -1.305  39.263  1.00 13.77 LIG 0.10  C 
BRANCH 35 36
ATOM     36  CG  HIS C   2      28.264  -2.643  39.669  1.00 15.95 LIG 0.06  A 
ATOM     37  CD2 HIS C   2      27.002  -3.135  39.671  1.00 16.64 LIG 0.14  A 
ATOM     38 NE2  HIS C   2      27.074  -4.431  40.128  1.00 23.10 LIG-0.25  NA
ATOM     39  CE1 HIS C   2      28.335  -4.724  40.390  1.00 23.56 LIG 0.23  A 
ATOM     40 ND1  HIS C   2      29.075  -3.664  40.118  1.00 22.80 LIG-0.24  NA
ENDBRANCH 35 36
ENDBRANCH 1 35
TORSDOF 11
ENDMDL
MODEL 5
USER: ADFR SOLUTION from run 199
USER: SCORE 11.938390 LL:  -2.765 LR: -10.490 RR:   0.000 FEB:  -7.209
USER: RMSD 1.591778
USER: SEED 198
USER: STATUS no improvement in best in 12 clusters for 5 generations
USER: GENES 13
USER: genes 0 Translation |==|  0.53311 0.45253 0.58149
USER: genes 1 Rotation |==|  0.51355 0.50555 0.47497 0.99916
USER: genes 2 Torsion [CB]-CA--N-[C] |==|  0.26222
USER: genes 3 Torsion [N]-C--CA-[N] |==|  0.40912
USER: genes 4 Torsion [C]-CA--CB-[CG] |==|  0.48733
USER: genes 5 Torsion [CA]-CB--CG-[CD1] |==|  0.70914
USER: genes 6 Torsion [C]-CA--N-[C] |==|  0.78333
USER: genes 7 Torsion [N]-CA--C-[N] |==|  0.40373
USER: genes 8 Torsion [N]-CA--C-[N] |==|  0.34780
USER: genes 9 Torsion [C]-N--CA-[C] |==|  0.54060
USER: genes 10 Torsion [N]-CA--C-[N] |==|  0.47768
USER: genes 11 Torsion [N]-CA--CB-[CG] |==|  0.67574
USER: genes 12 Torsion [CA]-CB--CG-[ND1] |==|  0.76143
ROOT
ATOM      1  CA  HIS C   2      25.174   2.191  44.392  1.00 12.40 LIG 0.18  C 
ENDROOT
BRANCH 1 2
ATOM      2  N   HIS C   2      25.070   1.915  42.951  1.00  9.19 LIG-0.35  N 
ATOM      3 H    HIS C   2      24.443   2.350  42.555  1.00  9.19 LIG 0.16  HD
ATOM      4  C   PHE C   1      25.882   1.064  42.329  1.00 11.27 LIG 0.24  C 
ATOM      5 O    PHE C   1      26.838   0.511  42.889  1.00 15.22 LIG-0.27  OA
BRANCH 4 6
ATOM      6  CA  PHE C   1      25.593   0.810  40.848  1.00  8.70 LIG 0.18  C 
BRANCH 6 7
ATOM      7  CB  PHE C   1      24.624  -0.364  40.696  1.00  9.29 LIG 0.07  C 
BRANCH 7 8
ATOM      8  CG  PHE C   1      24.196  -0.620  39.280  1.00  9.78 LIG-0.06  A 
ATOM      9  CD1 PHE C   1      22.926  -0.255  38.837  1.00  9.46 LIG 0.01  A 
ATOM     10  CE1 PHE C   1      22.524  -0.502  37.519  1.00  9.12 LIG 0.00  A 
ATOM     11  CZ  PHE C   1      23.400  -1.115  36.634  1.00  8.05 LIG 0.00  A 
ATOM     12  CE2 PHE C   1      24.669  -1.488  37.072  1.00  7.93 LIG 0.00  A 
ATOM     13  CD2 PHE C   1      25.061  -1.235  38.388  1.00  6.20 LIG 0.01  A 
ENDBRANCH 7 8
ENDBRANCH 6 7
BRANCH 6 14
ATOM     14  N   PHE C   1      26.823   0.556  40.107  1.00 10.26 LIG-0.35  N 
ATOM     15 H    PHE C   1      26.968  -0.273  39.930  1.00 10.26 LIG 0.16  HD
ATOM     16  C   ACE C   0      27.633   1.546  39.747  1.00 10.83 LIG 0.21  C 
ATOM     17  CH3 ACE C   0      28.885   1.107  39.040  1.00 14.43 LIG 0.12  C 
ATOM     18 O    ACE C   0      27.366   2.733  39.922  1.00 14.21 LIG-0.27  OA
ENDBRANCH 6 14
ENDBRANCH 4 6
ENDBRANCH 1 2
BRANCH 1 19
ATOM     19  C   HIS C   2      23.783   2.420  44.979  1.00 15.02 LIG 0.24  C 
ATOM     20  N   PRO C   3      23.536   1.999  46.239  1.00 12.04 LIG-0.34  N 
ATOM     21  CA  PRO C   3      22.228   2.286  46.855  1.00 11.10 LIG 0.18  C 
ATOM     22  CD  PRO C   3      24.426   1.249  47.147  1.00 17.75 LIG 0.13  C 
ATOM     23  CB  PRO C   3      22.381   1.753  48.286  1.00 15.56 LIG 0.04  C 
ATOM     24  CG  PRO C   3      23.478   0.747  48.210  1.00 20.46 LIG 0.02  C 
ATOM     25 O    HIS C   2      22.947   3.000  44.308  1.00  9.69 LIG-0.27  OA
BRANCH 21 26
ATOM     26  C   PRO C   3      21.903   3.784  46.875  1.00 13.73 LIG 0.24  C 
ATOM     27  N   ALA C   4      20.750   4.160  46.321  1.00 10.66 LIG-0.35  N 
ATOM     28 H    ALA C   4      20.148   3.604  46.060  1.00 10.66 LIG 0.16  HD
ATOM     29 O    PRO C   3      22.687   4.565  47.417  1.00 16.34 LIG-0.27  OA
BRANCH 27 30
ATOM     30  CA  ALA C   4      20.394   5.562  46.100  1.00 15.22 LIG 0.18  C 
ATOM     31  CB  ALA C   4      21.246   6.138  44.980  1.00 14.26 LIG 0.04  C 
BRANCH 30 32
ATOM     32  C   ALA C   4      18.925   5.814  45.787  1.00 20.48 LIG 0.28  C 
ATOM     33 O    ALA C   4      18.161   4.865  45.614  1.00 25.68 LIG-0.27  OA
ATOM     34  N   NH2 C   5      18.529   7.079  45.743  1.00 12.85 LIG-0.11  N 
ENDBRANCH 30 32
ENDBRANCH 27 30
ENDBRANCH 21 26
ENDBRANCH 1 19
BRANCH 1 35
ATOM     35  CB  HIS C   2      26.037   3.427  44.655  1.00 13.77 LIG 0.10  C 
BRANCH 35 36
ATOM     36  CG  HIS C   2      27.288   3.150  45.428  1.00 15.95 LIG 0.06  A 
ATOM     37  CD2 HIS C   2      28.556   2.916  45.016  1.00 16.64 LIG 0.14  A 
ATOM     38 NE2  HIS C   2      29.323   2.739  46.144  1.00 23.10 LIG-0.25  NA
ATOM     39  CE1 HIS C   2      28.552   2.867  47.210  1.00 23.56 LIG 0.23  A 
ATOM     40 ND1  HIS C   2      27.320   3.120  46.807  1.00 22.80 LIG-0.24  NA
ENDBRANCH 35 36
ENDBRANCH 1 35
TORSDOF 11
ENDMDL
MODEL 6
USER: ADFR SOLUTION from run 198
USER: SCORE 12.012328 LL:  -2.291 LR: -10.274 RR:   0.000 FEB:  -6.993
USER: RMSD 7.012274
USER: SEED 197
USER: STATUS no improvement in best in 13 clusters for 5 generations
USER: GENES 13
USER: genes 0 Translation |==|  0.62972 0.46085 0.40391
USER: genes 1 Rotation |==|  0.48030 0.20291 0.14930 0.69584
USER: genes 2 Torsion [CB]-CA--N-[C] |==|  0.19430
USER: genes 3 Torsion [N]-C--CA-[N] |==|  0.44796
USER: genes 4 Torsion [C]-CA--CB-[CG] |==|  0.81022
USER: genes 5 Torsion [CA]-CB--CG-[CD1] |==|  0.13791
USER: genes 6 Torsion [C]-CA--N-[C] |==|  0.60743
USER: genes 7 Torsion [N]-CA--C-[N] |==|  0.08333
USER: genes 8 Torsion [N]-CA--C-[N] |==|  0.24917
USER: genes 9 Torsion [C]-N--CA-[C] |==|  0.15042
USER: genes 10 Torsion [N]-CA--C-[N] |==|  0.09421
USER: genes 11 Torsion [N]-CA--CB-[CG] |==|  0.65330
USER: genes 12 Torsion [CA]-CB--CG-[ND1] |==|  0.73925
ROOT
ATOM      1  CA  HIS C   2      27.057   2.335  40.796  1.00 12.40 LIG 0.18  C 
ENDROOT
BRANCH 1 2
ATOM      2  N   HIS C   2      27.454   1.118  40.071  1.00  9.19 LIG-0.35  N 
ATOM      3 H    HIS C   2      28.169   1.207  39.602  1.00  9.19 LIG 0.16  HD
ATOM      4  C   PHE C   1      26.758  -0.013  40.145  1.00 11.27 LIG 0.24  C 
ATOM      5 O    PHE C   1      25.782  -0.159  40.893  1.00 15.22 LIG-0.27  OA
BRANCH 4 6
ATOM      6  CA  PHE C   1      27.242  -1.166  39.262  1.00  8.70 LIG 0.18  C 
BRANCH 6 7
ATOM      7  CB  PHE C   1      26.839  -0.918  37.808  1.00  9.29 LIG 0.07  C 
BRANCH 7 8
ATOM      8  CG  PHE C   1      25.359  -0.997  37.564  1.00  9.78 LIG-0.06  A 
ATOM      9  CD1 PHE C   1      24.462  -0.299  38.370  1.00  9.46 LIG 0.01  A 
ATOM     10  CE1 PHE C   1      23.081  -0.380  38.149  1.00  9.12 LIG 0.00  A 
ATOM     11  CZ  PHE C   1      22.594  -1.161  37.109  1.00  8.05 LIG 0.00  A 
ATOM     12  CE2 PHE C   1      23.486  -1.865  36.303  1.00  7.93 LIG 0.00  A 
ATOM     13  CD2 PHE C   1      24.861  -1.776  36.532  1.00  6.20 LIG 0.01  A 
ENDBRANCH 7 8
ENDBRANCH 6 7
BRANCH 6 14
ATOM     14  N   PHE C   1      26.715  -2.444  39.727  1.00 10.26 LIG-0.35  N 
ATOM     15 H    PHE C   1      25.901  -2.414  40.006  1.00 10.26 LIG 0.16  HD
ATOM     16  C   ACE C   0      27.454  -3.547  39.709  1.00 10.83 LIG 0.21  C 
ATOM     17  CH3 ACE C   0      26.779  -4.765  40.277  1.00 14.43 LIG 0.12  C 
ATOM     18 O    ACE C   0      28.581  -3.596  39.220  1.00 14.21 LIG-0.27  OA
ENDBRANCH 6 14
ENDBRANCH 4 6
ENDBRANCH 1 2
BRANCH 1 19
ATOM     19  C   HIS C   2      27.885   3.522  40.311  1.00 15.02 LIG 0.24  C 
ATOM     20  N   PRO C   3      28.324   3.524  39.032  1.00 12.04 LIG-0.34  N 
ATOM     21  CA  PRO C   3      29.051   4.699  38.518  1.00 11.10 LIG 0.18  C 
ATOM     22  CD  PRO C   3      28.181   2.468  38.011  1.00 17.75 LIG 0.13  C 
ATOM     23  CB  PRO C   3      29.274   4.363  37.038  1.00 15.56 LIG 0.04  C 
ATOM     24  CG  PRO C   3      29.185   2.877  36.960  1.00 20.46 LIG 0.02  C 
ATOM     25 O    HIS C   2      28.102   4.444  41.077  1.00  9.69 LIG-0.27  OA
BRANCH 21 26
ATOM     26  C   PRO C   3      28.245   5.996  38.655  1.00 13.73 LIG 0.24  C 
ATOM     27  N   ALA C   4      28.394   6.683  39.788  1.00 10.66 LIG-0.35  N 
ATOM     28 H    ALA C   4      28.989   6.495  40.380  1.00 10.66 LIG 0.16  HD
ATOM     29 O    PRO C   3      27.529   6.364  37.722  1.00 16.34 LIG-0.27  OA
BRANCH 27 30
ATOM     30  CA  ALA C   4      27.557   7.831  40.137  1.00 15.22 LIG 0.18  C 
ATOM     31  CB  ALA C   4      27.875   8.998  39.216  1.00 14.26 LIG 0.04  C 
BRANCH 30 32
ATOM     32  C   ALA C   4      26.057   7.569  40.108  1.00 20.48 LIG 0.28  C 
ATOM     33 O    ALA C   4      25.284   8.454  39.742  1.00 25.68 LIG-0.27  OA
ATOM     34  N   NH2 C   5      25.652   6.357  40.465  1.00 12.85 LIG-0.11  N 
ENDBRANCH 30 32
ENDBRANCH 27 30
ENDBRANCH 21 26
ENDBRANCH 1 19
BRANCH 1 35
ATOM     35  CB  HIS C   2      27.260   2.168  42.303  1.00 13.77 LIG 0.10  C 
BRANCH 35 36
ATOM     36  CG  HIS C   2      26.034   2.426  43.121  1.00 15.95 LIG 0.06  A 
ATOM     37  CD2 HIS C   2      25.024   1.606  43.497  1.00 16.64 LIG 0.14  A 
ATOM     38 NE2  HIS C   2      24.157   2.353  44.259  1.00 23.10 LIG-0.25  NA
ATOM     39  CE1 HIS C   2      24.622   3.587  44.352  1.00 23.56 LIG 0.23  A 
ATOM     40 ND1  HIS C   2      25.756   3.657  43.679  1.00 22.80 LIG-0.24  NA
ENDBRANCH 35 36
ENDBRANCH 1 35
TORSDOF 11
ENDMDL
MODEL 7
USER: ADFR SOLUTION from run 117
USER: SCORE 11.762237 LL:  -2.281 LR: -10.229 RR:   0.000 FEB:  -6.948
USER: RMSD 2.547183
USER: SEED 116
USER: STATUS no improvement in best in 9 clusters for 5 generations
USER: GENES 13
USER: genes 0 Translation |==|  0.60188 0.52327 0.51568
USER: genes 1 Rotation |==|  0.42836 0.57406 0.63869 0.96920
USER: genes 2 Torsion [CB]-CA--N-[C] |==|  0.50092
USER: genes 3 Torsion [N]-C--CA-[N] |==|  0.34585
USER: genes 4 Torsion [C]-CA--CB-[CG] |==|  0.43925
USER: genes 5 Torsion [CA]-CB--CG-[CD1] |==|  0.65904
USER: genes 6 Torsion [C]-CA--N-[C] |==|  0.68660
USER: genes 7 Torsion [N]-CA--C-[N] |==|  0.48301
USER: genes 8 Torsion [N]-CA--C-[N] |==|  0.67349
USER: genes 9 Torsion [C]-N--CA-[C] |==|  0.81176
USER: genes 10 Torsion [N]-CA--C-[N] |==|  0.90624
USER: genes 11 Torsion [N]-CA--CB-[CG] |==|  0.93980
USER: genes 12 Torsion [CA]-CB--CG-[ND1] |==|  0.86859
ROOT
ATOM      1  CA  HIS C   2      26.515   3.411  43.060  1.00 12.40 LIG 0.18  C 
ENDROOT
BRANCH 1 2
ATOM      2  N   HIS C   2      26.403   2.601  41.837  1.00  9.19 LIG-0.35  N 
ATOM      3 H    HIS C   2      26.291   3.062  41.120  1.00  9.19 LIG 0.16  HD
ATOM      4  C   PHE C   1      26.471   1.272  41.855  1.00 11.27 LIG 0.24  C 
ATOM      5 O    PHE C   1      26.723   0.622  42.879  1.00 15.22 LIG-0.27  OA
BRANCH 4 6
ATOM      6  CA  PHE C   1      26.245   0.563  40.518  1.00  8.70 LIG 0.18  C 
BRANCH 6 7
ATOM      7  CB  PHE C   1      24.940  -0.233  40.561  1.00  9.29 LIG 0.07  C 
BRANCH 7 8
ATOM      8  CG  PHE C   1      24.363  -0.529  39.206  1.00  9.78 LIG-0.06  A 
ATOM      9  CD1 PHE C   1      23.072  -0.124  38.873  1.00  9.46 LIG 0.01  A 
ATOM     10  CE1 PHE C   1      22.530  -0.407  37.613  1.00  9.12 LIG 0.00  A 
ATOM     11  CZ  PHE C   1      23.289  -1.097  36.675  1.00  8.05 LIG 0.00  A 
ATOM     12  CE2 PHE C   1      24.578  -1.509  37.005  1.00  7.93 LIG 0.00  A 
ATOM     13  CD2 PHE C   1      25.109  -1.219  38.264  1.00  6.20 LIG 0.01  A 
ENDBRANCH 7 8
ENDBRANCH 6 7
BRANCH 6 14
ATOM     14  N   PHE C   1      27.365  -0.310  40.188  1.00 10.26 LIG-0.35  N 
ATOM     15 H    PHE C   1      27.454  -0.989  40.709  1.00 10.26 LIG 0.16  HD
ATOM     16  C   ACE C   0      28.166  -0.052  39.160  1.00 10.83 LIG 0.21  C 
ATOM     17  CH3 ACE C   0      29.306  -1.018  38.994  1.00 14.43 LIG 0.12  C 
ATOM     18 O    ACE C   0      27.971   0.867  38.367  1.00 14.21 LIG-0.27  OA
ENDBRANCH 6 14
ENDBRANCH 4 6
ENDBRANCH 1 2
BRANCH 1 19
ATOM     19  C   HIS C   2      25.416   3.020  44.045  1.00 15.02 LIG 0.24  C 
ATOM     20  N   PRO C   3      25.431   3.568  45.280  1.00 12.04 LIG-0.34  N 
ATOM     21  CA  PRO C   3      24.333   3.270  46.218  1.00 11.10 LIG 0.18  C 
ATOM     22  CD  PRO C   3      26.437   4.471  45.872  1.00 17.75 LIG 0.13  C 
ATOM     23  CB  PRO C   3      24.654   4.145  47.436  1.00 15.56 LIG 0.04  C 
ATOM     24  CG  PRO C   3      26.118   4.413  47.346  1.00 20.46 LIG 0.02  C 
ATOM     25 O    HIS C   2      24.545   2.249  43.682  1.00  9.69 LIG-0.27  OA
BRANCH 21 26
ATOM     26  C   PRO C   3      22.958   3.632  45.647  1.00 13.73 LIG 0.24  C 
ATOM     27  N   ALA C   4      22.262   4.568  46.293  1.00 10.66 LIG-0.35  N 
ATOM     28 H    ALA C   4      22.589   5.042  46.932  1.00 10.66 LIG 0.16  HD
ATOM     29 O    PRO C   3      22.566   3.080  44.617  1.00 16.34 LIG-0.27  OA
BRANCH 27 30
ATOM     30  CA  ALA C   4      20.868   4.883  45.978  1.00 15.22 LIG 0.18  C 
ATOM     31  CB  ALA C   4      20.287   5.781  47.058  1.00 14.26 LIG 0.04  C 
BRANCH 30 32
ATOM     32  C   ALA C   4      20.644   5.530  44.617  1.00 20.48 LIG 0.28  C 
ATOM     33 O    ALA C   4      19.606   5.310  43.994  1.00 25.68 LIG-0.27  OA
ATOM     34  N   NH2 C   5      21.595   6.343  44.175  1.00 12.85 LIG-0.11  N 
ENDBRANCH 30 32
ENDBRANCH 27 30
ENDBRANCH 21 26
ENDBRANCH 1 19
BRANCH 1 35
ATOM     35  CB  HIS C   2      26.394   4.903  42.744  1.00 13.77 LIG 0.10  C 
BRANCH 35 36
ATOM     36  CG  HIS C   2      26.702   5.259  41.323  1.00 15.95 LIG 0.06  A 
ATOM     37  CD2 HIS C   2      26.053   6.059  40.445  1.00 16.64 LIG 0.14  A 
ATOM     38 NE2  HIS C   2      26.778   6.049  39.276  1.00 23.10 LIG-0.25  NA
ATOM     39  CE1 HIS C   2      27.837   5.274  39.435  1.00 23.56 LIG 0.23  A 
ATOM     40 ND1  HIS C   2      27.818   4.789  40.663  1.00 22.80 LIG-0.24  NA
ENDBRANCH 35 36
ENDBRANCH 1 35
TORSDOF 11
ENDMDL
MODEL 8
USER: ADFR SOLUTION from run 68
USER: SCORE 12.476901 LL:  -3.355 LR: -10.227 RR:   0.000 FEB:  -6.946
USER: RMSD 7.922315
USER: SEED 67
USER: STATUS no improvement in best in 17 clusters for 5 generations
USER: GENES 13
USER: genes 0 Translation |==|  0.67601 0.43393 0.33096
USER: genes 1 Rotation |==|  0.72314 0.87651 0.64921 0.69022
USER: genes 2 Torsion [CB]-CA--N-[C] |==|  0.56795
USER: genes 3 Torsion [N]-C--CA-[N] |==|  0.88450
USER: genes 4 Torsion [C]-CA--CB-[CG] |==|  0.18604
USER: genes 5 Torsion [CA]-CB--CG-[CD1] |==|  0.82400
USER: genes 6 Torsion [C]-CA--N-[C] |==|  0.79168
USER: genes 7 Torsion [N]-CA--C-[N] |==|  0.82778
USER: genes 8 Torsion [N]-CA--C-[N] |==|  0.75877
USER: genes 9 Torsion [C]-N--CA-[C] |==|  0.69127
USER: genes 10 Torsion [N]-CA--C-[N] |==|  0.01728
USER: genes 11 Torsion [N]-CA--CB-[CG] |==|  0.79541
USER: genes 12 Torsion [CA]-CB--CG-[ND1] |==|  0.30029
ROOT
ATOM      1  CA  HIS C   2      27.960   1.870  39.319  1.00 12.40 LIG 0.18  C 
ENDROOT
BRANCH 1 2
ATOM      2  N   HIS C   2      26.616   1.525  39.805  1.00  9.19 LIG-0.35  N 
ATOM      3 H    HIS C   2      26.183   2.188  40.139  1.00  9.19 LIG 0.16  HD
ATOM      4  C   PHE C   1      26.127   0.290  39.728  1.00 11.27 LIG 0.24  C 
ATOM      5 O    PHE C   1      26.721  -0.639  39.164  1.00 15.22 LIG-0.27  OA
BRANCH 4 6
ATOM      6  CA  PHE C   1      24.751   0.064  40.359  1.00  8.70 LIG 0.18  C 
BRANCH 6 7
ATOM      7  CB  PHE C   1      23.652   0.520  39.398  1.00  9.29 LIG 0.07  C 
BRANCH 7 8
ATOM      8  CG  PHE C   1      23.548  -0.314  38.153  1.00  9.78 LIG-0.06  A 
ATOM      9  CD1 PHE C   1      24.598  -0.375  37.240  1.00  9.46 LIG 0.01  A 
ATOM     10  CE1 PHE C   1      24.497  -1.145  36.075  1.00  9.12 LIG 0.00  A 
ATOM     11  CZ  PHE C   1      23.337  -1.866  35.823  1.00  8.05 LIG 0.00  A 
ATOM     12  CE2 PHE C   1      22.281  -1.805  36.730  1.00  7.93 LIG 0.00  A 
ATOM     13  CD2 PHE C   1      22.394  -1.035  37.889  1.00  6.20 LIG 0.01  A 
ENDBRANCH 7 8
ENDBRANCH 6 7
BRANCH 6 14
ATOM     14  N   PHE C   1      24.634   0.760  41.635  1.00 10.26 LIG-0.35  N 
ATOM     15 H    PHE C   1      24.152   1.472  41.610  1.00 10.26 LIG 0.16  HD
ATOM     16  C   ACE C   0      25.236   0.306  42.730  1.00 10.83 LIG 0.21  C 
ATOM     17  CH3 ACE C   0      25.062   1.173  43.946  1.00 14.43 LIG 0.12  C 
ATOM     18 O    ACE C   0      25.842  -0.762  42.773  1.00 14.21 LIG-0.27  OA
ENDBRANCH 6 14
ENDBRANCH 4 6
ENDBRANCH 1 2
BRANCH 1 19
ATOM     19  C   HIS C   2      28.915   0.703  39.558  1.00 15.02 LIG 0.24  C 
ATOM     20  N   PRO C   3      29.144   0.306  40.829  1.00 12.04 LIG-0.34  N 
ATOM     21  CA  PRO C   3      29.995  -0.873  41.077  1.00 11.10 LIG 0.18  C 
ATOM     22  CD  PRO C   3      28.647   0.906  42.083  1.00 17.75 LIG 0.13  C 
ATOM     23  CB  PRO C   3      29.919  -1.055  42.599  1.00 15.56 LIG 0.04  C 
ATOM     24  CG  PRO C   3      29.536   0.284  43.132  1.00 20.46 LIG 0.02  C 
ATOM     25 O    HIS C   2      29.420   0.146  38.598  1.00  9.69 LIG-0.27  OA
BRANCH 21 26
ATOM     26  C   PRO C   3      29.483  -2.128  40.363  1.00 13.73 LIG 0.24  C 
ATOM     27  N   ALA C   4      28.575  -2.863  41.007  1.00 10.66 LIG-0.35  N 
ATOM     28 H    ALA C   4      28.194  -2.610  41.735  1.00 10.66 LIG 0.16  HD
ATOM     29 O    PRO C   3      29.896  -2.391  39.232  1.00 16.34 LIG-0.27  OA
BRANCH 27 30
ATOM     30  CA  ALA C   4      28.137  -4.177  40.535  1.00 15.22 LIG 0.18  C 
ATOM     31  CB  ALA C   4      28.320  -5.206  41.639  1.00 14.26 LIG 0.04  C 
BRANCH 30 32
ATOM     32  C   ALA C   4      26.700  -4.236  40.033  1.00 20.48 LIG 0.28  C 
ATOM     33 O    ALA C   4      26.192  -5.320  39.747  1.00 25.68 LIG-0.27  OA
ATOM     34  N   NH2 C   5      26.043  -3.086  39.954  1.00 12.85 LIG-0.11  N 
ENDBRANCH 30 32
ENDBRANCH 27 30
ENDBRANCH 21 26
ENDBRANCH 1 19
BRANCH 1 35
ATOM     35  CB  HIS C   2      28.501   3.111  40.031  1.00 13.77 LIG 0.10  C 
BRANCH 35 36
ATOM     36  CG  HIS C   2      27.865   4.395  39.598  1.00 15.95 LIG 0.06  A 
ATOM     37  CD2 HIS C   2      27.958   5.089  38.439  1.00 16.64 LIG 0.14  A 
ATOM     38 NE2  HIS C   2      27.152   6.197  38.564  1.00 23.10 LIG-0.25  NA
ATOM     39  CE1 HIS C   2      26.581   6.179  39.756  1.00 23.56 LIG 0.23  A 
ATOM     40 ND1  HIS C   2      26.990   5.100  40.399  1.00 22.80 LIG-0.24  NA
ENDBRANCH 35 36
ENDBRANCH 1 35
TORSDOF 11
ENDMDL
MODEL 9
USER: ADFR SOLUTION from run 37
USER: SCORE 11.097237 LL:  -2.537 LR: -10.194 RR:   0.000 FEB:  -6.913
USER: RMSD 7.877031
USER: SEED 36
USER: STATUS searching
USER: GENES 13
USER: genes 0 Translation |==|  0.61157 0.39318 0.39418
USER: genes 1 Rotation |==|  0.42642 0.21643 0.11554 0.62792
USER: genes 2 Torsion [CB]-CA--N-[C] |==|  0.56667
USER: genes 3 Torsion [N]-C--CA-[N] |==|  0.00091
USER: genes 4 Torsion [C]-CA--CB-[CG] |==|  0.82214
USER: genes 5 Torsion [CA]-CB--CG-[CD1] |==|  0.59240
USER: genes 6 Torsion [C]-CA--N-[C] |==|  0.73183
USER: genes 7 Torsion [N]-CA--C-[N] |==|  0.87341
USER: genes 8 Torsion [N]-CA--C-[N] |==|  0.25433
USER: genes 9 Torsion [C]-N--CA-[C] |==|  0.49104
USER: genes 10 Torsion [N]-CA--C-[N] |==|  0.34321
USER: genes 11 Torsion [N]-CA--CB-[CG] |==|  0.64499
USER: genes 12 Torsion [CA]-CB--CG-[ND1] |==|  0.78290
ROOT
ATOM      1  CA  HIS C   2      26.704   1.167  40.599  1.00 12.40 LIG 0.18  C 
ENDROOT
BRANCH 1 2
ATOM      2  N   HIS C   2      26.625  -0.092  39.844  1.00  9.19 LIG-0.35  N 
ATOM      3 H    HIS C   2      26.339  -0.760  40.304  1.00  9.19 LIG 0.16  HD
ATOM      4  C   PHE C   1      26.972  -0.176  38.562  1.00 11.27 LIG 0.24  C 
ATOM      5 O    PHE C   1      27.296   0.807  37.884  1.00 15.22 LIG-0.27  OA
BRANCH 4 6
ATOM      6  CA  PHE C   1      26.925  -1.572  37.936  1.00  8.70 LIG 0.18  C 
BRANCH 6 7
ATOM      7  CB  PHE C   1      26.003  -1.569  36.716  1.00  9.29 LIG 0.07  C 
BRANCH 7 8
ATOM      8  CG  PHE C   1      24.567  -1.275  37.038  1.00  9.78 LIG-0.06  A 
ATOM      9  CD1 PHE C   1      23.533  -1.859  36.309  1.00  9.46 LIG 0.01  A 
ATOM     10  CE1 PHE C   1      22.193  -1.577  36.603  1.00  9.12 LIG 0.00  A 
ATOM     11  CZ  PHE C   1      21.884  -0.709  37.642  1.00  8.05 LIG 0.00  A 
ATOM     12  CE2 PHE C   1      22.913  -0.118  38.372  1.00  7.93 LIG 0.00  A 
ATOM     13  CD2 PHE C   1      24.245  -0.407  38.070  1.00  6.20 LIG 0.01  A 
ENDBRANCH 7 8
ENDBRANCH 6 7
BRANCH 6 14
ATOM     14  N   PHE C   1      26.486  -2.570  38.904  1.00 10.26 LIG-0.35  N 
ATOM     15 H    PHE C   1      25.632  -2.631  38.992  1.00 10.26 LIG 0.16  HD
ATOM     16  C   ACE C   0      27.358  -3.310  39.581  1.00 10.83 LIG 0.21  C 
ATOM     17  CH3 ACE C   0      26.742  -4.249  40.581  1.00 14.43 LIG 0.12  C 
ATOM     18 O    ACE C   0      28.570  -3.280  39.378  1.00 14.21 LIG-0.27  OA
ENDBRANCH 6 14
ENDBRANCH 4 6
ENDBRANCH 1 2
BRANCH 1 19
ATOM     19  C   HIS C   2      27.909   1.980  40.131  1.00 15.02 LIG 0.24  C 
ATOM     20  N   PRO C   3      29.092   1.346  39.971  1.00 12.04 LIG-0.34  N 
ATOM     21  CA  PRO C   3      30.247   2.092  39.439  1.00 11.10 LIG 0.18  C 
ATOM     22  CD  PRO C   3      29.428  -0.061  40.268  1.00 17.75 LIG 0.13  C 
ATOM     23  CB  PRO C   3      31.337   1.021  39.310  1.00 15.56 LIG 0.04  C 
ATOM     24  CG  PRO C   3      30.937  -0.056  40.260  1.00 20.46 LIG 0.02  C 
ATOM     25 O    HIS C   2      27.764   3.165  39.889  1.00  9.69 LIG-0.27  OA
BRANCH 21 26
ATOM     26  C   PRO C   3      29.958   2.728  38.075  1.00 13.73 LIG 0.24  C 
ATOM     27  N   ALA C   4      29.487   3.975  38.076  1.00 10.66 LIG-0.35  N 
ATOM     28 H    ALA C   4      29.445   4.463  38.783  1.00 10.66 LIG 0.16  HD
ATOM     29 O    PRO C   3      30.195   2.089  37.048  1.00 16.34 LIG-0.27  OA
BRANCH 27 30
ATOM     30  CA  ALA C   4      28.993   4.640  36.870  1.00 15.22 LIG 0.18  C 
ATOM     31  CB  ALA C   4      27.937   3.773  36.201  1.00 14.26 LIG 0.04  C 
BRANCH 30 32
ATOM     32  C   ALA C   4      28.425   6.036  37.088  1.00 20.48 LIG 0.28  C 
ATOM     33 O    ALA C   4      27.524   6.213  37.908  1.00 25.68 LIG-0.27  OA
ATOM     34  N   NH2 C   5      28.965   7.021  36.382  1.00 12.85 LIG-0.11  N 
ENDBRANCH 30 32
ENDBRANCH 27 30
ENDBRANCH 21 26
ENDBRANCH 1 19
BRANCH 1 35
ATOM     35  CB  HIS C   2      26.832   0.902  42.100  1.00 13.77 LIG 0.10  C 
BRANCH 35 36
ATOM     36  CG  HIS C   2      25.831   1.629  42.942  1.00 15.95 LIG 0.06  A 
ATOM     37  CD2 HIS C   2      24.702   1.200  43.553  1.00 16.64 LIG 0.14  A 
ATOM     38 NE2  HIS C   2      24.162   2.280  44.213  1.00 23.10 LIG-0.25  NA
ATOM     39  CE1 HIS C   2      24.938   3.332  44.018  1.00 23.56 LIG 0.23  A 
ATOM     40 ND1  HIS C   2      25.954   2.966  43.258  1.00 22.80 LIG-0.24  NA
ENDBRANCH 35 36
ENDBRANCH 1 35
TORSDOF 11
ENDMDL
MODEL 10
USER: ADFR SOLUTION from run 149
USER: SCORE 11.785859 LL:  -2.902 LR: -10.131 RR:   0.000 FEB:  -6.849
USER: RMSD 9.273743
USER: SEED 148
USER: STATUS no improvement in best in 17 clusters for 5 generations
USER: GENES 13
USER: genes 0 Translation |==|  0.39639 0.35256 0.71210
USER: genes 1 Rotation |==|  0.25598 0.81476 0.20376 0.56016
USER: genes 2 Torsion [CB]-CA--N-[C] |==|  0.50556
USER: genes 3 Torsion [N]-C--CA-[N] |==|  0.36317
USER: genes 4 Torsion [C]-CA--CB-[CG] |==|  0.22381
USER: genes 5 Torsion [CA]-CB--CG-[CD1] |==|  0.74593
USER: genes 6 Torsion [C]-CA--N-[C] |==|  0.53554
USER: genes 7 Torsion [N]-CA--C-[N] |==|  0.42229
USER: genes 8 Torsion [N]-CA--C-[N] |==|  0.74076
USER: genes 9 Torsion [C]-N--CA-[C] |==|  0.61478
USER: genes 10 Torsion [N]-CA--C-[N] |==|  0.42828
USER: genes 11 Torsion [N]-CA--CB-[CG] |==|  0.71311
USER: genes 12 Torsion [CA]-CB--CG-[ND1] |==|  0.44193
ROOT
ATOM      1  CA  HIS C   2      22.508   0.467  47.037  1.00 12.40 LIG 0.18  C 
ENDROOT
BRANCH 1 2
ATOM      2  N   HIS C   2      21.658   1.457  47.715  1.00  9.19 LIG-0.35  N 
ATOM      3 H    HIS C   2      20.819   1.373  47.546  1.00  9.19 LIG 0.16  HD
ATOM      4  C   PHE C   1      22.158   2.395  48.516  1.00 11.27 LIG 0.24  C 
ATOM      5 O    PHE C   1      23.356   2.452  48.824  1.00 15.22 LIG-0.27  OA
BRANCH 4 6
ATOM      6  CA  PHE C   1      21.160   3.411  49.076  1.00  8.70 LIG 0.18  C 
BRANCH 6 7
ATOM      7  CB  PHE C   1      21.338   4.760  48.378  1.00  9.29 LIG 0.07  C 
BRANCH 7 8
ATOM      8  CG  PHE C   1      20.671   4.843  47.035  1.00  9.78 LIG-0.06  A 
ATOM      9  CD1 PHE C   1      21.361   4.510  45.871  1.00  9.46 LIG 0.01  A 
ATOM     10  CE1 PHE C   1      20.742   4.596  44.617  1.00  9.12 LIG 0.00  A 
ATOM     11  CZ  PHE C   1      19.420   5.012  44.527  1.00  8.05 LIG 0.00  A 
ATOM     12  CE2 PHE C   1      18.728   5.351  45.688  1.00  7.93 LIG 0.00  A 
ATOM     13  CD2 PHE C   1      19.354   5.260  46.932  1.00  6.20 LIG 0.01  A 
ENDBRANCH 7 8
ENDBRANCH 6 7
BRANCH 6 14
ATOM     14  N   PHE C   1      21.312   3.559  50.519  1.00 10.26 LIG-0.35  N 
ATOM     15 H    PHE C   1      22.029   3.209  50.840  1.00 10.26 LIG 0.16  HD
ATOM     16  C   ACE C   0      20.399   4.189  51.251  1.00 10.83 LIG 0.21  C 
ATOM     17  CH3 ACE C   0      20.679   4.202  52.729  1.00 14.43 LIG 0.12  C 
ATOM     18 O    ACE C   0      19.428   4.768  50.768  1.00 14.21 LIG-0.27  OA
ENDBRANCH 6 14
ENDBRANCH 4 6
ENDBRANCH 1 2
BRANCH 1 19
ATOM     19  C   HIS C   2      23.553   1.178  46.181  1.00 15.02 LIG 0.24  C 
ATOM     20  N   PRO C   3      24.730   0.556  45.950  1.00 12.04 LIG-0.34  N 
ATOM     21  CA  PRO C   3      25.719   1.187  45.057  1.00 11.10 LIG 0.18  C 
ATOM     22  CD  PRO C   3      25.209  -0.732  46.488  1.00 17.75 LIG 0.13  C 
ATOM     23  CB  PRO C   3      26.841   0.144  44.971  1.00 15.56 LIG 0.04  C 
ATOM     24  CG  PRO C   3      26.690  -0.690  46.198  1.00 20.46 LIG 0.02  C 
ATOM     25 O    HIS C   2      23.286   2.269  45.708  1.00  9.69 LIG-0.27  OA
BRANCH 21 26
ATOM     26  C   PRO C   3      25.152   1.477  43.663  1.00 13.73 LIG 0.24  C 
ATOM     27  N   ALA C   4      25.341   0.546  42.728  1.00 10.66 LIG-0.35  N 
ATOM     28 H    ALA C   4      25.661  -0.235  42.896  1.00 10.66 LIG 0.16  HD
ATOM     29 O    PRO C   3      24.528   2.522  43.470  1.00 16.34 LIG-0.27  OA
BRANCH 27 30
ATOM     30  CA  ALA C   4      25.023   0.761  41.316  1.00 15.22 LIG 0.18  C 
ATOM     31  CB  ALA C   4      26.284   1.145  40.557  1.00 14.26 LIG 0.04  C 
BRANCH 30 32
ATOM     32  C   ALA C   4      24.361  -0.418  40.615  1.00 20.48 LIG 0.28  C 
ATOM     33 O    ALA C   4      24.526  -1.560  41.043  1.00 25.68 LIG-0.27  OA
ATOM     34  N   NH2 C   5      23.597  -0.142  39.566  1.00 12.85 LIG-0.11  N 
ENDBRANCH 30 32
ENDBRANCH 27 30
ENDBRANCH 21 26
ENDBRANCH 1 19
BRANCH 1 35
ATOM     35  CB  HIS C   2      21.674  -0.455  46.145  1.00 13.77 LIG 0.10  C 
BRANCH 35 36
ATOM     36  CG  HIS C   2      21.435  -1.816  46.719  1.00 15.95 LIG 0.06  A 
ATOM     37  CD2 HIS C   2      22.083  -2.498  47.692  1.00 16.64 LIG 0.14  A 
ATOM     38 NE2  HIS C   2      21.438  -3.705  47.839  1.00 23.10 LIG-0.25  NA
ATOM     39  CE1 HIS C   2      20.427  -3.756  46.990  1.00 23.56 LIG 0.23  A 
ATOM     40 ND1  HIS C   2      20.400  -2.628  46.304  1.00 22.80 LIG-0.24  NA
ENDBRANCH 35 36
ENDBRANCH 1 35
TORSDOF 11
ENDMDL
MODEL 11
USER: ADFR SOLUTION from run 128
USER: SCORE 11.702719 LL:  -2.836 LR: -10.128 RR:   0.000 FEB:  -6.847
USER: RMSD 8.001769
USER: SEED 127
USER: STATUS no improvement in best in 49 clusters for 5 generations
USER: GENES 13
USER: genes 0 Translation |==|  0.43548 0.53134 0.59027
USER: genes 1 Rotation |==|  0.54575 0.95861 0.69040 0.53643
USER: genes 2 Torsion [CB]-CA--N-[C] |==|  0.77778
USER: genes 3 Torsion [N]-C--CA-[N] |==|  0.64721
USER: genes 4 Torsion [C]-CA--CB-[CG] |==|  0.42012
USER: genes 5 Torsion [CA]-CB--CG-[CD1] |==|  0.52767
USER: genes 6 Torsion [C]-CA--N-[C] |==|  0.16360
USER: genes 7 Torsion [N]-CA--C-[N] |==|  0.16797
USER: genes 8 Torsion [N]-CA--C-[N] |==|  0.78634
USER: genes 9 Torsion [C]-N--CA-[C] |==|  0.71634
USER: genes 10 Torsion [N]-CA--C-[N] |==|  0.08877
USER: genes 11 Torsion [N]-CA--CB-[CG] |==|  0.82248
USER: genes 12 Torsion [CA]-CB--CG-[ND1] |==|  0.83440
ROOT
ATOM      1  CA  HIS C   2      23.270   3.551  44.570  1.00 12.40 LIG 0.18  C 
ENDROOT
BRANCH 1 2
ATOM      2  N   HIS C   2      22.979   2.315  45.312  1.00  9.19 LIG-0.35  N 
ATOM      3 H    HIS C   2      22.291   1.887  45.024  1.00  9.19 LIG 0.16  HD
ATOM      4  C   PHE C   1      23.722   1.908  46.338  1.00 11.27 LIG 0.24  C 
ATOM      5 O    PHE C   1      24.762   2.483  46.688  1.00 15.22 LIG-0.27  OA
BRANCH 4 6
ATOM      6  CA  PHE C   1      23.242   0.653  47.070  1.00  8.70 LIG 0.18  C 
BRANCH 6 7
ATOM      7  CB  PHE C   1      21.904   0.190  46.492  1.00  9.29 LIG 0.07  C 
BRANCH 7 8
ATOM      8  CG  PHE C   1      21.673  -1.290  46.603  1.00  9.78 LIG-0.06  A 
ATOM      9  CD1 PHE C   1      20.606  -1.901  45.947  1.00  9.46 LIG 0.01  A 
ATOM     10  CE1 PHE C   1      20.385  -3.279  46.058  1.00  9.12 LIG 0.00  A 
ATOM     11  CZ  PHE C   1      21.243  -4.055  46.827  1.00  8.05 LIG 0.00  A 
ATOM     12  CE2 PHE C   1      22.308  -3.449  47.489  1.00  7.93 LIG 0.00  A 
ATOM     13  CD2 PHE C   1      22.520  -2.075  47.370  1.00  6.20 LIG 0.01  A 
ENDBRANCH 7 8
ENDBRANCH 6 7
BRANCH 6 14
ATOM     14  N   PHE C   1      23.125   0.890  48.503  1.00 10.26 LIG-0.35  N 
ATOM     15 H    PHE C   1      23.608   0.373  48.991  1.00 10.26 LIG 0.16  HD
ATOM     16  C   ACE C   0      22.327   1.837  48.987  1.00 10.83 LIG 0.21  C 
ATOM     17  CH3 ACE C   0      22.278   1.910  50.488  1.00 14.43 LIG 0.12  C 
ATOM     18 O    ACE C   0      21.715   2.631  48.276  1.00 14.21 LIG-0.27  OA
ENDBRANCH 6 14
ENDBRANCH 4 6
ENDBRANCH 1 2
BRANCH 1 19
ATOM     19  C   HIS C   2      24.776   3.690  44.364  1.00 15.02 LIG 0.24  C 
ATOM     20  N   PRO C   3      25.425   2.728  43.671  1.00 12.04 LIG-0.34  N 
ATOM     21  CA  PRO C   3      26.863   2.885  43.387  1.00 11.10 LIG 0.18  C 
ATOM     22  CD  PRO C   3      24.885   1.467  43.125  1.00 17.75 LIG 0.13  C 
ATOM     23  CB  PRO C   3      27.190   1.668  42.512  1.00 15.56 LIG 0.04  C 
ATOM     24  CG  PRO C   3      26.130   0.668  42.825  1.00 20.46 LIG 0.02  C 
ATOM     25 O    HIS C   2      25.344   4.675  44.803  1.00  9.69 LIG-0.27  OA
BRANCH 21 26
ATOM     26  C   PRO C   3      27.176   4.183  42.636  1.00 13.73 LIG 0.24  C 
ATOM     27  N   ALA C   4      26.898   4.209  41.332  1.00 10.66 LIG-0.35  N 
ATOM     28 H    ALA C   4      26.462   3.587  40.929  1.00 10.66 LIG 0.16  HD
ATOM     29 O    PRO C   3      27.632   5.146  43.256  1.00 16.34 LIG-0.27  OA
BRANCH 27 30
ATOM     30  CA  ALA C   4      27.311   5.304  40.453  1.00 15.22 LIG 0.18  C 
ATOM     31  CB  ALA C   4      27.902   4.739  39.171  1.00 14.26 LIG 0.04  C 
BRANCH 30 32
ATOM     32  C   ALA C   4      26.212   6.297  40.099  1.00 20.48 LIG 0.28  C 
ATOM     33 O    ALA C   4      26.205   6.840  38.995  1.00 25.68 LIG-0.27  OA
ATOM     34  N   NH2 C   5      25.278   6.511  41.016  1.00 12.85 LIG-0.11  N 
ENDBRANCH 30 32
ENDBRANCH 27 30
ENDBRANCH 21 26
ENDBRANCH 1 19
BRANCH 1 35
ATOM     35  CB  HIS C   2      22.753   4.779  45.321  1.00 13.77 LIG 0.10  C 
BRANCH 35 36
ATOM     36  CG  HIS C   2      21.265   4.822  45.480  1.00 15.95 LIG 0.06  A 
ATOM     37  CD2 HIS C   2      20.490   4.884  46.588  1.00 16.64 LIG 0.14  A 
ATOM     38 NE2  HIS C   2      19.181   4.918  46.165  1.00 23.10 LIG-0.25  NA
ATOM     39  CE1 HIS C   2      19.157   4.885  44.844  1.00 23.56 LIG 0.23  A 
ATOM     40 ND1  HIS C   2      20.401   4.832  44.405  1.00 22.80 LIG-0.24  NA
ENDBRANCH 35 36
ENDBRANCH 1 35
TORSDOF 11
ENDMDL
MODEL 12
USER: ADFR SOLUTION from run 137
USER: SCORE 11.754769 LL:  -2.943 LR: -10.125 RR:   0.000 FEB:  -6.843
USER: RMSD 8.278268
USER: SEED 136
USER: STATUS no improvement in best in 21 clusters for 5 generations
USER: GENES 13
USER: genes 0 Translation |==|  0.67903 0.50787 0.33166
USER: genes 1 Rotation |==|  0.12583 0.63792 0.32678 0.74693
USER: genes 2 Torsion [CB]-CA--N-[C] |==|  0.13553
USER: genes 3 Torsion [N]-C--CA-[N] |==|  0.85849
USER: genes 4 Torsion [C]-CA--CB-[CG] |==|  0.14409
USER: genes 5 Torsion [CA]-CB--CG-[CD1] |==|  0.09039
USER: genes 6 Torsion [C]-CA--N-[C] |==|  0.61667
USER: genes 7 Torsion [N]-CA--C-[N] |==|  0.16578
USER: genes 8 Torsion [N]-CA--C-[N] |==|  0.25406
USER: genes 9 Torsion [C]-N--CA-[C] |==|  0.61157
USER: genes 10 Torsion [N]-CA--C-[N] |==|  0.14726
USER: genes 11 Torsion [N]-CA--CB-[CG] |==|  0.52417
USER: genes 12 Torsion [CA]-CB--CG-[ND1] |==|  0.57706
ROOT
ATOM      1  CA  HIS C   2      28.019   3.146  39.333  1.00 12.40 LIG 0.18  C 
ENDROOT
BRANCH 1 2
ATOM      2  N   HIS C   2      26.893   2.525  40.047  1.00  9.19 LIG-0.35  N 
ATOM      3 H    HIS C   2      26.213   3.041  40.145  1.00  9.19 LIG 0.16  HD
ATOM      4  C   PHE C   1      26.939   1.273  40.497  1.00 11.27 LIG 0.24  C 
ATOM      5 O    PHE C   1      27.886   0.509  40.272  1.00 15.22 LIG-0.27  OA
BRANCH 4 6
ATOM      6  CA  PHE C   1      25.727   0.797  41.301  1.00  8.70 LIG 0.18  C 
BRANCH 6 7
ATOM      7  CB  PHE C   1      24.527   0.599  40.374  1.00  9.29 LIG 0.07  C 
BRANCH 7 8
ATOM      8  CG  PHE C   1      24.816  -0.264  39.180  1.00  9.78 LIG-0.06  A 
ATOM      9  CD1 PHE C   1      25.732  -1.312  39.257  1.00  9.46 LIG 0.01  A 
ATOM     10  CE1 PHE C   1      26.009  -2.111  38.141  1.00  9.12 LIG 0.00  A 
ATOM     11  CZ  PHE C   1      25.360  -1.865  36.938  1.00  8.05 LIG 0.00  A 
ATOM     12  CE2 PHE C   1      24.447  -0.816  36.853  1.00  7.93 LIG 0.00  A 
ATOM     13  CD2 PHE C   1      24.178  -0.026  37.973  1.00  6.20 LIG 0.01  A 
ENDBRANCH 7 8
ENDBRANCH 6 7
BRANCH 6 14
ATOM     14  N   PHE C   1      25.399   1.735  42.368  1.00 10.26 LIG-0.35  N 
ATOM     15 H    PHE C   1      25.444   2.563  42.140  1.00 10.26 LIG 0.16  HD
ATOM     16  C   ACE C   0      25.062   1.314  43.582  1.00 10.83 LIG 0.21  C 
ATOM     17  CH3 ACE C   0      24.812   2.411  44.580  1.00 14.43 LIG 0.12  C 
ATOM     18 O    ACE C   0      24.910   0.128  43.867  1.00 14.21 LIG-0.27  OA
ENDBRANCH 6 14
ENDBRANCH 4 6
ENDBRANCH 1 2
BRANCH 1 19
ATOM     19  C   HIS C   2      27.579   4.475  38.724  1.00 15.02 LIG 0.24  C 
ATOM     20  N   PRO C   3      27.119   5.442  39.549  1.00 12.04 LIG-0.34  N 
ATOM     21  CA  PRO C   3      26.770   6.762  38.992  1.00 11.10 LIG 0.18  C 
ATOM     22  CD  PRO C   3      26.897   5.377  41.007  1.00 17.75 LIG 0.13  C 
ATOM     23  CB  PRO C   3      26.404   7.588  40.232  1.00 15.56 LIG 0.04  C 
ATOM     24  CG  PRO C   3      26.032   6.586  41.271  1.00 20.46 LIG 0.02  C 
ATOM     25 O    HIS C   2      27.680   4.636  37.521  1.00  9.69 LIG-0.27  OA
BRANCH 21 26
ATOM     26  C   PRO C   3      27.937   7.412  38.242  1.00 13.73 LIG 0.24  C 
ATOM     27  N   ALA C   4      28.023   7.173  36.933  1.00 10.66 LIG-0.35  N 
ATOM     28 H    ALA C   4      27.408   6.774  36.485  1.00 10.66 LIG 0.16  HD
ATOM     29 O    PRO C   3      28.719   8.141  38.856  1.00 16.34 LIG-0.27  OA
BRANCH 27 30
ATOM     30  CA  ALA C   4      29.178   7.569  36.127  1.00 15.22 LIG 0.18  C 
ATOM     31  CB  ALA C   4      30.128   6.391  35.977  1.00 14.26 LIG 0.04  C 
BRANCH 30 32
ATOM     32  C   ALA C   4      28.845   8.118  34.746  1.00 20.48 LIG 0.28  C 
ATOM     33 O    ALA C   4      29.359   7.621  33.745  1.00 25.68 LIG-0.27  OA
ATOM     34  N   NH2 C   5      27.971   9.115  34.692  1.00 12.85 LIG-0.11  N 
ENDBRANCH 30 32
ENDBRANCH 27 30
ENDBRANCH 21 26
ENDBRANCH 1 19
BRANCH 1 35
ATOM     35  CB  HIS C   2      28.535   2.233  38.220  1.00 13.77 LIG 0.10  C 
BRANCH 35 36
ATOM     36  CG  HIS C   2      29.806   2.699  37.581  1.00 15.95 LIG 0.06  A 
ATOM     37  CD2 HIS C   2      30.836   3.426  38.074  1.00 16.64 LIG 0.14  A 
ATOM     38 NE2  HIS C   2      31.761   3.556  37.064  1.00 23.10 LIG-0.25  NA
ATOM     39  CE1 HIS C   2      31.315   2.924  35.992  1.00 23.56 LIG 0.23  A 
ATOM     40 ND1  HIS C   2      30.140   2.394  36.278  1.00 22.80 LIG-0.24  NA
ENDBRANCH 35 36
ENDBRANCH 1 35
TORSDOF 11
ENDMDL
MODEL 13
USER: ADFR SOLUTION from run 89
USER: SCORE 11.571704 LL:  -2.475 LR: -10.026 RR:   0.000 FEB:  -6.745
USER: RMSD 4.392719
USER: SEED 88
USER: STATUS no improvement in best in 8 clusters for 5 generations
USER: GENES 13
USER: genes 0 Translation |==|  0.51229 0.45766 0.59447
USER: genes 1 Rotation |==|  0.50977 0.54585 0.79433 0.90147
USER: genes 2 Torsion [CB]-CA--N-[C] |==|  0.51111
USER: genes 3 Torsion [N]-C--CA-[N] |==|  0.36930
USER: genes 4 Torsion [C]-CA--CB-[CG] |==|  0.46359
USER: genes 5 Torsion [CA]-CB--CG-[CD1] |==|  0.73318
USER: genes 6 Torsion [C]-CA--N-[C] |==|  0.75310
USER: genes 7 Torsion [N]-CA--C-[N] |==|  0.47654
USER: genes 8 Torsion [N]-CA--C-[N] |==|  0.42424
USER: genes 9 Torsion [C]-N--CA-[C] |==|  0.61181
USER: genes 10 Torsion [N]-CA--C-[N] |==|  0.06035
USER: genes 11 Torsion [N]-CA--CB-[CG] |==|  0.83924
USER: genes 12 Torsion [CA]-CB--CG-[ND1] |==|  0.99742
ROOT
ATOM      1  CA  HIS C   2      24.768   2.280  44.655  1.00 12.40 LIG 0.18  C 
ENDROOT
BRANCH 1 2
ATOM      2  N   HIS C   2      24.853   2.022  43.210  1.00  9.19 LIG-0.35  N 
ATOM      3 H    HIS C   2      24.381   2.556  42.730  1.00  9.19 LIG 0.16  HD
ATOM      4  C   PHE C   1      25.601   1.044  42.704  1.00 11.27 LIG 0.24  C 
ATOM      5 O    PHE C   1      26.348   0.338  43.395  1.00 15.22 LIG-0.27  OA
BRANCH 4 6
ATOM      6  CA  PHE C   1      25.517   0.839  41.190  1.00  8.70 LIG 0.18  C 
BRANCH 6 7
ATOM      7  CB  PHE C   1      24.669  -0.393  40.873  1.00  9.29 LIG 0.07  C 
BRANCH 7 8
ATOM      8  CG  PHE C   1      24.269  -0.503  39.430  1.00  9.78 LIG-0.06  A 
ATOM      9  CD1 PHE C   1      23.029  -0.041  38.992  1.00  9.46 LIG 0.01  A 
ATOM     10  CE1 PHE C   1      22.653  -0.151  37.648  1.00  9.12 LIG 0.00  A 
ATOM     11  CZ  PHE C   1      23.526  -0.723  36.732  1.00  8.05 LIG 0.00  A 
ATOM     12  CE2 PHE C   1      24.764  -1.192  37.165  1.00  7.93 LIG 0.00  A 
ATOM     13  CD2 PHE C   1      25.130  -1.075  38.507  1.00  6.20 LIG 0.01  A 
ENDBRANCH 7 8
ENDBRANCH 6 7
BRANCH 6 14
ATOM     14  N   PHE C   1      26.844   0.710  40.600  1.00 10.26 LIG-0.35  N 
ATOM     15 H    PHE C   1      27.135  -0.098  40.548  1.00 10.26 LIG 0.16  HD
ATOM     16  C   ACE C   0      27.526   1.773  40.186  1.00 10.83 LIG 0.21  C 
ATOM     17  CH3 ACE C   0      28.901   1.471  39.658  1.00 14.43 LIG 0.12  C 
ATOM     18 O    ACE C   0      27.061   2.911  40.178  1.00 14.21 LIG-0.27  OA
ENDBRANCH 6 14
ENDBRANCH 4 6
ENDBRANCH 1 2
BRANCH 1 19
ATOM     19  C   HIS C   2      24.336   1.009  45.384  1.00 15.02 LIG 0.24  C 
ATOM     20  N   PRO C   3      24.368   0.998  46.735  1.00 12.04 LIG-0.34  N 
ATOM     21  CA  PRO C   3      23.875  -0.186  47.462  1.00 11.10 LIG 0.18  C 
ATOM     22  CD  PRO C   3      24.852   2.051  47.651  1.00 17.75 LIG 0.13  C 
ATOM     23  CB  PRO C   3      23.977   0.229  48.935  1.00 15.56 LIG 0.04  C 
ATOM     24  CG  PRO C   3      24.996   1.316  48.963  1.00 20.46 LIG 0.02  C 
ATOM     25 O    HIS C   2      23.950   0.056  44.732  1.00  9.69 LIG-0.27  OA
BRANCH 21 26
ATOM     26  C   PRO C   3      22.427  -0.535  47.103  1.00 13.73 LIG 0.24  C 
ATOM     27  N   ALA C   4      22.065  -1.813  47.225  1.00 10.66 LIG-0.35  N 
ATOM     28 H    ALA C   4      22.562  -2.411  47.590  1.00 10.66 LIG 0.16  HD
ATOM     29 O    PRO C   3      21.658   0.362  46.754  1.00 16.34 LIG-0.27  OA
BRANCH 27 30
ATOM     30  CA  ALA C   4      20.780  -2.323  46.745  1.00 15.22 LIG 0.18  C 
ATOM     31  CB  ALA C   4      20.955  -2.943  45.368  1.00 14.26 LIG 0.04  C 
BRANCH 30 32
ATOM     32  C   ALA C   4      20.103  -3.333  47.663  1.00 20.48 LIG 0.28  C 
ATOM     33 O    ALA C   4      19.281  -4.126  47.206  1.00 25.68 LIG-0.27  OA
ATOM     34  N   NH2 C   5      20.467  -3.322  48.939  1.00 12.85 LIG-0.11  N 
ENDBRANCH 30 32
ENDBRANCH 27 30
ENDBRANCH 21 26
ENDBRANCH 1 19
BRANCH 1 35
ATOM     35  CB  HIS C   2      23.765   3.394  44.957  1.00 13.77 LIG 0.10  C 
BRANCH 35 36
ATOM     36  CG  HIS C   2      24.067   4.694  44.280  1.00 15.95 LIG 0.06  A 
ATOM     37  CD2 HIS C   2      23.423   5.885  44.312  1.00 16.64 LIG 0.14  A 
ATOM     38 NE2  HIS C   2      24.138   6.753  43.518  1.00 23.10 LIG-0.25  NA
ATOM     39  CE1 HIS C   2      25.185   6.116  43.022  1.00 23.56 LIG 0.23  A 
ATOM     40 ND1  HIS C   2      25.168   4.874  43.469  1.00 22.80 LIG-0.24  NA
ENDBRANCH 35 36
ENDBRANCH 1 35
TORSDOF 11
ENDMDL
MODEL 14
USER: ADFR SOLUTION from run 83
USER: SCORE 11.363599 LL:  -2.842 LR:  -9.992 RR:   0.000 FEB:  -6.711
USER: RMSD 7.504037
USER: SEED 82
USER: STATUS no improvement in best in 21 clusters for 5 generations
USER: GENES 13
USER: genes 0 Translation |==|  0.32093 0.54195 0.73011
USER: genes 1 Rotation |==|  0.41635 0.22675 0.29870 0.85751
USER: genes 2 Torsion [CB]-CA--N-[C] |==|  0.16579
USER: genes 3 Torsion [N]-C--CA-[N] |==|  0.21264
USER: genes 4 Torsion [C]-CA--CB-[CG] |==|  0.31392
USER: genes 5 Torsion [CA]-CB--CG-[CD1] |==|  0.52116
USER: genes 6 Torsion [C]-CA--N-[C] |==|  0.79818
USER: genes 7 Torsion [N]-CA--C-[N] |==|  0.52900
USER: genes 8 Torsion [N]-CA--C-[N] |==|  0.93849
USER: genes 9 Torsion [C]-N--CA-[C] |==|  0.73889
USER: genes 10 Torsion [N]-CA--C-[N] |==|  0.42896
USER: genes 11 Torsion [N]-CA--CB-[CG] |==|  0.69877
USER: genes 12 Torsion [CA]-CB--CG-[ND1] |==|  0.85949
ROOT
ATOM      1  CA  HIS C   2      21.036   3.734  47.402  1.00 12.40 LIG 0.18  C 
ENDROOT
BRANCH 1 2
ATOM      2  N   HIS C   2      21.681   2.558  46.798  1.00  9.19 LIG-0.35  N 
ATOM      3 H    HIS C   2      21.760   2.601  45.944  1.00  9.19 LIG 0.16  HD
ATOM      4  C   PHE C   1      22.100   1.524  47.525  1.00 11.27 LIG 0.24  C 
ATOM      5 O    PHE C   1      22.064   1.510  48.763  1.00 15.22 LIG-0.27  OA
BRANCH 4 6
ATOM      6  CA  PHE C   1      22.667   0.334  46.749  1.00  8.70 LIG 0.18  C 
BRANCH 6 7
ATOM      7  CB  PHE C   1      22.654  -0.919  47.626  1.00  9.29 LIG 0.07  C 
BRANCH 7 8
ATOM      8  CG  PHE C   1      21.703  -1.981  47.155  1.00  9.78 LIG-0.06  A 
ATOM      9  CD1 PHE C   1      21.455  -3.115  47.927  1.00  9.46 LIG 0.01  A 
ATOM     10  CE1 PHE C   1      20.575  -4.110  47.484  1.00  9.12 LIG 0.00  A 
ATOM     11  CZ  PHE C   1      19.932  -3.968  46.261  1.00  8.05 LIG 0.00  A 
ATOM     12  CE2 PHE C   1      20.180  -2.839  45.483  1.00  7.93 LIG 0.00  A 
ATOM     13  CD2 PHE C   1      21.058  -1.853  45.935  1.00  6.20 LIG 0.01  A 
ENDBRANCH 7 8
ENDBRANCH 6 7
BRANCH 6 14
ATOM     14  N   PHE C   1      24.017   0.609  46.272  1.00 10.26 LIG-0.35  N 
ATOM     15 H    PHE C   1      24.637   0.185  46.692  1.00 10.26 LIG 0.16  HD
ATOM     16  C   ACE C   0      24.240   1.452  45.269  1.00 10.83 LIG 0.21  C 
ATOM     17  CH3 ACE C   0      25.692   1.668  44.941  1.00 14.43 LIG 0.12  C 
ATOM     18 O    ACE C   0      23.341   1.977  44.617  1.00 14.21 LIG-0.27  OA
ENDBRANCH 6 14
ENDBRANCH 4 6
ENDBRANCH 1 2
BRANCH 1 19
ATOM     19  C   HIS C   2      20.662   4.737  46.313  1.00 15.02 LIG 0.24  C 
ATOM     20  N   PRO C   3      20.255   5.971  46.684  1.00 12.04 LIG-0.34  N 
ATOM     21  CA  PRO C   3      19.971   6.981  45.649  1.00 11.10 LIG 0.18  C 
ATOM     22  CD  PRO C   3      20.035   6.494  48.047  1.00 17.75 LIG 0.13  C 
ATOM     23  CB  PRO C   3      19.652   8.244  46.459  1.00 15.56 LIG 0.04  C 
ATOM     24  CG  PRO C   3      19.233   7.749  47.801  1.00 20.46 LIG 0.02  C 
ATOM     25 O    HIS C   2      20.767   4.407  45.144  1.00  9.69 LIG-0.27  OA
BRANCH 21 26
ATOM     26  C   PRO C   3      21.167   7.227  44.724  1.00 13.73 LIG 0.24  C 
ATOM     27  N   ALA C   4      22.372   6.904  45.194  1.00 10.66 LIG-0.35  N 
ATOM     28 H    ALA C   4      22.492   6.472  45.928  1.00 10.66 LIG 0.16  HD
ATOM     29 O    PRO C   3      20.974   7.676  43.592  1.00 16.34 LIG-0.27  OA
BRANCH 27 30
ATOM     30  CA  ALA C   4      23.614   7.252  44.504  1.00 15.22 LIG 0.18  C 
ATOM     31  CB  ALA C   4      24.681   7.623  45.522  1.00 14.26 LIG 0.04  C 
BRANCH 30 32
ATOM     32  C   ALA C   4      24.163   6.173  43.578  1.00 20.48 LIG 0.28  C 
ATOM     33 O    ALA C   4      23.869   4.993  43.766  1.00 25.68 LIG-0.27  OA
ATOM     34  N   NH2 C   5      24.930   6.577  42.574  1.00 12.85 LIG-0.11  N 
ENDBRANCH 30 32
ENDBRANCH 27 30
ENDBRANCH 21 26
ENDBRANCH 1 19
BRANCH 1 35
ATOM     35  CB  HIS C   2      21.964   4.414  48.409  1.00 13.77 LIG 0.10  C 
BRANCH 35 36
ATOM     36  CG  HIS C   2      21.556   4.238  49.839  1.00 15.95 LIG 0.06  A 
ATOM     37  CD2 HIS C   2      22.265   3.850  50.925  1.00 16.64 LIG 0.14  A 
ATOM     38 NE2  HIS C   2      21.405   3.873  51.999  1.00 23.10 LIG-0.25  NA
ATOM     39  CE1 HIS C   2      20.213   4.268  51.585  1.00 23.56 LIG 0.23  A 
ATOM     40 ND1  HIS C   2      20.278   4.498  50.286  1.00 22.80 LIG-0.24  NA
ENDBRANCH 35 36
ENDBRANCH 1 35
TORSDOF 11
ENDMDL
MODEL 15
USER: ADFR SOLUTION from run 87
USER: SCORE 11.134357 LL:  -3.029 LR:  -9.988 RR:   0.000 FEB:  -6.707
USER: RMSD 6.989023
USER: SEED 86
USER: STATUS no improvement in best in 15 clusters for 5 generations
USER: GENES 13
USER: genes 0 Translation |==|  0.35975 0.58600 0.74187
USER: genes 1 Rotation |==|  0.30631 0.61152 0.65379 0.92000
USER: genes 2 Torsion [CB]-CA--N-[C] |==|  0.35035
USER: genes 3 Torsion [N]-C--CA-[N] |==|  0.35621
USER: genes 4 Torsion [C]-CA--CB-[CG] |==|  0.44262
USER: genes 5 Torsion [CA]-CB--CG-[CD1] |==|  0.90400
USER: genes 6 Torsion [C]-CA--N-[C] |==|  0.85811
USER: genes 7 Torsion [N]-CA--C-[N] |==|  0.24291
USER: genes 8 Torsion [N]-CA--C-[N] |==|  0.91053
USER: genes 9 Torsion [C]-N--CA-[C] |==|  0.79444
USER: genes 10 Torsion [N]-CA--C-[N] |==|  0.90109
USER: genes 11 Torsion [N]-CA--CB-[CG] |==|  0.12261
USER: genes 12 Torsion [CA]-CB--CG-[ND1] |==|  0.73594
ROOT
ATOM      1  CA  HIS C   2      21.793   4.494  47.640  1.00 12.40 LIG 0.18  C 
ENDROOT
BRANCH 1 2
ATOM      2  N   HIS C   2      21.819   3.173  46.994  1.00  9.19 LIG-0.35  N 
ATOM      3 H    HIS C   2      21.096   2.973  46.576  1.00  9.19 LIG 0.16  HD
ATOM      4  C   PHE C   1      22.877   2.368  47.061  1.00 11.27 LIG 0.24  C 
ATOM      5 O    PHE C   1      23.947   2.701  47.588  1.00 15.22 LIG-0.27  OA
BRANCH 4 6
ATOM      6  CA  PHE C   1      22.722   0.988  46.419  1.00  8.70 LIG 0.18  C 
BRANCH 6 7
ATOM      7  CB  PHE C   1      22.654  -0.090  47.502  1.00  9.29 LIG 0.07  C 
BRANCH 7 8
ATOM      8  CG  PHE C   1      22.027  -1.375  47.043  1.00  9.78 LIG-0.06  A 
ATOM      9  CD1 PHE C   1      20.986  -1.374  46.117  1.00  9.46 LIG 0.01  A 
ATOM     10  CE1 PHE C   1      20.395  -2.572  45.696  1.00  9.12 LIG 0.00  A 
ATOM     11  CZ  PHE C   1      20.854  -3.782  46.200  1.00  8.05 LIG 0.00  A 
ATOM     12  CE2 PHE C   1      21.892  -3.789  47.129  1.00  7.93 LIG 0.00  A 
ATOM     13  CD2 PHE C   1      22.474  -2.589  47.541  1.00  6.20 LIG 0.01  A 
ENDBRANCH 7 8
ENDBRANCH 6 7
BRANCH 6 14
ATOM     14  N   PHE C   1      23.814   0.712  45.492  1.00 10.26 LIG-0.35  N 
ATOM     15 H    PHE C   1      24.207  -0.043  45.619  1.00 10.26 LIG 0.16  HD
ATOM     16  C   ACE C   0      24.150   1.575  44.539  1.00 10.83 LIG 0.21  C 
ATOM     17  CH3 ACE C   0      25.334   1.163  43.708  1.00 14.43 LIG 0.12  C 
ATOM     18 O    ACE C   0      23.520   2.604  44.309  1.00 14.21 LIG-0.27  OA
ENDBRANCH 6 14
ENDBRANCH 4 6
ENDBRANCH 1 2
BRANCH 1 19
ATOM     19  C   HIS C   2      20.775   4.496  48.778  1.00 15.02 LIG 0.24  C 
ATOM     20  N   PRO C   3      21.176   4.094  50.004  1.00 12.04 LIG-0.34  N 
ATOM     21  CA  PRO C   3      20.233   4.169  51.135  1.00 11.10 LIG 0.18  C 
ATOM     22  CD  PRO C   3      22.489   3.556  50.410  1.00 17.75 LIG 0.13  C 
ATOM     23  CB  PRO C   3      21.081   3.737  52.338  1.00 15.56 LIG 0.04  C 
ATOM     24  CG  PRO C   3      22.200   2.941  51.758  1.00 20.46 LIG 0.02  C 
ATOM     25 O    HIS C   2      19.642   4.885  48.556  1.00  9.69 LIG-0.27  OA
BRANCH 21 26
ATOM     26  C   PRO C   3      19.684   5.583  51.349  1.00 13.73 LIG 0.24  C 
ATOM     27  N   ALA C   4      20.494   6.599  51.049  1.00 10.66 LIG-0.35  N 
ATOM     28 H    ALA C   4      21.248   6.499  50.648  1.00 10.66 LIG 0.16  HD
ATOM     29 O    PRO C   3      18.528   5.728  51.752  1.00 16.34 LIG-0.27  OA
BRANCH 27 30
ATOM     30  CA  ALA C   4      20.179   7.990  51.375  1.00 15.22 LIG 0.18  C 
ATOM     31  CB  ALA C   4      21.443   8.833  51.306  1.00 14.26 LIG 0.04  C 
BRANCH 30 32
ATOM     32  C   ALA C   4      19.106   8.630  50.503  1.00 20.48 LIG 0.28  C 
ATOM     33 O    ALA C   4      18.331   9.455  50.987  1.00 25.68 LIG-0.27  OA
ATOM     34  N   NH2 C   5      19.080   8.275  49.225  1.00 12.85 LIG-0.11  N 
ENDBRANCH 30 32
ENDBRANCH 27 30
ENDBRANCH 21 26
ENDBRANCH 1 19
BRANCH 1 35
ATOM     35  CB  HIS C   2      21.425   5.589  46.638  1.00 13.77 LIG 0.10  C 
BRANCH 35 36
ATOM     36  CG  HIS C   2      20.285   5.238  45.733  1.00 15.95 LIG 0.06  A 
ATOM     37  CD2 HIS C   2      18.947   5.366  45.897  1.00 16.64 LIG 0.14  A 
ATOM     38 NE2  HIS C   2      18.352   4.902  44.746  1.00 23.10 LIG-0.25  NA
ATOM     39  CE1 HIS C   2      19.294   4.510  43.905  1.00 23.56 LIG 0.23  A 
ATOM     40 ND1  HIS C   2      20.469   4.706  44.474  1.00 22.80 LIG-0.24  NA
ENDBRANCH 35 36
ENDBRANCH 1 35
TORSDOF 11
ENDMDL
MODEL 16
USER: ADFR SOLUTION from run 134
USER: SCORE 12.262640 LL:  -3.403 LR:  -9.981 RR:   0.000 FEB:  -6.700
USER: RMSD 6.165353
USER: SEED 133
USER: STATUS no improvement in best in 23 clusters for 5 generations
USER: GENES 13
USER: genes 0 Translation |==|  0.38135 0.53729 0.74066
USER: genes 1 Rotation |==|  0.29955 0.42914 0.40922 0.94335
USER: genes 2 Torsion [CB]-CA--N-[C] |==|  0.18939
USER: genes 3 Torsion [N]-C--CA-[N] |==|  0.34055
USER: genes 4 Torsion [C]-CA--CB-[CG] |==|  0.40010
USER: genes 5 Torsion [CA]-CB--CG-[CD1] |==|  0.49376
USER: genes 6 Torsion [C]-CA--N-[C] |==|  0.83118
USER: genes 7 Torsion [N]-CA--C-[N] |==|  0.42816
USER: genes 8 Torsion [N]-CA--C-[N] |==|  0.86666
USER: genes 9 Torsion [C]-N--CA-[C] |==|  0.81636
USER: genes 10 Torsion [N]-CA--C-[N] |==|  0.96099
USER: genes 11 Torsion [N]-CA--CB-[CG] |==|  0.10369
USER: genes 12 Torsion [CA]-CB--CG-[ND1] |==|  0.62146
ROOT
ATOM      1  CA  HIS C   2      22.214   3.653  47.615  1.00 12.40 LIG 0.18  C 
ENDROOT
BRANCH 1 2
ATOM      2  N   HIS C   2      22.172   2.354  46.928  1.00  9.19 LIG-0.35  N 
ATOM      3 H    HIS C   2      21.518   2.270  46.376  1.00  9.19 LIG 0.16  HD
ATOM      4  C   PHE C   1      23.074   1.401  47.151  1.00 11.27 LIG 0.24  C 
ATOM      5 O    PHE C   1      24.063   1.563  47.878  1.00 15.22 LIG-0.27  OA
BRANCH 4 6
ATOM      6  CA  PHE C   1      22.846   0.070  46.431  1.00  8.70 LIG 0.18  C 
BRANCH 6 7
ATOM      7  CB  PHE C   1      22.561  -1.035  47.449  1.00  9.29 LIG 0.07  C 
BRANCH 7 8
ATOM      8  CG  PHE C   1      21.559  -2.051  46.981  1.00  9.78 LIG-0.06  A 
ATOM      9  CD1 PHE C   1      21.225  -3.147  47.774  1.00  9.46 LIG 0.01  A 
ATOM     10  CE1 PHE C   1      20.297  -4.099  47.333  1.00  9.12 LIG 0.00  A 
ATOM     11  CZ  PHE C   1      19.694  -3.951  46.091  1.00  8.05 LIG 0.00  A 
ATOM     12  CE2 PHE C   1      20.028  -2.859  45.292  1.00  7.93 LIG 0.00  A 
ATOM     13  CD2 PHE C   1      20.953  -1.915  45.742  1.00  6.20 LIG 0.01  A 
ENDBRANCH 7 8
ENDBRANCH 6 7
BRANCH 6 14
ATOM     14  N   PHE C   1      23.992  -0.284  45.601  1.00 10.26 LIG-0.35  N 
ATOM     15 H    PHE C   1      24.374  -1.024  45.817  1.00 10.26 LIG 0.16  HD
ATOM     16  C   ACE C   0      24.389   0.494  44.600  1.00 10.83 LIG 0.21  C 
ATOM     17  CH3 ACE C   0      25.621   0.014  43.882  1.00 14.43 LIG 0.12  C 
ATOM     18 O    ACE C   0      23.778   1.499  44.242  1.00 14.21 LIG-0.27  OA
ENDBRANCH 6 14
ENDBRANCH 4 6
ENDBRANCH 1 2
BRANCH 1 19
ATOM     19  C   HIS C   2      20.938   4.439  47.321  1.00 15.02 LIG 0.24  C 
ATOM     20  N   PRO C   3      20.528   5.363  48.218  1.00 12.04 LIG-0.34  N 
ATOM     21  CA  PRO C   3      19.347   6.192  47.914  1.00 11.10 LIG 0.18  C 
ATOM     22  CD  PRO C   3      21.113   5.690  49.533  1.00 17.75 LIG 0.13  C 
ATOM     23  CB  PRO C   3      19.278   7.165  49.098  1.00 15.56 LIG 0.04  C 
ATOM     24  CG  PRO C   3      20.019   6.488  50.200  1.00 20.46 LIG 0.02  C 
ATOM     25 O    HIS C   2      20.343   4.230  46.278  1.00  9.69 LIG-0.27  OA
BRANCH 21 26
ATOM     26  C   PRO C   3      19.493   6.963  46.597  1.00 13.73 LIG 0.24  C 
ATOM     27  N   ALA C   4      20.634   7.626  46.408  1.00 10.66 LIG-0.35  N 
ATOM     28 H    ALA C   4      21.315   7.551  46.927  1.00 10.66 LIG 0.16  HD
ATOM     29 O    PRO C   3      18.583   6.918  45.766  1.00 16.34 LIG-0.27  OA
BRANCH 27 30
ATOM     30  CA  ALA C   4      20.840   8.551  45.292  1.00 15.22 LIG 0.18  C 
ATOM     31  CB  ALA C   4      22.140   9.314  45.491  1.00 14.26 LIG 0.04  C 
BRANCH 30 32
ATOM     32  C   ALA C   4      20.847   7.906  43.912  1.00 20.48 LIG 0.28  C 
ATOM     33 O    ALA C   4      20.778   8.609  42.904  1.00 25.68 LIG-0.27  OA
ATOM     34  N   NH2 C   5      20.957   6.585  43.867  1.00 12.85 LIG-0.11  N 
ENDBRANCH 30 32
ENDBRANCH 27 30
ENDBRANCH 21 26
ENDBRANCH 1 19
BRANCH 1 35
ATOM     35  CB  HIS C   2      23.422   4.476  47.164  1.00 13.77 LIG 0.10  C 
BRANCH 35 36
ATOM     36  CG  HIS C   2      23.751   4.340  45.710  1.00 15.95 LIG 0.06  A 
ATOM     37  CD2 HIS C   2      22.959   4.360  44.612  1.00 16.64 LIG 0.14  A 
ATOM     38 NE2  HIS C   2      23.779   4.207  43.518  1.00 23.10 LIG-0.25  NA
ATOM     39  CE1 HIS C   2      25.030   4.102  43.932  1.00 23.56 LIG 0.23  A 
ATOM     40 ND1  HIS C   2      25.042   4.183  45.250  1.00 22.80 LIG-0.24  NA
ENDBRANCH 35 36
ENDBRANCH 1 35
TORSDOF 11
ENDMDL
MODEL 17
USER: ADFR SOLUTION from run 1
USER: SCORE 12.631444 LL:  -3.188 LR:  -9.981 RR:   0.000 FEB:  -6.700
USER: RMSD 7.614275
USER: SEED 241559
USER: STATUS no improvement in best in 10 clusters for 5 generations
USER: GENES 13
USER: genes 0 Translation |==|  0.41867 0.38217 0.78053
USER: genes 1 Rotation |==|  0.21110 0.51925 0.39094 0.89277
USER: genes 2 Torsion [CB]-CA--N-[C] |==|  0.87222
USER: genes 3 Torsion [N]-C--CA-[N] |==|  0.51089
USER: genes 4 Torsion [C]-CA--CB-[CG] |==|  0.34643
USER: genes 5 Torsion [CA]-CB--CG-[CD1] |==|  0.14887
USER: genes 6 Torsion [C]-CA--N-[C] |==|  0.62922
USER: genes 7 Torsion [N]-CA--C-[N] |==|  0.36617
USER: genes 8 Torsion [N]-CA--C-[N] |==|  0.29419
USER: genes 9 Torsion [C]-N--CA-[C] |==|  0.84302
USER: genes 10 Torsion [N]-CA--C-[N] |==|  0.40132
USER: genes 11 Torsion [N]-CA--CB-[CG] |==|  0.31336
USER: genes 12 Torsion [CA]-CB--CG-[ND1] |==|  0.25195
ROOT
ATOM      1  CA  HIS C   2      22.942   0.977  48.423  1.00 12.40 LIG 0.18  C 
ENDROOT
BRANCH 1 2
ATOM      2  N   HIS C   2      22.353  -0.362  48.280  1.00  9.19 LIG-0.35  N 
ATOM      3 H    HIS C   2      22.245  -0.779  49.023  1.00  9.19 LIG 0.16  HD
ATOM      4  C   PHE C   1      22.022  -0.872  47.096  1.00 11.27 LIG 0.24  C 
ATOM      5 O    PHE C   1      22.096  -0.230  46.039  1.00 15.22 LIG-0.27  OA
BRANCH 4 6
ATOM      6  CA  PHE C   1      21.505  -2.312  47.097  1.00  8.70 LIG 0.18  C 
BRANCH 6 7
ATOM      7  CB  PHE C   1      22.500  -3.225  47.815  1.00  9.29 LIG 0.07  C 
BRANCH 7 8
ATOM      8  CG  PHE C   1      21.899  -4.011  48.945  1.00  9.78 LIG-0.06  A 
ATOM      9  CD1 PHE C   1      20.768  -4.800  48.747  1.00  9.46 LIG 0.01  A 
ATOM     10  CE1 PHE C   1      20.201  -5.525  49.803  1.00  9.12 LIG 0.00  A 
ATOM     11  CZ  PHE C   1      20.775  -5.466  51.066  1.00  8.05 LIG 0.00  A 
ATOM     12  CE2 PHE C   1      21.903  -4.674  51.271  1.00  7.93 LIG 0.00  A 
ATOM     13  CD2 PHE C   1      22.460  -3.957  50.211  1.00  6.20 LIG 0.01  A 
ENDBRANCH 7 8
ENDBRANCH 6 7
BRANCH 6 14
ATOM     14  N   PHE C   1      21.264  -2.787  45.740  1.00 10.26 LIG-0.35  N 
ATOM     15 H    PHE C   1      21.899  -2.619  45.184  1.00 10.26 LIG 0.16  HD
ATOM     16  C   ACE C   0      20.144  -3.425  45.417  1.00 10.83 LIG 0.21  C 
ATOM     17  CH3 ACE C   0      20.028  -3.795  43.964  1.00 14.43 LIG 0.12  C 
ATOM     18 O    ACE C   0      19.287  -3.742  46.239  1.00 14.21 LIG-0.27  OA
ENDBRANCH 6 14
ENDBRANCH 4 6
ENDBRANCH 1 2
BRANCH 1 19
ATOM     19  C   HIS C   2      21.867   2.042  48.220  1.00 15.02 LIG 0.24  C 
ATOM     20  N   PRO C   3      21.774   3.045  49.121  1.00 12.04 LIG-0.34  N 
ATOM     21  CA  PRO C   3      20.800   4.130  48.899  1.00 11.10 LIG 0.18  C 
ATOM     22  CD  PRO C   3      22.540   3.233  50.369  1.00 17.75 LIG 0.13  C 
ATOM     23  CB  PRO C   3      21.074   5.100  50.055  1.00 15.56 LIG 0.04  C 
ATOM     24  CG  PRO C   3      21.733   4.274  51.107  1.00 20.46 LIG 0.02  C 
ATOM     25 O    HIS C   2      21.145   1.974  47.241  1.00  9.69 LIG-0.27  OA
BRANCH 21 26
ATOM     26  C   PRO C   3      21.000   4.833  47.553  1.00 13.73 LIG 0.24  C 
ATOM     27  N   ALA C   4      20.114   4.565  46.593  1.00 10.66 LIG-0.35  N 
ATOM     28 H    ALA C   4      19.394   4.115  46.727  1.00 10.66 LIG 0.16  HD
ATOM     29 O    PRO C   3      21.933   5.627  47.418  1.00 16.34 LIG-0.27  OA
BRANCH 27 30
ATOM     30  CA  ALA C   4      20.280   5.013  45.210  1.00 15.22 LIG 0.18  C 
ATOM     31  CB  ALA C   4      19.101   4.545  44.372  1.00 14.26 LIG 0.04  C 
BRANCH 30 32
ATOM     32  C   ALA C   4      20.450   6.516  45.033  1.00 20.48 LIG 0.28  C 
ATOM     33 O    ALA C   4      19.861   7.294  45.783  1.00 25.68 LIG-0.27  OA
ATOM     34  N   NH2 C   5      21.270   6.919  44.070  1.00 12.85 LIG-0.11  N 
ENDBRANCH 30 32
ENDBRANCH 27 30
ENDBRANCH 21 26
ENDBRANCH 1 19
BRANCH 1 35
ATOM     35  CB  HIS C   2      24.062   1.198  47.404  1.00 13.77 LIG 0.10  C 
BRANCH 35 36
ATOM     36  CG  HIS C   2      23.753   2.229  46.364  1.00 15.95 LIG 0.06  A 
ATOM     37  CD2 HIS C   2      23.136   2.126  45.164  1.00 16.64 LIG 0.14  A 
ATOM     38 NE2  HIS C   2      23.100   3.389  44.617  1.00 23.10 LIG-0.25  NA
ATOM     39  CE1 HIS C   2      23.670   4.235  45.457  1.00 23.56 LIG 0.23  A 
ATOM     40 ND1  HIS C   2      24.070   3.563  46.521  1.00 22.80 LIG-0.24  NA
ENDBRANCH 35 36
ENDBRANCH 1 35
TORSDOF 11
ENDMDL
MODEL 18
USER: ADFR SOLUTION from run 34
USER: SCORE 11.444883 LL:  -3.081 LR:  -9.977 RR:   0.000 FEB:  -6.696
USER: RMSD 9.005192
USER: SEED 33
USER: STATUS no improvement in best in 17 clusters for 5 generations
USER: GENES 13
USER: genes 0 Translation |==|  0.74315 0.45809 0.25763
USER: genes 1 Rotation |==|  0.18265 0.59162 0.32944 0.83437
USER: genes 2 Torsion [CB]-CA--N-[C] |==|  0.18889
USER: genes 3 Torsion [N]-C--CA-[N] |==|  0.56022
USER: genes 4 Torsion [C]-CA--CB-[CG] |==|  0.38421
USER: genes 5 Torsion [CA]-CB--CG-[CD1] |==|  0.93012
USER: genes 6 Torsion [C]-CA--N-[C] |==|  0.59158
USER: genes 7 Torsion [N]-CA--C-[N] |==|  0.21450
USER: genes 8 Torsion [N]-CA--C-[N] |==|  0.29460
USER: genes 9 Torsion [C]-N--CA-[C] |==|  0.56520
USER: genes 10 Torsion [N]-CA--C-[N] |==|  0.48328
USER: genes 11 Torsion [N]-CA--CB-[CG] |==|  0.49768
USER: genes 12 Torsion [CA]-CB--CG-[ND1] |==|  0.55149
ROOT
ATOM      1  CA  HIS C   2      29.270   2.287  37.834  1.00 12.40 LIG 0.18  C 
ENDROOT
BRANCH 1 2
ATOM      2  N   HIS C   2      28.194   1.297  37.997  1.00  9.19 LIG-0.35  N 
ATOM      3 H    HIS C   2      27.415   1.587  37.781  1.00  9.19 LIG 0.16  HD
ATOM      4  C   PHE C   1      28.424   0.064  38.442  1.00 11.27 LIG 0.24  C 
ATOM      5 O    PHE C   1      29.560  -0.374  38.664  1.00 15.22 LIG-0.27  OA
BRANCH 4 6
ATOM      6  CA  PHE C   1      27.194  -0.824  38.646  1.00  8.70 LIG 0.18  C 
BRANCH 6 7
ATOM      7  CB  PHE C   1      26.018   0.017  39.145  1.00  9.29 LIG 0.07  C 
BRANCH 7 8
ATOM      8  CG  PHE C   1      24.705  -0.332  38.504  1.00  9.78 LIG-0.06  A 
ATOM      9  CD1 PHE C   1      24.657  -0.921  37.242  1.00  9.46 LIG 0.01  A 
ATOM     10  CE1 PHE C   1      23.433  -1.239  36.640  1.00  9.12 LIG 0.00  A 
ATOM     11  CZ  PHE C   1      22.246  -0.971  37.309  1.00  8.05 LIG 0.00  A 
ATOM     12  CE2 PHE C   1      22.287  -0.378  38.569  1.00  7.93 LIG 0.00  A 
ATOM     13  CD2 PHE C   1      23.514  -0.067  39.160  1.00  6.20 LIG 0.01  A 
ENDBRANCH 7 8
ENDBRANCH 6 7
BRANCH 6 14
ATOM     14  N   PHE C   1      27.476  -1.910  39.577  1.00 10.26 LIG-0.35  N 
ATOM     15 H    PHE C   1      28.036  -1.710  40.199  1.00 10.26 LIG 0.16  HD
ATOM     16  C   ACE C   0      26.898  -3.099  39.451  1.00 10.83 LIG 0.21  C 
ATOM     17  CH3 ACE C   0      27.342  -4.124  40.458  1.00 14.43 LIG 0.12  C 
ATOM     18 O    ACE C   0      26.028  -3.341  38.617  1.00 14.21 LIG-0.27  OA
ENDBRANCH 6 14
ENDBRANCH 4 6
ENDBRANCH 1 2
BRANCH 1 19
ATOM     19  C   HIS C   2      28.671   3.657  37.520  1.00 15.02 LIG 0.24  C 
ATOM     20  N   PRO C   3      28.129   4.371  38.531  1.00 12.04 LIG-0.34  N 
ATOM     21  CA  PRO C   3      27.624   5.731  38.267  1.00 11.10 LIG 0.18  C 
ATOM     22  CD  PRO C   3      27.952   3.977  39.943  1.00 17.75 LIG 0.13  C 
ATOM     23  CB  PRO C   3      27.201   6.232  39.654  1.00 15.56 LIG 0.04  C 
ATOM     24  CG  PRO C   3      26.966   4.998  40.458  1.00 20.46 LIG 0.02  C 
ATOM     25 O    HIS C   2      28.725   4.077  36.378  1.00  9.69 LIG-0.27  OA
BRANCH 21 26
ATOM     26  C   PRO C   3      28.694   6.650  37.670  1.00 13.73 LIG 0.24  C 
ATOM     27  N   ALA C   4      28.588   6.940  36.373  1.00 10.66 LIG-0.35  N 
ATOM     28 H    ALA C   4      27.904   6.729  35.897  1.00 10.66 LIG 0.16  HD
ATOM     29 O    PRO C   3      29.577   7.105  38.401  1.00 16.34 LIG-0.27  OA
BRANCH 27 30
ATOM     30  CA  ALA C   4      29.631   7.647  35.628  1.00 15.22 LIG 0.18  C 
ATOM     31  CB  ALA C   4      30.739   6.677  35.249  1.00 14.26 LIG 0.04  C 
BRANCH 30 32
ATOM     32  C   ALA C   4      29.153   8.370  34.376  1.00 20.48 LIG 0.28  C 
ATOM     33 O    ALA C   4      27.983   8.260  34.011  1.00 25.68 LIG-0.27  OA
ATOM     34  N   NH2 C   5      30.042   9.124  33.742  1.00 12.85 LIG-0.11  N 
ENDBRANCH 30 32
ENDBRANCH 27 30
ENDBRANCH 21 26
ENDBRANCH 1 19
BRANCH 1 35
ATOM     35  CB  HIS C   2      30.220   1.887  36.704  1.00 13.77 LIG 0.10  C 
BRANCH 35 36
ATOM     36  CG  HIS C   2      31.333   2.857  36.463  1.00 15.95 LIG 0.06  A 
ATOM     37  CD2 HIS C   2      31.862   3.820  37.255  1.00 16.64 LIG 0.14  A 
ATOM     38 NE2  HIS C   2      32.881   4.413  36.545  1.00 23.10 LIG-0.25  NA
ATOM     39  CE1 HIS C   2      32.977   3.829  35.364  1.00 23.56 LIG 0.23  A 
ATOM     40 ND1  HIS C   2      32.057   2.884  35.289  1.00 22.80 LIG-0.24  NA
ENDBRANCH 35 36
ENDBRANCH 1 35
TORSDOF 11
ENDMDL
MODEL 19
USER: ADFR SOLUTION from run 172
USER: SCORE 12.145432 LL:  -2.889 LR:  -9.901 RR:   0.000 FEB:  -6.619
USER: RMSD 2.982531
USER: SEED 171
USER: STATUS no improvement in best in 15 clusters for 5 generations
USER: GENES 13
USER: genes 0 Translation |==|  0.55624 0.32849 0.57379
USER: genes 1 Rotation |==|  0.46248 0.49995 0.41161 0.99069
USER: genes 2 Torsion [CB]-CA--N-[C] |==|  0.85556
USER: genes 3 Torsion [N]-C--CA-[N] |==|  0.98968
USER: genes 4 Torsion [C]-CA--CB-[CG] |==|  0.49869
USER: genes 5 Torsion [CA]-CB--CG-[CD1] |==|  0.92331
USER: genes 6 Torsion [C]-CA--N-[C] |==|  0.68953
USER: genes 7 Torsion [N]-CA--C-[N] |==|  0.37298
USER: genes 8 Torsion [N]-CA--C-[N] |==|  0.28288
USER: genes 9 Torsion [C]-N--CA-[C] |==|  0.60214
USER: genes 10 Torsion [N]-CA--C-[N] |==|  0.06304
USER: genes 11 Torsion [N]-CA--CB-[CG] |==|  0.89575
USER: genes 12 Torsion [CA]-CB--CG-[ND1] |==|  0.90636
ROOT
ATOM      1  CA  HIS C   2      25.625   0.051  44.236  1.00 12.40 LIG 0.18  C 
ENDROOT
BRANCH 1 2
ATOM      2  N   HIS C   2      25.424  -0.479  42.879  1.00  9.19 LIG-0.35  N 
ATOM      3 H    HIS C   2      25.411  -1.337  42.837  1.00  9.19 LIG 0.16  HD
ATOM      4  C   PHE C   1      25.279   0.313  41.820  1.00 11.27 LIG 0.24  C 
ATOM      5 O    PHE C   1      25.208   1.546  41.902  1.00 15.22 LIG-0.27  OA
BRANCH 4 6
ATOM      6  CA  PHE C   1      25.171  -0.384  40.461  1.00  8.70 LIG 0.18  C 
BRANCH 6 7
ATOM      7  CB  PHE C   1      23.826  -0.059  39.811  1.00  9.29 LIG 0.07  C 
BRANCH 7 8
ATOM      8  CG  PHE C   1      23.633  -0.693  38.463  1.00  9.78 LIG-0.06  A 
ATOM      9  CD1 PHE C   1      24.724  -0.993  37.649  1.00  9.46 LIG 0.01  A 
ATOM     10  CE1 PHE C   1      24.544  -1.575  36.388  1.00  9.12 LIG 0.00  A 
ATOM     11  CZ  PHE C   1      23.263  -1.865  35.939  1.00  8.05 LIG 0.00  A 
ATOM     12  CE2 PHE C   1      22.168  -1.562  36.745  1.00  7.93 LIG 0.00  A 
ATOM     13  CD2 PHE C   1      22.359  -0.983  38.002  1.00  6.20 LIG 0.01  A 
ENDBRANCH 7 8
ENDBRANCH 6 7
BRANCH 6 14
ATOM     14  N   PHE C   1      25.341  -1.826  40.593  1.00 10.26 LIG-0.35  N 
ATOM     15 H    PHE C   1      24.700  -2.224  41.007  1.00 10.26 LIG 0.16  HD
ATOM     16  C   ACE C   0      26.408  -2.446  40.102  1.00 10.83 LIG 0.21  C 
ATOM     17  CH3 ACE C   0      26.456  -3.925  40.375  1.00 14.43 LIG 0.12  C 
ATOM     18 O    ACE C   0      27.268  -1.880  39.431  1.00 14.21 LIG-0.27  OA
ENDBRANCH 6 14
ENDBRANCH 4 6
ENDBRANCH 1 2
BRANCH 1 19
ATOM     19  C   HIS C   2      24.348   0.735  44.721  1.00 15.02 LIG 0.24  C 
ATOM     20  N   PRO C   3      23.909   0.471  45.971  1.00 12.04 LIG-0.34  N 
ATOM     21  CA  PRO C   3      22.728   1.185  46.489  1.00 11.10 LIG 0.18  C 
ATOM     22  CD  PRO C   3      24.461  -0.479  46.957  1.00 17.75 LIG 0.13  C 
ATOM     23  CB  PRO C   3      22.622   0.697  47.940  1.00 15.56 LIG 0.04  C 
ATOM     24  CG  PRO C   3      23.344  -0.606  47.965  1.00 20.46 LIG 0.02  C 
ATOM     25 O    HIS C   2      23.779   1.518  43.980  1.00  9.69 LIG-0.27  OA
BRANCH 21 26
ATOM     26  C   PRO C   3      22.896   2.708  46.448  1.00 13.73 LIG 0.24  C 
ATOM     27  N   ALA C   4      22.284   3.357  45.458  1.00 10.66 LIG-0.35  N 
ATOM     28 H    ALA C   4      21.725   2.983  44.922  1.00 10.66 LIG 0.16  HD
ATOM     29 O    PRO C   3      23.550   3.268  47.330  1.00 16.34 LIG-0.27  OA
BRANCH 27 30
ATOM     30  CA  ALA C   4      22.504   4.778  45.183  1.00 15.22 LIG 0.18  C 
ATOM     31  CB  ALA C   4      23.600   4.936  44.141  1.00 14.26 LIG 0.04  C 
BRANCH 30 32
ATOM     32  C   ALA C   4      21.270   5.547  44.729  1.00 20.48 LIG 0.28  C 
ATOM     33 O    ALA C   4      21.396   6.576  44.066  1.00 25.68 LIG-0.27  OA
ATOM     34  N   NH2 C   5      20.090   5.037  45.059  1.00 12.85 LIG-0.11  N 
ENDBRANCH 30 32
ENDBRANCH 27 30
ENDBRANCH 21 26
ENDBRANCH 1 19
BRANCH 1 35
ATOM     35  CB  HIS C   2      26.774   1.060  44.269  1.00 13.77 LIG 0.10  C 
BRANCH 35 36
ATOM     36  CG  HIS C   2      27.928   0.707  43.383  1.00 15.95 LIG 0.06  A 
ATOM     37  CD2 HIS C   2      28.794   1.489  42.696  1.00 16.64 LIG 0.14  A 
ATOM     38 NE2  HIS C   2      29.674   0.649  42.053  1.00 23.10 LIG-0.25  NA
ATOM     39  CE1 HIS C   2      29.361  -0.602  42.341  1.00 23.56 LIG 0.23  A 
ATOM     40 ND1  HIS C   2      28.314  -0.596  43.145  1.00 22.80 LIG-0.24  NA
ENDBRANCH 35 36
ENDBRANCH 1 35
TORSDOF 11
ENDMDL
MODEL 20
USER: ADFR SOLUTION from run 199
USER: SCORE 11.695267 LL:  -2.761 LR:  -9.889 RR:   0.000 FEB:  -6.608
USER: RMSD 5.822309
USER: SEED 198
USER: STATUS no improvement in best in 12 clusters for 5 generations
USER: GENES 13
USER: genes 0 Translation |==|  0.51642 0.37757 0.52412
USER: genes 1 Rotation |==|  0.61719 0.29961 0.13131 0.74531
USER: genes 2 Torsion [CB]-CA--N-[C] |==|  0.22152
USER: genes 3 Torsion [N]-C--CA-[N] |==|  0.43020
USER: genes 4 Torsion [C]-CA--CB-[CG] |==|  0.80513
USER: genes 5 Torsion [CA]-CB--CG-[CD1] |==|  0.72381
USER: genes 6 Torsion [C]-CA--N-[C] |==|  0.82221
USER: genes 7 Torsion [N]-CA--C-[N] |==|  0.84201
USER: genes 8 Torsion [N]-CA--C-[N] |==|  0.74285
USER: genes 9 Torsion [C]-N--CA-[C] |==|  0.68333
USER: genes 10 Torsion [N]-CA--C-[N] |==|  0.98151
USER: genes 11 Torsion [N]-CA--CB-[CG] |==|  0.54512
USER: genes 12 Torsion [CA]-CB--CG-[ND1] |==|  0.88956
ROOT
ATOM      1  CA  HIS C   2      24.848   0.898  43.230  1.00 12.40 LIG 0.18  C 
ENDROOT
BRANCH 1 2
ATOM      2  N   HIS C   2      25.724   0.491  42.121  1.00  9.19 LIG-0.35  N 
ATOM      3 H    HIS C   2      26.409   0.999  42.011  1.00  9.19 LIG 0.16  HD
ATOM      4  C   PHE C   1      25.466  -0.572  41.364  1.00 11.27 LIG 0.24  C 
ATOM      5 O    PHE C   1      24.528  -1.349  41.586  1.00 15.22 LIG-0.27  OA
BRANCH 4 6
ATOM      6  CA  PHE C   1      26.418  -0.816  40.190  1.00  8.70 LIG 0.18  C 
BRANCH 6 7
ATOM      7  CB  PHE C   1      26.016   0.055  38.999  1.00  9.29 LIG 0.07  C 
BRANCH 7 8
ATOM      8  CG  PHE C   1      24.732  -0.365  38.344  1.00  9.78 LIG-0.06  A 
ATOM      9  CD1 PHE C   1      24.737  -1.131  37.180  1.00  9.46 LIG 0.01  A 
ATOM     10  CE1 PHE C   1      23.540  -1.515  36.563  1.00  9.12 LIG 0.00  A 
ATOM     11  CZ  PHE C   1      22.325  -1.135  37.120  1.00  8.05 LIG 0.00  A 
ATOM     12  CE2 PHE C   1      22.313  -0.366  38.281  1.00  7.93 LIG 0.00  A 
ATOM     13  CD2 PHE C   1      23.513   0.010  38.888  1.00  6.20 LIG 0.01  A 
ENDBRANCH 7 8
ENDBRANCH 6 7
BRANCH 6 14
ATOM     14  N   PHE C   1      26.437  -2.224  39.811  1.00 10.26 LIG-0.35  N 
ATOM     15 H    PHE C   1      26.142  -2.383  39.018  1.00 10.26 LIG 0.16  HD
ATOM     16  C   ACE C   0      26.880  -3.161  40.642  1.00 10.83 LIG 0.21  C 
ATOM     17  CH3 ACE C   0      26.777  -4.566  40.117  1.00 14.43 LIG 0.12  C 
ATOM     18 O    ACE C   0      27.388  -2.909  41.733  1.00 14.21 LIG-0.27  OA
ENDBRANCH 6 14
ENDBRANCH 4 6
ENDBRANCH 1 2
BRANCH 1 19
ATOM     19  C   HIS C   2      25.089   2.367  43.571  1.00 15.02 LIG 0.24  C 
ATOM     20  N   PRO C   3      26.341   2.756  43.899  1.00 12.04 LIG-0.34  N 
ATOM     21  CA  PRO C   3      26.613   4.184  44.148  1.00 11.10 LIG 0.18  C 
ATOM     22  CD  PRO C   3      27.550   1.924  44.059  1.00 17.75 LIG 0.13  C 
ATOM     23  CB  PRO C   3      28.129   4.225  44.377  1.00 15.56 LIG 0.04  C 
ATOM     24  CG  PRO C   3      28.497   2.842  44.794  1.00 20.46 LIG 0.02  C 
ATOM     25 O    HIS C   2      24.156   3.148  43.510  1.00  9.69 LIG-0.27  OA
BRANCH 21 26
ATOM     26  C   PRO C   3      26.227   5.072  42.960  1.00 13.73 LIG 0.24  C 
ATOM     27  N   ALA C   4      27.182   5.336  42.068  1.00 10.66 LIG-0.35  N 
ATOM     28 H    ALA C   4      27.951   4.951  42.071  1.00 10.66 LIG 0.16  HD
ATOM     29 O    PRO C   3      25.067   5.475  42.858  1.00 16.34 LIG-0.27  OA
BRANCH 27 30
ATOM     30  CA  ALA C   4      27.015   6.312  40.991  1.00 15.22 LIG 0.18  C 
ATOM     31  CB  ALA C   4      28.101   7.372  41.084  1.00 14.26 LIG 0.04  C 
BRANCH 30 32
ATOM     32  C   ALA C   4      27.010   5.728  39.584  1.00 20.48 LIG 0.28  C 
ATOM     33 O    ALA C   4      26.778   6.452  38.617  1.00 25.68 LIG-0.27  OA
ATOM     34  N   NH2 C   5      27.290   4.436  39.470  1.00 12.85 LIG-0.11  N 
ENDBRANCH 30 32
ENDBRANCH 27 30
ENDBRANCH 21 26
ENDBRANCH 1 19
BRANCH 1 35
ATOM     35  CB  HIS C   2      25.106   0.048  44.475  1.00 13.77 LIG 0.10  C 
BRANCH 35 36
ATOM     36  CG  HIS C   2      24.025   0.124  45.508  1.00 15.95 LIG 0.06  A 
ATOM     37  CD2 HIS C   2      23.495  -0.826  46.314  1.00 16.64 LIG 0.14  A 
ATOM     38 NE2  HIS C   2      22.537  -0.212  47.087  1.00 23.10 LIG-0.25  NA
ATOM     39  CE1 HIS C   2      22.487   1.070  46.770  1.00 23.56 LIG 0.23  A 
ATOM     40 ND1  HIS C   2      23.377   1.301  45.822  1.00 22.80 LIG-0.24  NA
ENDBRANCH 35 36
ENDBRANCH 1 35
TORSDOF 11
ENDMDL
MODEL 21
USER: ADFR SOLUTION from run 51
USER: SCORE 11.262370 LL:  -2.638 LR:  -9.842 RR:   0.000 FEB:  -6.561
USER: RMSD 8.211270
USER: SEED 50
USER: STATUS no improvement in best in 34 clusters for 5 generations
USER: GENES 13
USER: genes 0 Translation |==|  0.35226 0.49741 0.75887
USER: genes 1 Rotation |==|  0.39680 0.11230 0.34486 0.75490
USER: genes 2 Torsion [CB]-CA--N-[C] |==|  0.51994
USER: genes 3 Torsion [N]-C--CA-[N] |==|  0.18805
USER: genes 4 Torsion [C]-CA--CB-[CG] |==|  0.78038
USER: genes 5 Torsion [CA]-CB--CG-[CD1] |==|  0.29207
USER: genes 6 Torsion [C]-CA--N-[C] |==|  0.59096
USER: genes 7 Torsion [N]-CA--C-[N] |==|  0.45000
USER: genes 8 Torsion [N]-CA--C-[N] |==|  0.31763
USER: genes 9 Torsion [C]-N--CA-[C] |==|  0.74648
USER: genes 10 Torsion [N]-CA--C-[N] |==|  0.19563
USER: genes 11 Torsion [N]-CA--CB-[CG] |==|  0.68837
USER: genes 12 Torsion [CA]-CB--CG-[ND1] |==|  0.23812
ROOT
ATOM      1  CA  HIS C   2      21.647   2.965  47.984  1.00 12.40 LIG 0.18  C 
ENDROOT
BRANCH 1 2
ATOM      2  N   HIS C   2      22.377   1.719  48.260  1.00  9.19 LIG-0.35  N 
ATOM      3 H    HIS C   2      22.858   1.744  48.972  1.00  9.19 LIG 0.16  HD
ATOM      4  C   PHE C   1      22.292   0.654  47.466  1.00 11.27 LIG 0.24  C 
ATOM      5 O    PHE C   1      21.528   0.595  46.493  1.00 15.22 LIG-0.27  OA
BRANCH 4 6
ATOM      6  CA  PHE C   1      23.181  -0.537  47.831  1.00  8.70 LIG 0.18  C 
BRANCH 6 7
ATOM      7  CB  PHE C   1      23.170  -1.566  46.700  1.00  9.29 LIG 0.07  C 
BRANCH 7 8
ATOM      8  CG  PHE C   1      21.947  -2.438  46.682  1.00  9.78 LIG-0.06  A 
ATOM      9  CD1 PHE C   1      20.941  -2.243  45.737  1.00  9.46 LIG 0.01  A 
ATOM     10  CE1 PHE C   1      19.796  -3.050  45.726  1.00  9.12 LIG 0.00  A 
ATOM     11  CZ  PHE C   1      19.658  -4.064  46.664  1.00  8.05 LIG 0.00  A 
ATOM     12  CE2 PHE C   1      20.658  -4.260  47.615  1.00  7.93 LIG 0.00  A 
ATOM     13  CD2 PHE C   1      21.796  -3.450  47.616  1.00  6.20 LIG 0.01  A 
ENDBRANCH 7 8
ENDBRANCH 6 7
BRANCH 6 14
ATOM     14  N   PHE C   1      22.754  -1.151  49.083  1.00 10.26 LIG-0.35  N 
ATOM     15 H    PHE C   1      21.906  -1.117  49.226  1.00 10.26 LIG 0.16  HD
ATOM     16  C   ACE C   0      23.626  -1.709  49.915  1.00 10.83 LIG 0.21  C 
ATOM     17  CH3 ACE C   0      23.028  -2.243  51.187  1.00 14.43 LIG 0.12  C 
ATOM     18 O    ACE C   0      24.821  -1.835  49.655  1.00 14.21 LIG-0.27  OA
ENDBRANCH 6 14
ENDBRANCH 4 6
ENDBRANCH 1 2
BRANCH 1 19
ATOM     19  C   HIS C   2      21.922   3.424  46.554  1.00 15.02 LIG 0.24  C 
ATOM     20  N   PRO C   3      21.081   4.318  45.989  1.00 12.04 LIG-0.34  N 
ATOM     21  CA  PRO C   3      21.376   4.838  44.642  1.00 11.10 LIG 0.18  C 
ATOM     22  CD  PRO C   3      19.837   4.886  46.545  1.00 17.75 LIG 0.13  C 
ATOM     23  CB  PRO C   3      20.274   5.880  44.411  1.00 15.56 LIG 0.04  C 
ATOM     24  CG  PRO C   3      19.169   5.487  45.331  1.00 20.46 LIG 0.02  C 
ATOM     25 O    HIS C   2      22.904   2.994  45.974  1.00  9.69 LIG-0.27  OA
BRANCH 21 26
ATOM     26  C   PRO C   3      22.758   5.494  44.554  1.00 13.73 LIG 0.24  C 
ATOM     27  N   ALA C   4      23.661   4.900  43.773  1.00 10.66 LIG-0.35  N 
ATOM     28 H    ALA C   4      23.473   4.248  43.246  1.00 10.66 LIG 0.16  HD
ATOM     29 O    PRO C   3      22.970   6.541  45.169  1.00 16.34 LIG-0.27  OA
BRANCH 27 30
ATOM     30  CA  ALA C   4      25.068   5.302  43.737  1.00 15.22 LIG 0.18  C 
ATOM     31  CB  ALA C   4      25.946   4.080  43.520  1.00 14.26 LIG 0.04  C 
BRANCH 30 32
ATOM     32  C   ALA C   4      25.412   6.355  42.691  1.00 20.48 LIG 0.28  C 
ATOM     33 O    ALA C   4      26.061   6.042  41.694  1.00 25.68 LIG-0.27  OA
ATOM     34  N   NH2 C   5      24.958   7.583  42.904  1.00 12.85 LIG-0.11  N 
ENDBRANCH 30 32
ENDBRANCH 27 30
ENDBRANCH 21 26
ENDBRANCH 1 19
BRANCH 1 35
ATOM     35  CB  HIS C   2      22.064   4.073  48.953  1.00 13.77 LIG 0.10  C 
BRANCH 35 36
ATOM     36  CG  HIS C   2      20.994   4.487  49.913  1.00 15.95 LIG 0.06  A 
ATOM     37  CD2 HIS C   2      20.065   5.470  49.842  1.00 16.64 LIG 0.14  A 
ATOM     38 NE2  HIS C   2      19.316   5.402  50.994  1.00 23.10 LIG-0.25  NA
ATOM     39  CE1 HIS C   2      19.766   4.409  51.741  1.00 23.56 LIG 0.23  A 
ATOM     40 ND1  HIS C   2      20.775   3.837  51.110  1.00 22.80 LIG-0.24  NA
ENDBRANCH 35 36
ENDBRANCH 1 35
TORSDOF 11
ENDMDL
MODEL 22
USER: ADFR SOLUTION from run 199
USER: SCORE 12.518126 LL:  -3.051 LR:  -9.777 RR:   0.000 FEB:  -6.496
USER: RMSD 5.361834
USER: SEED 198
USER: STATUS no improvement in best in 12 clusters for 5 generations
USER: GENES 13
USER: genes 0 Translation |==|  0.56751 0.39954 0.46903
USER: genes 1 Rotation |==|  0.57210 0.27781 0.07965 0.63688
USER: genes 2 Torsion [CB]-CA--N-[C] |==|  0.16667
USER: genes 3 Torsion [N]-C--CA-[N] |==|  0.40738
USER: genes 4 Torsion [C]-CA--CB-[CG] |==|  0.82197
USER: genes 5 Torsion [CA]-CB--CG-[CD1] |==|  0.71321
USER: genes 6 Torsion [C]-CA--N-[C] |==|  0.82427
USER: genes 7 Torsion [N]-CA--C-[N] |==|  0.13194
USER: genes 8 Torsion [N]-CA--C-[N] |==|  0.93229
USER: genes 9 Torsion [C]-N--CA-[C] |==|  0.58814
USER: genes 10 Torsion [N]-CA--C-[N] |==|  0.44862
USER: genes 11 Torsion [N]-CA--CB-[CG] |==|  0.54639
USER: genes 12 Torsion [CA]-CB--CG-[ND1] |==|  0.98070
ROOT
ATOM      1  CA  HIS C   2      25.844   1.277  42.115  1.00 12.40 LIG 0.18  C 
ENDROOT
BRANCH 1 2
ATOM      2  N   HIS C   2      26.449   0.513  41.014  1.00  9.19 LIG-0.35  N 
ATOM      3 H    HIS C   2      27.219   0.803  40.767  1.00  9.19 LIG 0.16  HD
ATOM      4  C   PHE C   1      25.845  -0.535  40.458  1.00 11.27 LIG 0.24  C 
ATOM      5 O    PHE C   1      24.778  -1.002  40.880  1.00 15.22 LIG-0.27  OA
BRANCH 4 6
ATOM      6  CA  PHE C   1      26.554  -1.172  39.261  1.00  8.70 LIG 0.18  C 
BRANCH 6 7
ATOM      7  CB  PHE C   1      26.080  -0.520  37.962  1.00  9.29 LIG 0.07  C 
BRANCH 7 8
ATOM      8  CG  PHE C   1      24.623  -0.738  37.668  1.00  9.78 LIG-0.06  A 
ATOM      9  CD1 PHE C   1      24.216  -1.668  36.714  1.00  9.46 LIG 0.01  A 
ATOM     10  CE1 PHE C   1      22.858  -1.865  36.433  1.00  9.12 LIG 0.00  A 
ATOM     11  CZ  PHE C   1      21.898  -1.130  37.118  1.00  8.05 LIG 0.00  A 
ATOM     12  CE2 PHE C   1      22.301  -0.195  38.069  1.00  7.93 LIG 0.00  A 
ATOM     13  CD2 PHE C   1      23.657  -0.008  38.342  1.00  6.20 LIG 0.01  A 
ENDBRANCH 7 8
ENDBRANCH 6 7
BRANCH 6 14
ATOM     14  N   PHE C   1      26.331  -2.612  39.221  1.00 10.26 LIG-0.35  N 
ATOM     15 H    PHE C   1      25.902  -2.888  38.528  1.00 10.26 LIG 0.16  HD
ATOM     16  C   ACE C   0      26.767  -3.409  40.191  1.00 10.83 LIG 0.21  C 
ATOM     17  CH3 ACE C   0      26.403  -4.859  40.025  1.00 14.43 LIG 0.12  C 
ATOM     18 O    ACE C   0      27.461  -3.016  41.127  1.00 14.21 LIG-0.27  OA
ENDBRANCH 6 14
ENDBRANCH 4 6
ENDBRANCH 1 2
BRANCH 1 19
ATOM     19  C   HIS C   2      26.768   2.424  42.520  1.00 15.02 LIG 0.24  C 
ATOM     20  N   PRO C   3      27.289   3.206  41.549  1.00 12.04 LIG-0.34  N 
ATOM     21  CA  PRO C   3      28.113   4.371  41.922  1.00 11.10 LIG 0.18  C 
ATOM     22  CD  PRO C   3      27.155   3.066  40.085  1.00 17.75 LIG 0.13  C 
ATOM     23  CB  PRO C   3      28.415   5.042  40.576  1.00 15.56 LIG 0.04  C 
ATOM     24  CG  PRO C   3      28.248   3.966  39.559  1.00 20.46 LIG 0.02  C 
ATOM     25 O    HIS C   2      26.985   2.618  43.703  1.00  9.69 LIG-0.27  OA
BRANCH 21 26
ATOM     26  C   PRO C   3      27.375   5.341  42.850  1.00 13.73 LIG 0.24  C 
ATOM     27  N   ALA C   4      26.042   5.328  42.802  1.00 10.66 LIG-0.35  N 
ATOM     28 H    ALA C   4      25.591   4.739  42.367  1.00 10.66 LIG 0.16  HD
ATOM     29 O    PRO C   3      28.023   6.060  43.613  1.00 16.34 LIG-0.27  OA
BRANCH 27 30
ATOM     30  CA  ALA C   4      25.212   6.319  43.487  1.00 15.22 LIG 0.18  C 
ATOM     31  CB  ALA C   4      24.991   7.519  42.579  1.00 14.26 LIG 0.04  C 
BRANCH 30 32
ATOM     32  C   ALA C   4      23.863   5.807  43.973  1.00 20.48 LIG 0.28  C 
ATOM     33 O    ALA C   4      23.403   4.759  43.521  1.00 25.68 LIG-0.27  OA
ATOM     34  N   NH2 C   5      23.248   6.524  44.905  1.00 12.85 LIG-0.11  N 
ENDBRANCH 30 32
ENDBRANCH 27 30
ENDBRANCH 21 26
ENDBRANCH 1 19
BRANCH 1 35
ATOM     35  CB  HIS C   2      25.594   0.385  43.331  1.00 13.77 LIG 0.10  C 
BRANCH 35 36
ATOM     36  CG  HIS C   2      24.642   0.961  44.332  1.00 15.95 LIG 0.06  A 
ATOM     37  CD2 HIS C   2      24.109   0.435  45.460  1.00 16.64 LIG 0.14  A 
ATOM     38 NE2  HIS C   2      23.305   1.402  46.018  1.00 23.10 LIG-0.25  NA
ATOM     39  CE1 HIS C   2      23.350   2.485  45.261  1.00 23.56 LIG 0.23  A 
ATOM     40 ND1  HIS C   2      24.153   2.248  44.240  1.00 22.80 LIG-0.24  NA
ENDBRANCH 35 36
ENDBRANCH 1 35
TORSDOF 11
ENDMDL
MODEL 23
USER: ADFR SOLUTION from run 93
USER: SCORE 12.109836 LL:  -3.316 LR:  -9.758 RR:   0.000 FEB:  -6.476
USER: RMSD 6.923941
USER: SEED 92
USER: STATUS no improvement in best in 13 clusters for 5 generations
USER: GENES 13
USER: genes 0 Translation |==|  0.46640 0.49947 0.78607
USER: genes 1 Rotation |==|  0.20100 0.44282 0.49568 0.89663
USER: genes 2 Torsion [CB]-CA--N-[C] |==|  0.55249
USER: genes 3 Torsion [N]-C--CA-[N] |==|  0.50000
USER: genes 4 Torsion [C]-CA--CB-[CG] |==|  0.68388
USER: genes 5 Torsion [CA]-CB--CG-[CD1] |==|  0.28876
USER: genes 6 Torsion [C]-CA--N-[C] |==|  0.62094
USER: genes 7 Torsion [N]-CA--C-[N] |==|  0.33071
USER: genes 8 Torsion [N]-CA--C-[N] |==|  0.36388
USER: genes 9 Torsion [C]-N--CA-[C] |==|  0.16419
USER: genes 10 Torsion [N]-CA--C-[N] |==|  0.08405
USER: genes 11 Torsion [N]-CA--CB-[CG] |==|  0.15875
USER: genes 12 Torsion [CA]-CB--CG-[ND1] |==|  0.84682
ROOT
ATOM      1  CA  HIS C   2      23.873   3.001  48.535  1.00 12.40 LIG 0.18  C 
ENDROOT
BRANCH 1 2
ATOM      2  N   HIS C   2      24.023   1.538  48.500  1.00  9.19 LIG-0.35  N 
ATOM      3 H    HIS C   2      24.734   1.268  48.099  1.00  9.19 LIG 0.16  HD
ATOM      4  C   PHE C   1      23.130   0.718  49.046  1.00 11.27 LIG 0.24  C 
ATOM      5 O    PHE C   1      22.157   1.117  49.701  1.00 15.22 LIG-0.27  OA
BRANCH 4 6
ATOM      6  CA  PHE C   1      23.374  -0.780  48.850  1.00  8.70 LIG 0.18  C 
BRANCH 6 7
ATOM      7  CB  PHE C   1      23.456  -1.107  47.359  1.00  9.29 LIG 0.07  C 
BRANCH 7 8
ATOM      8  CG  PHE C   1      22.332  -1.971  46.863  1.00  9.78 LIG-0.06  A 
ATOM      9  CD1 PHE C   1      21.285  -1.429  46.119  1.00  9.46 LIG 0.01  A 
ATOM     10  CE1 PHE C   1      20.232  -2.233  45.665  1.00  9.12 LIG 0.00  A 
ATOM     11  CZ  PHE C   1      20.228  -3.592  45.952  1.00  8.05 LIG 0.00  A 
ATOM     12  CE2 PHE C   1      21.269  -4.138  46.700  1.00  7.93 LIG 0.00  A 
ATOM     13  CD2 PHE C   1      22.315  -3.328  47.146  1.00  6.20 LIG 0.01  A 
ENDBRANCH 7 8
ENDBRANCH 6 7
BRANCH 6 14
ATOM     14  N   PHE C   1      22.333  -1.574  49.491  1.00 10.26 LIG-0.35  N 
ATOM     15 H    PHE C   1      21.534  -1.280  49.368  1.00 10.26 LIG 0.16  HD
ATOM     16  C   ACE C   0      22.625  -2.658  50.202  1.00 10.83 LIG 0.21  C 
ATOM     17  CH3 ACE C   0      21.440  -3.326  50.843  1.00 14.43 LIG 0.12  C 
ATOM     18 O    ACE C   0      23.760  -3.120  50.291  1.00 14.21 LIG-0.27  OA
ENDBRANCH 6 14
ENDBRANCH 4 6
ENDBRANCH 1 2
BRANCH 1 19
ATOM     19  C   HIS C   2      22.414   3.379  48.291  1.00 15.02 LIG 0.24  C 
ATOM     20  N   PRO C   3      21.752   4.054  49.256  1.00 12.04 LIG-0.34  N 
ATOM     21  CA  PRO C   3      20.370   4.504  49.007  1.00 11.10 LIG 0.18  C 
ATOM     22  CD  PRO C   3      22.225   4.432  50.603  1.00 17.75 LIG 0.13  C 
ATOM     23  CB  PRO C   3      20.021   5.304  50.269  1.00 15.56 LIG 0.04  C 
ATOM     24  CG  PRO C   3      20.948   4.796  51.320  1.00 20.46 LIG 0.02  C 
ATOM     25 O    HIS C   2      21.898   3.088  47.226  1.00  9.69 LIG-0.27  OA
BRANCH 21 26
ATOM     26  C   PRO C   3      20.255   5.390  47.763  1.00 13.73 LIG 0.24  C 
ATOM     27  N   ALA C   4      19.297   5.083  46.888  1.00 10.66 LIG-0.35  N 
ATOM     28 H    ALA C   4      18.688   4.496  47.041  1.00 10.66 LIG 0.16  HD
ATOM     29 O    PRO C   3      21.014   6.353  47.634  1.00 16.34 LIG-0.27  OA
BRANCH 27 30
ATOM     30  CA  ALA C   4      19.187   5.719  45.574  1.00 15.22 LIG 0.18  C 
ATOM     31  CB  ALA C   4      18.891   7.201  45.744  1.00 14.26 LIG 0.04  C 
BRANCH 30 32
ATOM     32  C   ALA C   4      20.403   5.554  44.673  1.00 20.48 LIG 0.28  C 
ATOM     33 O    ALA C   4      20.698   6.438  43.869  1.00 25.68 LIG-0.27  OA
ATOM     34  N   NH2 C   5      21.116   4.445  44.824  1.00 12.85 LIG-0.11  N 
ENDBRANCH 30 32
ENDBRANCH 27 30
ENDBRANCH 21 26
ENDBRANCH 1 19
BRANCH 1 35
ATOM     35  CB  HIS C   2      24.746   3.669  47.472  1.00 13.77 LIG 0.10  C 
BRANCH 35 36
ATOM     36  CG  HIS C   2      24.481   3.203  46.075  1.00 15.95 LIG 0.06  A 
ATOM     37  CD2 HIS C   2      24.185   3.893  44.947  1.00 16.64 LIG 0.14  A 
ATOM     38 NE2  HIS C   2      24.054   2.973  43.933  1.00 23.10 LIG-0.25  NA
ATOM     39  CE1 HIS C   2      24.269   1.763  44.421  1.00 23.56 LIG 0.23  A 
ATOM     40 ND1  HIS C   2      24.532   1.874  45.710  1.00 22.80 LIG-0.24  NA
ENDBRANCH 35 36
ENDBRANCH 1 35
TORSDOF 11
ENDMDL
MODEL 24
USER: ADFR SOLUTION from run 130
USER: SCORE 11.534658 LL:  -2.772 LR:  -9.752 RR:   0.000 FEB:  -6.471
USER: RMSD 3.627908
USER: SEED 129
USER: STATUS no improvement in best in 6 clusters for 5 generations
USER: GENES 13
USER: genes 0 Translation |==|  0.49697 0.39353 0.55414
USER: genes 1 Rotation |==|  0.63596 0.43285 0.18597 0.85832
USER: genes 2 Torsion [CB]-CA--N-[C] |==|  0.21375
USER: genes 3 Torsion [N]-C--CA-[N] |==|  0.12678
USER: genes 4 Torsion [C]-CA--CB-[CG] |==|  0.26554
USER: genes 5 Torsion [CA]-CB--CG-[CD1] |==|  0.93964
USER: genes 6 Torsion [C]-CA--N-[C] |==|  0.16667
USER: genes 7 Torsion [N]-CA--C-[N] |==|  0.84354
USER: genes 8 Torsion [N]-CA--C-[N] |==|  0.29893
USER: genes 9 Torsion [C]-N--CA-[C] |==|  0.76693
USER: genes 10 Torsion [N]-CA--C-[N] |==|  0.20753
USER: genes 11 Torsion [N]-CA--CB-[CG] |==|  0.56969
USER: genes 12 Torsion [CA]-CB--CG-[ND1] |==|  0.00966
ROOT
ATOM      1  CA  HIS C   2      24.469   1.173  43.838  1.00 12.40 LIG 0.18  C 
ENDROOT
BRANCH 1 2
ATOM      2  N   HIS C   2      24.924   1.505  42.480  1.00  9.19 LIG-0.35  N 
ATOM      3 H    HIS C   2      25.109   2.336  42.365  1.00  9.19 LIG 0.16  HD
ATOM      4  C   PHE C   1      25.036   0.587  41.523  1.00 11.27 LIG 0.24  C 
ATOM      5 O    PHE C   1      24.855  -0.622  41.721  1.00 15.22 LIG-0.27  OA
BRANCH 4 6
ATOM      6  CA  PHE C   1      25.433   1.097  40.136  1.00  8.70 LIG 0.18  C 
BRANCH 6 7
ATOM      7  CB  PHE C   1      25.797  -0.080  39.229  1.00  9.29 LIG 0.07  C 
BRANCH 7 8
ATOM      8  CG  PHE C   1      24.666  -0.553  38.362  1.00  9.78 LIG-0.06  A 
ATOM      9  CD1 PHE C   1      23.342  -0.283  38.701  1.00  9.46 LIG 0.01  A 
ATOM     10  CE1 PHE C   1      22.286  -0.733  37.897  1.00  9.12 LIG 0.00  A 
ATOM     11  CZ  PHE C   1      22.558  -1.454  36.742  1.00  8.05 LIG 0.00  A 
ATOM     12  CE2 PHE C   1      23.880  -1.731  36.401  1.00  7.93 LIG 0.00  A 
ATOM     13  CD2 PHE C   1      24.924  -1.277  37.208  1.00  6.20 LIG 0.01  A 
ENDBRANCH 7 8
ENDBRANCH 6 7
BRANCH 6 14
ATOM     14  N   PHE C   1      26.541   2.041  40.218  1.00 10.26 LIG-0.35  N 
ATOM     15 H    PHE C   1      26.365   2.825  39.911  1.00 10.26 LIG 0.16  HD
ATOM     16  C   ACE C   0      27.715   1.689  40.730  1.00 10.83 LIG 0.21  C 
ATOM     17  CH3 ACE C   0      28.767   2.763  40.686  1.00 14.43 LIG 0.12  C 
ATOM     18 O    ACE C   0      27.923   0.595  41.252  1.00 14.21 LIG-0.27  OA
ENDBRANCH 6 14
ENDBRANCH 4 6
ENDBRANCH 1 2
BRANCH 1 19
ATOM     19  C   HIS C   2      24.027   2.443  44.562  1.00 15.02 LIG 0.24  C 
ATOM     20  N   PRO C   3      24.907   3.462  44.673  1.00 12.04 LIG-0.34  N 
ATOM     21  CA  PRO C   3      24.474   4.729  45.293  1.00 11.10 LIG 0.18  C 
ATOM     22  CD  PRO C   3      26.320   3.506  44.248  1.00 17.75 LIG 0.13  C 
ATOM     23  CB  PRO C   3      25.697   5.641  45.135  1.00 15.56 LIG 0.04  C 
ATOM     24  CG  PRO C   3      26.855   4.716  44.977  1.00 20.46 LIG 0.02  C 
ATOM     25 O    HIS C   2      22.889   2.513  44.992  1.00  9.69 LIG-0.27  OA
BRANCH 21 26
ATOM     26  C   PRO C   3      23.257   5.340  44.591  1.00 13.73 LIG 0.24  C 
ATOM     27  N   ALA C   4      22.093   5.282  45.239  1.00 10.66 LIG-0.35  N 
ATOM     28 H    ALA C   4      22.020   5.024  46.056  1.00 10.66 LIG 0.16  HD
ATOM     29 O    PRO C   3      23.400   5.879  43.492  1.00 16.34 LIG-0.27  OA
BRANCH 27 30
ATOM     30  CA  ALA C   4      20.820   5.653  44.621  1.00 15.22 LIG 0.18  C 
ATOM     31  CB  ALA C   4      19.685   4.889  45.283  1.00 14.26 LIG 0.04  C 
BRANCH 30 32
ATOM     32  C   ALA C   4      20.499   7.142  44.647  1.00 20.48 LIG 0.28  C 
ATOM     33 O    ALA C   4      19.672   7.580  45.445  1.00 25.68 LIG-0.27  OA
ATOM     34  N   NH2 C   5      21.168   7.915  43.800  1.00 12.85 LIG-0.11  N 
ENDBRANCH 30 32
ENDBRANCH 27 30
ENDBRANCH 21 26
ENDBRANCH 1 19
BRANCH 1 35
ATOM     35  CB  HIS C   2      25.582   0.501  44.643  1.00 13.77 LIG 0.10  C 
BRANCH 35 36
ATOM     36  CG  HIS C   2      25.095  -0.376  45.754  1.00 15.95 LIG 0.06  A 
ATOM     37  CD2 HIS C   2      25.768  -1.052  46.715  1.00 16.64 LIG 0.14  A 
ATOM     38 NE2  HIS C   2      24.831  -1.690  47.493  1.00 23.10 LIG-0.25  NA
ATOM     39  CE1 HIS C   2      23.626  -1.410  47.028  1.00 23.56 LIG 0.23  A 
ATOM     40 ND1  HIS C   2      23.756  -0.615  45.982  1.00 22.80 LIG-0.24  NA
ENDBRANCH 35 36
ENDBRANCH 1 35
TORSDOF 11
ENDMDL
MODEL 25
USER: ADFR SOLUTION from run 193
USER: SCORE 11.445283 LL:  -2.735 LR:  -9.741 RR:   0.000 FEB:  -6.459
USER: RMSD 8.040720
USER: SEED 192
USER: STATUS no improvement in best in 18 clusters for 5 generations
USER: GENES 13
USER: genes 0 Translation |==|  0.60499 0.39735 0.42508
USER: genes 1 Rotation |==|  0.68094 0.29466 0.83170 0.75509
USER: genes 2 Torsion [CB]-CA--N-[C] |==|  0.50863
USER: genes 3 Torsion [N]-C--CA-[N] |==|  0.12405
USER: genes 4 Torsion [C]-CA--CB-[CG] |==|  0.19038
USER: genes 5 Torsion [CA]-CB--CG-[CD1] |==|  0.57778
USER: genes 6 Torsion [C]-CA--N-[C] |==|  0.61246
USER: genes 7 Torsion [N]-CA--C-[N] |==|  0.47026
USER: genes 8 Torsion [N]-CA--C-[N] |==|  0.95242
USER: genes 9 Torsion [C]-N--CA-[C] |==|  0.87222
USER: genes 10 Torsion [N]-CA--C-[N] |==|  0.36770
USER: genes 11 Torsion [N]-CA--CB-[CG] |==|  0.72373
USER: genes 12 Torsion [CA]-CB--CG-[ND1] |==|  0.29225
ROOT
ATOM      1  CA  HIS C   2      26.575   1.239  41.225  1.00 12.40 LIG 0.18  C 
ENDROOT
BRANCH 1 2
ATOM      2  N   HIS C   2      26.849   2.578  40.681  1.00  9.19 LIG-0.35  N 
ATOM      3 H    HIS C   2      26.192   3.128  40.756  1.00  9.19 LIG 0.16  HD
ATOM      4  C   PHE C   1      28.015   2.896  40.124  1.00 11.27 LIG 0.24  C 
ATOM      5 O    PHE C   1      28.985   2.127  40.102  1.00 15.22 LIG-0.27  OA
BRANCH 4 6
ATOM      6  CA  PHE C   1      28.119   4.298  39.520  1.00  8.70 LIG 0.18  C 
BRANCH 6 7
ATOM      7  CB  PHE C   1      29.579   4.627  39.206  1.00  9.29 LIG 0.07  C 
BRANCH 7 8
ATOM      8  CG  PHE C   1      30.158   3.813  38.085  1.00  9.78 LIG-0.06  A 
ATOM      9  CD1 PHE C   1      31.523   3.537  38.029  1.00  9.46 LIG 0.01  A 
ATOM     10  CE1 PHE C   1      32.064   2.786  36.978  1.00  9.12 LIG 0.00  A 
ATOM     11  CZ  PHE C   1      31.233   2.302  35.976  1.00  8.05 LIG 0.00  A 
ATOM     12  CE2 PHE C   1      29.868   2.580  36.024  1.00  7.93 LIG 0.00  A 
ATOM     13  CD2 PHE C   1      29.339   3.328  37.077  1.00  6.20 LIG 0.01  A 
ENDBRANCH 7 8
ENDBRANCH 6 7
BRANCH 6 14
ATOM     14  N   PHE C   1      27.551   5.301  40.413  1.00 10.26 LIG-0.35  N 
ATOM     15 H    PHE C   1      27.732   5.181  41.246  1.00 10.26 LIG 0.16  HD
ATOM     16  C   ACE C   0      26.816   6.307  39.949  1.00 10.83 LIG 0.21  C 
ATOM     17  CH3 ACE C   0      26.258   7.217  41.008  1.00 14.43 LIG 0.12  C 
ATOM     18 O    ACE C   0      26.645   6.519  38.751  1.00 14.21 LIG-0.27  OA
ENDBRANCH 6 14
ENDBRANCH 4 6
ENDBRANCH 1 2
BRANCH 1 19
ATOM     19  C   HIS C   2      26.802   0.184  40.145  1.00 15.02 LIG 0.24  C 
ATOM     20  N   PRO C   3      26.815  -1.118  40.507  1.00 12.04 LIG-0.34  N 
ATOM     21  CA  PRO C   3      26.947  -2.157  39.469  1.00 11.10 LIG 0.18  C 
ATOM     22  CD  PRO C   3      26.716  -1.695  41.863  1.00 17.75 LIG 0.13  C 
ATOM     23  CB  PRO C   3      26.813  -3.468  40.256  1.00 15.56 LIG 0.04  C 
ATOM     24  CG  PRO C   3      27.178  -3.118  41.658  1.00 20.46 LIG 0.02  C 
ATOM     25 O    HIS C   2      26.935   0.542  38.988  1.00  9.69 LIG-0.27  OA
BRANCH 21 26
ATOM     26  C   PRO C   3      25.854  -2.062  38.400  1.00 13.73 LIG 0.24  C 
ATOM     27  N   ALA C   4      24.773  -1.342  38.703  1.00 10.66 LIG-0.35  N 
ATOM     28 H    ALA C   4      24.714  -0.852  39.407  1.00 10.66 LIG 0.16  HD
ATOM     29 O    PRO C   3      26.023  -2.615  37.312  1.00 16.34 LIG-0.27  OA
BRANCH 27 30
ATOM     30  CA  ALA C   4      23.575  -1.314  37.862  1.00 15.22 LIG 0.18  C 
ATOM     31  CB  ALA C   4      22.639  -0.214  38.338  1.00 14.26 LIG 0.04  C 
BRANCH 30 32
ATOM     32  C   ALA C   4      23.836  -1.136  36.372  1.00 20.48 LIG 0.28  C 
ATOM     33 O    ALA C   4      24.625  -0.275  35.984  1.00 25.68 LIG-0.27  OA
ATOM     34  N   NH2 C   5      23.201  -1.961  35.549  1.00 12.85 LIG-0.11  N 
ENDBRANCH 30 32
ENDBRANCH 27 30
ENDBRANCH 21 26
ENDBRANCH 1 19
BRANCH 1 35
ATOM     35  CB  HIS C   2      25.136   1.135  41.732  1.00 13.77 LIG 0.10  C 
BRANCH 35 36
ATOM     36  CG  HIS C   2      24.992   1.292  43.213  1.00 15.95 LIG 0.06  A 
ATOM     37  CD2 HIS C   2      25.304   0.457  44.232  1.00 16.64 LIG 0.14  A 
ATOM     38 NE2  HIS C   2      24.980   1.106  45.401  1.00 23.10 LIG-0.25  NA
ATOM     39  CE1 HIS C   2      24.493   2.299  45.108  1.00 23.56 LIG 0.23  A 
ATOM     40 ND1  HIS C   2      24.492   2.439  43.795  1.00 22.80 LIG-0.24  NA
ENDBRANCH 35 36
ENDBRANCH 1 35
TORSDOF 11
ENDMDL
MODEL 26
USER: ADFR SOLUTION from run 195
USER: SCORE 11.643980 LL:  -3.640 LR:  -9.729 RR:   0.000 FEB:  -6.448
USER: RMSD 7.528092
USER: SEED 194
USER: STATUS no improvement in best in 20 clusters for 5 generations
USER: GENES 13
USER: genes 0 Translation |==|  0.58444 0.32609 0.27324
USER: genes 1 Rotation |==|  0.17112 0.47330 0.86111 0.60355
USER: genes 2 Torsion [CB]-CA--N-[C] |==|  0.51791
USER: genes 3 Torsion [N]-C--CA-[N] |==|  0.87835
USER: genes 4 Torsion [C]-CA--CB-[CG] |==|  0.07880
USER: genes 5 Torsion [CA]-CB--CG-[CD1] |==|  0.17075
USER: genes 6 Torsion [C]-CA--N-[C] |==|  0.81436
USER: genes 7 Torsion [N]-CA--C-[N] |==|  0.84169
USER: genes 8 Torsion [N]-CA--C-[N] |==|  0.24469
USER: genes 9 Torsion [C]-N--CA-[C] |==|  0.59069
USER: genes 10 Torsion [N]-CA--C-[N] |==|  0.18992
USER: genes 11 Torsion [N]-CA--CB-[CG] |==|  0.49791
USER: genes 12 Torsion [CA]-CB--CG-[ND1] |==|  0.03948
ROOT
ATOM      1  CA  HIS C   2      26.175   0.010  38.150  1.00 12.40 LIG 0.18  C 
ENDROOT
BRANCH 1 2
ATOM      2  N   HIS C   2      27.645   0.045  38.130  1.00  9.19 LIG-0.35  N 
ATOM      3 H    HIS C   2      27.996  -0.360  37.458  1.00  9.19 LIG 0.16  HD
ATOM      4  C   PHE C   1      28.356   0.654  39.075  1.00 11.27 LIG 0.24  C 
ATOM      5 O    PHE C   1      27.841   1.312  39.990  1.00 15.22 LIG-0.27  OA
BRANCH 4 6
ATOM      6  CA  PHE C   1      29.877   0.527  38.969  1.00  8.70 LIG 0.18  C 
BRANCH 6 7
ATOM      7  CB  PHE C   1      30.412   1.503  37.920  1.00  9.29 LIG 0.07  C 
BRANCH 7 8
ATOM      8  CG  PHE C   1      29.572   2.735  37.751  1.00  9.78 LIG-0.06  A 
ATOM      9  CD1 PHE C   1      29.374   3.620  38.809  1.00  9.46 LIG 0.01  A 
ATOM     10  CE1 PHE C   1      28.582   4.764  38.654  1.00  9.12 LIG 0.00  A 
ATOM     11  CZ  PHE C   1      27.988   5.031  37.428  1.00  8.05 LIG 0.00  A 
ATOM     12  CE2 PHE C   1      28.178   4.147  36.367  1.00  7.93 LIG 0.00  A 
ATOM     13  CD2 PHE C   1      28.970   3.010  36.532  1.00  6.20 LIG 0.01  A 
ENDBRANCH 7 8
ENDBRANCH 6 7
BRANCH 6 14
ATOM     14  N   PHE C   1      30.271  -0.839  38.644  1.00 10.26 LIG-0.35  N 
ATOM     15 H    PHE C   1      30.628  -0.932  37.867  1.00 10.26 LIG 0.16  HD
ATOM     16  C   ACE C   0      30.082  -1.837  39.500  1.00 10.83 LIG 0.21  C 
ATOM     17  CH3 ACE C   0      30.491  -3.191  38.987  1.00 14.43 LIG 0.12  C 
ATOM     18 O    ACE C   0      29.659  -1.675  40.643  1.00 14.21 LIG-0.27  OA
ENDBRANCH 6 14
ENDBRANCH 4 6
ENDBRANCH 1 2
BRANCH 1 19
ATOM     19  C   HIS C   2      25.686  -0.516  39.498  1.00 15.02 LIG 0.24  C 
ATOM     20  N   PRO C   3      26.109  -1.733  39.907  1.00 12.04 LIG-0.34  N 
ATOM     21  CA  PRO C   3      25.719  -2.223  41.242  1.00 11.10 LIG 0.18  C 
ATOM     22  CD  PRO C   3      26.950  -2.705  39.182  1.00 17.75 LIG 0.13  C 
ATOM     23  CB  PRO C   3      26.469  -3.555  41.368  1.00 15.56 LIG 0.04  C 
ATOM     24  CG  PRO C   3      26.746  -3.979  39.966  1.00 20.46 LIG 0.02  C 
ATOM     25 O    HIS C   2      24.954   0.184  40.175  1.00  9.69 LIG-0.27  OA
BRANCH 21 26
ATOM     26  C   PRO C   3      26.135  -1.267  42.365  1.00 13.73 LIG 0.24  C 
ATOM     27  N   ALA C   4      25.275  -0.299  42.685  1.00 10.66 LIG-0.35  N 
ATOM     28 H    ALA C   4      24.474  -0.258  42.374  1.00 10.66 LIG 0.16  HD
ATOM     29 O    PRO C   3      27.211  -1.442  42.940  1.00 16.34 LIG-0.27  OA
BRANCH 27 30
ATOM     30  CA  ALA C   4      25.611   0.792  43.600  1.00 15.22 LIG 0.18  C 
ATOM     31  CB  ALA C   4      26.216   1.949  42.820  1.00 14.26 LIG 0.04  C 
BRANCH 30 32
ATOM     32  C   ALA C   4      24.451   1.311  44.440  1.00 20.48 LIG 0.28  C 
ATOM     33 O    ALA C   4      23.989   2.431  44.226  1.00 25.68 LIG-0.27  OA
ATOM     34  N   NH2 C   5      23.968   0.494  45.367  1.00 12.85 LIG-0.11  N 
ENDBRANCH 30 32
ENDBRANCH 27 30
ENDBRANCH 21 26
ENDBRANCH 1 19
BRANCH 1 35
ATOM     35  CB  HIS C   2      25.630  -0.886  37.037  1.00 13.77 LIG 0.10  C 
BRANCH 35 36
ATOM     36  CG  HIS C   2      24.137  -0.987  37.003  1.00 15.95 LIG 0.06  A 
ATOM     37  CD2 HIS C   2      23.318  -1.865  36.376  1.00 16.64 LIG 0.14  A 
ATOM     38 NE2  HIS C   2      22.027  -1.512  36.694  1.00 23.10 LIG-0.25  NA
ATOM     39  CE1 HIS C   2      22.055  -0.459  37.492  1.00 23.56 LIG 0.23  A 
ATOM     40 ND1  HIS C   2      23.316  -0.124  37.698  1.00 22.80 LIG-0.24  NA
ENDBRANCH 35 36
ENDBRANCH 1 35
TORSDOF 11
ENDMDL
MODEL 27
USER: ADFR SOLUTION from run 66
USER: SCORE 11.854741 LL:  -3.069 LR:  -9.710 RR:   0.000 FEB:  -6.429
USER: RMSD 8.617619
USER: SEED 65
USER: STATUS no improvement in best in 42 clusters for 5 generations
USER: GENES 13
USER: genes 0 Translation |==|  0.76554 0.29846 0.32544
USER: genes 1 Rotation |==|  0.70922 0.37269 0.63754 0.91364
USER: genes 2 Torsion [CB]-CA--N-[C] |==|  0.83885
USER: genes 3 Torsion [N]-C--CA-[N] |==|  0.10478
USER: genes 4 Torsion [C]-CA--CB-[CG] |==|  0.25575
USER: genes 5 Torsion [CA]-CB--CG-[CD1] |==|  0.29434
USER: genes 6 Torsion [C]-CA--N-[C] |==|  0.60556
USER: genes 7 Torsion [N]-CA--C-[N] |==|  0.47044
USER: genes 8 Torsion [N]-CA--C-[N] |==|  0.27038
USER: genes 9 Torsion [C]-N--CA-[C] |==|  0.80207
USER: genes 10 Torsion [N]-CA--C-[N] |==|  0.38900
USER: genes 11 Torsion [N]-CA--CB-[CG] |==|  0.30745
USER: genes 12 Torsion [CA]-CB--CG-[ND1] |==|  0.80722
ROOT
ATOM      1  CA  HIS C   2      29.706  -0.467  39.207  1.00 12.40 LIG 0.18  C 
ENDROOT
BRANCH 1 2
ATOM      2  N   HIS C   2      30.191   0.530  38.241  1.00  9.19 LIG-0.35  N 
ATOM      3 H    HIS C   2      30.991   0.387  37.961  1.00  9.19 LIG 0.16  HD
ATOM      4  C   PHE C   1      29.445   1.558  37.843  1.00 11.27 LIG 0.24  C 
ATOM      5 O    PHE C   1      28.262   1.705  38.180  1.00 15.22 LIG-0.27  OA
BRANCH 4 6
ATOM      6  CA  PHE C   1      30.118   2.562  36.905  1.00  8.70 LIG 0.18  C 
BRANCH 6 7
ATOM      7  CB  PHE C   1      29.058   3.380  36.165  1.00  9.29 LIG 0.07  C 
BRANCH 7 8
ATOM      8  CG  PHE C   1      28.686   4.661  36.854  1.00  9.78 LIG-0.06  A 
ATOM      9  CD1 PHE C   1      29.123   5.891  36.366  1.00  9.46 LIG 0.01  A 
ATOM     10  CE1 PHE C   1      28.784   7.085  37.014  1.00  9.12 LIG 0.00  A 
ATOM     11  CZ  PHE C   1      27.997   7.050  38.158  1.00  8.05 LIG 0.00  A 
ATOM     12  CE2 PHE C   1      27.562   5.823  38.654  1.00  7.93 LIG 0.00  A 
ATOM     13  CD2 PHE C   1      27.904   4.638  37.998  1.00  6.20 LIG 0.01  A 
ENDBRANCH 7 8
ENDBRANCH 6 7
BRANCH 6 14
ATOM     14  N   PHE C   1      30.999   1.891  35.957  1.00 10.26 LIG-0.35  N 
ATOM     15 H    PHE C   1      30.701   1.138  35.665  1.00 10.26 LIG 0.16  HD
ATOM     16  C   ACE C   0      32.160   2.424  35.593  1.00 10.83 LIG 0.21  C 
ATOM     17  CH3 ACE C   0      32.973   1.576  34.654  1.00 14.43 LIG 0.12  C 
ATOM     18 O    ACE C   0      32.529   3.543  35.943  1.00 14.21 LIG-0.27  OA
ENDBRANCH 6 14
ENDBRANCH 4 6
ENDBRANCH 1 2
BRANCH 1 19
ATOM     19  C   HIS C   2      28.500  -1.206  38.631  1.00 15.02 LIG 0.24  C 
ATOM     20  N   PRO C   3      28.049  -2.305  39.275  1.00 12.04 LIG-0.34  N 
ATOM     21  CA  PRO C   3      26.835  -2.984  38.785  1.00 11.10 LIG 0.18  C 
ATOM     22  CD  PRO C   3      28.618  -2.972  40.462  1.00 17.75 LIG 0.13  C 
ATOM     23  CB  PRO C   3      26.599  -4.089  39.822  1.00 15.56 LIG 0.04  C 
ATOM     24  CG  PRO C   3      27.928  -4.315  40.458  1.00 20.46 LIG 0.02  C 
ATOM     25 O    HIS C   2      27.964  -0.770  37.628  1.00  9.69 LIG-0.27  OA
BRANCH 21 26
ATOM     26  C   PRO C   3      25.625  -2.047  38.717  1.00 13.73 LIG 0.24  C 
ATOM     27  N   ALA C   4      25.347  -1.503  37.532  1.00 10.66 LIG-0.35  N 
ATOM     28 H    ALA C   4      25.739  -1.735  36.802  1.00 10.66 LIG 0.16  HD
ATOM     29 O    PRO C   3      24.948  -1.859  39.730  1.00 16.34 LIG-0.27  OA
BRANCH 27 30
ATOM     30  CA  ALA C   4      24.343  -0.452  37.355  1.00 15.22 LIG 0.18  C 
ATOM     31  CB  ALA C   4      24.517   0.200  35.992  1.00 14.26 LIG 0.04  C 
BRANCH 30 32
ATOM     32  C   ALA C   4      22.898  -0.907  37.509  1.00 20.48 LIG 0.28  C 
ATOM     33 O    ALA C   4      22.548  -2.002  37.071  1.00 25.68 LIG-0.27  OA
ATOM     34  N   NH2 C   5      22.075  -0.086  38.149  1.00 12.85 LIG-0.11  N 
ENDBRANCH 30 32
ENDBRANCH 27 30
ENDBRANCH 21 26
ENDBRANCH 1 19
BRANCH 1 35
ATOM     35  CB  HIS C   2      29.302   0.196  40.525  1.00 13.77 LIG 0.10  C 
BRANCH 35 36
ATOM     36  CG  HIS C   2      27.830   0.184  40.795  1.00 15.95 LIG 0.06  A 
ATOM     37  CD2 HIS C   2      27.102  -0.471  41.730  1.00 16.64 LIG 0.14  A 
ATOM     38 NE2  HIS C   2      25.787  -0.113  41.543  1.00 23.10 LIG-0.25  NA
ATOM     39  CE1 HIS C   2      25.714   0.736  40.533  1.00 23.56 LIG 0.23  A 
ATOM     40 ND1  HIS C   2      26.933   0.936  40.066  1.00 22.80 LIG-0.24  NA
ENDBRANCH 35 36
ENDBRANCH 1 35
TORSDOF 11
ENDMDL
MODEL 28
USER: ADFR SOLUTION from run 167
USER: SCORE 11.885563 LL:  -2.936 LR:  -9.695 RR:   0.000 FEB:  -6.414
USER: RMSD 6.465925
USER: SEED 166
USER: STATUS no improvement in best in 22 clusters for 5 generations
USER: GENES 13
USER: genes 0 Translation |==|  0.57515 0.41184 0.46671
USER: genes 1 Rotation |==|  0.55906 0.27168 0.08619 0.65212
USER: genes 2 Torsion [CB]-CA--N-[C] |==|  0.18894
USER: genes 3 Torsion [N]-C--CA-[N] |==|  0.39444
USER: genes 4 Torsion [C]-CA--CB-[CG] |==|  0.81588
USER: genes 5 Torsion [CA]-CB--CG-[CD1] |==|  0.21060
USER: genes 6 Torsion [C]-CA--N-[C] |==|  0.82166
USER: genes 7 Torsion [N]-CA--C-[N] |==|  0.87181
USER: genes 8 Torsion [N]-CA--C-[N] |==|  0.94802
USER: genes 9 Torsion [C]-N--CA-[C] |==|  0.76539
USER: genes 10 Torsion [N]-CA--C-[N] |==|  0.98020
USER: genes 11 Torsion [N]-CA--CB-[CG] |==|  0.57565
USER: genes 12 Torsion [CA]-CB--CG-[ND1] |==|  0.96010
ROOT
ATOM      1  CA  HIS C   2      25.993   1.489  42.068  1.00 12.40 LIG 0.18  C 
ENDROOT
BRANCH 1 2
ATOM      2  N   HIS C   2      26.557   0.683  40.975  1.00  9.19 LIG-0.35  N 
ATOM      3 H    HIS C   2      27.349   0.916  40.739  1.00  9.19 LIG 0.16  HD
ATOM      4  C   PHE C   1      25.886  -0.318  40.410  1.00 11.27 LIG 0.24  C 
ATOM      5 O    PHE C   1      24.782  -0.706  40.816  1.00 15.22 LIG-0.27  OA
BRANCH 4 6
ATOM      6  CA  PHE C   1      26.564  -1.006  39.223  1.00  8.70 LIG 0.18  C 
BRANCH 6 7
ATOM      7  CB  PHE C   1      26.068  -0.397  37.911  1.00  9.29 LIG 0.07  C 
BRANCH 7 8
ATOM      8  CG  PHE C   1      24.616  -0.656  37.630  1.00  9.78 LIG-0.06  A 
ATOM      9  CD1 PHE C   1      23.619   0.045  38.306  1.00  9.46 LIG 0.01  A 
ATOM     10  CE1 PHE C   1      22.264  -0.203  38.051  1.00  9.12 LIG 0.00  A 
ATOM     11  CZ  PHE C   1      21.903  -1.157  37.109  1.00  8.05 LIG 0.00  A 
ATOM     12  CE2 PHE C   1      22.896  -1.865  36.434  1.00  7.93 LIG 0.00  A 
ATOM     13  CD2 PHE C   1      24.243  -1.608  36.694  1.00  6.20 LIG 0.01  A 
ENDBRANCH 7 8
ENDBRANCH 6 7
BRANCH 6 14
ATOM     14  N   PHE C   1      26.327  -2.444  39.240  1.00 10.26 LIG-0.35  N 
ATOM     15 H    PHE C   1      25.870  -2.739  38.574  1.00 10.26 LIG 0.16  HD
ATOM     16  C   ACE C   0      26.792  -3.212  40.220  1.00 10.83 LIG 0.21  C 
ATOM     17  CH3 ACE C   0      26.410  -4.663  40.117  1.00 14.43 LIG 0.12  C 
ATOM     18 O    ACE C   0      27.524  -2.794  41.115  1.00 14.21 LIG-0.27  OA
ENDBRANCH 6 14
ENDBRANCH 4 6
ENDBRANCH 1 2
BRANCH 1 19
ATOM     19  C   HIS C   2      26.900   2.684  42.352  1.00 15.02 LIG 0.24  C 
ATOM     20  N   PRO C   3      28.232   2.476  42.447  1.00 12.04 LIG-0.34  N 
ATOM     21  CA  PRO C   3      29.134   3.627  42.636  1.00 11.10 LIG 0.18  C 
ATOM     22  CD  PRO C   3      28.968   1.197  42.391  1.00 17.75 LIG 0.13  C 
ATOM     23  CB  PRO C   3      30.532   2.999  42.588  1.00 15.56 LIG 0.04  C 
ATOM     24  CG  PRO C   3      30.326   1.565  42.938  1.00 20.46 LIG 0.02  C 
ATOM     25 O    HIS C   2      26.403   3.792  42.457  1.00  9.69 LIG-0.27  OA
BRANCH 21 26
ATOM     26  C   PRO C   3      28.982   4.680  41.533  1.00 13.73 LIG 0.24  C 
ATOM     27  N   ALA C   4      28.399   4.288  40.400  1.00 10.66 LIG-0.35  N 
ATOM     28 H    ALA C   4      28.016   3.524  40.305  1.00 10.66 LIG 0.16  HD
ATOM     29 O    PRO C   3      29.367   5.832  41.740  1.00 16.34 LIG-0.27  OA
BRANCH 27 30
ATOM     30  CA  ALA C   4      28.353   5.124  39.199  1.00 15.22 LIG 0.18  C 
ATOM     31  CB  ALA C   4      28.285   4.243  37.962  1.00 14.26 LIG 0.04  C 
BRANCH 30 32
ATOM     32  C   ALA C   4      27.212   6.132  39.157  1.00 20.48 LIG 0.28  C 
ATOM     33 O    ALA C   4      27.149   6.952  38.242  1.00 25.68 LIG-0.27  OA
ATOM     34  N   NH2 C   5      26.305   6.053  40.122  1.00 12.85 LIG-0.11  N 
ENDBRANCH 30 32
ENDBRANCH 27 30
ENDBRANCH 21 26
ENDBRANCH 1 19
BRANCH 1 35
ATOM     35  CB  HIS C   2      25.845   0.659  43.344  1.00 13.77 LIG 0.10  C 
BRANCH 35 36
ATOM     36  CG  HIS C   2      24.757   1.126  44.259  1.00 15.95 LIG 0.06  A 
ATOM     37  CD2 HIS C   2      24.181   0.535  45.333  1.00 16.64 LIG 0.14  A 
ATOM     38 NE2  HIS C   2      23.240   1.411  45.821  1.00 23.10 LIG-0.25  NA
ATOM     39  CE1 HIS C   2      23.244   2.503  45.077  1.00 23.56 LIG 0.23  A 
ATOM     40 ND1  HIS C   2      24.153   2.360  44.130  1.00 22.80 LIG-0.24  NA
ENDBRANCH 35 36
ENDBRANCH 1 35
TORSDOF 11
ENDMDL
MODEL 29
USER: ADFR SOLUTION from run 182
USER: SCORE 11.874786 LL:  -2.750 LR:  -9.677 RR:   0.000 FEB:  -6.396
USER: RMSD 7.731442
USER: SEED 181
USER: STATUS no improvement in best in 17 clusters for 5 generations
USER: GENES 13
USER: genes 0 Translation |==|  0.67181 0.29113 0.28174
USER: genes 1 Rotation |==|  0.79056 0.44561 0.26663 0.82886
USER: genes 2 Torsion [CB]-CA--N-[C] |==|  0.84606
USER: genes 3 Torsion [N]-C--CA-[N] |==|  0.34093
USER: genes 4 Torsion [C]-CA--CB-[CG] |==|  0.30495
USER: genes 5 Torsion [CA]-CB--CG-[CD1] |==|  0.14073
USER: genes 6 Torsion [C]-CA--N-[C] |==|  0.77342
USER: genes 7 Torsion [N]-CA--C-[N] |==|  0.33333
USER: genes 8 Torsion [N]-CA--C-[N] |==|  0.31664
USER: genes 9 Torsion [C]-N--CA-[C] |==|  0.67607
USER: genes 10 Torsion [N]-CA--C-[N] |==|  0.39202
USER: genes 11 Torsion [N]-CA--CB-[CG] |==|  0.55334
USER: genes 12 Torsion [CA]-CB--CG-[ND1] |==|  0.45210
ROOT
ATOM      1  CA  HIS C   2      27.878  -0.593  38.322  1.00 12.40 LIG 0.18  C 
ENDROOT
BRANCH 1 2
ATOM      2  N   HIS C   2      28.658   0.421  37.597  1.00  9.19 LIG-0.35  N 
ATOM      3 H    HIS C   2      28.576   0.381  36.742  1.00  9.19 LIG 0.16  HD
ATOM      4  C   PHE C   1      29.418   1.316  38.222  1.00 11.27 LIG 0.24  C 
ATOM      5 O    PHE C   1      29.459   1.425  39.455  1.00 15.22 LIG-0.27  OA
BRANCH 4 6
ATOM      6  CA  PHE C   1      30.242   2.248  37.331  1.00  8.70 LIG 0.18  C 
BRANCH 6 7
ATOM      7  CB  PHE C   1      31.735   1.980  37.529  1.00  9.29 LIG 0.07  C 
BRANCH 7 8
ATOM      8  CG  PHE C   1      32.397   1.326  36.351  1.00  9.78 LIG-0.06  A 
ATOM      9  CD1 PHE C   1      32.250   1.845  35.066  1.00  9.46 LIG 0.01  A 
ATOM     10  CE1 PHE C   1      32.860   1.231  33.966  1.00  9.12 LIG 0.00  A 
ATOM     11  CZ  PHE C   1      33.629   0.090  34.152  1.00  8.05 LIG 0.00  A 
ATOM     12  CE2 PHE C   1      33.776  -0.437  35.434  1.00  7.93 LIG 0.00  A 
ATOM     13  CD2 PHE C   1      33.165   0.185  36.524  1.00  6.20 LIG 0.01  A 
ENDBRANCH 7 8
ENDBRANCH 6 7
BRANCH 6 14
ATOM     14  N   PHE C   1      29.935   3.647  37.603  1.00 10.26 LIG-0.35  N 
ATOM     15 H    PHE C   1      30.494   4.040  38.125  1.00 10.26 LIG 0.16  HD
ATOM     16  C   ACE C   0      28.870   4.239  37.073  1.00 10.83 LIG 0.21  C 
ATOM     17  CH3 ACE C   0      28.666   5.666  37.501  1.00 14.43 LIG 0.12  C 
ATOM     18 O    ACE C   0      28.133   3.694  36.254  1.00 14.21 LIG-0.27  OA
ENDBRANCH 6 14
ENDBRANCH 4 6
ENDBRANCH 1 2
BRANCH 1 19
ATOM     19  C   HIS C   2      26.794   0.084  39.157  1.00 15.02 LIG 0.24  C 
ATOM     20  N   PRO C   3      25.502  -0.227  38.911  1.00 12.04 LIG-0.34  N 
ATOM     21  CA  PRO C   3      24.444   0.350  39.762  1.00 11.10 LIG 0.18  C 
ATOM     22  CD  PRO C   3      24.952  -1.104  37.859  1.00 17.75 LIG 0.13  C 
ATOM     23  CB  PRO C   3      23.164  -0.316  39.242  1.00 15.56 LIG 0.04  C 
ATOM     24  CG  PRO C   3      23.486  -0.744  37.851  1.00 20.46 LIG 0.02  C 
ATOM     25 O    HIS C   2      27.124   0.860  40.036  1.00  9.69 LIG-0.27  OA
BRANCH 21 26
ATOM     26  C   PRO C   3      24.646   0.032  41.247  1.00 13.73 LIG 0.24  C 
ATOM     27  N   ALA C   4      24.910   1.059  42.055  1.00 10.66 LIG-0.35  N 
ATOM     28 H    ALA C   4      24.863   1.881  41.805  1.00 10.66 LIG 0.16  HD
ATOM     29 O    PRO C   3      24.528  -1.131  41.638  1.00 16.34 LIG-0.27  OA
BRANCH 27 30
ATOM     30  CA  ALA C   4      25.307   0.889  43.453  1.00 15.22 LIG 0.18  C 
ATOM     31  CB  ALA C   4      26.681   1.502  43.675  1.00 14.26 LIG 0.04  C 
BRANCH 30 32
ATOM     32  C   ALA C   4      24.335   1.465  44.475  1.00 20.48 LIG 0.28  C 
ATOM     33 O    ALA C   4      23.751   2.522  44.242  1.00 25.68 LIG-0.27  OA
ATOM     34  N   NH2 C   5      24.144   0.761  45.584  1.00 12.85 LIG-0.11  N 
ENDBRANCH 30 32
ENDBRANCH 27 30
ENDBRANCH 21 26
ENDBRANCH 1 19
BRANCH 1 35
ATOM     35  CB  HIS C   2      28.775  -1.420  39.245  1.00 13.77 LIG 0.10  C 
BRANCH 35 36
ATOM     36  CG  HIS C   2      28.185  -2.730  39.665  1.00 15.95 LIG 0.06  A 
ATOM     37  CD2 HIS C   2      26.913  -3.191  39.613  1.00 16.64 LIG 0.14  A 
ATOM     38 NE2  HIS C   2      26.926  -4.471  40.117  1.00 23.10 LIG-0.25  NA
ATOM     39  CE1 HIS C   2      28.163  -4.785  40.459  1.00 23.56 LIG 0.23  A 
ATOM     40 ND1  HIS C   2      28.944  -3.753  40.193  1.00 22.80 LIG-0.24  NA
ENDBRANCH 35 36
ENDBRANCH 1 35
TORSDOF 11
ENDMDL
MODEL 30
USER: ADFR SOLUTION from run 66
USER: SCORE 11.052355 LL:  -2.976 LR:  -9.684 RR:   0.000 FEB:  -6.402
USER: RMSD 5.611919
USER: SEED 65
USER: STATUS no improvement in best in 42 clusters for 5 generations
USER: GENES 13
USER: genes 0 Translation |==|  0.53634 0.34778 0.38945
USER: genes 1 Rotation |==|  0.23297 0.62995 0.89729 0.56301
USER: genes 2 Torsion [CB]-CA--N-[C] |==|  0.20013
USER: genes 3 Torsion [N]-C--CA-[N] |==|  0.70537
USER: genes 4 Torsion [C]-CA--CB-[CG] |==|  0.21089
USER: genes 5 Torsion [CA]-CB--CG-[CD1] |==|  0.88594
USER: genes 6 Torsion [C]-CA--N-[C] |==|  0.17775
USER: genes 7 Torsion [N]-CA--C-[N] |==|  0.19192
USER: genes 8 Torsion [N]-CA--C-[N] |==|  0.34380
USER: genes 9 Torsion [C]-N--CA-[C] |==|  0.76667
USER: genes 10 Torsion [N]-CA--C-[N] |==|  0.42581
USER: genes 11 Torsion [N]-CA--CB-[CG] |==|  0.75190
USER: genes 12 Torsion [CA]-CB--CG-[ND1] |==|  0.30278
ROOT
ATOM      1  CA  HIS C   2      25.237   0.384  40.503  1.00 12.40 LIG 0.18  C 
ENDROOT
BRANCH 1 2
ATOM      2  N   HIS C   2      26.541  -0.092  40.020  1.00  9.19 LIG-0.35  N 
ATOM      3 H    HIS C   2      27.095  -0.294  40.646  1.00  9.19 LIG 0.16  HD
ATOM      4  C   PHE C   1      26.825  -0.196  38.724  1.00 11.27 LIG 0.24  C 
ATOM      5 O    PHE C   1      25.993   0.010  37.831  1.00 15.22 LIG-0.27  OA
BRANCH 4 6
ATOM      6  CA  PHE C   1      28.254  -0.618  38.374  1.00  8.70 LIG 0.18  C 
BRANCH 6 7
ATOM      7  CB  PHE C   1      28.936  -1.228  39.600  1.00  9.29 LIG 0.07  C 
BRANCH 7 8
ATOM      8  CG  PHE C   1      28.487  -2.626  39.913  1.00  9.78 LIG-0.06  A 
ATOM      9  CD1 PHE C   1      27.145  -2.988  39.815  1.00  9.46 LIG 0.01  A 
ATOM     10  CE1 PHE C   1      26.724  -4.289  40.116  1.00  9.12 LIG 0.00  A 
ATOM     11  CZ  PHE C   1      27.655  -5.240  40.513  1.00  8.05 LIG 0.00  A 
ATOM     12  CE2 PHE C   1      28.998  -4.883  40.618  1.00  7.93 LIG 0.00  A 
ATOM     13  CD2 PHE C   1      29.406  -3.583  40.314  1.00  6.20 LIG 0.01  A 
ENDBRANCH 7 8
ENDBRANCH 6 7
BRANCH 6 14
ATOM     14  N   PHE C   1      29.028   0.508  37.867  1.00 10.26 LIG-0.35  N 
ATOM     15 H    PHE C   1      29.285   0.426  37.050  1.00 10.26 LIG 0.16  HD
ATOM     16  C   ACE C   0      29.299   1.563  38.629  1.00 10.83 LIG 0.21  C 
ATOM     17  CH3 ACE C   0      30.157   2.609  37.972  1.00 14.43 LIG 0.12  C 
ATOM     18 O    ACE C   0      28.847   1.710  39.762  1.00 14.21 LIG-0.27  OA
ENDBRANCH 6 14
ENDBRANCH 4 6
ENDBRANCH 1 2
BRANCH 1 19
ATOM     19  C   HIS C   2      25.317   0.694  41.996  1.00 15.02 LIG 0.24  C 
ATOM     20  N   PRO C   3      26.054   1.754  42.397  1.00 12.04 LIG-0.34  N 
ATOM     21  CA  PRO C   3      26.077   2.122  43.825  1.00 11.10 LIG 0.18  C 
ATOM     22  CD  PRO C   3      26.893   2.652  41.578  1.00 17.75 LIG 0.13  C 
ATOM     23  CB  PRO C   3      26.916   3.406  43.850  1.00 15.56 LIG 0.04  C 
ATOM     24  CG  PRO C   3      27.741   3.356  42.610  1.00 20.46 LIG 0.02  C 
ATOM     25 O    HIS C   2      24.695  -0.003  42.779  1.00  9.69 LIG-0.27  OA
BRANCH 21 26
ATOM     26  C   PRO C   3      24.676   2.387  44.385  1.00 13.73 LIG 0.24  C 
ATOM     27  N   ALA C   4      24.303   1.670  45.446  1.00 10.66 LIG-0.35  N 
ATOM     28 H    ALA C   4      24.839   1.160  45.883  1.00 10.66 LIG 0.16  HD
ATOM     29 O    PRO C   3      23.972   3.256  43.867  1.00 16.34 LIG-0.27  OA
BRANCH 27 30
ATOM     30  CA  ALA C   4      22.937   1.680  45.972  1.00 15.22 LIG 0.18  C 
ATOM     31  CB  ALA C   4      22.645   0.360  46.668  1.00 14.26 LIG 0.04  C 
BRANCH 30 32
ATOM     32  C   ALA C   4      22.620   2.825  46.924  1.00 20.48 LIG 0.28  C 
ATOM     33 O    ALA C   4      23.525   3.364  47.562  1.00 25.68 LIG-0.27  OA
ATOM     34  N   NH2 C   5      21.353   3.211  46.998  1.00 12.85 LIG-0.11  N 
ENDBRANCH 30 32
ENDBRANCH 27 30
ENDBRANCH 21 26
ENDBRANCH 1 19
BRANCH 1 35
ATOM     35  CB  HIS C   2      24.147  -0.663  40.269  1.00 13.77 LIG 0.10  C 
BRANCH 35 36
ATOM     36  CG  HIS C   2      23.463  -0.553  38.942  1.00 15.95 LIG 0.06  A 
ATOM     37  CD2 HIS C   2      22.611   0.380  38.454  1.00 16.64 LIG 0.14  A 
ATOM     38 NE2  HIS C   2      22.294   0.005  37.169  1.00 23.10 LIG-0.25  NA
ATOM     39  CE1 HIS C   2      22.933  -1.115  36.879  1.00 23.56 LIG 0.23  A 
ATOM     40 ND1  HIS C   2      23.649  -1.471  37.930  1.00 22.80 LIG-0.24  NA
ENDBRANCH 35 36
ENDBRANCH 1 35
TORSDOF 11
ENDMDL
MODEL 31
USER: ADFR SOLUTION from run 83
USER: SCORE 12.039241 LL:  -3.441 LR:  -9.665 RR:   0.000 FEB:  -6.384
USER: RMSD 9.030855
USER: SEED 82
USER: STATUS no improvement in best in 21 clusters for 5 generations
USER: GENES 13
USER: genes 0 Translation |==|  0.40669 0.57354 0.58432
USER: genes 1 Rotation |==|  0.51563 0.97741 0.61541 0.59226
USER: genes 2 Torsion [CB]-CA--N-[C] |==|  0.81111
USER: genes 3 Torsion [N]-C--CA-[N] |==|  0.14407
USER: genes 4 Torsion [C]-CA--CB-[CG] |==|  0.27579
USER: genes 5 Torsion [CA]-CB--CG-[CD1] |==|  0.90804
USER: genes 6 Torsion [C]-CA--N-[C] |==|  0.14780
USER: genes 7 Torsion [N]-CA--C-[N] |==|  0.18562
USER: genes 8 Torsion [N]-CA--C-[N] |==|  0.80954
USER: genes 9 Torsion [C]-N--CA-[C] |==|  0.69527
USER: genes 10 Torsion [N]-CA--C-[N] |==|  0.09206
USER: genes 11 Torsion [N]-CA--CB-[CG] |==|  0.91839
USER: genes 12 Torsion [CA]-CB--CG-[ND1] |==|  0.84281
ROOT
ATOM      1  CA  HIS C   2      22.708   4.279  44.450  1.00 12.40 LIG 0.18  C 
ENDROOT
BRANCH 1 2
ATOM      2  N   HIS C   2      22.232   3.339  45.476  1.00  9.19 LIG-0.35  N 
ATOM      3 H    HIS C   2      21.736   2.708  45.170  1.00  9.19 LIG 0.16  HD
ATOM      4  C   PHE C   1      22.549   3.469  46.762  1.00 11.27 LIG 0.24  C 
ATOM      5 O    PHE C   1      23.337   4.328  47.180  1.00 15.22 LIG-0.27  OA
BRANCH 4 6
ATOM      6  CA  PHE C   1      21.904   2.469  47.724  1.00  8.70 LIG 0.18  C 
BRANCH 6 7
ATOM      7  CB  PHE C   1      22.465   2.662  49.134  1.00  9.29 LIG 0.07  C 
BRANCH 7 8
ATOM      8  CG  PHE C   1      21.577   3.468  50.038  1.00  9.78 LIG-0.06  A 
ATOM      9  CD1 PHE C   1      20.788   4.499  49.534  1.00  9.46 LIG 0.01  A 
ATOM     10  CE1 PHE C   1      19.966   5.257  50.378  1.00  9.12 LIG 0.00  A 
ATOM     11  CZ  PHE C   1      19.929   4.977  51.737  1.00  8.05 LIG 0.00  A 
ATOM     12  CE2 PHE C   1      20.720   3.950  52.248  1.00  7.93 LIG 0.00  A 
ATOM     13  CD2 PHE C   1      21.534   3.200  51.397  1.00  6.20 LIG 0.01  A 
ENDBRANCH 7 8
ENDBRANCH 6 7
BRANCH 6 14
ATOM     14  N   PHE C   1      22.109   1.097  47.276  1.00 10.26 LIG-0.35  N 
ATOM     15 H    PHE C   1      21.388   0.632  47.210  1.00 10.26 LIG 0.16  HD
ATOM     16  C   ACE C   0      23.322   0.632  47.000  1.00 10.83 LIG 0.21  C 
ATOM     17  CH3 ACE C   0      23.364  -0.819  46.607  1.00 14.43 LIG 0.12  C 
ATOM     18 O    ACE C   0      24.332   1.333  47.006  1.00 14.21 LIG-0.27  OA
ENDBRANCH 6 14
ENDBRANCH 4 6
ENDBRANCH 1 2
BRANCH 1 19
ATOM     19  C   HIS C   2      24.227   4.413  44.533  1.00 15.02 LIG 0.24  C 
ATOM     20  N   PRO C   3      24.988   3.341  44.220  1.00 12.04 LIG-0.34  N 
ATOM     21  CA  PRO C   3      26.457   3.474  44.211  1.00 11.10 LIG 0.18  C 
ATOM     22  CD  PRO C   3      24.552   1.976  43.867  1.00 17.75 LIG 0.13  C 
ATOM     23  CB  PRO C   3      26.937   2.105  43.714  1.00 15.56 LIG 0.04  C 
ATOM     24  CG  PRO C   3      25.818   1.168  44.015  1.00 20.46 LIG 0.02  C 
ATOM     25 O    HIS C   2      24.709   5.487  44.850  1.00  9.69 LIG-0.27  OA
BRANCH 21 26
ATOM     26  C   PRO C   3      26.941   4.584  43.272  1.00 13.73 LIG 0.24  C 
ATOM     27  N   ALA C   4      26.782   4.381  41.963  1.00 10.66 LIG-0.35  N 
ATOM     28 H    ALA C   4      26.332   3.724  41.639  1.00 10.66 LIG 0.16  HD
ATOM     29 O    PRO C   3      27.421   5.614  43.749  1.00 16.34 LIG-0.27  OA
BRANCH 27 30
ATOM     30  CA  ALA C   4      27.360   5.260  40.946  1.00 15.22 LIG 0.18  C 
ATOM     31  CB  ALA C   4      28.170   4.438  39.957  1.00 14.26 LIG 0.04  C 
BRANCH 30 32
ATOM     32  C   ALA C   4      26.354   6.111  40.181  1.00 20.48 LIG 0.28  C 
ATOM     33 O    ALA C   4      26.545   6.370  38.994  1.00 25.68 LIG-0.27  OA
ATOM     34  N   NH2 C   5      25.282   6.517  40.848  1.00 12.85 LIG-0.11  N 
ENDBRANCH 30 32
ENDBRANCH 27 30
ENDBRANCH 21 26
ENDBRANCH 1 19
BRANCH 1 35
ATOM     35  CB  HIS C   2      22.074   5.659  44.630  1.00 13.77 LIG 0.10  C 
BRANCH 35 36
ATOM     36  CG  HIS C   2      20.710   5.634  45.246  1.00 15.95 LIG 0.06  A 
ATOM     37  CD2 HIS C   2      20.217   6.258  46.341  1.00 16.64 LIG 0.14  A 
ATOM     38 NE2  HIS C   2      18.893   5.900  46.449  1.00 23.10 LIG-0.25  NA
ATOM     39  CE1 HIS C   2      18.585   5.090  45.451  1.00 23.56 LIG 0.23  A 
ATOM     40 ND1  HIS C   2      19.663   4.917  44.707  1.00 22.80 LIG-0.24  NA
ENDBRANCH 35 36
ENDBRANCH 1 35
TORSDOF 11
ENDMDL
MODEL 32
USER: ADFR SOLUTION from run 85
USER: SCORE 11.945662 LL:  -2.864 LR:  -9.669 RR:   0.000 FEB:  -6.387
USER: RMSD 9.615692
USER: SEED 84
USER: STATUS no improvement in best in 35 clusters for 5 generations
USER: GENES 13
USER: genes 0 Translation |==|  0.39519 0.32723 0.68090
USER: genes 1 Rotation |==|  0.81998 0.76386 0.36192 0.74274
USER: genes 2 Torsion [CB]-CA--N-[C] |==|  0.86766
USER: genes 3 Torsion [N]-C--CA-[N] |==|  0.97573
USER: genes 4 Torsion [C]-CA--CB-[CG] |==|  0.49620
USER: genes 5 Torsion [CA]-CB--CG-[CD1] |==|  0.47112
USER: genes 6 Torsion [C]-CA--N-[C] |==|  0.71147
USER: genes 7 Torsion [N]-CA--C-[N] |==|  0.31913
USER: genes 8 Torsion [N]-CA--C-[N] |==|  0.84967
USER: genes 9 Torsion [C]-N--CA-[C] |==|  0.81164
USER: genes 10 Torsion [N]-CA--C-[N] |==|  0.40388
USER: genes 11 Torsion [N]-CA--CB-[CG] |==|  0.81068
USER: genes 12 Torsion [CA]-CB--CG-[ND1] |==|  0.68046
ROOT
ATOM      1  CA  HIS C   2      22.484   0.030  46.405  1.00 12.40 LIG 0.18  C 
ENDROOT
BRANCH 1 2
ATOM      2  N   HIS C   2      21.905   1.304  46.857  1.00  9.19 LIG-0.35  N 
ATOM      3 H    HIS C   2      21.179   1.522  46.452  1.00  9.19 LIG 0.16  HD
ATOM      4  C   PHE C   1      22.468   2.044  47.809  1.00 11.27 LIG 0.24  C 
ATOM      5 O    PHE C   1      23.464   1.679  48.449  1.00 15.22 LIG-0.27  OA
BRANCH 4 6
ATOM      6  CA  PHE C   1      21.802   3.389  48.107  1.00  8.70 LIG 0.18  C 
BRANCH 6 7
ATOM      7  CB  PHE C   1      21.214   3.381  49.519  1.00  9.29 LIG 0.07  C 
BRANCH 7 8
ATOM      8  CG  PHE C   1      20.565   4.676  49.915  1.00  9.78 LIG-0.06  A 
ATOM      9  CD1 PHE C   1      19.798   4.769  51.075  1.00  9.46 LIG 0.01  A 
ATOM     10  CE1 PHE C   1      19.184   5.974  51.439  1.00  9.12 LIG 0.00  A 
ATOM     11  CZ  PHE C   1      19.344   7.098  50.639  1.00  8.05 LIG 0.00  A 
ATOM     12  CE2 PHE C   1      20.105   7.010  49.476  1.00  7.93 LIG 0.00  A 
ATOM     13  CD2 PHE C   1      20.713   5.804  49.123  1.00  6.20 LIG 0.01  A 
ENDBRANCH 7 8
ENDBRANCH 6 7
BRANCH 6 14
ATOM     14  N   PHE C   1      20.768   3.694  47.125  1.00 10.26 LIG-0.35  N 
ATOM     15 H    PHE C   1      20.035   3.256  47.231  1.00 10.26 LIG 0.16  HD
ATOM     16  C   ACE C   0      20.970   4.583  46.158  1.00 10.83 LIG 0.21  C 
ATOM     17  CH3 ACE C   0      19.824   4.736  45.197  1.00 14.43 LIG 0.12  C 
ATOM     18 O    ACE C   0      21.985   5.271  46.076  1.00 14.21 LIG-0.27  OA
ENDBRANCH 6 14
ENDBRANCH 4 6
ENDBRANCH 1 2
BRANCH 1 19
ATOM     19  C   HIS C   2      22.270  -1.044  47.469  1.00 15.02 LIG 0.24  C 
ATOM     20  N   PRO C   3      21.475  -2.096  47.174  1.00 12.04 LIG-0.34  N 
ATOM     21  CA  PRO C   3      21.324  -3.187  48.156  1.00 11.10 LIG 0.18  C 
ATOM     22  CD  PRO C   3      20.686  -2.336  45.950  1.00 17.75 LIG 0.13  C 
ATOM     23  CB  PRO C   3      20.453  -4.213  47.419  1.00 15.56 LIG 0.04  C 
ATOM     24  CG  PRO C   3      19.737  -3.433  46.370  1.00 20.46 LIG 0.02  C 
ATOM     25 O    HIS C   2      22.843  -0.937  48.540  1.00  9.69 LIG-0.27  OA
BRANCH 21 26
ATOM     26  C   PRO C   3      22.665  -3.811  48.552  1.00 13.73 LIG 0.24  C 
ATOM     27  N   ALA C   4      23.443  -4.253  47.563  1.00 10.66 LIG-0.35  N 
ATOM     28 H    ALA C   4      23.279  -4.107  46.732  1.00 10.66 LIG 0.16  HD
ATOM     29 O    PRO C   3      22.984  -3.853  49.742  1.00 16.34 LIG-0.27  OA
BRANCH 27 30
ATOM     30  CA  ALA C   4      24.658  -5.035  47.796  1.00 15.22 LIG 0.18  C 
ATOM     31  CB  ALA C   4      25.155  -5.615  46.481  1.00 14.26 LIG 0.04  C 
BRANCH 30 32
ATOM     32  C   ALA C   4      25.795  -4.277  48.468  1.00 20.48 LIG 0.28  C 
ATOM     33 O    ALA C   4      25.953  -3.077  48.243  1.00 25.68 LIG-0.27  OA
ATOM     34  N   NH2 C   5      26.562  -4.963  49.305  1.00 12.85 LIG-0.11  N 
ENDBRANCH 30 32
ENDBRANCH 27 30
ENDBRANCH 21 26
ENDBRANCH 1 19
BRANCH 1 35
ATOM     35  CB  HIS C   2      23.983   0.172  46.133  1.00 13.77 LIG 0.10  C 
BRANCH 35 36
ATOM     36  CG  HIS C   2      24.315   1.031  44.954  1.00 15.95 LIG 0.06  A 
ATOM     37  CD2 HIS C   2      24.144   2.358  44.742  1.00 16.64 LIG 0.14  A 
ATOM     38 NE2  HIS C   2      24.641   2.636  43.490  1.00 23.10 LIG-0.25  NA
ATOM     39  CE1 HIS C   2      25.106   1.520  42.956  1.00 23.56 LIG 0.23  A 
ATOM     40 ND1  HIS C   2      24.926   0.537  43.820  1.00 22.80 LIG-0.24  NA
ENDBRANCH 35 36
ENDBRANCH 1 35
TORSDOF 11
ENDMDL
MODEL 33
USER: ADFR SOLUTION from run 23
USER: SCORE 11.438083 LL:  -2.477 LR:  -9.661 RR:   0.000 FEB:  -6.380
USER: RMSD 6.960835
USER: SEED 22
USER: STATUS no improvement in best in 18 clusters for 5 generations
USER: GENES 13
USER: genes 0 Translation |==|  0.74941 0.39703 0.28879
USER: genes 1 Rotation |==|  0.25859 0.65281 0.53308 0.90900
USER: genes 2 Torsion [CB]-CA--N-[C] |==|  0.76371
USER: genes 3 Torsion [N]-C--CA-[N] |==|  0.25176
USER: genes 4 Torsion [C]-CA--CB-[CG] |==|  0.85504
USER: genes 5 Torsion [CA]-CB--CG-[CD1] |==|  0.38841
USER: genes 6 Torsion [C]-CA--N-[C] |==|  0.76547
USER: genes 7 Torsion [N]-CA--C-[N] |==|  0.19228
USER: genes 8 Torsion [N]-CA--C-[N] |==|  0.27952
USER: genes 9 Torsion [C]-N--CA-[C] |==|  0.54913
USER: genes 10 Torsion [N]-CA--C-[N] |==|  0.38889
USER: genes 11 Torsion [N]-CA--CB-[CG] |==|  0.73949
USER: genes 12 Torsion [CA]-CB--CG-[ND1] |==|  0.36195
ROOT
ATOM      1  CA  HIS C   2      29.391   1.234  38.465  1.00 12.40 LIG 0.18  C 
ENDROOT
BRANCH 1 2
ATOM      2  N   HIS C   2      28.883  -0.131  38.264  1.00  9.19 LIG-0.35  N 
ATOM      3 H    HIS C   2      29.498  -0.731  38.215  1.00  9.19 LIG 0.16  HD
ATOM      4  C   PHE C   1      27.584  -0.400  38.166  1.00 11.27 LIG 0.24  C 
ATOM      5 O    PHE C   1      26.703   0.455  38.328  1.00 15.22 LIG-0.27  OA
BRANCH 4 6
ATOM      6  CA  PHE C   1      27.212  -1.854  37.865  1.00  8.70 LIG 0.18  C 
BRANCH 6 7
ATOM      7  CB  PHE C   1      25.948  -1.905  37.005  1.00  9.29 LIG 0.07  C 
BRANCH 7 8
ATOM      8  CG  PHE C   1      24.800  -1.114  37.563  1.00  9.78 LIG-0.06  A 
ATOM      9  CD1 PHE C   1      23.976  -0.361  36.729  1.00  9.46 LIG 0.01  A 
ATOM     10  CE1 PHE C   1      22.911   0.385  37.250  1.00  9.12 LIG 0.00  A 
ATOM     11  CZ  PHE C   1      22.664   0.372  38.617  1.00  8.05 LIG 0.00  A 
ATOM     12  CE2 PHE C   1      23.489  -0.375  39.456  1.00  7.93 LIG 0.00  A 
ATOM     13  CD2 PHE C   1      24.546  -1.115  38.925  1.00  6.20 LIG 0.01  A 
ENDBRANCH 7 8
ENDBRANCH 6 7
BRANCH 6 14
ATOM     14  N   PHE C   1      27.024  -2.616  39.094  1.00 10.26 LIG-0.35  N 
ATOM     15 H    PHE C   1      26.207  -2.672  39.357  1.00 10.26 LIG 0.16  HD
ATOM     16  C   ACE C   0      28.051  -3.167  39.732  1.00 10.83 LIG 0.21  C 
ATOM     17  CH3 ACE C   0      27.691  -3.868  41.013  1.00 14.43 LIG 0.12  C 
ATOM     18 O    ACE C   0      29.199  -3.160  39.295  1.00 14.21 LIG-0.27  OA
ENDBRANCH 6 14
ENDBRANCH 4 6
ENDBRANCH 1 2
BRANCH 1 19
ATOM     19  C   HIS C   2      28.438   2.015  39.366  1.00 15.02 LIG 0.24  C 
ATOM     20  N   PRO C   3      28.350   1.666  40.669  1.00 12.04 LIG-0.34  N 
ATOM     21  CA  PRO C   3      27.501   2.461  41.575  1.00 11.10 LIG 0.18  C 
ATOM     22  CD  PRO C   3      29.009   0.544  41.366  1.00 17.75 LIG 0.13  C 
ATOM     23  CB  PRO C   3      27.750   1.825  42.949  1.00 15.56 LIG 0.04  C 
ATOM     24  CG  PRO C   3      28.232   0.445  42.657  1.00 20.46 LIG 0.02  C 
ATOM     25 O    HIS C   2      27.808   2.946  38.895  1.00  9.69 LIG-0.27  OA
BRANCH 21 26
ATOM     26  C   PRO C   3      27.889   3.943  41.595  1.00 13.73 LIG 0.24  C 
ATOM     27  N   ALA C   4      27.138   4.774  40.870  1.00 10.66 LIG-0.35  N 
ATOM     28 H    ALA C   4      26.402   4.538  40.493  1.00 10.66 LIG 0.16  HD
ATOM     29 O    PRO C   3      28.839   4.311  42.288  1.00 16.34 LIG-0.27  OA
BRANCH 27 30
ATOM     30  CA  ALA C   4      27.495   6.175  40.644  1.00 15.22 LIG 0.18  C 
ATOM     31  CB  ALA C   4      28.638   6.259  39.645  1.00 14.26 LIG 0.04  C 
BRANCH 30 32
ATOM     32  C   ALA C   4      26.353   7.064  40.170  1.00 20.48 LIG 0.28  C 
ATOM     33 O    ALA C   4      25.528   6.630  39.367  1.00 25.68 LIG-0.27  OA
ATOM     34  N   NH2 C   5      26.291   8.286  40.683  1.00 12.85 LIG-0.11  N 
ENDBRANCH 30 32
ENDBRANCH 27 30
ENDBRANCH 21 26
ENDBRANCH 1 19
BRANCH 1 35
ATOM     35  CB  HIS C   2      29.534   1.970  37.132  1.00 13.77 LIG 0.10  C 
BRANCH 35 36
ATOM     36  CG  HIS C   2      30.898   1.881  36.522  1.00 15.95 LIG 0.06  A 
ATOM     37  CD2 HIS C   2      32.126   2.085  37.055  1.00 16.64 LIG 0.14  A 
ATOM     38 NE2  HIS C   2      33.044   1.854  36.057  1.00 23.10 LIG-0.25  NA
ATOM     39  CE1 HIS C   2      32.401   1.514  34.953  1.00 23.56 LIG 0.23  A 
ATOM     40 ND1  HIS C   2      31.105   1.519  35.208  1.00 22.80 LIG-0.24  NA
ENDBRANCH 35 36
ENDBRANCH 1 35
TORSDOF 11
ENDMDL
MODEL 34
USER: ADFR SOLUTION from run 75
USER: SCORE 11.621777 LL:  -2.722 LR:  -9.646 RR:   0.000 FEB:  -6.365
USER: RMSD 8.892422
USER: SEED 74
USER: STATUS no improvement in best in 31 clusters for 5 generations
USER: GENES 13
USER: genes 0 Translation |==|  0.54074 0.37429 0.59408
USER: genes 1 Rotation |==|  0.89357 0.42757 0.79811 0.53142
USER: genes 2 Torsion [CB]-CA--N-[C] |==|  0.51192
USER: genes 3 Torsion [N]-C--CA-[N] |==|  0.08411
USER: genes 4 Torsion [C]-CA--CB-[CG] |==|  0.47922
USER: genes 5 Torsion [CA]-CB--CG-[CD1] |==|  0.50927
USER: genes 6 Torsion [C]-CA--N-[C] |==|  0.16761
USER: genes 7 Torsion [N]-CA--C-[N] |==|  0.48870
USER: genes 8 Torsion [N]-CA--C-[N] |==|  0.38812
USER: genes 9 Torsion [C]-N--CA-[C] |==|  0.68413
USER: genes 10 Torsion [N]-CA--C-[N] |==|  0.04261
USER: genes 11 Torsion [N]-CA--CB-[CG] |==|  0.96660
USER: genes 12 Torsion [CA]-CB--CG-[ND1] |==|  0.22823
ROOT
ATOM      1  CA  HIS C   2      25.322   0.842  44.647  1.00 12.40 LIG 0.18  C 
ENDROOT
BRANCH 1 2
ATOM      2  N   HIS C   2      24.110   1.578  45.036  1.00  9.19 LIG-0.35  N 
ATOM      3 H    HIS C   2      23.584   1.138  45.554  1.00  9.19 LIG 0.16  HD
ATOM      4  C   PHE C   1      23.864   2.816  44.615  1.00 11.27 LIG 0.24  C 
ATOM      5 O    PHE C   1      24.669   3.475  43.945  1.00 15.22 LIG-0.27  OA
BRANCH 4 6
ATOM      6  CA  PHE C   1      22.519   3.418  45.028  1.00  8.70 LIG 0.18  C 
BRANCH 6 7
ATOM      7  CB  PHE C   1      22.623   4.943  45.087  1.00  9.29 LIG 0.07  C 
BRANCH 7 8
ATOM      8  CG  PHE C   1      21.309   5.634  45.311  1.00  9.78 LIG-0.06  A 
ATOM      9  CD1 PHE C   1      21.222   7.025  45.320  1.00  9.46 LIG 0.01  A 
ATOM     10  CE1 PHE C   1      19.998   7.670  45.538  1.00  9.12 LIG 0.00  A 
ATOM     11  CZ  PHE C   1      18.849   6.917  45.742  1.00  8.05 LIG 0.00  A 
ATOM     12  CE2 PHE C   1      18.930   5.526  45.739  1.00  7.93 LIG 0.00  A 
ATOM     13  CD2 PHE C   1      20.155   4.894  45.519  1.00  6.20 LIG 0.01  A 
ENDBRANCH 7 8
ENDBRANCH 6 7
BRANCH 6 14
ATOM     14  N   PHE C   1      22.074   2.887  46.311  1.00 10.26 LIG-0.35  N 
ATOM     15 H    PHE C   1      21.321   2.470  46.283  1.00 10.26 LIG 0.16  HD
ATOM     16  C   ACE C   0      22.794   3.048  47.416  1.00 10.83 LIG 0.21  C 
ATOM     17  CH3 ACE C   0      22.165   2.490  48.663  1.00 14.43 LIG 0.12  C 
ATOM     18 O    ACE C   0      23.911   3.560  47.424  1.00 14.21 LIG-0.27  OA
ENDBRANCH 6 14
ENDBRANCH 4 6
ENDBRANCH 1 2
BRANCH 1 19
ATOM     19  C   HIS C   2      25.438   0.798  43.125  1.00 15.02 LIG 0.24  C 
ATOM     20  N   PRO C   3      26.536   0.233  42.577  1.00 12.04 LIG-0.34  N 
ATOM     21  CA  PRO C   3      26.629   0.103  41.111  1.00 11.10 LIG 0.18  C 
ATOM     22  CD  PRO C   3      27.730  -0.304  43.259  1.00 17.75 LIG 0.13  C 
ATOM     23  CB  PRO C   3      27.939  -0.666  40.902  1.00 15.56 LIG 0.04  C 
ATOM     24  CG  PRO C   3      28.735  -0.422  42.138  1.00 20.46 LIG 0.02  C 
ATOM     25 O    HIS C   2      24.527   1.246  42.451  1.00  9.69 LIG-0.27  OA
BRANCH 21 26
ATOM     26  C   PRO C   3      25.451  -0.675  40.515  1.00 13.73 LIG 0.24  C 
ATOM     27  N   ALA C   4      24.946  -0.222  39.367  1.00 10.66 LIG-0.35  N 
ATOM     28 H    ALA C   4      25.312   0.404  38.904  1.00 10.66 LIG 0.16  HD
ATOM     29 O    PRO C   3      25.043  -1.688  41.087  1.00 16.34 LIG-0.27  OA
BRANCH 27 30
ATOM     30  CA  ALA C   4      23.712  -0.746  38.779  1.00 15.22 LIG 0.18  C 
ATOM     31  CB  ALA C   4      22.715   0.385  38.585  1.00 14.26 LIG 0.04  C 
BRANCH 30 32
ATOM     32  C   ALA C   4      23.889  -1.486  37.460  1.00 20.48 LIG 0.28  C 
ATOM     33 O    ALA C   4      22.917  -1.694  36.736  1.00 25.68 LIG-0.27  OA
ATOM     34  N   NH2 C   5      25.123  -1.855  37.139  1.00 12.85 LIG-0.11  N 
ENDBRANCH 30 32
ENDBRANCH 27 30
ENDBRANCH 21 26
ENDBRANCH 1 19
BRANCH 1 35
ATOM     35  CB  HIS C   2      25.294  -0.589  45.187  1.00 13.77 LIG 0.10  C 
BRANCH 35 36
ATOM     36  CG  HIS C   2      24.224  -0.843  46.202  1.00 15.95 LIG 0.06  A 
ATOM     37  CD2 HIS C   2      24.261  -0.837  47.556  1.00 16.64 LIG 0.14  A 
ATOM     38 NE2  HIS C   2      22.989  -1.120  47.997  1.00 23.10 LIG-0.25  NA
ATOM     39  CE1 HIS C   2      22.200  -1.288  46.950  1.00 23.56 LIG 0.23  A 
ATOM     40 ND1  HIS C   2      22.919  -1.122  45.855  1.00 22.80 LIG-0.24  NA
ENDBRANCH 35 36
ENDBRANCH 1 35
TORSDOF 11
ENDMDL
MODEL 35
USER: ADFR SOLUTION from run 57
USER: SCORE 11.278259 LL:  -3.151 LR:  -9.649 RR:   0.000 FEB:  -6.367
USER: RMSD 8.832943
USER: SEED 56
USER: STATUS no improvement in best in 18 clusters for 5 generations
USER: GENES 13
USER: genes 0 Translation |==|  0.58668 0.37090 0.48220
USER: genes 1 Rotation |==|  0.90040 0.36864 0.75866 0.57426
USER: genes 2 Torsion [CB]-CA--N-[C] |==|  0.16667
USER: genes 3 Torsion [N]-C--CA-[N] |==|  0.91445
USER: genes 4 Torsion [C]-CA--CB-[CG] |==|  0.48826
USER: genes 5 Torsion [CA]-CB--CG-[CD1] |==|  0.74509
USER: genes 6 Torsion [C]-CA--N-[C] |==|  0.69596
USER: genes 7 Torsion [N]-CA--C-[N] |==|  0.40878
USER: genes 8 Torsion [N]-CA--C-[N] |==|  0.23584
USER: genes 9 Torsion [C]-N--CA-[C] |==|  0.78761
USER: genes 10 Torsion [N]-CA--C-[N] |==|  0.00985
USER: genes 11 Torsion [N]-CA--CB-[CG] |==|  0.44815
USER: genes 12 Torsion [CA]-CB--CG-[ND1] |==|  0.76637
ROOT
ATOM      1  CA  HIS C   2      26.218   0.783  42.381  1.00 12.40 LIG 0.18  C 
ENDROOT
BRANCH 1 2
ATOM      2  N   HIS C   2      25.343   1.815  42.957  1.00  9.19 LIG-0.35  N 
ATOM      3 H    HIS C   2      24.890   2.256  42.374  1.00  9.19 LIG 0.16  HD
ATOM      4  C   PHE C   1      25.269   2.037  44.267  1.00 11.27 LIG 0.24  C 
ATOM      5 O    PHE C   1      25.855   1.338  45.105  1.00 15.22 LIG-0.27  OA
BRANCH 4 6
ATOM      6  CA  PHE C   1      24.385   3.205  44.709  1.00  8.70 LIG 0.18  C 
BRANCH 6 7
ATOM      7  CB  PHE C   1      22.966   2.710  44.995  1.00  9.29 LIG 0.07  C 
BRANCH 7 8
ATOM      8  CG  PHE C   1      22.049   3.770  45.533  1.00  9.78 LIG-0.06  A 
ATOM      9  CD1 PHE C   1      21.907   3.967  46.905  1.00  9.46 LIG 0.01  A 
ATOM     10  CE1 PHE C   1      21.044   4.949  47.407  1.00  9.12 LIG 0.00  A 
ATOM     11  CZ  PHE C   1      20.322   5.746  46.529  1.00  8.05 LIG 0.00  A 
ATOM     12  CE2 PHE C   1      20.456   5.551  45.156  1.00  7.93 LIG 0.00  A 
ATOM     13  CD2 PHE C   1      21.320   4.570  44.667  1.00  6.20 LIG 0.01  A 
ENDBRANCH 7 8
ENDBRANCH 6 7
BRANCH 6 14
ATOM     14  N   PHE C   1      24.365   4.261  43.705  1.00 10.26 LIG-0.35  N 
ATOM     15 H    PHE C   1      23.938   4.062  42.986  1.00 10.26 LIG 0.16  HD
ATOM     16  C   ACE C   0      24.967   5.428  43.913  1.00 10.83 LIG 0.21  C 
ATOM     17  CH3 ACE C   0      24.901   6.384  42.755  1.00 14.43 LIG 0.12  C 
ATOM     18 O    ACE C   0      25.491   5.735  44.981  1.00 14.21 LIG-0.27  OA
ENDBRANCH 6 14
ENDBRANCH 4 6
ENDBRANCH 1 2
BRANCH 1 19
ATOM     19  C   HIS C   2      26.095   0.787  40.859  1.00 15.02 LIG 0.24  C 
ATOM     20  N   PRO C   3      27.184   0.471  40.123  1.00 12.04 LIG-0.34  N 
ATOM     21  CA  PRO C   3      27.065   0.385  38.656  1.00 11.10 LIG 0.18  C 
ATOM     22  CD  PRO C   3      28.555   0.184  40.588  1.00 17.75 LIG 0.13  C 
ATOM     23  CB  PRO C   3      28.454  -0.092  38.211  1.00 15.56 LIG 0.04  C 
ATOM     24  CG  PRO C   3      29.370   0.294  39.322  1.00 20.46 LIG 0.02  C 
ATOM     25 O    HIS C   2      25.017   1.046  40.354  1.00  9.69 LIG-0.27  OA
BRANCH 21 26
ATOM     26  C   PRO C   3      25.990  -0.612  38.210  1.00 13.73 LIG 0.24  C 
ATOM     27  N   ALA C   4      24.736  -0.162  38.150  1.00 10.66 LIG-0.35  N 
ATOM     28 H    ALA C   4      24.527   0.667  38.241  1.00 10.66 LIG 0.16  HD
ATOM     29 O    PRO C   3      26.320  -1.758  37.900  1.00 16.34 LIG-0.27  OA
BRANCH 27 30
ATOM     30  CA  ALA C   4      23.587  -1.040  37.924  1.00 15.22 LIG 0.18  C 
ATOM     31  CB  ALA C   4      22.314  -0.350  38.388  1.00 14.26 LIG 0.04  C 
BRANCH 30 32
ATOM     32  C   ALA C   4      23.404  -1.506  36.486  1.00 20.48 LIG 0.28  C 
ATOM     33 O    ALA C   4      22.417  -2.173  36.175  1.00 25.68 LIG-0.27  OA
ATOM     34  N   NH2 C   5      24.331  -1.136  35.612  1.00 12.85 LIG-0.11  N 
ENDBRANCH 30 32
ENDBRANCH 27 30
ENDBRANCH 21 26
ENDBRANCH 1 19
BRANCH 1 35
ATOM     35  CB  HIS C   2      25.852  -0.605  42.909  1.00 13.77 LIG 0.10  C 
BRANCH 35 36
ATOM     36  CG  HIS C   2      26.369  -1.736  42.076  1.00 15.95 LIG 0.06  A 
ATOM     37  CD2 HIS C   2      27.472  -2.509  42.210  1.00 16.64 LIG 0.14  A 
ATOM     38 NE2  HIS C   2      27.461  -3.415  41.175  1.00 23.10 LIG-0.25  NA
ATOM     39  CE1 HIS C   2      26.385  -3.208  40.436  1.00 23.56 LIG 0.23  A 
ATOM     40 ND1  HIS C   2      25.706  -2.203  40.960  1.00 22.80 LIG-0.24  NA
ENDBRANCH 35 36
ENDBRANCH 1 35
TORSDOF 11
ENDMDL
MODEL 36
USER: ADFR SOLUTION from run 3
USER: SCORE 12.083369 LL:  -3.014 LR:  -9.643 RR:   0.000 FEB:  -6.361
USER: RMSD 6.139218
USER: SEED 452353
USER: STATUS no improvement in best in 9 clusters for 5 generations
USER: GENES 13
USER: genes 0 Translation |==|  0.72722 0.46808 0.27765
USER: genes 1 Rotation |==|  0.27299 0.69011 0.65971 0.86989
USER: genes 2 Torsion [CB]-CA--N-[C] |==|  0.77199
USER: genes 3 Torsion [N]-C--CA-[N] |==|  0.12127
USER: genes 4 Torsion [C]-CA--CB-[CG] |==|  0.19311
USER: genes 5 Torsion [CA]-CB--CG-[CD1] |==|  0.19307
USER: genes 6 Torsion [C]-CA--N-[C] |==|  0.17778
USER: genes 7 Torsion [N]-CA--C-[N] |==|  0.22150
USER: genes 8 Torsion [N]-CA--C-[N] |==|  0.25159
USER: genes 9 Torsion [C]-N--CA-[C] |==|  0.71790
USER: genes 10 Torsion [N]-CA--C-[N] |==|  0.97048
USER: genes 11 Torsion [N]-CA--CB-[CG] |==|  0.51197
USER: genes 12 Torsion [CA]-CB--CG-[ND1] |==|  0.74133
ROOT
ATOM      1  CA  HIS C   2      28.959   2.459  38.239  1.00 12.40 LIG 0.18  C 
ENDROOT
BRANCH 1 2
ATOM      2  N   HIS C   2      28.845   1.012  38.003  1.00  9.19 LIG-0.35  N 
ATOM      3 H    HIS C   2      29.546   0.659  37.652  1.00  9.19 LIG 0.16  HD
ATOM      4  C   PHE C   1      27.748   0.325  38.310  1.00 11.27 LIG 0.24  C 
ATOM      5 O    PHE C   1      26.780   0.824  38.898  1.00 15.22 LIG-0.27  OA
BRANCH 4 6
ATOM      6  CA  PHE C   1      27.744  -1.155  37.921  1.00  8.70 LIG 0.18  C 
BRANCH 6 7
ATOM      7  CB  PHE C   1      26.593  -1.878  38.622  1.00  9.29 LIG 0.07  C 
BRANCH 7 8
ATOM      8  CG  PHE C   1      25.233  -1.490  38.117  1.00  9.78 LIG-0.06  A 
ATOM      9  CD1 PHE C   1      24.809  -1.859  36.842  1.00  9.46 LIG 0.01  A 
ATOM     10  CE1 PHE C   1      23.545  -1.488  36.367  1.00  9.12 LIG 0.00  A 
ATOM     11  CZ  PHE C   1      22.693  -0.749  37.177  1.00  8.05 LIG 0.00  A 
ATOM     12  CE2 PHE C   1      23.114  -0.373  38.451  1.00  7.93 LIG 0.00  A 
ATOM     13  CD2 PHE C   1      24.376  -0.749  38.915  1.00  6.20 LIG 0.01  A 
ENDBRANCH 7 8
ENDBRANCH 6 7
BRANCH 6 14
ATOM     14  N   PHE C   1      29.016  -1.790  38.242  1.00 10.26 LIG-0.35  N 
ATOM     15 H    PHE C   1      29.455  -2.076  37.559  1.00 10.26 LIG 0.16  HD
ATOM     16  C   ACE C   0      29.438  -1.902  39.497  1.00 10.83 LIG 0.21  C 
ATOM     17  CH3 ACE C   0      30.742  -2.634  39.658  1.00 14.43 LIG 0.12  C 
ATOM     18 O    ACE C   0      28.848  -1.405  40.454  1.00 14.21 LIG-0.27  OA
ENDBRANCH 6 14
ENDBRANCH 4 6
ENDBRANCH 1 2
BRANCH 1 19
ATOM     19  C   HIS C   2      28.290   2.823  39.563  1.00 15.02 LIG 0.24  C 
ATOM     20  N   PRO C   3      28.968   2.604  40.711  1.00 12.04 LIG-0.34  N 
ATOM     21  CA  PRO C   3      28.377   3.027  41.994  1.00 11.10 LIG 0.18  C 
ATOM     22  CD  PRO C   3      30.287   1.966  40.891  1.00 17.75 LIG 0.13  C 
ATOM     23  CB  PRO C   3      29.475   2.708  43.017  1.00 15.56 LIG 0.04  C 
ATOM     24  CG  PRO C   3      30.317   1.663  42.369  1.00 20.46 LIG 0.02  C 
ATOM     25 O    HIS C   2      27.180   3.326  39.546  1.00  9.69 LIG-0.27  OA
BRANCH 21 26
ATOM     26  C   PRO C   3      28.038   4.521  42.021  1.00 13.73 LIG 0.24  C 
ATOM     27  N   ALA C   4      26.816   4.871  41.621  1.00 10.66 LIG-0.35  N 
ATOM     28 H    ALA C   4      26.191   4.303  41.459  1.00 10.66 LIG 0.16  HD
ATOM     29 O    PRO C   3      28.878   5.324  42.432  1.00 16.34 LIG-0.27  OA
BRANCH 27 30
ATOM     30  CA  ALA C   4      26.415   6.264  41.416  1.00 15.22 LIG 0.18  C 
ATOM     31  CB  ALA C   4      25.649   6.392  40.109  1.00 14.26 LIG 0.04  C 
BRANCH 30 32
ATOM     32  C   ALA C   4      25.584   6.868  42.541  1.00 20.48 LIG 0.28  C 
ATOM     33 O    ALA C   4      25.343   8.075  42.548  1.00 25.68 LIG-0.27  OA
ATOM     34  N   NH2 C   5      25.129   6.034  43.467  1.00 12.85 LIG-0.11  N 
ENDBRANCH 30 32
ENDBRANCH 27 30
ENDBRANCH 21 26
ENDBRANCH 1 19
BRANCH 1 35
ATOM     35  CB  HIS C   2      28.300   3.255  37.111  1.00 13.77 LIG 0.10  C 
BRANCH 35 36
ATOM     36  CG  HIS C   2      28.461   4.738  37.228  1.00 15.95 LIG 0.06  A 
ATOM     37  CD2 HIS C   2      29.437   5.565  36.782  1.00 16.64 LIG 0.14  A 
ATOM     38 NE2  HIS C   2      29.082   6.843  37.148  1.00 23.10 LIG-0.25  NA
ATOM     39  CE1 HIS C   2      27.927   6.800  37.788  1.00 23.56 LIG 0.23  A 
ATOM     40 ND1  HIS C   2      27.528   5.543  37.847  1.00 22.80 LIG-0.24  NA
ENDBRANCH 35 36
ENDBRANCH 1 35
TORSDOF 11
ENDMDL
MODEL 37
USER: ADFR SOLUTION from run 54
USER: SCORE 11.411172 LL:  -2.923 LR:  -9.635 RR:   0.000 FEB:  -6.354
USER: RMSD 2.535676
USER: SEED 53
USER: STATUS no improvement in best in 3 clusters for 5 generations
USER: GENES 13
USER: genes 0 Translation |==|  0.57236 0.46267 0.58856
USER: genes 1 Rotation |==|  0.50905 0.50348 0.32731 0.96913
USER: genes 2 Torsion [CB]-CA--N-[C] |==|  0.23333
USER: genes 3 Torsion [N]-C--CA-[N] |==|  0.35837
USER: genes 4 Torsion [C]-CA--CB-[CG] |==|  0.52234
USER: genes 5 Torsion [CA]-CB--CG-[CD1] |==|  0.70669
USER: genes 6 Torsion [C]-CA--N-[C] |==|  0.75550
USER: genes 7 Torsion [N]-CA--C-[N] |==|  0.87219
USER: genes 8 Torsion [N]-CA--C-[N] |==|  0.47135
USER: genes 9 Torsion [C]-N--CA-[C] |==|  0.76621
USER: genes 10 Torsion [N]-CA--C-[N] |==|  0.06059
USER: genes 11 Torsion [N]-CA--CB-[CG] |==|  0.97840
USER: genes 12 Torsion [CA]-CB--CG-[ND1] |==|  0.73263
ROOT
ATOM      1  CA  HIS C   2      25.939   2.366  44.535  1.00 12.40 LIG 0.18  C 
ENDROOT
BRANCH 1 2
ATOM      2  N   HIS C   2      25.674   2.173  43.102  1.00  9.19 LIG-0.35  N 
ATOM      3 H    HIS C   2      25.269   2.832  42.728  1.00  9.19 LIG 0.16  HD
ATOM      4  C   PHE C   1      26.035   1.068  42.454  1.00 11.27 LIG 0.24  C 
ATOM      5 O    PHE C   1      26.697   0.162  42.978  1.00 15.22 LIG-0.27  OA
BRANCH 4 6
ATOM      6  CA  PHE C   1      25.609   0.971  40.987  1.00  8.70 LIG 0.18  C 
BRANCH 6 7
ATOM      7  CB  PHE C   1      24.495  -0.066  40.832  1.00  9.29 LIG 0.07  C 
BRANCH 7 8
ATOM      8  CG  PHE C   1      24.142  -0.370  39.404  1.00  9.78 LIG-0.06  A 
ATOM      9  CD1 PHE C   1      22.967   0.117  38.837  1.00  9.46 LIG 0.01  A 
ATOM     10  CE1 PHE C   1      22.633  -0.175  37.508  1.00  9.12 LIG 0.00  A 
ATOM     11  CZ  PHE C   1      23.485  -0.955  36.738  1.00  8.05 LIG 0.00  A 
ATOM     12  CE2 PHE C   1      24.660  -1.449  37.302  1.00  7.93 LIG 0.00  A 
ATOM     13  CD2 PHE C   1      24.983  -1.151  38.627  1.00  6.20 LIG 0.01  A 
ENDBRANCH 7 8
ENDBRANCH 6 7
BRANCH 6 14
ATOM     14  N   PHE C   1      26.740   0.638  40.130  1.00 10.26 LIG-0.35  N 
ATOM     15 H    PHE C   1      26.848  -0.205  39.993  1.00 10.26 LIG 0.16  HD
ATOM     16  C   ACE C   0      27.523   1.581  39.617  1.00 10.83 LIG 0.21  C 
ATOM     17  CH3 ACE C   0      28.678   1.064  38.804  1.00 14.43 LIG 0.12  C 
ATOM     18 O    ACE C   0      27.302   2.783  39.743  1.00 14.21 LIG-0.27  OA
ENDBRANCH 6 14
ENDBRANCH 4 6
ENDBRANCH 1 2
BRANCH 1 19
ATOM     19  C   HIS C   2      24.935   3.356  45.121  1.00 15.02 LIG 0.24  C 
ATOM     20  N   PRO C   3      24.684   4.498  44.443  1.00 12.04 LIG-0.34  N 
ATOM     21  CA  PRO C   3      23.655   5.427  44.946  1.00 11.10 LIG 0.18  C 
ATOM     22  CD  PRO C   3      25.320   4.990  43.205  1.00 17.75 LIG 0.13  C 
ATOM     23  CB  PRO C   3      23.598   6.516  43.867  1.00 15.56 LIG 0.04  C 
ATOM     24  CG  PRO C   3      24.915   6.444  43.172  1.00 20.46 LIG 0.02  C 
ATOM     25 O    HIS C   2      24.369   3.077  46.163  1.00  9.69 LIG-0.27  OA
BRANCH 21 26
ATOM     26  C   PRO C   3      22.286   4.759  45.104  1.00 13.73 LIG 0.24  C 
ATOM     27  N   ALA C   4      21.345   5.451  45.748  1.00 10.66 LIG-0.35  N 
ATOM     28 H    ALA C   4      21.438   6.275  45.974  1.00 10.66 LIG 0.16  HD
ATOM     29 O    PRO C   3      22.097   3.644  44.613  1.00 16.34 LIG-0.27  OA
BRANCH 27 30
ATOM     30  CA  ALA C   4      20.058   4.873  46.135  1.00 15.22 LIG 0.18  C 
ATOM     31  CB  ALA C   4      19.522   5.590  47.365  1.00 14.26 LIG 0.04  C 
BRANCH 30 32
ATOM     32  C   ALA C   4      18.991   4.885  45.048  1.00 20.48 LIG 0.28  C 
ATOM     33 O    ALA C   4      17.800   4.835  45.353  1.00 25.68 LIG-0.27  OA
ATOM     34  N   NH2 C   5      19.414   4.977  43.794  1.00 12.85 LIG-0.11  N 
ENDBRANCH 30 32
ENDBRANCH 27 30
ENDBRANCH 21 26
ENDBRANCH 1 19
BRANCH 1 35
ATOM     35  CB  HIS C   2      27.355   2.896  44.766  1.00 13.77 LIG 0.10  C 
BRANCH 35 36
ATOM     36  CG  HIS C   2      28.209   2.926  43.538  1.00 15.95 LIG 0.06  A 
ATOM     37  CD2 HIS C   2      28.331   3.855  42.561  1.00 16.64 LIG 0.14  A 
ATOM     38 NE2  HIS C   2      29.273   3.388  41.673  1.00 23.10 LIG-0.25  NA
ATOM     39  CE1 HIS C   2      29.716   2.217  42.095  1.00 23.56 LIG 0.23  A 
ATOM     40 ND1  HIS C   2      29.094   1.917  43.221  1.00 22.80 LIG-0.24  NA
ENDBRANCH 35 36
ENDBRANCH 1 35
TORSDOF 11
ENDMDL
MODEL 38
USER: ADFR SOLUTION from run 182
USER: SCORE 11.711859 LL:  -2.889 LR:  -9.611 RR:   0.000 FEB:  -6.330
USER: RMSD 5.770187
USER: SEED 181
USER: STATUS no improvement in best in 17 clusters for 5 generations
USER: GENES 13
USER: genes 0 Translation |==|  0.55277 0.36117 0.40915
USER: genes 1 Rotation |==|  0.20568 0.56537 0.89823 0.52281
USER: genes 2 Torsion [CB]-CA--N-[C] |==|  0.14835
USER: genes 3 Torsion [N]-C--CA-[N] |==|  0.30286
USER: genes 4 Torsion [C]-CA--CB-[CG] |==|  0.17514
USER: genes 5 Torsion [CA]-CB--CG-[CD1] |==|  0.04494
USER: genes 6 Torsion [C]-CA--N-[C] |==|  0.78889
USER: genes 7 Torsion [N]-CA--C-[N] |==|  0.16577
USER: genes 8 Torsion [N]-CA--C-[N] |==|  0.36454
USER: genes 9 Torsion [C]-N--CA-[C] |==|  0.69836
USER: genes 10 Torsion [N]-CA--C-[N] |==|  0.36701
USER: genes 11 Torsion [N]-CA--CB-[CG] |==|  0.71337
USER: genes 12 Torsion [CA]-CB--CG-[ND1] |==|  0.35364
ROOT
ATOM      1  CA  HIS C   2      25.557   0.615  40.902  1.00 12.40 LIG 0.18  C 
ENDROOT
BRANCH 1 2
ATOM      2  N   HIS C   2      26.970   0.592  40.496  1.00  9.19 LIG-0.35  N 
ATOM      3 H    HIS C   2      27.522   0.740  41.138  1.00  9.19 LIG 0.16  HD
ATOM      4  C   PHE C   1      27.346   0.362  39.240  1.00 11.27 LIG 0.24  C 
ATOM      5 O    PHE C   1      26.550   0.060  38.341  1.00 15.22 LIG-0.27  OA
BRANCH 4 6
ATOM      6  CA  PHE C   1      28.845   0.461  38.951  1.00  8.70 LIG 0.18  C 
BRANCH 6 7
ATOM      7  CB  PHE C   1      29.090   1.393  37.763  1.00  9.29 LIG 0.07  C 
BRANCH 7 8
ATOM      8  CG  PHE C   1      28.659   2.811  38.004  1.00  9.78 LIG-0.06  A 
ATOM      9  CD1 PHE C   1      28.409   3.276  39.294  1.00  9.46 LIG 0.01  A 
ATOM     10  CE1 PHE C   1      27.998   4.596  39.518  1.00  9.12 LIG 0.00  A 
ATOM     11  CZ  PHE C   1      27.841   5.461  38.443  1.00  8.05 LIG 0.00  A 
ATOM     12  CE2 PHE C   1      28.084   5.001  37.151  1.00  7.93 LIG 0.00  A 
ATOM     13  CD2 PHE C   1      28.495   3.683  36.939  1.00  6.20 LIG 0.01  A 
ENDBRANCH 7 8
ENDBRANCH 6 7
BRANCH 6 14
ATOM     14  N   PHE C   1      29.422  -0.853  38.696  1.00 10.26 LIG-0.35  N 
ATOM     15 H    PHE C   1      29.585  -1.016  37.867  1.00 10.26 LIG 0.16  HD
ATOM     16  C   ACE C   0      29.664  -1.708  39.684  1.00 10.83 LIG 0.21  C 
ATOM     17  CH3 ACE C   0      30.205  -3.041  39.243  1.00 14.43 LIG 0.12  C 
ATOM     18 O    ACE C   0      29.515  -1.427  40.871  1.00 14.21 LIG-0.27  OA
ENDBRANCH 6 14
ENDBRANCH 4 6
ENDBRANCH 1 2
BRANCH 1 19
ATOM     19  C   HIS C   2      25.455   0.759  42.419  1.00 15.02 LIG 0.24  C 
ATOM     20  N   PRO C   3      25.998   1.851  43.002  1.00 12.04 LIG-0.34  N 
ATOM     21  CA  PRO C   3      25.837   2.052  44.454  1.00 11.10 LIG 0.18  C 
ATOM     22  CD  PRO C   3      26.777   2.936  42.373  1.00 17.75 LIG 0.13  C 
ATOM     23  CB  PRO C   3      26.484   3.421  44.699  1.00 15.56 LIG 0.04  C 
ATOM     24  CG  PRO C   3      27.420   3.619  43.556  1.00 20.46 LIG 0.02  C 
ATOM     25 O    HIS C   2      24.864  -0.096  43.055  1.00  9.69 LIG-0.27  OA
BRANCH 21 26
ATOM     26  C   PRO C   3      24.367   2.072  44.884  1.00 13.73 LIG 0.24  C 
ATOM     27  N   ALA C   4      24.031   1.307  45.924  1.00 10.66 LIG-0.35  N 
ATOM     28 H    ALA C   4      24.606   0.901  46.417  1.00 10.66 LIG 0.16  HD
ATOM     29 O    PRO C   3      23.571   2.801  44.288  1.00 16.34 LIG-0.27  OA
BRANCH 27 30
ATOM     30  CA  ALA C   4      22.643   1.080  46.329  1.00 15.22 LIG 0.18  C 
ATOM     31  CB  ALA C   4      22.380  -0.412  46.451  1.00 14.26 LIG 0.04  C 
BRANCH 30 32
ATOM     32  C   ALA C   4      22.228   1.767  47.623  1.00 20.48 LIG 0.28  C 
ATOM     33 O    ALA C   4      22.953   1.700  48.615  1.00 25.68 LIG-0.27  OA
ATOM     34  N   NH2 C   5      21.086   2.443  47.606  1.00 12.85 LIG-0.11  N 
ENDBRANCH 30 32
ENDBRANCH 27 30
ENDBRANCH 21 26
ENDBRANCH 1 19
BRANCH 1 35
ATOM     35  CB  HIS C   2      24.840  -0.666  40.473  1.00 13.77 LIG 0.10  C 
BRANCH 35 36
ATOM     36  CG  HIS C   2      23.964  -0.507  39.270  1.00 15.95 LIG 0.06  A 
ATOM     37  CD2 HIS C   2      22.988   0.389  38.991  1.00 16.64 LIG 0.14  A 
ATOM     38 NE2  HIS C   2      22.513   0.092  37.734  1.00 23.10 LIG-0.25  NA
ATOM     39  CE1 HIS C   2      23.179  -0.945  37.258  1.00 23.56 LIG 0.23  A 
ATOM     40 ND1  HIS C   2      24.064  -1.324  38.163  1.00 22.80 LIG-0.24  NA
ENDBRANCH 35 36
ENDBRANCH 1 35
TORSDOF 11
ENDMDL
MODEL 39
USER: ADFR SOLUTION from run 69
USER: SCORE 11.124153 LL:  -3.290 LR:  -9.597 RR:   0.000 FEB:  -6.316
USER: RMSD 7.023497
USER: SEED 68
USER: STATUS no improvement in best in 9 clusters for 5 generations
USER: GENES 13
USER: genes 0 Translation |==|  0.40377 0.41953 0.70983
USER: genes 1 Rotation |==|  0.24636 0.70986 0.50859 0.87623
USER: genes 2 Torsion [CB]-CA--N-[C] |==|  0.18048
USER: genes 3 Torsion [N]-C--CA-[N] |==|  0.37833
USER: genes 4 Torsion [C]-CA--CB-[CG] |==|  0.07078
USER: genes 5 Torsion [CA]-CB--CG-[CD1] |==|  0.23004
USER: genes 6 Torsion [C]-CA--N-[C] |==|  0.59748
USER: genes 7 Torsion [N]-CA--C-[N] |==|  0.47872
USER: genes 8 Torsion [N]-CA--C-[N] |==|  0.88851
USER: genes 9 Torsion [C]-N--CA-[C] |==|  0.65037
USER: genes 10 Torsion [N]-CA--C-[N] |==|  0.84087
USER: genes 11 Torsion [N]-CA--CB-[CG] |==|  0.67780
USER: genes 12 Torsion [CA]-CB--CG-[ND1] |==|  0.56545
ROOT
ATOM      1  CA  HIS C   2      22.652   1.622  46.991  1.00 12.40 LIG 0.18  C 
ENDROOT
BRANCH 1 2
ATOM      2  N   HIS C   2      21.913   0.355  47.098  1.00  9.19 LIG-0.35  N 
ATOM      3 H    HIS C   2      21.202   0.403  47.578  1.00  9.19 LIG 0.16  HD
ATOM      4  C   PHE C   1      22.324  -0.761  46.499  1.00 11.27 LIG 0.24  C 
ATOM      5 O    PHE C   1      23.299  -0.799  45.737  1.00 15.22 LIG-0.27  OA
BRANCH 4 6
ATOM      6  CA  PHE C   1      21.503  -2.022  46.777  1.00  8.70 LIG 0.18  C 
BRANCH 6 7
ATOM      7  CB  PHE C   1      22.212  -2.890  47.817  1.00  9.29 LIG 0.07  C 
BRANCH 7 8
ATOM      8  CG  PHE C   1      23.124  -2.123  48.731  1.00  9.78 LIG-0.06  A 
ATOM      9  CD1 PHE C   1      22.626  -1.460  49.850  1.00  9.46 LIG 0.01  A 
ATOM     10  CE1 PHE C   1      23.475  -0.736  50.697  1.00  9.12 LIG 0.00  A 
ATOM     11  CZ  PHE C   1      24.835  -0.680  50.425  1.00  8.05 LIG 0.00  A 
ATOM     12  CE2 PHE C   1      25.339  -1.337  49.304  1.00  7.93 LIG 0.00  A 
ATOM     13  CD2 PHE C   1      24.483  -2.056  48.468  1.00  6.20 LIG 0.01  A 
ENDBRANCH 7 8
ENDBRANCH 6 7
BRANCH 6 14
ATOM     14  N   PHE C   1      21.268  -2.780  45.554  1.00 10.26 LIG-0.35  N 
ATOM     15 H    PHE C   1      21.919  -2.760  44.992  1.00 10.26 LIG 0.16  HD
ATOM     16  C   ACE C   0      20.131  -3.438  45.353  1.00 10.83 LIG 0.21  C 
ATOM     17  CH3 ACE C   0      20.028  -4.118  44.016  1.00 14.43 LIG 0.12  C 
ATOM     18 O    ACE C   0      19.250  -3.537  46.203  1.00 14.21 LIG-0.27  OA
ENDBRANCH 6 14
ENDBRANCH 4 6
ENDBRANCH 1 2
BRANCH 1 19
ATOM     19  C   HIS C   2      22.014   2.673  47.897  1.00 15.02 LIG 0.24  C 
ATOM     20  N   PRO C   3      22.644   3.857  48.055  1.00 12.04 LIG-0.34  N 
ATOM     21  CA  PRO C   3      22.004   4.917  48.856  1.00 11.10 LIG 0.18  C 
ATOM     22  CD  PRO C   3      23.954   4.279  47.521  1.00 17.75 LIG 0.13  C 
ATOM     23  CB  PRO C   3      22.961   6.107  48.706  1.00 15.56 LIG 0.04  C 
ATOM     24  CG  PRO C   3      24.275   5.505  48.342  1.00 20.46 LIG 0.02  C 
ATOM     25 O    HIS C   2      20.945   2.425  48.427  1.00  9.69 LIG-0.27  OA
BRANCH 21 26
ATOM     26  C   PRO C   3      20.610   5.284  48.339  1.00 13.73 LIG 0.24  C 
ATOM     27  N   ALA C   4      20.452   5.344  47.016  1.00 10.66 LIG-0.35  N 
ATOM     28 H    ALA C   4      21.052   5.085  46.457  1.00 10.66 LIG 0.16  HD
ATOM     29 O    PRO C   3      19.697   5.475  49.144  1.00 16.34 LIG-0.27  OA
BRANCH 27 30
ATOM     30  CA  ALA C   4      19.238   5.860  46.383  1.00 15.22 LIG 0.18  C 
ATOM     31  CB  ALA C   4      19.537   7.184  45.699  1.00 14.26 LIG 0.04  C 
BRANCH 30 32
ATOM     32  C   ALA C   4      18.583   4.919  45.380  1.00 20.48 LIG 0.28  C 
ATOM     33 O    ALA C   4      17.405   4.592  45.521  1.00 25.68 LIG-0.27  OA
ATOM     34  N   NH2 C   5      19.331   4.510  44.363  1.00 12.85 LIG-0.11  N 
ENDBRANCH 30 32
ENDBRANCH 27 30
ENDBRANCH 21 26
ENDBRANCH 1 19
BRANCH 1 35
ATOM     35  CB  HIS C   2      22.653   2.138  45.551  1.00 13.77 LIG 0.10  C 
BRANCH 35 36
ATOM     36  CG  HIS C   2      24.009   2.200  44.921  1.00 15.95 LIG 0.06  A 
ATOM     37  CD2 HIS C   2      25.144   1.509  45.181  1.00 16.64 LIG 0.14  A 
ATOM     38 NE2  HIS C   2      26.098   1.948  44.291  1.00 23.10 LIG-0.25  NA
ATOM     39  CE1 HIS C   2      25.563   2.870  43.510  1.00 23.56 LIG 0.23  A 
ATOM     40 ND1  HIS C   2      24.302   3.039  43.866  1.00 22.80 LIG-0.24  NA
ENDBRANCH 35 36
ENDBRANCH 1 35
TORSDOF 11
ENDMDL
MODEL 40
USER: ADFR SOLUTION from run 197
USER: SCORE 12.175410 LL:  -3.485 LR:  -9.589 RR:   0.000 FEB:  -6.308
USER: RMSD 2.433898
USER: SEED 196
USER: STATUS no improvement in best in 6 clusters for 5 generations
USER: GENES 13
USER: genes 0 Translation |==|  0.54433 0.52900 0.57997
USER: genes 1 Rotation |==|  0.44801 0.48465 0.57604 0.99120
USER: genes 2 Torsion [CB]-CA--N-[C] |==|  0.52222
USER: genes 3 Torsion [N]-C--CA-[N] |==|  0.20345
USER: genes 4 Torsion [C]-CA--CB-[CG] |==|  0.43727
USER: genes 5 Torsion [CA]-CB--CG-[CD1] |==|  0.20787
USER: genes 6 Torsion [C]-CA--N-[C] |==|  0.76413
USER: genes 7 Torsion [N]-CA--C-[N] |==|  0.39194
USER: genes 8 Torsion [N]-CA--C-[N] |==|  0.25340
USER: genes 9 Torsion [C]-N--CA-[C] |==|  0.14851
USER: genes 10 Torsion [N]-CA--C-[N] |==|  0.11138
USER: genes 11 Torsion [N]-CA--CB-[CG] |==|  0.50106
USER: genes 12 Torsion [CA]-CB--CG-[ND1] |==|  0.75811
ROOT
ATOM      1  CA  HIS C   2      25.392   3.510  44.361  1.00 12.40 LIG 0.18  C 
ENDROOT
BRANCH 1 2
ATOM      2  N   HIS C   2      25.591   2.884  43.046  1.00  9.19 LIG-0.35  N 
ATOM      3 H    HIS C   2      25.939   3.405  42.458  1.00  9.19 LIG 0.16  HD
ATOM      4  C   PHE C   1      25.256   1.619  42.802  1.00 11.27 LIG 0.24  C 
ATOM      5 O    PHE C   1      24.840   0.849  43.678  1.00 15.22 LIG-0.27  OA
BRANCH 4 6
ATOM      6  CA  PHE C   1      25.436   1.135  41.361  1.00  8.70 LIG 0.18  C 
BRANCH 6 7
ATOM      7  CB  PHE C   1      24.659  -0.164  41.144  1.00  9.29 LIG 0.07  C 
BRANCH 7 8
ATOM      8  CG  PHE C   1      24.320  -0.437  39.706  1.00  9.78 LIG-0.06  A 
ATOM      9  CD1 PHE C   1      25.293  -0.875  38.811  1.00  9.46 LIG 0.01  A 
ATOM     10  CE1 PHE C   1      24.980  -1.120  37.468  1.00  9.12 LIG 0.00  A 
ATOM     11  CZ  PHE C   1      23.680  -0.932  37.018  1.00  8.05 LIG 0.00  A 
ATOM     12  CE2 PHE C   1      22.703  -0.489  37.908  1.00  7.93 LIG 0.00  A 
ATOM     13  CD2 PHE C   1      23.027  -0.249  39.244  1.00  6.20 LIG 0.01  A 
ENDBRANCH 7 8
ENDBRANCH 6 7
BRANCH 6 14
ATOM     14  N   PHE C   1      26.846   0.947  41.040  1.00 10.26 LIG-0.35  N 
ATOM     15 H    PHE C   1      27.130   0.141  41.140  1.00 10.26 LIG 0.16  HD
ATOM     16  C   ACE C   0      27.604   1.957  40.628  1.00 10.83 LIG 0.21  C 
ATOM     17  CH3 ACE C   0      29.048   1.605  40.396  1.00 14.43 LIG 0.12  C 
ATOM     18 O    ACE C   0      27.164   3.081  40.398  1.00 14.21 LIG-0.27  OA
ENDBRANCH 6 14
ENDBRANCH 4 6
ENDBRANCH 1 2
BRANCH 1 19
ATOM     19  C   HIS C   2      23.955   3.294  44.828  1.00 15.02 LIG 0.24  C 
ATOM     20  N   PRO C   3      23.733   3.033  46.136  1.00 12.04 LIG-0.34  N 
ATOM     21  CA  PRO C   3      22.347   2.906  46.623  1.00 11.10 LIG 0.18  C 
ATOM     22  CD  PRO C   3      24.722   2.842  47.215  1.00 17.75 LIG 0.13  C 
ATOM     23  CB  PRO C   3      22.516   2.725  48.137  1.00 15.56 LIG 0.04  C 
ATOM     24  CG  PRO C   3      23.904   2.210  48.315  1.00 20.46 LIG 0.02  C 
ATOM     25 O    HIS C   2      23.050   3.390  44.018  1.00  9.69 LIG-0.27  OA
BRANCH 21 26
ATOM     26  C   PRO C   3      21.503   4.149  46.325  1.00 13.73 LIG 0.24  C 
ATOM     27  N   ALA C   4      20.825   4.159  45.176  1.00 10.66 LIG-0.35  N 
ATOM     28 H    ALA C   4      20.756   3.472  44.664  1.00 10.66 LIG 0.16  HD
ATOM     29 O    PRO C   3      21.455   5.061  47.153  1.00 16.34 LIG-0.27  OA
BRANCH 27 30
ATOM     30  CA  ALA C   4      20.131   5.344  44.673  1.00 15.22 LIG 0.18  C 
ATOM     31  CB  ALA C   4      18.918   5.637  45.543  1.00 14.26 LIG 0.04  C 
BRANCH 30 32
ATOM     32  C   ALA C   4      20.986   6.600  44.572  1.00 20.48 LIG 0.28  C 
ATOM     33 O    ALA C   4      20.524   7.689  44.912  1.00 25.68 LIG-0.27  OA
ATOM     34  N   NH2 C   5      22.230   6.446  44.136  1.00 12.85 LIG-0.11  N 
ENDBRANCH 30 32
ENDBRANCH 27 30
ENDBRANCH 21 26
ENDBRANCH 1 19
BRANCH 1 35
ATOM     35  CB  HIS C   2      25.679   5.012  44.305  1.00 13.77 LIG 0.10  C 
BRANCH 35 36
ATOM     36  CG  HIS C   2      25.507   5.721  45.611  1.00 15.95 LIG 0.06  A 
ATOM     37  CD2 HIS C   2      26.400   6.031  46.580  1.00 16.64 LIG 0.14  A 
ATOM     38 NE2  HIS C   2      25.713   6.703  47.564  1.00 23.10 LIG-0.25  NA
ATOM     39  CE1 HIS C   2      24.445   6.806  47.207  1.00 23.56 LIG 0.23  A 
ATOM     40 ND1  HIS C   2      24.294   6.226  46.031  1.00 22.80 LIG-0.24  NA
ENDBRANCH 35 36
ENDBRANCH 1 35
TORSDOF 11
ENDMDL
MODEL 41
USER: ADFR SOLUTION from run 109
USER: SCORE 11.774656 LL:  -3.312 LR:  -9.565 RR:   0.000 FEB:  -6.283
USER: RMSD 7.806619
USER: SEED 108
USER: STATUS searching
USER: GENES 13
USER: genes 0 Translation |==|  0.41368 0.48330 0.72854
USER: genes 1 Rotation |==|  0.55584 0.41302 0.90526 0.77402
USER: genes 2 Torsion [CB]-CA--N-[C] |==|  0.22020
USER: genes 3 Torsion [N]-C--CA-[N] |==|  0.97208
USER: genes 4 Torsion [C]-CA--CB-[CG] |==|  0.98062
USER: genes 5 Torsion [CA]-CB--CG-[CD1] |==|  0.28820
USER: genes 6 Torsion [C]-CA--N-[C] |==|  0.81555
USER: genes 7 Torsion [N]-CA--C-[N] |==|  0.47192
USER: genes 8 Torsion [N]-CA--C-[N] |==|  0.72064
USER: genes 9 Torsion [C]-N--CA-[C] |==|  0.85444
USER: genes 10 Torsion [N]-CA--C-[N] |==|  0.41960
USER: genes 11 Torsion [N]-CA--CB-[CG] |==|  0.70394
USER: genes 12 Torsion [CA]-CB--CG-[ND1] |==|  0.31341
ROOT
ATOM      1  CA  HIS C   2      22.845   2.722  47.370  1.00 12.40 LIG 0.18  C 
ENDROOT
BRANCH 1 2
ATOM      2  N   HIS C   2      23.208   3.387  46.110  1.00  9.19 LIG-0.35  N 
ATOM      3 H    HIS C   2      23.335   2.847  45.453  1.00  9.19 LIG 0.16  HD
ATOM      4  C   PHE C   1      23.327   4.708  46.010  1.00 11.27 LIG 0.24  C 
ATOM      5 O    PHE C   1      23.055   5.483  46.937  1.00 15.22 LIG-0.27  OA
BRANCH 4 6
ATOM      6  CA  PHE C   1      23.801   5.248  44.659  1.00  8.70 LIG 0.18  C 
BRANCH 6 7
ATOM      7  CB  PHE C   1      22.676   6.034  43.984  1.00  9.29 LIG 0.07  C 
BRANCH 7 8
ATOM      8  CG  PHE C   1      21.360   5.951  44.703  1.00  9.78 LIG-0.06  A 
ATOM      9  CD1 PHE C   1      20.895   7.016  45.471  1.00  9.46 LIG 0.01  A 
ATOM     10  CE1 PHE C   1      19.672   6.935  46.150  1.00  9.12 LIG 0.00  A 
ATOM     11  CZ  PHE C   1      18.905   5.782  46.053  1.00  8.05 LIG 0.00  A 
ATOM     12  CE2 PHE C   1      19.367   4.712  45.290  1.00  7.93 LIG 0.00  A 
ATOM     13  CD2 PHE C   1      20.587   4.804  44.617  1.00  6.20 LIG 0.01  A 
ENDBRANCH 7 8
ENDBRANCH 6 7
BRANCH 6 14
ATOM     14  N   PHE C   1      24.262   4.169  43.792  1.00 10.26 LIG-0.35  N 
ATOM     15 H    PHE C   1      23.777   4.041  43.094  1.00 10.26 LIG 0.16  HD
ATOM     16  C   ACE C   0      25.347   3.460  44.085  1.00 10.83 LIG 0.21  C 
ATOM     17  CH3 ACE C   0      25.650   2.348  43.118  1.00 14.43 LIG 0.12  C 
ATOM     18 O    ACE C   0      26.084   3.715  45.034  1.00 14.21 LIG-0.27  OA
ENDBRANCH 6 14
ENDBRANCH 4 6
ENDBRANCH 1 2
BRANCH 1 19
ATOM     19  C   HIS C   2      23.261   1.254  47.322  1.00 15.02 LIG 0.24  C 
ATOM     20  N   PRO C   3      23.201   0.528  48.461  1.00 12.04 LIG-0.34  N 
ATOM     21  CA  PRO C   3      23.516  -0.912  48.419  1.00 11.10 LIG 0.18  C 
ATOM     22  CD  PRO C   3      22.849   0.981  49.821  1.00 17.75 LIG 0.13  C 
ATOM     23  CB  PRO C   3      23.232  -1.382  49.851  1.00 15.56 LIG 0.04  C 
ATOM     24  CG  PRO C   3      23.333  -0.154  50.691  1.00 20.46 LIG 0.02  C 
ATOM     25 O    HIS C   2      23.608   0.772  46.258  1.00  9.69 LIG-0.27  OA
BRANCH 21 26
ATOM     26  C   PRO C   3      22.640  -1.677  47.422  1.00 13.73 LIG 0.24  C 
ATOM     27  N   ALA C   4      21.610  -2.361  47.922  1.00 10.66 LIG-0.35  N 
ATOM     28 H    ALA C   4      21.358  -2.302  48.742  1.00 10.66 LIG 0.16  HD
ATOM     29 O    PRO C   3      22.893  -1.609  46.218  1.00 16.34 LIG-0.27  OA
BRANCH 27 30
ATOM     30  CA  ALA C   4      20.803  -3.282  47.121  1.00 15.22 LIG 0.18  C 
ATOM     31  CB  ALA C   4      19.653  -3.819  47.959  1.00 14.26 LIG 0.04  C 
BRANCH 30 32
ATOM     32  C   ALA C   4      20.248  -2.699  45.829  1.00 20.48 LIG 0.28  C 
ATOM     33 O    ALA C   4      20.032  -1.490  45.742  1.00 25.68 LIG-0.27  OA
ATOM     34  N   NH2 C   5      20.046  -3.544  44.826  1.00 12.85 LIG-0.11  N 
ENDBRANCH 30 32
ENDBRANCH 27 30
ENDBRANCH 21 26
ENDBRANCH 1 19
BRANCH 1 35
ATOM     35  CB  HIS C   2      21.339   2.806  47.622  1.00 13.77 LIG 0.10  C 
BRANCH 35 36
ATOM     36  CG  HIS C   2      20.947   3.769  48.699  1.00 15.95 LIG 0.06  A 
ATOM     37  CD2 HIS C   2      21.185   3.758  50.032  1.00 16.64 LIG 0.14  A 
ATOM     38 NE2  HIS C   2      20.612   4.895  50.554  1.00 23.10 LIG-0.25  NA
ATOM     39  CE1 HIS C   2      20.050   5.581  49.574  1.00 23.56 LIG 0.23  A 
ATOM     40 ND1  HIS C   2      20.241   4.926  48.443  1.00 22.80 LIG-0.24  NA
ENDBRANCH 35 36
ENDBRANCH 1 35
TORSDOF 11
ENDMDL
MODEL 42
USER: ADFR SOLUTION from run 133
USER: SCORE 11.350264 LL:  -2.790 LR:  -9.546 RR:   0.000 FEB:  -6.265
USER: RMSD 3.155399
USER: SEED 132
USER: STATUS no improvement in best in 18 clusters for 5 generations
USER: GENES 13
USER: genes 0 Translation |==|  0.53990 0.38051 0.57749
USER: genes 1 Rotation |==|  0.58749 0.49283 0.25012 0.92409
USER: genes 2 Torsion [CB]-CA--N-[C] |==|  0.23889
USER: genes 3 Torsion [N]-C--CA-[N] |==|  0.13835
USER: genes 4 Torsion [C]-CA--CB-[CG] |==|  0.35029
USER: genes 5 Torsion [CA]-CB--CG-[CD1] |==|  0.94456
USER: genes 6 Torsion [C]-CA--N-[C] |==|  0.16591
USER: genes 7 Torsion [N]-CA--C-[N] |==|  0.87598
USER: genes 8 Torsion [N]-CA--C-[N] |==|  0.45699
USER: genes 9 Torsion [C]-N--CA-[C] |==|  0.81868
USER: genes 10 Torsion [N]-CA--C-[N] |==|  0.93871
USER: genes 11 Torsion [N]-CA--CB-[CG] |==|  0.80205
USER: genes 12 Torsion [CA]-CB--CG-[ND1] |==|  0.80006
ROOT
ATOM      1  CA  HIS C   2      25.306   0.949  44.311  1.00 12.40 LIG 0.18  C 
ENDROOT
BRANCH 1 2
ATOM      2  N   HIS C   2      25.266   1.227  42.868  1.00  9.19 LIG-0.35  N 
ATOM      3 H    HIS C   2      25.202   2.062  42.673  1.00  9.19 LIG 0.16  HD
ATOM      4  C   PHE C   1      25.324   0.260  41.955  1.00 11.27 LIG 0.24  C 
ATOM      5 O    PHE C   1      25.507  -0.930  42.241  1.00 15.22 LIG-0.27  OA
BRANCH 4 6
ATOM      6  CA  PHE C   1      25.178   0.696  40.495  1.00  8.70 LIG 0.18  C 
BRANCH 6 7
ATOM      7  CB  PHE C   1      25.447  -0.488  39.565  1.00  9.29 LIG 0.07  C 
BRANCH 7 8
ATOM      8  CG  PHE C   1      24.344  -0.752  38.581  1.00  9.78 LIG-0.06  A 
ATOM      9  CD1 PHE C   1      23.056  -0.266  38.799  1.00  9.46 LIG 0.01  A 
ATOM     10  CE1 PHE C   1      22.025  -0.521  37.887  1.00  9.12 LIG 0.00  A 
ATOM     11  CZ  PHE C   1      22.285  -1.263  36.742  1.00  8.05 LIG 0.00  A 
ATOM     12  CE2 PHE C   1      23.569  -1.756  36.521  1.00  7.93 LIG 0.00  A 
ATOM     13  CD2 PHE C   1      24.590  -1.495  37.437  1.00  6.20 LIG 0.01  A 
ENDBRANCH 7 8
ENDBRANCH 6 7
BRANCH 6 14
ATOM     14  N   PHE C   1      26.072   1.804  40.183  1.00 10.26 LIG-0.35  N 
ATOM     15 H    PHE C   1      25.674   2.519  39.915  1.00 10.26 LIG 0.16  HD
ATOM     16  C   ACE C   0      27.389   1.690  40.312  1.00 10.83 LIG 0.21  C 
ATOM     17  CH3 ACE C   0      28.169   2.906  39.893  1.00 14.43 LIG 0.12  C 
ATOM     18 O    ACE C   0      27.937   0.697  40.786  1.00 14.21 LIG-0.27  OA
ENDBRANCH 6 14
ENDBRANCH 4 6
ENDBRANCH 1 2
BRANCH 1 19
ATOM     19  C   HIS C   2      24.587   2.059  45.074  1.00 15.02 LIG 0.24  C 
ATOM     20  N   PRO C   3      24.831   3.342  44.730  1.00 12.04 LIG-0.34  N 
ATOM     21  CA  PRO C   3      24.084   4.425  45.395  1.00 11.10 LIG 0.18  C 
ATOM     22  CD  PRO C   3      25.789   3.859  43.732  1.00 17.75 LIG 0.13  C 
ATOM     23  CB  PRO C   3      24.560   5.689  44.666  1.00 15.56 LIG 0.04  C 
ATOM     24  CG  PRO C   3      25.881   5.325  44.081  1.00 20.46 LIG 0.02  C 
ATOM     25 O    HIS C   2      23.795   1.756  45.950  1.00  9.69 LIG-0.27  OA
BRANCH 21 26
ATOM     26  C   PRO C   3      22.567   4.266  45.254  1.00 13.73 LIG 0.24  C 
ATOM     27  N   ALA C   4      21.804   4.994  46.070  1.00 10.66 LIG-0.35  N 
ATOM     28 H    ALA C   4      22.114   5.613  46.580  1.00 10.66 LIG 0.16  HD
ATOM     29 O    PRO C   3      22.116   3.512  44.390  1.00 16.34 LIG-0.27  OA
BRANCH 27 30
ATOM     30  CA  ALA C   4      20.356   4.811  46.178  1.00 15.22 LIG 0.18  C 
ATOM     31  CB  ALA C   4      19.819   5.635  47.338  1.00 14.26 LIG 0.04  C 
BRANCH 30 32
ATOM     32  C   ALA C   4      19.566   5.148  44.920  1.00 20.48 LIG 0.28  C 
ATOM     33 O    ALA C   4      18.437   4.687  44.760  1.00 25.68 LIG-0.27  OA
ATOM     34  N   NH2 C   5      20.144   5.966  44.050  1.00 12.85 LIG-0.11  N 
ENDBRANCH 30 32
ENDBRANCH 27 30
ENDBRANCH 21 26
ENDBRANCH 1 19
BRANCH 1 35
ATOM     35  CB  HIS C   2      26.748   0.851  44.813  1.00 13.77 LIG 0.10  C 
BRANCH 35 36
ATOM     36  CG  HIS C   2      27.473  -0.379  44.365  1.00 15.95 LIG 0.06  A 
ATOM     37  CD2 HIS C   2      28.486  -0.543  43.481  1.00 16.64 LIG 0.14  A 
ATOM     38 NE2  HIS C   2      28.788  -1.885  43.456  1.00 23.10 LIG-0.25  NA
ATOM     39  CE1 HIS C   2      27.992  -2.519  44.299  1.00 23.56 LIG 0.23  A 
ATOM     40 ND1  HIS C   2      27.192  -1.634  44.864  1.00 22.80 LIG-0.24  NA
ENDBRANCH 35 36
ENDBRANCH 1 35
TORSDOF 11
ENDMDL
MODEL 43
USER: ADFR SOLUTION from run 35
USER: SCORE 12.027441 LL:  -3.231 LR:  -9.547 RR:   0.000 FEB:  -6.266
USER: RMSD 9.173554
USER: SEED 34
USER: STATUS no improvement in best in 10 clusters for 5 generations
USER: GENES 13
USER: genes 0 Translation |==|  0.38577 0.33856 0.67976
USER: genes 1 Rotation |==|  0.82291 0.79980 0.37956 0.70333
USER: genes 2 Torsion [CB]-CA--N-[C] |==|  0.83889
USER: genes 3 Torsion [N]-C--CA-[N] |==|  0.44111
USER: genes 4 Torsion [C]-CA--CB-[CG] |==|  0.26631
USER: genes 5 Torsion [CA]-CB--CG-[CD1] |==|  0.71273
USER: genes 6 Torsion [C]-CA--N-[C] |==|  0.56106
USER: genes 7 Torsion [N]-CA--C-[N] |==|  0.31112
USER: genes 8 Torsion [N]-CA--C-[N] |==|  0.26434
USER: genes 9 Torsion [C]-N--CA-[C] |==|  0.16573
USER: genes 10 Torsion [N]-CA--C-[N] |==|  0.12122
USER: genes 11 Torsion [N]-CA--CB-[CG] |==|  0.89216
USER: genes 12 Torsion [CA]-CB--CG-[ND1] |==|  0.76401
ROOT
ATOM      1  CA  HIS C   2      22.300   0.225  46.382  1.00 12.40 LIG 0.18  C 
ENDROOT
BRANCH 1 2
ATOM      2  N   HIS C   2      21.692   1.344  47.117  1.00  9.19 LIG-0.35  N 
ATOM      3 H    HIS C   2      20.982   1.660  46.750  1.00  9.19 LIG 0.16  HD
ATOM      4  C   PHE C   1      22.207   1.816  48.249  1.00 11.27 LIG 0.24  C 
ATOM      5 O    PHE C   1      23.178   1.298  48.818  1.00 15.22 LIG-0.27  OA
BRANCH 4 6
ATOM      6  CA  PHE C   1      21.517   3.043  48.850  1.00  8.70 LIG 0.18  C 
BRANCH 6 7
ATOM      7  CB  PHE C   1      21.943   4.305  48.099  1.00  9.29 LIG 0.07  C 
BRANCH 7 8
ATOM      8  CG  PHE C   1      20.988   4.721  47.018  1.00  9.78 LIG-0.06  A 
ATOM      9  CD1 PHE C   1      21.276   4.484  45.676  1.00  9.46 LIG 0.01  A 
ATOM     10  CE1 PHE C   1      20.389   4.881  44.667  1.00  9.12 LIG 0.00  A 
ATOM     11  CZ  PHE C   1      19.200   5.516  45.004  1.00  8.05 LIG 0.00  A 
ATOM     12  CE2 PHE C   1      18.909   5.760  46.344  1.00  7.93 LIG 0.00  A 
ATOM     13  CD2 PHE C   1      19.800   5.359  47.342  1.00  6.20 LIG 0.01  A 
ENDBRANCH 7 8
ENDBRANCH 6 7
BRANCH 6 14
ATOM     14  N   PHE C   1      21.812   3.171  50.272  1.00 10.26 LIG-0.35  N 
ATOM     15 H    PHE C   1      22.527   2.766  50.526  1.00 10.26 LIG 0.16  HD
ATOM     16  C   ACE C   0      21.021   3.863  51.085  1.00 10.83 LIG 0.21  C 
ATOM     17  CH3 ACE C   0      21.436   3.846  52.530  1.00 14.43 LIG 0.12  C 
ATOM     18 O    ACE C   0      20.055   4.514  50.693  1.00 14.21 LIG-0.27  OA
ENDBRANCH 6 14
ENDBRANCH 4 6
ENDBRANCH 1 2
BRANCH 1 19
ATOM     19  C   HIS C   2      22.278  -1.036  47.243  1.00 15.02 LIG 0.24  C 
ATOM     20  N   PRO C   3      21.481  -2.060  46.867  1.00 12.04 LIG-0.34  N 
ATOM     21  CA  PRO C   3      21.509  -3.318  47.636  1.00 11.10 LIG 0.18  C 
ATOM     22  CD  PRO C   3      20.529  -2.118  45.740  1.00 17.75 LIG 0.13  C 
ATOM     23  CB  PRO C   3      20.571  -4.241  46.846  1.00 15.56 LIG 0.04  C 
ATOM     24  CG  PRO C   3      19.685  -3.325  46.073  1.00 20.46 LIG 0.02  C 
ATOM     25 O    HIS C   2      22.997  -1.093  48.225  1.00  9.69 LIG-0.27  OA
BRANCH 21 26
ATOM     26  C   PRO C   3      22.912  -3.926  47.718  1.00 13.73 LIG 0.24  C 
ATOM     27  N   ALA C   4      23.634  -3.637  48.801  1.00 10.66 LIG-0.35  N 
ATOM     28 H    ALA C   4      23.314  -3.227  49.486  1.00 10.66 LIG 0.16  HD
ATOM     29 O    PRO C   3      23.303  -4.670  46.816  1.00 16.34 LIG-0.27  OA
BRANCH 27 30
ATOM     30  CA  ALA C   4      25.049  -3.989  48.932  1.00 15.22 LIG 0.18  C 
ATOM     31  CB  ALA C   4      25.204  -5.502  48.923  1.00 14.26 LIG 0.04  C 
BRANCH 30 32
ATOM     32  C   ALA C   4      25.964  -3.389  47.873  1.00 20.48 LIG 0.28  C 
ATOM     33 O    ALA C   4      26.816  -4.089  47.327  1.00 25.68 LIG-0.27  OA
ATOM     34  N   NH2 C   5      25.771  -2.112  47.566  1.00 12.85 LIG-0.11  N 
ENDBRANCH 30 32
ENDBRANCH 27 30
ENDBRANCH 21 26
ENDBRANCH 1 19
BRANCH 1 35
ATOM     35  CB  HIS C   2      23.747   0.541  45.997  1.00 13.77 LIG 0.10  C 
BRANCH 35 36
ATOM     36  CG  HIS C   2      23.975   1.958  45.570  1.00 15.95 LIG 0.06  A 
ATOM     37  CD2 HIS C   2      24.420   3.034  46.260  1.00 16.64 LIG 0.14  A 
ATOM     38 NE2  HIS C   2      24.458   4.091  45.379  1.00 23.10 LIG-0.25  NA
ATOM     39  CE1 HIS C   2      24.055   3.674  44.192  1.00 23.56 LIG 0.23  A 
ATOM     40 ND1  HIS C   2      23.762   2.390  44.278  1.00 22.80 LIG-0.24  NA
ENDBRANCH 35 36
ENDBRANCH 1 35
TORSDOF 11
ENDMDL
MODEL 44
USER: ADFR SOLUTION from run 189
USER: SCORE 10.962175 LL:  -3.101 LR:  -9.530 RR:   0.000 FEB:  -6.249
USER: RMSD 9.471506
USER: SEED 188
USER: STATUS no improvement in best in 15 clusters for 5 generations
USER: GENES 13
USER: genes 0 Translation |==|  0.49888 0.30911 0.36843
USER: genes 1 Rotation |==|  0.46845 0.07223 0.74698 0.57085
USER: genes 2 Torsion [CB]-CA--N-[C] |==|  0.43165
USER: genes 3 Torsion [N]-C--CA-[N] |==|  0.92860
USER: genes 4 Torsion [C]-CA--CB-[CG] |==|  0.19830
USER: genes 5 Torsion [CA]-CB--CG-[CD1] |==|  0.04494
USER: genes 6 Torsion [C]-CA--N-[C] |==|  0.72404
USER: genes 7 Torsion [N]-CA--C-[N] |==|  0.89565
USER: genes 8 Torsion [N]-CA--C-[N] |==|  0.38072
USER: genes 9 Torsion [C]-N--CA-[C] |==|  0.16612
USER: genes 10 Torsion [N]-CA--C-[N] |==|  0.09565
USER: genes 11 Torsion [N]-CA--CB-[CG] |==|  0.46567
USER: genes 12 Torsion [CA]-CB--CG-[ND1] |==|  0.27049
ROOT
ATOM      1  CA  HIS C   2      24.506  -0.283  40.078  1.00 12.40 LIG 0.18  C 
ENDROOT
BRANCH 1 2
ATOM      2  N   HIS C   2      24.990   0.704  41.054  1.00  9.19 LIG-0.35  N 
ATOM      3 H    HIS C   2      25.070   1.500  40.739  1.00  9.19 LIG 0.16  HD
ATOM      4  C   PHE C   1      25.276   0.379  42.313  1.00 11.27 LIG 0.24  C 
ATOM      5 O    PHE C   1      25.072  -0.748  42.783  1.00 15.22 LIG-0.27  OA
BRANCH 4 6
ATOM      6  CA  PHE C   1      25.857   1.493  43.187  1.00  8.70 LIG 0.18  C 
BRANCH 6 7
ATOM      7  CB  PHE C   1      24.748   2.139  44.019  1.00  9.29 LIG 0.07  C 
BRANCH 7 8
ATOM      8  CG  PHE C   1      24.229   1.265  45.124  1.00  9.78 LIG-0.06  A 
ATOM      9  CD1 PHE C   1      24.944   0.147  45.549  1.00  9.46 LIG 0.01  A 
ATOM     10  CE1 PHE C   1      24.455  -0.674  46.573  1.00  9.12 LIG 0.00  A 
ATOM     11  CZ  PHE C   1      23.244  -0.371  47.182  1.00  8.05 LIG 0.00  A 
ATOM     12  CE2 PHE C   1      22.523   0.743  46.757  1.00  7.93 LIG 0.00  A 
ATOM     13  CD2 PHE C   1      23.020   1.555  45.736  1.00  6.20 LIG 0.01  A 
ENDBRANCH 7 8
ENDBRANCH 6 7
BRANCH 6 14
ATOM     14  N   PHE C   1      26.539   2.497  42.378  1.00 10.26 LIG-0.35  N 
ATOM     15 H    PHE C   1      26.017   3.073  42.010  1.00 10.26 LIG 0.16  HD
ATOM     16  C   ACE C   0      27.860   2.496  42.240  1.00 10.83 LIG 0.21  C 
ATOM     17  CH3 ACE C   0      28.398   3.562  41.327  1.00 14.43 LIG 0.12  C 
ATOM     18 O    ACE C   0      28.601   1.726  42.848  1.00 14.21 LIG-0.27  OA
ENDBRANCH 6 14
ENDBRANCH 4 6
ENDBRANCH 1 2
BRANCH 1 19
ATOM     19  C   HIS C   2      25.689  -1.027  39.461  1.00 15.02 LIG 0.24  C 
ATOM     20  N   PRO C   3      26.822  -0.338  39.205  1.00 12.04 LIG-0.34  N 
ATOM     21  CA  PRO C   3      28.004  -1.054  38.690  1.00 11.10 LIG 0.18  C 
ATOM     22  CD  PRO C   3      27.075   1.108  39.367  1.00 17.75 LIG 0.13  C 
ATOM     23  CB  PRO C   3      29.085   0.033  38.634  1.00 15.56 LIG 0.04  C 
ATOM     24  CG  PRO C   3      28.338   1.321  38.568  1.00 20.46 LIG 0.02  C 
ATOM     25 O    HIS C   2      25.587  -2.222  39.246  1.00  9.69 LIG-0.27  OA
BRANCH 21 26
ATOM     26  C   PRO C   3      28.444  -2.199  39.608  1.00 13.73 LIG 0.24  C 
ATOM     27  N   ALA C   4      28.785  -3.347  39.022  1.00 10.66 LIG-0.35  N 
ATOM     28 H    ALA C   4      28.872  -3.435  38.171  1.00 10.66 LIG 0.16  HD
ATOM     29 O    PRO C   3      28.496  -2.012  40.825  1.00 16.34 LIG-0.27  OA
BRANCH 27 30
ATOM     30  CA  ALA C   4      29.044  -4.576  39.772  1.00 15.22 LIG 0.18  C 
ATOM     31  CB  ALA C   4      30.253  -4.383  40.674  1.00 14.26 LIG 0.04  C 
BRANCH 30 32
ATOM     32  C   ALA C   4      27.875  -5.081  40.609  1.00 20.48 LIG 0.28  C 
ATOM     33 O    ALA C   4      28.083  -5.615  41.698  1.00 25.68 LIG-0.27  OA
ATOM     34  N   NH2 C   5      26.658  -4.889  40.117  1.00 12.85 LIG-0.11  N 
ENDBRANCH 30 32
ENDBRANCH 27 30
ENDBRANCH 21 26
ENDBRANCH 1 19
BRANCH 1 35
ATOM     35  CB  HIS C   2      23.705   0.393  38.963  1.00 13.77 LIG 0.10  C 
BRANCH 35 36
ATOM     36  CG  HIS C   2      23.427  -0.487  37.785  1.00 15.95 LIG 0.06  A 
ATOM     37  CD2 HIS C   2      24.196  -0.821  36.722  1.00 16.64 LIG 0.14  A 
ATOM     38 NE2  HIS C   2      23.455  -1.677  35.939  1.00 23.10 LIG-0.25  NA
ATOM     39  CE1 HIS C   2      22.277  -1.865  36.508  1.00 23.56 LIG 0.23  A 
ATOM     40 ND1  HIS C   2      22.235  -1.162  37.625  1.00 22.80 LIG-0.24  NA
ENDBRANCH 35 36
ENDBRANCH 1 35
TORSDOF 11
ENDMDL
MODEL 45
USER: ADFR SOLUTION from run 128
USER: SCORE 11.038168 LL:  -2.597 LR:  -9.518 RR:   0.000 FEB:  -6.237
USER: RMSD 7.557571
USER: SEED 127
USER: STATUS no improvement in best in 49 clusters for 5 generations
USER: GENES 13
USER: genes 0 Translation |==|  0.42428 0.50414 0.61561
USER: genes 1 Rotation |==|  0.48023 0.07795 0.23283 0.50991
USER: genes 2 Torsion [CB]-CA--N-[C] |==|  0.78295
USER: genes 3 Torsion [N]-C--CA-[N] |==|  0.44325
USER: genes 4 Torsion [C]-CA--CB-[CG] |==|  0.38957
USER: genes 5 Torsion [CA]-CB--CG-[CD1] |==|  0.33420
USER: genes 6 Torsion [C]-CA--N-[C] |==|  0.81979
USER: genes 7 Torsion [N]-CA--C-[N] |==|  0.14884
USER: genes 8 Torsion [N]-CA--C-[N] |==|  0.75131
USER: genes 9 Torsion [C]-N--CA-[C] |==|  0.52222
USER: genes 10 Torsion [N]-CA--C-[N] |==|  0.33689
USER: genes 11 Torsion [N]-CA--CB-[CG] |==|  0.69980
USER: genes 12 Torsion [CA]-CB--CG-[ND1] |==|  0.93631
ROOT
ATOM      1  CA  HIS C   2      23.052   3.081  45.083  1.00 12.40 LIG 0.18  C 
ENDROOT
BRANCH 1 2
ATOM      2  N   HIS C   2      23.047   1.638  45.365  1.00  9.19 LIG-0.35  N 
ATOM      3 H    HIS C   2      22.420   1.205  44.967  1.00  9.19 LIG 0.16  HD
ATOM      4  C   PHE C   1      23.941   1.067  46.168  1.00 11.27 LIG 0.24  C 
ATOM      5 O    PHE C   1      24.894   1.682  46.665  1.00 15.22 LIG-0.27  OA
BRANCH 4 6
ATOM      6  CA  PHE C   1      23.754  -0.428  46.439  1.00  8.70 LIG 0.18  C 
BRANCH 6 7
ATOM      7  CB  PHE C   1      22.636  -0.639  47.461  1.00  9.29 LIG 0.07  C 
BRANCH 7 8
ATOM      8  CG  PHE C   1      21.748  -1.811  47.158  1.00  9.78 LIG-0.06  A 
ATOM      9  CD1 PHE C   1      21.620  -2.866  48.060  1.00  9.46 LIG 0.01  A 
ATOM     10  CE1 PHE C   1      20.799  -3.964  47.773  1.00  9.12 LIG 0.00  A 
ATOM     11  CZ  PHE C   1      20.095  -4.005  46.577  1.00  8.05 LIG 0.00  A 
ATOM     12  CE2 PHE C   1      20.223  -2.956  45.669  1.00  7.93 LIG 0.00  A 
ATOM     13  CD2 PHE C   1      21.043  -1.865  45.966  1.00  6.20 LIG 0.01  A 
ENDBRANCH 7 8
ENDBRANCH 6 7
BRANCH 6 14
ATOM     14  N   PHE C   1      24.993  -1.039  46.903  1.00 10.26 LIG-0.35  N 
ATOM     15 H    PHE C   1      24.963  -1.339  47.709  1.00 10.26 LIG 0.16  HD
ATOM     16  C   ACE C   0      26.065  -1.113  46.122  1.00 10.83 LIG 0.21  C 
ATOM     17  CH3 ACE C   0      27.277  -1.721  46.774  1.00 14.43 LIG 0.12  C 
ATOM     18 O    ACE C   0      26.066  -0.767  44.943  1.00 14.21 LIG-0.27  OA
ENDBRANCH 6 14
ENDBRANCH 4 6
ENDBRANCH 1 2
BRANCH 1 19
ATOM     19  C   HIS C   2      24.482   3.561  44.849  1.00 15.02 LIG 0.24  C 
ATOM     20  N   PRO C   3      25.232   2.926  43.921  1.00 12.04 LIG-0.34  N 
ATOM     21  CA  PRO C   3      26.586   3.426  43.619  1.00 11.10 LIG 0.18  C 
ATOM     22  CD  PRO C   3      24.886   1.736  43.118  1.00 17.75 LIG 0.13  C 
ATOM     23  CB  PRO C   3      27.052   2.525  42.468  1.00 15.56 LIG 0.04  C 
ATOM     24  CG  PRO C   3      26.226   1.289  42.583  1.00 20.46 LIG 0.02  C 
ATOM     25 O    HIS C   2      24.896   4.516  45.482  1.00  9.69 LIG-0.27  OA
BRANCH 21 26
ATOM     26  C   PRO C   3      26.586   4.894  43.181  1.00 13.73 LIG 0.24  C 
ATOM     27  N   ALA C   4      26.448   5.137  41.877  1.00 10.66 LIG-0.35  N 
ATOM     28 H    ALA C   4      26.253   4.528  41.302  1.00 10.66 LIG 0.16  HD
ATOM     29 O    PRO C   3      26.680   5.779  44.034  1.00 16.34 LIG-0.27  OA
BRANCH 27 30
ATOM     30  CA  ALA C   4      26.615   6.469  41.294  1.00 15.22 LIG 0.18  C 
ATOM     31  CB  ALA C   4      28.053   6.930  41.471  1.00 14.26 LIG 0.04  C 
BRANCH 30 32
ATOM     32  C   ALA C   4      26.232   6.583  39.825  1.00 20.48 LIG 0.28  C 
ATOM     33 O    ALA C   4      26.778   5.864  38.989  1.00 25.68 LIG-0.27  OA
ATOM     34  N   NH2 C   5      25.284   7.459  39.517  1.00 12.85 LIG-0.11  N 
ENDBRANCH 30 32
ENDBRANCH 27 30
ENDBRANCH 21 26
ENDBRANCH 1 19
BRANCH 1 35
ATOM     35  CB  HIS C   2      22.444   3.871  46.244  1.00 13.77 LIG 0.10  C 
BRANCH 35 36
ATOM     36  CG  HIS C   2      21.093   4.447  45.956  1.00 15.95 LIG 0.06  A 
ATOM     37  CD2 HIS C   2      20.101   4.849  46.786  1.00 16.64 LIG 0.14  A 
ATOM     38 NE2  HIS C   2      19.076   5.315  45.996  1.00 23.10 LIG-0.25  NA
ATOM     39  CE1 HIS C   2      19.431   5.209  44.728  1.00 23.56 LIG 0.23  A 
ATOM     40 ND1  HIS C   2      20.645   4.692  44.675  1.00 22.80 LIG-0.24  NA
ENDBRANCH 35 36
ENDBRANCH 1 35
TORSDOF 11
ENDMDL
MODEL 46
USER: ADFR SOLUTION from run 181
USER: SCORE 10.899774 LL:  -3.355 LR:  -9.513 RR:   0.000 FEB:  -6.231
USER: RMSD 9.310561
USER: SEED 180
USER: STATUS no improvement in best in 15 clusters for 5 generations
USER: GENES 13
USER: genes 0 Translation |==|  0.53739 0.36462 0.47459
USER: genes 1 Rotation |==|  0.14142 0.15995 0.44442 0.55192
USER: genes 2 Torsion [CB]-CA--N-[C] |==|  0.23272
USER: genes 3 Torsion [N]-C--CA-[N] |==|  0.60453
USER: genes 4 Torsion [C]-CA--CB-[CG] |==|  0.57911
USER: genes 5 Torsion [CA]-CB--CG-[CD1] |==|  0.79729
USER: genes 6 Torsion [C]-CA--N-[C] |==|  0.68429
USER: genes 7 Torsion [N]-CA--C-[N] |==|  0.37954
USER: genes 8 Torsion [N]-CA--C-[N] |==|  0.26351
USER: genes 9 Torsion [C]-N--CA-[C] |==|  0.55012
USER: genes 10 Torsion [N]-CA--C-[N] |==|  0.48884
USER: genes 11 Torsion [N]-CA--CB-[CG] |==|  0.47086
USER: genes 12 Torsion [CA]-CB--CG-[ND1] |==|  0.77312
ROOT
ATOM      1  CA  HIS C   2      25.257   0.675  42.227  1.00 12.40 LIG 0.18  C 
ENDROOT
BRANCH 1 2
ATOM      2  N   HIS C   2      24.869   0.228  43.574  1.00  9.19 LIG-0.35  N 
ATOM      3 H    HIS C   2      25.050  -0.596  43.736  1.00  9.19 LIG 0.16  HD
ATOM      4  C   PHE C   1      24.288   1.040  44.453  1.00 11.27 LIG 0.24  C 
ATOM      5 O    PHE C   1      24.112   2.248  44.244  1.00 15.22 LIG-0.27  OA
BRANCH 4 6
ATOM      6  CA  PHE C   1      23.857   0.409  45.779  1.00  8.70 LIG 0.18  C 
BRANCH 6 7
ATOM      7  CB  PHE C   1      23.751  -1.109  45.627  1.00  9.29 LIG 0.07  C 
BRANCH 7 8
ATOM      8  CG  PHE C   1      22.750  -1.744  46.549  1.00  9.78 LIG-0.06  A 
ATOM      9  CD1 PHE C   1      23.010  -1.870  47.912  1.00  9.46 LIG 0.01  A 
ATOM     10  CE1 PHE C   1      22.080  -2.471  48.771  1.00  9.12 LIG 0.00  A 
ATOM     11  CZ  PHE C   1      20.878  -2.945  48.262  1.00  8.05 LIG 0.00  A 
ATOM     12  CE2 PHE C   1      20.616  -2.827  46.899  1.00  7.93 LIG 0.00  A 
ATOM     13  CD2 PHE C   1      21.549  -2.225  46.053  1.00  6.20 LIG 0.01  A 
ENDBRANCH 7 8
ENDBRANCH 6 7
BRANCH 6 14
ATOM     14  N   PHE C   1      22.592   0.966  46.243  1.00 10.26 LIG-0.35  N 
ATOM     15 H    PHE C   1      21.916   0.778  45.745  1.00 10.26 LIG 0.16  HD
ATOM     16  C   ACE C   0      22.521   1.700  47.348  1.00 10.83 LIG 0.21  C 
ATOM     17  CH3 ACE C   0      21.153   2.246  47.653  1.00 14.43 LIG 0.12  C 
ATOM     18 O    ACE C   0      23.476   1.881  48.100  1.00 14.21 LIG-0.27  OA
ENDBRANCH 6 14
ENDBRANCH 4 6
ENDBRANCH 1 2
BRANCH 1 19
ATOM     19  C   HIS C   2      25.315  -0.521  41.280  1.00 15.02 LIG 0.24  C 
ATOM     20  N   PRO C   3      24.785  -0.391  40.043  1.00 12.04 LIG-0.34  N 
ATOM     21  CA  PRO C   3      24.905  -1.504  39.083  1.00 11.10 LIG 0.18  C 
ATOM     22  CD  PRO C   3      24.058   0.760  39.472  1.00 17.75 LIG 0.13  C 
ATOM     23  CB  PRO C   3      24.290  -0.936  37.798  1.00 15.56 LIG 0.04  C 
ATOM     24  CG  PRO C   3      23.397   0.169  38.250  1.00 20.46 LIG 0.02  C 
ATOM     25 O    HIS C   2      25.859  -1.545  41.653  1.00  9.69 LIG-0.27  OA
BRANCH 21 26
ATOM     26  C   PRO C   3      26.361  -1.917  38.842  1.00 13.73 LIG 0.24  C 
ATOM     27  N   ALA C   4      26.832  -2.927  39.573  1.00 10.66 LIG-0.35  N 
ATOM     28 H    ALA C   4      26.337  -3.415  40.079  1.00 10.66 LIG 0.16  HD
ATOM     29 O    PRO C   3      27.019  -1.334  37.978  1.00 16.34 LIG-0.27  OA
BRANCH 27 30
ATOM     30  CA  ALA C   4      28.245  -3.308  39.586  1.00 15.22 LIG 0.18  C 
ATOM     31  CB  ALA C   4      29.042  -2.297  40.396  1.00 14.26 LIG 0.04  C 
BRANCH 30 32
ATOM     32  C   ALA C   4      28.532  -4.707  40.115  1.00 20.48 LIG 0.28  C 
ATOM     33 O    ALA C   4      27.612  -5.406  40.537  1.00 25.68 LIG-0.27  OA
ATOM     34  N   NH2 C   5      29.792  -5.120  40.067  1.00 12.85 LIG-0.11  N 
ENDBRANCH 30 32
ENDBRANCH 27 30
ENDBRANCH 21 26
ENDBRANCH 1 19
BRANCH 1 35
ATOM     35  CB  HIS C   2      26.624   1.361  42.248  1.00 13.77 LIG 0.10  C 
BRANCH 35 36
ATOM     36  CG  HIS C   2      27.202   1.624  40.893  1.00 15.95 LIG 0.06  A 
ATOM     37  CD2 HIS C   2      27.233   2.749  40.141  1.00 16.64 LIG 0.14  A 
ATOM     38 NE2  HIS C   2      27.905   2.442  38.980  1.00 23.10 LIG-0.25  NA
ATOM     39  CE1 HIS C   2      28.278   1.174  39.024  1.00 23.56 LIG 0.23  A 
ATOM     40 ND1  HIS C   2      27.870   0.658  40.169  1.00 22.80 LIG-0.24  NA
ENDBRANCH 35 36
ENDBRANCH 1 35
TORSDOF 11
ENDMDL
MODEL 47
USER: ADFR SOLUTION from run 10
USER: SCORE 11.781233 LL:  -3.250 LR:  -9.511 RR:   0.000 FEB:  -6.230
USER: RMSD 6.832325
USER: SEED 604283
USER: STATUS no improvement in best in 46 clusters for 5 generations
USER: GENES 13
USER: genes 0 Translation |==|  0.39802 0.54615 0.65279
USER: genes 1 Rotation |==|  0.13141 0.56223 0.50586 0.83201
USER: genes 2 Torsion [CB]-CA--N-[C] |==|  0.13937
USER: genes 3 Torsion [N]-C--CA-[N] |==|  0.86667
USER: genes 4 Torsion [C]-CA--CB-[CG] |==|  0.51095
USER: genes 5 Torsion [CA]-CB--CG-[CD1] |==|  0.45319
USER: genes 6 Torsion [C]-CA--N-[C] |==|  0.82554
USER: genes 7 Torsion [N]-CA--C-[N] |==|  0.22568
USER: genes 8 Torsion [N]-CA--C-[N] |==|  0.90230
USER: genes 9 Torsion [C]-N--CA-[C] |==|  0.79714
USER: genes 10 Torsion [N]-CA--C-[N] |==|  0.44338
USER: genes 11 Torsion [N]-CA--CB-[CG] |==|  0.55703
USER: genes 12 Torsion [CA]-CB--CG-[ND1] |==|  0.37350
ROOT
ATOM      1  CA  HIS C   2      22.539   3.806  45.836  1.00 12.40 LIG 0.18  C 
ENDROOT
BRANCH 1 2
ATOM      2  N   HIS C   2      22.362   2.445  46.364  1.00  9.19 LIG-0.35  N 
ATOM      3 H    HIS C   2      21.603   2.313  46.746  1.00  9.19 LIG 0.16  HD
ATOM      4  C   PHE C   1      23.302   1.510  46.252  1.00 11.27 LIG 0.24  C 
ATOM      5 O    PHE C   1      24.354   1.681  45.621  1.00 15.22 LIG-0.27  OA
BRANCH 4 6
ATOM      6  CA  PHE C   1      23.010   0.170  46.931  1.00  8.70 LIG 0.18  C 
BRANCH 6 7
ATOM      7  CB  PHE C   1      21.982  -0.618  46.117  1.00  9.29 LIG 0.07  C 
BRANCH 7 8
ATOM      8  CG  PHE C   1      21.561  -1.910  46.755  1.00  9.78 LIG-0.06  A 
ATOM      9  CD1 PHE C   1      20.405  -2.570  46.344  1.00  9.46 LIG 0.01  A 
ATOM     10  CE1 PHE C   1      20.008  -3.771  46.945  1.00  9.12 LIG 0.00  A 
ATOM     11  CZ  PHE C   1      20.776  -4.320  47.963  1.00  8.05 LIG 0.00  A 
ATOM     12  CE2 PHE C   1      21.931  -3.661  48.382  1.00  7.93 LIG 0.00  A 
ATOM     13  CD2 PHE C   1      22.318  -2.466  47.775  1.00  6.20 LIG 0.01  A 
ENDBRANCH 7 8
ENDBRANCH 6 7
BRANCH 6 14
ATOM     14  N   PHE C   1      22.541   0.361  48.298  1.00 10.26 LIG-0.35  N 
ATOM     15 H    PHE C   1      21.741   0.080  48.443  1.00 10.26 LIG 0.16  HD
ATOM     16  C   ACE C   0      23.310   0.927  49.222  1.00 10.83 LIG 0.21  C 
ATOM     17  CH3 ACE C   0      22.653   1.102  50.564  1.00 14.43 LIG 0.12  C 
ATOM     18 O    ACE C   0      24.483   1.236  49.027  1.00 14.21 LIG-0.27  OA
ENDBRANCH 6 14
ENDBRANCH 4 6
ENDBRANCH 1 2
BRANCH 1 19
ATOM     19  C   HIS C   2      21.220   4.571  45.915  1.00 15.02 LIG 0.24  C 
ATOM     20  N   PRO C   3      20.866   5.128  47.094  1.00 12.04 LIG-0.34  N 
ATOM     21  CA  PRO C   3      19.639   5.942  47.171  1.00 11.10 LIG 0.18  C 
ATOM     22  CD  PRO C   3      21.557   5.040  48.396  1.00 17.75 LIG 0.13  C 
ATOM     23  CB  PRO C   3      19.649   6.469  48.612  1.00 15.56 LIG 0.04  C 
ATOM     24  CG  PRO C   3      20.505   5.513  49.370  1.00 20.46 LIG 0.02  C 
ATOM     25 O    HIS C   2      20.540   4.681  44.910  1.00  9.69 LIG-0.27  OA
BRANCH 21 26
ATOM     26  C   PRO C   3      19.643   7.107  46.176  1.00 13.73 LIG 0.24  C 
ATOM     27  N   ALA C   4      20.817   7.693  45.936  1.00 10.66 LIG-0.35  N 
ATOM     28 H    ALA C   4      21.566   7.384  46.222  1.00 10.66 LIG 0.16  HD
ATOM     29 O    PRO C   3      18.592   7.432  45.621  1.00 16.34 LIG-0.27  OA
BRANCH 27 30
ATOM     30  CA  ALA C   4      20.945   8.926  45.158  1.00 15.22 LIG 0.18  C 
ATOM     31  CB  ALA C   4      22.310   9.549  45.403  1.00 14.26 LIG 0.04  C 
BRANCH 30 32
ATOM     32  C   ALA C   4      20.731   8.770  43.659  1.00 20.48 LIG 0.28  C 
ATOM     33 O    ALA C   4      20.820   7.659  43.137  1.00 25.68 LIG-0.27  OA
ATOM     34  N   NH2 C   5      20.424   9.867  42.978  1.00 12.85 LIG-0.11  N 
ENDBRANCH 30 32
ENDBRANCH 27 30
ENDBRANCH 21 26
ENDBRANCH 1 19
BRANCH 1 35
ATOM     35  CB  HIS C   2      23.012   3.775  44.382  1.00 13.77 LIG 0.10  C 
BRANCH 35 36
ATOM     36  CG  HIS C   2      23.671   5.038  43.922  1.00 15.95 LIG 0.06  A 
ATOM     37  CD2 HIS C   2      23.329   6.336  44.099  1.00 16.64 LIG 0.14  A 
ATOM     38 NE2  HIS C   2      24.294   7.097  43.479  1.00 23.10 LIG-0.25  NA
ATOM     39  CE1 HIS C   2      25.197   6.292  42.947  1.00 23.56 LIG 0.23  A 
ATOM     40 ND1  HIS C   2      24.848   5.045  43.202  1.00 22.80 LIG-0.24  NA
ENDBRANCH 35 36
ENDBRANCH 1 35
TORSDOF 11
ENDMDL
MODEL 48
USER: ADFR SOLUTION from run 80
USER: SCORE 12.423584 LL:  -3.289 LR:  -9.507 RR:   0.000 FEB:  -6.226
USER: RMSD 7.546313
USER: SEED 79
USER: STATUS no improvement in best in 7 clusters for 5 generations
USER: GENES 13
USER: genes 0 Translation |==|  0.64311 0.27197 0.25697
USER: genes 1 Rotation |==|  0.87117 0.39010 0.22707 0.66021
USER: genes 2 Torsion [CB]-CA--N-[C] |==|  0.54543
USER: genes 3 Torsion [N]-C--CA-[N] |==|  0.98829
USER: genes 4 Torsion [C]-CA--CB-[CG] |==|  0.24043
USER: genes 5 Torsion [CA]-CB--CG-[CD1] |==|  0.29382
USER: genes 6 Torsion [C]-CA--N-[C] |==|  0.77128
USER: genes 7 Torsion [N]-CA--C-[N] |==|  0.43988
USER: genes 8 Torsion [N]-CA--C-[N] |==|  0.33818
USER: genes 9 Torsion [C]-N--CA-[C] |==|  0.59747
USER: genes 10 Torsion [N]-CA--C-[N] |==|  0.43111
USER: genes 11 Torsion [N]-CA--CB-[CG] |==|  0.23859
USER: genes 12 Torsion [CA]-CB--CG-[ND1] |==|  0.83902
ROOT
ATOM      1  CA  HIS C   2      27.319  -0.924  37.821  1.00 12.40 LIG 0.18  C 
ENDROOT
BRANCH 1 2
ATOM      2  N   HIS C   2      28.653  -0.309  37.872  1.00  9.19 LIG-0.35  N 
ATOM      3 H    HIS C   2      29.299  -0.875  37.907  1.00  9.19 LIG 0.16  HD
ATOM      4  C   PHE C   1      28.830   1.010  37.866  1.00 11.27 LIG 0.24  C 
ATOM      5 O    PHE C   1      27.901   1.816  37.725  1.00 15.22 LIG-0.27  OA
BRANCH 4 6
ATOM      6  CA  PHE C   1      30.271   1.503  38.017  1.00  8.70 LIG 0.18  C 
BRANCH 6 7
ATOM      7  CB  PHE C   1      30.687   2.298  36.778  1.00  9.29 LIG 0.07  C 
BRANCH 7 8
ATOM      8  CG  PHE C   1      30.322   3.753  36.838  1.00  9.78 LIG-0.06  A 
ATOM      9  CD1 PHE C   1      31.293   4.727  37.063  1.00  9.46 LIG 0.01  A 
ATOM     10  CE1 PHE C   1      30.952   6.084  37.129  1.00  9.12 LIG 0.00  A 
ATOM     11  CZ  PHE C   1      29.629   6.471  36.962  1.00  8.05 LIG 0.00  A 
ATOM     12  CE2 PHE C   1      28.653   5.501  36.742  1.00  7.93 LIG 0.00  A 
ATOM     13  CD2 PHE C   1      29.004   4.151  36.677  1.00  6.20 LIG 0.01  A 
ENDBRANCH 7 8
ENDBRANCH 6 7
BRANCH 6 14
ATOM     14  N   PHE C   1      31.188   0.392  38.242  1.00 10.26 LIG-0.35  N 
ATOM     15 H    PHE C   1      31.596   0.118  37.537  1.00 10.26 LIG 0.16  HD
ATOM     16  C   ACE C   0      31.358  -0.134  39.451  1.00 10.83 LIG 0.21  C 
ATOM     17  CH3 ACE C   0      32.293  -1.310  39.499  1.00 14.43 LIG 0.12  C 
ATOM     18 O    ACE C   0      30.841   0.329  40.466  1.00 14.21 LIG-0.27  OA
ENDBRANCH 6 14
ENDBRANCH 4 6
ENDBRANCH 1 2
BRANCH 1 19
ATOM     19  C   HIS C   2      26.365  -0.175  38.749  1.00 15.02 LIG 0.24  C 
ATOM     20  N   PRO C   3      25.036  -0.277  38.528  1.00 12.04 LIG-0.34  N 
ATOM     21  CA  PRO C   3      24.095   0.367  39.463  1.00 11.10 LIG 0.18  C 
ATOM     22  CD  PRO C   3      24.338  -0.975  37.430  1.00 17.75 LIG 0.13  C 
ATOM     23  CB  PRO C   3      22.719  -0.063  38.939  1.00 15.56 LIG 0.04  C 
ATOM     24  CG  PRO C   3      22.939  -0.412  37.507  1.00 20.46 LIG 0.02  C 
ATOM     25 O    HIS C   2      26.826   0.469  39.675  1.00  9.69 LIG-0.27  OA
BRANCH 21 26
ATOM     26  C   PRO C   3      24.288  -0.102  40.908  1.00 13.73 LIG 0.24  C 
ATOM     27  N   ALA C   4      24.563   0.834  41.817  1.00 10.66 LIG-0.35  N 
ATOM     28 H    ALA C   4      24.528   1.677  41.651  1.00 10.66 LIG 0.16  HD
ATOM     29 O    PRO C   3      24.153  -1.297  41.179  1.00 16.34 LIG-0.27  OA
BRANCH 27 30
ATOM     30  CA  ALA C   4      24.954   0.518  43.191  1.00 15.22 LIG 0.18  C 
ATOM     31  CB  ALA C   4      26.468   0.425  43.287  1.00 14.26 LIG 0.04  C 
BRANCH 30 32
ATOM     32  C   ALA C   4      24.447   1.492  44.247  1.00 20.48 LIG 0.28  C 
ATOM     33 O    ALA C   4      24.153   2.644  43.931  1.00 25.68 LIG-0.27  OA
ATOM     34  N   NH2 C   5      24.320   1.025  45.483  1.00 12.85 LIG-0.11  N 
ENDBRANCH 30 32
ENDBRANCH 27 30
ENDBRANCH 21 26
ENDBRANCH 1 19
BRANCH 1 35
ATOM     35  CB  HIS C   2      27.373  -2.393  38.241  1.00 13.77 LIG 0.10  C 
BRANCH 35 36
ATOM     36  CG  HIS C   2      27.275  -2.615  39.718  1.00 15.95 LIG 0.06  A 
ATOM     37  CD2 HIS C   2      26.407  -3.352  40.451  1.00 16.64 LIG 0.14  A 
ATOM     38 NE2  HIS C   2      26.779  -3.220  41.770  1.00 23.10 LIG-0.25  NA
ATOM     39  CE1 HIS C   2      27.840  -2.436  41.840  1.00 23.56 LIG 0.23  A 
ATOM     40 ND1  HIS C   2      28.163  -2.060  40.615  1.00 22.80 LIG-0.24  NA
ENDBRANCH 35 36
ENDBRANCH 1 35
TORSDOF 11
ENDMDL
MODEL 49
USER: ADFR SOLUTION from run 28
USER: SCORE 11.289250 LL:  -3.042 LR:  -9.474 RR:   0.000 FEB:  -6.193
USER: RMSD 4.985225
USER: SEED 27
USER: STATUS no improvement in best in 12 clusters for 5 generations
USER: GENES 13
USER: genes 0 Translation |==|  0.50317 0.41084 0.53504
USER: genes 1 Rotation |==|  0.63105 0.37100 0.13140 0.78341
USER: genes 2 Torsion [CB]-CA--N-[C] |==|  0.17810
USER: genes 3 Torsion [N]-C--CA-[N] |==|  0.17694
USER: genes 4 Torsion [C]-CA--CB-[CG] |==|  0.22441
USER: genes 5 Torsion [CA]-CB--CG-[CD1] |==|  0.95259
USER: genes 6 Torsion [C]-CA--N-[C] |==|  0.76293
USER: genes 7 Torsion [N]-CA--C-[N] |==|  0.83006
USER: genes 8 Torsion [N]-CA--C-[N] |==|  0.84434
USER: genes 9 Torsion [C]-N--CA-[C] |==|  0.52089
USER: genes 10 Torsion [N]-CA--C-[N] |==|  0.47222
USER: genes 11 Torsion [N]-CA--CB-[CG] |==|  0.56505
USER: genes 12 Torsion [CA]-CB--CG-[ND1] |==|  0.95507
ROOT
ATOM      1  CA  HIS C   2      24.590   1.472  43.452  1.00 12.40 LIG 0.18  C 
ENDROOT
BRANCH 1 2
ATOM      2  N   HIS C   2      25.313   1.473  42.171  1.00  9.19 LIG-0.35  N 
ATOM      3 H    HIS C   2      25.695   2.220  41.985  1.00  9.19 LIG 0.16  HD
ATOM      4  C   PHE C   1      25.363   0.404  41.381  1.00 11.27 LIG 0.24  C 
ATOM      5 O    PHE C   1      24.887  -0.694  41.698  1.00 15.22 LIG-0.27  OA
BRANCH 4 6
ATOM      6  CA  PHE C   1      26.075   0.585  40.038  1.00  8.70 LIG 0.18  C 
BRANCH 6 7
ATOM      7  CB  PHE C   1      25.908  -0.673  39.183  1.00  9.29 LIG 0.07  C 
BRANCH 7 8
ATOM      8  CG  PHE C   1      24.589  -0.753  38.470  1.00  9.78 LIG-0.06  A 
ATOM      9  CD1 PHE C   1      23.512   0.039  38.862  1.00  9.46 LIG 0.01  A 
ATOM     10  CE1 PHE C   1      22.279  -0.043  38.204  1.00  9.12 LIG 0.00  A 
ATOM     11  CZ  PHE C   1      22.123  -0.921  37.139  1.00  8.05 LIG 0.00  A 
ATOM     12  CE2 PHE C   1      23.195  -1.720  36.746  1.00  7.93 LIG 0.00  A 
ATOM     13  CD2 PHE C   1      24.420  -1.629  37.409  1.00  6.20 LIG 0.01  A 
ENDBRANCH 7 8
ENDBRANCH 6 7
BRANCH 6 14
ATOM     14  N   PHE C   1      27.488   0.891  40.227  1.00 10.26 LIG-0.35  N 
ATOM     15 H    PHE C   1      28.008   0.206  40.196  1.00 10.26 LIG 0.16  HD
ATOM     16  C   ACE C   0      27.907   2.135  40.428  1.00 10.83 LIG 0.21  C 
ATOM     17  CH3 ACE C   0      29.386   2.270  40.663  1.00 14.43 LIG 0.12  C 
ATOM     18 O    ACE C   0      27.165   3.114  40.375  1.00 14.21 LIG-0.27  OA
ENDBRANCH 6 14
ENDBRANCH 4 6
ENDBRANCH 1 2
BRANCH 1 19
ATOM     19  C   HIS C   2      24.615   2.871  44.064  1.00 15.02 LIG 0.24  C 
ATOM     20  N   PRO C   3      25.811   3.418  44.374  1.00 12.04 LIG-0.34  N 
ATOM     21  CA  PRO C   3      25.864   4.799  44.887  1.00 11.10 LIG 0.18  C 
ATOM     22  CD  PRO C   3      27.153   2.809  44.277  1.00 17.75 LIG 0.13  C 
ATOM     23  CB  PRO C   3      27.367   5.078  45.011  1.00 15.56 LIG 0.04  C 
ATOM     24  CG  PRO C   3      28.005   3.734  45.112  1.00 20.46 LIG 0.02  C 
ATOM     25 O    HIS C   2      23.563   3.463  44.229  1.00  9.69 LIG-0.27  OA
BRANCH 21 26
ATOM     26  C   PRO C   3      25.211   5.805  43.933  1.00 13.73 LIG 0.24  C 
ATOM     27  N   ALA C   4      25.676   5.844  42.684  1.00 10.66 LIG-0.35  N 
ATOM     28 H    ALA C   4      26.233   5.270  42.370  1.00 10.66 LIG 0.16  HD
ATOM     29 O    PRO C   3      24.280   6.505  44.337  1.00 16.34 LIG-0.27  OA
BRANCH 27 30
ATOM     30  CA  ALA C   4      25.282   6.873  41.721  1.00 15.22 LIG 0.18  C 
ATOM     31  CB  ALA C   4      25.755   8.236  42.203  1.00 14.26 LIG 0.04  C 
BRANCH 30 32
ATOM     32  C   ALA C   4      25.776   6.649  40.298  1.00 20.48 LIG 0.28  C 
ATOM     33 O    ALA C   4      26.583   5.751  40.061  1.00 25.68 LIG-0.27  OA
ATOM     34  N   NH2 C   5      25.277   7.440  39.357  1.00 12.85 LIG-0.11  N 
ENDBRANCH 30 32
ENDBRANCH 27 30
ENDBRANCH 21 26
ENDBRANCH 1 19
BRANCH 1 35
ATOM     35  CB  HIS C   2      25.216   0.484  44.437  1.00 13.77 LIG 0.10  C 
BRANCH 35 36
ATOM     36  CG  HIS C   2      24.285   0.005  45.506  1.00 15.95 LIG 0.06  A 
ATOM     37  CD2 HIS C   2      24.377  -1.034  46.368  1.00 16.64 LIG 0.14  A 
ATOM     38 NE2  HIS C   2      23.248  -1.012  47.153  1.00 23.10 LIG-0.25  NA
ATOM     39  CE1 HIS C   2      22.493   0.010  46.788  1.00 23.56 LIG 0.23  A 
ATOM     40 ND1  HIS C   2      23.097   0.643  45.798  1.00 22.80 LIG-0.24  NA
ENDBRANCH 35 36
ENDBRANCH 1 35
TORSDOF 11
ENDMDL
MODEL 50
USER: ADFR SOLUTION from run 157
USER: SCORE 10.557205 LL:  -2.505 LR:  -9.456 RR:   0.000 FEB:  -6.174
USER: RMSD 9.147754
USER: SEED 156
USER: STATUS no improvement in best in 60 clusters for 5 generations
USER: GENES 13
USER: genes 0 Translation |==|  0.55621 0.39030 0.59672
USER: genes 1 Rotation |==|  0.93367 0.42394 0.73593 0.52197
USER: genes 2 Torsion [CB]-CA--N-[C] |==|  0.57642
USER: genes 3 Torsion [N]-C--CA-[N] |==|  0.60146
USER: genes 4 Torsion [C]-CA--CB-[CG] |==|  0.40180
USER: genes 5 Torsion [CA]-CB--CG-[CD1] |==|  0.11386
USER: genes 6 Torsion [C]-CA--N-[C] |==|  0.65814
USER: genes 7 Torsion [N]-CA--C-[N] |==|  0.39291
USER: genes 8 Torsion [N]-CA--C-[N] |==|  0.47351
USER: genes 9 Torsion [C]-N--CA-[C] |==|  0.62441
USER: genes 10 Torsion [N]-CA--C-[N] |==|  0.11021
USER: genes 11 Torsion [N]-CA--CB-[CG] |==|  0.01786
USER: genes 12 Torsion [CA]-CB--CG-[ND1] |==|  0.17519
ROOT
ATOM      1  CA  HIS C   2      25.624   1.118  44.701  1.00 12.40 LIG 0.18  C 
ENDROOT
BRANCH 1 2
ATOM      2  N   HIS C   2      24.567   1.783  45.477  1.00  9.19 LIG-0.35  N 
ATOM      3 H    HIS C   2      24.430   1.437  46.252  1.00  9.19 LIG 0.16  HD
ATOM      4  C   PHE C   1      23.889   2.827  45.007  1.00 11.27 LIG 0.24  C 
ATOM      5 O    PHE C   1      24.153   3.375  43.928  1.00 15.22 LIG-0.27  OA
BRANCH 4 6
ATOM      6  CA  PHE C   1      22.756   3.354  45.891  1.00  8.70 LIG 0.18  C 
BRANCH 6 7
ATOM      7  CB  PHE C   1      22.314   2.273  46.878  1.00  9.29 LIG 0.07  C 
BRANCH 7 8
ATOM      8  CG  PHE C   1      21.908   2.805  48.222  1.00  9.78 LIG-0.06  A 
ATOM      9  CD1 PHE C   1      21.151   3.970  48.333  1.00  9.46 LIG 0.01  A 
ATOM     10  CE1 PHE C   1      20.780   4.472  49.587  1.00  9.12 LIG 0.00  A 
ATOM     11  CZ  PHE C   1      21.163   3.799  50.740  1.00  8.05 LIG 0.00  A 
ATOM     12  CE2 PHE C   1      21.924   2.636  50.635  1.00  7.93 LIG 0.00  A 
ATOM     13  CD2 PHE C   1      22.287   2.144  49.380  1.00  6.20 LIG 0.01  A 
ENDBRANCH 7 8
ENDBRANCH 6 7
BRANCH 6 14
ATOM     14  N   PHE C   1      21.626   3.805  45.087  1.00 10.26 LIG-0.35  N 
ATOM     15 H    PHE C   1      21.301   3.206  44.562  1.00 10.26 LIG 0.16  HD
ATOM     16  C   ACE C   0      21.158   5.045  45.181  1.00 10.83 LIG 0.21  C 
ATOM     17  CH3 ACE C   0      20.028   5.363  44.242  1.00 14.43 LIG 0.12  C 
ATOM     18 O    ACE C   0      21.570   5.860  46.004  1.00 14.21 LIG-0.27  OA
ENDBRANCH 6 14
ENDBRANCH 4 6
ENDBRANCH 1 2
BRANCH 1 19
ATOM     19  C   HIS C   2      25.305   1.201  43.210  1.00 15.02 LIG 0.24  C 
ATOM     20  N   PRO C   3      26.320   1.410  42.343  1.00 12.04 LIG-0.34  N 
ATOM     21  CA  PRO C   3      26.047   1.408  40.894  1.00 11.10 LIG 0.18  C 
ATOM     22  CD  PRO C   3      27.745   1.658  42.640  1.00 17.75 LIG 0.13  C 
ATOM     23  CB  PRO C   3      27.438   1.567  40.267  1.00 15.56 LIG 0.04  C 
ATOM     24  CG  PRO C   3      28.274   2.193  41.330  1.00 20.46 LIG 0.02  C 
ATOM     25 O    HIS C   2      24.153   1.048  42.843  1.00  9.69 LIG-0.27  OA
BRANCH 21 26
ATOM     26  C   PRO C   3      25.393   0.106  40.421  1.00 13.73 LIG 0.24  C 
ATOM     27  N   ALA C   4      24.929   0.081  39.171  1.00 10.66 LIG-0.35  N 
ATOM     28 H    ALA C   4      25.077   0.708  38.600  1.00 10.66 LIG 0.16  HD
ATOM     29 O    PRO C   3      25.348  -0.860  41.184  1.00 16.34 LIG-0.27  OA
BRANCH 27 30
ATOM     30  CA  ALA C   4      24.121  -1.019  38.644  1.00 15.22 LIG 0.18  C 
ATOM     31  CB  ALA C   4      22.654  -0.617  38.631  1.00 14.26 LIG 0.04  C 
BRANCH 30 32
ATOM     32  C   ALA C   4      24.516  -1.504  37.256  1.00 20.48 LIG 0.28  C 
ATOM     33 O    ALA C   4      23.647  -1.787  36.432  1.00 25.68 LIG-0.27  OA
ATOM     34  N   NH2 C   5      25.815  -1.574  36.992  1.00 12.85 LIG-0.11  N 
ENDBRANCH 30 32
ENDBRANCH 27 30
ENDBRANCH 21 26
ENDBRANCH 1 19
BRANCH 1 35
ATOM     35  CB  HIS C   2      25.759  -0.352  45.101  1.00 13.77 LIG 0.10  C 
BRANCH 35 36
ATOM     36  CG  HIS C   2      24.713  -0.828  46.060  1.00 15.95 LIG 0.06  A 
ATOM     37  CD2 HIS C   2      24.809  -1.270  47.336  1.00 16.64 LIG 0.14  A 
ATOM     38 NE2  HIS C   2      23.533  -1.566  47.759  1.00 23.10 LIG-0.25  NA
ATOM     39  CE1 HIS C   2      22.686  -1.308  46.778  1.00 23.56 LIG 0.23  A 
ATOM     40 ND1  HIS C   2      23.371  -0.858  45.743  1.00 22.80 LIG-0.24  NA
ENDBRANCH 35 36
ENDBRANCH 1 35
TORSDOF 11
ENDMDL
MODEL 51
USER: ADFR SOLUTION from run 90
USER: SCORE 11.636737 LL:  -3.297 LR:  -9.452 RR:   0.000 FEB:  -6.170
USER: RMSD 7.546428
USER: SEED 89
USER: STATUS no improvement in best in 17 clusters for 5 generations
USER: GENES 13
USER: genes 0 Translation |==|  0.31229 0.52879 0.79301
USER: genes 1 Rotation |==|  0.44750 0.23834 0.16606 0.75934
USER: genes 2 Torsion [CB]-CA--N-[C] |==|  0.81667
USER: genes 3 Torsion [N]-C--CA-[N] |==|  0.42563
USER: genes 4 Torsion [C]-CA--CB-[CG] |==|  0.36954
USER: genes 5 Torsion [CA]-CB--CG-[CD1] |==|  0.99448
USER: genes 6 Torsion [C]-CA--N-[C] |==|  0.84684
USER: genes 7 Torsion [N]-CA--C-[N] |==|  0.19171
USER: genes 8 Torsion [N]-CA--C-[N] |==|  0.92674
USER: genes 9 Torsion [C]-N--CA-[C] |==|  0.55808
USER: genes 10 Torsion [N]-CA--C-[N] |==|  0.46764
USER: genes 11 Torsion [N]-CA--CB-[CG] |==|  0.53975
USER: genes 12 Torsion [CA]-CB--CG-[ND1] |==|  0.20048
ROOT
ATOM      1  CA  HIS C   2      20.868   3.507  48.675  1.00 12.40 LIG 0.18  C 
ENDROOT
BRANCH 1 2
ATOM      2  N   HIS C   2      21.169   2.348  47.822  1.00  9.19 LIG-0.35  N 
ATOM      3 H    HIS C   2      20.484   1.866  47.630  1.00  9.19 LIG 0.16  HD
ATOM      4  C   PHE C   1      22.400   2.081  47.392  1.00 11.27 LIG 0.24  C 
ATOM      5 O    PHE C   1      23.365   2.830  47.598  1.00 15.22 LIG-0.27  OA
BRANCH 4 6
ATOM      6  CA  PHE C   1      22.574   0.790  46.589  1.00  8.70 LIG 0.18  C 
BRANCH 6 7
ATOM      7  CB  PHE C   1      22.753  -0.397  47.537  1.00  9.29 LIG 0.07  C 
BRANCH 7 8
ATOM      8  CG  PHE C   1      21.904  -1.586  47.190  1.00  9.78 LIG-0.06  A 
ATOM      9  CD1 PHE C   1      21.016  -1.545  46.117  1.00  9.46 LIG 0.01  A 
ATOM     10  CE1 PHE C   1      20.218  -2.651  45.799  1.00  9.12 LIG 0.00  A 
ATOM     11  CZ  PHE C   1      20.312  -3.810  46.558  1.00  8.05 LIG 0.00  A 
ATOM     12  CE2 PHE C   1      21.194  -3.855  47.635  1.00  7.93 LIG 0.00  A 
ATOM     13  CD2 PHE C   1      21.986  -2.748  47.942  1.00  6.20 LIG 0.01  A 
ENDBRANCH 7 8
ENDBRANCH 6 7
BRANCH 6 14
ATOM     14  N   PHE C   1      23.704   0.886  45.673  1.00 10.26 LIG-0.35  N 
ATOM     15 H    PHE C   1      24.289   0.262  45.762  1.00 10.26 LIG 0.16  HD
ATOM     16  C   ACE C   0      23.794   1.870  44.784  1.00 10.83 LIG 0.21  C 
ATOM     17  CH3 ACE C   0      25.049   1.855  43.956  1.00 14.43 LIG 0.12  C 
ATOM     18 O    ACE C   0      22.905   2.699  44.603  1.00 14.21 LIG-0.27  OA
ENDBRANCH 6 14
ENDBRANCH 4 6
ENDBRANCH 1 2
BRANCH 1 19
ATOM     19  C   HIS C   2      21.368   4.786  48.010  1.00 15.02 LIG 0.24  C 
ATOM     20  N   PRO C   3      20.745   5.219  46.892  1.00 12.04 LIG-0.34  N 
ATOM     21  CA  PRO C   3      21.157   6.497  46.282  1.00 11.10 LIG 0.18  C 
ATOM     22  CD  PRO C   3      19.652   4.571  46.140  1.00 17.75 LIG 0.13  C 
ATOM     23  CB  PRO C   3      20.162   6.680  45.128  1.00 15.56 LIG 0.04  C 
ATOM     24  CG  PRO C   3      19.665   5.308  44.823  1.00 20.46 LIG 0.02  C 
ATOM     25 O    HIS C   2      22.294   5.394  48.519  1.00  9.69 LIG-0.27  OA
BRANCH 21 26
ATOM     26  C   PRO C   3      21.063   7.672  47.260  1.00 13.73 LIG 0.24  C 
ATOM     27  N   ALA C   4      20.179   7.564  48.252  1.00 10.66 LIG-0.35  N 
ATOM     28 H    ALA C   4      19.752   6.839  48.427  1.00 10.66 LIG 0.16  HD
ATOM     29 O    PRO C   3      21.812   8.640  47.116  1.00 16.34 LIG-0.27  OA
BRANCH 27 30
ATOM     30  CA  ALA C   4      19.847   8.674  49.146  1.00 15.22 LIG 0.18  C 
ATOM     31  CB  ALA C   4      18.909   9.640  48.440  1.00 14.26 LIG 0.04  C 
BRANCH 30 32
ATOM     32  C   ALA C   4      19.233   8.269  50.480  1.00 20.48 LIG 0.28  C 
ATOM     33 O    ALA C   4      18.875   7.106  50.664  1.00 25.68 LIG-0.27  OA
ATOM     34  N   NH2 C   5      19.138   9.211  51.409  1.00 12.85 LIG-0.11  N 
ENDBRANCH 30 32
ENDBRANCH 27 30
ENDBRANCH 21 26
ENDBRANCH 1 19
BRANCH 1 35
ATOM     35  CB  HIS C   2      21.528   3.366  50.048  1.00 13.77 LIG 0.10  C 
BRANCH 35 36
ATOM     36  CG  HIS C   2      21.008   4.316  51.081  1.00 15.95 LIG 0.06  A 
ATOM     37  CD2 HIS C   2      21.561   5.423  51.631  1.00 16.64 LIG 0.14  A 
ATOM     38 NE2  HIS C   2      20.645   5.933  52.522  1.00 23.10 LIG-0.25  NA
ATOM     39  CE1 HIS C   2      19.568   5.167  52.514  1.00 23.56 LIG 0.23  A 
ATOM     40 ND1  HIS C   2      19.759   4.187  51.650  1.00 22.80 LIG-0.24  NA
ENDBRANCH 35 36
ENDBRANCH 1 35
TORSDOF 11
ENDMDL
MODEL 52
USER: ADFR SOLUTION from run 149
USER: SCORE 11.527165 LL:  -2.462 LR:  -9.437 RR:   0.000 FEB:  -6.155
USER: RMSD 8.041650
USER: SEED 148
USER: STATUS no improvement in best in 17 clusters for 5 generations
USER: GENES 13
USER: genes 0 Translation |==|  0.41130 0.50593 0.64271
USER: genes 1 Rotation |==|  0.54496 0.05459 0.28977 0.57344
USER: genes 2 Torsion [CB]-CA--N-[C] |==|  0.13333
USER: genes 3 Torsion [N]-C--CA-[N] |==|  0.41956
USER: genes 4 Torsion [C]-CA--CB-[CG] |==|  0.71943
USER: genes 5 Torsion [CA]-CB--CG-[CD1] |==|  0.78294
USER: genes 6 Torsion [C]-CA--N-[C] |==|  0.62455
USER: genes 7 Torsion [N]-CA--C-[N] |==|  0.14642
USER: genes 8 Torsion [N]-CA--C-[N] |==|  0.50208
USER: genes 9 Torsion [C]-N--CA-[C] |==|  0.73400
USER: genes 10 Torsion [N]-CA--C-[N] |==|  0.98967
USER: genes 11 Torsion [N]-CA--CB-[CG] |==|  0.61165
USER: genes 12 Torsion [CA]-CB--CG-[ND1] |==|  0.98381
ROOT
ATOM      1  CA  HIS C   2      22.798   3.112  45.632  1.00 12.40 LIG 0.18  C 
ENDROOT
BRANCH 1 2
ATOM      2  N   HIS C   2      23.330   1.866  46.204  1.00  9.19 LIG-0.35  N 
ATOM      3 H    HIS C   2      24.164   1.734  46.043  1.00  9.19 LIG 0.16  HD
ATOM      4  C   PHE C   1      22.574   1.027  46.907  1.00 11.27 LIG 0.24  C 
ATOM      5 O    PHE C   1      21.398   1.269  47.212  1.00 15.22 LIG-0.27  OA
BRANCH 4 6
ATOM      6  CA  PHE C   1      23.243  -0.273  47.360  1.00  8.70 LIG 0.18  C 
BRANCH 6 7
ATOM      7  CB  PHE C   1      23.135  -1.329  46.259  1.00  9.29 LIG 0.07  C 
BRANCH 7 8
ATOM      8  CG  PHE C   1      22.051  -2.342  46.492  1.00  9.78 LIG-0.06  A 
ATOM      9  CD1 PHE C   1      22.232  -3.392  47.390  1.00  9.46 LIG 0.01  A 
ATOM     10  CE1 PHE C   1      21.224  -4.342  47.600  1.00  9.12 LIG 0.00  A 
ATOM     11  CZ  PHE C   1      20.023  -4.238  46.911  1.00  8.05 LIG 0.00  A 
ATOM     12  CE2 PHE C   1      19.839  -3.193  46.008  1.00  7.93 LIG 0.00  A 
ATOM     13  CD2 PHE C   1      20.849  -2.251  45.807  1.00  6.20 LIG 0.01  A 
ENDBRANCH 7 8
ENDBRANCH 6 7
BRANCH 6 14
ATOM     14  N   PHE C   1      22.656  -0.766  48.600  1.00 10.26 LIG-0.35  N 
ATOM     15 H    PHE C   1      21.796  -0.744  48.620  1.00 10.26 LIG 0.16  HD
ATOM     16  C   ACE C   0      23.413  -1.206  49.599  1.00 10.83 LIG 0.21  C 
ATOM     17  CH3 ACE C   0      22.651  -1.623  50.827  1.00 14.43 LIG 0.12  C 
ATOM     18 O    ACE C   0      24.634  -1.320  49.521  1.00 14.21 LIG-0.27  OA
ENDBRANCH 6 14
ENDBRANCH 4 6
ENDBRANCH 1 2
BRANCH 1 19
ATOM     19  C   HIS C   2      23.946   3.985  45.130  1.00 15.02 LIG 0.24  C 
ATOM     20  N   PRO C   3      24.848   3.442  44.283  1.00 12.04 LIG-0.34  N 
ATOM     21  CA  PRO C   3      25.915   4.290  43.720  1.00 11.10 LIG 0.18  C 
ATOM     22  CD  PRO C   3      24.937   2.047  43.808  1.00 17.75 LIG 0.13  C 
ATOM     23  CB  PRO C   3      26.643   3.351  42.748  1.00 15.56 LIG 0.04  C 
ATOM     24  CG  PRO C   3      26.330   1.975  43.230  1.00 20.46 LIG 0.02  C 
ATOM     25 O    HIS C   2      24.001   5.150  45.484  1.00  9.69 LIG-0.27  OA
BRANCH 21 26
ATOM     26  C   PRO C   3      25.364   5.509  42.973  1.00 13.73 LIG 0.24  C 
ATOM     27  N   ALA C   4      26.255   6.329  42.414  1.00 10.66 LIG-0.35  N 
ATOM     28 H    ALA C   4      27.094   6.149  42.361  1.00 10.66 LIG 0.16  HD
ATOM     29 O    PRO C   3      24.144   5.667  42.891  1.00 16.34 LIG-0.27  OA
BRANCH 27 30
ATOM     30  CA  ALA C   4      25.890   7.622  41.834  1.00 15.22 LIG 0.18  C 
ATOM     31  CB  ALA C   4      26.959   8.652  42.163  1.00 14.26 LIG 0.04  C 
BRANCH 30 32
ATOM     32  C   ALA C   4      25.655   7.611  40.329  1.00 20.48 LIG 0.28  C 
ATOM     33 O    ALA C   4      25.301   8.640  39.754  1.00 25.68 LIG-0.27  OA
ATOM     34  N   NH2 C   5      25.876   6.467  39.695  1.00 12.85 LIG-0.11  N 
ENDBRANCH 30 32
ENDBRANCH 27 30
ENDBRANCH 21 26
ENDBRANCH 1 19
BRANCH 1 35
ATOM     35  CB  HIS C   2      21.993   3.895  46.670  1.00 13.77 LIG 0.10  C 
BRANCH 35 36
ATOM     36  CG  HIS C   2      20.746   4.526  46.134  1.00 15.95 LIG 0.06  A 
ATOM     37  CD2 HIS C   2      19.758   5.213  46.755  1.00 16.64 LIG 0.14  A 
ATOM     38 NE2  HIS C   2      18.854   5.586  45.787  1.00 23.10 LIG-0.25  NA
ATOM     39  CE1 HIS C   2      19.278   5.148  44.614  1.00 23.56 LIG 0.23  A 
ATOM     40 ND1  HIS C   2      20.419   4.509  44.794  1.00 22.80 LIG-0.24  NA
ENDBRANCH 35 36
ENDBRANCH 1 35
TORSDOF 11
ENDMDL
MODEL 53
USER: ADFR SOLUTION from run 187
USER: SCORE 11.447418 LL:  -3.806 LR:  -9.436 RR:   0.000 FEB:  -6.155
USER: RMSD 6.587927
USER: SEED 186
USER: STATUS no improvement in best in 60 clusters for 5 generations
USER: GENES 13
USER: genes 0 Translation |==|  0.33592 0.53708 0.72397
USER: genes 1 Rotation |==|  0.39554 0.24716 0.30948 0.87264
USER: genes 2 Torsion [CB]-CA--N-[C] |==|  0.18872
USER: genes 3 Torsion [N]-C--CA-[N] |==|  0.20746
USER: genes 4 Torsion [C]-CA--CB-[CG] |==|  0.30783
USER: genes 5 Torsion [CA]-CB--CG-[CD1] |==|  0.04675
USER: genes 6 Torsion [C]-CA--N-[C] |==|  0.80553
USER: genes 7 Torsion [N]-CA--C-[N] |==|  0.51566
USER: genes 8 Torsion [N]-CA--C-[N] |==|  0.96569
USER: genes 9 Torsion [C]-N--CA-[C] |==|  0.65902
USER: genes 10 Torsion [N]-CA--C-[N] |==|  0.50116
USER: genes 11 Torsion [N]-CA--CB-[CG] |==|  0.09984
USER: genes 12 Torsion [CA]-CB--CG-[ND1] |==|  0.26603
ROOT
ATOM      1  CA  HIS C   2      21.328   3.650  47.277  1.00 12.40 LIG 0.18  C 
ENDROOT
BRANCH 1 2
ATOM      2  N   HIS C   2      21.886   2.446  46.642  1.00  9.19 LIG-0.35  N 
ATOM      3 H    HIS C   2      21.955   2.501  45.787  1.00  9.19 LIG 0.16  HD
ATOM      4  C   PHE C   1      22.248   1.374  47.343  1.00 11.27 LIG 0.24  C 
ATOM      5 O    PHE C   1      22.230   1.338  48.581  1.00 15.22 LIG-0.27  OA
BRANCH 4 6
ATOM      6  CA  PHE C   1      22.725   0.165  46.536  1.00  8.70 LIG 0.18  C 
BRANCH 6 7
ATOM      7  CB  PHE C   1      22.688  -1.093  47.404  1.00  9.29 LIG 0.07  C 
BRANCH 7 8
ATOM      8  CG  PHE C   1      21.633  -2.082  46.998  1.00  9.78 LIG-0.06  A 
ATOM      9  CD1 PHE C   1      21.030  -2.012  45.744  1.00  9.46 LIG 0.01  A 
ATOM     10  CE1 PHE C   1      20.039  -2.929  45.368  1.00  9.12 LIG 0.00  A 
ATOM     11  CZ  PHE C   1      19.653  -3.927  46.252  1.00  8.05 LIG 0.00  A 
ATOM     12  CE2 PHE C   1      20.249  -3.999  47.510  1.00  7.93 LIG 0.00  A 
ATOM     13  CD2 PHE C   1      21.236  -3.081  47.873  1.00  6.20 LIG 0.01  A 
ENDBRANCH 7 8
ENDBRANCH 6 7
BRANCH 6 14
ATOM     14  N   PHE C   1      24.066   0.380  46.006  1.00 10.26 LIG-0.35  N 
ATOM     15 H    PHE C   1      24.676  -0.104  46.372  1.00 10.26 LIG 0.16  HD
ATOM     16  C   ACE C   0      24.296   1.258  45.035  1.00 10.83 LIG 0.21  C 
ATOM     17  CH3 ACE C   0      25.742   1.399  44.645  1.00 14.43 LIG 0.12  C 
ATOM     18 O    ACE C   0      23.403   1.872  44.456  1.00 14.21 LIG-0.27  OA
ENDBRANCH 6 14
ENDBRANCH 4 6
ENDBRANCH 1 2
BRANCH 1 19
ATOM     19  C   HIS C   2      20.815   4.611  46.208  1.00 15.02 LIG 0.24  C 
ATOM     20  N   PRO C   3      20.370   5.827  46.593  1.00 12.04 LIG-0.34  N 
ATOM     21  CA  PRO C   3      19.950   6.802  45.570  1.00 11.10 LIG 0.18  C 
ATOM     22  CD  PRO C   3      20.227   6.362  47.962  1.00 17.75 LIG 0.13  C 
ATOM     23  CB  PRO C   3      19.625   8.060  46.386  1.00 15.56 LIG 0.04  C 
ATOM     24  CG  PRO C   3      19.340   7.567  47.763  1.00 20.46 LIG 0.02  C 
ATOM     25 O    HIS C   2      20.847   4.267  45.040  1.00  9.69 LIG-0.27  OA
BRANCH 21 26
ATOM     26  C   PRO C   3      21.055   7.097  44.550  1.00 13.73 LIG 0.24  C 
ATOM     27  N   ALA C   4      22.281   6.665  44.846  1.00 10.66 LIG-0.35  N 
ATOM     28 H    ALA C   4      22.452   6.147  45.510  1.00 10.66 LIG 0.16  HD
ATOM     29 O    PRO C   3      20.771   7.682  43.503  1.00 16.34 LIG-0.27  OA
BRANCH 27 30
ATOM     30  CA  ALA C   4      23.463   7.032  44.064  1.00 15.22 LIG 0.18  C 
ATOM     31  CB  ALA C   4      24.392   7.890  44.909  1.00 14.26 LIG 0.04  C 
BRANCH 30 32
ATOM     32  C   ALA C   4      24.250   5.859  43.494  1.00 20.48 LIG 0.28  C 
ATOM     33 O    ALA C   4      23.857   4.707  43.678  1.00 25.68 LIG-0.27  OA
ATOM     34  N   NH2 C   5      25.333   6.150  42.787  1.00 12.85 LIG-0.11  N 
ENDBRANCH 30 32
ENDBRANCH 27 30
ENDBRANCH 21 26
ENDBRANCH 1 19
BRANCH 1 35
ATOM     35  CB  HIS C   2      22.382   4.363  48.126  1.00 13.77 LIG 0.10  C 
BRANCH 35 36
ATOM     36  CG  HIS C   2      23.766   4.316  47.557  1.00 15.95 LIG 0.06  A 
ATOM     37  CD2 HIS C   2      24.723   3.362  47.622  1.00 16.64 LIG 0.14  A 
ATOM     38 NE2  HIS C   2      25.805   3.824  46.909  1.00 23.10 LIG-0.25  NA
ATOM     39  CE1 HIS C   2      25.517   5.017  46.418  1.00 23.56 LIG 0.23  A 
ATOM     40 ND1  HIS C   2      24.291   5.336  46.791  1.00 22.80 LIG-0.24  NA
ENDBRANCH 35 36
ENDBRANCH 1 35
TORSDOF 11
ENDMDL
MODEL 54
USER: ADFR SOLUTION from run 20
USER: SCORE 11.498213 LL:  -2.992 LR:  -9.407 RR:   0.000 FEB:  -6.126
USER: RMSD 6.734599
USER: SEED 19
USER: STATUS no improvement in best in 14 clusters for 5 generations
USER: GENES 13
USER: genes 0 Translation |==|  0.58074 0.39124 0.39590
USER: genes 1 Rotation |==|  0.55993 0.22191 0.10515 0.61477
USER: genes 2 Torsion [CB]-CA--N-[C] |==|  0.16540
USER: genes 3 Torsion [N]-C--CA-[N] |==|  0.35830
USER: genes 4 Torsion [C]-CA--CB-[CG] |==|  0.94035
USER: genes 5 Torsion [CA]-CB--CG-[CD1] |==|  0.72979
USER: genes 6 Torsion [C]-CA--N-[C] |==|  0.78155
USER: genes 7 Torsion [N]-CA--C-[N] |==|  0.11030
USER: genes 8 Torsion [N]-CA--C-[N] |==|  0.96261
USER: genes 9 Torsion [C]-N--CA-[C] |==|  0.17812
USER: genes 10 Torsion [N]-CA--C-[N] |==|  0.54068
USER: genes 11 Torsion [N]-CA--CB-[CG] |==|  0.13295
USER: genes 12 Torsion [CA]-CB--CG-[ND1] |==|  0.74355
ROOT
ATOM      1  CA  HIS C   2      26.102   1.134  40.634  1.00 12.40 LIG 0.18  C 
ENDROOT
BRANCH 1 2
ATOM      2  N   HIS C   2      26.688   0.080  39.792  1.00  9.19 LIG-0.35  N 
ATOM      3 H    HIS C   2      27.497   0.236  39.547  1.00  9.19 LIG 0.16  HD
ATOM      4  C   PHE C   1      26.012  -1.014  39.448  1.00 11.27 LIG 0.24  C 
ATOM      5 O    PHE C   1      24.881  -1.273  39.880  1.00 15.22 LIG-0.27  OA
BRANCH 4 6
ATOM      6  CA  PHE C   1      26.721  -1.977  38.492  1.00  8.70 LIG 0.18  C 
BRANCH 6 7
ATOM      7  CB  PHE C   1      26.072  -1.913  37.108  1.00  9.29 LIG 0.07  C 
BRANCH 7 8
ATOM      8  CG  PHE C   1      24.669  -1.379  37.118  1.00  9.78 LIG-0.06  A 
ATOM      9  CD1 PHE C   1      23.574  -2.240  37.117  1.00  9.46 LIG 0.01  A 
ATOM     10  CE1 PHE C   1      22.265  -1.742  37.117  1.00  9.12 LIG 0.00  A 
ATOM     11  CZ  PHE C   1      22.049  -0.370  37.122  1.00  8.05 LIG 0.00  A 
ATOM     12  CE2 PHE C   1      23.141   0.496  37.117  1.00  7.93 LIG 0.00  A 
ATOM     13  CD2 PHE C   1      24.441  -0.012  37.120  1.00  6.20 LIG 0.01  A 
ENDBRANCH 7 8
ENDBRANCH 6 7
BRANCH 6 14
ATOM     14  N   PHE C   1      26.698  -3.341  39.005  1.00 10.26 LIG-0.35  N 
ATOM     15 H    PHE C   1      26.106  -3.849  38.641  1.00 10.26 LIG 0.16  HD
ATOM     16  C   ACE C   0      27.535  -3.739  39.957  1.00 10.83 LIG 0.21  C 
ATOM     17  CH3 ACE C   0      27.340  -5.158  40.413  1.00 14.43 LIG 0.12  C 
ATOM     18 O    ACE C   0      28.437  -3.031  40.400  1.00 14.21 LIG-0.27  OA
ENDBRANCH 6 14
ENDBRANCH 4 6
ENDBRANCH 1 2
BRANCH 1 19
ATOM     19  C   HIS C   2      27.117   2.255  40.844  1.00 15.02 LIG 0.24  C 
ATOM     20  N   PRO C   3      27.893   2.627  39.802  1.00 12.04 LIG-0.34  N 
ATOM     21  CA  PRO C   3      28.819   3.764  39.958  1.00 11.10 LIG 0.18  C 
ATOM     22  CD  PRO C   3      27.963   2.034  38.451  1.00 17.75 LIG 0.13  C 
ATOM     23  CB  PRO C   3      29.420   3.931  38.556  1.00 15.56 LIG 0.04  C 
ATOM     24  CG  PRO C   3      29.247   2.605  37.899  1.00 20.46 LIG 0.02  C 
ATOM     25 O    HIS C   2      27.179   2.800  41.932  1.00  9.69 LIG-0.27  OA
BRANCH 21 26
ATOM     26  C   PRO C   3      28.105   5.049  40.390  1.00 13.73 LIG 0.24  C 
ATOM     27  N   ALA C   4      26.775   5.062  40.298  1.00 10.66 LIG-0.35  N 
ATOM     28 H    ALA C   4      26.307   4.363  40.117  1.00 10.66 LIG 0.16  HD
ATOM     29 O    PRO C   3      28.768   5.992  40.826  1.00 16.34 LIG-0.27  OA
BRANCH 27 30
ATOM     30  CA  ALA C   4      25.976   6.272  40.495  1.00 15.22 LIG 0.18  C 
ATOM     31  CB  ALA C   4      26.218   6.826  41.890  1.00 14.26 LIG 0.04  C 
BRANCH 30 32
ATOM     32  C   ALA C   4      26.212   7.376  39.472  1.00 20.48 LIG 0.28  C 
ATOM     33 O    ALA C   4      26.788   7.122  38.415  1.00 25.68 LIG-0.27  OA
ATOM     34  N   NH2 C   5      25.747   8.582  39.773  1.00 12.85 LIG-0.11  N 
ENDBRANCH 30 32
ENDBRANCH 27 30
ENDBRANCH 21 26
ENDBRANCH 1 19
BRANCH 1 35
ATOM     35  CB  HIS C   2      25.682   0.580  41.996  1.00 13.77 LIG 0.10  C 
BRANCH 35 36
ATOM     36  CG  HIS C   2      26.723  -0.261  42.667  1.00 15.95 LIG 0.06  A 
ATOM     37  CD2 HIS C   2      27.730   0.073  43.508  1.00 16.64 LIG 0.14  A 
ATOM     38 NE2  HIS C   2      28.381  -1.092  43.843  1.00 23.10 LIG-0.25  NA
ATOM     39  CE1 HIS C   2      27.789  -2.104  43.233  1.00 23.56 LIG 0.23  A 
ATOM     40 ND1  HIS C   2      26.782  -1.631  42.520  1.00 22.80 LIG-0.24  NA
ENDBRANCH 35 36
ENDBRANCH 1 35
TORSDOF 11
ENDMDL
MODEL 55
USER: ADFR SOLUTION from run 65
USER: SCORE 10.721987 LL:  -3.537 LR:  -9.396 RR:   0.000 FEB:  -6.115
USER: RMSD 9.600541
USER: SEED 64
USER: STATUS no improvement in best in 20 clusters for 5 generations
USER: GENES 13
USER: genes 0 Translation |==|  0.49909 0.30042 0.36405
USER: genes 1 Rotation |==|  0.46192 0.06359 0.73359 0.55947
USER: genes 2 Torsion [CB]-CA--N-[C] |==|  0.44995
USER: genes 3 Torsion [N]-C--CA-[N] |==|  0.33891
USER: genes 4 Torsion [C]-CA--CB-[CG] |==|  0.84145
USER: genes 5 Torsion [CA]-CB--CG-[CD1] |==|  0.30160
USER: genes 6 Torsion [C]-CA--N-[C] |==|  0.71076
USER: genes 7 Torsion [N]-CA--C-[N] |==|  0.88580
USER: genes 8 Torsion [N]-CA--C-[N] |==|  0.35648
USER: genes 9 Torsion [C]-N--CA-[C] |==|  0.18742
USER: genes 10 Torsion [N]-CA--C-[N] |==|  0.62717
USER: genes 11 Torsion [N]-CA--CB-[CG] |==|  0.49861
USER: genes 12 Torsion [CA]-CB--CG-[ND1] |==|  0.28665
ROOT
ATOM      1  CA  HIS C   2      24.510  -0.433  39.989  1.00 12.40 LIG 0.18  C 
ENDROOT
BRANCH 1 2
ATOM      2  N   HIS C   2      24.938   0.494  41.047  1.00  9.19 LIG-0.35  N 
ATOM      3 H    HIS C   2      24.953   1.319  40.805  1.00  9.19 LIG 0.16  HD
ATOM      4  C   PHE C   1      25.270   0.079  42.267  1.00 11.27 LIG 0.24  C 
ATOM      5 O    PHE C   1      25.158  -1.099  42.633  1.00 15.22 LIG-0.27  OA
BRANCH 4 6
ATOM      6  CA  PHE C   1      25.783   1.149  43.233  1.00  8.70 LIG 0.18  C 
BRANCH 6 7
ATOM      7  CB  PHE C   1      27.244   0.872  43.593  1.00  9.29 LIG 0.07  C 
BRANCH 7 8
ATOM      8  CG  PHE C   1      27.476  -0.485  44.193  1.00  9.78 LIG-0.06  A 
ATOM      9  CD1 PHE C   1      28.132  -1.483  43.476  1.00  9.46 LIG 0.01  A 
ATOM     10  CE1 PHE C   1      28.341  -2.752  44.032  1.00  9.12 LIG 0.00  A 
ATOM     11  CZ  PHE C   1      27.894  -3.023  45.318  1.00  8.05 LIG 0.00  A 
ATOM     12  CE2 PHE C   1      27.232  -2.030  46.038  1.00  7.93 LIG 0.00  A 
ATOM     13  CD2 PHE C   1      27.031  -0.769  45.475  1.00  6.20 LIG 0.01  A 
ENDBRANCH 7 8
ENDBRANCH 6 7
BRANCH 6 14
ATOM     14  N   PHE C   1      24.963   1.211  44.437  1.00 10.26 LIG-0.35  N 
ATOM     15 H    PHE C   1      25.100   0.571  44.995  1.00 10.26 LIG 0.16  HD
ATOM     16  C   ACE C   0      24.083   2.188  44.627  1.00 10.83 LIG 0.21  C 
ATOM     17  CH3 ACE C   0      23.278   2.071  45.892  1.00 14.43 LIG 0.12  C 
ATOM     18 O    ACE C   0      23.965   3.147  43.867  1.00 14.21 LIG-0.27  OA
ENDBRANCH 6 14
ENDBRANCH 4 6
ENDBRANCH 1 2
BRANCH 1 19
ATOM     19  C   HIS C   2      25.725  -1.149  39.404  1.00 15.02 LIG 0.24  C 
ATOM     20  N   PRO C   3      26.852  -0.437  39.187  1.00 12.04 LIG-0.34  N 
ATOM     21  CA  PRO C   3      28.063  -1.126  38.703  1.00 11.10 LIG 0.18  C 
ATOM     22  CD  PRO C   3      27.072   1.012  39.367  1.00 17.75 LIG 0.13  C 
ATOM     23  CB  PRO C   3      29.124  -0.018  38.689  1.00 15.56 LIG 0.04  C 
ATOM     24  CG  PRO C   3      28.355   1.256  38.609  1.00 20.46 LIG 0.02  C 
ATOM     25 O    HIS C   2      25.653  -2.344  39.176  1.00  9.69 LIG-0.27  OA
BRANCH 21 26
ATOM     26  C   PRO C   3      28.496  -2.270  39.625  1.00 13.73 LIG 0.24  C 
ATOM     27  N   ALA C   4      28.705  -3.458  39.058  1.00 10.66 LIG-0.35  N 
ATOM     28 H    ALA C   4      28.714  -3.580  38.207  1.00 10.66 LIG 0.16  HD
ATOM     29 O    PRO C   3      28.664  -2.048  40.826  1.00 16.34 LIG-0.27  OA
BRANCH 27 30
ATOM     30  CA  ALA C   4      28.939  -4.678  39.832  1.00 15.22 LIG 0.18  C 
ATOM     31  CB  ALA C   4      30.122  -4.476  40.765  1.00 14.26 LIG 0.04  C 
BRANCH 30 32
ATOM     32  C   ALA C   4      27.745  -5.169  40.641  1.00 20.48 LIG 0.28  C 
ATOM     33 O    ALA C   4      26.634  -5.240  40.117  1.00 25.68 LIG-0.27  OA
ATOM     34  N   NH2 C   5      27.978  -5.530  41.896  1.00 12.85 LIG-0.11  N 
ENDBRANCH 30 32
ENDBRANCH 27 30
ENDBRANCH 21 26
ENDBRANCH 1 19
BRANCH 1 35
ATOM     35  CB  HIS C   2      23.780   0.310  38.868  1.00 13.77 LIG 0.10  C 
BRANCH 35 36
ATOM     36  CG  HIS C   2      23.323  -0.567  37.745  1.00 15.95 LIG 0.06  A 
ATOM     37  CD2 HIS C   2      24.009  -1.148  36.732  1.00 16.64 LIG 0.14  A 
ATOM     38 NE2  HIS C   2      23.101  -1.865  35.988  1.00 23.10 LIG-0.25  NA
ATOM     39  CE1 HIS C   2      21.903  -1.733  36.529  1.00 23.56 LIG 0.23  A 
ATOM     40 ND1  HIS C   2      22.009  -0.958  37.593  1.00 22.80 LIG-0.24  NA
ENDBRANCH 35 36
ENDBRANCH 1 35
TORSDOF 11
ENDMDL
MODEL 56
USER: ADFR SOLUTION from run 17
USER: SCORE 10.507245 LL:  -2.998 LR:  -9.405 RR:   0.000 FEB:  -6.124
USER: RMSD 7.795160
USER: SEED 16
USER: STATUS no improvement in best in 25 clusters for 5 generations
USER: GENES 13
USER: genes 0 Translation |==|  0.60783 0.37901 0.45240
USER: genes 1 Rotation |==|  0.70590 0.24175 0.81082 0.71049
USER: genes 2 Torsion [CB]-CA--N-[C] |==|  0.48333
USER: genes 3 Torsion [N]-C--CA-[N] |==|  0.51532
USER: genes 4 Torsion [C]-CA--CB-[CG] |==|  0.72883
USER: genes 5 Torsion [CA]-CB--CG-[CD1] |==|  0.71003
USER: genes 6 Torsion [C]-CA--N-[C] |==|  0.73541
USER: genes 7 Torsion [N]-CA--C-[N] |==|  0.48090
USER: genes 8 Torsion [N]-CA--C-[N] |==|  0.91937
USER: genes 9 Torsion [C]-N--CA-[C] |==|  0.46735
USER: genes 10 Torsion [N]-CA--C-[N] |==|  0.51558
USER: genes 11 Torsion [N]-CA--CB-[CG] |==|  0.82106
USER: genes 12 Torsion [CA]-CB--CG-[ND1] |==|  0.21459
ROOT
ATOM      1  CA  HIS C   2      26.631   0.923  41.778  1.00 12.40 LIG 0.18  C 
ENDROOT
BRANCH 1 2
ATOM      2  N   HIS C   2      26.876   2.369  41.665  1.00  9.19 LIG-0.35  N 
ATOM      3 H    HIS C   2      26.165   2.849  41.713  1.00  9.19 LIG 0.16  HD
ATOM      4  C   PHE C   1      28.096   2.873  41.504  1.00 11.27 LIG 0.24  C 
ATOM      5 O    PHE C   1      29.123   2.181  41.528  1.00 15.22 LIG-0.27  OA
BRANCH 4 6
ATOM      6  CA  PHE C   1      28.184   4.389  41.310  1.00  8.70 LIG 0.18  C 
BRANCH 6 7
ATOM      7  CB  PHE C   1      27.237   4.830  40.192  1.00  9.29 LIG 0.07  C 
BRANCH 7 8
ATOM      8  CG  PHE C   1      27.908   5.003  38.860  1.00  9.78 LIG-0.06  A 
ATOM      9  CD1 PHE C   1      28.185   6.273  38.357  1.00  9.46 LIG 0.01  A 
ATOM     10  CE1 PHE C   1      28.802   6.435  37.110  1.00  9.12 LIG 0.00  A 
ATOM     11  CZ  PHE C   1      29.151   5.318  36.362  1.00  8.05 LIG 0.00  A 
ATOM     12  CE2 PHE C   1      28.871   4.046  36.858  1.00  7.93 LIG 0.00  A 
ATOM     13  CD2 PHE C   1      28.257   3.896  38.103  1.00  6.20 LIG 0.01  A 
ENDBRANCH 7 8
ENDBRANCH 6 7
BRANCH 6 14
ATOM     14  N   PHE C   1      29.550   4.805  41.016  1.00 10.26 LIG-0.35  N 
ATOM     15 H    PHE C   1      29.769   4.749  40.186  1.00 10.26 LIG 0.16  HD
ATOM     16  C   ACE C   0      30.366   5.232  41.974  1.00 10.83 LIG 0.21  C 
ATOM     17  CH3 ACE C   0      31.757   5.566  41.510  1.00 14.43 LIG 0.12  C 
ATOM     18 O    ACE C   0      30.011   5.397  43.139  1.00 14.21 LIG-0.27  OA
ENDBRANCH 6 14
ENDBRANCH 4 6
ENDBRANCH 1 2
BRANCH 1 19
ATOM     19  C   HIS C   2      26.995   0.230  40.467  1.00 15.02 LIG 0.24  C 
ATOM     20  N   PRO C   3      26.972  -1.120  40.422  1.00 12.04 LIG-0.34  N 
ATOM     21  CA  PRO C   3      27.237  -1.806  39.144  1.00 11.10 LIG 0.18  C 
ATOM     22  CD  PRO C   3      26.708  -2.071  41.520  1.00 17.75 LIG 0.13  C 
ATOM     23  CB  PRO C   3      27.015  -3.287  39.480  1.00 15.56 LIG 0.04  C 
ATOM     24  CG  PRO C   3      27.201  -3.382  40.956  1.00 20.46 LIG 0.02  C 
ATOM     25 O    HIS C   2      27.268   0.912  39.495  1.00  9.69 LIG-0.27  OA
BRANCH 21 26
ATOM     26  C   PRO C   3      26.283  -1.363  38.029  1.00 13.73 LIG 0.24  C 
ATOM     27  N   ALA C   4      25.068  -0.957  38.399  1.00 10.66 LIG-0.35  N 
ATOM     28 H    ALA C   4      24.841  -0.832  39.219  1.00 10.66 LIG 0.16  HD
ATOM     29 O    PRO C   3      26.676  -1.367  36.861  1.00 16.34 LIG-0.27  OA
BRANCH 27 30
ATOM     30  CA  ALA C   4      23.996  -0.683  37.441  1.00 15.22 LIG 0.18  C 
ATOM     31  CB  ALA C   4      23.940  -1.793  36.403  1.00 14.26 LIG 0.04  C 
BRANCH 30 32
ATOM     32  C   ALA C   4      22.613  -0.504  38.054  1.00 20.48 LIG 0.28  C 
ATOM     33 O    ALA C   4      22.482  -0.465  39.277  1.00 25.68 LIG-0.27  OA
ATOM     34  N   NH2 C   5      21.596  -0.369  37.212  1.00 12.85 LIG-0.11  N 
ENDBRANCH 30 32
ENDBRANCH 27 30
ENDBRANCH 21 26
ENDBRANCH 1 19
BRANCH 1 35
ATOM     35  CB  HIS C   2      25.164   0.637  42.103  1.00 13.77 LIG 0.10  C 
BRANCH 35 36
ATOM     36  CG  HIS C   2      24.717   1.150  43.436  1.00 15.95 LIG 0.06  A 
ATOM     37  CD2 HIS C   2      24.529   0.515  44.617  1.00 16.64 LIG 0.14  A 
ATOM     38 NE2  HIS C   2      24.127   1.465  45.527  1.00 23.10 LIG-0.25  NA
ATOM     39  CE1 HIS C   2      24.077   2.641  44.926  1.00 23.56 LIG 0.23  A 
ATOM     40 ND1  HIS C   2      24.432   2.480  43.664  1.00 22.80 LIG-0.24  NA
ENDBRANCH 35 36
ENDBRANCH 1 35
TORSDOF 11
ENDMDL
MODEL 57
USER: ADFR SOLUTION from run 170
USER: SCORE 10.688452 LL:  -2.814 LR:  -9.393 RR:   0.000 FEB:  -6.111
USER: RMSD 8.692654
USER: SEED 169
USER: STATUS no improvement in best in 20 clusters for 5 generations
USER: GENES 13
USER: genes 0 Translation |==|  0.56391 0.37977 0.50657
USER: genes 1 Rotation |==|  0.87816 0.36842 0.78436 0.59393
USER: genes 2 Torsion [CB]-CA--N-[C] |==|  0.24181
USER: genes 3 Torsion [N]-C--CA-[N] |==|  0.82778
USER: genes 4 Torsion [C]-CA--CB-[CG] |==|  0.44592
USER: genes 5 Torsion [CA]-CB--CG-[CD1] |==|  0.69376
USER: genes 6 Torsion [C]-CA--N-[C] |==|  0.66674
USER: genes 7 Torsion [N]-CA--C-[N] |==|  0.42442
USER: genes 8 Torsion [N]-CA--C-[N] |==|  0.27094
USER: genes 9 Torsion [C]-N--CA-[C] |==|  0.75734
USER: genes 10 Torsion [N]-CA--C-[N] |==|  0.99825
USER: genes 11 Torsion [N]-CA--CB-[CG] |==|  0.87015
USER: genes 12 Torsion [CA]-CB--CG-[ND1] |==|  0.24284
ROOT
ATOM      1  CA  HIS C   2      25.774   0.936  42.875  1.00 12.40 LIG 0.18  C 
ENDROOT
BRANCH 1 2
ATOM      2  N   HIS C   2      24.901   2.060  43.245  1.00  9.19 LIG-0.35  N 
ATOM      3 H    HIS C   2      24.276   2.220  42.677  1.00  9.19 LIG 0.16  HD
ATOM      4  C   PHE C   1      25.077   2.760  44.363  1.00 11.27 LIG 0.24  C 
ATOM      5 O    PHE C   1      25.923   2.466  45.218  1.00 15.22 LIG-0.27  OA
BRANCH 4 6
ATOM      6  CA  PHE C   1      24.148   3.959  44.567  1.00  8.70 LIG 0.18  C 
BRANCH 6 7
ATOM      7  CB  PHE C   1      22.692   3.491  44.617  1.00  9.29 LIG 0.07  C 
BRANCH 7 8
ATOM      8  CG  PHE C   1      21.758   4.477  45.258  1.00  9.78 LIG-0.06  A 
ATOM      9  CD1 PHE C   1      21.183   4.216  46.500  1.00  9.46 LIG 0.01  A 
ATOM     10  CE1 PHE C   1      20.304   5.131  47.094  1.00  9.12 LIG 0.00  A 
ATOM     11  CZ  PHE C   1      20.004   6.321  46.444  1.00  8.05 LIG 0.00  A 
ATOM     12  CE2 PHE C   1      20.573   6.585  45.199  1.00  7.93 LIG 0.00  A 
ATOM     13  CD2 PHE C   1      21.448   5.666  44.617  1.00  6.20 LIG 0.01  A 
ENDBRANCH 7 8
ENDBRANCH 6 7
BRANCH 6 14
ATOM     14  N   PHE C   1      24.329   4.952  43.515  1.00 10.26 LIG-0.35  N 
ATOM     15 H    PHE C   1      24.170   4.663  42.721  1.00 10.26 LIG 0.16  HD
ATOM     16  C   ACE C   0      24.710   6.195  43.793  1.00 10.83 LIG 0.21  C 
ATOM     17  CH3 ACE C   0      24.907   7.075  42.589  1.00 14.43 LIG 0.12  C 
ATOM     18 O    ACE C   0      24.842   6.620  44.938  1.00 14.21 LIG-0.27  OA
ENDBRANCH 6 14
ENDBRANCH 4 6
ENDBRANCH 1 2
BRANCH 1 19
ATOM     19  C   HIS C   2      25.812   0.785  41.356  1.00 15.02 LIG 0.24  C 
ATOM     20  N   PRO C   3      26.910   0.238  40.789  1.00 12.04 LIG-0.34  N 
ATOM     21  CA  PRO C   3      26.932   0.005  39.333  1.00 11.10 LIG 0.18  C 
ATOM     22  CD  PRO C   3      28.166  -0.185  41.439  1.00 17.75 LIG 0.13  C 
ATOM     23  CB  PRO C   3      28.271  -0.710  39.106  1.00 15.56 LIG 0.04  C 
ATOM     24  CG  PRO C   3      29.115  -0.334  40.275  1.00 20.46 LIG 0.02  C 
ATOM     25 O    HIS C   2      24.844   1.135  40.703  1.00  9.69 LIG-0.27  OA
BRANCH 21 26
ATOM     26  C   PRO C   3      25.770  -0.875  38.860  1.00 13.73 LIG 0.24  C 
ATOM     27  N   ALA C   4      24.702  -0.250  38.363  1.00 10.66 LIG-0.35  N 
ATOM     28 H    ALA C   4      24.684   0.594  38.198  1.00 10.66 LIG 0.16  HD
ATOM     29 O    PRO C   3      25.874  -2.101  38.927  1.00 16.34 LIG-0.27  OA
BRANCH 27 30
ATOM     30  CA  ALA C   4      23.452  -0.941  38.047  1.00 15.22 LIG 0.18  C 
ATOM     31  CB  ALA C   4      22.278   0.005  38.242  1.00 14.26 LIG 0.04  C 
BRANCH 30 32
ATOM     32  C   ALA C   4      23.381  -1.542  36.649  1.00 20.48 LIG 0.28  C 
ATOM     33 O    ALA C   4      22.365  -2.132  36.284  1.00 25.68 LIG-0.27  OA
ATOM     34  N   NH2 C   5      24.438  -1.368  35.867  1.00 12.85 LIG-0.11  N 
ENDBRANCH 30 32
ENDBRANCH 27 30
ENDBRANCH 21 26
ENDBRANCH 1 19
BRANCH 1 35
ATOM     35  CB  HIS C   2      25.279  -0.372  43.494  1.00 13.77 LIG 0.10  C 
BRANCH 35 36
ATOM     36  CG  HIS C   2      24.927  -0.271  44.946  1.00 15.95 LIG 0.06  A 
ATOM     37  CD2 HIS C   2      25.670  -0.477  46.058  1.00 16.64 LIG 0.14  A 
ATOM     38 NE2  HIS C   2      24.857  -0.231  47.140  1.00 23.10 LIG-0.25  NA
ATOM     39  CE1 HIS C   2      23.659   0.120  46.704  1.00 23.56 LIG 0.23  A 
ATOM     40 ND1  HIS C   2      23.675   0.108  45.384  1.00 22.80 LIG-0.24  NA
ENDBRANCH 35 36
ENDBRANCH 1 35
TORSDOF 11
ENDMDL
MODEL 58
USER: ADFR SOLUTION from run 26
USER: SCORE 12.536646 LL:  -3.716 LR:  -9.366 RR:   0.000 FEB:  -6.085
USER: RMSD 3.032322
USER: SEED 25
USER: STATUS no improvement in best in 12 clusters for 5 generations
USER: GENES 13
USER: genes 0 Translation |==|  0.55501 0.34415 0.58324
USER: genes 1 Rotation |==|  0.44849 0.48882 0.40881 0.98878
USER: genes 2 Torsion [CB]-CA--N-[C] |==|  0.86667
USER: genes 3 Torsion [N]-C--CA-[N] |==|  0.97376
USER: genes 4 Torsion [C]-CA--CB-[CG] |==|  0.47651
USER: genes 5 Torsion [CA]-CB--CG-[CD1] |==|  0.43309
USER: genes 6 Torsion [C]-CA--N-[C] |==|  0.67967
USER: genes 7 Torsion [N]-CA--C-[N] |==|  0.37356
USER: genes 8 Torsion [N]-CA--C-[N] |==|  0.32074
USER: genes 9 Torsion [C]-N--CA-[C] |==|  0.15849
USER: genes 10 Torsion [N]-CA--C-[N] |==|  0.12145
USER: genes 11 Torsion [N]-CA--CB-[CG] |==|  0.43844
USER: genes 12 Torsion [CA]-CB--CG-[ND1] |==|  0.18016
ROOT
ATOM      1  CA  HIS C   2      25.601   0.322  44.428  1.00 12.40 LIG 0.18  C 
ENDROOT
BRANCH 1 2
ATOM      2  N   HIS C   2      25.442  -0.292  43.101  1.00  9.19 LIG-0.35  N 
ATOM      3 H    HIS C   2      25.367  -1.148  43.117  1.00  9.19 LIG 0.16  HD
ATOM      4  C   PHE C   1      25.418   0.427  41.982  1.00 11.27 LIG 0.24  C 
ATOM      5 O    PHE C   1      25.436   1.665  41.974  1.00 15.22 LIG-0.27  OA
BRANCH 4 6
ATOM      6  CA  PHE C   1      25.340  -0.359  40.671  1.00  8.70 LIG 0.18  C 
BRANCH 6 7
ATOM      7  CB  PHE C   1      23.999  -0.098  39.983  1.00  9.29 LIG 0.07  C 
BRANCH 7 8
ATOM      8  CG  PHE C   1      23.907  -0.664  38.595  1.00  9.78 LIG-0.06  A 
ATOM      9  CD1 PHE C   1      22.672  -0.966  38.024  1.00  9.46 LIG 0.01  A 
ATOM     10  CE1 PHE C   1      22.586  -1.504  36.734  1.00  9.12 LIG 0.00  A 
ATOM     11  CZ  PHE C   1      23.746  -1.735  36.005  1.00  8.05 LIG 0.00  A 
ATOM     12  CE2 PHE C   1      24.983  -1.440  36.572  1.00  7.93 LIG 0.00  A 
ATOM     13  CD2 PHE C   1      25.057  -0.903  37.859  1.00  6.20 LIG 0.01  A 
ENDBRANCH 7 8
ENDBRANCH 6 7
BRANCH 6 14
ATOM     14  N   PHE C   1      25.528  -1.786  40.899  1.00 10.26 LIG-0.35  N 
ATOM     15 H    PHE C   1      24.911  -2.156  41.371  1.00 10.26 LIG 0.16  HD
ATOM     16  C   ACE C   0      26.576  -2.436  40.405  1.00 10.83 LIG 0.21  C 
ATOM     17  CH3 ACE C   0      26.649  -3.890  40.782  1.00 14.43 LIG 0.12  C 
ATOM     18 O    ACE C   0      27.399  -1.916  39.653  1.00 14.21 LIG-0.27  OA
ENDBRANCH 6 14
ENDBRANCH 4 6
ENDBRANCH 1 2
BRANCH 1 19
ATOM     19  C   HIS C   2      24.315   1.045  44.823  1.00 15.02 LIG 0.24  C 
ATOM     20  N   PRO C   3      23.833   0.868  46.073  1.00 12.04 LIG-0.34  N 
ATOM     21  CA  PRO C   3      22.642   1.623  46.503  1.00 11.10 LIG 0.18  C 
ATOM     22  CD  PRO C   3      24.344  -0.019  47.137  1.00 17.75 LIG 0.13  C 
ATOM     23  CB  PRO C   3      22.484   1.233  47.979  1.00 15.56 LIG 0.04  C 
ATOM     24  CG  PRO C   3      23.193  -0.071  48.114  1.00 20.46 LIG 0.02  C 
ATOM     25 O    HIS C   2      23.778   1.780  44.013  1.00  9.69 LIG-0.27  OA
BRANCH 21 26
ATOM     26  C   PRO C   3      22.825   3.138  46.367  1.00 13.73 LIG 0.24  C 
ATOM     27  N   ALA C   4      22.037   3.766  45.494  1.00 10.66 LIG-0.35  N 
ATOM     28 H    ALA C   4      21.375   3.387  45.098  1.00 10.66 LIG 0.16  HD
ATOM     29 O    PRO C   3      23.654   3.713  47.076  1.00 16.34 LIG-0.27  OA
BRANCH 27 30
ATOM     30  CA  ALA C   4      22.222   5.170  45.123  1.00 15.22 LIG 0.18  C 
ATOM     31  CB  ALA C   4      21.943   6.060  46.324  1.00 14.26 LIG 0.04  C 
BRANCH 30 32
ATOM     32  C   ALA C   4      23.594   5.512  44.557  1.00 20.48 LIG 0.28  C 
ATOM     33 O    ALA C   4      24.186   6.519  44.944  1.00 25.68 LIG-0.27  OA
ATOM     34  N   NH2 C   5      24.106   4.668  43.671  1.00 12.85 LIG-0.11  N 
ENDBRANCH 30 32
ENDBRANCH 27 30
ENDBRANCH 21 26
ENDBRANCH 1 19
BRANCH 1 35
ATOM     35  CB  HIS C   2      26.759   1.321  44.437  1.00 13.77 LIG 0.10  C 
BRANCH 35 36
ATOM     36  CG  HIS C   2      26.679   2.346  45.524  1.00 15.95 LIG 0.06  A 
ATOM     37  CD2 HIS C   2      26.501   3.687  45.471  1.00 16.64 LIG 0.14  A 
ATOM     38 NE2  HIS C   2      26.488   4.146  46.768  1.00 23.10 LIG-0.25  NA
ATOM     39  CE1 HIS C   2      26.647   3.120  47.586  1.00 23.56 LIG 0.23  A 
ATOM     40 ND1  HIS C   2      26.760   2.021  46.862  1.00 22.80 LIG-0.24  NA
ENDBRANCH 35 36
ENDBRANCH 1 35
TORSDOF 11
ENDMDL
MODEL 59
USER: ADFR SOLUTION from run 132
USER: SCORE 10.882596 LL:  -2.565 LR:  -9.372 RR:   0.000 FEB:  -6.091
USER: RMSD 8.648465
USER: SEED 131
USER: STATUS no improvement in best in 31 clusters for 5 generations
USER: GENES 13
USER: genes 0 Translation |==|  0.49931 0.39636 0.55749
USER: genes 1 Rotation |==|  0.26061 0.10095 0.34501 0.59712
USER: genes 2 Torsion [CB]-CA--N-[C] |==|  0.19181
USER: genes 3 Torsion [N]-C--CA-[N] |==|  0.43414
USER: genes 4 Torsion [C]-CA--CB-[CG] |==|  0.53524
USER: genes 5 Torsion [CA]-CB--CG-[CD1] |==|  0.38032
USER: genes 6 Torsion [C]-CA--N-[C] |==|  0.78384
USER: genes 7 Torsion [N]-CA--C-[N] |==|  0.88393
USER: genes 8 Torsion [N]-CA--C-[N] |==|  0.27040
USER: genes 9 Torsion [C]-N--CA-[C] |==|  0.67688
USER: genes 10 Torsion [N]-CA--C-[N] |==|  0.04987
USER: genes 11 Torsion [N]-CA--CB-[CG] |==|  0.67355
USER: genes 12 Torsion [CA]-CB--CG-[ND1] |==|  0.00064
ROOT
ATOM      1  CA  HIS C   2      24.514   1.222  43.906  1.00 12.40 LIG 0.18  C 
ENDROOT
BRANCH 1 2
ATOM      2  N   HIS C   2      24.233   0.100  44.814  1.00  9.19 LIG-0.35  N 
ATOM      3 H    HIS C   2      24.637  -0.629  44.606  1.00  9.19 LIG 0.16  HD
ATOM      4  C   PHE C   1      23.420   0.219  45.861  1.00 11.27 LIG 0.24  C 
ATOM      5 O    PHE C   1      22.913   1.295  46.205  1.00 15.22 LIG-0.27  OA
BRANCH 4 6
ATOM      6  CA  PHE C   1      23.151  -1.059  46.660  1.00  8.70 LIG 0.18  C 
BRANCH 6 7
ATOM      7  CB  PHE C   1      22.081  -1.899  45.961  1.00  9.29 LIG 0.07  C 
BRANCH 7 8
ATOM      8  CG  PHE C   1      21.533  -3.012  46.807  1.00  9.78 LIG-0.06  A 
ATOM      9  CD1 PHE C   1      20.166  -3.280  46.841  1.00  9.46 LIG 0.01  A 
ATOM     10  CE1 PHE C   1      19.653  -4.312  47.638  1.00  9.12 LIG 0.00  A 
ATOM     11  CZ  PHE C   1      20.516  -5.086  48.402  1.00  8.05 LIG 0.00  A 
ATOM     12  CE2 PHE C   1      21.883  -4.819  48.376  1.00  7.93 LIG 0.00  A 
ATOM     13  CD2 PHE C   1      22.383  -3.789  47.577  1.00  6.20 LIG 0.01  A 
ENDBRANCH 7 8
ENDBRANCH 6 7
BRANCH 6 14
ATOM     14  N   PHE C   1      22.748  -0.752  48.027  1.00 10.26 LIG-0.35  N 
ATOM     15 H    PHE C   1      21.903  -0.822  48.174  1.00 10.26 LIG 0.16  HD
ATOM     16  C   ACE C   0      23.636  -0.396  48.949  1.00 10.83 LIG 0.21  C 
ATOM     17  CH3 ACE C   0      23.047  -0.057  50.291  1.00 14.43 LIG 0.12  C 
ATOM     18 O    ACE C   0      24.849  -0.392  48.751  1.00 14.21 LIG-0.27  OA
ENDBRANCH 6 14
ENDBRANCH 4 6
ENDBRANCH 1 2
BRANCH 1 19
ATOM     19  C   HIS C   2      25.275   0.721  42.681  1.00 15.02 LIG 0.24  C 
ATOM     20  N   PRO C   3      26.261  -0.186  42.859  1.00 12.04 LIG-0.34  N 
ATOM     21  CA  PRO C   3      26.950  -0.747  41.683  1.00 11.10 LIG 0.18  C 
ATOM     22  CD  PRO C   3      26.789  -0.731  44.125  1.00 17.75 LIG 0.13  C 
ATOM     23  CB  PRO C   3      27.899  -1.790  42.287  1.00 15.56 LIG 0.04  C 
ATOM     24  CG  PRO C   3      28.093  -1.365  43.703  1.00 20.46 LIG 0.02  C 
ATOM     25 O    HIS C   2      24.953   1.128  41.578  1.00  9.69 LIG-0.27  OA
BRANCH 21 26
ATOM     26  C   PRO C   3      25.984  -1.412  40.697  1.00 13.73 LIG 0.24  C 
ATOM     27  N   ALA C   4      25.589  -0.684  39.652  1.00 10.66 LIG-0.35  N 
ATOM     28 H    ALA C   4      25.930   0.080  39.454  1.00 10.66 LIG 0.16  HD
ATOM     29 O    PRO C   3      25.638  -2.580  40.885  1.00 16.34 LIG-0.27  OA
BRANCH 27 30
ATOM     30  CA  ALA C   4      24.532  -1.115  38.736  1.00 15.22 LIG 0.18  C 
ATOM     31  CB  ALA C   4      23.400  -0.100  38.744  1.00 14.26 LIG 0.04  C 
BRANCH 30 32
ATOM     32  C   ALA C   4      24.979  -1.352  37.300  1.00 20.48 LIG 0.28  C 
ATOM     33 O    ALA C   4      24.150  -1.365  36.391  1.00 25.68 LIG-0.27  OA
ATOM     34  N   NH2 C   5      26.281  -1.509  37.094  1.00 12.85 LIG-0.11  N 
ENDBRANCH 30 32
ENDBRANCH 27 30
ENDBRANCH 21 26
ENDBRANCH 1 19
BRANCH 1 35
ATOM     35  CB  HIS C   2      25.347   2.299  44.604  1.00 13.77 LIG 0.10  C 
BRANCH 35 36
ATOM     36  CG  HIS C   2      24.664   3.626  44.720  1.00 15.95 LIG 0.06  A 
ATOM     37  CD2 HIS C   2      25.088   4.803  45.239  1.00 16.64 LIG 0.14  A 
ATOM     38 NE2  HIS C   2      24.065   5.709  45.075  1.00 23.10 LIG-0.25  NA
ATOM     39  CE1 HIS C   2      23.054   5.109  44.471  1.00 23.56 LIG 0.23  A 
ATOM     40 ND1  HIS C   2      23.390   3.853  44.242  1.00 22.80 LIG-0.24  NA
ENDBRANCH 35 36
ENDBRANCH 1 35
TORSDOF 11
ENDMDL
MODEL 60
USER: ADFR SOLUTION from run 60
USER: SCORE 11.438979 LL:  -2.636 LR:  -9.367 RR:   0.000 FEB:  -6.086
USER: RMSD 3.221134
USER: SEED 59
USER: STATUS no improvement in best in 10 clusters for 5 generations
USER: GENES 13
USER: genes 0 Translation |==|  0.62853 0.36941 0.51102
USER: genes 1 Rotation |==|  0.39516 0.47951 0.50860 0.98838
USER: genes 2 Torsion [CB]-CA--N-[C] |==|  0.86666
USER: genes 3 Torsion [N]-C--CA-[N] |==|  0.13615
USER: genes 4 Torsion [C]-CA--CB-[CG] |==|  0.76594
USER: genes 5 Torsion [CA]-CB--CG-[CD1] |==|  0.15528
USER: genes 6 Torsion [C]-CA--N-[C] |==|  0.62654
USER: genes 7 Torsion [N]-CA--C-[N] |==|  0.35829
USER: genes 8 Torsion [N]-CA--C-[N] |==|  0.53741
USER: genes 9 Torsion [C]-N--CA-[C] |==|  0.84621
USER: genes 10 Torsion [N]-CA--C-[N] |==|  0.39609
USER: genes 11 Torsion [N]-CA--CB-[CG] |==|  0.86539
USER: genes 12 Torsion [CA]-CB--CG-[ND1] |==|  0.33911
ROOT
ATOM      1  CA  HIS C   2      27.034   0.757  42.965  1.00 12.40 LIG 0.18  C 
ENDROOT
BRANCH 1 2
ATOM      2  N   HIS C   2      27.125  -0.155  41.816  1.00  9.19 LIG-0.35  N 
ATOM      3 H    HIS C   2      27.384  -0.950  42.018  1.00  9.19 LIG 0.16  HD
ATOM      4  C   PHE C   1      26.828   0.229  40.577  1.00 11.27 LIG 0.24  C 
ATOM      5 O    PHE C   1      26.369   1.347  40.307  1.00 15.22 LIG-0.27  OA
BRANCH 4 6
ATOM      6  CA  PHE C   1      27.059  -0.805  39.472  1.00  8.70 LIG 0.18  C 
BRANCH 6 7
ATOM      7  CB  PHE C   1      26.487  -0.294  38.148  1.00  9.29 LIG 0.07  C 
BRANCH 7 8
ATOM      8  CG  PHE C   1      25.019  -0.558  37.978  1.00  9.78 LIG-0.06  A 
ATOM      9  CD1 PHE C   1      24.096  -0.110  38.921  1.00  9.46 LIG 0.01  A 
ATOM     10  CE1 PHE C   1      22.727  -0.364  38.767  1.00  9.12 LIG 0.00  A 
ATOM     11  CZ  PHE C   1      22.276  -1.066  37.657  1.00  8.05 LIG 0.00  A 
ATOM     12  CE2 PHE C   1      23.195  -1.521  36.713  1.00  7.93 LIG 0.00  A 
ATOM     13  CD2 PHE C   1      24.557  -1.261  36.876  1.00  6.20 LIG 0.01  A 
ENDBRANCH 7 8
ENDBRANCH 6 7
BRANCH 6 14
ATOM     14  N   PHE C   1      26.468  -2.091  39.821  1.00 10.26 LIG-0.35  N 
ATOM     15 H    PHE C   1      25.670  -2.043  40.138  1.00 10.26 LIG 0.16  HD
ATOM     16  C   ACE C   0      27.133  -3.229  39.652  1.00 10.83 LIG 0.21  C 
ATOM     17  CH3 ACE C   0      26.403  -4.459  40.116  1.00 14.43 LIG 0.12  C 
ATOM     18 O    ACE C   0      28.235  -3.292  39.110  1.00 14.21 LIG-0.27  OA
ENDBRANCH 6 14
ENDBRANCH 4 6
ENDBRANCH 1 2
BRANCH 1 19
ATOM     19  C   HIS C   2      25.569   1.016  43.309  1.00 15.02 LIG 0.24  C 
ATOM     20  N   PRO C   3      25.167   0.851  44.589  1.00 12.04 LIG-0.34  N 
ATOM     21  CA  PRO C   3      23.778   1.178  44.959  1.00 11.10 LIG 0.18  C 
ATOM     22  CD  PRO C   3      25.950   0.361  45.741  1.00 17.75 LIG 0.13  C 
ATOM     23  CB  PRO C   3      23.753   0.963  46.478  1.00 15.56 LIG 0.04  C 
ATOM     24  CG  PRO C   3      24.883   0.033  46.758  1.00 20.46 LIG 0.02  C 
ATOM     25 O    HIS C   2      24.814   1.391  42.430  1.00  9.69 LIG-0.27  OA
BRANCH 21 26
ATOM     26  C   PRO C   3      23.403   2.624  44.617  1.00 13.73 LIG 0.24  C 
ATOM     27  N   ALA C   4      22.280   3.100  45.154  1.00 10.66 LIG-0.35  N 
ATOM     28 H    ALA C   4      21.828   2.681  45.754  1.00 10.66 LIG 0.16  HD
ATOM     29 O    PRO C   3      24.153   3.289  43.900  1.00 16.34 LIG-0.27  OA
BRANCH 27 30
ATOM     30  CA  ALA C   4      21.701   4.389  44.772  1.00 15.22 LIG 0.18  C 
ATOM     31  CB  ALA C   4      20.443   4.648  45.587  1.00 14.26 LIG 0.04  C 
BRANCH 30 32
ATOM     32  C   ALA C   4      22.637   5.583  44.908  1.00 20.48 LIG 0.28  C 
ATOM     33 O    ALA C   4      23.443   5.630  45.836  1.00 25.68 LIG-0.27  OA
ATOM     34  N   NH2 C   5      22.549   6.523  43.976  1.00 12.85 LIG-0.11  N 
ENDBRANCH 30 32
ENDBRANCH 27 30
ENDBRANCH 21 26
ENDBRANCH 1 19
BRANCH 1 35
ATOM     35  CB  HIS C   2      27.720   2.091  42.664  1.00 13.77 LIG 0.10  C 
BRANCH 35 36
ATOM     36  CG  HIS C   2      29.092   1.960  42.080  1.00 15.95 LIG 0.06  A 
ATOM     37  CD2 HIS C   2      30.198   1.327  42.537  1.00 16.64 LIG 0.14  A 
ATOM     38 NE2  HIS C   2      31.186   1.507  41.597  1.00 23.10 LIG-0.25  NA
ATOM     39  CE1 HIS C   2      30.699   2.220  40.596  1.00 23.56 LIG 0.23  A 
ATOM     40 ND1  HIS C   2      29.437   2.503  40.860  1.00 22.80 LIG-0.24  NA
ENDBRANCH 35 36
ENDBRANCH 1 35
TORSDOF 11
ENDMDL
MODEL 61
USER: ADFR SOLUTION from run 178
USER: SCORE 10.910208 LL:  -3.316 LR:  -9.357 RR:   0.000 FEB:  -6.076
USER: RMSD 5.994524
USER: SEED 177
USER: STATUS no improvement in best in 42 clusters for 5 generations
USER: GENES 13
USER: genes 0 Translation |==|  0.39444 0.34725 0.67589
USER: genes 1 Rotation |==|  0.79155 0.38171 0.18913 0.73316
USER: genes 2 Torsion [CB]-CA--N-[C] |==|  0.49808
USER: genes 3 Torsion [N]-C--CA-[N] |==|  0.29776
USER: genes 4 Torsion [C]-CA--CB-[CG] |==|  0.63899
USER: genes 5 Torsion [CA]-CB--CG-[CD1] |==|  0.81803
USER: genes 6 Torsion [C]-CA--N-[C] |==|  0.76412
USER: genes 7 Torsion [N]-CA--C-[N] |==|  0.89574
USER: genes 8 Torsion [N]-CA--C-[N] |==|  0.94700
USER: genes 9 Torsion [C]-N--CA-[C] |==|  0.73889
USER: genes 10 Torsion [N]-CA--C-[N] |==|  0.21717
USER: genes 11 Torsion [N]-CA--CB-[CG] |==|  0.62228
USER: genes 12 Torsion [CA]-CB--CG-[ND1] |==|  0.01679
ROOT
ATOM      1  CA  HIS C   2      22.470   0.375  46.304  1.00 12.40 LIG 0.18  C 
ENDROOT
BRANCH 1 2
ATOM      2  N   HIS C   2      23.703   0.929  45.725  1.00  9.19 LIG-0.35  N 
ATOM      3 H    HIS C   2      24.411   0.477  45.910  1.00  9.19 LIG 0.16  HD
ATOM      4  C   PHE C   1      23.708   2.033  44.983  1.00 11.27 LIG 0.24  C 
ATOM      5 O    PHE C   1      22.674   2.626  44.646  1.00 15.22 LIG-0.27  OA
BRANCH 4 6
ATOM      6  CA  PHE C   1      25.078   2.539  44.527  1.00  8.70 LIG 0.18  C 
BRANCH 6 7
ATOM      7  CB  PHE C   1      25.219   4.029  44.843  1.00  9.29 LIG 0.07  C 
BRANCH 7 8
ATOM      8  CG  PHE C   1      25.685   4.856  43.680  1.00  9.78 LIG-0.06  A 
ATOM      9  CD1 PHE C   1      26.958   4.684  43.141  1.00  9.46 LIG 0.01  A 
ATOM     10  CE1 PHE C   1      27.396   5.462  42.062  1.00  9.12 LIG 0.00  A 
ATOM     11  CZ  PHE C   1      26.550   6.418  41.513  1.00  8.05 LIG 0.00  A 
ATOM     12  CE2 PHE C   1      25.278   6.598  42.051  1.00  7.93 LIG 0.00  A 
ATOM     13  CD2 PHE C   1      24.852   5.816  43.126  1.00  6.20 LIG 0.01  A 
ENDBRANCH 7 8
ENDBRANCH 6 7
BRANCH 6 14
ATOM     14  N   PHE C   1      25.284   2.297  43.104  1.00 10.26 LIG-0.35  N 
ATOM     15 H    PHE C   1      25.086   2.964  42.597  1.00 10.26 LIG 0.16  HD
ATOM     16  C   ACE C   0      25.741   1.133  42.657  1.00 10.83 LIG 0.21  C 
ATOM     17  CH3 ACE C   0      25.839   1.029  41.160  1.00 14.43 LIG 0.12  C 
ATOM     18 O    ACE C   0      26.109   0.224  43.398  1.00 14.21 LIG-0.27  OA
ENDBRANCH 6 14
ENDBRANCH 4 6
ENDBRANCH 1 2
BRANCH 1 19
ATOM     19  C   HIS C   2      21.826   1.401  47.234  1.00 15.02 LIG 0.24  C 
ATOM     20  N   PRO C   3      22.630   2.175  47.996  1.00 12.04 LIG-0.34  N 
ATOM     21  CA  PRO C   3      22.034   3.230  48.837  1.00 11.10 LIG 0.18  C 
ATOM     22  CD  PRO C   3      24.099   2.124  48.127  1.00 17.75 LIG 0.13  C 
ATOM     23  CB  PRO C   3      23.253   3.935  49.445  1.00 15.56 LIG 0.04  C 
ATOM     24  CG  PRO C   3      24.356   2.934  49.375  1.00 20.46 LIG 0.02  C 
ATOM     25 O    HIS C   2      20.613   1.512  47.242  1.00  9.69 LIG-0.27  OA
BRANCH 21 26
ATOM     26  C   PRO C   3      21.192   4.221  48.028  1.00 13.73 LIG 0.24  C 
ATOM     27  N   ALA C   4      21.408   4.266  46.713  1.00 10.66 LIG-0.35  N 
ATOM     28 H    ALA C   4      21.906   3.702  46.297  1.00 10.66 LIG 0.16  HD
ATOM     29 O    PRO C   3      20.341   4.903  48.603  1.00 16.34 LIG-0.27  OA
BRANCH 27 30
ATOM     30  CA  ALA C   4      20.818   5.286  45.844  1.00 15.22 LIG 0.18  C 
ATOM     31  CB  ALA C   4      21.818   5.690  44.773  1.00 14.26 LIG 0.04  C 
BRANCH 30 32
ATOM     32  C   ALA C   4      19.508   4.886  45.177  1.00 20.48 LIG 0.28  C 
ATOM     33 O    ALA C   4      19.503   4.511  44.005  1.00 25.68 LIG-0.27  OA
ATOM     34  N   NH2 C   5      18.413   4.939  45.925  1.00 12.85 LIG-0.11  N 
ENDBRANCH 30 32
ENDBRANCH 27 30
ENDBRANCH 21 26
ENDBRANCH 1 19
BRANCH 1 35
ATOM     35  CB  HIS C   2      22.758  -0.903  47.093  1.00 13.77 LIG 0.10  C 
BRANCH 35 36
ATOM     36  CG  HIS C   2      21.784  -2.012  46.845  1.00 15.95 LIG 0.06  A 
ATOM     37  CD2 HIS C   2      21.635  -3.217  47.445  1.00 16.64 LIG 0.14  A 
ATOM     38 NE2  HIS C   2      20.570  -3.843  46.838  1.00 23.10 LIG-0.25  NA
ATOM     39  CE1 HIS C   2      20.080  -3.046  45.905  1.00 23.56 LIG 0.23  A 
ATOM     40 ND1  HIS C   2      20.791  -1.933  45.891  1.00 22.80 LIG-0.24  NA
ENDBRANCH 35 36
ENDBRANCH 1 35
TORSDOF 11
ENDMDL
MODEL 62
USER: ADFR SOLUTION from run 177
USER: SCORE 10.946467 LL:  -2.448 LR:  -9.356 RR:   0.000 FEB:  -6.075
USER: RMSD 9.713554
USER: SEED 176
USER: STATUS no improvement in best in 8 clusters for 5 generations
USER: GENES 13
USER: genes 0 Translation |==|  0.53139 0.29472 0.41156
USER: genes 1 Rotation |==|  0.44740 0.98502 0.40420 0.55307
USER: genes 2 Torsion [CB]-CA--N-[C] |==|  0.86110
USER: genes 3 Torsion [N]-C--CA-[N] |==|  0.14270
USER: genes 4 Torsion [C]-CA--CB-[CG] |==|  0.32877
USER: genes 5 Torsion [CA]-CB--CG-[CD1] |==|  0.71078
USER: genes 6 Torsion [C]-CA--N-[C] |==|  0.60947
USER: genes 7 Torsion [N]-CA--C-[N] |==|  0.36432
USER: genes 8 Torsion [N]-CA--C-[N] |==|  0.52169
USER: genes 9 Torsion [C]-N--CA-[C] |==|  0.79218
USER: genes 10 Torsion [N]-CA--C-[N] |==|  0.30033
USER: genes 11 Torsion [N]-CA--CB-[CG] |==|  0.62154
USER: genes 12 Torsion [CA]-CB--CG-[ND1] |==|  0.37283
ROOT
ATOM      1  CA  HIS C   2      25.140  -0.531  40.951  1.00 12.40 LIG 0.18  C 
ENDROOT
BRANCH 1 2
ATOM      2  N   HIS C   2      24.887  -0.350  42.388  1.00  9.19 LIG-0.35  N 
ATOM      3 H    HIS C   2      24.730  -1.081  42.812  1.00  9.19 LIG 0.16  HD
ATOM      4  C   PHE C   1      24.901   0.848  42.968  1.00 11.27 LIG 0.24  C 
ATOM      5 O    PHE C   1      25.217   1.885  42.370  1.00 15.22 LIG-0.27  OA
BRANCH 4 6
ATOM      6  CA  PHE C   1      24.528   0.888  44.452  1.00  8.70 LIG 0.18  C 
BRANCH 6 7
ATOM      7  CB  PHE C   1      24.730   2.299  45.005  1.00  9.29 LIG 0.07  C 
BRANCH 7 8
ATOM      8  CG  PHE C   1      23.472   2.938  45.519  1.00  9.78 LIG-0.06  A 
ATOM      9  CD1 PHE C   1      22.817   3.924  44.783  1.00  9.46 LIG 0.01  A 
ATOM     10  CE1 PHE C   1      21.648   4.526  45.266  1.00  9.12 LIG 0.00  A 
ATOM     11  CZ  PHE C   1      21.127   4.135  46.492  1.00  8.05 LIG 0.00  A 
ATOM     12  CE2 PHE C   1      21.780   3.153  47.234  1.00  7.93 LIG 0.00  A 
ATOM     13  CD2 PHE C   1      22.944   2.559  46.743  1.00  6.20 LIG 0.01  A 
ENDBRANCH 7 8
ENDBRANCH 6 7
BRANCH 6 14
ATOM     14  N   PHE C   1      25.306  -0.077  45.218  1.00 10.26 LIG-0.35  N 
ATOM     15 H    PHE C   1      26.130  -0.142  44.979  1.00 10.26 LIG 0.16  HD
ATOM     16  C   ACE C   0      24.760  -0.785  46.201  1.00 10.83 LIG 0.21  C 
ATOM     17  CH3 ACE C   0      25.685  -1.777  46.851  1.00 14.43 LIG 0.12  C 
ATOM     18 O    ACE C   0      23.608  -0.615  46.595  1.00 14.21 LIG-0.27  OA
ENDBRANCH 6 14
ENDBRANCH 4 6
ENDBRANCH 1 2
BRANCH 1 19
ATOM     19  C   HIS C   2      26.613  -0.266  40.646  1.00 15.02 LIG 0.24  C 
ATOM     20  N   PRO C   3      27.290  -1.169  39.903  1.00 12.04 LIG-0.34  N 
ATOM     21  CA  PRO C   3      28.688  -0.892  39.525  1.00 11.10 LIG 0.18  C 
ATOM     22  CD  PRO C   3      26.821  -2.468  39.382  1.00 17.75 LIG 0.13  C 
ATOM     23  CB  PRO C   3      29.055  -2.074  38.618  1.00 15.56 LIG 0.04  C 
ATOM     24  CG  PRO C   3      28.105  -3.160  38.992  1.00 20.46 LIG 0.02  C 
ATOM     25 O    HIS C   2      27.126   0.760  41.055  1.00  9.69 LIG-0.27  OA
BRANCH 21 26
ATOM     26  C   PRO C   3      28.841   0.431  38.766  1.00 13.73 LIG 0.24  C 
ATOM     27  N   ALA C   4      30.039   0.693  38.242  1.00 10.66 LIG-0.35  N 
ATOM     28 H    ALA C   4      30.679   0.119  38.216  1.00 10.66 LIG 0.16  HD
ATOM     29 O    PRO C   3      27.865   1.173  38.643  1.00 16.34 LIG-0.27  OA
BRANCH 27 30
ATOM     30  CA  ALA C   4      30.384   1.988  37.656  1.00 15.22 LIG 0.18  C 
ATOM     31  CB  ALA C   4      31.896   2.125  37.567  1.00 14.26 LIG 0.04  C 
BRANCH 30 32
ATOM     32  C   ALA C   4      29.778   2.260  36.286  1.00 20.48 LIG 0.28  C 
ATOM     33 O    ALA C   4      30.179   1.640  35.302  1.00 25.68 LIG-0.27  OA
ATOM     34  N   NH2 C   5      28.803   3.158  36.228  1.00 12.85 LIG-0.11  N 
ENDBRANCH 30 32
ENDBRANCH 27 30
ENDBRANCH 21 26
ENDBRANCH 1 19
BRANCH 1 35
ATOM     35  CB  HIS C   2      24.279   0.418  40.116  1.00 13.77 LIG 0.10  C 
BRANCH 35 36
ATOM     36  CG  HIS C   2      23.647  -0.218  38.918  1.00 15.95 LIG 0.06  A 
ATOM     37  CD2 HIS C   2      24.154  -1.058  37.985  1.00 16.64 LIG 0.14  A 
ATOM     38 NE2  HIS C   2      23.135  -1.351  37.108  1.00 23.10 LIG-0.25  NA
ATOM     39  CE1 HIS C   2      22.041  -0.717  37.494  1.00 23.56 LIG 0.23  A 
ATOM     40 ND1  HIS C   2      22.321  -0.029  38.586  1.00 22.80 LIG-0.24  NA
ENDBRANCH 35 36
ENDBRANCH 1 35
TORSDOF 11
ENDMDL
MODEL 63
USER: ADFR SOLUTION from run 73
USER: SCORE 10.995530 LL:  -2.326 LR:  -9.359 RR:   0.000 FEB:  -6.078
USER: RMSD 9.721066
USER: SEED 72
USER: STATUS no improvement in best in 11 clusters for 5 generations
USER: GENES 13
USER: genes 0 Translation |==|  0.41022 0.36837 0.69707
USER: genes 1 Rotation |==|  0.24944 0.77100 0.16388 0.52831
USER: genes 2 Torsion [CB]-CA--N-[C] |==|  0.52223
USER: genes 3 Torsion [N]-C--CA-[N] |==|  0.88335
USER: genes 4 Torsion [C]-CA--CB-[CG] |==|  0.43773
USER: genes 5 Torsion [CA]-CB--CG-[CD1] |==|  0.01311
USER: genes 6 Torsion [C]-CA--N-[C] |==|  0.73256
USER: genes 7 Torsion [N]-CA--C-[N] |==|  0.43182
USER: genes 8 Torsion [N]-CA--C-[N] |==|  0.57185
USER: genes 9 Torsion [C]-N--CA-[C] |==|  0.84116
USER: genes 10 Torsion [N]-CA--C-[N] |==|  0.91337
USER: genes 11 Torsion [N]-CA--CB-[CG] |==|  0.68796
USER: genes 12 Torsion [CA]-CB--CG-[ND1] |==|  0.46758
ROOT
ATOM      1  CA  HIS C   2      22.777   0.739  46.733  1.00 12.40 LIG 0.18  C 
ENDROOT
BRANCH 1 2
ATOM      2  N   HIS C   2      21.918   1.868  47.120  1.00  9.19 LIG-0.35  N 
ATOM      3 H    HIS C   2      21.076   1.707  47.054  1.00  9.19 LIG 0.16  HD
ATOM      4  C   PHE C   1      22.414   3.032  47.532  1.00 11.27 LIG 0.24  C 
ATOM      5 O    PHE C   1      23.624   3.226  47.710  1.00 15.22 LIG-0.27  OA
BRANCH 4 6
ATOM      6  CA  PHE C   1      21.399   4.142  47.812  1.00  8.70 LIG 0.18  C 
BRANCH 6 7
ATOM      7  CB  PHE C   1      20.777   3.948  49.196  1.00  9.29 LIG 0.07  C 
BRANCH 7 8
ATOM      8  CG  PHE C   1      20.200   5.203  49.785  1.00  9.78 LIG-0.06  A 
ATOM      9  CD1 PHE C   1      20.165   6.388  49.054  1.00  9.46 LIG 0.01  A 
ATOM     10  CE1 PHE C   1      19.636   7.561  49.608  1.00  9.12 LIG 0.00  A 
ATOM     11  CZ  PHE C   1      19.132   7.547  50.902  1.00  8.05 LIG 0.00  A 
ATOM     12  CE2 PHE C   1      19.169   6.365  51.639  1.00  7.93 LIG 0.00  A 
ATOM     13  CD2 PHE C   1      19.697   5.202  51.077  1.00  6.20 LIG 0.01  A 
ENDBRANCH 7 8
ENDBRANCH 6 7
BRANCH 6 14
ATOM     14  N   PHE C   1      20.363   4.181  46.787  1.00 10.26 LIG-0.35  N 
ATOM     15 H    PHE C   1      19.717   3.627  46.912  1.00 10.26 LIG 0.16  HD
ATOM     16  C   ACE C   0      20.438   5.015  45.755  1.00 10.83 LIG 0.21  C 
ATOM     17  CH3 ACE C   0      19.318   4.885  44.760  1.00 14.43 LIG 0.12  C 
ATOM     18 O    ACE C   0      21.317   5.866  45.639  1.00 14.21 LIG-0.27  OA
ENDBRANCH 6 14
ENDBRANCH 4 6
ENDBRANCH 1 2
BRANCH 1 19
ATOM     19  C   HIS C   2      23.821   1.204  45.720  1.00 15.02 LIG 0.24  C 
ATOM     20  N   PRO C   3      24.976   0.509  45.617  1.00 12.04 LIG-0.34  N 
ATOM     21  CA  PRO C   3      25.960   0.889  44.588  1.00 11.10 LIG 0.18  C 
ATOM     22  CD  PRO C   3      25.432  -0.638  46.427  1.00 17.75 LIG 0.13  C 
ATOM     23  CB  PRO C   3      27.051  -0.181  44.723  1.00 15.56 LIG 0.04  C 
ATOM     24  CG  PRO C   3      26.906  -0.710  46.109  1.00 20.46 LIG 0.02  C 
ATOM     25 O    HIS C   2      23.574   2.168  45.016  1.00  9.69 LIG-0.27  OA
BRANCH 21 26
ATOM     26  C   PRO C   3      25.369   0.873  43.174  1.00 13.73 LIG 0.24  C 
ATOM     27  N   ALA C   4      26.218   0.672  42.166  1.00 10.66 LIG-0.35  N 
ATOM     28 H    ALA C   4      27.040   0.447  42.278  1.00 10.66 LIG 0.16  HD
ATOM     29 O    PRO C   3      24.153   1.011  43.026  1.00 16.34 LIG-0.27  OA
BRANCH 27 30
ATOM     30  CA  ALA C   4      25.832   0.815  40.761  1.00 15.22 LIG 0.18  C 
ATOM     31  CB  ALA C   4      27.030   0.534  39.868  1.00 14.26 LIG 0.04  C 
BRANCH 30 32
ATOM     32  C   ALA C   4      24.665  -0.059  40.320  1.00 20.48 LIG 0.28  C 
ATOM     33 O    ALA C   4      23.917   0.322  39.420  1.00 25.68 LIG-0.27  OA
ATOM     34  N   NH2 C   5      24.529  -1.230  40.928  1.00 12.85 LIG-0.11  N 
ENDBRANCH 30 32
ENDBRANCH 27 30
ENDBRANCH 21 26
ENDBRANCH 1 19
BRANCH 1 35
ATOM     35  CB  HIS C   2      21.954  -0.393  46.117  1.00 13.77 LIG 0.10  C 
BRANCH 35 36
ATOM     36  CG  HIS C   2      21.900  -1.637  46.947  1.00 15.95 LIG 0.06  A 
ATOM     37  CD2 HIS C   2      22.594  -2.001  48.052  1.00 16.64 LIG 0.14  A 
ATOM     38 NE2  HIS C   2      22.139  -3.245  48.424  1.00 23.10 LIG-0.25  NA
ATOM     39  CE1 HIS C   2      21.195  -3.626  47.581  1.00 23.56 LIG 0.23  A 
ATOM     40 ND1  HIS C   2      21.028  -2.673  46.682  1.00 22.80 LIG-0.24  NA
ENDBRANCH 35 36
ENDBRANCH 1 35
TORSDOF 11
ENDMDL
MODEL 64
USER: ADFR SOLUTION from run 183
USER: SCORE 11.131857 LL:  -2.813 LR:  -9.355 RR:   0.000 FEB:  -6.074
USER: RMSD 8.172397
USER: SEED 182
USER: STATUS no improvement in best in 5 clusters for 5 generations
USER: GENES 13
USER: genes 0 Translation |==|  0.39267 0.52362 0.62272
USER: genes 1 Rotation |==|  0.43011 0.04148 0.31372 0.51342
USER: genes 2 Torsion [CB]-CA--N-[C] |==|  0.58112
USER: genes 3 Torsion [N]-C--CA-[N] |==|  0.92259
USER: genes 4 Torsion [C]-CA--CB-[CG] |==|  0.50472
USER: genes 5 Torsion [CA]-CB--CG-[CD1] |==|  0.95472
USER: genes 6 Torsion [C]-CA--N-[C] |==|  0.80027
USER: genes 7 Torsion [N]-CA--C-[N] |==|  0.83469
USER: genes 8 Torsion [N]-CA--C-[N] |==|  0.23775
USER: genes 9 Torsion [C]-N--CA-[C] |==|  0.59714
USER: genes 10 Torsion [N]-CA--C-[N] |==|  0.47778
USER: genes 11 Torsion [N]-CA--CB-[CG] |==|  0.75985
USER: genes 12 Torsion [CA]-CB--CG-[ND1] |==|  0.90040
ROOT
ATOM      1  CA  HIS C   2      22.435   3.417  45.227  1.00 12.40 LIG 0.18  C 
ENDROOT
BRANCH 1 2
ATOM      2  N   HIS C   2      22.295   2.177  46.004  1.00  9.19 LIG-0.35  N 
ATOM      3 H    HIS C   2      21.715   2.223  46.637  1.00  9.19 LIG 0.16  HD
ATOM      4  C   PHE C   1      23.011   1.087  45.740  1.00 11.27 LIG 0.24  C 
ATOM      5 O    PHE C   1      23.778   1.000  44.771  1.00 15.22 LIG-0.27  OA
BRANCH 4 6
ATOM      6  CA  PHE C   1      22.823  -0.097  46.692  1.00  8.70 LIG 0.18  C 
BRANCH 6 7
ATOM      7  CB  PHE C   1      21.781  -1.063  46.128  1.00  9.29 LIG 0.07  C 
BRANCH 7 8
ATOM      8  CG  PHE C   1      21.499  -2.240  47.017  1.00  9.78 LIG-0.06  A 
ATOM      9  CD1 PHE C   1      22.366  -2.581  48.052  1.00  9.46 LIG 0.01  A 
ATOM     10  CE1 PHE C   1      22.108  -3.685  48.875  1.00  9.12 LIG 0.00  A 
ATOM     11  CZ  PHE C   1      20.969  -4.451  48.665  1.00  8.05 LIG 0.00  A 
ATOM     12  CE2 PHE C   1      20.101  -4.117  47.628  1.00  7.93 LIG 0.00  A 
ATOM     13  CD2 PHE C   1      20.367  -3.014  46.814  1.00  6.20 LIG 0.01  A 
ENDBRANCH 7 8
ENDBRANCH 6 7
BRANCH 6 14
ATOM     14  N   PHE C   1      22.434   0.354  48.023  1.00 10.26 LIG-0.35  N 
ATOM     15 H    PHE C   1      21.616   0.190  48.230  1.00 10.26 LIG 0.16  HD
ATOM     16  C   ACE C   0      23.297   0.965  48.829  1.00 10.83 LIG 0.21  C 
ATOM     17  CH3 ACE C   0      22.719   1.416  50.142  1.00 14.43 LIG 0.12  C 
ATOM     18 O    ACE C   0      24.488   1.107  48.558  1.00 14.21 LIG-0.27  OA
ENDBRANCH 6 14
ENDBRANCH 4 6
ENDBRANCH 1 2
BRANCH 1 19
ATOM     19  C   HIS C   2      23.861   3.540  44.696  1.00 15.02 LIG 0.24  C 
ATOM     20  N   PRO C   3      24.880   3.570  45.583  1.00 12.04 LIG-0.34  N 
ATOM     21  CA  PRO C   3      26.269   3.602  45.089  1.00 11.10 LIG 0.18  C 
ATOM     22  CD  PRO C   3      24.814   3.580  47.058  1.00 17.75 LIG 0.13  C 
ATOM     23  CB  PRO C   3      27.107   3.522  46.372  1.00 15.56 LIG 0.04  C 
ATOM     24  CG  PRO C   3      26.206   4.007  47.456  1.00 20.46 LIG 0.02  C 
ATOM     25 O    HIS C   2      24.042   3.578  43.491  1.00  9.69 LIG-0.27  OA
BRANCH 21 26
ATOM     26  C   PRO C   3      26.592   2.423  44.166  1.00 13.73 LIG 0.24  C 
ATOM     27  N   ALA C   4      26.287   2.564  42.875  1.00 10.66 LIG-0.35  N 
ATOM     28 H    ALA C   4      26.027   3.308  42.530  1.00 10.66 LIG 0.16  HD
ATOM     29 O    PRO C   3      27.138   1.421  44.632  1.00 16.34 LIG-0.27  OA
BRANCH 27 30
ATOM     30  CA  ALA C   4      26.364   1.463  41.915  1.00 15.22 LIG 0.18  C 
ATOM     31  CB  ALA C   4      25.019   0.757  41.834  1.00 14.26 LIG 0.04  C 
BRANCH 30 32
ATOM     32  C   ALA C   4      26.803   1.860  40.511  1.00 20.48 LIG 0.28  C 
ATOM     33 O    ALA C   4      26.943   3.048  40.223  1.00 25.68 LIG-0.27  OA
ATOM     34  N   NH2 C   5      27.043   0.874  39.656  1.00 12.85 LIG-0.11  N 
ENDBRANCH 30 32
ENDBRANCH 27 30
ENDBRANCH 21 26
ENDBRANCH 1 19
BRANCH 1 35
ATOM     35  CB  HIS C   2      22.114   4.643  46.084  1.00 13.77 LIG 0.10  C 
BRANCH 35 36
ATOM     36  CG  HIS C   2      20.662   5.002  46.126  1.00 15.95 LIG 0.06  A 
ATOM     37  CD2 HIS C   2      19.902   5.523  47.118  1.00 16.64 LIG 0.14  A 
ATOM     38 NE2  HIS C   2      18.629   5.671  46.617  1.00 23.10 LIG-0.25  NA
ATOM     39  CE1 HIS C   2      18.612   5.262  45.361  1.00 23.56 LIG 0.23  A 
ATOM     40 ND1  HIS C   2      19.827   4.857  45.038  1.00 22.80 LIG-0.24  NA
ENDBRANCH 35 36
ENDBRANCH 1 35
TORSDOF 11
ENDMDL
MODEL 65
USER: ADFR SOLUTION from run 178
USER: SCORE 10.826818 LL:  -3.045 LR:  -9.348 RR:   0.000 FEB:  -6.067
USER: RMSD 9.171143
USER: SEED 177
USER: STATUS no improvement in best in 42 clusters for 5 generations
USER: GENES 13
USER: genes 0 Translation |==|  0.40755 0.29489 0.73800
USER: genes 1 Rotation |==|  0.41660 0.85243 0.16183 0.56692
USER: genes 2 Torsion [CB]-CA--N-[C] |==|  0.85556
USER: genes 3 Torsion [N]-C--CA-[N] |==|  0.11424
USER: genes 4 Torsion [C]-CA--CB-[CG] |==|  0.36725
USER: genes 5 Torsion [CA]-CB--CG-[CD1] |==|  0.83079
USER: genes 6 Torsion [C]-CA--N-[C] |==|  0.57305
USER: genes 7 Torsion [N]-CA--C-[N] |==|  0.46939
USER: genes 8 Torsion [N]-CA--C-[N] |==|  0.95291
USER: genes 9 Torsion [C]-N--CA-[C] |==|  0.68646
USER: genes 10 Torsion [N]-CA--C-[N] |==|  0.38236
USER: genes 11 Torsion [N]-CA--CB-[CG] |==|  0.68883
USER: genes 12 Torsion [CA]-CB--CG-[ND1] |==|  0.47401
ROOT
ATOM      1  CA  HIS C   2      22.725  -0.528  47.561  1.00 12.40 LIG 0.18  C 
ENDROOT
BRANCH 1 2
ATOM      2  N   HIS C   2      22.191   0.773  47.991  1.00  9.19 LIG-0.35  N 
ATOM      3 H    HIS C   2      21.906   0.785  48.801  1.00  9.19 LIG 0.16  HD
ATOM      4  C   PHE C   1      22.158   1.830  47.183  1.00 11.27 LIG 0.24  C 
ATOM      5 O    PHE C   1      22.653   1.830  46.048  1.00 15.22 LIG-0.27  OA
BRANCH 4 6
ATOM      6  CA  PHE C   1      21.488   3.089  47.740  1.00  8.70 LIG 0.18  C 
BRANCH 6 7
ATOM      7  CB  PHE C   1      21.869   4.304  46.892  1.00  9.29 LIG 0.07  C 
BRANCH 7 8
ATOM      8  CG  PHE C   1      20.702   5.163  46.501  1.00  9.78 LIG-0.06  A 
ATOM      9  CD1 PHE C   1      19.660   4.650  45.731  1.00  9.46 LIG 0.01  A 
ATOM     10  CE1 PHE C   1      18.575   5.454  45.358  1.00  9.12 LIG 0.00  A 
ATOM     11  CZ  PHE C   1      18.529   6.781  45.764  1.00  8.05 LIG 0.00  A 
ATOM     12  CE2 PHE C   1      19.570   7.301  46.530  1.00  7.93 LIG 0.00  A 
ATOM     13  CD2 PHE C   1      20.646   6.490  46.897  1.00  6.20 LIG 0.01  A 
ENDBRANCH 7 8
ENDBRANCH 6 7
BRANCH 6 14
ATOM     14  N   PHE C   1      21.850   3.306  49.135  1.00 10.26 LIG-0.35  N 
ATOM     15 H    PHE C   1      22.609   2.970  49.364  1.00 10.26 LIG 0.16  HD
ATOM     16  C   ACE C   0      21.053   3.973  49.963  1.00 10.83 LIG 0.21  C 
ATOM     17  CH3 ACE C   0      21.548   4.056  51.381  1.00 14.43 LIG 0.12  C 
ATOM     18 O    ACE C   0      20.018   4.529  49.601  1.00 14.21 LIG-0.27  OA
ENDBRANCH 6 14
ENDBRANCH 4 6
ENDBRANCH 1 2
BRANCH 1 19
ATOM     19  C   HIS C   2      24.236  -0.429  47.363  1.00 15.02 LIG 0.24  C 
ATOM     20  N   PRO C   3      24.940  -1.570  47.190  1.00 12.04 LIG-0.34  N 
ATOM     21  CA  PRO C   3      26.386  -1.492  46.911  1.00 11.10 LIG 0.18  C 
ATOM     22  CD  PRO C   3      24.458  -2.964  47.241  1.00 17.75 LIG 0.13  C 
ATOM     23  CB  PRO C   3      26.784  -2.955  46.676  1.00 15.56 LIG 0.04  C 
ATOM     24  CG  PRO C   3      25.735  -3.759  47.365  1.00 20.46 LIG 0.02  C 
ATOM     25 O    HIS C   2      24.758   0.671  47.339  1.00  9.69 LIG-0.27  OA
BRANCH 21 26
ATOM     26  C   PRO C   3      26.702  -0.647  45.673  1.00 13.73 LIG 0.24  C 
ATOM     27  N   ALA C   4      25.694  -0.400  44.836  1.00 10.66 LIG-0.35  N 
ATOM     28 H    ALA C   4      24.876  -0.594  45.013  1.00 10.66 LIG 0.16  HD
ATOM     29 O    PRO C   3      27.844  -0.209  45.515  1.00 16.34 LIG-0.27  OA
BRANCH 27 30
ATOM     30  CA  ALA C   4      25.883   0.230  43.529  1.00 15.22 LIG 0.18  C 
ATOM     31  CB  ALA C   4      25.317  -0.668  42.440  1.00 14.26 LIG 0.04  C 
BRANCH 30 32
ATOM     32  C   ALA C   4      25.280   1.622  43.389  1.00 20.48 LIG 0.28  C 
ATOM     33 O    ALA C   4      24.174   1.864  43.869  1.00 25.68 LIG-0.27  OA
ATOM     34  N   NH2 C   5      26.013   2.533  42.762  1.00 12.85 LIG-0.11  N 
ENDBRANCH 30 32
ENDBRANCH 27 30
ENDBRANCH 21 26
ENDBRANCH 1 19
BRANCH 1 35
ATOM     35  CB  HIS C   2      22.079  -0.984  46.253  1.00 13.77 LIG 0.10  C 
BRANCH 35 36
ATOM     36  CG  HIS C   2      21.193  -2.183  46.388  1.00 15.95 LIG 0.06  A 
ATOM     37  CD2 HIS C   2      20.975  -3.015  47.434  1.00 16.64 LIG 0.14  A 
ATOM     38 NE2  HIS C   2      20.049  -3.946  47.024  1.00 23.10 LIG-0.25  NA
ATOM     39  CE1 HIS C   2      19.706  -3.688  45.774  1.00 23.56 LIG 0.23  A 
ATOM     40 ND1  HIS C   2      20.379  -2.627  45.367  1.00 22.80 LIG-0.24  NA
ENDBRANCH 35 36
ENDBRANCH 1 35
TORSDOF 11
ENDMDL
MODEL 66
USER: ADFR SOLUTION from run 160
USER: SCORE 10.974942 LL:  -3.750 LR:  -9.351 RR:   0.000 FEB:  -6.070
USER: RMSD 9.484319
USER: SEED 159
USER: STATUS no improvement in best in 27 clusters for 5 generations
USER: GENES 13
USER: genes 0 Translation |==|  0.49314 0.29837 0.36291
USER: genes 1 Rotation |==|  0.46129 0.06163 0.73190 0.55058
USER: genes 2 Torsion [CB]-CA--N-[C] |==|  0.50556
USER: genes 3 Torsion [N]-C--CA-[N] |==|  0.32600
USER: genes 4 Torsion [C]-CA--CB-[CG] |==|  0.25567
USER: genes 5 Torsion [CA]-CB--CG-[CD1] |==|  0.56744
USER: genes 6 Torsion [C]-CA--N-[C] |==|  0.70742
USER: genes 7 Torsion [N]-CA--C-[N] |==|  0.88092
USER: genes 8 Torsion [N]-CA--C-[N] |==|  0.37128
USER: genes 9 Torsion [C]-N--CA-[C] |==|  0.18092
USER: genes 10 Torsion [N]-CA--C-[N] |==|  0.62140
USER: genes 11 Torsion [N]-CA--CB-[CG] |==|  0.50134
USER: genes 12 Torsion [CA]-CB--CG-[ND1] |==|  0.26643
ROOT
ATOM      1  CA  HIS C   2      24.394  -0.468  39.966  1.00 12.40 LIG 0.18  C 
ENDROOT
BRANCH 1 2
ATOM      2  N   HIS C   2      24.773   0.458  41.044  1.00  9.19 LIG-0.35  N 
ATOM      3 H    HIS C   2      24.531   1.272  40.908  1.00  9.19 LIG 0.16  HD
ATOM      4  C   PHE C   1      25.432   0.057  42.128  1.00 11.27 LIG 0.24  C 
ATOM      5 O    PHE C   1      25.696  -1.131  42.358  1.00 15.22 LIG-0.27  OA
BRANCH 4 6
ATOM      6  CA  PHE C   1      25.838   1.150  43.119  1.00  8.70 LIG 0.18  C 
BRANCH 6 7
ATOM      7  CB  PHE C   1      27.359   1.178  43.276  1.00  9.29 LIG 0.07  C 
BRANCH 7 8
ATOM      8  CG  PHE C   1      28.050   2.126  42.339  1.00  9.78 LIG-0.06  A 
ATOM      9  CD1 PHE C   1      29.384   1.937  41.982  1.00  9.46 LIG 0.01  A 
ATOM     10  CE1 PHE C   1      30.032   2.827  41.116  1.00  9.12 LIG 0.00  A 
ATOM     11  CZ  PHE C   1      29.338   3.913  40.598  1.00  8.05 LIG 0.00  A 
ATOM     12  CE2 PHE C   1      28.006   4.110  40.956  1.00  7.93 LIG 0.00  A 
ATOM     13  CD2 PHE C   1      27.370   3.216  41.819  1.00  6.20 LIG 0.01  A 
ENDBRANCH 7 8
ENDBRANCH 6 7
BRANCH 6 14
ATOM     14  N   PHE C   1      25.195   0.955  44.413  1.00 10.26 LIG-0.35  N 
ATOM     15 H    PHE C   1      25.527   0.316  44.883  1.00 10.26 LIG 0.16  HD
ATOM     16  C   ACE C   0      24.180   1.719  44.805  1.00 10.83 LIG 0.21  C 
ATOM     17  CH3 ACE C   0      23.594   1.347  46.139  1.00 14.43 LIG 0.12  C 
ATOM     18 O    ACE C   0      23.778   2.688  44.165  1.00 14.21 LIG-0.27  OA
ENDBRANCH 6 14
ENDBRANCH 4 6
ENDBRANCH 1 2
BRANCH 1 19
ATOM     19  C   HIS C   2      25.638  -1.163  39.417  1.00 15.02 LIG 0.24  C 
ATOM     20  N   PRO C   3      26.751  -0.426  39.209  1.00 12.04 LIG-0.34  N 
ATOM     21  CA  PRO C   3      27.988  -1.092  38.762  1.00 11.10 LIG 0.18  C 
ATOM     22  CD  PRO C   3      26.931   1.031  39.367  1.00 17.75 LIG 0.13  C 
ATOM     23  CB  PRO C   3      29.021   0.042  38.747  1.00 15.56 LIG 0.04  C 
ATOM     24  CG  PRO C   3      28.221   1.294  38.630  1.00 20.46 LIG 0.02  C 
ATOM     25 O    HIS C   2      25.601  -2.364  39.211  1.00  9.69 LIG-0.27  OA
BRANCH 21 26
ATOM     26  C   PRO C   3      28.432  -2.208  39.713  1.00 13.73 LIG 0.24  C 
ATOM     27  N   ALA C   4      28.787  -3.369  39.161  1.00 10.66 LIG-0.35  N 
ATOM     28 H    ALA C   4      28.880  -3.479  38.313  1.00 10.66 LIG 0.16  HD
ATOM     29 O    PRO C   3      28.475  -1.987  40.925  1.00 16.34 LIG-0.27  OA
BRANCH 27 30
ATOM     30  CA  ALA C   4      29.052  -4.575  39.946  1.00 15.22 LIG 0.18  C 
ATOM     31  CB  ALA C   4      30.169  -4.304  40.942  1.00 14.26 LIG 0.04  C 
BRANCH 30 32
ATOM     32  C   ALA C   4      27.848  -5.139  40.689  1.00 20.48 LIG 0.28  C 
ATOM     33 O    ALA C   4      26.764  -5.240  40.117  1.00 25.68 LIG-0.27  OA
ATOM     34  N   NH2 C   5      28.045  -5.529  41.942  1.00 12.85 LIG-0.11  N 
ENDBRANCH 30 32
ENDBRANCH 27 30
ENDBRANCH 21 26
ENDBRANCH 1 19
BRANCH 1 35
ATOM     35  CB  HIS C   2      23.692   0.272  38.826  1.00 13.77 LIG 0.10  C 
BRANCH 35 36
ATOM     36  CG  HIS C   2      23.264  -0.607  37.693  1.00 15.95 LIG 0.06  A 
ATOM     37  CD2 HIS C   2      23.951  -1.083  36.627  1.00 16.64 LIG 0.14  A 
ATOM     38 NE2  HIS C   2      23.080  -1.861  35.899  1.00 23.10 LIG-0.25  NA
ATOM     39  CE1 HIS C   2      21.903  -1.865  36.502  1.00 23.56 LIG 0.23  A 
ATOM     40 ND1  HIS C   2      21.988  -1.120  37.589  1.00 22.80 LIG-0.24  NA
ENDBRANCH 35 36
ENDBRANCH 1 35
TORSDOF 11
ENDMDL
MODEL 67
USER: ADFR SOLUTION from run 185
USER: SCORE 10.968615 LL:  -3.123 LR:  -9.346 RR:   0.000 FEB:  -6.065
USER: RMSD 8.499912
USER: SEED 184
USER: STATUS no improvement in best in 31 clusters for 5 generations
USER: GENES 13
USER: genes 0 Translation |==|  0.61983 0.37368 0.40729
USER: genes 1 Rotation |==|  0.44602 0.23608 0.08235 0.55476
USER: genes 2 Torsion [CB]-CA--N-[C] |==|  0.53342
USER: genes 3 Torsion [N]-C--CA-[N] |==|  0.98591
USER: genes 4 Torsion [C]-CA--CB-[CG] |==|  0.80594
USER: genes 5 Torsion [CA]-CB--CG-[CD1] |==|  0.62235
USER: genes 6 Torsion [C]-CA--N-[C] |==|  0.75165
USER: genes 7 Torsion [N]-CA--C-[N] |==|  0.88194
USER: genes 8 Torsion [N]-CA--C-[N] |==|  0.77256
USER: genes 9 Torsion [C]-N--CA-[C] |==|  0.71913
USER: genes 10 Torsion [N]-CA--C-[N] |==|  0.18904
USER: genes 11 Torsion [N]-CA--CB-[CG] |==|  0.62749
USER: genes 12 Torsion [CA]-CB--CG-[ND1] |==|  0.84005
ROOT
ATOM      1  CA  HIS C   2      26.865   0.831  40.865  1.00 12.40 LIG 0.18  C 
ENDROOT
BRANCH 1 2
ATOM      2  N   HIS C   2      26.703  -0.305  39.945  1.00  9.19 LIG-0.35  N 
ATOM      3 H    HIS C   2      26.321  -0.990  40.297  1.00  9.19 LIG 0.16  HD
ATOM      4  C   PHE C   1      27.118  -0.263  38.682  1.00 11.27 LIG 0.24  C 
ATOM      5 O    PHE C   1      27.585   0.757  38.157  1.00 15.22 LIG-0.27  OA
BRANCH 4 6
ATOM      6  CA  PHE C   1      26.966  -1.554  37.873  1.00  8.70 LIG 0.18  C 
BRANCH 6 7
ATOM      7  CB  PHE C   1      26.019  -1.325  36.694  1.00  9.29 LIG 0.07  C 
BRANCH 7 8
ATOM      8  CG  PHE C   1      24.585  -1.127  37.094  1.00  9.78 LIG-0.06  A 
ATOM      9  CD1 PHE C   1      23.554  -1.761  36.405  1.00  9.46 LIG 0.01  A 
ATOM     10  CE1 PHE C   1      22.216  -1.569  36.772  1.00  9.12 LIG 0.00  A 
ATOM     11  CZ  PHE C   1      21.907  -0.740  37.843  1.00  8.05 LIG 0.00  A 
ATOM     12  CE2 PHE C   1      22.934  -0.100  38.533  1.00  7.93 LIG 0.00  A 
ATOM     13  CD2 PHE C   1      24.264  -0.300  38.159  1.00  6.20 LIG 0.01  A 
ENDBRANCH 7 8
ENDBRANCH 6 7
BRANCH 6 14
ATOM     14  N   PHE C   1      26.485  -2.647  38.710  1.00 10.26 LIG-0.35  N 
ATOM     15 H    PHE C   1      25.629  -2.725  38.737  1.00 10.26 LIG 0.16  HD
ATOM     16  C   ACE C   0      27.325  -3.441  39.365  1.00 10.83 LIG 0.21  C 
ATOM     17  CH3 ACE C   0      26.664  -4.480  40.228  1.00 14.43 LIG 0.12  C 
ATOM     18 O    ACE C   0      28.547  -3.378  39.242  1.00 14.21 LIG-0.27  OA
ENDBRANCH 6 14
ENDBRANCH 4 6
ENDBRANCH 1 2
BRANCH 1 19
ATOM     19  C   HIS C   2      28.289   1.374  40.775  1.00 15.02 LIG 0.24  C 
ATOM     20  N   PRO C   3      29.313   0.493  40.718  1.00 12.04 LIG-0.34  N 
ATOM     21  CA  PRO C   3      30.689   0.994  40.546  1.00 11.10 LIG 0.18  C 
ATOM     22  CD  PRO C   3      29.264  -0.979  40.811  1.00 17.75 LIG 0.13  C 
ATOM     23  CB  PRO C   3      31.523  -0.288  40.423  1.00 15.56 LIG 0.04  C 
ATOM     24  CG  PRO C   3      30.704  -1.349  41.075  1.00 20.46 LIG 0.02  C 
ATOM     25 O    HIS C   2      28.460   2.579  40.729  1.00  9.69 LIG-0.27  OA
BRANCH 21 26
ATOM     26  C   PRO C   3      30.848   1.857  39.290  1.00 13.73 LIG 0.24  C 
ATOM     27  N   ALA C   4      31.018   1.216  38.133  1.00 10.66 LIG-0.35  N 
ATOM     28 H    ALA C   4      30.934   0.364  38.048  1.00 10.66 LIG 0.16  HD
ATOM     29 O    PRO C   3      30.782   3.084  39.387  1.00 16.34 LIG-0.27  OA
BRANCH 27 30
ATOM     30  CA  ALA C   4      31.366   1.902  36.888  1.00 15.22 LIG 0.18  C 
ATOM     31  CB  ALA C   4      32.462   1.133  36.167  1.00 14.26 LIG 0.04  C 
BRANCH 30 32
ATOM     32  C   ALA C   4      30.205   2.130  35.929  1.00 20.48 LIG 0.28  C 
ATOM     33 O    ALA C   4      30.153   1.510  34.867  1.00 25.68 LIG-0.27  OA
ATOM     34  N   NH2 C   5      29.270   2.989  36.312  1.00 12.85 LIG-0.11  N 
ENDBRANCH 30 32
ENDBRANCH 27 30
ENDBRANCH 21 26
ENDBRANCH 1 19
BRANCH 1 35
ATOM     35  CB  HIS C   2      26.578   0.416  42.309  1.00 13.77 LIG 0.10  C 
BRANCH 35 36
ATOM     36  CG  HIS C   2      25.699   1.366  43.060  1.00 15.95 LIG 0.06  A 
ATOM     37  CD2 HIS C   2      24.526   1.171  43.707  1.00 16.64 LIG 0.14  A 
ATOM     38 NE2  HIS C   2      24.153   2.382  44.242  1.00 23.10 LIG-0.25  NA
ATOM     39  CE1 HIS C   2      25.069   3.285  43.939  1.00 23.56 LIG 0.23  A 
ATOM     40 ND1  HIS C   2      26.015   2.698  43.229  1.00 22.80 LIG-0.24  NA
ENDBRANCH 35 36
ENDBRANCH 1 35
TORSDOF 11
ENDMDL
MODEL 68
USER: ADFR SOLUTION from run 1
USER: SCORE 11.419334 LL:  -3.202 LR:  -9.342 RR:   0.000 FEB:  -6.061
USER: RMSD 6.263453
USER: SEED 241559
USER: STATUS no improvement in best in 10 clusters for 5 generations
USER: GENES 13
USER: genes 0 Translation |==|  0.47085 0.47218 0.77521
USER: genes 1 Rotation |==|  0.24867 0.43828 0.48260 0.92746
USER: genes 2 Torsion [CB]-CA--N-[C] |==|  0.50026
USER: genes 3 Torsion [N]-C--CA-[N] |==|  0.19058
USER: genes 4 Torsion [C]-CA--CB-[CG] |==|  0.31058
USER: genes 5 Torsion [CA]-CB--CG-[CD1] |==|  0.98034
USER: genes 6 Torsion [C]-CA--N-[C] |==|  0.75928
USER: genes 7 Torsion [N]-CA--C-[N] |==|  0.36193
USER: genes 8 Torsion [N]-CA--C-[N] |==|  0.26621
USER: genes 9 Torsion [C]-N--CA-[C] |==|  0.87478
USER: genes 10 Torsion [N]-CA--C-[N] |==|  0.37057
USER: genes 11 Torsion [N]-CA--CB-[CG] |==|  0.20443
USER: genes 12 Torsion [CA]-CB--CG-[ND1] |==|  0.30486
ROOT
ATOM      1  CA  HIS C   2      23.960   2.530  48.315  1.00 12.40 LIG 0.18  C 
ENDROOT
BRANCH 1 2
ATOM      2  N   HIS C   2      24.106   1.113  47.951  1.00  9.19 LIG-0.35  N 
ATOM      3 H    HIS C   2      24.672   0.969  47.321  1.00  9.19 LIG 0.16  HD
ATOM      4  C   PHE C   1      23.414   0.148  48.552  1.00 11.27 LIG 0.24  C 
ATOM      5 O    PHE C   1      22.668   0.354  49.519  1.00 15.22 LIG-0.27  OA
BRANCH 4 6
ATOM      6  CA  PHE C   1      23.604  -1.267  48.003  1.00  8.70 LIG 0.18  C 
BRANCH 6 7
ATOM      7  CB  PHE C   1      22.550  -2.205  48.594  1.00  9.29 LIG 0.07  C 
BRANCH 7 8
ATOM      8  CG  PHE C   1      21.542  -2.696  47.595  1.00  9.78 LIG-0.06  A 
ATOM      9  CD1 PHE C   1      21.516  -2.191  46.296  1.00  9.46 LIG 0.01  A 
ATOM     10  CE1 PHE C   1      20.570  -2.642  45.367  1.00  9.12 LIG 0.00  A 
ATOM     11  CZ  PHE C   1      19.647  -3.610  45.737  1.00  8.05 LIG 0.00  A 
ATOM     12  CE2 PHE C   1      19.665  -4.115  47.036  1.00  7.93 LIG 0.00  A 
ATOM     13  CD2 PHE C   1      20.613  -3.659  47.954  1.00  6.20 LIG 0.01  A 
ENDBRANCH 7 8
ENDBRANCH 6 7
BRANCH 6 14
ATOM     14  N   PHE C   1      24.945  -1.766  48.282  1.00 10.26 LIG-0.35  N 
ATOM     15 H    PHE C   1      25.012  -2.224  49.007  1.00 10.26 LIG 0.16  HD
ATOM     16  C   ACE C   0      25.962  -1.517  47.463  1.00 10.83 LIG 0.21  C 
ATOM     17  CH3 ACE C   0      27.288  -2.054  47.927  1.00 14.43 LIG 0.12  C 
ATOM     18 O    ACE C   0      25.833  -0.943  46.384  1.00 14.21 LIG-0.27  OA
ENDBRANCH 6 14
ENDBRANCH 4 6
ENDBRANCH 1 2
BRANCH 1 19
ATOM     19  C   HIS C   2      22.511   2.971  48.118  1.00 15.02 LIG 0.24  C 
ATOM     20  N   PRO C   3      21.892   3.625  49.125  1.00 12.04 LIG-0.34  N 
ATOM     21  CA  PRO C   3      20.523   4.135  48.924  1.00 11.10 LIG 0.18  C 
ATOM     22  CD  PRO C   3      22.404   3.925  50.477  1.00 17.75 LIG 0.13  C 
ATOM     23  CB  PRO C   3      20.228   4.890  50.227  1.00 15.56 LIG 0.04  C 
ATOM     24  CG  PRO C   3      21.154   4.302  51.235  1.00 20.46 LIG 0.02  C 
ATOM     25 O    HIS C   2      21.965   2.746  47.052  1.00  9.69 LIG-0.27  OA
BRANCH 21 26
ATOM     26  C   PRO C   3      20.418   5.080  47.723  1.00 13.73 LIG 0.24  C 
ATOM     27  N   ALA C   4      20.019   4.547  46.568  1.00 10.66 LIG-0.35  N 
ATOM     28 H    ALA C   4      19.721   3.744  46.496  1.00 10.66 LIG 0.16  HD
ATOM     29 O    PRO C   3      20.670   6.277  47.872  1.00 16.34 LIG-0.27  OA
BRANCH 27 30
ATOM     30  CA  ALA C   4      20.050   5.281  45.302  1.00 15.22 LIG 0.18  C 
ATOM     31  CB  ALA C   4      19.278   4.510  44.242  1.00 14.26 LIG 0.04  C 
BRANCH 30 32
ATOM     32  C   ALA C   4      19.517   6.706  45.367  1.00 20.48 LIG 0.28  C 
ATOM     33 O    ALA C   4      18.467   6.944  45.963  1.00 25.68 LIG-0.27  OA
ATOM     34  N   NH2 C   5      20.249   7.648  44.786  1.00 12.85 LIG-0.11  N 
ENDBRANCH 30 32
ENDBRANCH 27 30
ENDBRANCH 21 26
ENDBRANCH 1 19
BRANCH 1 35
ATOM     35  CB  HIS C   2      24.871   3.414  47.462  1.00 13.77 LIG 0.10  C 
BRANCH 35 36
ATOM     36  CG  HIS C   2      24.414   3.587  46.048  1.00 15.95 LIG 0.06  A 
ATOM     37  CD2 HIS C   2      24.353   2.710  45.018  1.00 16.64 LIG 0.14  A 
ATOM     38 NE2  HIS C   2      23.837   3.389  43.938  1.00 23.10 LIG-0.25  NA
ATOM     39  CE1 HIS C   2      23.584   4.636  44.297  1.00 23.56 LIG 0.23  A 
ATOM     40 ND1  HIS C   2      23.919   4.781  45.566  1.00 22.80 LIG-0.24  NA
ENDBRANCH 35 36
ENDBRANCH 1 35
TORSDOF 11
ENDMDL
MODEL 69
USER: ADFR SOLUTION from run 128
USER: SCORE 11.369106 LL:  -3.448 LR:  -9.338 RR:   0.000 FEB:  -6.056
USER: RMSD 8.322941
USER: SEED 127
USER: STATUS no improvement in best in 49 clusters for 5 generations
USER: GENES 13
USER: genes 0 Translation |==|  0.41375 0.58291 0.58715
USER: genes 1 Rotation |==|  0.52981 0.98179 0.60129 0.58201
USER: genes 2 Torsion [CB]-CA--N-[C] |==|  0.80000
USER: genes 3 Torsion [N]-C--CA-[N] |==|  0.73890
USER: genes 4 Torsion [C]-CA--CB-[CG] |==|  0.23540
USER: genes 5 Torsion [CA]-CB--CG-[CD1] |==|  0.47583
USER: genes 6 Torsion [C]-CA--N-[C] |==|  0.73315
USER: genes 7 Torsion [N]-CA--C-[N] |==|  0.18698
USER: genes 8 Torsion [N]-CA--C-[N] |==|  0.80446
USER: genes 9 Torsion [C]-N--CA-[C] |==|  0.72495
USER: genes 10 Torsion [N]-CA--C-[N] |==|  0.05389
USER: genes 11 Torsion [N]-CA--CB-[CG] |==|  0.88100
USER: genes 12 Torsion [CA]-CB--CG-[ND1] |==|  0.94676
ROOT
ATOM      1  CA  HIS C   2      22.846   4.440  44.507  1.00 12.40 LIG 0.18  C 
ENDROOT
BRANCH 1 2
ATOM      2  N   HIS C   2      22.381   3.576  45.602  1.00  9.19 LIG-0.35  N 
ATOM      3 H    HIS C   2      21.794   2.994  45.365  1.00  9.19 LIG 0.16  HD
ATOM      4  C   PHE C   1      22.839   3.695  46.846  1.00 11.27 LIG 0.24  C 
ATOM      5 O    PHE C   1      23.749   4.473  47.160  1.00 15.22 LIG-0.27  OA
BRANCH 4 6
ATOM      6  CA  PHE C   1      22.194   2.787  47.896  1.00  8.70 LIG 0.18  C 
BRANCH 6 7
ATOM      7  CB  PHE C   1      21.704   1.494  47.242  1.00  9.29 LIG 0.07  C 
BRANCH 7 8
ATOM      8  CG  PHE C   1      22.763   0.439  47.111  1.00  9.78 LIG-0.06  A 
ATOM      9  CD1 PHE C   1      22.441  -0.855  46.704  1.00  9.46 LIG 0.01  A 
ATOM     10  CE1 PHE C   1      23.428  -1.842  46.592  1.00  9.12 LIG 0.00  A 
ATOM     11  CZ  PHE C   1      24.750  -1.532  46.883  1.00  8.05 LIG 0.00  A 
ATOM     12  CE2 PHE C   1      25.078  -0.242  47.295  1.00  7.93 LIG 0.00  A 
ATOM     13  CD2 PHE C   1      24.086   0.735  47.403  1.00  6.20 LIG 0.01  A 
ENDBRANCH 7 8
ENDBRANCH 6 7
BRANCH 6 14
ATOM     14  N   PHE C   1      21.096   3.463  48.576  1.00 10.26 LIG-0.35  N 
ATOM     15 H    PHE C   1      20.344   3.429  48.160  1.00 10.26 LIG 0.16  HD
ATOM     16  C   ACE C   0      21.274   4.075  49.742  1.00 10.83 LIG 0.21  C 
ATOM     17  CH3 ACE C   0      20.054   4.772  50.278  1.00 14.43 LIG 0.12  C 
ATOM     18 O    ACE C   0      22.330   4.035  50.370  1.00 14.21 LIG-0.27  OA
ENDBRANCH 6 14
ENDBRANCH 4 6
ENDBRANCH 1 2
BRANCH 1 19
ATOM     19  C   HIS C   2      24.372   4.493  44.499  1.00 15.02 LIG 0.24  C 
ATOM     20  N   PRO C   3      25.056   3.370  44.185  1.00 12.04 LIG-0.34  N 
ATOM     21  CA  PRO C   3      26.526   3.421  44.088  1.00 11.10 LIG 0.18  C 
ATOM     22  CD  PRO C   3      24.527   2.020  43.912  1.00 17.75 LIG 0.13  C 
ATOM     23  CB  PRO C   3      26.903   2.010  43.619  1.00 15.56 LIG 0.04  C 
ATOM     24  CG  PRO C   3      25.755   1.148  44.019  1.00 20.46 LIG 0.02  C 
ATOM     25 O    HIS C   2      24.928   5.549  44.746  1.00  9.69 LIG-0.27  OA
BRANCH 21 26
ATOM     26  C   PRO C   3      27.012   4.468  43.080  1.00 13.73 LIG 0.24  C 
ATOM     27  N   ALA C   4      26.799   4.209  41.789  1.00 10.66 LIG-0.35  N 
ATOM     28 H    ALA C   4      26.316   3.553  41.513  1.00 10.66 LIG 0.16  HD
ATOM     29 O    PRO C   3      27.543   5.502  43.490  1.00 16.34 LIG-0.27  OA
BRANCH 27 30
ATOM     30  CA  ALA C   4      27.369   5.018  40.711  1.00 15.22 LIG 0.18  C 
ATOM     31  CB  ALA C   4      27.884   4.112  39.605  1.00 14.26 LIG 0.04  C 
BRANCH 30 32
ATOM     32  C   ALA C   4      26.424   6.051  40.111  1.00 20.48 LIG 0.28  C 
ATOM     33 O    ALA C   4      26.643   6.506  38.989  1.00 25.68 LIG-0.27  OA
ATOM     34  N   NH2 C   5      25.370   6.395  40.839  1.00 12.85 LIG-0.11  N 
ENDBRANCH 30 32
ENDBRANCH 27 30
ENDBRANCH 21 26
ENDBRANCH 1 19
BRANCH 1 35
ATOM     35  CB  HIS C   2      22.298   5.860  44.656  1.00 13.77 LIG 0.10  C 
BRANCH 35 36
ATOM     36  CG  HIS C   2      20.855   5.925  45.051  1.00 15.95 LIG 0.06  A 
ATOM     37  CD2 HIS C   2      20.120   6.934  45.575  1.00 16.64 LIG 0.14  A 
ATOM     38 NE2  HIS C   2      18.838   6.461  45.732  1.00 23.10 LIG-0.25  NA
ATOM     39  CE1 HIS C   2      18.789   5.209  45.313  1.00 23.56 LIG 0.23  A 
ATOM     40 ND1  HIS C   2      19.991   4.861  44.893  1.00 22.80 LIG-0.24  NA
ENDBRANCH 35 36
ENDBRANCH 1 35
TORSDOF 11
ENDMDL
MODEL 70
USER: ADFR SOLUTION from run 2
USER: SCORE 10.993097 LL:  -3.298 LR:  -9.324 RR:   0.000 FEB:  -6.042
USER: RMSD 8.137607
USER: SEED 6505
USER: STATUS no improvement in best in 28 clusters for 5 generations
USER: GENES 13
USER: genes 0 Translation |==|  0.68288 0.54109 0.35969
USER: genes 1 Rotation |==|  0.26016 0.39390 0.25560 0.84856
USER: genes 2 Torsion [CB]-CA--N-[C] |==|  0.25556
USER: genes 3 Torsion [N]-C--CA-[N] |==|  0.36047
USER: genes 4 Torsion [C]-CA--CB-[CG] |==|  0.41083
USER: genes 5 Torsion [CA]-CB--CG-[CD1] |==|  0.52758
USER: genes 6 Torsion [C]-CA--N-[C] |==|  0.66562
USER: genes 7 Torsion [N]-CA--C-[N] |==|  0.35254
USER: genes 8 Torsion [N]-CA--C-[N] |==|  0.26906
USER: genes 9 Torsion [C]-N--CA-[C] |==|  0.64029
USER: genes 10 Torsion [N]-CA--C-[N] |==|  0.03441
USER: genes 11 Torsion [N]-CA--CB-[CG] |==|  0.42371
USER: genes 12 Torsion [CA]-CB--CG-[ND1] |==|  0.16873
ROOT
ATOM      1  CA  HIS C   2      28.094   3.719  39.901  1.00 12.40 LIG 0.18  C 
ENDROOT
BRANCH 1 2
ATOM      2  N   HIS C   2      27.511   2.467  39.396  1.00  9.19 LIG-0.35  N 
ATOM      3 H    HIS C   2      27.430   2.437  38.541  1.00  9.19 LIG 0.16  HD
ATOM      4  C   PHE C   1      27.144   1.476  40.204  1.00 11.27 LIG 0.24  C 
ATOM      5 O    PHE C   1      27.346   1.489  41.426  1.00 15.22 LIG-0.27  OA
BRANCH 4 6
ATOM      6  CA  PHE C   1      26.467   0.274  39.541  1.00  8.70 LIG 0.18  C 
BRANCH 6 7
ATOM      7  CB  PHE C   1      24.973   0.265  39.870  1.00  9.29 LIG 0.07  C 
BRANCH 7 8
ATOM      8  CG  PHE C   1      24.113  -0.305  38.780  1.00  9.78 LIG-0.06  A 
ATOM      9  CD1 PHE C   1      22.725  -0.199  38.832  1.00  9.46 LIG 0.01  A 
ATOM     10  CE1 PHE C   1      21.922  -0.740  37.819  1.00  9.12 LIG 0.00  A 
ATOM     11  CZ  PHE C   1      22.513  -1.387  36.742  1.00  8.05 LIG 0.00  A 
ATOM     12  CE2 PHE C   1      23.900  -1.500  36.687  1.00  7.93 LIG 0.00  A 
ATOM     13  CD2 PHE C   1      24.691  -0.957  37.701  1.00  6.20 LIG 0.01  A 
ENDBRANCH 7 8
ENDBRANCH 6 7
BRANCH 6 14
ATOM     14  N   PHE C   1      27.089  -0.978  39.957  1.00 10.26 LIG-0.35  N 
ATOM     15 H    PHE C   1      27.062  -1.125  40.804  1.00 10.26 LIG 0.16  HD
ATOM     16  C   ACE C   0      27.643  -1.803  39.075  1.00 10.83 LIG 0.21  C 
ATOM     17  CH3 ACE C   0      28.291  -3.020  39.675  1.00 14.43 LIG 0.12  C 
ATOM     18 O    ACE C   0      27.590  -1.627  37.860  1.00 14.21 LIG-0.27  OA
ENDBRANCH 6 14
ENDBRANCH 4 6
ENDBRANCH 1 2
BRANCH 1 19
ATOM     19  C   HIS C   2      27.680   4.884  39.005  1.00 15.02 LIG 0.24  C 
ATOM     20  N   PRO C   3      27.107   5.966  39.576  1.00 12.04 LIG-0.34  N 
ATOM     21  CA  PRO C   3      26.778   7.136  38.742  1.00 11.10 LIG 0.18  C 
ATOM     22  CD  PRO C   3      26.735   6.169  40.990  1.00 17.75 LIG 0.13  C 
ATOM     23  CB  PRO C   3      26.259   8.164  39.756  1.00 15.56 LIG 0.04  C 
ATOM     24  CG  PRO C   3      25.810   7.361  40.929  1.00 20.46 LIG 0.02  C 
ATOM     25 O    HIS C   2      27.902   4.817  37.808  1.00  9.69 LIG-0.27  OA
BRANCH 21 26
ATOM     26  C   PRO C   3      27.997   7.689  37.997  1.00 13.73 LIG 0.24  C 
ATOM     27  N   ALA C   4      28.165   7.294  36.735  1.00 10.66 LIG-0.35  N 
ATOM     28 H    ALA C   4      27.576   6.844  36.299  1.00 10.66 LIG 0.16  HD
ATOM     29 O    PRO C   3      28.745   8.485  38.568  1.00 16.34 LIG-0.27  OA
BRANCH 27 30
ATOM     30  CA  ALA C   4      29.373   7.588  35.964  1.00 15.22 LIG 0.18  C 
ATOM     31  CB  ALA C   4      30.201   6.322  35.803  1.00 14.26 LIG 0.04  C 
BRANCH 30 32
ATOM     32  C   ALA C   4      29.130   8.201  34.591  1.00 20.48 LIG 0.28  C 
ATOM     33 O    ALA C   4      30.045   8.252  33.769  1.00 25.68 LIG-0.27  OA
ATOM     34  N   NH2 C   5      27.903   8.636  34.336  1.00 12.85 LIG-0.11  N 
ENDBRANCH 30 32
ENDBRANCH 27 30
ENDBRANCH 21 26
ENDBRANCH 1 19
BRANCH 1 35
ATOM     35  CB  HIS C   2      29.621   3.638  39.941  1.00 13.77 LIG 0.10  C 
BRANCH 35 36
ATOM     36  CG  HIS C   2      30.312   4.958  39.803  1.00 15.95 LIG 0.06  A 
ATOM     37  CD2 HIS C   2      31.164   5.423  38.858  1.00 16.64 LIG 0.14  A 
ATOM     38 NE2  HIS C   2      31.488   6.714  39.207  1.00 23.10 LIG-0.25  NA
ATOM     39  CE1 HIS C   2      30.853   7.030  40.321  1.00 23.56 LIG 0.23  A 
ATOM     40 ND1  HIS C   2      30.132   5.990  40.700  1.00 22.80 LIG-0.24  NA
ENDBRANCH 35 36
ENDBRANCH 1 35
TORSDOF 11
ENDMDL
MODEL 71
USER: ADFR SOLUTION from run 41
USER: SCORE 11.029169 LL:  -2.609 LR:  -9.313 RR:   0.000 FEB:  -6.031
USER: RMSD 8.247479
USER: SEED 40
USER: STATUS no improvement in best in 35 clusters for 5 generations
USER: GENES 13
USER: genes 0 Translation |==|  0.62402 0.39006 0.42221
USER: genes 1 Rotation |==|  0.74764 0.30298 0.80230 0.74182
USER: genes 2 Torsion [CB]-CA--N-[C] |==|  0.53153
USER: genes 3 Torsion [N]-C--CA-[N] |==|  0.06705
USER: genes 4 Torsion [C]-CA--CB-[CG] |==|  0.34699
USER: genes 5 Torsion [CA]-CB--CG-[CD1] |==|  0.16009
USER: genes 6 Torsion [C]-CA--N-[C] |==|  0.62778
USER: genes 7 Torsion [N]-CA--C-[N] |==|  0.44474
USER: genes 8 Torsion [N]-CA--C-[N] |==|  0.22078
USER: genes 9 Torsion [C]-N--CA-[C] |==|  0.18790
USER: genes 10 Torsion [N]-CA--C-[N] |==|  0.07648
USER: genes 11 Torsion [N]-CA--CB-[CG] |==|  0.87283
USER: genes 12 Torsion [CA]-CB--CG-[ND1] |==|  0.04160
ROOT
ATOM      1  CA  HIS C   2      26.946   1.113  41.167  1.00 12.40 LIG 0.18  C 
ENDROOT
BRANCH 1 2
ATOM      2  N   HIS C   2      26.990   2.547  40.843  1.00  9.19 LIG-0.35  N 
ATOM      3 H    HIS C   2      26.391   3.016  41.244  1.00  9.19 LIG 0.16  HD
ATOM      4  C   PHE C   1      27.884   3.060  40.001  1.00 11.27 LIG 0.24  C 
ATOM      5 O    PHE C   1      28.799   2.395  39.499  1.00 15.22 LIG-0.27  OA
BRANCH 4 6
ATOM      6  CA  PHE C   1      27.746   4.553  39.692  1.00  8.70 LIG 0.18  C 
BRANCH 6 7
ATOM      7  CB  PHE C   1      29.127   5.169  39.460  1.00  9.29 LIG 0.07  C 
BRANCH 7 8
ATOM      8  CG  PHE C   1      29.262   5.880  38.144  1.00  9.78 LIG-0.06  A 
ATOM      9  CD1 PHE C   1      28.411   6.929  37.805  1.00  9.46 LIG 0.01  A 
ATOM     10  CE1 PHE C   1      28.531   7.586  36.573  1.00  9.12 LIG 0.00  A 
ATOM     11  CZ  PHE C   1      29.515   7.194  35.676  1.00  8.05 LIG 0.00  A 
ATOM     12  CE2 PHE C   1      30.366   6.142  36.007  1.00  7.93 LIG 0.00  A 
ATOM     13  CD2 PHE C   1      30.238   5.495  37.238  1.00  6.20 LIG 0.01  A 
ENDBRANCH 7 8
ENDBRANCH 6 7
BRANCH 6 14
ATOM     14  N   PHE C   1      27.049   5.252  40.765  1.00 10.26 LIG-0.35  N 
ATOM     15 H    PHE C   1      27.322   5.054  41.556  1.00 10.26 LIG 0.16  HD
ATOM     16  C   ACE C   0      26.075   6.120  40.509  1.00 10.83 LIG 0.21  C 
ATOM     17  CH3 ACE C   0      25.422   6.708  41.729  1.00 14.43 LIG 0.12  C 
ATOM     18 O    ACE C   0      25.761   6.465  39.372  1.00 14.21 LIG-0.27  OA
ENDBRANCH 6 14
ENDBRANCH 4 6
ENDBRANCH 1 2
BRANCH 1 19
ATOM     19  C   HIS C   2      27.008   0.289  39.883  1.00 15.02 LIG 0.24  C 
ATOM     20  N   PRO C   3      27.386  -1.006  39.965  1.00 12.04 LIG-0.34  N 
ATOM     21  CA  PRO C   3      27.371  -1.843  38.751  1.00 11.10 LIG 0.18  C 
ATOM     22  CD  PRO C   3      27.842  -1.756  41.152  1.00 17.75 LIG 0.13  C 
ATOM     23  CB  PRO C   3      27.751  -3.235  39.271  1.00 15.56 LIG 0.04  C 
ATOM     24  CG  PRO C   3      28.476  -2.987  40.550  1.00 20.46 LIG 0.02  C 
ATOM     25 O    HIS C   2      26.689   0.811  38.829  1.00  9.69 LIG-0.27  OA
BRANCH 21 26
ATOM     26  C   PRO C   3      25.993  -1.881  38.081  1.00 13.73 LIG 0.24  C 
ATOM     27  N   ALA C   4      25.660  -0.834  37.325  1.00 10.66 LIG-0.35  N 
ATOM     28 H    ALA C   4      26.211  -0.209  37.114  1.00 10.66 LIG 0.16  HD
ATOM     29 O    PRO C   3      25.273  -2.869  38.235  1.00 16.34 LIG-0.27  OA
BRANCH 27 30
ATOM     30  CA  ALA C   4      24.315  -0.645  36.778  1.00 15.22 LIG 0.18  C 
ATOM     31  CB  ALA C   4      23.916  -1.865  35.963  1.00 14.26 LIG 0.04  C 
BRANCH 30 32
ATOM     32  C   ALA C   4      23.232  -0.359  37.810  1.00 20.48 LIG 0.28  C 
ATOM     33 O    ALA C   4      22.070  -0.697  37.592  1.00 25.68 LIG-0.27  OA
ATOM     34  N   NH2 C   5      23.615   0.232  38.934  1.00 12.85 LIG-0.11  N 
ENDBRANCH 30 32
ENDBRANCH 27 30
ENDBRANCH 21 26
ENDBRANCH 1 19
BRANCH 1 35
ATOM     35  CB  HIS C   2      25.667   0.759  41.927  1.00 13.77 LIG 0.10  C 
BRANCH 35 36
ATOM     36  CG  HIS C   2      25.330   1.703  43.038  1.00 15.95 LIG 0.06  A 
ATOM     37  CD2 HIS C   2      24.483   1.577  44.087  1.00 16.64 LIG 0.14  A 
ATOM     38 NE2  HIS C   2      24.566   2.741  44.816  1.00 23.10 LIG-0.25  NA
ATOM     39  CE1 HIS C   2      25.438   3.548  44.238  1.00 23.56 LIG 0.23  A 
ATOM     40 ND1  HIS C   2      25.917   2.945  43.165  1.00 22.80 LIG-0.24  NA
ENDBRANCH 35 36
ENDBRANCH 1 35
TORSDOF 11
ENDMDL
MODEL 72
USER: ADFR SOLUTION from run 176
USER: SCORE 12.091048 LL:  -3.483 LR:  -9.307 RR:   0.000 FEB:  -6.026
USER: RMSD 7.394651
USER: SEED 175
USER: STATUS no improvement in best in 12 clusters for 5 generations
USER: GENES 13
USER: genes 0 Translation |==|  0.63729 0.25888 0.25620
USER: genes 1 Rotation |==|  0.88748 0.35061 0.23270 0.57804
USER: genes 2 Torsion [CB]-CA--N-[C] |==|  0.79969
USER: genes 3 Torsion [N]-C--CA-[N] |==|  0.88749
USER: genes 4 Torsion [C]-CA--CB-[CG] |==|  0.04492
USER: genes 5 Torsion [CA]-CB--CG-[CD1] |==|  0.70856
USER: genes 6 Torsion [C]-CA--N-[C] |==|  0.77597
USER: genes 7 Torsion [N]-CA--C-[N] |==|  0.50000
USER: genes 8 Torsion [N]-CA--C-[N] |==|  0.34508
USER: genes 9 Torsion [C]-N--CA-[C] |==|  0.57872
USER: genes 10 Torsion [N]-CA--C-[N] |==|  0.47643
USER: genes 11 Torsion [N]-CA--CB-[CG] |==|  0.16639
USER: genes 12 Torsion [CA]-CB--CG-[ND1] |==|  0.72549
ROOT
ATOM      1  CA  HIS C   2      27.205  -1.149  37.805  1.00 12.40 LIG 0.18  C 
ENDROOT
BRANCH 1 2
ATOM      2  N   HIS C   2      28.616  -0.956  38.173  1.00  9.19 LIG-0.35  N 
ATOM      3 H    HIS C   2      29.133  -0.792  37.506  1.00  9.19 LIG 0.16  HD
ATOM      4  C   PHE C   1      29.040  -1.031  39.432  1.00 11.27 LIG 0.24  C 
ATOM      5 O    PHE C   1      28.275  -1.177  40.395  1.00 15.22 LIG-0.27  OA
BRANCH 4 6
ATOM      6  CA  PHE C   1      30.549  -0.899  39.649  1.00  8.70 LIG 0.18  C 
BRANCH 6 7
ATOM      7  CB  PHE C   1      30.949   0.577  39.666  1.00  9.29 LIG 0.07  C 
BRANCH 7 8
ATOM      8  CG  PHE C   1      29.795   1.519  39.857  1.00  9.78 LIG-0.06  A 
ATOM      9  CD1 PHE C   1      29.290   2.260  38.791  1.00  9.46 LIG 0.01  A 
ATOM     10  CE1 PHE C   1      28.219   3.145  38.971  1.00  9.12 LIG 0.00  A 
ATOM     11  CZ  PHE C   1      27.645   3.285  40.227  1.00  8.05 LIG 0.00  A 
ATOM     12  CE2 PHE C   1      28.149   2.550  41.298  1.00  7.93 LIG 0.00  A 
ATOM     13  CD2 PHE C   1      29.215   1.670  41.107  1.00  6.20 LIG 0.01  A 
ENDBRANCH 7 8
ENDBRANCH 6 7
BRANCH 6 14
ATOM     14  N   PHE C   1      31.295  -1.618  38.624  1.00 10.26 LIG-0.35  N 
ATOM     15 H    PHE C   1      31.594  -1.123  37.987  1.00 10.26 LIG 0.16  HD
ATOM     16  C   ACE C   0      31.480  -2.932  38.694  1.00 10.83 LIG 0.21  C 
ATOM     17  CH3 ACE C   0      32.219  -3.526  37.527  1.00 14.43 LIG 0.12  C 
ATOM     18 O    ACE C   0      31.129  -3.612  39.656  1.00 14.21 LIG-0.27  OA
ENDBRANCH 6 14
ENDBRANCH 4 6
ENDBRANCH 1 2
BRANCH 1 19
ATOM     19  C   HIS C   2      26.311  -0.304  38.709  1.00 15.02 LIG 0.24  C 
ATOM     20  N   PRO C   3      24.974  -0.350  38.522  1.00 12.04 LIG-0.34  N 
ATOM     21  CA  PRO C   3      24.088   0.391  39.438  1.00 11.10 LIG 0.18  C 
ATOM     22  CD  PRO C   3      24.218  -1.069  37.477  1.00 17.75 LIG 0.13  C 
ATOM     23  CB  PRO C   3      22.680   0.004  38.966  1.00 15.56 LIG 0.04  C 
ATOM     24  CG  PRO C   3      22.851  -0.432  37.551  1.00 20.46 LIG 0.02  C 
ATOM     25 O    HIS C   2      26.825   0.365  39.590  1.00  9.69 LIG-0.27  OA
BRANCH 21 26
ATOM     26  C   PRO C   3      24.290  -0.009  40.903  1.00 13.73 LIG 0.24  C 
ATOM     27  N   ALA C   4      24.582   0.968  41.762  1.00 10.66 LIG-0.35  N 
ATOM     28 H    ALA C   4      24.553   1.802  41.556  1.00 10.66 LIG 0.16  HD
ATOM     29 O    PRO C   3      24.147  -1.188  41.233  1.00 16.34 LIG-0.27  OA
BRANCH 27 30
ATOM     30  CA  ALA C   4      24.983   0.715  43.147  1.00 15.22 LIG 0.18  C 
ATOM     31  CB  ALA C   4      26.478   0.448  43.209  1.00 14.26 LIG 0.04  C 
BRANCH 30 32
ATOM     32  C   ALA C   4      24.634   1.823  44.132  1.00 20.48 LIG 0.28  C 
ATOM     33 O    ALA C   4      24.177   2.890  43.723  1.00 25.68 LIG-0.27  OA
ATOM     34  N   NH2 C   5      24.821   1.563  45.420  1.00 12.85 LIG-0.11  N 
ENDBRANCH 30 32
ENDBRANCH 27 30
ENDBRANCH 21 26
ENDBRANCH 1 19
BRANCH 1 35
ATOM     35  CB  HIS C   2      26.799  -2.618  37.934  1.00 13.77 LIG 0.10  C 
BRANCH 35 36
ATOM     36  CG  HIS C   2      26.951  -3.180  39.313  1.00 15.95 LIG 0.06  A 
ATOM     37  CD2 HIS C   2      26.140  -3.116  40.395  1.00 16.64 LIG 0.14  A 
ATOM     38 NE2  HIS C   2      26.755  -3.821  41.405  1.00 23.10 LIG-0.25  NA
ATOM     39  CE1 HIS C   2      27.899  -4.304  40.954  1.00 23.56 LIG 0.23  A 
ATOM     40 ND1  HIS C   2      28.041  -3.936  39.694  1.00 22.80 LIG-0.24  NA
ENDBRANCH 35 36
ENDBRANCH 1 35
TORSDOF 11
ENDMDL
MODEL 73
USER: ADFR SOLUTION from run 161
USER: SCORE 11.580464 LL:  -2.722 LR:  -9.301 RR:   0.000 FEB:  -6.020
USER: RMSD 7.277959
USER: SEED 160
USER: STATUS no improvement in best in 11 clusters for 5 generations
USER: GENES 13
USER: genes 0 Translation |==|  0.70382 0.32436 0.29562
USER: genes 1 Rotation |==|  0.76967 0.46268 0.33403 0.88515
USER: genes 2 Torsion [CB]-CA--N-[C] |==|  0.76823
USER: genes 3 Torsion [N]-C--CA-[N] |==|  0.98534
USER: genes 4 Torsion [C]-CA--CB-[CG] |==|  0.25074
USER: genes 5 Torsion [CA]-CB--CG-[CD1] |==|  0.79568
USER: genes 6 Torsion [C]-CA--N-[C] |==|  0.75840
USER: genes 7 Torsion [N]-CA--C-[N] |==|  0.26869
USER: genes 8 Torsion [N]-CA--C-[N] |==|  0.29401
USER: genes 9 Torsion [C]-N--CA-[C] |==|  0.59098
USER: genes 10 Torsion [N]-CA--C-[N] |==|  0.44677
USER: genes 11 Torsion [N]-CA--CB-[CG] |==|  0.09708
USER: genes 12 Torsion [CA]-CB--CG-[ND1] |==|  0.75033
ROOT
ATOM      1  CA  HIS C   2      28.503  -0.020  38.603  1.00 12.40 LIG 0.18  C 
ENDROOT
BRANCH 1 2
ATOM      2  N   HIS C   2      28.990   1.046  37.715  1.00  9.19 LIG-0.35  N 
ATOM      3 H    HIS C   2      29.347   0.760  36.987  1.00  9.19 LIG 0.16  HD
ATOM      4  C   PHE C   1      28.882   2.336  38.025  1.00 11.27 LIG 0.24  C 
ATOM      5 O    PHE C   1      28.286   2.742  39.031  1.00 15.22 LIG-0.27  OA
BRANCH 4 6
ATOM      6  CA  PHE C   1      29.518   3.325  37.045  1.00  8.70 LIG 0.18  C 
BRANCH 6 7
ATOM      7  CB  PHE C   1      28.444   4.233  36.445  1.00  9.29 LIG 0.07  C 
BRANCH 7 8
ATOM      8  CG  PHE C   1      28.206   5.492  37.226  1.00  9.78 LIG-0.06  A 
ATOM      9  CD1 PHE C   1      27.528   5.464  38.444  1.00  9.46 LIG 0.01  A 
ATOM     10  CE1 PHE C   1      27.297   6.640  39.168  1.00  9.12 LIG 0.00  A 
ATOM     11  CZ  PHE C   1      27.754   7.855  38.674  1.00  8.05 LIG 0.00  A 
ATOM     12  CE2 PHE C   1      28.428   7.890  37.455  1.00  7.93 LIG 0.00  A 
ATOM     13  CD2 PHE C   1      28.653   6.711  36.742  1.00  6.20 LIG 0.01  A 
ENDBRANCH 7 8
ENDBRANCH 6 7
BRANCH 6 14
ATOM     14  N   PHE C   1      30.246   2.629  35.991  1.00 10.26 LIG-0.35  N 
ATOM     15 H    PHE C   1      29.787   2.479  35.279  1.00 10.26 LIG 0.16  HD
ATOM     16  C   ACE C   0      31.516   2.268  36.146  1.00 10.83 LIG 0.21  C 
ATOM     17  CH3 ACE C   0      32.099   1.509  34.987  1.00 14.43 LIG 0.12  C 
ATOM     18 O    ACE C   0      32.188   2.572  37.129  1.00 14.21 LIG-0.27  OA
ENDBRANCH 6 14
ENDBRANCH 4 6
ENDBRANCH 1 2
BRANCH 1 19
ATOM     19  C   HIS C   2      27.204   0.418  39.276  1.00 15.02 LIG 0.24  C 
ATOM     20  N   PRO C   3      26.031   0.021  38.735  1.00 12.04 LIG-0.34  N 
ATOM     21  CA  PRO C   3      24.768   0.360  39.416  1.00 11.10 LIG 0.18  C 
ATOM     22  CD  PRO C   3      25.804  -0.744  37.493  1.00 17.75 LIG 0.13  C 
ATOM     23  CB  PRO C   3      23.702  -0.345  38.567  1.00 15.56 LIG 0.04  C 
ATOM     24  CG  PRO C   3      24.333  -0.533  37.229  1.00 20.46 LIG 0.02  C 
ATOM     25 O    HIS C   2      27.261   1.087  40.293  1.00  9.69 LIG-0.27  OA
BRANCH 21 26
ATOM     26  C   PRO C   3      24.723  -0.149  40.860  1.00 13.73 LIG 0.24  C 
ATOM     27  N   ALA C   4      24.867   0.759  41.826  1.00 10.66 LIG-0.35  N 
ATOM     28 H    ALA C   4      24.872   1.606  41.681  1.00 10.66 LIG 0.16  HD
ATOM     29 O    PRO C   3      24.528  -1.347  41.073  1.00 16.34 LIG-0.27  OA
BRANCH 27 30
ATOM     30  CA  ALA C   4      25.032   0.401  43.236  1.00 15.22 LIG 0.18  C 
ATOM     31  CB  ALA C   4      26.508   0.219  43.551  1.00 14.26 LIG 0.04  C 
BRANCH 30 32
ATOM     32  C   ALA C   4      24.429   1.387  44.227  1.00 20.48 LIG 0.28  C 
ATOM     33 O    ALA C   4      24.153   2.531  43.867  1.00 25.68 LIG-0.27  OA
ATOM     34  N   NH2 C   5      24.201   0.941  45.456  1.00 12.85 LIG-0.11  N 
ENDBRANCH 30 32
ENDBRANCH 27 30
ENDBRANCH 21 26
ENDBRANCH 1 19
BRANCH 1 35
ATOM     35  CB  HIS C   2      29.535  -0.353  39.681  1.00 13.77 LIG 0.10  C 
BRANCH 35 36
ATOM     36  CG  HIS C   2      30.322   0.824  40.166  1.00 15.95 LIG 0.06  A 
ATOM     37  CD2 HIS C   2      30.104   1.679  41.193  1.00 16.64 LIG 0.14  A 
ATOM     38 NE2  HIS C   2      31.150   2.573  41.204  1.00 23.10 LIG-0.25  NA
ATOM     39  CE1 HIS C   2      31.982   2.271  40.223  1.00 23.56 LIG 0.23  A 
ATOM     40 ND1  HIS C   2      31.509   1.218  39.583  1.00 22.80 LIG-0.24  NA
ENDBRANCH 35 36
ENDBRANCH 1 35
TORSDOF 11
ENDMDL
MODEL 74
USER: ADFR SOLUTION from run 85
USER: SCORE 11.137540 LL:  -2.789 LR:  -9.295 RR:   0.000 FEB:  -6.014
USER: RMSD 7.223233
USER: SEED 84
USER: STATUS no improvement in best in 35 clusters for 5 generations
USER: GENES 13
USER: genes 0 Translation |==|  0.36965 0.49980 0.69685
USER: genes 1 Rotation |==|  0.36983 0.19123 0.24786 0.77229
USER: genes 2 Torsion [CB]-CA--N-[C] |==|  0.86667
USER: genes 3 Torsion [N]-C--CA-[N] |==|  0.47000
USER: genes 4 Torsion [C]-CA--CB-[CG] |==|  0.32752
USER: genes 5 Torsion [CA]-CB--CG-[CD1] |==|  0.00954
USER: genes 6 Torsion [C]-CA--N-[C] |==|  0.80784
USER: genes 7 Torsion [N]-CA--C-[N] |==|  0.43595
USER: genes 8 Torsion [N]-CA--C-[N] |==|  0.27148
USER: genes 9 Torsion [C]-N--CA-[C] |==|  0.68219
USER: genes 10 Torsion [N]-CA--C-[N] |==|  0.40904
USER: genes 11 Torsion [N]-CA--CB-[CG] |==|  0.74447
USER: genes 12 Torsion [CA]-CB--CG-[ND1] |==|  0.76654
ROOT
ATOM      1  CA  HIS C   2      21.986   3.007  46.728  1.00 12.40 LIG 0.18  C 
ENDROOT
BRANCH 1 2
ATOM      2  N   HIS C   2      22.267   1.596  46.423  1.00  9.19 LIG-0.35  N 
ATOM      3 H    HIS C   2      21.564   1.106  46.349  1.00  9.19 LIG 0.16  HD
ATOM      4  C   PHE C   1      23.506   1.132  46.278  1.00 11.27 LIG 0.24  C 
ATOM      5 O    PHE C   1      24.507   1.860  46.297  1.00 15.22 LIG-0.27  OA
BRANCH 4 6
ATOM      6  CA  PHE C   1      23.644  -0.376  46.055  1.00  8.70 LIG 0.18  C 
BRANCH 6 7
ATOM      7  CB  PHE C   1      23.240  -1.133  47.321  1.00  9.29 LIG 0.07  C 
BRANCH 7 8
ATOM      8  CG  PHE C   1      22.057  -2.039  47.137  1.00  9.78 LIG-0.06  A 
ATOM      9  CD1 PHE C   1      21.463  -2.198  45.886  1.00  9.46 LIG 0.01  A 
ATOM     10  CE1 PHE C   1      20.353  -3.036  45.716  1.00  9.12 LIG 0.00  A 
ATOM     11  CZ  PHE C   1      19.836  -3.725  46.806  1.00  8.05 LIG 0.00  A 
ATOM     12  CE2 PHE C   1      20.422  -3.565  48.059  1.00  7.93 LIG 0.00  A 
ATOM     13  CD2 PHE C   1      21.529  -2.729  48.217  1.00  6.20 LIG 0.01  A 
ENDBRANCH 7 8
ENDBRANCH 6 7
BRANCH 6 14
ATOM     14  N   PHE C   1      25.002  -0.729  45.660  1.00 10.26 LIG-0.35  N 
ATOM     15 H    PHE C   1      25.443  -1.171  46.253  1.00 10.26 LIG 0.16  HD
ATOM     16  C   ACE C   0      25.493  -0.382  44.475  1.00 10.83 LIG 0.21  C 
ATOM     17  CH3 ACE C   0      26.928  -0.772  44.250  1.00 14.43 LIG 0.12  C 
ATOM     18 O    ACE C   0      24.823   0.166  43.602  1.00 14.21 LIG-0.27  OA
ENDBRANCH 6 14
ENDBRANCH 4 6
ENDBRANCH 1 2
BRANCH 1 19
ATOM     19  C   HIS C   2      22.251   3.867  45.495  1.00 15.02 LIG 0.24  C 
ATOM     20  N   PRO C   3      21.632   5.065  45.398  1.00 12.04 LIG-0.34  N 
ATOM     21  CA  PRO C   3      21.940   5.949  44.259  1.00 11.10 LIG 0.18  C 
ATOM     22  CD  PRO C   3      20.634   5.659  46.310  1.00 17.75 LIG 0.13  C 
ATOM     23  CB  PRO C   3      21.137   7.220  44.565  1.00 15.56 LIG 0.04  C 
ATOM     24  CG  PRO C   3      20.049   6.780  45.485  1.00 20.46 LIG 0.02  C 
ATOM     25 O    HIS C   2      23.032   3.465  44.651  1.00  9.69 LIG-0.27  OA
BRANCH 21 26
ATOM     26  C   PRO C   3      23.433   6.273  44.153  1.00 13.73 LIG 0.24  C 
ATOM     27  N   ALA C   4      24.150   5.548  43.293  1.00 10.66 LIG-0.35  N 
ATOM     28 H    ALA C   4      23.799   4.999  42.731  1.00 10.66 LIG 0.16  HD
ATOM     29 O    PRO C   3      23.902   7.192  44.828  1.00 16.34 LIG-0.27  OA
BRANCH 27 30
ATOM     30  CA  ALA C   4      25.610   5.616  43.219  1.00 15.22 LIG 0.18  C 
ATOM     31  CB  ALA C   4      26.201   4.235  43.452  1.00 14.26 LIG 0.04  C 
BRANCH 30 32
ATOM     32  C   ALA C   4      26.165   6.183  41.919  1.00 20.48 LIG 0.28  C 
ATOM     33 O    ALA C   4      25.556   6.012  40.863  1.00 25.68 LIG-0.27  OA
ATOM     34  N   NH2 C   5      27.295   6.873  41.999  1.00 12.85 LIG-0.11  N 
ENDBRANCH 30 32
ENDBRANCH 27 30
ENDBRANCH 21 26
ENDBRANCH 1 19
BRANCH 1 35
ATOM     35  CB  HIS C   2      22.858   3.504  47.882  1.00 13.77 LIG 0.10  C 
BRANCH 35 36
ATOM     36  CG  HIS C   2      22.230   3.365  49.233  1.00 15.95 LIG 0.06  A 
ATOM     37  CD2 HIS C   2      22.367   2.410  50.184  1.00 16.64 LIG 0.14  A 
ATOM     38 NE2  HIS C   2      21.573   2.779  51.245  1.00 23.10 LIG-0.25  NA
ATOM     39  CE1 HIS C   2      20.976   3.922  50.956  1.00 23.56 LIG 0.23  A 
ATOM     40 ND1  HIS C   2      21.358   4.300  49.750  1.00 22.80 LIG-0.24  NA
ENDBRANCH 35 36
ENDBRANCH 1 35
TORSDOF 11
ENDMDL
MODEL 75
USER: ADFR SOLUTION from run 119
USER: SCORE 11.628521 LL:  -2.641 LR:  -9.290 RR:   0.000 FEB:  -6.009
USER: RMSD 6.737212
USER: SEED 118
USER: STATUS no improvement in best in 21 clusters for 5 generations
USER: GENES 13
USER: genes 0 Translation |==|  0.42436 0.54953 0.65912
USER: genes 1 Rotation |==|  0.37140 0.33091 0.90021 0.71143
USER: genes 2 Torsion [CB]-CA--N-[C] |==|  0.86315
USER: genes 3 Torsion [N]-C--CA-[N] |==|  0.44141
USER: genes 4 Torsion [C]-CA--CB-[CG] |==|  0.59919
USER: genes 5 Torsion [CA]-CB--CG-[CD1] |==|  0.27147
USER: genes 6 Torsion [C]-CA--N-[C] |==|  0.63796
USER: genes 7 Torsion [N]-CA--C-[N] |==|  0.36200
USER: genes 8 Torsion [N]-CA--C-[N] |==|  0.48139
USER: genes 9 Torsion [C]-N--CA-[C] |==|  0.81176
USER: genes 10 Torsion [N]-CA--C-[N] |==|  0.35000
USER: genes 11 Torsion [N]-CA--CB-[CG] |==|  0.66606
USER: genes 12 Torsion [CA]-CB--CG-[ND1] |==|  0.99293
ROOT
ATOM      1  CA  HIS C   2      23.053   3.864  45.964  1.00 12.40 LIG 0.18  C 
ENDROOT
BRANCH 1 2
ATOM      2  N   HIS C   2      24.249   4.441  45.333  1.00  9.19 LIG-0.35  N 
ATOM      3 H    HIS C   2      24.643   5.040  45.808  1.00  9.19 LIG 0.16  HD
ATOM      4  C   PHE C   1      24.673   4.060  44.130  1.00 11.27 LIG 0.24  C 
ATOM      5 O    PHE C   1      24.154   3.134  43.493  1.00 15.22 LIG-0.27  OA
BRANCH 4 6
ATOM      6  CA  PHE C   1      25.878   4.815  43.564  1.00  8.70 LIG 0.18  C 
BRANCH 6 7
ATOM      7  CB  PHE C   1      25.435   6.170  43.010  1.00  9.29 LIG 0.07  C 
BRANCH 7 8
ATOM      8  CG  PHE C   1      26.183   6.599  41.781  1.00  9.78 LIG-0.06  A 
ATOM      9  CD1 PHE C   1      25.650   6.398  40.510  1.00  9.46 LIG 0.01  A 
ATOM     10  CE1 PHE C   1      26.353   6.790  39.363  1.00  9.12 LIG 0.00  A 
ATOM     11  CZ  PHE C   1      27.597   7.394  39.490  1.00  8.05 LIG 0.00  A 
ATOM     12  CE2 PHE C   1      28.137   7.593  40.758  1.00  7.93 LIG 0.00  A 
ATOM     13  CD2 PHE C   1      27.428   7.200  41.895  1.00  6.20 LIG 0.01  A 
ENDBRANCH 7 8
ENDBRANCH 6 7
BRANCH 6 14
ATOM     14  N   PHE C   1      26.552   4.037  42.532  1.00 10.26 LIG-0.35  N 
ATOM     15 H    PHE C   1      26.029   3.721  41.926  1.00 10.26 LIG 0.16  HD
ATOM     16  C   ACE C   0      27.867   3.849  42.552  1.00 10.83 LIG 0.21  C 
ATOM     17  CH3 ACE C   0      28.394   2.974  41.448  1.00 14.43 LIG 0.12  C 
ATOM     18 O    ACE C   0      28.612   4.384  43.370  1.00 14.21 LIG-0.27  OA
ENDBRANCH 6 14
ENDBRANCH 4 6
ENDBRANCH 1 2
BRANCH 1 19
ATOM     19  C   HIS C   2      23.337   2.429  46.401  1.00 15.02 LIG 0.24  C 
ATOM     20  N   PRO C   3      23.021   2.065  47.664  1.00 12.04 LIG-0.34  N 
ATOM     21  CA  PRO C   3      23.208   0.662  48.080  1.00 11.10 LIG 0.18  C 
ATOM     22  CD  PRO C   3      22.490   2.903  48.756  1.00 17.75 LIG 0.13  C 
ATOM     23  CB  PRO C   3      22.647   0.635  49.508  1.00 15.56 LIG 0.04  C 
ATOM     24  CG  PRO C   3      22.717   2.048  49.980  1.00 20.46 LIG 0.02  C 
ATOM     25 O    HIS C   2      23.812   1.649  45.595  1.00  9.69 LIG-0.27  OA
BRANCH 21 26
ATOM     26  C   PRO C   3      22.445  -0.322  47.188  1.00 13.73 LIG 0.24  C 
ATOM     27  N   ALA C   4      22.660  -1.621  47.399  1.00 10.66 LIG-0.35  N 
ATOM     28 H    ALA C   4      23.109  -1.923  48.067  1.00 10.66 LIG 0.16  HD
ATOM     29 O    PRO C   3      21.654   0.111  46.347  1.00 16.34 LIG-0.27  OA
BRANCH 27 30
ATOM     30  CA  ALA C   4      22.150  -2.666  46.510  1.00 15.22 LIG 0.18  C 
ATOM     31  CB  ALA C   4      22.791  -3.999  46.863  1.00 14.26 LIG 0.04  C 
BRANCH 30 32
ATOM     32  C   ALA C   4      20.636  -2.828  46.505  1.00 20.48 LIG 0.28  C 
ATOM     33 O    ALA C   4      20.029  -2.980  47.565  1.00 25.68 LIG-0.27  OA
ATOM     34  N   NH2 C   5      20.029  -2.768  45.326  1.00 12.85 LIG-0.11  N 
ENDBRANCH 30 32
ENDBRANCH 27 30
ENDBRANCH 21 26
ENDBRANCH 1 19
BRANCH 1 35
ATOM     35  CB  HIS C   2      21.866   3.867  45.000  1.00 13.77 LIG 0.10  C 
BRANCH 35 36
ATOM     36  CG  HIS C   2      20.684   4.648  45.480  1.00 15.95 LIG 0.06  A 
ATOM     37  CD2 HIS C   2      19.483   4.892  44.904  1.00 16.64 LIG 0.14  A 
ATOM     38 NE2  HIS C   2      18.756   5.655  45.788  1.00 23.10 LIG-0.25  NA
ATOM     39  CE1 HIS C   2      19.484   5.866  46.871  1.00 23.56 LIG 0.23  A 
ATOM     40 ND1  HIS C   2      20.650   5.266  46.713  1.00 22.80 LIG-0.24  NA
ENDBRANCH 35 36
ENDBRANCH 1 35
TORSDOF 11
ENDMDL
MODEL 76
USER: ADFR SOLUTION from run 137
USER: SCORE 10.618047 LL:  -2.784 LR:  -9.289 RR:   0.000 FEB:  -6.007
USER: RMSD 4.378544
USER: SEED 136
USER: STATUS no improvement in best in 21 clusters for 5 generations
USER: GENES 13
USER: genes 0 Translation |==|  0.66108 0.52253 0.42929
USER: genes 1 Rotation |==|  0.43799 0.72127 0.68178 0.90516
USER: genes 2 Torsion [CB]-CA--N-[C] |==|  0.48334
USER: genes 3 Torsion [N]-C--CA-[N] |==|  0.52934
USER: genes 4 Torsion [C]-CA--CB-[CG] |==|  0.44813
USER: genes 5 Torsion [CA]-CB--CG-[CD1] |==|  0.01145
USER: genes 6 Torsion [C]-CA--N-[C] |==|  0.68617
USER: genes 7 Torsion [N]-CA--C-[N] |==|  0.48289
USER: genes 8 Torsion [N]-CA--C-[N] |==|  0.92731
USER: genes 9 Torsion [C]-N--CA-[C] |==|  0.78362
USER: genes 10 Torsion [N]-CA--C-[N] |==|  0.49336
USER: genes 11 Torsion [N]-CA--CB-[CG] |==|  0.82263
USER: genes 12 Torsion [CA]-CB--CG-[ND1] |==|  0.00186
ROOT
ATOM      1  CA  HIS C   2      27.669   3.399  41.310  1.00 12.40 LIG 0.18  C 
ENDROOT
BRANCH 1 2
ATOM      2  N   HIS C   2      27.014   2.380  40.476  1.00  9.19 LIG-0.35  N 
ATOM      3 H    HIS C   2      26.368   2.682  39.996  1.00  9.19 LIG 0.16  HD
ATOM      4  C   PHE C   1      27.399   1.106  40.474  1.00 11.27 LIG 0.24  C 
ATOM      5 O    PHE C   1      28.387   0.698  41.098  1.00 15.22 LIG-0.27  OA
BRANCH 4 6
ATOM      6  CA  PHE C   1      26.563   0.146  39.625  1.00  8.70 LIG 0.18  C 
BRANCH 6 7
ATOM      7  CB  PHE C   1      25.074   0.376  39.885  1.00  9.29 LIG 0.07  C 
BRANCH 7 8
ATOM      8  CG  PHE C   1      24.177  -0.177  38.815  1.00  9.78 LIG-0.06  A 
ATOM      9  CD1 PHE C   1      24.697  -0.906  37.749  1.00  9.46 LIG 0.01  A 
ATOM     10  CE1 PHE C   1      23.862  -1.413  36.746  1.00  9.12 LIG 0.00  A 
ATOM     11  CZ  PHE C   1      22.492  -1.195  36.813  1.00  8.05 LIG 0.00  A 
ATOM     12  CE2 PHE C   1      21.966  -0.462  37.875  1.00  7.93 LIG 0.00  A 
ATOM     13  CD2 PHE C   1      22.808   0.038  38.870  1.00  6.20 LIG 0.01  A 
ENDBRANCH 7 8
ENDBRANCH 6 7
BRANCH 6 14
ATOM     14  N   PHE C   1      26.920  -1.242  39.893  1.00 10.26 LIG-0.35  N 
ATOM     15 H    PHE C   1      26.717  -1.517  40.683  1.00 10.26 LIG 0.16  HD
ATOM     16  C   ACE C   0      27.509  -1.998  38.972  1.00 10.83 LIG 0.21  C 
ATOM     17  CH3 ACE C   0      27.861  -3.386  39.430  1.00 14.43 LIG 0.12  C 
ATOM     18 O    ACE C   0      27.706  -1.623  37.818  1.00 14.21 LIG-0.27  OA
ENDBRANCH 6 14
ENDBRANCH 4 6
ENDBRANCH 1 2
BRANCH 1 19
ATOM     19  C   HIS C   2      27.439   3.087  42.787  1.00 15.02 LIG 0.24  C 
ATOM     20  N   PRO C   3      28.072   3.842  43.712  1.00 12.04 LIG-0.34  N 
ATOM     21  CA  PRO C   3      27.798   3.613  45.143  1.00 11.10 LIG 0.18  C 
ATOM     22  CD  PRO C   3      29.055   4.922  43.500  1.00 17.75 LIG 0.13  C 
ATOM     23  CB  PRO C   3      28.607   4.714  45.842  1.00 15.56 LIG 0.04  C 
ATOM     24  CG  PRO C   3      29.669   5.094  44.869  1.00 20.46 LIG 0.02  C 
ATOM     25 O    HIS C   2      26.674   2.188  43.089  1.00  9.69 LIG-0.27  OA
BRANCH 21 26
ATOM     26  C   PRO C   3      26.311   3.743  45.485  1.00 13.73 LIG 0.24  C 
ATOM     27  N   ALA C   4      25.574   4.523  44.693  1.00 10.66 LIG-0.35  N 
ATOM     28 H    ALA C   4      25.865   4.856  43.956  1.00 10.66 LIG 0.16  HD
ATOM     29 O    PRO C   3      25.852   3.113  46.440  1.00 16.34 LIG-0.27  OA
BRANCH 27 30
ATOM     30  CA  ALA C   4      24.191   4.889  45.001  1.00 15.22 LIG 0.18  C 
ATOM     31  CB  ALA C   4      23.812   6.150  44.242  1.00 14.26 LIG 0.04  C 
BRANCH 30 32
ATOM     32  C   ALA C   4      23.157   3.806  44.716  1.00 20.48 LIG 0.28  C 
ATOM     33 O    ALA C   4      23.511   2.728  44.242  1.00 25.68 LIG-0.27  OA
ATOM     34  N   NH2 C   5      21.898   4.082  45.028  1.00 12.85 LIG-0.11  N 
ENDBRANCH 30 32
ENDBRANCH 27 30
ENDBRANCH 21 26
ENDBRANCH 1 19
BRANCH 1 35
ATOM     35  CB  HIS C   2      27.124   4.794  41.004  1.00 13.77 LIG 0.10  C 
BRANCH 35 36
ATOM     36  CG  HIS C   2      27.396   5.270  39.611  1.00 15.95 LIG 0.06  A 
ATOM     37  CD2 HIS C   2      27.107   6.442  38.998  1.00 16.64 LIG 0.14  A 
ATOM     38 NE2  HIS C   2      27.599   6.360  37.716  1.00 23.10 LIG-0.25  NA
ATOM     39  CE1 HIS C   2      28.174   5.182  37.552  1.00 23.56 LIG 0.23  A 
ATOM     40 ND1  HIS C   2      28.070   4.506  38.681  1.00 22.80 LIG-0.24  NA
ENDBRANCH 35 36
ENDBRANCH 1 35
TORSDOF 11
ENDMDL
MODEL 77
USER: ADFR SOLUTION from run 66
USER: SCORE 11.575248 LL:  -3.017 LR:  -9.283 RR:   0.000 FEB:  -6.002
USER: RMSD 8.661521
USER: SEED 65
USER: STATUS no improvement in best in 42 clusters for 5 generations
USER: GENES 13
USER: genes 0 Translation |==|  0.42150 0.45360 0.73819
USER: genes 1 Rotation |==|  0.76505 0.48223 0.80599 0.79292
USER: genes 2 Torsion [CB]-CA--N-[C] |==|  0.53902
USER: genes 3 Torsion [N]-C--CA-[N] |==|  0.94504
USER: genes 4 Torsion [C]-CA--CB-[CG] |==|  0.64558
USER: genes 5 Torsion [CA]-CB--CG-[CD1] |==|  0.24864
USER: genes 6 Torsion [C]-CA--N-[C] |==|  0.64503
USER: genes 7 Torsion [N]-CA--C-[N] |==|  0.42579
USER: genes 8 Torsion [N]-CA--C-[N] |==|  0.36430
USER: genes 9 Torsion [C]-N--CA-[C] |==|  0.85555
USER: genes 10 Torsion [N]-CA--C-[N] |==|  0.91409
USER: genes 11 Torsion [N]-CA--CB-[CG] |==|  0.91395
USER: genes 12 Torsion [CA]-CB--CG-[ND1] |==|  0.18258
ROOT
ATOM      1  CA  HIS C   2      22.997   2.210  47.565  1.00 12.40 LIG 0.18  C 
ENDROOT
BRANCH 1 2
ATOM      2  N   HIS C   2      22.395   3.242  46.709  1.00  9.19 LIG-0.35  N 
ATOM      3 H    HIS C   2      21.884   3.791  47.128  1.00  9.19 LIG 0.16  HD
ATOM      4  C   PHE C   1      22.628   3.307  45.400  1.00 11.27 LIG 0.24  C 
ATOM      5 O    PHE C   1      23.436   2.568  44.820  1.00 15.22 LIG-0.27  OA
BRANCH 4 6
ATOM      6  CA  PHE C   1      21.858   4.378  44.625  1.00  8.70 LIG 0.18  C 
BRANCH 6 7
ATOM      7  CB  PHE C   1      22.775   5.563  44.316  1.00  9.29 LIG 0.07  C 
BRANCH 7 8
ATOM      8  CG  PHE C   1      22.218   6.891  44.741  1.00  9.78 LIG-0.06  A 
ATOM      9  CD1 PHE C   1      22.463   7.397  46.016  1.00  9.46 LIG 0.01  A 
ATOM     10  CE1 PHE C   1      21.935   8.631  46.416  1.00  9.12 LIG 0.00  A 
ATOM     11  CZ  PHE C   1      21.160   9.369  45.530  1.00  8.05 LIG 0.00  A 
ATOM     12  CE2 PHE C   1      20.907   8.866  44.256  1.00  7.93 LIG 0.00  A 
ATOM     13  CD2 PHE C   1      21.440   7.635  43.868  1.00  6.20 LIG 0.01  A 
ENDBRANCH 7 8
ENDBRANCH 6 7
BRANCH 6 14
ATOM     14  N   PHE C   1      20.683   4.822  45.364  1.00 10.26 LIG-0.35  N 
ATOM     15 H    PHE C   1      20.842   5.067  46.173  1.00 10.26 LIG 0.16  HD
ATOM     16  C   ACE C   0      19.476   4.835  44.807  1.00 10.83 LIG 0.21  C 
ATOM     17  CH3 ACE C   0      18.365   5.264  45.724  1.00 14.43 LIG 0.12  C 
ATOM     18 O    ACE C   0      19.278   4.572  43.622  1.00 14.21 LIG-0.27  OA
ENDBRANCH 6 14
ENDBRANCH 4 6
ENDBRANCH 1 2
BRANCH 1 19
ATOM     19  C   HIS C   2      22.886   0.844  46.891  1.00 15.02 LIG 0.24  C 
ATOM     20  N   PRO C   3      23.801  -0.103  47.195  1.00 12.04 LIG-0.34  N 
ATOM     21  CA  PRO C   3      23.662  -1.454  46.621  1.00 11.10 LIG 0.18  C 
ATOM     22  CD  PRO C   3      24.990   0.014  48.062  1.00 17.75 LIG 0.13  C 
ATOM     23  CB  PRO C   3      24.804  -2.240  47.278  1.00 15.56 LIG 0.04  C 
ATOM     24  CG  PRO C   3      25.796  -1.209  47.697  1.00 20.46 LIG 0.02  C 
ATOM     25 O    HIS C   2      21.963   0.639  46.122  1.00  9.69 LIG-0.27  OA
BRANCH 21 26
ATOM     26  C   PRO C   3      22.311  -2.097  46.950  1.00 13.73 LIG 0.24  C 
ATOM     27  N   ALA C   4      21.636  -2.638  45.936  1.00 10.66 LIG-0.35  N 
ATOM     28 H    ALA C   4      21.966  -2.738  45.149  1.00 10.66 LIG 0.16  HD
ATOM     29 O    PRO C   3      21.921  -2.118  48.119  1.00 16.34 LIG-0.27  OA
BRANCH 27 30
ATOM     30  CA  ALA C   4      20.259  -3.119  46.064  1.00 15.22 LIG 0.18  C 
ATOM     31  CB  ALA C   4      19.822  -3.776  44.765  1.00 14.26 LIG 0.04  C 
BRANCH 30 32
ATOM     32  C   ALA C   4      20.017  -4.084  47.217  1.00 20.48 LIG 0.28  C 
ATOM     33 O    ALA C   4      18.914  -4.130  47.760  1.00 25.68 LIG-0.27  OA
ATOM     34  N   NH2 C   5      21.029  -4.866  47.568  1.00 12.85 LIG-0.11  N 
ENDBRANCH 30 32
ENDBRANCH 27 30
ENDBRANCH 21 26
ENDBRANCH 1 19
BRANCH 1 35
ATOM     35  CB  HIS C   2      22.304   2.152  48.928  1.00 13.77 LIG 0.10  C 
BRANCH 35 36
ATOM     36  CG  HIS C   2      21.761   3.464  49.398  1.00 15.95 LIG 0.06  A 
ATOM     37  CD2 HIS C   2      22.123   4.258  50.434  1.00 16.64 LIG 0.14  A 
ATOM     38 NE2  HIS C   2      21.302   5.361  50.405  1.00 23.10 LIG-0.25  NA
ATOM     39  CE1 HIS C   2      20.471   5.250  49.384  1.00 23.56 LIG 0.23  A 
ATOM     40 ND1  HIS C   2      20.729   4.117  48.757  1.00 22.80 LIG-0.24  NA
ENDBRANCH 35 36
ENDBRANCH 1 35
TORSDOF 11
ENDMDL
