MODEL 1
USER: ADFR SOLUTION from run 50
USER: SCORE 12.687365 LL:  -2.970 LR: -11.773 RR:   0.000 FEB:  -7.597
USER: RMSD 5.954382
USER: SEED 49
USER: STATUS no improvement in best in 9 clusters for 5 generations
USER: GENES 16
USER: genes 0 Translation |==|  0.65981 0.66530 0.50947
USER: genes 1 Rotation |==|  0.23977 0.62546 0.73895 0.83083
USER: genes 2 Torsion [N]-CA--C-[N] |==|  0.91620
USER: genes 3 Torsion [C]-N--CA-[C] |==|  0.64391
USER: genes 4 Torsion [N]-CA--C-[N] |==|  0.04834
USER: genes 5 Torsion [C]-N--CA-[C] |==|  0.43139
USER: genes 6 Torsion [N]-CA--C-[N] |==|  0.57187
USER: genes 7 Torsion [N]-CA--CB-[CG2] |==|  0.57512
USER: genes 8 Torsion [CA]-CB--OG1-[HG1] |==|  0.51706
USER: genes 9 Torsion [C]-CA--CB-[CG] |==|  0.20914
USER: genes 10 Torsion [CA]-CB--CG-[CD2] |==|  0.82593
USER: genes 11 Torsion [C]-CA--N-[C] |==|  0.57235
USER: genes 12 Torsion [N]-C--CA-[N] |==|  0.79353
USER: genes 13 Torsion [C]-CA--N-[C] |==|  0.73900
USER: genes 14 Torsion [C]-CA--CB-[CG] |==|  0.25870
USER: genes 15 Torsion [CA]-CB--CG-[CD2] |==|  0.40187
ROOT
ATOM      1  CA  HIS E   2      18.076  -5.205   2.644  1.00 15.97 LIG 0.18  C 
ENDROOT
BRANCH 1 2
ATOM      2  C   HIS E   2      18.131  -5.762   4.056  1.00 15.29 LIG 0.24  C 
ATOM      3  N   THR E   3      16.958  -5.980   4.645  1.00 22.30 LIG-0.34  N 
ATOM      4 H    THR E   3      16.200  -5.807   4.278  1.00 22.30 LIG 0.16  HD
ATOM      5 O    HIS E   2      19.207  -6.005   4.596  1.00 12.62 LIG-0.27  OA
BRANCH 3 6
ATOM      6  CA  THR E   3      16.859  -6.540   5.986  1.00 13.35 LIG 0.20  C 
BRANCH 6 7
ATOM      7  C   THR E   3      15.922  -7.737   6.016  1.00 17.92 LIG 0.24  C 
ATOM      8  N   GLY E   4      15.641  -8.300   4.842  1.00 20.63 LIG-0.35  N 
ATOM      9 H    GLY E   4      15.872  -7.963   4.085  1.00 20.63 LIG 0.16  HD
ATOM     10 O    THR E   3      15.420  -8.109   7.075  1.00 20.63 LIG-0.27  OA
BRANCH 8 11
ATOM     11  CA  GLY E   4      14.909  -9.551   4.734  1.00 21.12 LIG 0.23  C 
BRANCH 11 12
ATOM     12  C   GLY E   4      14.155  -9.817   3.444  1.00 30.37 LIG 0.28  C 
ATOM     13 O    GLY E   4      14.528  -9.298   2.394  1.00 22.56 LIG-0.27  OA
ATOM     14  N   NH2 E   5      13.105 -10.633   3.511  1.00 46.70 LIG-0.11  N 
ENDBRANCH 11 12
ENDBRANCH 8 11
ENDBRANCH 6 7
BRANCH 6 15
ATOM     15  CB  THR E   3      16.363  -5.476   6.982  1.00 21.65 LIG 0.15  C 
ATOM     16  CG2 THR E   3      16.853  -5.769   8.375  1.00 26.78 LIG 0.04  C 
BRANCH 15 17
ATOM     17 OG1  THR E   3      16.849  -4.192   6.575  1.00 29.20 LIG-0.39  OA
ATOM     18 HG1  THR E   3      16.653  -3.621   7.159  1.00 29.20 LIG 0.21  HD
ENDBRANCH 15 17
ENDBRANCH 6 15
ENDBRANCH 3 6
ENDBRANCH 1 2
BRANCH 1 19
ATOM     19  CB  HIS E   2      18.136  -3.681   2.700  1.00 16.39 LIG 0.10  C 
BRANCH 19 20
ATOM     20  CG  HIS E   2      19.500  -3.139   2.999  1.00 27.51 LIG 0.06  A 
ATOM     21  CD2 HIS E   2      20.295  -3.280   4.086  1.00 25.75 LIG 0.14  A 
ATOM     22 NE2  HIS E   2      21.448  -2.575   3.838  1.00 29.28 LIG-0.25  NA
ATOM     23  CE1 HIS E   2      21.364  -2.021   2.643  1.00 28.87 LIG 0.23  A 
ATOM     24 ND1  HIS E   2      20.199  -2.348   2.113  1.00 29.28 LIG-0.24  NA
ENDBRANCH 19 20
ENDBRANCH 1 19
BRANCH 1 25
ATOM     25  N   HIS E   2      16.874  -5.644   1.935  1.00 15.79 LIG-0.35  N 
ATOM     26 H    HIS E   2      16.211  -5.837   2.448  1.00 15.79 LIG 0.16  HD
ATOM     27  C   PHE E   1      16.834  -5.731   0.611  1.00 15.11 LIG 0.24  C 
ATOM     28 O    PHE E   1      17.791  -5.463  -0.106  1.00 17.78 LIG-0.27  OA
BRANCH 27 29
ATOM     29  CA  PHE E   1      15.515  -6.197   0.003  1.00 10.43 LIG 0.18  C 
BRANCH 29 30
ATOM     30  N   PHE E   1      15.330  -7.625   0.202  1.00 15.82 LIG-0.35  N 
ATOM     31 H    PHE E   1      14.969  -7.821   0.958  1.00 15.82 LIG 0.16  HD
ATOM     32  C   ACE E   0      15.682  -8.549  -0.694  1.00 20.55 LIG 0.21  C 
ATOM     33 O    ACE E   0      15.481  -9.749  -0.482  1.00 32.51 LIG-0.27  OA
ATOM     34  CH3 ACE E   0      16.289  -8.063  -1.978  1.00 11.71 LIG 0.12  C 
ENDBRANCH 29 30
BRANCH 29 35
ATOM     35  CB  PHE E   1      14.353  -5.411   0.613  1.00  9.28 LIG 0.07  C 
BRANCH 35 36
ATOM     36  CG  PHE E   1      13.962  -4.191  -0.171  1.00 12.52 LIG-0.06  A 
ATOM     37  CD1 PHE E   1      14.921  -3.445  -0.840  1.00 10.90 LIG 0.01  A 
ATOM     38  CE1 PHE E   1      14.572  -2.332  -1.574  1.00 11.94 LIG 0.00  A 
ATOM     39  CZ  PHE E   1      13.248  -1.945  -1.641  1.00  8.92 LIG 0.00  A 
ATOM     40  CE2 PHE E   1      12.275  -2.693  -0.978  1.00  8.81 LIG 0.00  A 
ATOM     41  CD2 PHE E   1      12.633  -3.800  -0.253  1.00 12.38 LIG 0.01  A 
ENDBRANCH 35 36
ENDBRANCH 29 35
ENDBRANCH 27 29
ENDBRANCH 1 25
TORSDOF 14
ENDMDL
MODEL 2
USER: ADFR SOLUTION from run 128
USER: SCORE 13.467272 LL:  -2.988 LR: -11.305 RR:   0.000 FEB:  -7.129
USER: RMSD 8.444481
USER: SEED 127
USER: STATUS no improvement in best in 11 clusters for 5 generations
USER: GENES 16
USER: genes 0 Translation |==|  0.69100 0.69831 0.45022
USER: genes 1 Rotation |==|  0.31174 0.76592 0.34894 0.84789
USER: genes 2 Torsion [N]-CA--C-[N] |==|  0.43065
USER: genes 3 Torsion [C]-N--CA-[C] |==|  0.78387
USER: genes 4 Torsion [N]-CA--C-[N] |==|  0.36062
USER: genes 5 Torsion [C]-N--CA-[C] |==|  0.58512
USER: genes 6 Torsion [N]-CA--C-[N] |==|  0.09650
USER: genes 7 Torsion [N]-CA--CB-[CG2] |==|  0.45205
USER: genes 8 Torsion [CA]-CB--OG1-[HG1] |==|  0.18241
USER: genes 9 Torsion [C]-CA--CB-[CG] |==|  0.91960
USER: genes 10 Torsion [CA]-CB--CG-[CD2] |==|  0.34410
USER: genes 11 Torsion [C]-CA--N-[C] |==|  0.66111
USER: genes 12 Torsion [N]-C--CA-[N] |==|  0.46960
USER: genes 13 Torsion [C]-CA--N-[C] |==|  0.76776
USER: genes 14 Torsion [C]-CA--CB-[CG] |==|  0.77703
USER: genes 15 Torsion [CA]-CB--CG-[CD2] |==|  0.63540
ROOT
ATOM      1  CA  HIS E   2      18.661  -4.511   1.667  1.00 15.97 LIG 0.18  C 
ENDROOT
BRANCH 1 2
ATOM      2  C   HIS E   2      18.250  -3.776   2.930  1.00 15.29 LIG 0.24  C 
ATOM      3  N   THR E   3      18.107  -4.522   4.022  1.00 22.30 LIG-0.34  N 
ATOM      4 H    THR E   3      18.217  -5.374   4.035  1.00 22.30 LIG 0.16  HD
ATOM      5 O    HIS E   2      18.080  -2.558   2.923  1.00 12.62 LIG-0.27  OA
BRANCH 3 6
ATOM      6  CA  THR E   3      17.746  -3.946   5.310  1.00 13.35 LIG 0.20  C 
BRANCH 6 7
ATOM      7  C   THR E   3      18.941  -3.278   5.971  1.00 17.92 LIG 0.24  C 
ATOM      8  N   GLY E   4      18.756  -2.034   6.412  1.00 20.63 LIG-0.35  N 
ATOM      9 H    GLY E   4      18.050  -1.572   6.249  1.00 20.63 LIG 0.16  HD
ATOM     10 O    THR E   3      20.024  -3.856   6.032  1.00 20.63 LIG-0.27  OA
BRANCH 8 11
ATOM     11  CA  GLY E   4      19.746  -1.340   7.219  1.00 21.12 LIG 0.23  C 
BRANCH 11 12
ATOM     12  C   GLY E   4      19.244  -0.320   8.225  1.00 30.37 LIG 0.28  C 
ATOM     13 O    GLY E   4      19.894   0.698   8.448  1.00 22.56 LIG-0.27  OA
ATOM     14  N   NH2 E   5      18.084  -0.579   8.824  1.00 46.70 LIG-0.11  N 
ENDBRANCH 11 12
ENDBRANCH 8 11
ENDBRANCH 6 7
BRANCH 6 15
ATOM     15  CB  THR E   3      17.180  -5.028   6.247  1.00 21.65 LIG 0.15  C 
ATOM     16  CG2 THR E   3      17.195  -4.564   7.680  1.00 26.78 LIG 0.04  C 
BRANCH 15 17
ATOM     17 OG1  THR E   3      15.832  -5.321   5.864  1.00 29.20 LIG-0.39  OA
ATOM     18 HG1  THR E   3      15.828  -5.672   5.101  1.00 29.20 LIG 0.21  HD
ENDBRANCH 15 17
ENDBRANCH 6 15
ENDBRANCH 3 6
ENDBRANCH 1 2
BRANCH 1 19
ATOM     19  CB  HIS E   2      20.174  -4.710   1.667  1.00 16.39 LIG 0.10  C 
BRANCH 19 20
ATOM     20  CG  HIS E   2      20.923  -3.648   2.411  1.00 27.51 LIG 0.06  A 
ATOM     21  CD2 HIS E   2      21.799  -3.731   3.440  1.00 25.75 LIG 0.14  A 
ATOM     22 NE2  HIS E   2      22.193  -2.449   3.741  1.00 29.28 LIG-0.25  NA
ATOM     23  CE1 HIS E   2      21.580  -1.609   2.928  1.00 28.87 LIG 0.23  A 
ATOM     24 ND1  HIS E   2      20.810  -2.307   2.112  1.00 29.28 LIG-0.24  NA
ENDBRANCH 19 20
ENDBRANCH 1 19
BRANCH 1 25
ATOM     25  N   HIS E   2      18.239  -3.795   0.462  1.00 15.79 LIG-0.35  N 
ATOM     26 H    HIS E   2      18.545  -2.994   0.402  1.00 15.79 LIG 0.16  HD
ATOM     27  C   PHE E   1      17.450  -4.356  -0.446  1.00 15.11 LIG 0.24  C 
ATOM     28 O    PHE E   1      17.014  -5.497  -0.340  1.00 17.78 LIG-0.27  OA
BRANCH 27 29
ATOM     29  CA  PHE E   1      17.093  -3.498  -1.656  1.00 10.43 LIG 0.18  C 
BRANCH 29 30
ATOM     30  N   PHE E   1      16.450  -4.298  -2.685  1.00 15.82 LIG-0.35  N 
ATOM     31 H    PHE E   1      15.590  -4.259  -2.661  1.00 15.82 LIG 0.16  HD
ATOM     32  C   ACE E   0      17.116  -5.025  -3.583  1.00 20.55 LIG 0.21  C 
ATOM     33 O    ACE E   0      16.518  -5.670  -4.451  1.00 32.51 LIG-0.27  OA
ATOM     34  CH3 ACE E   0      18.616  -4.990  -3.517  1.00 11.71 LIG 0.12  C 
ENDBRANCH 29 30
BRANCH 29 35
ATOM     35  CB  PHE E   1      16.190  -2.342  -1.226  1.00  9.28 LIG 0.07  C 
BRANCH 35 36
ATOM     36  CG  PHE E   1      14.746  -2.722  -1.059  1.00 12.52 LIG-0.06  A 
ATOM     37  CD1 PHE E   1      14.394  -3.834  -0.308  1.00 10.90 LIG 0.01  A 
ATOM     38  CE1 PHE E   1      13.072  -4.185  -0.135  1.00 11.94 LIG 0.00  A 
ATOM     39  CZ  PHE E   1      12.080  -3.425  -0.724  1.00  8.92 LIG 0.00  A 
ATOM     40  CE2 PHE E   1      12.425  -2.301  -1.476  1.00  8.81 LIG 0.00  A 
ATOM     41  CD2 PHE E   1      13.743  -1.960  -1.638  1.00 12.38 LIG 0.01  A 
ENDBRANCH 35 36
ENDBRANCH 29 35
ENDBRANCH 27 29
ENDBRANCH 1 25
TORSDOF 14
ENDMDL
MODEL 3
USER: ADFR SOLUTION from run 45
USER: SCORE 12.684064 LL:  -2.571 LR: -11.313 RR:   0.000 FEB:  -7.137
USER: RMSD 9.660429
USER: SEED 44
USER: STATUS no improvement in best in 31 clusters for 5 generations
USER: GENES 16
USER: genes 0 Translation |==|  0.43761 0.37575 0.45265
USER: genes 1 Rotation |==|  0.11948 0.80481 0.61035 0.51068
USER: genes 2 Torsion [N]-CA--C-[N] |==|  0.57623
USER: genes 3 Torsion [C]-N--CA-[C] |==|  0.63248
USER: genes 4 Torsion [N]-CA--C-[N] |==|  0.38965
USER: genes 5 Torsion [C]-N--CA-[C] |==|  0.34898
USER: genes 6 Torsion [N]-CA--C-[N] |==|  0.43893
USER: genes 7 Torsion [N]-CA--CB-[CG2] |==|  0.29843
USER: genes 8 Torsion [CA]-CB--OG1-[HG1] |==|  0.02732
USER: genes 9 Torsion [C]-CA--CB-[CG] |==|  0.48346
USER: genes 10 Torsion [CA]-CB--CG-[CD2] |==|  0.00556
USER: genes 11 Torsion [C]-CA--N-[C] |==|  0.69327
USER: genes 12 Torsion [N]-C--CA-[N] |==|  0.95225
USER: genes 13 Torsion [C]-CA--N-[C] |==|  0.74207
USER: genes 14 Torsion [C]-CA--CB-[CG] |==|  0.37654
USER: genes 15 Torsion [CA]-CB--CG-[CD2] |==|  0.48235
ROOT
ATOM      1  CA  HIS E   2      13.910 -11.285   1.707  1.00 15.97 LIG 0.18  C 
ENDROOT
BRANCH 1 2
ATOM      2  C   HIS E   2      14.352  -9.883   2.088  1.00 15.29 LIG 0.24  C 
ATOM      3  N   THR E   3      14.993  -9.195   1.147  1.00 22.30 LIG-0.34  N 
ATOM      4 H    THR E   3      15.175  -9.509   0.367  1.00 22.30 LIG 0.16  HD
ATOM      5 O    HIS E   2      14.108  -9.427   3.202  1.00 12.62 LIG-0.27  OA
BRANCH 3 6
ATOM      6  CA  THR E   3      15.449  -7.829   1.363  1.00 13.35 LIG 0.20  C 
BRANCH 6 7
ATOM      7  C   THR E   3      15.062  -6.928   0.202  1.00 17.92 LIG 0.24  C 
ATOM      8  N   GLY E   4      14.652  -5.700   0.516  1.00 20.63 LIG-0.35  N 
ATOM      9 H    GLY E   4      14.500  -5.440   1.322  1.00 20.63 LIG 0.16  HD
ATOM     10 O    THR E   3      15.082  -7.353  -0.951  1.00 20.63 LIG-0.27  OA
BRANCH 8 11
ATOM     11  CA  GLY E   4      14.421  -4.675  -0.489  1.00 21.12 LIG 0.23  C 
BRANCH 11 12
ATOM     12  C   GLY E   4      13.063  -3.998  -0.506  1.00 30.37 LIG 0.28  C 
ATOM     13 O    GLY E   4      12.094  -4.548   0.009  1.00 22.56 LIG-0.27  OA
ATOM     14  N   NH2 E   5      12.989  -2.801  -1.084  1.00 46.70 LIG-0.11  N 
ENDBRANCH 11 12
ENDBRANCH 8 11
ENDBRANCH 6 7
BRANCH 6 15
ATOM     15  CB  THR E   3      16.976  -7.791   1.554  1.00 21.65 LIG 0.15  C 
ATOM     16  CG2 THR E   3      17.658  -7.204   0.347  1.00 26.78 LIG 0.04  C 
BRANCH 15 17
ATOM     17 OG1  THR E   3      17.285  -6.992   2.701  1.00 29.20 LIG-0.39  OA
ATOM     18 HG1  THR E   3      16.577  -6.814   3.118  1.00 29.20 LIG 0.21  HD
ENDBRANCH 15 17
ENDBRANCH 6 15
ENDBRANCH 3 6
ENDBRANCH 1 2
BRANCH 1 19
ATOM     19  CB  HIS E   2      13.627 -11.336   0.208  1.00 16.39 LIG 0.10  C 
BRANCH 19 20
ATOM     20  CG  HIS E   2      13.318 -12.710  -0.303  1.00 27.51 LIG 0.06  A 
ATOM     21  CD2 HIS E   2      13.214 -13.896   0.341  1.00 25.75 LIG 0.14  A 
ATOM     22 NE2  HIS E   2      12.909 -14.845  -0.605  1.00 29.28 LIG-0.25  NA
ATOM     23  CE1 HIS E   2      12.830 -14.262  -1.788  1.00 28.87 LIG 0.23  A 
ATOM     24 ND1  HIS E   2      13.069 -12.972  -1.633  1.00 29.28 LIG-0.24  NA
ENDBRANCH 19 20
ENDBRANCH 1 19
BRANCH 1 25
ATOM     25  N   HIS E   2      12.731 -11.705   2.465  1.00 15.79 LIG-0.35  N 
ATOM     26 H    HIS E   2      12.009 -11.287   2.257  1.00 15.79 LIG 0.16  HD
ATOM     27  C   PHE E   1      12.795 -12.654   3.392  1.00 15.11 LIG 0.24  C 
ATOM     28 O    PHE E   1      13.835 -13.234   3.685  1.00 17.78 LIG-0.27  OA
BRANCH 27 29
ATOM     29  CA  PHE E   1      11.489 -12.997   4.101  1.00 10.43 LIG 0.18  C 
BRANCH 29 30
ATOM     30  N   PHE E   1      10.505 -11.945   3.908  1.00 15.82 LIG-0.35  N 
ATOM     31 H    PHE E   1      10.040 -12.038   3.190  1.00 15.82 LIG 0.16  HD
ATOM     32  C   ACE E   0      10.330 -10.929   4.755  1.00 20.55 LIG 0.21  C 
ATOM     33 O    ACE E   0       9.463 -10.073   4.554  1.00 32.51 LIG-0.27  OA
ATOM     34  CH3 ACE E   0      11.202 -10.898   5.978  1.00 11.71 LIG 0.12  C 
ENDBRANCH 29 30
BRANCH 29 35
ATOM     35  CB  PHE E   1      10.956 -14.336   3.592  1.00  9.28 LIG 0.07  C 
BRANCH 35 36
ATOM     36  CG  PHE E   1      10.466 -15.253   4.677  1.00 12.52 LIG-0.06  A 
ATOM     37  CD1 PHE E   1      10.625 -14.910   6.012  1.00 10.90 LIG 0.01  A 
ATOM     38  CE1 PHE E   1      10.168 -15.737   7.017  1.00 11.94 LIG 0.00  A 
ATOM     39  CZ  PHE E   1       9.549 -16.928   6.693  1.00  8.92 LIG 0.00  A 
ATOM     40  CE2 PHE E   1       9.379 -17.278   5.353  1.00  8.81 LIG 0.00  A 
ATOM     41  CD2 PHE E   1       9.835 -16.447   4.363  1.00 12.38 LIG 0.01  A 
ENDBRANCH 35 36
ENDBRANCH 29 35
ENDBRANCH 27 29
ENDBRANCH 1 25
TORSDOF 14
ENDMDL
MODEL 4
USER: ADFR SOLUTION from run 116
USER: SCORE 13.273000 LL:  -2.567 LR: -11.299 RR:   0.000 FEB:  -7.123
USER: RMSD 2.374670
USER: SEED 115
USER: STATUS no improvement in best in 20 clusters for 5 generations
USER: GENES 16
USER: genes 0 Translation |==|  0.54787 0.46520 0.44486
USER: genes 1 Rotation |==|  0.50327 0.58360 0.47592 0.99236
USER: genes 2 Torsion [N]-CA--C-[N] |==|  0.34528
USER: genes 3 Torsion [C]-N--CA-[C] |==|  0.85990
USER: genes 4 Torsion [N]-CA--C-[N] |==|  0.36710
USER: genes 5 Torsion [C]-N--CA-[C] |==|  0.47024
USER: genes 6 Torsion [N]-CA--C-[N] |==|  0.48481
USER: genes 7 Torsion [N]-CA--CB-[CG2] |==|  0.40572
USER: genes 8 Torsion [CA]-CB--OG1-[HG1] |==|  0.58913
USER: genes 9 Torsion [C]-CA--CB-[CG] |==|  0.80018
USER: genes 10 Torsion [CA]-CB--CG-[CD2] |==|  0.74361
USER: genes 11 Torsion [C]-CA--N-[C] |==|  0.75320
USER: genes 12 Torsion [N]-C--CA-[N] |==|  0.46549
USER: genes 13 Torsion [C]-CA--N-[C] |==|  0.67763
USER: genes 14 Torsion [C]-CA--CB-[CG] |==|  0.56900
USER: genes 15 Torsion [CA]-CB--CG-[CD2] |==|  0.86924
ROOT
ATOM      1  CA  HIS E   2      15.978  -9.407   1.578  1.00 15.97 LIG 0.18  C 
ENDROOT
BRANCH 1 2
ATOM      2  C   HIS E   2      14.619  -9.959   1.973  1.00 15.29 LIG 0.24  C 
ATOM      3  N   THR E   3      14.217 -11.045   1.319  1.00 22.30 LIG-0.34  N 
ATOM      4 H    THR E   3      14.671 -11.422   0.693  1.00 22.30 LIG 0.16  HD
ATOM      5 O    HIS E   2      13.955  -9.426   2.858  1.00 12.62 LIG-0.27  OA
BRANCH 3 6
ATOM      6  CA  THR E   3      12.949 -11.700   1.614  1.00 13.35 LIG 0.20  C 
BRANCH 6 7
ATOM      7  C   THR E   3      12.797 -11.964   3.102  1.00 17.92 LIG 0.24  C 
ATOM      8  N   GLY E   4      11.636 -11.609   3.652  1.00 20.63 LIG-0.35  N 
ATOM      9 H    GLY E   4      11.033 -11.156   3.238  1.00 20.63 LIG 0.16  HD
ATOM     10 O    THR E   3      13.731 -12.428   3.753  1.00 20.63 LIG-0.27  OA
BRANCH 8 11
ATOM     11  CA  GLY E   4      11.281 -11.960   5.017  1.00 21.12 LIG 0.23  C 
BRANCH 11 12
ATOM     12  C   GLY E   4      10.054 -11.298   5.618  1.00 30.37 LIG 0.28  C 
ATOM     13 O    GLY E   4       9.450 -10.433   4.989  1.00 22.56 LIG-0.27  OA
ATOM     14  N   NH2 E   5       9.674 -11.709   6.825  1.00 46.70 LIG-0.11  N 
ENDBRANCH 11 12
ENDBRANCH 8 11
ENDBRANCH 6 7
BRANCH 6 15
ATOM     15  CB  THR E   3      12.834 -13.029   0.844  1.00 21.65 LIG 0.15  C 
ATOM     16  CG2 THR E   3      12.078 -14.055   1.646  1.00 26.78 LIG 0.04  C 
BRANCH 15 17
ATOM     17 OG1  THR E   3      12.146 -12.797  -0.390  1.00 29.20 LIG-0.39  OA
ATOM     18 HG1  THR E   3      11.703 -13.481  -0.596  1.00 29.20 LIG 0.21  HD
ENDBRANCH 15 17
ENDBRANCH 6 15
ENDBRANCH 3 6
ENDBRANCH 1 2
BRANCH 1 19
ATOM     19  CB  HIS E   2      16.949  -9.574   2.743  1.00 16.39 LIG 0.10  C 
BRANCH 19 20
ATOM     20  CG  HIS E   2      16.682  -8.649   3.891  1.00 27.51 LIG 0.06  A 
ATOM     21  CD2 HIS E   2      17.173  -7.421   4.177  1.00 25.75 LIG 0.14  A 
ATOM     22 NE2  HIS E   2      16.592  -7.017   5.355  1.00 29.28 LIG-0.25  NA
ATOM     23  CE1 HIS E   2      15.773  -7.963   5.777  1.00 28.87 LIG 0.23  A 
ATOM     24 ND1  HIS E   2      15.806  -8.959   4.910  1.00 29.28 LIG-0.24  NA
ENDBRANCH 19 20
ENDBRANCH 1 19
BRANCH 1 25
ATOM     25  N   HIS E   2      15.894  -8.001   1.179  1.00 15.79 LIG-0.35  N 
ATOM     26 H    HIS E   2      16.016  -7.443   1.821  1.00 15.79 LIG 0.16  HD
ATOM     27  C   PHE E   1      15.649  -7.642  -0.076  1.00 15.11 LIG 0.24  C 
ATOM     28 O    PHE E   1      15.468  -8.451  -0.979  1.00 17.78 LIG-0.27  OA
BRANCH 27 29
ATOM     29  CA  PHE E   1      15.596  -6.144  -0.353  1.00 10.43 LIG 0.18  C 
BRANCH 29 30
ATOM     30  N   PHE E   1      15.615  -5.882  -1.783  1.00 15.82 LIG-0.35  N 
ATOM     31 H    PHE E   1      14.926  -6.189  -2.196  1.00 15.82 LIG 0.16  HD
ATOM     32  C   ACE E   0      16.600  -5.230  -2.403  1.00 20.55 LIG 0.21  C 
ATOM     33 O    ACE E   0      16.555  -5.016  -3.619  1.00 32.51 LIG-0.27  OA
ATOM     34  CH3 ACE E   0      17.737  -4.737  -1.556  1.00 11.71 LIG 0.12  C 
ENDBRANCH 29 30
BRANCH 29 35
ATOM     35  CB  PHE E   1      14.348  -5.539   0.291  1.00  9.28 LIG 0.07  C 
BRANCH 35 36
ATOM     36  CG  PHE E   1      13.873  -4.274  -0.366  1.00 12.52 LIG-0.06  A 
ATOM     37  CD1 PHE E   1      12.530  -4.097  -0.664  1.00 10.90 LIG 0.01  A 
ATOM     38  CE1 PHE E   1      12.080  -2.934  -1.254  1.00 11.94 LIG 0.00  A 
ATOM     39  CZ  PHE E   1      12.979  -1.932  -1.562  1.00  8.92 LIG 0.00  A 
ATOM     40  CE2 PHE E   1      14.331  -2.098  -1.260  1.00  8.81 LIG 0.00  A 
ATOM     41  CD2 PHE E   1      14.766  -3.257  -0.671  1.00 12.38 LIG 0.01  A 
ENDBRANCH 35 36
ENDBRANCH 29 35
ENDBRANCH 27 29
ENDBRANCH 1 25
TORSDOF 14
ENDMDL
MODEL 5
USER: ADFR SOLUTION from run 85
USER: SCORE 12.809617 LL:  -2.552 LR: -11.272 RR:   0.000 FEB:  -7.096
USER: RMSD 6.423973
USER: SEED 84
USER: STATUS no improvement in best in 29 clusters for 5 generations
USER: GENES 16
USER: genes 0 Translation |==|  0.58894 0.58083 0.48442
USER: genes 1 Rotation |==|  0.48613 0.88112 0.22544 0.67080
USER: genes 2 Torsion [N]-CA--C-[N] |==|  0.23855
USER: genes 3 Torsion [C]-N--CA-[C] |==|  0.63401
USER: genes 4 Torsion [N]-CA--C-[N] |==|  0.37738
USER: genes 5 Torsion [C]-N--CA-[C] |==|  0.21689
USER: genes 6 Torsion [N]-CA--C-[N] |==|  0.52549
USER: genes 7 Torsion [N]-CA--CB-[CG2] |==|  0.97998
USER: genes 8 Torsion [CA]-CB--OG1-[HG1] |==|  0.58210
USER: genes 9 Torsion [C]-CA--CB-[CG] |==|  0.35234
USER: genes 10 Torsion [CA]-CB--CG-[CD2] |==|  0.37614
USER: genes 11 Torsion [C]-CA--N-[C] |==|  0.55000
USER: genes 12 Torsion [N]-C--CA-[N] |==|  0.43259
USER: genes 13 Torsion [C]-CA--N-[C] |==|  0.62355
USER: genes 14 Torsion [C]-CA--CB-[CG] |==|  0.78143
USER: genes 15 Torsion [CA]-CB--CG-[CD2] |==|  0.16701
ROOT
ATOM      1  CA  HIS E   2      16.748  -6.978   2.231  1.00 15.97 LIG 0.18  C 
ENDROOT
BRANCH 1 2
ATOM      2  C   HIS E   2      17.525  -6.635   3.489  1.00 15.29 LIG 0.24  C 
ATOM      3  N   THR E   3      16.959  -5.750   4.304  1.00 22.30 LIG-0.34  N 
ATOM      4 H    THR E   3      16.206  -5.366   4.143  1.00 22.30 LIG 0.16  HD
ATOM      5 O    HIS E   2      18.606  -7.169   3.728  1.00 12.62 LIG-0.27  OA
BRANCH 3 6
ATOM      6  CA  THR E   3      17.577  -5.349   5.561  1.00 13.35 LIG 0.20  C 
BRANCH 6 7
ATOM      7  C   THR E   3      16.580  -5.401   6.708  1.00 17.92 LIG 0.24  C 
ATOM      8  N   GLY E   4      17.011  -5.947   7.844  1.00 20.63 LIG-0.35  N 
ATOM      9 H    GLY E   4      17.766  -6.353   7.920  1.00 20.63 LIG 0.16  HD
ATOM     10 O    THR E   3      15.427  -5.005   6.550  1.00 20.63 LIG-0.27  OA
BRANCH 8 11
ATOM     11  CA  GLY E   4      16.235  -5.904   9.072  1.00 21.12 LIG 0.23  C 
BRANCH 11 12
ATOM     12  C   GLY E   4      15.080  -6.879   9.210  1.00 30.37 LIG 0.28  C 
ATOM     13 O    GLY E   4      14.936  -7.784   8.392  1.00 22.56 LIG-0.27  OA
ATOM     14  N   NH2 E   5      14.263  -6.709  10.247  1.00 46.70 LIG-0.11  N 
ENDBRANCH 11 12
ENDBRANCH 8 11
ENDBRANCH 6 7
BRANCH 6 15
ATOM     15  CB  THR E   3      18.157  -3.928   5.450  1.00 21.65 LIG 0.15  C 
ATOM     16  CG2 THR E   3      18.080  -3.421   4.035  1.00 26.78 LIG 0.04  C 
BRANCH 15 17
ATOM     17 OG1  THR E   3      17.413  -3.051   6.303  1.00 29.20 LIG-0.39  OA
ATOM     18 HG1  THR E   3      17.421  -2.274   5.982  1.00 29.20 LIG 0.21  HD
ENDBRANCH 15 17
ENDBRANCH 6 15
ENDBRANCH 3 6
ENDBRANCH 1 2
BRANCH 1 19
ATOM     19  CB  HIS E   2      17.091  -8.401   1.796  1.00 16.39 LIG 0.10  C 
BRANCH 19 20
ATOM     20  CG  HIS E   2      15.894  -9.278   1.598  1.00 27.51 LIG 0.06  A 
ATOM     21  CD2 HIS E   2      15.583 -10.150   0.610  1.00 25.75 LIG 0.14  A 
ATOM     22 NE2  HIS E   2      14.360 -10.695   0.922  1.00 29.28 LIG-0.25  NA
ATOM     23  CE1 HIS E   2      13.935 -10.176   2.059  1.00 28.87 LIG 0.23  A 
ATOM     24 ND1  HIS E   2      14.844  -9.319   2.491  1.00 29.28 LIG-0.24  NA
ENDBRANCH 19 20
ENDBRANCH 1 19
BRANCH 1 25
ATOM     25  N   HIS E   2      17.025  -6.032   1.150  1.00 15.79 LIG-0.35  N 
ATOM     26 H    HIS E   2      17.741  -5.569   1.259  1.00 15.79 LIG 0.16  HD
ATOM     27  C   PHE E   1      16.222  -5.914   0.098  1.00 15.11 LIG 0.24  C 
ATOM     28 O    PHE E   1      15.198  -6.574  -0.038  1.00 17.78 LIG-0.27  OA
BRANCH 27 29
ATOM     29  CA  PHE E   1      16.634  -4.893  -0.957  1.00 10.43 LIG 0.18  C 
BRANCH 29 30
ATOM     30  N   PHE E   1      16.065  -5.230  -2.251  1.00 15.82 LIG-0.35  N 
ATOM     31 H    PHE E   1      15.236  -5.459  -2.211  1.00 15.82 LIG 0.16  HD
ATOM     32  C   ACE E   0      16.750  -5.191  -3.395  1.00 20.55 LIG 0.21  C 
ATOM     33 O    ACE E   0      16.210  -5.466  -4.471  1.00 32.51 LIG-0.27  OA
ATOM     34  CH3 ACE E   0      18.186  -4.759  -3.319  1.00 11.71 LIG 0.12  C 
ENDBRANCH 29 30
BRANCH 29 35
ATOM     35  CB  PHE E   1      16.202  -3.492  -0.524  1.00  9.28 LIG 0.07  C 
BRANCH 35 36
ATOM     36  CG  PHE E   1      14.744  -3.205  -0.750  1.00 12.52 LIG-0.06  A 
ATOM     37  CD1 PHE E   1      14.352  -2.174  -1.591  1.00 10.90 LIG 0.01  A 
ATOM     38  CE1 PHE E   1      13.018  -1.910  -1.817  1.00 11.94 LIG 0.00  A 
ATOM     39  CZ  PHE E   1      12.053  -2.676  -1.192  1.00  8.92 LIG 0.00  A 
ATOM     40  CE2 PHE E   1      12.439  -3.720  -0.350  1.00  8.81 LIG 0.00  A 
ATOM     41  CD2 PHE E   1      13.768  -3.975  -0.135  1.00 12.38 LIG 0.01  A 
ENDBRANCH 35 36
ENDBRANCH 29 35
ENDBRANCH 27 29
ENDBRANCH 1 25
TORSDOF 14
ENDMDL
MODEL 6
USER: ADFR SOLUTION from run 109
USER: SCORE 12.667153 LL:  -2.928 LR: -11.218 RR:   0.000 FEB:  -7.041
USER: RMSD 2.934868
USER: SEED 108
USER: STATUS no improvement in best in 11 clusters for 5 generations
USER: GENES 16
USER: genes 0 Translation |==|  0.60631 0.54673 0.51630
USER: genes 1 Rotation |==|  0.51110 0.42440 0.51085 0.99401
USER: genes 2 Torsion [N]-CA--C-[N] |==|  0.58614
USER: genes 3 Torsion [C]-N--CA-[C] |==|  0.64391
USER: genes 4 Torsion [N]-CA--C-[N] |==|  0.46014
USER: genes 5 Torsion [C]-N--CA-[C] |==|  0.37456
USER: genes 6 Torsion [N]-CA--C-[N] |==|  0.33623
USER: genes 7 Torsion [N]-CA--CB-[CG2] |==|  0.66868
USER: genes 8 Torsion [CA]-CB--OG1-[HG1] |==|  0.67056
USER: genes 9 Torsion [C]-CA--CB-[CG] |==|  0.67429
USER: genes 10 Torsion [CA]-CB--CG-[CD2] |==|  0.32197
USER: genes 11 Torsion [C]-CA--N-[C] |==|  0.70514
USER: genes 12 Torsion [N]-C--CA-[N] |==|  0.35123
USER: genes 13 Torsion [C]-CA--N-[C] |==|  0.70364
USER: genes 14 Torsion [C]-CA--CB-[CG] |==|  0.25399
USER: genes 15 Torsion [CA]-CB--CG-[CD2] |==|  0.80800
ROOT
ATOM      1  CA  HIS E   2      17.073  -7.695   2.757  1.00 15.97 LIG 0.18  C 
ENDROOT
BRANCH 1 2
ATOM      2  C   HIS E   2      15.833  -8.422   2.270  1.00 15.29 LIG 0.24  C 
ATOM      3  N   THR E   3      15.404  -9.424   3.033  1.00 22.30 LIG-0.34  N 
ATOM      4 H    THR E   3      15.798  -9.676   3.755  1.00 22.30 LIG 0.16  HD
ATOM      5 O    HIS E   2      15.266  -8.078   1.236  1.00 12.62 LIG-0.27  OA
BRANCH 3 6
ATOM      6  CA  THR E   3      14.210 -10.190   2.705  1.00 13.35 LIG 0.20  C 
BRANCH 6 7
ATOM      7  C   THR E   3      13.254 -10.257   3.884  1.00 17.92 LIG 0.24  C 
ATOM      8  N   GLY E   4      12.015 -10.669   3.622  1.00 20.63 LIG-0.35  N 
ATOM      9 H    GLY E   4      11.713 -10.792   2.825  1.00 20.63 LIG 0.16  HD
ATOM     10 O    THR E   3      13.615  -9.890   5.001  1.00 20.63 LIG-0.27  OA
BRANCH 8 11
ATOM     11  CA  GLY E   4      11.049 -10.952   4.670  1.00 21.12 LIG 0.23  C 
BRANCH 11 12
ATOM     12  C   GLY E   4       9.641 -10.413   4.495  1.00 30.37 LIG 0.28  C 
ATOM     13 O    GLY E   4       9.455  -9.206   4.360  1.00 22.56 LIG-0.27  OA
ATOM     14  N   NH2 E   5       8.649 -11.301   4.483  1.00 46.70 LIG-0.11  N 
ENDBRANCH 11 12
ENDBRANCH 8 11
ENDBRANCH 6 7
BRANCH 6 15
ATOM     15  CB  THR E   3      14.586 -11.618   2.269  1.00 21.65 LIG 0.15  C 
ATOM     16  CG2 THR E   3      14.132 -11.891   0.859  1.00 26.78 LIG 0.04  C 
BRANCH 15 17
ATOM     17 OG1  THR E   3      16.007 -11.771   2.341  1.00 29.20 LIG-0.39  OA
ATOM     18 HG1  THR E   3      16.310 -11.943   1.576  1.00 29.20 LIG 0.21  HD
ENDBRANCH 15 17
ENDBRANCH 6 15
ENDBRANCH 3 6
ENDBRANCH 1 2
BRANCH 1 19
ATOM     19  CB  HIS E   2      17.172  -7.823   4.275  1.00 16.39 LIG 0.10  C 
BRANCH 19 20
ATOM     20  CG  HIS E   2      17.090  -6.514   4.998  1.00 27.51 LIG 0.06  A 
ATOM     21  CD2 HIS E   2      16.171  -6.034   5.869  1.00 25.75 LIG 0.14  A 
ATOM     22 NE2  HIS E   2      16.580  -4.774   6.236  1.00 29.28 LIG-0.25  NA
ATOM     23  CE1 HIS E   2      17.708  -4.490   5.612  1.00 28.87 LIG 0.23  A 
ATOM     24 ND1  HIS E   2      18.040  -5.525   4.860  1.00 29.28 LIG-0.24  NA
ENDBRANCH 19 20
ENDBRANCH 1 19
BRANCH 1 25
ATOM     25  N   HIS E   2      17.063  -6.286   2.362  1.00 15.79 LIG-0.35  N 
ATOM     26 H    HIS E   2      16.514  -5.797   2.807  1.00 15.79 LIG 0.16  HD
ATOM     27  C   PHE E   1      17.846  -5.824   1.393  1.00 15.11 LIG 0.24  C 
ATOM     28 O    PHE E   1      18.617  -6.536   0.760  1.00 17.78 LIG-0.27  OA
BRANCH 27 29
ATOM     29  CA  PHE E   1      17.739  -4.333   1.089  1.00 10.43 LIG 0.18  C 
BRANCH 29 30
ATOM     30  N   PHE E   1      19.046  -3.700   1.141  1.00 15.82 LIG-0.35  N 
ATOM     31 H    PHE E   1      19.547  -3.893   0.469  1.00 15.82 LIG 0.16  HD
ATOM     32  C   ACE E   0      19.439  -2.895   2.129  1.00 20.55 LIG 0.21  C 
ATOM     33 O    ACE E   0      20.555  -2.365   2.113  1.00 32.51 LIG-0.27  OA
ATOM     34  CH3 ACE E   0      18.456  -2.633   3.234  1.00 11.71 LIG 0.12  C 
ENDBRANCH 29 30
BRANCH 29 35
ATOM     35  CB  PHE E   1      17.092  -4.127  -0.282  1.00  9.28 LIG 0.07  C 
BRANCH 35 36
ATOM     36  CG  PHE E   1      15.598  -3.979  -0.237  1.00 12.52 LIG-0.06  A 
ATOM     37  CD1 PHE E   1      15.001  -2.765  -0.541  1.00 10.90 LIG 0.01  A 
ATOM     38  CE1 PHE E   1      13.629  -2.622  -0.518  1.00 11.94 LIG 0.00  A 
ATOM     39  CZ  PHE E   1      12.835  -3.699  -0.177  1.00  8.92 LIG 0.00  A 
ATOM     40  CE2 PHE E   1      13.427  -4.926   0.124  1.00  8.81 LIG 0.00  A 
ATOM     41  CD2 PHE E   1      14.790  -5.058   0.094  1.00 12.38 LIG 0.01  A 
ENDBRANCH 35 36
ENDBRANCH 29 35
ENDBRANCH 27 29
ENDBRANCH 1 25
TORSDOF 14
ENDMDL
MODEL 7
USER: ADFR SOLUTION from run 40
USER: SCORE 13.552199 LL:  -2.832 LR: -11.132 RR:   0.000 FEB:  -6.956
USER: RMSD 4.035341
USER: SEED 39
USER: STATUS no improvement in best in 10 clusters for 5 generations
USER: GENES 16
USER: genes 0 Translation |==|  0.62664 0.57045 0.59705
USER: genes 1 Rotation |==|  0.40806 0.37404 0.65757 0.94817
USER: genes 2 Torsion [N]-CA--C-[N] |==|  0.91667
USER: genes 3 Torsion [C]-N--CA-[C] |==|  0.63565
USER: genes 4 Torsion [N]-CA--C-[N] |==|  0.43193
USER: genes 5 Torsion [C]-N--CA-[C] |==|  0.70001
USER: genes 6 Torsion [N]-CA--C-[N] |==|  0.45362
USER: genes 7 Torsion [N]-CA--CB-[CG2] |==|  0.66066
USER: genes 8 Torsion [CA]-CB--OG1-[HG1] |==|  0.11026
USER: genes 9 Torsion [C]-CA--CB-[CG] |==|  0.52483
USER: genes 10 Torsion [CA]-CB--CG-[CD2] |==|  0.52388
USER: genes 11 Torsion [C]-CA--N-[C] |==|  0.81677
USER: genes 12 Torsion [N]-C--CA-[N] |==|  0.42338
USER: genes 13 Torsion [C]-CA--N-[C] |==|  0.78874
USER: genes 14 Torsion [C]-CA--CB-[CG] |==|  0.43512
USER: genes 15 Torsion [CA]-CB--CG-[CD2] |==|  0.09111
ROOT
ATOM      1  CA  HIS E   2      17.455  -7.197   4.089  1.00 15.97 LIG 0.18  C 
ENDROOT
BRANCH 1 2
ATOM      2  C   HIS E   2      16.896  -8.599   3.921  1.00 15.29 LIG 0.24  C 
ATOM      3  N   THR E   3      15.707  -8.689   3.331  1.00 22.30 LIG-0.34  N 
ATOM      4 H    THR E   3      15.253  -8.008   3.068  1.00 22.30 LIG 0.16  HD
ATOM      5 O    HIS E   2      17.531  -9.580   4.302  1.00 12.62 LIG-0.27  OA
BRANCH 3 6
ATOM      6  CA  THR E   3      15.065  -9.971   3.078  1.00 13.35 LIG 0.20  C 
BRANCH 6 7
ATOM      7  C   THR E   3      14.572 -10.068   1.644  1.00 17.92 LIG 0.24  C 
ATOM      8  N   GLY E   4      14.439 -11.296   1.144  1.00 20.63 LIG-0.35  N 
ATOM      9 H    GLY E   4      14.711 -12.006   1.547  1.00 20.63 LIG 0.16  HD
ATOM     10 O    THR E   3      14.370  -9.051   0.983  1.00 20.63 LIG-0.27  OA
BRANCH 8 11
ATOM     11  CA  GLY E   4      13.812 -11.549  -0.143  1.00 21.12 LIG 0.23  C 
BRANCH 11 12
ATOM     12  C   GLY E   4      12.436 -12.190  -0.142  1.00 30.37 LIG 0.28  C 
ATOM     13 O    GLY E   4      12.013 -12.741   0.871  1.00 22.56 LIG-0.27  OA
ATOM     14  N   NH2 E   5      11.729 -12.110  -1.267  1.00 46.70 LIG-0.11  N 
ENDBRANCH 11 12
ENDBRANCH 8 11
ENDBRANCH 6 7
BRANCH 6 15
ATOM     15  CB  THR E   3      13.883 -10.184   4.041  1.00 21.65 LIG 0.15  C 
ATOM     16  CG2 THR E   3      14.061 -11.444   4.846  1.00 26.78 LIG 0.04  C 
BRANCH 15 17
ATOM     17 OG1  THR E   3      13.798  -9.067   4.932  1.00 29.20 LIG-0.39  OA
ATOM     18 HG1  THR E   3      13.956  -8.358   4.509  1.00 29.20 LIG 0.21  HD
ENDBRANCH 15 17
ENDBRANCH 6 15
ENDBRANCH 3 6
ENDBRANCH 1 2
BRANCH 1 19
ATOM     19  CB  HIS E   2      17.049  -6.651   5.456  1.00 16.39 LIG 0.10  C 
BRANCH 19 20
ATOM     20  CG  HIS E   2      17.365  -5.199   5.645  1.00 27.51 LIG 0.06  A 
ATOM     21  CD2 HIS E   2      17.303  -4.411   6.744  1.00 25.75 LIG 0.14  A 
ATOM     22 NE2  HIS E   2      17.706  -3.154   6.363  1.00 29.28 LIG-0.25  NA
ATOM     23  CE1 HIS E   2      18.004  -3.169   5.077  1.00 28.87 LIG 0.23  A 
ATOM     24 ND1  HIS E   2      17.810  -4.393   4.619  1.00 29.28 LIG-0.24  NA
ENDBRANCH 19 20
ENDBRANCH 1 19
BRANCH 1 25
ATOM     25  N   HIS E   2      16.998  -6.302   3.025  1.00 15.79 LIG-0.35  N 
ATOM     26 H    HIS E   2      16.484  -5.666   3.293  1.00 15.79 LIG 0.16  HD
ATOM     27  C   PHE E   1      17.359  -6.476   1.759  1.00 15.11 LIG 0.24  C 
ATOM     28 O    PHE E   1      18.085  -7.394   1.392  1.00 17.78 LIG-0.27  OA
BRANCH 27 29
ATOM     29  CA  PHE E   1      16.816  -5.466   0.754  1.00 10.43 LIG 0.18  C 
BRANCH 29 30
ATOM     30  N   PHE E   1      17.714  -5.331  -0.380  1.00 15.82 LIG-0.35  N 
ATOM     31 H    PHE E   1      17.435  -5.733  -1.087  1.00 15.82 LIG 0.16  HD
ATOM     32  C   ACE E   0      18.862  -4.652  -0.339  1.00 20.55 LIG 0.21  C 
ATOM     33 O    ACE E   0      19.578  -4.551  -1.341  1.00 32.51 LIG-0.27  OA
ATOM     34  CH3 ACE E   0      19.220  -3.988   0.959  1.00 11.71 LIG 0.12  C 
ENDBRANCH 29 30
BRANCH 29 35
ATOM     35  CB  PHE E   1      15.421  -5.890   0.292  1.00  9.28 LIG 0.07  C 
BRANCH 35 36
ATOM     36  CG  PHE E   1      14.580  -4.759  -0.231  1.00 12.52 LIG-0.06  A 
ATOM     37  CD1 PHE E   1      13.206  -4.759  -0.042  1.00 10.90 LIG 0.01  A 
ATOM     38  CE1 PHE E   1      12.426  -3.720  -0.505  1.00 11.94 LIG 0.00  A 
ATOM     39  CZ  PHE E   1      13.018  -2.666  -1.175  1.00  8.92 LIG 0.00  A 
ATOM     40  CE2 PHE E   1      14.400  -2.656  -1.363  1.00  8.81 LIG 0.00  A 
ATOM     41  CD2 PHE E   1      15.166  -3.692  -0.896  1.00 12.38 LIG 0.01  A 
ENDBRANCH 35 36
ENDBRANCH 29 35
ENDBRANCH 27 29
ENDBRANCH 1 25
TORSDOF 14
ENDMDL
MODEL 8
USER: ADFR SOLUTION from run 138
USER: SCORE 12.351025 LL:  -3.057 LR: -10.927 RR:   0.000 FEB:  -6.751
USER: RMSD 6.113051
USER: SEED 137
USER: STATUS no improvement in best in 46 clusters for 5 generations
USER: GENES 16
USER: genes 0 Translation |==|  0.53932 0.56191 0.39485
USER: genes 1 Rotation |==|  0.52138 0.92117 0.23255 0.52505
USER: genes 2 Torsion [N]-CA--C-[N] |==|  0.30556
USER: genes 3 Torsion [C]-N--CA-[C] |==|  0.53920
USER: genes 4 Torsion [N]-CA--C-[N] |==|  0.02047
USER: genes 5 Torsion [C]-N--CA-[C] |==|  0.21642
USER: genes 6 Torsion [N]-CA--C-[N] |==|  0.53823
USER: genes 7 Torsion [N]-CA--CB-[CG2] |==|  0.18235
USER: genes 8 Torsion [CA]-CB--OG1-[HG1] |==|  0.84932
USER: genes 9 Torsion [C]-CA--CB-[CG] |==|  0.19773
USER: genes 10 Torsion [CA]-CB--CG-[CD2] |==|  0.52012
USER: genes 11 Torsion [C]-CA--N-[C] |==|  0.85358
USER: genes 12 Torsion [N]-C--CA-[N] |==|  0.01771
USER: genes 13 Torsion [C]-CA--N-[C] |==|  0.67869
USER: genes 14 Torsion [C]-CA--CB-[CG] |==|  0.79857
USER: genes 15 Torsion [CA]-CB--CG-[CD2] |==|  0.14255
ROOT
ATOM      1  CA  HIS E   2      15.817  -7.376   0.753  1.00 15.97 LIG 0.18  C 
ENDROOT
BRANCH 1 2
ATOM      2  C   HIS E   2      17.072  -7.638   1.566  1.00 15.29 LIG 0.24  C 
ATOM      3  N   THR E   3      17.063  -7.189   2.819  1.00 22.30 LIG-0.34  N 
ATOM      4 H    THR E   3      16.406  -6.757   3.166  1.00 22.30 LIG 0.16  HD
ATOM      5 O    HIS E   2      18.023  -8.245   1.080  1.00 12.62 LIG-0.27  OA
BRANCH 3 6
ATOM      6  CA  THR E   3      18.187  -7.395   3.723  1.00 13.35 LIG 0.20  C 
BRANCH 6 7
ATOM      7  C   THR E   3      17.798  -7.102   5.162  1.00 17.92 LIG 0.24  C 
ATOM      8  N   GLY E   4      16.507  -6.865   5.392  1.00 20.63 LIG-0.35  N 
ATOM      9 H    GLY E   4      15.923  -6.768   4.768  1.00 20.63 LIG 0.16  HD
ATOM     10 O    THR E   3      18.657  -7.037   6.039  1.00 20.63 LIG-0.27  OA
BRANCH 8 11
ATOM     11  CA  GLY E   4      15.964  -6.748   6.735  1.00 21.12 LIG 0.23  C 
BRANCH 11 12
ATOM     12  C   GLY E   4      16.191  -5.442   7.475  1.00 30.37 LIG 0.28  C 
ATOM     13 O    GLY E   4      16.573  -4.446   6.865  1.00 22.56 LIG-0.27  OA
ATOM     14  N   NH2 E   5      15.946  -5.436   8.783  1.00 46.70 LIG-0.11  N 
ENDBRANCH 11 12
ENDBRANCH 8 11
ENDBRANCH 6 7
BRANCH 6 15
ATOM     15  CB  THR E   3      19.375  -6.504   3.321  1.00 21.65 LIG 0.15  C 
ATOM     16  CG2 THR E   3      19.043  -5.046   3.500  1.00 26.78 LIG 0.04  C 
BRANCH 15 17
ATOM     17 OG1  THR E   3      20.504  -6.830   4.140  1.00 29.20 LIG-0.39  OA
ATOM     18 HG1  THR E   3      20.288  -6.775   4.950  1.00 29.20 LIG 0.21  HD
ENDBRANCH 15 17
ENDBRANCH 6 15
ENDBRANCH 3 6
ENDBRANCH 1 2
BRANCH 1 19
ATOM     19  CB  HIS E   2      15.324  -8.687   0.148  1.00 16.39 LIG 0.10  C 
BRANCH 19 20
ATOM     20  CG  HIS E   2      14.738  -9.633   1.152  1.00 27.51 LIG 0.06  A 
ATOM     21  CD2 HIS E   2      14.323 -10.916   1.029  1.00 25.75 LIG 0.14  A 
ATOM     22 NE2  HIS E   2      13.871 -11.314   2.265  1.00 29.28 LIG-0.25  NA
ATOM     23  CE1 HIS E   2      14.003 -10.312   3.115  1.00 28.87 LIG 0.23  A 
ATOM     24 ND1  HIS E   2      14.527  -9.285   2.469  1.00 29.28 LIG-0.24  NA
ENDBRANCH 19 20
ENDBRANCH 1 19
BRANCH 1 25
ATOM     25  N   HIS E   2      16.051  -6.384  -0.297  1.00 15.79 LIG-0.35  N 
ATOM     26 H    HIS E   2      15.816  -6.639  -1.084  1.00 15.79 LIG 0.16  HD
ATOM     27  C   PHE E   1      16.584  -5.196  -0.034  1.00 15.11 LIG 0.24  C 
ATOM     28 O    PHE E   1      16.924  -4.851   1.092  1.00 17.78 LIG-0.27  OA
BRANCH 27 29
ATOM     29  CA  PHE E   1      16.766  -4.257  -1.222  1.00 10.43 LIG 0.18  C 
BRANCH 29 30
ATOM     30  N   PHE E   1      16.165  -4.818  -2.420  1.00 15.82 LIG-0.35  N 
ATOM     31 H    PHE E   1      15.311  -4.906  -2.366  1.00 15.82 LIG 0.16  HD
ATOM     32  C   ACE E   0      16.861  -5.167  -3.504  1.00 20.55 LIG 0.21  C 
ATOM     33 O    ACE E   0      16.297  -5.619  -4.505  1.00 32.51 LIG-0.27  OA
ATOM     34  CH3 ACE E   0      18.346  -4.946  -3.466  1.00 11.71 LIG 0.12  C 
ENDBRANCH 29 30
BRANCH 29 35
ATOM     35  CB  PHE E   1      16.160  -2.890  -0.903  1.00  9.28 LIG 0.07  C 
BRANCH 35 36
ATOM     36  CG  PHE E   1      14.657  -2.874  -0.890  1.00 12.52 LIG-0.06  A 
ATOM     37  CD1 PHE E   1      13.957  -1.940  -1.638  1.00 10.90 LIG 0.01  A 
ATOM     38  CE1 PHE E   1      12.578  -1.925  -1.646  1.00 11.94 LIG 0.00  A 
ATOM     39  CZ  PHE E   1      11.880  -2.848  -0.892  1.00  8.92 LIG 0.00  A 
ATOM     40  CE2 PHE E   1      12.577  -3.796  -0.142  1.00  8.81 LIG 0.00  A 
ATOM     41  CD2 PHE E   1      13.947  -3.803  -0.145  1.00 12.38 LIG 0.01  A 
ENDBRANCH 35 36
ENDBRANCH 29 35
ENDBRANCH 27 29
ENDBRANCH 1 25
TORSDOF 14
ENDMDL
MODEL 9
USER: ADFR SOLUTION from run 143
USER: SCORE 12.874968 LL:  -2.704 LR: -10.923 RR:   0.000 FEB:  -6.746
USER: RMSD 9.262319
USER: SEED 142
USER: STATUS no improvement in best in 9 clusters for 5 generations
USER: GENES 16
USER: genes 0 Translation |==|  0.42430 0.45813 0.72517
USER: genes 1 Rotation |==|  0.61037 0.48910 0.96481 0.64715
USER: genes 2 Torsion [N]-CA--C-[N] |==|  0.33375
USER: genes 3 Torsion [C]-N--CA-[C] |==|  0.68265
USER: genes 4 Torsion [N]-CA--C-[N] |==|  0.85206
USER: genes 5 Torsion [C]-N--CA-[C] |==|  0.70087
USER: genes 6 Torsion [N]-CA--C-[N] |==|  0.03889
USER: genes 7 Torsion [N]-CA--CB-[CG2] |==|  0.65582
USER: genes 8 Torsion [CA]-CB--OG1-[HG1] |==|  0.09387
USER: genes 9 Torsion [C]-CA--CB-[CG] |==|  0.48249
USER: genes 10 Torsion [CA]-CB--CG-[CD2] |==|  0.07993
USER: genes 11 Torsion [C]-CA--N-[C] |==|  0.82110
USER: genes 12 Torsion [N]-C--CA-[N] |==|  0.32672
USER: genes 13 Torsion [C]-CA--N-[C] |==|  0.75867
USER: genes 14 Torsion [C]-CA--CB-[CG] |==|  0.40864
USER: genes 15 Torsion [CA]-CB--CG-[CD2] |==|  0.57577
ROOT
ATOM      1  CA  HIS E   2      13.661  -9.555   6.203  1.00 15.97 LIG 0.18  C 
ENDROOT
BRANCH 1 2
ATOM      2  C   HIS E   2      15.006  -9.710   5.516  1.00 15.29 LIG 0.24  C 
ATOM      3  N   THR E   3      15.350  -8.737   4.676  1.00 22.30 LIG-0.34  N 
ATOM      4 H    THR E   3      14.850  -8.060   4.501  1.00 22.30 LIG 0.16  HD
ATOM      5 O    HIS E   2      15.726 -10.678   5.750  1.00 12.62 LIG-0.27  OA
BRANCH 3 6
ATOM      6  CA  THR E   3      16.624  -8.739   3.971  1.00 13.35 LIG 0.20  C 
BRANCH 6 7
ATOM      7  C   THR E   3      17.506  -7.587   4.421  1.00 17.92 LIG 0.24  C 
ATOM      8  N   GLY E   4      16.966  -6.370   4.369  1.00 20.63 LIG-0.35  N 
ATOM      9 H    GLY E   4      16.205  -6.203   4.004  1.00 20.63 LIG 0.16  HD
ATOM     10 O    THR E   3      18.672  -7.788   4.757  1.00 20.63 LIG-0.27  OA
BRANCH 8 11
ATOM     11  CA  GLY E   4      17.622  -5.202   4.932  1.00 21.12 LIG 0.23  C 
BRANCH 11 12
ATOM     12  C   GLY E   4      17.042  -4.614   6.206  1.00 30.37 LIG 0.28  C 
ATOM     13 O    GLY E   4      17.377  -3.491   6.574  1.00 22.56 LIG-0.27  OA
ATOM     14  N   NH2 E   5      16.165  -5.360   6.873  1.00 46.70 LIG-0.11  N 
ENDBRANCH 11 12
ENDBRANCH 8 11
ENDBRANCH 6 7
BRANCH 6 15
ATOM     15  CB  THR E   3      16.401  -8.650   2.450  1.00 21.65 LIG 0.15  C 
ATOM     16  CG2 THR E   3      17.061  -9.800   1.738  1.00 26.78 LIG 0.04  C 
BRANCH 15 17
ATOM     17 OG1  THR E   3      14.995  -8.676   2.181  1.00 29.20 LIG-0.39  OA
ATOM     18 HG1  THR E   3      14.584  -8.287   2.801  1.00 29.20 LIG 0.21  HD
ENDBRANCH 15 17
ENDBRANCH 6 15
ENDBRANCH 3 6
ENDBRANCH 1 2
BRANCH 1 19
ATOM     19  CB  HIS E   2      13.872  -9.443   7.711  1.00 16.39 LIG 0.10  C 
BRANCH 19 20
ATOM     20  CG  HIS E   2      12.621  -9.137   8.475  1.00 27.51 LIG 0.06  A 
ATOM     21  CD2 HIS E   2      11.325  -9.428   8.215  1.00 25.75 LIG 0.14  A 
ATOM     22 NE2  HIS E   2      10.579  -8.915   9.249  1.00 29.28 LIG-0.25  NA
ATOM     23  CE1 HIS E   2      11.388  -8.330  10.113  1.00 28.87 LIG 0.23  A 
ATOM     24 ND1  HIS E   2      12.628  -8.452   9.672  1.00 29.28 LIG-0.24  NA
ENDBRANCH 19 20
ENDBRANCH 1 19
BRANCH 1 25
ATOM     25  N   HIS E   2      12.765 -10.670   5.894  1.00 15.79 LIG-0.35  N 
ATOM     26 H    HIS E   2      12.553 -11.154   6.573  1.00 15.79 LIG 0.16  HD
ATOM     27  C   PHE E   1      12.328 -10.897   4.660  1.00 15.11 LIG 0.24  C 
ATOM     28 O    PHE E   1      12.647 -10.205   3.700  1.00 17.78 LIG-0.27  OA
BRANCH 27 29
ATOM     29  CA  PHE E   1      11.394 -12.090   4.481  1.00 10.43 LIG 0.18  C 
BRANCH 29 30
ATOM     30  N   PHE E   1      10.089 -11.658   4.010  1.00 15.82 LIG-0.35  N 
ATOM     31 H    PHE E   1      10.012 -11.676   3.153  1.00 15.82 LIG 0.16  HD
ATOM     32  C   ACE E   0       9.101 -11.270   4.817  1.00 20.55 LIG 0.21  C 
ATOM     33 O    ACE E   0       8.002 -10.933   4.363  1.00 32.51 LIG-0.27  OA
ATOM     34  CH3 ACE E   0       9.370 -11.301   6.294  1.00 11.71 LIG 0.12  C 
ENDBRANCH 29 30
BRANCH 29 35
ATOM     35  CB  PHE E   1      12.014 -13.096   3.511  1.00  9.28 LIG 0.07  C 
BRANCH 35 36
ATOM     36  CG  PHE E   1      11.675 -14.528   3.815  1.00 12.52 LIG-0.06  A 
ATOM     37  CD1 PHE E   1      10.487 -14.849   4.455  1.00 10.90 LIG 0.01  A 
ATOM     38  CE1 PHE E   1      10.158 -16.160   4.726  1.00 11.94 LIG 0.00  A 
ATOM     39  CZ  PHE E   1      11.026 -17.172   4.364  1.00  8.92 LIG 0.00  A 
ATOM     40  CE2 PHE E   1      12.220 -16.859   3.713  1.00  8.81 LIG 0.00  A 
ATOM     41  CD2 PHE E   1      12.535 -15.552   3.446  1.00 12.38 LIG 0.01  A 
ENDBRANCH 35 36
ENDBRANCH 29 35
ENDBRANCH 27 29
ENDBRANCH 1 25
TORSDOF 14
ENDMDL
MODEL 10
USER: ADFR SOLUTION from run 132
USER: SCORE 12.844330 LL:  -2.949 LR: -10.898 RR:   0.000 FEB:  -6.722
USER: RMSD 5.253098
USER: SEED 131
USER: STATUS no improvement in best in 14 clusters for 5 generations
USER: GENES 16
USER: genes 0 Translation |==|  0.53720 0.51283 0.36492
USER: genes 1 Rotation |==|  0.58343 0.92406 0.29764 0.64922
USER: genes 2 Torsion [N]-CA--C-[N] |==|  0.15293
USER: genes 3 Torsion [C]-N--CA-[C] |==|  0.80337
USER: genes 4 Torsion [N]-CA--C-[N] |==|  0.89796
USER: genes 5 Torsion [C]-N--CA-[C] |==|  0.63177
USER: genes 6 Torsion [N]-CA--C-[N] |==|  0.53439
USER: genes 7 Torsion [N]-CA--CB-[CG2] |==|  0.64301
USER: genes 8 Torsion [CA]-CB--OG1-[HG1] |==|  0.21111
USER: genes 9 Torsion [C]-CA--CB-[CG] |==|  0.22345
USER: genes 10 Torsion [CA]-CB--CG-[CD2] |==|  0.44578
USER: genes 11 Torsion [C]-CA--N-[C] |==|  0.57222
USER: genes 12 Torsion [N]-C--CA-[N] |==|  0.38649
USER: genes 13 Torsion [C]-CA--N-[C] |==|  0.78361
USER: genes 14 Torsion [C]-CA--CB-[CG] |==|  0.82305
USER: genes 15 Torsion [CA]-CB--CG-[CD2] |==|  0.22009
ROOT
ATOM      1  CA  HIS E   2      15.777  -8.407   0.259  1.00 15.97 LIG 0.18  C 
ENDROOT
BRANCH 1 2
ATOM      2  C   HIS E   2      16.436  -8.838   1.558  1.00 15.29 LIG 0.24  C 
ATOM      3  N   THR E   3      16.492  -7.921   2.519  1.00 22.30 LIG-0.34  N 
ATOM      4 H    THR E   3      16.196  -7.118   2.431  1.00 22.30 LIG 0.16  HD
ATOM      5 O    HIS E   2      16.871  -9.979   1.695  1.00 12.62 LIG-0.27  OA
BRANCH 3 6
ATOM      6  CA  THR E   3      17.068  -8.205   3.826  1.00 13.35 LIG 0.20  C 
BRANCH 6 7
ATOM      7  C   THR E   3      16.181  -9.140   4.630  1.00 17.92 LIG 0.24  C 
ATOM      8  N   GLY E   4      14.866  -8.973   4.494  1.00 20.63 LIG-0.35  N 
ATOM      9 H    GLY E   4      14.512  -8.314   4.070  1.00 20.63 LIG 0.16  HD
ATOM     10 O    THR E   3      16.675  -9.961   5.401  1.00 20.63 LIG-0.27  OA
BRANCH 8 11
ATOM     11  CA  GLY E   4      13.900  -9.902   5.057  1.00 21.12 LIG 0.23  C 
BRANCH 11 12
ATOM     12  C   GLY E   4      12.773 -10.376   4.158  1.00 30.37 LIG 0.28  C 
ATOM     13 O    GLY E   4      12.823 -10.176   2.948  1.00 22.56 LIG-0.27  OA
ATOM     14  N   NH2 E   5      11.761 -11.016   4.741  1.00 46.70 LIG-0.11  N 
ENDBRANCH 11 12
ENDBRANCH 8 11
ENDBRANCH 6 7
BRANCH 6 15
ATOM     15  CB  THR E   3      17.287  -6.902   4.616  1.00 21.65 LIG 0.15  C 
ATOM     16  CG2 THR E   3      18.697  -6.815   5.138  1.00 26.78 LIG 0.04  C 
BRANCH 15 17
ATOM     17 OG1  THR E   3      17.037  -5.785   3.756  1.00 29.20 LIG-0.39  OA
ATOM     18 HG1  THR E   3      16.208  -5.690   3.654  1.00 29.20 LIG 0.21  HD
ENDBRANCH 15 17
ENDBRANCH 6 15
ENDBRANCH 3 6
ENDBRANCH 1 2
BRANCH 1 19
ATOM     19  CB  HIS E   2      15.849  -9.550  -0.749  1.00 16.39 LIG 0.10  C 
BRANCH 19 20
ATOM     20  CG  HIS E   2      14.799 -10.599  -0.548  1.00 27.51 LIG 0.06  A 
ATOM     21  CD2 HIS E   2      14.312 -11.543  -1.388  1.00 25.75 LIG 0.14  A 
ATOM     22 NE2  HIS E   2      13.359 -12.249  -0.694  1.00 29.28 LIG-0.25  NA
ATOM     23  CE1 HIS E   2      13.263 -11.756   0.527  1.00 28.87 LIG 0.23  A 
ATOM     24 ND1  HIS E   2      14.124 -10.760   0.643  1.00 29.28 LIG-0.24  NA
ENDBRANCH 19 20
ENDBRANCH 1 19
BRANCH 1 25
ATOM     25  N   HIS E   2      16.402  -7.201  -0.288  1.00 15.79 LIG-0.35  N 
ATOM     26 H    HIS E   2      17.221  -7.090  -0.054  1.00 15.79 LIG 0.16  HD
ATOM     27  C   PHE E   1      15.738  -6.365  -1.078  1.00 15.11 LIG 0.24  C 
ATOM     28 O    PHE E   1      14.565  -6.533  -1.395  1.00 17.78 LIG-0.27  OA
BRANCH 27 29
ATOM     29  CA  PHE E   1      16.512  -5.152  -1.584  1.00 10.43 LIG 0.18  C 
BRANCH 29 30
ATOM     30  N   PHE E   1      16.205  -4.888  -2.979  1.00 15.82 LIG-0.35  N 
ATOM     31 H    PHE E   1      15.655  -4.236  -3.091  1.00 15.82 LIG 0.16  HD
ATOM     32  C   ACE E   0      16.720  -5.583  -3.995  1.00 20.55 LIG 0.21  C 
ATOM     33 O    ACE E   0      16.442  -5.301  -5.165  1.00 32.51 LIG-0.27  OA
ATOM     34  CH3 ACE E   0      17.679  -6.687  -3.655  1.00 11.71 LIG 0.12  C 
ENDBRANCH 29 30
BRANCH 29 35
ATOM     35  CB  PHE E   1      16.191  -3.933  -0.719  1.00  9.28 LIG 0.07  C 
BRANCH 35 36
ATOM     36  CG  PHE E   1      14.754  -3.499  -0.783  1.00 12.52 LIG-0.06  A 
ATOM     37  CD1 PHE E   1      14.375  -2.433  -1.586  1.00 10.90 LIG 0.01  A 
ATOM     38  CE1 PHE E   1      13.057  -2.035  -1.663  1.00 11.94 LIG 0.00  A 
ATOM     39  CZ  PHE E   1      12.097  -2.700  -0.925  1.00  8.92 LIG 0.00  A 
ATOM     40  CE2 PHE E   1      12.468  -3.777  -0.120  1.00  8.81 LIG 0.00  A 
ATOM     41  CD2 PHE E   1      13.781  -4.166  -0.054  1.00 12.38 LIG 0.01  A 
ENDBRANCH 35 36
ENDBRANCH 29 35
ENDBRANCH 27 29
ENDBRANCH 1 25
TORSDOF 14
ENDMDL
MODEL 11
USER: ADFR SOLUTION from run 127
USER: SCORE 13.670915 LL:  -3.145 LR: -10.885 RR:   0.000 FEB:  -6.709
USER: RMSD 2.303314
USER: SEED 126
USER: STATUS no improvement in best in 2 clusters for 5 generations
USER: GENES 16
USER: genes 0 Translation |==|  0.51764 0.43391 0.50446
USER: genes 1 Rotation |==|  0.51142 0.51401 0.47699 0.99914
USER: genes 2 Torsion [N]-CA--C-[N] |==|  0.41154
USER: genes 3 Torsion [C]-N--CA-[C] |==|  0.83114
USER: genes 4 Torsion [N]-CA--C-[N] |==|  0.38076
USER: genes 5 Torsion [C]-N--CA-[C] |==|  0.22394
USER: genes 6 Torsion [N]-CA--C-[N] |==|  0.54549
USER: genes 7 Torsion [N]-CA--CB-[CG2] |==|  0.39887
USER: genes 8 Torsion [CA]-CB--OG1-[HG1] |==|  0.68558
USER: genes 9 Torsion [C]-CA--CB-[CG] |==|  0.90355
USER: genes 10 Torsion [CA]-CB--CG-[CD2] |==|  0.81412
USER: genes 11 Torsion [C]-CA--N-[C] |==|  0.76673
USER: genes 12 Torsion [N]-C--CA-[N] |==|  0.28703
USER: genes 13 Torsion [C]-CA--N-[C] |==|  0.73889
USER: genes 14 Torsion [C]-CA--CB-[CG] |==|  0.46290
USER: genes 15 Torsion [CA]-CB--CG-[CD2] |==|  0.17252
ROOT
ATOM      1  CA  HIS E   2      15.411 -10.064   2.562  1.00 15.97 LIG 0.18  C 
ENDROOT
BRANCH 1 2
ATOM      2  C   HIS E   2      13.997 -10.618   2.553  1.00 15.29 LIG 0.24  C 
ATOM      3  N   THR E   3      13.873 -11.902   2.230  1.00 22.30 LIG-0.34  N 
ATOM      4 H    THR E   3      14.536 -12.407   2.018  1.00 22.30 LIG 0.16  HD
ATOM      5 O    HIS E   2      13.039  -9.905   2.846  1.00 12.62 LIG-0.27  OA
BRANCH 3 6
ATOM      6  CA  THR E   3      12.581 -12.574   2.210  1.00 13.35 LIG 0.20  C 
BRANCH 6 7
ATOM      7  C   THR E   3      11.926 -12.552   3.582  1.00 17.92 LIG 0.24  C 
ATOM      8  N   GLY E   4      10.623 -12.278   3.613  1.00 20.63 LIG-0.35  N 
ATOM      9 H    GLY E   4      10.175 -12.016   2.926  1.00 20.63 LIG 0.16  HD
ATOM     10 O    THR E   3      12.598 -12.727   4.596  1.00 20.63 LIG-0.27  OA
BRANCH 8 11
ATOM     11  CA  GLY E   4       9.830 -12.397   4.825  1.00 21.12 LIG 0.23  C 
BRANCH 11 12
ATOM     12  C   GLY E   4       9.898 -11.258   5.826  1.00 30.37 LIG 0.28  C 
ATOM     13 O    GLY E   4      10.335 -10.162   5.484  1.00 22.56 LIG-0.27  OA
ATOM     14  N   NH2 E   5       9.455 -11.505   7.057  1.00 46.70 LIG-0.11  N 
ENDBRANCH 11 12
ENDBRANCH 8 11
ENDBRANCH 6 7
BRANCH 6 15
ATOM     15  CB  THR E   3      12.735 -14.031   1.739  1.00 21.65 LIG 0.15  C 
ATOM     16  CG2 THR E   3      11.789 -14.941   2.476  1.00 26.78 LIG 0.04  C 
BRANCH 15 17
ATOM     17 OG1  THR E   3      12.455 -14.101   0.336  1.00 29.20 LIG-0.39  OA
ATOM     18 HG1  THR E   3      11.752 -14.544   0.213  1.00 29.20 LIG 0.21  HD
ENDBRANCH 15 17
ENDBRANCH 6 15
ENDBRANCH 3 6
ENDBRANCH 1 2
BRANCH 1 19
ATOM     19  CB  HIS E   2      16.021 -10.257   3.947  1.00 16.39 LIG 0.10  C 
BRANCH 19 20
ATOM     20  CG  HIS E   2      15.035 -10.122   5.066  1.00 27.51 LIG 0.06  A 
ATOM     21  CD2 HIS E   2      14.339  -9.051   5.515  1.00 25.75 LIG 0.14  A 
ATOM     22 NE2  HIS E   2      13.571  -9.481   6.571  1.00 29.28 LIG-0.25  NA
ATOM     23  CE1 HIS E   2      13.788 -10.769   6.764  1.00 28.87 LIG 0.23  A 
ATOM     24 ND1  HIS E   2      14.666 -11.182   5.867  1.00 29.28 LIG-0.24  NA
ENDBRANCH 19 20
ENDBRANCH 1 19
BRANCH 1 25
ATOM     25  N   HIS E   2      15.440  -8.651   2.182  1.00 15.79 LIG-0.35  N 
ATOM     26 H    HIS E   2      15.445  -8.106   2.847  1.00 15.79 LIG 0.16  HD
ATOM     27  C   PHE E   1      15.457  -8.267   0.911  1.00 15.11 LIG 0.24  C 
ATOM     28 O    PHE E   1      15.439  -9.056  -0.026  1.00 17.78 LIG-0.27  OA
BRANCH 27 29
ATOM     29  CA  PHE E   1      15.494  -6.763   0.659  1.00 10.43 LIG 0.18  C 
BRANCH 29 30
ATOM     30  N   PHE E   1      16.828  -6.336   0.273  1.00 15.82 LIG-0.35  N 
ATOM     31 H    PHE E   1      16.981  -6.410  -0.571  1.00 15.82 LIG 0.16  HD
ATOM     32  C   ACE E   0      17.736  -5.874   1.134  1.00 20.55 LIG 0.21  C 
ATOM     33 O    ACE E   0      18.850  -5.503   0.748  1.00 32.51 LIG-0.27  OA
ATOM     34  CH3 ACE E   0      17.330  -5.785   2.577  1.00 11.71 LIG 0.12  C 
ENDBRANCH 29 30
BRANCH 29 35
ATOM     35  CB  PHE E   1      14.474  -6.390  -0.418  1.00  9.28 LIG 0.07  C 
BRANCH 35 36
ATOM     36  CG  PHE E   1      14.203  -4.916  -0.520  1.00 12.52 LIG-0.06  A 
ATOM     37  CD1 PHE E   1      12.936  -4.414  -0.261  1.00 10.90 LIG 0.01  A 
ATOM     38  CE1 PHE E   1      12.678  -3.062  -0.336  1.00 11.94 LIG 0.00  A 
ATOM     39  CZ  PHE E   1      13.692  -2.191  -0.684  1.00  8.92 LIG 0.00  A 
ATOM     40  CE2 PHE E   1      14.971  -2.686  -0.940  1.00  8.81 LIG 0.00  A 
ATOM     41  CD2 PHE E   1      15.216  -4.032  -0.858  1.00 12.38 LIG 0.01  A 
ENDBRANCH 35 36
ENDBRANCH 29 35
ENDBRANCH 27 29
ENDBRANCH 1 25
TORSDOF 14
ENDMDL
MODEL 12
USER: ADFR SOLUTION from run 183
USER: SCORE 12.725196 LL:  -2.892 LR: -10.864 RR:   0.000 FEB:  -6.688
USER: RMSD 8.751011
USER: SEED 182
USER: STATUS no improvement in best in 18 clusters for 5 generations
USER: GENES 16
USER: genes 0 Translation |==|  0.51482 0.53392 0.40064
USER: genes 1 Rotation |==|  0.11104 0.53621 0.19511 0.56665
USER: genes 2 Torsion [N]-CA--C-[N] |==|  0.40558
USER: genes 3 Torsion [C]-N--CA-[C] |==|  0.75473
USER: genes 4 Torsion [N]-CA--C-[N] |==|  0.99877
USER: genes 5 Torsion [C]-N--CA-[C] |==|  0.74315
USER: genes 6 Torsion [N]-CA--C-[N] |==|  0.05827
USER: genes 7 Torsion [N]-CA--CB-[CG2] |==|  0.52515
USER: genes 8 Torsion [CA]-CB--OG1-[HG1] |==|  0.33032
USER: genes 9 Torsion [C]-CA--CB-[CG] |==|  0.24075
USER: genes 10 Torsion [CA]-CB--CG-[CD2] |==|  0.24320
USER: genes 11 Torsion [C]-CA--N-[C] |==|  0.63865
USER: genes 12 Torsion [N]-C--CA-[N] |==|  0.63295
USER: genes 13 Torsion [C]-CA--N-[C] |==|  0.61691
USER: genes 14 Torsion [C]-CA--CB-[CG] |==|  0.62688
USER: genes 15 Torsion [CA]-CB--CG-[CD2] |==|  0.17914
ROOT
ATOM      1  CA  HIS E   2      15.358  -7.964   0.849  1.00 15.97 LIG 0.18  C 
ENDROOT
BRANCH 1 2
ATOM      2  C   HIS E   2      14.934  -6.946  -0.196  1.00 15.29 LIG 0.24  C 
ATOM      3  N   THR E   3      14.572  -5.752   0.263  1.00 22.30 LIG-0.34  N 
ATOM      4 H    THR E   3      14.552  -5.547   1.098  1.00 22.30 LIG 0.16  HD
ATOM      5 O    HIS E   2      14.949  -7.228  -1.392  1.00 12.62 LIG-0.27  OA
BRANCH 3 6
ATOM      6  CA  THR E   3      14.171  -4.670  -0.626  1.00 13.35 LIG 0.20  C 
BRANCH 6 7
ATOM      7  C   THR E   3      15.369  -3.848  -1.071  1.00 17.92 LIG 0.24  C 
ATOM      8  N   GLY E   4      16.555  -4.221  -0.592  1.00 20.63 LIG-0.35  N 
ATOM      9 H    GLY E   4      16.655  -4.818   0.020  1.00 20.63 LIG 0.16  HD
ATOM     10 O    THR E   3      15.218  -2.862  -1.790  1.00 20.63 LIG-0.27  OA
BRANCH 8 11
ATOM     11  CA  GLY E   4      17.803  -3.646  -1.067  1.00 21.12 LIG 0.23  C 
BRANCH 11 12
ATOM     12  C   GLY E   4      18.518  -4.355  -2.203  1.00 30.37 LIG 0.28  C 
ATOM     13 O    GLY E   4      19.720  -4.176  -2.382  1.00 22.56 LIG-0.27  OA
ATOM     14  N   NH2 E   5      17.789  -5.169  -2.964  1.00 46.70 LIG-0.11  N 
ENDBRANCH 11 12
ENDBRANCH 8 11
ENDBRANCH 6 7
BRANCH 6 15
ATOM     15  CB  THR E   3      13.148  -3.751   0.066  1.00 21.65 LIG 0.15  C 
ATOM     16  CG2 THR E   3      12.562  -2.763  -0.908  1.00 26.78 LIG 0.04  C 
BRANCH 15 17
ATOM     17 OG1  THR E   3      12.094  -4.551   0.613  1.00 29.20 LIG-0.39  OA
ATOM     18 HG1  THR E   3      12.068  -4.448   1.446  1.00 29.20 LIG 0.21  HD
ENDBRANCH 15 17
ENDBRANCH 6 15
ENDBRANCH 3 6
ENDBRANCH 1 2
BRANCH 1 19
ATOM     19  CB  HIS E   2      16.866  -7.871   1.062  1.00 16.39 LIG 0.10  C 
BRANCH 19 20
ATOM     20  CG  HIS E   2      17.271  -6.848   2.077  1.00 27.51 LIG 0.06  A 
ATOM     21  CD2 HIS E   2      17.409  -6.933   3.422  1.00 25.75 LIG 0.14  A 
ATOM     22 NE2  HIS E   2      17.807  -5.695   3.867  1.00 29.28 LIG-0.25  NA
ATOM     23  CE1 HIS E   2      17.909  -4.879   2.834  1.00 28.87 LIG 0.23  A 
ATOM     24 ND1  HIS E   2      17.594  -5.550   1.740  1.00 29.28 LIG-0.24  NA
ENDBRANCH 19 20
ENDBRANCH 1 19
BRANCH 1 25
ATOM     25  N   HIS E   2      14.978  -9.323   0.464  1.00 15.79 LIG-0.35  N 
ATOM     26 H    HIS E   2      15.208  -9.543  -0.335  1.00 15.79 LIG 0.16  HD
ATOM     27  C   PHE E   1      14.331 -10.132   1.295  1.00 15.11 LIG 0.24  C 
ATOM     28 O    PHE E   1      14.000  -9.801   2.428  1.00 17.78 LIG-0.27  OA
BRANCH 27 29
ATOM     29  CA  PHE E   1      14.003 -11.525   0.766  1.00 10.43 LIG 0.18  C 
BRANCH 29 30
ATOM     30  N   PHE E   1      12.614 -11.863   1.028  1.00 15.82 LIG-0.35  N 
ATOM     31 H    PHE E   1      12.070 -11.212   0.882  1.00 15.82 LIG 0.16  HD
ATOM     32  C   ACE E   0      12.211 -13.061   1.455  1.00 20.55 LIG 0.21  C 
ATOM     33 O    ACE E   0      11.013 -13.301   1.641  1.00 32.51 LIG-0.27  OA
ATOM     34  CH3 ACE E   0      13.267 -14.108   1.656  1.00 11.71 LIG 0.12  C 
ENDBRANCH 29 30
BRANCH 29 35
ATOM     35  CB  PHE E   1      14.304 -11.598  -0.731  1.00  9.28 LIG 0.07  C 
BRANCH 35 36
ATOM     36  CG  PHE E   1      13.220 -12.250  -1.542  1.00 12.52 LIG-0.06  A 
ATOM     37  CD1 PHE E   1      13.455 -13.451  -2.195  1.00 10.90 LIG 0.01  A 
ATOM     38  CE1 PHE E   1      12.464 -14.066  -2.930  1.00 11.94 LIG 0.00  A 
ATOM     39  CZ  PHE E   1      11.218 -13.477  -3.027  1.00  8.92 LIG 0.00  A 
ATOM     40  CE2 PHE E   1      10.971 -12.272  -2.368  1.00  8.81 LIG 0.00  A 
ATOM     41  CD2 PHE E   1      11.963 -11.672  -1.637  1.00 12.38 LIG 0.01  A 
ENDBRANCH 35 36
ENDBRANCH 29 35
ENDBRANCH 27 29
ENDBRANCH 1 25
TORSDOF 14
ENDMDL
MODEL 13
USER: ADFR SOLUTION from run 80
USER: SCORE 12.841203 LL:  -3.137 LR: -10.836 RR:   0.000 FEB:  -6.659
USER: RMSD 8.154888
USER: SEED 79
USER: STATUS no improvement in best in 32 clusters for 5 generations
USER: GENES 16
USER: genes 0 Translation |==|  0.40972 0.44580 0.62270
USER: genes 1 Rotation |==|  0.45190 0.38437 0.98000 0.56259
USER: genes 2 Torsion [N]-CA--C-[N] |==|  0.24341
USER: genes 3 Torsion [C]-N--CA-[C] |==|  0.78889
USER: genes 4 Torsion [N]-CA--C-[N] |==|  0.90066
USER: genes 5 Torsion [C]-N--CA-[C] |==|  0.20669
USER: genes 6 Torsion [N]-CA--C-[N] |==|  0.57908
USER: genes 7 Torsion [N]-CA--CB-[CG2] |==|  0.91167
USER: genes 8 Torsion [CA]-CB--OG1-[HG1] |==|  0.79656
USER: genes 9 Torsion [C]-CA--CB-[CG] |==|  0.54303
USER: genes 10 Torsion [CA]-CB--CG-[CD2] |==|  0.35337
USER: genes 11 Torsion [C]-CA--N-[C] |==|  0.79979
USER: genes 12 Torsion [N]-C--CA-[N] |==|  0.11827
USER: genes 13 Torsion [C]-CA--N-[C] |==|  0.72642
USER: genes 14 Torsion [C]-CA--CB-[CG] |==|  0.58146
USER: genes 15 Torsion [CA]-CB--CG-[CD2] |==|  0.75413
ROOT
ATOM      1  CA  HIS E   2      13.387  -9.814   4.513  1.00 15.97 LIG 0.18  C 
ENDROOT
BRANCH 1 2
ATOM      2  C   HIS E   2      14.823  -9.587   4.953  1.00 15.29 LIG 0.24  C 
ATOM      3  N   THR E   3      15.520  -8.703   4.246  1.00 22.30 LIG-0.34  N 
ATOM      4 H    THR E   3      15.206  -8.284   3.563  1.00 22.30 LIG 0.16  HD
ATOM      5 O    HIS E   2      15.287 -10.186   5.921  1.00 12.62 LIG-0.27  OA
BRANCH 3 6
ATOM      6  CA  THR E   3      16.898  -8.363   4.573  1.00 13.35 LIG 0.20  C 
BRANCH 6 7
ATOM      7  C   THR E   3      16.968  -7.446   5.783  1.00 17.92 LIG 0.24  C 
ATOM      8  N   GLY E   4      15.993  -6.547   5.903  1.00 20.63 LIG-0.35  N 
ATOM      9 H    GLY E   4      15.407  -6.397   5.292  1.00 20.63 LIG 0.16  HD
ATOM     10 O    THR E   3      17.916  -7.515   6.563  1.00 20.63 LIG-0.27  OA
BRANCH 8 11
ATOM     11  CA  GLY E   4      15.831  -5.728   7.093  1.00 21.12 LIG 0.23  C 
BRANCH 11 12
ATOM     12  C   GLY E   4      16.811  -4.587   7.301  1.00 30.37 LIG 0.28  C 
ATOM     13 O    GLY E   4      17.325  -4.031   6.334  1.00 22.56 LIG-0.27  OA
ATOM     14  N   NH2 E   5      17.062  -4.226   8.558  1.00 46.70 LIG-0.11  N 
ENDBRANCH 11 12
ENDBRANCH 8 11
ENDBRANCH 6 7
BRANCH 6 15
ATOM     15  CB  THR E   3      17.588  -7.686   3.376  1.00 21.65 LIG 0.15  C 
ATOM     16  CG2 THR E   3      17.046  -8.209   2.072  1.00 26.78 LIG 0.04  C 
BRANCH 15 17
ATOM     17 OG1  THR E   3      17.363  -6.273   3.443  1.00 29.20 LIG-0.39  OA
ATOM     18 HG1  THR E   3      16.566  -6.106   3.238  1.00 29.20 LIG 0.21  HD
ENDBRANCH 15 17
ENDBRANCH 6 15
ENDBRANCH 3 6
ENDBRANCH 1 2
BRANCH 1 19
ATOM     19  CB  HIS E   2      12.540 -10.192   5.725  1.00 16.39 LIG 0.10  C 
BRANCH 19 20
ATOM     20  CG  HIS E   2      11.213 -10.789   5.371  1.00 27.51 LIG 0.06  A 
ATOM     21  CD2 HIS E   2      10.624 -11.944   5.763  1.00 25.75 LIG 0.14  A 
ATOM     22 NE2  HIS E   2       9.401 -12.006   5.139  1.00 29.28 LIG-0.25  NA
ATOM     23  CE1 HIS E   2       9.245 -10.930   4.391  1.00 28.87 LIG 0.23  A 
ATOM     24 ND1  HIS E   2      10.323 -10.176   4.515  1.00 29.28 LIG-0.24  NA
ENDBRANCH 19 20
ENDBRANCH 1 19
BRANCH 1 25
ATOM     25  N   HIS E   2      13.296 -10.849   3.482  1.00 15.79 LIG-0.35  N 
ATOM     26 H    HIS E   2      12.954 -11.590   3.753  1.00 15.79 LIG 0.16  HD
ATOM     27  C   PHE E   1      13.712 -10.638   2.238  1.00 15.11 LIG 0.24  C 
ATOM     28 O    PHE E   1      14.206  -9.579   1.869  1.00 17.78 LIG-0.27  OA
BRANCH 27 29
ATOM     29  CA  PHE E   1      13.551 -11.800   1.264  1.00 10.43 LIG 0.18  C 
BRANCH 29 30
ATOM     30  N   PHE E   1      12.259 -12.443   1.435  1.00 15.82 LIG-0.35  N 
ATOM     31 H    PHE E   1      11.617 -12.034   1.033  1.00 15.82 LIG 0.16  HD
ATOM     32  C   ACE E   0      12.074 -13.557   2.144  1.00 20.55 LIG 0.21  C 
ATOM     33 O    ACE E   0      10.955 -14.074   2.239  1.00 32.51 LIG-0.27  OA
ATOM     34  CH3 ACE E   0      13.285 -14.173   2.782  1.00 11.71 LIG 0.12  C 
ENDBRANCH 29 30
BRANCH 29 35
ATOM     35  CB  PHE E   1      13.723 -11.304  -0.172  1.00  9.28 LIG 0.07  C 
BRANCH 35 36
ATOM     36  CG  PHE E   1      12.948 -12.095  -1.189  1.00 12.52 LIG-0.06  A 
ATOM     37  CD1 PHE E   1      11.669 -11.705  -1.558  1.00 10.90 LIG 0.01  A 
ATOM     38  CE1 PHE E   1      10.955 -12.415  -2.500  1.00 11.94 LIG 0.00  A 
ATOM     39  CZ  PHE E   1      11.515 -13.536  -3.082  1.00  8.92 LIG 0.00  A 
ATOM     40  CE2 PHE E   1      12.803 -13.931  -2.721  1.00  8.81 LIG 0.00  A 
ATOM     41  CD2 PHE E   1      13.505 -13.216  -1.786  1.00 12.38 LIG 0.01  A 
ENDBRANCH 35 36
ENDBRANCH 29 35
ENDBRANCH 27 29
ENDBRANCH 1 25
TORSDOF 14
ENDMDL
MODEL 14
USER: ADFR SOLUTION from run 176
USER: SCORE 13.257661 LL:  -3.167 LR: -10.832 RR:   0.000 FEB:  -6.656
USER: RMSD 8.230459
USER: SEED 175
USER: STATUS no improvement in best in 19 clusters for 5 generations
USER: GENES 16
USER: genes 0 Translation |==|  0.43179 0.45448 0.72873
USER: genes 1 Rotation |==|  0.60200 0.49422 0.97146 0.63148
USER: genes 2 Torsion [N]-CA--C-[N] |==|  0.30556
USER: genes 3 Torsion [C]-N--CA-[C] |==|  0.72063
USER: genes 4 Torsion [N]-CA--C-[N] |==|  0.84696
USER: genes 5 Torsion [C]-N--CA-[C] |==|  0.70860
USER: genes 6 Torsion [N]-CA--C-[N] |==|  0.02200
USER: genes 7 Torsion [N]-CA--CB-[CG2] |==|  0.65988
USER: genes 8 Torsion [CA]-CB--OG1-[HG1] |==|  0.12667
USER: genes 9 Torsion [C]-CA--CB-[CG] |==|  0.47356
USER: genes 10 Torsion [CA]-CB--CG-[CD2] |==|  0.09368
USER: genes 11 Torsion [C]-CA--N-[C] |==|  0.78519
USER: genes 12 Torsion [N]-C--CA-[N] |==|  0.36925
USER: genes 13 Torsion [C]-CA--N-[C] |==|  0.77619
USER: genes 14 Torsion [C]-CA--CB-[CG] |==|  0.83266
USER: genes 15 Torsion [CA]-CB--CG-[CD2] |==|  0.24246
ROOT
ATOM      1  CA  HIS E   2      13.801  -9.632   6.262  1.00 15.97 LIG 0.18  C 
ENDROOT
BRANCH 1 2
ATOM      2  C   HIS E   2      15.176  -9.702   5.621  1.00 15.29 LIG 0.24  C 
ATOM      3  N   THR E   3      15.402  -8.848   4.626  1.00 22.30 LIG-0.34  N 
ATOM      4 H    THR E   3      14.816  -8.292   4.332  1.00 22.30 LIG 0.16  HD
ATOM      5 O    HIS E   2      16.020 -10.498   6.025  1.00 12.62 LIG-0.27  OA
BRANCH 3 6
ATOM      6  CA  THR E   3      16.685  -8.783   3.940  1.00 13.35 LIG 0.20  C 
BRANCH 6 7
ATOM      7  C   THR E   3      17.522  -7.618   4.443  1.00 17.92 LIG 0.24  C 
ATOM      8  N   GLY E   4      16.956  -6.414   4.390  1.00 20.63 LIG-0.35  N 
ATOM      9 H    GLY E   4      16.205  -6.258   3.999  1.00 20.63 LIG 0.16  HD
ATOM     10 O    THR E   3      18.678  -7.799   4.820  1.00 20.63 LIG-0.27  OA
BRANCH 8 11
ATOM     11  CA  GLY E   4      17.562  -5.241   4.997  1.00 21.12 LIG 0.23  C 
BRANCH 11 12
ATOM     12  C   GLY E   4      16.960  -4.727   6.292  1.00 30.37 LIG 0.28  C 
ATOM     13 O    GLY E   4      17.330  -3.654   6.761  1.00 22.56 LIG-0.27  OA
ATOM     14  N   NH2 E   5      16.023  -5.479   6.866  1.00 46.70 LIG-0.11  N 
ENDBRANCH 11 12
ENDBRANCH 8 11
ENDBRANCH 6 7
BRANCH 6 15
ATOM     15  CB  THR E   3      16.480  -8.647   2.420  1.00 21.65 LIG 0.15  C 
ATOM     16  CG2 THR E   3      17.158  -9.769   1.680  1.00 26.78 LIG 0.04  C 
BRANCH 15 17
ATOM     17 OG1  THR E   3      15.077  -8.676   2.133  1.00 29.20 LIG-0.39  OA
ATOM     18 HG1  THR E   3      14.671  -8.174   2.670  1.00 29.20 LIG 0.21  HD
ENDBRANCH 15 17
ENDBRANCH 6 15
ENDBRANCH 3 6
ENDBRANCH 1 2
BRANCH 1 19
ATOM     19  CB  HIS E   2      13.955  -9.483   7.773  1.00 16.39 LIG 0.10  C 
BRANCH 19 20
ATOM     20  CG  HIS E   2      12.672  -9.179   8.484  1.00 27.51 LIG 0.06  A 
ATOM     21  CD2 HIS E   2      11.400  -9.568   8.231  1.00 25.75 LIG 0.14  A 
ATOM     22 NE2  HIS E   2      10.604  -9.003   9.198  1.00 29.28 LIG-0.25  NA
ATOM     23  CE1 HIS E   2      11.359  -8.293  10.016  1.00 28.87 LIG 0.23  A 
ATOM     24 ND1  HIS E   2      12.613  -8.385   9.609  1.00 29.28 LIG-0.24  NA
ENDBRANCH 19 20
ENDBRANCH 1 19
BRANCH 1 25
ATOM     25  N   HIS E   2      12.996 -10.811   5.943  1.00 15.79 LIG-0.35  N 
ATOM     26 H    HIS E   2      12.943 -11.387   6.580  1.00 15.79 LIG 0.16  HD
ATOM     27  C   PHE E   1      12.406 -10.959   4.762  1.00 15.11 LIG 0.24  C 
ATOM     28 O    PHE E   1      12.499 -10.134   3.861  1.00 17.78 LIG-0.27  OA
BRANCH 27 29
ATOM     29  CA  PHE E   1      11.591 -12.234   4.567  1.00 10.43 LIG 0.18  C 
BRANCH 29 30
ATOM     30  N   PHE E   1      10.293 -11.933   3.988  1.00 15.82 LIG-0.35  N 
ATOM     31 H    PHE E   1      10.256 -12.070   3.139  1.00 15.82 LIG 0.16  HD
ATOM     32  C   ACE E   0       9.252 -11.488   4.694  1.00 20.55 LIG 0.21  C 
ATOM     33 O    ACE E   0       8.163 -11.269   4.154  1.00 32.51 LIG-0.27  OA
ATOM     34  CH3 ACE E   0       9.452 -11.306   6.171  1.00 11.71 LIG 0.12  C 
ENDBRANCH 29 30
BRANCH 29 35
ATOM     35  CB  PHE E   1      12.363 -13.215   3.685  1.00  9.28 LIG 0.07  C 
BRANCH 35 36
ATOM     36  CG  PHE E   1      12.676 -12.688   2.313  1.00 12.52 LIG-0.06  A 
ATOM     37  CD1 PHE E   1      11.810 -12.921   1.254  1.00 10.90 LIG 0.01  A 
ATOM     38  CE1 PHE E   1      12.080 -12.430  -0.006  1.00 11.94 LIG 0.00  A 
ATOM     39  CZ  PHE E   1      13.233 -11.702  -0.224  1.00  8.92 LIG 0.00  A 
ATOM     40  CE2 PHE E   1      14.107 -11.457   0.837  1.00  8.81 LIG 0.00  A 
ATOM     41  CD2 PHE E   1      13.826 -11.947   2.086  1.00 12.38 LIG 0.01  A 
ENDBRANCH 35 36
ENDBRANCH 29 35
ENDBRANCH 27 29
ENDBRANCH 1 25
TORSDOF 14
ENDMDL
MODEL 15
USER: ADFR SOLUTION from run 112
USER: SCORE 13.928734 LL:  -3.626 LR: -10.815 RR:   0.000 FEB:  -6.639
USER: RMSD 5.050994
USER: SEED 111
USER: STATUS no improvement in best in 2 clusters for 5 generations
USER: GENES 16
USER: genes 0 Translation |==|  0.62618 0.55985 0.59013
USER: genes 1 Rotation |==|  0.46543 0.29548 0.62452 0.93758
USER: genes 2 Torsion [N]-CA--C-[N] |==|  0.89114
USER: genes 3 Torsion [C]-N--CA-[C] |==|  0.65715
USER: genes 4 Torsion [N]-CA--C-[N] |==|  0.98348
USER: genes 5 Torsion [C]-N--CA-[C] |==|  0.74004
USER: genes 6 Torsion [N]-CA--C-[N] |==|  0.50569
USER: genes 7 Torsion [N]-CA--CB-[CG2] |==|  0.65599
USER: genes 8 Torsion [CA]-CB--OG1-[HG1] |==|  0.07945
USER: genes 9 Torsion [C]-CA--CB-[CG] |==|  0.53450
USER: genes 10 Torsion [CA]-CB--CG-[CD2] |==|  0.43078
USER: genes 11 Torsion [C]-CA--N-[C] |==|  0.80332
USER: genes 12 Torsion [N]-C--CA-[N] |==|  0.35252
USER: genes 13 Torsion [C]-CA--N-[C] |==|  0.77222
USER: genes 14 Torsion [C]-CA--CB-[CG] |==|  0.34920
USER: genes 15 Torsion [CA]-CB--CG-[CD2] |==|  0.75892
ROOT
ATOM      1  CA  HIS E   2      17.446  -7.419   3.975  1.00 15.97 LIG 0.18  C 
ENDROOT
BRANCH 1 2
ATOM      2  C   HIS E   2      17.015  -8.673   3.236  1.00 15.29 LIG 0.24  C 
ATOM      3  N   THR E   3      15.893  -8.579   2.527  1.00 22.30 LIG-0.34  N 
ATOM      4 H    THR E   3      15.412  -7.868   2.487  1.00 22.30 LIG 0.16  HD
ATOM      5 O    HIS E   2      17.688  -9.700   3.291  1.00 12.62 LIG-0.27  OA
BRANCH 3 6
ATOM      6  CA  THR E   3      15.377  -9.694   1.744  1.00 13.35 LIG 0.20  C 
BRANCH 6 7
ATOM      7  C   THR E   3      15.200  -9.308   0.285  1.00 17.92 LIG 0.24  C 
ATOM      8  N   GLY E   4      15.412  -8.029  -0.021  1.00 20.63 LIG-0.35  N 
ATOM      9 H    GLY E   4      15.536  -7.414   0.567  1.00 20.63 LIG 0.16  HD
ATOM     10 O    THR E   3      14.824 -10.140  -0.539  1.00 20.63 LIG-0.27  OA
BRANCH 8 11
ATOM     11  CA  GLY E   4      15.455  -7.553  -1.394  1.00 21.12 LIG 0.23  C 
BRANCH 11 12
ATOM     12  C   GLY E   4      16.812  -7.473  -2.069  1.00 30.37 LIG 0.28  C 
ATOM     13 O    GLY E   4      17.819  -7.851  -1.477  1.00 22.56 LIG-0.27  OA
ATOM     14  N   NH2 E   5      16.844  -6.997  -3.312  1.00 46.70 LIG-0.11  N 
ENDBRANCH 11 12
ENDBRANCH 8 11
ENDBRANCH 6 7
BRANCH 6 15
ATOM     15  CB  THR E   3      14.031 -10.177   2.313  1.00 21.65 LIG 0.15  C 
ATOM     16  CG2 THR E   3      14.082 -11.644   2.650  1.00 26.78 LIG 0.04  C 
BRANCH 15 17
ATOM     17 OG1  THR E   3      13.729  -9.434   3.499  1.00 29.20 LIG-0.39  OA
ATOM     18 HG1  THR E   3      14.082  -8.673   3.450  1.00 29.20 LIG 0.21  HD
ENDBRANCH 15 17
ENDBRANCH 6 15
ENDBRANCH 3 6
ENDBRANCH 1 2
BRANCH 1 19
ATOM     19  CB  HIS E   2      16.701  -7.335   5.304  1.00 16.39 LIG 0.10  C 
BRANCH 19 20
ATOM     20  CG  HIS E   2      16.821  -6.004   5.982  1.00 27.51 LIG 0.06  A 
ATOM     21  CD2 HIS E   2      16.014  -5.384   6.874  1.00 25.75 LIG 0.14  A 
ATOM     22 NE2  HIS E   2      16.598  -4.176   7.175  1.00 29.28 LIG-0.25  NA
ATOM     23  CE1 HIS E   2      17.721  -4.059   6.491  1.00 28.87 LIG 0.23  A 
ATOM     24 ND1  HIS E   2      17.882  -5.151   5.765  1.00 29.28 LIG-0.24  NA
ENDBRANCH 19 20
ENDBRANCH 1 19
BRANCH 1 25
ATOM     25  N   HIS E   2      17.210  -6.214   3.179  1.00 15.79 LIG-0.35  N 
ATOM     26 H    HIS E   2      16.571  -5.718   3.469  1.00 15.79 LIG 0.16  HD
ATOM     27  C   PHE E   1      17.935  -5.933   2.102  1.00 15.11 LIG 0.24  C 
ATOM     28 O    PHE E   1      18.837  -6.656   1.695  1.00 17.78 LIG-0.27  OA
BRANCH 27 29
ATOM     29  CA  PHE E   1      17.586  -4.641   1.370  1.00 10.43 LIG 0.18  C 
BRANCH 29 30
ATOM     30  N   PHE E   1      18.766  -3.810   1.198  1.00 15.82 LIG-0.35  N 
ATOM     31 H    PHE E   1      19.128  -3.887   0.421  1.00 15.82 LIG 0.16  HD
ATOM     32  C   ACE E   0      19.248  -3.003   2.144  1.00 20.55 LIG 0.21  C 
ATOM     33 O    ACE E   0      20.244  -2.301   1.936  1.00 32.51 LIG-0.27  OA
ATOM     34  CH3 ACE E   0      18.507  -2.956   3.449  1.00 11.71 LIG 0.12  C 
ENDBRANCH 29 30
BRANCH 29 35
ATOM     35  CB  PHE E   1      16.950  -4.964   0.018  1.00  9.28 LIG 0.07  C 
BRANCH 35 36
ATOM     36  CG  PHE E   1      15.613  -4.313  -0.200  1.00 12.52 LIG-0.06  A 
ATOM     37  CD1 PHE E   1      15.522  -3.096  -0.858  1.00 10.90 LIG 0.01  A 
ATOM     38  CE1 PHE E   1      14.300  -2.496  -1.077  1.00 11.94 LIG 0.00  A 
ATOM     39  CZ  PHE E   1      13.146  -3.110  -0.627  1.00  8.92 LIG 0.00  A 
ATOM     40  CE2 PHE E   1      13.228  -4.338   0.030  1.00  8.81 LIG 0.00  A 
ATOM     41  CD2 PHE E   1      14.449  -4.926   0.238  1.00 12.38 LIG 0.01  A 
ENDBRANCH 35 36
ENDBRANCH 29 35
ENDBRANCH 27 29
ENDBRANCH 1 25
TORSDOF 14
ENDMDL
MODEL 16
USER: ADFR SOLUTION from run 173
USER: SCORE 13.156437 LL:  -3.193 LR: -10.745 RR:   0.000 FEB:  -6.569
USER: RMSD 8.801559
USER: SEED 172
USER: STATUS no improvement in best in 10 clusters for 5 generations
USER: GENES 16
USER: genes 0 Translation |==|  0.51755 0.53931 0.40217
USER: genes 1 Rotation |==|  0.08634 0.56248 0.22635 0.50988
USER: genes 2 Torsion [N]-CA--C-[N] |==|  0.34649
USER: genes 3 Torsion [C]-N--CA-[C] |==|  0.76457
USER: genes 4 Torsion [N]-CA--C-[N] |==|  0.00897
USER: genes 5 Torsion [C]-N--CA-[C] |==|  0.71804
USER: genes 6 Torsion [N]-CA--C-[N] |==|  0.06106
USER: genes 7 Torsion [N]-CA--CB-[CG2] |==|  0.54063
USER: genes 8 Torsion [CA]-CB--OG1-[HG1] |==|  0.33142
USER: genes 9 Torsion [C]-CA--CB-[CG] |==|  0.18516
USER: genes 10 Torsion [CA]-CB--CG-[CD2] |==|  0.09357
USER: genes 11 Torsion [C]-CA--N-[C] |==|  0.61148
USER: genes 12 Torsion [N]-C--CA-[N] |==|  0.11041
USER: genes 13 Torsion [C]-CA--N-[C] |==|  0.62405
USER: genes 14 Torsion [C]-CA--CB-[CG] |==|  0.26976
USER: genes 15 Torsion [CA]-CB--CG-[CD2] |==|  0.31994
ROOT
ATOM      1  CA  HIS E   2      15.409  -7.851   0.874  1.00 15.97 LIG 0.18  C 
ENDROOT
BRANCH 1 2
ATOM      2  C   HIS E   2      14.982  -6.874  -0.208  1.00 15.29 LIG 0.24  C 
ATOM      3  N   THR E   3      14.520  -5.699   0.213  1.00 22.30 LIG-0.34  N 
ATOM      4 H    THR E   3      14.441  -5.487   1.043  1.00 22.30 LIG 0.16  HD
ATOM      5 O    HIS E   2      15.080  -7.168  -1.397  1.00 12.62 LIG-0.27  OA
BRANCH 3 6
ATOM      6  CA  THR E   3      14.103  -4.656  -0.713  1.00 13.35 LIG 0.20  C 
BRANCH 6 7
ATOM      7  C   THR E   3      15.285  -3.819  -1.172  1.00 17.92 LIG 0.24  C 
ATOM      8  N   GLY E   4      16.485  -4.194  -0.730  1.00 20.63 LIG-0.35  N 
ATOM      9 H    GLY E   4      16.602  -4.802  -0.132  1.00 20.63 LIG 0.16  HD
ATOM     10 O    THR E   3      15.111  -2.820  -1.867  1.00 20.63 LIG-0.27  OA
BRANCH 8 11
ATOM     11  CA  GLY E   4      17.717  -3.603  -1.224  1.00 21.12 LIG 0.23  C 
BRANCH 11 12
ATOM     12  C   GLY E   4      18.517  -4.392  -2.244  1.00 30.37 LIG 0.28  C 
ATOM     13 O    GLY E   4      19.718  -4.176  -2.387  1.00 22.56 LIG-0.27  OA
ATOM     14  N   NH2 E   5      17.863  -5.315  -2.945  1.00 46.70 LIG-0.11  N 
ENDBRANCH 11 12
ENDBRANCH 8 11
ENDBRANCH 6 7
BRANCH 6 15
ATOM     15  CB  THR E   3      13.051  -3.741  -0.060  1.00 21.65 LIG 0.15  C 
ATOM     16  CG2 THR E   3      12.355  -2.893  -1.092  1.00 26.78 LIG 0.04  C 
BRANCH 15 17
ATOM     17 OG1  THR E   3      12.080  -4.550   0.613  1.00 29.20 LIG-0.39  OA
ATOM     18 HG1  THR E   3      12.080  -4.364   1.432  1.00 29.20 LIG 0.21  HD
ENDBRANCH 15 17
ENDBRANCH 6 15
ENDBRANCH 3 6
ENDBRANCH 1 2
BRANCH 1 19
ATOM     19  CB  HIS E   2      16.921  -8.049   0.807  1.00 16.39 LIG 0.10  C 
BRANCH 19 20
ATOM     20  CG  HIS E   2      17.708  -6.826   1.163  1.00 27.51 LIG 0.06  A 
ATOM     21  CD2 HIS E   2      17.456  -5.832   2.047  1.00 25.75 LIG 0.14  A 
ATOM     22 NE2  HIS E   2      18.511  -4.953   1.978  1.00 29.28 LIG-0.25  NA
ATOM     23  CE1 HIS E   2      19.378  -5.391   1.084  1.00 28.87 LIG 0.23  A 
ATOM     24 ND1  HIS E   2      18.919  -6.523   0.579  1.00 29.28 LIG-0.24  NA
ENDBRANCH 19 20
ENDBRANCH 1 19
BRANCH 1 25
ATOM     25  N   HIS E   2      14.718  -9.134   0.747  1.00 15.79 LIG-0.35  N 
ATOM     26 H    HIS E   2      14.626  -9.408  -0.063  1.00 15.79 LIG 0.16  HD
ATOM     27  C   PHE E   1      14.277  -9.801   1.807  1.00 15.11 LIG 0.24  C 
ATOM     28 O    PHE E   1      14.406  -9.392   2.955  1.00 17.78 LIG-0.27  OA
BRANCH 27 29
ATOM     29  CA  PHE E   1      13.580 -11.129   1.530  1.00 10.43 LIG 0.18  C 
BRANCH 29 30
ATOM     30  N   PHE E   1      14.257 -11.856   0.469  1.00 15.82 LIG-0.35  N 
ATOM     31 H    PHE E   1      15.113 -11.859   0.549  1.00 15.82 LIG 0.16  HD
ATOM     32  C   ACE E   0      13.621 -12.463  -0.535  1.00 20.55 LIG 0.21  C 
ATOM     33 O    ACE E   0      14.245 -13.086  -1.399  1.00 32.51 LIG-0.27  OA
ATOM     34  CH3 ACE E   0      12.122 -12.388  -0.542  1.00 11.71 LIG 0.12  C 
ENDBRANCH 29 30
BRANCH 29 35
ATOM     35  CB  PHE E   1      13.525 -11.965   2.809  1.00  9.28 LIG 0.07  C 
BRANCH 35 36
ATOM     36  CG  PHE E   1      12.224 -11.860   3.553  1.00 12.52 LIG-0.06  A 
ATOM     37  CD1 PHE E   1      11.821 -10.651   4.099  1.00 10.90 LIG 0.01  A 
ATOM     38  CE1 PHE E   1      10.622 -10.539   4.771  1.00 11.94 LIG 0.00  A 
ATOM     39  CZ  PHE E   1       9.812 -11.649   4.914  1.00  8.92 LIG 0.00  A 
ATOM     40  CE2 PHE E   1      10.207 -12.868   4.363  1.00  8.81 LIG 0.00  A 
ATOM     41  CD2 PHE E   1      11.399 -12.966   3.693  1.00 12.38 LIG 0.01  A 
ENDBRANCH 35 36
ENDBRANCH 29 35
ENDBRANCH 27 29
ENDBRANCH 1 25
TORSDOF 14
ENDMDL
MODEL 17
USER: ADFR SOLUTION from run 177
USER: SCORE 12.022861 LL:  -3.093 LR: -10.533 RR:   0.000 FEB:  -6.357
USER: RMSD 5.656901
USER: SEED 176
USER: STATUS no improvement in best in 8 clusters for 5 generations
USER: GENES 16
USER: genes 0 Translation |==|  0.66141 0.60786 0.52240
USER: genes 1 Rotation |==|  0.30821 0.68792 0.65165 0.89358
USER: genes 2 Torsion [N]-CA--C-[N] |==|  0.92129
USER: genes 3 Torsion [C]-N--CA-[C] |==|  0.72513
USER: genes 4 Torsion [N]-CA--C-[N] |==|  0.99773
USER: genes 5 Torsion [C]-N--CA-[C] |==|  0.52210
USER: genes 6 Torsion [N]-CA--C-[N] |==|  0.48737
USER: genes 7 Torsion [N]-CA--CB-[CG2] |==|  0.70261
USER: genes 8 Torsion [CA]-CB--OG1-[HG1] |==|  0.10026
USER: genes 9 Torsion [C]-CA--CB-[CG] |==|  0.88306
USER: genes 10 Torsion [CA]-CB--CG-[CD2] |==|  0.75255
USER: genes 11 Torsion [C]-CA--N-[C] |==|  0.56860
USER: genes 12 Torsion [N]-C--CA-[N] |==|  0.29020
USER: genes 13 Torsion [C]-CA--N-[C] |==|  0.56138
USER: genes 14 Torsion [C]-CA--CB-[CG] |==|  0.82256
USER: genes 15 Torsion [CA]-CB--CG-[CD2] |==|  0.36245
ROOT
ATOM      1  CA  HIS E   2      18.106  -6.411   2.858  1.00 15.97 LIG 0.18  C 
ENDROOT
BRANCH 1 2
ATOM      2  C   HIS E   2      17.886  -7.072   4.207  1.00 15.29 LIG 0.24  C 
ATOM      3  N   THR E   3      16.770  -6.736   4.848  1.00 22.30 LIG-0.34  N 
ATOM      4 H    THR E   3      16.199  -6.168   4.547  1.00 22.30 LIG 0.16  HD
ATOM      5 O    HIS E   2      18.698  -7.879   4.654  1.00 12.62 LIG-0.27  OA
BRANCH 3 6
ATOM      6  CA  THR E   3      16.414  -7.314   6.137  1.00 13.35 LIG 0.20  C 
BRANCH 6 7
ATOM      7  C   THR E   3      15.411  -8.444   5.977  1.00 17.92 LIG 0.24  C 
ATOM      8  N   GLY E   4      15.011  -8.712   4.735  1.00 20.63 LIG-0.35  N 
ATOM      9 H    GLY E   4      15.208  -8.221   4.056  1.00 20.63 LIG 0.16  HD
ATOM     10 O    THR E   3      14.964  -9.026   6.964  1.00 20.63 LIG-0.27  OA
BRANCH 8 11
ATOM     11  CA  GLY E   4      14.198  -9.872   4.411  1.00 21.12 LIG 0.23  C 
BRANCH 11 12
ATOM     12  C   GLY E   4      13.959 -10.177   2.944  1.00 30.37 LIG 0.28  C 
ATOM     13 O    GLY E   4      14.384  -9.417   2.078  1.00 22.56 LIG-0.27  OA
ATOM     14  N   NH2 E   5      13.292 -11.293   2.657  1.00 46.70 LIG-0.11  N 
ENDBRANCH 11 12
ENDBRANCH 8 11
ENDBRANCH 6 7
BRANCH 6 15
ATOM     15  CB  THR E   3      15.830  -6.238   7.070  1.00 21.65 LIG 0.15  C 
ATOM     16  CG2 THR E   3      16.809  -5.874   8.155  1.00 26.78 LIG 0.04  C 
BRANCH 15 17
ATOM     17 OG1  THR E   3      15.524  -5.069   6.303  1.00 29.20 LIG-0.39  OA
ATOM     18 HG1  THR E   3      15.244  -5.297   5.544  1.00 29.20 LIG 0.21  HD
ENDBRANCH 15 17
ENDBRANCH 6 15
ENDBRANCH 3 6
ENDBRANCH 1 2
BRANCH 1 19
ATOM     19  CB  HIS E   2      18.966  -5.163   3.040  1.00 16.39 LIG 0.10  C 
BRANCH 19 20
ATOM     20  CG  HIS E   2      18.593  -4.342   4.236  1.00 27.51 LIG 0.06  A 
ATOM     21  CD2 HIS E   2      17.705  -3.330   4.379  1.00 25.75 LIG 0.14  A 
ATOM     22 NE2  HIS E   2      17.756  -2.930   5.693  1.00 29.28 LIG-0.25  NA
ATOM     23  CE1 HIS E   2      18.643  -3.669   6.333  1.00 28.87 LIG 0.23  A 
ATOM     24 ND1  HIS E   2      19.161  -4.532   5.478  1.00 29.28 LIG-0.24  NA
ENDBRANCH 19 20
ENDBRANCH 1 19
BRANCH 1 25
ATOM     25  N   HIS E   2      16.840  -6.069   2.210  1.00 15.79 LIG-0.35  N 
ATOM     26 H    HIS E   2      16.182  -5.961   2.753  1.00 15.79 LIG 0.16  HD
ATOM     27  C   PHE E   1      16.738  -5.944   0.891  1.00 15.11 LIG 0.24  C 
ATOM     28 O    PHE E   1      17.683  -6.112   0.129  1.00 17.78 LIG-0.27  OA
BRANCH 27 29
ATOM     29  CA  PHE E   1      15.360  -5.578   0.350  1.00 10.43 LIG 0.18  C 
BRANCH 29 30
ATOM     30  N   PHE E   1      15.316  -4.181  -0.051  1.00 15.82 LIG-0.35  N 
ATOM     31 H    PHE E   1      16.092  -3.849  -0.218  1.00 15.82 LIG 0.16  HD
ATOM     32  C   ACE E   0      14.189  -3.475  -0.153  1.00 20.55 LIG 0.21  C 
ATOM     33 O    ACE E   0      14.208  -2.295  -0.520  1.00 32.51 LIG-0.27  OA
ATOM     34  CH3 ACE E   0      12.904  -4.186   0.156  1.00 11.71 LIG 0.12  C 
ENDBRANCH 29 30
BRANCH 29 35
ATOM     35  CB  PHE E   1      15.003  -6.489  -0.825  1.00  9.28 LIG 0.07  C 
BRANCH 35 36
ATOM     36  CG  PHE E   1      15.908  -6.337  -2.014  1.00 12.52 LIG-0.06  A 
ATOM     37  CD1 PHE E   1      16.205  -5.079  -2.516  1.00 10.90 LIG 0.01  A 
ATOM     38  CE1 PHE E   1      17.046  -4.926  -3.598  1.00 11.94 LIG 0.00  A 
ATOM     39  CZ  PHE E   1      17.597  -6.041  -4.200  1.00  8.92 LIG 0.00  A 
ATOM     40  CE2 PHE E   1      17.309  -7.310  -3.697  1.00  8.81 LIG 0.00  A 
ATOM     41  CD2 PHE E   1      16.474  -7.450  -2.618  1.00 12.38 LIG 0.01  A 
ENDBRANCH 35 36
ENDBRANCH 29 35
ENDBRANCH 27 29
ENDBRANCH 1 25
TORSDOF 14
ENDMDL
MODEL 18
USER: ADFR SOLUTION from run 119
USER: SCORE 12.597655 LL:  -3.279 LR: -10.489 RR:   0.000 FEB:  -6.313
USER: RMSD 4.589661
USER: SEED 118
USER: STATUS searching
USER: GENES 16
USER: genes 0 Translation |==|  0.50000 0.47800 0.34010
USER: genes 1 Rotation |==|  0.61742 0.87845 0.31411 0.74174
USER: genes 2 Torsion [N]-CA--C-[N] |==|  0.45474
USER: genes 3 Torsion [C]-N--CA-[C] |==|  0.56674
USER: genes 4 Torsion [N]-CA--C-[N] |==|  0.87758
USER: genes 5 Torsion [C]-N--CA-[C] |==|  0.19540
USER: genes 6 Torsion [N]-CA--C-[N] |==|  0.09366
USER: genes 7 Torsion [N]-CA--CB-[CG2] |==|  0.44963
USER: genes 8 Torsion [CA]-CB--OG1-[HG1] |==|  0.10874
USER: genes 9 Torsion [C]-CA--CB-[CG] |==|  0.20761
USER: genes 10 Torsion [CA]-CB--CG-[CD2] |==|  0.55216
USER: genes 11 Torsion [C]-CA--N-[C] |==|  0.56511
USER: genes 12 Torsion [N]-C--CA-[N] |==|  0.47101
USER: genes 13 Torsion [C]-CA--N-[C] |==|  0.79341
USER: genes 14 Torsion [C]-CA--CB-[CG] |==|  0.80195
USER: genes 15 Torsion [CA]-CB--CG-[CD2] |==|  0.73707
ROOT
ATOM      1  CA  HIS E   2      15.080  -9.138  -0.150  1.00 15.97 LIG 0.18  C 
ENDROOT
BRANCH 1 2
ATOM      2  C   HIS E   2      15.131  -9.506   1.322  1.00 15.29 LIG 0.24  C 
ATOM      3  N   THR E   3      14.207 -10.365   1.744  1.00 22.30 LIG-0.34  N 
ATOM      4 H    THR E   3      13.595 -10.693   1.238  1.00 22.30 LIG 0.16  HD
ATOM      5 O    HIS E   2      15.995  -9.036   2.059  1.00 12.62 LIG-0.27  OA
BRANCH 3 6
ATOM      6  CA  THR E   3      14.155 -10.829   3.124  1.00 13.35 LIG 0.20  C 
BRANCH 6 7
ATOM      7  C   THR E   3      13.452 -12.172   3.228  1.00 17.92 LIG 0.24  C 
ATOM      8  N   GLY E   4      12.329 -12.310   2.524  1.00 20.63 LIG-0.35  N 
ATOM      9 H    GLY E   4      11.943 -11.661   2.113  1.00 20.63 LIG 0.16  HD
ATOM     10 O    THR E   3      13.886 -13.047   3.975  1.00 20.63 LIG-0.27  OA
BRANCH 8 11
ATOM     11  CA  GLY E   4      11.649 -13.587   2.385  1.00 21.12 LIG 0.23  C 
BRANCH 11 12
ATOM     12  C   GLY E   4      10.955 -14.152   3.611  1.00 30.37 LIG 0.28  C 
ATOM     13 O    GLY E   4      10.925 -15.366   3.798  1.00 22.56 LIG-0.27  OA
ATOM     14  N   NH2 E   5      10.409 -13.279   4.455  1.00 46.70 LIG-0.11  N 
ENDBRANCH 11 12
ENDBRANCH 8 11
ENDBRANCH 6 7
BRANCH 6 15
ATOM     15  CB  THR E   3      13.433  -9.802   4.014  1.00 21.65 LIG 0.15  C 
ATOM     16  CG2 THR E   3      12.982 -10.428   5.306  1.00 26.78 LIG 0.04  C 
BRANCH 15 17
ATOM     17 OG1  THR E   3      14.327  -8.722   4.303  1.00 29.20 LIG-0.39  OA
ATOM     18 HG1  THR E   3      14.781  -8.542   3.619  1.00 29.20 LIG 0.21  HD
ENDBRANCH 15 17
ENDBRANCH 6 15
ENDBRANCH 3 6
ENDBRANCH 1 2
BRANCH 1 19
ATOM     19  CB  HIS E   2      15.590 -10.312  -0.983  1.00 16.39 LIG 0.10  C 
BRANCH 19 20
ATOM     20  CG  HIS E   2      14.617 -11.446  -1.087  1.00 27.51 LIG 0.06  A 
ATOM     21  CD2 HIS E   2      14.797 -12.744  -1.425  1.00 25.75 LIG 0.14  A 
ATOM     22 NE2  HIS E   2      13.567 -13.354  -1.360  1.00 29.28 LIG-0.25  NA
ATOM     23  CE1 HIS E   2      12.664 -12.461  -0.996  1.00 28.87 LIG 0.23  A 
ATOM     24 ND1  HIS E   2      13.272 -11.301  -0.821  1.00 29.28 LIG-0.24  NA
ENDBRANCH 19 20
ENDBRANCH 1 19
BRANCH 1 25
ATOM     25  N   HIS E   2      15.860  -7.933  -0.434  1.00 15.79 LIG-0.35  N 
ATOM     26 H    HIS E   2      16.479  -7.768   0.140  1.00 15.79 LIG 0.16  HD
ATOM     27  C   PHE E   1      15.613  -7.172  -1.494  1.00 15.11 LIG 0.24  C 
ATOM     28 O    PHE E   1      14.720  -7.414  -2.298  1.00 17.78 LIG-0.27  OA
BRANCH 27 29
ATOM     29  CA  PHE E   1      16.507  -5.949  -1.672  1.00 10.43 LIG 0.18  C 
BRANCH 29 30
ATOM     30  N   PHE E   1      16.303  -5.345  -2.978  1.00 15.82 LIG-0.35  N 
ATOM     31 H    PHE E   1      15.853  -4.613  -2.950  1.00 15.82 LIG 0.16  HD
ATOM     32  C   ACE E   0      16.764  -5.868  -4.116  1.00 20.55 LIG 0.21  C 
ATOM     33 O    ACE E   0      16.580  -5.301  -5.198  1.00 32.51 LIG-0.27  OA
ATOM     34  CH3 ACE E   0      17.547  -7.145  -4.016  1.00 11.71 LIG 0.12  C 
ENDBRANCH 29 30
BRANCH 29 35
ATOM     35  CB  PHE E   1      16.232  -4.936  -0.560  1.00  9.28 LIG 0.07  C 
BRANCH 35 36
ATOM     36  CG  PHE E   1      14.905  -4.241  -0.680  1.00 12.52 LIG-0.06  A 
ATOM     37  CD1 PHE E   1      13.759  -4.814  -0.150  1.00 10.90 LIG 0.01  A 
ATOM     38  CE1 PHE E   1      12.539  -4.178  -0.242  1.00 11.94 LIG 0.00  A 
ATOM     39  CZ  PHE E   1      12.451  -2.955  -0.879  1.00  8.92 LIG 0.00  A 
ATOM     40  CE2 PHE E   1      13.600  -2.369  -1.410  1.00  8.81 LIG 0.00  A 
ATOM     41  CD2 PHE E   1      14.808  -3.008  -1.309  1.00 12.38 LIG 0.01  A 
ENDBRANCH 35 36
ENDBRANCH 29 35
ENDBRANCH 27 29
ENDBRANCH 1 25
TORSDOF 14
ENDMDL
MODEL 19
USER: ADFR SOLUTION from run 136
USER: SCORE 11.878185 LL:  -3.064 LR: -10.460 RR:   0.000 FEB:  -6.284
USER: RMSD 5.459107
USER: SEED 135
USER: STATUS no improvement in best in 30 clusters for 5 generations
USER: GENES 16
USER: genes 0 Translation |==|  0.53178 0.53585 0.32996
USER: genes 1 Rotation |==|  0.54884 0.93605 0.27706 0.58818
USER: genes 2 Torsion [N]-CA--C-[N] |==|  0.25094
USER: genes 3 Torsion [C]-N--CA-[C] |==|  0.71114
USER: genes 4 Torsion [N]-CA--C-[N] |==|  0.92103
USER: genes 5 Torsion [C]-N--CA-[C] |==|  0.59528
USER: genes 6 Torsion [N]-CA--C-[N] |==|  0.56804
USER: genes 7 Torsion [N]-CA--CB-[CG2] |==|  0.91460
USER: genes 8 Torsion [CA]-CB--OG1-[HG1] |==|  0.75968
USER: genes 9 Torsion [C]-CA--CB-[CG] |==|  0.76167
USER: genes 10 Torsion [CA]-CB--CG-[CD2] |==|  0.29616
USER: genes 11 Torsion [C]-CA--N-[C] |==|  0.81667
USER: genes 12 Torsion [N]-C--CA-[N] |==|  0.08766
USER: genes 13 Torsion [C]-CA--N-[C] |==|  0.72370
USER: genes 14 Torsion [C]-CA--CB-[CG] |==|  0.81485
USER: genes 15 Torsion [CA]-CB--CG-[CD2] |==|  0.68643
ROOT
ATOM      1  CA  HIS E   2      15.676  -7.923  -0.318  1.00 15.97 LIG 0.18  C 
ENDROOT
BRANCH 1 2
ATOM      2  C   HIS E   2      16.684  -8.292   0.756  1.00 15.29 LIG 0.24  C 
ATOM      3  N   THR E   3      16.504  -7.728   1.947  1.00 22.30 LIG-0.34  N 
ATOM      4 H    THR E   3      15.873  -7.171   2.121  1.00 22.30 LIG 0.16  HD
ATOM      5 O    HIS E   2      17.597  -9.080   0.520  1.00 12.62 LIG-0.27  OA
BRANCH 3 6
ATOM      6  CA  THR E   3      17.376  -8.014   3.078  1.00 13.35 LIG 0.20  C 
BRANCH 6 7
ATOM      7  C   THR E   3      16.706  -8.949   4.071  1.00 17.92 LIG 0.24  C 
ATOM      8  N   GLY E   4      15.376  -8.898   4.129  1.00 20.63 LIG-0.35  N 
ATOM      9 H    GLY E   4      14.905  -8.305   3.721  1.00 20.63 LIG 0.16  HD
ATOM     10 O    THR E   3      17.381  -9.663   4.809  1.00 20.63 LIG-0.27  OA
BRANCH 8 11
ATOM     11  CA  GLY E   4      14.592  -9.852   4.896  1.00 21.12 LIG 0.23  C 
BRANCH 11 12
ATOM     12  C   GLY E   4      13.236 -10.253   4.345  1.00 30.37 LIG 0.28  C 
ATOM     13 O    GLY E   4      13.012 -10.176   3.140  1.00 22.56 LIG-0.27  OA
ATOM     14  N   NH2 E   5      12.333 -10.693   5.219  1.00 46.70 LIG-0.11  N 
ENDBRANCH 11 12
ENDBRANCH 8 11
ENDBRANCH 6 7
BRANCH 6 15
ATOM     15  CB  THR E   3      17.780  -6.711   3.793  1.00 21.65 LIG 0.15  C 
ATOM     16  CG2 THR E   3      17.841  -5.560   2.826  1.00 26.78 LIG 0.04  C 
BRANCH 15 17
ATOM     17 OG1  THR E   3      16.816  -6.418   4.810  1.00 29.20 LIG-0.39  OA
ATOM     18 HG1  THR E   3      16.179  -5.983   4.476  1.00 29.20 LIG 0.21  HD
ENDBRANCH 15 17
ENDBRANCH 6 15
ENDBRANCH 3 6
ENDBRANCH 1 2
BRANCH 1 19
ATOM     19  CB  HIS E   2      15.465  -9.117  -1.245  1.00 16.39 LIG 0.10  C 
BRANCH 19 20
ATOM     20  CG  HIS E   2      16.463  -9.200  -2.359  1.00 27.51 LIG 0.06  A 
ATOM     21  CD2 HIS E   2      17.511 -10.034  -2.555  1.00 25.75 LIG 0.14  A 
ATOM     22 NE2  HIS E   2      18.097  -9.675  -3.746  1.00 29.28 LIG-0.25  NA
ATOM     23  CE1 HIS E   2      17.432  -8.658  -4.262  1.00 28.87 LIG 0.23  A 
ATOM     24 ND1  HIS E   2      16.438  -8.353  -3.447  1.00 29.28 LIG-0.24  NA
ENDBRANCH 19 20
ENDBRANCH 1 19
BRANCH 1 25
ATOM     25  N   HIS E   2      16.105  -6.751  -1.081  1.00 15.79 LIG-0.35  N 
ATOM     26 H    HIS E   2      16.282  -6.912  -1.907  1.00 15.79 LIG 0.16  HD
ATOM     27  C   PHE E   1      16.204  -5.549  -0.525  1.00 15.11 LIG 0.24  C 
ATOM     28 O    PHE E   1      15.957  -5.338   0.657  1.00 17.78 LIG-0.27  OA
BRANCH 27 29
ATOM     29  CA  PHE E   1      16.656  -4.415  -1.438  1.00 10.43 LIG 0.18  C 
BRANCH 29 30
ATOM     30  N   PHE E   1      16.205  -4.639  -2.802  1.00 15.82 LIG-0.35  N 
ATOM     31 H    PHE E   1      15.384  -4.416  -2.932  1.00 15.82 LIG 0.16  HD
ATOM     32  C   ACE E   0      16.980  -5.140  -3.765  1.00 20.55 LIG 0.21  C 
ATOM     33 O    ACE E   0      16.551  -5.289  -4.914  1.00 32.51 LIG-0.27  OA
ATOM     34  CH3 ACE E   0      18.398  -5.473  -3.401  1.00 11.71 LIG 0.12  C 
ENDBRANCH 29 30
BRANCH 29 35
ATOM     35  CB  PHE E   1      16.133  -3.079  -0.908  1.00  9.28 LIG 0.07  C 
BRANCH 35 36
ATOM     36  CG  PHE E   1      14.638  -2.940  -0.969  1.00 12.52 LIG-0.06  A 
ATOM     37  CD1 PHE E   1      13.825  -3.721  -0.162  1.00 10.90 LIG 0.01  A 
ATOM     38  CE1 PHE E   1      12.452  -3.592  -0.199  1.00 11.94 LIG 0.00  A 
ATOM     39  CZ  PHE E   1      11.874  -2.678  -1.058  1.00  8.92 LIG 0.00  A 
ATOM     40  CE2 PHE E   1      12.685  -1.884  -1.869  1.00  8.81 LIG 0.00  A 
ATOM     41  CD2 PHE E   1      14.048  -2.018  -1.821  1.00 12.38 LIG 0.01  A 
ENDBRANCH 35 36
ENDBRANCH 29 35
ENDBRANCH 27 29
ENDBRANCH 1 25
TORSDOF 14
ENDMDL
MODEL 20
USER: ADFR SOLUTION from run 49
USER: SCORE 12.107716 LL:  -2.919 LR: -10.454 RR:   0.000 FEB:  -6.278
USER: RMSD 4.795276
USER: SEED 48
USER: STATUS no improvement in best in 14 clusters for 5 generations
USER: GENES 16
USER: genes 0 Translation |==|  0.51953 0.45780 0.24519
USER: genes 1 Rotation |==|  0.60335 0.90891 0.33665 0.71314
USER: genes 2 Torsion [N]-CA--C-[N] |==|  0.36467
USER: genes 3 Torsion [C]-N--CA-[C] |==|  0.61848
USER: genes 4 Torsion [N]-CA--C-[N] |==|  0.82795
USER: genes 5 Torsion [C]-N--CA-[C] |==|  0.23341
USER: genes 6 Torsion [N]-CA--C-[N] |==|  0.11005
USER: genes 7 Torsion [N]-CA--CB-[CG2] |==|  0.59190
USER: genes 8 Torsion [CA]-CB--OG1-[HG1] |==|  0.48953
USER: genes 9 Torsion [C]-CA--CB-[CG] |==|  0.69029
USER: genes 10 Torsion [CA]-CB--CG-[CD2] |==|  0.21770
USER: genes 11 Torsion [C]-CA--N-[C] |==|  0.83405
USER: genes 12 Torsion [N]-C--CA-[N] |==|  0.17703
USER: genes 13 Torsion [C]-CA--N-[C] |==|  0.72778
USER: genes 14 Torsion [C]-CA--CB-[CG] |==|  0.76856
USER: genes 15 Torsion [CA]-CB--CG-[CD2] |==|  0.73002
ROOT
ATOM      1  CA  HIS E   2      15.446  -9.562  -1.716  1.00 15.97 LIG 0.18  C 
ENDROOT
BRANCH 1 2
ATOM      2  C   HIS E   2      15.739 -10.080  -0.319  1.00 15.29 LIG 0.24  C 
ATOM      3  N   THR E   3      14.689 -10.493   0.384  1.00 22.30 LIG-0.34  N 
ATOM      4 H    THR E   3      13.879 -10.462   0.096  1.00 22.30 LIG 0.16  HD
ATOM      5 O    HIS E   2      16.890 -10.121   0.109  1.00 12.62 LIG-0.27  OA
BRANCH 3 6
ATOM      6  CA  THR E   3      14.824 -11.042   1.727  1.00 13.35 LIG 0.20  C 
BRANCH 6 7
ATOM      7  C   THR E   3      13.942 -12.265   1.915  1.00 17.92 LIG 0.24  C 
ATOM      8  N   GLY E   4      12.629 -12.075   1.792  1.00 20.63 LIG-0.35  N 
ATOM      9 H    GLY E   4      12.266 -11.298   1.720  1.00 20.63 LIG 0.16  HD
ATOM     10 O    THR E   3      14.436 -13.349   2.220  1.00 20.63 LIG-0.27  OA
BRANCH 8 11
ATOM     11  CA  GLY E   4      11.682 -13.176   1.769  1.00 21.12 LIG 0.23  C 
BRANCH 11 12
ATOM     12  C   GLY E   4      11.213 -13.731   3.102  1.00 30.37 LIG 0.28  C 
ATOM     13 O    GLY E   4      11.078 -14.943   3.252  1.00 22.56 LIG-0.27  OA
ATOM     14  N   NH2 E   5      10.978 -12.854   4.075  1.00 46.70 LIG-0.11  N 
ENDBRANCH 11 12
ENDBRANCH 8 11
ENDBRANCH 6 7
BRANCH 6 15
ATOM     15  CB  THR E   3      14.463  -9.983   2.784  1.00 21.65 LIG 0.15  C 
ATOM     16  CG2 THR E   3      15.289 -10.159   4.031  1.00 26.78 LIG 0.04  C 
BRANCH 15 17
ATOM     17 OG1  THR E   3      14.705  -8.680   2.242  1.00 29.20 LIG-0.39  OA
ATOM     18 HG1  THR E   3      14.461  -8.097   2.796  1.00 29.20 LIG 0.21  HD
ENDBRANCH 15 17
ENDBRANCH 6 15
ENDBRANCH 3 6
ENDBRANCH 1 2
BRANCH 1 19
ATOM     19  CB  HIS E   2      15.900 -10.595  -2.744  1.00 16.39 LIG 0.10  C 
BRANCH 19 20
ATOM     20  CG  HIS E   2      17.077 -10.158  -3.562  1.00 27.51 LIG 0.06  A 
ATOM     21  CD2 HIS E   2      18.398 -10.120  -3.270  1.00 25.75 LIG 0.14  A 
ATOM     22 NE2  HIS E   2      19.044  -9.633  -4.382  1.00 29.28 LIG-0.25  NA
ATOM     23  CE1 HIS E   2      18.151  -9.381  -5.321  1.00 28.87 LIG 0.23  A 
ATOM     24 ND1  HIS E   2      16.955  -9.692  -4.853  1.00 29.28 LIG-0.24  NA
ENDBRANCH 19 20
ENDBRANCH 1 19
BRANCH 1 25
ATOM     25  N   HIS E   2      16.097  -8.275  -1.963  1.00 15.79 LIG-0.35  N 
ATOM     26 H    HIS E   2      16.650  -8.278  -2.621  1.00 15.79 LIG 0.16  HD
ATOM     27  C   PHE E   1      15.838  -7.205  -1.219  1.00 15.11 LIG 0.24  C 
ATOM     28 O    PHE E   1      15.054  -7.220  -0.277  1.00 17.78 LIG-0.27  OA
BRANCH 27 29
ATOM     29  CA  PHE E   1      16.582  -5.926  -1.590  1.00 10.43 LIG 0.18  C 
BRANCH 29 30
ATOM     30  N   PHE E   1      16.205  -5.477  -2.920  1.00 15.82 LIG-0.35  N 
ATOM     31 H    PHE E   1      15.470  -5.031  -2.934  1.00 15.82 LIG 0.16  HD
ATOM     32  C   ACE E   0      16.922  -5.726  -4.017  1.00 20.55 LIG 0.21  C 
ATOM     33 O    ACE E   0      16.565  -5.301  -5.121  1.00 32.51 LIG-0.27  OA
ATOM     34  CH3 ACE E   0      18.193  -6.506  -3.843  1.00 11.71 LIG 0.12  C 
ENDBRANCH 29 30
BRANCH 29 35
ATOM     35  CB  PHE E   1      16.301  -4.840  -0.552  1.00  9.28 LIG 0.07  C 
BRANCH 35 36
ATOM     36  CG  PHE E   1      15.018  -4.091  -0.782  1.00 12.52 LIG-0.06  A 
ATOM     37  CD1 PHE E   1      13.812  -4.605  -0.329  1.00 10.90 LIG 0.01  A 
ATOM     38  CE1 PHE E   1      12.631  -3.920  -0.522  1.00 11.94 LIG 0.00  A 
ATOM     39  CZ  PHE E   1      12.643  -2.708  -1.184  1.00  8.92 LIG 0.00  A 
ATOM     40  CE2 PHE E   1      13.853  -2.181  -1.637  1.00  8.81 LIG 0.00  A 
ATOM     41  CD2 PHE E   1      15.021  -2.868  -1.436  1.00 12.38 LIG 0.01  A 
ENDBRANCH 35 36
ENDBRANCH 29 35
ENDBRANCH 27 29
ENDBRANCH 1 25
TORSDOF 14
ENDMDL
MODEL 21
USER: ADFR SOLUTION from run 182
USER: SCORE 12.814910 LL:  -3.305 LR: -10.448 RR:   0.000 FEB:  -6.272
USER: RMSD 5.605594
USER: SEED 181
USER: STATUS no improvement in best in 27 clusters for 5 generations
USER: GENES 16
USER: genes 0 Translation |==|  0.54032 0.58993 0.36671
USER: genes 1 Rotation |==|  0.51014 0.92268 0.23764 0.54906
USER: genes 2 Torsion [N]-CA--C-[N] |==|  0.32778
USER: genes 3 Torsion [C]-N--CA-[C] |==|  0.70401
USER: genes 4 Torsion [N]-CA--C-[N] |==|  0.91734
USER: genes 5 Torsion [C]-N--CA-[C] |==|  0.47709
USER: genes 6 Torsion [N]-CA--C-[N] |==|  0.52066
USER: genes 7 Torsion [N]-CA--CB-[CG2] |==|  0.82330
USER: genes 8 Torsion [CA]-CB--OG1-[HG1] |==|  0.95380
USER: genes 9 Torsion [C]-CA--CB-[CG] |==|  0.14107
USER: genes 10 Torsion [CA]-CB--CG-[CD2] |==|  0.70640
USER: genes 11 Torsion [C]-CA--N-[C] |==|  0.86783
USER: genes 12 Torsion [N]-C--CA-[N] |==|  0.00495
USER: genes 13 Torsion [C]-CA--N-[C] |==|  0.75916
USER: genes 14 Torsion [C]-CA--CB-[CG] |==|  0.81856
USER: genes 15 Torsion [CA]-CB--CG-[CD2] |==|  0.66398
ROOT
ATOM      1  CA  HIS E   2      15.836  -6.787   0.289  1.00 15.97 LIG 0.18  C 
ENDROOT
BRANCH 1 2
ATOM      2  C   HIS E   2      17.062  -6.949   1.170  1.00 15.29 LIG 0.24  C 
ATOM      3  N   THR E   3      16.893  -6.679   2.462  1.00 22.30 LIG-0.34  N 
ATOM      4 H    THR E   3      16.150  -6.410   2.801  1.00 22.30 LIG 0.16  HD
ATOM      5 O    HIS E   2      18.133  -7.324   0.698  1.00 12.62 LIG-0.27  OA
BRANCH 3 6
ATOM      6  CA  THR E   3      17.974  -6.820   3.429  1.00 13.35 LIG 0.20  C 
BRANCH 6 7
ATOM      7  C   THR E   3      17.770  -8.040   4.311  1.00 17.92 LIG 0.24  C 
ATOM      8  N   GLY E   4      16.509  -8.403   4.540  1.00 20.63 LIG-0.35  N 
ATOM      9 H    GLY E   4      15.829  -7.931   4.306  1.00 20.63 LIG 0.16  HD
ATOM     10 O    THR E   3      18.734  -8.609   4.821  1.00 20.63 LIG-0.27  OA
BRANCH 8 11
ATOM     11  CA  GLY E   4      16.166  -9.645   5.212  1.00 21.12 LIG 0.23  C 
BRANCH 11 12
ATOM     12  C   GLY E   4      14.711  -9.864   5.587  1.00 30.37 LIG 0.28  C 
ATOM     13 O    GLY E   4      13.849  -9.083   5.194  1.00 22.56 LIG-0.27  OA
ATOM     14  N   NH2 E   5      14.432 -10.929   6.335  1.00 46.70 LIG-0.11  N 
ENDBRANCH 11 12
ENDBRANCH 8 11
ENDBRANCH 6 7
BRANCH 6 15
ATOM     15  CB  THR E   3      18.079  -5.562   4.310  1.00 21.65 LIG 0.15  C 
ATOM     16  CG2 THR E   3      18.441  -4.354   3.487  1.00 26.78 LIG 0.04  C 
BRANCH 15 17
ATOM     17 OG1  THR E   3      16.820  -5.333   4.951  1.00 29.20 LIG-0.39  OA
ATOM     18 HG1  THR E   3      16.222  -5.774   4.560  1.00 29.20 LIG 0.21  HD
ENDBRANCH 15 17
ENDBRANCH 6 15
ENDBRANCH 3 6
ENDBRANCH 1 2
BRANCH 1 19
ATOM     19  CB  HIS E   2      15.498  -8.128  -0.358  1.00 16.39 LIG 0.10  C 
BRANCH 19 20
ATOM     20  CG  HIS E   2      15.414  -9.264   0.614  1.00 27.51 LIG 0.06  A 
ATOM     21  CD2 HIS E   2      16.261 -10.292   0.857  1.00 25.75 LIG 0.14  A 
ATOM     22 NE2  HIS E   2      15.700 -11.050   1.857  1.00 29.28 LIG-0.25  NA
ATOM     23  CE1 HIS E   2      14.550 -10.509   2.213  1.00 28.87 LIG 0.23  A 
ATOM     24 ND1  HIS E   2      14.354  -9.427   1.480  1.00 29.28 LIG-0.24  NA
ENDBRANCH 19 20
ENDBRANCH 1 19
BRANCH 1 25
ATOM     25  N   HIS E   2      16.038  -5.761  -0.735  1.00 15.79 LIG-0.35  N 
ATOM     26 H    HIS E   2      15.806  -6.001  -1.527  1.00 15.79 LIG 0.16  HD
ATOM     27  C   PHE E   1      16.539  -4.567  -0.441  1.00 15.11 LIG 0.24  C 
ATOM     28 O    PHE E   1      16.875  -4.244   0.693  1.00 17.78 LIG-0.27  OA
BRANCH 27 29
ATOM     29  CA  PHE E   1      16.690  -3.591  -1.603  1.00 10.43 LIG 0.18  C 
BRANCH 29 30
ATOM     30  N   PHE E   1      16.197  -4.178  -2.838  1.00 15.82 LIG-0.35  N 
ATOM     31 H    PHE E   1      15.374  -3.990  -3.001  1.00 15.82 LIG 0.16  HD
ATOM     32  C   ACE E   0      16.940  -4.937  -3.645  1.00 20.55 LIG 0.21  C 
ATOM     33 O    ACE E   0      16.476  -5.394  -4.696  1.00 32.51 LIG-0.27  OA
ATOM     34  CH3 ACE E   0      18.367  -5.175  -3.243  1.00 11.71 LIG 0.12  C 
ENDBRANCH 29 30
BRANCH 29 35
ATOM     35  CB  PHE E   1      15.951  -2.290  -1.290  1.00  9.28 LIG 0.07  C 
BRANCH 35 36
ATOM     36  CG  PHE E   1      14.461  -2.444  -1.180  1.00 12.52 LIG-0.06  A 
ATOM     37  CD1 PHE E   1      13.909  -3.294  -0.232  1.00 10.90 LIG 0.01  A 
ATOM     38  CE1 PHE E   1      12.543  -3.433  -0.112  1.00 11.94 LIG 0.00  A 
ATOM     39  CZ  PHE E   1      11.706  -2.723  -0.952  1.00  8.92 LIG 0.00  A 
ATOM     40  CE2 PHE E   1      12.253  -1.861  -1.904  1.00  8.81 LIG 0.00  A 
ATOM     41  CD2 PHE E   1      13.613  -1.729  -2.012  1.00 12.38 LIG 0.01  A 
ENDBRANCH 35 36
ENDBRANCH 29 35
ENDBRANCH 27 29
ENDBRANCH 1 25
TORSDOF 14
ENDMDL
MODEL 22
USER: ADFR SOLUTION from run 166
USER: SCORE 11.605620 LL:  -2.709 LR: -10.350 RR:   0.000 FEB:  -6.174
USER: RMSD 8.547124
USER: SEED 165
USER: STATUS no improvement in best in 12 clusters for 5 generations
USER: GENES 16
USER: genes 0 Translation |==|  0.39957 0.38352 0.47722
USER: genes 1 Rotation |==|  0.46399 0.58794 0.02139 0.60908
USER: genes 2 Torsion [N]-CA--C-[N] |==|  0.11278
USER: genes 3 Torsion [C]-N--CA-[C] |==|  0.64249
USER: genes 4 Torsion [N]-CA--C-[N] |==|  0.32477
USER: genes 5 Torsion [C]-N--CA-[C] |==|  0.37639
USER: genes 6 Torsion [N]-CA--C-[N] |==|  0.47507
USER: genes 7 Torsion [N]-CA--CB-[CG2] |==|  0.63890
USER: genes 8 Torsion [CA]-CB--OG1-[HG1] |==|  0.29967
USER: genes 9 Torsion [C]-CA--CB-[CG] |==|  0.31035
USER: genes 10 Torsion [CA]-CB--CG-[CD2] |==|  0.32691
USER: genes 11 Torsion [C]-CA--N-[C] |==|  0.54570
USER: genes 12 Torsion [N]-C--CA-[N] |==|  0.44823
USER: genes 13 Torsion [C]-CA--N-[C] |==|  0.64906
USER: genes 14 Torsion [C]-CA--CB-[CG] |==|  0.81234
USER: genes 15 Torsion [CA]-CB--CG-[CD2] |==|  0.21055
ROOT
ATOM      1  CA  HIS E   2      13.197 -11.122   2.112  1.00 15.97 LIG 0.18  C 
ENDROOT
BRANCH 1 2
ATOM      2  C   HIS E   2      14.128  -9.928   2.227  1.00 15.29 LIG 0.24  C 
ATOM      3  N   THR E   3      14.681  -9.505   1.093  1.00 22.30 LIG-0.34  N 
ATOM      4 H    THR E   3      14.549  -9.879   0.330  1.00 22.30 LIG 0.16  HD
ATOM      5 O    HIS E   2      14.333  -9.391   3.313  1.00 12.62 LIG-0.27  OA
BRANCH 3 6
ATOM      6  CA  THR E   3      15.571  -8.353   1.049  1.00 13.35 LIG 0.20  C 
BRANCH 6 7
ATOM      7  C   THR E   3      15.136  -7.360  -0.016  1.00 17.92 LIG 0.24  C 
ATOM      8  N   GLY E   4      14.770  -6.153   0.412  1.00 20.63 LIG-0.35  N 
ATOM      9 H    GLY E   4      14.671  -5.953   1.243  1.00 20.63 LIG 0.16  HD
ATOM     10 O    THR E   3      15.080  -7.697  -1.197  1.00 20.63 LIG-0.27  OA
BRANCH 8 11
ATOM     11  CA  GLY E   4      14.504  -5.051  -0.498  1.00 21.12 LIG 0.23  C 
BRANCH 11 12
ATOM     12  C   GLY E   4      13.269  -4.207  -0.240  1.00 30.37 LIG 0.28  C 
ATOM     13 O    GLY E   4      12.455  -4.551   0.613  1.00 22.56 LIG-0.27  OA
ATOM     14  N   NH2 E   5      13.132  -3.097  -0.961  1.00 46.70 LIG-0.11  N 
ENDBRANCH 11 12
ENDBRANCH 8 11
ENDBRANCH 6 7
BRANCH 6 15
ATOM     15  CB  THR E   3      17.019  -8.798   0.775  1.00 21.65 LIG 0.15  C 
ATOM     16  CG2 THR E   3      17.970  -8.185   1.768  1.00 26.78 LIG 0.04  C 
BRANCH 15 17
ATOM     17 OG1  THR E   3      17.097 -10.224   0.870  1.00 29.20 LIG-0.39  OA
ATOM     18 HG1  THR E   3      17.193 -10.551   0.102  1.00 29.20 LIG 0.21  HD
ENDBRANCH 15 17
ENDBRANCH 6 15
ENDBRANCH 3 6
ENDBRANCH 1 2
BRANCH 1 19
ATOM     19  CB  HIS E   2      12.986 -11.734   3.495  1.00 16.39 LIG 0.10  C 
BRANCH 19 20
ATOM     20  CG  HIS E   2      11.596 -11.563   4.025  1.00 27.51 LIG 0.06  A 
ATOM     21  CD2 HIS E   2      10.650 -12.475   4.353  1.00 25.75 LIG 0.14  A 
ATOM     22 NE2  HIS E   2       9.551 -11.778   4.793  1.00 29.28 LIG-0.25  NA
ATOM     23  CE1 HIS E   2       9.811 -10.485   4.737  1.00 28.87 LIG 0.23  A 
ATOM     24 ND1  HIS E   2      11.041 -10.327   4.279  1.00 29.28 LIG-0.24  NA
ENDBRANCH 19 20
ENDBRANCH 1 19
BRANCH 1 25
ATOM     25  N   HIS E   2      13.716 -12.125   1.182  1.00 15.79 LIG-0.35  N 
ATOM     26 H    HIS E   2      14.551 -12.037   0.996  1.00 15.79 LIG 0.16  HD
ATOM     27  C   PHE E   1      12.945 -13.083   0.681  1.00 15.11 LIG 0.24  C 
ATOM     28 O    PHE E   1      11.753 -13.190   0.949  1.00 17.78 LIG-0.27  OA
BRANCH 27 29
ATOM     29  CA  PHE E   1      13.617 -14.066  -0.271  1.00 10.43 LIG 0.18  C 
BRANCH 29 30
ATOM     30  N   PHE E   1      12.830 -15.281  -0.401  1.00 15.82 LIG-0.35  N 
ATOM     31 H    PHE E   1      12.011 -15.135  -0.624  1.00 15.82 LIG 0.16  HD
ATOM     32  C   ACE E   0      13.317 -16.505  -0.198  1.00 20.55 LIG 0.21  C 
ATOM     33 O    ACE E   0      12.608 -17.506  -0.344  1.00 32.51 LIG-0.27  OA
ATOM     34  CH3 ACE E   0      14.768 -16.613   0.173  1.00 11.71 LIG 0.12  C 
ENDBRANCH 29 30
BRANCH 29 35
ATOM     35  CB  PHE E   1      13.828 -13.409  -1.635  1.00  9.28 LIG 0.07  C 
BRANCH 35 36
ATOM     36  CG  PHE E   1      12.554 -13.120  -2.378  1.00 12.52 LIG-0.06  A 
ATOM     37  CD1 PHE E   1      12.156 -13.927  -3.434  1.00 10.90 LIG 0.01  A 
ATOM     38  CE1 PHE E   1      10.981 -13.681  -4.113  1.00 11.94 LIG 0.00  A 
ATOM     39  CZ  PHE E   1      10.191 -12.610  -3.746  1.00  8.92 LIG 0.00  A 
ATOM     40  CE2 PHE E   1      10.580 -11.796  -2.681  1.00  8.81 LIG 0.00  A 
ATOM     41  CD2 PHE E   1      11.748 -12.053  -2.011  1.00 12.38 LIG 0.01  A 
ENDBRANCH 35 36
ENDBRANCH 29 35
ENDBRANCH 27 29
ENDBRANCH 1 25
TORSDOF 14
ENDMDL
MODEL 23
USER: ADFR SOLUTION from run 24
USER: SCORE 12.709177 LL:  -3.278 LR: -10.351 RR:   0.000 FEB:  -6.175
USER: RMSD 9.015253
USER: SEED 23
USER: STATUS no improvement in best in 12 clusters for 5 generations
USER: GENES 16
USER: genes 0 Translation |==|  0.41101 0.36472 0.39017
USER: genes 1 Rotation |==|  0.76189 0.63639 0.84047 0.71655
USER: genes 2 Torsion [N]-CA--C-[N] |==|  0.05034
USER: genes 3 Torsion [C]-N--CA-[C] |==|  0.75502
USER: genes 4 Torsion [N]-CA--C-[N] |==|  0.89623
USER: genes 5 Torsion [C]-N--CA-[C] |==|  0.66811
USER: genes 6 Torsion [N]-CA--C-[N] |==|  0.41197
USER: genes 7 Torsion [N]-CA--CB-[CG2] |==|  0.61306
USER: genes 8 Torsion [CA]-CB--OG1-[HG1] |==|  0.25927
USER: genes 9 Torsion [C]-CA--CB-[CG] |==|  0.55782
USER: genes 10 Torsion [CA]-CB--CG-[CD2] |==|  0.36310
USER: genes 11 Torsion [C]-CA--N-[C] |==|  0.18111
USER: genes 12 Torsion [N]-C--CA-[N] |==|  0.99704
USER: genes 13 Torsion [C]-CA--N-[C] |==|  0.71708
USER: genes 14 Torsion [C]-CA--CB-[CG] |==|  0.45070
USER: genes 15 Torsion [CA]-CB--CG-[CD2] |==|  0.63487
ROOT
ATOM      1  CA  HIS E   2      13.411 -11.517   0.676  1.00 15.97 LIG 0.18  C 
ENDROOT
BRANCH 1 2
ATOM      2  C   HIS E   2      13.667 -12.373  -0.552  1.00 15.29 LIG 0.24  C 
ATOM      3  N   THR E   3      12.837 -13.396  -0.735  1.00 22.30 LIG-0.34  N 
ATOM      4 H    THR E   3      12.197 -13.594  -0.197  1.00 22.30 LIG 0.16  HD
ATOM      5 O    HIS E   2      14.585 -12.108  -1.325  1.00 12.62 LIG-0.27  OA
BRANCH 3 6
ATOM      6  CA  THR E   3      12.945 -14.284  -1.886  1.00 13.35 LIG 0.20  C 
BRANCH 6 7
ATOM      7  C   THR E   3      12.148 -13.756  -3.067  1.00 17.92 LIG 0.24  C 
ATOM      8  N   GLY E   4      10.986 -13.169  -2.783  1.00 20.63 LIG-0.35  N 
ATOM      9 H    GLY E   4      10.631 -13.171  -2.000  1.00 20.63 LIG 0.16  HD
ATOM     10 O    THR E   3      12.549 -13.926  -4.216  1.00 20.63 LIG-0.27  OA
BRANCH 8 11
ATOM     11  CA  GLY E   4      10.205 -12.464  -3.786  1.00 21.12 LIG 0.23  C 
BRANCH 11 12
ATOM     12  C   GLY E   4       9.933 -10.988  -3.556  1.00 30.37 LIG 0.28  C 
ATOM     13 O    GLY E   4       9.830 -10.551  -2.413  1.00 22.56 LIG-0.27  OA
ATOM     14  N   NH2 E   5       9.830 -10.216  -4.635  1.00 46.70 LIG-0.11  N 
ENDBRANCH 11 12
ENDBRANCH 8 11
ENDBRANCH 6 7
BRANCH 6 15
ATOM     15  CB  THR E   3      12.455 -15.698  -1.527  1.00 21.65 LIG 0.15  C 
ATOM     16  CG2 THR E   3      13.344 -16.750  -2.135  1.00 26.78 LIG 0.04  C 
BRANCH 15 17
ATOM     17 OG1  THR E   3      12.459 -15.848  -0.103  1.00 29.20 LIG-0.39  OA
ATOM     18 HG1  THR E   3      11.701 -15.654   0.202  1.00 29.20 LIG 0.21  HD
ENDBRANCH 15 17
ENDBRANCH 6 15
ENDBRANCH 3 6
ENDBRANCH 1 2
BRANCH 1 19
ATOM     19  CB  HIS E   2      14.745 -11.121   1.303  1.00 16.39 LIG 0.10  C 
BRANCH 19 20
ATOM     20  CG  HIS E   2      14.640 -10.716   2.741  1.00 27.51 LIG 0.06  A 
ATOM     21  CD2 HIS E   2      15.350 -11.100   3.828  1.00 25.75 LIG 0.14  A 
ATOM     22 NE2  HIS E   2      14.840 -10.416   4.906  1.00 29.28 LIG-0.25  NA
ATOM     23  CE1 HIS E   2      13.853  -9.642   4.496  1.00 28.87 LIG 0.23  A 
ATOM     24 ND1  HIS E   2      13.713  -9.801   3.192  1.00 29.28 LIG-0.24  NA
ENDBRANCH 19 20
ENDBRANCH 1 19
BRANCH 1 25
ATOM     25  N   HIS E   2      12.571 -12.210   1.653  1.00 15.79 LIG-0.35  N 
ATOM     26 H    HIS E   2      11.802 -11.848   1.779  1.00 15.79 LIG 0.16  HD
ATOM     27  C   PHE E   1      12.984 -13.306   2.280  1.00 15.11 LIG 0.24  C 
ATOM     28 O    PHE E   1      14.089 -13.805   2.096  1.00 17.78 LIG-0.27  OA
BRANCH 27 29
ATOM     29  CA  PHE E   1      12.004 -13.930   3.268  1.00 10.43 LIG 0.18  C 
BRANCH 29 30
ATOM     30  N   PHE E   1      10.779 -13.152   3.342  1.00 15.82 LIG-0.35  N 
ATOM     31 H    PHE E   1      10.246 -13.290   2.681  1.00 15.82 LIG 0.16  HD
ATOM     32  C   ACE E   0      10.498 -12.305   4.333  1.00 20.55 LIG 0.21  C 
ATOM     33 O    ACE E   0       9.430 -11.685   4.358  1.00 32.51 LIG-0.27  OA
ATOM     34  CH3 ACE E   0      11.514 -12.173   5.431  1.00 11.71 LIG 0.12  C 
ENDBRANCH 29 30
BRANCH 29 35
ATOM     35  CB  PHE E   1      11.705 -15.374   2.863  1.00  9.28 LIG 0.07  C 
BRANCH 35 36
ATOM     36  CG  PHE E   1      11.105 -16.206   3.962  1.00 12.52 LIG-0.06  A 
ATOM     37  CD1 PHE E   1      10.023 -15.735   4.690  1.00 10.90 LIG 0.01  A 
ATOM     38  CE1 PHE E   1       9.455 -16.495   5.691  1.00 11.94 LIG 0.00  A 
ATOM     39  CZ  PHE E   1       9.975 -17.741   5.982  1.00  8.92 LIG 0.00  A 
ATOM     40  CE2 PHE E   1      11.060 -18.225   5.250  1.00  8.81 LIG 0.00  A 
ATOM     41  CD2 PHE E   1      11.614 -17.462   4.255  1.00 12.38 LIG 0.01  A 
ENDBRANCH 35 36
ENDBRANCH 29 35
ENDBRANCH 27 29
ENDBRANCH 1 25
TORSDOF 14
ENDMDL
MODEL 24
USER: ADFR SOLUTION from run 135
USER: SCORE 13.287658 LL:  -3.990 LR: -10.339 RR:   0.000 FEB:  -6.162
USER: RMSD 8.181301
USER: SEED 134
USER: STATUS no improvement in best in 11 clusters for 5 generations
USER: GENES 16
USER: genes 0 Translation |==|  0.38523 0.34009 0.37512
USER: genes 1 Rotation |==|  0.78352 0.70468 0.84555 0.59121
USER: genes 2 Torsion [N]-CA--C-[N] |==|  0.09344
USER: genes 3 Torsion [C]-N--CA-[C] |==|  0.80410
USER: genes 4 Torsion [N]-CA--C-[N] |==|  0.89148
USER: genes 5 Torsion [C]-N--CA-[C] |==|  0.70556
USER: genes 6 Torsion [N]-CA--C-[N] |==|  0.39577
USER: genes 7 Torsion [N]-CA--CB-[CG2] |==|  0.61233
USER: genes 8 Torsion [CA]-CB--OG1-[HG1] |==|  0.19734
USER: genes 9 Torsion [C]-CA--CB-[CG] |==|  0.56328
USER: genes 10 Torsion [CA]-CB--CG-[CD2] |==|  0.20630
USER: genes 11 Torsion [C]-CA--N-[C] |==|  0.73878
USER: genes 12 Torsion [N]-C--CA-[N] |==|  0.03103
USER: genes 13 Torsion [C]-CA--N-[C] |==|  0.75924
USER: genes 14 Torsion [C]-CA--CB-[CG] |==|  0.85297
USER: genes 15 Torsion [CA]-CB--CG-[CD2] |==|  0.80752
ROOT
ATOM      1  CA  HIS E   2      12.928 -12.034   0.428  1.00 15.97 LIG 0.18  C 
ENDROOT
BRANCH 1 2
ATOM      2  C   HIS E   2      13.123 -12.617  -0.961  1.00 15.29 LIG 0.24  C 
ATOM      3  N   THR E   3      12.521 -13.779  -1.198  1.00 22.30 LIG-0.34  N 
ATOM      4 H    THR E   3      12.058 -14.205  -0.611  1.00 22.30 LIG 0.16  HD
ATOM      5 O    HIS E   2      13.789 -12.024  -1.806  1.00 12.62 LIG-0.27  OA
BRANCH 3 6
ATOM      6  CA  THR E   3      12.596 -14.440  -2.494  1.00 13.35 LIG 0.20  C 
BRANCH 6 7
ATOM      7  C   THR E   3      11.794 -13.689  -3.544  1.00 17.92 LIG 0.24  C 
ATOM      8  N   GLY E   4      10.632 -13.174  -3.146  1.00 20.63 LIG-0.35  N 
ATOM      9 H    GLY E   4      10.278 -13.334  -2.379  1.00 20.63 LIG 0.16  HD
ATOM     10 O    THR E   3      12.194 -13.623  -4.705  1.00 20.63 LIG-0.27  OA
BRANCH 8 11
ATOM     11  CA  GLY E   4       9.846 -12.284  -3.985  1.00 21.12 LIG 0.23  C 
BRANCH 11 12
ATOM     12  C   GLY E   4       9.831 -10.809  -3.626  1.00 30.37 LIG 0.28  C 
ATOM     13 O    GLY E   4       9.831 -10.462  -2.448  1.00 22.56 LIG-0.27  OA
ATOM     14  N   NH2 E   5       9.831  -9.940  -4.634  1.00 46.70 LIG-0.11  N 
ENDBRANCH 11 12
ENDBRANCH 8 11
ENDBRANCH 6 7
BRANCH 6 15
ATOM     15  CB  THR E   3      12.082 -15.887  -2.395  1.00 21.65 LIG 0.15  C 
ATOM     16  CG2 THR E   3      12.937 -16.822  -3.208  1.00 26.78 LIG 0.04  C 
BRANCH 15 17
ATOM     17 OG1  THR E   3      12.107 -16.301  -1.025  1.00 29.20 LIG-0.39  OA
ATOM     18 HG1  THR E   3      11.506 -15.897  -0.599  1.00 29.20 LIG 0.21  HD
ENDBRANCH 15 17
ENDBRANCH 6 15
ENDBRANCH 3 6
ENDBRANCH 1 2
BRANCH 1 19
ATOM     19  CB  HIS E   2      14.083 -11.088   0.745  1.00 16.39 LIG 0.10  C 
BRANCH 19 20
ATOM     20  CG  HIS E   2      14.307 -10.878   2.211  1.00 27.51 LIG 0.06  A 
ATOM     21  CD2 HIS E   2      14.850 -11.685   3.153  1.00 25.75 LIG 0.14  A 
ATOM     22 NE2  HIS E   2      14.815 -10.998   4.343  1.00 29.28 LIG-0.25  NA
ATOM     23  CE1 HIS E   2      14.270  -9.813   4.139  1.00 28.87 LIG 0.23  A 
ATOM     24 ND1  HIS E   2      13.957  -9.713   2.859  1.00 29.28 LIG-0.24  NA
ENDBRANCH 19 20
ENDBRANCH 1 19
BRANCH 1 25
ATOM     25  N   HIS E   2      12.830 -13.082   1.445  1.00 15.79 LIG-0.35  N 
ATOM     26 H    HIS E   2      13.588 -13.350   1.750  1.00 15.79 LIG 0.16  HD
ATOM     27  C   PHE E   1      11.659 -13.562   1.846  1.00 15.11 LIG 0.24  C 
ATOM     28 O    PHE E   1      10.587 -13.176   1.393  1.00 17.78 LIG-0.27  OA
BRANCH 27 29
ATOM     29  CA  PHE E   1      11.703 -14.647   2.917  1.00 10.43 LIG 0.18  C 
BRANCH 29 30
ATOM     30  N   PHE E   1      13.038 -14.762   3.481  1.00 15.82 LIG-0.35  N 
ATOM     31 H    PHE E   1      13.151 -14.288   4.190  1.00 15.82 LIG 0.16  HD
ATOM     32  C   ACE E   0      14.000 -15.524   2.959  1.00 20.55 LIG 0.21  C 
ATOM     33 O    ACE E   0      15.111 -15.602   3.492  1.00 32.51 LIG-0.27  OA
ATOM     34  CH3 ACE E   0      13.659 -16.309   1.725  1.00 11.71 LIG 0.12  C 
ENDBRANCH 29 30
BRANCH 29 35
ATOM     35  CB  PHE E   1      10.678 -14.342   4.010  1.00  9.28 LIG 0.07  C 
BRANCH 35 36
ATOM     36  CG  PHE E   1      10.797 -12.962   4.592  1.00 12.52 LIG-0.06  A 
ATOM     37  CD1 PHE E   1       9.811 -12.014   4.363  1.00 10.90 LIG 0.01  A 
ATOM     38  CE1 PHE E   1       9.903 -10.749   4.904  1.00 11.94 LIG 0.00  A 
ATOM     39  CZ  PHE E   1      10.996 -10.414   5.679  1.00  8.92 LIG 0.00  A 
ATOM     40  CE2 PHE E   1      11.989 -11.363   5.920  1.00  8.81 LIG 0.00  A 
ATOM     41  CD2 PHE E   1      11.886 -12.619   5.380  1.00 12.38 LIG 0.01  A 
ENDBRANCH 35 36
ENDBRANCH 29 35
ENDBRANCH 27 29
ENDBRANCH 1 25
TORSDOF 14
ENDMDL
MODEL 25
USER: ADFR SOLUTION from run 181
USER: SCORE 12.996583 LL:  -3.245 LR: -10.329 RR:   0.000 FEB:  -6.153
USER: RMSD 7.911227
USER: SEED 180
USER: STATUS no improvement in best in 39 clusters for 5 generations
USER: GENES 16
USER: genes 0 Translation |==|  0.70705 0.64274 0.29181
USER: genes 1 Rotation |==|  0.21564 0.83250 0.65194 0.68841
USER: genes 2 Torsion [N]-CA--C-[N] |==|  0.94205
USER: genes 3 Torsion [C]-N--CA-[C] |==|  0.70035
USER: genes 4 Torsion [N]-CA--C-[N] |==|  0.89444
USER: genes 5 Torsion [C]-N--CA-[C] |==|  0.26174
USER: genes 6 Torsion [N]-CA--C-[N] |==|  0.42798
USER: genes 7 Torsion [N]-CA--CB-[CG2] |==|  0.37915
USER: genes 8 Torsion [CA]-CB--OG1-[HG1] |==|  0.60897
USER: genes 9 Torsion [C]-CA--CB-[CG] |==|  0.50483
USER: genes 10 Torsion [CA]-CB--CG-[CD2] |==|  0.20776
USER: genes 11 Torsion [C]-CA--N-[C] |==|  0.80577
USER: genes 12 Torsion [N]-C--CA-[N] |==|  0.47777
USER: genes 13 Torsion [C]-CA--N-[C] |==|  0.79324
USER: genes 14 Torsion [C]-CA--CB-[CG] |==|  0.29056
USER: genes 15 Torsion [CA]-CB--CG-[CD2] |==|  0.27685
ROOT
ATOM      1  CA  HIS E   2      18.962  -5.678  -0.947  1.00 15.97 LIG 0.18  C 
ENDROOT
BRANCH 1 2
ATOM      2  C   HIS E   2      19.720  -5.127   0.248  1.00 15.29 LIG 0.24  C 
ATOM      3  N   THR E   3      19.001  -4.437   1.129  1.00 22.30 LIG-0.34  N 
ATOM      4 H    THR E   3      18.160  -4.282   1.042  1.00 22.30 LIG 0.16  HD
ATOM      5 O    HIS E   2      20.924  -5.332   0.380  1.00 12.62 LIG-0.27  OA
BRANCH 3 6
ATOM      6  CA  THR E   3      19.590  -3.876   2.337  1.00 13.35 LIG 0.20  C 
BRANCH 6 7
ATOM      7  C   THR E   3      19.148  -4.640   3.574  1.00 17.92 LIG 0.24  C 
ATOM      8  N   GLY E   4      17.885  -5.062   3.590  1.00 20.63 LIG-0.35  N 
ATOM      9 H    GLY E   4      17.300  -4.836   3.001  1.00 20.63 LIG 0.16  HD
ATOM     10 O    THR E   3      19.919  -4.797   4.519  1.00 20.63 LIG-0.27  OA
BRANCH 8 11
ATOM     11  CA  GLY E   4      17.374  -5.953   4.619  1.00 21.12 LIG 0.23  C 
BRANCH 11 12
ATOM     12  C   GLY E   4      16.694  -5.325   5.821  1.00 30.37 LIG 0.28  C 
ATOM     13 O    GLY E   4      16.971  -4.176   6.156  1.00 22.56 LIG-0.27  OA
ATOM     14  N   NH2 E   5      15.794  -6.066   6.465  1.00 46.70 LIG-0.11  N 
ENDBRANCH 11 12
ENDBRANCH 8 11
ENDBRANCH 6 7
BRANCH 6 15
ATOM     15  CB  THR E   3      19.207  -2.392   2.488  1.00 21.65 LIG 0.15  C 
ATOM     16  CG2 THR E   3      18.821  -2.074   3.908  1.00 26.78 LIG 0.04  C 
BRANCH 15 17
ATOM     17 OG1  THR E   3      20.325  -1.579   2.113  1.00 29.20 LIG-0.39  OA
ATOM     18 HG1  THR E   3      20.379  -0.921   2.632  1.00 29.20 LIG 0.21  HD
ENDBRANCH 15 17
ENDBRANCH 6 15
ENDBRANCH 3 6
ENDBRANCH 1 2
BRANCH 1 19
ATOM     19  CB  HIS E   2      19.221  -4.792  -2.163  1.00 16.39 LIG 0.10  C 
BRANCH 19 20
ATOM     20  CG  HIS E   2      18.485  -5.224  -3.393  1.00 27.51 LIG 0.06  A 
ATOM     21  CD2 HIS E   2      17.179  -5.114  -3.734  1.00 25.75 LIG 0.14  A 
ATOM     22 NE2  HIS E   2      17.037  -5.675  -4.981  1.00 29.28 LIG-0.25  NA
ATOM     23  CE1 HIS E   2      18.213  -6.115  -5.390  1.00 28.87 LIG 0.23  A 
ATOM     24 ND1  HIS E   2      19.106  -5.853  -4.451  1.00 29.28 LIG-0.24  NA
ENDBRANCH 19 20
ENDBRANCH 1 19
BRANCH 1 25
ATOM     25  N   HIS E   2      17.527  -5.774  -0.680  1.00 15.79 LIG-0.35  N 
ATOM     26 H    HIS E   2      17.046  -5.211  -1.118  1.00 15.79 LIG 0.16  HD
ATOM     27  C   PHE E   1      17.030  -6.662   0.174  1.00 15.11 LIG 0.24  C 
ATOM     28 O    PHE E   1      17.729  -7.451   0.800  1.00 17.78 LIG-0.27  OA
BRANCH 27 29
ATOM     29  CA  PHE E   1      15.516  -6.657   0.352  1.00 10.43 LIG 0.18  C 
BRANCH 29 30
ATOM     30  N   PHE E   1      15.086  -7.787   1.158  1.00 15.82 LIG-0.35  N 
ATOM     31 H    PHE E   1      14.860  -7.570   1.959  1.00 15.82 LIG 0.16  HD
ATOM     32  C   ACE E   0      15.044  -9.043   0.710  1.00 20.55 LIG 0.21  C 
ATOM     33 O    ACE E   0      14.649  -9.964   1.433  1.00 32.51 LIG-0.27  OA
ATOM     34  CH3 ACE E   0      15.455  -9.277  -0.715  1.00 11.71 LIG 0.12  C 
ENDBRANCH 29 30
BRANCH 29 35
ATOM     35  CB  PHE E   1      15.071  -5.339   0.988  1.00  9.28 LIG 0.07  C 
BRANCH 35 36
ATOM     36  CG  PHE E   1      14.424  -4.383   0.026  1.00 12.52 LIG-0.06  A 
ATOM     37  CD1 PHE E   1      15.198  -3.609  -0.825  1.00 10.90 LIG 0.01  A 
ATOM     38  CE1 PHE E   1      14.615  -2.739  -1.722  1.00 11.94 LIG 0.00  A 
ATOM     39  CZ  PHE E   1      13.239  -2.628  -1.771  1.00  8.92 LIG 0.00  A 
ATOM     40  CE2 PHE E   1      12.452  -3.408  -0.924  1.00  8.81 LIG 0.00  A 
ATOM     41  CD2 PHE E   1      13.043  -4.272  -0.038  1.00 12.38 LIG 0.01  A 
ENDBRANCH 35 36
ENDBRANCH 29 35
ENDBRANCH 27 29
ENDBRANCH 1 25
TORSDOF 14
ENDMDL
MODEL 26
USER: ADFR SOLUTION from run 55
USER: SCORE 12.654706 LL:  -2.978 LR: -10.325 RR:   0.000 FEB:  -6.148
USER: RMSD 7.484102
USER: SEED 54
USER: STATUS no improvement in best in 41 clusters for 5 generations
USER: GENES 16
USER: genes 0 Translation |==|  0.64007 0.66768 0.52678
USER: genes 1 Rotation |==|  0.83928 0.60763 0.78056 0.71117
USER: genes 2 Torsion [N]-CA--C-[N] |==|  0.02222
USER: genes 3 Torsion [C]-N--CA-[C] |==|  0.81450
USER: genes 4 Torsion [N]-CA--C-[N] |==|  0.92547
USER: genes 5 Torsion [C]-N--CA-[C] |==|  0.37777
USER: genes 6 Torsion [N]-CA--C-[N] |==|  0.45329
USER: genes 7 Torsion [N]-CA--CB-[CG2] |==|  0.65906
USER: genes 8 Torsion [CA]-CB--OG1-[HG1] |==|  0.11148
USER: genes 9 Torsion [C]-CA--CB-[CG] |==|  0.26028
USER: genes 10 Torsion [CA]-CB--CG-[CD2] |==|  0.05466
USER: genes 11 Torsion [C]-CA--N-[C] |==|  0.19915
USER: genes 12 Torsion [N]-C--CA-[N] |==|  0.98217
USER: genes 13 Torsion [C]-CA--N-[C] |==|  0.77017
USER: genes 14 Torsion [C]-CA--CB-[CG] |==|  0.55694
USER: genes 15 Torsion [CA]-CB--CG-[CD2] |==|  0.89380
ROOT
ATOM      1  CA  HIS E   2      17.706  -5.155   2.930  1.00 15.97 LIG 0.18  C 
ENDROOT
BRANCH 1 2
ATOM      2  C   HIS E   2      17.400  -5.798   1.589  1.00 15.29 LIG 0.24  C 
ATOM      3  N   THR E   3      16.453  -6.732   1.590  1.00 22.30 LIG-0.34  N 
ATOM      4 H    THR E   3      16.036  -6.988   2.297  1.00 22.30 LIG 0.16  HD
ATOM      5 O    HIS E   2      17.994  -5.448   0.572  1.00 12.62 LIG-0.27  OA
BRANCH 3 6
ATOM      6  CA  THR E   3      16.035  -7.411   0.371  1.00 13.35 LIG 0.20  C 
BRANCH 6 7
ATOM      7  C   THR E   3      15.342  -6.454  -0.584  1.00 17.92 LIG 0.24  C 
ATOM      8  N   GLY E   4      14.736  -5.402  -0.035  1.00 20.63 LIG-0.35  N 
ATOM      9 H    GLY E   4      14.632  -5.303   0.813  1.00 20.63 LIG 0.16  HD
ATOM     10 O    THR E   3      15.308  -6.691  -1.790  1.00 20.63 LIG-0.27  OA
BRANCH 8 11
ATOM     11  CA  GLY E   4      14.189  -4.316  -0.830  1.00 21.12 LIG 0.23  C 
BRANCH 11 12
ATOM     12  C   GLY E   4      12.815  -3.790  -0.455  1.00 30.37 LIG 0.28  C 
ATOM     13 O    GLY E   4      12.082  -4.450   0.277  1.00 22.56 LIG-0.27  OA
ATOM     14  N   NH2 E   5      12.467  -2.601  -0.941  1.00 46.70 LIG-0.11  N 
ENDBRANCH 11 12
ENDBRANCH 8 11
ENDBRANCH 6 7
BRANCH 6 15
ATOM     15  CB  THR E   3      15.090  -8.581   0.700  1.00 21.65 LIG 0.15  C 
ATOM     16  CG2 THR E   3      15.628  -9.880   0.162  1.00 26.78 LIG 0.04  C 
BRANCH 15 17
ATOM     17 OG1  THR E   3      14.950  -8.685   2.121  1.00 29.20 LIG-0.39  OA
ATOM     18 HG1  THR E   3      14.897  -7.915   2.455  1.00 29.20 LIG 0.21  HD
ENDBRANCH 15 17
ENDBRANCH 6 15
ENDBRANCH 3 6
ENDBRANCH 1 2
BRANCH 1 19
ATOM     19  CB  HIS E   2      19.215  -5.168   3.164  1.00 16.39 LIG 0.10  C 
BRANCH 19 20
ATOM     20  CG  HIS E   2      19.906  -3.914   2.726  1.00 27.51 LIG 0.06  A 
ATOM     21  CD2 HIS E   2      19.427  -2.669   2.493  1.00 25.75 LIG 0.14  A 
ATOM     22 NE2  HIS E   2      20.494  -1.890   2.113  1.00 29.28 LIG-0.25  NA
ATOM     23  CE1 HIS E   2      21.587  -2.630   2.112  1.00 28.87 LIG 0.23  A 
ATOM     24 ND1  HIS E   2      21.261  -3.856   2.481  1.00 29.28 LIG-0.24  NA
ENDBRANCH 19 20
ENDBRANCH 1 19
BRANCH 1 25
ATOM     25  N   HIS E   2      17.012  -5.833   4.025  1.00 15.79 LIG-0.35  N 
ATOM     26 H    HIS E   2      16.363  -5.383   4.365  1.00 15.79 LIG 0.16  HD
ATOM     27  C   PHE E   1      17.372  -7.041   4.442  1.00 15.11 LIG 0.24  C 
ATOM     28 O    PHE E   1      18.307  -7.666   3.954  1.00 17.78 LIG-0.27  OA
BRANCH 27 29
ATOM     29  CA  PHE E   1      16.558  -7.632   5.588  1.00 10.43 LIG 0.18  C 
BRANCH 29 30
ATOM     30  N   PHE E   1      15.612  -6.658   6.106  1.00 15.82 LIG-0.35  N 
ATOM     31 H    PHE E   1      14.819  -6.746   5.783  1.00 15.82 LIG 0.16  HD
ATOM     32  C   ACE E   0      15.931  -5.716   6.995  1.00 20.55 LIG 0.21  C 
ATOM     33 O    ACE E   0      15.080  -4.926   7.419  1.00 32.51 LIG-0.27  OA
ATOM     34  CH3 ACE E   0      17.350  -5.686   7.484  1.00 11.71 LIG 0.12  C 
ENDBRANCH 29 30
BRANCH 29 35
ATOM     35  CB  PHE E   1      15.833  -8.893   5.116  1.00  9.28 LIG 0.07  C 
BRANCH 35 36
ATOM     36  CG  PHE E   1      14.655  -9.277   5.967  1.00 12.52 LIG-0.06  A 
ATOM     37  CD1 PHE E   1      13.508  -9.798   5.388  1.00 10.90 LIG 0.01  A 
ATOM     38  CE1 PHE E   1      12.427 -10.167   6.161  1.00 11.94 LIG 0.00  A 
ATOM     39  CZ  PHE E   1      12.480 -10.009   7.532  1.00  8.92 LIG 0.00  A 
ATOM     40  CE2 PHE E   1      13.633  -9.491   8.123  1.00  8.81 LIG 0.00  A 
ATOM     41  CD2 PHE E   1      14.703  -9.131   7.346  1.00 12.38 LIG 0.01  A 
ENDBRANCH 35 36
ENDBRANCH 29 35
ENDBRANCH 27 29
ENDBRANCH 1 25
TORSDOF 14
ENDMDL
MODEL 27
USER: ADFR SOLUTION from run 138
USER: SCORE 12.540469 LL:  -3.005 LR: -10.323 RR:   0.000 FEB:  -6.147
USER: RMSD 6.833454
USER: SEED 137
USER: STATUS no improvement in best in 46 clusters for 5 generations
USER: GENES 16
USER: genes 0 Translation |==|  0.52481 0.60910 0.38634
USER: genes 1 Rotation |==|  0.48549 0.88971 0.18720 0.50854
USER: genes 2 Torsion [N]-CA--C-[N] |==|  0.34450
USER: genes 3 Torsion [C]-N--CA-[C] |==|  0.58333
USER: genes 4 Torsion [N]-CA--C-[N] |==|  0.99476
USER: genes 5 Torsion [C]-N--CA-[C] |==|  0.21693
USER: genes 6 Torsion [N]-CA--C-[N] |==|  0.51495
USER: genes 7 Torsion [N]-CA--CB-[CG2] |==|  0.22079
USER: genes 8 Torsion [CA]-CB--OG1-[HG1] |==|  0.90624
USER: genes 9 Torsion [C]-CA--CB-[CG] |==|  0.10070
USER: genes 10 Torsion [CA]-CB--CG-[CD2] |==|  0.75173
USER: genes 11 Torsion [C]-CA--N-[C] |==|  0.84860
USER: genes 12 Torsion [N]-C--CA-[N] |==|  0.38886
USER: genes 13 Torsion [C]-CA--N-[C] |==|  0.81830
USER: genes 14 Torsion [C]-CA--CB-[CG] |==|  0.22866
USER: genes 15 Torsion [CA]-CB--CG-[CD2] |==|  0.47413
ROOT
ATOM      1  CA  HIS E   2      15.545  -6.385   0.613  1.00 15.97 LIG 0.18  C 
ENDROOT
BRANCH 1 2
ATOM      2  C   HIS E   2      16.910  -6.385   1.279  1.00 15.29 LIG 0.24  C 
ATOM      3  N   THR E   3      16.954  -5.917   2.523  1.00 22.30 LIG-0.34  N 
ATOM      4 H    THR E   3      16.269  -5.610   2.942  1.00 22.30 LIG 0.16  HD
ATOM      5 O    HIS E   2      17.899  -6.813   0.688  1.00 12.62 LIG-0.27  OA
BRANCH 3 6
ATOM      6  CA  THR E   3      18.190  -5.886   3.294  1.00 13.35 LIG 0.20  C 
BRANCH 6 7
ATOM      7  C   THR E   3      17.916  -6.029   4.782  1.00 17.92 LIG 0.24  C 
ATOM      8  N   GLY E   4      16.637  -6.118   5.144  1.00 20.63 LIG-0.35  N 
ATOM      9 H    GLY E   4      15.980  -5.994   4.603  1.00 20.63 LIG 0.16  HD
ATOM     10 O    THR E   3      18.841  -6.005   5.592  1.00 20.63 LIG-0.27  OA
BRANCH 8 11
ATOM     11  CA  GLY E   4      16.232  -6.436   6.503  1.00 21.12 LIG 0.23  C 
BRANCH 11 12
ATOM     12  C   GLY E   4      16.299  -5.325   7.536  1.00 30.37 LIG 0.28  C 
ATOM     13 O    GLY E   4      16.576  -4.179   7.192  1.00 22.56 LIG-0.27  OA
ATOM     14  N   NH2 E   5      16.032  -5.654   8.798  1.00 46.70 LIG-0.11  N 
ENDBRANCH 11 12
ENDBRANCH 8 11
ENDBRANCH 6 7
BRANCH 6 15
ATOM     15  CB  THR E   3      18.954  -4.575   3.038  1.00 21.65 LIG 0.15  C 
ATOM     16  CG2 THR E   3      18.368  -3.441   3.837  1.00 26.78 LIG 0.04  C 
BRANCH 15 17
ATOM     17 OG1  THR E   3      20.325  -4.751   3.412  1.00 29.20 LIG-0.39  OA
ATOM     18 HG1  THR E   3      20.372  -5.273   4.068  1.00 29.20 LIG 0.21  HD
ENDBRANCH 15 17
ENDBRANCH 6 15
ENDBRANCH 3 6
ENDBRANCH 1 2
BRANCH 1 19
ATOM     19  CB  HIS E   2      15.094  -7.825   0.384  1.00 16.39 LIG 0.10  C 
BRANCH 19 20
ATOM     20  CG  HIS E   2      15.497  -8.766   1.477  1.00 27.51 LIG 0.06  A 
ATOM     21  CD2 HIS E   2      16.615  -9.512   1.641  1.00 25.75 LIG 0.14  A 
ATOM     22 NE2  HIS E   2      16.473 -10.197   2.824  1.00 29.28 LIG-0.25  NA
ATOM     23  CE1 HIS E   2      15.311  -9.883   3.366  1.00 28.87 LIG 0.23  A 
ATOM     24 ND1  HIS E   2      14.702  -9.018   2.574  1.00 29.28 LIG-0.24  NA
ENDBRANCH 19 20
ENDBRANCH 1 19
BRANCH 1 25
ATOM     25  N   HIS E   2      15.561  -5.646  -0.651  1.00 15.79 LIG-0.35  N 
ATOM     26 H    HIS E   2      15.274  -6.094  -1.326  1.00 15.79 LIG 0.16  HD
ATOM     27  C   PHE E   1      15.986  -4.390  -0.723  1.00 15.11 LIG 0.24  C 
ATOM     28 O    PHE E   1      16.401  -3.768   0.249  1.00 17.78 LIG-0.27  OA
BRANCH 27 29
ATOM     29  CA  PHE E   1      15.942  -3.739  -2.101  1.00 10.43 LIG 0.18  C 
BRANCH 29 30
ATOM     30  N   PHE E   1      15.503  -2.356  -2.005  1.00 15.82 LIG-0.35  N 
ATOM     31 H    PHE E   1      16.109  -1.789  -2.230  1.00 15.82 LIG 0.16  HD
ATOM     32  C   ACE E   0      14.282  -1.993  -1.608  1.00 20.55 LIG 0.21  C 
ATOM     33 O    ACE E   0      13.955  -0.802  -1.566  1.00 32.51 LIG-0.27  OA
ATOM     34  CH3 ACE E   0      13.320  -3.090  -1.257  1.00 11.71 LIG 0.12  C 
ENDBRANCH 29 30
BRANCH 29 35
ATOM     35  CB  PHE E   1      17.318  -3.824  -2.762  1.00  9.28 LIG 0.07  C 
BRANCH 35 36
ATOM     36  CG  PHE E   1      17.593  -5.141  -3.433  1.00 12.52 LIG-0.06  A 
ATOM     37  CD1 PHE E   1      16.722  -6.208  -3.272  1.00 10.90 LIG 0.01  A 
ATOM     38  CE1 PHE E   1      16.957  -7.416  -3.894  1.00 11.94 LIG 0.00  A 
ATOM     39  CZ  PHE E   1      18.079  -7.573  -4.684  1.00  8.92 LIG 0.00  A 
ATOM     40  CE2 PHE E   1      18.957  -6.502  -4.857  1.00  8.81 LIG 0.00  A 
ATOM     41  CD2 PHE E   1      18.711  -5.304  -4.236  1.00 12.38 LIG 0.01  A 
ENDBRANCH 35 36
ENDBRANCH 29 35
ENDBRANCH 27 29
ENDBRANCH 1 25
TORSDOF 14
ENDMDL
MODEL 28
USER: ADFR SOLUTION from run 199
USER: SCORE 12.528748 LL:  -2.850 LR: -10.302 RR:   0.000 FEB:  -6.125
USER: RMSD 8.226527
USER: SEED 198
USER: STATUS no improvement in best in 38 clusters for 5 generations
USER: GENES 16
USER: genes 0 Translation |==|  0.69570 0.67168 0.44546
USER: genes 1 Rotation |==|  0.16683 0.74245 0.45895 0.78023
USER: genes 2 Torsion [N]-CA--C-[N] |==|  0.28333
USER: genes 3 Torsion [C]-N--CA-[C] |==|  0.81461
USER: genes 4 Torsion [N]-CA--C-[N] |==|  0.38349
USER: genes 5 Torsion [C]-N--CA-[C] |==|  0.63385
USER: genes 6 Torsion [N]-CA--C-[N] |==|  0.54796
USER: genes 7 Torsion [N]-CA--CB-[CG2] |==|  0.45195
USER: genes 8 Torsion [CA]-CB--OG1-[HG1] |==|  0.15524
USER: genes 9 Torsion [C]-CA--CB-[CG] |==|  0.54812
USER: genes 10 Torsion [CA]-CB--CG-[CD2] |==|  0.72887
USER: genes 11 Torsion [C]-CA--N-[C] |==|  0.75986
USER: genes 12 Torsion [N]-C--CA-[N] |==|  0.36089
USER: genes 13 Torsion [C]-CA--N-[C] |==|  0.71802
USER: genes 14 Torsion [C]-CA--CB-[CG] |==|  0.32631
USER: genes 15 Torsion [CA]-CB--CG-[CD2] |==|  0.92266
ROOT
ATOM      1  CA  HIS E   2      18.749  -5.071   1.588  1.00 15.97 LIG 0.18  C 
ENDROOT
BRANCH 1 2
ATOM      2  C   HIS E   2      18.391  -4.176   2.762  1.00 15.29 LIG 0.24  C 
ATOM      3  N   THR E   3      18.061  -4.797   3.891  1.00 22.30 LIG-0.34  N 
ATOM      4 H    THR E   3      18.027  -5.652   3.974  1.00 22.30 LIG 0.16  HD
ATOM      5 O    HIS E   2      18.425  -2.953   2.655  1.00 12.62 LIG-0.27  OA
BRANCH 3 6
ATOM      6  CA  THR E   3      17.722  -4.066   5.105  1.00 13.35 LIG 0.20  C 
BRANCH 6 7
ATOM      7  C   THR E   3      18.927  -3.320   5.654  1.00 17.92 LIG 0.24  C 
ATOM      8  N   GLY E   4      18.708  -2.083   6.099  1.00 20.63 LIG-0.35  N 
ATOM      9 H    GLY E   4      17.963  -1.666   5.994  1.00 20.63 LIG 0.16  HD
ATOM     10 O    THR E   3      20.045  -3.832   5.625  1.00 20.63 LIG-0.27  OA
BRANCH 8 11
ATOM     11  CA  GLY E   4      19.719  -1.321   6.811  1.00 21.12 LIG 0.23  C 
BRANCH 11 12
ATOM     12  C   GLY E   4      19.307  -0.636   8.101  1.00 30.37 LIG 0.28  C 
ATOM     13 O    GLY E   4      18.284  -0.986   8.685  1.00 22.56 LIG-0.27  OA
ATOM     14  N   NH2 E   5      20.103   0.329   8.557  1.00 46.70 LIG-0.11  N 
ENDBRANCH 11 12
ENDBRANCH 8 11
ENDBRANCH 6 7
BRANCH 6 15
ATOM     15  CB  THR E   3      17.179  -5.024   6.180  1.00 21.65 LIG 0.15  C 
ATOM     16  CG2 THR E   3      17.221  -4.386   7.544  1.00 26.78 LIG 0.04  C 
BRANCH 15 17
ATOM     17 OG1  THR E   3      15.825  -5.364   5.864  1.00 29.20 LIG-0.39  OA
ATOM     18 HG1  THR E   3      15.791  -5.687   5.089  1.00 29.20 LIG 0.21  HD
ENDBRANCH 15 17
ENDBRANCH 6 15
ENDBRANCH 3 6
ENDBRANCH 1 2
BRANCH 1 19
ATOM     19  CB  HIS E   2      20.002  -4.530   0.905  1.00 16.39 LIG 0.10  C 
BRANCH 19 20
ATOM     20  CG  HIS E   2      20.216  -5.066  -0.477  1.00 27.51 LIG 0.06  A 
ATOM     21  CD2 HIS E   2      20.995  -6.078  -0.929  1.00 25.75 LIG 0.14  A 
ATOM     22 NE2  HIS E   2      20.816  -6.149  -2.289  1.00 29.28 LIG-0.25  NA
ATOM     23  CE1 HIS E   2      19.960  -5.216  -2.660  1.00 28.87 LIG 0.23  A 
ATOM     24 ND1  HIS E   2      19.579  -4.549  -1.585  1.00 29.28 LIG-0.24  NA
ENDBRANCH 19 20
ENDBRANCH 1 19
BRANCH 1 25
ATOM     25  N   HIS E   2      17.648  -5.174   0.630  1.00 15.79 LIG-0.35  N 
ATOM     26 H    HIS E   2      17.686  -4.608  -0.016  1.00 15.79 LIG 0.16  HD
ATOM     27  C   PHE E   1      16.680  -6.073   0.769  1.00 15.11 LIG 0.24  C 
ATOM     28 O    PHE E   1      16.633  -6.866   1.702  1.00 17.78 LIG-0.27  OA
BRANCH 27 29
ATOM     29  CA  PHE E   1      15.598  -6.074  -0.306  1.00 10.43 LIG 0.18  C 
BRANCH 29 30
ATOM     30  N   PHE E   1      15.384  -7.416  -0.822  1.00 15.82 LIG-0.35  N 
ATOM     31 H    PHE E   1      14.906  -7.909  -0.304  1.00 15.82 LIG 0.16  HD
ATOM     32  C   ACE E   0      15.875  -7.849  -1.984  1.00 20.55 LIG 0.21  C 
ATOM     33 O    ACE E   0      15.644  -8.995  -2.386  1.00 32.51 LIG-0.27  OA
ATOM     34  CH3 ACE E   0      16.682  -6.876  -2.794  1.00 11.71 LIG 0.12  C 
ENDBRANCH 29 30
BRANCH 29 35
ATOM     35  CB  PHE E   1      14.300  -5.500   0.262  1.00  9.28 LIG 0.07  C 
BRANCH 35 36
ATOM     36  CG  PHE E   1      13.840  -4.240  -0.417  1.00 12.52 LIG-0.06  A 
ATOM     37  CD1 PHE E   1      12.494  -3.906  -0.443  1.00 10.90 LIG 0.01  A 
ATOM     38  CE1 PHE E   1      12.062  -2.746  -1.050  1.00 11.94 LIG 0.00  A 
ATOM     39  CZ  PHE E   1      12.979  -1.905  -1.650  1.00  8.92 LIG 0.00  A 
ATOM     40  CE2 PHE E   1      14.336  -2.231  -1.623  1.00  8.81 LIG 0.00  A 
ATOM     41  CD2 PHE E   1      14.754  -3.385  -1.013  1.00 12.38 LIG 0.01  A 
ENDBRANCH 35 36
ENDBRANCH 29 35
ENDBRANCH 27 29
ENDBRANCH 1 25
TORSDOF 14
ENDMDL
MODEL 29
USER: ADFR SOLUTION from run 5
USER: SCORE 11.891605 LL:  -2.626 LR: -10.276 RR:   0.000 FEB:  -6.100
USER: RMSD 9.223521
USER: SEED 479369
USER: STATUS no improvement in best in 12 clusters for 5 generations
USER: GENES 16
USER: genes 0 Translation |==|  0.44358 0.37109 0.48608
USER: genes 1 Rotation |==|  0.15372 0.83296 0.62325 0.56355
USER: genes 2 Torsion [N]-CA--C-[N] |==|  0.43348
USER: genes 3 Torsion [C]-N--CA-[C] |==|  0.14538
USER: genes 4 Torsion [N]-CA--C-[N] |==|  0.64864
USER: genes 5 Torsion [C]-N--CA-[C] |==|  0.43745
USER: genes 6 Torsion [N]-CA--C-[N] |==|  0.51543
USER: genes 7 Torsion [N]-CA--CB-[CG2] |==|  0.69674
USER: genes 8 Torsion [CA]-CB--OG1-[HG1] |==|  0.23313
USER: genes 9 Torsion [C]-CA--CB-[CG] |==|  0.47071
USER: genes 10 Torsion [CA]-CB--CG-[CD2] |==|  0.49125
USER: genes 11 Torsion [C]-CA--N-[C] |==|  0.72320
USER: genes 12 Torsion [N]-C--CA-[N] |==|  0.96670
USER: genes 13 Torsion [C]-CA--N-[C] |==|  0.74747
USER: genes 14 Torsion [C]-CA--CB-[CG] |==|  0.32464
USER: genes 15 Torsion [CA]-CB--CG-[CD2] |==|  0.50883
ROOT
ATOM      1  CA  HIS E   2      14.022 -11.383   2.258  1.00 15.97 LIG 0.18  C 
ENDROOT
BRANCH 1 2
ATOM      2  C   HIS E   2      14.716 -10.192   2.895  1.00 15.29 LIG 0.24  C 
ATOM      3  N   THR E   3      16.040 -10.152   2.773  1.00 22.30 LIG-0.34  N 
ATOM      4 H    THR E   3      16.502 -10.760   2.377  1.00 22.30 LIG 0.16  HD
ATOM      5 O    HIS E   2      14.070  -9.321   3.473  1.00 12.62 LIG-0.27  OA
BRANCH 3 6
ATOM      6  CA  THR E   3      16.833  -9.054   3.308  1.00 13.35 LIG 0.20  C 
BRANCH 6 7
ATOM      7  C   THR E   3      16.520  -8.810   4.775  1.00 17.92 LIG 0.24  C 
ATOM      8  N   GLY E   4      16.181  -7.566   5.111  1.00 20.63 LIG-0.35  N 
ATOM      9 H    GLY E   4      16.234  -6.897   4.573  1.00 20.63 LIG 0.16  HD
ATOM     10 O    THR E   3      16.636  -9.717   5.597  1.00 20.63 LIG-0.27  OA
BRANCH 8 11
ATOM     11  CA  GLY E   4      15.684  -7.224   6.433  1.00 21.12 LIG 0.23  C 
BRANCH 11 12
ATOM     12  C   GLY E   4      15.820  -5.782   6.886  1.00 30.37 LIG 0.28  C 
ATOM     13 O    GLY E   4      16.229  -4.927   6.104  1.00 22.56 LIG-0.27  OA
ATOM     14  N   NH2 E   5      15.467  -5.503   8.138  1.00 46.70 LIG-0.11  N 
ENDBRANCH 11 12
ENDBRANCH 8 11
ENDBRANCH 6 7
BRANCH 6 15
ATOM     15  CB  THR E   3      16.580  -7.763   2.509  1.00 21.65 LIG 0.15  C 
ATOM     16  CG2 THR E   3      17.780  -7.398   1.676  1.00 26.78 LIG 0.04  C 
BRANCH 15 17
ATOM     17 OG1  THR E   3      15.454  -7.959   1.647  1.00 29.20 LIG-0.39  OA
ATOM     18 HG1  THR E   3      14.745  -7.818   2.076  1.00 29.20 LIG 0.21  HD
ENDBRANCH 15 17
ENDBRANCH 6 15
ENDBRANCH 3 6
ENDBRANCH 1 2
BRANCH 1 19
ATOM     19  CB  HIS E   2      13.847 -11.126   0.764  1.00 16.39 LIG 0.10  C 
BRANCH 19 20
ATOM     20  CG  HIS E   2      13.402 -12.330  -0.008  1.00 27.51 LIG 0.06  A 
ATOM     21  CD2 HIS E   2      13.090 -12.483  -1.316  1.00 25.75 LIG 0.14  A 
ATOM     22 NE2  HIS E   2      12.745 -13.801  -1.499  1.00 29.28 LIG-0.25  NA
ATOM     23  CE1 HIS E   2      12.841 -14.434  -0.344  1.00 28.87 LIG 0.23  A 
ATOM     24 ND1  HIS E   2      13.239 -13.570   0.573  1.00 29.28 LIG-0.24  NA
ENDBRANCH 19 20
ENDBRANCH 1 19
BRANCH 1 25
ATOM     25  N   HIS E   2      12.728 -11.654   2.886  1.00 15.79 LIG-0.35  N 
ATOM     26 H    HIS E   2      12.089 -11.147   2.614  1.00 15.79 LIG 0.16  HD
ATOM     27  C   PHE E   1      12.577 -12.608   3.798  1.00 15.11 LIG 0.24  C 
ATOM     28 O    PHE E   1      13.501 -13.316   4.184  1.00 17.78 LIG-0.27  OA
BRANCH 27 29
ATOM     29  CA  PHE E   1      11.173 -12.786   4.365  1.00 10.43 LIG 0.18  C 
BRANCH 29 30
ATOM     30  N   PHE E   1      10.318 -11.673   3.988  1.00 15.82 LIG-0.35  N 
ATOM     31 H    PHE E   1       9.912 -11.792   3.239  1.00 15.82 LIG 0.16  HD
ATOM     32  C   ACE E   0      10.172 -10.570   4.723  1.00 20.55 LIG 0.21  C 
ATOM     33 O    ACE E   0       9.414  -9.661   4.366  1.00 32.51 LIG-0.27  OA
ATOM     34  CH3 ACE E   0      10.932 -10.501   6.017  1.00 11.71 LIG 0.12  C 
ENDBRANCH 29 30
BRANCH 29 35
ATOM     35  CB  PHE E   1      10.580 -14.110   3.882  1.00  9.28 LIG 0.07  C 
BRANCH 35 36
ATOM     36  CG  PHE E   1      10.290 -15.089   4.985  1.00 12.52 LIG-0.06  A 
ATOM     37  CD1 PHE E   1      10.482 -14.732   6.311  1.00 10.90 LIG 0.01  A 
ATOM     38  CE1 PHE E   1      10.205 -15.617   7.332  1.00 11.94 LIG 0.00  A 
ATOM     39  CZ  PHE E   1       9.739 -16.882   7.033  1.00  8.92 LIG 0.00  A 
ATOM     40  CE2 PHE E   1       9.537 -17.247   5.702  1.00  8.81 LIG 0.00  A 
ATOM     41  CD2 PHE E   1       9.812 -16.358   4.696  1.00 12.38 LIG 0.01  A 
ENDBRANCH 35 36
ENDBRANCH 29 35
ENDBRANCH 27 29
ENDBRANCH 1 25
TORSDOF 14
ENDMDL
MODEL 30
USER: ADFR SOLUTION from run 34
USER: SCORE 11.529295 LL:  -3.172 LR: -10.263 RR:   0.000 FEB:  -6.087
USER: RMSD 8.032182
USER: SEED 33
USER: STATUS no improvement in best in 31 clusters for 5 generations
USER: GENES 16
USER: genes 0 Translation |==|  0.38077 0.27143 0.41057
USER: genes 1 Rotation |==|  0.12892 0.48913 0.57054 0.82743
USER: genes 2 Torsion [N]-CA--C-[N] |==|  0.30093
USER: genes 3 Torsion [C]-N--CA-[C] |==|  0.79322
USER: genes 4 Torsion [N]-CA--C-[N] |==|  0.21695
USER: genes 5 Torsion [C]-N--CA-[C] |==|  0.29444
USER: genes 6 Torsion [N]-CA--C-[N] |==|  0.75214
USER: genes 7 Torsion [N]-CA--CB-[CG2] |==|  0.56318
USER: genes 8 Torsion [CA]-CB--OG1-[HG1] |==|  0.55908
USER: genes 9 Torsion [C]-CA--CB-[CG] |==|  0.17609
USER: genes 10 Torsion [CA]-CB--CG-[CD2] |==|  0.92836
USER: genes 11 Torsion [C]-CA--N-[C] |==|  0.70321
USER: genes 12 Torsion [N]-C--CA-[N] |==|  0.81796
USER: genes 13 Torsion [C]-CA--N-[C] |==|  0.67616
USER: genes 14 Torsion [C]-CA--CB-[CG] |==|  0.73559
USER: genes 15 Torsion [CA]-CB--CG-[CD2] |==|  0.72913
ROOT
ATOM      1  CA  HIS E   2      12.844 -13.476   1.012  1.00 15.97 LIG 0.18  C 
ENDROOT
BRANCH 1 2
ATOM      2  C   HIS E   2      11.663 -13.730   1.931  1.00 15.29 LIG 0.24  C 
ATOM      3  N   THR E   3      11.879 -14.560   2.948  1.00 22.30 LIG-0.34  N 
ATOM      4 H    THR E   3      12.628 -14.958   3.088  1.00 22.30 LIG 0.16  HD
ATOM      5 O    HIS E   2      10.583 -13.176   1.737  1.00 12.62 LIG-0.27  OA
BRANCH 3 6
ATOM      6  CA  THR E   3      10.845 -14.872   3.925  1.00 13.35 LIG 0.20  C 
BRANCH 6 7
ATOM      7  C   THR E   3      10.623 -13.713   4.883  1.00 17.92 LIG 0.24  C 
ATOM      8  N   GLY E   4       9.899 -12.694   4.423  1.00 20.63 LIG-0.35  N 
ATOM      9 H    GLY E   4       9.652 -12.618   3.602  1.00 20.63 LIG 0.16  HD
ATOM     10 O    THR E   3      11.142 -13.717   5.997  1.00 20.63 LIG-0.27  OA
BRANCH 8 11
ATOM     11  CA  GLY E   4       9.457 -11.604   5.277  1.00 21.12 LIG 0.23  C 
BRANCH 11 12
ATOM     12  C   GLY E   4      10.161 -10.267   5.135  1.00 30.37 LIG 0.28  C 
ATOM     13 O    GLY E   4       9.726  -9.421   4.358  1.00 22.56 LIG-0.27  OA
ATOM     14  N   NH2 E   5      11.238 -10.065   5.890  1.00 46.70 LIG-0.11  N 
ENDBRANCH 11 12
ENDBRANCH 8 11
ENDBRANCH 6 7
BRANCH 6 15
ATOM     15  CB  THR E   3      11.219 -16.133   4.725  1.00 21.65 LIG 0.15  C 
ATOM     16  CG2 THR E   3       9.995 -16.783   5.315  1.00 26.78 LIG 0.04  C 
BRANCH 15 17
ATOM     17 OG1  THR E   3      11.869 -17.065   3.854  1.00 29.20 LIG-0.39  OA
ATOM     18 HG1  THR E   3      11.816 -17.837   4.180  1.00 29.20 LIG 0.21  HD
ENDBRANCH 15 17
ENDBRANCH 6 15
ENDBRANCH 3 6
ENDBRANCH 1 2
BRANCH 1 19
ATOM     19  CB  HIS E   2      13.039 -11.972   0.842  1.00 16.39 LIG 0.10  C 
BRANCH 19 20
ATOM     20  CG  HIS E   2      13.388 -11.260   2.113  1.00 27.51 LIG 0.06  A 
ATOM     21  CD2 HIS E   2      13.130 -11.569   3.406  1.00 25.75 LIG 0.14  A 
ATOM     22 NE2  HIS E   2      13.679 -10.572   4.177  1.00 29.28 LIG-0.25  NA
ATOM     23  CE1 HIS E   2      14.252  -9.683   3.386  1.00 28.87 LIG 0.23  A 
ATOM     24 ND1  HIS E   2      14.094 -10.076   2.135  1.00 29.28 LIG-0.24  NA
ENDBRANCH 19 20
ENDBRANCH 1 19
BRANCH 1 25
ATOM     25  N   HIS E   2      12.664 -14.119  -0.290  1.00 15.79 LIG-0.35  N 
ATOM     26 H    HIS E   2      12.085 -13.737  -0.797  1.00 15.79 LIG 0.16  HD
ATOM     27  C   PHE E   1      13.349 -15.203  -0.637  1.00 15.11 LIG 0.24  C 
ATOM     28 O    PHE E   1      14.165 -15.743   0.101  1.00 17.78 LIG-0.27  OA
BRANCH 27 29
ATOM     29  CA  PHE E   1      13.067 -15.766  -2.026  1.00 10.43 LIG 0.18  C 
BRANCH 29 30
ATOM     30  N   PHE E   1      11.704 -16.262  -2.115  1.00 15.82 LIG-0.35  N 
ATOM     31 H    PHE E   1      11.109 -15.649  -2.014  1.00 15.82 LIG 0.16  HD
ATOM     32  C   ACE E   0      11.395 -17.541  -2.332  1.00 20.55 LIG 0.21  C 
ATOM     33 O    ACE E   0      10.217 -17.906  -2.421  1.00 32.51 LIG-0.27  OA
ATOM     34  CH3 ACE E   0      12.535 -18.503  -2.505  1.00 11.71 LIG 0.12  C 
ENDBRANCH 29 30
BRANCH 29 35
ATOM     35  CB  PHE E   1      13.322 -14.692  -3.085  1.00  9.28 LIG 0.07  C 
BRANCH 35 36
ATOM     36  CG  PHE E   1      12.091 -13.936  -3.498  1.00 12.52 LIG-0.06  A 
ATOM     37  CD1 PHE E   1      11.639 -12.862  -2.746  1.00 10.90 LIG 0.01  A 
ATOM     38  CE1 PHE E   1      10.519 -12.152  -3.124  1.00 11.94 LIG 0.00  A 
ATOM     39  CZ  PHE E   1       9.828 -12.518  -4.262  1.00  8.92 LIG 0.00  A 
ATOM     40  CE2 PHE E   1      10.279 -13.594  -5.028  1.00  8.81 LIG 0.00  A 
ATOM     41  CD2 PHE E   1      11.396 -14.290  -4.645  1.00 12.38 LIG 0.01  A 
ENDBRANCH 35 36
ENDBRANCH 29 35
ENDBRANCH 27 29
ENDBRANCH 1 25
TORSDOF 14
ENDMDL
MODEL 31
USER: ADFR SOLUTION from run 58
USER: SCORE 11.687703 LL:  -2.380 LR: -10.255 RR:   0.000 FEB:  -6.079
USER: RMSD 4.081825
USER: SEED 57
USER: STATUS no improvement in best in 30 clusters for 5 generations
USER: GENES 16
USER: genes 0 Translation |==|  0.46602 0.46429 0.41665
USER: genes 1 Rotation |==|  0.65567 0.88538 0.41084 0.76325
USER: genes 2 Torsion [N]-CA--C-[N] |==|  0.37636
USER: genes 3 Torsion [C]-N--CA-[C] |==|  0.61621
USER: genes 4 Torsion [N]-CA--C-[N] |==|  0.41294
USER: genes 5 Torsion [C]-N--CA-[C] |==|  0.76327
USER: genes 6 Torsion [N]-CA--C-[N] |==|  0.01346
USER: genes 7 Torsion [N]-CA--CB-[CG2] |==|  0.77626
USER: genes 8 Torsion [CA]-CB--OG1-[HG1] |==|  0.99688
USER: genes 9 Torsion [C]-CA--CB-[CG] |==|  0.20539
USER: genes 10 Torsion [CA]-CB--CG-[CD2] |==|  0.49558
USER: genes 11 Torsion [C]-CA--N-[C] |==|  0.52033
USER: genes 12 Torsion [N]-C--CA-[N] |==|  0.14334
USER: genes 13 Torsion [C]-CA--N-[C] |==|  0.17127
USER: genes 14 Torsion [C]-CA--CB-[CG] |==|  0.22635
USER: genes 15 Torsion [CA]-CB--CG-[CD2] |==|  0.95528
ROOT
ATOM      1  CA  HIS E   2      14.443  -9.426   1.113  1.00 15.97 LIG 0.18  C 
ENDROOT
BRANCH 1 2
ATOM      2  C   HIS E   2      14.287 -10.294   2.349  1.00 15.29 LIG 0.24  C 
ATOM      3  N   THR E   3      13.111 -10.897   2.496  1.00 22.30 LIG-0.34  N 
ATOM      4 H    THR E   3      12.455 -10.804   1.949  1.00 22.30 LIG 0.16  HD
ATOM      5 O    HIS E   2      15.214 -10.429   3.145  1.00 12.62 LIG-0.27  OA
BRANCH 3 6
ATOM      6  CA  THR E   3      12.831 -11.783   3.619  1.00 13.35 LIG 0.20  C 
BRANCH 6 7
ATOM      7  C   THR E   3      12.066 -13.017   3.171  1.00 17.92 LIG 0.24  C 
ATOM      8  N   GLY E   4      12.293 -14.137   3.855  1.00 20.63 LIG-0.35  N 
ATOM      9 H    GLY E   4      12.911 -14.215   4.449  1.00 20.63 LIG 0.16  HD
ATOM     10 O    THR E   3      11.325 -12.970   2.190  1.00 20.63 LIG-0.27  OA
BRANCH 8 11
ATOM     11  CA  GLY E   4      11.507 -15.343   3.658  1.00 21.12 LIG 0.23  C 
BRANCH 11 12
ATOM     12  C   GLY E   4      10.207 -15.471   4.432  1.00 30.37 LIG 0.28  C 
ATOM     13 O    GLY E   4       9.557 -16.512   4.379  1.00 22.56 LIG-0.27  OA
ATOM     14  N   NH2 E   5       9.830 -14.423   5.162  1.00 46.70 LIG-0.11  N 
ENDBRANCH 11 12
ENDBRANCH 8 11
ENDBRANCH 6 7
BRANCH 6 15
ATOM     15  CB  THR E   3      12.025 -11.045   4.703  1.00 21.65 LIG 0.15  C 
ATOM     16  CG2 THR E   3      12.925 -10.197   5.563  1.00 26.78 LIG 0.04  C 
BRANCH 15 17
ATOM     17 OG1  THR E   3      11.052 -10.206   4.072  1.00 29.20 LIG-0.39  OA
ATOM     18 HG1  THR E   3      11.124 -10.271   3.238  1.00 29.20 LIG 0.21  HD
ENDBRANCH 15 17
ENDBRANCH 6 15
ENDBRANCH 3 6
ENDBRANCH 1 2
BRANCH 1 19
ATOM     19  CB  HIS E   2      15.253 -10.182   0.063  1.00 16.39 LIG 0.10  C 
BRANCH 19 20
ATOM     20  CG  HIS E   2      14.492 -11.281  -0.612  1.00 27.51 LIG 0.06  A 
ATOM     21  CD2 HIS E   2      14.850 -12.138  -1.597  1.00 25.75 LIG 0.14  A 
ATOM     22 NE2  HIS E   2      13.769 -12.950  -1.841  1.00 29.28 LIG-0.25  NA
ATOM     23  CE1 HIS E   2      12.781 -12.603  -1.036  1.00 28.87 LIG 0.23  A 
ATOM     24 ND1  HIS E   2      13.192 -11.600  -0.281  1.00 29.28 LIG-0.24  NA
ENDBRANCH 19 20
ENDBRANCH 1 19
BRANCH 1 25
ATOM     25  N   HIS E   2      15.080  -8.147   1.427  1.00 15.79 LIG-0.35  N 
ATOM     26 H    HIS E   2      15.373  -8.086   2.234  1.00 15.79 LIG 0.16  HD
ATOM     27  C   PHE E   1      15.186  -7.176   0.527  1.00 15.11 LIG 0.24  C 
ATOM     28 O    PHE E   1      14.754  -7.274  -0.616  1.00 17.78 LIG-0.27  OA
BRANCH 27 29
ATOM     29  CA  PHE E   1      15.879  -5.898   0.988  1.00 10.43 LIG 0.18  C 
BRANCH 29 30
ATOM     30  N   PHE E   1      17.165  -6.197   1.594  1.00 15.82 LIG-0.35  N 
ATOM     31 H    PHE E   1      17.218  -5.960   2.419  1.00 15.82 LIG 0.16  HD
ATOM     32  C   ACE E   0      18.172  -6.781   0.943  1.00 20.55 LIG 0.21  C 
ATOM     33 O    ACE E   0      19.239  -7.033   1.513  1.00 32.51 LIG-0.27  OA
ATOM     34  CH3 ACE E   0      17.937  -7.154  -0.493  1.00 11.71 LIG 0.12  C 
ENDBRANCH 29 30
BRANCH 29 35
ATOM     35  CB  PHE E   1      16.046  -4.941  -0.193  1.00  9.28 LIG 0.07  C 
BRANCH 35 36
ATOM     36  CG  PHE E   1      14.816  -4.139  -0.510  1.00 12.52 LIG-0.06  A 
ATOM     37  CD1 PHE E   1      14.895  -3.022  -1.327  1.00 10.90 LIG 0.01  A 
ATOM     38  CE1 PHE E   1      13.770  -2.287  -1.637  1.00 11.94 LIG 0.00  A 
ATOM     39  CZ  PHE E   1      12.545  -2.660  -1.120  1.00  8.92 LIG 0.00  A 
ATOM     40  CE2 PHE E   1      12.455  -3.787  -0.302  1.00  8.81 LIG 0.00  A 
ATOM     41  CD2 PHE E   1      13.579  -4.512  -0.004  1.00 12.38 LIG 0.01  A 
ENDBRANCH 35 36
ENDBRANCH 29 35
ENDBRANCH 27 29
ENDBRANCH 1 25
TORSDOF 14
ENDMDL
MODEL 32
USER: ADFR SOLUTION from run 81
USER: SCORE 11.997163 LL:  -3.054 LR: -10.253 RR:   0.000 FEB:  -6.077
USER: RMSD 8.464333
USER: SEED 80
USER: STATUS no improvement in best in 5 clusters for 5 generations
USER: GENES 16
USER: genes 0 Translation |==|  0.67617 0.69525 0.44336
USER: genes 1 Rotation |==|  0.25195 0.77434 0.42235 0.82739
USER: genes 2 Torsion [N]-CA--C-[N] |==|  0.35156
USER: genes 3 Torsion [C]-N--CA-[C] |==|  0.81161
USER: genes 4 Torsion [N]-CA--C-[N] |==|  0.34111
USER: genes 5 Torsion [C]-N--CA-[C] |==|  0.59894
USER: genes 6 Torsion [N]-CA--C-[N] |==|  0.55962
USER: genes 7 Torsion [N]-CA--CB-[CG2] |==|  0.53265
USER: genes 8 Torsion [CA]-CB--OG1-[HG1] |==|  0.06627
USER: genes 9 Torsion [C]-CA--CB-[CG] |==|  0.00100
USER: genes 10 Torsion [CA]-CB--CG-[CD2] |==|  0.24594
USER: genes 11 Torsion [C]-CA--N-[C] |==|  0.72708
USER: genes 12 Torsion [N]-C--CA-[N] |==|  0.75784
USER: genes 13 Torsion [C]-CA--N-[C] |==|  0.73084
USER: genes 14 Torsion [C]-CA--CB-[CG] |==|  0.20230
USER: genes 15 Torsion [CA]-CB--CG-[CD2] |==|  0.19350
ROOT
ATOM      1  CA  HIS E   2      18.383  -4.576   1.553  1.00 15.97 LIG 0.18  C 
ENDROOT
BRANCH 1 2
ATOM      2  C   HIS E   2      18.092  -3.904   2.884  1.00 15.29 LIG 0.24  C 
ATOM      3  N   THR E   3      17.871  -4.717   3.914  1.00 22.30 LIG-0.34  N 
ATOM      4 H    THR E   3      17.869  -5.574   3.853  1.00 22.30 LIG 0.16  HD
ATOM      5 O    HIS E   2      18.081  -2.679   2.982  1.00 12.62 LIG-0.27  OA
BRANCH 3 6
ATOM      6  CA  THR E   3      17.608  -4.212   5.255  1.00 13.35 LIG 0.20  C 
BRANCH 6 7
ATOM      7  C   THR E   3      18.838  -3.540   5.842  1.00 17.92 LIG 0.24  C 
ATOM      8  N   GLY E   4      18.695  -2.271   6.225  1.00 20.63 LIG-0.35  N 
ATOM      9 H    GLY E   4      17.993  -1.801   6.061  1.00 20.63 LIG 0.16  HD
ATOM     10 O    THR E   3      19.910  -4.139   5.898  1.00 20.63 LIG-0.27  OA
BRANCH 8 11
ATOM     11  CA  GLY E   4      19.725  -1.560   6.963  1.00 21.12 LIG 0.23  C 
BRANCH 11 12
ATOM     12  C   GLY E   4      19.276  -0.562   8.015  1.00 30.37 LIG 0.28  C 
ATOM     13 O    GLY E   4      18.156  -0.651   8.511  1.00 22.56 LIG-0.27  OA
ATOM     14  N   NH2 E   5      20.147   0.380   8.368  1.00 46.70 LIG-0.11  N 
ENDBRANCH 11 12
ENDBRANCH 8 11
ENDBRANCH 6 7
BRANCH 6 15
ATOM     15  CB  THR E   3      17.154  -5.352   6.183  1.00 21.65 LIG 0.15  C 
ATOM     16  CG2 THR E   3      16.609  -4.811   7.479  1.00 26.78 LIG 0.04  C 
BRANCH 15 17
ATOM     17 OG1  THR E   3      16.134  -6.113   5.527  1.00 29.20 LIG-0.39  OA
ATOM     18 HG1  THR E   3      16.205  -6.018   4.696  1.00 29.20 LIG 0.21  HD
ENDBRANCH 15 17
ENDBRANCH 6 15
ENDBRANCH 3 6
ENDBRANCH 1 2
BRANCH 1 19
ATOM     19  CB  HIS E   2      19.842  -4.335   1.174  1.00 16.39 LIG 0.10  C 
BRANCH 19 20
ATOM     20  CG  HIS E   2      20.603  -3.529   2.181  1.00 27.51 LIG 0.06  A 
ATOM     21  CD2 HIS E   2      21.301  -3.905   3.279  1.00 25.75 LIG 0.14  A 
ATOM     22 NE2  HIS E   2      21.806  -2.761   3.849  1.00 29.28 LIG-0.25  NA
ATOM     23  CE1 HIS E   2      21.431  -1.720   3.128  1.00 28.87 LIG 0.23  A 
ATOM     24 ND1  HIS E   2      20.706  -2.156   2.113  1.00 29.28 LIG-0.24  NA
ENDBRANCH 19 20
ENDBRANCH 1 19
BRANCH 1 25
ATOM     25  N   HIS E   2      17.493  -4.092   0.497  1.00 15.79 LIG-0.35  N 
ATOM     26 H    HIS E   2      17.736  -3.346   0.144  1.00 15.79 LIG 0.16  HD
ATOM     27  C   PHE E   1      16.408  -4.765   0.132  1.00 15.11 LIG 0.24  C 
ATOM     28 O    PHE E   1      16.070  -5.822   0.652  1.00 17.78 LIG-0.27  OA
BRANCH 27 29
ATOM     29  CA  PHE E   1      15.574  -4.149  -0.986  1.00 10.43 LIG 0.18  C 
BRANCH 29 30
ATOM     30  N   PHE E   1      14.604  -3.209  -0.450  1.00 15.82 LIG-0.35  N 
ATOM     31 H    PHE E   1      14.929  -2.426  -0.306  1.00 15.82 LIG 0.16  HD
ATOM     32  C   ACE E   0      13.331  -3.521  -0.201  1.00 20.55 LIG 0.21  C 
ATOM     33 O    ACE E   0      12.542  -2.676   0.236  1.00 32.51 LIG-0.27  OA
ATOM     34  CH3 ACE E   0      12.894  -4.923  -0.512  1.00 11.71 LIG 0.12  C 
ENDBRANCH 29 30
BRANCH 29 35
ATOM     35  CB  PHE E   1      16.489  -3.461  -2.000  1.00  9.28 LIG 0.07  C 
BRANCH 35 36
ATOM     36  CG  PHE E   1      17.265  -4.412  -2.867  1.00 12.52 LIG-0.06  A 
ATOM     37  CD1 PHE E   1      18.636  -4.550  -2.708  1.00 10.90 LIG 0.01  A 
ATOM     38  CE1 PHE E   1      19.356  -5.430  -3.488  1.00 11.94 LIG 0.00  A 
ATOM     39  CZ  PHE E   1      18.708  -6.180  -4.450  1.00  8.92 LIG 0.00  A 
ATOM     40  CE2 PHE E   1      17.328  -6.052  -4.613  1.00  8.81 LIG 0.00  A 
ATOM     41  CD2 PHE E   1      16.622  -5.177  -3.829  1.00 12.38 LIG 0.01  A 
ENDBRANCH 35 36
ENDBRANCH 29 35
ENDBRANCH 27 29
ENDBRANCH 1 25
TORSDOF 14
ENDMDL
MODEL 33
USER: ADFR SOLUTION from run 19
USER: SCORE 12.702045 LL:  -3.124 LR: -10.253 RR:   0.000 FEB:  -6.077
USER: RMSD 8.818416
USER: SEED 18
USER: STATUS no improvement in best in 37 clusters for 5 generations
USER: GENES 16
USER: genes 0 Translation |==|  0.52808 0.52453 0.40493
USER: genes 1 Rotation |==|  0.92510 0.42309 0.75168 0.50554
USER: genes 2 Torsion [N]-CA--C-[N] |==|  0.33429
USER: genes 3 Torsion [C]-N--CA-[C] |==|  0.77516
USER: genes 4 Torsion [N]-CA--C-[N] |==|  0.93439
USER: genes 5 Torsion [C]-N--CA-[C] |==|  0.78808
USER: genes 6 Torsion [N]-CA--C-[N] |==|  0.01982
USER: genes 7 Torsion [N]-CA--CB-[CG2] |==|  0.45865
USER: genes 8 Torsion [CA]-CB--OG1-[HG1] |==|  0.22366
USER: genes 9 Torsion [C]-CA--CB-[CG] |==|  0.69868
USER: genes 10 Torsion [CA]-CB--CG-[CD2] |==|  0.26011
USER: genes 11 Torsion [C]-CA--N-[C] |==|  0.63673
USER: genes 12 Torsion [N]-C--CA-[N] |==|  0.10257
USER: genes 13 Torsion [C]-CA--N-[C] |==|  0.65737
USER: genes 14 Torsion [C]-CA--CB-[CG] |==|  0.28532
USER: genes 15 Torsion [CA]-CB--CG-[CD2] |==|  0.33559
ROOT
ATOM      1  CA  HIS E   2      15.607  -8.161   0.919  1.00 15.97 LIG 0.18  C 
ENDROOT
BRANCH 1 2
ATOM      2  C   HIS E   2      15.139  -7.161  -0.123  1.00 15.29 LIG 0.24  C 
ATOM      3  N   THR E   3      14.727  -5.983   0.338  1.00 22.30 LIG-0.34  N 
ATOM      4 H    THR E   3      14.699  -5.781   1.173  1.00 22.30 LIG 0.16  HD
ATOM      5 O    HIS E   2      15.164  -7.440  -1.320  1.00 12.62 LIG-0.27  OA
BRANCH 3 6
ATOM      6  CA  THR E   3      14.279  -4.919  -0.550  1.00 13.35 LIG 0.20  C 
BRANCH 6 7
ATOM      7  C   THR E   3      15.456  -4.158  -1.138  1.00 17.92 LIG 0.24  C 
ATOM      8  N   GLY E   4      16.595  -4.203  -0.448  1.00 20.63 LIG-0.35  N 
ATOM      9 H    GLY E   4      16.661  -4.541   0.340  1.00 20.63 LIG 0.16  HD
ATOM     10 O    THR E   3      15.322  -3.499  -2.167  1.00 20.63 LIG-0.27  OA
BRANCH 8 11
ATOM     11  CA  GLY E   4      17.845  -3.677  -0.972  1.00 21.12 LIG 0.23  C 
BRANCH 11 12
ATOM     12  C   GLY E   4      18.572  -4.502  -2.018  1.00 30.37 LIG 0.28  C 
ATOM     13 O    GLY E   4      19.698  -4.176  -2.387  1.00 22.56 LIG-0.27  OA
ATOM     14  N   NH2 E   5      17.944  -5.578  -2.487  1.00 46.70 LIG-0.11  N 
ENDBRANCH 11 12
ENDBRANCH 8 11
ENDBRANCH 6 7
BRANCH 6 15
ATOM     15  CB  THR E   3      13.360  -3.939   0.201  1.00 21.65 LIG 0.15  C 
ATOM     16  CG2 THR E   3      13.183  -2.660  -0.575  1.00 26.78 LIG 0.04  C 
BRANCH 15 17
ATOM     17 OG1  THR E   3      12.080  -4.551   0.393  1.00 29.20 LIG-0.39  OA
ATOM     18 HG1  THR E   3      12.115  -5.072   1.051  1.00 29.20 LIG 0.21  HD
ENDBRANCH 15 17
ENDBRANCH 6 15
ENDBRANCH 3 6
ENDBRANCH 1 2
BRANCH 1 19
ATOM     19  CB  HIS E   2      17.084  -8.472   0.695  1.00 16.39 LIG 0.10  C 
BRANCH 19 20
ATOM     20  CG  HIS E   2      17.337  -9.845   0.153  1.00 27.51 LIG 0.06  A 
ATOM     21  CD2 HIS E   2      17.483 -10.288  -1.118  1.00 25.75 LIG 0.14  A 
ATOM     22 NE2  HIS E   2      17.699 -11.643  -1.052  1.00 29.28 LIG-0.25  NA
ATOM     23  CE1 HIS E   2      17.686 -12.020   0.213  1.00 28.87 LIG 0.23  A 
ATOM     24 ND1  HIS E   2      17.472 -10.953   0.963  1.00 29.28 LIG-0.24  NA
ENDBRANCH 19 20
ENDBRANCH 1 19
BRANCH 1 25
ATOM     25  N   HIS E   2      14.813  -9.390   0.883  1.00 15.79 LIG-0.35  N 
ATOM     26 H    HIS E   2      14.720  -9.729   0.098  1.00 15.79 LIG 0.16  HD
ATOM     27  C   PHE E   1      14.291  -9.920   1.983  1.00 15.11 LIG 0.24  C 
ATOM     28 O    PHE E   1      14.424  -9.420   3.095  1.00 17.78 LIG-0.27  OA
BRANCH 27 29
ATOM     29  CA  PHE E   1      13.492 -11.206   1.802  1.00 10.43 LIG 0.18  C 
BRANCH 29 30
ATOM     30  N   PHE E   1      14.096 -12.050   0.785  1.00 15.82 LIG-0.35  N 
ATOM     31 H    PHE E   1      14.918 -12.247   0.947  1.00 15.82 LIG 0.16  HD
ATOM     32  C   ACE E   0      13.449 -12.483  -0.298  1.00 20.55 LIG 0.21  C 
ATOM     33 O    ACE E   0      14.005 -13.218  -1.122  1.00 32.51 LIG-0.27  OA
ATOM     34  CH3 ACE E   0      12.012 -12.074  -0.448  1.00 11.71 LIG 0.12  C 
ENDBRANCH 29 30
BRANCH 29 35
ATOM     35  CB  PHE E   1      13.394 -11.951   3.134  1.00  9.28 LIG 0.07  C 
BRANCH 35 36
ATOM     36  CG  PHE E   1      12.065 -11.806   3.819  1.00 12.52 LIG-0.06  A 
ATOM     37  CD1 PHE E   1      11.580 -10.551   4.158  1.00 10.90 LIG 0.01  A 
ATOM     38  CE1 PHE E   1      10.355 -10.405   4.774  1.00 11.94 LIG 0.00  A 
ATOM     39  CZ  PHE E   1       9.600 -11.523   5.068  1.00  8.92 LIG 0.00  A 
ATOM     40  CE2 PHE E   1      10.076 -12.789   4.726  1.00  8.81 LIG 0.00  A 
ATOM     41  CD2 PHE E   1      11.294 -12.922   4.110  1.00 12.38 LIG 0.01  A 
ENDBRANCH 35 36
ENDBRANCH 29 35
ENDBRANCH 27 29
ENDBRANCH 1 25
TORSDOF 14
ENDMDL
MODEL 34
USER: ADFR SOLUTION from run 82
USER: SCORE 11.854843 LL:  -2.790 LR: -10.238 RR:   0.000 FEB:  -6.062
USER: RMSD 6.128127
USER: SEED 81
USER: STATUS no improvement in best in 28 clusters for 5 generations
USER: GENES 16
USER: genes 0 Translation |==|  0.52320 0.50458 0.36077
USER: genes 1 Rotation |==|  0.58157 0.86333 0.28435 0.75461
USER: genes 2 Torsion [N]-CA--C-[N] |==|  0.90039
USER: genes 3 Torsion [C]-N--CA-[C] |==|  0.61278
USER: genes 4 Torsion [N]-CA--C-[N] |==|  0.14369
USER: genes 5 Torsion [C]-N--CA-[C] |==|  0.84432
USER: genes 6 Torsion [N]-CA--C-[N] |==|  0.36529
USER: genes 7 Torsion [N]-CA--CB-[CG2] |==|  0.59829
USER: genes 8 Torsion [CA]-CB--OG1-[HG1] |==|  0.65858
USER: genes 9 Torsion [C]-CA--CB-[CG] |==|  0.25353
USER: genes 10 Torsion [CA]-CB--CG-[CD2] |==|  0.89465
USER: genes 11 Torsion [C]-CA--N-[C] |==|  0.63633
USER: genes 12 Torsion [N]-C--CA-[N] |==|  0.40750
USER: genes 13 Torsion [C]-CA--N-[C] |==|  0.75492
USER: genes 14 Torsion [C]-CA--CB-[CG] |==|  0.82237
USER: genes 15 Torsion [CA]-CB--CG-[CD2] |==|  0.22163
ROOT
ATOM      1  CA  HIS E   2      15.515  -8.580   0.191  1.00 15.97 LIG 0.18  C 
ENDROOT
BRANCH 1 2
ATOM      2  C   HIS E   2      15.598  -8.652   1.705  1.00 15.29 LIG 0.24  C 
ATOM      3  N   THR E   3      16.742  -8.245   2.249  1.00 22.30 LIG-0.34  N 
ATOM      4 H    THR E   3      17.416  -7.969   1.792  1.00 22.30 LIG 0.16  HD
ATOM      5 O    HIS E   2      14.646  -9.053   2.370  1.00 12.62 LIG-0.27  OA
BRANCH 3 6
ATOM      6  CA  THR E   3      16.952  -8.232   3.690  1.00 13.35 LIG 0.20  C 
BRANCH 6 7
ATOM      7  C   THR E   3      17.699  -6.983   4.128  1.00 17.92 LIG 0.24  C 
ATOM      8  N   GLY E   4      17.205  -5.818   3.711  1.00 20.63 LIG-0.35  N 
ATOM      9 H    GLY E   4      16.567  -5.751   3.138  1.00 20.63 LIG 0.16  HD
ATOM     10 O    THR E   3      18.735  -7.074   4.784  1.00 20.63 LIG-0.27  OA
BRANCH 8 11
ATOM     11  CA  GLY E   4      17.705  -4.542   4.194  1.00 21.12 LIG 0.23  C 
BRANCH 11 12
ATOM     12  C   GLY E   4      17.695  -4.304   5.693  1.00 30.37 LIG 0.28  C 
ATOM     13 O    GLY E   4      16.688  -4.551   6.350  1.00 22.56 LIG-0.27  OA
ATOM     14  N   NH2 E   5      18.816  -3.837   6.240  1.00 46.70 LIG-0.11  N 
ENDBRANCH 11 12
ENDBRANCH 8 11
ENDBRANCH 6 7
BRANCH 6 15
ATOM     15  CB  THR E   3      17.734  -9.480   4.135  1.00 21.65 LIG 0.15  C 
ATOM     16  CG2 THR E   3      17.267  -9.960   5.484  1.00 26.78 LIG 0.04  C 
BRANCH 15 17
ATOM     17 OG1  THR E   3      17.539 -10.523   3.174  1.00 29.20 LIG-0.39  OA
ATOM     18 HG1  THR E   3      17.221 -11.200   3.556  1.00 29.20 LIG 0.21  HD
ENDBRANCH 15 17
ENDBRANCH 6 15
ENDBRANCH 3 6
ENDBRANCH 1 2
BRANCH 1 19
ATOM     19  CB  HIS E   2      16.084  -9.863  -0.409  1.00 16.39 LIG 0.10  C 
BRANCH 19 20
ATOM     20  CG  HIS E   2      15.059 -10.932  -0.633  1.00 27.51 LIG 0.06  A 
ATOM     21  CD2 HIS E   2      13.985 -11.303   0.102  1.00 25.75 LIG 0.14  A 
ATOM     22 NE2  HIS E   2      13.379 -12.343  -0.563  1.00 29.28 LIG-0.25  NA
ATOM     23  CE1 HIS E   2      14.057 -12.600  -1.666  1.00 28.87 LIG 0.23  A 
ATOM     24 ND1  HIS E   2      15.075 -11.760  -1.735  1.00 29.28 LIG-0.24  NA
ENDBRANCH 19 20
ENDBRANCH 1 19
BRANCH 1 25
ATOM     25  N   HIS E   2      16.223  -7.411  -0.334  1.00 15.79 LIG-0.35  N 
ATOM     26 H    HIS E   2      17.019  -7.312  -0.026  1.00 15.79 LIG 0.16  HD
ATOM     27  C   PHE E   1      15.661  -6.588  -1.212  1.00 15.11 LIG 0.24  C 
ATOM     28 O    PHE E   1      14.520  -6.737  -1.634  1.00 17.78 LIG-0.27  OA
BRANCH 27 29
ATOM     29  CA  PHE E   1      16.515  -5.414  -1.680  1.00 10.43 LIG 0.18  C 
BRANCH 29 30
ATOM     30  N   PHE E   1      16.219  -5.079  -3.063  1.00 15.82 LIG-0.35  N 
ATOM     31 H    PHE E   1      15.607  -4.480  -3.146  1.00 15.82 LIG 0.16  HD
ATOM     32  C   ACE E   0      16.829  -5.639  -4.108  1.00 20.55 LIG 0.21  C 
ATOM     33 O    ACE E   0      16.554  -5.301  -5.264  1.00 32.51 LIG-0.27  OA
ATOM     34  CH3 ACE E   0      17.889  -6.662  -3.815  1.00 11.71 LIG 0.12  C 
ENDBRANCH 29 30
BRANCH 29 35
ATOM     35  CB  PHE E   1      16.285  -4.206  -0.770  1.00  9.28 LIG 0.07  C 
BRANCH 35 36
ATOM     36  CG  PHE E   1      14.882  -3.669  -0.810  1.00 12.52 LIG-0.06  A 
ATOM     37  CD1 PHE E   1      14.576  -2.557  -1.581  1.00 10.90 LIG 0.01  A 
ATOM     38  CE1 PHE E   1      13.290  -2.063  -1.637  1.00 11.94 LIG 0.00  A 
ATOM     39  CZ  PHE E   1      12.289  -2.677  -0.910  1.00  8.92 LIG 0.00  A 
ATOM     40  CE2 PHE E   1      12.586  -3.801  -0.137  1.00  8.81 LIG 0.00  A 
ATOM     41  CD2 PHE E   1      13.868  -4.284  -0.092  1.00 12.38 LIG 0.01  A 
ENDBRANCH 35 36
ENDBRANCH 29 35
ENDBRANCH 27 29
ENDBRANCH 1 25
TORSDOF 14
ENDMDL
MODEL 35
USER: ADFR SOLUTION from run 122
USER: SCORE 11.751129 LL:  -2.638 LR: -10.228 RR:   0.000 FEB:  -6.051
USER: RMSD 5.270497
USER: SEED 121
USER: STATUS searching
USER: GENES 16
USER: genes 0 Translation |==|  0.41912 0.37517 0.35377
USER: genes 1 Rotation |==|  0.63712 0.85303 0.21379 0.65701
USER: genes 2 Torsion [N]-CA--C-[N] |==|  0.33889
USER: genes 3 Torsion [C]-N--CA-[C] |==|  0.57110
USER: genes 4 Torsion [N]-CA--C-[N] |==|  0.08837
USER: genes 5 Torsion [C]-N--CA-[C] |==|  0.84909
USER: genes 6 Torsion [N]-CA--C-[N] |==|  0.34453
USER: genes 7 Torsion [N]-CA--CB-[CG2] |==|  0.65938
USER: genes 8 Torsion [CA]-CB--OG1-[HG1] |==|  0.45568
USER: genes 9 Torsion [C]-CA--CB-[CG] |==|  0.40894
USER: genes 10 Torsion [CA]-CB--CG-[CD2] |==|  0.91304
USER: genes 11 Torsion [C]-CA--N-[C] |==|  0.86086
USER: genes 12 Torsion [N]-C--CA-[N] |==|  0.92441
USER: genes 13 Torsion [C]-CA--N-[C] |==|  0.79456
USER: genes 14 Torsion [C]-CA--CB-[CG] |==|  0.24688
USER: genes 15 Torsion [CA]-CB--CG-[CD2] |==|  0.79923
ROOT
ATOM      1  CA  HIS E   2      13.564 -11.297   0.075  1.00 15.97 LIG 0.18  C 
ENDROOT
BRANCH 1 2
ATOM      2  C   HIS E   2      13.930 -11.411   1.545  1.00 15.29 LIG 0.24  C 
ATOM      3  N   THR E   3      13.065 -10.883   2.406  1.00 22.30 LIG-0.34  N 
ATOM      4 H    THR E   3      12.343 -10.480   2.171  1.00 22.30 LIG 0.16  HD
ATOM      5 O    HIS E   2      14.964 -11.975   1.894  1.00 12.62 LIG-0.27  OA
BRANCH 3 6
ATOM      6  CA  THR E   3      13.272 -10.945   3.847  1.00 13.35 LIG 0.20  C 
BRANCH 6 7
ATOM      7  C   THR E   3      11.954 -10.868   4.599  1.00 17.92 LIG 0.24  C 
ATOM      8  N   GLY E   4      10.893 -11.398   3.992  1.00 20.63 LIG-0.35  N 
ATOM      9 H    GLY E   4      10.900 -11.675   3.178  1.00 20.63 LIG 0.16  HD
ATOM     10 O    THR E   3      11.887 -10.291   5.682  1.00 20.63 LIG-0.27  OA
BRANCH 8 11
ATOM     11  CA  GLY E   4       9.612 -11.556   4.660  1.00 21.12 LIG 0.23  C 
BRANCH 11 12
ATOM     12  C   GLY E   4       9.594 -12.311   5.977  1.00 30.37 LIG 0.28  C 
ATOM     13 O    GLY E   4      10.052 -13.449   6.042  1.00 22.56 LIG-0.27  OA
ATOM     14  N   NH2 E   5       9.079 -11.680   7.030  1.00 46.70 LIG-0.11  N 
ENDBRANCH 11 12
ENDBRANCH 8 11
ENDBRANCH 6 7
BRANCH 6 15
ATOM     15  CB  THR E   3      14.194  -9.803   4.310  1.00 21.65 LIG 0.15  C 
ATOM     16  CG2 THR E   3      15.407 -10.341   5.022  1.00 26.78 LIG 0.04  C 
BRANCH 15 17
ATOM     17 OG1  THR E   3      14.617  -9.049   3.169  1.00 29.20 LIG-0.39  OA
ATOM     18 HG1  THR E   3      14.932  -8.312   3.420  1.00 29.20 LIG 0.21  HD
ENDBRANCH 15 17
ENDBRANCH 6 15
ENDBRANCH 3 6
ENDBRANCH 1 2
BRANCH 1 19
ATOM     19  CB  HIS E   2      13.336 -12.693  -0.498  1.00 16.39 LIG 0.10  C 
BRANCH 19 20
ATOM     20  CG  HIS E   2      12.294 -12.743  -1.573  1.00 27.51 LIG 0.06  A 
ATOM     21  CD2 HIS E   2      11.176 -12.004  -1.763  1.00 25.75 LIG 0.14  A 
ATOM     22 NE2  HIS E   2      10.576 -12.465  -2.910  1.00 29.28 LIG-0.25  NA
ATOM     23  CE1 HIS E   2      11.299 -13.452  -3.406  1.00 28.87 LIG 0.23  A 
ATOM     24 ND1  HIS E   2      12.344 -13.639  -2.619  1.00 29.28 LIG-0.24  NA
ENDBRANCH 19 20
ENDBRANCH 1 19
BRANCH 1 25
ATOM     25  N   HIS E   2      14.596 -10.593  -0.686  1.00 15.79 LIG-0.35  N 
ATOM     26 H    HIS E   2      14.850 -11.001  -1.399  1.00 15.79 LIG 0.16  HD
ATOM     27  C   PHE E   1      15.083  -9.423  -0.290  1.00 15.11 LIG 0.24  C 
ATOM     28 O    PHE E   1      14.717  -8.859   0.735  1.00 17.78 LIG-0.27  OA
BRANCH 27 29
ATOM     29  CA  PHE E   1      16.150  -8.797  -1.182  1.00 10.43 LIG 0.18  C 
BRANCH 29 30
ATOM     30  N   PHE E   1      16.877  -9.820  -1.914  1.00 15.82 LIG-0.35  N 
ATOM     31 H    PHE E   1      16.668  -9.858  -2.748  1.00 15.82 LIG 0.16  HD
ATOM     32  C   ACE E   0      17.782 -10.626  -1.358  1.00 20.55 LIG 0.21  C 
ATOM     33 O    ACE E   0      18.388 -11.466  -2.032  1.00 32.51 LIG-0.27  OA
ATOM     34  CH3 ACE E   0      18.060 -10.440   0.106  1.00 11.71 LIG 0.12  C 
ENDBRANCH 29 30
BRANCH 29 35
ATOM     35  CB  PHE E   1      15.504  -7.799  -2.145  1.00  9.28 LIG 0.07  C 
BRANCH 35 36
ATOM     36  CG  PHE E   1      15.402  -6.402  -1.600  1.00 12.52 LIG-0.06  A 
ATOM     37  CD1 PHE E   1      16.209  -5.391  -2.099  1.00 10.90 LIG 0.01  A 
ATOM     38  CE1 PHE E   1      16.114  -4.103  -1.617  1.00 11.94 LIG 0.00  A 
ATOM     39  CZ  PHE E   1      15.207  -3.812  -0.616  1.00  8.92 LIG 0.00  A 
ATOM     40  CE2 PHE E   1      14.387  -4.822  -0.112  1.00  8.81 LIG 0.00  A 
ATOM     41  CD2 PHE E   1      14.488  -6.098  -0.602  1.00 12.38 LIG 0.01  A 
ENDBRANCH 35 36
ENDBRANCH 29 35
ENDBRANCH 27 29
ENDBRANCH 1 25
TORSDOF 14
ENDMDL
MODEL 36
USER: ADFR SOLUTION from run 37
USER: SCORE 12.102270 LL:  -2.726 LR: -10.224 RR:   0.000 FEB:  -6.048
USER: RMSD 7.567791
USER: SEED 36
USER: STATUS no improvement in best in 16 clusters for 5 generations
USER: GENES 16
USER: genes 0 Translation |==|  0.40741 0.41609 0.55817
USER: genes 1 Rotation |==|  0.54195 0.23456 0.91877 0.54913
USER: genes 2 Torsion [N]-CA--C-[N] |==|  0.19239
USER: genes 3 Torsion [C]-N--CA-[C] |==|  0.76752
USER: genes 4 Torsion [N]-CA--C-[N] |==|  0.95002
USER: genes 5 Torsion [C]-N--CA-[C] |==|  0.28541
USER: genes 6 Torsion [N]-CA--C-[N] |==|  0.44328
USER: genes 7 Torsion [N]-CA--CB-[CG2] |==|  0.92321
USER: genes 8 Torsion [CA]-CB--OG1-[HG1] |==|  0.92027
USER: genes 9 Torsion [C]-CA--CB-[CG] |==|  0.44519
USER: genes 10 Torsion [CA]-CB--CG-[CD2] |==|  0.39586
USER: genes 11 Torsion [C]-CA--N-[C] |==|  0.13377
USER: genes 12 Torsion [N]-C--CA-[N] |==|  0.45744
USER: genes 13 Torsion [C]-CA--N-[C] |==|  0.74630
USER: genes 14 Torsion [C]-CA--CB-[CG] |==|  0.49754
USER: genes 15 Torsion [CA]-CB--CG-[CD2] |==|  0.73225
ROOT
ATOM      1  CA  HIS E   2      13.344 -10.438   3.448  1.00 15.97 LIG 0.18  C 
ENDROOT
BRANCH 1 2
ATOM      2  C   HIS E   2      14.825 -10.203   3.688  1.00 15.29 LIG 0.24  C 
ATOM      3  N   THR E   3      15.311  -9.043   3.255  1.00 22.30 LIG-0.34  N 
ATOM      4 H    THR E   3      14.841  -8.451   2.845  1.00 22.30 LIG 0.16  HD
ATOM      5 O    HIS E   2      15.511 -11.044   4.264  1.00 12.62 LIG-0.27  OA
BRANCH 3 6
ATOM      6  CA  THR E   3      16.707  -8.671   3.444  1.00 13.35 LIG 0.20  C 
BRANCH 6 7
ATOM      7  C   THR E   3      16.937  -8.069   4.820  1.00 17.92 LIG 0.24  C 
ATOM      8  N   GLY E   4      15.855  -7.634   5.466  1.00 20.63 LIG-0.35  N 
ATOM      9 H    GLY E   4      15.075  -7.583   5.106  1.00 20.63 LIG 0.16  HD
ATOM     10 O    THR E   3      18.076  -7.949   5.266  1.00 20.63 LIG-0.27  OA
BRANCH 8 11
ATOM     11  CA  GLY E   4      15.898  -7.202   6.853  1.00 21.12 LIG 0.23  C 
BRANCH 11 12
ATOM     12  C   GLY E   4      15.887  -5.709   7.126  1.00 30.37 LIG 0.28  C 
ATOM     13 O    GLY E   4      16.205  -4.918   6.241  1.00 22.56 LIG-0.27  OA
ATOM     14  N   NH2 E   5      15.510  -5.317   8.341  1.00 46.70 LIG-0.11  N 
ENDBRANCH 11 12
ENDBRANCH 8 11
ENDBRANCH 6 7
BRANCH 6 15
ATOM     15  CB  THR E   3      17.150  -7.666   2.365  1.00 21.65 LIG 0.15  C 
ATOM     16  CG2 THR E   3      16.350  -7.841   1.101  1.00 26.78 LIG 0.04  C 
BRANCH 15 17
ATOM     17 OG1  THR E   3      16.961  -6.335   2.858  1.00 29.20 LIG-0.39  OA
ATOM     18 HG1  THR E   3      16.328  -6.328   3.411  1.00 29.20 LIG 0.21  HD
ENDBRANCH 15 17
ENDBRANCH 6 15
ENDBRANCH 3 6
ENDBRANCH 1 2
BRANCH 1 19
ATOM     19  CB  HIS E   2      12.889 -11.655   4.249  1.00 16.39 LIG 0.10  C 
BRANCH 19 20
ATOM     20  CG  HIS E   2      11.409 -11.713   4.471  1.00 27.51 LIG 0.06  A 
ATOM     21  CD2 HIS E   2      10.552 -12.761   4.487  1.00 25.75 LIG 0.14  A 
ATOM     22 NE2  HIS E   2       9.299 -12.256   4.739  1.00 29.28 LIG-0.25  NA
ATOM     23  CE1 HIS E   2       9.383 -10.945   4.872  1.00 28.87 LIG 0.23  A 
ATOM     24 ND1  HIS E   2      10.647 -10.591   4.717  1.00 29.28 LIG-0.24  NA
ENDBRANCH 19 20
ENDBRANCH 1 19
BRANCH 1 25
ATOM     25  N   HIS E   2      13.049 -10.621   2.026  1.00 15.79 LIG-0.35  N 
ATOM     26 H    HIS E   2      12.389 -10.152   1.738  1.00 15.79 LIG 0.16  HD
ATOM     27  C   PHE E   1      13.755 -11.449   1.265  1.00 15.11 LIG 0.24  C 
ATOM     28 O    PHE E   1      14.688 -12.120   1.693  1.00 17.78 LIG-0.27  OA
BRANCH 27 29
ATOM     29  CA  PHE E   1      13.344 -11.538  -0.201  1.00 10.43 LIG 0.18  C 
BRANCH 29 30
ATOM     30  N   PHE E   1      14.384 -12.175  -0.992  1.00 15.82 LIG-0.35  N 
ATOM     31 H    PHE E   1      14.310 -13.032  -1.028  1.00 15.82 LIG 0.16  HD
ATOM     32  C   ACE E   0      15.361 -11.507  -1.606  1.00 20.55 LIG 0.21  C 
ATOM     33 O    ACE E   0      16.209 -12.097  -2.284  1.00 32.51 LIG-0.27  OA
ATOM     34  CH3 ACE E   0      15.361 -10.012  -1.470  1.00 11.71 LIG 0.12  C 
ENDBRANCH 29 30
BRANCH 29 35
ATOM     35  CB  PHE E   1      12.025 -12.302  -0.326  1.00  9.28 LIG 0.07  C 
BRANCH 35 36
ATOM     36  CG  PHE E   1      11.522 -12.426  -1.737  1.00 12.52 LIG-0.06  A 
ATOM     37  CD1 PHE E   1      11.981 -13.443  -2.561  1.00 10.90 LIG 0.01  A 
ATOM     38  CE1 PHE E   1      11.516 -13.575  -3.852  1.00 11.94 LIG 0.00  A 
ATOM     39  CZ  PHE E   1      10.585 -12.678  -4.340  1.00  8.92 LIG 0.00  A 
ATOM     40  CE2 PHE E   1      10.113 -11.656  -3.515  1.00  8.81 LIG 0.00  A 
ATOM     41  CD2 PHE E   1      10.580 -11.537  -2.232  1.00 12.38 LIG 0.01  A 
ENDBRANCH 35 36
ENDBRANCH 29 35
ENDBRANCH 27 29
ENDBRANCH 1 25
TORSDOF 14
ENDMDL
MODEL 37
USER: ADFR SOLUTION from run 106
USER: SCORE 12.069129 LL:  -2.567 LR: -10.187 RR:   0.000 FEB:  -6.011
USER: RMSD 2.107920
USER: SEED 105
USER: STATUS no improvement in best in 18 clusters for 5 generations
USER: GENES 16
USER: genes 0 Translation |==|  0.52256 0.44711 0.47446
USER: genes 1 Rotation |==|  0.56342 0.55230 0.47856 0.99273
USER: genes 2 Torsion [N]-CA--C-[N] |==|  0.37808
USER: genes 3 Torsion [C]-N--CA-[C] |==|  0.81667
USER: genes 4 Torsion [N]-CA--C-[N] |==|  0.36405
USER: genes 5 Torsion [C]-N--CA-[C] |==|  0.87684
USER: genes 6 Torsion [N]-CA--C-[N] |==|  0.33046
USER: genes 7 Torsion [N]-CA--CB-[CG2] |==|  0.80427
USER: genes 8 Torsion [CA]-CB--OG1-[HG1] |==|  0.17275
USER: genes 9 Torsion [C]-CA--CB-[CG] |==|  0.72121
USER: genes 10 Torsion [CA]-CB--CG-[CD2] |==|  0.72387
USER: genes 11 Torsion [C]-CA--N-[C] |==|  0.76925
USER: genes 12 Torsion [N]-C--CA-[N] |==|  0.12192
USER: genes 13 Torsion [C]-CA--N-[C] |==|  0.17663
USER: genes 14 Torsion [C]-CA--CB-[CG] |==|  0.37504
USER: genes 15 Torsion [CA]-CB--CG-[CD2] |==|  0.87266
ROOT
ATOM      1  CA  HIS E   2      15.503  -9.787   2.067  1.00 15.97 LIG 0.18  C 
ENDROOT
BRANCH 1 2
ATOM      2  C   HIS E   2      14.095 -10.352   2.141  1.00 15.29 LIG 0.24  C 
ATOM      3  N   THR E   3      13.846 -11.407   1.370  1.00 22.30 LIG-0.34  N 
ATOM      4 H    THR E   3      14.424 -11.756   0.838  1.00 22.30 LIG 0.16  HD
ATOM      5 O    HIS E   2      13.256  -9.856   2.890  1.00 12.62 LIG-0.27  OA
BRANCH 3 6
ATOM      6  CA  THR E   3      12.549 -12.070   1.362  1.00 13.35 LIG 0.20  C 
BRANCH 6 7
ATOM      7  C   THR E   3      12.260 -12.733   2.698  1.00 17.92 LIG 0.24  C 
ATOM      8  N   GLY E   4      11.067 -12.484   3.238  1.00 20.63 LIG-0.35  N 
ATOM      9 H    GLY E   4      10.517 -11.901   2.927  1.00 20.63 LIG 0.16  HD
ATOM     10 O    THR E   3      13.119 -13.412   3.257  1.00 20.63 LIG-0.27  OA
BRANCH 8 11
ATOM     11  CA  GLY E   4      10.584 -13.185   4.416  1.00 21.12 LIG 0.23  C 
BRANCH 11 12
ATOM     12  C   GLY E   4      10.781 -14.689   4.470  1.00 30.37 LIG 0.28  C 
ATOM     13 O    GLY E   4      10.274 -15.408   3.613  1.00 22.56 LIG-0.27  OA
ATOM     14  N   NH2 E   5      11.525 -15.168   5.465  1.00 46.70 LIG-0.11  N 
ENDBRANCH 11 12
ENDBRANCH 8 11
ENDBRANCH 6 7
BRANCH 6 15
ATOM     15  CB  THR E   3      12.487 -13.124   0.243  1.00 21.65 LIG 0.15  C 
ATOM     16  CG2 THR E   3      12.443 -12.472  -1.114  1.00 26.78 LIG 0.04  C 
BRANCH 15 17
ATOM     17 OG1  THR E   3      13.647 -13.961   0.322  1.00 29.20 LIG-0.39  OA
ATOM     18 HG1  THR E   3      13.650 -14.366   1.058  1.00 29.20 LIG 0.21  HD
ENDBRANCH 15 17
ENDBRANCH 6 15
ENDBRANCH 3 6
ENDBRANCH 1 2
BRANCH 1 19
ATOM     19  CB  HIS E   2      16.303 -10.260   3.277  1.00 16.39 LIG 0.10  C 
BRANCH 19 20
ATOM     20  CG  HIS E   2      16.416  -9.237   4.365  1.00 27.51 LIG 0.06  A 
ATOM     21  CD2 HIS E   2      17.418  -8.383   4.682  1.00 25.75 LIG 0.14  A 
ATOM     22 NE2  HIS E   2      17.001  -7.657   5.772  1.00 29.28 LIG-0.25  NA
ATOM     23  CE1 HIS E   2      15.788  -8.052   6.113  1.00 28.87 LIG 0.23  A 
ATOM     24 ND1  HIS E   2      15.409  -9.003   5.277  1.00 29.28 LIG-0.24  NA
ENDBRANCH 19 20
ENDBRANCH 1 19
BRANCH 1 25
ATOM     25  N   HIS E   2      15.496  -8.325   1.998  1.00 15.79 LIG-0.35  N 
ATOM     26 H    HIS E   2      15.615  -7.934   2.755  1.00 15.79 LIG 0.16  HD
ATOM     27  C   PHE E   1      15.318  -7.678   0.852  1.00 15.11 LIG 0.24  C 
ATOM     28 O    PHE E   1      15.139  -8.250  -0.218  1.00 17.78 LIG-0.27  OA
BRANCH 27 29
ATOM     29  CA  PHE E   1      15.340  -6.155   0.924  1.00 10.43 LIG 0.18  C 
BRANCH 29 30
ATOM     30  N   PHE E   1      16.430  -5.693   1.766  1.00 15.82 LIG-0.35  N 
ATOM     31 H    PHE E   1      16.165  -5.272   2.468  1.00 15.82 LIG 0.16  HD
ATOM     32  C   ACE E   0      17.718  -5.896   1.488  1.00 20.55 LIG 0.21  C 
ATOM     33 O    ACE E   0      18.606  -5.500   2.251  1.00 32.51 LIG-0.27  OA
ATOM     34  CH3 ACE E   0      18.037  -6.659   0.234  1.00 11.71 LIG 0.12  C 
ENDBRANCH 29 30
BRANCH 29 35
ATOM     35  CB  PHE E   1      15.458  -5.568  -0.484  1.00  9.28 LIG 0.07  C 
BRANCH 35 36
ATOM     36  CG  PHE E   1      14.525  -4.420  -0.748  1.00 12.52 LIG-0.06  A 
ATOM     37  CD1 PHE E   1      14.982  -3.274  -1.381  1.00 10.90 LIG 0.01  A 
ATOM     38  CE1 PHE E   1      14.132  -2.220  -1.642  1.00 11.94 LIG 0.00  A 
ATOM     39  CZ  PHE E   1      12.806  -2.299  -1.261  1.00  8.92 LIG 0.00  A 
ATOM     40  CE2 PHE E   1      12.337  -3.451  -0.629  1.00  8.81 LIG 0.00  A 
ATOM     41  CD2 PHE E   1      13.190  -4.494  -0.378  1.00 12.38 LIG 0.01  A 
ENDBRANCH 35 36
ENDBRANCH 29 35
ENDBRANCH 27 29
ENDBRANCH 1 25
TORSDOF 14
ENDMDL
MODEL 38
USER: ADFR SOLUTION from run 88
USER: SCORE 11.993268 LL:  -3.131 LR: -10.187 RR:   0.000 FEB:  -6.011
USER: RMSD 7.874641
USER: SEED 87
USER: STATUS no improvement in best in 17 clusters for 5 generations
USER: GENES 16
USER: genes 0 Translation |==|  0.35758 0.26661 0.56179
USER: genes 1 Rotation |==|  0.53511 0.15922 0.35763 0.83522
USER: genes 2 Torsion [N]-CA--C-[N] |==|  0.16665
USER: genes 3 Torsion [C]-N--CA-[C] |==|  0.13665
USER: genes 4 Torsion [N]-CA--C-[N] |==|  0.68770
USER: genes 5 Torsion [C]-N--CA-[C] |==|  0.41640
USER: genes 6 Torsion [N]-CA--C-[N] |==|  0.54476
USER: genes 7 Torsion [N]-CA--CB-[CG2] |==|  0.69938
USER: genes 8 Torsion [CA]-CB--OG1-[HG1] |==|  0.20410
USER: genes 9 Torsion [C]-CA--CB-[CG] |==|  0.31113
USER: genes 10 Torsion [CA]-CB--CG-[CD2] |==|  0.30718
USER: genes 11 Torsion [C]-CA--N-[C] |==|  0.13753
USER: genes 12 Torsion [N]-C--CA-[N] |==|  0.40826
USER: genes 13 Torsion [C]-CA--N-[C] |==|  0.82162
USER: genes 14 Torsion [C]-CA--CB-[CG] |==|  0.03502
USER: genes 15 Torsion [CA]-CB--CG-[CD2] |==|  0.77730
ROOT
ATOM      1  CA  HIS E   2      12.410 -13.577   3.508  1.00 15.97 LIG 0.18  C 
ENDROOT
BRANCH 1 2
ATOM      2  C   HIS E   2      12.393 -13.513   1.990  1.00 15.29 LIG 0.24  C 
ATOM      3  N   THR E   3      13.571 -13.639   1.386  1.00 22.30 LIG-0.34  N 
ATOM      4 H    THR E   3      14.315 -13.734   1.806  1.00 22.30 LIG 0.16  HD
ATOM      5 O    HIS E   2      11.338 -13.367   1.377  1.00 12.62 LIG-0.27  OA
BRANCH 3 6
ATOM      6  CA  THR E   3      13.702 -13.626  -0.065  1.00 13.35 LIG 0.20  C 
BRANCH 6 7
ATOM      7  C   THR E   3      12.960 -12.448  -0.675  1.00 17.92 LIG 0.24  C 
ATOM      8  N   GLY E   4      11.892 -12.740  -1.416  1.00 20.63 LIG-0.35  N 
ATOM      9 H    GLY E   4      11.675 -13.541  -1.643  1.00 20.63 LIG 0.16  HD
ATOM     10 O    THR E   3      13.378 -11.302  -0.525  1.00 20.63 LIG-0.27  OA
BRANCH 8 11
ATOM     11  CA  GLY E   4      10.986 -11.717  -1.913  1.00 21.12 LIG 0.23  C 
BRANCH 11 12
ATOM     12  C   GLY E   4      10.275 -11.985  -3.227  1.00 30.37 LIG 0.28  C 
ATOM     13 O    GLY E   4      10.220 -13.126  -3.677  1.00 22.56 LIG-0.27  OA
ATOM     14  N   NH2 E   5       9.717 -10.941  -3.838  1.00 46.70 LIG-0.11  N 
ENDBRANCH 11 12
ENDBRANCH 8 11
ENDBRANCH 6 7
BRANCH 6 15
ATOM     15  CB  THR E   3      13.167 -14.937  -0.668  1.00 21.65 LIG 0.15  C 
ATOM     16  CG2 THR E   3      14.293 -15.797  -1.178  1.00 26.78 LIG 0.04  C 
BRANCH 15 17
ATOM     17 OG1  THR E   3      12.447 -15.657   0.339  1.00 29.20 LIG-0.39  OA
ATOM     18 HG1  THR E   3      11.710 -15.279   0.481  1.00 29.20 LIG 0.21  HD
ENDBRANCH 15 17
ENDBRANCH 6 15
ENDBRANCH 3 6
ENDBRANCH 1 2
BRANCH 1 19
ATOM     19  CB  HIS E   2      10.980 -13.481   4.033  1.00 16.39 LIG 0.10  C 
BRANCH 19 20
ATOM     20  CG  HIS E   2      10.484 -14.743   4.670  1.00 27.51 LIG 0.06  A 
ATOM     21  CD2 HIS E   2      10.206 -15.038   5.962  1.00 25.75 LIG 0.14  A 
ATOM     22 NE2  HIS E   2       9.780 -16.344   5.996  1.00 29.28 LIG-0.25  NA
ATOM     23  CE1 HIS E   2       9.797 -16.834   4.770  1.00 28.87 LIG 0.23  A 
ATOM     24 ND1  HIS E   2      10.215 -15.886   3.949  1.00 29.28 LIG-0.24  NA
ENDBRANCH 19 20
ENDBRANCH 1 19
BRANCH 1 25
ATOM     25  N   HIS E   2      13.239 -12.519   4.084  1.00 15.79 LIG-0.35  N 
ATOM     26 H    HIS E   2      13.806 -12.792   4.671  1.00 15.79 LIG 0.16  HD
ATOM     27  C   PHE E   1      13.111 -11.249   3.717  1.00 15.11 LIG 0.24  C 
ATOM     28 O    PHE E   1      12.291 -10.872   2.887  1.00 17.78 LIG-0.27  OA
BRANCH 27 29
ATOM     29  CA  PHE E   1      14.044 -10.251   4.394  1.00 10.43 LIG 0.18  C 
BRANCH 29 30
ATOM     30  N   PHE E   1      14.392  -9.171   3.486  1.00 15.82 LIG-0.35  N 
ATOM     31 H    PHE E   1      14.106  -8.401   3.744  1.00 15.82 LIG 0.16  HD
ATOM     32  C   ACE E   0      15.087  -9.344   2.361  1.00 20.55 LIG 0.21  C 
ATOM     33 O    ACE E   0      15.374  -8.386   1.635  1.00 32.51 LIG-0.27  OA
ATOM     34  CH3 ACE E   0      15.536 -10.741   2.040  1.00 11.71 LIG 0.12  C 
ENDBRANCH 29 30
BRANCH 29 35
ATOM     35  CB  PHE E   1      13.389  -9.701   5.662  1.00  9.28 LIG 0.07  C 
BRANCH 35 36
ATOM     36  CG  PHE E   1      12.169 -10.462   6.099  1.00 12.52 LIG-0.06  A 
ATOM     37  CD1 PHE E   1      12.247 -11.388   7.128  1.00 10.90 LIG 0.01  A 
ATOM     38  CE1 PHE E   1      11.131 -12.081   7.547  1.00 11.94 LIG 0.00  A 
ATOM     39  CZ  PHE E   1       9.916 -11.860   6.928  1.00  8.92 LIG 0.00  A 
ATOM     40  CE2 PHE E   1       9.827 -10.926   5.896  1.00  8.81 LIG 0.00  A 
ATOM     41  CD2 PHE E   1      10.942 -10.240   5.491  1.00 12.38 LIG 0.01  A 
ENDBRANCH 35 36
ENDBRANCH 29 35
ENDBRANCH 27 29
ENDBRANCH 1 25
TORSDOF 14
ENDMDL
MODEL 39
USER: ADFR SOLUTION from run 57
USER: SCORE 12.304558 LL:  -3.391 LR: -10.178 RR:   0.000 FEB:  -6.001
USER: RMSD 6.651320
USER: SEED 56
USER: STATUS no improvement in best in 22 clusters for 5 generations
USER: GENES 16
USER: genes 0 Translation |==|  0.54383 0.60693 0.38777
USER: genes 1 Rotation |==|  0.50238 0.91265 0.21832 0.51929
USER: genes 2 Torsion [N]-CA--C-[N] |==|  0.32778
USER: genes 3 Torsion [C]-N--CA-[C] |==|  0.56451
USER: genes 4 Torsion [N]-CA--C-[N] |==|  0.00131
USER: genes 5 Torsion [C]-N--CA-[C] |==|  0.24373
USER: genes 6 Torsion [N]-CA--C-[N] |==|  0.47514
USER: genes 7 Torsion [N]-CA--CB-[CG2] |==|  0.73942
USER: genes 8 Torsion [CA]-CB--OG1-[HG1] |==|  0.78581
USER: genes 9 Torsion [C]-CA--CB-[CG] |==|  0.77443
USER: genes 10 Torsion [CA]-CB--CG-[CD2] |==|  0.76612
USER: genes 11 Torsion [C]-CA--N-[C] |==|  0.87673
USER: genes 12 Torsion [N]-C--CA-[N] |==|  0.97917
USER: genes 13 Torsion [C]-CA--N-[C] |==|  0.76757
USER: genes 14 Torsion [C]-CA--CB-[CG] |==|  0.81408
USER: genes 15 Torsion [CA]-CB--CG-[CD2] |==|  0.14662
ROOT
ATOM      1  CA  HIS E   2      15.902  -6.431   0.636  1.00 15.97 LIG 0.18  C 
ENDROOT
BRANCH 1 2
ATOM      2  C   HIS E   2      17.214  -6.578   1.386  1.00 15.29 LIG 0.24  C 
ATOM      3  N   THR E   3      17.208  -6.192   2.659  1.00 22.30 LIG-0.34  N 
ATOM      4 H    THR E   3      16.521  -5.859   3.053  1.00 22.30 LIG 0.16  HD
ATOM      5 O    HIS E   2      18.208  -7.043   0.832  1.00 12.62 LIG-0.27  OA
BRANCH 3 6
ATOM      6  CA  THR E   3      18.387  -6.304   3.506  1.00 13.35 LIG 0.20  C 
BRANCH 6 7
ATOM      7  C   THR E   3      18.008  -6.351   4.977  1.00 17.92 LIG 0.24  C 
ATOM      8  N   GLY E   4      16.706  -6.295   5.256  1.00 20.63 LIG-0.35  N 
ATOM      9 H    GLY E   4      16.101  -6.131   4.667  1.00 20.63 LIG 0.16  HD
ATOM     10 O    THR E   3      18.878  -6.381   5.845  1.00 20.63 LIG-0.27  OA
BRANCH 8 11
ATOM     11  CA  GLY E   4      16.187  -6.508   6.597  1.00 21.12 LIG 0.23  C 
BRANCH 11 12
ATOM     12  C   GLY E   4      16.095  -5.303   7.516  1.00 30.37 LIG 0.28  C 
ATOM     13 O    GLY E   4      16.590  -4.231   7.179  1.00 22.56 LIG-0.27  OA
ATOM     14  N   NH2 E   5      15.453  -5.469   8.670  1.00 46.70 LIG-0.11  N 
ENDBRANCH 11 12
ENDBRANCH 8 11
ENDBRANCH 6 7
BRANCH 6 15
ATOM     15  CB  THR E   3      19.344  -5.123   3.262  1.00 21.65 LIG 0.15  C 
ATOM     16  CG2 THR E   3      20.390  -5.478   2.238  1.00 26.78 LIG 0.04  C 
BRANCH 15 17
ATOM     17 OG1  THR E   3      18.591  -3.999   2.793  1.00 29.20 LIG-0.39  OA
ATOM     18 HG1  THR E   3      18.399  -4.110   1.983  1.00 29.20 LIG 0.21  HD
ENDBRANCH 15 17
ENDBRANCH 6 15
ENDBRANCH 3 6
ENDBRANCH 1 2
BRANCH 1 19
ATOM     19  CB  HIS E   2      15.439  -7.802   0.153  1.00 16.39 LIG 0.10  C 
BRANCH 19 20
ATOM     20  CG  HIS E   2      16.105  -8.256  -1.109  1.00 27.51 LIG 0.06  A 
ATOM     21  CD2 HIS E   2      15.822  -7.998  -2.407  1.00 25.75 LIG 0.14  A 
ATOM     22 NE2  HIS E   2      16.755  -8.665  -3.165  1.00 29.28 LIG-0.25  NA
ATOM     23  CE1 HIS E   2      17.580  -9.310  -2.361  1.00 28.87 LIG 0.23  A 
ATOM     24 ND1  HIS E   2      17.212  -9.078  -1.113  1.00 29.28 LIG-0.24  NA
ENDBRANCH 19 20
ENDBRANCH 1 19
BRANCH 1 25
ATOM     25  N   HIS E   2      16.024  -5.505  -0.491  1.00 15.79 LIG-0.35  N 
ATOM     26 H    HIS E   2      15.654  -5.781  -1.217  1.00 15.79 LIG 0.16  HD
ATOM     27  C   PHE E   1      16.658  -4.344  -0.379  1.00 15.11 LIG 0.24  C 
ATOM     28 O    PHE E   1      17.189  -3.970   0.660  1.00 17.78 LIG-0.27  OA
BRANCH 27 29
ATOM     29  CA  PHE E   1      16.704  -3.474  -1.631  1.00 10.43 LIG 0.18  C 
BRANCH 29 30
ATOM     30  N   PHE E   1      16.175  -4.192  -2.779  1.00 15.82 LIG-0.35  N 
ATOM     31 H    PHE E   1      15.347  -4.021  -2.937  1.00 15.82 LIG 0.16  HD
ATOM     32  C   ACE E   0      16.893  -5.037  -3.520  1.00 20.55 LIG 0.21  C 
ATOM     33 O    ACE E   0      16.398  -5.605  -4.499  1.00 32.51 LIG-0.27  OA
ATOM     34  CH3 ACE E   0      18.332  -5.232  -3.137  1.00 11.71 LIG 0.12  C 
ENDBRANCH 29 30
BRANCH 29 35
ATOM     35  CB  PHE E   1      15.925  -2.180  -1.396  1.00  9.28 LIG 0.07  C 
BRANCH 35 36
ATOM     36  CG  PHE E   1      14.445  -2.380  -1.228  1.00 12.52 LIG-0.06  A 
ATOM     37  CD1 PHE E   1      13.545  -1.674  -2.013  1.00 10.90 LIG 0.01  A 
ATOM     38  CE1 PHE E   1      12.186  -1.860  -1.877  1.00 11.94 LIG 0.00  A 
ATOM     39  CZ  PHE E   1      11.708  -2.754  -0.940  1.00  8.92 LIG 0.00  A 
ATOM     40  CE2 PHE E   1      12.606  -3.473  -0.150  1.00  8.81 LIG 0.00  A 
ATOM     41  CD2 PHE E   1      13.955  -3.283  -0.296  1.00 12.38 LIG 0.01  A 
ENDBRANCH 35 36
ENDBRANCH 29 35
ENDBRANCH 27 29
ENDBRANCH 1 25
TORSDOF 14
ENDMDL
MODEL 40
USER: ADFR SOLUTION from run 188
USER: SCORE 11.230853 LL:  -2.731 LR: -10.177 RR:   0.000 FEB:  -6.001
USER: RMSD 9.078317
USER: SEED 187
USER: STATUS no improvement in best in 51 clusters for 5 generations
USER: GENES 16
USER: genes 0 Translation |==|  0.43060 0.35883 0.44515
USER: genes 1 Rotation |==|  0.88627 0.20155 0.39329 0.48175
USER: genes 2 Torsion [N]-CA--C-[N] |==|  0.55556
USER: genes 3 Torsion [C]-N--CA-[C] |==|  0.64572
USER: genes 4 Torsion [N]-CA--C-[N] |==|  0.40044
USER: genes 5 Torsion [C]-N--CA-[C] |==|  0.36753
USER: genes 6 Torsion [N]-CA--C-[N] |==|  0.45473
USER: genes 7 Torsion [N]-CA--CB-[CG2] |==|  0.33396
USER: genes 8 Torsion [CA]-CB--OG1-[HG1] |==|  0.92249
USER: genes 9 Torsion [C]-CA--CB-[CG] |==|  0.46283
USER: genes 10 Torsion [CA]-CB--CG-[CD2] |==|  0.58821
USER: genes 11 Torsion [C]-CA--N-[C] |==|  0.67908
USER: genes 12 Torsion [N]-C--CA-[N] |==|  0.57180
USER: genes 13 Torsion [C]-CA--N-[C] |==|  0.64744
USER: genes 14 Torsion [C]-CA--CB-[CG] |==|  0.75659
USER: genes 15 Torsion [CA]-CB--CG-[CD2] |==|  0.74618
ROOT
ATOM      1  CA  HIS E   2      13.779 -11.640   1.583  1.00 15.97 LIG 0.18  C 
ENDROOT
BRANCH 1 2
ATOM      2  C   HIS E   2      14.170 -10.235   2.006  1.00 15.29 LIG 0.24  C 
ATOM      3  N   THR E   3      14.955  -9.568   1.165  1.00 22.30 LIG-0.34  N 
ATOM      4 H    THR E   3      15.252  -9.896   0.427  1.00 22.30 LIG 0.16  HD
ATOM      5 O    HIS E   2      13.760  -9.758   3.062  1.00 12.62 LIG-0.27  OA
BRANCH 3 6
ATOM      6  CA  THR E   3      15.384  -8.201   1.427  1.00 13.35 LIG 0.20  C 
BRANCH 6 7
ATOM      7  C   THR E   3      15.082  -7.291   0.248  1.00 17.92 LIG 0.24  C 
ATOM      8  N   GLY E   4      14.719  -6.043   0.539  1.00 20.63 LIG-0.35  N 
ATOM      9 H    GLY E   4      14.549  -5.771   1.337  1.00 20.63 LIG 0.16  HD
ATOM     10 O    THR E   3      15.124  -7.726  -0.902  1.00 20.63 LIG-0.27  OA
BRANCH 8 11
ATOM     11  CA  GLY E   4      14.573  -5.017  -0.479  1.00 21.12 LIG 0.23  C 
BRANCH 11 12
ATOM     12  C   GLY E   4      13.312  -4.172  -0.453  1.00 30.37 LIG 0.28  C 
ATOM     13 O    GLY E   4      12.341  -4.535   0.205  1.00 22.56 LIG-0.27  OA
ATOM     14  N   NH2 E   5      13.326  -3.040  -1.153  1.00 46.70 LIG-0.11  N 
ENDBRANCH 11 12
ENDBRANCH 8 11
ENDBRANCH 6 7
BRANCH 6 15
ATOM     15  CB  THR E   3      16.892  -8.157   1.736  1.00 21.65 LIG 0.15  C 
ATOM     16  CG2 THR E   3      17.621  -7.287   0.746  1.00 26.78 LIG 0.04  C 
BRANCH 15 17
ATOM     17 OG1  THR E   3      17.085  -7.630   3.053  1.00 29.20 LIG-0.39  OA
ATOM     18 HG1  THR E   3      16.449  -7.117   3.246  1.00 29.20 LIG 0.21  HD
ENDBRANCH 15 17
ENDBRANCH 6 15
ENDBRANCH 3 6
ENDBRANCH 1 2
BRANCH 1 19
ATOM     19  CB  HIS E   2      13.549 -11.669   0.074  1.00 16.39 LIG 0.10  C 
BRANCH 19 20
ATOM     20  CG  HIS E   2      13.471 -13.050  -0.499  1.00 27.51 LIG 0.06  A 
ATOM     21  CD2 HIS E   2      13.832 -13.533  -1.711  1.00 25.75 LIG 0.14  A 
ATOM     22 NE2  HIS E   2      13.544 -14.877  -1.714  1.00 29.28 LIG-0.25  NA
ATOM     23  CE1 HIS E   2      13.024 -15.207  -0.546  1.00 28.87 LIG 0.23  A 
ATOM     24 ND1  HIS E   2      12.971 -14.124   0.208  1.00 29.28 LIG-0.24  NA
ENDBRANCH 19 20
ENDBRANCH 1 19
BRANCH 1 25
ATOM     25  N   HIS E   2      12.586 -12.106   2.291  1.00 15.79 LIG-0.35  N 
ATOM     26 H    HIS E   2      11.873 -11.657   2.117  1.00 15.79 LIG 0.16  HD
ATOM     27  C   PHE E   1      12.624 -13.136   3.128  1.00 15.11 LIG 0.24  C 
ATOM     28 O    PHE E   1      13.651 -13.760   3.374  1.00 17.78 LIG-0.27  OA
BRANCH 27 29
ATOM     29  CA  PHE E   1      11.306 -13.518   3.793  1.00 10.43 LIG 0.18  C 
BRANCH 29 30
ATOM     30  N   PHE E   1      11.542 -14.186   5.062  1.00 15.82 LIG-0.35  N 
ATOM     31 H    PHE E   1      12.053 -13.742   5.592  1.00 15.82 LIG 0.16  HD
ATOM     32  C   ACE E   0      11.022 -15.372   5.382  1.00 20.55 LIG 0.21  C 
ATOM     33 O    ACE E   0      11.238 -15.885   6.485  1.00 32.51 LIG-0.27  OA
ATOM     34  CH3 ACE E   0      10.135 -16.030   4.365  1.00 11.71 LIG 0.12  C 
ENDBRANCH 29 30
BRANCH 29 35
ATOM     35  CB  PHE E   1      10.442 -12.272   3.990  1.00  9.28 LIG 0.07  C 
BRANCH 35 36
ATOM     36  CG  PHE E   1      10.702 -11.545   5.279  1.00 12.52 LIG-0.06  A 
ATOM     37  CD1 PHE E   1      11.666 -10.550   5.344  1.00 10.90 LIG 0.01  A 
ATOM     38  CE1 PHE E   1      11.903  -9.866   6.518  1.00 11.94 LIG 0.00  A 
ATOM     39  CZ  PHE E   1      11.179 -10.180   7.651  1.00  8.92 LIG 0.00  A 
ATOM     40  CE2 PHE E   1      10.203 -11.176   7.594  1.00  8.81 LIG 0.00  A 
ATOM     41  CD2 PHE E   1       9.973 -11.846   6.420  1.00 12.38 LIG 0.01  A 
ENDBRANCH 35 36
ENDBRANCH 29 35
ENDBRANCH 27 29
ENDBRANCH 1 25
TORSDOF 14
ENDMDL
MODEL 41
USER: ADFR SOLUTION from run 186
USER: SCORE 12.290260 LL:  -3.082 LR: -10.167 RR:   0.000 FEB:  -5.991
USER: RMSD 8.835648
USER: SEED 185
USER: STATUS no improvement in best in 27 clusters for 5 generations
USER: GENES 16
USER: genes 0 Translation |==|  0.45854 0.47013 0.71602
USER: genes 1 Rotation |==|  0.65840 0.48515 0.94708 0.65751
USER: genes 2 Torsion [N]-CA--C-[N] |==|  0.35963
USER: genes 3 Torsion [C]-N--CA-[C] |==|  0.63347
USER: genes 4 Torsion [N]-CA--C-[N] |==|  0.86084
USER: genes 5 Torsion [C]-N--CA-[C] |==|  0.69593
USER: genes 6 Torsion [N]-CA--C-[N] |==|  0.46030
USER: genes 7 Torsion [N]-CA--CB-[CG2] |==|  0.63480
USER: genes 8 Torsion [CA]-CB--OG1-[HG1] |==|  0.10435
USER: genes 9 Torsion [C]-CA--CB-[CG] |==|  0.19155
USER: genes 10 Torsion [CA]-CB--CG-[CD2] |==|  0.78608
USER: genes 11 Torsion [C]-CA--N-[C] |==|  0.84155
USER: genes 12 Torsion [N]-C--CA-[N] |==|  0.34624
USER: genes 13 Torsion [C]-CA--N-[C] |==|  0.70377
USER: genes 14 Torsion [C]-CA--CB-[CG] |==|  0.43370
USER: genes 15 Torsion [CA]-CB--CG-[CD2] |==|  0.02637
ROOT
ATOM      1  CA  HIS E   2      14.303  -9.303   6.052  1.00 15.97 LIG 0.18  C 
ENDROOT
BRANCH 1 2
ATOM      2  C   HIS E   2      15.483  -9.480   5.113  1.00 15.29 LIG 0.24  C 
ATOM      3  N   THR E   3      15.844  -8.405   4.418  1.00 22.30 LIG-0.34  N 
ATOM      4 H    THR E   3      15.439  -7.648   4.465  1.00 22.30 LIG 0.16  HD
ATOM      5 O    HIS E   2      16.064 -10.560   5.028  1.00 12.62 LIG-0.27  OA
BRANCH 3 6
ATOM      6  CA  THR E   3      16.976  -8.421   3.502  1.00 13.35 LIG 0.20  C 
BRANCH 6 7
ATOM      7  C   THR E   3      17.887  -7.226   3.728  1.00 17.92 LIG 0.24  C 
ATOM      8  N   GLY E   4      17.298  -6.031   3.770  1.00 20.63 LIG-0.35  N 
ATOM      9 H    GLY E   4      16.470  -5.902   3.575  1.00 20.63 LIG 0.16  HD
ATOM     10 O    THR E   3      19.105  -7.376   3.807  1.00 20.63 LIG-0.27  OA
BRANCH 8 11
ATOM     11  CA  GLY E   4      18.012  -4.825   4.155  1.00 21.12 LIG 0.23  C 
BRANCH 11 12
ATOM     12  C   GLY E   4      17.667  -4.200   5.494  1.00 30.37 LIG 0.28  C 
ATOM     13 O    GLY E   4      16.656  -4.551   6.097  1.00 22.56 LIG-0.27  OA
ATOM     14  N   NH2 E   5      18.508  -3.284   5.971  1.00 46.70 LIG-0.11  N 
ENDBRANCH 11 12
ENDBRANCH 8 11
ENDBRANCH 6 7
BRANCH 6 15
ATOM     15  CB  THR E   3      16.491  -8.426   2.041  1.00 21.65 LIG 0.15  C 
ATOM     16  CG2 THR E   3      17.193  -9.491   1.241  1.00 26.78 LIG 0.04  C 
BRANCH 15 17
ATOM     17 OG1  THR E   3      15.081  -8.676   2.017  1.00 29.20 LIG-0.39  OA
ATOM     18 HG1  THR E   3      14.716  -8.286   2.665  1.00 29.20 LIG 0.21  HD
ENDBRANCH 15 17
ENDBRANCH 6 15
ENDBRANCH 3 6
ENDBRANCH 1 2
BRANCH 1 19
ATOM     19  CB  HIS E   2      14.800  -9.306   7.495  1.00 16.39 LIG 0.10  C 
BRANCH 19 20
ATOM     20  CG  HIS E   2      15.610  -8.099   7.858  1.00 27.51 LIG 0.06  A 
ATOM     21  CD2 HIS E   2      16.892  -7.770   7.575  1.00 25.75 LIG 0.14  A 
ATOM     22 NE2  HIS E   2      17.131  -6.545   8.150  1.00 29.28 LIG-0.25  NA
ATOM     23  CE1 HIS E   2      16.036  -6.137   8.765  1.00 28.87 LIG 0.23  A 
ATOM     24 ND1  HIS E   2      15.100  -7.056   8.602  1.00 29.28 LIG-0.24  NA
ENDBRANCH 19 20
ENDBRANCH 1 19
BRANCH 1 25
ATOM     25  N   HIS E   2      13.295 -10.346   5.856  1.00 15.79 LIG-0.35  N 
ATOM     26 H    HIS E   2      13.112 -10.799   6.564  1.00 15.79 LIG 0.16  HD
ATOM     27  C   PHE E   1      12.724 -10.556   4.676  1.00 15.11 LIG 0.24  C 
ATOM     28 O    PHE E   1      13.003  -9.908   3.673  1.00 17.78 LIG-0.27  OA
BRANCH 27 29
ATOM     29  CA  PHE E   1      11.685 -11.671   4.615  1.00 10.43 LIG 0.18  C 
BRANCH 29 30
ATOM     30  N   PHE E   1      10.421 -11.171   4.100  1.00 15.82 LIG-0.35  N 
ATOM     31 H    PHE E   1      10.434 -11.014   3.255  1.00 15.82 LIG 0.16  HD
ATOM     32  C   ACE E   0       9.341 -10.972   4.857  1.00 20.55 LIG 0.21  C 
ATOM     33 O    ACE E   0       8.283 -10.566   4.363  1.00 32.51 LIG-0.27  OA
ATOM     34  CH3 ACE E   0       9.455 -11.301   6.317  1.00 11.71 LIG 0.12  C 
ENDBRANCH 29 30
BRANCH 29 35
ATOM     35  CB  PHE E   1      12.204 -12.820   3.750  1.00  9.28 LIG 0.07  C 
BRANCH 35 36
ATOM     36  CG  PHE E   1      11.574 -14.150   4.057  1.00 12.52 LIG-0.06  A 
ATOM     37  CD1 PHE E   1      12.088 -15.316   3.510  1.00 10.90 LIG 0.01  A 
ATOM     38  CE1 PHE E   1      11.528 -16.542   3.796  1.00 11.94 LIG 0.00  A 
ATOM     39  CZ  PHE E   1      10.431 -16.615   4.634  1.00  8.92 LIG 0.00  A 
ATOM     40  CE2 PHE E   1       9.912 -15.447   5.194  1.00  8.81 LIG 0.00  A 
ATOM     41  CD2 PHE E   1      10.480 -14.234   4.905  1.00 12.38 LIG 0.01  A 
ENDBRANCH 35 36
ENDBRANCH 29 35
ENDBRANCH 27 29
ENDBRANCH 1 25
TORSDOF 14
ENDMDL
MODEL 42
USER: ADFR SOLUTION from run 68
USER: SCORE 11.900888 LL:  -3.042 LR: -10.163 RR:   0.000 FEB:  -5.987
USER: RMSD 8.770668
USER: SEED 67
USER: STATUS no improvement in best in 19 clusters for 5 generations
USER: GENES 16
USER: genes 0 Translation |==|  0.43771 0.37943 0.45293
USER: genes 1 Rotation |==|  0.12070 0.80448 0.61551 0.50919
USER: genes 2 Torsion [N]-CA--C-[N] |==|  0.58135
USER: genes 3 Torsion [C]-N--CA-[C] |==|  0.62909
USER: genes 4 Torsion [N]-CA--C-[N] |==|  0.40000
USER: genes 5 Torsion [C]-N--CA-[C] |==|  0.32766
USER: genes 6 Torsion [N]-CA--C-[N] |==|  0.46241
USER: genes 7 Torsion [N]-CA--CB-[CG2] |==|  0.34251
USER: genes 8 Torsion [CA]-CB--OG1-[HG1] |==|  0.95907
USER: genes 9 Torsion [C]-CA--CB-[CG] |==|  0.24457
USER: genes 10 Torsion [CA]-CB--CG-[CD2] |==|  0.19017
USER: genes 11 Torsion [C]-CA--N-[C] |==|  0.73095
USER: genes 12 Torsion [N]-C--CA-[N] |==|  0.93430
USER: genes 13 Torsion [C]-CA--N-[C] |==|  0.72267
USER: genes 14 Torsion [C]-CA--CB-[CG] |==|  0.99596
USER: genes 15 Torsion [CA]-CB--CG-[CD2] |==|  0.78660
ROOT
ATOM      1  CA  HIS E   2      13.912 -11.208   1.711  1.00 15.97 LIG 0.18  C 
ENDROOT
BRANCH 1 2
ATOM      2  C   HIS E   2      14.363  -9.810   2.095  1.00 15.29 LIG 0.24  C 
ATOM      3  N   THR E   3      14.950  -9.100   1.136  1.00 22.30 LIG-0.34  N 
ATOM      4 H    THR E   3      15.095  -9.398   0.343  1.00 22.30 LIG 0.16  HD
ATOM      5 O    HIS E   2      14.171  -9.375   3.228  1.00 12.62 LIG-0.27  OA
BRANCH 3 6
ATOM      6  CA  THR E   3      15.406  -7.733   1.354  1.00 13.35 LIG 0.20  C 
BRANCH 6 7
ATOM      7  C   THR E   3      14.980  -6.821   0.215  1.00 17.92 LIG 0.24  C 
ATOM      8  N   GLY E   4      14.647  -5.575   0.547  1.00 20.63 LIG-0.35  N 
ATOM      9 H    GLY E   4      14.563  -5.305   1.359  1.00 20.63 LIG 0.16  HD
ATOM     10 O    THR E   3      14.901  -7.253  -0.933  1.00 20.63 LIG-0.27  OA
BRANCH 8 11
ATOM     11  CA  GLY E   4      14.394  -4.546  -0.448  1.00 21.12 LIG 0.23  C 
BRANCH 11 12
ATOM     12  C   GLY E   4      13.005  -3.933  -0.490  1.00 30.37 LIG 0.28  C 
ATOM     13 O    GLY E   4      12.081  -4.459   0.124  1.00 22.56 LIG-0.27  OA
ATOM     14  N   NH2 E   5      12.856  -2.817  -1.199  1.00 46.70 LIG-0.11  N 
ENDBRANCH 11 12
ENDBRANCH 8 11
ENDBRANCH 6 7
BRANCH 6 15
ATOM     15  CB  THR E   3      16.938  -7.690   1.499  1.00 21.65 LIG 0.15  C 
ATOM     16  CG2 THR E   3      17.552  -6.761   0.486  1.00 26.78 LIG 0.04  C 
BRANCH 15 17
ATOM     17 OG1  THR E   3      17.271  -7.235   2.815  1.00 29.20 LIG-0.39  OA
ATOM     18 HG1  THR E   3      16.592  -6.894   3.174  1.00 29.20 LIG 0.21  HD
ENDBRANCH 15 17
ENDBRANCH 6 15
ENDBRANCH 3 6
ENDBRANCH 1 2
BRANCH 1 19
ATOM     19  CB  HIS E   2      13.598 -11.246   0.218  1.00 16.39 LIG 0.10  C 
BRANCH 19 20
ATOM     20  CG  HIS E   2      14.784 -11.562  -0.641  1.00 27.51 LIG 0.06  A 
ATOM     21  CD2 HIS E   2      15.504 -12.699  -0.780  1.00 25.75 LIG 0.14  A 
ATOM     22 NE2  HIS E   2      16.488 -12.444  -1.705  1.00 29.28 LIG-0.25  NA
ATOM     23  CE1 HIS E   2      16.377 -11.195  -2.118  1.00 28.87 LIG 0.23  A 
ATOM     24 ND1  HIS E   2      15.353 -10.640  -1.494  1.00 29.28 LIG-0.24  NA
ENDBRANCH 19 20
ENDBRANCH 1 19
BRANCH 1 25
ATOM     25  N   HIS E   2      12.749 -11.634   2.490  1.00 15.79 LIG-0.35  N 
ATOM     26 H    HIS E   2      11.995 -11.355   2.183  1.00 15.79 LIG 0.16  HD
ATOM     27  C   PHE E   1      12.870 -12.388   3.576  1.00 15.11 LIG 0.24  C 
ATOM     28 O    PHE E   1      13.952 -12.770   4.008  1.00 17.78 LIG-0.27  OA
BRANCH 27 29
ATOM     29  CA  PHE E   1      11.575 -12.764   4.288  1.00 10.43 LIG 0.18  C 
BRANCH 29 30
ATOM     30  N   PHE E   1      10.524 -11.806   3.988  1.00 15.82 LIG-0.35  N 
ATOM     31 H    PHE E   1      10.148 -11.938   3.225  1.00 15.82 LIG 0.16  HD
ATOM     32  C   ACE E   0      10.168 -10.816   4.808  1.00 20.55 LIG 0.21  C 
ATOM     33 O    ACE E   0       9.252 -10.042   4.512  1.00 32.51 LIG-0.27  OA
ATOM     34  CH3 ACE E   0      10.900 -10.711   6.115  1.00 11.71 LIG 0.12  C 
ENDBRANCH 29 30
BRANCH 29 35
ATOM     35  CB  PHE E   1      11.150 -14.177   3.885  1.00  9.28 LIG 0.07  C 
BRANCH 35 36
ATOM     36  CG  PHE E   1      12.063 -14.828   2.885  1.00 12.52 LIG-0.06  A 
ATOM     37  CD1 PHE E   1      12.961 -15.807   3.285  1.00 10.90 LIG 0.01  A 
ATOM     38  CE1 PHE E   1      13.794 -16.422   2.375  1.00 11.94 LIG 0.00  A 
ATOM     39  CZ  PHE E   1      13.743 -16.054   1.044  1.00  8.92 LIG 0.00  A 
ATOM     40  CE2 PHE E   1      12.838 -15.075   0.632  1.00  8.81 LIG 0.00  A 
ATOM     41  CD2 PHE E   1      12.013 -14.473   1.546  1.00 12.38 LIG 0.01  A 
ENDBRANCH 35 36
ENDBRANCH 29 35
ENDBRANCH 27 29
ENDBRANCH 1 25
TORSDOF 14
ENDMDL
MODEL 43
USER: ADFR SOLUTION from run 83
USER: SCORE 12.188471 LL:  -3.182 LR: -10.160 RR:   0.000 FEB:  -5.983
USER: RMSD 8.697872
USER: SEED 82
USER: STATUS no improvement in best in 29 clusters for 5 generations
USER: GENES 16
USER: genes 0 Translation |==|  0.40619 0.44625 0.64168
USER: genes 1 Rotation |==|  0.44518 0.41110 0.98392 0.57008
USER: genes 2 Torsion [N]-CA--C-[N] |==|  0.25924
USER: genes 3 Torsion [C]-N--CA-[C] |==|  0.77223
USER: genes 4 Torsion [N]-CA--C-[N] |==|  0.90884
USER: genes 5 Torsion [C]-N--CA-[C] |==|  0.17777
USER: genes 6 Torsion [N]-CA--C-[N] |==|  0.64209
USER: genes 7 Torsion [N]-CA--CB-[CG2] |==|  0.84482
USER: genes 8 Torsion [CA]-CB--OG1-[HG1] |==|  0.99090
USER: genes 9 Torsion [C]-CA--CB-[CG] |==|  0.53450
USER: genes 10 Torsion [CA]-CB--CG-[CD2] |==|  0.42630
USER: genes 11 Torsion [C]-CA--N-[C] |==|  0.77965
USER: genes 12 Torsion [N]-C--CA-[N] |==|  0.55034
USER: genes 13 Torsion [C]-CA--N-[C] |==|  0.66134
USER: genes 14 Torsion [C]-CA--CB-[CG] |==|  0.27605
USER: genes 15 Torsion [CA]-CB--CG-[CD2] |==|  0.89597
ROOT
ATOM      1  CA  HIS E   2      13.321  -9.805   4.826  1.00 15.97 LIG 0.18  C 
ENDROOT
BRANCH 1 2
ATOM      2  C   HIS E   2      14.764  -9.594   5.249  1.00 15.29 LIG 0.24  C 
ATOM      3  N   THR E   3      15.467  -8.729   4.523  1.00 22.30 LIG-0.34  N 
ATOM      4 H    THR E   3      15.152  -8.314   3.839  1.00 22.30 LIG 0.16  HD
ATOM      5 O    HIS E   2      15.230 -10.188   6.219  1.00 12.62 LIG-0.27  OA
BRANCH 3 6
ATOM      6  CA  THR E   3      16.853  -8.406   4.832  1.00 13.35 LIG 0.20  C 
BRANCH 6 7
ATOM      7  C   THR E   3      16.946  -7.363   5.933  1.00 17.92 LIG 0.24  C 
ATOM      8  N   GLY E   4      15.971  -6.456   5.974  1.00 20.63 LIG-0.35  N 
ATOM      9 H    GLY E   4      15.372  -6.374   5.361  1.00 20.63 LIG 0.16  HD
ATOM     10 O    THR E   3      17.909  -7.346   6.697  1.00 20.63 LIG-0.27  OA
BRANCH 8 11
ATOM     11  CA  GLY E   4      15.830  -5.512   7.070  1.00 21.12 LIG 0.23  C 
BRANCH 11 12
ATOM     12  C   GLY E   4      16.944  -4.502   7.277  1.00 30.37 LIG 0.28  C 
ATOM     13 O    GLY E   4      17.330  -3.809   6.339  1.00 22.56 LIG-0.27  OA
ATOM     14  N   NH2 E   5      17.453  -4.403   8.503  1.00 46.70 LIG-0.11  N 
ENDBRANCH 11 12
ENDBRANCH 8 11
ENDBRANCH 6 7
BRANCH 6 15
ATOM     15  CB  THR E   3      17.582  -7.893   3.577  1.00 21.65 LIG 0.15  C 
ATOM     16  CG2 THR E   3      17.489  -8.889   2.452  1.00 26.78 LIG 0.04  C 
BRANCH 15 17
ATOM     17 OG1  THR E   3      16.987  -6.659   3.161  1.00 29.20 LIG-0.39  OA
ATOM     18 HG1  THR E   3      16.331  -6.484   3.656  1.00 29.20 LIG 0.21  HD
ENDBRANCH 15 17
ENDBRANCH 6 15
ENDBRANCH 3 6
ENDBRANCH 1 2
BRANCH 1 19
ATOM     19  CB  HIS E   2      12.456 -10.014   6.066  1.00 16.39 LIG 0.10  C 
BRANCH 19 20
ATOM     20  CG  HIS E   2      11.079 -10.520   5.764  1.00 27.51 LIG 0.06  A 
ATOM     21  CD2 HIS E   2      10.216 -11.250   6.508  1.00 25.75 LIG 0.14  A 
ATOM     22 NE2  HIS E   2       9.085 -11.437   5.749  1.00 29.28 LIG-0.25  NA
ATOM     23  CE1 HIS E   2       9.248 -10.844   4.581  1.00 28.87 LIG 0.23  A 
ATOM     24 ND1  HIS E   2      10.443 -10.279   4.564  1.00 29.28 LIG-0.24  NA
ENDBRANCH 19 20
ENDBRANCH 1 19
BRANCH 1 25
ATOM     25  N   HIS E   2      13.186 -10.938   3.910  1.00 15.79 LIG-0.35  N 
ATOM     26 H    HIS E   2      12.904 -11.661   4.281  1.00 15.79 LIG 0.16  HD
ATOM     27  C   PHE E   1      13.482 -10.836   2.620  1.00 15.11 LIG 0.24  C 
ATOM     28 O    PHE E   1      13.894  -9.801   2.108  1.00 17.78 LIG-0.27  OA
BRANCH 27 29
ATOM     29  CA  PHE E   1      13.289 -12.094   1.779  1.00 10.43 LIG 0.18  C 
BRANCH 29 30
ATOM     30  N   PHE E   1      14.023 -11.997   0.528  1.00 15.82 LIG-0.35  N 
ATOM     31 H    PHE E   1      14.868 -11.873   0.636  1.00 15.82 LIG 0.16  HD
ATOM     32  C   ACE E   0      13.454 -12.090  -0.674  1.00 20.55 LIG 0.21  C 
ATOM     33 O    ACE E   0      14.129 -12.023  -1.706  1.00 32.51 LIG-0.27  OA
ATOM     34  CH3 ACE E   0      11.970 -12.321  -0.714  1.00 11.71 LIG 0.12  C 
ENDBRANCH 29 30
BRANCH 29 35
ATOM     35  CB  PHE E   1      13.732 -13.324   2.572  1.00  9.28 LIG 0.07  C 
BRANCH 35 36
ATOM     36  CG  PHE E   1      12.601 -14.082   3.207  1.00 12.52 LIG-0.06  A 
ATOM     37  CD1 PHE E   1      12.636 -15.467   3.281  1.00 10.90 LIG 0.01  A 
ATOM     38  CE1 PHE E   1      11.611 -16.173   3.874  1.00 11.94 LIG 0.00  A 
ATOM     39  CZ  PHE E   1      10.526 -15.495   4.396  1.00  8.92 LIG 0.00  A 
ATOM     40  CE2 PHE E   1      10.486 -14.101   4.332  1.00  8.81 LIG 0.00  A 
ATOM     41  CD2 PHE E   1      11.513 -13.410   3.743  1.00 12.38 LIG 0.01  A 
ENDBRANCH 35 36
ENDBRANCH 29 35
ENDBRANCH 27 29
ENDBRANCH 1 25
TORSDOF 14
ENDMDL
MODEL 44
USER: ADFR SOLUTION from run 144
USER: SCORE 12.493585 LL:  -3.299 LR: -10.143 RR:   0.000 FEB:  -5.967
USER: RMSD 7.835797
USER: SEED 143
USER: STATUS no improvement in best in 14 clusters for 5 generations
USER: GENES 16
USER: genes 0 Translation |==|  0.48901 0.46469 0.69682
USER: genes 1 Rotation |==|  0.69698 0.48428 0.93557 0.64571
USER: genes 2 Torsion [N]-CA--C-[N] |==|  0.35274
USER: genes 3 Torsion [C]-N--CA-[C] |==|  0.62223
USER: genes 4 Torsion [N]-CA--C-[N] |==|  0.94981
USER: genes 5 Torsion [C]-N--CA-[C] |==|  0.57370
USER: genes 6 Torsion [N]-CA--C-[N] |==|  0.51356
USER: genes 7 Torsion [N]-CA--CB-[CG2] |==|  0.65184
USER: genes 8 Torsion [CA]-CB--OG1-[HG1] |==|  0.10403
USER: genes 9 Torsion [C]-CA--CB-[CG] |==|  0.31106
USER: genes 10 Torsion [CA]-CB--CG-[CD2] |==|  0.27434
USER: genes 11 Torsion [C]-CA--N-[C] |==|  0.82841
USER: genes 12 Torsion [N]-C--CA-[N] |==|  0.38363
USER: genes 13 Torsion [C]-CA--N-[C] |==|  0.70598
USER: genes 14 Torsion [C]-CA--CB-[CG] |==|  0.83285
USER: genes 15 Torsion [CA]-CB--CG-[CD2] |==|  0.23197
ROOT
ATOM      1  CA  HIS E   2      14.874  -9.418   5.736  1.00 15.97 LIG 0.18  C 
ENDROOT
BRANCH 1 2
ATOM      2  C   HIS E   2      15.903  -9.490   4.621  1.00 15.29 LIG 0.24  C 
ATOM      3  N   THR E   3      16.091  -8.373   3.924  1.00 22.30 LIG-0.34  N 
ATOM      4 H    THR E   3      15.655  -7.644   4.063  1.00 22.30 LIG 0.16  HD
ATOM      5 O    HIS E   2      16.526 -10.527   4.405  1.00 12.62 LIG-0.27  OA
BRANCH 3 6
ATOM      6  CA  THR E   3      17.067  -8.288   2.846  1.00 13.35 LIG 0.20  C 
BRANCH 6 7
ATOM      7  C   THR E   3      17.865  -6.997   2.924  1.00 17.92 LIG 0.24  C 
ATOM      8  N   GLY E   4      17.341  -6.020   3.663  1.00 20.63 LIG-0.35  N 
ATOM      9 H    GLY E   4      16.550  -6.049   3.998  1.00 20.63 LIG 0.16  HD
ATOM     10 O    THR E   3      18.906  -6.867   2.283  1.00 20.63 LIG-0.27  OA
BRANCH 8 11
ATOM     11  CA  GLY E   4      18.071  -4.802   3.973  1.00 21.12 LIG 0.23  C 
BRANCH 11 12
ATOM     12  C   GLY E   4      17.701  -4.064   5.247  1.00 30.37 LIG 0.28  C 
ATOM     13 O    GLY E   4      16.886  -4.551   6.027  1.00 22.56 LIG-0.27  OA
ATOM     14  N   NH2 E   5      18.305  -2.899   5.470  1.00 46.70 LIG-0.11  N 
ENDBRANCH 11 12
ENDBRANCH 8 11
ENDBRANCH 6 7
BRANCH 6 15
ATOM     15  CB  THR E   3      16.371  -8.379   1.477  1.00 21.65 LIG 0.15  C 
ATOM     16  CG2 THR E   3      16.963  -9.483   0.641  1.00 26.78 LIG 0.04  C 
BRANCH 15 17
ATOM     17 OG1  THR E   3      14.977  -8.638   1.676  1.00 29.20 LIG-0.39  OA
ATOM     18 HG1  THR E   3      14.707  -8.215   2.350  1.00 29.20 LIG 0.21  HD
ENDBRANCH 15 17
ENDBRANCH 6 15
ENDBRANCH 3 6
ENDBRANCH 1 2
BRANCH 1 19
ATOM     19  CB  HIS E   2      15.583  -9.497   7.085  1.00 16.39 LIG 0.10  C 
BRANCH 19 20
ATOM     20  CG  HIS E   2      15.519  -8.227   7.876  1.00 27.51 LIG 0.06  A 
ATOM     21  CD2 HIS E   2      14.707  -7.851   8.892  1.00 25.75 LIG 0.14  A 
ATOM     22 NE2  HIS E   2      15.080  -6.580   9.259  1.00 29.28 LIG-0.25  NA
ATOM     23  CE1 HIS E   2      16.083  -6.189   8.495  1.00 28.87 LIG 0.23  A 
ATOM     24 ND1  HIS E   2      16.371  -7.166   7.653  1.00 29.28 LIG-0.24  NA
ENDBRANCH 19 20
ENDBRANCH 1 19
BRANCH 1 25
ATOM     25  N   HIS E   2      13.875 -10.481   5.619  1.00 15.79 LIG-0.35  N 
ATOM     26 H    HIS E   2      13.857 -11.025   6.285  1.00 15.79 LIG 0.16  HD
ATOM     27  C   PHE E   1      13.075 -10.578   4.563  1.00 15.11 LIG 0.24  C 
ATOM     28 O    PHE E   1      13.120  -9.801   3.616  1.00 17.78 LIG-0.27  OA
BRANCH 27 29
ATOM     29  CA  PHE E   1      12.077 -11.731   4.574  1.00 10.43 LIG 0.18  C 
BRANCH 29 30
ATOM     30  N   PHE E   1      10.778 -11.294   4.090  1.00 15.82 LIG-0.35  N 
ATOM     31 H    PHE E   1      10.753 -11.176   3.238  1.00 15.82 LIG 0.16  HD
ATOM     32  C   ACE E   0       9.722 -11.094   4.879  1.00 20.55 LIG 0.21  C 
ATOM     33 O    ACE E   0       8.634 -10.743   4.411  1.00 32.51 LIG-0.27  OA
ATOM     34  CH3 ACE E   0       9.904 -11.353   6.347  1.00 11.71 LIG 0.12  C 
ENDBRANCH 29 30
BRANCH 29 35
ATOM     35  CB  PHE E   1      12.608 -12.889   3.729  1.00  9.28 LIG 0.07  C 
BRANCH 35 36
ATOM     36  CG  PHE E   1      12.846 -12.536   2.288  1.00 12.52 LIG-0.06  A 
ATOM     37  CD1 PHE E   1      11.879 -12.802   1.329  1.00 10.90 LIG 0.01  A 
ATOM     38  CE1 PHE E   1      12.080 -12.468   0.007  1.00 11.94 LIG 0.00  A 
ATOM     39  CZ  PHE E   1      13.264 -11.869  -0.376  1.00  8.92 LIG 0.00  A 
ATOM     40  CE2 PHE E   1      14.239 -11.592   0.583  1.00  8.81 LIG 0.00  A 
ATOM     41  CD2 PHE E   1      14.027 -11.924   1.896  1.00 12.38 LIG 0.01  A 
ENDBRANCH 35 36
ENDBRANCH 29 35
ENDBRANCH 27 29
ENDBRANCH 1 25
TORSDOF 14
ENDMDL
MODEL 45
USER: ADFR SOLUTION from run 30
USER: SCORE 11.977005 LL:  -2.836 LR: -10.114 RR:   0.000 FEB:  -5.938
USER: RMSD 9.623657
USER: SEED 29
USER: STATUS no improvement in best in 61 clusters for 5 generations
USER: GENES 16
USER: genes 0 Translation |==|  0.44328 0.38306 0.50953
USER: genes 1 Rotation |==|  0.11910 0.79085 0.61354 0.58619
USER: genes 2 Torsion [N]-CA--C-[N] |==|  0.14798
USER: genes 3 Torsion [C]-N--CA-[C] |==|  0.83503
USER: genes 4 Torsion [N]-CA--C-[N] |==|  0.36138
USER: genes 5 Torsion [C]-N--CA-[C] |==|  0.57134
USER: genes 6 Torsion [N]-CA--C-[N] |==|  0.55000
USER: genes 7 Torsion [N]-CA--CB-[CG2] |==|  0.46840
USER: genes 8 Torsion [CA]-CB--OG1-[HG1] |==|  0.62171
USER: genes 9 Torsion [C]-CA--CB-[CG] |==|  0.52348
USER: genes 10 Torsion [CA]-CB--CG-[CD2] |==|  0.88259
USER: genes 11 Torsion [C]-CA--N-[C] |==|  0.75375
USER: genes 12 Torsion [N]-C--CA-[N] |==|  0.93378
USER: genes 13 Torsion [C]-CA--N-[C] |==|  0.70476
USER: genes 14 Torsion [C]-CA--CB-[CG] |==|  0.36587
USER: genes 15 Torsion [CA]-CB--CG-[CD2] |==|  0.96022
ROOT
ATOM      1  CA  HIS E   2      14.016 -11.132   2.645  1.00 15.97 LIG 0.18  C 
ENDROOT
BRANCH 1 2
ATOM      2  C   HIS E   2      14.385  -9.887   3.433  1.00 15.29 LIG 0.24  C 
ATOM      3  N   THR E   3      14.354 -10.002   4.758  1.00 22.30 LIG-0.34  N 
ATOM      4 H    THR E   3      14.125 -10.722   5.169  1.00 22.30 LIG 0.16  HD
ATOM      5 O    HIS E   2      14.706  -8.849   2.859  1.00 12.62 LIG-0.27  OA
BRANCH 3 6
ATOM      6  CA  THR E   3      14.713  -8.899   5.639  1.00 13.35 LIG 0.20  C 
BRANCH 6 7
ATOM      7  C   THR E   3      16.140  -8.438   5.394  1.00 17.92 LIG 0.24  C 
ATOM      8  N   GLY E   4      16.319  -7.129   5.222  1.00 20.63 LIG-0.35  N 
ATOM      9 H    GLY E   4      15.673  -6.567   5.140  1.00 20.63 LIG 0.16  HD
ATOM     10 O    THR E   3      17.054  -9.256   5.307  1.00 20.63 LIG-0.27  OA
BRANCH 8 11
ATOM     11  CA  GLY E   4      17.640  -6.526   5.157  1.00 21.12 LIG 0.23  C 
BRANCH 11 12
ATOM     12  C   GLY E   4      17.767  -5.066   5.552  1.00 30.37 LIG 0.28  C 
ATOM     13 O    GLY E   4      16.889  -4.530   6.223  1.00 22.56 LIG-0.27  OA
ATOM     14  N   NH2 E   5      18.862  -4.423   5.153  1.00 46.70 LIG-0.11  N 
ENDBRANCH 11 12
ENDBRANCH 8 11
ENDBRANCH 6 7
BRANCH 6 15
ATOM     15  CB  THR E   3      14.553  -9.310   7.114  1.00 21.65 LIG 0.15  C 
ATOM     16  CG2 THR E   3      15.176  -8.290   8.030  1.00 26.78 LIG 0.04  C 
BRANCH 15 17
ATOM     17 OG1  THR E   3      13.160  -9.426   7.420  1.00 29.20 LIG-0.39  OA
ATOM     18 HG1  THR E   3      13.005  -9.066   8.163  1.00 29.20 LIG 0.21  HD
ENDBRANCH 15 17
ENDBRANCH 6 15
ENDBRANCH 3 6
ENDBRANCH 1 2
BRANCH 1 19
ATOM     19  CB  HIS E   2      14.002 -10.801   1.155  1.00 16.39 LIG 0.10  C 
BRANCH 19 20
ATOM     20  CG  HIS E   2      13.457 -11.901   0.297  1.00 27.51 LIG 0.06  A 
ATOM     21  CD2 HIS E   2      13.650 -13.240   0.338  1.00 25.75 LIG 0.14  A 
ATOM     22 NE2  HIS E   2      12.909 -13.787  -0.682  1.00 29.28 LIG-0.25  NA
ATOM     23  CE1 HIS E   2      12.283 -12.819  -1.326  1.00 28.87 LIG 0.23  A 
ATOM     24 ND1  HIS E   2      12.595 -11.669  -0.753  1.00 29.28 LIG-0.24  NA
ENDBRANCH 19 20
ENDBRANCH 1 19
BRANCH 1 25
ATOM     25  N   HIS E   2      12.722 -11.671   3.062  1.00 15.79 LIG-0.35  N 
ATOM     26 H    HIS E   2      12.052 -11.370   2.615  1.00 15.79 LIG 0.16  HD
ATOM     27  C   PHE E   1      12.614 -12.551   4.051  1.00 15.11 LIG 0.24  C 
ATOM     28 O    PHE E   1      13.578 -12.964   4.686  1.00 17.78 LIG-0.27  OA
BRANCH 27 29
ATOM     29  CA  PHE E   1      11.205 -13.035   4.377  1.00 10.43 LIG 0.18  C 
BRANCH 29 30
ATOM     30  N   PHE E   1      10.213 -12.065   3.946  1.00 15.82 LIG-0.35  N 
ATOM     31 H    PHE E   1      10.102 -12.045   3.093  1.00 15.82 LIG 0.16  HD
ATOM     32  C   ACE E   0       9.536 -11.277   4.782  1.00 20.55 LIG 0.21  C 
ATOM     33 O    ACE E   0       8.687 -10.483   4.363  1.00 32.51 LIG-0.27  OA
ATOM     34  CH3 ACE E   0       9.821 -11.426   6.248  1.00 11.71 LIG 0.12  C 
ENDBRANCH 29 30
BRANCH 29 35
ATOM     35  CB  PHE E   1      10.956 -14.393   3.719  1.00  9.28 LIG 0.07  C 
BRANCH 35 36
ATOM     36  CG  PHE E   1      10.368 -15.422   4.643  1.00 12.52 LIG-0.06  A 
ATOM     37  CD1 PHE E   1       9.829 -16.596   4.138  1.00 10.90 LIG 0.01  A 
ATOM     38  CE1 PHE E   1       9.301 -17.554   4.977  1.00 11.94 LIG 0.00  A 
ATOM     39  CZ  PHE E   1       9.296 -17.340   6.342  1.00  8.92 LIG 0.00  A 
ATOM     40  CE2 PHE E   1       9.842 -16.165   6.859  1.00  8.81 LIG 0.00  A 
ATOM     41  CD2 PHE E   1      10.368 -15.221   6.015  1.00 12.38 LIG 0.01  A 
ENDBRANCH 35 36
ENDBRANCH 29 35
ENDBRANCH 27 29
ENDBRANCH 1 25
TORSDOF 14
ENDMDL
MODEL 46
USER: ADFR SOLUTION from run 132
USER: SCORE 12.422131 LL:  -3.217 LR: -10.106 RR:   0.000 FEB:  -5.930
USER: RMSD 5.029644
USER: SEED 131
USER: STATUS no improvement in best in 14 clusters for 5 generations
USER: GENES 16
USER: genes 0 Translation |==|  0.68590 0.55962 0.50505
USER: genes 1 Rotation |==|  0.46634 0.82051 0.39255 0.86687
USER: genes 2 Torsion [N]-CA--C-[N] |==|  0.14380
USER: genes 3 Torsion [C]-N--CA-[C] |==|  0.71792
USER: genes 4 Torsion [N]-CA--C-[N] |==|  0.96501
USER: genes 5 Torsion [C]-N--CA-[C] |==|  0.48339
USER: genes 6 Torsion [N]-CA--C-[N] |==|  0.53854
USER: genes 7 Torsion [N]-CA--CB-[CG2] |==|  0.52823
USER: genes 8 Torsion [CA]-CB--OG1-[HG1] |==|  0.43419
USER: genes 9 Torsion [C]-CA--CB-[CG] |==|  0.76961
USER: genes 10 Torsion [CA]-CB--CG-[CD2] |==|  0.27404
USER: genes 11 Torsion [C]-CA--N-[C] |==|  0.74226
USER: genes 12 Torsion [N]-C--CA-[N] |==|  0.02382
USER: genes 13 Torsion [C]-CA--N-[C] |==|  0.76111
USER: genes 14 Torsion [C]-CA--CB-[CG] |==|  0.26924
USER: genes 15 Torsion [CA]-CB--CG-[CD2] |==|  0.29187
ROOT
ATOM      1  CA  HIS E   2      18.566  -7.424   2.571  1.00 15.97 LIG 0.18  C 
ENDROOT
BRANCH 1 2
ATOM      2  C   HIS E   2      18.237  -7.483   4.053  1.00 15.29 LIG 0.24  C 
ATOM      3  N   THR E   3      17.080  -6.937   4.418  1.00 22.30 LIG-0.34  N 
ATOM      4 H    THR E   3      16.541  -6.551   3.871  1.00 22.30 LIG 0.16  HD
ATOM      5 O    HIS E   2      19.003  -8.023   4.847  1.00 12.62 LIG-0.27  OA
BRANCH 3 6
ATOM      6  CA  THR E   3      16.622  -6.948   5.801  1.00 13.35 LIG 0.20  C 
BRANCH 6 7
ATOM      7  C   THR E   3      15.572  -8.023   6.027  1.00 17.92 LIG 0.24  C 
ATOM      8  N   GLY E   4      15.054  -8.585   4.935  1.00 20.63 LIG-0.35  N 
ATOM      9 H    GLY E   4      15.204  -8.301   4.137  1.00 20.63 LIG 0.16  HD
ATOM     10 O    THR E   3      15.198  -8.300   7.164  1.00 20.63 LIG-0.27  OA
BRANCH 8 11
ATOM     11  CA  GLY E   4      14.178  -9.743   4.997  1.00 21.12 LIG 0.23  C 
BRANCH 11 12
ATOM     12  C   GLY E   4      13.538 -10.211   3.702  1.00 30.37 LIG 0.28  C 
ATOM     13 O    GLY E   4      13.959  -9.803   2.623  1.00 22.56 LIG-0.27  OA
ATOM     14  N   NH2 E   5      12.531 -11.076   3.802  1.00 46.70 LIG-0.11  N 
ENDBRANCH 11 12
ENDBRANCH 8 11
ENDBRANCH 6 7
BRANCH 6 15
ATOM     15  CB  THR E   3      16.042  -5.576   6.189  1.00 21.65 LIG 0.15  C 
ATOM     16  CG2 THR E   3      15.794  -5.494   7.672  1.00 26.78 LIG 0.04  C 
BRANCH 15 17
ATOM     17 OG1  THR E   3      16.969  -4.551   5.812  1.00 29.20 LIG-0.39  OA
ATOM     18 HG1  THR E   3      16.559  -3.825   5.713  1.00 29.20 LIG 0.21  HD
ENDBRANCH 15 17
ENDBRANCH 6 15
ENDBRANCH 3 6
ENDBRANCH 1 2
BRANCH 1 19
ATOM     19  CB  HIS E   2      19.976  -7.962   2.345  1.00 16.39 LIG 0.10  C 
BRANCH 19 20
ATOM     20  CG  HIS E   2      21.054  -6.951   2.582  1.00 27.51 LIG 0.06  A 
ATOM     21  CD2 HIS E   2      21.850  -6.734   3.656  1.00 25.75 LIG 0.14  A 
ATOM     22 NE2  HIS E   2      22.671  -5.677   3.344  1.00 29.28 LIG-0.25  NA
ATOM     23  CE1 HIS E   2      22.389  -5.259   2.123  1.00 28.87 LIG 0.23  A 
ATOM     24 ND1  HIS E   2      21.418  -6.013   1.639  1.00 29.28 LIG-0.24  NA
ENDBRANCH 19 20
ENDBRANCH 1 19
BRANCH 1 25
ATOM     25  N   HIS E   2      18.446  -6.064   2.045  1.00 15.79 LIG-0.35  N 
ATOM     26 H    HIS E   2      19.159  -5.589   2.125  1.00 15.79 LIG 0.16  HD
ATOM     27  C   PHE E   1      17.321  -5.621   1.496  1.00 15.11 LIG 0.24  C 
ATOM     28 O    PHE E   1      16.310  -6.306   1.399  1.00 17.78 LIG-0.27  OA
BRANCH 27 29
ATOM     29  CA  PHE E   1      17.338  -4.185   0.982  1.00 10.43 LIG 0.18  C 
BRANCH 29 30
ATOM     30  N   PHE E   1      18.684  -3.637   1.024  1.00 15.82 LIG-0.35  N 
ATOM     31 H    PHE E   1      19.111  -3.723   0.282  1.00 15.82 LIG 0.16  HD
ATOM     32  C   ACE E   0      19.214  -3.056   2.101  1.00 20.55 LIG 0.21  C 
ATOM     33 O    ACE E   0      20.356  -2.586   2.075  1.00 32.51 LIG-0.27  OA
ATOM     34  CH3 ACE E   0      18.349  -2.961   3.325  1.00 11.71 LIG 0.12  C 
ENDBRANCH 29 30
BRANCH 29 35
ATOM     35  CB  PHE E   1      16.777  -4.133  -0.439  1.00  9.28 LIG 0.07  C 
BRANCH 35 36
ATOM     36  CG  PHE E   1      15.324  -3.754  -0.510  1.00 12.52 LIG-0.06  A 
ATOM     37  CD1 PHE E   1      14.342  -4.662  -0.142  1.00 10.90 LIG 0.01  A 
ATOM     38  CE1 PHE E   1      13.007  -4.321  -0.189  1.00 11.94 LIG 0.00  A 
ATOM     39  CZ  PHE E   1      12.637  -3.060  -0.616  1.00  8.92 LIG 0.00  A 
ATOM     40  CE2 PHE E   1      13.619  -2.139  -0.982  1.00  8.81 LIG 0.00  A 
ATOM     41  CD2 PHE E   1      14.943  -2.488  -0.927  1.00 12.38 LIG 0.01  A 
ENDBRANCH 35 36
ENDBRANCH 29 35
ENDBRANCH 27 29
ENDBRANCH 1 25
TORSDOF 14
ENDMDL
MODEL 47
USER: ADFR SOLUTION from run 52
USER: SCORE 12.712456 LL:  -3.307 LR: -10.112 RR:   0.000 FEB:  -5.936
USER: RMSD 8.045419
USER: SEED 51
USER: STATUS no improvement in best in 29 clusters for 5 generations
USER: GENES 16
USER: genes 0 Translation |==|  0.59007 0.58663 0.41093
USER: genes 1 Rotation |==|  0.75997 0.21011 0.25995 0.70188
USER: genes 2 Torsion [N]-CA--C-[N] |==|  0.47778
USER: genes 3 Torsion [C]-N--CA-[C] |==|  0.80321
USER: genes 4 Torsion [N]-CA--C-[N] |==|  0.95845
USER: genes 5 Torsion [C]-N--CA-[C] |==|  0.50341
USER: genes 6 Torsion [N]-CA--C-[N] |==|  0.55642
USER: genes 7 Torsion [N]-CA--CB-[CG2] |==|  0.87922
USER: genes 8 Torsion [CA]-CB--OG1-[HG1] |==|  0.41421
USER: genes 9 Torsion [C]-CA--CB-[CG] |==|  0.41193
USER: genes 10 Torsion [CA]-CB--CG-[CD2] |==|  0.79876
USER: genes 11 Torsion [C]-CA--N-[C] |==|  0.62879
USER: genes 12 Torsion [N]-C--CA-[N] |==|  0.04217
USER: genes 13 Torsion [C]-CA--N-[C] |==|  0.65915
USER: genes 14 Torsion [C]-CA--CB-[CG] |==|  0.77030
USER: genes 15 Torsion [CA]-CB--CG-[CD2] |==|  0.21139
ROOT
ATOM      1  CA  HIS E   2      16.769  -6.857   1.018  1.00 15.97 LIG 0.18  C 
ENDROOT
BRANCH 1 2
ATOM      2  C   HIS E   2      17.153  -5.521   0.406  1.00 15.29 LIG 0.24  C 
ATOM      3  N   THR E   3      17.216  -5.483  -0.922  1.00 22.30 LIG-0.34  N 
ATOM      4 H    THR E   3      17.071  -6.164  -1.427  1.00 22.30 LIG 0.16  HD
ATOM      5 O    HIS E   2      17.372  -4.542   1.115  1.00 12.62 LIG-0.27  OA
BRANCH 3 6
ATOM      6  CA  THR E   3      17.543  -4.262  -1.646  1.00 13.35 LIG 0.20  C 
BRANCH 6 7
ATOM      7  C   THR E   3      16.407  -3.255  -1.571  1.00 17.92 LIG 0.24  C 
ATOM      8  N   GLY E   4      15.228  -3.720  -1.161  1.00 20.63 LIG-0.35  N 
ATOM      9 H    GLY E   4      15.061  -4.556  -1.044  1.00 20.63 LIG 0.16  HD
ATOM     10 O    THR E   3      16.580  -2.092  -1.929  1.00 20.63 LIG-0.27  OA
BRANCH 8 11
ATOM     11  CA  GLY E   4      14.104  -2.845  -0.870  1.00 21.12 LIG 0.23  C 
BRANCH 11 12
ATOM     12  C   GLY E   4      12.819  -3.489  -0.382  1.00 30.37 LIG 0.28  C 
ATOM     13 O    GLY E   4      12.842  -4.610   0.118  1.00 22.56 LIG-0.27  OA
ATOM     14  N   NH2 E   5      11.699  -2.781  -0.512  1.00 46.70 LIG-0.11  N 
ENDBRANCH 11 12
ENDBRANCH 8 11
ENDBRANCH 6 7
BRANCH 6 15
ATOM     15  CB  THR E   3      17.854  -4.573  -3.121  1.00 21.65 LIG 0.15  C 
ATOM     16  CG2 THR E   3      18.731  -5.792  -3.243  1.00 26.78 LIG 0.04  C 
BRANCH 15 17
ATOM     17 OG1  THR E   3      16.626  -4.807  -3.820  1.00 29.20 LIG-0.39  OA
ATOM     18 HG1  THR E   3      16.709  -4.564  -4.620  1.00 29.20 LIG 0.21  HD
ENDBRANCH 15 17
ENDBRANCH 6 15
ENDBRANCH 3 6
ENDBRANCH 1 2
BRANCH 1 19
ATOM     19  CB  HIS E   2      15.335  -7.201   0.624  1.00 16.39 LIG 0.10  C 
BRANCH 19 20
ATOM     20  CG  HIS E   2      15.082  -8.670   0.485  1.00 27.51 LIG 0.06  A 
ATOM     21  CD2 HIS E   2      15.473  -9.555  -0.463  1.00 25.75 LIG 0.14  A 
ATOM     22 NE2  HIS E   2      14.967 -10.781  -0.105  1.00 29.28 LIG-0.25  NA
ATOM     23  CE1 HIS E   2      14.290 -10.655   1.022  1.00 28.87 LIG 0.23  A 
ATOM     24 ND1  HIS E   2      14.346  -9.390   1.402  1.00 29.28 LIG-0.24  NA
ENDBRANCH 19 20
ENDBRANCH 1 19
BRANCH 1 25
ATOM     25  N   HIS E   2      16.910  -6.844   2.475  1.00 15.79 LIG-0.35  N 
ATOM     26 H    HIS E   2      16.576  -6.150   2.857  1.00 15.79 LIG 0.16  HD
ATOM     27  C   PHE E   1      17.508  -7.832   3.130  1.00 15.11 LIG 0.24  C 
ATOM     28 O    PHE E   1      17.989  -8.811   2.570  1.00 17.78 LIG-0.27  OA
BRANCH 27 29
ATOM     29  CA  PHE E   1      17.580  -7.693   4.647  1.00 10.43 LIG 0.18  C 
BRANCH 29 30
ATOM     30  N   PHE E   1      16.664  -6.666   5.115  1.00 15.82 LIG-0.35  N 
ATOM     31 H    PHE E   1      15.846  -6.808   4.889  1.00 15.82 LIG 0.16  HD
ATOM     32  C   ACE E   0      17.044  -5.604   5.828  1.00 20.55 LIG 0.21  C 
ATOM     33 O    ACE E   0      16.219  -4.772   6.220  1.00 32.51 LIG-0.27  OA
ATOM     34  CH3 ACE E   0      18.502  -5.490   6.165  1.00 11.71 LIG 0.12  C 
ENDBRANCH 29 30
BRANCH 29 35
ATOM     35  CB  PHE E   1      17.271  -9.036   5.309  1.00  9.28 LIG 0.07  C 
BRANCH 35 36
ATOM     36  CG  PHE E   1      15.803  -9.325   5.449  1.00 12.52 LIG-0.06  A 
ATOM     37  CD1 PHE E   1      15.172  -9.184   6.676  1.00 10.90 LIG 0.01  A 
ATOM     38  CE1 PHE E   1      13.823  -9.433   6.814  1.00 11.94 LIG 0.00  A 
ATOM     39  CZ  PHE E   1      13.086  -9.837   5.718  1.00  8.92 LIG 0.00  A 
ATOM     40  CE2 PHE E   1      13.712  -9.976   4.478  1.00  8.81 LIG 0.00  A 
ATOM     41  CD2 PHE E   1      15.053  -9.722   4.352  1.00 12.38 LIG 0.01  A 
ENDBRANCH 35 36
ENDBRANCH 29 35
ENDBRANCH 27 29
ENDBRANCH 1 25
TORSDOF 14
ENDMDL
MODEL 48
USER: ADFR SOLUTION from run 88
USER: SCORE 13.068523 LL:  -3.512 LR: -10.100 RR:   0.000 FEB:  -5.923
USER: RMSD 5.244887
USER: SEED 87
USER: STATUS no improvement in best in 17 clusters for 5 generations
USER: GENES 16
USER: genes 0 Translation |==|  0.56484 0.54801 0.40090
USER: genes 1 Rotation |==|  0.52486 0.94148 0.39859 0.71022
USER: genes 2 Torsion [N]-CA--C-[N] |==|  0.08296
USER: genes 3 Torsion [C]-N--CA-[C] |==|  0.79126
USER: genes 4 Torsion [N]-CA--C-[N] |==|  0.94497
USER: genes 5 Torsion [C]-N--CA-[C] |==|  0.59570
USER: genes 6 Torsion [N]-CA--C-[N] |==|  0.53263
USER: genes 7 Torsion [N]-CA--CB-[CG2] |==|  0.72514
USER: genes 8 Torsion [CA]-CB--OG1-[HG1] |==|  0.07960
USER: genes 9 Torsion [C]-CA--CB-[CG] |==|  0.55578
USER: genes 10 Torsion [CA]-CB--CG-[CD2] |==|  0.82048
USER: genes 11 Torsion [C]-CA--N-[C] |==|  0.16733
USER: genes 12 Torsion [N]-C--CA-[N] |==|  0.46855
USER: genes 13 Torsion [C]-CA--N-[C] |==|  0.75001
USER: genes 14 Torsion [C]-CA--CB-[CG] |==|  0.27057
USER: genes 15 Torsion [CA]-CB--CG-[CD2] |==|  0.83073
ROOT
ATOM      1  CA  HIS E   2      16.296  -7.668   0.853  1.00 15.97 LIG 0.18  C 
ENDROOT
BRANCH 1 2
ATOM      2  C   HIS E   2      16.947  -8.156   2.135  1.00 15.29 LIG 0.24  C 
ATOM      3  N   THR E   3      16.922  -7.311   3.163  1.00 22.30 LIG-0.34  N 
ATOM      4 H    THR E   3      16.580  -6.523   3.124  1.00 22.30 LIG 0.16  HD
ATOM      5 O    HIS E   2      17.448  -9.276   2.201  1.00 12.62 LIG-0.27  OA
BRANCH 3 6
ATOM      6  CA  THR E   3      17.482  -7.658   4.462  1.00 13.35 LIG 0.20  C 
BRANCH 6 7
ATOM      7  C   THR E   3      16.578  -8.621   5.213  1.00 17.92 LIG 0.24  C 
ATOM      8  N   GLY E   4      15.308  -8.676   4.816  1.00 20.63 LIG-0.35  N 
ATOM      9 H    GLY E   4      14.965  -8.132   4.245  1.00 20.63 LIG 0.16  HD
ATOM     10 O    THR E   3      17.009  -9.262   6.170  1.00 20.63 LIG-0.27  OA
BRANCH 8 11
ATOM     11  CA  GLY E   4      14.377  -9.673   5.318  1.00 21.12 LIG 0.23  C 
BRANCH 11 12
ATOM     12  C   GLY E   4      13.322 -10.196   4.361  1.00 30.37 LIG 0.28  C 
ATOM     13 O    GLY E   4      13.408  -9.959   3.159  1.00 22.56 LIG-0.27  OA
ATOM     14  N   NH2 E   5      12.333 -10.918   4.884  1.00 46.70 LIG-0.11  N 
ENDBRANCH 11 12
ENDBRANCH 8 11
ENDBRANCH 6 7
BRANCH 6 15
ATOM     15  CB  THR E   3      17.701  -6.393   5.311  1.00 21.65 LIG 0.15  C 
ATOM     16  CG2 THR E   3      19.138  -5.945   5.254  1.00 26.78 LIG 0.04  C 
BRANCH 15 17
ATOM     17 OG1  THR E   3      16.864  -5.344   4.814  1.00 29.20 LIG-0.39  OA
ATOM     18 HG1  THR E   3      16.177  -5.676   4.463  1.00 29.20 LIG 0.21  HD
ENDBRANCH 15 17
ENDBRANCH 6 15
ENDBRANCH 3 6
ENDBRANCH 1 2
BRANCH 1 19
ATOM     19  CB  HIS E   2      16.956  -8.352  -0.341  1.00 16.39 LIG 0.10  C 
BRANCH 19 20
ATOM     20  CG  HIS E   2      16.751  -7.632  -1.639  1.00 27.51 LIG 0.06  A 
ATOM     21  CD2 HIS E   2      15.627  -7.383  -2.351  1.00 25.75 LIG 0.14  A 
ATOM     22 NE2  HIS E   2      16.004  -6.680  -3.470  1.00 29.28 LIG-0.25  NA
ATOM     23  CE1 HIS E   2      17.312  -6.505  -3.447  1.00 28.87 LIG 0.23  A 
ATOM     24 ND1  HIS E   2      17.788  -7.068  -2.350  1.00 29.28 LIG-0.24  NA
ENDBRANCH 19 20
ENDBRANCH 1 19
BRANCH 1 25
ATOM     25  N   HIS E   2      16.383  -6.213   0.722  1.00 15.79 LIG-0.35  N 
ATOM     26 H    HIS E   2      15.622  -5.815   0.677  1.00 15.79 LIG 0.16  HD
ATOM     27  C   PHE E   1      17.551  -5.582   0.679  1.00 15.11 LIG 0.24  C 
ATOM     28 O    PHE E   1      18.628  -6.165   0.735  1.00 17.78 LIG-0.27  OA
BRANCH 27 29
ATOM     29  CA  PHE E   1      17.496  -4.063   0.548  1.00 10.43 LIG 0.18  C 
BRANCH 29 30
ATOM     30  N   PHE E   1      18.806  -3.477   0.778  1.00 15.82 LIG-0.35  N 
ATOM     31 H    PHE E   1      19.276  -3.400   0.062  1.00 15.82 LIG 0.16  HD
ATOM     32  C   ACE E   0      19.245  -3.093   1.977  1.00 20.55 LIG 0.21  C 
ATOM     33 O    ACE E   0      20.361  -2.579   2.113  1.00 32.51 LIG-0.27  OA
ATOM     34  CH3 ACE E   0      18.312  -3.274   3.140  1.00 11.71 LIG 0.12  C 
ENDBRANCH 29 30
BRANCH 29 35
ATOM     35  CB  PHE E   1      16.966  -3.679  -0.834  1.00  9.28 LIG 0.07  C 
BRANCH 35 36
ATOM     36  CG  PHE E   1      15.498  -3.358  -0.859  1.00 12.52 LIG-0.06  A 
ATOM     37  CD1 PHE E   1      15.058  -2.105  -1.259  1.00 10.90 LIG 0.01  A 
ATOM     38  CE1 PHE E   1      13.713  -1.804  -1.300  1.00 11.94 LIG 0.00  A 
ATOM     39  CZ  PHE E   1      12.787  -2.759  -0.929  1.00  8.92 LIG 0.00  A 
ATOM     40  CE2 PHE E   1      13.221  -4.024  -0.530  1.00  8.81 LIG 0.00  A 
ATOM     41  CD2 PHE E   1      14.560  -4.313  -0.497  1.00 12.38 LIG 0.01  A 
ENDBRANCH 35 36
ENDBRANCH 29 35
ENDBRANCH 27 29
ENDBRANCH 1 25
TORSDOF 14
ENDMDL
MODEL 49
USER: ADFR SOLUTION from run 36
USER: SCORE 11.931114 LL:  -2.756 LR: -10.098 RR:   0.000 FEB:  -5.922
USER: RMSD 5.277558
USER: SEED 35
USER: STATUS no improvement in best in 25 clusters for 5 generations
USER: GENES 16
USER: genes 0 Translation |==|  0.40818 0.37177 0.38074
USER: genes 1 Rotation |==|  0.66685 0.86729 0.26190 0.67485
USER: genes 2 Torsion [N]-CA--C-[N] |==|  0.35493
USER: genes 3 Torsion [C]-N--CA-[C] |==|  0.77828
USER: genes 4 Torsion [N]-CA--C-[N] |==|  0.87843
USER: genes 5 Torsion [C]-N--CA-[C] |==|  0.24048
USER: genes 6 Torsion [N]-CA--C-[N] |==|  0.43776
USER: genes 7 Torsion [N]-CA--CB-[CG2] |==|  0.66785
USER: genes 8 Torsion [CA]-CB--OG1-[HG1] |==|  0.15780
USER: genes 9 Torsion [C]-CA--CB-[CG] |==|  0.38156
USER: genes 10 Torsion [CA]-CB--CG-[CD2] |==|  0.97155
USER: genes 11 Torsion [C]-CA--N-[C] |==|  0.86588
USER: genes 12 Torsion [N]-C--CA-[N] |==|  0.13632
USER: genes 13 Torsion [C]-CA--N-[C] |==|  0.60818
USER: genes 14 Torsion [C]-CA--CB-[CG] |==|  0.70960
USER: genes 15 Torsion [CA]-CB--CG-[CD2] |==|  0.71247
ROOT
ATOM      1  CA  HIS E   2      13.358 -11.369   0.520  1.00 15.97 LIG 0.18  C 
ENDROOT
BRANCH 1 2
ATOM      2  C   HIS E   2      13.507 -11.749   1.983  1.00 15.29 LIG 0.24  C 
ATOM      3  N   THR E   3      12.451 -11.516   2.758  1.00 22.30 LIG-0.34  N 
ATOM      4 H    THR E   3      11.723 -11.156   2.477  1.00 22.30 LIG 0.16  HD
ATOM      5 O    HIS E   2      14.546 -12.255   2.400  1.00 12.62 LIG-0.27  OA
BRANCH 3 6
ATOM      6  CA  THR E   3      12.441 -11.858   4.174  1.00 13.35 LIG 0.20  C 
BRANCH 6 7
ATOM      7  C   THR E   3      12.166 -13.337   4.383  1.00 17.92 LIG 0.24  C 
ATOM      8  N   GLY E   4      11.194 -13.870   3.644  1.00 20.63 LIG-0.35  N 
ATOM      9 H    GLY E   4      10.664 -13.407   3.150  1.00 20.63 LIG 0.16  HD
ATOM     10 O    THR E   3      12.783 -13.972   5.236  1.00 20.63 LIG-0.27  OA
BRANCH 8 11
ATOM     11  CA  GLY E   4      10.940 -15.301   3.606  1.00 21.12 LIG 0.23  C 
BRANCH 11 12
ATOM     12  C   GLY E   4      10.026 -15.883   4.669  1.00 30.37 LIG 0.28  C 
ATOM     13 O    GLY E   4       9.849 -15.282   5.725  1.00 22.56 LIG-0.27  OA
ATOM     14  N   NH2 E   5       9.433 -17.042   4.391  1.00 46.70 LIG-0.11  N 
ENDBRANCH 11 12
ENDBRANCH 8 11
ENDBRANCH 6 7
BRANCH 6 15
ATOM     15  CB  THR E   3      11.382 -11.029   4.924  1.00 21.65 LIG 0.15  C 
ATOM     16  CG2 THR E   3      12.017 -10.183   5.996  1.00 26.78 LIG 0.04  C 
BRANCH 15 17
ATOM     17 OG1  THR E   3      10.709 -10.176   3.991  1.00 29.20 LIG-0.39  OA
ATOM     18 HG1  THR E   3      10.373 -10.641   3.378  1.00 29.20 LIG 0.21  HD
ENDBRANCH 15 17
ENDBRANCH 6 15
ENDBRANCH 3 6
ENDBRANCH 1 2
BRANCH 1 19
ATOM     19  CB  HIS E   2      13.285 -12.636  -0.327  1.00 16.39 LIG 0.10  C 
BRANCH 19 20
ATOM     20  CG  HIS E   2      12.245 -12.585  -1.403  1.00 27.51 LIG 0.06  A 
ATOM     21  CD2 HIS E   2      11.250 -11.697  -1.638  1.00 25.75 LIG 0.14  A 
ATOM     22 NE2  HIS E   2      10.586 -12.122  -2.764  1.00 29.28 LIG-0.25  NA
ATOM     23  CE1 HIS E   2      11.152 -13.231  -3.204  1.00 28.87 LIG 0.23  A 
ATOM     24 ND1  HIS E   2      12.159 -13.531  -2.402  1.00 29.28 LIG-0.24  NA
ENDBRANCH 19 20
ENDBRANCH 1 19
BRANCH 1 25
ATOM     25  N   HIS E   2      14.458 -10.515   0.070  1.00 15.79 LIG-0.35  N 
ATOM     26 H    HIS E   2      14.819 -10.763  -0.670  1.00 15.79 LIG 0.16  HD
ATOM     27  C   PHE E   1      14.849  -9.451   0.762  1.00 15.11 LIG 0.24  C 
ATOM     28 O    PHE E   1      14.331  -9.116   1.821  1.00 17.78 LIG-0.27  OA
BRANCH 27 29
ATOM     29  CA  PHE E   1      16.003  -8.647   0.173  1.00 10.43 LIG 0.18  C 
BRANCH 29 30
ATOM     30  N   PHE E   1      15.766  -8.355  -1.231  1.00 15.82 LIG-0.35  N 
ATOM     31 H    PHE E   1      14.946  -8.165  -1.407  1.00 15.82 LIG 0.16  HD
ATOM     32  C   ACE E   0      16.720  -8.378  -2.163  1.00 20.55 LIG 0.21  C 
ATOM     33 O    ACE E   0      16.468  -8.100  -3.340  1.00 32.51 LIG-0.27  OA
ATOM     34  CH3 ACE E   0      18.113  -8.713  -1.711  1.00 11.71 LIG 0.12  C 
ENDBRANCH 29 30
BRANCH 29 35
ATOM     35  CB  PHE E   1      16.197  -7.355   0.969  1.00  9.28 LIG 0.07  C 
BRANCH 35 36
ATOM     36  CG  PHE E   1      15.687  -6.125   0.271  1.00 12.52 LIG-0.06  A 
ATOM     37  CD1 PHE E   1      14.329  -5.847   0.238  1.00 10.90 LIG 0.01  A 
ATOM     38  CE1 PHE E   1      13.851  -4.714  -0.387  1.00 11.94 LIG 0.00  A 
ATOM     39  CZ  PHE E   1      14.735  -3.845  -0.997  1.00  8.92 LIG 0.00  A 
ATOM     40  CE2 PHE E   1      16.103  -4.114  -0.962  1.00  8.81 LIG 0.00  A 
ATOM     41  CD2 PHE E   1      16.567  -5.241  -0.336  1.00 12.38 LIG 0.01  A 
ENDBRANCH 35 36
ENDBRANCH 29 35
ENDBRANCH 27 29
ENDBRANCH 1 25
TORSDOF 14
ENDMDL
MODEL 50
USER: ADFR SOLUTION from run 125
USER: SCORE 12.824813 LL:  -3.541 LR: -10.099 RR:   0.000 FEB:  -5.923
USER: RMSD 7.800784
USER: SEED 124
USER: STATUS no improvement in best in 25 clusters for 5 generations
USER: GENES 16
USER: genes 0 Translation |==|  0.54042 0.51281 0.39825
USER: genes 1 Rotation |==|  0.74896 0.27390 0.32993 0.82860
USER: genes 2 Torsion [N]-CA--C-[N] |==|  0.90856
USER: genes 3 Torsion [C]-N--CA-[C] |==|  0.80786
USER: genes 4 Torsion [N]-CA--C-[N] |==|  0.91184
USER: genes 5 Torsion [C]-N--CA-[C] |==|  0.79464
USER: genes 6 Torsion [N]-CA--C-[N] |==|  0.97071
USER: genes 7 Torsion [N]-CA--CB-[CG2] |==|  0.39700
USER: genes 8 Torsion [CA]-CB--OG1-[HG1] |==|  0.33141
USER: genes 9 Torsion [C]-CA--CB-[CG] |==|  0.58581
USER: genes 10 Torsion [CA]-CB--CG-[CD2] |==|  0.74767
USER: genes 11 Torsion [C]-CA--N-[C] |==|  0.77787
USER: genes 12 Torsion [N]-C--CA-[N] |==|  0.75063
USER: genes 13 Torsion [C]-CA--N-[C] |==|  0.66901
USER: genes 14 Torsion [C]-CA--CB-[CG] |==|  0.55392
USER: genes 15 Torsion [CA]-CB--CG-[CD2] |==|  0.24647
ROOT
ATOM      1  CA  HIS E   2      15.838  -8.407   0.809  1.00 15.97 LIG 0.18  C 
ENDROOT
BRANCH 1 2
ATOM      2  C   HIS E   2      15.407  -7.357  -0.200  1.00 15.29 LIG 0.24  C 
ATOM      3  N   THR E   3      14.797  -6.284   0.296  1.00 22.30 LIG-0.34  N 
ATOM      4 H    THR E   3      14.629  -6.174   1.132  1.00 22.30 LIG 0.16  HD
ATOM      5 O    HIS E   2      15.632  -7.505  -1.399  1.00 12.62 LIG-0.27  OA
BRANCH 3 6
ATOM      6  CA  THR E   3      14.356  -5.184  -0.551  1.00 13.35 LIG 0.20  C 
BRANCH 6 7
ATOM      7  C   THR E   3      15.538  -4.416  -1.119  1.00 17.92 LIG 0.24  C 
ATOM      8  N   GLY E   4      16.629  -4.357  -0.356  1.00 20.63 LIG-0.35  N 
ATOM      9 H    GLY E   4      16.655  -4.633   0.458  1.00 20.63 LIG 0.16  HD
ATOM     10 O    THR E   3      15.447  -3.841  -2.202  1.00 20.63 LIG-0.27  OA
BRANCH 8 11
ATOM     11  CA  GLY E   4      17.888  -3.814  -0.838  1.00 21.12 LIG 0.23  C 
BRANCH 11 12
ATOM     12  C   GLY E   4      18.692  -4.657  -1.812  1.00 30.37 LIG 0.28  C 
ATOM     13 O    GLY E   4      19.664  -4.176  -2.387  1.00 22.56 LIG-0.27  OA
ATOM     14  N   NH2 E   5      18.300  -5.917  -1.990  1.00 46.70 LIG-0.11  N 
ENDBRANCH 11 12
ENDBRANCH 8 11
ENDBRANCH 6 7
BRANCH 6 15
ATOM     15  CB  THR E   3      13.451  -4.221   0.238  1.00 21.65 LIG 0.15  C 
ATOM     16  CG2 THR E   3      13.698  -2.792  -0.167  1.00 26.78 LIG 0.04  C 
BRANCH 15 17
ATOM     17 OG1  THR E   3      12.081  -4.551  -0.017  1.00 29.20 LIG-0.39  OA
ATOM     18 HG1  THR E   3      11.705  -4.763   0.703  1.00 29.20 LIG 0.21  HD
ENDBRANCH 15 17
ENDBRANCH 6 15
ENDBRANCH 3 6
ENDBRANCH 1 2
BRANCH 1 19
ATOM     19  CB  HIS E   2      14.705  -9.410   1.011  1.00 16.39 LIG 0.10  C 
BRANCH 19 20
ATOM     20  CG  HIS E   2      14.659 -10.001   2.386  1.00 27.51 LIG 0.06  A 
ATOM     21  CD2 HIS E   2      15.234 -11.116   2.895  1.00 25.75 LIG 0.14  A 
ATOM     22 NE2  HIS E   2      14.868 -11.193   4.217  1.00 29.28 LIG-0.25  NA
ATOM     23  CE1 HIS E   2      14.095 -10.164   4.509  1.00 28.87 LIG 0.23  A 
ATOM     24 ND1  HIS E   2      13.955  -9.426   3.422  1.00 29.28 LIG-0.24  NA
ENDBRANCH 19 20
ENDBRANCH 1 19
BRANCH 1 25
ATOM     25  N   HIS E   2      16.221  -7.804   2.086  1.00 15.79 LIG-0.35  N 
ATOM     26 H    HIS E   2      15.613  -7.843   2.693  1.00 15.79 LIG 0.16  HD
ATOM     27  C   PHE E   1      17.413  -7.248   2.270  1.00 15.11 LIG 0.24  C 
ATOM     28 O    PHE E   1      18.266  -7.191   1.391  1.00 17.78 LIG-0.27  OA
BRANCH 27 29
ATOM     29  CA  PHE E   1      17.682  -6.663   3.652  1.00 10.43 LIG 0.18  C 
BRANCH 29 30
ATOM     30  N   PHE E   1      17.274  -5.270   3.712  1.00 15.82 LIG-0.35  N 
ATOM     31 H    PHE E   1      16.435  -5.152   3.563  1.00 15.82 LIG 0.16  HD
ATOM     32  C   ACE E   0      18.110  -4.263   3.971  1.00 20.55 LIG 0.21  C 
ATOM     33 O    ACE E   0      17.705  -3.098   4.031  1.00 32.51 LIG-0.27  OA
ATOM     34  CH3 ACE E   0      19.548  -4.614   4.225  1.00 11.71 LIG 0.12  C 
ENDBRANCH 29 30
BRANCH 29 35
ATOM     35  CB  PHE E   1      16.955  -7.486   4.717  1.00  9.28 LIG 0.07  C 
BRANCH 35 36
ATOM     36  CG  PHE E   1      16.764  -6.765   6.021  1.00 12.52 LIG-0.06  A 
ATOM     37  CD1 PHE E   1      17.717  -6.861   7.024  1.00 10.90 LIG 0.01  A 
ATOM     38  CE1 PHE E   1      17.560  -6.193   8.220  1.00 11.94 LIG 0.00  A 
ATOM     39  CZ  PHE E   1      16.432  -5.422   8.430  1.00  8.92 LIG 0.00  A 
ATOM     40  CE2 PHE E   1      15.471  -5.316   7.424  1.00  8.81 LIG 0.00  A 
ATOM     41  CD2 PHE E   1      15.640  -5.981   6.238  1.00 12.38 LIG 0.01  A 
ENDBRANCH 35 36
ENDBRANCH 29 35
ENDBRANCH 27 29
ENDBRANCH 1 25
TORSDOF 14
ENDMDL
MODEL 51
USER: ADFR SOLUTION from run 152
USER: SCORE 12.358049 LL:  -3.258 LR: -10.087 RR:   0.000 FEB:  -5.911
USER: RMSD 7.801500
USER: SEED 151
USER: STATUS no improvement in best in 7 clusters for 5 generations
USER: GENES 16
USER: genes 0 Translation |==|  0.65721 0.69204 0.48413
USER: genes 1 Rotation |==|  0.69075 0.35330 0.91595 0.63813
USER: genes 2 Torsion [N]-CA--C-[N] |==|  0.90513
USER: genes 3 Torsion [C]-N--CA-[C] |==|  0.69400
USER: genes 4 Torsion [N]-CA--C-[N] |==|  0.83527
USER: genes 5 Torsion [C]-N--CA-[C] |==|  0.76111
USER: genes 6 Torsion [N]-CA--C-[N] |==|  0.57110
USER: genes 7 Torsion [N]-CA--CB-[CG2] |==|  0.09211
USER: genes 8 Torsion [CA]-CB--OG1-[HG1] |==|  0.10820
USER: genes 9 Torsion [C]-CA--CB-[CG] |==|  0.39798
USER: genes 10 Torsion [CA]-CB--CG-[CD2] |==|  0.84923
USER: genes 11 Torsion [C]-CA--N-[C] |==|  0.85518
USER: genes 12 Torsion [N]-C--CA-[N] |==|  0.91537
USER: genes 13 Torsion [C]-CA--N-[C] |==|  0.70324
USER: genes 14 Torsion [C]-CA--CB-[CG] |==|  0.22869
USER: genes 15 Torsion [CA]-CB--CG-[CD2] |==|  0.90763
ROOT
ATOM      1  CA  HIS E   2      18.028  -4.643   2.226  1.00 15.97 LIG 0.18  C 
ENDROOT
BRANCH 1 2
ATOM      2  C   HIS E   2      19.221  -4.461   1.305  1.00 15.29 LIG 0.24  C 
ATOM      3  N   THR E   3      19.410  -5.414   0.397  1.00 22.30 LIG-0.34  N 
ATOM      4 H    THR E   3      18.913  -6.112   0.326  1.00 22.30 LIG 0.16  HD
ATOM      5 O    HIS E   2      19.946  -3.474   1.401  1.00 12.62 LIG-0.27  OA
BRANCH 3 6
ATOM      6  CA  THR E   3      20.497  -5.355  -0.572  1.00 13.35 LIG 0.20  C 
BRANCH 6 7
ATOM      7  C   THR E   3      19.973  -5.108  -1.976  1.00 17.92 LIG 0.24  C 
ATOM      8  N   GLY E   4      19.120  -6.011  -2.459  1.00 20.63 LIG-0.35  N 
ATOM      9 H    GLY E   4      18.944  -6.756  -2.066  1.00 20.63 LIG 0.16  HD
ATOM     10 O    THR E   3      20.373  -4.148  -2.632  1.00 20.63 LIG-0.27  OA
BRANCH 8 11
ATOM     11  CA  GLY E   4      18.403  -5.816  -3.707  1.00 21.12 LIG 0.23  C 
BRANCH 11 12
ATOM     12  C   GLY E   4      17.094  -5.049  -3.655  1.00 30.37 LIG 0.28  C 
ATOM     13 O    GLY E   4      16.896  -4.227  -2.764  1.00 22.56 LIG-0.27  OA
ATOM     14  N   NH2 E   5      16.205  -5.301  -4.613  1.00 46.70 LIG-0.11  N 
ENDBRANCH 11 12
ENDBRANCH 8 11
ENDBRANCH 6 7
BRANCH 6 15
ATOM     15  CB  THR E   3      21.312  -6.661  -0.551  1.00 21.65 LIG 0.15  C 
ATOM     16  CG2 THR E   3      20.432  -7.843  -0.241  1.00 26.78 LIG 0.04  C 
BRANCH 15 17
ATOM     17 OG1  THR E   3      21.920  -6.854  -1.833  1.00 29.20 LIG-0.39  OA
ATOM     18 HG1  THR E   3      22.185  -6.115  -2.131  1.00 29.20 LIG 0.21  HD
ENDBRANCH 15 17
ENDBRANCH 6 15
ENDBRANCH 3 6
ENDBRANCH 1 2
BRANCH 1 19
ATOM     19  CB  HIS E   2      18.450  -5.459   3.445  1.00 16.39 LIG 0.10  C 
BRANCH 19 20
ATOM     20  CG  HIS E   2      17.794  -5.025   4.720  1.00 27.51 LIG 0.06  A 
ATOM     21  CD2 HIS E   2      17.731  -3.813   5.320  1.00 25.75 LIG 0.14  A 
ATOM     22 NE2  HIS E   2      17.001  -3.971   6.474  1.00 29.28 LIG-0.25  NA
ATOM     23  CE1 HIS E   2      16.630  -5.234   6.578  1.00 28.87 LIG 0.23  A 
ATOM     24 ND1  HIS E   2      17.093  -5.892   5.530  1.00 29.28 LIG-0.24  NA
ENDBRANCH 19 20
ENDBRANCH 1 19
BRANCH 1 25
ATOM     25  N   HIS E   2      16.909  -5.290   1.540  1.00 15.79 LIG-0.35  N 
ATOM     26 H    HIS E   2      16.593  -5.978   1.948  1.00 15.79 LIG 0.16  HD
ATOM     27  C   PHE E   1      16.437  -4.835   0.385  1.00 15.11 LIG 0.24  C 
ATOM     28 O    PHE E   1      16.904  -3.857  -0.189  1.00 17.78 LIG-0.27  OA
BRANCH 27 29
ATOM     29  CA  PHE E   1      15.263  -5.601  -0.217  1.00 10.43 LIG 0.18  C 
BRANCH 29 30
ATOM     30  N   PHE E   1      15.324  -7.007   0.147  1.00 15.82 LIG-0.35  N 
ATOM     31 H    PHE E   1      15.120  -7.157   0.969  1.00 15.82 LIG 0.16  HD
ATOM     32  C   ACE E   0      15.661  -7.978  -0.703  1.00 20.55 LIG 0.21  C 
ATOM     33 O    ACE E   0      15.675  -9.161  -0.346  1.00 32.51 LIG-0.27  OA
ATOM     34  CH3 ACE E   0      15.981  -7.574  -2.114  1.00 11.71 LIG 0.12  C 
ENDBRANCH 29 30
BRANCH 29 35
ATOM     35  CB  PHE E   1      13.944  -4.980   0.244  1.00  9.28 LIG 0.07  C 
BRANCH 35 36
ATOM     36  CG  PHE E   1      13.522  -3.779  -0.555  1.00 12.52 LIG-0.06  A 
ATOM     37  CD1 PHE E   1      12.178  -3.508  -0.762  1.00 10.90 LIG 0.01  A 
ATOM     38  CE1 PHE E   1      11.779  -2.401  -1.481  1.00 11.94 LIG 0.00  A 
ATOM     39  CZ  PHE E   1      12.729  -1.551  -2.012  1.00  8.92 LIG 0.00  A 
ATOM     40  CE2 PHE E   1      14.084  -1.812  -1.803  1.00  8.81 LIG 0.00  A 
ATOM     41  CD2 PHE E   1      14.469  -2.913  -1.083  1.00 12.38 LIG 0.01  A 
ENDBRANCH 35 36
ENDBRANCH 29 35
ENDBRANCH 27 29
ENDBRANCH 1 25
TORSDOF 14
ENDMDL
MODEL 52
USER: ADFR SOLUTION from run 190
USER: SCORE 12.415740 LL:  -2.805 LR: -10.090 RR:   0.000 FEB:  -5.914
USER: RMSD 6.294098
USER: SEED 189
USER: STATUS no improvement in best in 49 clusters for 5 generations
USER: GENES 16
USER: genes 0 Translation |==|  0.38105 0.33709 0.44411
USER: genes 1 Rotation |==|  0.71133 0.83397 0.28045 0.71355
USER: genes 2 Torsion [N]-CA--C-[N] |==|  0.37625
USER: genes 3 Torsion [C]-N--CA-[C] |==|  0.81039
USER: genes 4 Torsion [N]-CA--C-[N] |==|  0.88671
USER: genes 5 Torsion [C]-N--CA-[C] |==|  0.22067
USER: genes 6 Torsion [N]-CA--C-[N] |==|  0.42778
USER: genes 7 Torsion [N]-CA--CB-[CG2] |==|  0.64353
USER: genes 8 Torsion [CA]-CB--OG1-[HG1] |==|  0.20204
USER: genes 9 Torsion [C]-CA--CB-[CG] |==|  0.41429
USER: genes 10 Torsion [CA]-CB--CG-[CD2] |==|  0.40945
USER: genes 11 Torsion [C]-CA--N-[C] |==|  0.85244
USER: genes 12 Torsion [N]-C--CA-[N] |==|  0.36681
USER: genes 13 Torsion [C]-CA--N-[C] |==|  0.71399
USER: genes 14 Torsion [C]-CA--CB-[CG] |==|  0.78185
USER: genes 15 Torsion [CA]-CB--CG-[CD2] |==|  0.74713
ROOT
ATOM      1  CA  HIS E   2      12.850 -12.097   1.566  1.00 15.97 LIG 0.18  C 
ENDROOT
BRANCH 1 2
ATOM      2  C   HIS E   2      12.573 -12.475   3.010  1.00 15.29 LIG 0.24  C 
ATOM      3  N   THR E   3      11.323 -12.302   3.431  1.00 22.30 LIG-0.34  N 
ATOM      4 H    THR E   3      10.694 -11.981   2.941  1.00 22.30 LIG 0.16  HD
ATOM      5 O    HIS E   2      13.464 -12.926   3.726  1.00 12.62 LIG-0.27  OA
BRANCH 3 6
ATOM      6  CA  THR E   3      10.907 -12.650   4.784  1.00 13.35 LIG 0.20  C 
BRANCH 6 7
ATOM      7  C   THR E   3      10.934 -14.154   5.000  1.00 17.92 LIG 0.24  C 
ATOM      8  N   GLY E   4      10.487 -14.906   3.995  1.00 20.63 LIG-0.35  N 
ATOM      9 H    GLY E   4      10.099 -14.585   3.298  1.00 20.63 LIG 0.16  HD
ATOM     10 O    THR E   3      11.299 -14.623   6.076  1.00 20.63 LIG-0.27  OA
BRANCH 8 11
ATOM     11  CA  GLY E   4      10.617 -16.353   3.988  1.00 21.12 LIG 0.23  C 
BRANCH 11 12
ATOM     12  C   GLY E   4       9.621 -17.154   4.806  1.00 30.37 LIG 0.28  C 
ATOM     13 O    GLY E   4       9.065 -16.642   5.775  1.00 22.56 LIG-0.27  OA
ATOM     14  N   NH2 E   5       9.380 -18.404   4.415  1.00 46.70 LIG-0.11  N 
ENDBRANCH 11 12
ENDBRANCH 8 11
ENDBRANCH 6 7
BRANCH 6 15
ATOM     15  CB  THR E   3       9.492 -12.116   5.069  1.00 21.65 LIG 0.15  C 
ATOM     16  CG2 THR E   3       9.461 -11.321   6.348  1.00 26.78 LIG 0.04  C 
BRANCH 15 17
ATOM     17 OG1  THR E   3       9.081 -11.276   3.985  1.00 29.20 LIG-0.39  OA
ATOM     18 HG1  THR E   3       8.908 -11.749   3.313  1.00 29.20 LIG 0.21  HD
ENDBRANCH 15 17
ENDBRANCH 6 15
ENDBRANCH 3 6
ENDBRANCH 1 2
BRANCH 1 19
ATOM     19  CB  HIS E   2      12.911 -13.363   0.715  1.00 16.39 LIG 0.10  C 
BRANCH 19 20
ATOM     20  CG  HIS E   2      12.455 -13.165  -0.697  1.00 27.51 LIG 0.06  A 
ATOM     21  CD2 HIS E   2      12.851 -13.751  -1.851  1.00 25.75 LIG 0.14  A 
ATOM     22 NE2  HIS E   2      12.102 -13.201  -2.863  1.00 29.28 LIG-0.25  NA
ATOM     23  CE1 HIS E   2      11.276 -12.308  -2.350  1.00 28.87 LIG 0.23  A 
ATOM     24 ND1  HIS E   2      11.466 -12.268  -1.043  1.00 29.28 LIG-0.24  NA
ENDBRANCH 19 20
ENDBRANCH 1 19
BRANCH 1 25
ATOM     25  N   HIS E   2      14.090 -11.332   1.435  1.00 15.79 LIG-0.35  N 
ATOM     26 H    HIS E   2      14.645 -11.652   0.861  1.00 15.79 LIG 0.16  HD
ATOM     27  C   PHE E   1      14.319 -10.239   2.154  1.00 15.11 LIG 0.24  C 
ATOM     28 O    PHE E   1      13.522  -9.801   2.976  1.00 17.78 LIG-0.27  OA
BRANCH 27 29
ATOM     29  CA  PHE E   1      15.650  -9.536   1.913  1.00 10.43 LIG 0.18  C 
BRANCH 29 30
ATOM     30  N   PHE E   1      15.455  -8.107   1.732  1.00 15.82 LIG-0.35  N 
ATOM     31 H    PHE E   1      15.315  -7.685   2.468  1.00 15.82 LIG 0.16  HD
ATOM     32  C   ACE E   0      15.487  -7.500   0.545  1.00 20.55 LIG 0.21  C 
ATOM     33 O    ACE E   0      15.336  -6.277   0.450  1.00 32.51 LIG-0.27  OA
ATOM     34  CH3 ACE E   0      15.754  -8.358  -0.658  1.00 11.71 LIG 0.12  C 
ENDBRANCH 29 30
BRANCH 29 35
ATOM     35  CB  PHE E   1      16.602  -9.808   3.078  1.00  9.28 LIG 0.07  C 
BRANCH 35 36
ATOM     36  CG  PHE E   1      16.328  -8.975   4.299  1.00 12.52 LIG-0.06  A 
ATOM     37  CD1 PHE E   1      15.454  -9.426   5.277  1.00 10.90 LIG 0.01  A 
ATOM     38  CE1 PHE E   1      15.206  -8.677   6.408  1.00 11.94 LIG 0.00  A 
ATOM     39  CZ  PHE E   1      15.830  -7.454   6.569  1.00  8.92 LIG 0.00  A 
ATOM     40  CE2 PHE E   1      16.716  -6.997   5.593  1.00  8.81 LIG 0.00  A 
ATOM     41  CD2 PHE E   1      16.957  -7.751   4.475  1.00 12.38 LIG 0.01  A 
ENDBRANCH 35 36
ENDBRANCH 29 35
ENDBRANCH 27 29
ENDBRANCH 1 25
TORSDOF 14
ENDMDL
MODEL 53
USER: ADFR SOLUTION from run 167
USER: SCORE 11.948578 LL:  -3.518 LR: -10.084 RR:   0.000 FEB:  -5.908
USER: RMSD 8.184510
USER: SEED 166
USER: STATUS no improvement in best in 41 clusters for 5 generations
USER: GENES 16
USER: genes 0 Translation |==|  0.39998 0.42424 0.59552
USER: genes 1 Rotation |==|  0.74730 0.74520 0.79321 0.70676
USER: genes 2 Torsion [N]-CA--C-[N] |==|  0.35619
USER: genes 3 Torsion [C]-N--CA-[C] |==|  0.57035
USER: genes 4 Torsion [N]-CA--C-[N] |==|  0.71056
USER: genes 5 Torsion [C]-N--CA-[C] |==|  0.33889
USER: genes 6 Torsion [N]-CA--C-[N] |==|  0.91319
USER: genes 7 Torsion [N]-CA--CB-[CG2] |==|  0.68885
USER: genes 8 Torsion [CA]-CB--OG1-[HG1] |==|  0.30955
USER: genes 9 Torsion [C]-CA--CB-[CG] |==|  0.09993
USER: genes 10 Torsion [CA]-CB--CG-[CD2] |==|  0.65036
USER: genes 11 Torsion [C]-CA--N-[C] |==|  0.71583
USER: genes 12 Torsion [N]-C--CA-[N] |==|  0.33421
USER: genes 13 Torsion [C]-CA--N-[C] |==|  0.74652
USER: genes 14 Torsion [C]-CA--CB-[CG] |==|  0.15283
USER: genes 15 Torsion [CA]-CB--CG-[CD2] |==|  0.63511
ROOT
ATOM      1  CA  HIS E   2      13.205 -10.267   4.064  1.00 15.97 LIG 0.18  C 
ENDROOT
BRANCH 1 2
ATOM      2  C   HIS E   2      13.376 -11.470   3.154  1.00 15.29 LIG 0.24  C 
ATOM      3  N   THR E   3      12.742 -11.415   1.985  1.00 22.30 LIG-0.34  N 
ATOM      4 H    THR E   3      12.245 -10.758   1.743  1.00 22.30 LIG 0.16  HD
ATOM      5 O    HIS E   2      14.077 -12.421   3.492  1.00 12.62 LIG-0.27  OA
BRANCH 3 6
ATOM      6  CA  THR E   3      12.841 -12.485   1.001  1.00 13.35 LIG 0.20  C 
BRANCH 6 7
ATOM      7  C   THR E   3      12.586 -11.967  -0.405  1.00 17.92 LIG 0.24  C 
ATOM      8  N   GLY E   4      11.398 -12.253  -0.936  1.00 20.63 LIG-0.35  N 
ATOM      9 H    GLY E   4      10.832 -12.789  -0.572  1.00 20.63 LIG 0.16  HD
ATOM     10 O    THR E   3      13.467 -11.367  -1.018  1.00 20.63 LIG-0.27  OA
BRANCH 8 11
ATOM     11  CA  GLY E   4      10.947 -11.676  -2.191  1.00 21.12 LIG 0.23  C 
BRANCH 11 12
ATOM     12  C   GLY E   4      10.580 -12.631  -3.313  1.00 30.37 LIG 0.28  C 
ATOM     13 O    GLY E   4       9.716 -12.321  -4.129  1.00 22.56 LIG-0.27  OA
ATOM     14  N   NH2 E   5      11.241 -13.786  -3.367  1.00 46.70 LIG-0.11  N 
ENDBRANCH 11 12
ENDBRANCH 8 11
ENDBRANCH 6 7
BRANCH 6 15
ATOM     15  CB  THR E   3      11.841 -13.610   1.322  1.00 21.65 LIG 0.15  C 
ATOM     16  CG2 THR E   3      12.557 -14.865   1.746  1.00 26.78 LIG 0.04  C 
BRANCH 15 17
ATOM     17 OG1  THR E   3      10.979 -13.182   2.381  1.00 29.20 LIG-0.39  OA
ATOM     18 HG1  THR E   3      10.200 -13.075   2.083  1.00 29.20 LIG 0.21  HD
ENDBRANCH 15 17
ENDBRANCH 6 15
ENDBRANCH 3 6
ENDBRANCH 1 2
BRANCH 1 19
ATOM     19  CB  HIS E   2      14.516  -9.489   4.127  1.00 16.39 LIG 0.10  C 
BRANCH 19 20
ATOM     20  CG  HIS E   2      15.270  -9.471   2.833  1.00 27.51 LIG 0.06  A 
ATOM     21  CD2 HIS E   2      16.545  -9.819   2.540  1.00 25.75 LIG 0.14  A 
ATOM     22 NE2  HIS E   2      16.724  -9.608   1.194  1.00 29.28 LIG-0.25  NA
ATOM     23  CE1 HIS E   2      15.599  -9.146   0.678  1.00 28.87 LIG 0.23  A 
ATOM     24 ND1  HIS E   2      14.704  -9.056   1.646  1.00 29.28 LIG-0.24  NA
ENDBRANCH 19 20
ENDBRANCH 1 19
BRANCH 1 25
ATOM     25  N   HIS E   2      12.779 -10.662   5.407  1.00 15.79 LIG-0.35  N 
ATOM     26 H    HIS E   2      13.410 -10.976   5.901  1.00 15.79 LIG 0.16  HD
ATOM     27  C   PHE E   1      11.520 -10.537   5.809  1.00 15.11 LIG 0.24  C 
ATOM     28 O    PHE E   1      10.629 -10.096   5.090  1.00 17.78 LIG-0.27  OA
BRANCH 27 29
ATOM     29  CA  PHE E   1      11.216 -10.981   7.236  1.00 10.43 LIG 0.18  C 
BRANCH 29 30
ATOM     30  N   PHE E   1      10.686  -9.877   8.019  1.00 15.82 LIG-0.35  N 
ATOM     31 H    PHE E   1       9.830  -9.805   7.973  1.00 15.82 LIG 0.16  HD
ATOM     32  C   ACE E   0      11.444  -9.052   8.743  1.00 20.55 LIG 0.21  C 
ATOM     33 O    ACE E   0      10.938  -8.142   9.408  1.00 32.51 LIG-0.27  OA
ATOM     34  CH3 ACE E   0      12.924  -9.302   8.744  1.00 11.71 LIG 0.12  C 
ENDBRANCH 29 30
BRANCH 29 35
ATOM     35  CB  PHE E   1      10.234 -12.153   7.219  1.00  9.28 LIG 0.07  C 
BRANCH 35 36
ATOM     36  CG  PHE E   1      10.687 -13.318   6.385  1.00 12.52 LIG-0.06  A 
ATOM     37  CD1 PHE E   1      11.964 -13.837   6.534  1.00 10.90 LIG 0.01  A 
ATOM     38  CE1 PHE E   1      12.385 -14.915   5.784  1.00 11.94 LIG 0.00  A 
ATOM     39  CZ  PHE E   1      11.528 -15.484   4.862  1.00  8.92 LIG 0.00  A 
ATOM     40  CE2 PHE E   1      10.239 -14.971   4.710  1.00  8.81 LIG 0.00  A 
ATOM     41  CD2 PHE E   1       9.830 -13.902   5.464  1.00 12.38 LIG 0.01  A 
ENDBRANCH 35 36
ENDBRANCH 29 35
ENDBRANCH 27 29
ENDBRANCH 1 25
TORSDOF 14
ENDMDL
MODEL 54
USER: ADFR SOLUTION from run 43
USER: SCORE 12.736344 LL:  -3.264 LR: -10.067 RR:   0.000 FEB:  -5.891
USER: RMSD 8.123203
USER: SEED 42
USER: STATUS no improvement in best in 8 clusters for 5 generations
USER: GENES 16
USER: genes 0 Translation |==|  0.48149 0.49742 0.73468
USER: genes 1 Rotation |==|  0.76124 0.66576 0.83101 0.71143
USER: genes 2 Torsion [N]-CA--C-[N] |==|  0.35269
USER: genes 3 Torsion [C]-N--CA-[C] |==|  0.62805
USER: genes 4 Torsion [N]-CA--C-[N] |==|  0.04738
USER: genes 5 Torsion [C]-N--CA-[C] |==|  0.25685
USER: genes 6 Torsion [N]-CA--C-[N] |==|  0.93729
USER: genes 7 Torsion [N]-CA--CB-[CG2] |==|  0.67840
USER: genes 8 Torsion [CA]-CB--OG1-[HG1] |==|  0.56168
USER: genes 9 Torsion [C]-CA--CB-[CG] |==|  0.28827
USER: genes 10 Torsion [CA]-CB--CG-[CD2] |==|  0.26346
USER: genes 11 Torsion [C]-CA--N-[C] |==|  0.79924
USER: genes 12 Torsion [N]-C--CA-[N] |==|  0.34138
USER: genes 13 Torsion [C]-CA--N-[C] |==|  0.77050
USER: genes 14 Torsion [C]-CA--CB-[CG] |==|  0.88429
USER: genes 15 Torsion [CA]-CB--CG-[CD2] |==|  0.31271
ROOT
ATOM      1  CA  HIS E   2      14.733  -8.730   6.360  1.00 15.97 LIG 0.18  C 
ENDROOT
BRANCH 1 2
ATOM      2  C   HIS E   2      14.953  -9.669   5.187  1.00 15.29 LIG 0.24  C 
ATOM      3  N   THR E   3      14.549  -9.228   4.000  1.00 22.30 LIG-0.34  N 
ATOM      4 H    THR E   3      14.167  -8.467   3.878  1.00 22.30 LIG 0.16  HD
ATOM      5 O    HIS E   2      15.489 -10.763   5.348  1.00 12.62 LIG-0.27  OA
BRANCH 3 6
ATOM      6  CA  THR E   3      14.724 -10.010   2.783  1.00 13.35 LIG 0.20  C 
BRANCH 6 7
ATOM      7  C   THR E   3      15.275  -9.157   1.653  1.00 17.92 LIG 0.24  C 
ATOM      8  N   GLY E   4      15.831  -7.997   2.001  1.00 20.63 LIG-0.35  N 
ATOM      9 H    GLY E   4      15.796  -7.674   2.798  1.00 20.63 LIG 0.16  HD
ATOM     10 O    THR E   3      15.151  -9.515   0.483  1.00 20.63 LIG-0.27  OA
BRANCH 8 11
ATOM     11  CA  GLY E   4      16.555  -7.165   1.055  1.00 21.12 LIG 0.23  C 
BRANCH 11 12
ATOM     12  C   GLY E   4      15.776  -6.084   0.328  1.00 30.37 LIG 0.28  C 
ATOM     13 O    GLY E   4      16.364  -5.119  -0.154  1.00 22.56 LIG-0.27  OA
ATOM     14  N   NH2 E   5      14.458  -6.245   0.235  1.00 46.70 LIG-0.11  N 
ENDBRANCH 11 12
ENDBRANCH 8 11
ENDBRANCH 6 7
BRANCH 6 15
ATOM     15  CB  THR E   3      13.388 -10.637   2.346  1.00 21.65 LIG 0.15  C 
ATOM     16  CG2 THR E   3      13.450 -12.141   2.409  1.00 26.78 LIG 0.04  C 
BRANCH 15 17
ATOM     17 OG1  THR E   3      12.347 -10.175   3.214  1.00 29.20 LIG-0.39  OA
ATOM     18 HG1  THR E   3      11.704 -10.715   3.193  1.00 29.20 LIG 0.21  HD
ENDBRANCH 15 17
ENDBRANCH 6 15
ENDBRANCH 3 6
ENDBRANCH 1 2
BRANCH 1 19
ATOM     19  CB  HIS E   2      16.081  -8.209   6.851  1.00 16.39 LIG 0.10  C 
BRANCH 19 20
ATOM     20  CG  HIS E   2      16.372  -6.800   6.434  1.00 27.51 LIG 0.06  A 
ATOM     21  CD2 HIS E   2      16.180  -5.624   7.078  1.00 25.75 LIG 0.14  A 
ATOM     22 NE2  HIS E   2      16.626  -4.628   6.242  1.00 29.28 LIG-0.25  NA
ATOM     23  CE1 HIS E   2      17.075  -5.173   5.126  1.00 28.87 LIG 0.23  A 
ATOM     24 ND1  HIS E   2      16.936  -6.484   5.217  1.00 29.28 LIG-0.24  NA
ENDBRANCH 19 20
ENDBRANCH 1 19
BRANCH 1 25
ATOM     25  N   HIS E   2      14.011  -9.387   7.450  1.00 15.79 LIG-0.35  N 
ATOM     26 H    HIS E   2      14.494  -9.564   8.139  1.00 15.79 LIG 0.16  HD
ATOM     27  C   PHE E   1      12.717  -9.675   7.361  1.00 15.11 LIG 0.24  C 
ATOM     28 O    PHE E   1      12.044  -9.426   6.367  1.00 17.78 LIG-0.27  OA
BRANCH 27 29
ATOM     29  CA  PHE E   1      12.089 -10.354   8.574  1.00 10.43 LIG 0.18  C 
BRANCH 29 30
ATOM     30  N   PHE E   1      10.967  -9.579   9.076  1.00 15.82 LIG-0.35  N 
ATOM     31 H    PHE E   1      10.204  -9.860   8.795  1.00 15.82 LIG 0.16  HD
ATOM     32  C   ACE E   0      11.097  -8.532   9.892  1.00 20.55 LIG 0.21  C 
ATOM     33 O    ACE E   0      10.106  -7.921  10.307  1.00 32.51 LIG-0.27  OA
ATOM     34  CH3 ACE E   0      12.488  -8.158  10.313  1.00 11.71 LIG 0.12  C 
ENDBRANCH 29 30
BRANCH 29 35
ATOM     35  CB  PHE E   1      11.647 -11.771   8.207  1.00  9.28 LIG 0.07  C 
BRANCH 35 36
ATOM     36  CG  PHE E   1      10.993 -11.877   6.858  1.00 12.52 LIG-0.06  A 
ATOM     37  CD1 PHE E   1       9.766 -11.275   6.621  1.00 10.90 LIG 0.01  A 
ATOM     38  CE1 PHE E   1       9.163 -11.354   5.384  1.00 11.94 LIG 0.00  A 
ATOM     39  CZ  PHE E   1       9.783 -12.050   4.364  1.00  8.92 LIG 0.00  A 
ATOM     40  CE2 PHE E   1      11.020 -12.654   4.592  1.00  8.81 LIG 0.00  A 
ATOM     41  CD2 PHE E   1      11.612 -12.565   5.825  1.00 12.38 LIG 0.01  A 
ENDBRANCH 35 36
ENDBRANCH 29 35
ENDBRANCH 27 29
ENDBRANCH 1 25
TORSDOF 14
ENDMDL
MODEL 55
USER: ADFR SOLUTION from run 9
USER: SCORE 12.082589 LL:  -3.515 LR: -10.068 RR:   0.000 FEB:  -5.892
USER: RMSD 8.216726
USER: SEED 522405
USER: STATUS no improvement in best in 30 clusters for 5 generations
USER: GENES 16
USER: genes 0 Translation |==|  0.52918 0.57675 0.36459
USER: genes 1 Rotation |==|  0.28407 0.78090 0.85023 0.54253
USER: genes 2 Torsion [N]-CA--C-[N] |==|  0.89531
USER: genes 3 Torsion [C]-N--CA-[C] |==|  0.57222
USER: genes 4 Torsion [N]-CA--C-[N] |==|  0.92806
USER: genes 5 Torsion [C]-N--CA-[C] |==|  0.27152
USER: genes 6 Torsion [N]-CA--C-[N] |==|  0.41763
USER: genes 7 Torsion [N]-CA--CB-[CG2] |==|  0.43006
USER: genes 8 Torsion [CA]-CB--OG1-[HG1] |==|  0.08751
USER: genes 9 Torsion [C]-CA--CB-[CG] |==|  0.09410
USER: genes 10 Torsion [CA]-CB--CG-[CD2] |==|  0.65622
USER: genes 11 Torsion [C]-CA--N-[C] |==|  0.77231
USER: genes 12 Torsion [N]-C--CA-[N] |==|  0.88835
USER: genes 13 Torsion [C]-CA--N-[C] |==|  0.66175
USER: genes 14 Torsion [C]-CA--CB-[CG] |==|  0.52624
USER: genes 15 Torsion [CA]-CB--CG-[CD2] |==|  0.71684
ROOT
ATOM      1  CA  HIS E   2      15.627  -7.064   0.254  1.00 15.97 LIG 0.18  C 
ENDROOT
BRANCH 1 2
ATOM      2  C   HIS E   2      16.899  -6.376   0.716  1.00 15.29 LIG 0.24  C 
ATOM      3  N   THR E   3      16.917  -5.965   1.981  1.00 22.30 LIG-0.34  N 
ATOM      4 H    THR E   3      16.254  -6.055   2.521  1.00 22.30 LIG 0.16  HD
ATOM      5 O    HIS E   2      17.851  -6.232  -0.048  1.00 12.62 LIG-0.27  OA
BRANCH 3 6
ATOM      6  CA  THR E   3      18.081  -5.317   2.568  1.00 13.35 LIG 0.20  C 
BRANCH 6 7
ATOM      7  C   THR E   3      18.124  -5.515   4.074  1.00 17.92 LIG 0.24  C 
ATOM      8  N   GLY E   4      16.955  -5.723   4.678  1.00 20.63 LIG-0.35  N 
ATOM      9 H    GLY E   4      16.195  -5.646   4.282  1.00 20.63 LIG 0.16  HD
ATOM     10 O    THR E   3      19.187  -5.427   4.685  1.00 20.63 LIG-0.27  OA
BRANCH 8 11
ATOM     11  CA  GLY E   4      16.858  -6.104   6.077  1.00 21.12 LIG 0.23  C 
BRANCH 11 12
ATOM     12  C   GLY E   4      16.581  -5.006   7.088  1.00 30.37 LIG 0.28  C 
ATOM     13 O    GLY E   4      16.955  -3.857   6.869  1.00 22.56 LIG-0.27  OA
ATOM     14  N   NH2 E   5      15.915  -5.349   8.189  1.00 46.70 LIG-0.11  N 
ENDBRANCH 11 12
ENDBRANCH 8 11
ENDBRANCH 6 7
BRANCH 6 15
ATOM     15  CB  THR E   3      18.081  -3.811   2.249  1.00 21.65 LIG 0.15  C 
ATOM     16  CG2 THR E   3      18.856  -3.038   3.283  1.00 26.78 LIG 0.04  C 
BRANCH 15 17
ATOM     17 OG1  THR E   3      18.677  -3.603   0.964  1.00 29.20 LIG-0.39  OA
ATOM     18 HG1  THR E   3      18.521  -4.266   0.472  1.00 29.20 LIG 0.21  HD
ENDBRANCH 15 17
ENDBRANCH 6 15
ENDBRANCH 3 6
ENDBRANCH 1 2
BRANCH 1 19
ATOM     19  CB  HIS E   2      14.614  -6.011  -0.188  1.00 16.39 LIG 0.10  C 
BRANCH 19 20
ATOM     20  CG  HIS E   2      15.235  -4.805  -0.822  1.00 27.51 LIG 0.06  A 
ATOM     21  CD2 HIS E   2      15.144  -3.490  -0.513  1.00 25.75 LIG 0.14  A 
ATOM     22 NE2  HIS E   2      15.917  -2.806  -1.420  1.00 29.28 LIG-0.25  NA
ATOM     23  CE1 HIS E   2      16.463  -3.669  -2.257  1.00 28.87 LIG 0.23  A 
ATOM     24 ND1  HIS E   2      16.070  -4.884  -1.917  1.00 29.28 LIG-0.24  NA
ENDBRANCH 19 20
ENDBRANCH 1 19
BRANCH 1 25
ATOM     25  N   HIS E   2      15.060  -7.912   1.303  1.00 15.79 LIG-0.35  N 
ATOM     26 H    HIS E   2      14.422  -7.545   1.748  1.00 15.79 LIG 0.16  HD
ATOM     27  C   PHE E   1      15.508  -9.141   1.530  1.00 15.11 LIG 0.24  C 
ATOM     28 O    PHE E   1      16.425  -9.647   0.892  1.00 17.78 LIG-0.27  OA
BRANCH 27 29
ATOM     29  CA  PHE E   1      14.822  -9.917   2.649  1.00 10.43 LIG 0.18  C 
BRANCH 29 30
ATOM     30  N   PHE E   1      14.547  -9.051   3.784  1.00 15.82 LIG-0.35  N 
ATOM     31 H    PHE E   1      14.053  -8.374   3.586  1.00 15.82 LIG 0.16  HD
ATOM     32  C   ACE E   0      15.009  -9.274   5.015  1.00 20.55 LIG 0.21  C 
ATOM     33 O    ACE E   0      14.726  -8.517   5.949  1.00 32.51 LIG-0.27  OA
ATOM     34  CH3 ACE E   0      15.848 -10.502   5.220  1.00 11.71 LIG 0.12  C 
ENDBRANCH 29 30
BRANCH 29 35
ATOM     35  CB  PHE E   1      13.532 -10.552   2.128  1.00  9.28 LIG 0.07  C 
BRANCH 35 36
ATOM     36  CG  PHE E   1      12.667 -11.149   3.202  1.00 12.52 LIG-0.06  A 
ATOM     37  CD1 PHE E   1      11.861 -10.339   3.989  1.00 10.90 LIG 0.01  A 
ATOM     38  CE1 PHE E   1      11.053 -10.877   4.968  1.00 11.94 LIG 0.00  A 
ATOM     39  CZ  PHE E   1      11.049 -12.242   5.177  1.00  8.92 LIG 0.00  A 
ATOM     40  CE2 PHE E   1      11.851 -13.065   4.386  1.00  8.81 LIG 0.00  A 
ATOM     41  CD2 PHE E   1      12.648 -12.519   3.414  1.00 12.38 LIG 0.01  A 
ENDBRANCH 35 36
ENDBRANCH 29 35
ENDBRANCH 27 29
ENDBRANCH 1 25
TORSDOF 14
ENDMDL
MODEL 56
USER: ADFR SOLUTION from run 138
USER: SCORE 11.237812 LL:  -2.745 LR: -10.068 RR:   0.000 FEB:  -5.892
USER: RMSD 9.137187
USER: SEED 137
USER: STATUS no improvement in best in 46 clusters for 5 generations
USER: GENES 16
USER: genes 0 Translation |==|  0.50344 0.64012 0.29809
USER: genes 1 Rotation |==|  0.48470 0.29575 0.04413 0.51514
USER: genes 2 Torsion [N]-CA--C-[N] |==|  0.10173
USER: genes 3 Torsion [C]-N--CA-[C] |==|  0.14406
USER: genes 4 Torsion [N]-CA--C-[N] |==|  0.10044
USER: genes 5 Torsion [C]-N--CA-[C] |==|  0.32454
USER: genes 6 Torsion [N]-CA--C-[N] |==|  0.04283
USER: genes 7 Torsion [N]-CA--CB-[CG2] |==|  0.62754
USER: genes 8 Torsion [CA]-CB--OG1-[HG1] |==|  0.41955
USER: genes 9 Torsion [C]-CA--CB-[CG] |==|  0.24831
USER: genes 10 Torsion [CA]-CB--CG-[CD2] |==|  0.77460
USER: genes 11 Torsion [C]-CA--N-[C] |==|  0.79604
USER: genes 12 Torsion [N]-C--CA-[N] |==|  0.11588
USER: genes 13 Torsion [C]-CA--N-[C] |==|  0.69444
USER: genes 14 Torsion [C]-CA--CB-[CG] |==|  0.66310
USER: genes 15 Torsion [CA]-CB--CG-[CD2] |==|  0.80979
ROOT
ATOM      1  CA  HIS E   2      15.144  -5.733  -0.844  1.00 15.97 LIG 0.18  C 
ENDROOT
BRANCH 1 2
ATOM      2  C   HIS E   2      16.438  -5.282  -1.499  1.00 15.29 LIG 0.24  C 
ATOM      3  N   THR E   3      17.215  -6.246  -1.987  1.00 22.30 LIG-0.34  N 
ATOM      4 H    THR E   3      17.028  -7.083  -1.932  1.00 22.30 LIG 0.16  HD
ATOM      5 O    HIS E   2      16.722  -4.089  -1.576  1.00 12.62 LIG-0.27  OA
BRANCH 3 6
ATOM      6  CA  THR E   3      18.469  -5.957  -2.668  1.00 13.35 LIG 0.20  C 
BRANCH 6 7
ATOM      7  C   THR E   3      19.355  -5.048  -1.832  1.00 17.92 LIG 0.24  C 
ATOM      8  N   GLY E   4      19.323  -5.237  -0.513  1.00 20.63 LIG-0.35  N 
ATOM      9 H    GLY E   4      18.763  -5.760  -0.121  1.00 20.63 LIG 0.16  HD
ATOM     10 O    THR E   3      20.013  -4.157  -2.364  1.00 20.63 LIG-0.27  OA
BRANCH 8 11
ATOM     11  CA  GLY E   4      20.243  -4.570   0.392  1.00 21.12 LIG 0.23  C 
BRANCH 11 12
ATOM     12  C   GLY E   4      19.656  -3.613   1.414  1.00 30.37 LIG 0.28  C 
ATOM     13 O    GLY E   4      20.381  -2.811   1.995  1.00 22.56 LIG-0.27  OA
ATOM     14  N   NH2 E   5      18.343  -3.684   1.627  1.00 46.70 LIG-0.11  N 
ENDBRANCH 11 12
ENDBRANCH 8 11
ENDBRANCH 6 7
BRANCH 6 15
ATOM     15  CB  THR E   3      18.205  -5.299  -4.034  1.00 21.65 LIG 0.15  C 
ATOM     16  CG2 THR E   3      19.049  -5.929  -5.110  1.00 26.78 LIG 0.04  C 
BRANCH 15 17
ATOM     17 OG1  THR E   3      16.822  -5.457  -4.370  1.00 29.20 LIG-0.39  OA
ATOM     18 HG1  THR E   3      16.577  -4.817  -4.855  1.00 29.20 LIG 0.21  HD
ENDBRANCH 15 17
ENDBRANCH 6 15
ENDBRANCH 3 6
ENDBRANCH 1 2
BRANCH 1 19
ATOM     19  CB  HIS E   2      14.641  -4.636   0.090  1.00 16.39 LIG 0.10  C 
BRANCH 19 20
ATOM     20  CG  HIS E   2      13.738  -3.644  -0.576  1.00 27.51 LIG 0.06  A 
ATOM     21  CD2 HIS E   2      14.015  -2.563  -1.344  1.00 25.75 LIG 0.14  A 
ATOM     22 NE2  HIS E   2      12.813  -2.001  -1.700  1.00 29.28 LIG-0.25  NA
ATOM     23  CE1 HIS E   2      11.833  -2.709  -1.170  1.00 28.87 LIG 0.23  A 
ATOM     24 ND1  HIS E   2      12.364  -3.709  -0.488  1.00 29.28 LIG-0.24  NA
ENDBRANCH 19 20
ENDBRANCH 1 19
BRANCH 1 25
ATOM     25  N   HIS E   2      15.319  -6.988  -0.111  1.00 15.79 LIG-0.35  N 
ATOM     26 H    HIS E   2      15.325  -6.901   0.744  1.00 15.79 LIG 0.16  HD
ATOM     27  C   PHE E   1      15.456  -8.152  -0.737  1.00 15.11 LIG 0.24  C 
ATOM     28 O    PHE E   1      15.456  -8.259  -1.958  1.00 17.78 LIG-0.27  OA
BRANCH 27 29
ATOM     29  CA  PHE E   1      15.623  -9.382   0.150  1.00 10.43 LIG 0.18  C 
BRANCH 29 30
ATOM     30  N   PHE E   1      14.722  -9.324   1.289  1.00 15.82 LIG-0.35  N 
ATOM     31 H    PHE E   1      13.895  -9.428   1.076  1.00 15.82 LIG 0.16  HD
ATOM     32  C   ACE E   0      15.127  -9.130   2.545  1.00 20.55 LIG 0.21  C 
ATOM     33 O    ACE E   0      14.319  -9.111   3.479  1.00 32.51 LIG-0.27  OA
ATOM     34  CH3 ACE E   0      16.603  -8.977   2.774  1.00 11.71 LIG 0.12  C 
ENDBRANCH 29 30
BRANCH 29 35
ATOM     35  CB  PHE E   1      15.381 -10.651  -0.668  1.00  9.28 LIG 0.07  C 
BRANCH 35 36
ATOM     36  CG  PHE E   1      14.268 -11.513  -0.143  1.00 12.52 LIG-0.06  A 
ATOM     37  CD1 PHE E   1      13.095 -11.667  -0.867  1.00 10.90 LIG 0.01  A 
ATOM     38  CE1 PHE E   1      12.073 -12.467  -0.402  1.00 11.94 LIG 0.00  A 
ATOM     39  CZ  PHE E   1      12.212 -13.121   0.806  1.00  8.92 LIG 0.00  A 
ATOM     40  CE2 PHE E   1      13.391 -12.978   1.538  1.00  8.81 LIG 0.00  A 
ATOM     41  CD2 PHE E   1      14.402 -12.182   1.065  1.00 12.38 LIG 0.01  A 
ENDBRANCH 35 36
ENDBRANCH 29 35
ENDBRANCH 27 29
ENDBRANCH 1 25
TORSDOF 14
ENDMDL
MODEL 57
USER: ADFR SOLUTION from run 72
USER: SCORE 12.577054 LL:  -3.231 LR: -10.046 RR:   0.000 FEB:  -5.869
USER: RMSD 9.508125
USER: SEED 71
USER: STATUS no improvement in best in 16 clusters for 5 generations
USER: GENES 16
USER: genes 0 Translation |==|  0.38045 0.32729 0.36678
USER: genes 1 Rotation |==|  0.79223 0.70748 0.83938 0.57986
USER: genes 2 Torsion [N]-CA--C-[N] |==|  0.08010
USER: genes 3 Torsion [C]-N--CA-[C] |==|  0.83345
USER: genes 4 Torsion [N]-CA--C-[N] |==|  0.90310
USER: genes 5 Torsion [C]-N--CA-[C] |==|  0.68869
USER: genes 6 Torsion [N]-CA--C-[N] |==|  0.42778
USER: genes 7 Torsion [N]-CA--CB-[CG2] |==|  0.62326
USER: genes 8 Torsion [CA]-CB--OG1-[HG1] |==|  0.15769
USER: genes 9 Torsion [C]-CA--CB-[CG] |==|  0.48794
USER: genes 10 Torsion [CA]-CB--CG-[CD2] |==|  0.50154
USER: genes 11 Torsion [C]-CA--N-[C] |==|  0.70469
USER: genes 12 Torsion [N]-C--CA-[N] |==|  0.03267
USER: genes 13 Torsion [C]-CA--N-[C] |==|  0.74998
USER: genes 14 Torsion [C]-CA--CB-[CG] |==|  0.40160
USER: genes 15 Torsion [CA]-CB--CG-[CD2] |==|  0.89489
ROOT
ATOM      1  CA  HIS E   2      12.839 -12.303   0.290  1.00 15.97 LIG 0.18  C 
ENDROOT
BRANCH 1 2
ATOM      2  C   HIS E   2      12.962 -12.863  -1.116  1.00 15.29 LIG 0.24  C 
ATOM      3  N   THR E   3      12.455 -14.077  -1.309  1.00 22.30 LIG-0.34  N 
ATOM      4 H    THR E   3      12.090 -14.547  -0.688  1.00 22.30 LIG 0.16  HD
ATOM      5 O    HIS E   2      13.490 -12.207  -2.012  1.00 12.62 LIG-0.27  OA
BRANCH 3 6
ATOM      6  CA  THR E   3      12.476 -14.726  -2.614  1.00 13.35 LIG 0.20  C 
BRANCH 6 7
ATOM      7  C   THR E   3      11.720 -13.909  -3.649  1.00 17.92 LIG 0.24  C 
ATOM      8  N   GLY E   4      10.646 -13.251  -3.216  1.00 20.63 LIG-0.35  N 
ATOM      9 H    GLY E   4      10.312 -13.351  -2.429  1.00 20.63 LIG 0.16  HD
ATOM     10 O    THR E   3      12.070 -13.919  -4.827  1.00 20.63 LIG-0.27  OA
BRANCH 8 11
ATOM     11  CA  GLY E   4       9.933 -12.294  -4.045  1.00 21.12 LIG 0.23  C 
BRANCH 11 12
ATOM     12  C   GLY E   4       9.994 -10.831  -3.643  1.00 30.37 LIG 0.28  C 
ATOM     13 O    GLY E   4      10.199 -10.522  -2.472  1.00 22.56 LIG-0.27  OA
ATOM     14  N   NH2 E   5       9.830  -9.930  -4.609  1.00 46.70 LIG-0.11  N 
ENDBRANCH 11 12
ENDBRANCH 8 11
ENDBRANCH 6 7
BRANCH 6 15
ATOM     15  CB  THR E   3      11.864 -16.136  -2.527  1.00 21.65 LIG 0.15  C 
ATOM     16  CG2 THR E   3      12.702 -17.136  -3.279  1.00 26.78 LIG 0.04  C 
BRANCH 15 17
ATOM     17 OG1  THR E   3      11.786 -16.529  -1.153  1.00 29.20 LIG-0.39  OA
ATOM     18 HG1  THR E   3      11.340 -15.961  -0.724  1.00 29.20 LIG 0.21  HD
ENDBRANCH 15 17
ENDBRANCH 6 15
ENDBRANCH 3 6
ENDBRANCH 1 2
BRANCH 1 19
ATOM     19  CB  HIS E   2      13.992 -11.339   0.553  1.00 16.39 LIG 0.10  C 
BRANCH 19 20
ATOM     20  CG  HIS E   2      13.911 -10.648   1.879  1.00 27.51 LIG 0.06  A 
ATOM     21  CD2 HIS E   2      14.725  -9.733   2.457  1.00 25.75 LIG 0.14  A 
ATOM     22 NE2  HIS E   2      14.185  -9.428   3.684  1.00 29.28 LIG-0.25  NA
ATOM     23  CE1 HIS E   2      13.079 -10.130   3.853  1.00 28.87 LIG 0.23  A 
ATOM     24 ND1  HIS E   2      12.889 -10.873   2.777  1.00 29.28 LIG-0.24  NA
ENDBRANCH 19 20
ENDBRANCH 1 19
BRANCH 1 25
ATOM     25  N   HIS E   2      12.820 -13.366   1.295  1.00 15.79 LIG-0.35  N 
ATOM     26 H    HIS E   2      13.583 -13.739   1.431  1.00 15.79 LIG 0.16  HD
ATOM     27  C   PHE E   1      11.707 -13.710   1.932  1.00 15.11 LIG 0.24  C 
ATOM     28 O    PHE E   1      10.624 -13.176   1.720  1.00 17.78 LIG-0.27  OA
BRANCH 27 29
ATOM     29  CA  PHE E   1      11.832 -14.830   2.960  1.00 10.43 LIG 0.18  C 
BRANCH 29 30
ATOM     30  N   PHE E   1      13.229 -15.122   3.237  1.00 15.82 LIG-0.35  N 
ATOM     31 H    PHE E   1      13.554 -14.657   3.884  1.00 15.82 LIG 0.16  HD
ATOM     32  C   ACE E   0      13.946 -16.021   2.561  1.00 20.55 LIG 0.21  C 
ATOM     33 O    ACE E   0      15.125 -16.246   2.853  1.00 32.51 LIG-0.27  OA
ATOM     34  CH3 ACE E   0      13.247 -16.771   1.463  1.00 11.71 LIG 0.12  C 
ENDBRANCH 29 30
BRANCH 29 35
ATOM     35  CB  PHE E   1      11.095 -14.444   4.243  1.00  9.28 LIG 0.07  C 
BRANCH 35 36
ATOM     36  CG  PHE E   1      10.429 -15.599   4.936  1.00 12.52 LIG-0.06  A 
ATOM     37  CD1 PHE E   1      10.402 -15.669   6.320  1.00 10.90 LIG 0.01  A 
ATOM     38  CE1 PHE E   1       9.781 -16.716   6.967  1.00 11.94 LIG 0.00  A 
ATOM     39  CZ  PHE E   1       9.183 -17.719   6.228  1.00  8.92 LIG 0.00  A 
ATOM     40  CE2 PHE E   1       9.199 -17.653   4.835  1.00  8.81 LIG 0.00  A 
ATOM     41  CD2 PHE E   1       9.816 -16.605   4.203  1.00 12.38 LIG 0.01  A 
ENDBRANCH 35 36
ENDBRANCH 29 35
ENDBRANCH 27 29
ENDBRANCH 1 25
TORSDOF 14
ENDMDL
MODEL 58
USER: ADFR SOLUTION from run 94
USER: SCORE 11.973789 LL:  -2.953 LR: -10.037 RR:   0.000 FEB:  -5.860
USER: RMSD 5.385355
USER: SEED 93
USER: STATUS no improvement in best in 40 clusters for 5 generations
USER: GENES 16
USER: genes 0 Translation |==|  0.50471 0.61128 0.37143
USER: genes 1 Rotation |==|  0.26411 0.09725 0.61533 0.63730
USER: genes 2 Torsion [N]-CA--C-[N] |==|  0.33175
USER: genes 3 Torsion [C]-N--CA-[C] |==|  0.77024
USER: genes 4 Torsion [N]-CA--C-[N] |==|  0.30606
USER: genes 5 Torsion [C]-N--CA-[C] |==|  0.83677
USER: genes 6 Torsion [N]-CA--C-[N] |==|  0.93798
USER: genes 7 Torsion [N]-CA--CB-[CG2] |==|  0.79366
USER: genes 8 Torsion [CA]-CB--OG1-[HG1] |==|  0.84570
USER: genes 9 Torsion [C]-CA--CB-[CG] |==|  0.46860
USER: genes 10 Torsion [CA]-CB--CG-[CD2] |==|  0.12121
USER: genes 11 Torsion [C]-CA--N-[C] |==|  0.71909
USER: genes 12 Torsion [N]-C--CA-[N] |==|  0.79313
USER: genes 13 Torsion [C]-CA--N-[C] |==|  0.68456
USER: genes 14 Torsion [C]-CA--CB-[CG] |==|  0.75134
USER: genes 15 Torsion [CA]-CB--CG-[CD2] |==|  0.79078
ROOT
ATOM      1  CA  HIS E   2      15.168  -6.339   0.367  1.00 15.97 LIG 0.18  C 
ENDROOT
BRANCH 1 2
ATOM      2  C   HIS E   2      15.322  -7.840   0.536  1.00 15.29 LIG 0.24  C 
ATOM      3  N   THR E   3      15.212  -8.304   1.778  1.00 22.30 LIG-0.34  N 
ATOM      4 H    THR E   3      15.080  -7.803   2.464  1.00 22.30 LIG 0.16  HD
ATOM      5 O    HIS E   2      15.520  -8.567  -0.435  1.00 12.62 LIG-0.27  OA
BRANCH 3 6
ATOM      6  CA  THR E   3      15.307  -9.725   2.085  1.00 13.35 LIG 0.20  C 
BRANCH 6 7
ATOM      7  C   THR E   3      13.980 -10.429   1.856  1.00 17.92 LIG 0.24  C 
ATOM      8  N   GLY E   4      13.925 -11.270   0.823  1.00 20.63 LIG-0.35  N 
ATOM      9 H    GLY E   4      14.552 -11.347   0.239  1.00 20.63 LIG 0.16  HD
ATOM     10 O    THR E   3      13.009 -10.176   2.565  1.00 20.63 LIG-0.27  OA
BRANCH 8 11
ATOM     11  CA  GLY E   4      12.788 -12.143   0.590  1.00 21.12 LIG 0.23  C 
BRANCH 11 12
ATOM     12  C   GLY E   4      12.419 -13.128   1.685  1.00 30.37 LIG 0.28  C 
ATOM     13 O    GLY E   4      11.285 -13.595   1.737  1.00 22.56 LIG-0.27  OA
ATOM     14  N   NH2 E   5      13.375 -13.458   2.551  1.00 46.70 LIG-0.11  N 
ENDBRANCH 11 12
ENDBRANCH 8 11
ENDBRANCH 6 7
BRANCH 6 15
ATOM     15  CB  THR E   3      15.754  -9.935   3.543  1.00 21.65 LIG 0.15  C 
ATOM     16  CG2 THR E   3      17.219  -9.631   3.709  1.00 26.78 LIG 0.04  C 
BRANCH 15 17
ATOM     17 OG1  THR E   3      14.996  -9.069   4.394  1.00 29.20 LIG-0.39  OA
ATOM     18 HG1  THR E   3      15.080  -8.275   4.133  1.00 29.20 LIG 0.21  HD
ENDBRANCH 15 17
ENDBRANCH 6 15
ENDBRANCH 3 6
ENDBRANCH 1 2
BRANCH 1 19
ATOM     19  CB  HIS E   2      13.961  -6.051  -0.521  1.00 16.39 LIG 0.10  C 
BRANCH 19 20
ATOM     20  CG  HIS E   2      13.554  -4.610  -0.540  1.00 27.51 LIG 0.06  A 
ATOM     21  CD2 HIS E   2      14.292  -3.478  -0.632  1.00 25.75 LIG 0.14  A 
ATOM     22 NE2  HIS E   2      13.415  -2.420  -0.605  1.00 29.28 LIG-0.25  NA
ATOM     23  CE1 HIS E   2      12.184  -2.885  -0.499  1.00 28.87 LIG 0.23  A 
ATOM     24 ND1  HIS E   2      12.239  -4.205  -0.461  1.00 29.28 LIG-0.24  NA
ENDBRANCH 19 20
ENDBRANCH 1 19
BRANCH 1 25
ATOM     25  N   HIS E   2      16.375  -5.733  -0.198  1.00 15.79 LIG-0.35  N 
ATOM     26 H    HIS E   2      16.455  -5.831  -1.049  1.00 15.79 LIG 0.16  HD
ATOM     27  C   PHE E   1      17.257  -5.091   0.559  1.00 15.11 LIG 0.24  C 
ATOM     28 O    PHE E   1      17.133  -4.969   1.773  1.00 17.78 LIG-0.27  OA
BRANCH 27 29
ATOM     29  CA  PHE E   1      18.466  -4.502  -0.161  1.00 10.43 LIG 0.18  C 
BRANCH 29 30
ATOM     30  N   PHE E   1      19.403  -5.548  -0.536  1.00 15.82 LIG-0.35  N 
ATOM     31 H    PHE E   1      19.094  -6.087  -1.131  1.00 15.82 LIG 0.16  HD
ATOM     32  C   ACE E   0      20.626  -5.667  -0.017  1.00 20.55 LIG 0.21  C 
ATOM     33 O    ACE E   0      21.391  -6.563  -0.389  1.00 32.51 LIG-0.27  OA
ATOM     34  CH3 ACE E   0      21.041  -4.646   1.002  1.00 11.71 LIG 0.12  C 
ENDBRANCH 29 30
BRANCH 29 35
ATOM     35  CB  PHE E   1      18.008  -3.719  -1.392  1.00  9.28 LIG 0.07  C 
BRANCH 35 36
ATOM     36  CG  PHE E   1      17.915  -4.545  -2.643  1.00 12.52 LIG-0.06  A 
ATOM     37  CD1 PHE E   1      16.679  -4.927  -3.144  1.00 10.90 LIG 0.01  A 
ATOM     38  CE1 PHE E   1      16.580  -5.673  -4.299  1.00 11.94 LIG 0.00  A 
ATOM     39  CZ  PHE E   1      17.727  -6.056  -4.966  1.00  8.92 LIG 0.00  A 
ATOM     40  CE2 PHE E   1      18.975  -5.671  -4.473  1.00  8.81 LIG 0.00  A 
ATOM     41  CD2 PHE E   1      19.060  -4.926  -3.326  1.00 12.38 LIG 0.01  A 
ENDBRANCH 35 36
ENDBRANCH 29 35
ENDBRANCH 27 29
ENDBRANCH 1 25
TORSDOF 14
ENDMDL
MODEL 59
USER: ADFR SOLUTION from run 52
USER: SCORE 12.259164 LL:  -3.275 LR: -10.013 RR:   0.000 FEB:  -5.837
USER: RMSD 6.088048
USER: SEED 51
USER: STATUS no improvement in best in 29 clusters for 5 generations
USER: GENES 16
USER: genes 0 Translation |==|  0.66864 0.64874 0.48986
USER: genes 1 Rotation |==|  0.18652 0.62738 0.74214 0.77726
USER: genes 2 Torsion [N]-CA--C-[N] |==|  0.91798
USER: genes 3 Torsion [C]-N--CA-[C] |==|  0.63905
USER: genes 4 Torsion [N]-CA--C-[N] |==|  0.41899
USER: genes 5 Torsion [C]-N--CA-[C] |==|  0.76193
USER: genes 6 Torsion [N]-CA--C-[N] |==|  0.50794
USER: genes 7 Torsion [N]-CA--CB-[CG2] |==|  0.48994
USER: genes 8 Torsion [CA]-CB--OG1-[HG1] |==|  0.62871
USER: genes 9 Torsion [C]-CA--CB-[CG] |==|  0.14960
USER: genes 10 Torsion [CA]-CB--CG-[CD2] |==|  0.77888
USER: genes 11 Torsion [C]-CA--N-[C] |==|  0.56667
USER: genes 12 Torsion [N]-C--CA-[N] |==|  0.99048
USER: genes 13 Torsion [C]-CA--N-[C] |==|  0.75471
USER: genes 14 Torsion [C]-CA--CB-[CG] |==|  0.83800
USER: genes 15 Torsion [CA]-CB--CG-[CD2] |==|  0.76985
ROOT
ATOM      1  CA  HIS E   2      18.242  -5.553   2.321  1.00 15.97 LIG 0.18  C 
ENDROOT
BRANCH 1 2
ATOM      2  C   HIS E   2      18.302  -5.728   3.828  1.00 15.29 LIG 0.24  C 
ATOM      3  N   THR E   3      17.148  -5.994   4.433  1.00 22.30 LIG-0.34  N 
ATOM      4 H    THR E   3      16.395  -6.052   4.021  1.00 22.30 LIG 0.16  HD
ATOM      5 O    HIS E   2      19.370  -5.639   4.430  1.00 12.62 LIG-0.27  OA
BRANCH 3 6
ATOM      6  CA  THR E   3      17.061  -6.216   5.870  1.00 13.35 LIG 0.20  C 
BRANCH 6 7
ATOM      7  C   THR E   3      16.296  -7.490   6.187  1.00 17.92 LIG 0.24  C 
ATOM      8  N   GLY E   4      16.632  -8.119   7.313  1.00 20.63 LIG-0.35  N 
ATOM      9 H    GLY E   4      17.311  -7.902   7.795  1.00 20.63 LIG 0.16  HD
ATOM     10 O    THR E   3      15.457  -7.926   5.401  1.00 20.63 LIG-0.27  OA
BRANCH 8 11
ATOM     11  CA  GLY E   4      15.872  -9.243   7.833  1.00 21.12 LIG 0.23  C 
BRANCH 11 12
ATOM     12  C   GLY E   4      14.671  -8.935   8.709  1.00 30.37 LIG 0.28  C 
ATOM     13 O    GLY E   4      14.332  -7.771   8.904  1.00 22.56 LIG-0.27  OA
ATOM     14  N   NH2 E   5      14.017  -9.973   9.228  1.00 46.70 LIG-0.11  N 
ENDBRANCH 11 12
ENDBRANCH 8 11
ENDBRANCH 6 7
BRANCH 6 15
ATOM     15  CB  THR E   3      16.378  -5.023   6.562  1.00 21.65 LIG 0.15  C 
ATOM     16  CG2 THR E   3      16.203  -5.278   8.035  1.00 26.78 LIG 0.04  C 
BRANCH 15 17
ATOM     17 OG1  THR E   3      17.183  -3.853   6.381  1.00 29.20 LIG-0.39  OA
ATOM     18 HG1  THR E   3      17.259  -3.449   7.114  1.00 29.20 LIG 0.21  HD
ENDBRANCH 15 17
ENDBRANCH 6 15
ENDBRANCH 3 6
ENDBRANCH 1 2
BRANCH 1 19
ATOM     19  CB  HIS E   2      18.063  -4.073   1.990  1.00 16.39 LIG 0.10  C 
BRANCH 19 20
ATOM     20  CG  HIS E   2      19.092  -3.185   2.619  1.00 27.51 LIG 0.06  A 
ATOM     21  CD2 HIS E   2      19.195  -2.695   3.877  1.00 25.75 LIG 0.14  A 
ATOM     22 NE2  HIS E   2      20.337  -1.930   3.920  1.00 29.28 LIG-0.25  NA
ATOM     23  CE1 HIS E   2      20.913  -1.950   2.733  1.00 28.87 LIG 0.23  A 
ATOM     24 ND1  HIS E   2      20.183  -2.703   1.928  1.00 29.28 LIG-0.24  NA
ENDBRANCH 19 20
ENDBRANCH 1 19
BRANCH 1 25
ATOM     25  N   HIS E   2      17.163  -6.344   1.727  1.00 15.79 LIG-0.35  N 
ATOM     26 H    HIS E   2      16.523  -6.533   2.270  1.00 15.79 LIG 0.16  HD
ATOM     27  C   PHE E   1      17.193  -6.727   0.456  1.00 15.11 LIG 0.24  C 
ATOM     28 O    PHE E   1      18.118  -6.458  -0.302  1.00 17.78 LIG-0.27  OA
BRANCH 27 29
ATOM     29  CA  PHE E   1      16.000  -7.541  -0.033  1.00 10.43 LIG 0.18  C 
BRANCH 29 30
ATOM     30  N   PHE E   1      15.075  -7.808   1.056  1.00 15.82 LIG-0.35  N 
ATOM     31 H    PHE E   1      14.456  -7.216   1.132  1.00 15.82 LIG 0.16  HD
ATOM     32  C   ACE E   0      15.168  -8.865   1.864  1.00 20.55 LIG 0.21  C 
ATOM     33 O    ACE E   0      14.340  -9.056   2.762  1.00 32.51 LIG-0.27  OA
ATOM     34  CH3 ACE E   0      16.291  -9.828   1.608  1.00 11.71 LIG 0.12  C 
ENDBRANCH 29 30
BRANCH 29 35
ATOM     35  CB  PHE E   1      15.296  -6.802  -1.172  1.00  9.28 LIG 0.07  C 
BRANCH 35 36
ATOM     36  CG  PHE E   1      14.807  -5.430  -0.800  1.00 12.52 LIG-0.06  A 
ATOM     37  CD1 PHE E   1      15.554  -4.306  -1.119  1.00 10.90 LIG 0.01  A 
ATOM     38  CE1 PHE E   1      15.109  -3.042  -0.796  1.00 11.94 LIG 0.00  A 
ATOM     39  CZ  PHE E   1      13.905  -2.888  -0.137  1.00  8.92 LIG 0.00  A 
ATOM     40  CE2 PHE E   1      13.143  -4.013   0.182  1.00  8.81 LIG 0.00  A 
ATOM     41  CD2 PHE E   1      13.594  -5.265  -0.147  1.00 12.38 LIG 0.01  A 
ENDBRANCH 35 36
ENDBRANCH 29 35
ENDBRANCH 27 29
ENDBRANCH 1 25
TORSDOF 14
ENDMDL
MODEL 60
USER: ADFR SOLUTION from run 195
USER: SCORE 11.995695 LL:  -3.096 LR: -10.008 RR:   0.000 FEB:  -5.832
USER: RMSD 9.058698
USER: SEED 194
USER: STATUS no improvement in best in 18 clusters for 5 generations
USER: GENES 16
USER: genes 0 Translation |==|  0.41784 0.43512 0.70345
USER: genes 1 Rotation |==|  0.62261 0.43834 0.95902 0.64307
USER: genes 2 Torsion [N]-CA--C-[N] |==|  0.34476
USER: genes 3 Torsion [C]-N--CA-[C] |==|  0.65024
USER: genes 4 Torsion [N]-CA--C-[N] |==|  0.81814
USER: genes 5 Torsion [C]-N--CA-[C] |==|  0.73582
USER: genes 6 Torsion [N]-CA--C-[N] |==|  0.02101
USER: genes 7 Torsion [N]-CA--CB-[CG2] |==|  0.65685
USER: genes 8 Torsion [CA]-CB--OG1-[HG1] |==|  0.12736
USER: genes 9 Torsion [C]-CA--CB-[CG] |==|  0.43606
USER: genes 10 Torsion [CA]-CB--CG-[CD2] |==|  0.06580
USER: genes 11 Torsion [C]-CA--N-[C] |==|  0.82778
USER: genes 12 Torsion [N]-C--CA-[N] |==|  0.82228
USER: genes 13 Torsion [C]-CA--N-[C] |==|  0.70352
USER: genes 14 Torsion [C]-CA--CB-[CG] |==|  0.75637
USER: genes 15 Torsion [CA]-CB--CG-[CD2] |==|  0.30212
ROOT
ATOM      1  CA  HIS E   2      13.540 -10.039   5.845  1.00 15.97 LIG 0.18  C 
ENDROOT
BRANCH 1 2
ATOM      2  C   HIS E   2      14.888 -10.097   5.149  1.00 15.29 LIG 0.24  C 
ATOM      3  N   THR E   3      15.313  -8.962   4.599  1.00 22.30 LIG-0.34  N 
ATOM      4 H    THR E   3      14.862  -8.230   4.608  1.00 22.30 LIG 0.16  HD
ATOM      5 O    HIS E   2      15.538 -11.139   5.120  1.00 12.62 LIG-0.27  OA
BRANCH 3 6
ATOM      6  CA  THR E   3      16.600  -8.864   3.925  1.00 13.35 LIG 0.20  C 
BRANCH 6 7
ATOM      7  C   THR E   3      17.438  -7.732   4.497  1.00 17.92 LIG 0.24  C 
ATOM      8  N   GLY E   4      16.970  -6.498   4.315  1.00 20.63 LIG-0.35  N 
ATOM      9 H    GLY E   4      16.296  -6.314   3.814  1.00 20.63 LIG 0.16  HD
ATOM     10 O    THR E   3      18.514  -7.967   5.043  1.00 20.63 LIG-0.27  OA
BRANCH 8 11
ATOM     11  CA  GLY E   4      17.566  -5.337   4.955  1.00 21.12 LIG 0.23  C 
BRANCH 11 12
ATOM     12  C   GLY E   4      16.953  -4.861   6.260  1.00 30.37 LIG 0.28  C 
ATOM     13 O    GLY E   4      17.319  -3.801   6.762  1.00 22.56 LIG-0.27  OA
ATOM     14  N   NH2 E   5      16.013  -5.629   6.805  1.00 46.70 LIG-0.11  N 
ENDBRANCH 11 12
ENDBRANCH 8 11
ENDBRANCH 6 7
BRANCH 6 15
ATOM     15  CB  THR E   3      16.405  -8.644   2.414  1.00 21.65 LIG 0.15  C 
ATOM     16  CG2 THR E   3      17.107  -9.712   1.617  1.00 26.78 LIG 0.04  C 
BRANCH 15 17
ATOM     17 OG1  THR E   3      15.006  -8.678   2.113  1.00 29.20 LIG-0.39  OA
ATOM     18 HG1  THR E   3      14.587  -8.212   2.673  1.00 29.20 LIG 0.21  HD
ENDBRANCH 15 17
ENDBRANCH 6 15
ENDBRANCH 3 6
ENDBRANCH 1 2
BRANCH 1 19
ATOM     19  CB  HIS E   2      13.735 -10.247   7.344  1.00 16.39 LIG 0.10  C 
BRANCH 19 20
ATOM     20  CG  HIS E   2      12.626  -9.689   8.182  1.00 27.51 LIG 0.06  A 
ATOM     21  CD2 HIS E   2      11.333  -9.422   7.883  1.00 25.75 LIG 0.14  A 
ATOM     22 NE2  HIS E   2      10.749  -8.921   9.022  1.00 29.28 LIG-0.25  NA
ATOM     23  CE1 HIS E   2      11.652  -8.880   9.985  1.00 28.87 LIG 0.23  A 
ATOM     24 ND1  HIS E   2      12.794  -9.341   9.505  1.00 29.28 LIG-0.24  NA
ENDBRANCH 19 20
ENDBRANCH 1 19
BRANCH 1 25
ATOM     25  N   HIS E   2      12.610 -11.033   5.307  1.00 15.79 LIG-0.35  N 
ATOM     26 H    HIS E   2      12.348 -11.619   5.879  1.00 15.79 LIG 0.16  HD
ATOM     27  C   PHE E   1      12.219 -11.012   4.038  1.00 15.11 LIG 0.24  C 
ATOM     28 O    PHE E   1      12.609 -10.176   3.231  1.00 17.78 LIG-0.27  OA
BRANCH 27 29
ATOM     29  CA  PHE E   1      11.242 -12.104   3.613  1.00 10.43 LIG 0.18  C 
BRANCH 29 30
ATOM     30  N   PHE E   1      11.857 -13.417   3.721  1.00 15.82 LIG-0.35  N 
ATOM     31 H    PHE E   1      11.947 -13.687   4.533  1.00 15.82 LIG 0.16  HD
ATOM     32  C   ACE E   0      12.246 -14.141   2.671  1.00 20.55 LIG 0.21  C 
ATOM     33 O    ACE E   0      12.744 -15.262   2.819  1.00 32.51 LIG-0.27  OA
ATOM     34  CH3 ACE E   0      12.016 -13.553   1.308  1.00 11.71 LIG 0.12  C 
ENDBRANCH 29 30
BRANCH 29 35
ATOM     35  CB  PHE E   1       9.974 -12.029   4.464  1.00  9.28 LIG 0.07  C 
BRANCH 35 36
ATOM     36  CG  PHE E   1      10.049 -12.813   5.743  1.00 12.52 LIG-0.06  A 
ATOM     37  CD1 PHE E   1      10.046 -14.200   5.721  1.00 10.90 LIG 0.01  A 
ATOM     38  CE1 PHE E   1      10.128 -14.929   6.888  1.00 11.94 LIG 0.00  A 
ATOM     39  CZ  PHE E   1      10.206 -14.273   8.101  1.00  8.92 LIG 0.00  A 
ATOM     40  CE2 PHE E   1      10.216 -12.878   8.133  1.00  8.81 LIG 0.00  A 
ATOM     41  CD2 PHE E   1      10.137 -12.163   6.966  1.00 12.38 LIG 0.01  A 
ENDBRANCH 35 36
ENDBRANCH 29 35
ENDBRANCH 27 29
ENDBRANCH 1 25
TORSDOF 14
ENDMDL
MODEL 61
USER: ADFR SOLUTION from run 91
USER: SCORE 11.963011 LL:  -2.725 LR: -10.000 RR:   0.000 FEB:  -5.823
USER: RMSD 8.863121
USER: SEED 90
USER: STATUS no improvement in best in 37 clusters for 5 generations
USER: GENES 16
USER: genes 0 Translation |==|  0.41662 0.41082 0.49141
USER: genes 1 Rotation |==|  0.76075 0.56254 0.84816 0.73850
USER: genes 2 Torsion [N]-CA--C-[N] |==|  0.07846
USER: genes 3 Torsion [C]-N--CA-[C] |==|  0.59241
USER: genes 4 Torsion [N]-CA--C-[N] |==|  0.45995
USER: genes 5 Torsion [C]-N--CA-[C] |==|  0.68018
USER: genes 6 Torsion [N]-CA--C-[N] |==|  0.64801
USER: genes 7 Torsion [N]-CA--CB-[CG2] |==|  0.06933
USER: genes 8 Torsion [CA]-CB--OG1-[HG1] |==|  0.69512
USER: genes 9 Torsion [C]-CA--CB-[CG] |==|  0.23687
USER: genes 10 Torsion [CA]-CB--CG-[CD2] |==|  0.94485
USER: genes 11 Torsion [C]-CA--N-[C] |==|  0.17614
USER: genes 12 Torsion [N]-C--CA-[N] |==|  0.03419
USER: genes 13 Torsion [C]-CA--N-[C] |==|  0.67509
USER: genes 14 Torsion [C]-CA--CB-[CG] |==|  0.39250
USER: genes 15 Torsion [CA]-CB--CG-[CD2] |==|  0.95783
ROOT
ATOM      1  CA  HIS E   2      13.517 -10.549   2.346  1.00 15.97 LIG 0.18  C 
ENDROOT
BRANCH 1 2
ATOM      2  C   HIS E   2      13.834 -11.256   1.041  1.00 15.29 LIG 0.24  C 
ATOM      3  N   THR E   3      12.816 -11.873   0.447  1.00 22.30 LIG-0.34  N 
ATOM      4 H    THR E   3      12.020 -11.901   0.771  1.00 22.30 LIG 0.16  HD
ATOM      5 O    HIS E   2      14.969 -11.233   0.571  1.00 12.62 LIG-0.27  OA
BRANCH 3 6
ATOM      6  CA  THR E   3      12.967 -12.567  -0.825  1.00 13.35 LIG 0.20  C 
BRANCH 6 7
ATOM      7  C   THR E   3      11.702 -12.470  -1.661  1.00 17.92 LIG 0.24  C 
ATOM      8  N   GLY E   4      11.813 -12.801  -2.947  1.00 20.63 LIG-0.35  N 
ATOM      9 H    GLY E   4      12.565 -12.958  -3.334  1.00 20.63 LIG 0.16  HD
ATOM     10 O    THR E   3      10.658 -12.051  -1.166  1.00 20.63 LIG-0.27  OA
BRANCH 8 11
ATOM     11  CA  GLY E   4      10.659 -12.928  -3.821  1.00 21.12 LIG 0.23  C 
BRANCH 11 12
ATOM     12  C   GLY E   4      10.351 -14.303  -4.385  1.00 30.37 LIG 0.28  C 
ATOM     13 O    GLY E   4      10.222 -15.264  -3.630  1.00 22.56 LIG-0.27  OA
ATOM     14  N   NH2 E   5      10.218 -14.402  -5.705  1.00 46.70 LIG-0.11  N 
ENDBRANCH 11 12
ENDBRANCH 8 11
ENDBRANCH 6 7
BRANCH 6 15
ATOM     15  CB  THR E   3      13.318 -14.048  -0.596  1.00 21.65 LIG 0.15  C 
ATOM     16  CG2 THR E   3      12.831 -14.517   0.750  1.00 26.78 LIG 0.04  C 
BRANCH 15 17
ATOM     17 OG1  THR E   3      12.702 -14.839  -1.619  1.00 29.20 LIG-0.39  OA
ATOM     18 HG1  THR E   3      12.079 -15.293  -1.285  1.00 29.20 LIG 0.21  HD
ENDBRANCH 15 17
ENDBRANCH 6 15
ENDBRANCH 3 6
ENDBRANCH 1 2
BRANCH 1 19
ATOM     19  CB  HIS E   2      14.761 -10.538   3.230  1.00 16.39 LIG 0.10  C 
BRANCH 19 20
ATOM     20  CG  HIS E   2      15.692  -9.399   2.949  1.00 27.51 LIG 0.06  A 
ATOM     21  CD2 HIS E   2      15.822  -8.603   1.861  1.00 25.75 LIG 0.14  A 
ATOM     22 NE2  HIS E   2      16.834  -7.713   2.130  1.00 29.28 LIG-0.25  NA
ATOM     23  CE1 HIS E   2      17.309  -7.954   3.338  1.00 28.87 LIG 0.23  A 
ATOM     24 ND1  HIS E   2      16.636  -8.966   3.856  1.00 29.28 LIG-0.24  NA
ENDBRANCH 19 20
ENDBRANCH 1 19
BRANCH 1 25
ATOM     25  N   HIS E   2      12.397 -11.181   3.046  1.00 15.79 LIG-0.35  N 
ATOM     26 H    HIS E   2      11.706 -10.677   3.136  1.00 15.79 LIG 0.16  HD
ATOM     27  C   PHE E   1      12.466 -12.429   3.494  1.00 15.11 LIG 0.24  C 
ATOM     28 O    PHE E   1      13.462 -13.132   3.366  1.00 17.78 LIG-0.27  OA
BRANCH 27 29
ATOM     29  CA  PHE E   1      11.224 -12.965   4.199  1.00 10.43 LIG 0.18  C 
BRANCH 29 30
ATOM     30  N   PHE E   1      10.089 -12.082   3.988  1.00 15.82 LIG-0.35  N 
ATOM     31 H    PHE E   1       9.855 -12.017   3.163  1.00 15.82 LIG 0.16  HD
ATOM     32  C   ACE E   0       9.465 -11.430   4.971  1.00 20.55 LIG 0.21  C 
ATOM     33 O    ACE E   0       8.490 -10.708   4.738  1.00 32.51 LIG-0.27  OA
ATOM     34  CH3 ACE E   0       9.973 -11.647   6.367  1.00 11.71 LIG 0.12  C 
ENDBRANCH 29 30
BRANCH 29 35
ATOM     35  CB  PHE E   1      10.910 -14.376   3.701  1.00  9.28 LIG 0.07  C 
BRANCH 35 36
ATOM     36  CG  PHE E   1      10.430 -15.311   4.775  1.00 12.52 LIG-0.06  A 
ATOM     37  CD1 PHE E   1       9.830 -16.516   4.442  1.00 10.90 LIG 0.01  A 
ATOM     38  CE1 PHE E   1       9.399 -17.389   5.419  1.00 11.94 LIG 0.00  A 
ATOM     39  CZ  PHE E   1       9.557 -17.057   6.751  1.00  8.92 LIG 0.00  A 
ATOM     40  CE2 PHE E   1      10.166 -15.850   7.094  1.00  8.81 LIG 0.00  A 
ATOM     41  CD2 PHE E   1      10.594 -14.992   6.115  1.00 12.38 LIG 0.01  A 
ENDBRANCH 35 36
ENDBRANCH 29 35
ENDBRANCH 27 29
ENDBRANCH 1 25
TORSDOF 14
ENDMDL
MODEL 62
USER: ADFR SOLUTION from run 171
USER: SCORE 11.570641 LL:  -2.903 LR:  -9.968 RR:   0.000 FEB:  -5.791
USER: RMSD 5.071744
USER: SEED 170
USER: STATUS no improvement in best in 41 clusters for 5 generations
USER: GENES 16
USER: genes 0 Translation |==|  0.64732 0.61563 0.43672
USER: genes 1 Rotation |==|  0.37117 0.38373 0.69138 0.92809
USER: genes 2 Torsion [N]-CA--C-[N] |==|  0.69646
USER: genes 3 Torsion [C]-N--CA-[C] |==|  0.78840
USER: genes 4 Torsion [N]-CA--C-[N] |==|  0.46921
USER: genes 5 Torsion [C]-N--CA-[C] |==|  0.22771
USER: genes 6 Torsion [N]-CA--C-[N] |==|  0.51272
USER: genes 7 Torsion [N]-CA--CB-[CG2] |==|  0.90307
USER: genes 8 Torsion [CA]-CB--OG1-[HG1] |==|  0.83968
USER: genes 9 Torsion [C]-CA--CB-[CG] |==|  0.40488
USER: genes 10 Torsion [CA]-CB--CG-[CD2] |==|  0.76918
USER: genes 11 Torsion [C]-CA--N-[C] |==|  0.57382
USER: genes 12 Torsion [N]-C--CA-[N] |==|  0.93889
USER: genes 13 Torsion [C]-CA--N-[C] |==|  0.73527
USER: genes 14 Torsion [C]-CA--CB-[CG] |==|  0.73631
USER: genes 15 Torsion [CA]-CB--CG-[CD2] |==|  0.13392
ROOT
ATOM      1  CA  HIS E   2      17.842  -6.248   1.444  1.00 15.97 LIG 0.18  C 
ENDROOT
BRANCH 1 2
ATOM      2  C   HIS E   2      17.431  -7.706   1.550  1.00 15.29 LIG 0.24  C 
ATOM      3  N   THR E   3      16.537  -7.994   2.492  1.00 22.30 LIG-0.34  N 
ATOM      4 H    THR E   3      16.208  -7.412   3.033  1.00 22.30 LIG 0.16  HD
ATOM      5 O    HIS E   2      17.900  -8.550   0.790  1.00 12.62 LIG-0.27  OA
BRANCH 3 6
ATOM      6  CA  THR E   3      16.029  -9.346   2.688  1.00 13.35 LIG 0.20  C 
BRANCH 6 7
ATOM      7  C   THR E   3      15.014  -9.715   1.619  1.00 17.92 LIG 0.24  C 
ATOM      8  N   GLY E   4      14.654 -10.996   1.561  1.00 20.63 LIG-0.35  N 
ATOM      9 H    GLY E   4      15.037 -11.619   2.014  1.00 20.63 LIG 0.16  HD
ATOM     10 O    THR E   3      14.606  -8.868   0.827  1.00 20.63 LIG-0.27  OA
BRANCH 8 11
ATOM     11  CA  GLY E   4      13.567 -11.462   0.715  1.00 21.12 LIG 0.23  C 
BRANCH 11 12
ATOM     12  C   GLY E   4      13.872 -11.708  -0.751  1.00 30.37 LIG 0.28  C 
ATOM     13 O    GLY E   4      15.024 -11.608  -1.167  1.00 22.56 LIG-0.27  OA
ATOM     14  N   NH2 E   5      12.850 -12.044  -1.535  1.00 46.70 LIG-0.11  N 
ENDBRANCH 11 12
ENDBRANCH 8 11
ENDBRANCH 6 7
BRANCH 6 15
ATOM     15  CB  THR E   3      15.383  -9.485   4.078  1.00 21.65 LIG 0.15  C 
ATOM     16  CG2 THR E   3      16.112  -8.652   5.100  1.00 26.78 LIG 0.04  C 
BRANCH 15 17
ATOM     17 OG1  THR E   3      14.020  -9.051   4.007  1.00 29.20 LIG-0.39  OA
ATOM     18 HG1  THR E   3      13.993  -8.258   3.732  1.00 29.20 LIG 0.21  HD
ENDBRANCH 15 17
ENDBRANCH 6 15
ENDBRANCH 3 6
ENDBRANCH 1 2
BRANCH 1 19
ATOM     19  CB  HIS E   2      17.361  -5.495   2.681  1.00 16.39 LIG 0.10  C 
BRANCH 19 20
ATOM     20  CG  HIS E   2      18.285  -4.401   3.121  1.00 27.51 LIG 0.06  A 
ATOM     21  CD2 HIS E   2      19.405  -4.434   3.881  1.00 25.75 LIG 0.14  A 
ATOM     22 NE2  HIS E   2      19.868  -3.144   3.975  1.00 29.28 LIG-0.25  NA
ATOM     23  CE1 HIS E   2      19.062  -2.347   3.298  1.00 28.87 LIG 0.23  A 
ATOM     24 ND1  HIS E   2      18.099  -3.081   2.769  1.00 29.28 LIG-0.24  NA
ENDBRANCH 19 20
ENDBRANCH 1 19
BRANCH 1 25
ATOM     25  N   HIS E   2      17.316  -5.625   0.229  1.00 15.79 LIG-0.35  N 
ATOM     26 H    HIS E   2      16.594  -5.986  -0.070  1.00 15.79 LIG 0.16  HD
ATOM     27  C   PHE E   1      17.918  -4.591  -0.347  1.00 15.11 LIG 0.24  C 
ATOM     28 O    PHE E   1      18.952  -4.094   0.085  1.00 17.78 LIG-0.27  OA
BRANCH 27 29
ATOM     29  CA  PHE E   1      17.257  -4.036  -1.605  1.00 10.43 LIG 0.18  C 
BRANCH 29 30
ATOM     30  N   PHE E   1      16.400  -5.035  -2.221  1.00 15.82 LIG-0.35  N 
ATOM     31 H    PHE E   1      15.610  -5.064  -1.883  1.00 15.82 LIG 0.16  HD
ATOM     32  C   ACE E   0      16.791  -5.835  -3.215  1.00 20.55 LIG 0.21  C 
ATOM     33 O    ACE E   0      16.014  -6.653  -3.718  1.00 32.51 LIG-0.27  OA
ATOM     34  CH3 ACE E   0      18.196  -5.668  -3.718  1.00 11.71 LIG 0.12  C 
ENDBRANCH 29 30
BRANCH 29 35
ATOM     35  CB  PHE E   1      16.460  -2.777  -1.262  1.00  9.28 LIG 0.07  C 
BRANCH 35 36
ATOM     36  CG  PHE E   1      15.003  -3.029  -0.995  1.00 12.52 LIG-0.06  A 
ATOM     37  CD1 PHE E   1      14.030  -2.259  -1.614  1.00 10.90 LIG 0.01  A 
ATOM     38  CE1 PHE E   1      12.690  -2.491  -1.388  1.00 11.94 LIG 0.00  A 
ATOM     39  CZ  PHE E   1      12.306  -3.499  -0.525  1.00  8.92 LIG 0.00  A 
ATOM     40  CE2 PHE E   1      13.278  -4.283   0.098  1.00  8.81 LIG 0.00  A 
ATOM     41  CD2 PHE E   1      14.607  -4.046  -0.138  1.00 12.38 LIG 0.01  A 
ENDBRANCH 35 36
ENDBRANCH 29 35
ENDBRANCH 27 29
ENDBRANCH 1 25
TORSDOF 14
ENDMDL
MODEL 63
USER: ADFR SOLUTION from run 77
USER: SCORE 12.001957 LL:  -3.393 LR:  -9.959 RR:   0.000 FEB:  -5.783
USER: RMSD 5.946421
USER: SEED 76
USER: STATUS no improvement in best in 41 clusters for 5 generations
USER: GENES 16
USER: genes 0 Translation |==|  0.66177 0.64452 0.54613
USER: genes 1 Rotation |==|  0.22413 0.61565 0.73429 0.82501
USER: genes 2 Torsion [N]-CA--C-[N] |==|  0.91755
USER: genes 3 Torsion [C]-N--CA-[C] |==|  0.62847
USER: genes 4 Torsion [N]-CA--C-[N] |==|  0.97615
USER: genes 5 Torsion [C]-N--CA-[C] |==|  0.77888
USER: genes 6 Torsion [N]-CA--C-[N] |==|  0.48679
USER: genes 7 Torsion [N]-CA--CB-[CG2] |==|  0.65684
USER: genes 8 Torsion [CA]-CB--OG1-[HG1] |==|  0.29892
USER: genes 9 Torsion [C]-CA--CB-[CG] |==|  0.31340
USER: genes 10 Torsion [CA]-CB--CG-[CD2] |==|  0.52308
USER: genes 11 Torsion [C]-CA--N-[C] |==|  0.67778
USER: genes 12 Torsion [N]-C--CA-[N] |==|  0.81399
USER: genes 13 Torsion [C]-CA--N-[C] |==|  0.66048
USER: genes 14 Torsion [C]-CA--CB-[CG] |==|  0.18260
USER: genes 15 Torsion [CA]-CB--CG-[CD2] |==|  0.13950
ROOT
ATOM      1  CA  HIS E   2      18.113  -5.641   3.249  1.00 15.97 LIG 0.18  C 
ENDROOT
BRANCH 1 2
ATOM      2  C   HIS E   2      18.101  -6.142   4.683  1.00 15.29 LIG 0.24  C 
ATOM      3  N   THR E   3      16.904  -6.389   5.207  1.00 22.30 LIG-0.34  N 
ATOM      4 H    THR E   3      16.164  -6.263   4.787  1.00 22.30 LIG 0.16  HD
ATOM      5 O    HIS E   2      19.150  -6.317   5.298  1.00 12.62 LIG-0.27  OA
BRANCH 3 6
ATOM      6  CA  THR E   3      16.742  -6.902   6.560  1.00 13.35 LIG 0.20  C 
BRANCH 6 7
ATOM      7  C   THR E   3      15.750  -8.052   6.601  1.00 17.92 LIG 0.24  C 
ATOM      8  N   GLY E   4      15.069  -8.287   5.480  1.00 20.63 LIG-0.35  N 
ATOM      9 H    GLY E   4      15.088  -7.769   4.794  1.00 20.63 LIG 0.16  HD
ATOM     10 O    THR E   3      15.563  -8.678   7.642  1.00 20.63 LIG-0.27  OA
BRANCH 8 11
ATOM     11  CA  GLY E   4      14.222  -9.457   5.315  1.00 21.12 LIG 0.23  C 
BRANCH 11 12
ATOM     12  C   GLY E   4      14.898 -10.774   4.977  1.00 30.37 LIG 0.28  C 
ATOM     13 O    GLY E   4      16.110 -10.811   4.778  1.00 22.56 LIG-0.27  OA
ATOM     14  N   NH2 E   5      14.125 -11.856   4.923  1.00 46.70 LIG-0.11  N 
ENDBRANCH 11 12
ENDBRANCH 8 11
ENDBRANCH 6 7
BRANCH 6 15
ATOM     15  CB  THR E   3      16.272  -5.785   7.510  1.00 21.65 LIG 0.15  C 
ATOM     16  CG2 THR E   3      17.219  -5.626   8.670  1.00 26.78 LIG 0.04  C 
BRANCH 15 17
ATOM     17 OG1  THR E   3      16.206  -4.551   6.786  1.00 29.20 LIG-0.39  OA
ATOM     18 HG1  THR E   3      15.402  -4.344   6.659  1.00 29.20 LIG 0.21  HD
ENDBRANCH 15 17
ENDBRANCH 6 15
ENDBRANCH 3 6
ENDBRANCH 1 2
BRANCH 1 19
ATOM     19  CB  HIS E   2      18.118  -4.115   3.247  1.00 16.39 LIG 0.10  C 
BRANCH 19 20
ATOM     20  CG  HIS E   2      19.386  -3.515   2.724  1.00 27.51 LIG 0.06  A 
ATOM     21  CD2 HIS E   2      19.823  -2.233   2.703  1.00 25.75 LIG 0.14  A 
ATOM     22 NE2  HIS E   2      21.061  -2.237   2.108  1.00 29.28 LIG-0.25  NA
ATOM     23  CE1 HIS E   2      21.374  -3.476   1.774  1.00 28.87 LIG 0.23  A 
ATOM     24 ND1  HIS E   2      20.381  -4.268   2.138  1.00 29.28 LIG-0.24  NA
ENDBRANCH 19 20
ENDBRANCH 1 19
BRANCH 1 25
ATOM     25  N   HIS E   2      16.971  -6.151   2.489  1.00 15.79 LIG-0.35  N 
ATOM     26 H    HIS E   2      16.206  -5.882   2.776  1.00 15.79 LIG 0.16  HD
ATOM     27  C   PHE E   1      17.127  -6.959   1.447  1.00 15.11 LIG 0.24  C 
ATOM     28 O    PHE E   1      18.225  -7.341   1.056  1.00 17.78 LIG-0.27  OA
BRANCH 27 29
ATOM     29  CA  PHE E   1      15.852  -7.409   0.742  1.00 10.43 LIG 0.18  C 
BRANCH 29 30
ATOM     30  N   PHE E   1      15.061  -8.270   1.605  1.00 15.82 LIG-0.35  N 
ATOM     31 H    PHE E   1      14.843  -7.899   2.351  1.00 15.82 LIG 0.16  HD
ATOM     32  C   ACE E   0      14.702  -9.513   1.284  1.00 20.55 LIG 0.21  C 
ATOM     33 O    ACE E   0      14.009 -10.194   2.047  1.00 32.51 LIG-0.27  OA
ATOM     34  CH3 ACE E   0      15.140 -10.029  -0.057  1.00 11.71 LIG 0.12  C 
ENDBRANCH 29 30
BRANCH 29 35
ATOM     35  CB  PHE E   1      15.041  -6.189   0.304  1.00  9.28 LIG 0.07  C 
BRANCH 35 36
ATOM     36  CG  PHE E   1      15.713  -5.354  -0.749  1.00 12.52 LIG-0.06  A 
ATOM     37  CD1 PHE E   1      15.847  -3.984  -0.581  1.00 10.90 LIG 0.01  A 
ATOM     38  CE1 PHE E   1      16.474  -3.209  -1.533  1.00 11.94 LIG 0.00  A 
ATOM     39  CZ  PHE E   1      16.970  -3.801  -2.679  1.00  8.92 LIG 0.00  A 
ATOM     40  CE2 PHE E   1      16.845  -5.180  -2.853  1.00  8.81 LIG 0.00  A 
ATOM     41  CD2 PHE E   1      16.223  -5.941  -1.897  1.00 12.38 LIG 0.01  A 
ENDBRANCH 35 36
ENDBRANCH 29 35
ENDBRANCH 27 29
ENDBRANCH 1 25
TORSDOF 14
ENDMDL
MODEL 64
USER: ADFR SOLUTION from run 83
USER: SCORE 12.002785 LL:  -2.995 LR:  -9.960 RR:   0.000 FEB:  -5.784
USER: RMSD 8.900477
USER: SEED 82
USER: STATUS no improvement in best in 29 clusters for 5 generations
USER: GENES 16
USER: genes 0 Translation |==|  0.33265 0.30354 0.34034
USER: genes 1 Rotation |==|  0.59744 0.94478 0.68315 0.59556
USER: genes 2 Torsion [N]-CA--C-[N] |==|  0.24348
USER: genes 3 Torsion [C]-N--CA-[C] |==|  0.68333
USER: genes 4 Torsion [N]-CA--C-[N] |==|  0.01501
USER: genes 5 Torsion [C]-N--CA-[C] |==|  0.63199
USER: genes 6 Torsion [N]-CA--C-[N] |==|  0.48014
USER: genes 7 Torsion [N]-CA--CB-[CG2] |==|  0.65529
USER: genes 8 Torsion [CA]-CB--OG1-[HG1] |==|  0.37976
USER: genes 9 Torsion [C]-CA--CB-[CG] |==|  0.28423
USER: genes 10 Torsion [CA]-CB--CG-[CD2] |==|  0.33082
USER: genes 11 Torsion [C]-CA--N-[C] |==|  0.80542
USER: genes 12 Torsion [N]-C--CA-[N] |==|  0.99940
USER: genes 13 Torsion [C]-CA--N-[C] |==|  0.75143
USER: genes 14 Torsion [C]-CA--CB-[CG] |==|  0.46143
USER: genes 15 Torsion [CA]-CB--CG-[CD2] |==|  0.19447
ROOT
ATOM      1  CA  HIS E   2      11.942 -12.802  -0.146  1.00 15.97 LIG 0.18  C 
ENDROOT
BRANCH 1 2
ATOM      2  C   HIS E   2      12.926 -13.942  -0.337  1.00 15.29 LIG 0.24  C 
ATOM      3  N   THR E   3      12.522 -15.140   0.077  1.00 22.30 LIG-0.34  N 
ATOM      4 H    THR E   3      11.760 -15.284   0.451  1.00 22.30 LIG 0.16  HD
ATOM      5 O    HIS E   2      14.021 -13.749  -0.860  1.00 12.62 LIG-0.27  OA
BRANCH 3 6
ATOM      6  CA  THR E   3      13.349 -16.330  -0.070  1.00 13.35 LIG 0.20  C 
BRANCH 6 7
ATOM      7  C   THR E   3      12.725 -17.321  -1.037  1.00 17.92 LIG 0.24  C 
ATOM      8  N   GLY E   4      11.621 -16.921  -1.666  1.00 20.63 LIG-0.35  N 
ATOM      9 H    GLY E   4      11.202 -16.194  -1.476  1.00 20.63 LIG 0.16  HD
ATOM     10 O    THR E   3      13.200 -18.447  -1.170  1.00 20.63 LIG-0.27  OA
BRANCH 8 11
ATOM     11  CA  GLY E   4      11.018 -17.686  -2.745  1.00 21.12 LIG 0.23  C 
BRANCH 11 12
ATOM     12  C   GLY E   4      10.628 -16.937  -4.007  1.00 30.37 LIG 0.28  C 
ATOM     13 O    GLY E   4      10.713 -15.713  -4.048  1.00 22.56 LIG-0.27  OA
ATOM     14  N   NH2 E   5      10.214 -17.666  -5.041  1.00 46.70 LIG-0.11  N 
ENDBRANCH 11 12
ENDBRANCH 8 11
ENDBRANCH 6 7
BRANCH 6 15
ATOM     15  CB  THR E   3      13.565 -17.011   1.294  1.00 21.65 LIG 0.15  C 
ATOM     16  CG2 THR E   3      15.032 -17.163   1.597  1.00 26.78 LIG 0.04  C 
BRANCH 15 17
ATOM     17 OG1  THR E   3      12.956 -16.215   2.317  1.00 29.20 LIG-0.39  OA
ATOM     18 HG1  THR E   3      12.543 -16.715   2.851  1.00 29.20 LIG 0.21  HD
ENDBRANCH 15 17
ENDBRANCH 6 15
ENDBRANCH 3 6
ENDBRANCH 1 2
BRANCH 1 19
ATOM     19  CB  HIS E   2      12.151 -11.765  -1.247  1.00 16.39 LIG 0.10  C 
BRANCH 19 20
ATOM     20  CG  HIS E   2      11.129 -11.829  -2.340  1.00 27.51 LIG 0.06  A 
ATOM     21  CD2 HIS E   2      10.232 -10.914  -2.775  1.00 25.75 LIG 0.14  A 
ATOM     22 NE2  HIS E   2       9.536 -11.490  -3.811  1.00 29.28 LIG-0.25  NA
ATOM     23  CE1 HIS E   2       9.989 -12.715  -4.004  1.00 28.87 LIG 0.23  A 
ATOM     24 ND1  HIS E   2      10.954 -12.945  -3.131  1.00 29.28 LIG-0.24  NA
ENDBRANCH 19 20
ENDBRANCH 1 19
BRANCH 1 25
ATOM     25  N   HIS E   2      12.081 -12.183   1.173  1.00 15.79 LIG-0.35  N 
ATOM     26 H    HIS E   2      12.412 -11.390   1.159  1.00 15.79 LIG 0.16  HD
ATOM     27  C   PHE E   1      11.718 -12.814   2.284  1.00 15.11 LIG 0.24  C 
ATOM     28 O    PHE E   1      11.255 -13.949   2.288  1.00 17.78 LIG-0.27  OA
BRANCH 27 29
ATOM     29  CA  PHE E   1      11.911 -12.049   3.590  1.00 10.43 LIG 0.18  C 
BRANCH 29 30
ATOM     30  N   PHE E   1      12.480 -10.736   3.340  1.00 15.82 LIG-0.35  N 
ATOM     31 H    PHE E   1      11.888 -10.123   3.219  1.00 15.82 LIG 0.16  HD
ATOM     32  C   ACE E   0      13.791 -10.493   3.300  1.00 20.55 LIG 0.21  C 
ATOM     33 O    ACE E   0      14.222  -9.351   3.106  1.00 32.51 LIG-0.27  OA
ATOM     34  CH3 ACE E   0      14.712 -11.653   3.543  1.00 11.71 LIG 0.12  C 
ENDBRANCH 29 30
BRANCH 29 35
ATOM     35  CB  PHE E   1      10.575 -11.929   4.325  1.00  9.28 LIG 0.07  C 
BRANCH 35 36
ATOM     36  CG  PHE E   1      10.703 -11.492   5.757  1.00 12.52 LIG-0.06  A 
ATOM     37  CD1 PHE E   1      10.452 -12.383   6.790  1.00 10.90 LIG 0.01  A 
ATOM     38  CE1 PHE E   1      10.580 -11.997   8.108  1.00 11.94 LIG 0.00  A 
ATOM     39  CZ  PHE E   1      10.955 -10.702   8.408  1.00  8.92 LIG 0.00  A 
ATOM     40  CE2 PHE E   1      11.216  -9.801   7.375  1.00  8.81 LIG 0.00  A 
ATOM     41  CD2 PHE E   1      11.089 -10.197   6.069  1.00 12.38 LIG 0.01  A 
ENDBRANCH 35 36
ENDBRANCH 29 35
ENDBRANCH 27 29
ENDBRANCH 1 25
TORSDOF 14
ENDMDL
MODEL 65
USER: ADFR SOLUTION from run 144
USER: SCORE 11.272452 LL:  -3.279 LR:  -9.956 RR:   0.000 FEB:  -5.780
USER: RMSD 8.417341
USER: SEED 143
USER: STATUS no improvement in best in 14 clusters for 5 generations
USER: GENES 16
USER: genes 0 Translation |==|  0.41940 0.42335 0.58428
USER: genes 1 Rotation |==|  0.66759 0.38456 0.94131 0.61761
USER: genes 2 Torsion [N]-CA--C-[N] |==|  0.41191
USER: genes 3 Torsion [C]-N--CA-[C] |==|  0.58333
USER: genes 4 Torsion [N]-CA--C-[N] |==|  0.82934
USER: genes 5 Torsion [C]-N--CA-[C] |==|  0.68541
USER: genes 6 Torsion [N]-CA--C-[N] |==|  0.06358
USER: genes 7 Torsion [N]-CA--CB-[CG2] |==|  0.70509
USER: genes 8 Torsion [CA]-CB--OG1-[HG1] |==|  0.05009
USER: genes 9 Torsion [C]-CA--CB-[CG] |==|  0.40921
USER: genes 10 Torsion [CA]-CB--CG-[CD2] |==|  0.51170
USER: genes 11 Torsion [C]-CA--N-[C] |==|  0.19755
USER: genes 12 Torsion [N]-C--CA-[N] |==|  0.36180
USER: genes 13 Torsion [C]-CA--N-[C] |==|  0.78817
USER: genes 14 Torsion [C]-CA--CB-[CG] |==|  0.13469
USER: genes 15 Torsion [CA]-CB--CG-[CD2] |==|  0.62788
ROOT
ATOM      1  CA  HIS E   2      13.569 -10.286   3.879  1.00 15.97 LIG 0.18  C 
ENDROOT
BRANCH 1 2
ATOM      2  C   HIS E   2      14.831 -10.071   3.062  1.00 15.29 LIG 0.24  C 
ATOM      3  N   THR E   3      15.438  -8.898   3.219  1.00 22.30 LIG-0.34  N 
ATOM      4 H    THR E   3      15.145  -8.275   3.733  1.00 22.30 LIG 0.16  HD
ATOM      5 O    HIS E   2      15.256 -10.950   2.316  1.00 12.62 LIG-0.27  OA
BRANCH 3 6
ATOM      6  CA  THR E   3      16.674  -8.567   2.522  1.00 13.35 LIG 0.20  C 
BRANCH 6 7
ATOM      7  C   THR E   3      17.526  -7.607   3.335  1.00 17.92 LIG 0.24  C 
ATOM      8  N   GLY E   4      16.988  -6.419   3.606  1.00 20.63 LIG-0.35  N 
ATOM      9 H    GLY E   4      16.250  -6.142   3.262  1.00 20.63 LIG 0.16  HD
ATOM     10 O    THR E   3      18.670  -7.915   3.664  1.00 20.63 LIG-0.27  OA
BRANCH 8 11
ATOM     11  CA  GLY E   4      17.608  -5.473   4.518  1.00 21.12 LIG 0.23  C 
BRANCH 11 12
ATOM     12  C   GLY E   4      16.885  -5.170   5.818  1.00 30.37 LIG 0.28  C 
ATOM     13 O    GLY E   4      17.096  -4.115   6.410  1.00 22.56 LIG-0.27  OA
ATOM     14  N   NH2 E   5      16.023  -6.084   6.259  1.00 46.70 LIG-0.11  N 
ENDBRANCH 11 12
ENDBRANCH 8 11
ENDBRANCH 6 7
BRANCH 6 15
ATOM     15  CB  THR E   3      16.369  -7.944   1.148  1.00 21.65 LIG 0.15  C 
ATOM     16  CG2 THR E   3      16.659  -8.917   0.036  1.00 26.78 LIG 0.04  C 
BRANCH 15 17
ATOM     17 OG1  THR E   3      14.987  -7.573   1.098  1.00 29.20 LIG-0.39  OA
ATOM     18 HG1  THR E   3      14.679  -7.534   1.878  1.00 29.20 LIG 0.21  HD
ENDBRANCH 15 17
ENDBRANCH 6 15
ENDBRANCH 3 6
ENDBRANCH 1 2
BRANCH 1 19
ATOM     19  CB  HIS E   2      13.938 -10.889   5.231  1.00 16.39 LIG 0.10  C 
BRANCH 19 20
ATOM     20  CG  HIS E   2      13.040 -10.461   6.350  1.00 27.51 LIG 0.06  A 
ATOM     21  CD2 HIS E   2      13.089 -10.717   7.678  1.00 25.75 LIG 0.14  A 
ATOM     22 NE2  HIS E   2      12.017 -10.077   8.253  1.00 29.28 LIG-0.25  NA
ATOM     23  CE1 HIS E   2      11.334  -9.452   7.312  1.00 28.87 LIG 0.23  A 
ATOM     24 ND1  HIS E   2      11.931  -9.665   6.153  1.00 29.28 LIG-0.24  NA
ENDBRANCH 19 20
ENDBRANCH 1 19
BRANCH 1 25
ATOM     25  N   HIS E   2      12.612 -11.144   3.179  1.00 15.79 LIG-0.35  N 
ATOM     26 H    HIS E   2      11.914 -10.733   2.890  1.00 15.79 LIG 0.16  HD
ATOM     27  C   PHE E   1      12.824 -12.444   3.017  1.00 15.11 LIG 0.24  C 
ATOM     28 O    PHE E   1      13.820 -13.017   3.445  1.00 17.78 LIG-0.27  OA
BRANCH 27 29
ATOM     29  CA  PHE E   1      11.748 -13.218   2.263  1.00 10.43 LIG 0.18  C 
BRANCH 29 30
ATOM     30  N   PHE E   1      12.335 -14.027   1.209  1.00 15.82 LIG-0.35  N 
ATOM     31 H    PHE E   1      12.379 -14.864   1.404  1.00 15.82 LIG 0.16  HD
ATOM     32  C   ACE E   0      12.768 -13.532   0.049  1.00 20.55 LIG 0.21  C 
ATOM     33 O    ACE E   0      13.240 -14.269  -0.823  1.00 32.51 LIG-0.27  OA
ATOM     34  CH3 ACE E   0      12.617 -12.053  -0.165  1.00 11.71 LIG 0.12  C 
ENDBRANCH 29 30
BRANCH 29 35
ATOM     35  CB  PHE E   1      10.955 -14.091   3.237  1.00  9.28 LIG 0.07  C 
BRANCH 35 36
ATOM     36  CG  PHE E   1      10.489 -13.366   4.468  1.00 12.52 LIG-0.06  A 
ATOM     37  CD1 PHE E   1       9.883 -12.123   4.365  1.00 10.90 LIG 0.01  A 
ATOM     38  CE1 PHE E   1       9.438 -11.454   5.487  1.00 11.94 LIG 0.00  A 
ATOM     39  CZ  PHE E   1       9.605 -12.024   6.734  1.00  8.92 LIG 0.00  A 
ATOM     40  CE2 PHE E   1      10.208 -13.277   6.846  1.00  8.81 LIG 0.00  A 
ATOM     41  CD2 PHE E   1      10.643 -13.934   5.724  1.00 12.38 LIG 0.01  A 
ENDBRANCH 35 36
ENDBRANCH 29 35
ENDBRANCH 27 29
ENDBRANCH 1 25
TORSDOF 14
ENDMDL
MODEL 66
USER: ADFR SOLUTION from run 91
USER: SCORE 11.600318 LL:  -3.052 LR:  -9.928 RR:   0.000 FEB:  -5.752
USER: RMSD 8.857343
USER: SEED 90
USER: STATUS no improvement in best in 37 clusters for 5 generations
USER: GENES 16
USER: genes 0 Translation |==|  0.35833 0.31386 0.44082
USER: genes 1 Rotation |==|  0.64883 0.66658 0.89981 0.70063
USER: genes 2 Torsion [N]-CA--C-[N] |==|  0.16616
USER: genes 3 Torsion [C]-N--CA-[C] |==|  0.63713
USER: genes 4 Torsion [N]-CA--C-[N] |==|  0.85867
USER: genes 5 Torsion [C]-N--CA-[C] |==|  0.71667
USER: genes 6 Torsion [N]-CA--C-[N] |==|  0.50457
USER: genes 7 Torsion [N]-CA--CB-[CG2] |==|  0.69390
USER: genes 8 Torsion [CA]-CB--OG1-[HG1] |==|  0.88360
USER: genes 9 Torsion [C]-CA--CB-[CG] |==|  0.18875
USER: genes 10 Torsion [CA]-CB--CG-[CD2] |==|  0.94226
USER: genes 11 Torsion [C]-CA--N-[C] |==|  0.16019
USER: genes 12 Torsion [N]-C--CA-[N] |==|  0.40078
USER: genes 13 Torsion [C]-CA--N-[C] |==|  0.54258
USER: genes 14 Torsion [C]-CA--CB-[CG] |==|  0.11074
USER: genes 15 Torsion [CA]-CB--CG-[CD2] |==|  0.72526
ROOT
ATOM      1  CA  HIS E   2      12.424 -12.585   1.512  1.00 15.97 LIG 0.18  C 
ENDROOT
BRANCH 1 2
ATOM      2  C   HIS E   2      13.362 -13.429   0.667  1.00 15.29 LIG 0.24  C 
ATOM      3  N   THR E   3      12.785 -14.240  -0.215  1.00 22.30 LIG-0.34  N 
ATOM      4 H    THR E   3      11.934 -14.315  -0.310  1.00 22.30 LIG 0.16  HD
ATOM      5 O    HIS E   2      14.581 -13.339   0.798  1.00 12.62 LIG-0.27  OA
BRANCH 3 6
ATOM      6  CA  THR E   3      13.563 -15.085  -1.112  1.00 13.35 LIG 0.20  C 
BRANCH 6 7
ATOM      7  C   THR E   3      13.089 -14.947  -2.550  1.00 17.92 LIG 0.24  C 
ATOM      8  N   GLY E   4      11.781 -15.090  -2.760  1.00 20.63 LIG-0.35  N 
ATOM      9 H    GLY E   4      11.229 -15.353  -2.155  1.00 20.63 LIG 0.16  HD
ATOM     10 O    THR E   3      13.898 -14.770  -3.458  1.00 20.63 LIG-0.27  OA
BRANCH 8 11
ATOM     11  CA  GLY E   4      11.164 -14.810  -4.045  1.00 21.12 LIG 0.23  C 
BRANCH 11 12
ATOM     12  C   GLY E   4      10.420 -13.495  -4.198  1.00 30.37 LIG 0.28  C 
ATOM     13 O    GLY E   4      10.391 -12.692  -3.269  1.00 22.56 LIG-0.27  OA
ATOM     14  N   NH2 E   5       9.830 -13.264  -5.368  1.00 46.70 LIG-0.11  N 
ENDBRANCH 11 12
ENDBRANCH 8 11
ENDBRANCH 6 7
BRANCH 6 15
ATOM     15  CB  THR E   3      13.470 -16.560  -0.682  1.00 21.65 LIG 0.15  C 
ATOM     16  CG2 THR E   3      14.785 -17.047  -0.131  1.00 26.78 LIG 0.04  C 
BRANCH 15 17
ATOM     17 OG1  THR E   3      12.463 -16.692   0.327  1.00 29.20 LIG-0.39  OA
ATOM     18 HG1  THR E   3      12.523 -16.052   0.868  1.00 29.20 LIG 0.21  HD
ENDBRANCH 15 17
ENDBRANCH 6 15
ENDBRANCH 3 6
ENDBRANCH 1 2
BRANCH 1 19
ATOM     19  CB  HIS E   2      13.244 -11.675   2.422  1.00 16.39 LIG 0.10  C 
BRANCH 19 20
ATOM     20  CG  HIS E   2      14.002 -10.611   1.689  1.00 27.51 LIG 0.06  A 
ATOM     21  CD2 HIS E   2      14.389 -10.526   0.394  1.00 25.75 LIG 0.14  A 
ATOM     22 NE2  HIS E   2      15.058  -9.334   0.250  1.00 29.28 LIG-0.25  NA
ATOM     23  CE1 HIS E   2      15.082  -8.710   1.414  1.00 28.87 LIG 0.23  A 
ATOM     24 ND1  HIS E   2      14.448  -9.459   2.300  1.00 29.28 LIG-0.24  NA
ENDBRANCH 19 20
ENDBRANCH 1 19
BRANCH 1 25
ATOM     25  N   HIS E   2      11.514 -13.415   2.302  1.00 15.79 LIG-0.35  N 
ATOM     26 H    HIS E   2      10.680 -13.263   2.159  1.00 15.79 LIG 0.16  HD
ATOM     27  C   PHE E   1      11.962 -14.322   3.163  1.00 15.11 LIG 0.24  C 
ATOM     28 O    PHE E   1      13.155 -14.521   3.364  1.00 17.78 LIG-0.27  OA
BRANCH 27 29
ATOM     29  CA  PHE E   1      10.904 -15.122   3.916  1.00 10.43 LIG 0.18  C 
BRANCH 29 30
ATOM     30  N   PHE E   1      11.343 -16.492   4.124  1.00 15.82 LIG-0.35  N 
ATOM     31 H    PHE E   1      12.186 -16.604   3.993  1.00 15.82 LIG 0.16  HD
ATOM     32  C   ACE E   0      10.527 -17.484   4.481  1.00 20.55 LIG 0.21  C 
ATOM     33 O    ACE E   0      10.958 -18.628   4.666  1.00 32.51 LIG-0.27  OA
ATOM     34  CH3 ACE E   0       9.080 -17.142   4.689  1.00 11.71 LIG 0.12  C 
ENDBRANCH 29 30
BRANCH 29 35
ATOM     35  CB  PHE E   1      10.593 -14.445   5.252  1.00  9.28 LIG 0.07  C 
BRANCH 35 36
ATOM     36  CG  PHE E   1      10.534 -12.946   5.179  1.00 12.52 LIG-0.06  A 
ATOM     37  CD1 PHE E   1       9.385 -12.306   4.738  1.00 10.90 LIG 0.01  A 
ATOM     38  CE1 PHE E   1       9.315 -10.930   4.681  1.00 11.94 LIG 0.00  A 
ATOM     39  CZ  PHE E   1      10.407 -10.174   5.059  1.00  8.92 LIG 0.00  A 
ATOM     40  CE2 PHE E   1      11.565 -10.808   5.510  1.00  8.81 LIG 0.00  A 
ATOM     41  CD2 PHE E   1      11.622 -12.177   5.566  1.00 12.38 LIG 0.01  A 
ENDBRANCH 35 36
ENDBRANCH 29 35
ENDBRANCH 27 29
ENDBRANCH 1 25
TORSDOF 14
ENDMDL
MODEL 67
USER: ADFR SOLUTION from run 189
USER: SCORE 11.626466 LL:  -2.674 LR:  -9.916 RR:   0.000 FEB:  -5.740
USER: RMSD 6.569469
USER: SEED 188
USER: STATUS no improvement in best in 34 clusters for 5 generations
USER: GENES 16
USER: genes 0 Translation |==|  0.51852 0.61315 0.34851
USER: genes 1 Rotation |==|  0.26688 0.16935 0.70219 0.71318
USER: genes 2 Torsion [N]-CA--C-[N] |==|  0.39727
USER: genes 3 Torsion [C]-N--CA-[C] |==|  0.79444
USER: genes 4 Torsion [N]-CA--C-[N] |==|  0.25881
USER: genes 5 Torsion [C]-N--CA-[C] |==|  0.41372
USER: genes 6 Torsion [N]-CA--C-[N] |==|  0.61667
USER: genes 7 Torsion [N]-CA--CB-[CG2] |==|  0.61066
USER: genes 8 Torsion [CA]-CB--OG1-[HG1] |==|  0.16021
USER: genes 9 Torsion [C]-CA--CB-[CG] |==|  0.47602
USER: genes 10 Torsion [CA]-CB--CG-[CD2] |==|  0.02505
USER: genes 11 Torsion [C]-CA--N-[C] |==|  0.80752
USER: genes 12 Torsion [N]-C--CA-[N] |==|  0.03149
USER: genes 13 Torsion [C]-CA--N-[C] |==|  0.69570
USER: genes 14 Torsion [C]-CA--CB-[CG] |==|  0.44121
USER: genes 15 Torsion [CA]-CB--CG-[CD2] |==|  0.52910
ROOT
ATOM      1  CA  HIS E   2      15.427  -6.300  -0.012  1.00 15.97 LIG 0.18  C 
ENDROOT
BRANCH 1 2
ATOM      2  C   HIS E   2      15.569  -7.757   0.390  1.00 15.29 LIG 0.24  C 
ATOM      3  N   THR E   3      15.570  -8.007   1.697  1.00 22.30 LIG-0.34  N 
ATOM      4 H    THR E   3      15.512  -7.397   2.299  1.00 22.30 LIG 0.16  HD
ATOM      5 O    HIS E   2      15.662  -8.639  -0.461  1.00 12.62 LIG-0.27  OA
BRANCH 3 6
ATOM      6  CA  THR E   3      15.669  -9.361   2.225  1.00 13.35 LIG 0.20  C 
BRANCH 6 7
ATOM      7  C   THR E   3      14.366 -10.122   2.042  1.00 17.92 LIG 0.24  C 
ATOM      8  N   GLY E   4      14.260 -10.859   0.937  1.00 20.63 LIG-0.35  N 
ATOM      9 H    GLY E   4      14.833 -10.839   0.295  1.00 20.63 LIG 0.16  HD
ATOM     10 O    THR E   3      13.453 -10.002   2.856  1.00 20.63 LIG-0.27  OA
BRANCH 8 11
ATOM     11  CA  GLY E   4      13.154 -11.775   0.715  1.00 21.12 LIG 0.23  C 
BRANCH 11 12
ATOM     12  C   GLY E   4      12.706 -12.005  -0.717  1.00 30.37 LIG 0.28  C 
ATOM     13 O    GLY E   4      13.539 -12.151  -1.608  1.00 22.56 LIG-0.27  OA
ATOM     14  N   NH2 E   5      11.395 -12.051  -0.942  1.00 46.70 LIG-0.11  N 
ENDBRANCH 11 12
ENDBRANCH 8 11
ENDBRANCH 6 7
BRANCH 6 15
ATOM     15  CB  THR E   3      16.040  -9.334   3.719  1.00 21.65 LIG 0.15  C 
ATOM     16  CG2 THR E   3      17.025 -10.423   4.052  1.00 26.78 LIG 0.04  C 
BRANCH 15 17
ATOM     17 OG1  THR E   3      16.622  -8.064   4.033  1.00 29.20 LIG-0.39  OA
ATOM     18 HG1  THR E   3      16.081  -7.452   3.838  1.00 29.20 LIG 0.21  HD
ENDBRANCH 15 17
ENDBRANCH 6 15
ENDBRANCH 3 6
ENDBRANCH 1 2
BRANCH 1 19
ATOM     19  CB  HIS E   2      13.957  -5.990  -0.280  1.00 16.39 LIG 0.10  C 
BRANCH 19 20
ATOM     20  CG  HIS E   2      13.673  -4.534  -0.485  1.00 27.51 LIG 0.06  A 
ATOM     21  CD2 HIS E   2      14.507  -3.477  -0.631  1.00 25.75 LIG 0.14  A 
ATOM     22 NE2  HIS E   2      13.720  -2.361  -0.791  1.00 29.28 LIG-0.25  NA
ATOM     23  CE1 HIS E   2      12.450  -2.720  -0.745  1.00 28.87 LIG 0.23  A 
ATOM     24 ND1  HIS E   2      12.394  -4.028  -0.563  1.00 29.28 LIG-0.24  NA
ENDBRANCH 19 20
ENDBRANCH 1 19
BRANCH 1 25
ATOM     25  N   HIS E   2      16.240  -5.981  -1.186  1.00 15.79 LIG-0.35  N 
ATOM     26 H    HIS E   2      15.785  -5.817  -1.897  1.00 15.79 LIG 0.16  HD
ATOM     27  C   PHE E   1      17.567  -5.954  -1.134  1.00 15.11 LIG 0.24  C 
ATOM     28 O    PHE E   1      18.201  -6.201  -0.115  1.00 17.78 LIG-0.27  OA
BRANCH 27 29
ATOM     29  CA  PHE E   1      18.288  -5.601  -2.431  1.00 10.43 LIG 0.18  C 
BRANCH 29 30
ATOM     30  N   PHE E   1      17.351  -5.100  -3.423  1.00 15.82 LIG-0.35  N 
ATOM     31 H    PHE E   1      17.040  -4.320  -3.236  1.00 15.82 LIG 0.16  HD
ATOM     32  C   ACE E   0      17.002  -5.775  -4.519  1.00 20.55 LIG 0.21  C 
ATOM     33 O    ACE E   0      16.217  -5.292  -5.342  1.00 32.51 LIG-0.27  OA
ATOM     34  CH3 ACE E   0      17.634  -7.121  -4.726  1.00 11.71 LIG 0.12  C 
ENDBRANCH 29 30
BRANCH 29 35
ATOM     35  CB  PHE E   1      19.384  -4.571  -2.153  1.00  9.28 LIG 0.07  C 
BRANCH 35 36
ATOM     36  CG  PHE E   1      20.457  -4.522  -3.204  1.00 12.52 LIG-0.06  A 
ATOM     37  CD1 PHE E   1      20.292  -5.186  -4.410  1.00 10.90 LIG 0.01  A 
ATOM     38  CE1 PHE E   1      21.264  -5.136  -5.387  1.00 11.94 LIG 0.00  A 
ATOM     39  CZ  PHE E   1      22.426  -4.424  -5.161  1.00  8.92 LIG 0.00  A 
ATOM     40  CE2 PHE E   1      22.597  -3.748  -3.952  1.00  8.81 LIG 0.00  A 
ATOM     41  CD2 PHE E   1      21.623  -3.801  -2.990  1.00 12.38 LIG 0.01  A 
ENDBRANCH 35 36
ENDBRANCH 29 35
ENDBRANCH 27 29
ENDBRANCH 1 25
TORSDOF 14
ENDMDL
MODEL 68
USER: ADFR SOLUTION from run 122
USER: SCORE 11.802954 LL:  -2.832 LR:  -9.911 RR:   0.000 FEB:  -5.735
USER: RMSD 5.445969
USER: SEED 121
USER: STATUS searching
USER: GENES 16
USER: genes 0 Translation |==|  0.37230 0.34883 0.33482
USER: genes 1 Rotation |==|  0.71933 0.88034 0.30954 0.64477
USER: genes 2 Torsion [N]-CA--C-[N] |==|  0.43867
USER: genes 3 Torsion [C]-N--CA-[C] |==|  0.18304
USER: genes 4 Torsion [N]-CA--C-[N] |==|  0.08759
USER: genes 5 Torsion [C]-N--CA-[C] |==|  0.78043
USER: genes 6 Torsion [N]-CA--C-[N] |==|  0.48258
USER: genes 7 Torsion [N]-CA--CB-[CG2] |==|  0.56188
USER: genes 8 Torsion [CA]-CB--OG1-[HG1] |==|  0.02209
USER: genes 9 Torsion [C]-CA--CB-[CG] |==|  0.36072
USER: genes 10 Torsion [CA]-CB--CG-[CD2] |==|  0.00160
USER: genes 11 Torsion [C]-CA--N-[C] |==|  0.85556
USER: genes 12 Torsion [N]-C--CA-[N] |==|  0.10270
USER: genes 13 Torsion [C]-CA--N-[C] |==|  0.66014
USER: genes 14 Torsion [C]-CA--CB-[CG] |==|  0.68615
USER: genes 15 Torsion [CA]-CB--CG-[CD2] |==|  0.74499
ROOT
ATOM      1  CA  HIS E   2      12.686 -11.851  -0.237  1.00 15.97 LIG 0.18  C 
ENDROOT
BRANCH 1 2
ATOM      2  C   HIS E   2      12.679 -12.630   1.066  1.00 15.29 LIG 0.24  C 
ATOM      3  N   THR E   3      11.485 -13.000   1.521  1.00 22.30 LIG-0.34  N 
ATOM      4 H    THR E   3      10.745 -12.807   1.129  1.00 22.30 LIG 0.16  HD
ATOM      5 O    HIS E   2      13.730 -12.904   1.642  1.00 12.62 LIG-0.27  OA
BRANCH 3 6
ATOM      6  CA  THR E   3      11.331 -13.778   2.743  1.00 13.35 LIG 0.20  C 
BRANCH 6 7
ATOM      7  C   THR E   3      11.768 -12.983   3.962  1.00 17.92 LIG 0.24  C 
ATOM      8  N   GLY E   4      11.588 -11.664   3.907  1.00 20.63 LIG-0.35  N 
ATOM      9 H    GLY E   4      11.344 -11.247   3.195  1.00 20.63 LIG 0.16  HD
ATOM     10 O    THR E   3      12.308 -13.545   4.913  1.00 20.63 LIG-0.27  OA
BRANCH 8 11
ATOM     11  CA  GLY E   4      11.792 -10.801   5.058  1.00 21.12 LIG 0.23  C 
BRANCH 11 12
ATOM     12  C   GLY E   4      10.688 -10.744   6.099  1.00 30.37 LIG 0.28  C 
ATOM     13 O    GLY E   4       9.627 -11.330   5.905  1.00 22.56 LIG-0.27  OA
ATOM     14  N   NH2 E   5      10.937 -10.053   7.209  1.00 46.70 LIG-0.11  N 
ENDBRANCH 11 12
ENDBRANCH 8 11
ENDBRANCH 6 7
BRANCH 6 15
ATOM     15  CB  THR E   3      12.145 -15.081   2.662  1.00 21.65 LIG 0.15  C 
ATOM     16  CG2 THR E   3      11.605 -16.117   3.613  1.00 26.78 LIG 0.04  C 
BRANCH 15 17
ATOM     17 OG1  THR E   3      12.079 -15.592   1.326  1.00 29.20 LIG-0.39  OA
ATOM     18 HG1  THR E   3      11.704 -15.029   0.829  1.00 29.20 LIG 0.21  HD
ENDBRANCH 15 17
ENDBRANCH 6 15
ENDBRANCH 3 6
ENDBRANCH 1 2
BRANCH 1 19
ATOM     19  CB  HIS E   2      12.526 -12.819  -1.406  1.00 16.39 LIG 0.10  C 
BRANCH 19 20
ATOM     20  CG  HIS E   2      11.454 -12.426  -2.375  1.00 27.51 LIG 0.06  A 
ATOM     21  CD2 HIS E   2      10.618 -11.361  -2.393  1.00 25.75 LIG 0.14  A 
ATOM     22 NE2  HIS E   2       9.829 -11.486  -3.512  1.00 29.28 LIG-0.25  NA
ATOM     23  CE1 HIS E   2      10.168 -12.587  -4.157  1.00 28.87 LIG 0.23  A 
ATOM     24 ND1  HIS E   2      11.149 -13.173  -3.493  1.00 29.28 LIG-0.24  NA
ENDBRANCH 19 20
ENDBRANCH 1 19
BRANCH 1 25
ATOM     25  N   HIS E   2      13.909 -11.062  -0.390  1.00 15.79 LIG-0.35  N 
ATOM     26 H    HIS E   2      14.319 -11.184  -1.135  1.00 15.79 LIG 0.16  HD
ATOM     27  C   PHE E   1      14.331 -10.233   0.558  1.00 15.11 LIG 0.24  C 
ATOM     28 O    PHE E   1      13.740 -10.076   1.621  1.00 17.78 LIG-0.27  OA
BRANCH 27 29
ATOM     29  CA  PHE E   1      15.617  -9.468   0.265  1.00 10.43 LIG 0.18  C 
BRANCH 29 30
ATOM     30  N   PHE E   1      15.686  -9.091  -1.137  1.00 15.82 LIG-0.35  N 
ATOM     31 H    PHE E   1      15.019  -8.613  -1.395  1.00 15.82 LIG 0.16  HD
ATOM     32  C   ACE E   0      16.681  -9.445  -1.951  1.00 20.55 LIG 0.21  C 
ATOM     33 O    ACE E   0      16.701  -9.078  -3.131  1.00 32.51 LIG-0.27  OA
ATOM     34  CH3 ACE E   0      17.789 -10.270  -1.362  1.00 11.71 LIG 0.12  C 
ENDBRANCH 29 30
BRANCH 29 35
ATOM     35  CB  PHE E   1      15.705  -8.233   1.163  1.00  9.28 LIG 0.07  C 
BRANCH 35 36
ATOM     36  CG  PHE E   1      15.606  -6.930   0.421  1.00 12.52 LIG-0.06  A 
ATOM     37  CD1 PHE E   1      14.370  -6.344   0.190  1.00 10.90 LIG 0.01  A 
ATOM     38  CE1 PHE E   1      14.268  -5.141  -0.477  1.00 11.94 LIG 0.00  A 
ATOM     39  CZ  PHE E   1      15.410  -4.511  -0.931  1.00  8.92 LIG 0.00  A 
ATOM     40  CE2 PHE E   1      16.658  -5.091  -0.697  1.00  8.81 LIG 0.00  A 
ATOM     41  CD2 PHE E   1      16.748  -6.285  -0.030  1.00 12.38 LIG 0.01  A 
ENDBRANCH 35 36
ENDBRANCH 29 35
ENDBRANCH 27 29
ENDBRANCH 1 25
TORSDOF 14
ENDMDL
MODEL 69
USER: ADFR SOLUTION from run 109
USER: SCORE 11.940413 LL:  -2.689 LR:  -9.901 RR:   0.000 FEB:  -5.725
USER: RMSD 2.323773
USER: SEED 108
USER: STATUS no improvement in best in 11 clusters for 5 generations
USER: GENES 16
USER: genes 0 Translation |==|  0.55470 0.48022 0.48137
USER: genes 1 Rotation |==|  0.47431 0.51937 0.49978 0.99896
USER: genes 2 Torsion [N]-CA--C-[N] |==|  0.29043
USER: genes 3 Torsion [C]-N--CA-[C] |==|  0.84574
USER: genes 4 Torsion [N]-CA--C-[N] |==|  0.36207
USER: genes 5 Torsion [C]-N--CA-[C] |==|  0.76718
USER: genes 6 Torsion [N]-CA--C-[N] |==|  0.03597
USER: genes 7 Torsion [N]-CA--CB-[CG2] |==|  0.64381
USER: genes 8 Torsion [CA]-CB--OG1-[HG1] |==|  0.79097
USER: genes 9 Torsion [C]-CA--CB-[CG] |==|  0.29585
USER: genes 10 Torsion [CA]-CB--CG-[CD2] |==|  0.75227
USER: genes 11 Torsion [C]-CA--N-[C] |==|  0.78161
USER: genes 12 Torsion [N]-C--CA-[N] |==|  0.49387
USER: genes 13 Torsion [C]-CA--N-[C] |==|  0.67845
USER: genes 14 Torsion [C]-CA--CB-[CG] |==|  0.56499
USER: genes 15 Torsion [CA]-CB--CG-[CD2] |==|  0.86405
ROOT
ATOM      1  CA  HIS E   2      16.106  -9.091   2.181  1.00 15.97 LIG 0.18  C 
ENDROOT
BRANCH 1 2
ATOM      2  C   HIS E   2      14.752  -9.770   2.298  1.00 15.29 LIG 0.24  C 
ATOM      3  N   THR E   3      14.494 -10.720   1.403  1.00 22.30 LIG-0.34  N 
ATOM      4 H    THR E   3      15.036 -10.943   0.774  1.00 22.30 LIG 0.16  HD
ATOM      5 O    HIS E   2      13.964  -9.454   3.186  1.00 12.62 LIG-0.27  OA
BRANCH 3 6
ATOM      6  CA  THR E   3      13.248 -11.475   1.414  1.00 13.35 LIG 0.20  C 
BRANCH 6 7
ATOM      7  C   THR E   3      13.018 -12.141   2.760  1.00 17.92 LIG 0.24  C 
ATOM      8  N   GLY E   4      11.820 -11.960   3.314  1.00 20.63 LIG-0.35  N 
ATOM      9 H    GLY E   4      11.231 -11.415   3.005  1.00 20.63 LIG 0.16  HD
ATOM     10 O    THR E   3      13.925 -12.760   3.313  1.00 20.63 LIG-0.27  OA
BRANCH 8 11
ATOM     11  CA  GLY E   4      11.397 -12.677   4.505  1.00 21.12 LIG 0.23  C 
BRANCH 11 12
ATOM     12  C   GLY E   4      10.818 -14.069   4.321  1.00 30.37 LIG 0.28  C 
ATOM     13 O    GLY E   4      10.221 -14.615   5.245  1.00 22.56 LIG-0.27  OA
ATOM     14  N   NH2 E   5      10.979 -14.640   3.130  1.00 46.70 LIG-0.11  N 
ENDBRANCH 11 12
ENDBRANCH 8 11
ENDBRANCH 6 7
BRANCH 6 15
ATOM     15  CB  THR E   3      13.254 -12.545   0.307  1.00 21.65 LIG 0.15  C 
ATOM     16  CG2 THR E   3      12.015 -12.450  -0.543  1.00 26.78 LIG 0.04  C 
BRANCH 15 17
ATOM     17 OG1  THR E   3      14.406 -12.356  -0.521  1.00 29.20 LIG-0.39  OA
ATOM     18 HG1  THR E   3      14.284 -11.694  -1.024  1.00 29.20 LIG 0.21  HD
ENDBRANCH 15 17
ENDBRANCH 6 15
ENDBRANCH 3 6
ENDBRANCH 1 2
BRANCH 1 19
ATOM     19  CB  HIS E   2      16.758  -9.024   3.559  1.00 16.39 LIG 0.10  C 
BRANCH 19 20
ATOM     20  CG  HIS E   2      17.893  -9.985   3.738  1.00 27.51 LIG 0.06  A 
ATOM     21  CD2 HIS E   2      17.913 -11.266   4.174  1.00 25.75 LIG 0.14  A 
ATOM     22 NE2  HIS E   2      19.222 -11.684   4.142  1.00 29.28 LIG-0.25  NA
ATOM     23  CE1 HIS E   2      19.978 -10.695   3.702  1.00 28.87 LIG 0.23  A 
ATOM     24 ND1  HIS E   2      19.200  -9.657   3.448  1.00 29.28 LIG-0.24  NA
ENDBRANCH 19 20
ENDBRANCH 1 19
BRANCH 1 25
ATOM     25  N   HIS E   2      15.990  -7.752   1.602  1.00 15.79 LIG-0.35  N 
ATOM     26 H    HIS E   2      16.028  -7.114   2.177  1.00 15.79 LIG 0.16  HD
ATOM     27  C   PHE E   1      15.840  -7.563   0.297  1.00 15.11 LIG 0.24  C 
ATOM     28 O    PHE E   1      15.778  -8.484  -0.510  1.00 17.78 LIG-0.27  OA
BRANCH 27 29
ATOM     29  CA  PHE E   1      15.740  -6.114  -0.171  1.00 10.43 LIG 0.18  C 
BRANCH 29 30
ATOM     30  N   PHE E   1      15.631  -6.045  -1.618  1.00 15.82 LIG-0.35  N 
ATOM     31 H    PHE E   1      14.912  -6.403  -1.925  1.00 15.82 LIG 0.16  HD
ATOM     32  C   ACE E   0      16.551  -5.482  -2.404  1.00 20.55 LIG 0.21  C 
ATOM     33 O    ACE E   0      16.398  -5.431  -3.629  1.00 32.51 LIG-0.27  OA
ATOM     34  CH3 ACE E   0      17.752  -4.882  -1.732  1.00 11.71 LIG 0.12  C 
ENDBRANCH 29 30
BRANCH 29 35
ATOM     35  CB  PHE E   1      14.542  -5.435   0.495  1.00  9.28 LIG 0.07  C 
BRANCH 35 36
ATOM     36  CG  PHE E   1      14.014  -4.249  -0.262  1.00 12.52 LIG-0.06  A 
ATOM     37  CD1 PHE E   1      12.655  -4.119  -0.508  1.00 10.90 LIG 0.01  A 
ATOM     38  CE1 PHE E   1      12.157  -3.029  -1.189  1.00 11.94 LIG 0.00  A 
ATOM     39  CZ  PHE E   1      13.022  -2.052  -1.642  1.00  8.92 LIG 0.00  A 
ATOM     40  CE2 PHE E   1      14.390  -2.171  -1.394  1.00  8.81 LIG 0.00  A 
ATOM     41  CD2 PHE E   1      14.873  -3.258  -0.713  1.00 12.38 LIG 0.01  A 
ENDBRANCH 35 36
ENDBRANCH 29 35
ENDBRANCH 27 29
ENDBRANCH 1 25
TORSDOF 14
ENDMDL
MODEL 70
USER: ADFR SOLUTION from run 11
USER: SCORE 12.520404 LL:  -3.443 LR:  -9.898 RR:   0.000 FEB:  -5.722
USER: RMSD 8.564645
USER: SEED 518918
USER: STATUS no improvement in best in 25 clusters for 5 generations
USER: GENES 16
USER: genes 0 Translation |==|  0.31235 0.20508 0.52169
USER: genes 1 Rotation |==|  0.44290 0.73477 0.09275 0.66054
USER: genes 2 Torsion [N]-CA--C-[N] |==|  0.08608
USER: genes 3 Torsion [C]-N--CA-[C] |==|  0.82836
USER: genes 4 Torsion [N]-CA--C-[N] |==|  0.92222
USER: genes 5 Torsion [C]-N--CA-[C] |==|  0.76773
USER: genes 6 Torsion [N]-CA--C-[N] |==|  0.33543
USER: genes 7 Torsion [N]-CA--CB-[CG2] |==|  0.68193
USER: genes 8 Torsion [CA]-CB--OG1-[HG1] |==|  0.19747
USER: genes 9 Torsion [C]-CA--CB-[CG] |==|  0.27826
USER: genes 10 Torsion [CA]-CB--CG-[CD2] |==|  0.84512
USER: genes 11 Torsion [C]-CA--N-[C] |==|  0.16000
USER: genes 12 Torsion [N]-C--CA-[N] |==|  0.90418
USER: genes 13 Torsion [C]-CA--N-[C] |==|  0.72045
USER: genes 14 Torsion [C]-CA--CB-[CG] |==|  0.71136
USER: genes 15 Torsion [CA]-CB--CG-[CD2] |==|  0.80159
ROOT
ATOM      1  CA  HIS E   2      11.562 -14.869   2.846  1.00 15.97 LIG 0.18  C 
ENDROOT
BRANCH 1 2
ATOM      2  C   HIS E   2      12.290 -13.734   3.544  1.00 15.29 LIG 0.24  C 
ATOM      3  N   THR E   3      12.639 -12.704   2.778  1.00 22.30 LIG-0.34  N 
ATOM      4 H    THR E   3      12.489 -12.666   1.932  1.00 22.30 LIG 0.16  HD
ATOM      5 O    HIS E   2      12.518 -13.780   4.750  1.00 12.62 LIG-0.27  OA
BRANCH 3 6
ATOM      6  CA  THR E   3      13.316 -11.533   3.319  1.00 13.35 LIG 0.20  C 
BRANCH 6 7
ATOM      7  C   THR E   3      12.456 -10.826   4.353  1.00 17.92 LIG 0.24  C 
ATOM      8  N   GLY E   4      11.137 -10.952   4.214  1.00 20.63 LIG-0.35  N 
ATOM      9 H    GLY E   4      10.763 -11.312   3.528  1.00 20.63 LIG 0.16  HD
ATOM     10 O    THR E   3      12.973 -10.135   5.228  1.00 20.63 LIG-0.27  OA
BRANCH 8 11
ATOM     11  CA  GLY E   4      10.199 -10.485   5.221  1.00 21.12 LIG 0.23  C 
BRANCH 11 12
ATOM     12  C   GLY E   4       9.909 -11.404   6.393  1.00 30.37 LIG 0.28  C 
ATOM     13 O    GLY E   4       9.455 -12.528   6.197  1.00 22.56 LIG-0.27  OA
ATOM     14  N   NH2 E   5      10.180 -10.939   7.611  1.00 46.70 LIG-0.11  N 
ENDBRANCH 11 12
ENDBRANCH 8 11
ENDBRANCH 6 7
BRANCH 6 15
ATOM     15  CB  THR E   3      13.676 -10.548   2.192  1.00 21.65 LIG 0.15  C 
ATOM     16  CG2 THR E   3      15.168 -10.424   2.038  1.00 26.78 LIG 0.04  C 
BRANCH 15 17
ATOM     17 OG1  THR E   3      13.115 -11.018   0.962  1.00 29.20 LIG-0.39  OA
ATOM     18 HG1  THR E   3      12.280 -10.926   0.981  1.00 29.20 LIG 0.21  HD
ENDBRANCH 15 17
ENDBRANCH 6 15
ENDBRANCH 3 6
ENDBRANCH 1 2
BRANCH 1 19
ATOM     19  CB  HIS E   2      11.807 -16.170   3.606  1.00 16.39 LIG 0.10  C 
BRANCH 19 20
ATOM     20  CG  HIS E   2      10.675 -16.569   4.502  1.00 27.51 LIG 0.06  A 
ATOM     21  CD2 HIS E   2      10.058 -15.903   5.507  1.00 25.75 LIG 0.14  A 
ATOM     22 NE2  HIS E   2       9.077 -16.731   5.998  1.00 29.28 LIG-0.25  NA
ATOM     23  CE1 HIS E   2       9.092 -17.864   5.321  1.00 28.87 LIG 0.23  A 
ATOM     24 ND1  HIS E   2      10.045 -17.792   4.408  1.00 29.28 LIG-0.24  NA
ENDBRANCH 19 20
ENDBRANCH 1 19
BRANCH 1 25
ATOM     25  N   HIS E   2      11.982 -15.004   1.451  1.00 15.79 LIG-0.35  N 
ATOM     26 H    HIS E   2      11.343 -14.940   0.880  1.00 15.79 LIG 0.16  HD
ATOM     27  C   PHE E   1      13.252 -15.209   1.118  1.00 15.11 LIG 0.24  C 
ATOM     28 O    PHE E   1      14.152 -15.309   1.945  1.00 17.78 LIG-0.27  OA
BRANCH 27 29
ATOM     29  CA  PHE E   1      13.551 -15.324  -0.373  1.00 10.43 LIG 0.18  C 
BRANCH 29 30
ATOM     30  N   PHE E   1      12.454 -15.973  -1.071  1.00 15.82 LIG-0.35  N 
ATOM     31 H    PHE E   1      11.791 -15.447  -1.230  1.00 15.82 LIG 0.16  HD
ATOM     32  C   ACE E   0      12.463 -17.256  -1.435  1.00 20.55 LIG 0.21  C 
ATOM     33 O    ACE E   0      11.511 -17.751  -2.047  1.00 32.51 LIG-0.27  OA
ATOM     34  CH3 ACE E   0      13.692 -18.053  -1.106  1.00 11.71 LIG 0.12  C 
ENDBRANCH 29 30
BRANCH 29 35
ATOM     35  CB  PHE E   1      13.821 -13.937  -0.959  1.00  9.28 LIG 0.07  C 
BRANCH 35 36
ATOM     36  CG  PHE E   1      12.679 -13.380  -1.761  1.00 12.52 LIG-0.06  A 
ATOM     37  CD1 PHE E   1      11.932 -12.316  -1.278  1.00 10.90 LIG 0.01  A 
ATOM     38  CE1 PHE E   1      10.892 -11.787  -2.012  1.00 11.94 LIG 0.00  A 
ATOM     39  CZ  PHE E   1      10.580 -12.328  -3.244  1.00  8.92 LIG 0.00  A 
ATOM     40  CE2 PHE E   1      11.330 -13.394  -3.741  1.00  8.81 LIG 0.00  A 
ATOM     41  CD2 PHE E   1      12.364 -13.909  -3.004  1.00 12.38 LIG 0.01  A 
ENDBRANCH 35 36
ENDBRANCH 29 35
ENDBRANCH 27 29
ENDBRANCH 1 25
TORSDOF 14
ENDMDL
MODEL 71
USER: ADFR SOLUTION from run 39
USER: SCORE 12.677703 LL:  -3.184 LR:  -9.892 RR:   0.000 FEB:  -5.716
USER: RMSD 5.891947
USER: SEED 38
USER: STATUS no improvement in best in 19 clusters for 5 generations
USER: GENES 16
USER: genes 0 Translation |==|  0.40859 0.35225 0.35277
USER: genes 1 Rotation |==|  0.72874 0.85861 0.34265 0.71052
USER: genes 2 Torsion [N]-CA--C-[N] |==|  0.40644
USER: genes 3 Torsion [C]-N--CA-[C] |==|  0.17746
USER: genes 4 Torsion [N]-CA--C-[N] |==|  0.07699
USER: genes 5 Torsion [C]-N--CA-[C] |==|  0.82331
USER: genes 6 Torsion [N]-CA--C-[N] |==|  0.95264
USER: genes 7 Torsion [N]-CA--CB-[CG2] |==|  0.55742
USER: genes 8 Torsion [CA]-CB--OG1-[HG1] |==|  0.93511
USER: genes 9 Torsion [C]-CA--CB-[CG] |==|  0.28356
USER: genes 10 Torsion [CA]-CB--CG-[CD2] |==|  0.54403
USER: genes 11 Torsion [C]-CA--N-[C] |==|  0.85000
USER: genes 12 Torsion [N]-C--CA-[N] |==|  0.36397
USER: genes 13 Torsion [C]-CA--N-[C] |==|  0.75479
USER: genes 14 Torsion [C]-CA--CB-[CG] |==|  0.77475
USER: genes 15 Torsion [CA]-CB--CG-[CD2] |==|  0.71432
ROOT
ATOM      1  CA  HIS E   2      13.366 -11.779   0.059  1.00 15.97 LIG 0.18  C 
ENDROOT
BRANCH 1 2
ATOM      2  C   HIS E   2      13.026 -12.522   1.338  1.00 15.29 LIG 0.24  C 
ATOM      3  N   THR E   3      11.735 -12.761   1.551  1.00 22.30 LIG-0.34  N 
ATOM      4 H    THR E   3      11.108 -12.504   1.021  1.00 22.30 LIG 0.16  HD
ATOM      5 O    HIS E   2      13.910 -12.886   2.110  1.00 12.62 LIG-0.27  OA
BRANCH 3 6
ATOM      6  CA  THR E   3      11.266 -13.490   2.722  1.00 13.35 LIG 0.20  C 
BRANCH 6 7
ATOM      7  C   THR E   3      11.580 -12.737   4.004  1.00 17.92 LIG 0.24  C 
ATOM      8  N   GLY E   4      11.665 -11.411   3.908  1.00 20.63 LIG-0.35  N 
ATOM      9 H    GLY E   4      11.655 -10.987   3.159  1.00 20.63 LIG 0.16  HD
ATOM     10 O    THR E   3      11.797 -13.347   5.049  1.00 20.63 LIG-0.27  OA
BRANCH 8 11
ATOM     11  CA  GLY E   4      11.781 -10.551   5.074  1.00 21.12 LIG 0.23  C 
BRANCH 11 12
ATOM     12  C   GLY E   4      10.623 -10.534   6.055  1.00 30.37 LIG 0.28  C 
ATOM     13 O    GLY E   4      10.778 -10.077   7.184  1.00 22.56 LIG-0.27  OA
ATOM     14  N   NH2 E   5       9.458 -11.016   5.627  1.00 46.70 LIG-0.11  N 
ENDBRANCH 11 12
ENDBRANCH 8 11
ENDBRANCH 6 7
BRANCH 6 15
ATOM     15  CB  THR E   3      11.904 -14.889   2.780  1.00 21.65 LIG 0.15  C 
ATOM     16  CG2 THR E   3      11.095 -15.818   3.645  1.00 26.78 LIG 0.04  C 
BRANCH 15 17
ATOM     17 OG1  THR E   3      11.976 -15.427   1.455  1.00 29.20 LIG-0.39  OA
ATOM     18 HG1  THR E   3      11.399 -15.055   0.970  1.00 29.20 LIG 0.21  HD
ENDBRANCH 15 17
ENDBRANCH 6 15
ENDBRANCH 3 6
ENDBRANCH 1 2
BRANCH 1 19
ATOM     19  CB  HIS E   2      13.623 -12.786  -1.059  1.00 16.39 LIG 0.10  C 
BRANCH 19 20
ATOM     20  CG  HIS E   2      12.476 -12.939  -2.010  1.00 27.51 LIG 0.06  A 
ATOM     21  CD2 HIS E   2      12.201 -13.896  -2.927  1.00 25.75 LIG 0.14  A 
ATOM     22 NE2  HIS E   2      11.017 -13.550  -3.531  1.00 29.28 LIG-0.25  NA
ATOM     23  CE1 HIS E   2      10.580 -12.420  -3.005  1.00 28.87 LIG 0.23  A 
ATOM     24 ND1  HIS E   2      11.441 -12.031  -2.082  1.00 29.28 LIG-0.24  NA
ENDBRANCH 19 20
ENDBRANCH 1 19
BRANCH 1 25
ATOM     25  N   HIS E   2      14.525 -10.903   0.234  1.00 15.79 LIG-0.35  N 
ATOM     26 H    HIS E   2      15.156 -11.032  -0.336  1.00 15.79 LIG 0.16  HD
ATOM     27  C   PHE E   1      14.576  -9.993   1.200  1.00 15.11 LIG 0.24  C 
ATOM     28 O    PHE E   1      13.673  -9.829   2.012  1.00 17.78 LIG-0.27  OA
BRANCH 27 29
ATOM     29  CA  PHE E   1      15.841  -9.144   1.264  1.00 10.43 LIG 0.18  C 
BRANCH 29 30
ATOM     30  N   PHE E   1      15.511  -7.732   1.366  1.00 15.82 LIG-0.35  N 
ATOM     31 H    PHE E   1      15.455  -7.451   2.177  1.00 15.82 LIG 0.16  HD
ATOM     32  C   ACE E   0      15.312  -6.940   0.311  1.00 20.55 LIG 0.21  C 
ATOM     33 O    ACE E   0      15.055  -5.740   0.455  1.00 32.51 LIG-0.27  OA
ATOM     34  CH3 ACE E   0      15.455  -7.560  -1.049  1.00 11.71 LIG 0.12  C 
ENDBRANCH 29 30
BRANCH 29 35
ATOM     35  CB  PHE E   1      16.705  -9.583   2.447  1.00  9.28 LIG 0.07  C 
BRANCH 35 36
ATOM     36  CG  PHE E   1      16.268  -9.017   3.768  1.00 12.52 LIG-0.06  A 
ATOM     37  CD1 PHE E   1      15.179  -9.553   4.439  1.00 10.90 LIG 0.01  A 
ATOM     38  CE1 PHE E   1      14.778  -9.051   5.658  1.00 11.94 LIG 0.00  A 
ATOM     39  CZ  PHE E   1      15.463  -7.991   6.220  1.00  8.92 LIG 0.00  A 
ATOM     40  CE2 PHE E   1      16.563  -7.448   5.555  1.00  8.81 LIG 0.00  A 
ATOM     41  CD2 PHE E   1      16.955  -7.959   4.345  1.00 12.38 LIG 0.01  A 
ENDBRANCH 35 36
ENDBRANCH 29 35
ENDBRANCH 27 29
ENDBRANCH 1 25
TORSDOF 14
ENDMDL
MODEL 72
USER: ADFR SOLUTION from run 150
USER: SCORE 12.076780 LL:  -3.140 LR:  -9.893 RR:   0.000 FEB:  -5.717
USER: RMSD 8.742833
USER: SEED 149
USER: STATUS no improvement in best in 21 clusters for 5 generations
USER: GENES 16
USER: genes 0 Translation |==|  0.60434 0.70675 0.35626
USER: genes 1 Rotation |==|  0.33000 0.26778 0.90655 0.54344
USER: genes 2 Torsion [N]-CA--C-[N] |==|  0.29458
USER: genes 3 Torsion [C]-N--CA-[C] |==|  0.71330
USER: genes 4 Torsion [N]-CA--C-[N] |==|  0.43133
USER: genes 5 Torsion [C]-N--CA-[C] |==|  0.26030
USER: genes 6 Torsion [N]-CA--C-[N] |==|  0.42602
USER: genes 7 Torsion [N]-CA--CB-[CG2] |==|  0.78308
USER: genes 8 Torsion [CA]-CB--OG1-[HG1] |==|  0.29804
USER: genes 9 Torsion [C]-CA--CB-[CG] |==|  0.40122
USER: genes 10 Torsion [CA]-CB--CG-[CD2] |==|  0.94852
USER: genes 11 Torsion [C]-CA--N-[C] |==|  0.61111
USER: genes 12 Torsion [N]-C--CA-[N] |==|  0.91974
USER: genes 13 Torsion [C]-CA--N-[C] |==|  0.67295
USER: genes 14 Torsion [C]-CA--CB-[CG] |==|  0.80044
USER: genes 15 Torsion [CA]-CB--CG-[CD2] |==|  0.72484
ROOT
ATOM      1  CA  HIS E   2      17.036  -4.334   0.116  1.00 15.97 LIG 0.18  C 
ENDROOT
BRANCH 1 2
ATOM      2  C   HIS E   2      17.975  -4.535   1.293  1.00 15.29 LIG 0.24  C 
ATOM      3  N   THR E   3      18.578  -3.443   1.754  1.00 22.30 LIG-0.34  N 
ATOM      4 H    THR E   3      18.474  -2.660   1.413  1.00 22.30 LIG 0.16  HD
ATOM      5 O    HIS E   2      18.141  -5.650   1.784  1.00 12.62 LIG-0.27  OA
BRANCH 3 6
ATOM      6  CA  THR E   3      19.481  -3.482   2.896  1.00 13.35 LIG 0.20  C 
BRANCH 6 7
ATOM      7  C   THR E   3      18.809  -2.949   4.151  1.00 17.92 LIG 0.24  C 
ATOM      8  N   GLY E   4      19.296  -3.381   5.313  1.00 20.63 LIG-0.35  N 
ATOM      9 H    GLY E   4      19.882  -4.007   5.380  1.00 20.63 LIG 0.16  HD
ATOM     10 O    THR E   3      17.833  -2.206   4.068  1.00 20.63 LIG-0.27  OA
BRANCH 8 11
ATOM     11  CA  GLY E   4      18.875  -2.825   6.588  1.00 21.12 LIG 0.23  C 
BRANCH 11 12
ATOM     12  C   GLY E   4      17.742  -3.521   7.321  1.00 30.37 LIG 0.28  C 
ATOM     13 O    GLY E   4      16.913  -4.176   6.694  1.00 22.56 LIG-0.27  OA
ATOM     14  N   NH2 E   5      17.709  -3.396   8.646  1.00 46.70 LIG-0.11  N 
ENDBRANCH 11 12
ENDBRANCH 8 11
ENDBRANCH 6 7
BRANCH 6 15
ATOM     15  CB  THR E   3      20.753  -2.663   2.609  1.00 21.65 LIG 0.15  C 
ATOM     16  CG2 THR E   3      21.703  -3.429   1.728  1.00 26.78 LIG 0.04  C 
BRANCH 15 17
ATOM     17 OG1  THR E   3      20.386  -1.443   1.954  1.00 29.20 LIG-0.39  OA
ATOM     18 HG1  THR E   3      20.473  -0.801   2.489  1.00 29.20 LIG 0.21  HD
ENDBRANCH 15 17
ENDBRANCH 6 15
ENDBRANCH 3 6
ENDBRANCH 1 2
BRANCH 1 19
ATOM     19  CB  HIS E   2      15.711  -5.035   0.402  1.00 16.39 LIG 0.10  C 
BRANCH 19 20
ATOM     20  CG  HIS E   2      14.516  -4.310  -0.137  1.00 27.51 LIG 0.06  A 
ATOM     21  CD2 HIS E   2      14.357  -3.025  -0.530  1.00 25.75 LIG 0.14  A 
ATOM     22 NE2  HIS E   2      13.054  -2.886  -0.944  1.00 29.28 LIG-0.25  NA
ATOM     23  CE1 HIS E   2      12.434  -4.044  -0.809  1.00 28.87 LIG 0.23  A 
ATOM     24 ND1  HIS E   2      13.295  -4.923  -0.327  1.00 29.28 LIG-0.24  NA
ENDBRANCH 19 20
ENDBRANCH 1 19
BRANCH 1 25
ATOM     25  N   HIS E   2      17.619  -4.830  -1.131  1.00 15.79 LIG-0.35  N 
ATOM     26 H    HIS E   2      18.051  -5.569  -1.051  1.00 15.79 LIG 0.16  HD
ATOM     27  C   PHE E   1      17.480  -4.176  -2.279  1.00 15.11 LIG 0.24  C 
ATOM     28 O    PHE E   1      16.869  -3.118  -2.375  1.00 17.78 LIG-0.27  OA
BRANCH 27 29
ATOM     29  CA  PHE E   1      18.133  -4.810  -3.503  1.00 10.43 LIG 0.18  C 
BRANCH 29 30
ATOM     30  N   PHE E   1      19.298  -5.589  -3.121  1.00 15.82 LIG-0.35  N 
ATOM     31 H    PHE E   1      19.113  -6.250  -2.601  1.00 15.82 LIG 0.16  HD
ATOM     32  C   ACE E   0      20.538  -5.317  -3.529  1.00 20.55 LIG 0.21  C 
ATOM     33 O    ACE E   0      21.492  -6.027  -3.191  1.00 32.51 LIG-0.27  OA
ATOM     34  CH3 ACE E   0      20.716  -4.140  -4.446  1.00 11.71 LIG 0.12  C 
ENDBRANCH 29 30
BRANCH 29 35
ATOM     35  CB  PHE E   1      17.118  -5.682  -4.242  1.00  9.28 LIG 0.07  C 
BRANCH 35 36
ATOM     36  CG  PHE E   1      16.770  -6.956  -3.527  1.00 12.52 LIG-0.06  A 
ATOM     37  CD1 PHE E   1      15.831  -6.957  -2.506  1.00 10.90 LIG 0.01  A 
ATOM     38  CE1 PHE E   1      15.493  -8.123  -1.852  1.00 11.94 LIG 0.00  A 
ATOM     39  CZ  PHE E   1      16.103  -9.309  -2.210  1.00  8.92 LIG 0.00  A 
ATOM     40  CE2 PHE E   1      17.044  -9.319  -3.241  1.00  8.81 LIG 0.00  A 
ATOM     41  CD2 PHE E   1      17.369  -8.155  -3.886  1.00 12.38 LIG 0.01  A 
ENDBRANCH 35 36
ENDBRANCH 29 35
ENDBRANCH 27 29
ENDBRANCH 1 25
TORSDOF 14
ENDMDL
MODEL 73
USER: ADFR SOLUTION from run 9
USER: SCORE 12.794529 LL:  -3.173 LR:  -9.886 RR:   0.000 FEB:  -5.710
USER: RMSD 9.073626
USER: SEED 522405
USER: STATUS no improvement in best in 30 clusters for 5 generations
USER: GENES 16
USER: genes 0 Translation |==|  0.49049 0.64232 0.34146
USER: genes 1 Rotation |==|  0.30954 0.64369 0.93935 0.50700
USER: genes 2 Torsion [N]-CA--C-[N] |==|  0.93158
USER: genes 3 Torsion [C]-N--CA-[C] |==|  0.85000
USER: genes 4 Torsion [N]-CA--C-[N] |==|  0.92186
USER: genes 5 Torsion [C]-N--CA-[C] |==|  0.76476
USER: genes 6 Torsion [N]-CA--C-[N] |==|  0.93724
USER: genes 7 Torsion [N]-CA--CB-[CG2] |==|  0.64799
USER: genes 8 Torsion [CA]-CB--OG1-[HG1] |==|  0.88608
USER: genes 9 Torsion [C]-CA--CB-[CG] |==|  0.20402
USER: genes 10 Torsion [CA]-CB--CG-[CD2] |==|  0.88271
USER: genes 11 Torsion [C]-CA--N-[C] |==|  0.76473
USER: genes 12 Torsion [N]-C--CA-[N] |==|  0.01717
USER: genes 13 Torsion [C]-CA--N-[C] |==|  0.71467
USER: genes 14 Torsion [C]-CA--CB-[CG] |==|  0.60827
USER: genes 15 Torsion [CA]-CB--CG-[CD2] |==|  0.82909
ROOT
ATOM      1  CA  HIS E   2      14.902  -5.687  -0.128  1.00 15.97 LIG 0.18  C 
ENDROOT
BRANCH 1 2
ATOM      2  C   HIS E   2      16.068  -4.884   0.421  1.00 15.29 LIG 0.24  C 
ATOM      3  N   THR E   3      16.578  -5.306   1.574  1.00 22.30 LIG-0.34  N 
ATOM      4 H    THR E   3      16.273  -5.980   2.013  1.00 22.30 LIG 0.16  HD
ATOM      5 O    HIS E   2      16.507  -3.913  -0.191  1.00 12.62 LIG-0.27  OA
BRANCH 3 6
ATOM      6  CA  THR E   3      17.717  -4.650   2.202  1.00 13.35 LIG 0.20  C 
BRANCH 6 7
ATOM      7  C   THR E   3      18.892  -4.548   1.245  1.00 17.92 LIG 0.24  C 
ATOM      8  N   GLY E   4      18.975  -5.488   0.304  1.00 20.63 LIG-0.35  N 
ATOM      9 H    GLY E   4      18.471  -6.184   0.283  1.00 20.63 LIG 0.16  HD
ATOM     10 O    THR E   3      19.739  -3.668   1.388  1.00 20.63 LIG-0.27  OA
BRANCH 8 11
ATOM     11  CA  GLY E   4      19.936  -5.419  -0.784  1.00 21.12 LIG 0.23  C 
BRANCH 11 12
ATOM     12  C   GLY E   4      19.554  -4.611  -2.011  1.00 30.37 LIG 0.28  C 
ATOM     13 O    GLY E   4      20.426  -4.181  -2.762  1.00 22.56 LIG-0.27  OA
ATOM     14  N   NH2 E   5      18.255  -4.413  -2.226  1.00 46.70 LIG-0.11  N 
ENDBRANCH 11 12
ENDBRANCH 8 11
ENDBRANCH 6 7
BRANCH 6 15
ATOM     15  CB  THR E   3      18.151  -5.412   3.467  1.00 21.65 LIG 0.15  C 
ATOM     16  CG2 THR E   3      18.214  -4.493   4.658  1.00 26.78 LIG 0.04  C 
BRANCH 15 17
ATOM     17 OG1  THR E   3      17.208  -6.457   3.731  1.00 29.20 LIG-0.39  OA
ATOM     18 HG1  THR E   3      16.430  -6.173   3.594  1.00 29.20 LIG 0.21  HD
ENDBRANCH 15 17
ENDBRANCH 6 15
ENDBRANCH 3 6
ENDBRANCH 1 2
BRANCH 1 19
ATOM     19  CB  HIS E   2      13.592  -4.995   0.241  1.00 16.39 LIG 0.10  C 
BRANCH 19 20
ATOM     20  CG  HIS E   2      13.324  -3.750  -0.546  1.00 27.51 LIG 0.06  A 
ATOM     21  CD2 HIS E   2      14.142  -2.737  -0.916  1.00 25.75 LIG 0.14  A 
ATOM     22 NE2  HIS E   2      13.382  -1.843  -1.632  1.00 29.28 LIG-0.25  NA
ATOM     23  CE1 HIS E   2      12.142  -2.291  -1.699  1.00 28.87 LIG 0.23  A 
ATOM     24 ND1  HIS E   2      12.080  -3.443  -1.054  1.00 29.28 LIG-0.24  NA
ENDBRANCH 19 20
ENDBRANCH 1 19
BRANCH 1 25
ATOM     25  N   HIS E   2      14.912  -7.063   0.370  1.00 15.79 LIG-0.35  N 
ATOM     26 H    HIS E   2      14.418  -7.193   1.062  1.00 15.79 LIG 0.16  HD
ATOM     27  C   PHE E   1      15.631  -8.015  -0.214  1.00 15.11 LIG 0.24  C 
ATOM     28 O    PHE E   1      16.339  -7.812  -1.194  1.00 17.78 LIG-0.27  OA
BRANCH 27 29
ATOM     29  CA  PHE E   1      15.543  -9.406   0.406  1.00 10.43 LIG 0.18  C 
BRANCH 29 30
ATOM     30  N   PHE E   1      14.546  -9.439   1.462  1.00 15.82 LIG-0.35  N 
ATOM     31 H    PHE E   1      13.738  -9.474   1.169  1.00 15.82 LIG 0.16  HD
ATOM     32  C   ACE E   0      14.843  -9.418   2.762  1.00 20.55 LIG 0.21  C 
ATOM     33 O    ACE E   0      13.955  -9.471   3.620  1.00 32.51 LIG-0.27  OA
ATOM     34  CH3 ACE E   0      16.297  -9.370   3.133  1.00 11.71 LIG 0.12  C 
ENDBRANCH 29 30
BRANCH 29 35
ATOM     35  CB  PHE E   1      15.221 -10.438  -0.676  1.00  9.28 LIG 0.07  C 
BRANCH 35 36
ATOM     36  CG  PHE E   1      14.264 -11.509  -0.233  1.00 12.52 LIG-0.06  A 
ATOM     37  CD1 PHE E   1      13.045 -11.672  -0.873  1.00 10.90 LIG 0.01  A 
ATOM     38  CE1 PHE E   1      12.165 -12.661  -0.484  1.00 11.94 LIG 0.00  A 
ATOM     39  CZ  PHE E   1      12.496 -13.498   0.563  1.00  8.92 LIG 0.00  A 
ATOM     40  CE2 PHE E   1      13.724 -13.345   1.208  1.00  8.81 LIG 0.00  A 
ATOM     41  CD2 PHE E   1      14.592 -12.361   0.811  1.00 12.38 LIG 0.01  A 
ENDBRANCH 35 36
ENDBRANCH 29 35
ENDBRANCH 27 29
ENDBRANCH 1 25
TORSDOF 14
ENDMDL
MODEL 74
USER: ADFR SOLUTION from run 155
USER: SCORE 11.327283 LL:  -2.882 LR:  -9.880 RR:   0.000 FEB:  -5.704
USER: RMSD 5.715240
USER: SEED 154
USER: STATUS no improvement in best in 19 clusters for 5 generations
USER: GENES 16
USER: genes 0 Translation |==|  0.49549 0.61424 0.38301
USER: genes 1 Rotation |==|  0.27932 0.07265 0.58127 0.60988
USER: genes 2 Torsion [N]-CA--C-[N] |==|  0.31910
USER: genes 3 Torsion [C]-N--CA-[C] |==|  0.74474
USER: genes 4 Torsion [N]-CA--C-[N] |==|  0.31146
USER: genes 5 Torsion [C]-N--CA-[C] |==|  0.83055
USER: genes 6 Torsion [N]-CA--C-[N] |==|  0.36002
USER: genes 7 Torsion [N]-CA--CB-[CG2] |==|  0.74793
USER: genes 8 Torsion [CA]-CB--OG1-[HG1] |==|  0.87711
USER: genes 9 Torsion [C]-CA--CB-[CG] |==|  0.48329
USER: genes 10 Torsion [CA]-CB--CG-[CD2] |==|  0.14693
USER: genes 11 Torsion [C]-CA--N-[C] |==|  0.87375
USER: genes 12 Torsion [N]-C--CA-[N] |==|  0.07235
USER: genes 13 Torsion [C]-CA--N-[C] |==|  0.77598
USER: genes 14 Torsion [C]-CA--CB-[CG] |==|  0.82972
USER: genes 15 Torsion [CA]-CB--CG-[CD2] |==|  0.26381
ROOT
ATOM      1  CA  HIS E   2      14.995  -6.277   0.558  1.00 15.97 LIG 0.18  C 
ENDROOT
BRANCH 1 2
ATOM      2  C   HIS E   2      15.255  -7.772   0.615  1.00 15.29 LIG 0.24  C 
ATOM      3  N   THR E   3      15.080  -8.352   1.799  1.00 22.30 LIG-0.34  N 
ATOM      4 H    THR E   3      14.851  -7.926   2.510  1.00 22.30 LIG 0.16  HD
ATOM      5 O    HIS E   2      15.592  -8.392  -0.391  1.00 12.62 LIG-0.27  OA
BRANCH 3 6
ATOM      6  CA  THR E   3      15.264  -9.784   1.994  1.00 13.35 LIG 0.20  C 
BRANCH 6 7
ATOM      7  C   THR E   3      13.960 -10.539   1.804  1.00 17.92 LIG 0.24  C 
ATOM      8  N   GLY E   4      13.886 -11.339   0.741  1.00 20.63 LIG-0.35  N 
ATOM      9 H    GLY E   4      14.483 -11.363   0.122  1.00 20.63 LIG 0.16  HD
ATOM     10 O    THR E   3      13.018 -10.361   2.574  1.00 20.63 LIG-0.27  OA
BRANCH 8 11
ATOM     11  CA  GLY E   4      12.777 -12.254   0.530  1.00 21.12 LIG 0.23  C 
BRANCH 11 12
ATOM     12  C   GLY E   4      12.545 -13.332   1.573  1.00 30.37 LIG 0.28  C 
ATOM     13 O    GLY E   4      13.477 -14.037   1.949  1.00 22.56 LIG-0.27  OA
ATOM     14  N   NH2 E   5      11.309 -13.455   2.053  1.00 46.70 LIG-0.11  N 
ENDBRANCH 11 12
ENDBRANCH 8 11
ENDBRANCH 6 7
BRANCH 6 15
ATOM     15  CB  THR E   3      15.824 -10.071   3.399  1.00 21.65 LIG 0.15  C 
ATOM     16  CG2 THR E   3      17.329 -10.090   3.388  1.00 26.78 LIG 0.04  C 
BRANCH 15 17
ATOM     17 OG1  THR E   3      15.374  -9.053   4.299  1.00 29.20 LIG-0.39  OA
ATOM     18 HG1  THR E   3      15.454  -8.301   3.934  1.00 29.20 LIG 0.21  HD
ENDBRANCH 15 17
ENDBRANCH 6 15
ENDBRANCH 3 6
ENDBRANCH 1 2
BRANCH 1 19
ATOM     19  CB  HIS E   2      13.925  -5.989  -0.491  1.00 16.39 LIG 0.10  C 
BRANCH 19 20
ATOM     20  CG  HIS E   2      13.487  -4.558  -0.532  1.00 27.51 LIG 0.06  A 
ATOM     21  CD2 HIS E   2      14.200  -3.412  -0.649  1.00 25.75 LIG 0.14  A 
ATOM     22 NE2  HIS E   2      13.300  -2.373  -0.634  1.00 29.28 LIG-0.25  NA
ATOM     23  CE1 HIS E   2      12.080  -2.862  -0.512  1.00 28.87 LIG 0.23  A 
ATOM     24 ND1  HIS E   2      12.164  -4.180  -0.451  1.00 29.28 LIG-0.24  NA
ENDBRANCH 19 20
ENDBRANCH 1 19
BRANCH 1 25
ATOM     25  N   HIS E   2      16.217  -5.527   0.261  1.00 15.79 LIG-0.35  N 
ATOM     26 H    HIS E   2      16.121  -4.915  -0.335  1.00 15.79 LIG 0.16  HD
ATOM     27  C   PHE E   1      17.366  -5.788   0.875  1.00 15.11 LIG 0.24  C 
ATOM     28 O    PHE E   1      17.489  -6.672   1.715  1.00 17.78 LIG-0.27  OA
BRANCH 27 29
ATOM     29  CA  PHE E   1      18.558  -4.925   0.474  1.00 10.43 LIG 0.18  C 
BRANCH 29 30
ATOM     30  N   PHE E   1      18.117  -3.632  -0.021  1.00 15.82 LIG-0.35  N 
ATOM     31 H    PHE E   1      18.169  -3.005   0.566  1.00 15.82 LIG 0.16  HD
ATOM     32  C   ACE E   0      17.672  -3.426  -1.261  1.00 20.55 LIG 0.21  C 
ATOM     33 O    ACE E   0      17.330  -2.300  -1.637  1.00 32.51 LIG-0.27  OA
ATOM     34  CH3 ACE E   0      17.647  -4.609  -2.186  1.00 11.71 LIG 0.12  C 
ENDBRANCH 29 30
BRANCH 29 35
ATOM     35  CB  PHE E   1      19.501  -4.755   1.666  1.00  9.28 LIG 0.07  C 
BRANCH 35 36
ATOM     36  CG  PHE E   1      18.876  -4.070   2.848  1.00 12.52 LIG-0.06  A 
ATOM     37  CD1 PHE E   1      18.829  -2.685   2.915  1.00 10.90 LIG 0.01  A 
ATOM     38  CE1 PHE E   1      18.245  -2.046   3.988  1.00 11.94 LIG 0.00  A 
ATOM     39  CZ  PHE E   1      17.705  -2.791   5.018  1.00  8.92 LIG 0.00  A 
ATOM     40  CE2 PHE E   1      17.742  -4.185   4.956  1.00  8.81 LIG 0.00  A 
ATOM     41  CD2 PHE E   1      18.322  -4.810   3.882  1.00 12.38 LIG 0.01  A 
ENDBRANCH 35 36
ENDBRANCH 29 35
ENDBRANCH 27 29
ENDBRANCH 1 25
TORSDOF 14
ENDMDL
MODEL 75
USER: ADFR SOLUTION from run 139
USER: SCORE 11.980805 LL:  -3.085 LR:  -9.877 RR:   0.000 FEB:  -5.701
USER: RMSD 4.825560
USER: SEED 138
USER: STATUS no improvement in best in 25 clusters for 5 generations
USER: GENES 16
USER: genes 0 Translation |==|  0.52974 0.51477 0.23221
USER: genes 1 Rotation |==|  0.63337 0.88978 0.51789 0.78279
USER: genes 2 Torsion [N]-CA--C-[N] |==|  0.06270
USER: genes 3 Torsion [C]-N--CA-[C] |==|  0.74480
USER: genes 4 Torsion [N]-CA--C-[N] |==|  0.24445
USER: genes 5 Torsion [C]-N--CA-[C] |==|  0.80138
USER: genes 6 Torsion [N]-CA--C-[N] |==|  0.87446
USER: genes 7 Torsion [N]-CA--CB-[CG2] |==|  0.87281
USER: genes 8 Torsion [CA]-CB--OG1-[HG1] |==|  0.60544
USER: genes 9 Torsion [C]-CA--CB-[CG] |==|  0.51775
USER: genes 10 Torsion [CA]-CB--CG-[CD2] |==|  0.49999
USER: genes 11 Torsion [C]-CA--N-[C] |==|  0.18290
USER: genes 12 Torsion [N]-C--CA-[N] |==|  0.51439
USER: genes 13 Torsion [C]-CA--N-[C] |==|  0.71434
USER: genes 14 Torsion [C]-CA--CB-[CG] |==|  0.27705
USER: genes 15 Torsion [CA]-CB--CG-[CD2] |==|  0.95489
ROOT
ATOM      1  CA  HIS E   2      15.638  -8.366  -1.931  1.00 15.97 LIG 0.18  C 
ENDROOT
BRANCH 1 2
ATOM      2  C   HIS E   2      15.624  -9.554  -0.985  1.00 15.29 LIG 0.24  C 
ATOM      3  N   THR E   3      15.271  -9.298   0.272  1.00 22.30 LIG-0.34  N 
ATOM      4 H    THR E   3      15.075  -8.513   0.562  1.00 22.30 LIG 0.16  HD
ATOM      5 O    HIS E   2      15.912 -10.680  -1.384  1.00 12.62 LIG-0.27  OA
BRANCH 3 6
ATOM      6  CA  THR E   3      15.186 -10.346   1.280  1.00 13.35 LIG 0.20  C 
BRANCH 6 7
ATOM      7  C   THR E   3      13.784 -10.927   1.356  1.00 17.92 LIG 0.24  C 
ATOM      8  N   GLY E   4      13.516 -11.941   0.534  1.00 20.63 LIG-0.35  N 
ATOM      9 H    GLY E   4      14.048 -12.201  -0.089  1.00 20.63 LIG 0.16  HD
ATOM     10 O    THR E   3      12.943 -10.431   2.104  1.00 20.63 LIG-0.27  OA
BRANCH 8 11
ATOM     11  CA  GLY E   4      12.284 -12.707   0.620  1.00 21.12 LIG 0.23  C 
BRANCH 11 12
ATOM     12  C   GLY E   4      12.118 -13.644   1.802  1.00 30.37 LIG 0.28  C 
ATOM     13 O    GLY E   4      11.054 -13.681   2.415  1.00 22.56 LIG-0.27  OA
ATOM     14  N   NH2 E   5      13.159 -14.412   2.118  1.00 46.70 LIG-0.11  N 
ENDBRANCH 11 12
ENDBRANCH 8 11
ENDBRANCH 6 7
BRANCH 6 15
ATOM     15  CB  THR E   3      15.591  -9.803   2.662  1.00 21.65 LIG 0.15  C 
ATOM     16  CG2 THR E   3      16.850  -8.981   2.572  1.00 26.78 LIG 0.04  C 
BRANCH 15 17
ATOM     17 OG1  THR E   3      14.533  -8.985   3.172  1.00 29.20 LIG-0.39  OA
ATOM     18 HG1  THR E   3      14.859  -8.324   3.576  1.00 29.20 LIG 0.21  HD
ENDBRANCH 15 17
ENDBRANCH 6 15
ENDBRANCH 3 6
ENDBRANCH 1 2
BRANCH 1 19
ATOM     19  CB  HIS E   2      16.773  -8.533  -2.936  1.00 16.39 LIG 0.10  C 
BRANCH 19 20
ATOM     20  CG  HIS E   2      16.974  -7.343  -3.824  1.00 27.51 LIG 0.06  A 
ATOM     21  CD2 HIS E   2      17.863  -7.116  -4.820  1.00 25.75 LIG 0.14  A 
ATOM     22 NE2  HIS E   2      17.609  -5.857  -5.309  1.00 29.28 LIG-0.25  NA
ATOM     23  CE1 HIS E   2      16.601  -5.330  -4.638  1.00 28.87 LIG 0.23  A 
ATOM     24 ND1  HIS E   2      16.197  -6.208  -3.737  1.00 29.28 LIG-0.24  NA
ENDBRANCH 19 20
ENDBRANCH 1 19
BRANCH 1 25
ATOM     25  N   HIS E   2      15.776  -7.101  -1.207  1.00 15.79 LIG-0.35  N 
ATOM     26 H    HIS E   2      15.089  -6.587  -1.259  1.00 15.79 LIG 0.16  HD
ATOM     27  C   PHE E   1      16.880  -6.796  -0.535  1.00 15.11 LIG 0.24  C 
ATOM     28 O    PHE E   1      17.855  -7.536  -0.479  1.00 17.78 LIG-0.27  OA
BRANCH 27 29
ATOM     29  CA  PHE E   1      16.886  -5.448   0.179  1.00 10.43 LIG 0.18  C 
BRANCH 29 30
ATOM     30  N   PHE E   1      18.187  -5.183   0.771  1.00 15.82 LIG-0.35  N 
ATOM     31 H    PHE E   1      18.778  -4.931   0.200  1.00 15.82 LIG 0.16  HD
ATOM     32  C   ACE E   0      18.448  -5.315   2.073  1.00 20.55 LIG 0.21  C 
ATOM     33 O    ACE E   0      19.567  -5.055   2.527  1.00 32.51 LIG-0.27  OA
ATOM     34  CH3 ACE E   0      17.317  -5.750   2.959  1.00 11.71 LIG 0.12  C 
ENDBRANCH 29 30
BRANCH 29 35
ATOM     35  CB  PHE E   1      16.502  -4.338  -0.800  1.00  9.28 LIG 0.07  C 
BRANCH 35 36
ATOM     36  CG  PHE E   1      15.068  -3.902  -0.699  1.00 12.52 LIG-0.06  A 
ATOM     37  CD1 PHE E   1      14.651  -2.712  -1.277  1.00 10.90 LIG 0.01  A 
ATOM     38  CE1 PHE E   1      13.335  -2.309  -1.203  1.00 11.94 LIG 0.00  A 
ATOM     39  CZ  PHE E   1      12.415  -3.095  -0.536  1.00  8.92 LIG 0.00  A 
ATOM     40  CE2 PHE E   1      12.824  -4.296   0.043  1.00  8.81 LIG 0.00  A 
ATOM     41  CD2 PHE E   1      14.135  -4.689  -0.040  1.00 12.38 LIG 0.01  A 
ENDBRANCH 35 36
ENDBRANCH 29 35
ENDBRANCH 27 29
ENDBRANCH 1 25
TORSDOF 14
ENDMDL
MODEL 76
USER: ADFR SOLUTION from run 32
USER: SCORE 12.295373 LL:  -3.550 LR:  -9.868 RR:   0.000 FEB:  -5.692
USER: RMSD 7.851688
USER: SEED 31
USER: STATUS no improvement in best in 37 clusters for 5 generations
USER: GENES 16
USER: genes 0 Translation |==|  0.49998 0.66109 0.35988
USER: genes 1 Rotation |==|  0.26337 0.14109 0.24527 0.51727
USER: genes 2 Torsion [N]-CA--C-[N] |==|  0.69439
USER: genes 3 Torsion [C]-N--CA-[C] |==|  0.85368
USER: genes 4 Torsion [N]-CA--C-[N] |==|  0.37152
USER: genes 5 Torsion [C]-N--CA-[C] |==|  0.26275
USER: genes 6 Torsion [N]-CA--C-[N] |==|  0.04241
USER: genes 7 Torsion [N]-CA--CB-[CG2] |==|  0.38344
USER: genes 8 Torsion [CA]-CB--OG1-[HG1] |==|  0.44110
USER: genes 9 Torsion [C]-CA--CB-[CG] |==|  0.25494
USER: genes 10 Torsion [CA]-CB--CG-[CD2] |==|  0.56257
USER: genes 11 Torsion [C]-CA--N-[C] |==|  0.17533
USER: genes 12 Torsion [N]-C--CA-[N] |==|  0.90466
USER: genes 13 Torsion [C]-CA--N-[C] |==|  0.70124
USER: genes 14 Torsion [C]-CA--CB-[CG] |==|  0.83290
USER: genes 15 Torsion [CA]-CB--CG-[CD2] |==|  0.25324
ROOT
ATOM      1  CA  HIS E   2      15.080  -5.293   0.176  1.00 15.97 LIG 0.18  C 
ENDROOT
BRANCH 1 2
ATOM      2  C   HIS E   2      15.311  -6.233  -0.994  1.00 15.29 LIG 0.24  C 
ATOM      3  N   THR E   3      15.925  -5.710  -2.052  1.00 22.30 LIG-0.34  N 
ATOM      4 H    THR E   3      16.170  -4.888  -2.104  1.00 22.30 LIG 0.16  HD
ATOM      5 O    HIS E   2      14.957  -7.408  -0.938  1.00 12.62 LIG-0.27  OA
BRANCH 3 6
ATOM      6  CA  THR E   3      16.239  -6.502  -3.234  1.00 13.35 LIG 0.20  C 
BRANCH 6 7
ATOM      7  C   THR E   3      17.004  -7.763  -2.866  1.00 17.92 LIG 0.24  C 
ATOM      8  N   GLY E   4      16.588  -8.895  -3.431  1.00 20.63 LIG-0.35  N 
ATOM      9 H    GLY E   4      15.865  -8.959  -3.893  1.00 20.63 LIG 0.16  HD
ATOM     10 O    THR E   3      17.919  -7.720  -2.046  1.00 20.63 LIG-0.27  OA
BRANCH 8 11
ATOM     11  CA  GLY E   4      17.328 -10.141  -3.315  1.00 21.12 LIG 0.23  C 
BRANCH 11 12
ATOM     12  C   GLY E   4      16.928 -11.097  -2.206  1.00 30.37 LIG 0.28  C 
ATOM     13 O    GLY E   4      17.683 -12.007  -1.874  1.00 22.56 LIG-0.27  OA
ATOM     14  N   NH2 E   5      15.750 -10.889  -1.621  1.00 46.70 LIG-0.11  N 
ENDBRANCH 11 12
ENDBRANCH 8 11
ENDBRANCH 6 7
BRANCH 6 15
ATOM     15  CB  THR E   3      17.064  -5.676  -4.236  1.00 21.65 LIG 0.15  C 
ATOM     16  CG2 THR E   3      18.177  -6.498  -4.830  1.00 26.78 LIG 0.04  C 
BRANCH 15 17
ATOM     17 OG1  THR E   3      16.205  -5.221  -5.288  1.00 29.20 LIG-0.39  OA
ATOM     18 HG1  THR E   3      16.552  -4.556  -5.666  1.00 29.20 LIG 0.21  HD
ENDBRANCH 15 17
ENDBRANCH 6 15
ENDBRANCH 3 6
ENDBRANCH 1 2
BRANCH 1 19
ATOM     19  CB  HIS E   2      15.342  -3.857  -0.269  1.00 16.39 LIG 0.10  C 
BRANCH 19 20
ATOM     20  CG  HIS E   2      14.123  -3.146  -0.769  1.00 27.51 LIG 0.06  A 
ATOM     21  CD2 HIS E   2      13.989  -2.078  -1.590  1.00 25.75 LIG 0.14  A 
ATOM     22 NE2  HIS E   2      12.642  -1.838  -1.725  1.00 29.28 LIG-0.25  NA
ATOM     23  CE1 HIS E   2      11.973  -2.725  -1.011  1.00 28.87 LIG 0.23  A 
ATOM     24 ND1  HIS E   2      12.843  -3.530  -0.426  1.00 29.28 LIG-0.24  NA
ENDBRANCH 19 20
ENDBRANCH 1 19
BRANCH 1 25
ATOM     25  N   HIS E   2      15.924  -5.637   1.321  1.00 15.79 LIG-0.35  N 
ATOM     26 H    HIS E   2      15.489  -5.875   2.023  1.00 15.79 LIG 0.16  HD
ATOM     27  C   PHE E   1      17.249  -5.578   1.257  1.00 15.11 LIG 0.24  C 
ATOM     28 O    PHE E   1      17.855  -5.226   0.251  1.00 17.78 LIG-0.27  OA
BRANCH 27 29
ATOM     29  CA  PHE E   1      18.006  -5.970   2.521  1.00 10.43 LIG 0.18  C 
BRANCH 29 30
ATOM     30  N   PHE E   1      17.269  -5.573   3.709  1.00 15.82 LIG-0.35  N 
ATOM     31 H    PHE E   1      16.571  -6.055   3.855  1.00 15.82 LIG 0.16  HD
ATOM     32  C   ACE E   0      17.629  -4.563   4.501  1.00 20.55 LIG 0.21  C 
ATOM     33 O    ACE E   0      16.976  -4.282   5.512  1.00 32.51 LIG-0.27  OA
ATOM     34  CH3 ACE E   0      18.877  -3.814   4.134  1.00 11.71 LIG 0.12  C 
ENDBRANCH 29 30
BRANCH 29 35
ATOM     35  CB  PHE E   1      18.269  -7.477   2.526  1.00  9.28 LIG 0.07  C 
BRANCH 35 36
ATOM     36  CG  PHE E   1      17.022  -8.315   2.489  1.00 12.52 LIG-0.06  A 
ATOM     37  CD1 PHE E   1      16.382  -8.676   3.665  1.00 10.90 LIG 0.01  A 
ATOM     38  CE1 PHE E   1      15.229  -9.432   3.643  1.00 11.94 LIG 0.00  A 
ATOM     39  CZ  PHE E   1      14.705  -9.846   2.434  1.00  8.92 LIG 0.00  A 
ATOM     40  CE2 PHE E   1      15.339  -9.482   1.245  1.00  8.81 LIG 0.00  A 
ATOM     41  CD2 PHE E   1      16.482  -8.726   1.280  1.00 12.38 LIG 0.01  A 
ENDBRANCH 35 36
ENDBRANCH 29 35
ENDBRANCH 27 29
ENDBRANCH 1 25
TORSDOF 14
ENDMDL
MODEL 77
USER: ADFR SOLUTION from run 157
USER: SCORE 12.268347 LL:  -3.243 LR:  -9.875 RR:   0.000 FEB:  -5.698
USER: RMSD 8.490224
USER: SEED 156
USER: STATUS no improvement in best in 32 clusters for 5 generations
USER: GENES 16
USER: genes 0 Translation |==|  0.62331 0.68311 0.59334
USER: genes 1 Rotation |==|  0.53016 0.37743 0.97626 0.58513
USER: genes 2 Torsion [N]-CA--C-[N] |==|  0.35556
USER: genes 3 Torsion [C]-N--CA-[C] |==|  0.64452
USER: genes 4 Torsion [N]-CA--C-[N] |==|  0.02623
USER: genes 5 Torsion [C]-N--CA-[C] |==|  0.52605
USER: genes 6 Torsion [N]-CA--C-[N] |==|  0.58701
USER: genes 7 Torsion [N]-CA--CB-[CG2] |==|  0.79531
USER: genes 8 Torsion [CA]-CB--OG1-[HG1] |==|  0.23058
USER: genes 9 Torsion [C]-CA--CB-[CG] |==|  0.71656
USER: genes 10 Torsion [CA]-CB--CG-[CD2] |==|  0.15644
USER: genes 11 Torsion [C]-CA--N-[C] |==|  0.82921
USER: genes 12 Torsion [N]-C--CA-[N] |==|  0.07111
USER: genes 13 Torsion [C]-CA--N-[C] |==|  0.70391
USER: genes 14 Torsion [C]-CA--CB-[CG] |==|  0.83755
USER: genes 15 Torsion [CA]-CB--CG-[CD2] |==|  0.80433
ROOT
ATOM      1  CA  HIS E   2      17.392  -4.831   4.028  1.00 15.97 LIG 0.18  C 
ENDROOT
BRANCH 1 2
ATOM      2  C   HIS E   2      18.899  -4.641   4.014  1.00 15.29 LIG 0.24  C 
ATOM      3  N   THR E   3      19.330  -3.384   3.951  1.00 22.30 LIG-0.34  N 
ATOM      4 H    THR E   3      18.808  -2.702   3.902  1.00 22.30 LIG 0.16  HD
ATOM      5 O    HIS E   2      19.656  -5.606   4.073  1.00 12.62 LIG-0.27  OA
BRANCH 3 6
ATOM      6  CA  THR E   3      20.748  -3.051   3.959  1.00 13.35 LIG 0.20  C 
BRANCH 6 7
ATOM      7  C   THR E   3      21.065  -2.015   5.025  1.00 17.92 LIG 0.24  C 
ATOM      8  N   GLY E   4      20.088  -1.729   5.884  1.00 20.63 LIG-0.35  N 
ATOM      9 H    GLY E   4      19.282  -2.016   5.800  1.00 20.63 LIG 0.16  HD
ATOM     10 O    THR E   3      22.154  -1.444   5.035  1.00 20.63 LIG-0.27  OA
BRANCH 8 11
ATOM     11  CA  GLY E   4      20.301  -0.897   7.057  1.00 21.12 LIG 0.23  C 
BRANCH 11 12
ATOM     12  C   GLY E   4      19.180  -0.817   8.077  1.00 30.37 LIG 0.28  C 
ATOM     13 O    GLY E   4      18.444  -1.783   8.261  1.00 22.56 LIG-0.27  OA
ATOM     14  N   NH2 E   5      19.053   0.324   8.750  1.00 46.70 LIG-0.11  N 
ENDBRANCH 11 12
ENDBRANCH 8 11
ENDBRANCH 6 7
BRANCH 6 15
ATOM     15  CB  THR E   3      21.188  -2.522   2.583  1.00 21.65 LIG 0.15  C 
ATOM     16  CG2 THR E   3      21.272  -3.638   1.575  1.00 26.78 LIG 0.04  C 
BRANCH 15 17
ATOM     17 OG1  THR E   3      20.238  -1.551   2.128  1.00 29.20 LIG-0.39  OA
ATOM     18 HG1  THR E   3      20.415  -0.805   2.471  1.00 29.20 LIG 0.21  HD
ENDBRANCH 15 17
ENDBRANCH 6 15
ENDBRANCH 3 6
ENDBRANCH 1 2
BRANCH 1 19
ATOM     19  CB  HIS E   2      16.955  -5.302   5.413  1.00 16.39 LIG 0.10  C 
BRANCH 19 20
ATOM     20  CG  HIS E   2      16.668  -6.770   5.488  1.00 27.51 LIG 0.06  A 
ATOM     21  CD2 HIS E   2      17.436  -7.844   5.190  1.00 25.75 LIG 0.14  A 
ATOM     22 NE2  HIS E   2      16.681  -8.964   5.443  1.00 29.28 LIG-0.25  NA
ATOM     23  CE1 HIS E   2      15.492  -8.592   5.880  1.00 28.87 LIG 0.23  A 
ATOM     24 ND1  HIS E   2      15.458  -7.271   5.920  1.00 29.28 LIG-0.24  NA
ENDBRANCH 19 20
ENDBRANCH 1 19
BRANCH 1 25
ATOM     25  N   HIS E   2      16.957  -5.781   3.003  1.00 15.79 LIG-0.35  N 
ATOM     26 H    HIS E   2      16.567  -6.481   3.313  1.00 15.79 LIG 0.16  HD
ATOM     27  C   PHE E   1      17.160  -5.558   1.710  1.00 15.11 LIG 0.24  C 
ATOM     28 O    PHE E   1      17.729  -4.558   1.285  1.00 17.78 LIG-0.27  OA
BRANCH 27 29
ATOM     29  CA  PHE E   1      16.650  -6.628   0.750  1.00 10.43 LIG 0.18  C 
BRANCH 29 30
ATOM     30  N   PHE E   1      15.549  -7.369   1.341  1.00 15.82 LIG-0.35  N 
ATOM     31 H    PHE E   1      14.815  -6.922   1.375  1.00 15.82 LIG 0.16  HD
ATOM     32  C   ACE E   0      15.655  -8.620   1.791  1.00 20.55 LIG 0.21  C 
ATOM     33 O    ACE E   0      14.680  -9.212   2.265  1.00 32.51 LIG-0.27  OA
ATOM     34  CH3 ACE E   0      16.994  -9.286   1.657  1.00 11.71 LIG 0.12  C 
ENDBRANCH 29 30
BRANCH 29 35
ATOM     35  CB  PHE E   1      16.222  -5.983  -0.569  1.00  9.28 LIG 0.07  C 
BRANCH 35 36
ATOM     36  CG  PHE E   1      15.150  -4.940  -0.421  1.00 12.52 LIG-0.06  A 
ATOM     37  CD1 PHE E   1      15.438  -3.600  -0.631  1.00 10.90 LIG 0.01  A 
ATOM     38  CE1 PHE E   1      14.460  -2.636  -0.512  1.00 11.94 LIG 0.00  A 
ATOM     39  CZ  PHE E   1      13.173  -3.006  -0.170  1.00  8.92 LIG 0.00  A 
ATOM     40  CE2 PHE E   1      12.874  -4.352   0.038  1.00  8.81 LIG 0.00  A 
ATOM     41  CD2 PHE E   1      13.854  -5.302  -0.087  1.00 12.38 LIG 0.01  A 
ENDBRANCH 35 36
ENDBRANCH 29 35
ENDBRANCH 27 29
ENDBRANCH 1 25
TORSDOF 14
ENDMDL
MODEL 78
USER: ADFR SOLUTION from run 199
USER: SCORE 11.605567 LL:  -3.016 LR:  -9.864 RR:   0.000 FEB:  -5.687
USER: RMSD 7.010414
USER: SEED 198
USER: STATUS no improvement in best in 38 clusters for 5 generations
USER: GENES 16
USER: genes 0 Translation |==|  0.58013 0.67214 0.37747
USER: genes 1 Rotation |==|  0.31016 0.22139 0.85588 0.59839
USER: genes 2 Torsion [N]-CA--C-[N] |==|  0.50466
USER: genes 3 Torsion [C]-N--CA-[C] |==|  0.81920
USER: genes 4 Torsion [N]-CA--C-[N] |==|  0.90556
USER: genes 5 Torsion [C]-N--CA-[C] |==|  0.42659
USER: genes 6 Torsion [N]-CA--C-[N] |==|  0.53876
USER: genes 7 Torsion [N]-CA--CB-[CG2] |==|  0.50628
USER: genes 8 Torsion [CA]-CB--OG1-[HG1] |==|  0.87579
USER: genes 9 Torsion [C]-CA--CB-[CG] |==|  0.42722
USER: genes 10 Torsion [CA]-CB--CG-[CD2] |==|  0.57674
USER: genes 11 Torsion [C]-CA--N-[C] |==|  0.64779
USER: genes 12 Torsion [N]-C--CA-[N] |==|  0.85238
USER: genes 13 Torsion [C]-CA--N-[C] |==|  0.61401
USER: genes 14 Torsion [C]-CA--CB-[CG] |==|  0.67630
USER: genes 15 Torsion [CA]-CB--CG-[CD2] |==|  0.75578
ROOT
ATOM      1  CA  HIS E   2      16.582  -5.061   0.466  1.00 15.97 LIG 0.18  C 
ENDROOT
BRANCH 1 2
ATOM      2  C   HIS E   2      17.388  -5.771   1.540  1.00 15.29 LIG 0.24  C 
ATOM      3  N   THR E   3      16.913  -5.687   2.780  1.00 22.30 LIG-0.34  N 
ATOM      4 H    THR E   3      16.205  -5.248   2.991  1.00 22.30 LIG 0.16  HD
ATOM      5 O    HIS E   2      18.409  -6.393   1.254  1.00 12.62 LIG-0.27  OA
BRANCH 3 6
ATOM      6  CA  THR E   3      17.567  -6.343   3.904  1.00 13.35 LIG 0.20  C 
BRANCH 6 7
ATOM      7  C   THR E   3      17.523  -7.856   3.762  1.00 17.92 LIG 0.24  C 
ATOM      8  N   GLY E   4      16.438  -8.366   3.180  1.00 20.63 LIG-0.35  N 
ATOM      9 H    GLY E   4      15.741  -7.902   2.986  1.00 20.63 LIG 0.16  HD
ATOM     10 O    THR E   3      18.427  -8.552   4.220  1.00 20.63 LIG-0.27  OA
BRANCH 8 11
ATOM     11  CA  GLY E   4      16.337  -9.769   2.817  1.00 21.12 LIG 0.23  C 
BRANCH 11 12
ATOM     12  C   GLY E   4      14.949 -10.380   2.747  1.00 30.37 LIG 0.28  C 
ATOM     13 O    GLY E   4      13.957  -9.656   2.725  1.00 22.56 LIG-0.27  OA
ATOM     14  N   NH2 E   5      14.872 -11.708   2.698  1.00 46.70 LIG-0.11  N 
ENDBRANCH 11 12
ENDBRANCH 8 11
ENDBRANCH 6 7
BRANCH 6 15
ATOM     15  CB  THR E   3      16.902  -5.934   5.231  1.00 21.65 LIG 0.15  C 
ATOM     16  CG2 THR E   3      17.604  -6.564   6.405  1.00 26.78 LIG 0.04  C 
BRANCH 15 17
ATOM     17 OG1  THR E   3      16.956  -4.509   5.362  1.00 29.20 LIG-0.39  OA
ATOM     18 HG1  THR E   3      17.722  -4.237   5.151  1.00 29.20 LIG 0.21  HD
ENDBRANCH 15 17
ENDBRANCH 6 15
ENDBRANCH 3 6
ENDBRANCH 1 2
BRANCH 1 19
ATOM     19  CB  HIS E   2      15.145  -5.572   0.492  1.00 16.39 LIG 0.10  C 
BRANCH 19 20
ATOM     20  CG  HIS E   2      14.144  -4.588  -0.030  1.00 27.51 LIG 0.06  A 
ATOM     21  CD2 HIS E   2      12.830  -4.420   0.251  1.00 25.75 LIG 0.14  A 
ATOM     22 NE2  HIS E   2      12.385  -3.366  -0.509  1.00 29.28 LIG-0.25  NA
ATOM     23  CE1 HIS E   2      13.389  -2.903  -1.232  1.00 28.87 LIG 0.23  A 
ATOM     24 ND1  HIS E   2      14.464  -3.621  -0.959  1.00 29.28 LIG-0.24  NA
ENDBRANCH 19 20
ENDBRANCH 1 19
BRANCH 1 25
ATOM     25  N   HIS E   2      17.168  -5.248  -0.862  1.00 15.79 LIG-0.35  N 
ATOM     26 H    HIS E   2      17.306  -6.070  -1.075  1.00 15.79 LIG 0.16  HD
ATOM     27  C   PHE E   1      17.456  -4.221  -1.652  1.00 15.11 LIG 0.24  C 
ATOM     28 O    PHE E   1      17.264  -3.054  -1.329  1.00 17.78 LIG-0.27  OA
BRANCH 27 29
ATOM     29  CA  PHE E   1      18.057  -4.561  -3.012  1.00 10.43 LIG 0.18  C 
BRANCH 29 30
ATOM     30  N   PHE E   1      19.220  -5.419  -2.863  1.00 15.82 LIG-0.35  N 
ATOM     31 H    PHE E   1      19.120  -6.031  -2.267  1.00 15.82 LIG 0.16  HD
ATOM     32  C   ACE E   0      20.339  -5.280  -3.576  1.00 20.55 LIG 0.21  C 
ATOM     33 O    ACE E   0      21.292  -6.052  -3.424  1.00 32.51 LIG-0.27  OA
ATOM     34  CH3 ACE E   0      20.372  -4.176  -4.593  1.00 11.71 LIG 0.12  C 
ENDBRANCH 29 30
BRANCH 29 35
ATOM     35  CB  PHE E   1      17.002  -5.228  -3.896  1.00  9.28 LIG 0.07  C 
BRANCH 35 36
ATOM     36  CG  PHE E   1      17.331  -6.644  -4.277  1.00 12.52 LIG-0.06  A 
ATOM     37  CD1 PHE E   1      16.867  -7.704  -3.513  1.00 10.90 LIG 0.01  A 
ATOM     38  CE1 PHE E   1      17.150  -9.008  -3.861  1.00 11.94 LIG 0.00  A 
ATOM     39  CZ  PHE E   1      17.914  -9.266  -4.983  1.00  8.92 LIG 0.00  A 
ATOM     40  CE2 PHE E   1      18.379  -8.205  -5.761  1.00  8.81 LIG 0.00  A 
ATOM     41  CD2 PHE E   1      18.088  -6.914  -5.407  1.00 12.38 LIG 0.01  A 
ENDBRANCH 35 36
ENDBRANCH 29 35
ENDBRANCH 27 29
ENDBRANCH 1 25
TORSDOF 14
ENDMDL
MODEL 79
USER: ADFR SOLUTION from run 125
USER: SCORE 12.837255 LL:  -3.563 LR:  -9.849 RR:   0.000 FEB:  -5.673
USER: RMSD 7.613969
USER: SEED 124
USER: STATUS no improvement in best in 25 clusters for 5 generations
USER: GENES 16
USER: genes 0 Translation |==|  0.54972 0.52004 0.39536
USER: genes 1 Rotation |==|  0.78067 0.28565 0.36029 0.82520
USER: genes 2 Torsion [N]-CA--C-[N] |==|  0.93768
USER: genes 3 Torsion [C]-N--CA-[C] |==|  0.80667
USER: genes 4 Torsion [N]-CA--C-[N] |==|  0.92891
USER: genes 5 Torsion [C]-N--CA-[C] |==|  0.76167
USER: genes 6 Torsion [N]-CA--C-[N] |==|  0.01640
USER: genes 7 Torsion [N]-CA--CB-[CG2] |==|  0.39689
USER: genes 8 Torsion [CA]-CB--OG1-[HG1] |==|  0.33178
USER: genes 9 Torsion [C]-CA--CB-[CG] |==|  0.61534
USER: genes 10 Torsion [CA]-CB--CG-[CD2] |==|  0.81910
USER: genes 11 Torsion [C]-CA--N-[C] |==|  0.78170
USER: genes 12 Torsion [N]-C--CA-[N] |==|  0.11395
USER: genes 13 Torsion [C]-CA--N-[C] |==|  0.60080
USER: genes 14 Torsion [C]-CA--CB-[CG] |==|  0.23380
USER: genes 15 Torsion [CA]-CB--CG-[CD2] |==|  0.69113
ROOT
ATOM      1  CA  HIS E   2      16.012  -8.255   0.761  1.00 15.97 LIG 0.18  C 
ENDROOT
BRANCH 1 2
ATOM      2  C   HIS E   2      15.498  -7.228  -0.232  1.00 15.29 LIG 0.24  C 
ATOM      3  N   THR E   3      14.874  -6.174   0.287  1.00 22.30 LIG-0.34  N 
ATOM      4 H    THR E   3      14.741  -6.065   1.129  1.00 22.30 LIG 0.16  HD
ATOM      5 O    HIS E   2      15.673  -7.376  -1.439  1.00 12.62 LIG-0.27  OA
BRANCH 3 6
ATOM      6  CA  THR E   3      14.355  -5.096  -0.545  1.00 13.35 LIG 0.20  C 
BRANCH 6 7
ATOM      7  C   THR E   3      15.482  -4.284  -1.162  1.00 17.92 LIG 0.24  C 
ATOM      8  N   GLY E   4      16.641  -4.283  -0.505  1.00 20.63 LIG-0.35  N 
ATOM      9 H    GLY E   4      16.744  -4.622   0.279  1.00 20.63 LIG 0.16  HD
ATOM     10 O    THR E   3      15.290  -3.626  -2.183  1.00 20.63 LIG-0.27  OA
BRANCH 8 11
ATOM     11  CA  GLY E   4      17.851  -3.702  -1.063  1.00 21.12 LIG 0.23  C 
BRANCH 11 12
ATOM     12  C   GLY E   4      18.701  -4.577  -1.966  1.00 30.37 LIG 0.28  C 
ATOM     13 O    GLY E   4      19.792  -4.176  -2.363  1.00 22.56 LIG-0.27  OA
ATOM     14  N   NH2 E   5      18.216  -5.776  -2.280  1.00 46.70 LIG-0.11  N 
ENDBRANCH 11 12
ENDBRANCH 8 11
ENDBRANCH 6 7
BRANCH 6 15
ATOM     15  CB  THR E   3      13.445  -4.167   0.279  1.00 21.65 LIG 0.15  C 
ATOM     16  CG2 THR E   3      13.619  -2.730  -0.139  1.00 26.78 LIG 0.04  C 
BRANCH 15 17
ATOM     17 OG1  THR E   3      12.080  -4.551   0.079  1.00 29.20 LIG-0.39  OA
ATOM     18 HG1  THR E   3      11.742  -4.774   0.815  1.00 29.20 LIG 0.21  HD
ENDBRANCH 15 17
ENDBRANCH 6 15
ENDBRANCH 3 6
ENDBRANCH 1 2
BRANCH 1 19
ATOM     19  CB  HIS E   2      15.039  -9.430   0.824  1.00 16.39 LIG 0.10  C 
BRANCH 19 20
ATOM     20  CG  HIS E   2      14.794  -9.939   2.211  1.00 27.51 LIG 0.06  A 
ATOM     21  CD2 HIS E   2      15.623 -10.535   3.100  1.00 25.75 LIG 0.14  A 
ATOM     22 NE2  HIS E   2      14.884 -10.799   4.228  1.00 29.28 LIG-0.25  NA
ATOM     23  CE1 HIS E   2      13.646 -10.380   4.039  1.00 28.87 LIG 0.23  A 
ATOM     24 ND1  HIS E   2      13.565  -9.854   2.829  1.00 29.28 LIG-0.24  NA
ENDBRANCH 19 20
ENDBRANCH 1 19
BRANCH 1 25
ATOM     25  N   HIS E   2      16.199  -7.675   2.092  1.00 15.79 LIG-0.35  N 
ATOM     26 H    HIS E   2      15.570  -7.857   2.649  1.00 15.79 LIG 0.16  HD
ATOM     27  C   PHE E   1      17.259  -6.932   2.389  1.00 15.11 LIG 0.24  C 
ATOM     28 O    PHE E   1      18.143  -6.673   1.580  1.00 17.78 LIG-0.27  OA
BRANCH 27 29
ATOM     29  CA  PHE E   1      17.331  -6.395   3.815  1.00 10.43 LIG 0.18  C 
BRANCH 29 30
ATOM     30  N   PHE E   1      16.908  -7.406   4.770  1.00 15.82 LIG-0.35  N 
ATOM     31 H    PHE E   1      17.146  -8.204   4.552  1.00 15.82 LIG 0.16  HD
ATOM     32  C   ACE E   0      16.217  -7.136   5.878  1.00 20.55 LIG 0.21  C 
ATOM     33 O    ACE E   0      15.901  -8.032   6.667  1.00 32.51 LIG-0.27  OA
ATOM     34  CH3 ACE E   0      15.879  -5.696   6.141  1.00 11.71 LIG 0.12  C 
ENDBRANCH 29 30
BRANCH 29 35
ATOM     35  CB  PHE E   1      18.752  -5.922   4.123  1.00  9.28 LIG 0.07  C 
BRANCH 35 36
ATOM     36  CG  PHE E   1      19.043  -4.521   3.664  1.00 12.52 LIG-0.06  A 
ATOM     37  CD1 PHE E   1      18.445  -3.437   4.289  1.00 10.90 LIG 0.01  A 
ATOM     38  CE1 PHE E   1      18.716  -2.146   3.886  1.00 11.94 LIG 0.00  A 
ATOM     39  CZ  PHE E   1      19.588  -1.926   2.838  1.00  8.92 LIG 0.00  A 
ATOM     40  CE2 PHE E   1      20.199  -3.011   2.207  1.00  8.81 LIG 0.00  A 
ATOM     41  CD2 PHE E   1      19.925  -4.289   2.619  1.00 12.38 LIG 0.01  A 
ENDBRANCH 35 36
ENDBRANCH 29 35
ENDBRANCH 27 29
ENDBRANCH 1 25
TORSDOF 14
ENDMDL
MODEL 80
USER: ADFR SOLUTION from run 189
USER: SCORE 12.505492 LL:  -3.749 LR:  -9.842 RR:   0.000 FEB:  -5.665
USER: RMSD 5.593902
USER: SEED 188
USER: STATUS no improvement in best in 34 clusters for 5 generations
USER: GENES 16
USER: genes 0 Translation |==|  0.66584 0.61636 0.48443
USER: genes 1 Rotation |==|  0.38122 0.30006 0.65296 0.91536
USER: genes 2 Torsion [N]-CA--C-[N] |==|  0.71667
USER: genes 3 Torsion [C]-N--CA-[C] |==|  0.81450
USER: genes 4 Torsion [N]-CA--C-[N] |==|  0.92006
USER: genes 5 Torsion [C]-N--CA-[C] |==|  0.76760
USER: genes 6 Torsion [N]-CA--C-[N] |==|  0.47030
USER: genes 7 Torsion [N]-CA--CB-[CG2] |==|  0.54459
USER: genes 8 Torsion [CA]-CB--OG1-[HG1] |==|  0.16037
USER: genes 9 Torsion [C]-CA--CB-[CG] |==|  0.46017
USER: genes 10 Torsion [CA]-CB--CG-[CD2] |==|  0.04837
USER: genes 11 Torsion [C]-CA--N-[C] |==|  0.14495
USER: genes 12 Torsion [N]-C--CA-[N] |==|  0.38711
USER: genes 13 Torsion [C]-CA--N-[C] |==|  0.66477
USER: genes 14 Torsion [C]-CA--CB-[CG] |==|  0.75536
USER: genes 15 Torsion [CA]-CB--CG-[CD2] |==|  0.64570
ROOT
ATOM      1  CA  HIS E   2      18.190  -6.232   2.231  1.00 15.97 LIG 0.18  C 
ENDROOT
BRANCH 1 2
ATOM      2  C   HIS E   2      17.786  -7.665   1.932  1.00 15.29 LIG 0.24  C 
ATOM      3  N   THR E   3      16.575  -8.031   2.344  1.00 22.30 LIG-0.34  N 
ATOM      4 H    THR E   3      16.040  -7.512   2.773  1.00 22.30 LIG 0.16  HD
ATOM      5 O    HIS E   2      18.544  -8.421   1.328  1.00 12.62 LIG-0.27  OA
BRANCH 3 6
ATOM      6  CA  THR E   3      16.045  -9.366   2.099  1.00 13.35 LIG 0.20  C 
BRANCH 6 7
ATOM      7  C   THR E   3      15.809  -9.602   0.617  1.00 17.92 LIG 0.24  C 
ATOM      8  N   GLY E   4      15.527  -8.528  -0.118  1.00 20.63 LIG-0.35  N 
ATOM      9 H    GLY E   4      15.373  -7.750   0.216  1.00 20.63 LIG 0.16  HD
ATOM     10 O    THR E   3      15.827 -10.742   0.157  1.00 20.63 LIG-0.27  OA
BRANCH 8 11
ATOM     11  CA  GLY E   4      15.454  -8.574  -1.569  1.00 21.12 LIG 0.23  C 
BRANCH 11 12
ATOM     12  C   GLY E   4      16.753  -8.450  -2.344  1.00 30.37 LIG 0.28  C 
ATOM     13 O    GLY E   4      17.789  -8.135  -1.764  1.00 22.56 LIG-0.27  OA
ATOM     14  N   NH2 E   5      16.708  -8.711  -3.648  1.00 46.70 LIG-0.11  N 
ENDBRANCH 11 12
ENDBRANCH 8 11
ENDBRANCH 6 7
BRANCH 6 15
ATOM     15  CB  THR E   3      14.728  -9.574   2.868  1.00 21.65 LIG 0.15  C 
ATOM     16  CG2 THR E   3      14.373 -11.035   2.947  1.00 26.78 LIG 0.04  C 
BRANCH 15 17
ATOM     17 OG1  THR E   3      14.872  -9.054   4.194  1.00 29.20 LIG-0.39  OA
ATOM     18 HG1  THR E   3      15.080  -8.241   4.155  1.00 29.20 LIG 0.21  HD
ENDBRANCH 15 17
ENDBRANCH 6 15
ENDBRANCH 3 6
ENDBRANCH 1 2
BRANCH 1 19
ATOM     19  CB  HIS E   2      17.329  -5.692   3.370  1.00 16.39 LIG 0.10  C 
BRANCH 19 20
ATOM     20  CG  HIS E   2      17.853  -4.427   3.976  1.00 27.51 LIG 0.06  A 
ATOM     21  CD2 HIS E   2      18.752  -3.525   3.515  1.00 25.75 LIG 0.14  A 
ATOM     22 NE2  HIS E   2      18.869  -2.545   4.472  1.00 29.28 LIG-0.25  NA
ATOM     23  CE1 HIS E   2      18.070  -2.835   5.483  1.00 28.87 LIG 0.23  A 
ATOM     24 ND1  HIS E   2      17.443  -3.964   5.208  1.00 29.28 LIG-0.24  NA
ENDBRANCH 19 20
ENDBRANCH 1 19
BRANCH 1 25
ATOM     25  N   HIS E   2      18.069  -5.379   1.049  1.00 15.79 LIG-0.35  N 
ATOM     26 H    HIS E   2      18.777  -4.928   0.864  1.00 15.79 LIG 0.16  HD
ATOM     27  C   PHE E   1      16.949  -5.321   0.337  1.00 15.11 LIG 0.24  C 
ATOM     28 O    PHE E   1      15.944  -5.963   0.619  1.00 17.78 LIG-0.27  OA
BRANCH 27 29
ATOM     29  CA  PHE E   1      16.964  -4.395  -0.875  1.00 10.43 LIG 0.18  C 
BRANCH 29 30
ATOM     30  N   PHE E   1      16.282  -5.008  -2.002  1.00 15.82 LIG-0.35  N 
ATOM     31 H    PHE E   1      15.459  -5.203  -1.840  1.00 15.82 LIG 0.16  HD
ATOM     32  C   ACE E   0      16.864  -5.250  -3.177  1.00 20.55 LIG 0.21  C 
ATOM     33 O    ACE E   0      16.230  -5.754  -4.111  1.00 32.51 LIG-0.27  OA
ATOM     34  CH3 ACE E   0      18.302  -4.847  -3.327  1.00 11.71 LIG 0.12  C 
ENDBRANCH 29 30
BRANCH 29 35
ATOM     35  CB  PHE E   1      16.318  -3.056  -0.515  1.00  9.28 LIG 0.07  C 
BRANCH 35 36
ATOM     36  CG  PHE E   1      14.829  -3.022  -0.714  1.00 12.52 LIG-0.06  A 
ATOM     37  CD1 PHE E   1      14.019  -3.988  -0.136  1.00 10.90 LIG 0.01  A 
ATOM     38  CE1 PHE E   1      12.650  -3.958  -0.300  1.00 11.94 LIG 0.00  A 
ATOM     39  CZ  PHE E   1      12.074  -2.958  -1.059  1.00  8.92 LIG 0.00  A 
ATOM     40  CE2 PHE E   1      12.881  -1.979  -1.640  1.00  8.81 LIG 0.00  A 
ATOM     41  CD2 PHE E   1      14.240  -2.017  -1.467  1.00 12.38 LIG 0.01  A 
ENDBRANCH 35 36
ENDBRANCH 29 35
ENDBRANCH 27 29
ENDBRANCH 1 25
TORSDOF 14
ENDMDL
MODEL 81
USER: ADFR SOLUTION from run 90
USER: SCORE 12.096520 LL:  -3.025 LR:  -9.834 RR:   0.000 FEB:  -5.658
USER: RMSD 8.263923
USER: SEED 89
USER: STATUS no improvement in best in 30 clusters for 5 generations
USER: GENES 16
USER: genes 0 Translation |==|  0.29421 0.24708 0.51900
USER: genes 1 Rotation |==|  0.56692 0.68254 0.05172 0.60607
USER: genes 2 Torsion [N]-CA--C-[N] |==|  0.35556
USER: genes 3 Torsion [C]-N--CA-[C] |==|  0.63289
USER: genes 4 Torsion [N]-CA--C-[N] |==|  0.32881
USER: genes 5 Torsion [C]-N--CA-[C] |==|  0.70350
USER: genes 6 Torsion [N]-CA--C-[N] |==|  0.95244
USER: genes 7 Torsion [N]-CA--CB-[CG2] |==|  0.64600
USER: genes 8 Torsion [CA]-CB--OG1-[HG1] |==|  0.17624
USER: genes 9 Torsion [C]-CA--CB-[CG] |==|  0.07794
USER: genes 10 Torsion [CA]-CB--CG-[CD2] |==|  0.62929
USER: genes 11 Torsion [C]-CA--N-[C] |==|  0.85139
USER: genes 12 Torsion [N]-C--CA-[N] |==|  0.09130
USER: genes 13 Torsion [C]-CA--N-[C] |==|  0.66979
USER: genes 14 Torsion [C]-CA--CB-[CG] |==|  0.80514
USER: genes 15 Torsion [CA]-CB--CG-[CD2] |==|  0.74152
ROOT
ATOM      1  CA  HIS E   2      11.221 -13.987   2.802  1.00 15.97 LIG 0.18  C 
ENDROOT
BRANCH 1 2
ATOM      2  C   HIS E   2      12.084 -13.124   3.704  1.00 15.29 LIG 0.24  C 
ATOM      3  N   THR E   3      11.626 -11.901   3.958  1.00 22.30 LIG-0.34  N 
ATOM      4 H    THR E   3      10.896 -11.587   3.628  1.00 22.30 LIG 0.16  HD
ATOM      5 O    HIS E   2      13.134 -13.556   4.175  1.00 12.62 LIG-0.27  OA
BRANCH 3 6
ATOM      6  CA  THR E   3      12.334 -10.975   4.831  1.00 13.35 LIG 0.20  C 
BRANCH 6 7
ATOM      7  C   THR E   3      11.394 -10.342   5.843  1.00 17.92 LIG 0.24  C 
ATOM      8  N   GLY E   4      11.656 -10.583   7.127  1.00 20.63 LIG-0.35  N 
ATOM      9 H    GLY E   4      12.248 -11.147   7.394  1.00 20.63 LIG 0.16  HD
ATOM     10 O    THR E   3      10.419  -9.694   5.469  1.00 20.63 LIG-0.27  OA
BRANCH 8 11
ATOM     11  CA  GLY E   4      10.956  -9.904   8.205  1.00 21.12 LIG 0.23  C 
BRANCH 11 12
ATOM     12  C   GLY E   4      11.716  -8.843   8.981  1.00 30.37 LIG 0.28  C 
ATOM     13 O    GLY E   4      11.109  -8.039   9.682  1.00 22.56 LIG-0.27  OA
ATOM     14  N   NH2 E   5      13.043  -8.845   8.869  1.00 46.70 LIG-0.11  N 
ENDBRANCH 11 12
ENDBRANCH 8 11
ENDBRANCH 6 7
BRANCH 6 15
ATOM     15  CB  THR E   3      13.018  -9.869   4.006  1.00 21.65 LIG 0.15  C 
ATOM     16  CG2 THR E   3      14.479  -9.759   4.356  1.00 26.78 LIG 0.04  C 
BRANCH 15 17
ATOM     17 OG1  THR E   3      12.892 -10.177   2.614  1.00 29.20 LIG-0.39  OA
ATOM     18 HG1  THR E   3      12.080 -10.173   2.399  1.00 29.20 LIG 0.21  HD
ENDBRANCH 15 17
ENDBRANCH 6 15
ENDBRANCH 3 6
ENDBRANCH 1 2
BRANCH 1 19
ATOM     19  CB  HIS E   2      10.588 -15.105   3.626  1.00 16.39 LIG 0.10  C 
BRANCH 19 20
ATOM     20  CG  HIS E   2      10.383 -14.752   5.066  1.00 27.51 LIG 0.06  A 
ATOM     21  CD2 HIS E   2      10.658 -15.439   6.200  1.00 25.75 LIG 0.14  A 
ATOM     22 NE2  HIS E   2      10.269 -14.651   7.256  1.00 29.28 LIG-0.25  NA
ATOM     23  CE1 HIS E   2       9.773 -13.520   6.788  1.00 28.87 LIG 0.23  A 
ATOM     24 ND1  HIS E   2       9.832 -13.554   5.469  1.00 29.28 LIG-0.24  NA
ENDBRANCH 19 20
ENDBRANCH 1 19
BRANCH 1 25
ATOM     25  N   HIS E   2      11.992 -14.545   1.689  1.00 15.79 LIG-0.35  N 
ATOM     26 H    HIS E   2      11.936 -15.399   1.612  1.00 15.79 LIG 0.16  HD
ATOM     27  C   PHE E   1      12.711 -13.776   0.880  1.00 15.11 LIG 0.24  C 
ATOM     28 O    PHE E   1      12.790 -12.559   1.009  1.00 17.78 LIG-0.27  OA
BRANCH 27 29
ATOM     29  CA  PHE E   1      13.460 -14.487  -0.242  1.00 10.43 LIG 0.18  C 
BRANCH 29 30
ATOM     30  N   PHE E   1      12.717 -15.648  -0.704  1.00 15.82 LIG-0.35  N 
ATOM     31 H    PHE E   1      11.943 -15.453  -1.025  1.00 15.82 LIG 0.16  HD
ATOM     32  C   ACE E   0      13.181 -16.897  -0.640  1.00 20.55 LIG 0.21  C 
ATOM     33 O    ACE E   0      12.515 -17.846  -1.068  1.00 32.51 LIG-0.27  OA
ATOM     34  CH3 ACE E   0      14.555 -17.091  -0.068  1.00 11.71 LIG 0.12  C 
ENDBRANCH 29 30
BRANCH 29 35
ATOM     35  CB  PHE E   1      13.717 -13.516  -1.395  1.00  9.28 LIG 0.07  C 
BRANCH 35 36
ATOM     36  CG  PHE E   1      12.480 -13.128  -2.155  1.00 12.52 LIG-0.06  A 
ATOM     37  CD1 PHE E   1      11.709 -12.051  -1.742  1.00 10.90 LIG 0.01  A 
ATOM     38  CE1 PHE E   1      10.580 -11.676  -2.439  1.00 11.94 LIG 0.00  A 
ATOM     39  CZ  PHE E   1      10.202 -12.387  -3.562  1.00  8.92 LIG 0.00  A 
ATOM     40  CE2 PHE E   1      10.975 -13.468  -3.988  1.00  8.81 LIG 0.00  A 
ATOM     41  CD2 PHE E   1      12.097 -13.829  -3.289  1.00 12.38 LIG 0.01  A 
ENDBRANCH 35 36
ENDBRANCH 29 35
ENDBRANCH 27 29
ENDBRANCH 1 25
TORSDOF 14
ENDMDL
MODEL 82
USER: ADFR SOLUTION from run 153
USER: SCORE 12.770657 LL:  -3.370 LR:  -9.812 RR:   0.000 FEB:  -5.636
USER: RMSD 6.871285
USER: SEED 152
USER: STATUS no improvement in best in 23 clusters for 5 generations
USER: GENES 16
USER: genes 0 Translation |==|  0.54995 0.56911 0.40017
USER: genes 1 Rotation |==|  0.49924 0.91527 0.22824 0.56078
USER: genes 2 Torsion [N]-CA--C-[N] |==|  0.35724
USER: genes 3 Torsion [C]-N--CA-[C] |==|  0.17739
USER: genes 4 Torsion [N]-CA--C-[N] |==|  0.10639
USER: genes 5 Torsion [C]-N--CA-[C] |==|  0.28245
USER: genes 6 Torsion [N]-CA--C-[N] |==|  0.96151
USER: genes 7 Torsion [N]-CA--CB-[CG2] |==|  0.56444
USER: genes 8 Torsion [CA]-CB--OG1-[HG1] |==|  0.10111
USER: genes 9 Torsion [C]-CA--CB-[CG] |==|  0.23663
USER: genes 10 Torsion [CA]-CB--CG-[CD2] |==|  0.46353
USER: genes 11 Torsion [C]-CA--N-[C] |==|  0.87183
USER: genes 12 Torsion [N]-C--CA-[N] |==|  0.02226
USER: genes 13 Torsion [C]-CA--N-[C] |==|  0.69084
USER: genes 14 Torsion [C]-CA--CB-[CG] |==|  0.79482
USER: genes 15 Torsion [CA]-CB--CG-[CD2] |==|  0.14145
ROOT
ATOM      1  CA  HIS E   2      16.017  -7.225   0.841  1.00 15.97 LIG 0.18  C 
ENDROOT
BRANCH 1 2
ATOM      2  C   HIS E   2      17.231  -7.269   1.751  1.00 15.29 LIG 0.24  C 
ATOM      3  N   THR E   3      16.990  -7.159   3.055  1.00 22.30 LIG-0.34  N 
ATOM      4 H    THR E   3      16.205  -7.050   3.387  1.00 22.30 LIG 0.16  HD
ATOM      5 O    HIS E   2      18.360  -7.415   1.289  1.00 12.62 LIG-0.27  OA
BRANCH 3 6
ATOM      6  CA  THR E   3      18.056  -7.215   4.046  1.00 13.35 LIG 0.20  C 
BRANCH 6 7
ATOM      7  C   THR E   3      19.021  -6.052   3.885  1.00 17.92 LIG 0.24  C 
ATOM      8  N   GLY E   4      18.484  -4.875   3.565  1.00 20.63 LIG-0.35  N 
ATOM      9 H    GLY E   4      17.658  -4.773   3.347  1.00 20.63 LIG 0.16  HD
ATOM     10 O    THR E   3      20.233  -6.227   3.995  1.00 20.63 LIG-0.27  OA
BRANCH 8 11
ATOM     11  CA  GLY E   4      19.256  -3.644   3.553  1.00 21.12 LIG 0.23  C 
BRANCH 11 12
ATOM     12  C   GLY E   4      19.716  -3.113   2.208  1.00 30.37 LIG 0.28  C 
ATOM     13 O    GLY E   4      20.154  -1.970   2.113  1.00 22.56 LIG-0.27  OA
ATOM     14  N   NH2 E   5      19.632  -3.941   1.168  1.00 46.70 LIG-0.11  N 
ENDBRANCH 11 12
ENDBRANCH 8 11
ENDBRANCH 6 7
BRANCH 6 15
ATOM     15  CB  THR E   3      18.830  -8.541   3.934  1.00 21.65 LIG 0.15  C 
ATOM     16  CG2 THR E   3      19.520  -8.876   5.230  1.00 26.78 LIG 0.04  C 
BRANCH 15 17
ATOM     17 OG1  THR E   3      17.914  -9.592   3.606  1.00 29.20 LIG-0.39  OA
ATOM     18 HG1  THR E   3      17.326  -9.297   3.083  1.00 29.20 LIG 0.21  HD
ENDBRANCH 15 17
ENDBRANCH 6 15
ENDBRANCH 3 6
ENDBRANCH 1 2
BRANCH 1 19
ATOM     19  CB  HIS E   2      15.769  -8.614   0.260  1.00 16.39 LIG 0.10  C 
BRANCH 19 20
ATOM     20  CG  HIS E   2      14.955  -9.504   1.148  1.00 27.51 LIG 0.06  A 
ATOM     21  CD2 HIS E   2      14.340 -10.685   0.902  1.00 25.75 LIG 0.14  A 
ATOM     22 NE2  HIS E   2      13.732 -11.075   2.072  1.00 29.28 LIG-0.25  NA
ATOM     23  CE1 HIS E   2      13.966 -10.168   3.002  1.00 28.87 LIG 0.23  A 
ATOM     24 ND1  HIS E   2      14.705  -9.209   2.472  1.00 29.28 LIG-0.24  NA
ENDBRANCH 19 20
ENDBRANCH 1 19
BRANCH 1 25
ATOM     25  N   HIS E   2      16.181  -6.243  -0.232  1.00 15.79 LIG-0.35  N 
ATOM     26 H    HIS E   2      15.961  -6.531  -1.012  1.00 15.79 LIG 0.16  HD
ATOM     27  C   PHE E   1      16.635  -5.017   0.003  1.00 15.11 LIG 0.24  C 
ATOM     28 O    PHE E   1      16.954  -4.625   1.119  1.00 17.78 LIG-0.27  OA
BRANCH 27 29
ATOM     29  CA  PHE E   1      16.750  -4.095  -1.206  1.00 10.43 LIG 0.18  C 
BRANCH 29 30
ATOM     30  N   PHE E   1      16.150  -4.705  -2.381  1.00 15.82 LIG-0.35  N 
ATOM     31 H    PHE E   1      15.294  -4.774  -2.331  1.00 15.82 LIG 0.16  HD
ATOM     32  C   ACE E   0      16.849  -5.121  -3.438  1.00 20.55 LIG 0.21  C 
ATOM     33 O    ACE E   0      16.285  -5.614  -4.421  1.00 32.51 LIG-0.27  OA
ATOM     34  CH3 ACE E   0      18.338  -4.926  -3.397  1.00 11.71 LIG 0.12  C 
ENDBRANCH 29 30
BRANCH 29 35
ATOM     35  CB  PHE E   1      16.092  -2.749  -0.900  1.00  9.28 LIG 0.07  C 
BRANCH 35 36
ATOM     36  CG  PHE E   1      14.590  -2.792  -0.887  1.00 12.52 LIG-0.06  A 
ATOM     37  CD1 PHE E   1      13.854  -1.887  -1.637  1.00 10.90 LIG 0.01  A 
ATOM     38  CE1 PHE E   1      12.475  -1.926  -1.644  1.00 11.94 LIG 0.00  A 
ATOM     39  CZ  PHE E   1      11.814  -2.874  -0.887  1.00  8.92 LIG 0.00  A 
ATOM     40  CE2 PHE E   1      12.547  -3.792  -0.135  1.00  8.81 LIG 0.00  A 
ATOM     41  CD2 PHE E   1      13.917  -3.746  -0.138  1.00 12.38 LIG 0.01  A 
ENDBRANCH 35 36
ENDBRANCH 29 35
ENDBRANCH 27 29
ENDBRANCH 1 25
TORSDOF 14
ENDMDL
MODEL 83
USER: ADFR SOLUTION from run 53
USER: SCORE 12.547040 LL:  -3.206 LR:  -9.813 RR:   0.000 FEB:  -5.636
USER: RMSD 8.514455
USER: SEED 52
USER: STATUS no improvement in best in 22 clusters for 5 generations
USER: GENES 16
USER: genes 0 Translation |==|  0.70108 0.65757 0.40624
USER: genes 1 Rotation |==|  0.15072 0.74242 0.45416 0.75910
USER: genes 2 Torsion [N]-CA--C-[N] |==|  0.27888
USER: genes 3 Torsion [C]-N--CA-[C] |==|  0.84939
USER: genes 4 Torsion [N]-CA--C-[N] |==|  0.90650
USER: genes 5 Torsion [C]-N--CA-[C] |==|  0.76557
USER: genes 6 Torsion [N]-CA--C-[N] |==|  0.47375
USER: genes 7 Torsion [N]-CA--CB-[CG2] |==|  0.45726
USER: genes 8 Torsion [CA]-CB--OG1-[HG1] |==|  0.09067
USER: genes 9 Torsion [C]-CA--CB-[CG] |==|  0.60849
USER: genes 10 Torsion [CA]-CB--CG-[CD2] |==|  0.76880
USER: genes 11 Torsion [C]-CA--N-[C] |==|  0.76665
USER: genes 12 Torsion [N]-C--CA-[N] |==|  0.34938
USER: genes 13 Torsion [C]-CA--N-[C] |==|  0.73659
USER: genes 14 Torsion [C]-CA--CB-[CG] |==|  0.26644
USER: genes 15 Torsion [CA]-CB--CG-[CD2] |==|  0.93536
ROOT
ATOM      1  CA  HIS E   2      18.850  -5.367   0.941  1.00 15.97 LIG 0.18  C 
ENDROOT
BRANCH 1 2
ATOM      2  C   HIS E   2      18.516  -4.362   2.029  1.00 15.29 LIG 0.24  C 
ATOM      3  N   THR E   3      18.201  -4.870   3.218  1.00 22.30 LIG-0.34  N 
ATOM      4 H    THR E   3      18.163  -5.713   3.382  1.00 22.30 LIG 0.16  HD
ATOM      5 O    HIS E   2      18.557  -3.154   1.806  1.00 12.62 LIG-0.27  OA
BRANCH 3 6
ATOM      6  CA  THR E   3      17.887  -4.023   4.361  1.00 13.35 LIG 0.20  C 
BRANCH 6 7
ATOM      7  C   THR E   3      18.998  -3.021   4.627  1.00 17.92 LIG 0.24  C 
ATOM      8  N   GLY E   4      20.239  -3.427   4.364  1.00 20.63 LIG-0.35  N 
ATOM      9 H    GLY E   4      20.441  -4.238   4.160  1.00 20.63 LIG 0.16  HD
ATOM     10 O    THR E   3      18.742  -1.921   5.113  1.00 20.63 LIG-0.27  OA
BRANCH 8 11
ATOM     11  CA  GLY E   4      21.377  -2.524   4.400  1.00 21.12 LIG 0.23  C 
BRANCH 11 12
ATOM     12  C   GLY E   4      21.667  -1.706   3.154  1.00 30.37 LIG 0.28  C 
ATOM     13 O    GLY E   4      21.056  -1.933   2.112  1.00 22.56 LIG-0.27  OA
ATOM     14  N   NH2 E   5      22.584  -0.748   3.257  1.00 46.70 LIG-0.11  N 
ENDBRANCH 11 12
ENDBRANCH 8 11
ENDBRANCH 6 7
BRANCH 6 15
ATOM     15  CB  THR E   3      17.657  -4.879   5.620  1.00 21.65 LIG 0.15  C 
ATOM     16  CG2 THR E   3      17.703  -4.032   6.865  1.00 26.78 LIG 0.04  C 
BRANCH 15 17
ATOM     17 OG1  THR E   3      16.374  -5.509   5.530  1.00 29.20 LIG-0.39  OA
ATOM     18 HG1  THR E   3      16.201  -5.677   4.726  1.00 29.20 LIG 0.21  HD
ENDBRANCH 15 17
ENDBRANCH 6 15
ENDBRANCH 3 6
ENDBRANCH 1 2
BRANCH 1 19
ATOM     19  CB  HIS E   2      20.072  -4.883   0.164  1.00 16.39 LIG 0.10  C 
BRANCH 19 20
ATOM     20  CG  HIS E   2      19.988  -5.134  -1.310  1.00 27.51 LIG 0.06  A 
ATOM     21  CD2 HIS E   2      20.270  -6.237  -2.043  1.00 25.75 LIG 0.14  A 
ATOM     22 NE2  HIS E   2      20.017  -5.926  -3.357  1.00 29.28 LIG-0.25  NA
ATOM     23  CE1 HIS E   2      19.595  -4.677  -3.430  1.00 28.87 LIG 0.23  A 
ATOM     24 ND1  HIS E   2      19.565  -4.176  -2.207  1.00 29.28 LIG-0.24  NA
ENDBRANCH 19 20
ENDBRANCH 1 19
BRANCH 1 25
ATOM     25  N   HIS E   2      17.720  -5.580   0.037  1.00 15.79 LIG-0.35  N 
ATOM     26 H    HIS E   2      17.746  -5.107  -0.681  1.00 15.79 LIG 0.16  HD
ATOM     27  C   PHE E   1      16.746  -6.438   0.322  1.00 15.11 LIG 0.24  C 
ATOM     28 O    PHE E   1      16.718  -7.098   1.354  1.00 17.78 LIG-0.27  OA
BRANCH 27 29
ATOM     29  CA  PHE E   1      15.633  -6.566  -0.713  1.00 10.43 LIG 0.18  C 
BRANCH 29 30
ATOM     30  N   PHE E   1      15.454  -7.952  -1.110  1.00 15.82 LIG-0.35  N 
ATOM     31 H    PHE E   1      14.936  -8.395  -0.585  1.00 15.82 LIG 0.16  HD
ATOM     32  C   ACE E   0      16.032  -8.495  -2.183  1.00 20.55 LIG 0.21  C 
ATOM     33 O    ACE E   0      15.828  -9.675  -2.487  1.00 32.51 LIG-0.27  OA
ATOM     34  CH3 ACE E   0      16.903  -7.603  -3.019  1.00 11.71 LIG 0.12  C 
ENDBRANCH 29 30
BRANCH 29 35
ATOM     35  CB  PHE E   1      14.331  -5.992  -0.151  1.00  9.28 LIG 0.07  C 
BRANCH 35 36
ATOM     36  CG  PHE E   1      14.069  -4.567  -0.548  1.00 12.52 LIG-0.06  A 
ATOM     37  CD1 PHE E   1      12.779  -4.058  -0.532  1.00 10.90 LIG 0.01  A 
ATOM     38  CE1 PHE E   1      12.528  -2.747  -0.880  1.00 11.94 LIG 0.00  A 
ATOM     39  CZ  PHE E   1      13.574  -1.929  -1.262  1.00  8.92 LIG 0.00  A 
ATOM     40  CE2 PHE E   1      14.875  -2.431  -1.275  1.00  8.81 LIG 0.00  A 
ATOM     41  CD2 PHE E   1      15.113  -3.734  -0.923  1.00 12.38 LIG 0.01  A 
ENDBRANCH 35 36
ENDBRANCH 29 35
ENDBRANCH 27 29
ENDBRANCH 1 25
TORSDOF 14
ENDMDL
MODEL 84
USER: ADFR SOLUTION from run 83
USER: SCORE 11.121648 LL:  -2.737 LR:  -9.805 RR:   0.000 FEB:  -5.629
USER: RMSD 5.010869
USER: SEED 82
USER: STATUS no improvement in best in 29 clusters for 5 generations
USER: GENES 16
USER: genes 0 Translation |==|  0.52393 0.57966 0.39257
USER: genes 1 Rotation |==|  0.17652 0.13147 0.55988 0.57722
USER: genes 2 Torsion [N]-CA--C-[N] |==|  0.26286
USER: genes 3 Torsion [C]-N--CA-[C] |==|  0.60000
USER: genes 4 Torsion [N]-CA--C-[N] |==|  0.34484
USER: genes 5 Torsion [C]-N--CA-[C] |==|  0.37745
USER: genes 6 Torsion [N]-CA--C-[N] |==|  0.36700
USER: genes 7 Torsion [N]-CA--CB-[CG2] |==|  0.64421
USER: genes 8 Torsion [CA]-CB--OG1-[HG1] |==|  0.17700
USER: genes 9 Torsion [C]-CA--CB-[CG] |==|  0.38174
USER: genes 10 Torsion [CA]-CB--CG-[CD2] |==|  0.77026
USER: genes 11 Torsion [C]-CA--N-[C] |==|  0.55392
USER: genes 12 Torsion [N]-C--CA-[N] |==|  0.34948
USER: genes 13 Torsion [C]-CA--N-[C] |==|  0.78550
USER: genes 14 Torsion [C]-CA--CB-[CG] |==|  0.87812
USER: genes 15 Torsion [CA]-CB--CG-[CD2] |==|  0.78851
ROOT
ATOM      1  CA  HIS E   2      15.529  -7.003   0.715  1.00 15.97 LIG 0.18  C 
ENDROOT
BRANCH 1 2
ATOM      2  C   HIS E   2      15.081  -8.439   0.928  1.00 15.29 LIG 0.24  C 
ATOM      3  N   THR E   3      14.902  -8.816   2.191  1.00 22.30 LIG-0.34  N 
ATOM      4 H    THR E   3      15.042  -8.302   2.866  1.00 22.30 LIG 0.16  HD
ATOM      5 O    HIS E   2      14.886  -9.186  -0.028  1.00 12.62 LIG-0.27  OA
BRANCH 3 6
ATOM      6  CA  THR E   3      14.445 -10.154   2.541  1.00 13.35 LIG 0.20  C 
BRANCH 6 7
ATOM      7  C   THR E   3      13.526 -10.124   3.751  1.00 17.92 LIG 0.24  C 
ATOM      8  N   GLY E   4      12.320 -10.668   3.593  1.00 20.63 LIG-0.35  N 
ATOM      9 H    GLY E   4      12.012 -10.929   2.833  1.00 20.63 LIG 0.16  HD
ATOM     10 O    THR E   3      13.880  -9.571   4.790  1.00 20.63 LIG-0.27  OA
BRANCH 8 11
ATOM     11  CA  GLY E   4      11.406 -10.872   4.704  1.00 21.12 LIG 0.23  C 
BRANCH 11 12
ATOM     12  C   GLY E   4       9.949 -10.501   4.494  1.00 30.37 LIG 0.28  C 
ATOM     13 O    GLY E   4       9.654  -9.422   3.988  1.00 22.56 LIG-0.27  OA
ATOM     14  N   NH2 E   5       9.036 -11.395   4.868  1.00 46.70 LIG-0.11  N 
ENDBRANCH 11 12
ENDBRANCH 8 11
ENDBRANCH 6 7
BRANCH 6 15
ATOM     15  CB  THR E   3      15.643 -11.076   2.831  1.00 21.65 LIG 0.15  C 
ATOM     16  CG2 THR E   3      15.555 -12.346   2.027  1.00 26.78 LIG 0.04  C 
BRANCH 15 17
ATOM     17 OG1  THR E   3      16.854 -10.391   2.492  1.00 29.20 LIG-0.39  OA
ATOM     18 HG1  THR E   3      16.944  -9.719   2.988  1.00 29.20 LIG 0.21  HD
ENDBRANCH 15 17
ENDBRANCH 6 15
ENDBRANCH 3 6
ENDBRANCH 1 2
BRANCH 1 19
ATOM     19  CB  HIS E   2      14.851  -6.441  -0.532  1.00 16.39 LIG 0.10  C 
BRANCH 19 20
ATOM     20  CG  HIS E   2      14.348  -5.041  -0.367  1.00 27.51 LIG 0.06  A 
ATOM     21  CD2 HIS E   2      13.202  -4.565   0.175  1.00 25.75 LIG 0.14  A 
ATOM     22 NE2  HIS E   2      13.244  -3.195   0.072  1.00 29.28 LIG-0.25  NA
ATOM     23  CE1 HIS E   2      14.374  -2.842  -0.512  1.00 28.87 LIG 0.23  A 
ATOM     24 ND1  HIS E   2      15.061  -3.937  -0.785  1.00 29.28 LIG-0.24  NA
ENDBRANCH 19 20
ENDBRANCH 1 19
BRANCH 1 25
ATOM     25  N   HIS E   2      16.984  -6.903   0.597  1.00 15.79 LIG-0.35  N 
ATOM     26 H    HIS E   2      17.375  -7.643   0.398  1.00 15.79 LIG 0.16  HD
ATOM     27  C   PHE E   1      17.625  -5.755   0.786  1.00 15.11 LIG 0.24  C 
ATOM     28 O    PHE E   1      17.054  -4.711   1.079  1.00 17.78 LIG-0.27  OA
BRANCH 27 29
ATOM     29  CA  PHE E   1      19.141  -5.793   0.624  1.00 10.43 LIG 0.18  C 
BRANCH 29 30
ATOM     30  N   PHE E   1      19.584  -4.793  -0.333  1.00 15.82 LIG-0.35  N 
ATOM     31 H    PHE E   1      19.926  -4.095   0.035  1.00 15.82 LIG 0.16  HD
ATOM     32  C   ACE E   0      19.474  -4.934  -1.655  1.00 20.55 LIG 0.21  C 
ATOM     33 O    ACE E   0      19.887  -4.060  -2.426  1.00 32.51 LIG-0.27  OA
ATOM     34  CH3 ACE E   0      18.867  -6.211  -2.161  1.00 11.71 LIG 0.12  C 
ENDBRANCH 29 30
BRANCH 29 35
ATOM     35  CB  PHE E   1      19.815  -5.578   1.980  1.00  9.28 LIG 0.07  C 
BRANCH 35 36
ATOM     36  CG  PHE E   1      19.203  -4.477   2.800  1.00 12.52 LIG-0.06  A 
ATOM     37  CD1 PHE E   1      18.391  -4.775   3.884  1.00 10.90 LIG 0.01  A 
ATOM     38  CE1 PHE E   1      17.836  -3.773   4.652  1.00 11.94 LIG 0.00  A 
ATOM     39  CZ  PHE E   1      18.082  -2.452   4.335  1.00  8.92 LIG 0.00  A 
ATOM     40  CE2 PHE E   1      18.903  -2.143   3.249  1.00  8.81 LIG 0.00  A 
ATOM     41  CD2 PHE E   1      19.452  -3.147   2.495  1.00 12.38 LIG 0.01  A 
ENDBRANCH 35 36
ENDBRANCH 29 35
ENDBRANCH 27 29
ENDBRANCH 1 25
TORSDOF 14
ENDMDL
MODEL 85
USER: ADFR SOLUTION from run 199
USER: SCORE 12.125037 LL:  -3.066 LR:  -9.801 RR:   0.000 FEB:  -5.625
USER: RMSD 7.439082
USER: SEED 198
USER: STATUS no improvement in best in 38 clusters for 5 generations
USER: GENES 16
USER: genes 0 Translation |==|  0.66942 0.63020 0.50182
USER: genes 1 Rotation |==|  0.23940 0.73098 0.39412 0.84282
USER: genes 2 Torsion [N]-CA--C-[N] |==|  0.33464
USER: genes 3 Torsion [C]-N--CA-[C] |==|  0.85313
USER: genes 4 Torsion [N]-CA--C-[N] |==|  0.91667
USER: genes 5 Torsion [C]-N--CA-[C] |==|  0.85467
USER: genes 6 Torsion [N]-CA--C-[N] |==|  0.43449
USER: genes 7 Torsion [N]-CA--CB-[CG2] |==|  0.52536
USER: genes 8 Torsion [CA]-CB--OG1-[HG1] |==|  0.99473
USER: genes 9 Torsion [C]-CA--CB-[CG] |==|  0.85821
USER: genes 10 Torsion [CA]-CB--CG-[CD2] |==|  0.87314
USER: genes 11 Torsion [C]-CA--N-[C] |==|  0.73451
USER: genes 12 Torsion [N]-C--CA-[N] |==|  0.32901
USER: genes 13 Torsion [C]-CA--N-[C] |==|  0.63501
USER: genes 14 Torsion [C]-CA--CB-[CG] |==|  0.35247
USER: genes 15 Torsion [CA]-CB--CG-[CD2] |==|  0.97775
ROOT
ATOM      1  CA  HIS E   2      18.257  -5.942   2.518  1.00 15.97 LIG 0.18  C 
ENDROOT
BRANCH 1 2
ATOM      2  C   HIS E   2      17.682  -5.177   3.697  1.00 15.29 LIG 0.24  C 
ATOM      3  N   THR E   3      17.181  -5.913   4.685  1.00 22.30 LIG-0.34  N 
ATOM      4 H    THR E   3      17.154  -6.772   4.673  1.00 22.30 LIG 0.16  HD
ATOM      5 O    HIS E   2      17.705  -3.948   3.723  1.00 12.62 LIG-0.27  OA
BRANCH 3 6
ATOM      6  CA  THR E   3      16.624  -5.314   5.891  1.00 13.35 LIG 0.20  C 
BRANCH 6 7
ATOM      7  C   THR E   3      17.606  -4.347   6.531  1.00 17.92 LIG 0.24  C 
ATOM      8  N   GLY E   4      18.900  -4.614   6.358  1.00 20.63 LIG-0.35  N 
ATOM      9 H    GLY E   4      19.192  -5.342   6.004  1.00 20.63 LIG 0.16  HD
ATOM     10 O    THR E   3      17.202  -3.408   7.214  1.00 20.63 LIG-0.27  OA
BRANCH 8 11
ATOM     11  CA  GLY E   4      19.946  -3.688   6.757  1.00 21.12 LIG 0.23  C 
BRANCH 11 12
ATOM     12  C   GLY E   4      19.849  -2.258   6.257  1.00 30.37 LIG 0.28  C 
ATOM     13 O    GLY E   4      19.200  -2.001   5.246  1.00 22.56 LIG-0.27  OA
ATOM     14  N   NH2 E   5      20.478  -1.323   6.965  1.00 46.70 LIG-0.11  N 
ENDBRANCH 11 12
ENDBRANCH 8 11
ENDBRANCH 6 7
BRANCH 6 15
ATOM     15  CB  THR E   3      16.241  -6.403   6.909  1.00 21.65 LIG 0.15  C 
ATOM     16  CG2 THR E   3      15.465  -5.819   8.060  1.00 26.78 LIG 0.04  C 
BRANCH 15 17
ATOM     17 OG1  THR E   3      15.437  -7.392   6.256  1.00 29.20 LIG-0.39  OA
ATOM     18 HG1  THR E   3      15.313  -7.169   5.456  1.00 29.20 LIG 0.21  HD
ENDBRANCH 15 17
ENDBRANCH 6 15
ENDBRANCH 3 6
ENDBRANCH 1 2
BRANCH 1 19
ATOM     19  CB  HIS E   2      19.751  -5.651   2.405  1.00 16.39 LIG 0.10  C 
BRANCH 19 20
ATOM     20  CG  HIS E   2      20.084  -4.190   2.409  1.00 27.51 LIG 0.06  A 
ATOM     21  CD2 HIS E   2      19.531  -3.150   1.742  1.00 25.75 LIG 0.14  A 
ATOM     22 NE2  HIS E   2      20.220  -2.020   2.113  1.00 29.28 LIG-0.25  NA
ATOM     23  CE1 HIS E   2      21.162  -2.354   2.976  1.00 28.87 LIG 0.23  A 
ATOM     24 ND1  HIS E   2      21.100  -3.659   3.174  1.00 29.28 LIG-0.24  NA
ENDBRANCH 19 20
ENDBRANCH 1 19
BRANCH 1 25
ATOM     25  N   HIS E   2      17.573  -5.602   1.269  1.00 15.79 LIG-0.35  N 
ATOM     26 H    HIS E   2      17.875  -4.897   0.881  1.00 15.79 LIG 0.16  HD
ATOM     27  C   PHE E   1      16.574  -6.337   0.795  1.00 15.11 LIG 0.24  C 
ATOM     28 O    PHE E   1      16.148  -7.335   1.366  1.00 17.78 LIG-0.27  OA
BRANCH 27 29
ATOM     29  CA  PHE E   1      15.956  -5.873  -0.520  1.00 10.43 LIG 0.18  C 
BRANCH 29 30
ATOM     30  N   PHE E   1      16.114  -6.885  -1.551  1.00 15.82 LIG-0.35  N 
ATOM     31 H    PHE E   1      15.882  -7.673  -1.295  1.00 15.82 LIG 0.16  HD
ATOM     32  C   ACE E   0      16.574  -6.628  -2.776  1.00 20.55 LIG 0.21  C 
ATOM     33 O    ACE E   0      16.668  -7.523  -3.622  1.00 32.51 LIG-0.27  OA
ATOM     34  CH3 ACE E   0      16.930  -5.203  -3.091  1.00 11.71 LIG 0.12  C 
ENDBRANCH 29 30
BRANCH 29 35
ATOM     35  CB  PHE E   1      14.479  -5.539  -0.312  1.00  9.28 LIG 0.07  C 
BRANCH 35 36
ATOM     36  CG  PHE E   1      14.090  -4.166  -0.785  1.00 12.52 LIG-0.06  A 
ATOM     37  CD1 PHE E   1      12.758  -3.778  -0.800  1.00 10.90 LIG 0.01  A 
ATOM     38  CE1 PHE E   1      12.391  -2.516  -1.218  1.00 11.94 LIG 0.00  A 
ATOM     39  CZ  PHE E   1      13.359  -1.625  -1.637  1.00  8.92 LIG 0.00  A 
ATOM     40  CE2 PHE E   1      14.702  -2.005  -1.619  1.00  8.81 LIG 0.00  A 
ATOM     41  CD2 PHE E   1      15.056  -3.261  -1.198  1.00 12.38 LIG 0.01  A 
ENDBRANCH 35 36
ENDBRANCH 29 35
ENDBRANCH 27 29
ENDBRANCH 1 25
TORSDOF 14
ENDMDL
MODEL 86
USER: ADFR SOLUTION from run 142
USER: SCORE 12.423325 LL:  -3.289 LR:  -9.790 RR:   0.000 FEB:  -5.614
USER: RMSD 6.263841
USER: SEED 141
USER: STATUS no improvement in best in 41 clusters for 5 generations
USER: GENES 16
USER: genes 0 Translation |==|  0.53332 0.55223 0.35141
USER: genes 1 Rotation |==|  0.52200 0.92592 0.26343 0.61020
USER: genes 2 Torsion [N]-CA--C-[N] |==|  0.37778
USER: genes 3 Torsion [C]-N--CA-[C] |==|  0.16307
USER: genes 4 Torsion [N]-CA--C-[N] |==|  0.12771
USER: genes 5 Torsion [C]-N--CA-[C] |==|  0.73342
USER: genes 6 Torsion [N]-CA--C-[N] |==|  0.46724
USER: genes 7 Torsion [N]-CA--CB-[CG2] |==|  0.60358
USER: genes 8 Torsion [CA]-CB--OG1-[HG1] |==|  0.55365
USER: genes 9 Torsion [C]-CA--CB-[CG] |==|  0.74814
USER: genes 10 Torsion [CA]-CB--CG-[CD2] |==|  0.24286
USER: genes 11 Torsion [C]-CA--N-[C] |==|  0.87909
USER: genes 12 Torsion [N]-C--CA-[N] |==|  0.03742
USER: genes 13 Torsion [C]-CA--N-[C] |==|  0.72757
USER: genes 14 Torsion [C]-CA--CB-[CG] |==|  0.81168
USER: genes 15 Torsion [CA]-CB--CG-[CD2] |==|  0.66323
ROOT
ATOM      1  CA  HIS E   2      15.705  -7.579   0.036  1.00 15.97 LIG 0.18  C 
ENDROOT
BRANCH 1 2
ATOM      2  C   HIS E   2      16.710  -7.725   1.165  1.00 15.29 LIG 0.24  C 
ATOM      3  N   THR E   3      16.205  -7.979   2.369  1.00 22.30 LIG-0.34  N 
ATOM      4 H    THR E   3      15.363  -8.043   2.530  1.00 22.30 LIG 0.16  HD
ATOM      5 O    HIS E   2      17.916  -7.625   0.952  1.00 12.62 LIG-0.27  OA
BRANCH 3 6
ATOM      6  CA  THR E   3      17.053  -8.172   3.538  1.00 13.35 LIG 0.20  C 
BRANCH 6 7
ATOM      7  C   THR E   3      17.924  -6.954   3.796  1.00 17.92 LIG 0.24  C 
ATOM      8  N   GLY E   4      17.320  -5.768   3.736  1.00 20.63 LIG-0.35  N 
ATOM      9 H    GLY E   4      16.511  -5.660   3.463  1.00 20.63 LIG 0.16  HD
ATOM     10 O    THR E   3      19.132  -7.081   3.990  1.00 20.63 LIG-0.27  OA
BRANCH 8 11
ATOM     11  CA  GLY E   4      17.980  -4.536   4.133  1.00 21.12 LIG 0.23  C 
BRANCH 11 12
ATOM     12  C   GLY E   4      17.740  -4.031   5.545  1.00 30.37 LIG 0.28  C 
ATOM     13 O    GLY E   4      16.860  -4.535   6.238  1.00 22.56 LIG-0.27  OA
ATOM     14  N   NH2 E   5      18.526  -3.049   5.979  1.00 46.70 LIG-0.11  N 
ENDBRANCH 11 12
ENDBRANCH 8 11
ENDBRANCH 6 7
BRANCH 6 15
ATOM     15  CB  THR E   3      17.946  -9.413   3.360  1.00 21.65 LIG 0.15  C 
ATOM     16  CG2 THR E   3      18.109 -10.154   4.661  1.00 26.78 LIG 0.04  C 
BRANCH 15 17
ATOM     17 OG1  THR E   3      17.348 -10.286   2.395  1.00 29.20 LIG-0.39  OA
ATOM     18 HG1  THR E   3      17.667 -11.058   2.481  1.00 29.20 LIG 0.21  HD
ENDBRANCH 15 17
ENDBRANCH 6 15
ENDBRANCH 3 6
ENDBRANCH 1 2
BRANCH 1 19
ATOM     19  CB  HIS E   2      15.670  -8.869  -0.779  1.00 16.39 LIG 0.10  C 
BRANCH 19 20
ATOM     20  CG  HIS E   2      16.631  -8.885  -1.927  1.00 27.51 LIG 0.06  A 
ATOM     21  CD2 HIS E   2      17.932  -9.254  -1.993  1.00 25.75 LIG 0.14  A 
ATOM     22 NE2  HIS E   2      18.339  -9.072  -3.294  1.00 29.28 LIG-0.25  NA
ATOM     23  CE1 HIS E   2      17.324  -8.608  -4.000  1.00 28.87 LIG 0.23  A 
ATOM     24 ND1  HIS E   2      16.280  -8.488  -3.200  1.00 29.28 LIG-0.24  NA
ENDBRANCH 19 20
ENDBRANCH 1 19
BRANCH 1 25
ATOM     25  N   HIS E   2      16.020  -6.438  -0.824  1.00 15.79 LIG-0.35  N 
ATOM     26 H    HIS E   2      15.947  -6.598  -1.666  1.00 15.79 LIG 0.16  HD
ATOM     27  C   PHE E   1      16.386  -5.263  -0.324  1.00 15.11 LIG 0.24  C 
ATOM     28 O    PHE E   1      16.496  -5.053   0.878  1.00 17.78 LIG-0.27  OA
BRANCH 27 29
ATOM     29  CA  PHE E   1      16.679  -4.159  -1.335  1.00 10.43 LIG 0.18  C 
BRANCH 29 30
ATOM     30  N   PHE E   1      16.194  -4.526  -2.655  1.00 15.82 LIG-0.35  N 
ATOM     31 H    PHE E   1      15.353  -4.378  -2.764  1.00 15.82 LIG 0.16  HD
ATOM     32  C   ACE E   0      16.968  -5.041  -3.612  1.00 20.55 LIG 0.21  C 
ATOM     33 O    ACE E   0      16.507  -5.315  -4.725  1.00 32.51 LIG-0.27  OA
ATOM     34  CH3 ACE E   0      18.421  -5.234  -3.289  1.00 11.71 LIG 0.12  C 
ENDBRANCH 29 30
BRANCH 29 35
ATOM     35  CB  PHE E   1      16.045  -2.847  -0.871  1.00  9.28 LIG 0.07  C 
BRANCH 35 36
ATOM     36  CG  PHE E   1      14.543  -2.853  -0.891  1.00 12.52 LIG-0.06  A 
ATOM     37  CD1 PHE E   1      13.832  -3.774  -0.136  1.00 10.90 LIG 0.01  A 
ATOM     38  CE1 PHE E   1      12.453  -3.779  -0.135  1.00 11.94 LIG 0.00  A 
ATOM     39  CZ  PHE E   1      11.765  -2.860  -0.903  1.00  8.92 LIG 0.00  A 
ATOM     40  CE2 PHE E   1      12.472  -1.926  -1.661  1.00  8.81 LIG 0.00  A 
ATOM     41  CD2 PHE E   1      13.843  -1.928  -1.651  1.00 12.38 LIG 0.01  A 
ENDBRANCH 35 36
ENDBRANCH 29 35
ENDBRANCH 27 29
ENDBRANCH 1 25
TORSDOF 14
ENDMDL
