MODEL 1
USER: ADFR SOLUTION from run 94
USER: SCORE 15.493125 LL:  -3.243 LR: -12.530 RR:   0.000 FEB:  -8.353
USER: RMSD 2.190342
USER: SEED 93
USER: STATUS no improvement in best in 2 clusters for 5 generations
USER: GENES 16
USER: genes 0 Translation |==|  0.53107 0.40386 0.48646
USER: genes 1 Rotation |==|  0.51521 0.54822 0.49192 0.99737
USER: genes 2 Torsion [N]-CA--C-[N] |==|  0.42529
USER: genes 3 Torsion [C]-N--CA-[C] |==|  0.84561
USER: genes 4 Torsion [N]-CA--C-[N] |==|  0.35556
USER: genes 5 Torsion [C]-N--CA-[C] |==|  0.81233
USER: genes 6 Torsion [N]-CA--C-[N] |==|  0.91900
USER: genes 7 Torsion [N]-CA--CB-[CG2] |==|  0.41913
USER: genes 8 Torsion [CA]-CB--OG1-[HG1] |==|  0.71095
USER: genes 9 Torsion [C]-CA--CB-[CG] |==|  0.82326
USER: genes 10 Torsion [CA]-CB--CG-[ND1] |==|  0.25062
USER: genes 11 Torsion [C]-CA--N-[C] |==|  0.74221
USER: genes 12 Torsion [N]-C--CA-[N] |==|  0.10543
USER: genes 13 Torsion [C]-CA--N-[C] |==|  0.17501
USER: genes 14 Torsion [C]-CA--CB-[CG] |==|  0.46203
USER: genes 15 Torsion [CA]-CB--CG-[CD1] |==|  0.39470
ROOT
ATOM      1  CA  HIS E   2      15.762 -10.584   2.274  1.00 14.20 LIG 0.18  C 
ENDROOT
BRANCH 1 2
ATOM      2  C   HIS E   2      14.343 -11.142   2.319  1.00 15.34 LIG 0.24  C 
ATOM      3 O    HIS E   2      13.383 -10.435   2.643  1.00 13.21 LIG-0.27  OA
ATOM      4  N   THR E   3      14.226 -12.434   2.015  1.00 14.85 LIG-0.34  N 
ATOM      5 H    THR E   3      14.874 -12.928   1.741  1.00 14.85 LIG 0.16  HD
BRANCH 4 6
ATOM      6  CA  THR E   3      12.944 -13.119   2.133  1.00 13.22 LIG 0.20  C 
BRANCH 6 7
ATOM      7  C   THR E   3      12.383 -12.971   3.542  1.00 13.63 LIG 0.24  C 
ATOM      8  N   ALA E   4      11.133 -12.522   3.633  1.00  8.98 LIG-0.35  N 
ATOM      9 H    ALA E   4      10.646 -12.314   2.955  1.00  8.98 LIG 0.16  HD
ATOM     10 O    THR E   3      13.068 -13.250   4.530  1.00 14.15 LIG-0.27  OA
BRANCH 8 11
ATOM     11  CA  ALA E   4      10.477 -12.344   4.927  1.00 15.48 LIG 0.18  C 
ATOM     12  CB  ALA E   4       9.178 -11.576   4.757  1.00 13.80 LIG 0.04  C 
BRANCH 11 13
ATOM     13  C   ALA E   4      10.216 -13.675   5.638  1.00 23.80 LIG 0.28  C 
ATOM     14 O    ALA E   4      10.178 -13.730   6.869  1.00 30.75 LIG-0.27  OA
ATOM     15  N   NH2 E 101      10.026 -14.741   4.866  1.00 22.73 LIG-0.11  N 
ENDBRANCH 11 13
ENDBRANCH 8 11
ENDBRANCH 6 7
BRANCH 6 16
ATOM     16  CB  THR E   3      13.099 -14.601   1.793  1.00 20.99 LIG 0.15  C 
ATOM     17  CG2 THR E   3      12.067 -15.433   2.555  1.00 14.08 LIG 0.04  C 
BRANCH 16 18
ATOM     18 OG1  THR E   3      12.915 -14.784   0.387  1.00 27.33 LIG-0.39  OA
ATOM     19 HG1  THR E   3      12.156 -15.114   0.244  1.00 27.33 LIG 0.21  HD
ENDBRANCH 16 18
ENDBRANCH 6 16
ENDBRANCH 4 6
ENDBRANCH 1 2
BRANCH 1 20
ATOM     20  CB  HIS E   2      16.457 -10.888   3.609  1.00 18.36 LIG 0.10  C 
BRANCH 20 21
ATOM     21  CG  HIS E   2      15.828 -10.222   4.793  1.00 23.43 LIG 0.06  A 
ATOM     22  CD2 HIS E   2      16.075  -9.025   5.378  1.00 23.79 LIG 0.14  A 
ATOM     23 NE2  HIS E   2      15.221  -8.917   6.449  1.00 23.75 LIG-0.25  NA
ATOM     24  CE1 HIS E   2      14.479 -10.007   6.520  1.00 26.05 LIG 0.23  A 
ATOM     25 ND1  HIS E   2      14.828 -10.815   5.533  1.00 21.22 LIG-0.24  NA
ENDBRANCH 20 21
ENDBRANCH 1 20
BRANCH 1 26
ATOM     26  N   HIS E   2      15.720  -9.153   1.988  1.00 15.97 LIG-0.35  N 
ATOM     27 H    HIS E   2      15.635  -8.658   2.686  1.00 15.97 LIG 0.16  HD
ATOM     28  C   TRP E   1      15.807  -8.671   0.746  1.00 12.03 LIG 0.24  C 
ATOM     29 O    TRP E   1      15.972  -9.388  -0.247  1.00 13.67 LIG-0.27  OA
BRANCH 28 30
ATOM     30  CA  TRP E   1      15.655  -7.161   0.592  1.00  9.26 LIG 0.18  C 
BRANCH 30 31
ATOM     31  N   TRP E   1      16.281  -6.394   1.671  1.00 13.05 LIG-0.35  N 
ATOM     32 H    TRP E   1      15.721  -5.933   2.133  1.00 13.05 LIG 0.16  HD
ATOM     33  C   ACE E   0      17.590  -6.403   1.919  1.00 12.60 LIG 0.21  C 
ATOM     34  CH3 ACE E   0      18.045  -5.547   3.083  1.00  6.27 LIG 0.12  C 
ATOM     35 O    ACE E   0      18.377  -7.066   1.244  1.00 15.02 LIG-0.27  OA
ENDBRANCH 30 31
BRANCH 30 36
ATOM     36  CB  TRP E   1      16.237  -6.732  -0.750  1.00 10.27 LIG 0.07  C 
BRANCH 36 37
ATOM     37  CG  TRP E   1      15.861  -5.337  -1.157  1.00  6.62 LIG-0.03  A 
ATOM     38  CD1 TRP E   1      16.649  -4.419  -1.794  1.00  7.94 LIG 0.10  A 
ATOM     39  NE1 TRP E   1      15.944  -3.247  -1.998  1.00 10.26 LIG-0.36  N 
ATOM     40  CE2 TRP E   1      14.683  -3.398  -1.482  1.00  6.86 LIG 0.04  A 
ATOM     41 HE1  TRP E   1      16.246  -2.541  -2.385  1.00 10.26 LIG 0.17  HD
ATOM     42  CZ2 TRP E   1      13.612  -2.503  -1.443  1.00  8.31 LIG 0.03  A 
ATOM     43  CD2 TRP E   1      14.598  -4.704  -0.944  1.00  9.88 LIG-0.00  A 
ATOM     44  CH2 TRP E   1      12.447  -2.940  -0.867  1.00 13.27 LIG 0.00  A 
ATOM     45  CZ3 TRP E   1      12.331  -4.227  -0.324  1.00 13.61 LIG 0.00  A 
ATOM     46  CE3 TRP E   1      13.396  -5.117  -0.359  1.00 14.26 LIG 0.01  A 
ENDBRANCH 36 37
ENDBRANCH 30 36
ENDBRANCH 28 30
ENDBRANCH 1 26
TORSDOF 14
ENDMDL
MODEL 2
USER: ADFR SOLUTION from run 112
USER: SCORE 14.197946 LL:  -3.746 LR: -12.397 RR:   0.000 FEB:  -8.221
USER: RMSD 5.261785
USER: SEED 111
USER: STATUS no improvement in best in 9 clusters for 5 generations
USER: GENES 16
USER: genes 0 Translation |==|  0.66023 0.65082 0.55008
USER: genes 1 Rotation |==|  0.23887 0.55502 0.75779 0.83515
USER: genes 2 Torsion [N]-CA--C-[N] |==|  0.87420
USER: genes 3 Torsion [C]-N--CA-[C] |==|  0.73090
USER: genes 4 Torsion [N]-CA--C-[N] |==|  0.77458
USER: genes 5 Torsion [C]-N--CA-[C] |==|  0.73826
USER: genes 6 Torsion [N]-CA--C-[N] |==|  0.45451
USER: genes 7 Torsion [N]-CA--CB-[CG2] |==|  0.65350
USER: genes 8 Torsion [CA]-CB--OG1-[HG1] |==|  0.77958
USER: genes 9 Torsion [C]-CA--CB-[CG] |==|  0.05606
USER: genes 10 Torsion [CA]-CB--CG-[ND1] |==|  0.77137
USER: genes 11 Torsion [C]-CA--N-[C] |==|  0.66503
USER: genes 12 Torsion [N]-C--CA-[N] |==|  0.76510
USER: genes 13 Torsion [C]-CA--N-[C] |==|  0.62289
USER: genes 14 Torsion [C]-CA--CB-[CG] |==|  0.24603
USER: genes 15 Torsion [CA]-CB--CG-[CD1] |==|  0.93194
ROOT
ATOM      1  CA  HIS E   2      18.280  -5.398   3.372  1.00 14.20 LIG 0.18  C 
ENDROOT
BRANCH 1 2
ATOM      2  C   HIS E   2      18.230  -6.306   4.597  1.00 15.34 LIG 0.24  C 
ATOM      3 O    HIS E   2      19.259  -6.773   5.094  1.00 13.21 LIG-0.27  OA
ATOM      4  N   THR E   3      17.010  -6.574   5.060  1.00 14.85 LIG-0.34  N 
ATOM      5 H    THR E   3      16.287  -6.221   4.757  1.00 14.85 LIG 0.16  HD
BRANCH 4 6
ATOM      6  CA  THR E   3      16.814  -7.521   6.153  1.00 13.22 LIG 0.20  C 
BRANCH 6 7
ATOM      7  C   THR E   3      16.450  -8.898   5.611  1.00 13.63 LIG 0.24  C 
ATOM      8  N   ALA E   4      15.175  -9.079   5.273  1.00  8.98 LIG-0.35  N 
ATOM      9 H    ALA E   4      14.567  -8.475   5.349  1.00  8.98 LIG 0.16  HD
ATOM     10 O    THR E   3      17.303  -9.784   5.507  1.00 14.15 LIG-0.27  OA
BRANCH 8 11
ATOM     11  CA  ALA E   4      14.700 -10.351   4.734  1.00 15.48 LIG 0.18  C 
ATOM     12  CB  ALA E   4      13.312 -10.663   5.266  1.00 13.80 LIG 0.04  C 
BRANCH 11 13
ATOM     13  C   ALA E   4      14.697 -10.372   3.203  1.00 23.80 LIG 0.28  C 
ATOM     14 O    ALA E   4      14.781  -9.323   2.563  1.00 30.75 LIG-0.27  OA
ATOM     15  N   NH2 E 101      14.610 -11.564   2.618  1.00 22.73 LIG-0.11  N 
ENDBRANCH 11 13
ENDBRANCH 8 11
ENDBRANCH 6 7
BRANCH 6 16
ATOM     16  CB  THR E   3      15.714  -7.030   7.092  1.00 20.99 LIG 0.15  C 
ATOM     17  CG2 THR E   3      16.235  -6.947   8.527  1.00 14.08 LIG 0.04  C 
BRANCH 16 18
ATOM     18 OG1  THR E   3      15.275  -5.736   6.669  1.00 27.33 LIG-0.39  OA
ATOM     19 HG1  THR E   3      15.822  -5.155   6.931  1.00 27.33 LIG 0.21  HD
ENDBRANCH 16 18
ENDBRANCH 6 16
ENDBRANCH 4 6
ENDBRANCH 1 2
BRANCH 1 20
ATOM     20  CB  HIS E   2      18.063  -3.946   3.821  1.00 18.36 LIG 0.10  C 
BRANCH 20 21
ATOM     21  CG  HIS E   2      18.334  -3.706   5.273  1.00 23.43 LIG 0.06  A 
ATOM     22  CD2 HIS E   2      19.436  -3.242   5.909  1.00 23.79 LIG 0.14  A 
ATOM     23 NE2  HIS E   2      19.152  -3.237   7.253  1.00 23.75 LIG-0.25  NA
ATOM     24  CE1 HIS E   2      17.923  -3.682   7.436  1.00 26.05 LIG 0.23  A 
ATOM     25 ND1  HIS E   2      17.406  -3.977   6.255  1.00 21.22 LIG-0.24  NA
ENDBRANCH 20 21
ENDBRANCH 1 20
BRANCH 1 26
ATOM     26  N   HIS E   2      17.283  -5.829   2.397  1.00 15.97 LIG-0.35  N 
ATOM     27 H    HIS E   2      16.476  -5.818   2.694  1.00 15.97 LIG 0.16  HD
ATOM     28  C   TRP E   1      17.610  -6.205   1.159  1.00 12.03 LIG 0.24  C 
ATOM     29 O    TRP E   1      18.768  -6.177   0.729  1.00 13.67 LIG-0.27  OA
BRANCH 28 30
ATOM     30  CA  TRP E   1      16.472  -6.719   0.283  1.00  9.26 LIG 0.18  C 
BRANCH 30 31
ATOM     31  N   TRP E   1      16.176  -8.140   0.477  1.00 13.05 LIG-0.35  N 
ATOM     32 H    TRP E   1      16.155  -8.376   1.304  1.00 13.05 LIG 0.16  HD
ATOM     33  C   ACE E   0      15.958  -8.992  -0.525  1.00 12.60 LIG 0.21  C 
ATOM     34  CH3 ACE E   0      15.662 -10.421  -0.120  1.00  6.27 LIG 0.12  C 
ATOM     35 O    ACE E   0      15.994  -8.636  -1.702  1.00 15.02 LIG-0.27  OA
ENDBRANCH 30 31
BRANCH 30 36
ATOM     36  CB  TRP E   1      15.219  -5.891   0.552  1.00 10.27 LIG 0.07  C 
BRANCH 36 37
ATOM     37  CG  TRP E   1      15.105  -4.667  -0.310  1.00  6.62 LIG-0.03  A 
ATOM     38  CD1 TRP E   1      16.123  -3.984  -0.916  1.00  7.94 LIG 0.10  A 
ATOM     39  NE1 TRP E   1      15.617  -2.910  -1.626  1.00 10.26 LIG-0.36  N 
ATOM     40  CE2 TRP E   1      14.256  -2.886  -1.476  1.00  6.86 LIG 0.04  A 
ATOM     41 HE1  TRP E   1      16.081  -2.350  -2.087  1.00 10.26 LIG 0.17  HD
ATOM     42  CZ2 TRP E   1      13.307  -2.002  -1.992  1.00  8.31 LIG 0.03  A 
ATOM     43  CD2 TRP E   1      13.900  -3.980  -0.651  1.00  9.88 LIG-0.00  A 
ATOM     44  CH2 TRP E   1      11.992  -2.236  -1.680  1.00 13.27 LIG 0.00  A 
ATOM     45  CZ3 TRP E   1      11.608  -3.309  -0.865  1.00 13.61 LIG 0.00  A 
ATOM     46  CE3 TRP E   1      12.550  -4.189  -0.348  1.00 14.26 LIG 0.01  A 
ENDBRANCH 36 37
ENDBRANCH 30 36
ENDBRANCH 28 30
ENDBRANCH 1 26
TORSDOF 14
ENDMDL
MODEL 3
USER: ADFR SOLUTION from run 87
USER: SCORE 14.054783 LL:  -3.124 LR: -12.187 RR:   0.000 FEB:  -8.011
USER: RMSD 4.119343
USER: SEED 86
USER: STATUS no improvement in best in 9 clusters for 5 generations
USER: GENES 16
USER: genes 0 Translation |==|  0.46730 0.42858 0.45686
USER: genes 1 Rotation |==|  0.67933 0.84446 0.37353 0.78843
USER: genes 2 Torsion [N]-CA--C-[N] |==|  0.40027
USER: genes 3 Torsion [C]-N--CA-[C] |==|  0.71030
USER: genes 4 Torsion [N]-CA--C-[N] |==|  0.85020
USER: genes 5 Torsion [C]-N--CA-[C] |==|  0.15000
USER: genes 6 Torsion [N]-CA--C-[N] |==|  0.09017
USER: genes 7 Torsion [N]-CA--CB-[CG2] |==|  0.66345
USER: genes 8 Torsion [CA]-CB--OG1-[HG1] |==|  0.00240
USER: genes 9 Torsion [C]-CA--CB-[CG] |==|  0.25255
USER: genes 10 Torsion [CA]-CB--CG-[ND1] |==|  0.84373
USER: genes 11 Torsion [C]-CA--N-[C] |==|  0.55039
USER: genes 12 Torsion [N]-C--CA-[N] |==|  0.10948
USER: genes 13 Torsion [C]-CA--N-[C] |==|  0.64596
USER: genes 14 Torsion [C]-CA--CB-[CG] |==|  0.28473
USER: genes 15 Torsion [CA]-CB--CG-[CD1] |==|  0.40104
ROOT
ATOM      1  CA  HIS E   2      14.518 -10.065   1.764  1.00 14.20 LIG 0.18  C 
ENDROOT
BRANCH 1 2
ATOM      2  C   HIS E   2      14.030 -10.573   3.117  1.00 15.34 LIG 0.24  C 
ATOM      3 O    HIS E   2      14.767 -10.575   4.108  1.00 13.21 LIG-0.27  OA
ATOM      4  N   THR E   3      12.779 -11.033   3.138  1.00 14.85 LIG-0.34  N 
ATOM      5 H    THR E   3      12.237 -10.995   2.471  1.00 14.85 LIG 0.16  HD
BRANCH 4 6
ATOM      6  CA  THR E   3      12.229 -11.654   4.337  1.00 13.22 LIG 0.20  C 
BRANCH 6 7
ATOM      7  C   THR E   3      12.167 -13.168   4.178  1.00 13.63 LIG 0.24  C 
ATOM      8  N   ALA E   4      11.527 -13.621   3.102  1.00  8.98 LIG-0.35  N 
ATOM      9 H    ALA E   4      11.156 -13.114   2.515  1.00  8.98 LIG 0.16  HD
ATOM     10 O    THR E   3      12.681 -13.915   5.015  1.00 14.15 LIG-0.27  OA
BRANCH 8 11
ATOM     11  CA  ALA E   4      11.406 -15.052   2.830  1.00 15.48 LIG 0.18  C 
ATOM     12  CB  ALA E   4      12.760 -15.633   2.459  1.00 13.80 LIG 0.04  C 
BRANCH 11 13
ATOM     13  C   ALA E   4      10.806 -15.822   4.010  1.00 23.80 LIG 0.28  C 
ATOM     14 O    ALA E   4      11.155 -16.981   4.243  1.00 30.75 LIG-0.27  OA
ATOM     15  N   NH2 E 101       9.914 -15.178   4.758  1.00 22.73 LIG-0.11  N 
ENDBRANCH 11 13
ENDBRANCH 8 11
ENDBRANCH 6 7
BRANCH 6 16
ATOM     16  CB  THR E   3      10.830 -11.109   4.625  1.00 20.99 LIG 0.15  C 
ATOM     17  CG2 THR E   3      10.784 -10.463   6.009  1.00 14.08 LIG 0.04  C 
BRANCH 16 18
ATOM     18 OG1  THR E   3      10.490 -10.138   3.633  1.00 27.33 LIG-0.39  OA
ATOM     19 HG1  THR E   3      11.119 -10.066   3.082  1.00 27.33 LIG 0.21  HD
ENDBRANCH 16 18
ENDBRANCH 6 16
ENDBRANCH 4 6
ENDBRANCH 1 2
BRANCH 1 20
ATOM     20  CB  HIS E   2      15.223 -11.213   1.028  1.00 18.36 LIG 0.10  C 
BRANCH 20 21
ATOM     21  CG  HIS E   2      14.321 -12.024   0.150  1.00 23.43 LIG 0.06  A 
ATOM     22  CD2 HIS E   2      14.375 -12.296  -1.175  1.00 23.79 LIG 0.14  A 
ATOM     23 NE2  HIS E   2      13.284 -13.074  -1.472  1.00 23.75 LIG-0.25  NA
ATOM     24  CE1 HIS E   2      12.584 -13.272  -0.369  1.00 26.05 LIG 0.23  A 
ATOM     25 ND1  HIS E   2      13.186 -12.645   0.626  1.00 21.22 LIG-0.24  NA
ENDBRANCH 20 21
ENDBRANCH 1 20
BRANCH 1 26
ATOM     26  N   HIS E   2      15.395  -8.914   1.957  1.00 15.97 LIG-0.35  N 
ATOM     27 H    HIS E   2      15.704  -8.839   2.756  1.00 15.97 LIG 0.16  HD
ATOM     28  C   TRP E   1      15.680  -8.060   0.971  1.00 12.03 LIG 0.24  C 
ATOM     29 O    TRP E   1      15.264  -8.200  -0.184  1.00 13.67 LIG-0.27  OA
BRANCH 28 30
ATOM     30  CA  TRP E   1      16.534  -6.853   1.345  1.00  9.26 LIG 0.18  C 
BRANCH 30 31
ATOM     31  N   TRP E   1      17.609  -7.162   2.290  1.00 13.05 LIG-0.35  N 
ATOM     32 H    TRP E   1      18.106  -7.817   2.041  1.00 13.05 LIG 0.16  HD
ATOM     33  C   ACE E   0      17.804  -6.497   3.429  1.00 12.60 LIG 0.21  C 
ATOM     34  CH3 ACE E   0      18.974  -6.965   4.271  1.00  6.27 LIG 0.12  C 
ATOM     35 O    ACE E   0      17.080  -5.564   3.771  1.00 15.02 LIG-0.27  OA
ENDBRANCH 30 31
BRANCH 30 36
ATOM     36  CB  TRP E   1      17.123  -6.243   0.077  1.00 10.27 LIG 0.07  C 
BRANCH 36 37
ATOM     37  CG  TRP E   1      16.420  -4.998  -0.380  1.00  6.62 LIG-0.03  A 
ATOM     38  CD1 TRP E   1      16.983  -3.897  -0.966  1.00  7.94 LIG 0.10  A 
ATOM     39  NE1 TRP E   1      16.008  -2.957  -1.245  1.00 10.26 LIG-0.36  N 
ATOM     40  CE2 TRP E   1      14.797  -3.444  -0.830  1.00  6.86 LIG 0.04  A 
ATOM     41 HE1  TRP E   1      16.141  -2.193  -1.617  1.00 10.26 LIG 0.17  HD
ATOM     42  CZ2 TRP E   1      13.526  -2.870  -0.891  1.00  8.31 LIG 0.03  A 
ATOM     43  CD2 TRP E   1      15.021  -4.729  -0.279  1.00  9.88 LIG-0.00  A 
ATOM     44  CH2 TRP E   1      12.477  -3.608  -0.403  1.00 13.27 LIG 0.00  A 
ATOM     45  CZ3 TRP E   1      12.667  -4.882   0.149  1.00 13.61 LIG 0.00  A 
ATOM     46  CE3 TRP E   1      13.930  -5.454   0.213  1.00 14.26 LIG 0.01  A 
ENDBRANCH 36 37
ENDBRANCH 30 36
ENDBRANCH 28 30
ENDBRANCH 1 26
TORSDOF 14
ENDMDL
MODEL 4
USER: ADFR SOLUTION from run 26
USER: SCORE 14.070996 LL:  -3.413 LR: -12.115 RR:   0.000 FEB:  -7.939
USER: RMSD 4.485691
USER: SEED 25
USER: STATUS no improvement in best in 25 clusters for 5 generations
USER: GENES 16
USER: genes 0 Translation |==|  0.48085 0.40838 0.36901
USER: genes 1 Rotation |==|  0.63281 0.88865 0.28362 0.68572
USER: genes 2 Torsion [N]-CA--C-[N] |==|  0.35619
USER: genes 3 Torsion [C]-N--CA-[C] |==|  0.57222
USER: genes 4 Torsion [N]-CA--C-[N] |==|  0.05506
USER: genes 5 Torsion [C]-N--CA-[C] |==|  0.15653
USER: genes 6 Torsion [N]-CA--C-[N] |==|  0.14977
USER: genes 7 Torsion [N]-CA--CB-[CG2] |==|  0.55704
USER: genes 8 Torsion [CA]-CB--OG1-[HG1] |==|  0.22653
USER: genes 9 Torsion [C]-CA--CB-[CG] |==|  0.13979
USER: genes 10 Torsion [CA]-CB--CG-[ND1] |==|  0.67775
USER: genes 11 Torsion [C]-CA--N-[C] |==|  0.81983
USER: genes 12 Torsion [N]-C--CA-[N] |==|  0.19010
USER: genes 13 Torsion [C]-CA--N-[C] |==|  0.60111
USER: genes 14 Torsion [C]-CA--CB-[CG] |==|  0.69561
USER: genes 15 Torsion [CA]-CB--CG-[CD1] |==|  0.73314
ROOT
ATOM      1  CA  HIS E   2      14.783 -10.489   0.248  1.00 14.20 LIG 0.18  C 
ENDROOT
BRANCH 1 2
ATOM      2  C   HIS E   2      15.077 -10.743   1.724  1.00 15.34 LIG 0.24  C 
ATOM      3 O    HIS E   2      16.214 -11.029   2.113  1.00 13.21 LIG-0.27  OA
ATOM      4  N   THR E   3      14.026 -10.664   2.539  1.00 14.85 LIG-0.34  N 
ATOM      5 H    THR E   3      13.239 -10.419   2.294  1.00 14.85 LIG 0.16  HD
BRANCH 4 6
ATOM      6  CA  THR E   3      14.148 -10.999   3.953  1.00 13.22 LIG 0.20  C 
BRANCH 6 7
ATOM      7  C   THR E   3      12.806 -11.451   4.516  1.00 13.63 LIG 0.24  C 
ATOM      8  N   ALA E   4      11.903 -11.858   3.626  1.00  8.98 LIG-0.35  N 
ATOM      9 H    ALA E   4      12.037 -11.873   2.777  1.00  8.98 LIG 0.16  HD
ATOM     10 O    THR E   3      12.586 -11.425   5.730  1.00 14.15 LIG-0.27  OA
BRANCH 8 11
ATOM     11  CA  ALA E   4      10.580 -12.324   4.038  1.00 15.48 LIG 0.18  C 
ATOM     12  CB  ALA E   4      10.699 -13.626   4.812  1.00 13.80 LIG 0.04  C 
BRANCH 11 13
ATOM     13  C   ALA E   4       9.826 -11.283   4.870  1.00 23.80 LIG 0.28  C 
ATOM     14 O    ALA E   4       9.380 -11.574   5.982  1.00 30.75 LIG-0.27  OA
ATOM     15  N   NH2 E 101       9.693 -10.070   4.339  1.00 22.73 LIG-0.11  N 
ENDBRANCH 11 13
ENDBRANCH 8 11
ENDBRANCH 6 7
BRANCH 6 16
ATOM     16  CB  THR E   3      14.658  -9.794   4.744  1.00 20.99 LIG 0.15  C 
ATOM     17  CG2 THR E   3      15.262 -10.245   6.073  1.00 14.08 LIG 0.04  C 
BRANCH 16 18
ATOM     18 OG1  THR E   3      15.652  -9.112   3.975  1.00 27.33 LIG-0.39  OA
ATOM     19 HG1  THR E   3      15.278  -8.609   3.416  1.00 27.33 LIG 0.21  HD
ENDBRANCH 16 18
ENDBRANCH 6 16
ENDBRANCH 4 6
ENDBRANCH 1 2
BRANCH 1 20
ATOM     20  CB  HIS E   2      14.891 -11.816  -0.515  1.00 18.36 LIG 0.10  C 
BRANCH 20 21
ATOM     21  CG  HIS E   2      14.113 -12.940   0.094  1.00 23.43 LIG 0.06  A 
ATOM     22  CD2 HIS E   2      12.783 -13.096   0.300  1.00 23.79 LIG 0.14  A 
ATOM     23 NE2  HIS E   2      12.610 -14.311   0.916  1.00 23.75 LIG-0.25  NA
ATOM     24  CE1 HIS E   2      13.790 -14.880   1.084  1.00 26.05 LIG 0.23  A 
ATOM     25 ND1  HIS E   2      14.716 -14.071   0.600  1.00 21.22 LIG-0.24  NA
ENDBRANCH 20 21
ENDBRANCH 1 20
BRANCH 1 26
ATOM     26  N   HIS E   2      15.699  -9.478  -0.270  1.00 15.97 LIG-0.35  N 
ATOM     27 H    HIS E   2      16.236  -9.770  -0.875  1.00 15.97 LIG 0.16  HD
ATOM     28  C   TRP E   1      15.691  -8.216   0.165  1.00 12.03 LIG 0.24  C 
ATOM     29 O    TRP E   1      14.886  -7.797   1.004  1.00 13.67 LIG-0.27  OA
BRANCH 28 30
ATOM     30  CA  TRP E   1      16.768  -7.297  -0.401  1.00  9.26 LIG 0.18  C 
BRANCH 30 31
ATOM     31  N   TRP E   1      16.597  -6.996  -1.824  1.00 13.05 LIG-0.35  N 
ATOM     32 H    TRP E   1      15.774  -6.914  -2.060  1.00 13.05 LIG 0.16  HD
ATOM     33  C   ACE E   0      17.612  -6.862  -2.677  1.00 12.60 LIG 0.21  C 
ATOM     34  CH3 ACE E   0      17.230  -6.545  -4.108  1.00  6.27 LIG 0.12  C 
ATOM     35 O    ACE E   0      18.783  -6.986  -2.321  1.00 15.02 LIG-0.27  OA
ENDBRANCH 30 31
BRANCH 30 36
ATOM     36  CB  TRP E   1      16.791  -5.999   0.400  1.00 10.27 LIG 0.07  C 
BRANCH 36 37
ATOM     37  CG  TRP E   1      16.275  -4.810  -0.357  1.00  6.62 LIG-0.03  A 
ATOM     38  CD1 TRP E   1      17.010  -3.882  -1.043  1.00  7.94 LIG 0.10  A 
ATOM     39  NE1 TRP E   1      16.173  -2.938  -1.611  1.00 10.26 LIG-0.36  N 
ATOM     40  CE2 TRP E   1      14.879  -3.247  -1.285  1.00  6.86 LIG 0.04  A 
ATOM     41 HE1  TRP E   1      16.424  -2.268  -2.089  1.00 10.26 LIG 0.17  HD
ATOM     42  CZ2 TRP E   1      13.687  -2.599  -1.616  1.00  8.31 LIG 0.03  A 
ATOM     43  CD2 TRP E   1      14.907  -4.421  -0.495  1.00  9.88 LIG-0.00  A 
ATOM     44  CH2 TRP E   1      12.520  -3.152  -1.154  1.00 13.27 LIG 0.00  A 
ATOM     45  CZ3 TRP E   1      12.515  -4.313  -0.369  1.00 13.61 LIG 0.00  A 
ATOM     46  CE3 TRP E   1      13.699  -4.957  -0.036  1.00 14.26 LIG 0.01  A 
ENDBRANCH 36 37
ENDBRANCH 30 36
ENDBRANCH 28 30
ENDBRANCH 1 26
TORSDOF 14
ENDMDL
MODEL 5
USER: ADFR SOLUTION from run 62
USER: SCORE 14.847293 LL:  -3.695 LR: -12.029 RR:   0.000 FEB:  -7.852
USER: RMSD 5.528051
USER: SEED 61
USER: STATUS no improvement in best in 9 clusters for 5 generations
USER: GENES 16
USER: genes 0 Translation |==|  0.52844 0.44980 0.23885
USER: genes 1 Rotation |==|  0.72300 0.86466 0.59239 0.74240
USER: genes 2 Torsion [N]-CA--C-[N] |==|  0.13341
USER: genes 3 Torsion [C]-N--CA-[C] |==|  0.75816
USER: genes 4 Torsion [N]-CA--C-[N] |==|  0.96530
USER: genes 5 Torsion [C]-N--CA-[C] |==|  0.84260
USER: genes 6 Torsion [N]-CA--C-[N] |==|  0.47096
USER: genes 7 Torsion [N]-CA--CB-[CG2] |==|  0.76593
USER: genes 8 Torsion [CA]-CB--OG1-[HG1] |==|  0.20094
USER: genes 9 Torsion [C]-CA--CB-[CG] |==|  0.51174
USER: genes 10 Torsion [CA]-CB--CG-[ND1] |==|  0.87716
USER: genes 11 Torsion [C]-CA--N-[C] |==|  0.62256
USER: genes 12 Torsion [N]-C--CA-[N] |==|  0.96613
USER: genes 13 Torsion [C]-CA--N-[C] |==|  0.83333
USER: genes 14 Torsion [C]-CA--CB-[CG] |==|  0.16793
USER: genes 15 Torsion [CA]-CB--CG-[CD1] |==|  0.59283
ROOT
ATOM      1  CA  HIS E   2      15.711  -9.619  -1.997  1.00 14.20 LIG 0.18  C 
ENDROOT
BRANCH 1 2
ATOM      2  C   HIS E   2      15.440 -11.062  -1.583  1.00 15.34 LIG 0.24  C 
ATOM      3 O    HIS E   2      15.935 -12.012  -2.198  1.00 13.21 LIG-0.27  OA
ATOM      4  N   THR E   3      14.618 -11.216  -0.545  1.00 14.85 LIG-0.34  N 
ATOM      5 H    THR E   3      14.303 -10.568  -0.077  1.00 14.85 LIG 0.16  HD
BRANCH 4 6
ATOM      6  CA  THR E   3      14.184 -12.543  -0.122  1.00 13.22 LIG 0.20  C 
BRANCH 6 7
ATOM      7  C   THR E   3      12.944 -12.974  -0.894  1.00 13.63 LIG 0.24  C 
ATOM      8  N   ALA E   4      12.327 -12.024  -1.595  1.00  8.98 LIG-0.35  N 
ATOM      9 H    ALA E   4      12.587 -11.204  -1.627  1.00  8.98 LIG 0.16  HD
ATOM     10 O    THR E   3      12.544 -14.140  -0.853  1.00 14.15 LIG-0.27  OA
BRANCH 8 11
ATOM     11  CA  ALA E   4      11.132 -12.311  -2.385  1.00 15.48 LIG 0.18  C 
ATOM     12  CB  ALA E   4      10.642 -11.049  -3.075  1.00 13.80 LIG 0.04  C 
BRANCH 11 13
ATOM     13  C   ALA E   4      11.363 -13.421  -3.414  1.00 23.80 LIG 0.28  C 
ATOM     14 O    ALA E   4      12.500 -13.840  -3.637  1.00 30.75 LIG-0.27  OA
ATOM     15  N   NH2 E 101      10.288 -13.902  -4.032  1.00 22.73 LIG-0.11  N 
ENDBRANCH 11 13
ENDBRANCH 8 11
ENDBRANCH 6 7
BRANCH 6 16
ATOM     16  CB  THR E   3      13.887 -12.552   1.377  1.00 20.99 LIG 0.15  C 
ATOM     17  CG2 THR E   3      15.173 -12.775   2.173  1.00 14.08 LIG 0.04  C 
BRANCH 16 18
ATOM     18 OG1  THR E   3      13.305 -11.301   1.750  1.00 27.33 LIG-0.39  OA
ATOM     19 HG1  THR E   3      12.519 -11.259   1.458  1.00 27.33 LIG 0.21  HD
ENDBRANCH 16 18
ENDBRANCH 6 16
ENDBRANCH 4 6
ENDBRANCH 1 2
BRANCH 1 20
ATOM     20  CB  HIS E   2      16.831  -9.605  -3.045  1.00 18.36 LIG 0.10  C 
BRANCH 20 21
ATOM     21  CG  HIS E   2      17.264  -8.234  -3.463  1.00 23.43 LIG 0.06  A 
ATOM     22  CD2 HIS E   2      18.497  -7.699  -3.625  1.00 23.79 LIG 0.14  A 
ATOM     23 NE2  HIS E   2      18.322  -6.390  -4.003  1.00 23.75 LIG-0.25  NA
ATOM     24  CE1 HIS E   2      17.029  -6.131  -4.068  1.00 26.05 LIG 0.23  A 
ATOM     25 ND1  HIS E   2      16.366  -7.227  -3.743  1.00 21.22 LIG-0.24  NA
ENDBRANCH 20 21
ENDBRANCH 1 20
BRANCH 1 26
ATOM     26  N   HIS E   2      16.046  -8.824  -0.820  1.00 15.97 LIG-0.35  N 
ATOM     27 H    HIS E   2      16.596  -9.209  -0.282  1.00 15.97 LIG 0.16  HD
ATOM     28  C   TRP E   1      15.537  -7.608  -0.610  1.00 12.03 LIG 0.24  C 
ATOM     29 O    TRP E   1      14.782  -7.046  -1.410  1.00 13.67 LIG-0.27  OA
BRANCH 28 30
ATOM     30  CA  TRP E   1      15.906  -6.936   0.709  1.00  9.26 LIG 0.18  C 
BRANCH 30 31
ATOM     31  N   TRP E   1      16.537  -7.840   1.673  1.00 13.05 LIG-0.35  N 
ATOM     32 H    TRP E   1      17.328  -7.596   1.904  1.00 13.05 LIG 0.16  HD
ATOM     33  C   ACE E   0      15.948  -8.936   2.151  1.00 12.60 LIG 0.21  C 
ATOM     34  CH3 ACE E   0      16.762  -9.739   3.146  1.00  6.27 LIG 0.12  C 
ATOM     35 O    ACE E   0      14.816  -9.271   1.806  1.00 15.02 LIG-0.27  OA
ENDBRANCH 30 31
BRANCH 30 36
ATOM     36  CB  TRP E   1      16.830  -5.756   0.429  1.00 10.27 LIG 0.07  C 
BRANCH 36 37
ATOM     37  CG  TRP E   1      16.218  -4.701  -0.447  1.00  6.62 LIG-0.03  A 
ATOM     38  CD1 TRP E   1      16.857  -3.913  -1.363  1.00  7.94 LIG 0.10  A 
ATOM     39  NE1 TRP E   1      15.953  -3.062  -1.972  1.00 10.26 LIG-0.36  N 
ATOM     40  CE2 TRP E   1      14.710  -3.291  -1.442  1.00  6.86 LIG 0.04  A 
ATOM     41 HE1  TRP E   1      16.139  -2.485  -2.583  1.00 10.26 LIG 0.17  HD
ATOM     42  CZ2 TRP E   1      13.484  -2.688  -1.726  1.00  8.31 LIG 0.03  A 
ATOM     43  CD2 TRP E   1      14.842  -4.318  -0.476  1.00  9.88 LIG-0.00  A 
ATOM     44  CH2 TRP E   1      12.386  -3.137  -1.037  1.00 13.27 LIG 0.00  A 
ATOM     45  CZ3 TRP E   1      12.484  -4.151  -0.075  1.00 13.61 LIG 0.00  A 
ATOM     46  CE3 TRP E   1      13.704  -4.750   0.211  1.00 14.26 LIG 0.01  A 
ENDBRANCH 36 37
ENDBRANCH 30 36
ENDBRANCH 28 30
ENDBRANCH 1 26
TORSDOF 14
ENDMDL
MODEL 6
USER: ADFR SOLUTION from run 94
USER: SCORE 14.208738 LL:  -3.169 LR: -11.856 RR:   0.000 FEB:  -7.680
USER: RMSD 2.906881
USER: SEED 93
USER: STATUS no improvement in best in 2 clusters for 5 generations
USER: GENES 16
USER: genes 0 Translation |==|  0.59000 0.41530 0.44256
USER: genes 1 Rotation |==|  0.47373 0.54524 0.43232 0.99263
USER: genes 2 Torsion [N]-CA--C-[N] |==|  0.37730
USER: genes 3 Torsion [C]-N--CA-[C] |==|  0.79877
USER: genes 4 Torsion [N]-CA--C-[N] |==|  0.37055
USER: genes 5 Torsion [C]-N--CA-[C] |==|  0.63334
USER: genes 6 Torsion [N]-CA--C-[N] |==|  0.87084
USER: genes 7 Torsion [N]-CA--CB-[CG2] |==|  0.36122
USER: genes 8 Torsion [CA]-CB--OG1-[HG1] |==|  0.62037
USER: genes 9 Torsion [C]-CA--CB-[CG] |==|  0.90598
USER: genes 10 Torsion [CA]-CB--CG-[ND1] |==|  0.75648
USER: genes 11 Torsion [C]-CA--N-[C] |==|  0.83840
USER: genes 12 Torsion [N]-C--CA-[N] |==|  0.47726
USER: genes 13 Torsion [C]-CA--N-[C] |==|  0.65745
USER: genes 14 Torsion [C]-CA--CB-[CG] |==|  0.58068
USER: genes 15 Torsion [CA]-CB--CG-[CD1] |==|  0.82534
ROOT
ATOM      1  CA  HIS E   2      16.911 -10.344   1.517  1.00 14.20 LIG 0.18  C 
ENDROOT
BRANCH 1 2
ATOM      2  C   HIS E   2      15.405 -10.558   1.635  1.00 15.34 LIG 0.24  C 
ATOM      3 O    HIS E   2      14.666  -9.689   2.107  1.00 13.21 LIG-0.27  OA
ATOM      4  N   THR E   3      14.963 -11.746   1.223  1.00 14.85 LIG-0.34  N 
ATOM      5 H    THR E   3      15.454 -12.344   0.848  1.00 14.85 LIG 0.16  HD
BRANCH 4 6
ATOM      6  CA  THR E   3      13.563 -12.123   1.389  1.00 13.22 LIG 0.20  C 
BRANCH 6 7
ATOM      7  C   THR E   3      13.255 -12.411   2.854  1.00 13.63 LIG 0.24  C 
ATOM      8  N   ALA E   4      12.146 -11.857   3.341  1.00  8.98 LIG-0.35  N 
ATOM      9 H    ALA E   4      11.617 -11.357   2.883  1.00  8.98 LIG 0.16  HD
ATOM     10 O    THR E   3      14.007 -13.114   3.534  1.00 14.15 LIG-0.27  OA
BRANCH 8 11
ATOM     11  CA  ALA E   4      11.735 -12.063   4.728  1.00 15.48 LIG 0.18  C 
ATOM     12  CB  ALA E   4      12.021 -10.819   5.551  1.00 13.80 LIG 0.04  C 
BRANCH 11 13
ATOM     13  C   ALA E   4      10.259 -12.449   4.850  1.00 23.80 LIG 0.28  C 
ATOM     14 O    ALA E   4       9.913 -13.380   5.579  1.00 30.75 LIG-0.27  OA
ATOM     15  N   NH2 E 101       9.389 -11.729   4.146  1.00 22.73 LIG-0.11  N 
ENDBRANCH 11 13
ENDBRANCH 8 11
ENDBRANCH 6 7
BRANCH 6 16
ATOM     16  CB  THR E   3      13.240 -13.355   0.544  1.00 20.99 LIG 0.15  C 
ATOM     17  CG2 THR E   3      12.532 -14.412   1.390  1.00 14.08 LIG 0.04  C 
BRANCH 16 18
ATOM     18 OG1  THR E   3      12.396 -12.971  -0.545  1.00 27.33 LIG-0.39  OA
ATOM     19 HG1  THR E   3      11.782 -13.536  -0.636  1.00 27.33 LIG 0.21  HD
ENDBRANCH 16 18
ENDBRANCH 6 16
ENDBRANCH 4 6
ENDBRANCH 1 2
BRANCH 1 20
ATOM     20  CB  HIS E   2      17.550 -10.539   2.899  1.00 18.36 LIG 0.10  C 
BRANCH 20 21
ATOM     21  CG  HIS E   2      16.689 -10.095   4.041  1.00 23.43 LIG 0.06  A 
ATOM     22  CD2 HIS E   2      15.783 -10.769   4.788  1.00 23.79 LIG 0.14  A 
ATOM     23 NE2  HIS E   2      15.264  -9.876   5.694  1.00 23.75 LIG-0.25  NA
ATOM     24  CE1 HIS E   2      15.830  -8.697   5.508  1.00 26.05 LIG 0.23  A 
ATOM     25 ND1  HIS E   2      16.693  -8.800   4.512  1.00 21.22 LIG-0.24  NA
ENDBRANCH 20 21
ENDBRANCH 1 20
BRANCH 1 26
ATOM     26  N   HIS E   2      17.178  -9.018   0.969  1.00 15.97 LIG-0.35  N 
ATOM     27 H    HIS E   2      17.661  -8.520   1.477  1.00 15.97 LIG 0.16  HD
ATOM     28  C   TRP E   1      16.708  -8.627  -0.218  1.00 12.03 LIG 0.24  C 
ATOM     29 O    TRP E   1      16.050  -9.365  -0.959  1.00 13.67 LIG-0.27  OA
BRANCH 28 30
ATOM     30  CA  TRP E   1      16.990  -7.182  -0.617  1.00  9.26 LIG 0.18  C 
BRANCH 30 31
ATOM     31  N   TRP E   1      16.617  -6.870  -1.999  1.00 13.05 LIG-0.35  N 
ATOM     32 H    TRP E   1      15.792  -7.031  -2.175  1.00 13.05 LIG 0.16  HD
ATOM     33  C   ACE E   0      17.470  -6.384  -2.901  1.00 12.60 LIG 0.21  C 
ATOM     34  CH3 ACE E   0      16.891  -6.120  -4.276  1.00  6.27 LIG 0.12  C 
ATOM     35 O    ACE E   0      18.649  -6.163  -2.630  1.00 15.02 LIG-0.27  OA
ENDBRANCH 30 31
BRANCH 30 36
ATOM     36  CB  TRP E   1      16.258  -6.246   0.338  1.00 10.27 LIG 0.07  C 
BRANCH 36 37
ATOM     37  CG  TRP E   1      15.870  -4.933  -0.279  1.00  6.62 LIG-0.03  A 
ATOM     38  CD1 TRP E   1      16.707  -3.970  -0.771  1.00  7.94 LIG 0.10  A 
ATOM     39  NE1 TRP E   1      15.973  -2.904  -1.258  1.00 10.26 LIG-0.36  N 
ATOM     40  CE2 TRP E   1      14.641  -3.170  -1.074  1.00  6.86 LIG 0.04  A 
ATOM     41 HE1  TRP E   1      16.298  -2.193  -1.617  1.00 10.26 LIG 0.17  HD
ATOM     42  CZ2 TRP E   1      13.517  -2.406  -1.396  1.00  8.31 LIG 0.03  A 
ATOM     43  CD2 TRP E   1      14.541  -4.441  -0.459  1.00  9.88 LIG-0.00  A 
ATOM     44  CH2 TRP E   1      12.288  -2.940  -1.102  1.00 13.27 LIG 0.00  A 
ATOM     45  CZ3 TRP E   1      12.156  -4.194  -0.492  1.00 13.61 LIG 0.00  A 
ATOM     46  CE3 TRP E   1      13.273  -4.954  -0.169  1.00 14.26 LIG 0.01  A 
ENDBRANCH 36 37
ENDBRANCH 30 36
ENDBRANCH 28 30
ENDBRANCH 1 26
TORSDOF 14
ENDMDL
MODEL 7
USER: ADFR SOLUTION from run 157
USER: SCORE 13.122748 LL:  -3.155 LR: -11.772 RR:   0.000 FEB:  -7.595
USER: RMSD 8.675368
USER: SEED 156
USER: STATUS no improvement in best in 6 clusters for 5 generations
USER: GENES 16
USER: genes 0 Translation |==|  0.41879 0.41037 0.62048
USER: genes 1 Rotation |==|  0.43970 0.37507 0.97534 0.56932
USER: genes 2 Torsion [N]-CA--C-[N] |==|  0.30007
USER: genes 3 Torsion [C]-N--CA-[C] |==|  0.72102
USER: genes 4 Torsion [N]-CA--C-[N] |==|  0.90845
USER: genes 5 Torsion [C]-N--CA-[C] |==|  0.18470
USER: genes 6 Torsion [N]-CA--C-[N] |==|  0.63270
USER: genes 7 Torsion [N]-CA--CB-[CG2] |==|  0.88514
USER: genes 8 Torsion [CA]-CB--OG1-[HG1] |==|  0.89466
USER: genes 9 Torsion [C]-CA--CB-[CG] |==|  0.55348
USER: genes 10 Torsion [CA]-CB--CG-[ND1] |==|  0.89403
USER: genes 11 Torsion [C]-CA--N-[C] |==|  0.80000
USER: genes 12 Torsion [N]-C--CA-[N] |==|  0.08388
USER: genes 13 Torsion [C]-CA--N-[C] |==|  0.74881
USER: genes 14 Torsion [C]-CA--CB-[CG] |==|  0.53495
USER: genes 15 Torsion [CA]-CB--CG-[CD1] |==|  0.87544
ROOT
ATOM      1  CA  HIS E   2      13.572 -10.447   4.586  1.00 14.20 LIG 0.18  C 
ENDROOT
BRANCH 1 2
ATOM      2  C   HIS E   2      15.046 -10.303   4.955  1.00 15.34 LIG 0.24  C 
ATOM      3 O    HIS E   2      15.629 -11.162   5.622  1.00 13.21 LIG-0.27  OA
ATOM      4  N   THR E   3      15.634  -9.183   4.534  1.00 14.85 LIG-0.34  N 
ATOM      5 H    THR E   3      15.257  -8.598   4.029  1.00 14.85 LIG 0.16  HD
BRANCH 4 6
ATOM      6  CA  THR E   3      17.005  -8.867   4.917  1.00 13.22 LIG 0.20  C 
BRANCH 6 7
ATOM      7  C   THR E   3      17.024  -7.856   6.057  1.00 13.63 LIG 0.24  C 
ATOM      8  N   ALA E   4      16.038  -6.961   6.066  1.00  8.98 LIG-0.35  N 
ATOM      9 H    ALA E   4      15.414  -6.927   5.475  1.00  8.98 LIG 0.16  HD
ATOM     10 O    THR E   3      17.917  -7.877   6.909  1.00 14.15 LIG-0.27  OA
BRANCH 8 11
ATOM     11  CA  ALA E   4      15.939  -5.944   7.111  1.00 15.48 LIG 0.18  C 
ATOM     12  CB  ALA E   4      15.882  -6.600   8.480  1.00 13.80 LIG 0.04  C 
BRANCH 11 13
ATOM     13  C   ALA E   4      17.090  -4.935   7.056  1.00 23.80 LIG 0.28  C 
ATOM     14 O    ALA E   4      17.406  -4.405   5.989  1.00 30.75 LIG-0.27  OA
ATOM     15  N   NH2 E 101      17.707  -4.664   8.202  1.00 22.73 LIG-0.11  N 
ENDBRANCH 11 13
ENDBRANCH 8 11
ENDBRANCH 6 7
BRANCH 6 16
ATOM     16  CB  THR E   3      17.777  -8.310   3.722  1.00 20.99 LIG 0.15  C 
ATOM     17  CG2 THR E   3      17.437  -9.095   2.455  1.00 14.08 LIG 0.04  C 
BRANCH 16 18
ATOM     18 OG1  THR E   3      17.432  -6.935   3.537  1.00 27.33 LIG-0.39  OA
ATOM     19 HG1  THR E   3      16.614  -6.827   3.694  1.00 27.33 LIG 0.21  HD
ENDBRANCH 16 18
ENDBRANCH 6 16
ENDBRANCH 4 6
ENDBRANCH 1 2
BRANCH 1 20
ATOM     20  CB  HIS E   2      12.775 -10.784   5.853  1.00 18.36 LIG 0.10  C 
BRANCH 20 21
ATOM     21  CG  HIS E   2      11.431 -11.391   5.590  1.00 23.43 LIG 0.06  A 
ATOM     22  CD2 HIS E   2      10.766 -12.389   6.217  1.00 23.79 LIG 0.14  A 
ATOM     23 NE2  HIS E   2       9.576 -12.560   5.552  1.00 23.75 LIG-0.25  NA
ATOM     24  CE1 HIS E   2       9.515 -11.699   4.552  1.00 26.05 LIG 0.23  A 
ATOM     25 ND1  HIS E   2      10.625 -10.982   4.549  1.00 21.22 LIG-0.24  NA
ENDBRANCH 20 21
ENDBRANCH 1 20
BRANCH 1 26
ATOM     26  N   HIS E   2      13.421 -11.466   3.552  1.00 15.97 LIG-0.35  N 
ATOM     27 H    HIS E   2      13.064 -12.197   3.830  1.00 15.97 LIG 0.16  HD
ATOM     28  C   TRP E   1      13.807 -11.266   2.290  1.00 12.03 LIG 0.24  C 
ATOM     29 O    TRP E   1      14.279 -10.195   1.891  1.00 13.67 LIG-0.27  OA
BRANCH 28 30
ATOM     30  CA  TRP E   1      13.672 -12.453   1.342  1.00  9.26 LIG 0.18  C 
BRANCH 30 31
ATOM     31  N   TRP E   1      12.570 -13.356   1.683  1.00 13.05 LIG-0.35  N 
ATOM     32 H    TRP E   1      11.826 -13.143   1.310  1.00 13.05 LIG 0.16  HD
ATOM     33  C   ACE E   0      12.701 -14.407   2.492  1.00 12.60 LIG 0.21  C 
ATOM     34  CH3 ACE E   0      11.445 -15.223   2.717  1.00  6.27 LIG 0.12  C 
ATOM     35 O    ACE E   0      13.775 -14.693   3.020  1.00 15.02 LIG-0.27  OA
ENDBRANCH 30 31
BRANCH 30 36
ATOM     36  CB  TRP E   1      13.494 -11.940  -0.083  1.00 10.27 LIG 0.07  C 
BRANCH 36 37
ATOM     37  CG  TRP E   1      13.056 -12.995  -1.057  1.00  6.62 LIG-0.03  A 
ATOM     38  CD1 TRP E   1      13.547 -14.265  -1.178  1.00  7.94 LIG 0.10  A 
ATOM     39  NE1 TRP E   1      12.885 -14.936  -2.191  1.00 10.26 LIG-0.36  N 
ATOM     40  CE2 TRP E   1      11.958 -14.092  -2.743  1.00  6.86 LIG 0.04  A 
ATOM     41 HE1  TRP E   1      13.032 -15.748  -2.433  1.00 10.26 LIG 0.17  HD
ATOM     42  CZ2 TRP E   1      11.055 -14.304  -3.786  1.00  8.31 LIG 0.03  A 
ATOM     43  CD2 TRP E   1      12.039 -12.859  -2.051  1.00  9.88 LIG-0.00  A 
ATOM     44  CH2 TRP E   1      10.224 -13.265  -4.121  1.00 13.27 LIG 0.00  A 
ATOM     45  CZ3 TRP E   1      10.281 -12.032  -3.457  1.00 13.61 LIG 0.00  A 
ATOM     46  CE3 TRP E   1      11.180 -11.819  -2.420  1.00 14.26 LIG 0.01  A 
ENDBRANCH 36 37
ENDBRANCH 30 36
ENDBRANCH 28 30
ENDBRANCH 1 26
TORSDOF 14
ENDMDL
MODEL 8
USER: ADFR SOLUTION from run 68
USER: SCORE 13.050378 LL:  -2.993 LR: -11.768 RR:   0.000 FEB:  -7.592
USER: RMSD 4.363398
USER: SEED 67
USER: STATUS no improvement in best in 17 clusters for 5 generations
USER: GENES 16
USER: genes 0 Translation |==|  0.50054 0.40126 0.32297
USER: genes 1 Rotation |==|  0.61748 0.89163 0.33342 0.73467
USER: genes 2 Torsion [N]-CA--C-[N] |==|  0.35726
USER: genes 3 Torsion [C]-N--CA-[C] |==|  0.54600
USER: genes 4 Torsion [N]-CA--C-[N] |==|  0.63822
USER: genes 5 Torsion [C]-N--CA-[C] |==|  0.74095
USER: genes 6 Torsion [N]-CA--C-[N] |==|  0.40458
USER: genes 7 Torsion [N]-CA--CB-[CG2] |==|  0.64757
USER: genes 8 Torsion [CA]-CB--OG1-[HG1] |==|  0.50899
USER: genes 9 Torsion [C]-CA--CB-[CG] |==|  0.67365
USER: genes 10 Torsion [CA]-CB--CG-[ND1] |==|  0.18582
USER: genes 11 Torsion [C]-CA--N-[C] |==|  0.85539
USER: genes 12 Torsion [N]-C--CA-[N] |==|  0.16015
USER: genes 13 Torsion [C]-CA--N-[C] |==|  0.75556
USER: genes 14 Torsion [C]-CA--CB-[CG] |==|  0.66629
USER: genes 15 Torsion [CA]-CB--CG-[CD1] |==|  0.78206
ROOT
ATOM      1  CA  HIS E   2      15.166 -10.639  -0.546  1.00 14.20 LIG 0.18  C 
ENDROOT
BRANCH 1 2
ATOM      2  C   HIS E   2      15.264 -10.979   0.938  1.00 15.34 LIG 0.24  C 
ATOM      3 O    HIS E   2      16.356 -11.063   1.509  1.00 13.21 LIG-0.27  OA
ATOM      4  N   THR E   3      14.102 -11.203   1.552  1.00 14.85 LIG-0.34  N 
ATOM      5 H    THR E   3      13.332 -11.102   1.183  1.00 14.85 LIG 0.16  HD
BRANCH 4 6
ATOM      6  CA  THR E   3      14.061 -11.651   2.939  1.00 13.22 LIG 0.20  C 
BRANCH 6 7
ATOM      7  C   THR E   3      12.689 -12.219   3.279  1.00 13.63 LIG 0.24  C 
ATOM      8  N   ALA E   4      12.119 -11.754   4.390  1.00  8.98 LIG-0.35  N 
ATOM      9 H    ALA E   4      12.480 -11.171   4.908  1.00  8.98 LIG 0.16  HD
ATOM     10 O    THR E   3      12.156 -13.067   2.558  1.00 14.15 LIG-0.27  OA
BRANCH 8 11
ATOM     11  CA  ALA E   4      10.800 -12.213   4.821  1.00 15.48 LIG 0.18  C 
ATOM     12  CB  ALA E   4      10.749 -12.315   6.336  1.00 13.80 LIG 0.04  C 
BRANCH 11 13
ATOM     13  C   ALA E   4       9.672 -11.311   4.314  1.00 23.80 LIG 0.28  C 
ATOM     14 O    ALA E   4       9.848 -10.097   4.192  1.00 30.75 LIG-0.27  OA
ATOM     15  N   NH2 E 101       8.520 -11.902   4.009  1.00 22.73 LIG-0.11  N 
ENDBRANCH 11 13
ENDBRANCH 8 11
ENDBRANCH 6 7
BRANCH 6 16
ATOM     16  CB  THR E   3      14.387 -10.493   3.882  1.00 20.99 LIG 0.15  C 
ATOM     17  CG2 THR E   3      15.520 -10.883   4.832  1.00 14.08 LIG 0.04  C 
BRANCH 16 18
ATOM     18 OG1  THR E   3      14.781  -9.354   3.112  1.00 27.33 LIG-0.39  OA
ATOM     19 HG1  THR E   3      15.003  -8.730   3.628  1.00 27.33 LIG 0.21  HD
ENDBRANCH 16 18
ENDBRANCH 6 16
ENDBRANCH 4 6
ENDBRANCH 1 2
BRANCH 1 20
ATOM     20  CB  HIS E   2      15.681 -11.832  -1.363  1.00 18.36 LIG 0.10  C 
BRANCH 20 21
ATOM     21  CG  HIS E   2      16.891 -11.532  -2.191  1.00 23.43 LIG 0.06  A 
ATOM     22  CD2 HIS E   2      17.068 -11.501  -3.533  1.00 23.79 LIG 0.14  A 
ATOM     23 NE2  HIS E   2      18.386 -11.189  -3.759  1.00 23.75 LIG-0.25  NA
ATOM     24  CE1 HIS E   2      18.997 -11.036  -2.598  1.00 26.05 LIG 0.23  A 
ATOM     25 ND1  HIS E   2      18.118 -11.242  -1.633  1.00 21.22 LIG-0.24  NA
ENDBRANCH 20 21
ENDBRANCH 1 20
BRANCH 1 26
ATOM     26  N   HIS E   2      15.916  -9.417  -0.822  1.00 15.97 LIG-0.35  N 
ATOM     27 H    HIS E   2      16.483  -9.491  -1.464  1.00 15.97 LIG 0.16  HD
ATOM     28  C   TRP E   1      15.729  -8.291  -0.129  1.00 12.03 LIG 0.24  C 
ATOM     29 O    TRP E   1      14.882  -8.183   0.765  1.00 13.67 LIG-0.27  OA
BRANCH 28 30
ATOM     30  CA  TRP E   1      16.650  -7.125  -0.468  1.00  9.26 LIG 0.18  C 
BRANCH 30 31
ATOM     31  N   TRP E   1      16.594  -6.719  -1.874  1.00 13.05 LIG-0.35  N 
ATOM     32 H    TRP E   1      16.020  -6.099  -2.028  1.00 13.05 LIG 0.16  HD
ATOM     33  C   ACE E   0      17.355  -7.256  -2.827  1.00 12.60 LIG 0.21  C 
ATOM     34  CH3 ACE E   0      17.154  -6.698  -4.221  1.00  6.27 LIG 0.12  C 
ATOM     35 O    ACE E   0      18.169  -8.147  -2.587  1.00 15.02 LIG-0.27  OA
ENDBRANCH 30 31
BRANCH 30 36
ATOM     36  CB  TRP E   1      16.304  -5.937   0.424  1.00 10.27 LIG 0.07  C 
BRANCH 36 37
ATOM     37  CG  TRP E   1      15.881  -4.712  -0.334  1.00  6.62 LIG-0.03  A 
ATOM     38  CD1 TRP E   1      16.689  -3.818  -0.980  1.00  7.94 LIG 0.10  A 
ATOM     39  NE1 TRP E   1      15.927  -2.822  -1.563  1.00 10.26 LIG-0.36  N 
ATOM     40  CE2 TRP E   1      14.606  -3.064  -1.289  1.00  6.86 LIG 0.04  A 
ATOM     41 HE1  TRP E   1      16.231  -2.161  -2.022  1.00 10.26 LIG 0.17  HD
ATOM     42  CZ2 TRP E   1      13.465  -2.348  -1.654  1.00  8.31 LIG 0.03  A 
ATOM     43  CD2 TRP E   1      14.542  -4.248  -0.515  1.00  9.88 LIG-0.00  A 
ATOM     44  CH2 TRP E   1      12.253  -2.843  -1.242  1.00 13.27 LIG 0.00  A 
ATOM     45  CZ3 TRP E   1      12.156  -4.011  -0.474  1.00 13.61 LIG 0.00  A 
ATOM     46  CE3 TRP E   1      13.291  -4.723  -0.108  1.00 14.26 LIG 0.01  A 
ENDBRANCH 36 37
ENDBRANCH 30 36
ENDBRANCH 28 30
ENDBRANCH 1 26
TORSDOF 14
ENDMDL
MODEL 9
USER: ADFR SOLUTION from run 15
USER: SCORE 12.707234 LL:  -2.831 LR: -11.680 RR:   0.000 FEB:  -7.504
USER: RMSD 5.583081
USER: SEED 929431
USER: STATUS no improvement in best in 17 clusters for 5 generations
USER: GENES 16
USER: genes 0 Translation |==|  0.66448 0.62537 0.52511
USER: genes 1 Rotation |==|  0.20044 0.68322 0.67542 0.80972
USER: genes 2 Torsion [N]-CA--C-[N] |==|  0.01885
USER: genes 3 Torsion [C]-N--CA-[C] |==|  0.58079
USER: genes 4 Torsion [N]-CA--C-[N] |==|  0.45544
USER: genes 5 Torsion [C]-N--CA-[C] |==|  0.69774
USER: genes 6 Torsion [N]-CA--C-[N] |==|  0.38836
USER: genes 7 Torsion [N]-CA--CB-[CG2] |==|  0.54485
USER: genes 8 Torsion [CA]-CB--OG1-[HG1] |==|  0.89573
USER: genes 9 Torsion [C]-CA--CB-[CG] |==|  0.33825
USER: genes 10 Torsion [CA]-CB--CG-[ND1] |==|  0.97416
USER: genes 11 Torsion [C]-CA--N-[C] |==|  0.51217
USER: genes 12 Torsion [N]-C--CA-[N] |==|  0.86303
USER: genes 13 Torsion [C]-CA--N-[C] |==|  0.77971
USER: genes 14 Torsion [C]-CA--CB-[CG] |==|  0.22131
USER: genes 15 Torsion [CA]-CB--CG-[CD1] |==|  0.90915
ROOT
ATOM      1  CA  HIS E   2      18.363  -5.932   2.941  1.00 14.20 LIG 0.18  C 
ENDROOT
BRANCH 1 2
ATOM      2  C   HIS E   2      18.216  -6.140   4.445  1.00 15.34 LIG 0.24  C 
ATOM      3 O    HIS E   2      19.118  -5.831   5.229  1.00 13.21 LIG-0.27  OA
ATOM      4  N   THR E   3      17.070  -6.697   4.836  1.00 14.85 LIG-0.34  N 
ATOM      5 H    THR E   3      16.412  -6.874   4.311  1.00 14.85 LIG 0.16  HD
BRANCH 4 6
ATOM      6  CA  THR E   3      16.849  -7.057   6.233  1.00 13.22 LIG 0.20  C 
BRANCH 6 7
ATOM      7  C   THR E   3      15.897  -8.242   6.338  1.00 13.63 LIG 0.24  C 
ATOM      8  N   ALA E   4      15.871  -8.873   7.510  1.00  8.98 LIG-0.35  N 
ATOM      9 H    ALA E   4      16.355  -8.652   8.186  1.00  8.98 LIG 0.16  HD
ATOM     10 O    THR E   3      15.204  -8.586   5.377  1.00 14.15 LIG-0.27  OA
BRANCH 8 11
ATOM     11  CA  ALA E   4      14.994 -10.019   7.741  1.00 15.48 LIG 0.18  C 
ATOM     12  CB  ALA E   4      15.793 -11.191   8.286  1.00 13.80 LIG 0.04  C 
BRANCH 11 13
ATOM     13  C   ALA E   4      13.834  -9.687   8.684  1.00 23.80 LIG 0.28  C 
ATOM     14 O    ALA E   4      14.014  -8.967   9.668  1.00 30.75 LIG-0.27  OA
ATOM     15  N   NH2 E 101      12.645 -10.200   8.378  1.00 22.73 LIG-0.11  N 
ENDBRANCH 11 13
ENDBRANCH 8 11
ENDBRANCH 6 7
BRANCH 6 16
ATOM     16  CB  THR E   3      16.279  -5.868   7.005  1.00 20.99 LIG 0.15  C 
ATOM     17  CG2 THR E   3      16.419  -6.094   8.510  1.00 14.08 LIG 0.04  C 
BRANCH 16 18
ATOM     18 OG1  THR E   3      16.986  -4.682   6.633  1.00 27.33 LIG-0.39  OA
ATOM     19 HG1  THR E   3      17.798  -4.862   6.521  1.00 27.33 LIG 0.21  HD
ENDBRANCH 16 18
ENDBRANCH 6 16
ENDBRANCH 4 6
ENDBRANCH 1 2
BRANCH 1 20
ATOM     20  CB  HIS E   2      18.797  -4.483   2.680  1.00 18.36 LIG 0.10  C 
BRANCH 20 21
ATOM     21  CG  HIS E   2      20.088  -4.354   1.934  1.00 23.43 LIG 0.06  A 
ATOM     22  CD2 HIS E   2      20.685  -3.280   1.364  1.00 23.79 LIG 0.14  A 
ATOM     23 NE2  HIS E   2      21.850  -3.724   0.790  1.00 23.75 LIG-0.25  NA
ATOM     24  CE1 HIS E   2      21.965  -5.023   0.998  1.00 26.05 LIG 0.23  A 
ATOM     25 ND1  HIS E   2      20.911  -5.431   1.683  1.00 21.22 LIG-0.24  NA
ENDBRANCH 20 21
ENDBRANCH 1 20
BRANCH 1 26
ATOM     26  N   HIS E   2      17.108  -6.261   2.273  1.00 15.97 LIG-0.35  N 
ATOM     27 H    HIS E   2      16.467  -6.460   2.810  1.00 15.97 LIG 0.16  HD
ATOM     28  C   TRP E   1      16.982  -6.251   0.943  1.00 12.03 LIG 0.24  C 
ATOM     29 O    TRP E   1      17.898  -5.922   0.182  1.00 13.67 LIG-0.27  OA
BRANCH 28 30
ATOM     30  CA  TRP E   1      15.639  -6.707   0.386  1.00  9.26 LIG 0.18  C 
BRANCH 30 31
ATOM     31  N   TRP E   1      15.171  -7.978   0.943  1.00 13.05 LIG-0.35  N 
ATOM     32 H    TRP E   1      14.576  -7.884   1.557  1.00 13.05 LIG 0.16  HD
ATOM     33  C   ACE E   0      15.618  -9.168   0.544  1.00 12.60 LIG 0.21  C 
ATOM     34  CH3 ACE E   0      15.007 -10.367   1.238  1.00  6.27 LIG 0.12  C 
ATOM     35 O    ACE E   0      16.473  -9.282  -0.334  1.00 15.02 LIG-0.27  OA
ENDBRANCH 30 31
BRANCH 30 36
ATOM     36  CB  TRP E   1      14.597  -5.621   0.635  1.00 10.27 LIG 0.07  C 
BRANCH 36 37
ATOM     37  CG  TRP E   1      14.657  -4.486  -0.346  1.00  6.62 LIG-0.03  A 
ATOM     38  CD1 TRP E   1      15.768  -3.985  -0.966  1.00  7.94 LIG 0.10  A 
ATOM     39  NE1 TRP E   1      15.417  -2.941  -1.801  1.00 10.26 LIG-0.36  N 
ATOM     40  CE2 TRP E   1      14.062  -2.752  -1.721  1.00  6.86 LIG 0.04  A 
ATOM     41 HE1  TRP E   1      15.958  -2.485  -2.290  1.00 10.26 LIG 0.17  HD
ATOM     42  CZ2 TRP E   1      13.241  -1.826  -2.367  1.00  8.31 LIG 0.03  A 
ATOM     43  CD2 TRP E   1      13.552  -3.710  -0.811  1.00  9.88 LIG-0.00  A 
ATOM     44  CH2 TRP E   1      11.897  -1.881  -2.099  1.00 13.27 LIG 0.00  A 
ATOM     45  CZ3 TRP E   1      11.361  -2.816  -1.203  1.00 13.61 LIG 0.00  A 
ATOM     46  CE3 TRP E   1      12.177  -3.736  -0.557  1.00 14.26 LIG 0.01  A 
ENDBRANCH 36 37
ENDBRANCH 30 36
ENDBRANCH 28 30
ENDBRANCH 1 26
TORSDOF 14
ENDMDL
MODEL 10
USER: ADFR SOLUTION from run 39
USER: SCORE 13.467433 LL:  -3.022 LR: -11.598 RR:   0.000 FEB:  -7.422
USER: RMSD 6.345682
USER: SEED 38
USER: STATUS no improvement in best in 22 clusters for 5 generations
USER: GENES 16
USER: genes 0 Translation |==|  0.52616 0.51042 0.40465
USER: genes 1 Rotation |==|  0.52670 0.92951 0.26209 0.59061
USER: genes 2 Torsion [N]-CA--C-[N] |==|  0.37944
USER: genes 3 Torsion [C]-N--CA-[C] |==|  0.16363
USER: genes 4 Torsion [N]-CA--C-[N] |==|  0.10243
USER: genes 5 Torsion [C]-N--CA-[C] |==|  0.64981
USER: genes 6 Torsion [N]-CA--C-[N] |==|  0.62355
USER: genes 7 Torsion [N]-CA--CB-[CG2] |==|  0.62099
USER: genes 8 Torsion [CA]-CB--OG1-[HG1] |==|  0.38380
USER: genes 9 Torsion [C]-CA--CB-[CG] |==|  0.22775
USER: genes 10 Torsion [CA]-CB--CG-[ND1] |==|  0.00969
USER: genes 11 Torsion [C]-CA--N-[C] |==|  0.86817
USER: genes 12 Torsion [N]-C--CA-[N] |==|  0.03310
USER: genes 13 Torsion [C]-CA--N-[C] |==|  0.65005
USER: genes 14 Torsion [C]-CA--CB-[CG] |==|  0.83908
USER: genes 15 Torsion [CA]-CB--CG-[CD1] |==|  0.13974
ROOT
ATOM      1  CA  HIS E   2      15.666  -8.346   0.863  1.00 14.20 LIG 0.18  C 
ENDROOT
BRANCH 1 2
ATOM      2  C   HIS E   2      16.742  -8.403   1.943  1.00 15.34 LIG 0.24  C 
ATOM      3 O    HIS E   2      17.941  -8.316   1.661  1.00 13.21 LIG-0.27  OA
ATOM      4  N   THR E   3      16.297  -8.580   3.186  1.00 14.85 LIG-0.34  N 
ATOM      5 H    THR E   3      15.466  -8.594   3.406  1.00 14.85 LIG 0.16  HD
BRANCH 4 6
ATOM      6  CA  THR E   3      17.225  -8.768   4.295  1.00 13.22 LIG 0.20  C 
BRANCH 6 7
ATOM      7  C   THR E   3      18.163  -7.574   4.420  1.00 13.63 LIG 0.24  C 
ATOM      8  N   ALA E   4      17.631  -6.380   4.164  1.00  8.98 LIG-0.35  N 
ATOM      9 H    ALA E   4      16.811  -6.257   3.935  1.00  8.98 LIG 0.16  HD
ATOM     10 O    THR E   3      19.347  -7.726   4.733  1.00 14.15 LIG-0.27  OA
BRANCH 8 11
ATOM     11  CA  ALA E   4      18.424  -5.155   4.257  1.00 15.48 LIG 0.18  C 
ATOM     12  CB  ALA E   4      18.649  -4.569   2.874  1.00 13.80 LIG 0.04  C 
BRANCH 11 13
ATOM     13  C   ALA E   4      17.781  -4.111   5.175  1.00 23.80 LIG 0.28  C 
ATOM     14 O    ALA E   4      17.321  -4.440   6.270  1.00 30.75 LIG-0.27  OA
ATOM     15  N   NH2 E 101      17.759  -2.856   4.735  1.00 22.73 LIG-0.11  N 
ENDBRANCH 11 13
ENDBRANCH 8 11
ENDBRANCH 6 7
BRANCH 6 16
ATOM     16  CB  THR E   3      18.042 -10.045   4.095  1.00 20.99 LIG 0.15  C 
ATOM     17  CG2 THR E   3      18.139 -10.827   5.405  1.00 14.08 LIG 0.04  C 
BRANCH 16 18
ATOM     18 OG1  THR E   3      17.411 -10.856   3.100  1.00 27.33 LIG-0.39  OA
ATOM     19 HG1  THR E   3      17.995 -11.180   2.591  1.00 27.33 LIG 0.21  HD
ENDBRANCH 16 18
ENDBRANCH 6 16
ENDBRANCH 4 6
ENDBRANCH 1 2
BRANCH 1 20
ATOM     20  CB  HIS E   2      15.592  -9.710   0.164  1.00 18.36 LIG 0.10  C 
BRANCH 20 21
ATOM     21  CG  HIS E   2      14.778 -10.732   0.895  1.00 23.43 LIG 0.06  A 
ATOM     22  CD2 HIS E   2      14.520 -12.032   0.617  1.00 23.79 LIG 0.14  A 
ATOM     23 NE2  HIS E   2      13.697 -12.501   1.612  1.00 23.75 LIG-0.25  NA
ATOM     24  CE1 HIS E   2      13.457 -11.524   2.468  1.00 26.05 LIG 0.23  A 
ATOM     25 ND1  HIS E   2      14.095 -10.442   2.057  1.00 21.22 LIG-0.24  NA
ENDBRANCH 20 21
ENDBRANCH 1 20
BRANCH 1 26
ATOM     26  N   HIS E   2      15.961  -7.263  -0.070  1.00 15.97 LIG-0.35  N 
ATOM     27 H    HIS E   2      15.904  -7.489  -0.898  1.00 15.97 LIG 0.16  HD
ATOM     28  C   TRP E   1      16.289  -6.036   0.340  1.00 12.03 LIG 0.24  C 
ATOM     29 O    TRP E   1      16.327  -5.711   1.531  1.00 13.67 LIG-0.27  OA
BRANCH 28 30
ATOM     30  CA  TRP E   1      16.661  -5.034  -0.748  1.00  9.26 LIG 0.18  C 
BRANCH 30 31
ATOM     31  N   TRP E   1      16.338  -5.488  -2.102  1.00 13.05 LIG-0.35  N 
ATOM     32 H    TRP E   1      15.516  -5.723  -2.197  1.00 13.05 LIG 0.16  HD
ATOM     33  C   ACE E   0      17.225  -5.536  -3.095  1.00 12.60 LIG 0.21  C 
ATOM     34  CH3 ACE E   0      16.696  -6.030  -4.426  1.00  6.27 LIG 0.12  C 
ATOM     35 O    ACE E   0      18.398  -5.198  -2.939  1.00 15.02 LIG-0.27  OA
ENDBRANCH 30 31
BRANCH 30 36
ATOM     36  CB  TRP E   1      15.961  -3.708  -0.469  1.00 10.27 LIG 0.07  C 
BRANCH 36 37
ATOM     37  CG  TRP E   1      14.465  -3.817  -0.394  1.00  6.62 LIG-0.03  A 
ATOM     38  CD1 TRP E   1      13.735  -4.705   0.347  1.00  7.94 LIG 0.10  A 
ATOM     39  NE1 TRP E   1      12.383  -4.489   0.152  1.00 10.26 LIG-0.36  N 
ATOM     40  CE2 TRP E   1      12.228  -3.453  -0.732  1.00  6.86 LIG 0.04  A 
ATOM     41 HE1  TRP E   1      11.746  -4.931   0.524  1.00 10.26 LIG 0.17  HD
ATOM     42  CZ2 TRP E   1      11.066  -2.871  -1.242  1.00  8.31 LIG 0.03  A 
ATOM     43  CD2 TRP E   1      13.521  -3.007  -1.097  1.00  9.88 LIG-0.00  A 
ATOM     44  CH2 TRP E   1      11.217  -1.823  -2.114  1.00 13.27 LIG 0.00  A 
ATOM     45  CZ3 TRP E   1      12.483  -1.359  -2.496  1.00 13.61 LIG 0.00  A 
ATOM     46  CE3 TRP E   1      13.640  -1.939  -1.992  1.00 14.26 LIG 0.01  A 
ENDBRANCH 36 37
ENDBRANCH 30 36
ENDBRANCH 28 30
ENDBRANCH 1 26
TORSDOF 14
ENDMDL
MODEL 11
USER: ADFR SOLUTION from run 117
USER: SCORE 14.082219 LL:  -3.312 LR: -11.565 RR:   0.000 FEB:  -7.389
USER: RMSD 4.291584
USER: SEED 116
USER: STATUS no improvement in best in 15 clusters for 5 generations
USER: GENES 16
USER: genes 0 Translation |==|  0.49434 0.42771 0.42801
USER: genes 1 Rotation |==|  0.65555 0.89598 0.31831 0.68972
USER: genes 2 Torsion [N]-CA--C-[N] |==|  0.20556
USER: genes 3 Torsion [C]-N--CA-[C] |==|  0.72804
USER: genes 4 Torsion [N]-CA--C-[N] |==|  0.02719
USER: genes 5 Torsion [C]-N--CA-[C] |==|  0.69553
USER: genes 6 Torsion [N]-CA--C-[N] |==|  0.43140
USER: genes 7 Torsion [N]-CA--CB-[CG2] |==|  0.55985
USER: genes 8 Torsion [CA]-CB--OG1-[HG1] |==|  0.15088
USER: genes 9 Torsion [C]-CA--CB-[CG] |==|  0.24820
USER: genes 10 Torsion [CA]-CB--CG-[ND1] |==|  0.29573
USER: genes 11 Torsion [C]-CA--N-[C] |==|  0.68038
USER: genes 12 Torsion [N]-C--CA-[N] |==|  0.95095
USER: genes 13 Torsion [C]-CA--N-[C] |==|  0.80994
USER: genes 14 Torsion [C]-CA--CB-[CG] |==|  0.30187
USER: genes 15 Torsion [CA]-CB--CG-[CD1] |==|  0.34096
ROOT
ATOM      1  CA  HIS E   2      15.046 -10.083   1.266  1.00 14.20 LIG 0.18  C 
ENDROOT
BRANCH 1 2
ATOM      2  C   HIS E   2      15.225 -10.558   2.705  1.00 15.34 LIG 0.24  C 
ATOM      3 O    HIS E   2      15.740 -11.650   2.962  1.00 13.21 LIG-0.27  OA
ATOM      4  N   THR E   3      14.764  -9.730   3.642  1.00 14.85 LIG-0.34  N 
ATOM      5 H    THR E   3      14.447  -8.947   3.484  1.00 14.85 LIG 0.16  HD
BRANCH 4 6
ATOM      6  CA  THR E   3      14.767 -10.115   5.049  1.00 13.22 LIG 0.20  C 
BRANCH 6 7
ATOM      7  C   THR E   3      13.397 -10.635   5.467  1.00 13.63 LIG 0.24  C 
ATOM      8  N   ALA E   4      12.523 -10.844   4.484  1.00  8.98 LIG-0.35  N 
ATOM      9 H    ALA E   4      12.690 -10.699   3.653  1.00  8.98 LIG 0.16  HD
ATOM     10 O    THR E   3      13.131 -10.837   6.654  1.00 14.15 LIG-0.27  OA
BRANCH 8 11
ATOM     11  CA  ALA E   4      11.178 -11.350   4.753  1.00 15.48 LIG 0.18  C 
ATOM     12  CB  ALA E   4      10.139 -10.440   4.121  1.00 13.80 LIG 0.04  C 
BRANCH 11 13
ATOM     13  C   ALA E   4      10.987 -12.789   4.266  1.00 23.80 LIG 0.28  C 
ATOM     14 O    ALA E   4      11.690 -13.242   3.360  1.00 30.75 LIG-0.27  OA
ATOM     15  N   NH2 E 101      10.046 -13.509   4.871  1.00 22.73 LIG-0.11  N 
ENDBRANCH 11 13
ENDBRANCH 8 11
ENDBRANCH 6 7
BRANCH 6 16
ATOM     16  CB  THR E   3      15.155  -8.924   5.926  1.00 20.99 LIG 0.15  C 
ATOM     17  CG2 THR E   3      15.674  -9.406   7.280  1.00 14.08 LIG 0.04  C 
BRANCH 16 18
ATOM     18 OG1  THR E   3      16.172  -8.165   5.267  1.00 27.33 LIG-0.39  OA
ATOM     19 HG1  THR E   3      15.911  -7.954   4.497  1.00 27.33 LIG 0.21  HD
ENDBRANCH 16 18
ENDBRANCH 6 16
ENDBRANCH 4 6
ENDBRANCH 1 2
BRANCH 1 20
ATOM     20  CB  HIS E   2      15.215 -11.282   0.323  1.00 18.36 LIG 0.10  C 
BRANCH 20 21
ATOM     21  CG  HIS E   2      13.946 -12.025   0.041  1.00 23.43 LIG 0.06  A 
ATOM     22  CD2 HIS E   2      13.228 -12.883   0.804  1.00 23.79 LIG 0.14  A 
ATOM     23 NE2  HIS E   2      12.156 -13.292   0.048  1.00 23.75 LIG-0.25  NA
ATOM     24  CE1 HIS E   2      12.216 -12.709  -1.135  1.00 26.05 LIG 0.23  A 
ATOM     25 ND1  HIS E   2      13.290 -11.940  -1.168  1.00 21.22 LIG-0.24  NA
ENDBRANCH 20 21
ENDBRANCH 1 20
BRANCH 1 26
ATOM     26  N   HIS E   2      15.998  -9.015   0.977  1.00 15.97 LIG-0.35  N 
ATOM     27 H    HIS E   2      16.821  -9.264   0.999  1.00 15.97 LIG 0.16  HD
ATOM     28  C   TRP E   1      15.611  -7.767   0.704  1.00 12.03 LIG 0.24  C 
ATOM     29 O    TRP E   1      14.425  -7.429   0.633  1.00 13.67 LIG-0.27  OA
BRANCH 28 30
ATOM     30  CA  TRP E   1      16.721  -6.739   0.515  1.00  9.26 LIG 0.18  C 
BRANCH 30 31
ATOM     31  N   TRP E   1      18.015  -7.164   1.053  1.00 13.05 LIG-0.35  N 
ATOM     32 H    TRP E   1      18.605  -7.314   0.446  1.00 13.05 LIG 0.16  HD
ATOM     33  C   ACE E   0      18.263  -7.306   2.354  1.00 12.60 LIG 0.21  C 
ATOM     34  CH3 ACE E   0      19.666  -7.750   2.712  1.00  6.27 LIG 0.12  C 
ATOM     35 O    ACE E   0      17.405  -7.089   3.209  1.00 15.02 LIG-0.27  OA
ENDBRANCH 30 31
BRANCH 30 36
ATOM     36  CB  TRP E   1      16.860  -6.419  -0.969  1.00 10.27 LIG 0.07  C 
BRANCH 36 37
ATOM     37  CG  TRP E   1      16.372  -5.049  -1.343  1.00  6.62 LIG-0.03  A 
ATOM     38  CD1 TRP E   1      17.082  -4.056  -1.959  1.00  7.94 LIG 0.10  A 
ATOM     39  NE1 TRP E   1      16.285  -2.940  -2.136  1.00 10.26 LIG-0.36  N 
ATOM     40  CE2 TRP E   1      15.042  -3.203  -1.622  1.00  6.86 LIG 0.04  A 
ATOM     41 HE1  TRP E   1      16.529  -2.203  -2.507  1.00 10.26 LIG 0.17  HD
ATOM     42  CZ2 TRP E   1      13.904  -2.398  -1.560  1.00  8.31 LIG 0.03  A 
ATOM     43  CD2 TRP E   1      15.063  -4.524  -1.114  1.00  9.88 LIG-0.00  A 
ATOM     44  CH2 TRP E   1      12.779  -2.940  -0.992  1.00 13.27 LIG 0.00  A 
ATOM     45  CZ3 TRP E   1      12.768  -4.244  -0.479  1.00 13.61 LIG 0.00  A 
ATOM     46  CE3 TRP E   1      13.900  -5.045  -0.537  1.00 14.26 LIG 0.01  A 
ENDBRANCH 36 37
ENDBRANCH 30 36
ENDBRANCH 28 30
ENDBRANCH 1 26
TORSDOF 14
ENDMDL
MODEL 12
USER: ADFR SOLUTION from run 182
USER: SCORE 13.401563 LL:  -2.814 LR: -11.539 RR:   0.000 FEB:  -7.363
USER: RMSD 5.568438
USER: SEED 181
USER: STATUS no improvement in best in 21 clusters for 5 generations
USER: GENES 16
USER: genes 0 Translation |==|  0.44332 0.35907 0.34449
USER: genes 1 Rotation |==|  0.65576 0.85129 0.21235 0.63997
USER: genes 2 Torsion [N]-CA--C-[N] |==|  0.39812
USER: genes 3 Torsion [C]-N--CA-[C] |==|  0.56973
USER: genes 4 Torsion [N]-CA--C-[N] |==|  0.06628
USER: genes 5 Torsion [C]-N--CA-[C] |==|  0.14602
USER: genes 6 Torsion [N]-CA--C-[N] |==|  0.13497
USER: genes 7 Torsion [N]-CA--CB-[CG2] |==|  0.64006
USER: genes 8 Torsion [CA]-CB--OG1-[HG1] |==|  0.45660
USER: genes 9 Torsion [C]-CA--CB-[CG] |==|  0.40720
USER: genes 10 Torsion [CA]-CB--CG-[ND1] |==|  0.93902
USER: genes 11 Torsion [C]-CA--N-[C] |==|  0.83887
USER: genes 12 Torsion [N]-C--CA-[N] |==|  0.89047
USER: genes 13 Torsion [C]-CA--N-[C] |==|  0.82911
USER: genes 14 Torsion [C]-CA--CB-[CG] |==|  0.32879
USER: genes 15 Torsion [CA]-CB--CG-[CD1] |==|  0.33294
ROOT
ATOM      1  CA  HIS E   2      14.051 -11.524  -0.174  1.00 14.20 LIG 0.18  C 
ENDROOT
BRANCH 1 2
ATOM      2  C   HIS E   2      14.482 -11.584   1.288  1.00 15.34 LIG 0.24  C 
ATOM      3 O    HIS E   2      15.640 -11.868   1.606  1.00 13.21 LIG-0.27  OA
ATOM      4  N   THR E   3      13.521 -11.338   2.178  1.00 14.85 LIG-0.34  N 
ATOM      5 H    THR E   3      12.723 -11.092   1.975  1.00 14.85 LIG 0.16  HD
BRANCH 4 6
ATOM      6  CA  THR E   3      13.771 -11.477   3.608  1.00 13.22 LIG 0.20  C 
BRANCH 6 7
ATOM      7  C   THR E   3      12.473 -11.757   4.356  1.00 13.63 LIG 0.24  C 
ATOM      8  N   ALA E   4      11.490 -12.304   3.643  1.00  8.98 LIG-0.35  N 
ATOM      9 H    ALA E   4      11.551 -12.496   2.807  1.00  8.98 LIG 0.16  HD
ATOM     10 O    THR E   3      12.357 -11.477   5.552  1.00 14.15 LIG-0.27  OA
BRANCH 8 11
ATOM     11  CA  ALA E   4      10.199 -12.629   4.246  1.00 15.48 LIG 0.18  C 
ATOM     12  CB  ALA E   4      10.341 -13.811   5.189  1.00 13.80 LIG 0.04  C 
BRANCH 11 13
ATOM     13  C   ALA E   4       9.581 -11.437   4.982  1.00 23.80 LIG 0.28  C 
ATOM     14 O    ALA E   4       9.151 -11.565   6.130  1.00 30.75 LIG-0.27  OA
ATOM     15  N   NH2 E 101       9.546 -10.279   4.328  1.00 22.73 LIG-0.11  N 
ENDBRANCH 11 13
ENDBRANCH 8 11
ENDBRANCH 6 7
BRANCH 6 16
ATOM     16  CB  THR E   3      14.420 -10.209   4.161  1.00 20.99 LIG 0.15  C 
ATOM     17  CG2 THR E   3      15.669 -10.558   4.970  1.00 14.08 LIG 0.04  C 
BRANCH 16 18
ATOM     18 OG1  THR E   3      14.780  -9.352   3.074  1.00 27.33 LIG-0.39  OA
ATOM     19 HG1  THR E   3      14.935  -8.580   3.366  1.00 27.33 LIG 0.21  HD
ENDBRANCH 16 18
ENDBRANCH 6 16
ENDBRANCH 4 6
ENDBRANCH 1 2
BRANCH 1 20
ATOM     20  CB  HIS E   2      13.669 -12.937  -0.637  1.00 18.36 LIG 0.10  C 
BRANCH 20 21
ATOM     21  CG  HIS E   2      12.563 -12.975  -1.645  1.00 23.43 LIG 0.06  A 
ATOM     22  CD2 HIS E   2      12.230 -13.908  -2.569  1.00 23.79 LIG 0.14  A 
ATOM     23 NE2  HIS E   2      11.137 -13.430  -3.248  1.00 23.75 LIG-0.25  NA
ATOM     24  CE1 HIS E   2      10.811 -12.246  -2.761  1.00 26.05 LIG 0.23  A 
ATOM     25 ND1  HIS E   2      11.659 -11.945  -1.793  1.00 21.22 LIG-0.24  NA
ENDBRANCH 20 21
ENDBRANCH 1 20
BRANCH 1 26
ATOM     26  N   HIS E   2      15.123 -10.951  -0.982  1.00 15.97 LIG-0.35  N 
ATOM     27 H    HIS E   2      15.397 -11.464  -1.615  1.00 15.97 LIG 0.16  HD
ATOM     28  C   TRP E   1      15.624  -9.736  -0.745  1.00 12.03 LIG 0.24  C 
ATOM     29 O    TRP E   1      15.193  -8.990   0.141  1.00 13.67 LIG-0.27  OA
BRANCH 28 30
ATOM     30  CA  TRP E   1      16.804  -9.308  -1.611  1.00  9.26 LIG 0.18  C 
BRANCH 30 31
ATOM     31  N   TRP E   1      17.762 -10.384  -1.873  1.00 13.05 LIG-0.35  N 
ATOM     32 H    TRP E   1      17.842 -10.576  -2.707  1.00 13.05 LIG 0.16  HD
ATOM     33  C   ACE E   0      18.448 -11.010  -0.917  1.00 12.60 LIG 0.21  C 
ATOM     34  CH3 ACE E   0      19.396 -12.093  -1.390  1.00  6.27 LIG 0.12  C 
ATOM     35 O    ACE E   0      18.318 -10.724   0.272  1.00 15.02 LIG-0.27  OA
ENDBRANCH 30 31
BRANCH 30 36
ATOM     36  CB  TRP E   1      16.281  -8.752  -2.932  1.00 10.27 LIG 0.07  C 
BRANCH 36 37
ATOM     37  CG  TRP E   1      16.640  -7.314  -3.168  1.00  6.62 LIG-0.03  A 
ATOM     38  CD1 TRP E   1      17.374  -6.803  -4.203  1.00  7.94 LIG 0.10  A 
ATOM     39  NE1 TRP E   1      17.488  -5.431  -4.073  1.00 10.26 LIG-0.36  N 
ATOM     40  CE2 TRP E   1      16.828  -5.041  -2.937  1.00  6.86 LIG 0.04  A 
ATOM     41 HE1  TRP E   1      17.904  -4.908  -4.616  1.00 10.26 LIG 0.17  HD
ATOM     42  CZ2 TRP E   1      16.661  -3.771  -2.382  1.00  8.31 LIG 0.03  A 
ATOM     43  CD2 TRP E   1      16.282  -6.204  -2.342  1.00  9.88 LIG-0.00  A 
ATOM     44  CH2 TRP E   1      15.928  -3.680  -1.226  1.00 13.27 LIG 0.00  A 
ATOM     45  CZ3 TRP E   1      15.376  -4.812  -0.612  1.00 13.61 LIG 0.00  A 
ATOM     46  CE3 TRP E   1      15.543  -6.077  -1.162  1.00 14.26 LIG 0.01  A 
ENDBRANCH 36 37
ENDBRANCH 30 36
ENDBRANCH 28 30
ENDBRANCH 1 26
TORSDOF 14
ENDMDL
MODEL 13
USER: ADFR SOLUTION from run 73
USER: SCORE 13.867344 LL:  -3.127 LR: -11.516 RR:   0.000 FEB:  -7.339
USER: RMSD 3.065230
USER: SEED 72
USER: STATUS no improvement in best in 8 clusters for 5 generations
USER: GENES 16
USER: genes 0 Translation |==|  0.47354 0.41990 0.43829
USER: genes 1 Rotation |==|  0.64335 0.83105 0.40506 0.83293
USER: genes 2 Torsion [N]-CA--C-[N] |==|  0.40639
USER: genes 3 Torsion [C]-N--CA-[C] |==|  0.61453
USER: genes 4 Torsion [N]-CA--C-[N] |==|  0.35922
USER: genes 5 Torsion [C]-N--CA-[C] |==|  0.77804
USER: genes 6 Torsion [N]-CA--C-[N] |==|  0.95288
USER: genes 7 Torsion [N]-CA--CB-[CG2] |==|  0.36249
USER: genes 8 Torsion [CA]-CB--OG1-[HG1] |==|  0.50980
USER: genes 9 Torsion [C]-CA--CB-[CG] |==|  0.76677
USER: genes 10 Torsion [CA]-CB--CG-[ND1] |==|  0.11405
USER: genes 11 Torsion [C]-CA--N-[C] |==|  0.53516
USER: genes 12 Torsion [N]-C--CA-[N] |==|  0.11111
USER: genes 13 Torsion [C]-CA--N-[C] |==|  0.17662
USER: genes 14 Torsion [C]-CA--CB-[CG] |==|  0.32260
USER: genes 15 Torsion [CA]-CB--CG-[CD1] |==|  0.42604
ROOT
ATOM      1  CA  HIS E   2      14.640 -10.247   1.443  1.00 14.20 LIG 0.18  C 
ENDROOT
BRANCH 1 2
ATOM      2  C   HIS E   2      14.036 -10.765   2.745  1.00 15.34 LIG 0.24  C 
ATOM      3 O    HIS E   2      14.561 -10.528   3.837  1.00 13.21 LIG-0.27  OA
ATOM      4  N   THR E   3      12.936 -11.505   2.611  1.00 14.85 LIG-0.34  N 
ATOM      5 H    THR E   3      12.530 -11.640   1.865  1.00 14.85 LIG 0.16  HD
BRANCH 4 6
ATOM      6  CA  THR E   3      12.326 -12.158   3.764  1.00 13.22 LIG 0.20  C 
BRANCH 6 7
ATOM      7  C   THR E   3      11.868 -13.566   3.404  1.00 13.63 LIG 0.24  C 
ATOM      8  N   ALA E   4      12.265 -14.540   4.221  1.00  8.98 LIG-0.35  N 
ATOM      9 H    ALA E   4      12.755 -14.415   4.916  1.00  8.98 LIG 0.16  HD
ATOM     10 O    THR E   3      11.176 -13.771   2.403  1.00 14.15 LIG-0.27  OA
BRANCH 8 11
ATOM     11  CA  ALA E   4      11.885 -15.933   3.990  1.00 15.48 LIG 0.18  C 
ATOM     12  CB  ALA E   4      12.877 -16.866   4.662  1.00 13.80 LIG 0.04  C 
BRANCH 11 13
ATOM     13  C   ALA E   4      10.463 -16.238   4.469  1.00 23.80 LIG 0.28  C 
ATOM     14 O    ALA E   4       9.880 -17.255   4.088  1.00 30.75 LIG-0.27  OA
ATOM     15  N   NH2 E 101       9.912 -15.368   5.310  1.00 22.73 LIG-0.11  N 
ENDBRANCH 11 13
ENDBRANCH 8 11
ENDBRANCH 6 7
BRANCH 6 16
ATOM     16  CB  THR E   3      11.136 -11.343   4.269  1.00 20.99 LIG 0.15  C 
ATOM     17  CG2 THR E   3       9.913 -12.242   4.452  1.00 14.08 LIG 0.04  C 
BRANCH 16 18
ATOM     18 OG1  THR E   3      11.475 -10.739   5.520  1.00 27.33 LIG-0.39  OA
ATOM     19 HG1  THR E   3      10.808 -10.330   5.824  1.00 27.33 LIG 0.21  HD
ENDBRANCH 16 18
ENDBRANCH 6 16
ENDBRANCH 4 6
ENDBRANCH 1 2
BRANCH 1 20
ATOM     20  CB  HIS E   2      15.663 -11.269   0.929  1.00 18.36 LIG 0.10  C 
BRANCH 20 21
ATOM     21  CG  HIS E   2      17.023 -11.136   1.540  1.00 23.43 LIG 0.06  A 
ATOM     22  CD2 HIS E   2      18.259 -11.248   0.997  1.00 23.79 LIG 0.14  A 
ATOM     23 NE2  HIS E   2      19.164 -11.052   2.012  1.00 23.75 LIG-0.25  NA
ATOM     24  CE1 HIS E   2      18.508 -10.828   3.136  1.00 26.05 LIG 0.23  A 
ATOM     25 ND1  HIS E   2      17.212 -10.877   2.881  1.00 21.22 LIG-0.24  NA
ENDBRANCH 20 21
ENDBRANCH 1 20
BRANCH 1 26
ATOM     26  N   HIS E   2      15.236  -8.934   1.666  1.00 15.97 LIG-0.35  N 
ATOM     27 H    HIS E   2      15.319  -8.722   2.495  1.00 15.97 LIG 0.16  HD
ATOM     28  C   TRP E   1      15.615  -8.141   0.660  1.00 12.03 LIG 0.24  C 
ATOM     29 O    TRP E   1      15.531  -8.472  -0.528  1.00 13.67 LIG-0.27  OA
BRANCH 28 30
ATOM     30  CA  TRP E   1      16.135  -6.760   1.043  1.00  9.26 LIG 0.18  C 
BRANCH 30 31
ATOM     31  N   TRP E   1      16.985  -6.761   2.236  1.00 13.05 LIG-0.35  N 
ATOM     32 H    TRP E   1      16.656  -6.313   2.891  1.00 13.05 LIG 0.16  HD
ATOM     33  C   ACE E   0      18.156  -7.394   2.306  1.00 12.60 LIG 0.21  C 
ATOM     34  CH3 ACE E   0      18.885  -7.281   3.629  1.00  6.27 LIG 0.12  C 
ATOM     35 O    ACE E   0      18.612  -8.028   1.356  1.00 15.02 LIG-0.27  OA
ENDBRANCH 30 31
BRANCH 30 36
ATOM     36  CB  TRP E   1      16.902  -6.168  -0.135  1.00 10.27 LIG 0.07  C 
BRANCH 36 37
ATOM     37  CG  TRP E   1      16.278  -4.925  -0.701  1.00  6.62 LIG-0.03  A 
ATOM     38  CD1 TRP E   1      16.911  -3.911  -1.365  1.00  7.94 LIG 0.10  A 
ATOM     39  NE1 TRP E   1      15.996  -2.941  -1.734  1.00 10.26 LIG-0.36  N 
ATOM     40  CE2 TRP E   1      14.754  -3.322  -1.298  1.00  6.86 LIG 0.04  A 
ATOM     41 HE1  TRP E   1      16.177  -2.218  -2.164  1.00 10.26 LIG 0.17  HD
ATOM     42  CZ2 TRP E   1      13.520  -2.681  -1.424  1.00  8.31 LIG 0.03  A 
ATOM     43  CD2 TRP E   1      14.896  -4.568  -0.643  1.00  9.88 LIG-0.00  A 
ATOM     44  CH2 TRP E   1      12.425  -3.315  -0.893  1.00 13.27 LIG 0.00  A 
ATOM     45  CZ3 TRP E   1      12.533  -4.548  -0.238  1.00 13.61 LIG 0.00  A 
ATOM     46  CE3 TRP E   1      13.760  -5.186  -0.109  1.00 14.26 LIG 0.01  A 
ENDBRANCH 36 37
ENDBRANCH 30 36
ENDBRANCH 28 30
ENDBRANCH 1 26
TORSDOF 14
ENDMDL
MODEL 14
USER: ADFR SOLUTION from run 60
USER: SCORE 13.193499 LL:  -3.293 LR: -11.503 RR:   0.000 FEB:  -7.327
USER: RMSD 5.943925
USER: SEED 59
USER: STATUS no improvement in best in 16 clusters for 5 generations
USER: GENES 16
USER: genes 0 Translation |==|  0.50034 0.43009 0.38011
USER: genes 1 Rotation |==|  0.60963 0.86148 0.26083 0.72386
USER: genes 2 Torsion [N]-CA--C-[N] |==|  0.89273
USER: genes 3 Torsion [C]-N--CA-[C] |==|  0.64673
USER: genes 4 Torsion [N]-CA--C-[N] |==|  0.29185
USER: genes 5 Torsion [C]-N--CA-[C] |==|  0.57800
USER: genes 6 Torsion [N]-CA--C-[N] |==|  0.02536
USER: genes 7 Torsion [N]-CA--CB-[CG2] |==|  0.69759
USER: genes 8 Torsion [CA]-CB--OG1-[HG1] |==|  0.09480
USER: genes 9 Torsion [C]-CA--CB-[CG] |==|  0.26497
USER: genes 10 Torsion [CA]-CB--CG-[ND1] |==|  0.15974
USER: genes 11 Torsion [C]-CA--N-[C] |==|  0.84647
USER: genes 12 Torsion [N]-C--CA-[N] |==|  0.17778
USER: genes 13 Torsion [C]-CA--N-[C] |==|  0.56622
USER: genes 14 Torsion [C]-CA--CB-[CG] |==|  0.73342
USER: genes 15 Torsion [CA]-CB--CG-[CD1] |==|  0.74604
ROOT
ATOM      1  CA  HIS E   2      15.163 -10.033   0.440  1.00 14.20 LIG 0.18  C 
ENDROOT
BRANCH 1 2
ATOM      2  C   HIS E   2      15.323  -9.980   1.956  1.00 15.34 LIG 0.24  C 
ATOM      3 O    HIS E   2      14.348 -10.065   2.709  1.00 13.21 LIG-0.27  OA
ATOM      4  N   THR E   3      16.569  -9.807   2.395  1.00 14.85 LIG-0.34  N 
ATOM      5 H    THR E   3      17.264  -9.794   1.888  1.00 14.85 LIG 0.16  HD
BRANCH 4 6
ATOM      6  CA  THR E   3      16.846  -9.622   3.815  1.00 13.22 LIG 0.20  C 
BRANCH 6 7
ATOM      7  C   THR E   3      17.678  -8.366   4.041  1.00 13.63 LIG 0.24  C 
ATOM      8  N   ALA E   4      17.031  -7.314   4.541  1.00  8.98 LIG-0.35  N 
ATOM      9 H    ALA E   4      16.192  -7.311   4.731  1.00  8.98 LIG 0.16  HD
ATOM     10 O    THR E   3      18.879  -8.342   3.761  1.00 14.15 LIG-0.27  OA
BRANCH 8 11
ATOM     11  CA  ALA E   4      17.718  -6.053   4.811  1.00 15.48 LIG 0.18  C 
ATOM     12  CB  ALA E   4      17.781  -5.208   3.550  1.00 13.80 LIG 0.04  C 
BRANCH 11 13
ATOM     13  C   ALA E   4      17.061  -5.261   5.945  1.00 23.80 LIG 0.28  C 
ATOM     14 O    ALA E   4      17.406  -4.101   6.179  1.00 30.75 LIG-0.27  OA
ATOM     15  N   NH2 E 101      16.111  -5.880   6.639  1.00 22.73 LIG-0.11  N 
ENDBRANCH 11 13
ENDBRANCH 8 11
ENDBRANCH 6 7
BRANCH 6 16
ATOM     16  CB  THR E   3      17.585 -10.837   4.376  1.00 20.99 LIG 0.15  C 
ATOM     17  CG2 THR E   3      16.666 -11.641   5.296  1.00 14.08 LIG 0.04  C 
BRANCH 16 18
ATOM     18 OG1  THR E   3      18.020 -11.664   3.294  1.00 27.33 LIG-0.39  OA
ATOM     19 HG1  THR E   3      18.222 -11.183   2.637  1.00 27.33 LIG 0.21  HD
ENDBRANCH 16 18
ENDBRANCH 6 16
ENDBRANCH 4 6
ENDBRANCH 1 2
BRANCH 1 20
ATOM     20  CB  HIS E   2      15.435 -11.466  -0.038  1.00 18.36 LIG 0.10  C 
BRANCH 20 21
ATOM     21  CG  HIS E   2      14.204 -12.303  -0.200  1.00 23.43 LIG 0.06  A 
ATOM     22  CD2 HIS E   2      13.859 -13.495   0.342  1.00 23.79 LIG 0.14  A 
ATOM     23 NE2  HIS E   2      12.624 -13.824  -0.162  1.00 23.75 LIG-0.25  NA
ATOM     24  CE1 HIS E   2      12.227 -12.870  -0.984  1.00 26.05 LIG 0.23  A 
ATOM     25 ND1  HIS E   2      13.165 -11.940  -1.029  1.00 21.22 LIG-0.24  NA
ENDBRANCH 20 21
ENDBRANCH 1 20
BRANCH 1 26
ATOM     26  N   HIS E   2      16.058  -9.064  -0.184  1.00 15.97 LIG-0.35  N 
ATOM     27 H    HIS E   2      16.588  -9.404  -0.771  1.00 15.97 LIG 0.16  HD
ATOM     28  C   TRP E   1      16.045  -7.769   0.137  1.00 12.03 LIG 0.24  C 
ATOM     29 O    TRP E   1      15.251  -7.283   0.950  1.00 13.67 LIG-0.27  OA
BRANCH 28 30
ATOM     30  CA  TRP E   1      17.101  -6.894  -0.530  1.00  9.26 LIG 0.18  C 
BRANCH 30 31
ATOM     31  N   TRP E   1      16.961  -6.807  -1.985  1.00 13.05 LIG-0.35  N 
ATOM     32 H    TRP E   1      16.162  -6.966  -2.262  1.00 13.05 LIG 0.16  HD
ATOM     33  C   ACE E   0      17.967  -6.511  -2.807  1.00 12.60 LIG 0.21  C 
ATOM     34  CH3 ACE E   0      17.619  -6.464  -4.281  1.00  6.27 LIG 0.12  C 
ATOM     35 O    ACE E   0      19.104  -6.290  -2.393  1.00 15.02 LIG-0.27  OA
ENDBRANCH 30 31
BRANCH 30 36
ATOM     36  CB  TRP E   1      17.050  -5.495   0.076  1.00 10.27 LIG 0.07  C 
BRANCH 36 37
ATOM     37  CG  TRP E   1      16.225  -4.521  -0.715  1.00  6.62 LIG-0.03  A 
ATOM     38  CD1 TRP E   1      16.658  -3.684  -1.706  1.00  7.94 LIG 0.10  A 
ATOM     39  NE1 TRP E   1      15.600  -2.940  -2.195  1.00 10.26 LIG-0.36  N 
ATOM     40  CE2 TRP E   1      14.465  -3.289  -1.512  1.00  6.86 LIG 0.04  A 
ATOM     41 HE1  TRP E   1      15.647  -2.355  -2.825  1.00 10.26 LIG 0.17  HD
ATOM     42  CZ2 TRP E   1      13.156  -2.820  -1.639  1.00  8.31 LIG 0.03  A 
ATOM     43  CD2 TRP E   1      14.824  -4.284  -0.570  1.00  9.88 LIG-0.00  A 
ATOM     44  CH2 TRP E   1      12.207  -3.371  -0.816  1.00 13.27 LIG 0.00  A 
ATOM     45  CZ3 TRP E   1      12.531  -4.356   0.127  1.00 13.61 LIG 0.00  A 
ATOM     46  CE3 TRP E   1      13.833  -4.822   0.256  1.00 14.26 LIG 0.01  A 
ENDBRANCH 36 37
ENDBRANCH 30 36
ENDBRANCH 28 30
ENDBRANCH 1 26
TORSDOF 14
ENDMDL
MODEL 15
USER: ADFR SOLUTION from run 122
USER: SCORE 14.316778 LL:  -3.730 LR: -11.492 RR:   0.000 FEB:  -7.316
USER: RMSD 3.030217
USER: SEED 121
USER: STATUS no improvement in best in 7 clusters for 5 generations
USER: GENES 16
USER: genes 0 Translation |==|  0.60232 0.50508 0.57436
USER: genes 1 Rotation |==|  0.37408 0.36061 0.58603 0.95532
USER: genes 2 Torsion [N]-CA--C-[N] |==|  0.91801
USER: genes 3 Torsion [C]-N--CA-[C] |==|  0.16663
USER: genes 4 Torsion [N]-CA--C-[N] |==|  0.09495
USER: genes 5 Torsion [C]-N--CA-[C] |==|  0.73760
USER: genes 6 Torsion [N]-CA--C-[N] |==|  0.05484
USER: genes 7 Torsion [N]-CA--CB-[CG2] |==|  0.56819
USER: genes 8 Torsion [CA]-CB--OG1-[HG1] |==|  0.09521
USER: genes 9 Torsion [C]-CA--CB-[CG] |==|  0.55216
USER: genes 10 Torsion [CA]-CB--CG-[ND1] |==|  0.95263
USER: genes 11 Torsion [C]-CA--N-[C] |==|  0.79730
USER: genes 12 Torsion [N]-C--CA-[N] |==|  0.65248
USER: genes 13 Torsion [C]-CA--N-[C] |==|  0.16512
USER: genes 14 Torsion [C]-CA--CB-[CG] |==|  0.53257
USER: genes 15 Torsion [CA]-CB--CG-[CD1] |==|  0.85466
ROOT
ATOM      1  CA  HIS E   2      17.151  -8.458   3.791  1.00 14.20 LIG 0.18  C 
ENDROOT
BRANCH 1 2
ATOM      2  C   HIS E   2      16.282  -9.652   3.406  1.00 15.34 LIG 0.24  C 
ATOM      3 O    HIS E   2      16.551 -10.794   3.791  1.00 13.21 LIG-0.27  OA
ATOM      4  N   THR E   3      15.247  -9.374   2.614  1.00 14.85 LIG-0.34  N 
ATOM      5 H    THR E   3      15.017  -8.581   2.377  1.00 14.85 LIG 0.16  HD
BRANCH 4 6
ATOM      6  CA  THR E   3      14.406 -10.439   2.079  1.00 13.22 LIG 0.20  C 
BRANCH 6 7
ATOM      7  C   THR E   3      13.762 -11.234   3.208  1.00 13.63 LIG 0.24  C 
ATOM      8  N   ALA E   4      13.439 -10.546   4.302  1.00  8.98 LIG-0.35  N 
ATOM      9 H    ALA E   4      13.577  -9.702   4.397  1.00  8.98 LIG 0.16  HD
ATOM     10 O    THR E   3      13.566 -12.447   3.099  1.00 14.15 LIG-0.27  OA
BRANCH 8 11
ATOM     11  CA  ALA E   4      12.807 -11.190   5.451  1.00 15.48 LIG 0.18  C 
ATOM     12  CB  ALA E   4      13.347 -10.604   6.745  1.00 13.80 LIG 0.04  C 
BRANCH 11 13
ATOM     13  C   ALA E   4      11.280 -11.080   5.418  1.00 23.80 LIG 0.28  C 
ATOM     14 O    ALA E   4      10.620 -11.224   6.449  1.00 30.75 LIG-0.27  OA
ATOM     15  N   NH2 E 101      10.722 -10.815   4.240  1.00 22.73 LIG-0.11  N 
ENDBRANCH 11 13
ENDBRANCH 8 11
ENDBRANCH 6 7
BRANCH 6 16
ATOM     16  CB  THR E   3      15.231 -11.376   1.196  1.00 20.99 LIG 0.15  C 
ATOM     17  CG2 THR E   3      14.331 -12.084   0.184  1.00 14.08 LIG 0.04  C 
BRANCH 16 18
ATOM     18 OG1  THR E   3      16.224 -10.616   0.503  1.00 27.33 LIG-0.39  OA
ATOM     19 HG1  THR E   3      16.489  -9.988   0.993  1.00 27.33 LIG 0.21  HD
ENDBRANCH 16 18
ENDBRANCH 6 16
ENDBRANCH 4 6
ENDBRANCH 1 2
BRANCH 1 20
ATOM     20  CB  HIS E   2      16.658  -7.896   5.131  1.00 18.36 LIG 0.10  C 
BRANCH 20 21
ATOM     21  CG  HIS E   2      17.107  -6.495   5.411  1.00 23.43 LIG 0.06  A 
ATOM     22  CD2 HIS E   2      16.639  -5.566   6.278  1.00 23.79 LIG 0.14  A 
ATOM     23 NE2  HIS E   2      17.406  -4.439   6.113  1.00 23.75 LIG-0.25  NA
ATOM     24  CE1 HIS E   2      18.310  -4.667   5.178  1.00 26.05 LIG 0.23  A 
ATOM     25 ND1  HIS E   2      18.149  -5.901   4.733  1.00 21.22 LIG-0.24  NA
ENDBRANCH 20 21
ENDBRANCH 1 20
BRANCH 1 26
ATOM     26  N   HIS E   2      17.115  -7.460   2.727  1.00 15.97 LIG-0.35  N 
ATOM     27 H    HIS E   2      16.655  -6.759   2.919  1.00 15.97 LIG 0.16  HD
ATOM     28  C   TRP E   1      17.745  -7.633   1.562  1.00 12.03 LIG 0.24  C 
ATOM     29 O    TRP E   1      18.439  -8.624   1.312  1.00 13.67 LIG-0.27  OA
BRANCH 28 30
ATOM     30  CA  TRP E   1      17.541  -6.546   0.512  1.00  9.26 LIG 0.18  C 
BRANCH 30 31
ATOM     31  N   TRP E   1      17.049  -7.053  -0.771  1.00 13.05 LIG-0.35  N 
ATOM     32 H    TRP E   1      17.574  -6.883  -1.430  1.00 13.05 LIG 0.16  HD
ATOM     33  C   ACE E   0      15.901  -7.715  -0.912  1.00 12.60 LIG 0.21  C 
ATOM     34  CH3 ACE E   0      15.569  -8.163  -2.320  1.00  6.27 LIG 0.12  C 
ATOM     35 O    ACE E   0      15.161  -7.946   0.043  1.00 15.02 LIG-0.27  OA
ENDBRANCH 30 31
BRANCH 30 36
ATOM     36  CB  TRP E   1      16.575  -5.499   1.056  1.00 10.27 LIG 0.07  C 
BRANCH 36 37
ATOM     37  CG  TRP E   1      16.081  -4.533   0.018  1.00  6.62 LIG-0.03  A 
ATOM     38  CD1 TRP E   1      16.836  -3.787  -0.845  1.00  7.94 LIG 0.10  A 
ATOM     39  NE1 TRP E   1      16.016  -3.018  -1.650  1.00 10.26 LIG-0.36  N 
ATOM     40  CE2 TRP E   1      14.712  -3.256  -1.304  1.00  6.86 LIG 0.04  A 
ATOM     41 HE1  TRP E   1      16.281  -2.479  -2.266  1.00 10.26 LIG 0.17  HD
ATOM     42  CZ2 TRP E   1      13.530  -2.722  -1.821  1.00  8.31 LIG 0.03  A 
ATOM     43  CD2 TRP E   1      14.717  -4.206  -0.255  1.00  9.88 LIG-0.00  A 
ATOM     44  CH2 TRP E   1      12.350  -3.163  -1.279  1.00 13.27 LIG 0.00  A 
ATOM     45  CZ3 TRP E   1      12.322  -4.102  -0.239  1.00 13.61 LIG 0.00  A 
ATOM     46  CE3 TRP E   1      13.496  -4.632   0.278  1.00 14.26 LIG 0.01  A 
ENDBRANCH 36 37
ENDBRANCH 30 36
ENDBRANCH 28 30
ENDBRANCH 1 26
TORSDOF 14
ENDMDL
MODEL 16
USER: ADFR SOLUTION from run 172
USER: SCORE 13.302376 LL:  -3.459 LR: -11.483 RR:   0.000 FEB:  -7.307
USER: RMSD 5.902436
USER: SEED 171
USER: STATUS no improvement in best in 26 clusters for 5 generations
USER: GENES 16
USER: genes 0 Translation |==|  0.65141 0.64731 0.53124
USER: genes 1 Rotation |==|  0.25621 0.61435 0.75817 0.83293
USER: genes 2 Torsion [N]-CA--C-[N] |==|  0.91069
USER: genes 3 Torsion [C]-N--CA-[C] |==|  0.70298
USER: genes 4 Torsion [N]-CA--C-[N] |==|  0.96864
USER: genes 5 Torsion [C]-N--CA-[C] |==|  0.54261
USER: genes 6 Torsion [N]-CA--C-[N] |==|  0.45887
USER: genes 7 Torsion [N]-CA--CB-[CG2] |==|  0.60660
USER: genes 8 Torsion [CA]-CB--OG1-[HG1] |==|  0.62884
USER: genes 9 Torsion [C]-CA--CB-[CG] |==|  0.04023
USER: genes 10 Torsion [CA]-CB--CG-[ND1] |==|  0.76314
USER: genes 11 Torsion [C]-CA--N-[C] |==|  0.52222
USER: genes 12 Torsion [N]-C--CA-[N] |==|  0.39626
USER: genes 13 Torsion [C]-CA--N-[C] |==|  0.63927
USER: genes 14 Torsion [C]-CA--CB-[CG] |==|  0.90909
USER: genes 15 Torsion [CA]-CB--CG-[CD1] |==|  0.22917
ROOT
ATOM      1  CA  HIS E   2      18.108  -5.472   3.047  1.00 14.20 LIG 0.18  C 
ENDROOT
BRANCH 1 2
ATOM      2  C   HIS E   2      18.198  -6.280   4.337  1.00 15.34 LIG 0.24  C 
ATOM      3 O    HIS E   2      19.286  -6.643   4.795  1.00 13.21 LIG-0.27  OA
ATOM      4  N   THR E   3      17.031  -6.584   4.905  1.00 14.85 LIG-0.34  N 
ATOM      5 H    THR E   3      16.269  -6.300   4.627  1.00 14.85 LIG 0.16  HD
BRANCH 4 6
ATOM      6  CA  THR E   3      16.971  -7.451   6.076  1.00 13.22 LIG 0.20  C 
BRANCH 6 7
ATOM      7  C   THR E   3      16.424  -8.823   5.702  1.00 13.63 LIG 0.24  C 
ATOM      8  N   ALA E   4      15.890  -8.931   4.487  1.00  8.98 LIG-0.35  N 
ATOM      9 H    ALA E   4      15.837  -8.283   3.925  1.00  8.98 LIG 0.16  HD
ATOM     10 O    THR E   3      16.476  -9.765   6.497  1.00 14.15 LIG-0.27  OA
BRANCH 8 11
ATOM     11  CA  ALA E   4      15.338 -10.196   4.005  1.00 15.48 LIG 0.18  C 
ATOM     12  CB  ALA E   4      14.034 -10.507   4.718  1.00 13.80 LIG 0.04  C 
BRANCH 11 13
ATOM     13  C   ALA E   4      15.126 -10.202   2.488  1.00 23.80 LIG 0.28  C 
ATOM     14 O    ALA E   4      15.157  -9.148   1.849  1.00 30.75 LIG-0.27  OA
ATOM     15  N   NH2 E 101      14.921 -11.384   1.914  1.00 22.73 LIG-0.11  N 
ENDBRANCH 11 13
ENDBRANCH 8 11
ENDBRANCH 6 7
BRANCH 6 16
ATOM     16  CB  THR E   3      16.091  -6.824   7.157  1.00 20.99 LIG 0.15  C 
ATOM     17  CG2 THR E   3      16.686  -7.077   8.542  1.00 14.08 LIG 0.04  C 
BRANCH 16 18
ATOM     18 OG1  THR E   3      15.996  -5.415   6.929  1.00 27.33 LIG-0.39  OA
ATOM     19 HG1  THR E   3      16.119  -5.005   7.651  1.00 27.33 LIG 0.21  HD
ENDBRANCH 16 18
ENDBRANCH 6 16
ENDBRANCH 4 6
ENDBRANCH 1 2
BRANCH 1 20
ATOM     20  CB  HIS E   2      18.157  -3.977   3.393  1.00 18.36 LIG 0.10  C 
BRANCH 20 21
ATOM     21  CG  HIS E   2      18.613  -3.685   4.789  1.00 23.43 LIG 0.06  A 
ATOM     22  CD2 HIS E   2      19.842  -3.408   5.285  1.00 23.79 LIG 0.14  A 
ATOM     23 NE2  HIS E   2      19.701  -3.240   6.641  1.00 23.75 LIG-0.25  NA
ATOM     24  CE1 HIS E   2      18.432  -3.410   6.965  1.00 26.05 LIG 0.23  A 
ATOM     25 ND1  HIS E   2      17.752  -3.684   5.865  1.00 21.22 LIG-0.24  NA
ENDBRANCH 20 21
ENDBRANCH 1 20
BRANCH 1 26
ATOM     26  N   HIS E   2      16.893  -5.831   2.324  1.00 15.97 LIG-0.35  N 
ATOM     27 H    HIS E   2      16.363  -6.346   2.764  1.00 15.97 LIG 0.16  HD
ATOM     28  C   TRP E   1      16.640  -5.392   1.088  1.00 12.03 LIG 0.24  C 
ATOM     29 O    TRP E   1      17.388  -4.618   0.481  1.00 13.67 LIG-0.27  OA
BRANCH 28 30
ATOM     30  CA  TRP E   1      15.375  -5.926   0.424  1.00  9.26 LIG 0.18  C 
BRANCH 30 31
ATOM     31  N   TRP E   1      14.676  -4.934  -0.395  1.00 13.05 LIG-0.35  N 
ATOM     32 H    TRP E   1      15.189  -4.527  -0.952  1.00 13.05 LIG 0.16  HD
ATOM     33  C   ACE E   0      13.372  -4.679  -0.292  1.00 12.60 LIG 0.21  C 
ATOM     34  CH3 ACE E   0      12.833  -3.620  -1.232  1.00  6.27 LIG 0.12  C 
ATOM     35 O    ACE E   0      12.654  -5.269   0.514  1.00 15.02 LIG-0.27  OA
ENDBRANCH 30 31
BRANCH 30 36
ATOM     36  CB  TRP E   1      15.731  -7.139  -0.429  1.00 10.27 LIG 0.07  C 
BRANCH 36 37
ATOM     37  CG  TRP E   1      17.099  -7.068  -1.043  1.00  6.62 LIG-0.03  A 
ATOM     38  CD1 TRP E   1      18.290  -7.391  -0.453  1.00  7.94 LIG 0.10  A 
ATOM     39  NE1 TRP E   1      19.330  -7.194  -1.342  1.00 10.26 LIG-0.36  N 
ATOM     40  CE2 TRP E   1      18.815  -6.730  -2.524  1.00  6.86 LIG 0.04  A 
ATOM     41 HE1  TRP E   1      20.163  -7.340  -1.181  1.00 10.26 LIG 0.17  HD
ATOM     42  CZ2 TRP E   1      19.459  -6.384  -3.714  1.00  8.31 LIG 0.03  A 
ATOM     43  CD2 TRP E   1      17.411  -6.638  -2.370  1.00  9.88 LIG-0.00  A 
ATOM     44  CH2 TRP E   1      18.673  -5.956  -4.754  1.00 13.27 LIG 0.00  A 
ATOM     45  CZ3 TRP E   1      17.281  -5.853  -4.631  1.00 13.61 LIG 0.00  A 
ATOM     46  CE3 TRP E   1      16.639  -6.194  -3.448  1.00 14.26 LIG 0.01  A 
ENDBRANCH 36 37
ENDBRANCH 30 36
ENDBRANCH 28 30
ENDBRANCH 1 26
TORSDOF 14
ENDMDL
MODEL 17
USER: ADFR SOLUTION from run 129
USER: SCORE 12.466563 LL:  -2.954 LR: -11.447 RR:   0.000 FEB:  -7.271
USER: RMSD 5.663357
USER: SEED 128
USER: STATUS no improvement in best in 11 clusters for 5 generations
USER: GENES 16
USER: genes 0 Translation |==|  0.65913 0.59383 0.49977
USER: genes 1 Rotation |==|  0.27275 0.67634 0.70380 0.85458
USER: genes 2 Torsion [N]-CA--C-[N] |==|  0.89486
USER: genes 3 Torsion [C]-N--CA-[C] |==|  0.76560
USER: genes 4 Torsion [N]-CA--C-[N] |==|  0.93332
USER: genes 5 Torsion [C]-N--CA-[C] |==|  0.55214
USER: genes 6 Torsion [N]-CA--C-[N] |==|  0.47778
USER: genes 7 Torsion [N]-CA--CB-[CG2] |==|  0.62176
USER: genes 8 Torsion [CA]-CB--OG1-[HG1] |==|  0.18062
USER: genes 9 Torsion [C]-CA--CB-[CG] |==|  0.33080
USER: genes 10 Torsion [CA]-CB--CG-[ND1] |==|  0.97741
USER: genes 11 Torsion [C]-CA--N-[C] |==|  0.46508
USER: genes 12 Torsion [N]-C--CA-[N] |==|  0.37313
USER: genes 13 Torsion [C]-CA--N-[C] |==|  0.56950
USER: genes 14 Torsion [C]-CA--CB-[CG] |==|  0.82323
USER: genes 15 Torsion [CA]-CB--CG-[CD1] |==|  0.91879
ROOT
ATOM      1  CA  HIS E   2      18.259  -6.595   2.504  1.00 14.20 LIG 0.18  C 
ENDROOT
BRANCH 1 2
ATOM      2  C   HIS E   2      18.200  -7.285   3.863  1.00 15.34 LIG 0.24  C 
ATOM      3 O    HIS E   2      19.108  -8.028   4.248  1.00 13.21 LIG-0.27  OA
ATOM      4  N   THR E   3      17.098  -7.052   4.576  1.00 14.85 LIG-0.34  N 
ATOM      5 H    THR E   3      16.479  -6.502   4.346  1.00 14.85 LIG 0.16  HD
BRANCH 4 6
ATOM      6  CA  THR E   3      16.863  -7.742   5.839  1.00 13.22 LIG 0.20  C 
BRANCH 6 7
ATOM      7  C   THR E   3      16.228  -9.106   5.596  1.00 13.63 LIG 0.24  C 
ATOM      8  N   ALA E   4      15.558  -9.248   4.454  1.00  8.98 LIG-0.35  N 
ATOM      9 H    ALA E   4      15.467  -8.624   3.869  1.00  8.98 LIG 0.16  HD
ATOM     10 O    THR E   3      16.334 -10.012   6.427  1.00 14.15 LIG-0.27  OA
BRANCH 8 11
ATOM     11  CA  ALA E   4      14.911 -10.509   4.099  1.00 15.48 LIG 0.18  C 
ATOM     12  CB  ALA E   4      13.637 -10.691   4.907  1.00 13.80 LIG 0.04  C 
BRANCH 11 13
ATOM     13  C   ALA E   4      14.607 -10.610   2.602  1.00 23.80 LIG 0.28  C 
ATOM     14 O    ALA E   4      14.777  -9.638   1.863  1.00 30.75 LIG-0.27  OA
ATOM     15  N   NH2 E 101      14.169 -11.783   2.155  1.00 22.73 LIG-0.11  N 
ENDBRANCH 11 13
ENDBRANCH 8 11
ENDBRANCH 6 7
BRANCH 6 16
ATOM     16  CB  THR E   3      15.957  -6.906   6.742  1.00 20.99 LIG 0.15  C 
ATOM     17  CG2 THR E   3      16.488  -6.903   8.175  1.00 14.08 LIG 0.04  C 
BRANCH 16 18
ATOM     18 OG1  THR E   3      15.908  -5.565   6.248  1.00 27.33 LIG-0.39  OA
ATOM     19 HG1  THR E   3      15.540  -5.557   5.494  1.00 27.33 LIG 0.21  HD
ENDBRANCH 16 18
ENDBRANCH 6 16
ENDBRANCH 4 6
ENDBRANCH 1 2
BRANCH 1 20
ATOM     20  CB  HIS E   2      18.809  -5.174   2.693  1.00 18.36 LIG 0.10  C 
BRANCH 20 21
ATOM     21  CG  HIS E   2      20.085  -4.907   1.956  1.00 23.43 LIG 0.06  A 
ATOM     22  CD2 HIS E   2      20.766  -3.757   1.742  1.00 23.79 LIG 0.14  A 
ATOM     23 NE2  HIS E   2      21.867  -4.076   0.984  1.00 23.75 LIG-0.25  NA
ATOM     24  CE1 HIS E   2      21.859  -5.373   0.740  1.00 26.05 LIG 0.23  A 
ATOM     25 ND1  HIS E   2      20.791  -5.900   1.312  1.00 21.22 LIG-0.24  NA
ENDBRANCH 20 21
ENDBRANCH 1 20
BRANCH 1 26
ATOM     26  N   HIS E   2      16.934  -6.596   1.892  1.00 15.97 LIG-0.35  N 
ATOM     27 H    HIS E   2      16.369  -7.115   2.281  1.00 15.97 LIG 0.16  HD
ATOM     28  C   TRP E   1      16.639  -5.852   0.824  1.00 12.03 LIG 0.24  C 
ATOM     29 O    TRP E   1      17.445  -5.076   0.299  1.00 13.67 LIG-0.27  OA
BRANCH 28 30
ATOM     30  CA  TRP E   1      15.242  -6.028   0.239  1.00  9.26 LIG 0.18  C 
BRANCH 30 31
ATOM     31  N   TRP E   1      14.570  -4.764  -0.071  1.00 13.05 LIG-0.35  N 
ATOM     32 H    TRP E   1      15.114  -4.115  -0.218  1.00 13.05 LIG 0.16  HD
ATOM     33  C   ACE E   0      13.245  -4.626  -0.122  1.00 12.60 LIG 0.21  C 
ATOM     34  CH3 ACE E   0      12.742  -3.239  -0.466  1.00  6.27 LIG 0.12  C 
ATOM     35 O    ACE E   0      12.483  -5.567   0.094  1.00 15.02 LIG-0.27  OA
ENDBRANCH 30 31
BRANCH 30 36
ATOM     36  CB  TRP E   1      15.329  -6.886  -1.018  1.00 10.27 LIG 0.07  C 
BRANCH 36 37
ATOM     37  CG  TRP E   1      16.125  -6.260  -2.127  1.00  6.62 LIG-0.03  A 
ATOM     38  CD1 TRP E   1      16.286  -4.925  -2.379  1.00  7.94 LIG 0.10  A 
ATOM     39  NE1 TRP E   1      17.092  -4.744  -3.487  1.00 10.26 LIG-0.36  N 
ATOM     40  CE2 TRP E   1      17.455  -5.974  -3.971  1.00  6.86 LIG 0.04  A 
ATOM     41 HE1  TRP E   1      17.326  -3.985  -3.819  1.00 10.26 LIG 0.17  HD
ATOM     42  CZ2 TRP E   1      18.253  -6.312  -5.065  1.00  8.31 LIG 0.03  A 
ATOM     43  CD2 TRP E   1      16.863  -6.951  -3.136  1.00  9.88 LIG-0.00  A 
ATOM     44  CH2 TRP E   1      18.460  -7.647  -5.306  1.00 13.27 LIG 0.00  A 
ATOM     45  CZ3 TRP E   1      17.886  -8.638  -4.499  1.00 13.61 LIG 0.00  A 
ATOM     46  CE3 TRP E   1      17.090  -8.304  -3.411  1.00 14.26 LIG 0.01  A 
ENDBRANCH 36 37
ENDBRANCH 30 36
ENDBRANCH 28 30
ENDBRANCH 1 26
TORSDOF 14
ENDMDL
MODEL 18
USER: ADFR SOLUTION from run 139
USER: SCORE 12.855512 LL:  -3.146 LR: -11.343 RR:   0.000 FEB:  -7.166
USER: RMSD 9.283857
USER: SEED 138
USER: STATUS no improvement in best in 12 clusters for 5 generations
USER: GENES 16
USER: genes 0 Translation |==|  0.52498 0.50186 0.41978
USER: genes 1 Rotation |==|  0.11220 0.54856 0.19297 0.55462
USER: genes 2 Torsion [N]-CA--C-[N] |==|  0.37329
USER: genes 3 Torsion [C]-N--CA-[C] |==|  0.79293
USER: genes 4 Torsion [N]-CA--C-[N] |==|  0.20419
USER: genes 5 Torsion [C]-N--CA-[C] |==|  0.55094
USER: genes 6 Torsion [N]-CA--C-[N] |==|  0.13326
USER: genes 7 Torsion [N]-CA--CB-[CG2] |==|  0.52860
USER: genes 8 Torsion [CA]-CB--OG1-[HG1] |==|  0.36521
USER: genes 9 Torsion [C]-CA--CB-[CG] |==|  0.19941
USER: genes 10 Torsion [CA]-CB--CG-[ND1] |==|  0.80719
USER: genes 11 Torsion [C]-CA--N-[C] |==|  0.67235
USER: genes 12 Torsion [N]-C--CA-[N] |==|  0.53333
USER: genes 13 Torsion [C]-CA--N-[C] |==|  0.64518
USER: genes 14 Torsion [C]-CA--CB-[CG] |==|  0.47852
USER: genes 15 Torsion [CA]-CB--CG-[CD1] |==|  0.89381
ROOT
ATOM      1  CA  HIS E   2      15.643  -8.526   1.124  1.00 14.20 LIG 0.18  C 
ENDROOT
BRANCH 1 2
ATOM      2  C   HIS E   2      15.152  -7.559   0.052  1.00 15.34 LIG 0.24  C 
ATOM      3 O    HIS E   2      15.313  -7.794  -1.150  1.00 13.21 LIG-0.27  OA
ATOM      4  N   THR E   3      14.573  -6.447   0.505  1.00 14.85 LIG-0.34  N 
ATOM      5 H    THR E   3      14.410  -6.289   1.334  1.00 14.85 LIG 0.16  HD
BRANCH 4 6
ATOM      6  CA  THR E   3      14.165  -5.388  -0.410  1.00 13.22 LIG 0.20  C 
BRANCH 6 7
ATOM      7  C   THR E   3      15.378  -4.612  -0.910  1.00 13.63 LIG 0.24  C 
ATOM      8  N   ALA E   4      16.148  -5.236  -1.799  1.00  8.98 LIG-0.35  N 
ATOM      9 H    ALA E   4      16.000  -6.031  -2.091  1.00  8.98 LIG 0.16  HD
ATOM     10 O    THR E   3      15.619  -3.476  -0.495  1.00 14.15 LIG-0.27  OA
BRANCH 8 11
ATOM     11  CA  ALA E   4      17.337  -4.596  -2.361  1.00 15.48 LIG 0.18  C 
ATOM     12  CB  ALA E   4      18.459  -4.581  -1.338  1.00 13.80 LIG 0.04  C 
BRANCH 11 13
ATOM     13  C   ALA E   4      17.808  -5.271  -3.653  1.00 23.80 LIG 0.28  C 
ATOM     14 O    ALA E   4      18.993  -5.573  -3.804  1.00 30.75 LIG-0.27  OA
ATOM     15  N   NH2 E 101      16.882  -5.515  -4.576  1.00 22.73 LIG-0.11  N 
ENDBRANCH 11 13
ENDBRANCH 8 11
ENDBRANCH 6 7
BRANCH 6 16
ATOM     16  CB  THR E   3      13.192  -4.433   0.281  1.00 20.99 LIG 0.15  C 
ATOM     17  CG2 THR E   3      12.568  -3.478  -0.737  1.00 14.08 LIG 0.04  C 
BRANCH 16 18
ATOM     18 OG1  THR E   3      12.161  -5.190   0.919  1.00 27.33 LIG-0.39  OA
ATOM     19 HG1  THR E   3      12.063  -4.921   1.708  1.00 27.33 LIG 0.21  HD
ENDBRANCH 16 18
ENDBRANCH 6 16
ENDBRANCH 4 6
ENDBRANCH 1 2
BRANCH 1 20
ATOM     20  CB  HIS E   2      17.165  -8.384   1.260  1.00 18.36 LIG 0.10  C 
BRANCH 20 21
ATOM     21  CG  HIS E   2      17.607  -7.112   1.913  1.00 23.43 LIG 0.06  A 
ATOM     22  CD2 HIS E   2      18.154  -6.877   3.130  1.00 23.79 LIG 0.14  A 
ATOM     23 NE2  HIS E   2      18.349  -5.521   3.229  1.00 23.75 LIG-0.25  NA
ATOM     24  CE1 HIS E   2      17.935  -4.944   2.116  1.00 26.05 LIG 0.23  A 
ATOM     25 ND1  HIS E   2      17.478  -5.882   1.304  1.00 21.22 LIG-0.24  NA
ENDBRANCH 20 21
ENDBRANCH 1 20
BRANCH 1 26
ATOM     26  N   HIS E   2      15.245  -9.887   0.780  1.00 15.97 LIG-0.35  N 
ATOM     27 H    HIS E   2      15.580 -10.174   0.043  1.00 15.97 LIG 0.16  HD
ATOM     28  C   TRP E   1      14.430 -10.610   1.553  1.00 12.03 LIG 0.24  C 
ATOM     29 O    TRP E   1      13.988 -10.204   2.632  1.00 13.67 LIG-0.27  OA
BRANCH 28 30
ATOM     30  CA  TRP E   1      14.028 -11.980   1.018  1.00  9.26 LIG 0.18  C 
BRANCH 30 31
ATOM     31  N   TRP E   1      12.930 -12.603   1.761  1.00 13.05 LIG-0.35  N 
ATOM     32 H    TRP E   1      12.242 -12.095   1.845  1.00 13.05 LIG 0.16  HD
ATOM     33  C   ACE E   0      12.985 -13.837   2.263  1.00 12.60 LIG 0.21  C 
ATOM     34  CH3 ACE E   0      11.744 -14.304   2.995  1.00  6.27 LIG 0.12  C 
ATOM     35 O    ACE E   0      13.980 -14.548   2.135  1.00 15.02 LIG-0.27  OA
ENDBRANCH 30 31
BRANCH 30 36
ATOM     36  CB  TRP E   1      13.646 -11.853  -0.453  1.00 10.27 LIG 0.07  C 
BRANCH 36 37
ATOM     37  CG  TRP E   1      13.408 -13.169  -1.134  1.00  6.62 LIG-0.03  A 
ATOM     38  CD1 TRP E   1      14.101 -14.334  -0.951  1.00  7.94 LIG 0.10  A 
ATOM     39  NE1 TRP E   1      13.581 -15.328  -1.759  1.00 10.26 LIG-0.36  N 
ATOM     40  CE2 TRP E   1      12.542 -14.806  -2.484  1.00  6.86 LIG 0.04  A 
ATOM     41 HE1  TRP E   1      13.863 -16.140  -1.800  1.00 10.26 LIG 0.17  HD
ATOM     42  CZ2 TRP E   1      11.711 -15.409  -3.430  1.00  8.31 LIG 0.03  A 
ATOM     43  CD2 TRP E   1      12.406 -13.446  -2.114  1.00  9.88 LIG-0.00  A 
ATOM     44  CH2 TRP E   1      10.730 -14.632  -3.993  1.00 13.27 LIG 0.00  A 
ATOM     45  CZ3 TRP E   1      10.571 -13.283  -3.649  1.00 13.61 LIG 0.00  A 
ATOM     46  CE3 TRP E   1      11.398 -12.681  -2.710  1.00 14.26 LIG 0.01  A 
ENDBRANCH 36 37
ENDBRANCH 30 36
ENDBRANCH 28 30
ENDBRANCH 1 26
TORSDOF 14
ENDMDL
MODEL 19
USER: ADFR SOLUTION from run 197
USER: SCORE 13.198380 LL:  -3.298 LR: -11.330 RR:   0.000 FEB:  -7.153
USER: RMSD 9.440858
USER: SEED 196
USER: STATUS no improvement in best in 15 clusters for 5 generations
USER: GENES 16
USER: genes 0 Translation |==|  0.53472 0.52877 0.40445
USER: genes 1 Rotation |==|  0.11052 0.54358 0.19076 0.52785
USER: genes 2 Torsion [N]-CA--C-[N] |==|  0.41988
USER: genes 3 Torsion [C]-N--CA-[C] |==|  0.79578
USER: genes 4 Torsion [N]-CA--C-[N] |==|  0.19927
USER: genes 5 Torsion [C]-N--CA-[C] |==|  0.61368
USER: genes 6 Torsion [N]-CA--C-[N] |==|  0.64488
USER: genes 7 Torsion [N]-CA--CB-[CG2] |==|  0.52003
USER: genes 8 Torsion [CA]-CB--OG1-[HG1] |==|  0.06083
USER: genes 9 Torsion [C]-CA--CB-[CG] |==|  0.14981
USER: genes 10 Torsion [CA]-CB--CG-[ND1] |==|  0.15781
USER: genes 11 Torsion [C]-CA--N-[C] |==|  0.61752
USER: genes 12 Torsion [N]-C--CA-[N] |==|  0.09444
USER: genes 13 Torsion [C]-CA--N-[C] |==|  0.67488
USER: genes 14 Torsion [C]-CA--CB-[CG] |==|  0.33012
USER: genes 15 Torsion [CA]-CB--CG-[CD1] |==|  0.22963
ROOT
ATOM      1  CA  HIS E   2      15.833  -7.961   0.860  1.00 14.20 LIG 0.18  C 
ENDROOT
BRANCH 1 2
ATOM      2  C   HIS E   2      15.382  -7.078  -0.300  1.00 15.34 LIG 0.24  C 
ATOM      3 O    HIS E   2      15.233  -7.536  -1.437  1.00 13.21 LIG-0.27  OA
ATOM      4  N   THR E   3      15.195  -5.793  -0.002  1.00 14.85 LIG-0.34  N 
ATOM      5 H    THR E   3      15.247  -5.466   0.792  1.00 14.85 LIG 0.16  HD
BRANCH 4 6
ATOM      6  CA  THR E   3      14.877  -4.821  -1.042  1.00 13.22 LIG 0.20  C 
BRANCH 6 7
ATOM      7  C   THR E   3      16.108  -4.518  -1.888  1.00 13.63 LIG 0.24  C 
ATOM      8  N   ALA E   4      16.506  -5.485  -2.713  1.00  8.98 LIG-0.35  N 
ATOM      9 H    ALA E   4      16.116  -6.248  -2.783  1.00  8.98 LIG 0.16  HD
ATOM     10 O    THR E   3      16.693  -3.436  -1.794  1.00 14.15 LIG-0.27  OA
BRANCH 8 11
ATOM     11  CA  ALA E   4      17.668  -5.316  -3.583  1.00 15.48 LIG 0.18  C 
ATOM     12  CB  ALA E   4      18.896  -5.948  -2.950  1.00 13.80 LIG 0.04  C 
BRANCH 11 13
ATOM     13  C   ALA E   4      17.438  -5.894  -4.983  1.00 23.80 LIG 0.28  C 
ATOM     14 O    ALA E   4      16.449  -5.565  -5.641  1.00 30.75 LIG-0.27  OA
ATOM     15  N   NH2 E 101      18.354  -6.743  -5.441  1.00 22.73 LIG-0.11  N 
ENDBRANCH 11 13
ENDBRANCH 8 11
ENDBRANCH 6 7
BRANCH 6 16
ATOM     16  CB  THR E   3      14.351  -3.528  -0.419  1.00 20.99 LIG 0.15  C 
ATOM     17  CG2 THR E   3      13.851  -2.577  -1.507  1.00 14.08 LIG 0.04  C 
BRANCH 16 18
ATOM     18 OG1  THR E   3      13.278  -3.838   0.474  1.00 27.33 LIG-0.39  OA
ATOM     19 HG1  THR E   3      13.335  -4.640   0.714  1.00 27.33 LIG 0.21  HD
ENDBRANCH 16 18
ENDBRANCH 6 16
ENDBRANCH 4 6
ENDBRANCH 1 2
BRANCH 1 20
ATOM     20  CB  HIS E   2      17.361  -7.884   0.977  1.00 18.36 LIG 0.10  C 
BRANCH 20 21
ATOM     21  CG  HIS E   2      17.899  -6.492   1.088  1.00 23.43 LIG 0.06  A 
ATOM     22  CD2 HIS E   2      18.819  -5.829   0.347  1.00 23.79 LIG 0.14  A 
ATOM     23 NE2  HIS E   2      18.955  -4.578   0.897  1.00 23.75 LIG-0.25  NA
ATOM     24  CE1 HIS E   2      18.149  -4.477   1.939  1.00 26.05 LIG 0.23  A 
ATOM     25 ND1  HIS E   2      17.502  -5.620   2.080  1.00 21.22 LIG-0.24  NA
ENDBRANCH 20 21
ENDBRANCH 1 20
BRANCH 1 26
ATOM     26  N   HIS E   2      15.364  -9.327   0.651  1.00 15.97 LIG-0.35  N 
ATOM     27 H    HIS E   2      15.448  -9.606  -0.158  1.00 15.97 LIG 0.16  HD
ATOM     28  C   TRP E   1      14.851 -10.066   1.638  1.00 12.03 LIG 0.24  C 
ATOM     29 O    TRP E   1      14.775  -9.670   2.806  1.00 13.67 LIG-0.27  OA
BRANCH 28 30
ATOM     30  CA  TRP E   1      14.317 -11.440   1.249  1.00  9.26 LIG 0.18  C 
BRANCH 30 31
ATOM     31  N   TRP E   1      15.070 -12.081   0.168  1.00 13.05 LIG-0.35  N 
ATOM     32 H    TRP E   1      15.889 -12.245   0.372  1.00 13.05 LIG 0.16  HD
ATOM     33  C   ACE E   0      14.544 -12.382  -1.018  1.00 12.60 LIG 0.21  C 
ATOM     34  CH3 ACE E   0      15.483 -13.048  -2.003  1.00  6.27 LIG 0.12  C 
ATOM     35 O    ACE E   0      13.370 -12.137  -1.293  1.00 15.02 LIG-0.27  OA
ENDBRANCH 30 31
BRANCH 30 36
ATOM     36  CB  TRP E   1      14.314 -12.343   2.479  1.00 10.27 LIG 0.07  C 
BRANCH 36 37
ATOM     37  CG  TRP E   1      12.950 -12.837   2.865  1.00  6.62 LIG-0.03  A 
ATOM     38  CD1 TRP E   1      12.276 -13.904   2.337  1.00  7.94 LIG 0.10  A 
ATOM     39  NE1 TRP E   1      11.047 -14.042   2.956  1.00 10.26 LIG-0.36  N 
ATOM     40  CE2 TRP E   1      10.912 -13.050   3.891  1.00  6.86 LIG 0.04  A 
ATOM     41 HE1  TRP E   1      10.463 -14.650   2.782  1.00 10.26 LIG 0.17  HD
ATOM     42  CZ2 TRP E   1       9.858 -12.770   4.762  1.00  8.31 LIG 0.03  A 
ATOM     43  CD2 TRP E   1      12.095 -12.272   3.860  1.00  9.88 LIG-0.00  A 
ATOM     44  CH2 TRP E   1      10.009 -11.704   5.612  1.00 13.27 LIG 0.00  A 
ATOM     45  CZ3 TRP E   1      11.166 -10.914   5.604  1.00 13.61 LIG 0.00  A 
ATOM     46  CE3 TRP E   1      12.215 -11.189   4.737  1.00 14.26 LIG 0.01  A 
ENDBRANCH 36 37
ENDBRANCH 30 36
ENDBRANCH 28 30
ENDBRANCH 1 26
TORSDOF 14
ENDMDL
MODEL 20
USER: ADFR SOLUTION from run 84
USER: SCORE 13.184077 LL:  -3.114 LR: -11.316 RR:   0.000 FEB:  -7.140
USER: RMSD 4.141142
USER: SEED 83
USER: STATUS no improvement in best in 17 clusters for 5 generations
USER: GENES 16
USER: genes 0 Translation |==|  0.65718 0.56482 0.60014
USER: genes 1 Rotation |==|  0.26527 0.27107 0.61067 0.86090
USER: genes 2 Torsion [N]-CA--C-[N] |==|  0.83100
USER: genes 3 Torsion [C]-N--CA-[C] |==|  0.56753
USER: genes 4 Torsion [N]-CA--C-[N] |==|  0.45010
USER: genes 5 Torsion [C]-N--CA-[C] |==|  0.63573
USER: genes 6 Torsion [N]-CA--C-[N] |==|  0.46433
USER: genes 7 Torsion [N]-CA--CB-[CG2] |==|  0.75436
USER: genes 8 Torsion [CA]-CB--OG1-[HG1] |==|  0.96054
USER: genes 9 Torsion [C]-CA--CB-[CG] |==|  0.46183
USER: genes 10 Torsion [CA]-CB--CG-[ND1] |==|  0.64824
USER: genes 11 Torsion [C]-CA--N-[C] |==|  0.22918
USER: genes 12 Torsion [N]-C--CA-[N] |==|  0.05556
USER: genes 13 Torsion [C]-CA--N-[C] |==|  0.70329
USER: genes 14 Torsion [C]-CA--CB-[CG] |==|  0.27047
USER: genes 15 Torsion [CA]-CB--CG-[CD1] |==|  0.21768
ROOT
ATOM      1  CA  HIS E   2      18.221  -7.204   4.235  1.00 14.20 LIG 0.18  C 
ENDROOT
BRANCH 1 2
ATOM      2  C   HIS E   2      17.652  -8.614   4.116  1.00 15.34 LIG 0.24  C 
ATOM      3 O    HIS E   2      18.150  -9.563   4.728  1.00 13.21 LIG-0.27  OA
ATOM      4  N   THR E   3      16.613  -8.744   3.291  1.00 14.85 LIG-0.34  N 
ATOM      5 H    THR E   3      16.223  -8.088   2.895  1.00 14.85 LIG 0.16  HD
BRANCH 4 6
ATOM      6  CA  THR E   3      16.049 -10.056   2.997  1.00 13.22 LIG 0.20  C 
BRANCH 6 7
ATOM      7  C   THR E   3      15.329 -10.043   1.654  1.00 13.63 LIG 0.24  C 
ATOM      8  N   ALA E   4      15.096 -11.231   1.099  1.00  8.98 LIG-0.35  N 
ATOM      9 H    ALA E   4      15.331 -11.980   1.450  1.00  8.98 LIG 0.16  HD
ATOM     10 O    THR E   3      14.995  -8.979   1.124  1.00 14.15 LIG-0.27  OA
BRANCH 8 11
ATOM     11  CA  ALA E   4      14.406 -11.353  -0.184  1.00 15.48 LIG 0.18  C 
ATOM     12  CB  ALA E   4      15.396 -11.705  -1.281  1.00 13.80 LIG 0.04  C 
BRANCH 11 13
ATOM     13  C   ALA E   4      13.274 -12.383  -0.143  1.00 23.80 LIG 0.28  C 
ATOM     14 O    ALA E   4      13.170 -13.160   0.808  1.00 30.75 LIG-0.27  OA
ATOM     15  N   NH2 E 101      12.423 -12.382  -1.165  1.00 22.73 LIG-0.11  N 
ENDBRANCH 11 13
ENDBRANCH 8 11
ENDBRANCH 6 7
BRANCH 6 16
ATOM     16  CB  THR E   3      15.076 -10.477   4.098  1.00 20.99 LIG 0.15  C 
ATOM     17  CG2 THR E   3      15.820 -11.212   5.214  1.00 14.08 LIG 0.04  C 
BRANCH 16 18
ATOM     18 OG1  THR E   3      14.440  -9.314   4.635  1.00 27.33 LIG-0.39  OA
ATOM     19 HG1  THR E   3      14.855  -8.628   4.386  1.00 27.33 LIG 0.21  HD
ENDBRANCH 16 18
ENDBRANCH 6 16
ENDBRANCH 4 6
ENDBRANCH 1 2
BRANCH 1 20
ATOM     20  CB  HIS E   2      17.140  -6.279   4.811  1.00 18.36 LIG 0.10  C 
BRANCH 20 21
ATOM     21  CG  HIS E   2      17.653  -4.954   5.282  1.00 23.43 LIG 0.06  A 
ATOM     22  CD2 HIS E   2      18.413  -4.021   4.661  1.00 23.79 LIG 0.14  A 
ATOM     23 NE2  HIS E   2      18.610  -2.999   5.558  1.00 23.75 LIG-0.25  NA
ATOM     24  CE1 HIS E   2      17.994  -3.295   6.688  1.00 26.05 LIG 0.23  A 
ATOM     25 ND1  HIS E   2      17.411  -4.473   6.551  1.00 21.22 LIG-0.24  NA
ENDBRANCH 20 21
ENDBRANCH 1 20
BRANCH 1 26
ATOM     26  N   HIS E   2      18.696  -6.752   2.931  1.00 15.97 LIG-0.35  N 
ATOM     27 H    HIS E   2      19.541  -6.851   2.813  1.00 15.97 LIG 0.16  HD
ATOM     28  C   TRP E   1      17.877  -6.232   2.014  1.00 12.03 LIG 0.24  C 
ATOM     29 O    TRP E   1      16.656  -6.134   2.178  1.00 13.67 LIG-0.27  OA
BRANCH 28 30
ATOM     30  CA  TRP E   1      18.530  -5.718   0.735  1.00  9.26 LIG 0.18  C 
BRANCH 30 31
ATOM     31  N   TRP E   1      19.865  -6.270   0.493  1.00 13.05 LIG-0.35  N 
ATOM     32 H    TRP E   1      19.855  -7.092   0.242  1.00 13.05 LIG 0.16  HD
ATOM     33  C   ACE E   0      20.990  -5.572   0.644  1.00 12.60 LIG 0.21  C 
ATOM     34  CH3 ACE E   0      22.272  -6.319   0.339  1.00  6.27 LIG 0.12  C 
ATOM     35 O    ACE E   0      20.984  -4.396   1.007  1.00 15.02 LIG-0.27  OA
ENDBRANCH 30 31
BRANCH 30 36
ATOM     36  CB  TRP E   1      17.622  -6.026  -0.451  1.00 10.27 LIG 0.07  C 
BRANCH 36 37
ATOM     37  CG  TRP E   1      16.754  -4.874  -0.866  1.00  6.62 LIG-0.03  A 
ATOM     38  CD1 TRP E   1      17.123  -3.783  -1.605  1.00  7.94 LIG 0.10  A 
ATOM     39  NE1 TRP E   1      16.042  -2.940  -1.781  1.00 10.26 LIG-0.36  N 
ATOM     40  CE2 TRP E   1      14.956  -3.481  -1.144  1.00  6.86 LIG 0.04  A 
ATOM     41 HE1  TRP E   1      16.049  -2.199  -2.218  1.00 10.26 LIG 0.17  HD
ATOM     42  CZ2 TRP E   1      13.647  -3.007  -1.034  1.00  8.31 LIG 0.03  A 
ATOM     43  CD2 TRP E   1      15.370  -4.700  -0.557  1.00  9.88 LIG-0.00  A 
ATOM     44  CH2 TRP E   1      12.754  -3.780  -0.336  1.00 13.27 LIG 0.00  A 
ATOM     45  CZ3 TRP E   1      13.134  -4.990   0.258  1.00 13.61 LIG 0.00  A 
ATOM     46  CE3 TRP E   1      14.436  -5.462   0.152  1.00 14.26 LIG 0.01  A 
ENDBRANCH 36 37
ENDBRANCH 30 36
ENDBRANCH 28 30
ENDBRANCH 1 26
TORSDOF 14
ENDMDL
MODEL 21
USER: ADFR SOLUTION from run 180
USER: SCORE 13.442459 LL:  -3.199 LR: -11.241 RR:   0.000 FEB:  -7.064
USER: RMSD 8.612759
USER: SEED 179
USER: STATUS no improvement in best in 17 clusters for 5 generations
USER: GENES 16
USER: genes 0 Translation |==|  0.60684 0.53638 0.43604
USER: genes 1 Rotation |==|  0.91567 0.30137 0.41577 0.67512
USER: genes 2 Torsion [N]-CA--C-[N] |==|  0.53889
USER: genes 3 Torsion [C]-N--CA-[C] |==|  0.78300
USER: genes 4 Torsion [N]-CA--C-[N] |==|  0.47552
USER: genes 5 Torsion [C]-N--CA-[C] |==|  0.54652
USER: genes 6 Torsion [N]-CA--C-[N] |==|  0.48022
USER: genes 7 Torsion [N]-CA--CB-[CG2] |==|  0.23304
USER: genes 8 Torsion [CA]-CB--OG1-[HG1] |==|  0.72161
USER: genes 9 Torsion [C]-CA--CB-[CG] |==|  0.65683
USER: genes 10 Torsion [CA]-CB--CG-[ND1] |==|  0.14865
USER: genes 11 Torsion [C]-CA--N-[C] |==|  0.57172
USER: genes 12 Torsion [N]-C--CA-[N] |==|  0.91789
USER: genes 13 Torsion [C]-CA--N-[C] |==|  0.74136
USER: genes 14 Torsion [C]-CA--CB-[CG] |==|  0.57063
USER: genes 15 Torsion [CA]-CB--CG-[CD1] |==|  0.88503
ROOT
ATOM      1  CA  HIS E   2      17.239  -7.801   1.405  1.00 14.20 LIG 0.18  C 
ENDROOT
BRANCH 1 2
ATOM      2  C   HIS E   2      16.807  -6.369   1.106  1.00 15.34 LIG 0.24  C 
ATOM      3 O    HIS E   2      16.281  -5.662   1.971  1.00 13.21 LIG-0.27  OA
ATOM      4  N   THR E   3      17.009  -5.959  -0.146  1.00 14.85 LIG-0.34  N 
ATOM      5 H    THR E   3      17.416  -6.420  -0.747  1.00 14.85 LIG 0.16  HD
BRANCH 4 6
ATOM      6  CA  THR E   3      16.535  -4.655  -0.594  1.00 13.22 LIG 0.20  C 
BRANCH 6 7
ATOM      7  C   THR E   3      15.038  -4.695  -0.875  1.00 13.63 LIG 0.24  C 
ATOM      8  N   ALA E   4      14.453  -3.523  -1.115  1.00  8.98 LIG-0.35  N 
ATOM      9 H    ALA E   4      14.867  -2.770  -1.114  1.00  8.98 LIG 0.16  HD
ATOM     10 O    THR E   3      14.419  -5.763  -0.868  1.00 14.15 LIG-0.27  OA
BRANCH 8 11
ATOM     11  CA  ALA E   4      13.024  -3.428  -1.407  1.00 15.48 LIG 0.18  C 
ATOM     12  CB  ALA E   4      12.213  -3.657  -0.143  1.00 13.80 LIG 0.04  C 
BRANCH 11 13
ATOM     13  C   ALA E   4      12.644  -2.088  -2.042  1.00 23.80 LIG 0.28  C 
ATOM     14 O    ALA E   4      13.478  -1.186  -2.144  1.00 30.75 LIG-0.27  OA
ATOM     15  N   NH2 E 101      11.394  -1.961  -2.478  1.00 22.73 LIG-0.11  N 
ENDBRANCH 11 13
ENDBRANCH 8 11
ENDBRANCH 6 7
BRANCH 6 16
ATOM     16  CB  THR E   3      17.284  -4.220  -1.853  1.00 20.99 LIG 0.15  C 
ATOM     17  CG2 THR E   3      16.638  -4.834  -3.096  1.00 14.08 LIG 0.04  C 
BRANCH 16 18
ATOM     18 OG1  THR E   3      17.250  -2.794  -1.953  1.00 27.33 LIG-0.39  OA
ATOM     19 HG1  THR E   3      16.656  -2.565  -2.501  1.00 27.33 LIG 0.21  HD
ENDBRANCH 16 18
ENDBRANCH 6 16
ENDBRANCH 4 6
ENDBRANCH 1 2
BRANCH 1 20
ATOM     20  CB  HIS E   2      16.804  -8.704   0.242  1.00 18.36 LIG 0.10  C 
BRANCH 20 21
ATOM     21  CG  HIS E   2      15.936  -9.853   0.650  1.00 23.43 LIG 0.06  A 
ATOM     22  CD2 HIS E   2      16.043 -11.181   0.406  1.00 23.79 LIG 0.14  A 
ATOM     23 NE2  HIS E   2      14.961 -11.787   0.998  1.00 23.75 LIG-0.25  NA
ATOM     24  CE1 HIS E   2      14.217 -10.865   1.581  1.00 26.05 LIG 0.23  A 
ATOM     25 ND1  HIS E   2      14.781  -9.687   1.383  1.00 21.22 LIG-0.24  NA
ENDBRANCH 20 21
ENDBRANCH 1 20
BRANCH 1 26
ATOM     26  N   HIS E   2      16.673  -8.231   2.679  1.00 15.97 LIG-0.35  N 
ATOM     27 H    HIS E   2      15.949  -7.822   2.896  1.00 15.97 LIG 0.16  HD
ATOM     28  C   TRP E   1      17.240  -9.178   3.430  1.00 12.03 LIG 0.24  C 
ATOM     29 O    TRP E   1      18.257  -9.791   3.088  1.00 13.67 LIG-0.27  OA
BRANCH 28 30
ATOM     30  CA  TRP E   1      16.586  -9.456   4.779  1.00  9.26 LIG 0.18  C 
BRANCH 30 31
ATOM     31  N   TRP E   1      15.919  -8.289   5.362  1.00 13.05 LIG-0.35  N 
ATOM     32 H    TRP E   1      15.107  -8.193   5.099  1.00 13.05 LIG 0.16  HD
ATOM     33  C   ACE E   0      16.508  -7.454   6.217  1.00 12.60 LIG 0.21  C 
ATOM     34  CH3 ACE E   0      15.650  -6.308   6.713  1.00  6.27 LIG 0.12  C 
ATOM     35 O    ACE E   0      17.674  -7.607   6.579  1.00 15.02 LIG-0.27  OA
ENDBRANCH 30 31
BRANCH 30 36
ATOM     36  CB  TRP E   1      15.586 -10.597   4.626  1.00 10.27 LIG 0.07  C 
BRANCH 36 37
ATOM     37  CG  TRP E   1      14.483 -10.578   5.645  1.00  6.62 LIG-0.03  A 
ATOM     38  CD1 TRP E   1      14.594 -10.303   6.980  1.00  7.94 LIG 0.10  A 
ATOM     39  NE1 TRP E   1      13.354 -10.384   7.587  1.00 10.26 LIG-0.36  N 
ATOM     40  CE2 TRP E   1      12.424 -10.724   6.640  1.00  6.86 LIG 0.04  A 
ATOM     41 HE1  TRP E   1      13.194 -10.244   8.421  1.00 10.26 LIG 0.17  HD
ATOM     42  CZ2 TRP E   1      11.048 -10.926   6.760  1.00  8.31 LIG 0.03  A 
ATOM     43  CD2 TRP E   1      13.103 -10.854   5.404  1.00  9.88 LIG-0.00  A 
ATOM     44  CH2 TRP E   1      10.357 -11.249   5.620  1.00 13.27 LIG 0.00  A 
ATOM     45  CZ3 TRP E   1      10.999 -11.387   4.383  1.00 13.61 LIG 0.00  A 
ATOM     46  CE3 TRP E   1      12.369 -11.189   4.262  1.00 14.26 LIG 0.01  A 
ENDBRANCH 36 37
ENDBRANCH 30 36
ENDBRANCH 28 30
ENDBRANCH 1 26
TORSDOF 14
ENDMDL
MODEL 22
USER: ADFR SOLUTION from run 2
USER: SCORE 13.362087 LL:  -3.228 LR: -11.186 RR:   0.000 FEB:  -7.010
USER: RMSD 6.512526
USER: SEED 242587
USER: STATUS no improvement in best in 20 clusters for 5 generations
USER: GENES 16
USER: genes 0 Translation |==|  0.40325 0.32202 0.37017
USER: genes 1 Rotation |==|  0.75483 0.87158 0.37717 0.67863
USER: genes 2 Torsion [N]-CA--C-[N] |==|  0.47504
USER: genes 3 Torsion [C]-N--CA-[C] |==|  0.16812
USER: genes 4 Torsion [N]-CA--C-[N] |==|  0.09162
USER: genes 5 Torsion [C]-N--CA-[C] |==|  0.68650
USER: genes 6 Torsion [N]-CA--C-[N] |==|  0.87606
USER: genes 7 Torsion [N]-CA--CB-[CG2] |==|  0.53217
USER: genes 8 Torsion [CA]-CB--OG1-[HG1] |==|  0.96544
USER: genes 9 Torsion [C]-CA--CB-[CG] |==|  0.30777
USER: genes 10 Torsion [CA]-CB--CG-[ND1] |==|  0.07025
USER: genes 11 Torsion [C]-CA--N-[C] |==|  0.83307
USER: genes 12 Torsion [N]-C--CA-[N] |==|  0.34444
USER: genes 13 Torsion [C]-CA--N-[C] |==|  0.77749
USER: genes 14 Torsion [C]-CA--CB-[CG] |==|  0.77627
USER: genes 15 Torsion [CA]-CB--CG-[CD1] |==|  0.26466
ROOT
ATOM      1  CA  HIS E   2      13.269 -12.303   0.268  1.00 14.20 LIG 0.18  C 
ENDROOT
BRANCH 1 2
ATOM      2  C   HIS E   2      12.960 -13.188   1.472  1.00 15.34 LIG 0.24  C 
ATOM      3 O    HIS E   2      13.775 -13.335   2.388  1.00 13.21 LIG-0.27  OA
ATOM      4  N   THR E   3      11.778 -13.802   1.442  1.00 14.85 LIG-0.34  N 
ATOM      5 H    THR E   3      11.180 -13.674   0.838  1.00 14.85 LIG 0.16  HD
BRANCH 4 6
ATOM      6  CA  THR E   3      11.408 -14.766   2.472  1.00 13.22 LIG 0.20  C 
BRANCH 6 7
ATOM      7  C   THR E   3      11.399 -14.108   3.846  1.00 13.63 LIG 0.24  C 
ATOM      8  N   ALA E   4      11.039 -12.826   3.882  1.00  8.98 LIG-0.35  N 
ATOM      9 H    ALA E   4      10.823 -12.368   3.188  1.00  8.98 LIG 0.16  HD
ATOM     10 O    THR E   3      11.720 -14.742   4.855  1.00 14.15 LIG-0.27  OA
BRANCH 8 11
ATOM     11  CA  ALA E   4      10.982 -12.084   5.140  1.00 15.48 LIG 0.18  C 
ATOM     12  CB  ALA E   4      11.862 -10.848   5.060  1.00 13.80 LIG 0.04  C 
BRANCH 11 13
ATOM     13  C   ALA E   4       9.553 -11.692   5.524  1.00 23.80 LIG 0.28  C 
ATOM     14 O    ALA E   4       9.157 -11.828   6.683  1.00 30.75 LIG-0.27  OA
ATOM     15  N   NH2 E 101       8.785 -11.197   4.557  1.00 22.73 LIG-0.11  N 
ENDBRANCH 11 13
ENDBRANCH 8 11
ENDBRANCH 6 7
BRANCH 6 16
ATOM     16  CB  THR E   3      12.381 -15.945   2.471  1.00 20.99 LIG 0.15  C 
ATOM     17  CG2 THR E   3      11.842 -17.082   3.339  1.00 14.08 LIG 0.04  C 
BRANCH 16 18
ATOM     18 OG1  THR E   3      12.557 -16.410   1.131  1.00 27.33 LIG-0.39  OA
ATOM     19 HG1  THR E   3      11.973 -16.065   0.635  1.00 27.33 LIG 0.21  HD
ENDBRANCH 16 18
ENDBRANCH 6 16
ENDBRANCH 4 6
ENDBRANCH 1 2
BRANCH 1 20
ATOM     20  CB  HIS E   2      13.395 -13.187  -0.979  1.00 18.36 LIG 0.10  C 
BRANCH 20 21
ATOM     21  CG  HIS E   2      12.285 -13.013  -1.969  1.00 23.43 LIG 0.06  A 
ATOM     22  CD2 HIS E   2      11.803 -13.845  -2.923  1.00 23.79 LIG 0.14  A 
ATOM     23 NE2  HIS E   2      10.789 -13.176  -3.565  1.00 23.75 LIG-0.25  NA
ATOM     24  CE1 HIS E   2      10.656 -11.977  -3.027  1.00 26.05 LIG 0.23  A 
ATOM     25 ND1  HIS E   2      11.551 -11.851  -2.063  1.00 21.22 LIG-0.24  NA
ENDBRANCH 20 21
ENDBRANCH 1 20
BRANCH 1 26
ATOM     26  N   HIS E   2      14.482 -11.532   0.522  1.00 15.97 LIG-0.35  N 
ATOM     27 H    HIS E   2      15.115 -11.680  -0.041  1.00 15.97 LIG 0.16  HD
ATOM     28  C   TRP E   1      14.586 -10.677   1.543  1.00 12.03 LIG 0.24  C 
ATOM     29 O    TRP E   1      13.656 -10.440   2.321  1.00 13.67 LIG-0.27  OA
BRANCH 28 30
ATOM     30  CA  TRP E   1      15.945 -10.014   1.737  1.00  9.26 LIG 0.18  C 
BRANCH 30 31
ATOM     31  N   TRP E   1      15.891  -8.550   1.738  1.00 13.05 LIG-0.35  N 
ATOM     32 H    TRP E   1      15.905  -8.208   2.526  1.00 13.05 LIG 0.16  HD
ATOM     33  C   ACE E   0      15.827  -7.814   0.629  1.00 12.60 LIG 0.21  C 
ATOM     34  CH3 ACE E   0      15.785  -6.314   0.838  1.00  6.27 LIG 0.12  C 
ATOM     35 O    ACE E   0      15.805  -8.322  -0.491  1.00 15.02 LIG-0.27  OA
ENDBRANCH 30 31
BRANCH 30 36
ATOM     36  CB  TRP E   1      16.562 -10.507   3.042  1.00 10.27 LIG 0.07  C 
BRANCH 36 37
ATOM     37  CG  TRP E   1      16.032  -9.812   4.263  1.00  6.62 LIG-0.03  A 
ATOM     38  CD1 TRP E   1      15.020 -10.232   5.081  1.00  7.94 LIG 0.10  A 
ATOM     39  NE1 TRP E   1      14.825  -9.320   6.103  1.00 10.26 LIG-0.36  N 
ATOM     40  CE2 TRP E   1      15.715  -8.290   5.946  1.00  6.86 LIG 0.04  A 
ATOM     41 HE1  TRP E   1      14.243  -9.389   6.732  1.00 10.26 LIG 0.17  HD
ATOM     42  CZ2 TRP E   1      15.906  -7.140   6.715  1.00  8.31 LIG 0.03  A 
ATOM     43  CD2 TRP E   1      16.491  -8.568   4.796  1.00  9.88 LIG-0.00  A 
ATOM     44  CH2 TRP E   1      16.896  -6.276   6.321  1.00 13.27 LIG 0.00  A 
ATOM     45  CZ3 TRP E   1      17.680  -6.523   5.186  1.00 13.61 LIG 0.00  A 
ATOM     46  CE3 TRP E   1      17.490  -7.665   4.419  1.00 14.26 LIG 0.01  A 
ENDBRANCH 36 37
ENDBRANCH 30 36
ENDBRANCH 28 30
ENDBRANCH 1 26
TORSDOF 14
ENDMDL
MODEL 23
USER: ADFR SOLUTION from run 89
USER: SCORE 13.126492 LL:  -3.055 LR: -11.165 RR:   0.000 FEB:  -6.988
USER: RMSD 5.781893
USER: SEED 88
USER: STATUS searching
USER: GENES 16
USER: genes 0 Translation |==|  0.38621 0.31991 0.34530
USER: genes 1 Rotation |==|  0.73374 0.88970 0.34850 0.64335
USER: genes 2 Torsion [N]-CA--C-[N] |==|  0.46072
USER: genes 3 Torsion [C]-N--CA-[C] |==|  0.18697
USER: genes 4 Torsion [N]-CA--C-[N] |==|  0.04573
USER: genes 5 Torsion [C]-N--CA-[C] |==|  0.68889
USER: genes 6 Torsion [N]-CA--C-[N] |==|  0.37838
USER: genes 7 Torsion [N]-CA--CB-[CG2] |==|  0.54057
USER: genes 8 Torsion [CA]-CB--OG1-[HG1] |==|  0.00776
USER: genes 9 Torsion [C]-CA--CB-[CG] |==|  0.35519
USER: genes 10 Torsion [CA]-CB--CG-[ND1] |==|  0.05592
USER: genes 11 Torsion [C]-CA--N-[C] |==|  0.83588
USER: genes 12 Torsion [N]-C--CA-[N] |==|  0.09400
USER: genes 13 Torsion [C]-CA--N-[C] |==|  0.69861
USER: genes 14 Torsion [C]-CA--CB-[CG] |==|  0.63610
USER: genes 15 Torsion [CA]-CB--CG-[CD1] |==|  0.80767
ROOT
ATOM      1  CA  HIS E   2      12.937 -12.347  -0.161  1.00 14.20 LIG 0.18  C 
ENDROOT
BRANCH 1 2
ATOM      2  C   HIS E   2      12.909 -13.204   1.101  1.00 15.34 LIG 0.24  C 
ATOM      3 O    HIS E   2      13.926 -13.385   1.779  1.00 13.21 LIG-0.27  OA
ATOM      4  N   THR E   3      11.732 -13.758   1.391  1.00 14.85 LIG-0.34  N 
ATOM      5 H    THR E   3      11.005 -13.605   0.959  1.00 14.85 LIG 0.16  HD
BRANCH 4 6
ATOM      6  CA  THR E   3      11.597 -14.693   2.502  1.00 13.22 LIG 0.20  C 
BRANCH 6 7
ATOM      7  C   THR E   3      11.813 -13.981   3.832  1.00 13.63 LIG 0.24  C 
ATOM      8  N   ALA E   4      11.739 -12.652   3.807  1.00  8.98 LIG-0.35  N 
ATOM      9 H    ALA E   4      11.585 -12.192   3.096  1.00  8.98 LIG 0.16  HD
ATOM     10 O    THR E   3      12.049 -14.619   4.862  1.00 14.15 LIG-0.27  OA
BRANCH 8 11
ATOM     11  CA  ALA E   4      11.919 -11.853   5.018  1.00 15.48 LIG 0.18  C 
ATOM     12  CB  ALA E   4      13.023 -10.830   4.813  1.00 13.80 LIG 0.04  C 
BRANCH 11 13
ATOM     13  C   ALA E   4      10.627 -11.157   5.456  1.00 23.80 LIG 0.28  C 
ATOM     14 O    ALA E   4       9.901 -10.607   4.627  1.00 30.75 LIG-0.27  OA
ATOM     15  N   NH2 E 101      10.337 -11.191   6.754  1.00 22.73 LIG-0.11  N 
ENDBRANCH 11 13
ENDBRANCH 8 11
ENDBRANCH 6 7
BRANCH 6 16
ATOM     16  CB  THR E   3      12.602 -15.836   2.361  1.00 20.99 LIG 0.15  C 
ATOM     17  CG2 THR E   3      12.234 -16.987   3.297  1.00 14.08 LIG 0.04  C 
BRANCH 16 18
ATOM     18 OG1  THR E   3      12.600 -16.301   1.009  1.00 27.33 LIG-0.39  OA
ATOM     19 HG1  THR E   3      12.076 -15.830   0.551  1.00 27.33 LIG 0.21  HD
ENDBRANCH 16 18
ENDBRANCH 6 16
ENDBRANCH 4 6
ENDBRANCH 1 2
BRANCH 1 20
ATOM     20  CB  HIS E   2      12.823 -13.263  -1.386  1.00 18.36 LIG 0.10  C 
BRANCH 20 21
ATOM     21  CG  HIS E   2      11.741 -12.874  -2.345  1.00 23.43 LIG 0.06  A 
ATOM     22  CD2 HIS E   2      11.119 -13.578  -3.321  1.00 23.79 LIG 0.14  A 
ATOM     23 NE2  HIS E   2      10.215 -12.731  -3.914  1.00 23.75 LIG-0.25  NA
ATOM     24  CE1 HIS E   2      10.281 -11.551  -3.326  1.00 26.05 LIG 0.23  A 
ATOM     25 ND1  HIS E   2      11.198 -11.608  -2.376  1.00 21.22 LIG-0.24  NA
ENDBRANCH 20 21
ENDBRANCH 1 20
BRANCH 1 26
ATOM     26  N   HIS E   2      14.156 -11.544  -0.184  1.00 15.97 LIG-0.35  N 
ATOM     27 H    HIS E   2      14.654 -11.684  -0.870  1.00 15.97 LIG 0.16  HD
ATOM     28  C   TRP E   1      14.456 -10.673   0.782  1.00 12.03 LIG 0.24  C 
ATOM     29 O    TRP E   1      13.712 -10.448   1.743  1.00 13.67 LIG-0.27  OA
BRANCH 28 30
ATOM     30  CA  TRP E   1      15.807  -9.975   0.670  1.00  9.26 LIG 0.18  C 
BRANCH 30 31
ATOM     31  N   TRP E   1      16.222  -9.714  -0.710  1.00 13.05 LIG-0.35  N 
ATOM     32 H    TRP E   1      15.767  -9.094  -1.093  1.00 13.05 LIG 0.16  HD
ATOM     33  C   ACE E   0      17.210 -10.370  -1.319  1.00 12.60 LIG 0.21  C 
ATOM     34  CH3 ACE E   0      17.493  -9.952  -2.748  1.00  6.27 LIG 0.12  C 
ATOM     35 O    ACE E   0      17.849 -11.257  -0.755  1.00 15.02 LIG-0.27  OA
ENDBRANCH 30 31
BRANCH 30 36
ATOM     36  CB  TRP E   1      15.761  -8.664   1.449  1.00 10.27 LIG 0.07  C 
BRANCH 36 37
ATOM     37  CG  TRP E   1      16.271  -7.481   0.678  1.00  6.62 LIG-0.03  A 
ATOM     38  CD1 TRP E   1      17.562  -7.233   0.301  1.00  7.94 LIG 0.10  A 
ATOM     39  NE1 TRP E   1      17.632  -6.041  -0.397  1.00 10.26 LIG-0.36  N 
ATOM     40  CE2 TRP E   1      16.375  -5.501  -0.470  1.00  6.86 LIG 0.04  A 
ATOM     41 HE1  TRP E   1      18.346  -5.696  -0.730  1.00 10.26 LIG 0.17  HD
ATOM     42  CZ2 TRP E   1      15.936  -4.317  -1.065  1.00  8.31 LIG 0.03  A 
ATOM     43  CD2 TRP E   1      15.492  -6.384   0.198  1.00  9.88 LIG-0.00  A 
ATOM     44  CH2 TRP E   1      14.596  -4.034  -0.992  1.00 13.27 LIG 0.00  A 
ATOM     45  CZ3 TRP E   1      13.697  -4.887  -0.337  1.00 13.61 LIG 0.00  A 
ATOM     46  CE3 TRP E   1      14.132  -6.064   0.258  1.00 14.26 LIG 0.01  A 
ENDBRANCH 36 37
ENDBRANCH 30 36
ENDBRANCH 28 30
ENDBRANCH 1 26
TORSDOF 14
ENDMDL
MODEL 24
USER: ADFR SOLUTION from run 91
USER: SCORE 14.144981 LL:  -3.795 LR: -11.148 RR:   0.000 FEB:  -6.972
USER: RMSD 5.269034
USER: SEED 90
USER: STATUS no improvement in best in 8 clusters for 5 generations
USER: GENES 16
USER: genes 0 Translation |==|  0.49429 0.60665 0.38748
USER: genes 1 Rotation |==|  0.31142 0.04160 0.51179 0.56453
USER: genes 2 Torsion [N]-CA--C-[N] |==|  0.32222
USER: genes 3 Torsion [C]-N--CA-[C] |==|  0.67681
USER: genes 4 Torsion [N]-CA--C-[N] |==|  0.30702
USER: genes 5 Torsion [C]-N--CA-[C] |==|  0.83085
USER: genes 6 Torsion [N]-CA--C-[N] |==|  0.37047
USER: genes 7 Torsion [N]-CA--CB-[CG2] |==|  0.73446
USER: genes 8 Torsion [CA]-CB--OG1-[HG1] |==|  0.90638
USER: genes 9 Torsion [C]-CA--CB-[CG] |==|  0.49000
USER: genes 10 Torsion [CA]-CB--CG-[ND1] |==|  0.74414
USER: genes 11 Torsion [C]-CA--N-[C] |==|  0.86402
USER: genes 12 Torsion [N]-C--CA-[N] |==|  0.47684
USER: genes 13 Torsion [C]-CA--N-[C] |==|  0.76243
USER: genes 14 Torsion [C]-CA--CB-[CG] |==|  0.17713
USER: genes 15 Torsion [CA]-CB--CG-[CD1] |==|  0.17606
ROOT
ATOM      1  CA  HIS E   2      15.045  -6.325   0.567  1.00 14.20 LIG 0.18  C 
ENDROOT
BRANCH 1 2
ATOM      2  C   HIS E   2      15.622  -7.737   0.535  1.00 15.34 LIG 0.24  C 
ATOM      3 O    HIS E   2      16.361  -8.109  -0.382  1.00 13.21 LIG-0.27  OA
ATOM      4  N   THR E   3      15.250  -8.531   1.538  1.00 14.85 LIG-0.34  N 
ATOM      5 H    THR E   3      14.777  -8.275   2.209  1.00 14.85 LIG 0.16  HD
BRANCH 4 6
ATOM      6  CA  THR E   3      15.636  -9.937   1.564  1.00 13.22 LIG 0.20  C 
BRANCH 6 7
ATOM      7  C   THR E   3      14.406 -10.833   1.487  1.00 13.63 LIG 0.24  C 
ATOM      8  N   ALA E   4      14.248 -11.519   0.356  1.00  8.98 LIG-0.35  N 
ATOM      9 H    ALA E   4      14.789 -11.477  -0.311  1.00  8.98 LIG 0.16  HD
ATOM     10 O    THR E   3      13.609 -10.899   2.427  1.00 14.15 LIG-0.27  OA
BRANCH 8 11
ATOM     11  CA  ALA E   4      13.114 -12.420   0.161  1.00 15.48 LIG 0.18  C 
ATOM     12  CB  ALA E   4      13.128 -12.985  -1.249  1.00 13.80 LIG 0.04  C 
BRANCH 11 13
ATOM     13  C   ALA E   4      13.087 -13.557   1.186  1.00 23.80 LIG 0.28  C 
ATOM     14 O    ALA E   4      14.113 -14.189   1.446  1.00 30.75 LIG-0.27  OA
ATOM     15  N   NH2 E 101      11.920 -13.810   1.773  1.00 22.73 LIG-0.11  N 
ENDBRANCH 11 13
ENDBRANCH 8 11
ENDBRANCH 6 7
BRANCH 6 16
ATOM     16  CB  THR E   3      16.422 -10.250   2.838  1.00 20.99 LIG 0.15  C 
ATOM     17  CG2 THR E   3      17.924 -10.170   2.569  1.00 14.08 LIG 0.04  C 
BRANCH 16 18
ATOM     18 OG1  THR E   3      16.068  -9.308   3.853  1.00 27.33 LIG-0.39  OA
ATOM     19 HG1  THR E   3      15.906  -8.563   3.501  1.00 27.33 LIG 0.21  HD
ENDBRANCH 16 18
ENDBRANCH 6 16
ENDBRANCH 4 6
ENDBRANCH 1 2
BRANCH 1 20
ATOM     20  CB  HIS E   2      14.242  -6.088  -0.719  1.00 18.36 LIG 0.10  C 
BRANCH 20 21
ATOM     21  CG  HIS E   2      13.548  -4.762  -0.774  1.00 23.43 LIG 0.06  A 
ATOM     22  CD2 HIS E   2      13.980  -3.547  -1.188  1.00 23.79 LIG 0.14  A 
ATOM     23 NE2  HIS E   2      12.942  -2.667  -1.005  1.00 23.75 LIG-0.25  NA
ATOM     24  CE1 HIS E   2      11.911  -3.317  -0.494  1.00 26.05 LIG 0.23  A 
ATOM     25 ND1  HIS E   2      12.252  -4.585  -0.341  1.00 21.22 LIG-0.24  NA
ENDBRANCH 20 21
ENDBRANCH 1 20
BRANCH 1 26
ATOM     26  N   HIS E   2      16.123  -5.355   0.731  1.00 15.97 LIG-0.35  N 
ATOM     27 H    HIS E   2      16.094  -4.702   0.172  1.00 15.97 LIG 0.16  HD
ATOM     28  C   TRP E   1      17.064  -5.484   1.669  1.00 12.03 LIG 0.24  C 
ATOM     29 O    TRP E   1      17.072  -6.404   2.494  1.00 13.67 LIG-0.27  OA
BRANCH 28 30
ATOM     30  CA  TRP E   1      18.179  -4.444   1.659  1.00  9.26 LIG 0.18  C 
BRANCH 30 31
ATOM     31  N   TRP E   1      19.068  -4.523   2.821  1.00 13.05 LIG-0.35  N 
ATOM     32 H    TRP E   1      19.772  -4.995   2.681  1.00 13.05 LIG 0.16  HD
ATOM     33  C   ACE E   0      18.816  -3.924   3.984  1.00 12.60 LIG 0.21  C 
ATOM     34  CH3 ACE E   0      19.860  -4.119   5.064  1.00  6.27 LIG 0.12  C 
ATOM     35 O    ACE E   0      17.800  -3.254   4.166  1.00 15.02 LIG-0.27  OA
ENDBRANCH 30 31
BRANCH 30 36
ATOM     36  CB  TRP E   1      18.992  -4.593   0.378  1.00 10.27 LIG 0.07  C 
BRANCH 36 37
ATOM     37  CG  TRP E   1      18.210  -4.314  -0.873  1.00  6.62 LIG-0.03  A 
ATOM     38  CD1 TRP E   1      17.634  -3.130  -1.243  1.00  7.94 LIG 0.10  A 
ATOM     39  NE1 TRP E   1      17.001  -3.270  -2.464  1.00 10.26 LIG-0.36  N 
ATOM     40  CE2 TRP E   1      17.157  -4.563  -2.893  1.00  6.86 LIG 0.04  A 
ATOM     41 HE1  TRP E   1      16.579  -2.650  -2.885  1.00 10.26 LIG 0.17  HD
ATOM     42  CZ2 TRP E   1      16.701  -5.187  -4.056  1.00  8.31 LIG 0.03  A 
ATOM     43  CD2 TRP E   1      17.914  -5.248  -1.913  1.00  9.88 LIG-0.00  A 
ATOM     44  CH2 TRP E   1      17.026  -6.509  -4.229  1.00 13.27 LIG 0.00  A 
ATOM     45  CZ3 TRP E   1      17.773  -7.215  -3.277  1.00 13.61 LIG 0.00  A 
ATOM     46  CE3 TRP E   1      18.225  -6.596  -2.119  1.00 14.26 LIG 0.01  A 
ENDBRANCH 36 37
ENDBRANCH 30 36
ENDBRANCH 28 30
ENDBRANCH 1 26
TORSDOF 14
ENDMDL
MODEL 25
USER: ADFR SOLUTION from run 104
USER: SCORE 12.933052 LL:  -3.021 LR: -11.153 RR:   0.000 FEB:  -6.977
USER: RMSD 5.019092
USER: SEED 103
USER: STATUS no improvement in best in 31 clusters for 5 generations
USER: GENES 16
USER: genes 0 Translation |==|  0.53993 0.49175 0.23829
USER: genes 1 Rotation |==|  0.62377 0.88573 0.56990 0.78462
USER: genes 2 Torsion [N]-CA--C-[N] |==|  0.08627
USER: genes 3 Torsion [C]-N--CA-[C] |==|  0.79239
USER: genes 4 Torsion [N]-CA--C-[N] |==|  0.45274
USER: genes 5 Torsion [C]-N--CA-[C] |==|  0.66183
USER: genes 6 Torsion [N]-CA--C-[N] |==|  0.17306
USER: genes 7 Torsion [N]-CA--CB-[CG2] |==|  0.59793
USER: genes 8 Torsion [CA]-CB--OG1-[HG1] |==|  0.45086
USER: genes 9 Torsion [C]-CA--CB-[CG] |==|  0.50907
USER: genes 10 Torsion [CA]-CB--CG-[ND1] |==|  0.52165
USER: genes 11 Torsion [C]-CA--N-[C] |==|  0.17778
USER: genes 12 Torsion [N]-C--CA-[N] |==|  0.55645
USER: genes 13 Torsion [C]-CA--N-[C] |==|  0.67022
USER: genes 14 Torsion [C]-CA--CB-[CG] |==|  0.27673
USER: genes 15 Torsion [CA]-CB--CG-[CD1] |==|  0.98969
ROOT
ATOM      1  CA  HIS E   2      15.935  -8.738  -2.006  1.00 14.20 LIG 0.18  C 
ENDROOT
BRANCH 1 2
ATOM      2  C   HIS E   2      15.935  -9.985  -1.128  1.00 15.34 LIG 0.24  C 
ATOM      3 O    HIS E   2      16.484 -11.030  -1.493  1.00 13.21 LIG-0.27  OA
ATOM      4  N   THR E   3      15.284  -9.870   0.030  1.00 14.85 LIG-0.34  N 
ATOM      5 H    THR E   3      14.939  -9.139   0.321  1.00 14.85 LIG 0.16  HD
BRANCH 4 6
ATOM      6  CA  THR E   3      15.109 -11.021   0.909  1.00 13.22 LIG 0.20  C 
BRANCH 6 7
ATOM      7  C   THR E   3      14.049 -11.965   0.354  1.00 13.63 LIG 0.24  C 
ATOM      8  N   ALA E   4      14.040 -13.198   0.855  1.00  8.98 LIG-0.35  N 
ATOM      9 H    ALA E   4      14.590 -13.478   1.454  1.00  8.98 LIG 0.16  HD
ATOM     10 O    THR E   3      13.260 -11.590  -0.517  1.00 14.15 LIG-0.27  OA
BRANCH 8 11
ATOM     11  CA  ALA E   4      13.068 -14.196   0.412  1.00 15.48 LIG 0.18  C 
ATOM     12  CB  ALA E   4      13.774 -15.338  -0.299  1.00 13.80 LIG 0.04  C 
BRANCH 11 13
ATOM     13  C   ALA E   4      12.217 -14.736   1.565  1.00 23.80 LIG 0.28  C 
ATOM     14 O    ALA E   4      12.266 -15.928   1.873  1.00 30.75 LIG-0.27  OA
ATOM     15  N   NH2 E 101      11.448 -13.860   2.206  1.00 22.73 LIG-0.11  N 
ENDBRANCH 11 13
ENDBRANCH 8 11
ENDBRANCH 6 7
BRANCH 6 16
ATOM     16  CB  THR E   3      14.707 -10.563   2.311  1.00 20.99 LIG 0.15  C 
ATOM     17  CG2 THR E   3      15.329 -11.475   3.368  1.00 14.08 LIG 0.04  C 
BRANCH 16 18
ATOM     18 OG1  THR E   3      15.156  -9.221   2.515  1.00 27.33 LIG-0.39  OA
ATOM     19 HG1  THR E   3      14.743  -8.883   3.163  1.00 27.33 LIG 0.21  HD
ENDBRANCH 16 18
ENDBRANCH 6 16
ENDBRANCH 4 6
ENDBRANCH 1 2
BRANCH 1 20
ATOM     20  CB  HIS E   2      17.173  -8.769  -2.912  1.00 18.36 LIG 0.10  C 
BRANCH 20 21
ATOM     21  CG  HIS E   2      17.333  -7.556  -3.775  1.00 23.43 LIG 0.06  A 
ATOM     22  CD2 HIS E   2      16.641  -6.392  -3.813  1.00 23.79 LIG 0.14  A 
ATOM     23 NE2  HIS E   2      17.194  -5.628  -4.811  1.00 23.75 LIG-0.25  NA
ATOM     24  CE1 HIS E   2      18.187  -6.298  -5.367  1.00 26.05 LIG 0.23  A 
ATOM     25 ND1  HIS E   2      18.291  -7.469  -4.762  1.00 21.22 LIG-0.24  NA
ENDBRANCH 20 21
ENDBRANCH 1 20
BRANCH 1 26
ATOM     26  N   HIS E   2      15.894  -7.544  -1.168  1.00 15.97 LIG-0.35  N 
ATOM     27 H    HIS E   2      15.182  -7.072  -1.266  1.00 15.97 LIG 0.16  HD
ATOM     28  C   TRP E   1      16.882  -7.226  -0.329  1.00 12.03 LIG 0.24  C 
ATOM     29 O    TRP E   1      17.881  -7.934  -0.164  1.00 13.67 LIG-0.27  OA
BRANCH 28 30
ATOM     30  CA  TRP E   1      16.742  -5.901   0.413  1.00  9.26 LIG 0.18  C 
BRANCH 30 31
ATOM     31  N   TRP E   1      18.009  -5.381   0.932  1.00 13.05 LIG-0.35  N 
ATOM     32 H    TRP E   1      18.589  -5.218   0.319  1.00 13.05 LIG 0.16  HD
ATOM     33  C   ACE E   0      18.247  -5.177   2.228  1.00 12.60 LIG 0.21  C 
ATOM     34  CH3 ACE E   0      19.618  -4.628   2.566  1.00  6.27 LIG 0.12  C 
ATOM     35 O    ACE E   0      17.405  -5.420   3.091  1.00 15.02 LIG-0.27  OA
ENDBRANCH 30 31
BRANCH 30 36
ATOM     36  CB  TRP E   1      16.105  -4.872  -0.515  1.00 10.27 LIG 0.07  C 
BRANCH 36 37
ATOM     37  CG  TRP E   1      14.634  -4.677  -0.285  1.00  6.62 LIG-0.03  A 
ATOM     38  CD1 TRP E   1      13.835  -5.359   0.591  1.00  7.94 LIG 0.10  A 
ATOM     39  NE1 TRP E   1      12.537  -4.890   0.513  1.00 10.26 LIG-0.36  N 
ATOM     40  CE2 TRP E   1      12.484  -3.897  -0.429  1.00  6.86 LIG 0.04  A 
ATOM     41 HE1  TRP E   1      11.872  -5.174   0.979  1.00 10.26 LIG 0.17  HD
ATOM     42  CZ2 TRP E   1      11.406  -3.124  -0.866  1.00  8.31 LIG 0.03  A 
ATOM     43  CD2 TRP E   1      13.790  -3.737  -0.953  1.00  9.88 LIG-0.00  A 
ATOM     44  CH2 TRP E   1      11.657  -2.179  -1.828  1.00 13.27 LIG 0.00  A 
ATOM     45  CZ3 TRP E   1      12.938  -1.998  -2.367  1.00 13.61 LIG 0.00  A 
ATOM     46  CE3 TRP E   1      14.011  -2.767  -1.936  1.00 14.26 LIG 0.01  A 
ENDBRANCH 36 37
ENDBRANCH 30 36
ENDBRANCH 28 30
ENDBRANCH 1 26
TORSDOF 14
ENDMDL
MODEL 26
USER: ADFR SOLUTION from run 83
USER: SCORE 14.351193 LL:  -3.604 LR: -11.093 RR:   0.000 FEB:  -6.917
USER: RMSD 9.152058
USER: SEED 82
USER: STATUS no improvement in best in 6 clusters for 5 generations
USER: GENES 16
USER: genes 0 Translation |==|  0.33260 0.16943 0.50838
USER: genes 1 Rotation |==|  0.45188 0.76967 0.10857 0.64747
USER: genes 2 Torsion [N]-CA--C-[N] |==|  0.09526
USER: genes 3 Torsion [C]-N--CA-[C] |==|  0.81765
USER: genes 4 Torsion [N]-CA--C-[N] |==|  0.91772
USER: genes 5 Torsion [C]-N--CA-[C] |==|  0.76965
USER: genes 6 Torsion [N]-CA--C-[N] |==|  0.90793
USER: genes 7 Torsion [N]-CA--CB-[CG2] |==|  0.68485
USER: genes 8 Torsion [CA]-CB--OG1-[HG1] |==|  0.17343
USER: genes 9 Torsion [C]-CA--CB-[CG] |==|  0.25737
USER: genes 10 Torsion [CA]-CB--CG-[ND1] |==|  0.69840
USER: genes 11 Torsion [C]-CA--N-[C] |==|  0.15604
USER: genes 12 Torsion [N]-C--CA-[N] |==|  0.91667
USER: genes 13 Torsion [C]-CA--N-[C] |==|  0.76136
USER: genes 14 Torsion [C]-CA--CB-[CG] |==|  0.73428
USER: genes 15 Torsion [CA]-CB--CG-[CD1] |==|  0.28826
ROOT
ATOM      1  CA  HIS E   2      11.892 -15.507   2.653  1.00 14.20 LIG 0.18  C 
ENDROOT
BRANCH 1 2
ATOM      2  C   HIS E   2      12.703 -14.423   3.356  1.00 15.34 LIG 0.24  C 
ATOM      3 O    HIS E   2      13.068 -14.552   4.529  1.00 13.21 LIG-0.27  OA
ATOM      4  N   THR E   3      12.957 -13.336   2.629  1.00 14.85 LIG-0.34  N 
ATOM      5 H    THR E   3      12.753 -13.249   1.798  1.00 14.85 LIG 0.16  HD
BRANCH 4 6
ATOM      6  CA  THR E   3      13.621 -12.178   3.218  1.00 13.22 LIG 0.20  C 
BRANCH 6 7
ATOM      7  C   THR E   3      12.741 -11.540   4.285  1.00 13.63 LIG 0.24  C 
ATOM      8  N   ALA E   4      11.426 -11.661   4.113  1.00  8.98 LIG-0.35  N 
ATOM      9 H    ALA E   4      11.064 -12.066   3.446  1.00  8.98 LIG 0.16  HD
ATOM     10 O    THR E   3      13.239 -10.941   5.242  1.00 14.15 LIG-0.27  OA
BRANCH 8 11
ATOM     11  CA  ALA E   4      10.475 -11.100   5.070  1.00 15.48 LIG 0.18  C 
ATOM     12  CB  ALA E   4       9.156 -10.793   4.382  1.00 13.80 LIG 0.04  C 
BRANCH 11 13
ATOM     13  C   ALA E   4      10.244 -12.019   6.272  1.00 23.80 LIG 0.28  C 
ATOM     14 O    ALA E   4      10.006 -11.546   7.385  1.00 30.75 LIG-0.27  OA
ATOM     15  N   NH2 E 101      10.302 -13.329   6.047  1.00 22.73 LIG-0.11  N 
ENDBRANCH 11 13
ENDBRANCH 8 11
ENDBRANCH 6 7
BRANCH 6 16
ATOM     16  CB  THR E   3      13.952 -11.148   2.138  1.00 20.99 LIG 0.15  C 
ATOM     17  CG2 THR E   3      15.466 -11.023   1.967  1.00 14.08 LIG 0.04  C 
BRANCH 16 18
ATOM     18 OG1  THR E   3      13.364 -11.557   0.901  1.00 27.33 LIG-0.39  OA
ATOM     19 HG1  THR E   3      12.529 -11.580   0.981  1.00 27.33 LIG 0.21  HD
ENDBRANCH 16 18
ENDBRANCH 6 16
ENDBRANCH 4 6
ENDBRANCH 1 2
BRANCH 1 20
ATOM     20  CB  HIS E   2      12.155 -16.852   3.344  1.00 18.36 LIG 0.10  C 
BRANCH 20 21
ATOM     21  CG  HIS E   2      11.178 -17.187   4.427  1.00 23.43 LIG 0.06  A 
ATOM     22  CD2 HIS E   2       9.868 -17.528   4.372  1.00 23.79 LIG 0.14  A 
ATOM     23 NE2  HIS E   2       9.445 -17.711   5.666  1.00 23.75 LIG-0.25  NA
ATOM     24  CE1 HIS E   2      10.457 -17.488   6.485  1.00 26.05 LIG 0.23  A 
ATOM     25 ND1  HIS E   2      11.516 -17.166   5.763  1.00 21.22 LIG-0.24  NA
ENDBRANCH 20 21
ENDBRANCH 1 20
BRANCH 1 26
ATOM     26  N   HIS E   2      12.236 -15.539   1.235  1.00 15.97 LIG-0.35  N 
ATOM     27 H    HIS E   2      11.564 -15.440   0.708  1.00 15.97 LIG 0.16  HD
ATOM     28  C   TRP E   1      13.490 -15.708   0.808  1.00 12.03 LIG 0.24  C 
ATOM     29 O    TRP E   1      14.455 -15.807   1.573  1.00 13.67 LIG-0.27  OA
BRANCH 28 30
ATOM     30  CA  TRP E   1      13.684 -15.814  -0.701  1.00  9.26 LIG 0.18  C 
BRANCH 30 31
ATOM     31  N   TRP E   1      12.538 -16.395  -1.403  1.00 13.05 LIG-0.35  N 
ATOM     32 H    TRP E   1      11.988 -15.808  -1.706  1.00 13.05 LIG 0.16  HD
ATOM     33  C   ACE E   0      12.357 -17.706  -1.561  1.00 12.60 LIG 0.21  C 
ATOM     34  CH3 ACE E   0      11.111 -18.111  -2.322  1.00  6.27 LIG 0.12  C 
ATOM     35 O    ACE E   0      13.153 -18.532  -1.117  1.00 15.02 LIG-0.27  OA
ENDBRANCH 30 31
BRANCH 30 36
ATOM     36  CB  TRP E   1      13.986 -14.430  -1.266  1.00 10.27 LIG 0.07  C 
BRANCH 36 37
ATOM     37  CG  TRP E   1      12.778 -13.717  -1.802  1.00  6.62 LIG-0.03  A 
ATOM     38  CD1 TRP E   1      12.088 -12.696  -1.210  1.00  7.94 LIG 0.10  A 
ATOM     39  NE1 TRP E   1      11.035 -12.303  -2.015  1.00 10.26 LIG-0.36  N 
ATOM     40  CE2 TRP E   1      11.031 -13.082  -3.143  1.00  6.86 LIG 0.04  A 
ATOM     41 HE1  TRP E   1      10.475 -11.674  -1.838  1.00 10.26 LIG 0.17  HD
ATOM     42  CZ2 TRP E   1      10.170 -13.072  -4.242  1.00  8.31 LIG 0.03  A 
ATOM     43  CD2 TRP E   1      12.117 -13.985  -3.040  1.00  9.88 LIG-0.00  A 
ATOM     44  CH2 TRP E   1      10.421 -13.972  -5.246  1.00 13.27 LIG 0.00  A 
ATOM     45  CZ3 TRP E   1      11.486 -14.880  -5.174  1.00 13.61 LIG 0.00  A 
ATOM     46  CE3 TRP E   1      12.342 -14.893  -4.080  1.00 14.26 LIG 0.01  A 
ENDBRANCH 36 37
ENDBRANCH 30 36
ENDBRANCH 28 30
ENDBRANCH 1 26
TORSDOF 14
ENDMDL
MODEL 27
USER: ADFR SOLUTION from run 174
USER: SCORE 14.185387 LL:  -3.934 LR: -11.091 RR:   0.000 FEB:  -6.915
USER: RMSD 7.869589
USER: SEED 173
USER: STATUS no improvement in best in 12 clusters for 5 generations
USER: GENES 16
USER: genes 0 Translation |==|  0.71633 0.57826 0.26729
USER: genes 1 Rotation |==|  0.25773 0.86333 0.67498 0.66934
USER: genes 2 Torsion [N]-CA--C-[N] |==|  0.90000
USER: genes 3 Torsion [C]-N--CA-[C] |==|  0.65696
USER: genes 4 Torsion [N]-CA--C-[N] |==|  0.91518
USER: genes 5 Torsion [C]-N--CA-[C] |==|  0.19578
USER: genes 6 Torsion [N]-CA--C-[N] |==|  0.06214
USER: genes 7 Torsion [N]-CA--CB-[CG2] |==|  0.72288
USER: genes 8 Torsion [CA]-CB--OG1-[HG1] |==|  0.60056
USER: genes 9 Torsion [C]-CA--CB-[CG] |==|  0.53622
USER: genes 10 Torsion [CA]-CB--CG-[ND1] |==|  0.18780
USER: genes 11 Torsion [C]-CA--N-[C] |==|  0.83678
USER: genes 12 Torsion [N]-C--CA-[N] |==|  0.47148
USER: genes 13 Torsion [C]-CA--N-[C] |==|  0.79420
USER: genes 14 Torsion [C]-CA--CB-[CG] |==|  0.24607
USER: genes 15 Torsion [CA]-CB--CG-[CD1] |==|  0.75358
ROOT
ATOM      1  CA  HIS E   2      19.374  -6.921  -1.506  1.00 14.20 LIG 0.18  C 
ENDROOT
BRANCH 1 2
ATOM      2  C   HIS E   2      20.335  -6.608  -0.363  1.00 15.34 LIG 0.24  C 
ATOM      3 O    HIS E   2      21.402  -7.216  -0.234  1.00 13.21 LIG-0.27  OA
ATOM      4  N   THR E   3      19.925  -5.667   0.487  1.00 14.85 LIG-0.34  N 
ATOM      5 H    THR E   3      19.209  -5.201   0.386  1.00 14.85 LIG 0.16  HD
BRANCH 4 6
ATOM      6  CA  THR E   3      20.693  -5.355   1.687  1.00 13.22 LIG 0.20  C 
BRANCH 6 7
ATOM      7  C   THR E   3      19.829  -5.508   2.933  1.00 13.63 LIG 0.24  C 
ATOM      8  N   ALA E   4      18.529  -5.260   2.781  1.00  8.98 LIG-0.35  N 
ATOM      9 H    ALA E   4      18.169  -5.021   2.038  1.00  8.98 LIG 0.16  HD
ATOM     10 O    THR E   3      20.326  -5.837   4.013  1.00 14.15 LIG-0.27  OA
BRANCH 8 11
ATOM     11  CA  ALA E   4      17.593  -5.380   3.897  1.00 15.48 LIG 0.18  C 
ATOM     12  CB  ALA E   4      17.726  -6.746   4.550  1.00 13.80 LIG 0.04  C 
BRANCH 11 13
ATOM     13  C   ALA E   4      17.782  -4.275   4.941  1.00 23.80 LIG 0.28  C 
ATOM     14 O    ALA E   4      17.403  -4.440   6.102  1.00 30.75 LIG-0.27  OA
ATOM     15  N   NH2 E 101      18.376  -3.158   4.532  1.00 22.73 LIG-0.11  N 
ENDBRANCH 11 13
ENDBRANCH 8 11
ENDBRANCH 6 7
BRANCH 6 16
ATOM     16  CB  THR E   3      21.240  -3.930   1.613  1.00 20.99 LIG 0.15  C 
ATOM     17  CG2 THR E   3      22.707  -3.944   1.181  1.00 14.08 LIG 0.04  C 
BRANCH 16 18
ATOM     18 OG1  THR E   3      20.472  -3.178   0.670  1.00 27.33 LIG-0.39  OA
ATOM     19 HG1  THR E   3      20.976  -2.647   0.258  1.00 27.33 LIG 0.21  HD
ENDBRANCH 16 18
ENDBRANCH 6 16
ENDBRANCH 4 6
ENDBRANCH 1 2
BRANCH 1 20
ATOM     20  CB  HIS E   2      19.656  -5.959  -2.668  1.00 18.36 LIG 0.10  C 
BRANCH 20 21
ATOM     21  CG  HIS E   2      18.597  -5.949  -3.726  1.00 23.43 LIG 0.06  A 
ATOM     22  CD2 HIS E   2      18.627  -6.343  -5.022  1.00 23.79 LIG 0.14  A 
ATOM     23 NE2  HIS E   2      17.382  -6.094  -5.547  1.00 23.75 LIG-0.25  NA
ATOM     24  CE1 HIS E   2      16.617  -5.565  -4.610  1.00 26.05 LIG 0.23  A 
ATOM     25 ND1  HIS E   2      17.327  -5.462  -3.500  1.00 21.22 LIG-0.24  NA
ENDBRANCH 20 21
ENDBRANCH 1 20
BRANCH 1 26
ATOM     26  N   HIS E   2      17.997  -6.826  -1.033  1.00 15.97 LIG-0.35  N 
ATOM     27 H    HIS E   2      17.519  -6.252  -1.459  1.00 15.97 LIG 0.16  HD
ATOM     28  C   TRP E   1      17.534  -7.572  -0.027  1.00 12.03 LIG 0.24  C 
ATOM     29 O    TRP E   1      18.216  -8.426   0.549  1.00 13.67 LIG-0.27  OA
BRANCH 28 30
ATOM     30  CA  TRP E   1      16.101  -7.297   0.418  1.00  9.26 LIG 0.18  C 
BRANCH 30 31
ATOM     31  N   TRP E   1      15.573  -8.293   1.352  1.00 13.05 LIG-0.35  N 
ATOM     32 H    TRP E   1      15.522  -8.010   2.162  1.00 13.05 LIG 0.16  HD
ATOM     33  C   ACE E   0      15.205  -9.522   0.989  1.00 12.60 LIG 0.21  C 
ATOM     34  CH3 ACE E   0      14.677 -10.405   2.101  1.00  6.27 LIG 0.12  C 
ATOM     35 O    ACE E   0      15.288  -9.910  -0.176  1.00 15.02 LIG-0.27  OA
ENDBRANCH 30 31
BRANCH 30 36
ATOM     36  CB  TRP E   1      16.031  -5.911   1.051  1.00 10.27 LIG 0.07  C 
BRANCH 36 37
ATOM     37  CG  TRP E   1      15.760  -4.808   0.068  1.00  6.62 LIG-0.03  A 
ATOM     38  CD1 TRP E   1      16.679  -4.092  -0.648  1.00  7.94 LIG 0.10  A 
ATOM     39  NE1 TRP E   1      16.039  -3.163  -1.449  1.00 10.26 LIG-0.36  N 
ATOM     40  CE2 TRP E   1      14.688  -3.269  -1.248  1.00  6.86 LIG 0.04  A 
ATOM     41 HE1  TRP E   1      16.426  -2.612  -1.984  1.00 10.26 LIG 0.17  HD
ATOM     42  CZ2 TRP E   1      13.634  -2.553  -1.820  1.00  8.31 LIG 0.03  A 
ATOM     43  CD2 TRP E   1      14.477  -4.297  -0.298  1.00  9.88 LIG-0.00  A 
ATOM     44  CH2 TRP E   1      12.361  -2.891  -1.434  1.00 13.27 LIG 0.00  A 
ATOM     45  CZ3 TRP E   1      12.120  -3.902  -0.494  1.00 13.61 LIG 0.00  A 
ATOM     46  CE3 TRP E   1      13.167  -4.613   0.077  1.00 14.26 LIG 0.01  A 
ENDBRANCH 36 37
ENDBRANCH 30 36
ENDBRANCH 28 30
ENDBRANCH 1 26
TORSDOF 14
ENDMDL
MODEL 28
USER: ADFR SOLUTION from run 186
USER: SCORE 13.164251 LL:  -3.088 LR: -11.084 RR:   0.000 FEB:  -6.908
USER: RMSD 9.025579
USER: SEED 185
USER: STATUS no improvement in best in 46 clusters for 5 generations
USER: GENES 16
USER: genes 0 Translation |==|  0.56401 0.52607 0.36751
USER: genes 1 Rotation |==|  0.92073 0.28140 0.38302 0.60734
USER: genes 2 Torsion [N]-CA--C-[N] |==|  0.45154
USER: genes 3 Torsion [C]-N--CA-[C] |==|  0.85750
USER: genes 4 Torsion [N]-CA--C-[N] |==|  0.36968
USER: genes 5 Torsion [C]-N--CA-[C] |==|  0.17995
USER: genes 6 Torsion [N]-CA--C-[N] |==|  0.07049
USER: genes 7 Torsion [N]-CA--CB-[CG2] |==|  0.15673
USER: genes 8 Torsion [CA]-CB--OG1-[HG1] |==|  0.76228
USER: genes 9 Torsion [C]-CA--CB-[CG] |==|  0.18594
USER: genes 10 Torsion [CA]-CB--CG-[ND1] |==|  0.15567
USER: genes 11 Torsion [C]-CA--N-[C] |==|  0.54444
USER: genes 12 Torsion [N]-C--CA-[N] |==|  0.87486
USER: genes 13 Torsion [C]-CA--N-[C] |==|  0.62982
USER: genes 14 Torsion [C]-CA--CB-[CG] |==|  0.41778
USER: genes 15 Torsion [CA]-CB--CG-[CD1] |==|  0.84218
ROOT
ATOM      1  CA  HIS E   2      16.404  -8.018   0.223  1.00 14.20 LIG 0.18  C 
ENDROOT
BRANCH 1 2
ATOM      2  C   HIS E   2      16.198  -6.509   0.317  1.00 15.34 LIG 0.24  C 
ATOM      3 O    HIS E   2      15.283  -6.026   0.992  1.00 13.21 LIG-0.27  OA
ATOM      4  N   THR E   3      17.047  -5.769  -0.395  1.00 14.85 LIG-0.34  N 
ATOM      5 H    THR E   3      17.718  -6.085  -0.830  1.00 14.85 LIG 0.16  HD
BRANCH 4 6
ATOM      6  CA  THR E   3      16.887  -4.322  -0.485  1.00 13.22 LIG 0.20  C 
BRANCH 6 7
ATOM      7  C   THR E   3      15.464  -3.964  -0.895  1.00 13.63 LIG 0.24  C 
ATOM      8  N   ALA E   4      14.871  -3.006  -0.184  1.00  8.98 LIG-0.35  N 
ATOM      9 H    ALA E   4      15.241  -2.598   0.476  1.00  8.98 LIG 0.16  HD
ATOM     10 O    THR E   3      14.908  -4.545  -1.830  1.00 14.15 LIG-0.27  OA
BRANCH 8 11
ATOM     11  CA  ALA E   4      13.510  -2.565  -0.483  1.00 15.48 LIG 0.18  C 
ATOM     12  CB  ALA E   4      13.424  -2.056  -1.912  1.00 13.80 LIG 0.04  C 
BRANCH 11 13
ATOM     13  C   ALA E   4      12.474  -3.668  -0.251  1.00 23.80 LIG 0.28  C 
ATOM     14 O    ALA E   4      11.406  -3.663  -0.867  1.00 30.75 LIG-0.27  OA
ATOM     15  N   NH2 E 101      12.791  -4.617   0.625  1.00 22.73 LIG-0.11  N 
ENDBRANCH 11 13
ENDBRANCH 8 11
ENDBRANCH 6 7
BRANCH 6 16
ATOM     16  CB  THR E   3      17.876  -3.739  -1.494  1.00 20.99 LIG 0.15  C 
ATOM     17  CG2 THR E   3      17.700  -4.406  -2.859  1.00 14.08 LIG 0.04  C 
BRANCH 16 18
ATOM     18 OG1  THR E   3      17.651  -2.333  -1.617  1.00 27.33 LIG-0.39  OA
ATOM     19 HG1  THR E   3      17.046  -2.194  -2.183  1.00 27.33 LIG 0.21  HD
ENDBRANCH 16 18
ENDBRANCH 6 16
ENDBRANCH 4 6
ENDBRANCH 1 2
BRANCH 1 20
ATOM     20  CB  HIS E   2      15.903  -8.502  -1.144  1.00 18.36 LIG 0.10  C 
BRANCH 20 21
ATOM     21  CG  HIS E   2      16.709  -8.008  -2.305  1.00 23.43 LIG 0.06  A 
ATOM     22  CD2 HIS E   2      16.344  -7.336  -3.422  1.00 23.79 LIG 0.14  A 
ATOM     23 NE2  HIS E   2      17.481  -7.148  -4.169  1.00 23.75 LIG-0.25  NA
ATOM     24  CE1 HIS E   2      18.506  -7.686  -3.534  1.00 26.05 LIG 0.23  A 
ATOM     25 ND1  HIS E   2      18.068  -8.216  -2.406  1.00 21.22 LIG-0.24  NA
ENDBRANCH 20 21
ENDBRANCH 1 20
BRANCH 1 26
ATOM     26  N   HIS E   2      15.718  -8.679   1.328  1.00 15.97 LIG-0.35  N 
ATOM     27 H    HIS E   2      15.139  -8.185   1.727  1.00 15.97 LIG 0.16  HD
ATOM     28  C   TRP E   1      15.978  -9.942   1.677  1.00 12.03 LIG 0.24  C 
ATOM     29 O    TRP E   1      16.781 -10.658   1.069  1.00 13.67 LIG-0.27  OA
BRANCH 28 30
ATOM     30  CA  TRP E   1      15.251 -10.468   2.910  1.00  9.26 LIG 0.18  C 
BRANCH 30 31
ATOM     31  N   TRP E   1      15.255  -9.534   4.039  1.00 13.05 LIG-0.35  N 
ATOM     32 H    TRP E   1      15.048  -8.730   3.818  1.00 13.05 LIG 0.16  HD
ATOM     33  C   ACE E   0      15.550  -9.890   5.289  1.00 12.60 LIG 0.21  C 
ATOM     34  CH3 ACE E   0      15.494  -8.780   6.318  1.00  6.27 LIG 0.12  C 
ATOM     35 O    ACE E   0      15.847 -11.047   5.585  1.00 15.02 LIG-0.27  OA
ENDBRANCH 30 31
BRANCH 30 36
ATOM     36  CB  TRP E   1      13.814 -10.815   2.535  1.00 10.27 LIG 0.07  C 
BRANCH 36 37
ATOM     37  CG  TRP E   1      13.225 -11.926   3.355  1.00  6.62 LIG-0.03  A 
ATOM     38  CD1 TRP E   1      13.715 -13.194   3.506  1.00  7.94 LIG 0.10  A 
ATOM     39  NE1 TRP E   1      12.892 -13.926   4.342  1.00 10.26 LIG-0.36  N 
ATOM     40  CE2 TRP E   1      11.848 -13.131   4.735  1.00  6.86 LIG 0.04  A 
ATOM     41 HE1  TRP E   1      13.015 -14.744   4.576  1.00 10.26 LIG 0.17  HD
ATOM     42  CZ2 TRP E   1      10.764 -13.413   5.569  1.00  8.31 LIG 0.03  A 
ATOM     43  CD2 TRP E   1      12.027 -11.863   4.131  1.00  9.88 LIG-0.00  A 
ATOM     44  CH2 TRP E   1       9.866 -12.402   5.799  1.00 13.27 LIG 0.00  A 
ATOM     45  CZ3 TRP E   1      10.015 -11.137   5.215  1.00 13.61 LIG 0.00  A 
ATOM     46  CE3 TRP E   1      11.090 -10.855   4.383  1.00 14.26 LIG 0.01  A 
ENDBRANCH 36 37
ENDBRANCH 30 36
ENDBRANCH 28 30
ENDBRANCH 1 26
TORSDOF 14
ENDMDL
MODEL 29
USER: ADFR SOLUTION from run 40
USER: SCORE 12.188713 LL:  -2.970 LR: -11.060 RR:   0.000 FEB:  -6.884
USER: RMSD 9.566557
USER: SEED 39
USER: STATUS no improvement in best in 38 clusters for 5 generations
USER: GENES 16
USER: genes 0 Translation |==|  0.45029 0.42709 0.71647
USER: genes 1 Rotation |==|  0.60849 0.44431 0.96662 0.63189
USER: genes 2 Torsion [N]-CA--C-[N] |==|  0.27779
USER: genes 3 Torsion [C]-N--CA-[C] |==|  0.73923
USER: genes 4 Torsion [N]-CA--C-[N] |==|  0.83650
USER: genes 5 Torsion [C]-N--CA-[C] |==|  0.67840
USER: genes 6 Torsion [N]-CA--C-[N] |==|  0.01113
USER: genes 7 Torsion [N]-CA--CB-[CG2] |==|  0.64370
USER: genes 8 Torsion [CA]-CB--OG1-[HG1] |==|  0.06173
USER: genes 9 Torsion [C]-CA--CB-[CG] |==|  0.47119
USER: genes 10 Torsion [CA]-CB--CG-[ND1] |==|  0.60634
USER: genes 11 Torsion [C]-CA--N-[C] |==|  0.84012
USER: genes 12 Torsion [N]-C--CA-[N] |==|  0.29235
USER: genes 13 Torsion [C]-CA--N-[C] |==|  0.82072
USER: genes 14 Torsion [C]-CA--CB-[CG] |==|  0.39932
USER: genes 15 Torsion [CA]-CB--CG-[CD1] |==|  0.55233
ROOT
ATOM      1  CA  HIS E   2      14.187 -10.096   6.242  1.00 14.20 LIG 0.18  C 
ENDROOT
BRANCH 1 2
ATOM      2  C   HIS E   2      15.512 -10.141   5.487  1.00 15.34 LIG 0.24  C 
ATOM      3 O    HIS E   2      16.408 -10.927   5.808  1.00 13.21 LIG-0.27  OA
ATOM      4  N   THR E   3      15.634  -9.262   4.493  1.00 14.85 LIG-0.34  N 
ATOM      5 H    THR E   3      15.004  -8.742   4.225  1.00 14.85 LIG 0.16  HD
BRANCH 4 6
ATOM      6  CA  THR E   3      16.892  -9.121   3.767  1.00 13.22 LIG 0.20  C 
BRANCH 6 7
ATOM      7  C   THR E   3      17.739  -8.009   4.374  1.00 13.63 LIG 0.24  C 
ATOM      8  N   ALA E   4      17.188  -6.798   4.400  1.00  8.98 LIG-0.35  N 
ATOM      9 H    ALA E   4      16.403  -6.619   4.096  1.00  8.98 LIG 0.16  HD
ATOM     10 O    THR E   3      18.873  -8.239   4.803  1.00 14.15 LIG-0.27  OA
BRANCH 8 11
ATOM     11  CA  ALA E   4      17.895  -5.649   4.963  1.00 15.48 LIG 0.18  C 
ATOM     12  CB  ALA E   4      18.059  -4.565   3.910  1.00 13.80 LIG 0.04  C 
BRANCH 11 13
ATOM     13  C   ALA E   4      17.195  -5.081   6.201  1.00 23.80 LIG 0.28  C 
ATOM     14 O    ALA E   4      17.618  -4.060   6.745  1.00 30.75 LIG-0.27  OA
ATOM     15  N   NH2 E 101      16.122  -5.734   6.638  1.00 22.73 LIG-0.11  N 
ENDBRANCH 11 13
ENDBRANCH 8 11
ENDBRANCH 6 7
BRANCH 6 16
ATOM     16  CB  THR E   3      16.625  -8.820   2.293  1.00 20.99 LIG 0.15  C 
ATOM     17  CG2 THR E   3      17.400  -9.790   1.402  1.00 14.08 LIG 0.04  C 
BRANCH 16 18
ATOM     18 OG1  THR E   3      15.225  -8.946   2.032  1.00 27.33 LIG-0.39  OA
ATOM     19 HG1  THR E   3      14.796  -8.858   2.749  1.00 27.33 LIG 0.21  HD
ENDBRANCH 16 18
ENDBRANCH 6 16
ENDBRANCH 4 6
ENDBRANCH 1 2
BRANCH 1 20
ATOM     20  CB  HIS E   2      14.469 -10.207   7.747  1.00 18.36 LIG 0.10  C 
BRANCH 20 21
ATOM     21  CG  HIS E   2      13.281  -9.932   8.616  1.00 23.43 LIG 0.06  A 
ATOM     22  CD2 HIS E   2      11.970 -10.230   8.454  1.00 23.79 LIG 0.14  A 
ATOM     23 NE2  HIS E   2      11.305  -9.727   9.546  1.00 23.75 LIG-0.25  NA
ATOM     24  CE1 HIS E   2      12.176  -9.140  10.347  1.00 26.05 LIG 0.23  A 
ATOM     25 ND1  HIS E   2      13.378  -9.245   9.807  1.00 21.22 LIG-0.24  NA
ENDBRANCH 20 21
ENDBRANCH 1 20
BRANCH 1 26
ATOM     26  N   HIS E   2      13.311 -11.162   5.765  1.00 15.97 LIG-0.35  N 
ATOM     27 H    HIS E   2      13.051 -11.703   6.380  1.00 15.97 LIG 0.16  HD
ATOM     28  C   TRP E   1      12.954 -11.274   4.483  1.00 12.03 LIG 0.24  C 
ATOM     29 O    TRP E   1      13.299 -10.466   3.614  1.00 13.67 LIG-0.27  OA
BRANCH 28 30
ATOM     30  CA  TRP E   1      12.112 -12.491   4.117  1.00  9.26 LIG 0.18  C 
BRANCH 30 31
ATOM     31  N   TRP E   1      10.700 -12.180   3.881  1.00 13.05 LIG-0.35  N 
ATOM     32 H    TRP E   1      10.449 -12.324   3.072  1.00 13.05 LIG 0.16  HD
ATOM     33  C   ACE E   0       9.879 -11.719   4.824  1.00 12.60 LIG 0.21  C 
ATOM     34  CH3 ACE E   0       8.452 -11.463   4.384  1.00  6.27 LIG 0.12  C 
ATOM     35 O    ACE E   0      10.257 -11.516   5.976  1.00 15.02 LIG-0.27  OA
ENDBRANCH 30 31
BRANCH 30 36
ATOM     36  CB  TRP E   1      12.706 -13.159   2.882  1.00 10.27 LIG 0.07  C 
BRANCH 36 37
ATOM     37  CG  TRP E   1      12.609 -14.657   2.896  1.00  6.62 LIG-0.03  A 
ATOM     38  CD1 TRP E   1      13.336 -15.541   2.148  1.00  7.94 LIG 0.10  A 
ATOM     39  NE1 TRP E   1      12.960 -16.838   2.445  1.00 10.26 LIG-0.36  N 
ATOM     40  CE2 TRP E   1      11.971 -16.801   3.393  1.00  6.86 LIG 0.04  A 
ATOM     41 HE1  TRP E   1      13.292 -17.550   2.094  1.00 10.26 LIG 0.17  HD
ATOM     42  CZ2 TRP E   1      11.273 -17.842   4.008  1.00  8.31 LIG 0.03  A 
ATOM     43  CD2 TRP E   1      11.725 -15.441   3.699  1.00  9.88 LIG-0.00  A 
ATOM     44  CH2 TRP E   1      10.331 -17.502   4.945  1.00 13.27 LIG 0.00  A 
ATOM     45  CZ3 TRP E   1      10.064 -16.165   5.269  1.00 13.61 LIG 0.00  A 
ATOM     46  CE3 TRP E   1      10.755 -15.128   4.657  1.00 14.26 LIG 0.01  A 
ENDBRANCH 36 37
ENDBRANCH 30 36
ENDBRANCH 28 30
ENDBRANCH 1 26
TORSDOF 14
ENDMDL
MODEL 30
USER: ADFR SOLUTION from run 111
USER: SCORE 14.461528 LL:  -4.261 LR: -11.031 RR:   0.000 FEB:  -6.855
USER: RMSD 5.352178
USER: SEED 110
USER: STATUS no improvement in best in 7 clusters for 5 generations
USER: GENES 16
USER: genes 0 Translation |==|  0.63178 0.59155 0.59750
USER: genes 1 Rotation |==|  0.33318 0.37923 0.74903 0.88153
USER: genes 2 Torsion [N]-CA--C-[N] |==|  0.91868
USER: genes 3 Torsion [C]-N--CA-[C] |==|  0.81113
USER: genes 4 Torsion [N]-CA--C-[N] |==|  0.90988
USER: genes 5 Torsion [C]-N--CA-[C] |==|  0.78206
USER: genes 6 Torsion [N]-CA--C-[N] |==|  0.37559
USER: genes 7 Torsion [N]-CA--CB-[CG2] |==|  0.61047
USER: genes 8 Torsion [CA]-CB--OG1-[HG1] |==|  0.12290
USER: genes 9 Torsion [C]-CA--CB-[CG] |==|  0.38597
USER: genes 10 Torsion [CA]-CB--CG-[ND1] |==|  0.55816
USER: genes 11 Torsion [C]-CA--N-[C] |==|  0.80649
USER: genes 12 Torsion [N]-C--CA-[N] |==|  0.68000
USER: genes 13 Torsion [C]-CA--N-[C] |==|  0.16830
USER: genes 14 Torsion [C]-CA--CB-[CG] |==|  0.38643
USER: genes 15 Torsion [CA]-CB--CG-[CD1] |==|  0.92387
ROOT
ATOM      1  CA  HIS E   2      17.726  -6.642   4.190  1.00 14.20 LIG 0.18  C 
ENDROOT
BRANCH 1 2
ATOM      2  C   HIS E   2      17.688  -8.142   4.469  1.00 15.34 LIG 0.24  C 
ATOM      3 O    HIS E   2      18.551  -8.689   5.162  1.00 13.21 LIG-0.27  OA
ATOM      4  N   THR E   3      16.687  -8.806   3.892  1.00 14.85 LIG-0.34  N 
ATOM      5 H    THR E   3      16.051  -8.435   3.447  1.00 14.85 LIG 0.16  HD
BRANCH 4 6
ATOM      6  CA  THR E   3      16.601 -10.259   3.982  1.00 13.22 LIG 0.20  C 
BRANCH 6 7
ATOM      7  C   THR E   3      17.731 -10.913   3.195  1.00 13.63 LIG 0.24  C 
ATOM      8  N   ALA E   4      18.141 -10.265   2.106  1.00  8.98 LIG-0.35  N 
ATOM      9 H    ALA E   4      17.805  -9.522   1.834  1.00  8.98 LIG 0.16  HD
ATOM     10 O    THR E   3      18.219 -11.987   3.559  1.00 14.15 LIG-0.27  OA
BRANCH 8 11
ATOM     11  CA  ALA E   4      19.222 -10.783   1.271  1.00 15.48 LIG 0.18  C 
ATOM     12  CB  ALA E   4      19.135 -10.194  -0.127  1.00 13.80 LIG 0.04  C 
BRANCH 11 13
ATOM     13  C   ALA E   4      20.605 -10.516   1.872  1.00 23.80 LIG 0.28  C 
ATOM     14 O    ALA E   4      20.876  -9.413   2.350  1.00 30.75 LIG-0.27  OA
ATOM     15  N   NH2 E 101      21.473 -11.524   1.857  1.00 22.73 LIG-0.11  N 
ENDBRANCH 11 13
ENDBRANCH 8 11
ENDBRANCH 6 7
BRANCH 6 16
ATOM     16  CB  THR E   3      15.254 -10.747   3.450  1.00 20.99 LIG 0.15  C 
ATOM     17  CG2 THR E   3      14.718 -11.885   4.320  1.00 14.08 LIG 0.04  C 
BRANCH 16 18
ATOM     18 OG1  THR E   3      14.324  -9.662   3.457  1.00 27.33 LIG-0.39  OA
ATOM     19 HG1  THR E   3      14.695  -8.972   3.155  1.00 27.33 LIG 0.21  HD
ENDBRANCH 16 18
ENDBRANCH 6 16
ENDBRANCH 4 6
ENDBRANCH 1 2
BRANCH 1 20
ATOM     20  CB  HIS E   2      16.990  -5.909   5.320  1.00 18.36 LIG 0.10  C 
BRANCH 20 21
ATOM     21  CG  HIS E   2      17.660  -4.648   5.771  1.00 23.43 LIG 0.06  A 
ATOM     22  CD2 HIS E   2      18.578  -3.860   5.163  1.00 23.79 LIG 0.14  A 
ATOM     23 NE2  HIS E   2      18.869  -2.837   6.032  1.00 23.75 LIG-0.25  NA
ATOM     24  CE1 HIS E   2      18.156  -2.992   7.134  1.00 26.05 LIG 0.23  A 
ATOM     25 ND1  HIS E   2      17.420  -4.082   7.004  1.00 21.22 LIG-0.24  NA
ENDBRANCH 20 21
ENDBRANCH 1 20
BRANCH 1 26
ATOM     26  N   HIS E   2      17.139  -6.369   2.882  1.00 15.97 LIG-0.35  N 
ATOM     27 H    HIS E   2      16.382  -5.963   2.915  1.00 15.97 LIG 0.16  HD
ATOM     28  C   TRP E   1      17.737  -6.726   1.742  1.00 12.03 LIG 0.24  C 
ATOM     29 O    TRP E   1      18.845  -7.272   1.704  1.00 13.67 LIG-0.27  OA
BRANCH 28 30
ATOM     30  CA  TRP E   1      16.961  -6.459   0.457  1.00  9.26 LIG 0.18  C 
BRANCH 30 31
ATOM     31  N   TRP E   1      16.583  -7.675  -0.267  1.00 13.05 LIG-0.35  N 
ATOM     32 H    TRP E   1      16.914  -7.718  -1.059  1.00 13.05 LIG 0.16  HD
ATOM     33  C   ACE E   0      15.803  -8.626   0.246  1.00 12.60 LIG 0.21  C 
ATOM     34  CH3 ACE E   0      15.531  -9.811  -0.657  1.00  6.27 LIG 0.12  C 
ATOM     35 O    ACE E   0      15.337  -8.545   1.382  1.00 15.02 LIG-0.27  OA
ENDBRANCH 30 31
BRANCH 30 36
ATOM     36  CB  TRP E   1      15.713  -5.646   0.784  1.00 10.27 LIG 0.07  C 
BRANCH 36 37
ATOM     37  CG  TRP E   1      15.416  -4.562  -0.211  1.00  6.62 LIG-0.03  A 
ATOM     38  CD1 TRP E   1      16.312  -3.898  -1.004  1.00  7.94 LIG 0.10  A 
ATOM     39  NE1 TRP E   1      15.654  -2.970  -1.790  1.00 10.26 LIG-0.36  N 
ATOM     40  CE2 TRP E   1      14.315  -3.021  -1.502  1.00  6.86 LIG 0.04  A 
ATOM     41 HE1  TRP E   1      16.024  -2.447  -2.364  1.00 10.26 LIG 0.17  HD
ATOM     42  CZ2 TRP E   1      13.251  -2.284  -2.026  1.00  8.31 LIG 0.03  A 
ATOM     43  CD2 TRP E   1      14.131  -4.014  -0.510  1.00  9.88 LIG-0.00  A 
ATOM     44  CH2 TRP E   1      11.996  -2.565  -1.550  1.00 13.27 LIG 0.00  A 
ATOM     45  CZ3 TRP E   1      11.781  -3.541  -0.568  1.00 13.61 LIG 0.00  A 
ATOM     46  CE3 TRP E   1      12.838  -4.273  -0.044  1.00 14.26 LIG 0.01  A 
ENDBRANCH 36 37
ENDBRANCH 30 36
ENDBRANCH 28 30
ENDBRANCH 1 26
TORSDOF 14
ENDMDL
MODEL 31
USER: ADFR SOLUTION from run 130
USER: SCORE 13.814039 LL:  -3.924 LR: -11.033 RR:   0.000 FEB:  -6.857
USER: RMSD 5.046273
USER: SEED 129
USER: STATUS no improvement in best in 11 clusters for 5 generations
USER: GENES 16
USER: genes 0 Translation |==|  0.57136 0.48499 0.22362
USER: genes 1 Rotation |==|  0.71757 0.84203 0.63093 0.76179
USER: genes 2 Torsion [N]-CA--C-[N] |==|  0.02778
USER: genes 3 Torsion [C]-N--CA-[C] |==|  0.65703
USER: genes 4 Torsion [N]-CA--C-[N] |==|  0.72043
USER: genes 5 Torsion [C]-N--CA-[C] |==|  0.66592
USER: genes 6 Torsion [N]-CA--C-[N] |==|  0.47124
USER: genes 7 Torsion [N]-CA--CB-[CG2] |==|  0.66847
USER: genes 8 Torsion [CA]-CB--OG1-[HG1] |==|  0.70077
USER: genes 9 Torsion [C]-CA--CB-[CG] |==|  0.40260
USER: genes 10 Torsion [CA]-CB--CG-[ND1] |==|  0.52524
USER: genes 11 Torsion [C]-CA--N-[C] |==|  0.69063
USER: genes 12 Torsion [N]-C--CA-[N] |==|  0.92185
USER: genes 13 Torsion [C]-CA--N-[C] |==|  0.83321
USER: genes 14 Torsion [C]-CA--CB-[CG] |==|  0.13873
USER: genes 15 Torsion [CA]-CB--CG-[CD1] |==|  0.63241
ROOT
ATOM      1  CA  HIS E   2      16.548  -8.880  -2.259  1.00 14.20 LIG 0.18  C 
ENDROOT
BRANCH 1 2
ATOM      2  C   HIS E   2      16.272 -10.361  -2.017  1.00 15.34 LIG 0.24  C 
ATOM      3 O    HIS E   2      16.306 -11.181  -2.939  1.00 13.21 LIG-0.27  OA
ATOM      4  N   THR E   3      15.969 -10.689  -0.761  1.00 14.85 LIG-0.34  N 
ATOM      5 H    THR E   3      15.988 -10.141  -0.099  1.00 14.85 LIG 0.16  HD
BRANCH 4 6
ATOM      6  CA  THR E   3      15.570 -12.049  -0.417  1.00 13.22 LIG 0.20  C 
BRANCH 6 7
ATOM      7  C   THR E   3      14.206 -12.053   0.261  1.00 13.63 LIG 0.24  C 
ATOM      8  N   ALA E   4      14.209 -12.162   1.589  1.00  8.98 LIG-0.35  N 
ATOM      9 H    ALA E   4      14.923 -12.232   2.064  1.00  8.98 LIG 0.16  HD
ATOM     10 O    THR E   3      13.168 -11.968  -0.401  1.00 14.15 LIG-0.27  OA
BRANCH 8 11
ATOM     11  CA  ALA E   4      12.966 -12.170   2.358  1.00 15.48 LIG 0.18  C 
ATOM     12  CB  ALA E   4      12.795 -13.503   3.065  1.00 13.80 LIG 0.04  C 
BRANCH 11 13
ATOM     13  C   ALA E   4      12.897 -11.022   3.369  1.00 23.80 LIG 0.28  C 
ATOM     14 O    ALA E   4      13.890 -10.328   3.597  1.00 30.75 LIG-0.27  OA
ATOM     15  N   NH2 E 101      11.726 -10.815   3.965  1.00 22.73 LIG-0.11  N 
ENDBRANCH 11 13
ENDBRANCH 8 11
ENDBRANCH 6 7
BRANCH 6 16
ATOM     16  CB  THR E   3      16.606 -12.689   0.506  1.00 20.99 LIG 0.15  C 
ATOM     17  CG2 THR E   3      17.205 -13.935  -0.147  1.00 14.08 LIG 0.04  C 
BRANCH 16 18
ATOM     18 OG1  THR E   3      17.646 -11.745   0.775  1.00 27.33 LIG-0.39  OA
ATOM     19 HG1  THR E   3      18.343 -11.972   0.365  1.00 27.33 LIG 0.21  HD
ENDBRANCH 16 18
ENDBRANCH 6 16
ENDBRANCH 4 6
ENDBRANCH 1 2
BRANCH 1 20
ATOM     20  CB  HIS E   2      17.829  -8.744  -3.092  1.00 18.36 LIG 0.10  C 
BRANCH 20 21
ATOM     21  CG  HIS E   2      17.811  -7.605  -4.065  1.00 23.43 LIG 0.06  A 
ATOM     22  CD2 HIS E   2      16.923  -6.598  -4.241  1.00 23.79 LIG 0.14  A 
ATOM     23 NE2  HIS E   2      17.380  -5.838  -5.290  1.00 23.75 LIG-0.25  NA
ATOM     24  CE1 HIS E   2      18.506  -6.360  -5.742  1.00 26.05 LIG 0.23  A 
ATOM     25 ND1  HIS E   2      18.788  -7.432  -5.022  1.00 21.22 LIG-0.24  NA
ENDBRANCH 20 21
ENDBRANCH 1 20
BRANCH 1 26
ATOM     26  N   HIS E   2      16.643  -8.181  -0.982  1.00 15.97 LIG-0.35  N 
ATOM     27 H    HIS E   2      17.337  -8.390  -0.519  1.00 15.97 LIG 0.16  HD
ATOM     28  C   TRP E   1      15.726  -7.298  -0.580  1.00 12.03 LIG 0.24  C 
ATOM     29 O    TRP E   1      14.755  -6.972  -1.272  1.00 13.67 LIG-0.27  OA
BRANCH 28 30
ATOM     30  CA  TRP E   1      15.909  -6.717   0.818  1.00  9.26 LIG 0.18  C 
BRANCH 30 31
ATOM     31  N   TRP E   1      16.610  -7.613   1.740  1.00 13.05 LIG-0.35  N 
ATOM     32 H    TRP E   1      17.341  -7.282   2.050  1.00 13.05 LIG 0.16  HD
ATOM     33  C   ACE E   0      16.166  -8.825   2.071  1.00 12.60 LIG 0.21  C 
ATOM     34  CH3 ACE E   0      17.031  -9.598   3.046  1.00  6.27 LIG 0.12  C 
ATOM     35 O    ACE E   0      15.120  -9.283   1.615  1.00 15.02 LIG-0.27  OA
ENDBRANCH 30 31
BRANCH 30 36
ATOM     36  CB  TRP E   1      16.660  -5.393   0.716  1.00 10.27 LIG 0.07  C 
BRANCH 36 37
ATOM     37  CG  TRP E   1      16.083  -4.445  -0.295  1.00  6.62 LIG-0.03  A 
ATOM     38  CD1 TRP E   1      16.761  -3.745  -1.254  1.00  7.94 LIG 0.10  A 
ATOM     39  NE1 TRP E   1      15.880  -2.978  -1.995  1.00 10.26 LIG-0.36  N 
ATOM     40  CE2 TRP E   1      14.613  -3.172  -1.508  1.00  6.86 LIG 0.04  A 
ATOM     41 HE1  TRP E   1      16.092  -2.464  -2.651  1.00 10.26 LIG 0.17  HD
ATOM     42  CZ2 TRP E   1      13.397  -2.623  -1.917  1.00  8.31 LIG 0.03  A 
ATOM     43  CD2 TRP E   1      14.706  -4.092  -0.436  1.00  9.88 LIG-0.00  A 
ATOM     44  CH2 TRP E   1      12.269  -3.018  -1.243  1.00 13.27 LIG 0.00  A 
ATOM     45  CZ3 TRP E   1      12.328  -3.925  -0.176  1.00 13.61 LIG 0.00  A 
ATOM     46  CE3 TRP E   1      13.537  -4.470   0.234  1.00 14.26 LIG 0.01  A 
ENDBRANCH 36 37
ENDBRANCH 30 36
ENDBRANCH 28 30
ENDBRANCH 1 26
TORSDOF 14
ENDMDL
MODEL 32
USER: ADFR SOLUTION from run 70
USER: SCORE 13.614993 LL:  -3.216 LR: -11.014 RR:   0.000 FEB:  -6.838
USER: RMSD 2.565933
USER: SEED 69
USER: STATUS no improvement in best in 24 clusters for 5 generations
USER: GENES 16
USER: genes 0 Translation |==|  0.52965 0.41058 0.48658
USER: genes 1 Rotation |==|  0.51352 0.47117 0.47255 0.99823
USER: genes 2 Torsion [N]-CA--C-[N] |==|  0.31673
USER: genes 3 Torsion [C]-N--CA-[C] |==|  0.79016
USER: genes 4 Torsion [N]-CA--C-[N] |==|  0.95263
USER: genes 5 Torsion [C]-N--CA-[C] |==|  0.15041
USER: genes 6 Torsion [N]-CA--C-[N] |==|  0.12186
USER: genes 7 Torsion [N]-CA--CB-[CG2] |==|  0.24490
USER: genes 8 Torsion [CA]-CB--OG1-[HG1] |==|  0.75567
USER: genes 9 Torsion [C]-CA--CB-[CG] |==|  0.69513
USER: genes 10 Torsion [CA]-CB--CG-[ND1] |==|  0.79759
USER: genes 11 Torsion [C]-CA--N-[C] |==|  0.69831
USER: genes 12 Torsion [N]-C--CA-[N] |==|  0.28889
USER: genes 13 Torsion [C]-CA--N-[C] |==|  0.73021
USER: genes 14 Torsion [C]-CA--CB-[CG] |==|  0.44171
USER: genes 15 Torsion [CA]-CB--CG-[CD1] |==|  0.31213
ROOT
ATOM      1  CA  HIS E   2      15.734 -10.443   2.276  1.00 14.20 LIG 0.18  C 
ENDROOT
BRANCH 1 2
ATOM      2  C   HIS E   2      14.324 -10.881   1.894  1.00 15.34 LIG 0.24  C 
ATOM      3 O    HIS E   2      13.334 -10.466   2.504  1.00 13.21 LIG-0.27  OA
ATOM      4  N   THR E   3      14.248 -11.754   0.890  1.00 14.85 LIG-0.34  N 
ATOM      5 H    THR E   3      14.921 -12.016   0.424  1.00 14.85 LIG 0.16  HD
BRANCH 4 6
ATOM      6  CA  THR E   3      12.971 -12.342   0.502  1.00 13.22 LIG 0.20  C 
BRANCH 6 7
ATOM      7  C   THR E   3      12.547 -13.411   1.502  1.00 13.63 LIG 0.24  C 
ATOM      8  N   ALA E   4      13.501 -13.876   2.306  1.00  8.98 LIG-0.35  N 
ATOM      9 H    ALA E   4      14.319 -13.612   2.284  1.00  8.98 LIG 0.16  HD
ATOM     10 O    THR E   3      11.381 -13.815   1.542  1.00 14.15 LIG-0.27  OA
BRANCH 8 11
ATOM     11  CA  ALA E   4      13.220 -14.897   3.314  1.00 15.48 LIG 0.18  C 
ATOM     12  CB  ALA E   4      12.352 -14.320   4.419  1.00 13.80 LIG 0.04  C 
BRANCH 11 13
ATOM     13  C   ALA E   4      12.557 -16.141   2.716  1.00 23.80 LIG 0.28  C 
ATOM     14 O    ALA E   4      11.596 -16.668   3.279  1.00 30.75 LIG-0.27  OA
ATOM     15  N   NH2 E 101      13.063 -16.603   1.576  1.00 22.73 LIG-0.11  N 
ENDBRANCH 11 13
ENDBRANCH 8 11
ENDBRANCH 6 7
BRANCH 6 16
ATOM     16  CB  THR E   3      13.069 -12.953  -0.895  1.00 20.99 LIG 0.15  C 
ATOM     17  CG2 THR E   3      13.547 -14.402  -0.810  1.00 14.08 LIG 0.04  C 
BRANCH 16 18
ATOM     18 OG1  THR E   3      11.783 -12.911  -1.519  1.00 27.33 LIG-0.39  OA
ATOM     19 HG1  THR E   3      11.351 -13.603  -1.319  1.00 27.33 LIG 0.21  HD
ENDBRANCH 16 18
ENDBRANCH 6 16
ENDBRANCH 4 6
ENDBRANCH 1 2
BRANCH 1 20
ATOM     20  CB  HIS E   2      15.967 -10.759   3.760  1.00 18.36 LIG 0.10  C 
BRANCH 20 21
ATOM     21  CG  HIS E   2      16.040  -9.551   4.641  1.00 23.43 LIG 0.06  A 
ATOM     22  CD2 HIS E   2      15.154  -9.041   5.529  1.00 23.79 LIG 0.14  A 
ATOM     23 NE2  HIS E   2      15.718  -7.903   6.052  1.00 23.75 LIG-0.25  NA
ATOM     24  CE1 HIS E   2      16.905  -7.720   5.504  1.00 26.05 LIG 0.23  A 
ATOM     25 ND1  HIS E   2      17.124  -8.700   4.644  1.00 21.22 LIG-0.24  NA
ENDBRANCH 20 21
ENDBRANCH 1 20
BRANCH 1 26
ATOM     26  N   HIS E   2      15.906  -9.024   1.982  1.00 15.97 LIG-0.35  N 
ATOM     27 H    HIS E   2      15.473  -8.501   2.510  1.00 15.97 LIG 0.16  HD
ATOM     28  C   TRP E   1      16.671  -8.590   0.977  1.00 12.03 LIG 0.24  C 
ATOM     29 O    TRP E   1      17.323  -9.347   0.251  1.00 13.67 LIG-0.27  OA
BRANCH 28 30
ATOM     30  CA  TRP E   1      16.680  -7.085   0.732  1.00  9.26 LIG 0.18  C 
BRANCH 30 31
ATOM     31  N   TRP E   1      17.893  -6.418   1.210  1.00 13.05 LIG-0.35  N 
ATOM     32 H    TRP E   1      18.549  -6.463   0.656  1.00 13.05 LIG 0.16  HD
ATOM     33  C   ACE E   0      17.980  -5.799   2.387  1.00 12.60 LIG 0.21  C 
ATOM     34  CH3 ACE E   0      19.320  -5.164   2.698  1.00  6.27 LIG 0.12  C 
ATOM     35 O    ACE E   0      17.031  -5.747   3.168  1.00 15.02 LIG-0.27  OA
ENDBRANCH 30 31
BRANCH 30 36
ATOM     36  CB  TRP E   1      16.499  -6.818  -0.758  1.00 10.27 LIG 0.07  C 
BRANCH 36 37
ATOM     37  CG  TRP E   1      16.000  -5.437  -1.071  1.00  6.62 LIG-0.03  A 
ATOM     38  CD1 TRP E   1      16.681  -4.434  -1.704  1.00  7.94 LIG 0.10  A 
ATOM     39  NE1 TRP E   1      15.883  -3.309  -1.809  1.00 10.26 LIG-0.36  N 
ATOM     40  CE2 TRP E   1      14.670  -3.577  -1.230  1.00  6.86 LIG 0.04  A 
ATOM     41 HE1  TRP E   1      16.111  -2.565  -2.176  1.00 10.26 LIG 0.17  HD
ATOM     42  CZ2 TRP E   1      13.543  -2.767  -1.084  1.00  8.31 LIG 0.03  A 
ATOM     43  CD2 TRP E   1      14.711  -4.910  -0.754  1.00  9.88 LIG-0.00  A 
ATOM     44  CH2 TRP E   1      12.449  -3.315  -0.465  1.00 13.27 LIG 0.00  A 
ATOM     45  CZ3 TRP E   1      12.458  -4.630   0.018  1.00 13.61 LIG 0.00  A 
ATOM     46  CE3 TRP E   1      13.579  -5.437  -0.124  1.00 14.26 LIG 0.01  A 
ENDBRANCH 36 37
ENDBRANCH 30 36
ENDBRANCH 28 30
ENDBRANCH 1 26
TORSDOF 14
ENDMDL
MODEL 33
USER: ADFR SOLUTION from run 40
USER: SCORE 13.326805 LL:  -2.856 LR: -11.009 RR:   0.000 FEB:  -6.833
USER: RMSD 5.775789
USER: SEED 39
USER: STATUS no improvement in best in 38 clusters for 5 generations
USER: GENES 16
USER: genes 0 Translation |==|  0.41332 0.33066 0.35751
USER: genes 1 Rotation |==|  0.68843 0.89563 0.31605 0.65535
USER: genes 2 Torsion [N]-CA--C-[N] |==|  0.36435
USER: genes 3 Torsion [C]-N--CA-[C] |==|  0.75705
USER: genes 4 Torsion [N]-CA--C-[N] |==|  0.45368
USER: genes 5 Torsion [C]-N--CA-[C] |==|  0.79104
USER: genes 6 Torsion [N]-CA--C-[N] |==|  0.96273
USER: genes 7 Torsion [N]-CA--CB-[CG2] |==|  0.82712
USER: genes 8 Torsion [CA]-CB--OG1-[HG1] |==|  0.86820
USER: genes 9 Torsion [C]-CA--CB-[CG] |==|  0.37598
USER: genes 10 Torsion [CA]-CB--CG-[ND1] |==|  0.01369
USER: genes 11 Torsion [C]-CA--N-[C] |==|  0.86111
USER: genes 12 Torsion [N]-C--CA-[N] |==|  0.11328
USER: genes 13 Torsion [C]-CA--N-[C] |==|  0.66957
USER: genes 14 Torsion [C]-CA--CB-[CG] |==|  0.64147
USER: genes 15 Torsion [CA]-CB--CG-[CD1] |==|  0.78142
ROOT
ATOM      1  CA  HIS E   2      13.466 -12.121   0.050  1.00 14.20 LIG 0.18  C 
ENDROOT
BRANCH 1 2
ATOM      2  C   HIS E   2      13.648 -12.745   1.430  1.00 15.34 LIG 0.24  C 
ATOM      3 O    HIS E   2      14.720 -13.253   1.771  1.00 13.21 LIG-0.27  OA
ATOM      4  N   THR E   3      12.570 -12.725   2.214  1.00 14.85 LIG-0.34  N 
ATOM      5 H    THR E   3      11.831 -12.334   2.013  1.00 14.85 LIG 0.16  HD
BRANCH 4 6
ATOM      6  CA  THR E   3      12.574 -13.391   3.512  1.00 13.22 LIG 0.20  C 
BRANCH 6 7
ATOM      7  C   THR E   3      12.168 -14.852   3.367  1.00 13.63 LIG 0.24  C 
ATOM      8  N   ALA E   4      12.458 -15.648   4.394  1.00  8.98 LIG-0.35  N 
ATOM      9 H    ALA E   4      12.855 -15.384   5.110  1.00  8.98 LIG 0.16  HD
ATOM     10 O    THR E   3      11.610 -15.257   2.343  1.00 14.15 LIG-0.27  OA
BRANCH 8 11
ATOM     11  CA  ALA E   4      12.113 -17.068   4.382  1.00 15.48 LIG 0.18  C 
ATOM     12  CB  ALA E   4      12.933 -17.817   5.418  1.00 13.80 LIG 0.04  C 
BRANCH 11 13
ATOM     13  C   ALA E   4      10.619 -17.309   4.615  1.00 23.80 LIG 0.28  C 
ATOM     14 O    ALA E   4      10.123 -18.417   4.402  1.00 30.75 LIG-0.27  OA
ATOM     15  N   NH2 E 101       9.906 -16.279   5.061  1.00 22.73 LIG-0.11  N 
ENDBRANCH 11 13
ENDBRANCH 8 11
ENDBRANCH 6 7
BRANCH 6 16
ATOM     16  CB  THR E   3      11.621 -12.685   4.475  1.00 20.99 LIG 0.15  C 
ATOM     17  CG2 THR E   3      12.078 -11.246   4.717  1.00 14.08 LIG 0.04  C 
BRANCH 16 18
ATOM     18 OG1  THR E   3      10.305 -12.680   3.918  1.00 27.33 LIG-0.39  OA
ATOM     19 HG1  THR E   3      10.340 -12.432   3.117  1.00 27.33 LIG 0.21  HD
ENDBRANCH 16 18
ENDBRANCH 6 16
ENDBRANCH 4 6
ENDBRANCH 1 2
BRANCH 1 20
ATOM     20  CB  HIS E   2      13.388 -13.242  -0.995  1.00 18.36 LIG 0.10  C 
BRANCH 20 21
ATOM     21  CG  HIS E   2      12.298 -13.064  -2.006  1.00 23.43 LIG 0.06  A 
ATOM     22  CD2 HIS E   2      11.885 -13.860  -3.021  1.00 23.79 LIG 0.14  A 
ATOM     23 NE2  HIS E   2      10.857 -13.205  -3.653  1.00 23.75 LIG-0.25  NA
ATOM     24  CE1 HIS E   2      10.647 -12.049  -3.050  1.00 26.05 LIG 0.23  A 
ATOM     25 ND1  HIS E   2      11.508 -11.936  -2.053  1.00 21.22 LIG-0.24  NA
ENDBRANCH 20 21
ENDBRANCH 1 20
BRANCH 1 26
ATOM     26  N   HIS E   2      14.559 -11.192  -0.219  1.00 15.97 LIG-0.35  N 
ATOM     27 H    HIS E   2      14.942 -11.312  -0.979  1.00 15.97 LIG 0.16  HD
ATOM     28  C   TRP E   1      14.921 -10.244   0.649  1.00 12.03 LIG 0.24  C 
ATOM     29 O    TRP E   1      14.337 -10.052   1.721  1.00 13.67 LIG-0.27  OA
BRANCH 28 30
ATOM     30  CA  TRP E   1      16.140  -9.409   0.272  1.00  9.26 LIG 0.18  C 
BRANCH 30 31
ATOM     31  N   TRP E   1      16.186  -9.041  -1.145  1.00 13.05 LIG-0.35  N 
ATOM     32 H    TRP E   1      15.517  -8.565  -1.397  1.00 13.05 LIG 0.16  HD
ATOM     33  C   ACE E   0      17.168  -9.406  -1.970  1.00 12.60 LIG 0.21  C 
ATOM     34  CH3 ACE E   0      17.038  -8.921  -3.399  1.00  6.27 LIG 0.12  C 
ATOM     35 O    ACE E   0      18.117 -10.091  -1.591  1.00 15.02 LIG-0.27  OA
ENDBRANCH 30 31
BRANCH 30 36
ATOM     36  CB  TRP E   1      16.170  -8.150   1.132  1.00 10.27 LIG 0.07  C 
BRANCH 36 37
ATOM     37  CG  TRP E   1      16.330  -6.881   0.344  1.00  6.62 LIG-0.03  A 
ATOM     38  CD1 TRP E   1      17.484  -6.377  -0.188  1.00  7.94 LIG 0.10  A 
ATOM     39  NE1 TRP E   1      17.225  -5.189  -0.846  1.00 10.26 LIG-0.36  N 
ATOM     40  CE2 TRP E   1      15.888  -4.909  -0.735  1.00  6.86 LIG 0.04  A 
ATOM     41 HE1  TRP E   1      17.807  -4.705  -1.257  1.00 10.26 LIG 0.17  HD
ATOM     42  CZ2 TRP E   1      15.150  -3.830  -1.225  1.00  8.31 LIG 0.03  A 
ATOM     43  CD2 TRP E   1      15.294  -5.956   0.010  1.00  9.88 LIG-0.00  A 
ATOM     44  CH2 TRP E   1      13.802  -3.820  -0.968  1.00 13.27 LIG 0.00  A 
ATOM     45  CZ3 TRP E   1      13.185  -4.841  -0.232  1.00 13.61 LIG 0.00  A 
ATOM     46  CE3 TRP E   1      13.919  -5.914   0.258  1.00 14.26 LIG 0.01  A 
ENDBRANCH 36 37
ENDBRANCH 30 36
ENDBRANCH 28 30
ENDBRANCH 1 26
TORSDOF 14
ENDMDL
MODEL 34
USER: ADFR SOLUTION from run 18
USER: SCORE 13.033908 LL:  -3.580 LR: -11.009 RR:   0.000 FEB:  -6.833
USER: RMSD 5.609729
USER: SEED 17
USER: STATUS no improvement in best in 26 clusters for 5 generations
USER: GENES 16
USER: genes 0 Translation |==|  0.49300 0.43203 0.47083
USER: genes 1 Rotation |==|  0.53427 0.95446 0.36663 0.65653
USER: genes 2 Torsion [N]-CA--C-[N] |==|  0.04751
USER: genes 3 Torsion [C]-N--CA-[C] |==|  0.56667
USER: genes 4 Torsion [N]-CA--C-[N] |==|  0.99042
USER: genes 5 Torsion [C]-N--CA-[C] |==|  0.20815
USER: genes 6 Torsion [N]-CA--C-[N] |==|  0.99547
USER: genes 7 Torsion [N]-CA--CB-[CG2] |==|  0.21070
USER: genes 8 Torsion [CA]-CB--OG1-[HG1] |==|  0.90758
USER: genes 9 Torsion [C]-CA--CB-[CG] |==|  0.32768
USER: genes 10 Torsion [CA]-CB--CG-[ND1] |==|  0.84921
USER: genes 11 Torsion [C]-CA--N-[C] |==|  0.18854
USER: genes 12 Torsion [N]-C--CA-[N] |==|  0.38258
USER: genes 13 Torsion [C]-CA--N-[C] |==|  0.79486
USER: genes 14 Torsion [C]-CA--CB-[CG] |==|  0.43979
USER: genes 15 Torsion [CA]-CB--CG-[CD1] |==|  0.32020
ROOT
ATOM      1  CA  HIS E   2      15.020  -9.992   2.005  1.00 14.20 LIG 0.18  C 
ENDROOT
BRANCH 1 2
ATOM      2  C   HIS E   2      15.841 -10.348   3.240  1.00 15.34 LIG 0.24  C 
ATOM      3 O    HIS E   2      16.042 -11.523   3.563  1.00 13.21 LIG-0.27  OA
ATOM      4  N   THR E   3      16.292  -9.311   3.946  1.00 14.85 LIG-0.34  N 
ATOM      5 H    THR E   3      16.203  -8.489   3.710  1.00 14.85 LIG 0.16  HD
BRANCH 4 6
ATOM      6  CA  THR E   3      16.990  -9.512   5.211  1.00 13.22 LIG 0.20  C 
BRANCH 6 7
ATOM      7  C   THR E   3      16.881  -8.270   6.087  1.00 13.63 LIG 0.24  C 
ATOM      8  N   ALA E   4      16.258  -7.224   5.549  1.00  8.98 LIG-0.35  N 
ATOM      9 H    ALA E   4      15.929  -7.216   4.755  1.00  8.98 LIG 0.16  HD
ATOM     10 O    THR E   3      17.358  -8.253   7.225  1.00 14.15 LIG-0.27  OA
BRANCH 8 11
ATOM     11  CA  ALA E   4      16.081  -5.976   6.290  1.00 15.48 LIG 0.18  C 
ATOM     12  CB  ALA E   4      15.537  -6.263   7.679  1.00 13.80 LIG 0.04  C 
BRANCH 11 13
ATOM     13  C   ALA E   4      17.376  -5.165   6.387  1.00 23.80 LIG 0.28  C 
ATOM     14 O    ALA E   4      17.391  -4.076   6.964  1.00 30.75 LIG-0.27  OA
ATOM     15  N   NH2 E 101      18.463  -5.698   5.834  1.00 22.73 LIG-0.11  N 
ENDBRANCH 11 13
ENDBRANCH 8 11
ENDBRANCH 6 7
BRANCH 6 16
ATOM     16  CB  THR E   3      18.462  -9.838   4.960  1.00 20.99 LIG 0.15  C 
ATOM     17  CG2 THR E   3      19.229  -8.574   4.572  1.00 14.08 LIG 0.04  C 
BRANCH 16 18
ATOM     18 OG1  THR E   3      19.030 -10.396   6.147  1.00 27.33 LIG-0.39  OA
ATOM     19 HG1  THR E   3      18.669 -10.048   6.821  1.00 27.33 LIG 0.21  HD
ENDBRANCH 16 18
ENDBRANCH 6 16
ENDBRANCH 4 6
ENDBRANCH 1 2
BRANCH 1 20
ATOM     20  CB  HIS E   2      15.395 -10.950   0.866  1.00 18.36 LIG 0.10  C 
BRANCH 20 21
ATOM     21  CG  HIS E   2      14.262 -11.801   0.381  1.00 23.43 LIG 0.06  A 
ATOM     22  CD2 HIS E   2      13.736 -11.964  -0.856  1.00 23.79 LIG 0.14  A 
ATOM     23 NE2  HIS E   2      12.693 -12.849  -0.737  1.00 23.75 LIG-0.25  NA
ATOM     24  CE1 HIS E   2      12.582 -13.215   0.527  1.00 26.05 LIG 0.23  A 
ATOM     25 ND1  HIS E   2      13.516 -12.594   1.226  1.00 21.22 LIG-0.24  NA
ENDBRANCH 20 21
ENDBRANCH 1 20
BRANCH 1 26
ATOM     26  N   HIS E   2      15.246  -8.596   1.647  1.00 15.97 LIG-0.35  N 
ATOM     27 H    HIS E   2      14.560  -8.090   1.759  1.00 15.97 LIG 0.16  HD
ATOM     28  C   TRP E   1      16.421  -8.157   1.188  1.00 12.03 LIG 0.24  C 
ATOM     29 O    TRP E   1      17.413  -8.884   1.071  1.00 13.67 LIG-0.27  OA
BRANCH 28 30
ATOM     30  CA  TRP E   1      16.481  -6.692   0.768  1.00  9.26 LIG 0.18  C 
BRANCH 30 31
ATOM     31  N   TRP E   1      17.701  -6.006   1.198  1.00 13.05 LIG-0.35  N 
ATOM     32 H    TRP E   1      18.255  -5.860   0.558  1.00 13.05 LIG 0.16  HD
ATOM     33  C   ACE E   0      17.936  -5.640   2.458  1.00 12.60 LIG 0.21  C 
ATOM     34  CH3 ACE E   0      19.254  -4.935   2.702  1.00  6.27 LIG 0.12  C 
ATOM     35 O    ACE E   0      17.131  -5.860   3.362  1.00 15.02 LIG-0.27  OA
ENDBRANCH 30 31
BRANCH 30 36
ATOM     36  CB  TRP E   1      16.346  -6.600  -0.748  1.00 10.27 LIG 0.07  C 
BRANCH 36 37
ATOM     37  CG  TRP E   1      15.881  -5.258  -1.235  1.00  6.62 LIG-0.03  A 
ATOM     38  CD1 TRP E   1      16.578  -4.370  -2.007  1.00  7.94 LIG 0.10  A 
ATOM     39  NE1 TRP E   1      15.811  -3.245  -2.248  1.00 10.26 LIG-0.36  N 
ATOM     40  CE2 TRP E   1      14.602  -3.396  -1.620  1.00  6.86 LIG 0.04  A 
ATOM     41 HE1  TRP E   1      16.052  -2.564  -2.715  1.00 10.26 LIG 0.17  HD
ATOM     42  CZ2 TRP E   1      13.501  -2.538  -1.567  1.00  8.31 LIG 0.03  A 
ATOM     43  CD2 TRP E   1      14.613  -4.654  -0.972  1.00  9.88 LIG-0.00  A 
ATOM     44  CH2 TRP E   1      12.404  -2.966  -0.863  1.00 13.27 LIG 0.00  A 
ATOM     45  CZ3 TRP E   1      12.384  -4.205  -0.209  1.00 13.61 LIG 0.00  A 
ATOM     46  CE3 TRP E   1      13.479  -5.058  -0.259  1.00 14.26 LIG 0.01  A 
ENDBRANCH 36 37
ENDBRANCH 30 36
ENDBRANCH 28 30
ENDBRANCH 1 26
TORSDOF 14
ENDMDL
MODEL 35
USER: ADFR SOLUTION from run 180
USER: SCORE 13.477826 LL:  -3.343 LR: -11.007 RR:   0.000 FEB:  -6.830
USER: RMSD 8.648327
USER: SEED 179
USER: STATUS no improvement in best in 17 clusters for 5 generations
USER: GENES 16
USER: genes 0 Translation |==|  0.59457 0.53224 0.41760
USER: genes 1 Rotation |==|  0.89557 0.31336 0.36498 0.70115
USER: genes 2 Torsion [N]-CA--C-[N] |==|  0.47396
USER: genes 3 Torsion [C]-N--CA-[C] |==|  0.79932
USER: genes 4 Torsion [N]-CA--C-[N] |==|  0.46667
USER: genes 5 Torsion [C]-N--CA-[C] |==|  0.56676
USER: genes 6 Torsion [N]-CA--C-[N] |==|  0.47331
USER: genes 7 Torsion [N]-CA--CB-[CG2] |==|  0.24223
USER: genes 8 Torsion [CA]-CB--OG1-[HG1] |==|  0.76956
USER: genes 9 Torsion [C]-CA--CB-[CG] |==|  0.20273
USER: genes 10 Torsion [CA]-CB--CG-[ND1] |==|  0.70979
USER: genes 11 Torsion [C]-CA--N-[C] |==|  0.50656
USER: genes 12 Torsion [N]-C--CA-[N] |==|  0.02778
USER: genes 13 Torsion [C]-CA--N-[C] |==|  0.66997
USER: genes 14 Torsion [C]-CA--CB-[CG] |==|  0.81172
USER: genes 15 Torsion [CA]-CB--CG-[CD1] |==|  0.21230
ROOT
ATOM      1  CA  HIS E   2      17.000  -7.888   1.087  1.00 14.20 LIG 0.18  C 
ENDROOT
BRANCH 1 2
ATOM      2  C   HIS E   2      16.569  -6.443   0.855  1.00 15.34 LIG 0.24  C 
ATOM      3 O    HIS E   2      15.904  -5.827   1.694  1.00 13.21 LIG-0.27  OA
ATOM      4  N   THR E   3      16.934  -5.917  -0.314  1.00 14.85 LIG-0.34  N 
ATOM      5 H    THR E   3      17.437  -6.314  -0.888  1.00 14.85 LIG 0.16  HD
BRANCH 4 6
ATOM      6  CA  THR E   3      16.487  -4.587  -0.710  1.00 13.22 LIG 0.20  C 
BRANCH 6 7
ATOM      7  C   THR E   3      15.006  -4.602  -1.068  1.00 13.63 LIG 0.24  C 
ATOM      8  N   ALA E   4      14.422  -3.413  -1.206  1.00  8.98 LIG-0.35  N 
ATOM      9 H    ALA E   4      14.829  -2.662  -1.100  1.00  8.98 LIG 0.16  HD
ATOM     10 O    THR E   3      14.399  -5.667  -1.211  1.00 14.15 LIG-0.27  OA
BRANCH 8 11
ATOM     11  CA  ALA E   4      13.008  -3.292  -1.556  1.00 15.48 LIG 0.18  C 
ATOM     12  CB  ALA E   4      12.143  -3.489  -0.323  1.00 13.80 LIG 0.04  C 
BRANCH 11 13
ATOM     13  C   ALA E   4      12.683  -1.952  -2.222  1.00 23.80 LIG 0.28  C 
ATOM     14 O    ALA E   4      13.524  -1.052  -2.260  1.00 30.75 LIG-0.27  OA
ATOM     15  N   NH2 E 101      11.471  -1.824  -2.755  1.00 22.73 LIG-0.11  N 
ENDBRANCH 11 13
ENDBRANCH 8 11
ENDBRANCH 6 7
BRANCH 6 16
ATOM     16  CB  THR E   3      17.301  -4.085  -1.903  1.00 20.99 LIG 0.15  C 
ATOM     17  CG2 THR E   3      16.670  -4.555  -3.213  1.00 14.08 LIG 0.04  C 
BRANCH 16 18
ATOM     18 OG1  THR E   3      17.341  -2.656  -1.878  1.00 27.33 LIG-0.39  OA
ATOM     19 HG1  THR E   3      16.642  -2.349  -2.227  1.00 27.33 LIG 0.21  HD
ENDBRANCH 16 18
ENDBRANCH 6 16
ENDBRANCH 4 6
ENDBRANCH 1 2
BRANCH 1 20
ATOM     20  CB  HIS E   2      16.262  -8.792   0.090  1.00 18.36 LIG 0.10  C 
BRANCH 20 21
ATOM     21  CG  HIS E   2      16.754  -8.682  -1.319  1.00 23.43 LIG 0.06  A 
ATOM     22  CD2 HIS E   2      17.882  -9.144  -1.909  1.00 23.79 LIG 0.14  A 
ATOM     23 NE2  HIS E   2      17.844  -8.744  -3.222  1.00 23.75 LIG-0.25  NA
ATOM     24  CE1 HIS E   2      16.734  -8.059  -3.431  1.00 26.05 LIG 0.23  A 
ATOM     25 ND1  HIS E   2      16.058  -8.003  -2.296  1.00 21.22 LIG-0.24  NA
ENDBRANCH 20 21
ENDBRANCH 1 20
BRANCH 1 26
ATOM     26  N   HIS E   2      16.737  -8.264   2.472  1.00 15.97 LIG-0.35  N 
ATOM     27 H    HIS E   2      16.359  -7.648   2.937  1.00 15.97 LIG 0.16  HD
ATOM     28  C   TRP E   1      17.062  -9.464   2.961  1.00 12.03 LIG 0.24  C 
ATOM     29 O    TRP E   1      17.567 -10.358   2.273  1.00 13.67 LIG-0.27  OA
BRANCH 28 30
ATOM     30  CA  TRP E   1      16.812  -9.680   4.449  1.00  9.26 LIG 0.18  C 
BRANCH 30 31
ATOM     31  N   TRP E   1      16.035  -8.610   5.078  1.00 13.05 LIG-0.35  N 
ATOM     32 H    TRP E   1      15.248  -8.517   4.743  1.00 13.05 LIG 0.16  HD
ATOM     33  C   ACE E   0      16.495  -7.849   6.071  1.00 12.60 LIG 0.21  C 
ATOM     34  CH3 ACE E   0      15.536  -6.798   6.591  1.00  6.27 LIG 0.12  C 
ATOM     35 O    ACE E   0      17.625  -7.996   6.534  1.00 15.02 LIG-0.27  OA
ENDBRANCH 30 31
BRANCH 30 36
ATOM     36  CB  TRP E   1      16.104 -11.016   4.650  1.00 10.27 LIG 0.07  C 
BRANCH 36 37
ATOM     37  CG  TRP E   1      14.702 -11.046   4.111  1.00  6.62 LIG-0.03  A 
ATOM     38  CD1 TRP E   1      14.320 -11.155   2.803  1.00  7.94 LIG 0.10  A 
ATOM     39  NE1 TRP E   1      12.940 -11.148   2.709  1.00 10.26 LIG-0.36  N 
ATOM     40  CE2 TRP E   1      12.415 -11.026   3.968  1.00  6.86 LIG 0.04  A 
ATOM     41 HE1  TRP E   1      12.487 -11.211   1.980  1.00 10.26 LIG 0.17  HD
ATOM     42  CZ2 TRP E   1      11.085 -10.970   4.389  1.00  8.31 LIG 0.03  A 
ATOM     43  CD2 TRP E   1      13.499 -10.958   4.877  1.00  9.88 LIG-0.00  A 
ATOM     44  CH2 TRP E   1      10.854 -10.858   5.736  1.00 13.27 LIG 0.00  A 
ATOM     45  CZ3 TRP E   1      11.906 -10.787   6.660  1.00 13.61 LIG 0.00  A 
ATOM     46  CE3 TRP E   1      13.229 -10.840   6.244  1.00 14.26 LIG 0.01  A 
ENDBRANCH 36 37
ENDBRANCH 30 36
ENDBRANCH 28 30
ENDBRANCH 1 26
TORSDOF 14
ENDMDL
MODEL 36
USER: ADFR SOLUTION from run 3
USER: SCORE 12.995154 LL:  -3.119 LR: -10.976 RR:   0.000 FEB:  -6.799
USER: RMSD 8.712614
USER: SEED 784360
USER: STATUS no improvement in best in 29 clusters for 5 generations
USER: GENES 16
USER: genes 0 Translation |==|  0.50251 0.56806 0.37092
USER: genes 1 Rotation |==|  0.30069 0.19150 0.16097 0.51259
USER: genes 2 Torsion [N]-CA--C-[N] |==|  0.94172
USER: genes 3 Torsion [C]-N--CA-[C] |==|  0.15033
USER: genes 4 Torsion [N]-CA--C-[N] |==|  0.13470
USER: genes 5 Torsion [C]-N--CA-[C] |==|  0.20481
USER: genes 6 Torsion [N]-CA--C-[N] |==|  0.14292
USER: genes 7 Torsion [N]-CA--CB-[CG2] |==|  0.56287
USER: genes 8 Torsion [CA]-CB--OG1-[HG1] |==|  0.68564
USER: genes 9 Torsion [C]-CA--CB-[CG] |==|  0.28225
USER: genes 10 Torsion [CA]-CB--CG-[ND1] |==|  0.08914
USER: genes 11 Torsion [C]-CA--N-[C] |==|  0.82006
USER: genes 12 Torsion [N]-C--CA-[N] |==|  0.15973
USER: genes 13 Torsion [C]-CA--N-[C] |==|  0.59259
USER: genes 14 Torsion [C]-CA--CB-[CG] |==|  0.82373
USER: genes 15 Torsion [CA]-CB--CG-[CD1] |==|  0.28912
ROOT
ATOM      1  CA  HIS E   2      15.205  -7.136   0.281  1.00 14.20 LIG 0.18  C 
ENDROOT
BRANCH 1 2
ATOM      2  C   HIS E   2      15.731  -7.790  -0.992  1.00 15.34 LIG 0.24  C 
ATOM      3 O    HIS E   2      15.123  -7.696  -2.063  1.00 13.21 LIG-0.27  OA
ATOM      4  N   THR E   3      16.861  -8.484  -0.855  1.00 14.85 LIG-0.34  N 
ATOM      5 H    THR E   3      17.322  -8.520  -0.130  1.00 14.85 LIG 0.16  HD
BRANCH 4 6
ATOM      6  CA  THR E   3      17.408  -9.254  -1.966  1.00 13.22 LIG 0.20  C 
BRANCH 6 7
ATOM      7  C   THR E   3      17.578  -8.373  -3.198  1.00 13.63 LIG 0.24  C 
ATOM      8  N   ALA E   4      18.189  -7.206  -3.006  1.00  8.98 LIG-0.35  N 
ATOM      9 H    ALA E   4      18.478  -6.934  -2.243  1.00  8.98 LIG 0.16  HD
ATOM     10 O    THR E   3      17.158  -8.736  -4.300  1.00 14.15 LIG-0.27  OA
BRANCH 8 11
ATOM     11  CA  ALA E   4      18.420  -6.274  -4.109  1.00 15.48 LIG 0.18  C 
ATOM     12  CB  ALA E   4      19.056  -6.998  -5.283  1.00 13.80 LIG 0.04  C 
BRANCH 11 13
ATOM     13  C   ALA E   4      17.138  -5.567  -4.555  1.00 23.80 LIG 0.28  C 
ATOM     14 O    ALA E   4      16.806  -5.565  -5.742  1.00 30.75 LIG-0.27  OA
ATOM     15  N   NH2 E 101      16.415  -4.977  -3.607  1.00 22.73 LIG-0.11  N 
ENDBRANCH 11 13
ENDBRANCH 8 11
ENDBRANCH 6 7
BRANCH 6 16
ATOM     16  CB  THR E   3      16.492 -10.432  -2.298  1.00 20.99 LIG 0.15  C 
ATOM     17  CG2 THR E   3      17.274 -11.526  -3.026  1.00 14.08 LIG 0.04  C 
BRANCH 16 18
ATOM     18 OG1  THR E   3      15.947 -10.961  -1.087  1.00 27.33 LIG-0.39  OA
ATOM     19 HG1  THR E   3      16.249 -11.734  -0.957  1.00 27.33 LIG 0.21  HD
ENDBRANCH 16 18
ENDBRANCH 6 16
ENDBRANCH 4 6
ENDBRANCH 1 2
BRANCH 1 20
ATOM     20  CB  HIS E   2      15.549  -5.640   0.249  1.00 18.36 LIG 0.10  C 
BRANCH 20 21
ATOM     21  CG  HIS E   2      14.403  -4.755  -0.130  1.00 23.43 LIG 0.06  A 
ATOM     22  CD2 HIS E   2      14.371  -3.566  -0.778  1.00 23.79 LIG 0.14  A 
ATOM     23 NE2  HIS E   2      13.055  -3.179  -0.845  1.00 23.75 LIG-0.25  NA
ATOM     24  CE1 HIS E   2      12.307  -4.095  -0.258  1.00 26.05 LIG 0.23  A 
ATOM     25 ND1  HIS E   2      13.096  -5.057   0.187  1.00 21.22 LIG-0.24  NA
ENDBRANCH 20 21
ENDBRANCH 1 20
BRANCH 1 26
ATOM     26  N   HIS E   2      15.768  -7.806   1.449  1.00 15.97 LIG-0.35  N 
ATOM     27 H    HIS E   2      16.283  -7.308   1.924  1.00 15.97 LIG 0.16  HD
ATOM     28  C   TRP E   1      15.499  -9.081   1.740  1.00 12.03 LIG 0.24  C 
ATOM     29 O    TRP E   1      14.723  -9.775   1.074  1.00 13.67 LIG-0.27  OA
BRANCH 28 30
ATOM     30  CA  TRP E   1      16.233  -9.673   2.938  1.00  9.26 LIG 0.18  C 
BRANCH 30 31
ATOM     31  N   TRP E   1      16.011  -8.939   4.186  1.00 13.05 LIG-0.35  N 
ATOM     32 H    TRP E   1      15.226  -8.595   4.245  1.00 13.05 LIG 0.16  HD
ATOM     33  C   ACE E   0      16.931  -8.814   5.142  1.00 12.60 LIG 0.21  C 
ATOM     34  CH3 ACE E   0      16.508  -8.022   6.362  1.00  6.27 LIG 0.12  C 
ATOM     35 O    ACE E   0      18.051  -9.313   5.038  1.00 15.02 LIG-0.27  OA
ENDBRANCH 30 31
BRANCH 30 36
ATOM     36  CB  TRP E   1      15.813 -11.128   3.115  1.00 10.27 LIG 0.07  C 
BRANCH 36 37
ATOM     37  CG  TRP E   1      14.357 -11.304   3.436  1.00  6.62 LIG-0.03  A 
ATOM     38  CD1 TRP E   1      13.367 -11.725   2.592  1.00  7.94 LIG 0.10  A 
ATOM     39  NE1 TRP E   1      12.156 -11.760   3.258  1.00 10.26 LIG-0.36  N 
ATOM     40  CE2 TRP E   1      12.355 -11.350   4.550  1.00  6.86 LIG 0.04  A 
ATOM     41 HE1  TRP E   1      11.403 -12.000   2.918  1.00 10.26 LIG 0.17  HD
ATOM     42  CZ2 TRP E   1      11.447 -11.214   5.602  1.00  8.31 LIG 0.03  A 
ATOM     43  CD2 TRP E   1      13.731 -11.054   4.696  1.00  9.88 LIG-0.00  A 
ATOM     44  CH2 TRP E   1      11.940 -10.788   6.809  1.00 13.27 LIG 0.00  A 
ATOM     45  CZ3 TRP E   1      13.297 -10.486   6.985  1.00 13.61 LIG 0.00  A 
ATOM     46  CE3 TRP E   1      14.201 -10.618   5.939  1.00 14.26 LIG 0.01  A 
ENDBRANCH 36 37
ENDBRANCH 30 36
ENDBRANCH 28 30
ENDBRANCH 1 26
TORSDOF 14
ENDMDL
MODEL 37
USER: ADFR SOLUTION from run 73
USER: SCORE 13.535667 LL:  -3.056 LR: -10.929 RR:   0.000 FEB:  -6.753
USER: RMSD 3.771379
USER: SEED 72
USER: STATUS no improvement in best in 8 clusters for 5 generations
USER: GENES 16
USER: genes 0 Translation |==|  0.47035 0.41051 0.48589
USER: genes 1 Rotation |==|  0.59254 0.76051 0.36727 0.89491
USER: genes 2 Torsion [N]-CA--C-[N] |==|  0.39724
USER: genes 3 Torsion [C]-N--CA-[C] |==|  0.86667
USER: genes 4 Torsion [N]-CA--C-[N] |==|  0.36506
USER: genes 5 Torsion [C]-N--CA-[C] |==|  0.77064
USER: genes 6 Torsion [N]-CA--C-[N] |==|  0.94837
USER: genes 7 Torsion [N]-CA--CB-[CG2] |==|  0.35764
USER: genes 8 Torsion [CA]-CB--OG1-[HG1] |==|  0.48723
USER: genes 9 Torsion [C]-CA--CB-[CG] |==|  0.17064
USER: genes 10 Torsion [CA]-CB--CG-[ND1] |==|  0.08905
USER: genes 11 Torsion [C]-CA--N-[C] |==|  0.60487
USER: genes 12 Torsion [N]-C--CA-[N] |==|  0.11433
USER: genes 13 Torsion [C]-CA--N-[C] |==|  0.17167
USER: genes 14 Torsion [C]-CA--CB-[CG] |==|  0.36691
USER: genes 15 Torsion [CA]-CB--CG-[CD1] |==|  0.39363
ROOT
ATOM      1  CA  HIS E   2      14.578 -10.444   2.265  1.00 14.20 LIG 0.18  C 
ENDROOT
BRANCH 1 2
ATOM      2  C   HIS E   2      13.628 -10.502   3.457  1.00 15.34 LIG 0.24  C 
ATOM      3 O    HIS E   2      13.888  -9.920   4.515  1.00 13.21 LIG-0.27  OA
ATOM      4  N   THR E   3      12.533 -11.240   3.282  1.00 14.85 LIG-0.34  N 
ATOM      5 H    THR E   3      12.313 -11.612   2.538  1.00 14.85 LIG 0.16  HD
BRANCH 4 6
ATOM      6  CA  THR E   3      11.602 -11.473   4.380  1.00 13.22 LIG 0.20  C 
BRANCH 6 7
ATOM      7  C   THR E   3      12.350 -11.903   5.636  1.00 13.63 LIG 0.24  C 
ATOM      8  N   ALA E   4      12.031 -11.263   6.759  1.00  8.98 LIG-0.35  N 
ATOM      9 H    ALA E   4      11.445 -10.636   6.805  1.00  8.98 LIG 0.16  HD
ATOM     10 O    THR E   3      13.206 -12.791   5.591  1.00 14.15 LIG-0.27  OA
BRANCH 8 11
ATOM     11  CA  ALA E   4      12.671 -11.588   8.032  1.00 15.48 LIG 0.18  C 
ATOM     12  CB  ALA E   4      12.641 -10.384   8.958  1.00 13.80 LIG 0.04  C 
BRANCH 11 13
ATOM     13  C   ALA E   4      12.029 -12.798   8.717  1.00 23.80 LIG 0.28  C 
ATOM     14 O    ALA E   4      12.630 -13.406   9.605  1.00 30.75 LIG-0.27  OA
ATOM     15  N   NH2 E 101      10.809 -13.140   8.314  1.00 22.73 LIG-0.11  N 
ENDBRANCH 11 13
ENDBRANCH 8 11
ENDBRANCH 6 7
BRANCH 6 16
ATOM     16  CB  THR E   3      10.583 -12.545   3.995  1.00 20.99 LIG 0.15  C 
ATOM     17  CG2 THR E   3      10.517 -13.629   5.072  1.00 14.08 LIG 0.04  C 
BRANCH 16 18
ATOM     18 OG1  THR E   3       9.296 -11.941   3.847  1.00 27.33 LIG-0.39  OA
ATOM     19 HG1  THR E   3       8.746 -12.515   3.575  1.00 27.33 LIG 0.21  HD
ENDBRANCH 16 18
ENDBRANCH 6 16
ENDBRANCH 4 6
ENDBRANCH 1 2
BRANCH 1 20
ATOM     20  CB  HIS E   2      15.649 -11.530   2.430  1.00 18.36 LIG 0.10  C 
BRANCH 20 21
ATOM     21  CG  HIS E   2      15.108 -12.926   2.469  1.00 23.43 LIG 0.06  A 
ATOM     22  CD2 HIS E   2      15.552 -14.037   3.103  1.00 23.79 LIG 0.14  A 
ATOM     23 NE2  HIS E   2      14.689 -15.056   2.782  1.00 23.75 LIG-0.25  NA
ATOM     24  CE1 HIS E   2      13.751 -14.588   1.979  1.00 26.05 LIG 0.23  A 
ATOM     25 ND1  HIS E   2      13.982 -13.304   1.770  1.00 21.22 LIG-0.24  NA
ENDBRANCH 20 21
ENDBRANCH 1 20
BRANCH 1 26
ATOM     26  N   HIS E   2      15.158  -9.109   2.160  1.00 15.97 LIG-0.35  N 
ATOM     27 H    HIS E   2      15.339  -8.745   2.918  1.00 15.97 LIG 0.16  HD
ATOM     28  C   TRP E   1      15.382  -8.517   0.985  1.00 12.03 LIG 0.24  C 
ATOM     29 O    TRP E   1      15.158  -9.065  -0.100  1.00 13.67 LIG-0.27  OA
BRANCH 28 30
ATOM     30  CA  TRP E   1      15.904  -7.085   1.035  1.00  9.26 LIG 0.18  C 
BRANCH 30 31
ATOM     31  N   TRP E   1      16.918  -6.864   2.069  1.00 13.05 LIG-0.35  N 
ATOM     32 H    TRP E   1      16.682  -6.289   2.662  1.00 13.05 LIG 0.16  HD
ATOM     33  C   ACE E   0      18.094  -7.491   2.094  1.00 12.60 LIG 0.21  C 
ATOM     34  CH3 ACE E   0      19.006  -7.130   3.249  1.00  6.27 LIG 0.12  C 
ATOM     35 O    ACE E   0      18.416  -8.309   1.233  1.00 15.02 LIG-0.27  OA
ENDBRANCH 30 31
BRANCH 30 36
ATOM     36  CB  TRP E   1      16.471  -6.710  -0.330  1.00 10.27 LIG 0.07  C 
BRANCH 36 37
ATOM     37  CG  TRP E   1      15.996  -5.380  -0.840  1.00  6.62 LIG-0.03  A 
ATOM     38  CD1 TRP E   1      16.724  -4.449  -1.529  1.00  7.94 LIG 0.10  A 
ATOM     39  NE1 TRP E   1      15.934  -3.354  -1.826  1.00 10.26 LIG-0.36  N 
ATOM     40  CE2 TRP E   1      14.679  -3.567  -1.319  1.00  6.86 LIG 0.04  A 
ATOM     41 HE1  TRP E   1      16.189  -2.654  -2.258  1.00 10.26 LIG 0.17  HD
ATOM     42  CZ2 TRP E   1      13.542  -2.758  -1.358  1.00  8.31 LIG 0.03  A 
ATOM     43  CD2 TRP E   1      14.684  -4.835  -0.690  1.00  9.88 LIG-0.00  A 
ATOM     44  CH2 TRP E   1      12.403  -3.244  -0.769  1.00 13.27 LIG 0.00  A 
ATOM     45  CZ3 TRP E   1      12.376  -4.495  -0.137  1.00 13.61 LIG 0.00  A 
ATOM     46  CE3 TRP E   1      13.507  -5.300  -0.095  1.00 14.26 LIG 0.01  A 
ENDBRANCH 36 37
ENDBRANCH 30 36
ENDBRANCH 28 30
ENDBRANCH 1 26
TORSDOF 14
ENDMDL
MODEL 38
USER: ADFR SOLUTION from run 187
USER: SCORE 13.601425 LL:  -3.788 LR: -10.897 RR:   0.000 FEB:  -6.720
USER: RMSD 6.827247
USER: SEED 186
USER: STATUS no improvement in best in 15 clusters for 5 generations
USER: GENES 16
USER: genes 0 Translation |==|  0.51769 0.57018 0.38930
USER: genes 1 Rotation |==|  0.40807 0.92801 0.25961 0.52384
USER: genes 2 Torsion [N]-CA--C-[N] |==|  0.27223
USER: genes 3 Torsion [C]-N--CA-[C] |==|  0.63890
USER: genes 4 Torsion [N]-CA--C-[N] |==|  0.93880
USER: genes 5 Torsion [C]-N--CA-[C] |==|  0.68918
USER: genes 6 Torsion [N]-CA--C-[N] |==|  0.40685
USER: genes 7 Torsion [N]-CA--CB-[CG2] |==|  0.33915
USER: genes 8 Torsion [CA]-CB--OG1-[HG1] |==|  0.43283
USER: genes 9 Torsion [C]-CA--CB-[CG] |==|  0.24347
USER: genes 10 Torsion [CA]-CB--CG-[ND1] |==|  0.99057
USER: genes 11 Torsion [C]-CA--N-[C] |==|  0.70910
USER: genes 12 Torsion [N]-C--CA-[N] |==|  0.45000
USER: genes 13 Torsion [C]-CA--N-[C] |==|  0.54961
USER: genes 14 Torsion [C]-CA--CB-[CG] |==|  0.13298
USER: genes 15 Torsion [CA]-CB--CG-[CD1] |==|  0.68326
ROOT
ATOM      1  CA  HIS E   2      15.501  -7.091   0.598  1.00 14.20 LIG 0.18  C 
ENDROOT
BRANCH 1 2
ATOM      2  C   HIS E   2      16.901  -6.723   1.080  1.00 15.34 LIG 0.24  C 
ATOM      3 O    HIS E   2      17.907  -7.049   0.443  1.00 13.21 LIG-0.27  OA
ATOM      4  N   THR E   3      16.953  -6.059   2.235  1.00 14.85 LIG-0.34  N 
ATOM      5 H    THR E   3      16.263  -5.782   2.666  1.00 14.85 LIG 0.16  HD
BRANCH 4 6
ATOM      6  CA  THR E   3      18.231  -5.750   2.865  1.00 13.22 LIG 0.20  C 
BRANCH 6 7
ATOM      7  C   THR E   3      18.223  -6.167   4.330  1.00 13.63 LIG 0.24  C 
ATOM      8  N   ALA E   4      17.026  -6.288   4.900  1.00  8.98 LIG-0.35  N 
ATOM      9 H    ALA E   4      16.282  -6.142   4.493  1.00  8.98 LIG 0.16  HD
ATOM     10 O    THR E   3      19.278  -6.367   4.939  1.00 14.15 LIG-0.27  OA
BRANCH 8 11
ATOM     11  CA  ALA E   4      16.882  -6.690   6.298  1.00 15.48 LIG 0.18  C 
ATOM     12  CB  ALA E   4      16.066  -5.660   7.060  1.00 13.80 LIG 0.04  C 
BRANCH 11 13
ATOM     13  C   ALA E   4      16.253  -8.078   6.446  1.00 23.80 LIG 0.28  C 
ATOM     14 O    ALA E   4      15.413  -8.473   5.636  1.00 30.75 LIG-0.27  OA
ATOM     15  N   NH2 E 101      16.665  -8.819   7.471  1.00 22.73 LIG-0.11  N 
ENDBRANCH 11 13
ENDBRANCH 8 11
ENDBRANCH 6 7
BRANCH 6 16
ATOM     16  CB  THR E   3      18.530  -4.255   2.756  1.00 20.99 LIG 0.15  C 
ATOM     17  CG2 THR E   3      18.724  -3.648   4.146  1.00 14.08 LIG 0.04  C 
BRANCH 16 18
ATOM     18 OG1  THR E   3      19.717  -4.066   1.983  1.00 27.33 LIG-0.39  OA
ATOM     19 HG1  THR E   3      19.711  -3.298   1.643  1.00 27.33 LIG 0.21  HD
ENDBRANCH 16 18
ENDBRANCH 6 16
ENDBRANCH 4 6
ENDBRANCH 1 2
BRANCH 1 20
ATOM     20  CB  HIS E   2      15.531  -8.516   0.030  1.00 18.36 LIG 0.10  C 
BRANCH 20 21
ATOM     21  CG  HIS E   2      15.304  -9.589   1.049  1.00 23.43 LIG 0.06  A 
ATOM     22  CD2 HIS E   2      15.177 -10.931   0.918  1.00 23.79 LIG 0.14  A 
ATOM     23 NE2  HIS E   2      14.962 -11.440   2.176  1.00 23.75 LIG-0.25  NA
ATOM     24  CE1 HIS E   2      14.955 -10.447   3.046  1.00 26.05 LIG 0.23  A 
ATOM     25 ND1  HIS E   2      15.156  -9.316   2.392  1.00 21.22 LIG-0.24  NA
ENDBRANCH 20 21
ENDBRANCH 1 20
BRANCH 1 26
ATOM     26  N   HIS E   2      15.045  -6.114  -0.386  1.00 15.97 LIG-0.35  N 
ATOM     27 H    HIS E   2      15.410  -6.200  -1.159  1.00 15.97 LIG 0.16  HD
ATOM     28  C   TRP E   1      14.141  -5.176  -0.096  1.00 12.03 LIG 0.24  C 
ATOM     29 O    TRP E   1      13.591  -5.088   1.007  1.00 13.67 LIG-0.27  OA
BRANCH 28 30
ATOM     30  CA  TRP E   1      13.833  -4.167  -1.197  1.00  9.26 LIG 0.18  C 
BRANCH 30 31
ATOM     31  N   TRP E   1      12.576  -3.443  -0.996  1.00 13.05 LIG-0.35  N 
ATOM     32 H    TRP E   1      12.284  -3.481  -0.189  1.00 13.05 LIG 0.16  HD
ATOM     33  C   ACE E   0      11.941  -2.785  -1.966  1.00 12.60 LIG 0.21  C 
ATOM     34  CH3 ACE E   0      10.656  -2.092  -1.558  1.00  6.27 LIG 0.12  C 
ATOM     35 O    ACE E   0      12.373  -2.743  -3.117  1.00 15.02 LIG-0.27  OA
ENDBRANCH 30 31
BRANCH 30 36
ATOM     36  CB  TRP E   1      14.986  -3.176  -1.307  1.00 10.27 LIG 0.07  C 
BRANCH 36 37
ATOM     37  CG  TRP E   1      16.340  -3.824  -1.351  1.00  6.62 LIG-0.03  A 
ATOM     38  CD1 TRP E   1      17.331  -3.735  -0.413  1.00  7.94 LIG 0.10  A 
ATOM     39  NE1 TRP E   1      18.431  -4.473  -0.811  1.00 10.26 LIG-0.36  N 
ATOM     40  CE2 TRP E   1      18.158  -5.044  -2.027  1.00  6.86 LIG 0.04  A 
ATOM     41 HE1  TRP E   1      19.164  -4.560  -0.369  1.00 10.26 LIG 0.17  HD
ATOM     42  CZ2 TRP E   1      18.946  -5.869  -2.832  1.00  8.31 LIG 0.03  A 
ATOM     43  CD2 TRP E   1      16.848  -4.655  -2.396  1.00  9.88 LIG-0.00  A 
ATOM     44  CH2 TRP E   1      18.398  -6.309  -4.010  1.00 13.27 LIG 0.00  A 
ATOM     45  CZ3 TRP E   1      17.105  -5.940  -4.404  1.00 13.61 LIG 0.00  A 
ATOM     46  CE3 TRP E   1      16.321  -5.118  -3.606  1.00 14.26 LIG 0.01  A 
ENDBRANCH 36 37
ENDBRANCH 30 36
ENDBRANCH 28 30
ENDBRANCH 1 26
TORSDOF 14
ENDMDL
MODEL 39
USER: ADFR SOLUTION from run 13
USER: SCORE 13.449556 LL:  -3.243 LR: -10.886 RR:   0.000 FEB:  -6.710
USER: RMSD 6.365559
USER: SEED 769354
USER: STATUS no improvement in best in 55 clusters for 5 generations
USER: GENES 16
USER: genes 0 Translation |==|  0.62373 0.56716 0.50252
USER: genes 1 Rotation |==|  0.52648 0.81263 0.13378 0.63207
USER: genes 2 Torsion [N]-CA--C-[N] |==|  0.35568
USER: genes 3 Torsion [C]-N--CA-[C] |==|  0.63435
USER: genes 4 Torsion [N]-CA--C-[N] |==|  0.27853
USER: genes 5 Torsion [C]-N--CA-[C] |==|  0.16467
USER: genes 6 Torsion [N]-CA--C-[N] |==|  0.08484
USER: genes 7 Torsion [N]-CA--CB-[CG2] |==|  0.87276
USER: genes 8 Torsion [CA]-CB--OG1-[HG1] |==|  0.37184
USER: genes 9 Torsion [C]-CA--CB-[CG] |==|  0.42709
USER: genes 10 Torsion [CA]-CB--CG-[ND1] |==|  0.18543
USER: genes 11 Torsion [C]-CA--N-[C] |==|  0.81386
USER: genes 12 Torsion [N]-C--CA-[N] |==|  0.90771
USER: genes 13 Torsion [C]-CA--N-[C] |==|  0.80372
USER: genes 14 Torsion [C]-CA--CB-[CG] |==|  0.17645
USER: genes 15 Torsion [CA]-CB--CG-[CD1] |==|  0.25265
ROOT
ATOM      1  CA  HIS E   2      17.569  -7.155   2.551  1.00 14.20 LIG 0.18  C 
ENDROOT
BRANCH 1 2
ATOM      2  C   HIS E   2      18.429  -6.481   3.616  1.00 15.34 LIG 0.24  C 
ATOM      3 O    HIS E   2      19.646  -6.681   3.681  1.00 13.21 LIG-0.27  OA
ATOM      4  N   THR E   3      17.773  -5.698   4.472  1.00 14.85 LIG-0.34  N 
ATOM      5 H    THR E   3      16.936  -5.510   4.413  1.00 14.85 LIG 0.16  HD
BRANCH 4 6
ATOM      6  CA  THR E   3      18.457  -5.089   5.607  1.00 13.22 LIG 0.20  C 
BRANCH 6 7
ATOM      7  C   THR E   3      17.665  -5.304   6.890  1.00 13.63 LIG 0.24  C 
ATOM      8  N   ALA E   4      18.087  -6.285   7.685  1.00  8.98 LIG-0.35  N 
ATOM      9 H    ALA E   4      18.762  -6.789   7.510  1.00  8.98 LIG 0.16  HD
ATOM     10 O    THR E   3      16.685  -4.602   7.155  1.00 14.15 LIG-0.27  OA
BRANCH 8 11
ATOM     11  CA  ALA E   4      17.418  -6.586   8.949  1.00 15.48 LIG 0.18  C 
ATOM     12  CB  ALA E   4      17.544  -5.412   9.903  1.00 13.80 LIG 0.04  C 
BRANCH 11 13
ATOM     13  C   ALA E   4      15.944  -6.955   8.757  1.00 23.80 LIG 0.28  C 
ATOM     14 O    ALA E   4      15.114  -6.690   9.629  1.00 30.75 LIG-0.27  OA
ATOM     15  N   NH2 E 101      15.618  -7.554   7.615  1.00 22.73 LIG-0.11  N 
ENDBRANCH 11 13
ENDBRANCH 8 11
ENDBRANCH 6 7
BRANCH 6 16
ATOM     16  CB  THR E   3      18.655  -3.593   5.368  1.00 20.99 LIG 0.15  C 
ATOM     17  CG2 THR E   3      19.178  -3.343   3.953  1.00 14.08 LIG 0.04  C 
BRANCH 16 18
ATOM     18 OG1  THR E   3      17.406  -2.919   5.540  1.00 27.33 LIG-0.39  OA
ATOM     19 HG1  THR E   3      17.519  -2.235   6.014  1.00 27.33 LIG 0.21  HD
ENDBRANCH 16 18
ENDBRANCH 6 16
ENDBRANCH 4 6
ENDBRANCH 1 2
BRANCH 1 20
ATOM     20  CB  HIS E   2      17.478  -8.655   2.863  1.00 18.36 LIG 0.10  C 
BRANCH 20 21
ATOM     21  CG  HIS E   2      16.243  -9.317   2.335  1.00 23.43 LIG 0.06  A 
ATOM     22  CD2 HIS E   2      15.196  -9.890   2.974  1.00 23.79 LIG 0.14  A 
ATOM     23 NE2  HIS E   2      14.344 -10.365   2.007  1.00 23.75 LIG-0.25  NA
ATOM     24  CE1 HIS E   2      14.851 -10.095   0.817  1.00 26.05 LIG 0.23  A 
ATOM     25 ND1  HIS E   2      16.001  -9.466   0.986  1.00 21.22 LIG-0.24  NA
ENDBRANCH 20 21
ENDBRANCH 1 20
BRANCH 1 26
ATOM     26  N   HIS E   2      18.131  -6.899   1.229  1.00 15.97 LIG-0.35  N 
ATOM     27 H    HIS E   2      18.441  -7.600   0.839  1.00 15.97 LIG 0.16  HD
ATOM     28  C   TRP E   1      18.155  -5.680   0.686  1.00 12.03 LIG 0.24  C 
ATOM     29 O    TRP E   1      17.668  -4.687   1.237  1.00 13.67 LIG-0.27  OA
BRANCH 28 30
ATOM     30  CA  TRP E   1      18.858  -5.551  -0.661  1.00  9.26 LIG 0.18  C 
BRANCH 30 31
ATOM     31  N   TRP E   1      19.997  -6.457  -0.820  1.00 13.05 LIG-0.35  N 
ATOM     32 H    TRP E   1      19.854  -7.092  -1.382  1.00 13.05 LIG 0.16  HD
ATOM     33  C   ACE E   0      21.147  -6.319  -0.161  1.00 12.60 LIG 0.21  C 
ATOM     34  CH3 ACE E   0      22.209  -7.356  -0.467  1.00  6.27 LIG 0.12  C 
ATOM     35 O    ACE E   0      21.333  -5.406   0.642  1.00 15.02 LIG-0.27  OA
ENDBRANCH 30 31
BRANCH 30 36
ATOM     36  CB  TRP E   1      17.849  -5.792  -1.778  1.00 10.27 LIG 0.07  C 
BRANCH 36 37
ATOM     37  CG  TRP E   1      16.744  -4.776  -1.828  1.00  6.62 LIG-0.03  A 
ATOM     38  CD1 TRP E   1      16.724  -3.609  -2.542  1.00  7.94 LIG 0.10  A 
ATOM     39  NE1 TRP E   1      15.531  -2.943  -2.330  1.00 10.26 LIG-0.36  N 
ATOM     40  CE2 TRP E   1      14.766  -3.678  -1.462  1.00  6.86 LIG 0.04  A 
ATOM     41 HE1  TRP E   1      15.306  -2.192  -2.684  1.00 10.26 LIG 0.17  HD
ATOM     42  CZ2 TRP E   1      13.494  -3.425  -0.945  1.00  8.31 LIG 0.03  A 
ATOM     43  CD2 TRP E   1      15.502  -4.840  -1.126  1.00  9.88 LIG-0.00  A 
ATOM     44  CH2 TRP E   1      12.963  -4.360  -0.094  1.00 13.27 LIG 0.00  A 
ATOM     45  CZ3 TRP E   1      13.666  -5.520   0.259  1.00 13.61 LIG 0.00  A 
ATOM     46  CE3 TRP E   1      14.932  -5.772  -0.252  1.00 14.26 LIG 0.01  A 
ENDBRANCH 36 37
ENDBRANCH 30 36
ENDBRANCH 28 30
ENDBRANCH 1 26
TORSDOF 14
ENDMDL
MODEL 40
USER: ADFR SOLUTION from run 182
USER: SCORE 12.948071 LL:  -2.634 LR: -10.865 RR:   0.000 FEB:  -6.689
USER: RMSD 7.101322
USER: SEED 181
USER: STATUS no improvement in best in 21 clusters for 5 generations
USER: GENES 16
USER: genes 0 Translation |==|  0.40824 0.33681 0.33607
USER: genes 1 Rotation |==|  0.70068 0.82225 0.18208 0.56936
USER: genes 2 Torsion [N]-CA--C-[N] |==|  0.36667
USER: genes 3 Torsion [C]-N--CA-[C] |==|  0.65002
USER: genes 4 Torsion [N]-CA--C-[N] |==|  0.07642
USER: genes 5 Torsion [C]-N--CA-[C] |==|  0.14186
USER: genes 6 Torsion [N]-CA--C-[N] |==|  0.14068
USER: genes 7 Torsion [N]-CA--CB-[CG2] |==|  0.63554
USER: genes 8 Torsion [CA]-CB--OG1-[HG1] |==|  0.45249
USER: genes 9 Torsion [C]-CA--CB-[CG] |==|  0.47000
USER: genes 10 Torsion [CA]-CB--CG-[ND1] |==|  0.88864
USER: genes 11 Torsion [C]-CA--N-[C] |==|  0.84885
USER: genes 12 Torsion [N]-C--CA-[N] |==|  0.01996
USER: genes 13 Torsion [C]-CA--N-[C] |==|  0.75193
USER: genes 14 Torsion [C]-CA--CB-[CG] |==|  0.50653
USER: genes 15 Torsion [CA]-CB--CG-[CD1] |==|  0.00986
ROOT
ATOM      1  CA  HIS E   2      13.367 -11.992  -0.320  1.00 14.20 LIG 0.18  C 
ENDROOT
BRANCH 1 2
ATOM      2  C   HIS E   2      13.895 -12.206   1.095  1.00 15.34 LIG 0.24  C 
ATOM      3 O    HIS E   2      14.772 -13.041   1.335  1.00 13.21 LIG-0.27  OA
ATOM      4  N   THR E   3      13.324 -11.457   2.039  1.00 14.85 LIG-0.34  N 
ATOM      5 H    THR E   3      12.747 -10.839   1.884  1.00 14.85 LIG 0.16  HD
BRANCH 4 6
ATOM      6  CA  THR E   3      13.653 -11.646   3.447  1.00 13.22 LIG 0.20  C 
BRANCH 6 7
ATOM      7  C   THR E   3      12.390 -11.873   4.268  1.00 13.63 LIG 0.24  C 
ATOM      8  N   ALA E   4      11.359 -12.417   3.624  1.00  8.98 LIG-0.35  N 
ATOM      9 H    ALA E   4      11.373 -12.634   2.792  1.00  8.98 LIG 0.16  HD
ATOM     10 O    THR E   3      12.343 -11.555   5.460  1.00 14.15 LIG-0.27  OA
BRANCH 8 11
ATOM     11  CA  ALA E   4      10.094 -12.692   4.302  1.00 15.48 LIG 0.18  C 
ATOM     12  CB  ALA E   4      10.249 -13.873   5.244  1.00 13.80 LIG 0.04  C 
BRANCH 11 13
ATOM     13  C   ALA E   4       9.561 -11.475   5.062  1.00 23.80 LIG 0.28  C 
ATOM     14 O    ALA E   4       9.229 -11.573   6.245  1.00 30.75 LIG-0.27  OA
ATOM     15  N   NH2 E 101       9.489 -10.330   4.390  1.00 22.73 LIG-0.11  N 
ENDBRANCH 11 13
ENDBRANCH 8 11
ENDBRANCH 6 7
BRANCH 6 16
ATOM     16  CB  THR E   3      14.406 -10.430   3.985  1.00 20.99 LIG 0.15  C 
ATOM     17  CG2 THR E   3      15.660 -10.871   4.741  1.00 14.08 LIG 0.04  C 
BRANCH 16 18
ATOM     18 OG1  THR E   3      14.780  -9.586   2.893  1.00 27.33 LIG-0.39  OA
ATOM     19 HG1  THR E   3      14.978  -8.823   3.184  1.00 27.33 LIG 0.21  HD
ENDBRANCH 16 18
ENDBRANCH 6 16
ENDBRANCH 4 6
ENDBRANCH 1 2
BRANCH 1 20
ATOM     20  CB  HIS E   2      12.468 -13.177  -0.699  1.00 18.36 LIG 0.10  C 
BRANCH 20 21
ATOM     21  CG  HIS E   2      11.683 -12.974  -1.958  1.00 23.43 LIG 0.06  A 
ATOM     22  CD2 HIS E   2      11.410 -13.815  -2.983  1.00 23.79 LIG 0.14  A 
ATOM     23 NE2  HIS E   2      10.664 -13.109  -3.895  1.00 23.75 LIG-0.25  NA
ATOM     24  CE1 HIS E   2      10.487 -11.880  -3.447  1.00 26.05 LIG 0.23  A 
ATOM     25 ND1  HIS E   2      11.096 -11.769  -2.279  1.00 21.22 LIG-0.24  NA
ENDBRANCH 20 21
ENDBRANCH 1 20
BRANCH 1 26
ATOM     26  N   HIS E   2      14.485 -11.830  -1.244  1.00 15.97 LIG-0.35  N 
ATOM     27 H    HIS E   2      14.469 -12.373  -1.911  1.00 15.97 LIG 0.16  HD
ATOM     28  C   TRP E   1      15.441 -10.917  -1.056  1.00 12.03 LIG 0.24  C 
ATOM     29 O    TRP E   1      15.431 -10.114  -0.117  1.00 13.67 LIG-0.27  OA
BRANCH 28 30
ATOM     30  CA  TRP E   1      16.594 -10.928  -2.053  1.00  9.26 LIG 0.18  C 
BRANCH 30 31
ATOM     31  N   TRP E   1      16.393 -11.846  -3.177  1.00 13.05 LIG-0.35  N 
ATOM     32 H    TRP E   1      16.006 -11.480  -3.852  1.00 13.05 LIG 0.16  HD
ATOM     33  C   ACE E   0      16.769 -13.124  -3.162  1.00 12.60 LIG 0.21  C 
ATOM     34  CH3 ACE E   0      16.478 -13.909  -4.424  1.00  6.27 LIG 0.12  C 
ATOM     35 O    ACE E   0      17.319 -13.630  -2.185  1.00 15.02 LIG-0.27  OA
ENDBRANCH 30 31
BRANCH 30 36
ATOM     36  CB  TRP E   1      16.817  -9.513  -2.578  1.00 10.27 LIG 0.07  C 
BRANCH 36 37
ATOM     37  CG  TRP E   1      17.899  -9.414  -3.614  1.00  6.62 LIG-0.03  A 
ATOM     38  CD1 TRP E   1      18.622 -10.440  -4.157  1.00  7.94 LIG 0.10  A 
ATOM     39  NE1 TRP E   1      19.526  -9.948  -5.081  1.00 10.26 LIG-0.36  N 
ATOM     40  CE2 TRP E   1      19.398  -8.585  -5.137  1.00  6.86 LIG 0.04  A 
ATOM     41 HE1  TRP E   1      20.077 -10.419  -5.544  1.00 10.26 LIG 0.17  HD
ATOM     42  CZ2 TRP E   1      20.084  -7.646  -5.909  1.00  8.31 LIG 0.03  A 
ATOM     43  CD2 TRP E   1      18.381  -8.215  -4.224  1.00  9.88 LIG-0.00  A 
ATOM     44  CH2 TRP E   1      19.728  -6.329  -5.763  1.00 13.27 LIG 0.00  A 
ATOM     45  CZ3 TRP E   1      18.727  -5.931  -4.867  1.00 13.61 LIG 0.00  A 
ATOM     46  CE3 TRP E   1      18.045  -6.863  -4.096  1.00 14.26 LIG 0.01  A 
ENDBRANCH 36 37
ENDBRANCH 30 36
ENDBRANCH 28 30
ENDBRANCH 1 26
TORSDOF 14
ENDMDL
MODEL 41
USER: ADFR SOLUTION from run 160
USER: SCORE 14.544648 LL:  -3.896 LR: -10.842 RR:   0.000 FEB:  -6.666
USER: RMSD 3.750217
USER: SEED 159
USER: STATUS no improvement in best in 1 clusters for 5 generations
USER: GENES 16
USER: genes 0 Translation |==|  0.49932 0.46225 0.40890
USER: genes 1 Rotation |==|  0.59647 0.93238 0.41782 0.71676
USER: genes 2 Torsion [N]-CA--C-[N] |==|  0.12407
USER: genes 3 Torsion [C]-N--CA-[C] |==|  0.79556
USER: genes 4 Torsion [N]-CA--C-[N] |==|  0.91445
USER: genes 5 Torsion [C]-N--CA-[C] |==|  0.76128
USER: genes 6 Torsion [N]-CA--C-[N] |==|  0.97834
USER: genes 7 Torsion [N]-CA--CB-[CG2] |==|  0.51740
USER: genes 8 Torsion [CA]-CB--OG1-[HG1] |==|  0.14650
USER: genes 9 Torsion [C]-CA--CB-[CG] |==|  0.60392
USER: genes 10 Torsion [CA]-CB--CG-[ND1] |==|  0.84404
USER: genes 11 Torsion [C]-CA--N-[C] |==|  0.14515
USER: genes 12 Torsion [N]-C--CA-[N] |==|  0.42778
USER: genes 13 Torsion [C]-CA--N-[C] |==|  0.80533
USER: genes 14 Torsion [C]-CA--CB-[CG] |==|  0.33424
USER: genes 15 Torsion [CA]-CB--CG-[CD1] |==|  0.40020
ROOT
ATOM      1  CA  HIS E   2      15.143  -9.358   0.936  1.00 14.20 LIG 0.18  C 
ENDROOT
BRANCH 1 2
ATOM      2  C   HIS E   2      15.483 -10.066   2.244  1.00 15.34 LIG 0.24  C 
ATOM      3 O    HIS E   2      15.975 -11.199   2.253  1.00 13.21 LIG-0.27  OA
ATOM      4  N   THR E   3      15.186  -9.391   3.355  1.00 14.85 LIG-0.34  N 
ATOM      5 H    THR E   3      14.889  -8.585   3.367  1.00 14.85 LIG 0.16  HD
BRANCH 4 6
ATOM      6  CA  THR E   3      15.352 -10.001   4.669  1.00 13.22 LIG 0.20  C 
BRANCH 6 7
ATOM      7  C   THR E   3      14.263 -11.036   4.923  1.00 13.63 LIG 0.24  C 
ATOM      8  N   ALA E   4      13.087 -10.805   4.343  1.00  8.98 LIG-0.35  N 
ATOM      9 H    ALA E   4      12.919 -10.119   3.852  1.00  8.98 LIG 0.16  HD
ATOM     10 O    THR E   3      14.476 -12.020   5.635  1.00 14.15 LIG-0.27  OA
BRANCH 8 11
ATOM     11  CA  ALA E   4      11.963 -11.726   4.501  1.00 15.48 LIG 0.18  C 
ATOM     12  CB  ALA E   4      10.648 -10.972   4.406  1.00 13.80 LIG 0.04  C 
BRANCH 11 13
ATOM     13  C   ALA E   4      11.993 -12.867   3.481  1.00 23.80 LIG 0.28  C 
ATOM     14 O    ALA E   4      11.194 -13.801   3.563  1.00 30.75 LIG-0.27  OA
ATOM     15  N   NH2 E 101      12.905 -12.787   2.516  1.00 22.73 LIG-0.11  N 
ENDBRANCH 11 13
ENDBRANCH 8 11
ENDBRANCH 6 7
BRANCH 6 16
ATOM     16  CB  THR E   3      15.312  -8.932   5.761  1.00 20.99 LIG 0.15  C 
ATOM     17  CG2 THR E   3      15.640  -9.547   7.121  1.00 14.08 LIG 0.04  C 
BRANCH 16 18
ATOM     18 OG1  THR E   3      16.265  -7.911   5.456  1.00 27.33 LIG-0.39  OA
ATOM     19 HG1  THR E   3      16.138  -7.632   4.674  1.00 27.33 LIG 0.21  HD
ENDBRANCH 16 18
ENDBRANCH 6 16
ENDBRANCH 4 6
ENDBRANCH 1 2
BRANCH 1 20
ATOM     20  CB  HIS E   2      15.812 -10.108  -0.223  1.00 18.36 LIG 0.10  C 
BRANCH 20 21
ATOM     21  CG  HIS E   2      16.337  -9.220  -1.308  1.00 23.43 LIG 0.06  A 
ATOM     22  CD2 HIS E   2      17.581  -9.083  -1.824  1.00 23.79 LIG 0.14  A 
ATOM     23 NE2  HIS E   2      17.512  -8.109  -2.789  1.00 23.75 LIG-0.25  NA
ATOM     24  CE1 HIS E   2      16.272  -7.662  -2.862  1.00 26.05 LIG 0.23  A 
ATOM     25 ND1  HIS E   2      15.540  -8.314  -1.974  1.00 21.22 LIG-0.24  NA
ENDBRANCH 20 21
ENDBRANCH 1 20
BRANCH 1 26
ATOM     26  N   HIS E   2      15.566  -7.963   1.007  1.00 15.97 LIG-0.35  N 
ATOM     27 H    HIS E   2      14.948  -7.399   0.807  1.00 15.97 LIG 0.16  HD
ATOM     28  C   TRP E   1      16.806  -7.608   1.353  1.00 12.03 LIG 0.24  C 
ATOM     29 O    TRP E   1      17.674  -8.424   1.680  1.00 13.67 LIG-0.27  OA
BRANCH 28 30
ATOM     30  CA  TRP E   1      17.127  -6.119   1.291  1.00  9.26 LIG 0.18  C 
BRANCH 30 31
ATOM     31  N   TRP E   1      18.202  -5.711   2.199  1.00 13.05 LIG-0.35  N 
ATOM     32 H    TRP E   1      18.928  -5.492   1.793  1.00 13.05 LIG 0.16  HD
ATOM     33  C   ACE E   0      18.076  -5.680   3.525  1.00 12.60 LIG 0.21  C 
ATOM     34  CH3 ACE E   0      19.300  -5.224   4.292  1.00  6.27 LIG 0.12  C 
ATOM     35 O    ACE E   0      17.030  -6.001   4.088  1.00 15.02 LIG-0.27  OA
ENDBRANCH 30 31
BRANCH 30 36
ATOM     36  CB  TRP E   1      17.493  -5.743  -0.141  1.00 10.27 LIG 0.07  C 
BRANCH 36 37
ATOM     37  CG  TRP E   1      16.596  -4.699  -0.742  1.00  6.62 LIG-0.03  A 
ATOM     38  CD1 TRP E   1      16.952  -3.699  -1.603  1.00  7.94 LIG 0.10  A 
ATOM     39  NE1 TRP E   1      15.844  -2.940  -1.935  1.00 10.26 LIG-0.36  N 
ATOM     40  CE2 TRP E   1      14.754  -3.446  -1.276  1.00  6.86 LIG 0.04  A 
ATOM     41 HE1  TRP E   1      15.840  -2.264  -2.466  1.00 10.26 LIG 0.17  HD
ATOM     42  CZ2 TRP E   1      13.422  -3.027  -1.284  1.00  8.31 LIG 0.03  A 
ATOM     43  CD2 TRP E   1      15.193  -4.555  -0.515  1.00  9.88 LIG-0.00  A 
ATOM     44  CH2 TRP E   1      12.531  -3.744  -0.526  1.00 13.27 LIG 0.00  A 
ATOM     45  CZ3 TRP E   1      12.935  -4.846   0.239  1.00 13.61 LIG 0.00  A 
ATOM     46  CE3 TRP E   1      14.260  -5.263   0.251  1.00 14.26 LIG 0.01  A 
ENDBRANCH 36 37
ENDBRANCH 30 36
ENDBRANCH 28 30
ENDBRANCH 1 26
TORSDOF 14
ENDMDL
MODEL 42
USER: ADFR SOLUTION from run 82
USER: SCORE 13.303632 LL:  -2.970 LR: -10.842 RR:   0.000 FEB:  -6.666
USER: RMSD 4.453095
USER: SEED 81
USER: STATUS no improvement in best in 12 clusters for 5 generations
USER: GENES 16
USER: genes 0 Translation |==|  0.48044 0.42817 0.39873
USER: genes 1 Rotation |==|  0.68354 0.86104 0.34880 0.75120
USER: genes 2 Torsion [N]-CA--C-[N] |==|  0.43922
USER: genes 3 Torsion [C]-N--CA-[C] |==|  0.63102
USER: genes 4 Torsion [N]-CA--C-[N] |==|  0.41709
USER: genes 5 Torsion [C]-N--CA-[C] |==|  0.79421
USER: genes 6 Torsion [N]-CA--C-[N] |==|  0.46591
USER: genes 7 Torsion [N]-CA--CB-[CG2] |==|  0.30807
USER: genes 8 Torsion [CA]-CB--OG1-[HG1] |==|  0.91441
USER: genes 9 Torsion [C]-CA--CB-[CG] |==|  0.19104
USER: genes 10 Torsion [CA]-CB--CG-[ND1] |==|  0.17728
USER: genes 11 Torsion [C]-CA--N-[C] |==|  0.55032
USER: genes 12 Torsion [N]-C--CA-[N] |==|  0.43488
USER: genes 13 Torsion [C]-CA--N-[C] |==|  0.67778
USER: genes 14 Torsion [C]-CA--CB-[CG] |==|  0.71139
USER: genes 15 Torsion [CA]-CB--CG-[CD1] |==|  0.81106
ROOT
ATOM      1  CA  HIS E   2      14.775 -10.073   0.761  1.00 14.20 LIG 0.18  C 
ENDROOT
BRANCH 1 2
ATOM      2  C   HIS E   2      14.484 -10.565   2.176  1.00 15.34 LIG 0.24  C 
ATOM      3 O    HIS E   2      15.298 -10.410   3.091  1.00 13.21 LIG-0.27  OA
ATOM      4  N   THR E   3      13.317 -11.190   2.336  1.00 14.85 LIG-0.34  N 
ATOM      5 H    THR E   3      12.719 -11.265   1.723  1.00 14.85 LIG 0.16  HD
BRANCH 4 6
ATOM      6  CA  THR E   3      12.969 -11.811   3.609  1.00 13.22 LIG 0.20  C 
BRANCH 6 7
ATOM      7  C   THR E   3      12.427 -13.219   3.389  1.00 13.63 LIG 0.24  C 
ATOM      8  N   ALA E   4      12.643 -14.092   4.371  1.00  8.98 LIG-0.35  N 
ATOM      9 H    ALA E   4      13.064 -13.905   5.097  1.00  8.98 LIG 0.16  HD
ATOM     10 O    THR E   3      11.832 -13.514   2.349  1.00 14.15 LIG-0.27  OA
BRANCH 8 11
ATOM     11  CA  ALA E   4      12.166 -15.471   4.285  1.00 15.48 LIG 0.18  C 
ATOM     12  CB  ALA E   4      12.893 -16.342   5.295  1.00 13.80 LIG 0.04  C 
BRANCH 11 13
ATOM     13  C   ALA E   4      10.652 -15.580   4.487  1.00 23.80 LIG 0.28  C 
ATOM     14 O    ALA E   4      10.006 -14.617   4.905  1.00 30.75 LIG-0.27  OA
ATOM     15  N   NH2 E 101      10.087 -16.745   4.181  1.00 22.73 LIG-0.11  N 
ENDBRANCH 11 13
ENDBRANCH 8 11
ENDBRANCH 6 7
BRANCH 6 16
ATOM     16  CB  THR E   3      11.928 -10.968   4.344  1.00 20.99 LIG 0.15  C 
ATOM     17  CG2 THR E   3      10.583 -11.695   4.383  1.00 14.08 LIG 0.04  C 
BRANCH 16 18
ATOM     18 OG1  THR E   3      12.377 -10.725   5.680  1.00 27.33 LIG-0.39  OA
ATOM     19 HG1  THR E   3      12.844 -11.372   5.941  1.00 27.33 LIG 0.21  HD
ENDBRANCH 16 18
ENDBRANCH 6 16
ENDBRANCH 4 6
ENDBRANCH 1 2
BRANCH 1 20
ATOM     20  CB  HIS E   2      15.245 -11.261  -0.090  1.00 18.36 LIG 0.10  C 
BRANCH 20 21
ATOM     21  CG  HIS E   2      14.180 -12.274  -0.371  1.00 23.43 LIG 0.06  A 
ATOM     22  CD2 HIS E   2      14.083 -13.582  -0.034  1.00 23.79 LIG 0.14  A 
ATOM     23 NE2  HIS E   2      12.905 -14.049  -0.565  1.00 23.75 LIG-0.25  NA
ATOM     24  CE1 HIS E   2      12.302 -13.064  -1.206  1.00 26.05 LIG 0.23  A 
ATOM     25 ND1  HIS E   2      13.053 -11.981  -1.108  1.00 21.22 LIG-0.24  NA
ENDBRANCH 20 21
ENDBRANCH 1 20
BRANCH 1 26
ATOM     26  N   HIS E   2      15.764  -9.001   0.806  1.00 15.97 LIG-0.35  N 
ATOM     27 H    HIS E   2      16.210  -8.967   1.540  1.00 15.97 LIG 0.16  HD
ATOM     28  C   TRP E   1      15.947  -8.155  -0.210  1.00 12.03 LIG 0.24  C 
ATOM     29 O    TRP E   1      15.330  -8.239  -1.278  1.00 13.67 LIG-0.27  OA
BRANCH 28 30
ATOM     30  CA  TRP E   1      16.949  -7.028   0.017  1.00  9.26 LIG 0.18  C 
BRANCH 30 31
ATOM     31  N   TRP E   1      17.515  -6.485  -1.220  1.00 13.05 LIG-0.35  N 
ATOM     32 H    TRP E   1      16.931  -6.106  -1.725  1.00 13.05 LIG 0.16  HD
ATOM     33  C   ACE E   0      18.806  -6.565  -1.538  1.00 12.60 LIG 0.21  C 
ATOM     34  CH3 ACE E   0      19.197  -5.937  -2.860  1.00  6.27 LIG 0.12  C 
ATOM     35 O    ACE E   0      19.626  -7.114  -0.803  1.00 15.02 LIG-0.27  OA
ENDBRANCH 30 31
BRANCH 30 36
ATOM     36  CB  TRP E   1      16.278  -5.912   0.810  1.00 10.27 LIG 0.07  C 
BRANCH 36 37
ATOM     37  CG  TRP E   1      15.903  -4.719  -0.021  1.00  6.62 LIG-0.03  A 
ATOM     38  CD1 TRP E   1      16.750  -3.832  -0.626  1.00  7.94 LIG 0.10  A 
ATOM     39  NE1 TRP E   1      16.025  -2.869  -1.303  1.00 10.26 LIG-0.36  N 
ATOM     40  CE2 TRP E   1      14.689  -3.124  -1.133  1.00  6.86 LIG 0.04  A 
ATOM     41 HE1  TRP E   1      16.357  -2.217  -1.757  1.00 10.26 LIG 0.17  HD
ATOM     42  CZ2 TRP E   1      13.572  -2.440  -1.614  1.00  8.31 LIG 0.03  A 
ATOM     43  CD2 TRP E   1      14.577  -4.284  -0.329  1.00  9.88 LIG-0.00  A 
ATOM     44  CH2 TRP E   1      12.337  -2.941  -1.290  1.00 13.27 LIG 0.00  A 
ATOM     45  CZ3 TRP E   1      12.193  -4.086  -0.494  1.00 13.61 LIG 0.00  A 
ATOM     46  CE3 TRP E   1      13.303  -4.767  -0.012  1.00 14.26 LIG 0.01  A 
ENDBRANCH 36 37
ENDBRANCH 30 36
ENDBRANCH 28 30
ENDBRANCH 1 26
TORSDOF 14
ENDMDL
MODEL 43
USER: ADFR SOLUTION from run 87
USER: SCORE 12.393391 LL:  -3.135 LR: -10.836 RR:   0.000 FEB:  -6.660
USER: RMSD 4.412533
USER: SEED 86
USER: STATUS no improvement in best in 9 clusters for 5 generations
USER: GENES 16
USER: genes 0 Translation |==|  0.46636 0.42549 0.45465
USER: genes 1 Rotation |==|  0.64208 0.83974 0.38923 0.81957
USER: genes 2 Torsion [N]-CA--C-[N] |==|  0.38671
USER: genes 3 Torsion [C]-N--CA-[C] |==|  0.69451
USER: genes 4 Torsion [N]-CA--C-[N] |==|  0.84505
USER: genes 5 Torsion [C]-N--CA-[C] |==|  0.15685
USER: genes 6 Torsion [N]-CA--C-[N] |==|  0.08124
USER: genes 7 Torsion [N]-CA--CB-[CG2] |==|  0.63138
USER: genes 8 Torsion [CA]-CB--OG1-[HG1] |==|  0.15111
USER: genes 9 Torsion [C]-CA--CB-[CG] |==|  0.25492
USER: genes 10 Torsion [CA]-CB--CG-[ND1] |==|  0.91901
USER: genes 11 Torsion [C]-CA--N-[C] |==|  0.51760
USER: genes 12 Torsion [N]-C--CA-[N] |==|  0.34850
USER: genes 13 Torsion [C]-CA--N-[C] |==|  0.56450
USER: genes 14 Torsion [C]-CA--CB-[CG] |==|  0.69784
USER: genes 15 Torsion [CA]-CB--CG-[CD1] |==|  0.64441
ROOT
ATOM      1  CA  HIS E   2      14.500 -10.130   1.726  1.00 14.20 LIG 0.18  C 
ENDROOT
BRANCH 1 2
ATOM      2  C   HIS E   2      13.980 -10.595   3.083  1.00 15.34 LIG 0.24  C 
ATOM      3 O    HIS E   2      14.657 -10.470   4.108  1.00 13.21 LIG-0.27  OA
ATOM      4  N   THR E   3      12.775 -11.163   3.070  1.00 14.85 LIG-0.34  N 
ATOM      5 H    THR E   3      12.271 -11.215   2.375  1.00 14.85 LIG 0.16  HD
BRANCH 4 6
ATOM      6  CA  THR E   3      12.213 -11.756   4.278  1.00 13.22 LIG 0.20  C 
BRANCH 6 7
ATOM      7  C   THR E   3      12.162 -13.274   4.158  1.00 13.63 LIG 0.24  C 
ATOM      8  N   ALA E   4      11.506 -13.760   3.106  1.00  8.98 LIG-0.35  N 
ATOM      9 H    ALA E   4      11.119 -13.271   2.513  1.00  8.98 LIG 0.16  HD
ATOM     10 O    THR E   3      12.699 -13.995   5.003  1.00 14.15 LIG-0.27  OA
BRANCH 8 11
ATOM     11  CA  ALA E   4      11.394 -15.198   2.873  1.00 15.48 LIG 0.18  C 
ATOM     12  CB  ALA E   4      12.756 -15.787   2.550  1.00 13.80 LIG 0.04  C 
BRANCH 11 13
ATOM     13  C   ALA E   4      10.767 -15.935   4.060  1.00 23.80 LIG 0.28  C 
ATOM     14 O    ALA E   4      11.069 -17.106   4.299  1.00 30.75 LIG-0.27  OA
ATOM     15  N   NH2 E 101       9.906 -15.250   4.807  1.00 22.73 LIG-0.11  N 
ENDBRANCH 11 13
ENDBRANCH 8 11
ENDBRANCH 6 7
BRANCH 6 16
ATOM     16  CB  THR E   3      10.807 -11.213   4.532  1.00 20.99 LIG 0.15  C 
ATOM     17  CG2 THR E   3      10.656 -10.789   5.993  1.00 14.08 LIG 0.04  C 
BRANCH 16 18
ATOM     18 OG1  THR E   3      10.576 -10.086   3.683  1.00 27.33 LIG-0.39  OA
ATOM     19 HG1  THR E   3      10.720 -10.303   2.884  1.00 27.33 LIG 0.21  HD
ENDBRANCH 16 18
ENDBRANCH 6 16
ENDBRANCH 4 6
ENDBRANCH 1 2
BRANCH 1 20
ATOM     20  CB  HIS E   2      15.440 -11.202   1.160  1.00 18.36 LIG 0.10  C 
BRANCH 20 21
ATOM     21  CG  HIS E   2      14.764 -12.213   0.286  1.00 23.43 LIG 0.06  A 
ATOM     22  CD2 HIS E   2      15.220 -12.924  -0.772  1.00 23.79 LIG 0.14  A 
ATOM     23 NE2  HIS E   2      14.175 -13.694  -1.220  1.00 23.75 LIG-0.25  NA
ATOM     24  CE1 HIS E   2      13.116 -13.463  -0.466  1.00 26.05 LIG 0.23  A 
ATOM     25 ND1  HIS E   2      13.442 -12.568   0.450  1.00 21.22 LIG-0.24  NA
ENDBRANCH 20 21
ENDBRANCH 1 20
BRANCH 1 26
ATOM     26  N   HIS E   2      15.161  -8.836   1.868  1.00 15.97 LIG-0.35  N 
ATOM     27 H    HIS E   2      15.239  -8.571   2.683  1.00 15.97 LIG 0.16  HD
ATOM     28  C   TRP E   1      15.601  -8.138   0.818  1.00 12.03 LIG 0.24  C 
ATOM     29 O    TRP E   1      15.522  -8.549  -0.345  1.00 13.67 LIG-0.27  OA
BRANCH 28 30
ATOM     30  CA  TRP E   1      16.186  -6.762   1.115  1.00  9.26 LIG 0.18  C 
BRANCH 30 31
ATOM     31  N   TRP E   1      17.540  -6.572   0.589  1.00 13.05 LIG-0.35  N 
ATOM     32 H    TRP E   1      17.727  -7.093  -0.069  1.00 13.05 LIG 0.16  HD
ATOM     33  C   ACE E   0      18.403  -5.682   1.076  1.00 12.60 LIG 0.21  C 
ATOM     34  CH3 ACE E   0      19.753  -5.632   0.392  1.00  6.27 LIG 0.12  C 
ATOM     35 O    ACE E   0      18.118  -4.947   2.021  1.00 15.02 LIG-0.27  OA
ENDBRANCH 30 31
BRANCH 30 36
ATOM     36  CB  TRP E   1      15.260  -5.690   0.552  1.00 10.27 LIG 0.07  C 
BRANCH 36 37
ATOM     37  CG  TRP E   1      15.812  -4.983  -0.652  1.00  6.62 LIG-0.03  A 
ATOM     38  CD1 TRP E   1      15.928  -3.633  -0.838  1.00  7.94 LIG 0.10  A 
ATOM     39  NE1 TRP E   1      16.487  -3.369  -2.075  1.00 10.26 LIG-0.36  N 
ATOM     40  CE2 TRP E   1      16.732  -4.560  -2.708  1.00  6.86 LIG 0.04  A 
ATOM     41 HE1  TRP E   1      16.653  -2.588  -2.394  1.00 10.26 LIG 0.17  HD
ATOM     42  CZ2 TRP E   1      17.281  -4.815  -3.965  1.00  8.31 LIG 0.03  A 
ATOM     43  CD2 TRP E   1      16.318  -5.597  -1.838  1.00  9.88 LIG-0.00  A 
ATOM     44  CH2 TRP E   1      17.423  -6.128  -4.336  1.00 13.27 LIG 0.00  A 
ATOM     45  CZ3 TRP E   1      17.022  -7.177  -3.499  1.00 13.61 LIG 0.00  A 
ATOM     46  CE3 TRP E   1      16.472  -6.925  -2.248  1.00 14.26 LIG 0.01  A 
ENDBRANCH 36 37
ENDBRANCH 30 36
ENDBRANCH 28 30
ENDBRANCH 1 26
TORSDOF 14
ENDMDL
MODEL 44
USER: ADFR SOLUTION from run 67
USER: SCORE 13.452237 LL:  -2.993 LR: -10.820 RR:   0.000 FEB:  -6.644
USER: RMSD 6.310632
USER: SEED 66
USER: STATUS no improvement in best in 29 clusters for 5 generations
USER: GENES 16
USER: genes 0 Translation |==|  0.39375 0.32522 0.34344
USER: genes 1 Rotation |==|  0.69633 0.91493 0.34594 0.62471
USER: genes 2 Torsion [N]-CA--C-[N] |==|  0.39266
USER: genes 3 Torsion [C]-N--CA-[C] |==|  0.82222
USER: genes 4 Torsion [N]-CA--C-[N] |==|  0.94430
USER: genes 5 Torsion [C]-N--CA-[C] |==|  0.84009
USER: genes 6 Torsion [N]-CA--C-[N] |==|  0.88351
USER: genes 7 Torsion [N]-CA--CB-[CG2] |==|  0.56149
USER: genes 8 Torsion [CA]-CB--OG1-[HG1] |==|  0.11701
USER: genes 9 Torsion [C]-CA--CB-[CG] |==|  0.38152
USER: genes 10 Torsion [CA]-CB--CG-[ND1] |==|  0.06041
USER: genes 11 Torsion [C]-CA--N-[C] |==|  0.85555
USER: genes 12 Torsion [N]-C--CA-[N] |==|  0.07061
USER: genes 13 Torsion [C]-CA--N-[C] |==|  0.66459
USER: genes 14 Torsion [C]-CA--CB-[CG] |==|  0.62710
USER: genes 15 Torsion [CA]-CB--CG-[CD1] |==|  0.82296
ROOT
ATOM      1  CA  HIS E   2      13.084 -12.235  -0.193  1.00 14.20 LIG 0.18  C 
ENDROOT
BRANCH 1 2
ATOM      2  C   HIS E   2      13.348 -13.095   1.040  1.00 15.34 LIG 0.24  C 
ATOM      3 O    HIS E   2      14.482 -13.500   1.311  1.00 13.21 LIG-0.27  OA
ATOM      4  N   THR E   3      12.273 -13.393   1.770  1.00 14.85 LIG-0.34  N 
ATOM      5 H    THR E   3      11.486 -13.080   1.624  1.00 14.85 LIG 0.16  HD
BRANCH 4 6
ATOM      6  CA  THR E   3      12.368 -14.302   2.907  1.00 13.22 LIG 0.20  C 
BRANCH 6 7
ATOM      7  C   THR E   3      12.764 -15.699   2.445  1.00 13.63 LIG 0.24  C 
ATOM      8  N   ALA E   4      12.554 -15.975   1.160  1.00  8.98 LIG-0.35  N 
ATOM      9 H    ALA E   4      12.212 -15.421   0.598  1.00  8.98 LIG 0.16  HD
ATOM     10 O    THR E   3      13.244 -16.516   3.236  1.00 14.15 LIG-0.27  OA
BRANCH 8 11
ATOM     11  CA  ALA E   4      12.899 -17.277   0.592  1.00 15.48 LIG 0.18  C 
ATOM     12  CB  ALA E   4      12.531 -17.322  -0.882  1.00 13.80 LIG 0.04  C 
BRANCH 11 13
ATOM     13  C   ALA E   4      14.380 -17.622   0.777  1.00 23.80 LIG 0.28  C 
ATOM     14 O    ALA E   4      14.721 -18.764   1.092  1.00 30.75 LIG-0.27  OA
ATOM     15  N   NH2 E 101      15.256 -16.642   0.572  1.00 22.73 LIG-0.11  N 
ENDBRANCH 11 13
ENDBRANCH 8 11
ENDBRANCH 6 7
BRANCH 6 16
ATOM     16  CB  THR E   3      11.035 -14.365   3.651  1.00 20.99 LIG 0.15  C 
ATOM     17  CG2 THR E   3      11.248 -14.839   5.088  1.00 14.08 LIG 0.04  C 
BRANCH 16 18
ATOM     18 OG1  THR E   3      10.439 -13.065   3.661  1.00 27.33 LIG-0.39  OA
ATOM     19 HG1  THR E   3      10.530 -12.709   2.906  1.00 27.33 LIG 0.21  HD
ENDBRANCH 16 18
ENDBRANCH 6 16
ENDBRANCH 4 6
ENDBRANCH 1 2
BRANCH 1 20
ATOM     20  CB  HIS E   2      12.929 -13.153  -1.413  1.00 18.36 LIG 0.10  C 
BRANCH 20 21
ATOM     21  CG  HIS E   2      11.808 -12.771  -2.329  1.00 23.43 LIG 0.06  A 
ATOM     22  CD2 HIS E   2      11.135 -13.487  -3.261  1.00 23.79 LIG 0.14  A 
ATOM     23 NE2  HIS E   2      10.213 -12.642  -3.830  1.00 23.75 LIG-0.25  NA
ATOM     24  CE1 HIS E   2      10.319 -11.451  -3.270  1.00 26.05 LIG 0.23  A 
ATOM     25 ND1  HIS E   2      11.278 -11.499  -2.362  1.00 21.22 LIG-0.24  NA
ENDBRANCH 20 21
ENDBRANCH 1 20
BRANCH 1 26
ATOM     26  N   HIS E   2      14.167 -11.271  -0.362  1.00 15.97 LIG-0.35  N 
ATOM     27 H    HIS E   2      14.518 -11.272  -1.147  1.00 15.97 LIG 0.16  HD
ATOM     28  C   TRP E   1      14.567 -10.465   0.625  1.00 12.03 LIG 0.24  C 
ATOM     29 O    TRP E   1      14.027 -10.442   1.737  1.00 13.67 LIG-0.27  OA
BRANCH 28 30
ATOM     30  CA  TRP E   1      15.770  -9.577   0.330  1.00  9.26 LIG 0.18  C 
BRANCH 30 31
ATOM     31  N   TRP E   1      15.953  -9.287  -1.094  1.00 13.05 LIG-0.35  N 
ATOM     32 H    TRP E   1      15.279  -8.891  -1.452  1.00 13.05 LIG 0.16  HD
ATOM     33  C   ACE E   0      17.054  -9.604  -1.776  1.00 12.60 LIG 0.21  C 
ATOM     34  CH3 ACE E   0      17.054  -9.216  -3.240  1.00  6.27 LIG 0.12  C 
ATOM     35 O    ACE E   0      18.007 -10.174  -1.247  1.00 15.02 LIG-0.27  OA
ENDBRANCH 30 31
BRANCH 30 36
ATOM     36  CB  TRP E   1      15.632  -8.272   1.107  1.00 10.27 LIG 0.07  C 
BRANCH 36 37
ATOM     37  CG  TRP E   1      15.927  -7.046   0.291  1.00  6.62 LIG-0.03  A 
ATOM     38  CD1 TRP E   1      17.118  -6.702  -0.285  1.00  7.94 LIG 0.10  A 
ATOM     39  NE1 TRP E   1      16.992  -5.500  -0.957  1.00 10.26 LIG-0.36  N 
ATOM     40  CE2 TRP E   1      15.705  -5.050  -0.812  1.00  6.86 LIG 0.04  A 
ATOM     41 HE1  TRP E   1      17.616  -5.101  -1.394  1.00 10.26 LIG 0.17  HD
ATOM     42  CZ2 TRP E   1      15.095  -3.893  -1.300  1.00  8.31 LIG 0.03  A 
ATOM     43  CD2 TRP E   1      15.007  -6.001  -0.030  1.00  9.88 LIG-0.00  A 
ATOM     44  CH2 TRP E   1      13.769  -3.707  -1.003  1.00 13.27 LIG 0.00  A 
ATOM     45  CZ3 TRP E   1      13.051  -4.629  -0.230  1.00 13.61 LIG 0.00  A 
ATOM     46  CE3 TRP E   1      13.657  -5.780   0.258  1.00 14.26 LIG 0.01  A 
ENDBRANCH 36 37
ENDBRANCH 30 36
ENDBRANCH 28 30
ENDBRANCH 1 26
TORSDOF 14
ENDMDL
MODEL 45
USER: ADFR SOLUTION from run 154
USER: SCORE 13.801465 LL:  -3.988 LR: -10.790 RR:   0.000 FEB:  -6.614
USER: RMSD 4.937735
USER: SEED 153
USER: STATUS no improvement in best in 8 clusters for 5 generations
USER: GENES 16
USER: genes 0 Translation |==|  0.61817 0.57200 0.63899
USER: genes 1 Rotation |==|  0.41210 0.24623 0.66525 0.88803
USER: genes 2 Torsion [N]-CA--C-[N] |==|  0.91030
USER: genes 3 Torsion [C]-N--CA-[C] |==|  0.66329
USER: genes 4 Torsion [N]-CA--C-[N] |==|  0.69887
USER: genes 5 Torsion [C]-N--CA-[C] |==|  0.68992
USER: genes 6 Torsion [N]-CA--C-[N] |==|  0.99820
USER: genes 7 Torsion [N]-CA--CB-[CG2] |==|  0.69814
USER: genes 8 Torsion [CA]-CB--OG1-[HG1] |==|  0.93153
USER: genes 9 Torsion [C]-CA--CB-[CG] |==|  0.03741
USER: genes 10 Torsion [CA]-CB--CG-[ND1] |==|  0.77125
USER: genes 11 Torsion [C]-CA--N-[C] |==|  0.82449
USER: genes 12 Torsion [N]-C--CA-[N] |==|  0.41039
USER: genes 13 Torsion [C]-CA--N-[C] |==|  0.83641
USER: genes 14 Torsion [C]-CA--CB-[CG] |==|  0.46024
USER: genes 15 Torsion [CA]-CB--CG-[CD1] |==|  0.19610
ROOT
ATOM      1  CA  HIS E   2      17.460  -7.053   4.906  1.00 14.20 LIG 0.18  C 
ENDROOT
BRANCH 1 2
ATOM      2  C   HIS E   2      17.468  -8.437   4.263  1.00 15.34 LIG 0.24  C 
ATOM      3 O    HIS E   2      18.137  -9.361   4.735  1.00 13.21 LIG-0.27  OA
ATOM      4  N   THR E   3      16.734  -8.559   3.158  1.00 14.85 LIG-0.34  N 
ATOM      5 H    THR E   3      16.225  -7.942   2.843  1.00 14.85 LIG 0.16  HD
BRANCH 4 6
ATOM      6  CA  THR E   3      16.747  -9.794   2.382  1.00 13.22 LIG 0.20  C 
BRANCH 6 7
ATOM      7  C   THR E   3      17.202  -9.525   0.953  1.00 13.63 LIG 0.24  C 
ATOM      8  N   ALA E   4      16.263  -9.606   0.012  1.00  8.98 LIG-0.35  N 
ATOM      9 H    ALA E   4      15.440  -9.801   0.169  1.00  8.98 LIG 0.16  HD
ATOM     10 O    THR E   3      18.380  -9.258   0.702  1.00 14.15 LIG-0.27  OA
BRANCH 8 11
ATOM     11  CA  ALA E   4      16.570  -9.362  -1.396  1.00 15.48 LIG 0.18  C 
ATOM     12  CB  ALA E   4      16.141 -10.550  -2.241  1.00 13.80 LIG 0.04  C 
BRANCH 11 13
ATOM     13  C   ALA E   4      15.922  -8.078  -1.922  1.00 23.80 LIG 0.28  C 
ATOM     14 O    ALA E   4      16.087  -7.729  -3.092  1.00 30.75 LIG-0.27  OA
ATOM     15  N   NH2 E 101      15.180  -7.384  -1.064  1.00 22.73 LIG-0.11  N 
ENDBRANCH 11 13
ENDBRANCH 8 11
ENDBRANCH 6 7
BRANCH 6 16
ATOM     16  CB  THR E   3      15.357 -10.429   2.369  1.00 20.99 LIG 0.15  C 
ATOM     17  CG2 THR E   3      15.341 -11.695   3.226  1.00 14.08 LIG 0.04  C 
BRANCH 16 18
ATOM     18 OG1  THR E   3      14.406  -9.493   2.883  1.00 27.33 LIG-0.39  OA
ATOM     19 HG1  THR E   3      14.796  -8.945   3.385  1.00 27.33 LIG 0.21  HD
ENDBRANCH 16 18
ENDBRANCH 6 16
ENDBRANCH 4 6
ENDBRANCH 1 2
BRANCH 1 20
ATOM     20  CB  HIS E   2      16.323  -6.990   5.935  1.00 18.36 LIG 0.10  C 
BRANCH 20 21
ATOM     21  CG  HIS E   2      15.738  -8.322   6.285  1.00 23.43 LIG 0.06  A 
ATOM     22  CD2 HIS E   2      15.992  -9.164   7.316  1.00 23.79 LIG 0.14  A 
ATOM     23 NE2  HIS E   2      15.185 -10.262   7.146  1.00 23.75 LIG-0.25  NA
ATOM     24  CE1 HIS E   2      14.464 -10.102   6.052  1.00 26.05 LIG 0.23  A 
ATOM     25 ND1  HIS E   2      14.781  -8.939   5.509  1.00 21.22 LIG-0.24  NA
ENDBRANCH 20 21
ENDBRANCH 1 20
BRANCH 1 26
ATOM     26  N   HIS E   2      17.326  -6.031   3.872  1.00 15.97 LIG-0.35  N 
ATOM     27 H    HIS E   2      16.606  -5.565   3.932  1.00 15.97 LIG 0.16  HD
ATOM     28  C   TRP E   1      18.249  -5.848   2.924  1.00 12.03 LIG 0.24  C 
ATOM     29 O    TRP E   1      19.300  -6.495   2.873  1.00 13.67 LIG-0.27  OA
BRANCH 28 30
ATOM     30  CA  TRP E   1      17.928  -4.806   1.858  1.00  9.26 LIG 0.18  C 
BRANCH 30 31
ATOM     31  N   TRP E   1      19.108  -4.110   1.341  1.00 13.05 LIG-0.35  N 
ATOM     32 H    TRP E   1      19.214  -4.199   0.493  1.00 13.05 LIG 0.16  HD
ATOM     33  C   ACE E   0      19.942  -3.405   2.106  1.00 12.60 LIG 0.21  C 
ATOM     34  CH3 ACE E   0      21.103  -2.753   1.383  1.00  6.27 LIG 0.12  C 
ATOM     35 O    ACE E   0      19.776  -3.292   3.319  1.00 15.02 LIG-0.27  OA
ENDBRANCH 30 31
BRANCH 30 36
ATOM     36  CB  TRP E   1      17.183  -5.478   0.709  1.00 10.27 LIG 0.07  C 
BRANCH 36 37
ATOM     37  CG  TRP E   1      16.520  -4.512  -0.231  1.00  6.62 LIG-0.03  A 
ATOM     38  CD1 TRP E   1      17.131  -3.674  -1.122  1.00  7.94 LIG 0.10  A 
ATOM     39  NE1 TRP E   1      16.183  -2.940  -1.811  1.00 10.26 LIG-0.36  N 
ATOM     40  CE2 TRP E   1      14.939  -3.297  -1.359  1.00  6.86 LIG 0.04  A 
ATOM     41 HE1  TRP E   1      16.346  -2.356  -2.422  1.00 10.26 LIG 0.17  HD
ATOM     42  CZ2 TRP E   1      13.676  -2.839  -1.740  1.00  8.31 LIG 0.03  A 
ATOM     43  CD2 TRP E   1      15.116  -4.286  -0.362  1.00  9.88 LIG-0.00  A 
ATOM     44  CH2 TRP E   1      12.589  -3.396  -1.115  1.00 13.27 LIG 0.00  A 
ATOM     45  CZ3 TRP E   1      12.732  -4.376  -0.124  1.00 13.61 LIG 0.00  A 
ATOM     46  CE3 TRP E   1      13.987  -4.831   0.258  1.00 14.26 LIG 0.01  A 
ENDBRANCH 36 37
ENDBRANCH 30 36
ENDBRANCH 28 30
ENDBRANCH 1 26
TORSDOF 14
ENDMDL
MODEL 46
USER: ADFR SOLUTION from run 87
USER: SCORE 12.790212 LL:  -3.297 LR: -10.791 RR:   0.000 FEB:  -6.615
USER: RMSD 4.784292
USER: SEED 86
USER: STATUS no improvement in best in 9 clusters for 5 generations
USER: GENES 16
USER: genes 0 Translation |==|  0.51312 0.44849 0.48719
USER: genes 1 Rotation |==|  0.61402 0.87535 0.22362 0.64044
USER: genes 2 Torsion [N]-CA--C-[N] |==|  0.32030
USER: genes 3 Torsion [C]-N--CA-[C] |==|  0.67458
USER: genes 4 Torsion [N]-CA--C-[N] |==|  0.09861
USER: genes 5 Torsion [C]-N--CA-[C] |==|  0.15556
USER: genes 6 Torsion [N]-CA--C-[N] |==|  0.18808
USER: genes 7 Torsion [N]-CA--CB-[CG2] |==|  0.56132
USER: genes 8 Torsion [CA]-CB--OG1-[HG1] |==|  0.17572
USER: genes 9 Torsion [C]-CA--CB-[CG] |==|  0.20978
USER: genes 10 Torsion [CA]-CB--CG-[ND1] |==|  0.00886
USER: genes 11 Torsion [C]-CA--N-[C] |==|  0.64403
USER: genes 12 Torsion [N]-C--CA-[N] |==|  0.35114
USER: genes 13 Torsion [C]-CA--N-[C] |==|  0.59889
USER: genes 14 Torsion [C]-CA--CB-[CG] |==|  0.71002
USER: genes 15 Torsion [CA]-CB--CG-[CD1] |==|  0.71607
ROOT
ATOM      1  CA  HIS E   2      15.412  -9.647   2.287  1.00 14.20 LIG 0.18  C 
ENDROOT
BRANCH 1 2
ATOM      2  C   HIS E   2      16.005  -9.680   3.692  1.00 15.34 LIG 0.24  C 
ATOM      3 O    HIS E   2      17.067 -10.265   3.928  1.00 13.21 LIG-0.27  OA
ATOM      4  N   THR E   3      15.287  -9.066   4.632  1.00 14.85 LIG-0.34  N 
ATOM      5 H    THR E   3      14.572  -8.613   4.477  1.00 14.85 LIG 0.16  HD
BRANCH 4 6
ATOM      6  CA  THR E   3      15.682  -9.124   6.034  1.00 13.22 LIG 0.20  C 
BRANCH 6 7
ATOM      7  C   THR E   3      14.616  -9.829   6.864  1.00 13.63 LIG 0.24  C 
ATOM      8  N   ALA E   4      13.980 -10.837   6.270  1.00  8.98 LIG-0.35  N 
ATOM      9 H    ALA E   4      14.136 -11.097   5.465  1.00  8.98 LIG 0.16  HD
ATOM     10 O    THR E   3      14.364  -9.465   8.016  1.00 14.15 LIG-0.27  OA
BRANCH 8 11
ATOM     11  CA  ALA E   4      12.942 -11.600   6.961  1.00 15.48 LIG 0.18  C 
ATOM     12  CB  ALA E   4      13.549 -12.399   8.101  1.00 13.80 LIG 0.04  C 
BRANCH 11 13
ATOM     13  C   ALA E   4      11.812 -10.708   7.484  1.00 23.80 LIG 0.28  C 
ATOM     14 O    ALA E   4      11.652 -10.547   8.695  1.00 30.75 LIG-0.27  OA
ATOM     15  N   NH2 E 101      11.039 -10.123   6.574  1.00 22.73 LIG-0.11  N 
ENDBRANCH 11 13
ENDBRANCH 8 11
ENDBRANCH 6 7
BRANCH 6 16
ATOM     16  CB  THR E   3      15.912  -7.715   6.581  1.00 20.99 LIG 0.15  C 
ATOM     17  CG2 THR E   3      16.818  -7.762   7.811  1.00 14.08 LIG 0.04  C 
BRANCH 16 18
ATOM     18 OG1  THR E   3      16.522  -6.910   5.569  1.00 27.33 LIG-0.39  OA
ATOM     19 HG1  THR E   3      15.998  -6.836   4.917  1.00 27.33 LIG 0.21  HD
ENDBRANCH 16 18
ENDBRANCH 6 16
ENDBRANCH 4 6
ENDBRANCH 1 2
BRANCH 1 20
ATOM     20  CB  HIS E   2      15.210 -11.088   1.799  1.00 18.36 LIG 0.10  C 
BRANCH 20 21
ATOM     21  CG  HIS E   2      14.036 -11.785   2.414  1.00 23.43 LIG 0.06  A 
ATOM     22  CD2 HIS E   2      13.569 -13.047   2.261  1.00 23.79 LIG 0.14  A 
ATOM     23 NE2  HIS E   2      12.447 -13.158   3.045  1.00 23.75 LIG-0.25  NA
ATOM     24  CE1 HIS E   2      12.232 -12.007   3.655  1.00 26.05 LIG 0.23  A 
ATOM     25 ND1  HIS E   2      13.176 -11.157   3.288  1.00 21.22 LIG-0.24  NA
ENDBRANCH 20 21
ENDBRANCH 1 20
BRANCH 1 26
ATOM     26  N   HIS E   2      16.284  -8.882   1.401  1.00 15.97 LIG-0.35  N 
ATOM     27 H    HIS E   2      17.106  -9.134   1.416  1.00 15.97 LIG 0.16  HD
ATOM     28  C   TRP E   1      15.832  -7.881   0.642  1.00 12.03 LIG 0.24  C 
ATOM     29 O    TRP E   1      14.641  -7.554   0.597  1.00 13.67 LIG-0.27  OA
BRANCH 28 30
ATOM     30  CA  TRP E   1      16.877  -7.113  -0.161  1.00  9.26 LIG 0.18  C 
BRANCH 30 31
ATOM     31  N   TRP E   1      16.577  -7.034  -1.592  1.00 13.05 LIG-0.35  N 
ATOM     32 H    TRP E   1      15.738  -6.963  -1.763  1.00 13.05 LIG 0.16  HD
ATOM     33  C   ACE E   0      17.510  -7.068  -2.544  1.00 12.60 LIG 0.21  C 
ATOM     34  CH3 ACE E   0      17.000  -6.967  -3.967  1.00  6.27 LIG 0.12  C 
ATOM     35 O    ACE E   0      18.707  -7.172  -2.280  1.00 15.02 LIG-0.27  OA
ENDBRANCH 30 31
BRANCH 30 36
ATOM     36  CB  TRP E   1      17.017  -5.708   0.414  1.00 10.27 LIG 0.07  C 
BRANCH 36 37
ATOM     37  CG  TRP E   1      16.359  -4.644  -0.416  1.00  6.62 LIG-0.03  A 
ATOM     38  CD1 TRP E   1      16.967  -3.765  -1.269  1.00  7.94 LIG 0.10  A 
ATOM     39  NE1 TRP E   1      16.023  -2.939  -1.853  1.00 10.26 LIG-0.36  N 
ATOM     40  CE2 TRP E   1      14.786  -3.277  -1.370  1.00  6.86 LIG 0.04  A 
ATOM     41 HE1  TRP E   1      16.186  -2.317  -2.424  1.00 10.26 LIG 0.17  HD
ATOM     42  CZ2 TRP E   1      13.530  -2.737  -1.653  1.00  8.31 LIG 0.03  A 
ATOM     43  CD2 TRP E   1      14.962  -4.349  -0.462  1.00  9.88 LIG-0.00  A 
ATOM     44  CH2 TRP E   1      12.448  -3.295  -1.021  1.00 13.27 LIG 0.00  A 
ATOM     45  CZ3 TRP E   1      12.589  -4.355  -0.115  1.00 13.61 LIG 0.00  A 
ATOM     46  CE3 TRP E   1      13.838  -4.892   0.169  1.00 14.26 LIG 0.01  A 
ENDBRANCH 36 37
ENDBRANCH 30 36
ENDBRANCH 28 30
ENDBRANCH 1 26
TORSDOF 14
ENDMDL
MODEL 47
USER: ADFR SOLUTION from run 45
USER: SCORE 12.552329 LL:  -2.993 LR: -10.783 RR:   0.000 FEB:  -6.607
USER: RMSD 9.424093
USER: SEED 44
USER: STATUS no improvement in best in 23 clusters for 5 generations
USER: GENES 16
USER: genes 0 Translation |==|  0.53829 0.56641 0.36110
USER: genes 1 Rotation |==|  0.82486 0.25554 0.21131 0.53688
USER: genes 2 Torsion [N]-CA--C-[N] |==|  0.04564
USER: genes 3 Torsion [C]-N--CA-[C] |==|  0.84782
USER: genes 4 Torsion [N]-CA--C-[N] |==|  0.45856
USER: genes 5 Torsion [C]-N--CA-[C] |==|  0.84504
USER: genes 6 Torsion [N]-CA--C-[N] |==|  0.87945
USER: genes 7 Torsion [N]-CA--CB-[CG2] |==|  0.57488
USER: genes 8 Torsion [CA]-CB--OG1-[HG1] |==|  0.00628
USER: genes 9 Torsion [C]-CA--CB-[CG] |==|  0.91196
USER: genes 10 Torsion [CA]-CB--CG-[ND1] |==|  0.28064
USER: genes 11 Torsion [C]-CA--N-[C] |==|  0.63380
USER: genes 12 Torsion [N]-C--CA-[N] |==|  0.93432
USER: genes 13 Torsion [C]-CA--N-[C] |==|  0.67077
USER: genes 14 Torsion [C]-CA--CB-[CG] |==|  0.47218
USER: genes 15 Torsion [CA]-CB--CG-[CD1] |==|  0.83033
ROOT
ATOM      1  CA  HIS E   2      15.903  -7.170   0.112  1.00 14.20 LIG 0.18  C 
ENDROOT
BRANCH 1 2
ATOM      2  C   HIS E   2      16.596  -5.951   0.712  1.00 15.34 LIG 0.24  C 
ATOM      3 O    HIS E   2      16.824  -4.943   0.037  1.00 13.21 LIG-0.27  OA
ATOM      4  N   THR E   3      16.956  -6.069   1.990  1.00 14.85 LIG-0.34  N 
ATOM      5 H    THR E   3      16.763  -6.742   2.488  1.00 14.85 LIG 0.16  HD
BRANCH 4 6
ATOM      6  CA  THR E   3      17.729  -5.023   2.650  1.00 13.22 LIG 0.20  C 
BRANCH 6 7
ATOM      7  C   THR E   3      19.004  -4.725   1.871  1.00 13.63 LIG 0.24  C 
ATOM      8  N   ALA E   4      19.637  -3.597   2.188  1.00  8.98 LIG-0.35  N 
ATOM      9 H    ALA E   4      19.365  -3.045   2.789  1.00  8.98 LIG 0.16  HD
ATOM     10 O    THR E   3      19.406  -5.494   0.994  1.00 14.15 LIG-0.27  OA
BRANCH 8 11
ATOM     11  CA  ALA E   4      20.875  -3.201   1.519  1.00 15.48 LIG 0.18  C 
ATOM     12  CB  ALA E   4      21.385  -1.889   2.090  1.00 13.80 LIG 0.04  C 
BRANCH 11 13
ATOM     13  C   ALA E   4      21.960  -4.277   1.615  1.00 23.80 LIG 0.28  C 
ATOM     14 O    ALA E   4      22.651  -4.558   0.633  1.00 30.75 LIG-0.27  OA
ATOM     15  N   NH2 E 101      22.118  -4.869   2.795  1.00 22.73 LIG-0.11  N 
ENDBRANCH 11 13
ENDBRANCH 8 11
ENDBRANCH 6 7
BRANCH 6 16
ATOM     16  CB  THR E   3      18.084  -5.443   4.076  1.00 20.99 LIG 0.15  C 
ATOM     17  CG2 THR E   3      18.270  -4.213   4.964  1.00 14.08 LIG 0.04  C 
BRANCH 16 18
ATOM     18 OG1  THR E   3      17.033  -6.257   4.603  1.00 27.33 LIG-0.39  OA
ATOM     19 HG1  THR E   3      16.443  -6.369   4.016  1.00 27.33 LIG 0.21  HD
ENDBRANCH 16 18
ENDBRANCH 6 16
ENDBRANCH 4 6
ENDBRANCH 1 2
BRANCH 1 20
ATOM     20  CB  HIS E   2      14.750  -6.696  -0.783  1.00 18.36 LIG 0.10  C 
BRANCH 20 21
ATOM     21  CG  HIS E   2      14.103  -5.425  -0.329  1.00 23.43 LIG 0.06  A 
ATOM     22  CD2 HIS E   2      13.177  -5.190   0.631  1.00 23.79 LIG 0.14  A 
ATOM     23 NE2  HIS E   2      12.918  -3.841   0.619  1.00 23.75 LIG-0.25  NA
ATOM     24  CE1 HIS E   2      13.656  -3.269  -0.314  1.00 26.05 LIG 0.23  A 
ATOM     25 ND1  HIS E   2      14.380  -4.204  -0.906  1.00 21.22 LIG-0.24  NA
ENDBRANCH 20 21
ENDBRANCH 1 20
BRANCH 1 26
ATOM     26  N   HIS E   2      15.443  -8.052   1.181  1.00 15.97 LIG-0.35  N 
ATOM     27 H    HIS E   2      15.016  -7.648   1.808  1.00 15.97 LIG 0.16  HD
ATOM     28  C   TRP E   1      15.675  -9.367   1.172  1.00 12.03 LIG 0.24  C 
ATOM     29 O    TRP E   1      16.253  -9.943   0.244  1.00 13.67 LIG-0.27  OA
BRANCH 28 30
ATOM     30  CA  TRP E   1      15.217 -10.145   2.400  1.00  9.26 LIG 0.18  C 
BRANCH 30 31
ATOM     31  N   TRP E   1      15.097  -9.323   3.607  1.00 13.05 LIG-0.35  N 
ATOM     32 H    TRP E   1      14.519  -8.691   3.534  1.00 13.05 LIG 0.16  HD
ATOM     33  C   ACE E   0      15.812  -9.529   4.713  1.00 12.60 LIG 0.21  C 
ATOM     34  CH3 ACE E   0      15.540  -8.574   5.858  1.00  6.27 LIG 0.12  C 
ATOM     35 O    ACE E   0      16.637 -10.437   4.797  1.00 15.02 LIG-0.27  OA
ENDBRANCH 30 31
BRANCH 30 36
ATOM     36  CB  TRP E   1      13.880 -10.815   2.100  1.00 10.27 LIG 0.07  C 
BRANCH 36 37
ATOM     37  CG  TRP E   1      13.446 -11.799   3.148  1.00  6.62 LIG-0.03  A 
ATOM     38  CD1 TRP E   1      14.097 -12.937   3.535  1.00  7.94 LIG 0.10  A 
ATOM     39  NE1 TRP E   1      13.382 -13.579   4.530  1.00 10.26 LIG-0.36  N 
ATOM     40  CE2 TRP E   1      12.247 -12.857   4.789  1.00  6.86 LIG 0.04  A 
ATOM     41 HE1  TRP E   1      13.612 -14.311   4.920  1.00 10.26 LIG 0.17  HD
ATOM     42  CZ2 TRP E   1      11.215 -13.096   5.699  1.00  8.31 LIG 0.03  A 
ATOM     43  CD2 TRP E   1      12.256 -11.728   3.935  1.00  9.88 LIG-0.00  A 
ATOM     44  CH2 TRP E   1      10.196 -12.179   5.751  1.00 13.27 LIG 0.00  A 
ATOM     45  CZ3 TRP E   1      10.175 -11.053   4.917  1.00 13.61 LIG 0.00  A 
ATOM     46  CE3 TRP E   1      11.199 -10.815   4.010  1.00 14.26 LIG 0.01  A 
ENDBRANCH 36 37
ENDBRANCH 30 36
ENDBRANCH 28 30
ENDBRANCH 1 26
TORSDOF 14
ENDMDL
MODEL 48
USER: ADFR SOLUTION from run 43
USER: SCORE 12.696957 LL:  -3.240 LR: -10.767 RR:   0.000 FEB:  -6.591
USER: RMSD 4.483876
USER: SEED 42
USER: STATUS no improvement in best in 11 clusters for 5 generations
USER: GENES 16
USER: genes 0 Translation |==|  0.68242 0.63147 0.50918
USER: genes 1 Rotation |==|  0.27123 0.39758 0.72414 0.87005
USER: genes 2 Torsion [N]-CA--C-[N] |==|  0.84860
USER: genes 3 Torsion [C]-N--CA-[C] |==|  0.60216
USER: genes 4 Torsion [N]-CA--C-[N] |==|  0.46094
USER: genes 5 Torsion [C]-N--CA-[C] |==|  0.70982
USER: genes 6 Torsion [N]-CA--C-[N] |==|  0.09386
USER: genes 7 Torsion [N]-CA--CB-[CG2] |==|  0.66212
USER: genes 8 Torsion [CA]-CB--OG1-[HG1] |==|  0.07536
USER: genes 9 Torsion [C]-CA--CB-[CG] |==|  0.12043
USER: genes 10 Torsion [CA]-CB--CG-[ND1] |==|  0.61656
USER: genes 11 Torsion [C]-CA--N-[C] |==|  0.83264
USER: genes 12 Torsion [N]-C--CA-[N] |==|  0.52976
USER: genes 13 Torsion [C]-CA--N-[C] |==|  0.71912
USER: genes 14 Torsion [C]-CA--CB-[CG] |==|  0.29976
USER: genes 15 Torsion [CA]-CB--CG-[CD1] |==|  0.05158
ROOT
ATOM      1  CA  HIS E   2      18.713  -5.804   2.666  1.00 14.20 LIG 0.18  C 
ENDROOT
BRANCH 1 2
ATOM      2  C   HIS E   2      18.427  -7.187   3.243  1.00 15.34 LIG 0.24  C 
ATOM      3 O    HIS E   2      19.318  -7.864   3.765  1.00 13.21 LIG-0.27  OA
ATOM      4  N   THR E   3      17.170  -7.612   3.114  1.00 14.85 LIG-0.34  N 
ATOM      5 H    THR E   3      16.528  -7.137   2.797  1.00 14.85 LIG 0.16  HD
BRANCH 4 6
ATOM      6  CA  THR E   3      16.790  -8.962   3.516  1.00 13.22 LIG 0.20  C 
BRANCH 6 7
ATOM      7  C   THR E   3      15.750  -9.534   2.561  1.00 13.63 LIG 0.24  C 
ATOM      8  N   ALA E   4      15.536 -10.846   2.642  1.00  8.98 LIG-0.35  N 
ATOM      9 H    ALA E   4      15.948 -11.368   3.188  1.00  8.98 LIG 0.16  HD
ATOM     10 O    THR E   3      15.156  -8.807   1.760  1.00 14.15 LIG-0.27  OA
BRANCH 8 11
ATOM     11  CA  ALA E   4      14.557 -11.515   1.787  1.00 15.48 LIG 0.18  C 
ATOM     12  CB  ALA E   4      15.167 -12.759   1.164  1.00 13.80 LIG 0.04  C 
BRANCH 11 13
ATOM     13  C   ALA E   4      13.273 -11.875   2.539  1.00 23.80 LIG 0.28  C 
ATOM     14 O    ALA E   4      12.651 -12.902   2.259  1.00 30.75 LIG-0.27  OA
ATOM     15  N   NH2 E 101      12.882 -11.039   3.497  1.00 22.73 LIG-0.11  N 
ENDBRANCH 11 13
ENDBRANCH 8 11
ENDBRANCH 6 7
BRANCH 6 16
ATOM     16  CB  THR E   3      16.235  -8.956   4.940  1.00 20.99 LIG 0.15  C 
ATOM     17  CG2 THR E   3      17.057  -9.882   5.837  1.00 14.08 LIG 0.04  C 
BRANCH 16 18
ATOM     18 OG1  THR E   3      16.281  -7.624   5.459  1.00 27.33 LIG-0.39  OA
ATOM     19 HG1  THR E   3      16.239  -7.075   4.825  1.00 27.33 LIG 0.21  HD
ENDBRANCH 16 18
ENDBRANCH 6 16
ENDBRANCH 4 6
ENDBRANCH 1 2
BRANCH 1 20
ATOM     20  CB  HIS E   2      17.990  -4.752   3.518  1.00 18.36 LIG 0.10  C 
BRANCH 20 21
ATOM     21  CG  HIS E   2      18.098  -4.977   4.994  1.00 23.43 LIG 0.06  A 
ATOM     22  CD2 HIS E   2      19.141  -5.377   5.760  1.00 23.79 LIG 0.14  A 
ATOM     23 NE2  HIS E   2      18.688  -5.439   7.056  1.00 23.75 LIG-0.25  NA
ATOM     24  CE1 HIS E   2      17.414  -5.091   7.083  1.00 26.05 LIG 0.23  A 
ATOM     25 ND1  HIS E   2      17.031  -4.811   5.850  1.00 21.22 LIG-0.24  NA
ENDBRANCH 20 21
ENDBRANCH 1 20
BRANCH 1 26
ATOM     26  N   HIS E   2      18.302  -5.758   1.267  1.00 15.97 LIG-0.35  N 
ATOM     27 H    HIS E   2      17.698  -5.169   1.098  1.00 15.97 LIG 0.16  HD
ATOM     28  C   TRP E   1      18.824  -6.567   0.341  1.00 12.03 LIG 0.24  C 
ATOM     29 O    TRP E   1      19.721  -7.381   0.586  1.00 13.67 LIG-0.27  OA
BRANCH 28 30
ATOM     30  CA  TRP E   1      18.229  -6.468  -1.059  1.00  9.26 LIG 0.18  C 
BRANCH 30 31
ATOM     31  N   TRP E   1      18.663  -7.539  -1.960  1.00 13.05 LIG-0.35  N 
ATOM     32 H    TRP E   1      18.249  -8.281  -1.834  1.00 13.05 LIG 0.16  HD
ATOM     33  C   ACE E   0      19.609  -7.385  -2.886  1.00 12.60 LIG 0.21  C 
ATOM     34  CH3 ACE E   0      19.913  -8.610  -3.724  1.00  6.27 LIG 0.12  C 
ATOM     35 O    ACE E   0      20.193  -6.315  -3.050  1.00 15.02 LIG-0.27  OA
ENDBRANCH 30 31
BRANCH 30 36
ATOM     36  CB  TRP E   1      16.707  -6.466  -0.958  1.00 10.27 LIG 0.07  C 
BRANCH 36 37
ATOM     37  CG  TRP E   1      16.082  -5.133  -1.251  1.00  6.62 LIG-0.03  A 
ATOM     38  CD1 TRP E   1      16.651  -4.079  -1.911  1.00  7.94 LIG 0.10  A 
ATOM     39  NE1 TRP E   1      15.757  -3.025  -1.982  1.00 10.26 LIG-0.36  N 
ATOM     40  CE2 TRP E   1      14.595  -3.392  -1.355  1.00  6.86 LIG 0.04  A 
ATOM     41 HE1  TRP E   1      15.907  -2.266  -2.358  1.00 10.26 LIG 0.17  HD
ATOM     42  CZ2 TRP E   1      13.411  -2.679  -1.164  1.00  8.31 LIG 0.03  A 
ATOM     43  CD2 TRP E   1      14.767  -4.715  -0.882  1.00  9.88 LIG-0.00  A 
ATOM     44  CH2 TRP E   1      12.392  -3.315  -0.501  1.00 13.27 LIG 0.00  A 
ATOM     45  CZ3 TRP E   1      12.531  -4.624  -0.020  1.00 13.61 LIG 0.00  A 
ATOM     46  CE3 TRP E   1      13.710  -5.334  -0.206  1.00 14.26 LIG 0.01  A 
ENDBRANCH 36 37
ENDBRANCH 30 36
ENDBRANCH 28 30
ENDBRANCH 1 26
TORSDOF 14
ENDMDL
MODEL 49
USER: ADFR SOLUTION from run 43
USER: SCORE 13.774251 LL:  -3.688 LR: -10.731 RR:   0.000 FEB:  -6.555
USER: RMSD 9.489499
USER: SEED 42
USER: STATUS no improvement in best in 11 clusters for 5 generations
USER: GENES 16
USER: genes 0 Translation |==|  0.70972 0.70288 0.42252
USER: genes 1 Rotation |==|  0.56151 0.30559 0.95609 0.52001
USER: genes 2 Torsion [N]-CA--C-[N] |==|  0.36718
USER: genes 3 Torsion [C]-N--CA-[C] |==|  0.77075
USER: genes 4 Torsion [N]-CA--C-[N] |==|  0.84444
USER: genes 5 Torsion [C]-N--CA-[C] |==|  0.77190
USER: genes 6 Torsion [N]-CA--C-[N] |==|  0.45373
USER: genes 7 Torsion [N]-CA--CB-[CG2] |==|  0.52639
USER: genes 8 Torsion [CA]-CB--OG1-[HG1] |==|  0.96873
USER: genes 9 Torsion [C]-CA--CB-[CG] |==|  0.26603
USER: genes 10 Torsion [CA]-CB--CG-[ND1] |==|  0.89987
USER: genes 11 Torsion [C]-CA--N-[C] |==|  0.73457
USER: genes 12 Torsion [N]-C--CA-[N] |==|  0.01073
USER: genes 13 Torsion [C]-CA--N-[C] |==|  0.70390
USER: genes 14 Torsion [C]-CA--CB-[CG] |==|  0.87742
USER: genes 15 Torsion [CA]-CB--CG-[CD1] |==|  0.83618
ROOT
ATOM      1  CA  HIS E   2      19.246  -4.305   1.171  1.00 14.20 LIG 0.18  C 
ENDROOT
BRANCH 1 2
ATOM      2  C   HIS E   2      20.651  -3.713   1.114  1.00 15.34 LIG 0.24  C 
ATOM      3 O    HIS E   2      21.622  -4.393   0.769  1.00 13.21 LIG-0.27  OA
ATOM      4  N   THR E   3      20.750  -2.437   1.488  1.00 14.85 LIG-0.34  N 
ATOM      5 H    THR E   3      20.080  -1.936   1.684  1.00 14.85 LIG 0.16  HD
BRANCH 4 6
ATOM      6  CA  THR E   3      22.051  -1.786   1.591  1.00 13.22 LIG 0.20  C 
BRANCH 6 7
ATOM      7  C   THR E   3      22.707  -2.106   2.928  1.00 13.63 LIG 0.24  C 
ATOM      8  N   ALA E   4      22.001  -1.806   4.017  1.00  8.98 LIG-0.35  N 
ATOM      9 H    ALA E   4      21.220  -1.447   4.000  1.00  8.98 LIG 0.16  HD
ATOM     10 O    THR E   3      23.833  -2.608   2.978  1.00 14.15 LIG-0.27  OA
BRANCH 8 11
ATOM     11  CA  ALA E   4      22.516  -2.071   5.359  1.00 15.48 LIG 0.18  C 
ATOM     12  CB  ALA E   4      21.880  -1.125   6.363  1.00 13.80 LIG 0.04  C 
BRANCH 11 13
ATOM     13  C   ALA E   4      22.300  -3.524   5.791  1.00 23.80 LIG 0.28  C 
ATOM     14 O    ALA E   4      21.501  -4.244   5.189  1.00 30.75 LIG-0.27  OA
ATOM     15  N   NH2 E 101      23.016  -3.957   6.825  1.00 22.73 LIG-0.11  N 
ENDBRANCH 11 13
ENDBRANCH 8 11
ENDBRANCH 6 7
BRANCH 6 16
ATOM     16  CB  THR E   3      21.901  -0.272   1.441  1.00 20.99 LIG 0.15  C 
ATOM     17  CG2 THR E   3      23.274   0.389   1.313  1.00 14.08 LIG 0.04  C 
BRANCH 16 18
ATOM     18 OG1  THR E   3      21.125   0.011   0.274  1.00 27.33 LIG-0.39  OA
ATOM     19 HG1  THR E   3      21.035  -0.690  -0.180  1.00 27.33 LIG 0.21  HD
ENDBRANCH 16 18
ENDBRANCH 6 16
ENDBRANCH 4 6
ENDBRANCH 1 2
BRANCH 1 20
ATOM     20  CB  HIS E   2      19.144  -5.225   2.395  1.00 18.36 LIG 0.10  C 
BRANCH 20 21
ATOM     21  CG  HIS E   2      18.561  -4.570   3.609  1.00 23.43 LIG 0.06  A 
ATOM     22  CD2 HIS E   2      17.730  -5.046   4.566  1.00 23.79 LIG 0.14  A 
ATOM     23 NE2  HIS E   2      17.491  -4.015   5.442  1.00 23.75 LIG-0.25  NA
ATOM     24  CE1 HIS E   2      18.149  -2.945   5.036  1.00 26.05 LIG 0.23  A 
ATOM     25 ND1  HIS E   2      18.801  -3.251   3.927  1.00 21.22 LIG-0.24  NA
ENDBRANCH 20 21
ENDBRANCH 1 20
BRANCH 1 26
ATOM     26  N   HIS E   2      18.957  -5.009  -0.074  1.00 15.97 LIG-0.35  N 
ATOM     27 H    HIS E   2      19.246  -5.819  -0.093  1.00 15.97 LIG 0.16  HD
ATOM     28  C   TRP E   1      18.300  -4.435  -1.084  1.00 12.03 LIG 0.24  C 
ATOM     29 O    TRP E   1      17.851  -3.285  -1.029  1.00 13.67 LIG-0.27  OA
BRANCH 28 30
ATOM     30  CA  TRP E   1      18.154  -5.263  -2.356  1.00  9.26 LIG 0.18  C 
BRANCH 30 31
ATOM     31  N   TRP E   1      18.691  -6.620  -2.240  1.00 13.05 LIG-0.35  N 
ATOM     32 H    TRP E   1      18.203  -7.142  -1.763  1.00 13.05 LIG 0.16  HD
ATOM     33  C   ACE E   0      19.826  -7.016  -2.816  1.00 12.60 LIG 0.21  C 
ATOM     34  CH3 ACE E   0      20.211  -8.463  -2.583  1.00  6.27 LIG 0.12  C 
ATOM     35 O    ACE E   0      20.514  -6.254  -3.494  1.00 15.02 LIG-0.27  OA
ENDBRANCH 30 31
BRANCH 30 36
ATOM     36  CB  TRP E   1      16.682  -5.324  -2.749  1.00 10.27 LIG 0.07  C 
BRANCH 36 37
ATOM     37  CG  TRP E   1      15.757  -5.586  -1.595  1.00  6.62 LIG-0.03  A 
ATOM     38  CD1 TRP E   1      15.764  -6.667  -0.757  1.00  7.94 LIG 0.10  A 
ATOM     39  NE1 TRP E   1      14.757  -6.546   0.183  1.00 10.26 LIG-0.36  N 
ATOM     40  CE2 TRP E   1      14.080  -5.377  -0.047  1.00  6.86 LIG 0.04  A 
ATOM     41 HE1  TRP E   1      14.585  -7.110   0.809  1.00 10.26 LIG 0.17  HD
ATOM     42  CZ2 TRP E   1      12.992  -4.818   0.626  1.00  8.31 LIG 0.03  A 
ATOM     43  CD2 TRP E   1      14.685  -4.747  -1.162  1.00  9.88 LIG-0.00  A 
ATOM     44  CH2 TRP E   1      12.524  -3.610   0.174  1.00 13.27 LIG 0.00  A 
ATOM     45  CZ3 TRP E   1      13.100  -2.963  -0.927  1.00 13.61 LIG 0.00  A 
ATOM     46  CE3 TRP E   1      14.181  -3.518  -1.600  1.00 14.26 LIG 0.01  A 
ENDBRANCH 36 37
ENDBRANCH 30 36
ENDBRANCH 28 30
ENDBRANCH 1 26
TORSDOF 14
ENDMDL
MODEL 50
USER: ADFR SOLUTION from run 164
USER: SCORE 12.524473 LL:  -2.982 LR: -10.728 RR:   0.000 FEB:  -6.552
USER: RMSD 8.227782
USER: SEED 163
USER: STATUS no improvement in best in 10 clusters for 5 generations
USER: GENES 16
USER: genes 0 Translation |==|  0.41106 0.40557 0.58579
USER: genes 1 Rotation |==|  0.48717 0.23577 0.92210 0.54295
USER: genes 2 Torsion [N]-CA--C-[N] |==|  0.16667
USER: genes 3 Torsion [C]-N--CA-[C] |==|  0.78960
USER: genes 4 Torsion [N]-CA--C-[N] |==|  0.95787
USER: genes 5 Torsion [C]-N--CA-[C] |==|  0.15757
USER: genes 6 Torsion [N]-CA--C-[N] |==|  0.61043
USER: genes 7 Torsion [N]-CA--CB-[CG2] |==|  0.92292
USER: genes 8 Torsion [CA]-CB--OG1-[HG1] |==|  0.80976
USER: genes 9 Torsion [C]-CA--CB-[CG] |==|  0.47310
USER: genes 10 Torsion [CA]-CB--CG-[ND1] |==|  0.84606
USER: genes 11 Torsion [C]-CA--N-[C] |==|  0.12941
USER: genes 12 Torsion [N]-C--CA-[N] |==|  0.42430
USER: genes 13 Torsion [C]-CA--N-[C] |==|  0.68216
USER: genes 14 Torsion [C]-CA--CB-[CG] |==|  0.54646
USER: genes 15 Torsion [CA]-CB--CG-[CD1] |==|  0.25228
ROOT
ATOM      1  CA  HIS E   2      13.422 -10.548   3.988  1.00 14.20 LIG 0.18  C 
ENDROOT
BRANCH 1 2
ATOM      2  C   HIS E   2      14.883 -10.357   4.383  1.00 15.34 LIG 0.24  C 
ATOM      3 O    HIS E   2      15.419 -11.076   5.231  1.00 13.21 LIG-0.27  OA
ATOM      4  N   THR E   3      15.514  -9.353   3.774  1.00 14.85 LIG-0.34  N 
ATOM      5 H    THR E   3      15.171  -8.874   3.147  1.00 14.85 LIG 0.16  HD
BRANCH 4 6
ATOM      6  CA  THR E   3      16.876  -8.989   4.145  1.00 13.22 LIG 0.20  C 
BRANCH 6 7
ATOM      7  C   THR E   3      16.888  -8.229   5.466  1.00 13.63 LIG 0.24  C 
ATOM      8  N   ALA E   4      15.715  -7.756   5.883  1.00  8.98 LIG-0.35  N 
ATOM      9 H    ALA E   4      14.977  -7.854   5.453  1.00  8.98 LIG 0.16  HD
ATOM     10 O    THR E   3      17.938  -8.064   6.093  1.00 14.15 LIG-0.27  OA
BRANCH 8 11
ATOM     11  CA  ALA E   4      15.591  -7.017   7.138  1.00 15.48 LIG 0.18  C 
ATOM     12  CB  ALA E   4      15.877  -7.932   8.317  1.00 13.80 LIG 0.04  C 
BRANCH 11 13
ATOM     13  C   ALA E   4      16.507  -5.791   7.187  1.00 23.80 LIG 0.28  C 
ATOM     14 O    ALA E   4      16.656  -5.082   6.190  1.00 30.75 LIG-0.27  OA
ATOM     15  N   NH2 E 101      17.109  -5.536   8.345  1.00 22.73 LIG-0.11  N 
ENDBRANCH 11 13
ENDBRANCH 8 11
ENDBRANCH 6 7
BRANCH 6 16
ATOM     16  CB  THR E   3      17.515  -8.132   3.052  1.00 20.99 LIG 0.15  C 
ATOM     17  CG2 THR E   3      16.899  -8.459   1.692  1.00 14.08 LIG 0.04  C 
BRANCH 16 18
ATOM     18 OG1  THR E   3      17.303  -6.750   3.353  1.00 27.33 LIG-0.39  OA
ATOM     19 HG1  THR E   3      16.488  -6.568   3.273  1.00 27.33 LIG 0.21  HD
ENDBRANCH 16 18
ENDBRANCH 6 16
ENDBRANCH 4 6
ENDBRANCH 1 2
BRANCH 1 20
ATOM     20  CB  HIS E   2      12.824 -11.684   4.830  1.00 18.36 LIG 0.10  C 
BRANCH 20 21
ATOM     21  CG  HIS E   2      11.339 -11.824   4.706  1.00 23.43 LIG 0.06  A 
ATOM     22  CD2 HIS E   2      10.571 -12.876   4.337  1.00 23.79 LIG 0.14  A 
ATOM     23 NE2  HIS E   2       9.264 -12.454   4.376  1.00 23.75 LIG-0.25  NA
ATOM     24  CE1 HIS E   2       9.232 -11.189   4.753  1.00 26.05 LIG 0.23  A 
ATOM     25 ND1  HIS E   2      10.473 -10.781   4.956  1.00 21.22 LIG-0.24  NA
ENDBRANCH 20 21
ENDBRANCH 1 20
BRANCH 1 26
ATOM     26  N   HIS E   2      13.329 -10.816   2.556  1.00 15.97 LIG-0.35  N 
ATOM     27 H    HIS E   2      12.724 -10.357   2.152  1.00 15.97 LIG 0.16  HD
ATOM     28  C   TRP E   1      14.120 -11.698   1.941  1.00 12.03 LIG 0.24  C 
ATOM     29 O    TRP E   1      15.015 -12.321   2.523  1.00 13.67 LIG-0.27  OA
BRANCH 28 30
ATOM     30  CA  TRP E   1      13.845 -11.940   0.461  1.00  9.26 LIG 0.18  C 
BRANCH 30 31
ATOM     31  N   TRP E   1      15.024 -12.368  -0.295  1.00 13.05 LIG-0.35  N 
ATOM     32 H    TRP E   1      15.321 -13.139  -0.058  1.00 13.05 LIG 0.16  HD
ATOM     33  C   ACE E   0      15.588 -11.639  -1.257  1.00 12.60 LIG 0.21  C 
ATOM     34  CH3 ACE E   0      16.798 -12.257  -1.926  1.00  6.27 LIG 0.12  C 
ATOM     35 O    ACE E   0      15.150 -10.535  -1.580  1.00 15.02 LIG-0.27  OA
ENDBRANCH 30 31
BRANCH 30 36
ATOM     36  CB  TRP E   1      12.739 -12.981   0.321  1.00 10.27 LIG 0.07  C 
BRANCH 36 37
ATOM     37  CG  TRP E   1      12.651 -13.591  -1.048  1.00  6.62 LIG-0.03  A 
ATOM     38  CD1 TRP E   1      13.285 -14.717  -1.495  1.00  7.94 LIG 0.10  A 
ATOM     39  NE1 TRP E   1      12.950 -14.960  -2.815  1.00 10.26 LIG-0.36  N 
ATOM     40  CE2 TRP E   1      12.094 -13.977  -3.237  1.00  6.86 LIG 0.04  A 
ATOM     41 HE1  TRP E   1      13.233 -15.618  -3.291  1.00 10.26 LIG 0.17  HD
ATOM     42  CZ2 TRP E   1      11.485 -13.785  -4.479  1.00  8.31 LIG 0.03  A 
ATOM     43  CD2 TRP E   1      11.884 -13.097  -2.148  1.00  9.88 LIG-0.00  A 
ATOM     44  CH2 TRP E   1      10.651 -12.704  -4.611  1.00 13.27 LIG 0.00  A 
ATOM     45  CZ3 TRP E   1      10.424 -11.814  -3.552  1.00 13.61 LIG 0.00  A 
ATOM     46  CE3 TRP E   1      11.031 -12.002  -2.317  1.00 14.26 LIG 0.01  A 
ENDBRANCH 36 37
ENDBRANCH 30 36
ENDBRANCH 28 30
ENDBRANCH 1 26
TORSDOF 14
ENDMDL
MODEL 51
USER: ADFR SOLUTION from run 26
USER: SCORE 13.574080 LL:  -3.920 LR: -10.709 RR:   0.000 FEB:  -6.532
USER: RMSD 8.973334
USER: SEED 25
USER: STATUS no improvement in best in 25 clusters for 5 generations
USER: GENES 16
USER: genes 0 Translation |==|  0.39200 0.30466 0.39821
USER: genes 1 Rotation |==|  0.73126 0.72449 0.86829 0.60239
USER: genes 2 Torsion [N]-CA--C-[N] |==|  0.10185
USER: genes 3 Torsion [C]-N--CA-[C] |==|  0.83124
USER: genes 4 Torsion [N]-CA--C-[N] |==|  0.91694
USER: genes 5 Torsion [C]-N--CA-[C] |==|  0.60316
USER: genes 6 Torsion [N]-CA--C-[N] |==|  0.46471
USER: genes 7 Torsion [N]-CA--CB-[CG2] |==|  0.61123
USER: genes 8 Torsion [CA]-CB--OG1-[HG1] |==|  0.15052
USER: genes 9 Torsion [C]-CA--CB-[CG] |==|  0.54981
USER: genes 10 Torsion [CA]-CB--CG-[ND1] |==|  0.51034
USER: genes 11 Torsion [C]-CA--N-[C] |==|  0.73284
USER: genes 12 Torsion [N]-C--CA-[N] |==|  0.03042
USER: genes 13 Torsion [C]-CA--N-[C] |==|  0.78889
USER: genes 14 Torsion [C]-CA--CB-[CG] |==|  0.87099
USER: genes 15 Torsion [CA]-CB--CG-[CD1] |==|  0.23664
ROOT
ATOM      1  CA  HIS E   2      13.050 -12.667   0.752  1.00 14.20 LIG 0.18  C 
ENDROOT
BRANCH 1 2
ATOM      2  C   HIS E   2      13.492 -13.440  -0.487  1.00 15.34 LIG 0.24  C 
ATOM      3 O    HIS E   2      14.269 -12.946  -1.310  1.00 13.21 LIG-0.27  OA
ATOM      4  N   THR E   3      12.959 -14.653  -0.625  1.00 14.85 LIG-0.34  N 
ATOM      5 H    THR E   3      12.455 -15.031  -0.040  1.00 14.85 LIG 0.16  HD
BRANCH 4 6
ATOM      6  CA  THR E   3      13.206 -15.449  -1.822  1.00 13.22 LIG 0.20  C 
BRANCH 6 7
ATOM      7  C   THR E   3      12.689 -14.728  -3.062  1.00 13.63 LIG 0.24  C 
ATOM      8  N   ALA E   4      11.641 -13.927  -2.882  1.00  8.98 LIG-0.35  N 
ATOM      9 H    ALA E   4      11.253 -13.806  -2.124  1.00  8.98 LIG 0.16  HD
ATOM     10 O    THR E   3      13.221 -14.898  -4.162  1.00 14.15 LIG-0.27  OA
BRANCH 8 11
ATOM     11  CA  ALA E   4      11.057 -13.173  -3.989  1.00 15.48 LIG 0.18  C 
ATOM     12  CB  ALA E   4       9.907 -13.951  -4.606  1.00 13.80 LIG 0.04  C 
BRANCH 11 13
ATOM     13  C   ALA E   4      10.584 -11.780  -3.564  1.00 23.80 LIG 0.28  C 
ATOM     14 O    ALA E   4      10.506 -11.484  -2.370  1.00 30.75 LIG-0.27  OA
ATOM     15  N   NH2 E 101      10.281 -10.925  -4.537  1.00 22.73 LIG-0.11  N 
ENDBRANCH 11 13
ENDBRANCH 8 11
ENDBRANCH 6 7
BRANCH 6 16
ATOM     16  CB  THR E   3      12.531 -16.815  -1.702  1.00 20.99 LIG 0.15  C 
ATOM     17  CG2 THR E   3      13.437 -17.909  -2.267  1.00 14.08 LIG 0.04  C 
BRANCH 16 18
ATOM     18 OG1  THR E   3      12.257 -17.086  -0.325  1.00 27.33 LIG-0.39  OA
ATOM     19 HG1  THR E   3      11.814 -16.453   0.003  1.00 27.33 LIG 0.21  HD
ENDBRANCH 16 18
ENDBRANCH 6 16
ENDBRANCH 4 6
ENDBRANCH 1 2
BRANCH 1 20
ATOM     20  CB  HIS E   2      14.079 -11.566   1.043  1.00 18.36 LIG 0.10  C 
BRANCH 20 21
ATOM     21  CG  HIS E   2      14.011 -11.016   2.434  1.00 23.43 LIG 0.06  A 
ATOM     22  CD2 HIS E   2      13.230 -11.350   3.488  1.00 23.79 LIG 0.14  A 
ATOM     23 NE2  HIS E   2      13.567 -10.511   4.522  1.00 23.75 LIG-0.25  NA
ATOM     24  CE1 HIS E   2      14.519  -9.690   4.117  1.00 26.05 LIG 0.23  A 
ATOM     25 ND1  HIS E   2      14.804  -9.970   2.857  1.00 21.22 LIG-0.24  NA
ENDBRANCH 20 21
ENDBRANCH 1 20
BRANCH 1 26
ATOM     26  N   HIS E   2      12.893 -13.586   1.875  1.00 15.97 LIG-0.35  N 
ATOM     27 H    HIS E   2      13.625 -13.759   2.291  1.00 15.97 LIG 0.16  HD
ATOM     28  C   TRP E   1      11.710 -14.104   2.215  1.00 12.03 LIG 0.24  C 
ATOM     29 O    TRP E   1      10.657 -13.815   1.637  1.00 13.67 LIG-0.27  OA
BRANCH 28 30
ATOM     30  CA  TRP E   1      11.715 -15.121   3.351  1.00  9.26 LIG 0.18  C 
BRANCH 30 31
ATOM     31  N   TRP E   1      12.988 -15.191   4.072  1.00 13.05 LIG-0.35  N 
ATOM     32 H    TRP E   1      12.969 -14.803   4.839  1.00 13.05 LIG 0.16  HD
ATOM     33  C   ACE E   0      14.075 -15.796   3.593  1.00 12.60 LIG 0.21  C 
ATOM     34  CH3 ACE E   0      15.294 -15.767   4.492  1.00  6.27 LIG 0.12  C 
ATOM     35 O    ACE E   0      14.084 -16.344   2.492  1.00 15.02 LIG-0.27  OA
ENDBRANCH 30 31
BRANCH 30 36
ATOM     36  CB  TRP E   1      10.590 -14.790   4.325  1.00 10.27 LIG 0.07  C 
BRANCH 36 37
ATOM     37  CG  TRP E   1      10.515 -13.336   4.694  1.00  6.62 LIG-0.03  A 
ATOM     38  CD1 TRP E   1       9.875 -12.340   4.010  1.00  7.94 LIG 0.10  A 
ATOM     39  NE1 TRP E   1      10.032 -11.134   4.668  1.00 10.26 LIG-0.36  N 
ATOM     40  CE2 TRP E   1      10.789 -11.343   5.791  1.00  6.86 LIG 0.04  A 
ATOM     41 HE1  TRP E   1       9.708 -10.379   4.415  1.00 10.26 LIG 0.17  HD
ATOM     42  CZ2 TRP E   1      11.218 -10.444   6.769  1.00  8.31 LIG 0.03  A 
ATOM     43  CD2 TRP E   1      11.111 -12.721   5.837  1.00  9.88 LIG-0.00  A 
ATOM     44  CH2 TRP E   1      11.965 -10.947   7.804  1.00 13.27 LIG 0.00  A 
ATOM     45  CZ3 TRP E   1      12.301 -12.305   7.877  1.00 13.61 LIG 0.00  A 
ATOM     46  CE3 TRP E   1      11.878 -13.201   6.904  1.00 14.26 LIG 0.01  A 
ENDBRANCH 36 37
ENDBRANCH 30 36
ENDBRANCH 28 30
ENDBRANCH 1 26
TORSDOF 14
ENDMDL
MODEL 52
USER: ADFR SOLUTION from run 82
USER: SCORE 12.661307 LL:  -3.518 LR: -10.664 RR:   0.000 FEB:  -6.488
USER: RMSD 7.374442
USER: SEED 81
USER: STATUS no improvement in best in 12 clusters for 5 generations
USER: GENES 16
USER: genes 0 Translation |==|  0.65195 0.63735 0.50199
USER: genes 1 Rotation |==|  0.08714 0.65649 0.62078 0.70117
USER: genes 2 Torsion [N]-CA--C-[N] |==|  0.10820
USER: genes 3 Torsion [C]-N--CA-[C] |==|  0.88149
USER: genes 4 Torsion [N]-CA--C-[N] |==|  0.88824
USER: genes 5 Torsion [C]-N--CA-[C] |==|  0.81205
USER: genes 6 Torsion [N]-CA--C-[N] |==|  0.38054
USER: genes 7 Torsion [N]-CA--CB-[CG2] |==|  0.54857
USER: genes 8 Torsion [CA]-CB--OG1-[HG1] |==|  0.00419
USER: genes 9 Torsion [C]-CA--CB-[CG] |==|  0.29689
USER: genes 10 Torsion [CA]-CB--CG-[ND1] |==|  0.69662
USER: genes 11 Torsion [C]-CA--N-[C] |==|  0.54121
USER: genes 12 Torsion [N]-C--CA-[N] |==|  0.92970
USER: genes 13 Torsion [C]-CA--N-[C] |==|  0.69754
USER: genes 14 Torsion [C]-CA--CB-[CG] |==|  0.95010
USER: genes 15 Torsion [CA]-CB--CG-[CD1] |==|  0.21779
ROOT
ATOM      1  CA  HIS E   2      18.119  -5.681   2.542  1.00 14.20 LIG 0.18  C 
ENDROOT
BRANCH 1 2
ATOM      2  C   HIS E   2      17.627  -5.098   3.864  1.00 15.34 LIG 0.24  C 
ATOM      3 O    HIS E   2      17.793  -3.907   4.144  1.00 13.21 LIG-0.27  OA
ATOM      4  N   THR E   3      17.041  -5.966   4.689  1.00 14.85 LIG-0.34  N 
ATOM      5 H    THR E   3      16.874  -6.786   4.492  1.00 14.85 LIG 0.16  HD
BRANCH 4 6
ATOM      6  CA  THR E   3      16.632  -5.565   6.030  1.00 13.22 LIG 0.20  C 
BRANCH 6 7
ATOM      7  C   THR E   3      17.707  -4.708   6.687  1.00 13.63 LIG 0.24  C 
ATOM      8  N   ALA E   4      18.967  -5.087   6.482  1.00  8.98 LIG-0.35  N 
ATOM      9 H    ALA E   4      19.193  -5.773   6.016  1.00  8.98 LIG 0.16  HD
ATOM     10 O    THR E   3      17.406  -3.727   7.372  1.00 14.15 LIG-0.27  OA
BRANCH 8 11
ATOM     11  CA  ALA E   4      20.090  -4.344   7.051  1.00 15.48 LIG 0.18  C 
ATOM     12  CB  ALA E   4      21.377  -5.136   6.893  1.00 13.80 LIG 0.04  C 
BRANCH 11 13
ATOM     13  C   ALA E   4      20.246  -2.954   6.429  1.00 23.80 LIG 0.28  C 
ATOM     14 O    ALA E   4      20.126  -2.795   5.213  1.00 30.75 LIG-0.27  OA
ATOM     15  N   NH2 E 101      20.502  -1.948   7.261  1.00 22.73 LIG-0.11  N 
ENDBRANCH 11 13
ENDBRANCH 8 11
ENDBRANCH 6 7
BRANCH 6 16
ATOM     16  CB  THR E   3      16.357  -6.796   6.893  1.00 20.99 LIG 0.15  C 
ATOM     17  CG2 THR E   3      15.531  -6.413   8.121  1.00 14.08 LIG 0.04  C 
BRANCH 16 18
ATOM     18 OG1  THR E   3      15.641  -7.763   6.120  1.00 27.33 LIG-0.39  OA
ATOM     19 HG1  THR E   3      15.531  -7.473   5.339  1.00 27.33 LIG 0.21  HD
ENDBRANCH 16 18
ENDBRANCH 6 16
ENDBRANCH 4 6
ENDBRANCH 1 2
BRANCH 1 20
ATOM     20  CB  HIS E   2      18.344  -4.534   1.547  1.00 18.36 LIG 0.10  C 
BRANCH 20 21
ATOM     21  CG  HIS E   2      19.784  -4.223   1.284  1.00 23.43 LIG 0.06  A 
ATOM     22  CD2 HIS E   2      20.743  -4.923   0.633  1.00 23.79 LIG 0.14  A 
ATOM     23 NE2  HIS E   2      21.899  -4.185   0.703  1.00 23.75 LIG-0.25  NA
ATOM     24  CE1 HIS E   2      21.659  -3.073   1.374  1.00 26.05 LIG 0.23  A 
ATOM     25 ND1  HIS E   2      20.390  -3.072   1.741  1.00 21.22 LIG-0.24  NA
ENDBRANCH 20 21
ENDBRANCH 1 20
BRANCH 1 26
ATOM     26  N   HIS E   2      17.157  -6.660   2.047  1.00 15.97 LIG-0.35  N 
ATOM     27 H    HIS E   2      16.390  -6.625   2.434  1.00 15.97 LIG 0.16  HD
ATOM     28  C   TRP E   1      17.455  -7.528   1.077  1.00 12.03 LIG 0.24  C 
ATOM     29 O    TRP E   1      18.547  -7.542   0.498  1.00 13.67 LIG-0.27  OA
BRANCH 28 30
ATOM     30  CA  TRP E   1      16.381  -8.552   0.729  1.00  9.26 LIG 0.18  C 
BRANCH 30 31
ATOM     31  N   TRP E   1      15.456  -8.832   1.829  1.00 13.05 LIG-0.35  N 
ATOM     32 H    TRP E   1      14.919  -8.183   1.998  1.00 13.05 LIG 0.16  HD
ATOM     33  C   ACE E   0      15.442  -9.980   2.507  1.00 12.60 LIG 0.21  C 
ATOM     34  CH3 ACE E   0      14.406 -10.080   3.608  1.00  6.27 LIG 0.12  C 
ATOM     35 O    ACE E   0      16.222 -10.897   2.253  1.00 15.02 LIG-0.27  OA
ENDBRANCH 30 31
BRANCH 30 36
ATOM     36  CB  TRP E   1      15.601  -8.066  -0.488  1.00 10.27 LIG 0.07  C 
BRANCH 36 37
ATOM     37  CG  TRP E   1      15.760  -6.599  -0.764  1.00  6.62 LIG-0.03  A 
ATOM     38  CD1 TRP E   1      16.821  -5.980  -1.365  1.00  7.94 LIG 0.10  A 
ATOM     39  NE1 TRP E   1      16.595  -4.617  -1.441  1.00 10.26 LIG-0.36  N 
ATOM     40  CE2 TRP E   1      15.377  -4.342  -0.876  1.00  6.86 LIG 0.04  A 
ATOM     41 HE1  TRP E   1      17.130  -4.039  -1.786  1.00 10.26 LIG 0.17  HD
ATOM     42  CZ2 TRP E   1      14.714  -3.125  -0.713  1.00  8.31 LIG 0.03  A 
ATOM     43  CD2 TRP E   1      14.824  -5.570  -0.439  1.00  9.88 LIG-0.00  A 
ATOM     44  CH2 TRP E   1      13.480  -3.155  -0.115  1.00 13.27 LIG 0.00  A 
ATOM     45  CZ3 TRP E   1      12.906  -4.353   0.330  1.00 13.61 LIG 0.00  A 
ATOM     46  CE3 TRP E   1      13.565  -5.565   0.171  1.00 14.26 LIG 0.01  A 
ENDBRANCH 36 37
ENDBRANCH 30 36
ENDBRANCH 28 30
ENDBRANCH 1 26
TORSDOF 14
ENDMDL
MODEL 53
USER: ADFR SOLUTION from run 133
USER: SCORE 12.506791 LL:  -3.189 LR: -10.597 RR:   0.000 FEB:  -6.421
USER: RMSD 9.110558
USER: SEED 132
USER: STATUS no improvement in best in 33 clusters for 5 generations
USER: GENES 16
USER: genes 0 Translation |==|  0.49031 0.57120 0.36924
USER: genes 1 Rotation |==|  0.31289 0.21593 0.13450 0.52655
USER: genes 2 Torsion [N]-CA--C-[N] |==|  0.62229
USER: genes 3 Torsion [C]-N--CA-[C] |==|  0.77823
USER: genes 4 Torsion [N]-CA--C-[N] |==|  0.44511
USER: genes 5 Torsion [C]-N--CA-[C] |==|  0.77524
USER: genes 6 Torsion [N]-CA--C-[N] |==|  0.88515
USER: genes 7 Torsion [N]-CA--CB-[CG2] |==|  0.17040
USER: genes 8 Torsion [CA]-CB--OG1-[HG1] |==|  0.54828
USER: genes 9 Torsion [C]-CA--CB-[CG] |==|  0.25098
USER: genes 10 Torsion [CA]-CB--CG-[ND1] |==|  0.11450
USER: genes 11 Torsion [C]-CA--N-[C] |==|  0.13147
USER: genes 12 Torsion [N]-C--CA-[N] |==|  0.86886
USER: genes 13 Torsion [C]-CA--N-[C] |==|  0.66460
USER: genes 14 Torsion [C]-CA--CB-[CG] |==|  0.79306
USER: genes 15 Torsion [CA]-CB--CG-[CD1] |==|  0.29068
ROOT
ATOM      1  CA  HIS E   2      14.967  -7.070   0.252  1.00 14.20 LIG 0.18  C 
ENDROOT
BRANCH 1 2
ATOM      2  C   HIS E   2      15.558  -7.507  -1.085  1.00 15.34 LIG 0.24  C 
ATOM      3 O    HIS E   2      15.682  -8.701  -1.374  1.00 13.21 LIG-0.27  OA
ATOM      4  N   THR E   3      15.949  -6.518  -1.888  1.00 14.85 LIG-0.34  N 
ATOM      5 H    THR E   3      15.826  -5.683  -1.724  1.00 14.85 LIG 0.16  HD
BRANCH 4 6
ATOM      6  CA  THR E   3      16.636  -6.799  -3.143  1.00 13.22 LIG 0.20  C 
BRANCH 6 7
ATOM      7  C   THR E   3      18.109  -7.098  -2.894  1.00 13.63 LIG 0.24  C 
ATOM      8  N   ALA E   4      18.748  -7.755  -3.860  1.00  8.98 LIG-0.35  N 
ATOM      9 H    ALA E   4      18.378  -8.013  -4.592  1.00  8.98 LIG 0.16  HD
ATOM     10 O    THR E   3      18.658  -6.750  -1.845  1.00 14.15 LIG-0.27  OA
BRANCH 8 11
ATOM     11  CA  ALA E   4      20.165  -8.094  -3.746  1.00 15.48 LIG 0.18  C 
ATOM     12  CB  ALA E   4      20.491  -9.292  -4.620  1.00 13.80 LIG 0.04  C 
BRANCH 11 13
ATOM     13  C   ALA E   4      21.079  -6.917  -4.100  1.00 23.80 LIG 0.28  C 
ATOM     14 O    ALA E   4      22.092  -6.690  -3.436  1.00 30.75 LIG-0.27  OA
ATOM     15  N   NH2 E 101      20.729  -6.178  -5.149  1.00 22.73 LIG-0.11  N 
ENDBRANCH 11 13
ENDBRANCH 8 11
ENDBRANCH 6 7
BRANCH 6 16
ATOM     16  CB  THR E   3      16.506  -5.613  -4.099  1.00 20.99 LIG 0.15  C 
ATOM     17  CG2 THR E   3      17.151  -4.367  -3.492  1.00 14.08 LIG 0.04  C 
BRANCH 16 18
ATOM     18 OG1  THR E   3      17.151  -5.931  -5.335  1.00 27.33 LIG-0.39  OA
ATOM     19 HG1  THR E   3      17.293  -5.224  -5.766  1.00 27.33 LIG 0.21  HD
ENDBRANCH 16 18
ENDBRANCH 6 16
ENDBRANCH 4 6
ENDBRANCH 1 2
BRANCH 1 20
ATOM     20  CB  HIS E   2      15.268  -5.580   0.465  1.00 18.36 LIG 0.10  C 
BRANCH 20 21
ATOM     21  CG  HIS E   2      14.214  -4.659  -0.066  1.00 23.43 LIG 0.06  A 
ATOM     22  CD2 HIS E   2      14.310  -3.474  -0.715  1.00 23.79 LIG 0.14  A 
ATOM     23 NE2  HIS E   2      13.029  -3.043  -0.958  1.00 23.75 LIG-0.25  NA
ATOM     24  CE1 HIS E   2      12.178  -3.929  -0.475  1.00 26.05 LIG 0.23  A 
ATOM     25 ND1  HIS E   2      12.867  -4.915   0.074  1.00 21.22 LIG-0.24  NA
ENDBRANCH 20 21
ENDBRANCH 1 20
BRANCH 1 26
ATOM     26  N   HIS E   2      15.507  -7.900   1.324  1.00 15.97 LIG-0.35  N 
ATOM     27 H    HIS E   2      14.912  -8.202   1.867  1.00 15.97 LIG 0.16  HD
ATOM     28  C   TRP E   1      16.812  -8.159   1.440  1.00 12.03 LIG 0.24  C 
ATOM     29 O    TRP E   1      17.653  -7.755   0.630  1.00 13.67 LIG-0.27  OA
BRANCH 28 30
ATOM     30  CA  TRP E   1      17.238  -8.963   2.663  1.00  9.26 LIG 0.18  C 
BRANCH 30 31
ATOM     31  N   TRP E   1      16.656  -8.481   3.917  1.00 13.05 LIG-0.35  N 
ATOM     32 H    TRP E   1      15.797  -8.491   3.922  1.00 13.05 LIG 0.16  HD
ATOM     33  C   ACE E   0      17.381  -8.065   4.955  1.00 12.60 LIG 0.21  C 
ATOM     34  CH3 ACE E   0      16.594  -7.608   6.166  1.00  6.27 LIG 0.12  C 
ATOM     35 O    ACE E   0      18.611  -8.055   4.929  1.00 15.02 LIG-0.27  OA
ENDBRANCH 30 31
BRANCH 30 36
ATOM     36  CB  TRP E   1      16.868 -10.428   2.454  1.00 10.27 LIG 0.07  C 
BRANCH 36 37
ATOM     37  CG  TRP E   1      15.400 -10.709   2.597  1.00  6.62 LIG-0.03  A 
ATOM     38  CD1 TRP E   1      14.501 -10.949   1.595  1.00  7.94 LIG 0.10  A 
ATOM     39  NE1 TRP E   1      13.243 -11.166   2.127  1.00 10.26 LIG-0.36  N 
ATOM     40  CE2 TRP E   1      13.319 -11.058   3.491  1.00  6.86 LIG 0.04  A 
ATOM     41 HE1  TRP E   1      12.531 -11.339   1.676  1.00 10.26 LIG 0.17  HD
ATOM     42  CZ2 TRP E   1      12.324 -11.190   4.462  1.00  8.31 LIG 0.03  A 
ATOM     43  CD2 TRP E   1      14.665 -10.770   3.821  1.00  9.88 LIG-0.00  A 
ATOM     44  CH2 TRP E   1      12.700 -11.041   5.772  1.00 13.27 LIG 0.00  A 
ATOM     45  CZ3 TRP E   1      14.024 -10.754   6.131  1.00 13.61 LIG 0.00  A 
ATOM     46  CE3 TRP E   1      15.014 -10.620   5.167  1.00 14.26 LIG 0.01  A 
ENDBRANCH 36 37
ENDBRANCH 30 36
ENDBRANCH 28 30
ENDBRANCH 1 26
TORSDOF 14
ENDMDL
MODEL 54
USER: ADFR SOLUTION from run 98
USER: SCORE 13.172160 LL:  -3.271 LR: -10.603 RR:   0.000 FEB:  -6.426
USER: RMSD 2.958215
USER: SEED 97
USER: STATUS no improvement in best in 4 clusters for 5 generations
USER: GENES 16
USER: genes 0 Translation |==|  0.52676 0.40923 0.48512
USER: genes 1 Rotation |==|  0.54237 0.54409 0.50655 0.99620
USER: genes 2 Torsion [N]-CA--C-[N] |==|  0.44193
USER: genes 3 Torsion [C]-N--CA-[C] |==|  0.84964
USER: genes 4 Torsion [N]-CA--C-[N] |==|  0.40914
USER: genes 5 Torsion [C]-N--CA-[C] |==|  0.19188
USER: genes 6 Torsion [N]-CA--C-[N] |==|  0.11870
USER: genes 7 Torsion [N]-CA--CB-[CG2] |==|  0.38617
USER: genes 8 Torsion [CA]-CB--OG1-[HG1] |==|  0.87068
USER: genes 9 Torsion [C]-CA--CB-[CG] |==|  0.80017
USER: genes 10 Torsion [CA]-CB--CG-[ND1] |==|  0.76077
USER: genes 11 Torsion [C]-CA--N-[C] |==|  0.69749
USER: genes 12 Torsion [N]-C--CA-[N] |==|  0.32501
USER: genes 13 Torsion [C]-CA--N-[C] |==|  0.75317
USER: genes 14 Torsion [C]-CA--CB-[CG] |==|  0.68431
USER: genes 15 Torsion [CA]-CB--CG-[CD1] |==|  0.73761
ROOT
ATOM      1  CA  HIS E   2      15.678 -10.471   2.251  1.00 14.20 LIG 0.18  C 
ENDROOT
BRANCH 1 2
ATOM      2  C   HIS E   2      14.287 -11.095   2.201  1.00 15.34 LIG 0.24  C 
ATOM      3 O    HIS E   2      13.277 -10.440   2.478  1.00 13.21 LIG-0.27  OA
ATOM      4  N   THR E   3      14.250 -12.386   1.870  1.00 14.85 LIG-0.34  N 
ATOM      5 H    THR E   3      14.936 -12.844   1.628  1.00 14.85 LIG 0.16  HD
BRANCH 4 6
ATOM      6  CA  THR E   3      12.996 -13.131   1.899  1.00 13.22 LIG 0.20  C 
BRANCH 6 7
ATOM      7  C   THR E   3      12.329 -13.006   3.263  1.00 13.63 LIG 0.24  C 
ATOM      8  N   ALA E   4      10.997 -13.014   3.268  1.00  8.98 LIG-0.35  N 
ATOM      9 H    ALA E   4      10.513 -13.079   2.560  1.00  8.98 LIG 0.16  HD
ATOM     10 O    THR E   3      13.002 -12.897   4.291  1.00 14.15 LIG-0.27  OA
BRANCH 8 11
ATOM     11  CA  ALA E   4      10.237 -12.909   4.513  1.00 15.48 LIG 0.18  C 
ATOM     12  CB  ALA E   4      10.682 -13.983   5.491  1.00 13.80 LIG 0.04  C 
BRANCH 11 13
ATOM     13  C   ALA E   4      10.358 -11.525   5.157  1.00 23.80 LIG 0.28  C 
ATOM     14 O    ALA E   4      10.529 -11.413   6.372  1.00 30.75 LIG-0.27  OA
ATOM     15  N   NH2 E 101      10.279 -10.475   4.344  1.00 22.73 LIG-0.11  N 
ENDBRANCH 11 13
ENDBRANCH 8 11
ENDBRANCH 6 7
BRANCH 6 16
ATOM     16  CB  THR E   3      13.247 -14.605   1.581  1.00 20.99 LIG 0.15  C 
ATOM     17  CG2 THR E   3      12.402 -15.497   2.491  1.00 14.08 LIG 0.04  C 
BRANCH 16 18
ATOM     18 OG1  THR E   3      12.906 -14.858   0.216  1.00 27.33 LIG-0.39  OA
ATOM     19 HG1  THR E   3      12.161 -14.510   0.044  1.00 27.33 LIG 0.21  HD
ENDBRANCH 16 18
ENDBRANCH 6 16
ENDBRANCH 4 6
ENDBRANCH 1 2
BRANCH 1 20
ATOM     20  CB  HIS E   2      16.364 -10.893   3.558  1.00 18.36 LIG 0.10  C 
BRANCH 20 21
ATOM     21  CG  HIS E   2      15.804 -10.239   4.783  1.00 23.43 LIG 0.06  A 
ATOM     22  CD2 HIS E   2      14.835 -10.636   5.642  1.00 23.79 LIG 0.14  A 
ATOM     23 NE2  HIS E   2      14.703  -9.646   6.585  1.00 23.75 LIG-0.25  NA
ATOM     24  CE1 HIS E   2      15.558  -8.677   6.314  1.00 26.05 LIG 0.23  A 
ATOM     25 ND1  HIS E   2      16.234  -9.007   5.228  1.00 21.22 LIG-0.24  NA
ENDBRANCH 20 21
ENDBRANCH 1 20
BRANCH 1 26
ATOM     26  N   HIS E   2      15.572  -9.021   2.127  1.00 15.97 LIG-0.35  N 
ATOM     27 H    HIS E   2      15.240  -8.633   2.819  1.00 15.97 LIG 0.16  HD
ATOM     28  C   TRP E   1      15.961  -8.367   1.029  1.00 12.03 LIG 0.24  C 
ATOM     29 O    TRP E   1      16.476  -8.929   0.057  1.00 13.67 LIG-0.27  OA
BRANCH 28 30
ATOM     30  CA  TRP E   1      15.703  -6.865   1.007  1.00  9.26 LIG 0.18  C 
BRANCH 30 31
ATOM     31  N   TRP E   1      16.924  -6.059   0.937  1.00 13.05 LIG-0.35  N 
ATOM     32 H    TRP E   1      17.167  -5.875   0.133  1.00 13.05 LIG 0.16  HD
ATOM     33  C   ACE E   0      17.599  -5.647   2.010  1.00 12.60 LIG 0.21  C 
ATOM     34  CH3 ACE E   0      18.835  -4.818   1.731  1.00  6.27 LIG 0.12  C 
ATOM     35 O    ACE E   0      17.237  -5.923   3.153  1.00 15.02 LIG-0.27  OA
ENDBRANCH 30 31
BRANCH 30 36
ATOM     36  CB  TRP E   1      14.796  -6.529  -0.172  1.00 10.27 LIG 0.07  C 
BRANCH 36 37
ATOM     37  CG  TRP E   1      15.462  -5.700  -1.232  1.00  6.62 LIG-0.03  A 
ATOM     38  CD1 TRP E   1      15.436  -4.338  -1.357  1.00  7.94 LIG 0.10  A 
ATOM     39  NE1 TRP E   1      16.171  -3.947  -2.461  1.00 10.26 LIG-0.36  N 
ATOM     40  CE2 TRP E   1      16.676  -5.066  -3.070  1.00  6.86 LIG 0.04  A 
ATOM     41 HE1  TRP E   1      16.291  -3.136  -2.722  1.00 10.26 LIG 0.17  HD
ATOM     42  CZ2 TRP E   1      17.471  -5.190  -4.211  1.00  8.31 LIG 0.03  A 
ATOM     43  CD2 TRP E   1      16.248  -6.188  -2.321  1.00  9.88 LIG-0.00  A 
ATOM     44  CH2 TRP E   1      17.844  -6.456  -4.585  1.00 13.27 LIG 0.00  A 
ATOM     45  CZ3 TRP E   1      17.435  -7.587  -3.865  1.00 13.61 LIG 0.00  A 
ATOM     46  CE3 TRP E   1      16.642  -7.466  -2.732  1.00 14.26 LIG 0.01  A 
ENDBRANCH 36 37
ENDBRANCH 30 36
ENDBRANCH 28 30
ENDBRANCH 1 26
TORSDOF 14
ENDMDL
MODEL 55
USER: ADFR SOLUTION from run 125
USER: SCORE 13.879496 LL:  -3.705 LR: -10.587 RR:   0.000 FEB:  -6.410
USER: RMSD 5.361569
USER: SEED 124
USER: STATUS no improvement in best in 24 clusters for 5 generations
USER: GENES 16
USER: genes 0 Translation |==|  0.54927 0.49205 0.42229
USER: genes 1 Rotation |==|  0.62471 0.89419 0.24639 0.62142
USER: genes 2 Torsion [N]-CA--C-[N] |==|  0.40385
USER: genes 3 Torsion [C]-N--CA-[C] |==|  0.18889
USER: genes 4 Torsion [N]-CA--C-[N] |==|  0.06135
USER: genes 5 Torsion [C]-N--CA-[C] |==|  0.74497
USER: genes 6 Torsion [N]-CA--C-[N] |==|  0.03879
USER: genes 7 Torsion [N]-CA--CB-[CG2] |==|  0.57074
USER: genes 8 Torsion [CA]-CB--OG1-[HG1] |==|  0.95766
USER: genes 9 Torsion [C]-CA--CB-[CG] |==|  0.18921
USER: genes 10 Torsion [CA]-CB--CG-[ND1] |==|  0.01305
USER: genes 11 Torsion [C]-CA--N-[C] |==|  0.81300
USER: genes 12 Torsion [N]-C--CA-[N] |==|  0.87913
USER: genes 13 Torsion [C]-CA--N-[C] |==|  0.81977
USER: genes 14 Torsion [C]-CA--CB-[CG] |==|  0.18931
USER: genes 15 Torsion [CA]-CB--CG-[CD1] |==|  0.27456
ROOT
ATOM      1  CA  HIS E   2      16.117  -8.732   1.167  1.00 14.20 LIG 0.18  C 
ENDROOT
BRANCH 1 2
ATOM      2  C   HIS E   2      16.753  -8.978   2.532  1.00 15.34 LIG 0.24  C 
ATOM      3 O    HIS E   2      17.975  -9.103   2.659  1.00 13.21 LIG-0.27  OA
ATOM      4  N   THR E   3      15.900  -9.077   3.552  1.00 14.85 LIG-0.34  N 
ATOM      5 H    THR E   3      15.053  -8.945   3.490  1.00 14.85 LIG 0.16  HD
BRANCH 4 6
ATOM      6  CA  THR E   3      16.368  -9.427   4.888  1.00 13.22 LIG 0.20  C 
BRANCH 6 7
ATOM      7  C   THR E   3      17.220  -8.306   5.470  1.00 13.63 LIG 0.24  C 
ATOM      8  N   ALA E   4      17.035  -7.095   4.948  1.00  8.98 LIG-0.35  N 
ATOM      9 H    ALA E   4      16.478  -6.924   4.315  1.00  8.98 LIG 0.16  HD
ATOM     10 O    THR E   3      18.035  -8.530   6.369  1.00 14.15 LIG-0.27  OA
BRANCH 8 11
ATOM     11  CA  ALA E   4      17.784  -5.934   5.425  1.00 15.48 LIG 0.18  C 
ATOM     12  CB  ALA E   4      18.084  -4.992   4.272  1.00 13.80 LIG 0.04  C 
BRANCH 11 13
ATOM     13  C   ALA E   4      17.053  -5.186   6.543  1.00 23.80 LIG 0.28  C 
ATOM     14 O    ALA E   4      17.408  -4.052   6.872  1.00 30.75 LIG-0.27  OA
ATOM     15  N   NH2 E 101      16.031  -5.812   7.118  1.00 22.73 LIG-0.11  N 
ENDBRANCH 11 13
ENDBRANCH 8 11
ENDBRANCH 6 7
BRANCH 6 16
ATOM     16  CB  THR E   3      17.179 -10.721   4.846  1.00 20.99 LIG 0.15  C 
ATOM     17  CG2 THR E   3      17.135 -11.423   6.203  1.00 14.08 LIG 0.04  C 
BRANCH 16 18
ATOM     18 OG1  THR E   3      16.637 -11.586   3.844  1.00 27.33 LIG-0.39  OA
ATOM     19 HG1  THR E   3      15.872 -11.316   3.625  1.00 27.33 LIG 0.21  HD
ENDBRANCH 16 18
ENDBRANCH 6 16
ENDBRANCH 4 6
ENDBRANCH 1 2
BRANCH 1 20
ATOM     20  CB  HIS E   2      15.851 -10.084   0.492  1.00 18.36 LIG 0.10  C 
BRANCH 20 21
ATOM     21  CG  HIS E   2      14.788 -10.904   1.156  1.00 23.43 LIG 0.06  A 
ATOM     22  CD2 HIS E   2      14.329 -12.150   0.893  1.00 23.79 LIG 0.14  A 
ATOM     23 NE2  HIS E   2      13.330 -12.411   1.798  1.00 23.75 LIG-0.25  NA
ATOM     24  CE1 HIS E   2      13.180 -11.362   2.588  1.00 26.05 LIG 0.23  A 
ATOM     25 ND1  HIS E   2      14.047 -10.435   2.219  1.00 21.22 LIG-0.24  NA
ENDBRANCH 20 21
ENDBRANCH 1 20
BRANCH 1 26
ATOM     26  N   HIS E   2      16.986  -7.877   0.366  1.00 15.97 LIG-0.35  N 
ATOM     27 H    HIS E   2      17.331  -8.270  -0.317  1.00 15.97 LIG 0.16  HD
ATOM     28  C   TRP E   1      17.216  -6.599   0.677  1.00 12.03 LIG 0.24  C 
ATOM     29 O    TRP E   1      16.681  -6.032   1.636  1.00 13.67 LIG-0.27  OA
BRANCH 28 30
ATOM     30  CA  TRP E   1      18.219  -5.857  -0.200  1.00  9.26 LIG 0.18  C 
BRANCH 30 31
ATOM     31  N   TRP E   1      19.422  -6.635  -0.506  1.00 13.05 LIG-0.35  N 
ATOM     32 H    TRP E   1      19.505  -6.822  -1.341  1.00 13.05 LIG 0.16  HD
ATOM     33  C   ACE E   0      20.305  -7.020   0.414  1.00 12.60 LIG 0.21  C 
ATOM     34  CH3 ACE E   0      21.488  -7.814  -0.102  1.00  6.27 LIG 0.12  C 
ATOM     35 O    ACE E   0      20.167  -6.746   1.605  1.00 15.02 LIG-0.27  OA
ENDBRANCH 30 31
BRANCH 30 36
ATOM     36  CB  TRP E   1      17.536  -5.434  -1.496  1.00 10.27 LIG 0.07  C 
BRANCH 36 37
ATOM     37  CG  TRP E   1      16.486  -4.377  -1.311  1.00  6.62 LIG-0.03  A 
ATOM     38  CD1 TRP E   1      16.620  -3.031  -1.516  1.00  7.94 LIG 0.10  A 
ATOM     39  NE1 TRP E   1      15.428  -2.387  -1.239  1.00 10.26 LIG-0.36  N 
ATOM     40  CE2 TRP E   1      14.507  -3.321  -0.841  1.00  6.86 LIG 0.04  A 
ATOM     41 HE1  TRP E   1      15.287  -1.541  -1.306  1.00 10.26 LIG 0.17  HD
ATOM     42  CZ2 TRP E   1      13.174  -3.165  -0.456  1.00  8.31 LIG 0.03  A 
ATOM     43  CD2 TRP E   1      15.141  -4.586  -0.875  1.00  9.88 LIG-0.00  A 
ATOM     44  CH2 TRP E   1      12.479  -4.298  -0.117  1.00 13.27 LIG 0.00  A 
ATOM     45  CZ3 TRP E   1      13.079  -5.564  -0.139  1.00 13.61 LIG 0.00  A 
ATOM     46  CE3 TRP E   1      14.406  -5.721  -0.518  1.00 14.26 LIG 0.01  A 
ENDBRANCH 36 37
ENDBRANCH 30 36
ENDBRANCH 28 30
ENDBRANCH 1 26
TORSDOF 14
ENDMDL
MODEL 56
USER: ADFR SOLUTION from run 113
USER: SCORE 13.599375 LL:  -3.713 LR: -10.586 RR:   0.000 FEB:  -6.410
USER: RMSD 8.324612
USER: SEED 112
USER: STATUS no improvement in best in 11 clusters for 5 generations
USER: GENES 16
USER: genes 0 Translation |==|  0.59885 0.60857 0.46864
USER: genes 1 Rotation |==|  0.22602 0.54530 0.08952 0.56622
USER: genes 2 Torsion [N]-CA--C-[N] |==|  0.97672
USER: genes 3 Torsion [C]-N--CA-[C] |==|  0.83178
USER: genes 4 Torsion [N]-CA--C-[N] |==|  0.93534
USER: genes 5 Torsion [C]-N--CA-[C] |==|  0.85547
USER: genes 6 Torsion [N]-CA--C-[N] |==|  0.36125
USER: genes 7 Torsion [N]-CA--CB-[CG2] |==|  0.37536
USER: genes 8 Torsion [CA]-CB--OG1-[HG1] |==|  0.28284
USER: genes 9 Torsion [C]-CA--CB-[CG] |==|  0.26523
USER: genes 10 Torsion [CA]-CB--CG-[ND1] |==|  0.73196
USER: genes 11 Torsion [C]-CA--N-[C] |==|  0.78565
USER: genes 12 Torsion [N]-C--CA-[N] |==|  0.82222
USER: genes 13 Torsion [C]-CA--N-[C] |==|  0.81978
USER: genes 14 Torsion [C]-CA--CB-[CG] |==|  0.23414
USER: genes 15 Torsion [CA]-CB--CG-[CD1] |==|  0.18908
ROOT
ATOM      1  CA  HIS E   2      17.084  -6.285   1.967  1.00 14.20 LIG 0.18  C 
ENDROOT
BRANCH 1 2
ATOM      2  C   HIS E   2      17.339  -5.269   0.858  1.00 15.34 LIG 0.24  C 
ATOM      3 O    HIS E   2      17.342  -4.055   1.086  1.00 13.21 LIG-0.27  OA
ATOM      4  N   THR E   3      17.527  -5.782  -0.357  1.00 14.85 LIG-0.34  N 
ATOM      5 H    THR E   3      17.576  -6.624  -0.525  1.00 14.85 LIG 0.16  HD
BRANCH 4 6
ATOM      6  CA  THR E   3      17.665  -4.917  -1.523  1.00 13.22 LIG 0.20  C 
BRANCH 6 7
ATOM      7  C   THR E   3      16.411  -4.073  -1.717  1.00 13.63 LIG 0.24  C 
ATOM      8  N   ALA E   4      15.291  -4.551  -1.179  1.00  8.98 LIG-0.35  N 
ATOM      9 H    ALA E   4      15.244  -5.293  -0.746  1.00  8.98 LIG 0.16  HD
ATOM     10 O    THR E   3      16.452  -3.013  -2.347  1.00 14.15 LIG-0.27  OA
BRANCH 8 11
ATOM     11  CA  ALA E   4      14.024  -3.832  -1.287  1.00 15.48 LIG 0.18  C 
ATOM     12  CB  ALA E   4      12.944  -4.546  -0.491  1.00 13.80 LIG 0.04  C 
BRANCH 11 13
ATOM     13  C   ALA E   4      14.138  -2.374  -0.833  1.00 23.80 LIG 0.28  C 
ATOM     14 O    ALA E   4      14.665  -2.095   0.246  1.00 30.75 LIG-0.27  OA
ATOM     15  N   NH2 E 101      13.656  -1.448  -1.657  1.00 22.73 LIG-0.11  N 
ENDBRANCH 11 13
ENDBRANCH 8 11
ENDBRANCH 6 7
BRANCH 6 16
ATOM     16  CB  THR E   3      17.922  -5.752  -2.777  1.00 20.99 LIG 0.15  C 
ATOM     17  CG2 THR E   3      17.055  -5.256  -3.935  1.00 14.08 LIG 0.04  C 
BRANCH 16 18
ATOM     18 OG1  THR E   3      19.302  -5.650  -3.137  1.00 27.33 LIG-0.39  OA
ATOM     19 HG1  THR E   3      19.708  -6.343  -2.892  1.00 27.33 LIG 0.21  HD
ENDBRANCH 16 18
ENDBRANCH 6 16
ENDBRANCH 4 6
ENDBRANCH 1 2
BRANCH 1 20
ATOM     20  CB  HIS E   2      18.250  -6.238   2.963  1.00 18.36 LIG 0.10  C 
BRANCH 20 21
ATOM     21  CG  HIS E   2      18.006  -5.362   4.153  1.00 23.43 LIG 0.06  A 
ATOM     22  CD2 HIS E   2      17.342  -5.595   5.310  1.00 23.79 LIG 0.14  A 
ATOM     23 NE2  HIS E   2      17.406  -4.440   6.050  1.00 23.75 LIG-0.25  NA
ATOM     24  CE1 HIS E   2      18.082  -3.531   5.372  1.00 26.05 LIG 0.23  A 
ATOM     25 ND1  HIS E   2      18.454  -4.060   4.219  1.00 21.22 LIG-0.24  NA
ENDBRANCH 20 21
ENDBRANCH 1 20
BRANCH 1 26
ATOM     26  N   HIS E   2      16.907  -7.613   1.387  1.00 15.97 LIG-0.35  N 
ATOM     27 H    HIS E   2      17.595  -8.123   1.466  1.00 15.97 LIG 0.16  HD
ATOM     28  C   TRP E   1      15.774  -7.987   0.790  1.00 12.03 LIG 0.24  C 
ATOM     29 O    TRP E   1      14.777  -7.261   0.720  1.00 13.67 LIG-0.27  OA
BRANCH 28 30
ATOM     30  CA  TRP E   1      15.769  -9.371   0.149  1.00  9.26 LIG 0.18  C 
BRANCH 30 31
ATOM     31  N   TRP E   1      16.712  -9.507  -0.964  1.00 13.05 LIG-0.35  N 
ATOM     32 H    TRP E   1      17.343 -10.070  -0.810  1.00 13.05 LIG 0.16  HD
ATOM     33  C   ACE E   0      16.608  -8.829  -2.106  1.00 12.60 LIG 0.21  C 
ATOM     34  CH3 ACE E   0      17.679  -9.113  -3.139  1.00  6.27 LIG 0.12  C 
ATOM     35 O    ACE E   0      15.698  -8.025  -2.306  1.00 15.02 LIG-0.27  OA
ENDBRANCH 30 31
BRANCH 30 36
ATOM     36  CB  TRP E   1      16.076 -10.418   1.214  1.00 10.27 LIG 0.07  C 
BRANCH 36 37
ATOM     37  CG  TRP E   1      14.873 -10.855   1.999  1.00  6.62 LIG-0.03  A 
ATOM     38  CD1 TRP E   1      13.804 -11.577   1.543  1.00  7.94 LIG 0.10  A 
ATOM     39  NE1 TRP E   1      12.898 -11.783   2.567  1.00 10.26 LIG-0.36  N 
ATOM     40  CE2 TRP E   1      13.375 -11.182   3.702  1.00  6.86 LIG 0.04  A 
ATOM     41 HE1  TRP E   1      12.158 -12.217   2.502  1.00 10.26 LIG 0.17  HD
ATOM     42  CZ2 TRP E   1      12.824 -11.110   4.983  1.00  8.31 LIG 0.03  A 
ATOM     43  CD2 TRP E   1      14.618 -10.587   3.379  1.00  9.88 LIG-0.00  A 
ATOM     44  CH2 TRP E   1      13.544 -10.443   5.942  1.00 13.27 LIG 0.00  A 
ATOM     45  CZ3 TRP E   1      14.776  -9.843   5.653  1.00 13.61 LIG 0.00  A 
ATOM     46  CE3 TRP E   1      15.325  -9.911   4.379  1.00 14.26 LIG 0.01  A 
ENDBRANCH 36 37
ENDBRANCH 30 36
ENDBRANCH 28 30
ENDBRANCH 1 26
TORSDOF 14
ENDMDL
MODEL 57
USER: ADFR SOLUTION from run 182
USER: SCORE 13.067909 LL:  -3.226 LR: -10.587 RR:   0.000 FEB:  -6.410
USER: RMSD 7.429353
USER: SEED 181
USER: STATUS no improvement in best in 21 clusters for 5 generations
USER: GENES 16
USER: genes 0 Translation |==|  0.40555 0.33928 0.33561
USER: genes 1 Rotation |==|  0.67427 0.84967 0.20042 0.58727
USER: genes 2 Torsion [N]-CA--C-[N] |==|  0.35766
USER: genes 3 Torsion [C]-N--CA-[C] |==|  0.63046
USER: genes 4 Torsion [N]-CA--C-[N] |==|  0.07043
USER: genes 5 Torsion [C]-N--CA-[C] |==|  0.15941
USER: genes 6 Torsion [N]-CA--C-[N] |==|  0.13471
USER: genes 7 Torsion [N]-CA--CB-[CG2] |==|  0.63561
USER: genes 8 Torsion [CA]-CB--OG1-[HG1] |==|  0.45130
USER: genes 9 Torsion [C]-CA--CB-[CG] |==|  0.46783
USER: genes 10 Torsion [CA]-CB--CG-[ND1] |==|  0.40779
USER: genes 11 Torsion [C]-CA--N-[C] |==|  0.85897
USER: genes 12 Torsion [N]-C--CA-[N] |==|  0.47741
USER: genes 13 Torsion [C]-CA--N-[C] |==|  0.76921
USER: genes 14 Torsion [C]-CA--CB-[CG] |==|  0.32181
USER: genes 15 Torsion [CA]-CB--CG-[CD1] |==|  0.26356
ROOT
ATOM      1  CA  HIS E   2      13.314 -11.940  -0.328  1.00 14.20 LIG 0.18  C 
ENDROOT
BRANCH 1 2
ATOM      2  C   HIS E   2      13.889 -12.165   1.068  1.00 15.34 LIG 0.24  C 
ATOM      3 O    HIS E   2      14.861 -12.904   1.251  1.00 13.21 LIG-0.27  OA
ATOM      4  N   THR E   3      13.253 -11.538   2.057  1.00 14.85 LIG-0.34  N 
ATOM      5 H    THR E   3      12.606 -10.983   1.942  1.00 14.85 LIG 0.16  HD
BRANCH 4 6
ATOM      6  CA  THR E   3      13.627 -11.761   3.449  1.00 13.22 LIG 0.20  C 
BRANCH 6 7
ATOM      7  C   THR E   3      12.390 -12.005   4.305  1.00 13.63 LIG 0.24  C 
ATOM      8  N   ALA E   4      11.324 -12.490   3.672  1.00  8.98 LIG-0.35  N 
ATOM      9 H    ALA E   4      11.301 -12.661   2.830  1.00  8.98 LIG 0.16  HD
ATOM     10 O    THR E   3      12.395 -11.752   5.513  1.00 14.15 LIG-0.27  OA
BRANCH 8 11
ATOM     11  CA  ALA E   4      10.078 -12.774   4.383  1.00 15.48 LIG 0.18  C 
ATOM     12  CB  ALA E   4      10.284 -13.911   5.369  1.00 13.80 LIG 0.04  C 
BRANCH 11 13
ATOM     13  C   ALA E   4       9.522 -11.543   5.103  1.00 23.80 LIG 0.28  C 
ATOM     14 O    ALA E   4       9.175 -11.613   6.284  1.00 30.75 LIG-0.27  OA
ATOM     15  N   NH2 E 101       9.446 -10.417   4.399  1.00 22.73 LIG-0.11  N 
ENDBRANCH 11 13
ENDBRANCH 8 11
ENDBRANCH 6 7
BRANCH 6 16
ATOM     16  CB  THR E   3      14.400 -10.559   3.991  1.00 20.99 LIG 0.15  C 
ATOM     17  CG2 THR E   3      15.676 -11.020   4.695  1.00 14.08 LIG 0.04  C 
BRANCH 16 18
ATOM     18 OG1  THR E   3      14.740  -9.690   2.908  1.00 27.33 LIG-0.39  OA
ATOM     19 HG1  THR E   3      14.944  -8.933   3.209  1.00 27.33 LIG 0.21  HD
ENDBRANCH 16 18
ENDBRANCH 6 16
ENDBRANCH 4 6
ENDBRANCH 1 2
BRANCH 1 20
ATOM     20  CB  HIS E   2      12.621 -13.228  -0.793  1.00 18.36 LIG 0.10  C 
BRANCH 20 21
ATOM     21  CG  HIS E   2      11.783 -13.064  -2.022  1.00 23.43 LIG 0.06  A 
ATOM     22  CD2 HIS E   2      11.030 -12.025  -2.456  1.00 23.79 LIG 0.14  A 
ATOM     23 NE2  HIS E   2      10.451 -12.413  -3.639  1.00 23.75 LIG-0.25  NA
ATOM     24  CE1 HIS E   2      10.832 -13.646  -3.921  1.00 26.05 LIG 0.23  A 
ATOM     25 ND1  HIS E   2      11.634 -14.065  -2.958  1.00 21.22 LIG-0.24  NA
ENDBRANCH 20 21
ENDBRANCH 1 20
BRANCH 1 26
ATOM     26  N   HIS E   2      14.378 -11.527  -1.238  1.00 15.97 LIG-0.35  N 
ATOM     27 H    HIS E   2      14.413 -11.983  -1.966  1.00 15.97 LIG 0.16  HD
ATOM     28  C   TRP E   1      15.215 -10.527  -0.951  1.00 12.03 LIG 0.24  C 
ATOM     29 O    TRP E   1      15.130  -9.851   0.079  1.00 13.67 LIG-0.27  OA
BRANCH 28 30
ATOM     30  CA  TRP E   1      16.334 -10.271  -1.955  1.00  9.26 LIG 0.18  C 
BRANCH 30 31
ATOM     31  N   TRP E   1      17.100  -9.052  -1.685  1.00 13.05 LIG-0.35  N 
ATOM     32 H    TRP E   1      17.828  -9.195  -1.251  1.00 13.05 LIG 0.16  HD
ATOM     33  C   ACE E   0      16.713  -7.837  -2.070  1.00 12.60 LIG 0.21  C 
ATOM     34  CH3 ACE E   0      17.645  -6.702  -1.699  1.00  6.27 LIG 0.12  C 
ATOM     35 O    ACE E   0      15.665  -7.651  -2.687  1.00 15.02 LIG-0.27  OA
ENDBRANCH 30 31
BRANCH 30 36
ATOM     36  CB  TRP E   1      17.272 -11.473  -1.980  1.00 10.27 LIG 0.07  C 
BRANCH 36 37
ATOM     37  CG  TRP E   1      17.298 -12.195  -3.296  1.00  6.62 LIG-0.03  A 
ATOM     38  CD1 TRP E   1      18.185 -12.015  -4.321  1.00  7.94 LIG 0.10  A 
ATOM     39  NE1 TRP E   1      17.883 -12.868  -5.367  1.00 10.26 LIG-0.36  N 
ATOM     40  CE2 TRP E   1      16.782 -13.608  -5.025  1.00  6.86 LIG 0.04  A 
ATOM     41 HE1  TRP E   1      18.315 -12.924  -6.109  1.00 10.26 LIG 0.17  HD
ATOM     42  CZ2 TRP E   1      16.100 -14.592  -5.742  1.00  8.31 LIG 0.03  A 
ATOM     43  CD2 TRP E   1      16.388 -13.208  -3.725  1.00  9.88 LIG-0.00  A 
ATOM     44  CH2 TRP E   1      15.021 -15.182  -5.132  1.00 13.27 LIG 0.00  A 
ATOM     45  CZ3 TRP E   1      14.605 -14.808  -3.848  1.00 13.61 LIG 0.00  A 
ATOM     46  CE3 TRP E   1      15.281 -13.827  -3.134  1.00 14.26 LIG 0.01  A 
ENDBRANCH 36 37
ENDBRANCH 30 36
ENDBRANCH 28 30
ENDBRANCH 1 26
TORSDOF 14
ENDMDL
MODEL 58
USER: ADFR SOLUTION from run 182
USER: SCORE 12.811747 LL:  -3.046 LR: -10.584 RR:   0.000 FEB:  -6.408
USER: RMSD 5.534450
USER: SEED 181
USER: STATUS no improvement in best in 21 clusters for 5 generations
USER: GENES 16
USER: genes 0 Translation |==|  0.43043 0.34118 0.33857
USER: genes 1 Rotation |==|  0.63836 0.84726 0.19910 0.64045
USER: genes 2 Torsion [N]-CA--C-[N] |==|  0.37569
USER: genes 3 Torsion [C]-N--CA-[C] |==|  0.60005
USER: genes 4 Torsion [N]-CA--C-[N] |==|  0.04142
USER: genes 5 Torsion [C]-N--CA-[C] |==|  0.16257
USER: genes 6 Torsion [N]-CA--C-[N] |==|  0.12387
USER: genes 7 Torsion [N]-CA--CB-[CG2] |==|  0.60960
USER: genes 8 Torsion [CA]-CB--OG1-[HG1] |==|  0.49063
USER: genes 9 Torsion [C]-CA--CB-[CG] |==|  0.05741
USER: genes 10 Torsion [CA]-CB--CG-[ND1] |==|  0.70647
USER: genes 11 Torsion [C]-CA--N-[C] |==|  0.86666
USER: genes 12 Torsion [N]-C--CA-[N] |==|  0.01859
USER: genes 13 Torsion [C]-CA--N-[C] |==|  0.71783
USER: genes 14 Torsion [C]-CA--CB-[CG] |==|  0.23782
USER: genes 15 Torsion [CA]-CB--CG-[CD1] |==|  0.97577
ROOT
ATOM      1  CA  HIS E   2      13.799 -11.900  -0.277  1.00 14.20 LIG 0.18  C 
ENDROOT
BRANCH 1 2
ATOM      2  C   HIS E   2      14.304 -11.848   1.162  1.00 15.34 LIG 0.24  C 
ATOM      3 O    HIS E   2      15.444 -12.219   1.458  1.00 13.21 LIG-0.27  OA
ATOM      4  N   THR E   3      13.425 -11.409   2.062  1.00 14.85 LIG-0.34  N 
ATOM      5 H    THR E   3      12.645 -11.102   1.868  1.00 14.85 LIG 0.16  HD
BRANCH 4 6
ATOM      6  CA  THR E   3      13.740 -11.420   3.486  1.00 13.22 LIG 0.20  C 
BRANCH 6 7
ATOM      7  C   THR E   3      12.499 -11.748   4.308  1.00 13.63 LIG 0.24  C 
ATOM      8  N   ALA E   4      11.468 -12.257   3.638  1.00  8.98 LIG-0.35  N 
ATOM      9 H    ALA E   4      11.468 -12.401   2.790  1.00  8.98 LIG 0.16  HD
ATOM     10 O    THR E   3      12.470 -11.537   5.523  1.00 14.15 LIG-0.27  OA
BRANCH 8 11
ATOM     11  CA  ALA E   4      10.223 -12.621   4.312  1.00 15.48 LIG 0.18  C 
ATOM     12  CB  ALA E   4      10.467 -13.763   5.285  1.00 13.80 LIG 0.04  C 
BRANCH 11 13
ATOM     13  C   ALA E   4       9.583 -11.435   5.039  1.00 23.80 LIG 0.28  C 
ATOM     14 O    ALA E   4       9.148 -11.565   6.185  1.00 30.75 LIG-0.27  OA
ATOM     15  N   NH2 E 101       9.536 -10.281   4.381  1.00 22.73 LIG-0.11  N 
ENDBRANCH 11 13
ENDBRANCH 8 11
ENDBRANCH 6 7
BRANCH 6 16
ATOM     16  CB  THR E   3      14.301 -10.066   3.918  1.00 20.99 LIG 0.15  C 
ATOM     17  CG2 THR E   3      15.443 -10.256   4.915  1.00 14.08 LIG 0.04  C 
BRANCH 16 18
ATOM     18 OG1  THR E   3      14.783  -9.367   2.767  1.00 27.33 LIG-0.39  OA
ATOM     19 HG1  THR E   3      15.050  -8.604   2.994  1.00 27.33 LIG 0.21  HD
ENDBRANCH 16 18
ENDBRANCH 6 16
ENDBRANCH 4 6
ENDBRANCH 1 2
BRANCH 1 20
ATOM     20  CB  HIS E   2      13.440 -13.351  -0.625  1.00 18.36 LIG 0.10  C 
BRANCH 20 21
ATOM     21  CG  HIS E   2      13.191 -14.224   0.565  1.00 23.43 LIG 0.06  A 
ATOM     22  CD2 HIS E   2      12.152 -14.275   1.432  1.00 23.79 LIG 0.14  A 
ATOM     23 NE2  HIS E   2      12.443 -15.250   2.354  1.00 23.75 LIG-0.25  NA
ATOM     24  CE1 HIS E   2      13.619 -15.778   2.065  1.00 26.05 LIG 0.23  A 
ATOM     25 ND1  HIS E   2      14.095 -15.174   0.990  1.00 21.22 LIG-0.24  NA
ENDBRANCH 20 21
ENDBRANCH 1 20
BRANCH 1 26
ATOM     26  N   HIS E   2      14.811 -11.352  -1.174  1.00 15.97 LIG-0.35  N 
ATOM     27 H    HIS E   2      14.972 -11.842  -1.862  1.00 15.97 LIG 0.16  HD
ATOM     28  C   TRP E   1      15.426 -10.191  -0.934  1.00 12.03 LIG 0.24  C 
ATOM     29 O    TRP E   1      15.158  -9.474   0.036  1.00 13.67 LIG-0.27  OA
BRANCH 28 30
ATOM     30  CA  TRP E   1      16.527  -9.792  -1.911  1.00  9.26 LIG 0.18  C 
BRANCH 30 31
ATOM     31  N   TRP E   1      16.640 -10.683  -3.067  1.00 13.05 LIG-0.35  N 
ATOM     32 H    TRP E   1      16.044 -10.540  -3.669  1.00 13.05 LIG 0.16  HD
ATOM     33  C   ACE E   0      17.573 -11.627  -3.182  1.00 12.60 LIG 0.21  C 
ATOM     34  CH3 ACE E   0      17.528 -12.444  -4.457  1.00  6.27 LIG 0.12  C 
ATOM     35 O    ACE E   0      18.417 -11.820  -2.308  1.00 15.02 LIG-0.27  OA
ENDBRANCH 30 31
BRANCH 30 36
ATOM     36  CB  TRP E   1      16.283  -8.363  -2.384  1.00 10.27 LIG 0.07  C 
BRANCH 36 37
ATOM     37  CG  TRP E   1      16.852  -7.316  -1.471  1.00  6.62 LIG-0.03  A 
ATOM     38  CD1 TRP E   1      17.392  -7.505  -0.229  1.00  7.94 LIG 0.10  A 
ATOM     39  NE1 TRP E   1      17.810  -6.296   0.298  1.00 10.26 LIG-0.36  N 
ATOM     40  CE2 TRP E   1      17.532  -5.305  -0.607  1.00  6.86 LIG 0.04  A 
ATOM     41 HE1  TRP E   1      18.182  -6.185   1.065  1.00 10.26 LIG 0.17  HD
ATOM     42  CZ2 TRP E   1      17.760  -3.930  -0.534  1.00  8.31 LIG 0.03  A 
ATOM     43  CD2 TRP E   1      16.927  -5.913  -1.733  1.00  9.88 LIG-0.00  A 
ATOM     44  CH2 TRP E   1      17.384  -3.171  -1.614  1.00 13.27 LIG 0.00  A 
ATOM     45  CZ3 TRP E   1      16.782  -3.743  -2.742  1.00 13.61 LIG 0.00  A 
ATOM     46  CE3 TRP E   1      16.552  -5.111  -2.815  1.00 14.26 LIG 0.01  A 
ENDBRANCH 36 37
ENDBRANCH 30 36
ENDBRANCH 28 30
ENDBRANCH 1 26
TORSDOF 14
ENDMDL
MODEL 59
USER: ADFR SOLUTION from run 164
USER: SCORE 13.129216 LL:  -3.715 LR: -10.570 RR:   0.000 FEB:  -6.394
USER: RMSD 9.014914
USER: SEED 163
USER: STATUS no improvement in best in 10 clusters for 5 generations
USER: GENES 16
USER: genes 0 Translation |==|  0.43696 0.41013 0.62057
USER: genes 1 Rotation |==|  0.43759 0.37341 0.97888 0.52742
USER: genes 2 Torsion [N]-CA--C-[N] |==|  0.24064
USER: genes 3 Torsion [C]-N--CA-[C] |==|  0.80000
USER: genes 4 Torsion [N]-CA--C-[N] |==|  0.88973
USER: genes 5 Torsion [C]-N--CA-[C] |==|  0.15945
USER: genes 6 Torsion [N]-CA--C-[N] |==|  0.63751
USER: genes 7 Torsion [N]-CA--CB-[CG2] |==|  0.91111
USER: genes 8 Torsion [CA]-CB--OG1-[HG1] |==|  0.86447
USER: genes 9 Torsion [C]-CA--CB-[CG] |==|  0.47470
USER: genes 10 Torsion [CA]-CB--CG-[ND1] |==|  0.98849
USER: genes 11 Torsion [C]-CA--N-[C] |==|  0.76290
USER: genes 12 Torsion [N]-C--CA-[N] |==|  0.88949
USER: genes 13 Torsion [C]-CA--N-[C] |==|  0.86042
USER: genes 14 Torsion [C]-CA--CB-[CG] |==|  0.68525
USER: genes 15 Torsion [CA]-CB--CG-[CD1] |==|  0.77257
ROOT
ATOM      1  CA  HIS E   2      13.927 -10.452   4.588  1.00 14.20 LIG 0.18  C 
ENDROOT
BRANCH 1 2
ATOM      2  C   HIS E   2      15.338 -10.069   5.023  1.00 15.34 LIG 0.24  C 
ATOM      3 O    HIS E   2      15.868 -10.581   6.013  1.00 13.21 LIG-0.27  OA
ATOM      4  N   THR E   3      15.931  -9.133   4.281  1.00 14.85 LIG-0.34  N 
ATOM      5 H    THR E   3      15.597  -8.801   3.562  1.00 14.85 LIG 0.16  HD
BRANCH 4 6
ATOM      6  CA  THR E   3      17.232  -8.592   4.657  1.00 13.22 LIG 0.20  C 
BRANCH 6 7
ATOM      7  C   THR E   3      17.107  -7.690   5.878  1.00 13.63 LIG 0.24  C 
ATOM      8  N   ALA E   4      16.035  -6.901   5.919  1.00  8.98 LIG-0.35  N 
ATOM      9 H    ALA E   4      15.434  -6.874   5.305  1.00  8.98 LIG 0.16  HD
ATOM     10 O    THR E   3      17.965  -7.700   6.765  1.00 14.15 LIG-0.27  OA
BRANCH 8 11
ATOM     11  CA  ALA E   4      15.796  -5.995   7.041  1.00 15.48 LIG 0.18  C 
ATOM     12  CB  ALA E   4      15.532  -6.788   8.309  1.00 13.80 LIG 0.04  C 
BRANCH 11 13
ATOM     13  C   ALA E   4      16.953  -5.017   7.260  1.00 23.80 LIG 0.28  C 
ATOM     14 O    ALA E   4      17.406  -4.363   6.319  1.00 30.75 LIG-0.27  OA
ATOM     15  N   NH2 E 101      17.422  -4.908   8.500  1.00 22.73 LIG-0.11  N 
ENDBRANCH 11 13
ENDBRANCH 8 11
ENDBRANCH 6 7
BRANCH 6 16
ATOM     16  CB  THR E   3      17.837  -7.805   3.495  1.00 20.99 LIG 0.15  C 
ATOM     17  CG2 THR E   3      17.405  -8.410   2.159  1.00 14.08 LIG 0.04  C 
BRANCH 16 18
ATOM     18 OG1  THR E   3      17.397  -6.446   3.567  1.00 27.33 LIG-0.39  OA
ATOM     19 HG1  THR E   3      16.565  -6.426   3.674  1.00 27.33 LIG 0.21  HD
ENDBRANCH 16 18
ENDBRANCH 6 16
ENDBRANCH 4 6
ENDBRANCH 1 2
BRANCH 1 20
ATOM     20  CB  HIS E   2      13.130 -10.894   5.823  1.00 18.36 LIG 0.10  C 
BRANCH 20 21
ATOM     21  CG  HIS E   2      11.668 -11.093   5.571  1.00 23.43 LIG 0.06  A 
ATOM     22  CD2 HIS E   2      10.681 -11.564   6.370  1.00 23.79 LIG 0.14  A 
ATOM     23 NE2  HIS E   2       9.524 -11.555   5.630  1.00 23.75 LIG-0.25  NA
ATOM     24  CE1 HIS E   2       9.791 -11.098   4.420  1.00 26.05 LIG 0.23  A 
ATOM     25 ND1  HIS E   2      11.080 -10.814   4.356  1.00 21.22 LIG-0.24  NA
ENDBRANCH 20 21
ENDBRANCH 1 20
BRANCH 1 26
ATOM     26  N   HIS E   2      13.991 -11.497   3.571  1.00 15.97 LIG-0.35  N 
ATOM     27 H    HIS E   2      13.920 -12.295   3.883  1.00 15.97 LIG 0.16  HD
ATOM     28  C   TRP E   1      14.148 -11.223   2.273  1.00 12.03 LIG 0.24  C 
ATOM     29 O    TRP E   1      14.207 -10.071   1.830  1.00 13.67 LIG-0.27  OA
BRANCH 28 30
ATOM     30  CA  TRP E   1      14.292 -12.420   1.340  1.00  9.26 LIG 0.18  C 
BRANCH 30 31
ATOM     31  N   TRP E   1      15.112 -13.501   1.891  1.00 13.05 LIG-0.35  N 
ATOM     32 H    TRP E   1      14.737 -14.273   1.843  1.00 13.05 LIG 0.16  HD
ATOM     33  C   ACE E   0      16.323 -13.315   2.416  1.00 12.60 LIG 0.21  C 
ATOM     34  CH3 ACE E   0      17.015 -14.561   2.928  1.00  6.27 LIG 0.12  C 
ATOM     35 O    ACE E   0      16.842 -12.202   2.477  1.00 15.02 LIG-0.27  OA
ENDBRANCH 30 31
BRANCH 30 36
ATOM     36  CB  TRP E   1      12.907 -12.952   0.989  1.00 10.27 LIG 0.07  C 
BRANCH 36 37
ATOM     37  CG  TRP E   1      12.626 -14.321   1.537  1.00  6.62 LIG-0.03  A 
ATOM     38  CD1 TRP E   1      13.009 -15.521   1.004  1.00  7.94 LIG 0.10  A 
ATOM     39  NE1 TRP E   1      12.562 -16.559   1.800  1.00 10.26 LIG-0.36  N 
ATOM     40  CE2 TRP E   1      11.873 -16.033   2.861  1.00  6.86 LIG 0.04  A 
ATOM     41 HE1  TRP E   1      12.695 -17.397   1.654  1.00 10.26 LIG 0.17  HD
ATOM     42  CZ2 TRP E   1      11.236 -16.671   3.927  1.00  8.31 LIG 0.03  A 
ATOM     43  CD2 TRP E   1      11.894 -14.624   2.726  1.00  9.88 LIG-0.00  A 
ATOM     44  CH2 TRP E   1      10.628 -15.875   4.865  1.00 13.27 LIG 0.00  A 
ATOM     45  CZ3 TRP E   1      10.631 -14.478   4.759  1.00 13.61 LIG 0.00  A 
ATOM     46  CE3 TRP E   1      11.262 -13.842   3.698  1.00 14.26 LIG 0.01  A 
ENDBRANCH 36 37
ENDBRANCH 30 36
ENDBRANCH 28 30
ENDBRANCH 1 26
TORSDOF 14
ENDMDL
MODEL 60
USER: ADFR SOLUTION from run 165
USER: SCORE 13.235584 LL:  -3.402 LR: -10.572 RR:   0.000 FEB:  -6.396
USER: RMSD 9.219440
USER: SEED 164
USER: STATUS no improvement in best in 42 clusters for 5 generations
USER: GENES 16
USER: genes 0 Translation |==|  0.51534 0.49788 0.67652
USER: genes 1 Rotation |==|  0.61582 0.50288 0.96496 0.64279
USER: genes 2 Torsion [N]-CA--C-[N] |==|  0.36127
USER: genes 3 Torsion [C]-N--CA-[C] |==|  0.67836
USER: genes 4 Torsion [N]-CA--C-[N] |==|  0.89445
USER: genes 5 Torsion [C]-N--CA-[C] |==|  0.57053
USER: genes 6 Torsion [N]-CA--C-[N] |==|  0.42409
USER: genes 7 Torsion [N]-CA--CB-[CG2] |==|  0.65765
USER: genes 8 Torsion [CA]-CB--OG1-[HG1] |==|  0.07208
USER: genes 9 Torsion [C]-CA--CB-[CG] |==|  0.23264
USER: genes 10 Torsion [CA]-CB--CG-[ND1] |==|  0.53620
USER: genes 11 Torsion [C]-CA--N-[C] |==|  0.85125
USER: genes 12 Torsion [N]-C--CA-[N] |==|  0.29609
USER: genes 13 Torsion [C]-CA--N-[C] |==|  0.74218
USER: genes 14 Torsion [C]-CA--CB-[CG] |==|  0.53226
USER: genes 15 Torsion [CA]-CB--CG-[CD1] |==|  0.37972
ROOT
ATOM      1  CA  HIS E   2      15.455  -8.609   5.553  1.00 14.20 LIG 0.18  C 
ENDROOT
BRANCH 1 2
ATOM      2  C   HIS E   2      16.704  -8.817   4.702  1.00 15.34 LIG 0.24  C 
ATOM      3 O    HIS E   2      17.367  -9.856   4.775  1.00 13.21 LIG-0.27  OA
ATOM      4  N   THR E   3      17.034  -7.797   3.911  1.00 14.85 LIG-0.34  N 
ATOM      5 H    THR E   3      16.559  -7.087   3.811  1.00 14.85 LIG 0.16  HD
BRANCH 4 6
ATOM      6  CA  THR E   3      18.268  -7.819   3.134  1.00 13.22 LIG 0.20  C 
BRANCH 6 7
ATOM      7  C   THR E   3      19.211  -6.713   3.592  1.00 13.63 LIG 0.24  C 
ATOM      8  N   ALA E   4      18.642  -5.554   3.921  1.00  8.98 LIG-0.35  N 
ATOM      9 H    ALA E   4      17.796  -5.406   3.883  1.00  8.98 LIG 0.16  HD
ATOM     10 O    THR E   3      20.430  -6.898   3.640  1.00 14.15 LIG-0.27  OA
BRANCH 8 11
ATOM     11  CA  ALA E   4      19.436  -4.418   4.383  1.00 15.48 LIG 0.18  C 
ATOM     12  CB  ALA E   4      20.025  -3.671   3.199  1.00 13.80 LIG 0.04  C 
BRANCH 11 13
ATOM     13  C   ALA E   4      18.629  -3.460   5.263  1.00 23.80 LIG 0.28  C 
ATOM     14 O    ALA E   4      17.406  -3.372   5.134  1.00 30.75 LIG-0.27  OA
ATOM     15  N   NH2 E 101      19.307  -2.751   6.162  1.00 22.73 LIG-0.11  N 
ENDBRANCH 11 13
ENDBRANCH 8 11
ENDBRANCH 6 7
BRANCH 6 16
ATOM     16  CB  THR E   3      17.963  -7.652   1.646  1.00 20.99 LIG 0.15  C 
ATOM     17  CG2 THR E   3      18.531  -8.828   0.851  1.00 14.08 LIG 0.04  C 
BRANCH 16 18
ATOM     18 OG1  THR E   3      16.547  -7.589   1.458  1.00 27.33 LIG-0.39  OA
ATOM     19 HG1  THR E   3      16.184  -7.304   2.160  1.00 27.33 LIG 0.21  HD
ENDBRANCH 16 18
ENDBRANCH 6 16
ENDBRANCH 4 6
ENDBRANCH 1 2
BRANCH 1 20
ATOM     20  CB  HIS E   2      15.879  -8.389   7.011  1.00 18.36 LIG 0.10  C 
BRANCH 20 21
ATOM     21  CG  HIS E   2      16.262  -6.978   7.332  1.00 23.43 LIG 0.06  A 
ATOM     22  CD2 HIS E   2      16.106  -5.830   6.631  1.00 23.79 LIG 0.14  A 
ATOM     23 NE2  HIS E   2      16.656  -4.821   7.382  1.00 23.75 LIG-0.25  NA
ATOM     24  CE1 HIS E   2      17.134  -5.330   8.503  1.00 26.05 LIG 0.23  A 
ATOM     25 ND1  HIS E   2      16.912  -6.633   8.497  1.00 21.22 LIG-0.24  NA
ENDBRANCH 20 21
ENDBRANCH 1 20
BRANCH 1 26
ATOM     26  N   HIS E   2      14.562  -9.755   5.405  1.00 15.97 LIG-0.35  N 
ATOM     27 H    HIS E   2      14.329 -10.115   6.150  1.00 15.97 LIG 0.16  HD
ATOM     28  C   TRP E   1      14.152 -10.192   4.213  1.00 12.03 LIG 0.24  C 
ATOM     29 O    TRP E   1      14.459  -9.641   3.150  1.00 13.67 LIG-0.27  OA
BRANCH 28 30
ATOM     30  CA  TRP E   1      13.298 -11.455   4.210  1.00  9.26 LIG 0.18  C 
BRANCH 30 31
ATOM     31  N   TRP E   1      11.882 -11.207   3.929  1.00 13.05 LIG-0.35  N 
ATOM     32 H    TRP E   1      11.696 -11.203   3.089  1.00 13.05 LIG 0.16  HD
ATOM     33  C   ACE E   0      10.966 -11.007   4.875  1.00 12.60 LIG 0.21  C 
ATOM     34  CH3 ACE E   0       9.552 -10.773   4.383  1.00  6.27 LIG 0.12  C 
ATOM     35 O    ACE E   0      11.252 -11.014   6.072  1.00 15.02 LIG-0.27  OA
ENDBRANCH 30 31
BRANCH 30 36
ATOM     36  CB  TRP E   1      13.861 -12.440   3.190  1.00 10.27 LIG 0.07  C 
BRANCH 36 37
ATOM     37  CG  TRP E   1      12.951 -13.599   2.900  1.00  6.62 LIG-0.03  A 
ATOM     38  CD1 TRP E   1      12.662 -14.138   1.678  1.00  7.94 LIG 0.10  A 
ATOM     39  NE1 TRP E   1      11.783 -15.197   1.821  1.00 10.26 LIG-0.36  N 
ATOM     40  CE2 TRP E   1      11.489 -15.345   3.151  1.00  6.86 LIG 0.04  A 
ATOM     41 HE1  TRP E   1      11.473 -15.681   1.181  1.00 10.26 LIG 0.17  HD
ATOM     42  CZ2 TRP E   1      10.656 -16.264   3.792  1.00  8.31 LIG 0.03  A 
ATOM     43  CD2 TRP E   1      12.209 -14.353   3.860  1.00  9.88 LIG-0.00  A 
ATOM     44  CH2 TRP E   1      10.563 -16.183   5.159  1.00 13.27 LIG 0.00  A 
ATOM     45  CZ3 TRP E   1      11.261 -15.212   5.888  1.00 13.61 LIG 0.00  A 
ATOM     46  CE3 TRP E   1      12.088 -14.296   5.252  1.00 14.26 LIG 0.01  A 
ENDBRANCH 36 37
ENDBRANCH 30 36
ENDBRANCH 28 30
ENDBRANCH 1 26
TORSDOF 14
ENDMDL
MODEL 61
USER: ADFR SOLUTION from run 103
USER: SCORE 13.731586 LL:  -3.592 LR: -10.552 RR:   0.000 FEB:  -6.376
USER: RMSD 7.673739
USER: SEED 102
USER: STATUS no improvement in best in 20 clusters for 5 generations
USER: GENES 16
USER: genes 0 Translation |==|  0.61541 0.65837 0.55189
USER: genes 1 Rotation |==|  0.79814 0.64756 0.85124 0.62639
USER: genes 2 Torsion [N]-CA--C-[N] |==|  0.07493
USER: genes 3 Torsion [C]-N--CA-[C] |==|  0.79444
USER: genes 4 Torsion [N]-CA--C-[N] |==|  0.93914
USER: genes 5 Torsion [C]-N--CA-[C] |==|  0.75029
USER: genes 6 Torsion [N]-CA--C-[N] |==|  0.23514
USER: genes 7 Torsion [N]-CA--CB-[CG2] |==|  0.72503
USER: genes 8 Torsion [CA]-CB--OG1-[HG1] |==|  0.03661
USER: genes 9 Torsion [C]-CA--CB-[CG] |==|  0.49273
USER: genes 10 Torsion [CA]-CB--CG-[ND1] |==|  0.99932
USER: genes 11 Torsion [C]-CA--N-[C] |==|  0.17755
USER: genes 12 Torsion [N]-C--CA-[N] |==|  0.94887
USER: genes 13 Torsion [C]-CA--N-[C] |==|  0.80070
USER: genes 14 Torsion [C]-CA--CB-[CG] |==|  0.60503
USER: genes 15 Torsion [CA]-CB--CG-[CD1] |==|  0.86692
ROOT
ATOM      1  CA  HIS E   2      17.407  -5.239   3.403  1.00 14.20 LIG 0.18  C 
ENDROOT
BRANCH 1 2
ATOM      2  C   HIS E   2      17.442  -5.817   1.991  1.00 15.34 LIG 0.24  C 
ATOM      3 O    HIS E   2      18.148  -5.317   1.110  1.00 13.21 LIG-0.27  OA
ATOM      4  N   THR E   3      16.645  -6.864   1.781  1.00 14.85 LIG-0.34  N 
ATOM      5 H    THR E   3      16.185  -7.253   2.393  1.00 14.85 LIG 0.16  HD
BRANCH 4 6
ATOM      6  CA  THR E   3      16.497  -7.437   0.448  1.00 13.22 LIG 0.20  C 
BRANCH 6 7
ATOM      7  C   THR E   3      15.644  -6.532  -0.433  1.00 13.63 LIG 0.24  C 
ATOM      8  N   ALA E   4      14.835  -5.686   0.201  1.00  8.98 LIG-0.35  N 
ATOM      9 H    ALA E   4      14.771  -5.632   1.057  1.00  8.98 LIG 0.16  HD
ATOM     10 O    THR E   3      15.708  -6.602  -1.664  1.00 14.15 LIG-0.27  OA
BRANCH 8 11
ATOM     11  CA  ALA E   4      13.972  -4.760  -0.530  1.00 15.48 LIG 0.18  C 
ATOM     12  CB  ALA E   4      12.676  -4.538   0.229  1.00 13.80 LIG 0.04  C 
BRANCH 11 13
ATOM     13  C   ALA E   4      14.657  -3.419  -0.809  1.00 23.80 LIG 0.28  C 
ATOM     14 O    ALA E   4      14.494  -2.463  -0.049  1.00 30.75 LIG-0.27  OA
ATOM     15  N   NH2 E 101      15.430  -3.351  -1.890  1.00 22.73 LIG-0.11  N 
ENDBRANCH 11 13
ENDBRANCH 8 11
ENDBRANCH 6 7
BRANCH 6 16
ATOM     16  CB  THR E   3      15.859  -8.823   0.533  1.00 20.99 LIG 0.15  C 
ATOM     17  CG2 THR E   3      16.931  -9.909   0.447  1.00 14.08 LIG 0.04  C 
BRANCH 16 18
ATOM     18 OG1  THR E   3      15.155  -8.943   1.771  1.00 27.33 LIG-0.39  OA
ATOM     19 HG1  THR E   3      15.076  -8.185   2.124  1.00 27.33 LIG 0.21  HD
ENDBRANCH 16 18
ENDBRANCH 6 16
ENDBRANCH 4 6
ENDBRANCH 1 2
BRANCH 1 20
ATOM     20  CB  HIS E   2      18.778  -4.629   3.725  1.00 18.36 LIG 0.10  C 
BRANCH 20 21
ATOM     21  CG  HIS E   2      18.856  -3.970   5.067  1.00 23.43 LIG 0.06  A 
ATOM     22  CD2 HIS E   2      19.886  -3.359   5.701  1.00 23.79 LIG 0.14  A 
ATOM     23 NE2  HIS E   2      19.417  -2.946   6.924  1.00 23.75 LIG-0.25  NA
ATOM     24  CE1 HIS E   2      18.147  -3.292   7.037  1.00 26.05 LIG 0.23  A 
ATOM     25 ND1  HIS E   2      17.784  -3.916   5.930  1.00 21.22 LIG-0.24  NA
ENDBRANCH 20 21
ENDBRANCH 1 20
BRANCH 1 26
ATOM     26  N   HIS E   2      17.031  -6.282   4.353  1.00 15.97 LIG-0.35  N 
ATOM     27 H    HIS E   2      16.284  -6.138   4.754  1.00 15.97 LIG 0.16  HD
ATOM     28  C   TRP E   1      17.790  -7.359   4.569  1.00 12.03 LIG 0.24  C 
ATOM     29 O    TRP E   1      18.840  -7.578   3.956  1.00 13.67 LIG-0.27  OA
BRANCH 28 30
ATOM     30  CA  TRP E   1      17.315  -8.316   5.657  1.00  9.26 LIG 0.18  C 
BRANCH 30 31
ATOM     31  N   TRP E   1      16.352  -7.720   6.586  1.00 13.05 LIG-0.35  N 
ATOM     32 H    TRP E   1      15.551  -8.017   6.486  1.00 13.05 LIG 0.16  HD
ATOM     33  C   ACE E   0      16.677  -6.807   7.500  1.00 12.60 LIG 0.21  C 
ATOM     34  CH3 ACE E   0      15.539  -6.316   8.372  1.00  6.27 LIG 0.12  C 
ATOM     35 O    ACE E   0      17.828  -6.392   7.627  1.00 15.02 LIG-0.27  OA
ENDBRANCH 30 31
BRANCH 30 36
ATOM     36  CB  TRP E   1      16.705  -9.553   5.006  1.00 10.27 LIG 0.07  C 
BRANCH 36 37
ATOM     37  CG  TRP E   1      15.501 -10.086   5.727  1.00  6.62 LIG-0.03  A 
ATOM     38  CD1 TRP E   1      15.376 -10.320   7.069  1.00  7.94 LIG 0.10  A 
ATOM     39  NE1 TRP E   1      14.114 -10.811   7.350  1.00 10.26 LIG-0.36  N 
ATOM     40  CE2 TRP E   1      13.409 -10.907   6.179  1.00  6.86 LIG 0.04  A 
ATOM     41 HE1  TRP E   1      13.820 -11.021   8.131  1.00 10.26 LIG 0.17  HD
ATOM     42  CZ2 TRP E   1      12.105 -11.347   5.945  1.00  8.31 LIG 0.03  A 
ATOM     43  CD2 TRP E   1      14.255 -10.458   5.136  1.00  9.88 LIG-0.00  A 
ATOM     44  CH2 TRP E   1      11.654 -11.319   4.650  1.00 13.27 LIG 0.00  A 
ATOM     45  CZ3 TRP E   1      12.467 -10.882   3.595  1.00 13.61 LIG 0.00  A 
ATOM     46  CE3 TRP E   1      13.765 -10.447   3.826  1.00 14.26 LIG 0.01  A 
ENDBRANCH 36 37
ENDBRANCH 30 36
ENDBRANCH 28 30
ENDBRANCH 1 26
TORSDOF 14
ENDMDL
MODEL 62
USER: ADFR SOLUTION from run 117
USER: SCORE 12.698039 LL:  -2.849 LR: -10.549 RR:   0.000 FEB:  -6.373
USER: RMSD 8.660598
USER: SEED 116
USER: STATUS no improvement in best in 15 clusters for 5 generations
USER: GENES 16
USER: genes 0 Translation |==|  0.52001 0.46353 0.48860
USER: genes 1 Rotation |==|  0.23498 0.58477 0.08557 0.52879
USER: genes 2 Torsion [N]-CA--C-[N] |==|  0.51111
USER: genes 3 Torsion [C]-N--CA-[C] |==|  0.17770
USER: genes 4 Torsion [N]-CA--C-[N] |==|  0.11397
USER: genes 5 Torsion [C]-N--CA-[C] |==|  0.81888
USER: genes 6 Torsion [N]-CA--C-[N] |==|  0.92763
USER: genes 7 Torsion [N]-CA--CB-[CG2] |==|  0.56043
USER: genes 8 Torsion [CA]-CB--OG1-[HG1] |==|  0.22312
USER: genes 9 Torsion [C]-CA--CB-[CG] |==|  0.26972
USER: genes 10 Torsion [CA]-CB--CG-[ND1] |==|  0.74371
USER: genes 11 Torsion [C]-CA--N-[C] |==|  0.62572
USER: genes 12 Torsion [N]-C--CA-[N] |==|  0.45913
USER: genes 13 Torsion [C]-CA--N-[C] |==|  0.69056
USER: genes 14 Torsion [C]-CA--CB-[CG] |==|  0.48838
USER: genes 15 Torsion [CA]-CB--CG-[CD1] |==|  0.92063
ROOT
ATOM      1  CA  HIS E   2      15.546  -9.331   2.311  1.00 14.20 LIG 0.18  C 
ENDROOT
BRANCH 1 2
ATOM      2  C   HIS E   2      16.023  -8.338   1.256  1.00 15.34 LIG 0.24  C 
ATOM      3 O    HIS E   2      15.953  -8.598   0.050  1.00 13.21 LIG-0.27  OA
ATOM      4  N   THR E   3      16.538  -7.204   1.728  1.00 14.85 LIG-0.34  N 
ATOM      5 H    THR E   3      16.551  -6.986   2.560  1.00 14.85 LIG 0.16  HD
BRANCH 4 6
ATOM      6  CA  THR E   3      17.137  -6.222   0.831  1.00 13.22 LIG 0.20  C 
BRANCH 6 7
ATOM      7  C   THR E   3      16.091  -5.656  -0.121  1.00 13.63 LIG 0.24  C 
ATOM      8  N   ALA E   4      14.897  -5.391   0.406  1.00  8.98 LIG-0.35  N 
ATOM      9 H    ALA E   4      14.696  -5.525   1.232  1.00  8.98 LIG 0.16  HD
ATOM     10 O    THR E   3      16.352  -5.469  -1.313  1.00 14.15 LIG-0.27  OA
BRANCH 8 11
ATOM     11  CA  ALA E   4      13.811  -4.838  -0.400  1.00 15.48 LIG 0.18  C 
ATOM     12  CB  ALA E   4      12.516  -4.835   0.394  1.00 13.80 LIG 0.04  C 
BRANCH 11 13
ATOM     13  C   ALA E   4      14.121  -3.428  -0.911  1.00 23.80 LIG 0.28  C 
ATOM     14 O    ALA E   4      13.586  -3.003  -1.936  1.00 30.75 LIG-0.27  OA
ATOM     15  N   NH2 E 101      14.974  -2.703  -0.193  1.00 22.73 LIG-0.11  N 
ENDBRANCH 11 13
ENDBRANCH 8 11
ENDBRANCH 6 7
BRANCH 6 16
ATOM     16  CB  THR E   3      18.273  -6.856   0.030  1.00 20.99 LIG 0.15  C 
ATOM     17  CG2 THR E   3      19.229  -5.779  -0.484  1.00 14.08 LIG 0.04  C 
BRANCH 16 18
ATOM     18 OG1  THR E   3      18.988  -7.769   0.866  1.00 27.33 LIG-0.39  OA
ATOM     19 HG1  THR E   3      18.569  -8.495   0.911  1.00 27.33 LIG 0.21  HD
ENDBRANCH 16 18
ENDBRANCH 6 16
ENDBRANCH 4 6
ENDBRANCH 1 2
BRANCH 1 20
ATOM     20  CB  HIS E   2      16.687  -9.584   3.306  1.00 18.36 LIG 0.10  C 
BRANCH 20 21
ATOM     21  CG  HIS E   2      16.604  -8.764   4.556  1.00 23.43 LIG 0.06  A 
ATOM     22  CD2 HIS E   2      15.952  -8.982   5.723  1.00 23.79 LIG 0.14  A 
ATOM     23 NE2  HIS E   2      16.197  -7.898   6.530  1.00 23.75 LIG-0.25  NA
ATOM     24  CE1 HIS E   2      16.970  -7.045   5.882  1.00 26.05 LIG 0.23  A 
ATOM     25 ND1  HIS E   2      17.228  -7.542   4.685  1.00 21.22 LIG-0.24  NA
ENDBRANCH 20 21
ENDBRANCH 1 20
BRANCH 1 26
ATOM     26  N   HIS E   2      15.096 -10.560   1.665  1.00 15.97 LIG-0.35  N 
ATOM     27 H    HIS E   2      15.626 -10.848   1.052  1.00 15.97 LIG 0.16  HD
ATOM     28  C   TRP E   1      13.959 -11.171   2.005  1.00 12.03 LIG 0.24  C 
ATOM     29 O    TRP E   1      13.225 -10.772   2.916  1.00 13.67 LIG-0.27  OA
BRANCH 28 30
ATOM     30  CA  TRP E   1      13.572 -12.393   1.179  1.00  9.26 LIG 0.18  C 
BRANCH 30 31
ATOM     31  N   TRP E   1      12.524 -13.211   1.793  1.00 13.05 LIG-0.35  N 
ATOM     32 H    TRP E   1      11.757 -12.825   1.814  1.00 13.05 LIG 0.16  HD
ATOM     33  C   ACE E   0      12.733 -14.436   2.275  1.00 12.60 LIG 0.21  C 
ATOM     34  CH3 ACE E   0      11.520 -15.125   2.867  1.00  6.27 LIG 0.12  C 
ATOM     35 O    ACE E   0      13.840 -14.971   2.239  1.00 15.02 LIG-0.27  OA
ENDBRANCH 30 31
BRANCH 30 36
ATOM     36  CB  TRP E   1      13.125 -11.940  -0.207  1.00 10.27 LIG 0.07  C 
BRANCH 36 37
ATOM     37  CG  TRP E   1      12.813 -13.071  -1.144  1.00  6.62 LIG-0.03  A 
ATOM     38  CD1 TRP E   1      13.355 -14.327  -1.135  1.00  7.94 LIG 0.10  A 
ATOM     39  NE1 TRP E   1      12.812 -15.086  -2.155  1.00 10.26 LIG-0.36  N 
ATOM     40  CE2 TRP E   1      11.911 -14.316  -2.843  1.00  6.86 LIG 0.04  A 
ATOM     41 HE1  TRP E   1      13.007 -15.906  -2.329  1.00 10.26 LIG 0.17  HD
ATOM     42  CZ2 TRP E   1      11.116 -14.630  -3.947  1.00  8.31 LIG 0.03  A 
ATOM     43  CD2 TRP E   1      11.888 -13.040  -2.232  1.00  9.88 LIG-0.00  A 
ATOM     44  CH2 TRP E   1      10.284 -13.648  -4.423  1.00 13.27 LIG 0.00  A 
ATOM     45  CZ3 TRP E   1      10.239 -12.374  -3.841  1.00 13.61 LIG 0.00  A 
ATOM     46  CE3 TRP E   1      11.032 -12.059  -2.745  1.00 14.26 LIG 0.01  A 
ENDBRANCH 36 37
ENDBRANCH 30 36
ENDBRANCH 28 30
ENDBRANCH 1 26
TORSDOF 14
ENDMDL
MODEL 63
USER: ADFR SOLUTION from run 116
USER: SCORE 12.205463 LL:  -2.923 LR: -10.543 RR:   0.000 FEB:  -6.367
USER: RMSD 9.242727
USER: SEED 115
USER: STATUS no improvement in best in 12 clusters for 5 generations
USER: GENES 16
USER: genes 0 Translation |==|  0.40705 0.35622 0.49164
USER: genes 1 Rotation |==|  0.48848 0.59556 0.02078 0.60528
USER: genes 2 Torsion [N]-CA--C-[N] |==|  0.08936
USER: genes 3 Torsion [C]-N--CA-[C] |==|  0.67951
USER: genes 4 Torsion [N]-CA--C-[N] |==|  0.31262
USER: genes 5 Torsion [C]-N--CA-[C] |==|  0.70622
USER: genes 6 Torsion [N]-CA--C-[N] |==|  0.00372
USER: genes 7 Torsion [N]-CA--CB-[CG2] |==|  0.66094
USER: genes 8 Torsion [CA]-CB--OG1-[HG1] |==|  0.31858
USER: genes 9 Torsion [C]-CA--CB-[CG] |==|  0.34022
USER: genes 10 Torsion [CA]-CB--CG-[ND1] |==|  0.82082
USER: genes 11 Torsion [C]-CA--N-[C] |==|  0.55597
USER: genes 12 Torsion [N]-C--CA-[N] |==|  0.44043
USER: genes 13 Torsion [C]-CA--N-[C] |==|  0.60696
USER: genes 14 Torsion [C]-CA--CB-[CG] |==|  0.85119
USER: genes 15 Torsion [CA]-CB--CG-[CD1] |==|  0.21582
ROOT
ATOM      1  CA  HIS E   2      13.344 -11.584   2.364  1.00 14.20 LIG 0.18  C 
ENDROOT
BRANCH 1 2
ATOM      2  C   HIS E   2      14.341 -10.435   2.465  1.00 15.34 LIG 0.24  C 
ATOM      3 O    HIS E   2      14.434  -9.751   3.489  1.00 13.21 LIG-0.27  OA
ATOM      4  N   THR E   3      15.070 -10.211   1.372  1.00 14.85 LIG-0.34  N 
ATOM      5 H    THR E   3      15.053 -10.705   0.668  1.00 14.85 LIG 0.16  HD
BRANCH 4 6
ATOM      6  CA  THR E   3      15.976  -9.071   1.295  1.00 13.22 LIG 0.20  C 
BRANCH 6 7
ATOM      7  C   THR E   3      15.521  -8.095   0.216  1.00 13.63 LIG 0.24  C 
ATOM      8  N   ALA E   4      15.088  -6.910   0.640  1.00  8.98 LIG-0.35  N 
ATOM      9 H    ALA E   4      15.051  -6.679   1.467  1.00  8.98 LIG 0.16  HD
ATOM     10 O    THR E   3      15.553  -8.409  -0.977  1.00 14.15 LIG-0.27  OA
BRANCH 8 11
ATOM     11  CA  ALA E   4      14.633  -5.883  -0.296  1.00 15.48 LIG 0.18  C 
ATOM     12  CB  ALA E   4      13.288  -5.331   0.143  1.00 13.80 LIG 0.04  C 
BRANCH 11 13
ATOM     13  C   ALA E   4      15.646  -4.746  -0.455  1.00 23.80 LIG 0.28  C 
ATOM     14 O    ALA E   4      15.396  -3.784  -1.184  1.00 30.75 LIG-0.27  OA
ATOM     15  N   NH2 E 101      16.779  -4.849   0.233  1.00 22.73 LIG-0.11  N 
ENDBRANCH 11 13
ENDBRANCH 8 11
ENDBRANCH 6 7
BRANCH 6 16
ATOM     16  CB  THR E   3      17.399  -9.541   0.997  1.00 20.99 LIG 0.15  C 
ATOM     17  CG2 THR E   3      18.355  -9.077   2.097  1.00 14.08 LIG 0.04  C 
BRANCH 16 18
ATOM     18 OG1  THR E   3      17.418 -10.969   0.921  1.00 27.33 LIG-0.39  OA
ATOM     19 HG1  THR E   3      17.610 -11.205   0.138  1.00 27.33 LIG 0.21  HD
ENDBRANCH 16 18
ENDBRANCH 6 16
ENDBRANCH 4 6
ENDBRANCH 1 2
BRANCH 1 20
ATOM     20  CB  HIS E   2      13.053 -12.115   3.774  1.00 18.36 LIG 0.10  C 
BRANCH 20 21
ATOM     21  CG  HIS E   2      11.607 -12.078   4.158  1.00 23.43 LIG 0.06  A 
ATOM     22  CD2 HIS E   2      10.726 -13.075   4.414  1.00 23.79 LIG 0.14  A 
ATOM     23 NE2  HIS E   2       9.520 -12.484   4.700  1.00 23.75 LIG-0.25  NA
ATOM     24  CE1 HIS E   2       9.655 -11.172   4.622  1.00 26.05 LIG 0.23  A 
ATOM     25 ND1  HIS E   2      10.905 -10.899   4.292  1.00 21.22 LIG-0.24  NA
ENDBRANCH 20 21
ENDBRANCH 1 20
BRANCH 1 26
ATOM     26  N   HIS E   2      13.873 -12.621   1.483  1.00 15.97 LIG-0.35  N 
ATOM     27 H    HIS E   2      14.726 -12.587   1.376  1.00 15.97 LIG 0.16  HD
ATOM     28  C   TRP E   1      13.091 -13.533   0.902  1.00 12.03 LIG 0.24  C 
ATOM     29 O    TRP E   1      11.873 -13.599   1.096  1.00 13.67 LIG-0.27  OA
BRANCH 28 30
ATOM     30  CA  TRP E   1      13.773 -14.494  -0.066  1.00  9.26 LIG 0.18  C 
BRANCH 30 31
ATOM     31  N   TRP E   1      13.030 -15.737  -0.283  1.00 13.05 LIG-0.35  N 
ATOM     32 H    TRP E   1      12.179 -15.625  -0.322  1.00 13.05 LIG 0.16  HD
ATOM     33  C   ACE E   0      13.610 -16.931  -0.410  1.00 12.60 LIG 0.21  C 
ATOM     34  CH3 ACE E   0      12.670 -18.097  -0.635  1.00  6.27 LIG 0.12  C 
ATOM     35 O    ACE E   0      14.830 -17.072  -0.349  1.00 15.02 LIG-0.27  OA
ENDBRANCH 30 31
BRANCH 30 36
ATOM     36  CB  TRP E   1      13.997 -13.788  -1.399  1.00 10.27 LIG 0.07  C 
BRANCH 36 37
ATOM     37  CG  TRP E   1      12.753 -13.181  -1.980  1.00  6.62 LIG-0.03  A 
ATOM     38  CD1 TRP E   1      12.148 -12.014  -1.604  1.00  7.94 LIG 0.10  A 
ATOM     39  NE1 TRP E   1      11.023 -11.790  -2.377  1.00 10.26 LIG-0.36  N 
ATOM     40  CE2 TRP E   1      10.887 -12.827  -3.263  1.00  6.86 LIG 0.04  A 
ATOM     41 HE1  TRP E   1      10.497 -11.113  -2.313  1.00 10.26 LIG 0.17  HD
ATOM     42  CZ2 TRP E   1       9.917 -13.055  -4.241  1.00  8.31 LIG 0.03  A 
ATOM     43  CD2 TRP E   1      11.961 -13.722  -3.039  1.00  9.88 LIG-0.00  A 
ATOM     44  CH2 TRP E   1      10.044 -14.190  -5.002  1.00 13.27 LIG 0.00  A 
ATOM     45  CZ3 TRP E   1      11.095 -15.095  -4.804  1.00 13.61 LIG 0.00  A 
ATOM     46  CE3 TRP E   1      12.060 -14.871  -3.830  1.00 14.26 LIG 0.01  A 
ENDBRANCH 36 37
ENDBRANCH 30 36
ENDBRANCH 28 30
ENDBRANCH 1 26
TORSDOF 14
ENDMDL
MODEL 64
USER: ADFR SOLUTION from run 73
USER: SCORE 13.928341 LL:  -3.701 LR: -10.541 RR:   0.000 FEB:  -6.365
USER: RMSD 2.644490
USER: SEED 72
USER: STATUS no improvement in best in 8 clusters for 5 generations
USER: GENES 16
USER: genes 0 Translation |==|  0.49946 0.40376 0.47207
USER: genes 1 Rotation |==|  0.54061 0.67677 0.43758 0.96174
USER: genes 2 Torsion [N]-CA--C-[N] |==|  0.42677
USER: genes 3 Torsion [C]-N--CA-[C] |==|  0.85875
USER: genes 4 Torsion [N]-CA--C-[N] |==|  0.89740
USER: genes 5 Torsion [C]-N--CA-[C] |==|  0.81111
USER: genes 6 Torsion [N]-CA--C-[N] |==|  0.95771
USER: genes 7 Torsion [N]-CA--CB-[CG2] |==|  0.43380
USER: genes 8 Torsion [CA]-CB--OG1-[HG1] |==|  0.79408
USER: genes 9 Torsion [C]-CA--CB-[CG] |==|  0.80438
USER: genes 10 Torsion [CA]-CB--CG-[ND1] |==|  0.94625
USER: genes 11 Torsion [C]-CA--N-[C] |==|  0.62347
USER: genes 12 Torsion [N]-C--CA-[N] |==|  0.13467
USER: genes 13 Torsion [C]-CA--N-[C] |==|  0.14849
USER: genes 14 Torsion [C]-CA--CB-[CG] |==|  0.43314
USER: genes 15 Torsion [CA]-CB--CG-[CD1] |==|  0.40701
ROOT
ATOM      1  CA  HIS E   2      15.145 -10.586   2.026  1.00 14.20 LIG 0.18  C 
ENDROOT
BRANCH 1 2
ATOM      2  C   HIS E   2      13.852 -10.881   2.780  1.00 15.34 LIG 0.24  C 
ATOM      3 O    HIS E   2      13.367 -10.065   3.570  1.00 13.21 LIG-0.27  OA
ATOM      4  N   THR E   3      13.315 -12.078   2.548  1.00 14.85 LIG-0.34  N 
ATOM      5 H    THR E   3      13.612 -12.639   1.967  1.00 14.85 LIG 0.16  HD
BRANCH 4 6
ATOM      6  CA  THR E   3      12.144 -12.532   3.291  1.00 13.22 LIG 0.20  C 
BRANCH 6 7
ATOM      7  C   THR E   3      12.364 -12.369   4.790  1.00 13.63 LIG 0.24  C 
ATOM      8  N   ALA E   4      13.596 -12.613   5.233  1.00  8.98 LIG-0.35  N 
ATOM      9 H    ALA E   4      14.250 -12.855   4.729  1.00  8.98 LIG 0.16  HD
ATOM     10 O    THR E   3      11.438 -12.038   5.535  1.00 14.15 LIG-0.27  OA
BRANCH 8 11
ATOM     11  CA  ALA E   4      13.938 -12.485   6.649  1.00 15.48 LIG 0.18  C 
ATOM     12  CB  ALA E   4      15.308 -13.084   6.915  1.00 13.80 LIG 0.04  C 
BRANCH 11 13
ATOM     13  C   ALA E   4      13.894 -11.033   7.132  1.00 23.80 LIG 0.28  C 
ATOM     14 O    ALA E   4      13.888 -10.774   8.337  1.00 30.75 LIG-0.27  OA
ATOM     15  N   NH2 E 101      13.873 -10.088   6.195  1.00 22.73 LIG-0.11  N 
ENDBRANCH 11 13
ENDBRANCH 8 11
ENDBRANCH 6 7
BRANCH 6 16
ATOM     16  CB  THR E   3      11.844 -13.995   2.970  1.00 20.99 LIG 0.15  C 
ATOM     17  CG2 THR E   3      11.055 -14.640   4.109  1.00 14.08 LIG 0.04  C 
BRANCH 16 18
ATOM     18 OG1  THR E   3      11.083 -14.067   1.762  1.00 27.33 LIG-0.39  OA
ATOM     19 HG1  THR E   3      10.294 -13.821   1.913  1.00 27.33 LIG 0.21  HD
ENDBRANCH 16 18
ENDBRANCH 6 16
ENDBRANCH 4 6
ENDBRANCH 1 2
BRANCH 1 20
ATOM     20  CB  HIS E   2      16.321 -11.200   2.798  1.00 18.36 LIG 0.10  C 
BRANCH 20 21
ATOM     21  CG  HIS E   2      16.638 -10.507   4.087  1.00 23.43 LIG 0.06  A 
ATOM     22  CD2 HIS E   2      17.310 -10.929   5.184  1.00 23.79 LIG 0.14  A 
ATOM     23 NE2  HIS E   2      17.292  -9.896   6.090  1.00 23.75 LIG-0.25  NA
ATOM     24  CE1 HIS E   2      16.631  -8.878   5.568  1.00 26.05 LIG 0.23  A 
ATOM     25 ND1  HIS E   2      16.222  -9.221   4.359  1.00 21.22 LIG-0.24  NA
ENDBRANCH 20 21
ENDBRANCH 1 20
BRANCH 1 26
ATOM     26  N   HIS E   2      15.294  -9.145   1.849  1.00 15.97 LIG-0.35  N 
ATOM     27 H    HIS E   2      15.117  -8.685   2.553  1.00 15.97 LIG 0.16  HD
ATOM     28  C   TRP E   1      15.673  -8.603   0.689  1.00 12.03 LIG 0.24  C 
ATOM     29 O    TRP E   1      15.967  -9.275  -0.305  1.00 13.67 LIG-0.27  OA
BRANCH 28 30
ATOM     30  CA  TRP E   1      15.694  -7.080   0.626  1.00  9.26 LIG 0.18  C 
BRANCH 30 31
ATOM     31  N   TRP E   1      16.381  -6.454   1.758  1.00 13.05 LIG-0.35  N 
ATOM     32 H    TRP E   1      15.906  -5.862   2.163  1.00 13.05 LIG 0.16  HD
ATOM     33  C   ACE E   0      17.623  -6.764   2.131  1.00 12.60 LIG 0.21  C 
ATOM     34  CH3 ACE E   0      18.157  -6.010   3.330  1.00  6.27 LIG 0.12  C 
ATOM     35 O    ACE E   0      18.289  -7.611   1.537  1.00 15.02 LIG-0.27  OA
ENDBRANCH 30 31
BRANCH 30 36
ATOM     36  CB  TRP E   1      16.347  -6.640  -0.680  1.00 10.27 LIG 0.07  C 
BRANCH 36 37
ATOM     37  CG  TRP E   1      15.938  -5.268  -1.131  1.00  6.62 LIG-0.03  A 
ATOM     38  CD1 TRP E   1      16.704  -4.354  -1.801  1.00  7.94 LIG 0.10  A 
ATOM     39  NE1 TRP E   1      15.972  -3.206  -2.042  1.00 10.26 LIG-0.36  N 
ATOM     40  CE2 TRP E   1      14.716  -3.368  -1.516  1.00  6.86 LIG 0.04  A 
ATOM     41 HE1  TRP E   1      16.257  -2.506  -2.453  1.00 10.26 LIG 0.17  HD
ATOM     42  CZ2 TRP E   1      13.626  -2.496  -1.503  1.00  8.31 LIG 0.03  A 
ATOM     43  CD2 TRP E   1      14.662  -4.657  -0.934  1.00  9.88 LIG-0.00  A 
ATOM     44  CH2 TRP E   1      12.472  -2.940  -0.908  1.00 13.27 LIG 0.00  A 
ATOM     45  CZ3 TRP E   1      12.387  -4.210  -0.322  1.00 13.61 LIG 0.00  A 
ATOM     46  CE3 TRP E   1      13.471  -5.077  -0.332  1.00 14.26 LIG 0.01  A 
ENDBRANCH 36 37
ENDBRANCH 30 36
ENDBRANCH 28 30
ENDBRANCH 1 26
TORSDOF 14
ENDMDL
