MODEL 1
USER: ADFR SOLUTION from run 65
USER: SCORE 11.997112 LL:  -2.604 LR: -11.259 RR:   0.000 FEB:  -7.679
USER: RMSD 4.929914
USER: SEED 64
USER: STATUS no improvement in best in 32 clusters for 5 generations
USER: GENES 14
USER: genes 0 Translation |==|  0.47683 0.56394 0.50865
USER: genes 1 Rotation |==|  0.30731 0.61110 0.43966 0.94372
USER: genes 2 Torsion [CB]-CA--N-[C] |==|  0.54775
USER: genes 3 Torsion [N]-C--CA-[N] |==|  0.31574
USER: genes 4 Torsion [C]-CA--CB-[CG] |==|  0.43280
USER: genes 5 Torsion [CA]-CB--CG-[CD1] |==|  0.21394
USER: genes 6 Torsion [C]-CA--N-[C] |==|  0.62646
USER: genes 7 Torsion [N]-CA--C-[N] |==|  0.33608
USER: genes 8 Torsion [C]-N--CA-[CB] |==|  0.84984
USER: genes 9 Torsion [N]-CA--C-[N] |==|  0.51111
USER: genes 10 Torsion [C]-N--CA-[C] |==|  0.63989
USER: genes 11 Torsion [N]-CA--C-[N] |==|  0.28733
USER: genes 12 Torsion [N]-CA--CB-[CG] |==|  0.37779
USER: genes 13 Torsion [CA]-CB--CG-[CD2] |==|  0.21859
ROOT
ATOM      1  CA  HIS C   2      12.152  23.031  31.030  1.00 10.06 LIG 0.18  C 
ENDROOT
BRANCH 1 2
ATOM      2  N   HIS C   2      13.071  21.946  31.373  1.00  9.48 LIG-0.35  N 
ATOM      3 H    HIS C   2      13.900  22.174  31.365  1.00  9.48 LIG 0.16  HD
ATOM      4  C   PHE C   1      12.651  20.724  31.671  1.00  9.37 LIG 0.24  C 
ATOM      5 O    PHE C   1      11.466  20.421  31.762  1.00 11.27 LIG-0.27  OA
BRANCH 4 6
ATOM      6  CA  PHE C   1      13.734  19.685  31.873  1.00  8.68 LIG 0.18  C 
BRANCH 6 7
ATOM      7  CB  PHE C   1      13.467  18.517  30.925  1.00  8.30 LIG 0.07  C 
BRANCH 7 8
ATOM      8  CG  PHE C   1      14.693  17.719  30.592  1.00  6.80 LIG-0.06  A 
ATOM      9  CD1 PHE C   1      15.217  16.810  31.501  1.00  6.68 LIG 0.01  A 
ATOM     10  CE1 PHE C   1      16.340  16.069  31.182  1.00  6.85 LIG 0.00  A 
ATOM     11  CZ  PHE C   1      16.958  16.237  29.963  1.00  6.56 LIG 0.00  A 
ATOM     12  CE2 PHE C   1      16.451  17.141  29.047  1.00  6.82 LIG 0.00  A 
ATOM     13  CD2 PHE C   1      15.321  17.874  29.364  1.00  7.43 LIG 0.01  A 
ENDBRANCH 7 8
ENDBRANCH 6 7
BRANCH 6 14
ATOM     14  N   PHE C   1      13.773  19.224  33.263  1.00  9.64 LIG-0.35  N 
ATOM     15 H    PHE C   1      13.002  19.044  33.601  1.00  9.64 LIG 0.16  HD
ATOM     16  C   ACE C   0      14.920  19.103  33.923  1.00 12.10 LIG 0.21  C 
ATOM     17  CH3 ACE C   0      14.816  18.688  35.362  1.00 13.09 LIG 0.12  C 
ATOM     18 O    ACE C   0      16.006  19.337  33.392  1.00 13.69 LIG-0.27  OA
ENDBRANCH 6 14
ENDBRANCH 4 6
ENDBRANCH 1 2
BRANCH 1 19
ATOM     19  C   HIS C   2      11.101  22.509  30.073  1.00  9.05 LIG 0.24  C 
ATOM     20  N   ALA C   3       9.838  22.603  30.463  1.00  9.24 LIG-0.35  N 
ATOM     21 H    ALA C   3       9.585  22.869  31.241  1.00  9.24 LIG 0.16  HD
ATOM     22 O    HIS C   2      11.421  22.064  28.977  1.00  8.29 LIG-0.27  OA
BRANCH 20 23
ATOM     23  CA  ALA C   3       8.756  22.244  29.551  1.00  8.91 LIG 0.17  C 
ATOM     24  CB  ALA C   3       8.882  23.008  28.244  1.00  9.99 LIG 0.04  C 
BRANCH 23 25
ATOM     25  C   ALA C   3       8.771  20.737  29.284  1.00  9.36 LIG 0.24  C 
ATOM     26  N   ALA C   4       7.885  20.289  28.401  1.00  9.08 LIG-0.35  N 
ATOM     27 H    ALA C   4       7.390  20.799  27.917  1.00  9.08 LIG 0.16  HD
ATOM     28 O    ALA C   3       9.588  19.998  29.850  1.00  9.90 LIG-0.27  OA
BRANCH 26 29
ATOM     29  CA  ALA C   4       7.676  18.859  28.180  1.00  9.70 LIG 0.18  C 
ATOM     30  CB  ALA C   4       6.363  18.424  28.788  1.00  9.53 LIG 0.04  C 
BRANCH 29 31
ATOM     31  C   ALA C   4       7.724  18.450  26.719  1.00 11.00 LIG 0.28  C 
ATOM     32  N   NH2 C   5       8.828  17.848  26.298  1.00 10.22 LIG-0.11  N 
ATOM     33 O    ALA C   4       6.781  18.712  25.986  1.00 13.70 LIG-0.27  OA
ENDBRANCH 29 31
ENDBRANCH 26 29
ENDBRANCH 23 25
ENDBRANCH 20 23
ENDBRANCH 1 19
BRANCH 1 34
ATOM     34  CB  HIS C   2      12.886  24.183  30.333  1.00 12.23 LIG 0.10  C 
BRANCH 34 35
ATOM     35  CG  HIS C   2      12.173  24.730  29.143  1.00 15.24 LIG 0.06  A 
ATOM     36 ND1  HIS C   2      12.526  24.404  27.852  1.00 17.16 LIG-0.24  NA
ATOM     37  CE1 HIS C   2      11.727  25.033  27.008  1.00 17.55 LIG 0.23  A 
ATOM     38 NE2  HIS C   2      10.869  25.755  27.706  1.00 18.01 LIG-0.25  NA
ATOM     39  CD2 HIS C   2      11.126  25.582  29.044  1.00 16.53 LIG 0.14  A 
ENDBRANCH 34 35
ENDBRANCH 1 34
TORSDOF 12
ENDMDL
MODEL 2
USER: ADFR SOLUTION from run 110
USER: SCORE 12.002830 LL:  -2.322 LR: -11.225 RR:   0.000 FEB:  -7.646
USER: RMSD 2.641292
USER: SEED 109
USER: STATUS no improvement in best in 11 clusters for 5 generations
USER: GENES 14
USER: genes 0 Translation |==|  0.59034 0.53961 0.61814
USER: genes 1 Rotation |==|  0.42561 0.66254 0.42505 0.96090
USER: genes 2 Torsion [CB]-CA--N-[C] |==|  0.52226
USER: genes 3 Torsion [N]-C--CA-[N] |==|  0.37211
USER: genes 4 Torsion [C]-CA--CB-[CG] |==|  0.47844
USER: genes 5 Torsion [CA]-CB--CG-[CD1] |==|  0.61793
USER: genes 6 Torsion [C]-CA--N-[C] |==|  0.77460
USER: genes 7 Torsion [N]-CA--C-[N] |==|  0.92220
USER: genes 8 Torsion [C]-N--CA-[CB] |==|  0.86579
USER: genes 9 Torsion [N]-CA--C-[N] |==|  0.32964
USER: genes 10 Torsion [C]-N--CA-[C] |==|  0.75372
USER: genes 11 Torsion [N]-CA--C-[N] |==|  0.02282
USER: genes 12 Torsion [N]-CA--CB-[CG] |==|  0.93836
USER: genes 13 Torsion [CA]-CB--CG-[CD2] |==|  0.38504
ROOT
ATOM      1  CA  HIS C   2      14.025  22.520  33.165  1.00 10.06 LIG 0.18  C 
ENDROOT
BRANCH 1 2
ATOM      2  N   HIS C   2      14.667  21.238  32.876  1.00  9.48 LIG-0.35  N 
ATOM      3 H    HIS C   2      15.512  21.295  32.730  1.00  9.48 LIG 0.16  HD
ATOM      4  C   PHE C   1      13.995  20.095  32.845  1.00  9.37 LIG 0.24  C 
ATOM      5 O    PHE C   1      12.806  20.003  33.133  1.00 11.27 LIG-0.27  OA
BRANCH 4 6
ATOM      6  CA  PHE C   1      14.780  18.879  32.401  1.00  8.68 LIG 0.18  C 
BRANCH 6 7
ATOM      7  CB  PHE C   1      14.377  18.540  30.967  1.00  8.30 LIG 0.07  C 
BRANCH 7 8
ATOM      8  CG  PHE C   1      15.217  17.465  30.343  1.00  6.80 LIG-0.06  A 
ATOM      9  CD1 PHE C   1      15.655  17.578  29.030  1.00  6.68 LIG 0.01  A 
ATOM     10  CE1 PHE C   1      16.438  16.590  28.465  1.00  6.85 LIG 0.00  A 
ATOM     11  CZ  PHE C   1      16.780  15.474  29.197  1.00  6.56 LIG 0.00  A 
ATOM     12  CE2 PHE C   1      16.350  15.343  30.504  1.00  6.82 LIG 0.00  A 
ATOM     13  CD2 PHE C   1      15.574  16.339  31.072  1.00  7.43 LIG 0.01  A 
ENDBRANCH 7 8
ENDBRANCH 6 7
BRANCH 6 14
ATOM     14  N   PHE C   1      14.538  17.739  33.289  1.00  9.64 LIG-0.35  N 
ATOM     15 H    PHE C   1      13.960  17.174  32.994  1.00  9.64 LIG 0.16  HD
ATOM     16  C   ACE C   0      15.173  17.615  34.450  1.00 12.10 LIG 0.21  C 
ATOM     17  CH3 ACE C   0      14.784  16.438  35.296  1.00 13.09 LIG 0.12  C 
ATOM     18 O    ACE C   0      16.020  18.429  34.820  1.00 13.69 LIG-0.27  OA
ENDBRANCH 6 14
ENDBRANCH 4 6
ENDBRANCH 1 2
BRANCH 1 19
ATOM     19  C   HIS C   2      12.849  22.710  32.231  1.00  9.05 LIG 0.24  C 
ATOM     20  N   ALA C   3      12.920  22.110  31.051  1.00  9.24 LIG-0.35  N 
ATOM     21 H    ALA C   3      13.610  21.688  30.757  1.00  9.24 LIG 0.16  HD
ATOM     22 O    HIS C   2      11.869  23.355  32.584  1.00  8.29 LIG-0.27  OA
BRANCH 20 23
ATOM     23  CA  ALA C   3      11.778  22.134  30.141  1.00  8.91 LIG 0.17  C 
ATOM     24  CB  ALA C   3      10.504  21.750  30.874  1.00  9.99 LIG 0.04  C 
BRANCH 23 25
ATOM     25  C   ALA C   3      11.629  23.525  29.519  1.00  9.36 LIG 0.24  C 
ATOM     26  N   ALA C   4      11.738  23.590  28.197  1.00  9.08 LIG-0.35  N 
ATOM     27 H    ALA C   4      11.786  22.901  27.685  1.00  9.08 LIG 0.16  HD
ATOM     28 O    ALA C   3      11.395  24.516  30.224  1.00  9.90 LIG-0.27  OA
BRANCH 26 29
ATOM     29  CA  ALA C   4      11.786  24.871  27.493  1.00  9.70 LIG 0.18  C 
ATOM     30  CB  ALA C   4      12.652  24.754  26.260  1.00  9.53 LIG 0.04  C 
BRANCH 29 31
ATOM     31  C   ALA C   4      10.422  25.414  27.110  1.00 11.00 LIG 0.28  C 
ATOM     32  N   NH2 C   5       9.363  24.776  27.591  1.00 10.22 LIG-0.11  N 
ATOM     33 O    ALA C   4      10.342  26.377  26.361  1.00 13.70 LIG-0.27  OA
ENDBRANCH 29 31
ENDBRANCH 26 29
ENDBRANCH 23 25
ENDBRANCH 20 23
ENDBRANCH 1 19
BRANCH 1 34
ATOM     34  CB  HIS C   2      14.991  23.690  32.942  1.00 12.23 LIG 0.10  C 
BRANCH 34 35
ATOM     35  CG  HIS C   2      16.432  23.312  33.004  1.00 15.24 LIG 0.06  A 
ATOM     36 ND1  HIS C   2      16.929  22.436  33.943  1.00 17.16 LIG-0.24  NA
ATOM     37  CE1 HIS C   2      18.229  22.290  33.761  1.00 17.55 LIG 0.23  A 
ATOM     38 NE2  HIS C   2      18.592  23.040  32.736  1.00 18.01 LIG-0.25  NA
ATOM     39  CD2 HIS C   2      17.487  23.688  32.244  1.00 16.53 LIG 0.14  A 
ENDBRANCH 34 35
ENDBRANCH 1 34
TORSDOF 12
ENDMDL
MODEL 3
USER: ADFR SOLUTION from run 37
USER: SCORE 11.784404 LL:  -2.855 LR: -11.162 RR:   0.000 FEB:  -7.583
USER: RMSD 3.643239
USER: SEED 36
USER: STATUS no improvement in best in 19 clusters for 5 generations
USER: GENES 14
USER: genes 0 Translation |==|  0.64040 0.51862 0.63758
USER: genes 1 Rotation |==|  0.58756 0.68216 0.28132 0.90166
USER: genes 2 Torsion [CB]-CA--N-[C] |==|  0.20000
USER: genes 3 Torsion [N]-C--CA-[N] |==|  0.82787
USER: genes 4 Torsion [C]-CA--CB-[CG] |==|  0.31659
USER: genes 5 Torsion [CA]-CB--CG-[CD1] |==|  0.94998
USER: genes 6 Torsion [C]-CA--N-[C] |==|  0.19852
USER: genes 7 Torsion [N]-CA--C-[N] |==|  0.95580
USER: genes 8 Torsion [C]-N--CA-[CB] |==|  0.19578
USER: genes 9 Torsion [N]-CA--C-[N] |==|  0.60340
USER: genes 10 Torsion [C]-N--CA-[C] |==|  0.56873
USER: genes 11 Torsion [N]-CA--C-[N] |==|  0.47534
USER: genes 12 Torsion [N]-CA--CB-[CG] |==|  0.31583
USER: genes 13 Torsion [CA]-CB--CG-[CD2] |==|  0.74410
ROOT
ATOM      1  CA  HIS C   2      14.851  22.079  33.544  1.00 10.06 LIG 0.18  C 
ENDROOT
BRANCH 1 2
ATOM      2  N   HIS C   2      14.447  20.929  32.736  1.00  9.48 LIG-0.35  N 
ATOM      3 H    HIS C   2      14.127  21.137  31.965  1.00  9.48 LIG 0.16  HD
ATOM      4  C   PHE C   1      14.568  19.679  33.164  1.00  9.37 LIG 0.24  C 
ATOM      5 O    PHE C   1      15.098  19.379  34.229  1.00 11.27 LIG-0.27  OA
BRANCH 4 6
ATOM      6  CA  PHE C   1      13.982  18.613  32.264  1.00  8.68 LIG 0.18  C 
BRANCH 6 7
ATOM      7  CB  PHE C   1      14.681  18.685  30.908  1.00  8.30 LIG 0.07  C 
BRANCH 7 8
ATOM      8  CG  PHE C   1      15.509  17.475  30.590  1.00  6.80 LIG-0.06  A 
ATOM      9  CD1 PHE C   1      15.901  16.600  31.594  1.00  6.68 LIG 0.01  A 
ATOM     10  CE1 PHE C   1      16.653  15.480  31.293  1.00  6.85 LIG 0.00  A 
ATOM     11  CZ  PHE C   1      17.034  15.231  29.993  1.00  6.56 LIG 0.00  A 
ATOM     12  CE2 PHE C   1      16.656  16.094  28.982  1.00  6.82 LIG 0.00  A 
ATOM     13  CD2 PHE C   1      15.893  17.209  29.284  1.00  7.43 LIG 0.01  A 
ENDBRANCH 7 8
ENDBRANCH 6 7
BRANCH 6 14
ATOM     14  N   PHE C   1      12.535  18.788  32.108  1.00  9.64 LIG-0.35  N 
ATOM     15 H    PHE C   1      12.059  18.195  32.512  1.00  9.64 LIG 0.16  HD
ATOM     16  C   ACE C   0      12.029  19.788  31.395  1.00 12.10 LIG 0.21  C 
ATOM     17  CH3 ACE C   0      10.534  19.813  31.257  1.00 13.09 LIG 0.12  C 
ATOM     18 O    ACE C   0      12.743  20.636  30.861  1.00 13.69 LIG-0.27  OA
ENDBRANCH 6 14
ENDBRANCH 4 6
ENDBRANCH 1 2
BRANCH 1 19
ATOM     19  C   HIS C   2      14.344  23.348  32.892  1.00  9.05 LIG 0.24  C 
ATOM     20  N   ALA C   3      13.953  23.256  31.629  1.00  9.24 LIG-0.35  N 
ATOM     21 H    ALA C   3      14.036  22.553  31.141  1.00  9.24 LIG 0.16  HD
ATOM     22 O    HIS C   2      14.266  24.390  33.532  1.00  8.29 LIG-0.27  OA
BRANCH 20 23
ATOM     23  CA  ALA C   3      13.332  24.399  30.965  1.00  8.91 LIG 0.17  C 
ATOM     24  CB  ALA C   3      14.355  25.494  30.717  1.00  9.99 LIG 0.04  C 
BRANCH 23 25
ATOM     25  C   ALA C   3      12.699  23.960  29.642  1.00  9.36 LIG 0.24  C 
ATOM     26  N   ALA C   4      12.790  24.820  28.635  1.00  9.08 LIG-0.35  N 
ATOM     27 H    ALA C   4      13.258  25.542  28.661  1.00  9.08 LIG 0.16  HD
ATOM     28 O    ALA C   3      12.159  22.851  29.532  1.00  9.90 LIG-0.27  OA
BRANCH 26 29
ATOM     29  CA  ALA C   4      12.085  24.603  27.373  1.00  9.70 LIG 0.18  C 
ATOM     30  CB  ALA C   4      10.643  25.037  27.501  1.00  9.53 LIG 0.04  C 
BRANCH 29 31
ATOM     31  C   ALA C   4      12.724  25.296  26.184  1.00 11.00 LIG 0.28  C 
ATOM     32  N   NH2 C   5      12.246  24.998  24.984  1.00 10.22 LIG-0.11  N 
ATOM     33 O    ALA C   4      13.659  26.064  26.362  1.00 13.70 LIG-0.27  OA
ENDBRANCH 29 31
ENDBRANCH 26 29
ENDBRANCH 23 25
ENDBRANCH 20 23
ENDBRANCH 1 19
BRANCH 1 34
ATOM     34  CB  HIS C   2      16.378  22.183  33.641  1.00 12.23 LIG 0.10  C 
BRANCH 34 35
ATOM     35  CG  HIS C   2      16.952  23.383  32.968  1.00 15.24 LIG 0.06  A 
ATOM     36 ND1  HIS C   2      17.096  24.594  33.608  1.00 17.16 LIG-0.24  NA
ATOM     37  CE1 HIS C   2      17.628  25.470  32.774  1.00 17.55 LIG 0.23  A 
ATOM     38 NE2  HIS C   2      17.834  24.869  31.616  1.00 18.01 LIG-0.25  NA
ATOM     39  CD2 HIS C   2      17.421  23.563  31.712  1.00 16.53 LIG 0.14  A 
ENDBRANCH 34 35
ENDBRANCH 1 34
TORSDOF 12
ENDMDL
MODEL 4
USER: ADFR SOLUTION from run 20
USER: SCORE 12.356092 LL:  -2.948 LR: -11.088 RR:   0.000 FEB:  -7.509
USER: RMSD 2.006931
USER: SEED 19
USER: STATUS no improvement in best in 7 clusters for 5 generations
USER: GENES 14
USER: genes 0 Translation |==|  0.45210 0.50888 0.52605
USER: genes 1 Rotation |==|  0.54438 0.49287 0.51954 0.99759
USER: genes 2 Torsion [CB]-CA--N-[C] |==|  0.23861
USER: genes 3 Torsion [N]-C--CA-[N] |==|  0.42190
USER: genes 4 Torsion [C]-CA--CB-[CG] |==|  0.49578
USER: genes 5 Torsion [CA]-CB--CG-[CD1] |==|  0.22761
USER: genes 6 Torsion [C]-CA--N-[C] |==|  0.80749
USER: genes 7 Torsion [N]-CA--C-[N] |==|  0.41215
USER: genes 8 Torsion [C]-N--CA-[CB] |==|  0.52778
USER: genes 9 Torsion [N]-CA--C-[N] |==|  0.34519
USER: genes 10 Torsion [C]-N--CA-[C] |==|  0.53481
USER: genes 11 Torsion [N]-CA--C-[N] |==|  0.45724
USER: genes 12 Torsion [N]-CA--CB-[CG] |==|  0.11623
USER: genes 13 Torsion [CA]-CB--CG-[CD2] |==|  0.73339
ROOT
ATOM      1  CA  HIS C   2      11.744  21.875  31.369  1.00 10.06 LIG 0.18  C 
ENDROOT
BRANCH 1 2
ATOM      2  N   HIS C   2      12.932  21.036  31.215  1.00  9.48 LIG-0.35  N 
ATOM      3 H    HIS C   2      13.400  21.218  30.517  1.00  9.48 LIG 0.16  HD
ATOM      4  C   PHE C   1      13.250  20.084  32.082  1.00  9.37 LIG 0.24  C 
ATOM      5 O    PHE C   1      12.628  19.880  33.119  1.00 11.27 LIG-0.27  OA
BRANCH 4 6
ATOM      6  CA  PHE C   1      14.435  19.220  31.708  1.00  8.68 LIG 0.18  C 
BRANCH 6 7
ATOM      7  CB  PHE C   1      13.942  18.076  30.824  1.00  8.30 LIG 0.07  C 
BRANCH 7 8
ATOM      8  CG  PHE C   1      15.034  17.162  30.354  1.00  6.80 LIG-0.06  A 
ATOM      9  CD1 PHE C   1      15.512  16.147  31.172  1.00  6.68 LIG 0.01  A 
ATOM     10  CE1 PHE C   1      16.510  15.301  30.727  1.00  6.85 LIG 0.00  A 
ATOM     11  CZ  PHE C   1      17.052  15.467  29.472  1.00  6.56 LIG 0.00  A 
ATOM     12  CE2 PHE C   1      16.590  16.475  28.645  1.00  6.82 LIG 0.00  A 
ATOM     13  CD2 PHE C   1      15.582  17.315  29.088  1.00  7.43 LIG 0.01  A 
ENDBRANCH 7 8
ENDBRANCH 6 7
BRANCH 6 14
ATOM     14  N   PHE C   1      15.108  18.698  32.901  1.00  9.64 LIG-0.35  N 
ATOM     15 H    PHE C   1      15.020  17.850  33.017  1.00  9.64 LIG 0.16  HD
ATOM     16  C   ACE C   0      15.789  19.493  33.718  1.00 12.10 LIG 0.21  C 
ATOM     17  CH3 ACE C   0      16.372  18.845  34.940  1.00 13.09 LIG 0.12  C 
ATOM     18 O    ACE C   0      15.921  20.698  33.498  1.00 13.69 LIG-0.27  OA
ENDBRANCH 6 14
ENDBRANCH 4 6
ENDBRANCH 1 2
BRANCH 1 19
ATOM     19  C   HIS C   2      11.324  22.398  30.012  1.00  9.05 LIG 0.24  C 
ATOM     20  N   ALA C   3      10.027  22.597  29.824  1.00  9.24 LIG-0.35  N 
ATOM     21 H    ALA C   3       9.412  22.383  30.386  1.00  9.24 LIG 0.16  HD
ATOM     22 O    HIS C   2      12.162  22.659  29.157  1.00  8.29 LIG-0.27  OA
BRANCH 20 23
ATOM     23  CA  ALA C   3       9.548  23.220  28.592  1.00  8.91 LIG 0.17  C 
ATOM     24  CB  ALA C   3       8.073  23.564  28.706  1.00  9.99 LIG 0.04  C 
BRANCH 23 25
ATOM     25  C   ALA C   3      10.362  24.480  28.288  1.00  9.36 LIG 0.24  C 
ATOM     26  N   ALA C   4      10.947  24.526  27.097  1.00  9.08 LIG-0.35  N 
ATOM     27 H    ALA C   4      10.813  23.949  26.474  1.00  9.08 LIG 0.16  HD
ATOM     28 O    ALA C   3      10.437  25.403  29.111  1.00  9.90 LIG-0.27  OA
BRANCH 26 29
ATOM     29  CA  ALA C   4      11.888  25.588  26.745  1.00  9.70 LIG 0.18  C 
ATOM     30  CB  ALA C   4      13.161  25.442  27.547  1.00  9.53 LIG 0.04  C 
BRANCH 29 31
ATOM     31  C   ALA C   4      12.221  25.649  25.266  1.00 11.00 LIG 0.28  C 
ATOM     32  N   NH2 C   5      12.804  26.755  24.825  1.00 10.22 LIG-0.11  N 
ATOM     33 O    ALA C   4      11.916  24.715  24.538  1.00 13.70 LIG-0.27  OA
ENDBRANCH 29 31
ENDBRANCH 26 29
ENDBRANCH 23 25
ENDBRANCH 20 23
ENDBRANCH 1 19
BRANCH 1 34
ATOM     34  CB  HIS C   2      12.028  23.084  32.268  1.00 12.23 LIG 0.10  C 
BRANCH 34 35
ATOM     35  CG  HIS C   2      13.344  23.737  32.015  1.00 15.24 LIG 0.06  A 
ATOM     36 ND1  HIS C   2      13.528  24.677  31.024  1.00 17.16 LIG-0.24  NA
ATOM     37  CE1 HIS C   2      14.786  25.079  31.031  1.00 17.55 LIG 0.23  A 
ATOM     38 NE2  HIS C   2      15.425  24.434  31.991  1.00 18.01 LIG-0.25  NA
ATOM     39  CD2 HIS C   2      14.545  23.590  32.622  1.00 16.53 LIG 0.14  A 
ENDBRANCH 34 35
ENDBRANCH 1 34
TORSDOF 12
ENDMDL
MODEL 5
USER: ADFR SOLUTION from run 193
USER: SCORE 11.483362 LL:  -2.539 LR: -10.993 RR:   0.000 FEB:  -7.413
USER: RMSD 3.711538
USER: SEED 192
USER: STATUS no improvement in best in 8 clusters for 5 generations
USER: GENES 14
USER: genes 0 Translation |==|  0.46866 0.45119 0.50000
USER: genes 1 Rotation |==|  0.77749 0.26481 0.65415 0.80647
USER: genes 2 Torsion [CB]-CA--N-[C] |==|  0.16509
USER: genes 3 Torsion [N]-C--CA-[N] |==|  0.20403
USER: genes 4 Torsion [C]-CA--CB-[CG] |==|  0.22355
USER: genes 5 Torsion [CA]-CB--CG-[CD1] |==|  0.44722
USER: genes 6 Torsion [C]-CA--N-[C] |==|  0.77892
USER: genes 7 Torsion [N]-CA--C-[N] |==|  0.09607
USER: genes 8 Torsion [C]-N--CA-[CB] |==|  0.45569
USER: genes 9 Torsion [N]-CA--C-[N] |==|  0.61220
USER: genes 10 Torsion [C]-N--CA-[C] |==|  0.80719
USER: genes 11 Torsion [N]-CA--C-[N] |==|  0.40890
USER: genes 12 Torsion [N]-CA--CB-[CG] |==|  0.55785
USER: genes 13 Torsion [CA]-CB--CG-[CD2] |==|  0.47712
ROOT
ATOM      1  CA  HIS C   2      12.017  20.663  30.861  1.00 10.06 LIG 0.18  C 
ENDROOT
BRANCH 1 2
ATOM      2  N   HIS C   2      13.284  20.346  31.519  1.00  9.48 LIG-0.35  N 
ATOM      3 H    HIS C   2      13.779  21.032  31.674  1.00  9.48 LIG 0.16  HD
ATOM      4  C   PHE C   1      13.629  19.107  31.843  1.00  9.37 LIG 0.24  C 
ATOM      5 O    PHE C   1      12.888  18.140  31.696  1.00 11.27 LIG-0.27  OA
BRANCH 4 6
ATOM      6  CA  PHE C   1      15.027  18.934  32.396  1.00  8.68 LIG 0.18  C 
BRANCH 6 7
ATOM      7  CB  PHE C   1      15.386  17.449  32.351  1.00  8.30 LIG 0.07  C 
BRANCH 7 8
ATOM      8  CG  PHE C   1      15.836  16.979  31.000  1.00  6.80 LIG-0.06  A 
ATOM      9  CD1 PHE C   1      16.557  15.800  30.863  1.00  6.68 LIG 0.01  A 
ATOM     10  CE1 PHE C   1      16.958  15.366  29.614  1.00  6.85 LIG 0.00  A 
ATOM     11  CZ  PHE C   1      16.659  16.108  28.493  1.00  6.56 LIG 0.00  A 
ATOM     12  CE2 PHE C   1      15.945  17.285  28.611  1.00  6.82 LIG 0.00  A 
ATOM     13  CD2 PHE C   1      15.534  17.713  29.862  1.00  7.43 LIG 0.01  A 
ENDBRANCH 7 8
ENDBRANCH 6 7
BRANCH 6 14
ATOM     14  N   PHE C   1      15.122  19.446  33.766  1.00  9.64 LIG-0.35  N 
ATOM     15 H    PHE C   1      15.088  18.841  34.376  1.00  9.64 LIG 0.16  HD
ATOM     16  C   ACE C   0      15.250  20.745  34.014  1.00 12.10 LIG 0.21  C 
ATOM     17  CH3 ACE C   0      15.267  21.144  35.462  1.00 13.09 LIG 0.12  C 
ATOM     18 O    ACE C   0      15.330  21.578  33.111  1.00 13.69 LIG-0.27  OA
ENDBRANCH 6 14
ENDBRANCH 4 6
ENDBRANCH 1 2
BRANCH 1 19
ATOM     19  C   HIS C   2      11.915  22.161  30.672  1.00  9.05 LIG 0.24  C 
ATOM     20  N   ALA C   3      13.042  22.810  30.420  1.00  9.24 LIG-0.35  N 
ATOM     21 H    ALA C   3      13.825  22.454  30.429  1.00  9.24 LIG 0.16  HD
ATOM     22 O    HIS C   2      10.826  22.723  30.712  1.00  8.29 LIG-0.27  OA
BRANCH 20 23
ATOM     23  CA  ALA C   3      13.017  24.235  30.098  1.00  8.91 LIG 0.17  C 
ATOM     24  CB  ALA C   3      14.404  24.838  30.235  1.00  9.99 LIG 0.04  C 
BRANCH 23 25
ATOM     25  C   ALA C   3      12.489  24.445  28.677  1.00  9.36 LIG 0.24  C 
ATOM     26  N   ALA C   4      13.105  25.373  27.955  1.00  9.08 LIG-0.35  N 
ATOM     27 H    ALA C   4      13.824  25.776  28.202  1.00  9.08 LIG 0.16  HD
ATOM     28 O    ALA C   3      11.555  23.760  28.238  1.00  9.90 LIG-0.27  OA
BRANCH 26 29
ATOM     29  CA  ALA C   4      12.597  25.793  26.650  1.00  9.70 LIG 0.18  C 
ATOM     30  CB  ALA C   4      13.289  27.061  26.205  1.00  9.53 LIG 0.04  C 
BRANCH 29 31
ATOM     31  C   ALA C   4      12.726  24.734  25.570  1.00 11.00 LIG 0.28  C 
ATOM     32  N   NH2 C   5      11.784  24.707  24.638  1.00 10.22 LIG-0.11  N 
ATOM     33 O    ALA C   4      13.653  23.938  25.611  1.00 13.70 LIG-0.27  OA
ENDBRANCH 29 31
ENDBRANCH 26 29
ENDBRANCH 23 25
ENDBRANCH 20 23
ENDBRANCH 1 19
BRANCH 1 34
ATOM     34  CB  HIS C   2      10.821  20.217  31.711  1.00 12.23 LIG 0.10  C 
BRANCH 34 35
ATOM     35  CG  HIS C   2       9.554  20.048  30.942  1.00 15.24 LIG 0.06  A 
ATOM     36 ND1  HIS C   2       9.431  20.429  29.625  1.00 17.16 LIG-0.24  NA
ATOM     37  CE1 HIS C   2       8.206  20.163  29.206  1.00 17.55 LIG 0.23  A 
ATOM     38 NE2  HIS C   2       7.532  19.623  30.205  1.00 18.01 LIG-0.25  NA
ATOM     39  CD2 HIS C   2       8.354  19.538  31.302  1.00 16.53 LIG 0.14  A 
ENDBRANCH 34 35
ENDBRANCH 1 34
TORSDOF 12
ENDMDL
MODEL 6
USER: ADFR SOLUTION from run 37
USER: SCORE 10.337446 LL:  -2.578 LR: -10.949 RR:   0.000 FEB:  -7.370
USER: RMSD 5.669802
USER: SEED 36
USER: STATUS no improvement in best in 19 clusters for 5 generations
USER: GENES 14
USER: genes 0 Translation |==|  0.38676 0.44425 0.52660
USER: genes 1 Rotation |==|  0.21779 0.75935 0.51763 0.82060
USER: genes 2 Torsion [CB]-CA--N-[C] |==|  0.32857
USER: genes 3 Torsion [N]-C--CA-[N] |==|  0.87266
USER: genes 4 Torsion [C]-CA--CB-[CG] |==|  0.52085
USER: genes 5 Torsion [CA]-CB--CG-[CD1] |==|  0.89463
USER: genes 6 Torsion [C]-CA--N-[C] |==|  0.66211
USER: genes 7 Torsion [N]-CA--C-[N] |==|  0.73733
USER: genes 8 Torsion [C]-N--CA-[CB] |==|  0.21899
USER: genes 9 Torsion [N]-CA--C-[N] |==|  0.03818
USER: genes 10 Torsion [C]-N--CA-[C] |==|  0.56669
USER: genes 11 Torsion [N]-CA--C-[N] |==|  0.21873
USER: genes 12 Torsion [N]-CA--CB-[CG] |==|  0.77872
USER: genes 13 Torsion [CA]-CB--CG-[CD2] |==|  0.55152
ROOT
ATOM      1  CA  HIS C   2      10.665  20.517  31.380  1.00 10.06 LIG 0.18  C 
ENDROOT
BRANCH 1 2
ATOM      2  N   HIS C   2      11.757  19.553  31.247  1.00  9.48 LIG-0.35  N 
ATOM      3 H    HIS C   2      11.613  18.941  30.660  1.00  9.48 LIG 0.16  HD
ATOM      4  C   PHE C   1      12.864  19.625  31.973  1.00  9.37 LIG 0.24  C 
ATOM      5 O    PHE C   1      13.102  20.543  32.751  1.00 11.27 LIG-0.27  OA
BRANCH 4 6
ATOM      6  CA  PHE C   1      13.836  18.476  31.811  1.00  8.68 LIG 0.18  C 
BRANCH 6 7
ATOM      7  CB  PHE C   1      14.572  18.648  30.483  1.00  8.30 LIG 0.07  C 
BRANCH 7 8
ATOM      8  CG  PHE C   1      15.439  17.479  30.117  1.00  6.80 LIG-0.06  A 
ATOM      9  CD1 PHE C   1      16.157  16.796  31.090  1.00  6.68 LIG 0.01  A 
ATOM     10  CE1 PHE C   1      16.943  15.713  30.748  1.00  6.85 LIG 0.00  A 
ATOM     11  CZ  PHE C   1      17.034  15.309  29.434  1.00  6.56 LIG 0.00  A 
ATOM     12  CE2 PHE C   1      16.328  15.980  28.452  1.00  6.82 LIG 0.00  A 
ATOM     13  CD2 PHE C   1      15.532  17.058  28.799  1.00  7.43 LIG 0.01  A 
ENDBRANCH 7 8
ENDBRANCH 6 7
BRANCH 6 14
ATOM     14  N   PHE C   1      13.144  17.186  31.854  1.00  9.64 LIG-0.35  N 
ATOM     15 H    PHE C   1      12.533  17.089  31.256  1.00  9.64 LIG 0.16  HD
ATOM     16  C   ACE C   0      13.454  16.260  32.756  1.00 12.10 LIG 0.21  C 
ATOM     17  CH3 ACE C   0      12.623  15.011  32.736  1.00 13.09 LIG 0.12  C 
ATOM     18 O    ACE C   0      14.359  16.424  33.574  1.00 13.69 LIG-0.27  OA
ENDBRANCH 6 14
ENDBRANCH 4 6
ENDBRANCH 1 2
BRANCH 1 19
ATOM     19  C   HIS C   2       9.387  19.780  31.717  1.00  9.05 LIG 0.24  C 
ATOM     20  N   ALA C   3       8.597  19.459  30.702  1.00  9.24 LIG-0.35  N 
ATOM     21 H    ALA C   3       8.724  19.701  29.887  1.00  9.24 LIG 0.16  HD
ATOM     22 O    HIS C   2       9.134  19.468  32.874  1.00  8.29 LIG-0.27  OA
BRANCH 20 23
ATOM     23  CA  ALA C   3       7.411  18.637  30.924  1.00  8.91 LIG 0.17  C 
ATOM     24  CB  ALA C   3       6.280  19.474  31.497  1.00  9.99 LIG 0.04  C 
BRANCH 23 25
ATOM     25  C   ALA C   3       6.969  17.984  29.612  1.00  9.36 LIG 0.24  C 
ATOM     26  N   ALA C   4       7.845  18.024  28.614  1.00  9.08 LIG-0.35  N 
ATOM     27 H    ALA C   4       8.656  18.299  28.698  1.00  9.08 LIG 0.16  HD
ATOM     28 O    ALA C   3       5.864  17.434  29.515  1.00  9.90 LIG-0.27  OA
BRANCH 26 29
ATOM     29  CA  ALA C   4       7.490  17.592  27.263  1.00  9.70 LIG 0.18  C 
ATOM     30  CB  ALA C   4       6.733  18.688  26.549  1.00  9.53 LIG 0.04  C 
BRANCH 29 31
ATOM     31  C   ALA C   4       8.678  17.161  26.423  1.00 11.00 LIG 0.28  C 
ATOM     32  N   NH2 C   5       9.165  15.948  26.647  1.00 10.22 LIG-0.11  N 
ATOM     33 O    ALA C   4       9.159  17.938  25.611  1.00 13.70 LIG-0.27  OA
ENDBRANCH 29 31
ENDBRANCH 26 29
ENDBRANCH 23 25
ENDBRANCH 20 23
ENDBRANCH 1 19
BRANCH 1 34
ATOM     34  CB  HIS C   2      10.433  21.279  30.069  1.00 12.23 LIG 0.10  C 
BRANCH 34 35
ATOM     35  CG  HIS C   2      11.396  22.392  29.830  1.00 15.24 LIG 0.06  A 
ATOM     36 ND1  HIS C   2      12.603  22.481  30.486  1.00 17.16 LIG-0.24  NA
ATOM     37  CE1 HIS C   2      13.243  23.563  30.079  1.00 17.55 LIG 0.23  A 
ATOM     38 NE2  HIS C   2      12.494  24.177  29.181  1.00 18.01 LIG-0.25  NA
ATOM     39  CD2 HIS C   2      11.334  23.464  29.006  1.00 16.53 LIG 0.14  A 
ENDBRANCH 34 35
ENDBRANCH 1 34
TORSDOF 12
ENDMDL
MODEL 7
USER: ADFR SOLUTION from run 97
USER: SCORE 12.489230 LL:  -2.619 LR: -10.936 RR:   0.000 FEB:  -7.356
USER: RMSD 4.047403
USER: SEED 96
USER: STATUS no improvement in best in 16 clusters for 5 generations
USER: GENES 14
USER: genes 0 Translation |==|  0.48086 0.53984 0.55394
USER: genes 1 Rotation |==|  0.38377 0.59500 0.48284 0.97663
USER: genes 2 Torsion [CB]-CA--N-[C] |==|  0.51676
USER: genes 3 Torsion [N]-C--CA-[N] |==|  0.27135
USER: genes 4 Torsion [C]-CA--CB-[CG] |==|  0.46137
USER: genes 5 Torsion [CA]-CB--CG-[CD1] |==|  0.21542
USER: genes 6 Torsion [C]-CA--N-[C] |==|  0.75061
USER: genes 7 Torsion [N]-CA--C-[N] |==|  0.41059
USER: genes 8 Torsion [C]-N--CA-[CB] |==|  0.85000
USER: genes 9 Torsion [N]-CA--C-[N] |==|  0.46639
USER: genes 10 Torsion [C]-N--CA-[C] |==|  0.75859
USER: genes 11 Torsion [N]-CA--C-[N] |==|  0.42760
USER: genes 12 Torsion [N]-CA--CB-[CG] |==|  0.95448
USER: genes 13 Torsion [CA]-CB--CG-[CD2] |==|  0.36698
ROOT
ATOM      1  CA  HIS C   2      12.218  22.525  31.913  1.00 10.06 LIG 0.18  C 
ENDROOT
BRANCH 1 2
ATOM      2  N   HIS C   2      13.262  21.500  31.935  1.00  9.48 LIG-0.35  N 
ATOM      3 H    HIS C   2      14.062  21.816  31.917  1.00  9.48 LIG 0.16  HD
ATOM      4  C   PHE C   1      12.988  20.204  31.978  1.00  9.37 LIG 0.24  C 
ATOM      5 O    PHE C   1      11.850  19.758  32.085  1.00 11.27 LIG-0.27  OA
BRANCH 4 6
ATOM      6  CA  PHE C   1      14.175  19.273  31.860  1.00  8.68 LIG 0.18  C 
BRANCH 6 7
ATOM      7  CB  PHE C   1      13.775  18.084  30.988  1.00  8.30 LIG 0.07  C 
BRANCH 7 8
ATOM      8  CG  PHE C   1      14.938  17.261  30.520  1.00  6.80 LIG-0.06  A 
ATOM      9  CD1 PHE C   1      15.559  16.360  31.375  1.00  6.68 LIG 0.01  A 
ATOM     10  CE1 PHE C   1      16.623  15.595  30.933  1.00  6.85 LIG 0.00  A 
ATOM     11  CZ  PHE C   1      17.086  15.731  29.644  1.00  6.56 LIG 0.00  A 
ATOM     12  CE2 PHE C   1      16.482  16.626  28.780  1.00  6.82 LIG 0.00  A 
ATOM     13  CD2 PHE C   1      15.410  17.383  29.221  1.00  7.43 LIG 0.01  A 
ENDBRANCH 7 8
ENDBRANCH 6 7
BRANCH 6 14
ATOM     14  N   PHE C   1      14.624  18.818  33.179  1.00  9.64 LIG-0.35  N 
ATOM     15 H    PHE C   1      14.251  18.092  33.451  1.00  9.64 LIG 0.16  HD
ATOM     16  C   ACE C   0      15.536  19.491  33.873  1.00 12.10 LIG 0.21  C 
ATOM     17  CH3 ACE C   0      15.857  18.956  35.238  1.00 13.09 LIG 0.12  C 
ATOM     18 O    ACE C   0      16.073  20.507  33.432  1.00 13.69 LIG-0.27  OA
ENDBRANCH 6 14
ENDBRANCH 4 6
ENDBRANCH 1 2
BRANCH 1 19
ATOM     19  C   HIS C   2      11.279  22.255  30.757  1.00  9.05 LIG 0.24  C 
ATOM     20  N   ALA C   3      10.010  22.595  30.926  1.00  9.24 LIG-0.35  N 
ATOM     21 H    ALA C   3       9.675  22.887  31.662  1.00  9.24 LIG 0.16  HD
ATOM     22 O    HIS C   2      11.701  21.783  29.707  1.00  8.29 LIG-0.27  OA
BRANCH 20 23
ATOM     23  CA  ALA C   3       9.064  22.489  29.818  1.00  8.91 LIG 0.17  C 
ATOM     24  CB  ALA C   3       9.577  23.245  28.604  1.00  9.99 LIG 0.04  C 
BRANCH 23 25
ATOM     25  C   ALA C   3       8.831  21.019  29.463  1.00  9.36 LIG 0.24  C 
ATOM     26  N   ALA C   4       7.813  20.767  28.647  1.00  9.08 LIG-0.35  N 
ATOM     27 H    ALA C   4       7.360  21.377  28.244  1.00  9.08 LIG 0.16  HD
ATOM     28 O    ALA C   3       9.574  20.132  29.904  1.00  9.90 LIG-0.27  OA
BRANCH 26 29
ATOM     29  CA  ALA C   4       7.375  19.401  28.365  1.00  9.70 LIG 0.18  C 
ATOM     30  CB  ALA C   4       5.890  19.378  28.088  1.00  9.53 LIG 0.04  C 
BRANCH 29 31
ATOM     31  C   ALA C   4       8.119  18.742  27.218  1.00 11.00 LIG 0.28  C 
ATOM     32  N   NH2 C   5       8.189  17.418  27.228  1.00 10.22 LIG-0.11  N 
ATOM     33 O    ALA C   4       8.648  19.435  26.361  1.00 13.70 LIG-0.27  OA
ENDBRANCH 29 31
ENDBRANCH 26 29
ENDBRANCH 23 25
ENDBRANCH 20 23
ENDBRANCH 1 19
BRANCH 1 34
ATOM     34  CB  HIS C   2      12.814  23.923  31.713  1.00 12.23 LIG 0.10  C 
BRANCH 34 35
ATOM     35  CG  HIS C   2      14.281  24.004  31.968  1.00 15.24 LIG 0.06  A 
ATOM     36 ND1  HIS C   2      14.869  23.468  33.092  1.00 17.16 LIG-0.24  NA
ATOM     37  CE1 HIS C   2      16.171  23.689  33.052  1.00 17.55 LIG 0.23  A 
ATOM     38 NE2  HIS C   2      16.448  24.349  31.942  1.00 18.01 LIG-0.25  NA
ATOM     39  CD2 HIS C   2      15.283  24.557  31.245  1.00 16.53 LIG 0.14  A 
ENDBRANCH 34 35
ENDBRANCH 1 34
TORSDOF 12
ENDMDL
MODEL 8
USER: ADFR SOLUTION from run 168
USER: SCORE 11.894215 LL:  -2.902 LR: -10.893 RR:   0.000 FEB:  -7.314
USER: RMSD 6.217632
USER: SEED 167
USER: STATUS no improvement in best in 15 clusters for 5 generations
USER: GENES 14
USER: genes 0 Translation |==|  0.29490 0.44787 0.39833
USER: genes 1 Rotation |==|  0.79898 0.24676 0.76379 0.66399
USER: genes 2 Torsion [CB]-CA--N-[C] |==|  0.48392
USER: genes 3 Torsion [N]-C--CA-[N] |==|  0.31834
USER: genes 4 Torsion [C]-CA--CB-[CG] |==|  0.73692
USER: genes 5 Torsion [CA]-CB--CG-[CD1] |==|  0.26050
USER: genes 6 Torsion [C]-CA--N-[C] |==|  0.73894
USER: genes 7 Torsion [N]-CA--C-[N] |==|  0.22633
USER: genes 8 Torsion [C]-N--CA-[CB] |==|  0.14840
USER: genes 9 Torsion [N]-CA--C-[N] |==|  0.05568
USER: genes 10 Torsion [C]-N--CA-[C] |==|  0.68916
USER: genes 11 Torsion [N]-CA--C-[N] |==|  0.43889
USER: genes 12 Torsion [N]-CA--CB-[CG] |==|  0.61419
USER: genes 13 Torsion [CA]-CB--CG-[CD2] |==|  0.69113
ROOT
ATOM      1  CA  HIS C   2       9.150  20.593  28.878  1.00 10.06 LIG 0.18  C 
ENDROOT
BRANCH 1 2
ATOM      2  N   HIS C   2       9.963  20.586  30.094  1.00  9.48 LIG-0.35  N 
ATOM      3 H    HIS C   2       9.682  20.045  30.700  1.00  9.48 LIG 0.16  HD
ATOM      4  C   PHE C   1      11.037  21.352  30.238  1.00  9.37 LIG 0.24  C 
ATOM      5 O    PHE C   1      11.483  22.063  29.344  1.00 11.27 LIG-0.27  OA
BRANCH 4 6
ATOM      6  CA  PHE C   1      11.689  21.324  31.603  1.00  8.68 LIG 0.18  C 
BRANCH 6 7
ATOM      7  CB  PHE C   1      11.748  22.754  32.141  1.00  8.30 LIG 0.07  C 
BRANCH 7 8
ATOM      8  CG  PHE C   1      13.049  23.448  31.865  1.00  6.80 LIG-0.06  A 
ATOM      9  CD1 PHE C   1      13.202  24.247  30.740  1.00  6.68 LIG 0.01  A 
ATOM     10  CE1 PHE C   1      14.399  24.895  30.498  1.00  6.85 LIG 0.00  A 
ATOM     11  CZ  PHE C   1      15.458  24.740  31.365  1.00  6.56 LIG 0.00  A 
ATOM     12  CE2 PHE C   1      15.324  23.945  32.488  1.00  6.82 LIG 0.00  A 
ATOM     13  CD2 PHE C   1      14.120  23.306  32.734  1.00  7.43 LIG 0.01  A 
ENDBRANCH 7 8
ENDBRANCH 6 7
BRANCH 6 14
ATOM     14  N   PHE C   1      13.031  20.741  31.538  1.00  9.64 LIG-0.35  N 
ATOM     15 H    PHE C   1      13.653  21.300  31.339  1.00  9.64 LIG 0.16  HD
ATOM     16  C   ACE C   0      13.239  19.450  31.773  1.00 12.10 LIG 0.21  C 
ATOM     17  CH3 ACE C   0      14.651  18.965  31.606  1.00 13.09 LIG 0.12  C 
ATOM     18 O    ACE C   0      12.326  18.688  32.090  1.00 13.69 LIG-0.27  OA
ENDBRANCH 6 14
ENDBRANCH 4 6
ENDBRANCH 1 2
BRANCH 1 19
ATOM     19  C   HIS C   2       8.462  21.935  28.747  1.00  9.05 LIG 0.24  C 
ATOM     20  N   ALA C   3       9.178  22.927  28.236  1.00  9.24 LIG-0.35  N 
ATOM     21 H    ALA C   3      10.015  22.878  28.045  1.00  9.24 LIG 0.16  HD
ATOM     22 O    HIS C   2       7.285  22.067  29.064  1.00  8.29 LIG-0.27  OA
BRANCH 20 23
ATOM     23  CA  ALA C   3       8.555  24.217  27.955  1.00  8.91 LIG 0.17  C 
ATOM     24  CB  ALA C   3       7.846  24.748  29.189  1.00  9.99 LIG 0.04  C 
BRANCH 23 25
ATOM     25  C   ALA C   3       9.610  25.220  27.482  1.00  9.36 LIG 0.24  C 
ATOM     26  N   ALA C   4      10.741  24.704  27.016  1.00  9.08 LIG-0.35  N 
ATOM     27 H    ALA C   4      10.865  23.864  26.879  1.00  9.08 LIG 0.16  HD
ATOM     28 O    ALA C   3       9.391  26.438  27.517  1.00  9.90 LIG-0.27  OA
BRANCH 26 29
ATOM     29  CA  ALA C   4      11.893  25.545  26.692  1.00  9.70 LIG 0.18  C 
ATOM     30  CB  ALA C   4      13.111  25.073  27.452  1.00  9.53 LIG 0.04  C 
BRANCH 29 31
ATOM     31  C   ALA C   4      12.208  25.610  25.209  1.00 11.00 LIG 0.28  C 
ATOM     32  N   NH2 C   5      12.909  26.655  24.789  1.00 10.22 LIG-0.11  N 
ATOM     33 O    ALA C   4      11.788  24.739  24.462  1.00 13.70 LIG-0.27  OA
ENDBRANCH 29 31
ENDBRANCH 26 29
ENDBRANCH 23 25
ENDBRANCH 20 23
ENDBRANCH 1 19
BRANCH 1 34
ATOM     34  CB  HIS C   2       8.061  19.514  28.930  1.00 12.23 LIG 0.10  C 
BRANCH 34 35
ATOM     35  CG  HIS C   2       7.861  18.787  27.644  1.00 15.24 LIG 0.06  A 
ATOM     36 ND1  HIS C   2       8.801  17.924  27.127  1.00 17.16 LIG-0.24  NA
ATOM     37  CE1 HIS C   2       8.358  17.427  25.985  1.00 17.55 LIG 0.23  A 
ATOM     38 NE2  HIS C   2       7.164  17.938  25.745  1.00 18.01 LIG-0.25  NA
ATOM     39  CD2 HIS C   2       6.829  18.789  26.769  1.00 16.53 LIG 0.14  A 
ENDBRANCH 34 35
ENDBRANCH 1 34
TORSDOF 12
ENDMDL
MODEL 9
USER: ADFR SOLUTION from run 26
USER: SCORE 11.990945 LL:  -2.648 LR: -10.873 RR:   0.000 FEB:  -7.293
USER: RMSD 5.704499
USER: SEED 25
USER: STATUS searching
USER: GENES 14
USER: genes 0 Translation |==|  0.53594 0.44570 0.54152
USER: genes 1 Rotation |==|  0.74494 0.11194 0.59173 0.67606
USER: genes 2 Torsion [CB]-CA--N-[C] |==|  0.20043
USER: genes 3 Torsion [N]-C--CA-[N] |==|  0.41244
USER: genes 4 Torsion [C]-CA--CB-[CG] |==|  0.82728
USER: genes 5 Torsion [CA]-CB--CG-[CD1] |==|  0.21800
USER: genes 6 Torsion [C]-CA--N-[C] |==|  0.77579
USER: genes 7 Torsion [N]-CA--C-[N] |==|  0.41295
USER: genes 8 Torsion [C]-N--CA-[CB] |==|  0.85964
USER: genes 9 Torsion [N]-CA--C-[N] |==|  0.98889
USER: genes 10 Torsion [C]-N--CA-[C] |==|  0.76280
USER: genes 11 Torsion [N]-CA--C-[N] |==|  0.99145
USER: genes 12 Torsion [N]-CA--CB-[CG] |==|  0.53507
USER: genes 13 Torsion [CA]-CB--CG-[CD2] |==|  0.50643
ROOT
ATOM      1  CA  HIS C   2      13.127  20.548  31.671  1.00 10.06 LIG 0.18  C 
ENDROOT
BRANCH 1 2
ATOM      2  N   HIS C   2      13.674  19.433  32.443  1.00  9.48 LIG-0.35  N 
ATOM      3 H    HIS C   2      13.975  19.658  33.217  1.00  9.48 LIG 0.16  HD
ATOM      4  C   PHE C   1      13.699  18.190  31.982  1.00  9.37 LIG 0.24  C 
ATOM      5 O    PHE C   1      13.197  17.857  30.914  1.00 11.27 LIG-0.27  OA
BRANCH 4 6
ATOM      6  CA  PHE C   1      14.418  17.178  32.848  1.00  8.68 LIG 0.18  C 
BRANCH 6 7
ATOM      7  CB  PHE C   1      15.889  17.144  32.435  1.00  8.30 LIG 0.07  C 
BRANCH 7 8
ATOM      8  CG  PHE C   1      16.107  16.707  31.016  1.00  6.80 LIG-0.06  A 
ATOM      9  CD1 PHE C   1      15.901  17.588  29.963  1.00  6.68 LIG 0.01  A 
ATOM     10  CE1 PHE C   1      16.116  17.183  28.659  1.00  6.85 LIG 0.00  A 
ATOM     11  CZ  PHE C   1      16.522  15.894  28.392  1.00  6.56 LIG 0.00  A 
ATOM     12  CE2 PHE C   1      16.728  15.003  29.429  1.00  6.82 LIG 0.00  A 
ATOM     13  CD2 PHE C   1      16.523  15.414  30.735  1.00  7.43 LIG 0.01  A 
ENDBRANCH 7 8
ENDBRANCH 6 7
BRANCH 6 14
ATOM     14  N   PHE C   1      13.816  15.849  32.722  1.00  9.64 LIG-0.35  N 
ATOM     15 H    PHE C   1      14.232  15.318  32.188  1.00  9.64 LIG 0.16  HD
ATOM     16  C   ACE C   0      12.716  15.518  33.391  1.00 12.10 LIG 0.21  C 
ATOM     17  CH3 ACE C   0      12.162  14.150  33.120  1.00 13.09 LIG 0.12  C 
ATOM     18 O    ACE C   0      12.170  16.296  34.174  1.00 13.69 LIG-0.27  OA
ENDBRANCH 6 14
ENDBRANCH 4 6
ENDBRANCH 1 2
BRANCH 1 19
ATOM     19  C   HIS C   2      13.489  21.851  32.351  1.00  9.05 LIG 0.24  C 
ATOM     20  N   ALA C   3      13.666  22.905  31.567  1.00  9.24 LIG-0.35  N 
ATOM     21 H    ALA C   3      13.662  22.882  30.707  1.00  9.24 LIG 0.16  HD
ATOM     22 O    HIS C   2      13.567  21.917  33.572  1.00  8.29 LIG-0.27  OA
BRANCH 20 23
ATOM     23  CA  ALA C   3      13.890  24.226  32.148  1.00  8.91 LIG 0.17  C 
ATOM     24  CB  ALA C   3      12.831  24.538  33.191  1.00  9.99 LIG 0.04  C 
BRANCH 23 25
ATOM     25  C   ALA C   3      15.284  24.296  32.776  1.00  9.36 LIG 0.24  C 
ATOM     26  N   ALA C   4      15.990  23.171  32.764  1.00  9.08 LIG-0.35  N 
ATOM     27 H    ALA C   4      15.750  22.458  32.346  1.00  9.08 LIG 0.16  HD
ATOM     28 O    ALA C   3      15.720  25.357  33.241  1.00  9.90 LIG-0.27  OA
BRANCH 26 29
ATOM     29  CA  ALA C   4      17.260  23.053  33.478  1.00  9.70 LIG 0.18  C 
ATOM     30  CB  ALA C   4      17.485  21.621  33.907  1.00  9.53 LIG 0.04  C 
BRANCH 29 31
ATOM     31  C   ALA C   4      18.458  23.543  32.686  1.00 11.00 LIG 0.28  C 
ATOM     32  N   NH2 C   5      18.233  23.952  31.445  1.00 10.22 LIG-0.11  N 
ATOM     33 O    ALA C   4      19.571  23.514  33.192  1.00 13.70 LIG-0.27  OA
ENDBRANCH 29 31
ENDBRANCH 26 29
ENDBRANCH 23 25
ENDBRANCH 20 23
ENDBRANCH 1 19
BRANCH 1 34
ATOM     34  CB  HIS C   2      11.597  20.472  31.591  1.00 12.23 LIG 0.10  C 
BRANCH 34 35
ATOM     35  CG  HIS C   2      10.992  21.392  30.585  1.00 15.24 LIG 0.06  A 
ATOM     36 ND1  HIS C   2      11.751  22.197  29.766  1.00 17.16 LIG-0.24  NA
ATOM     37  CE1 HIS C   2      10.953  22.900  28.982  1.00 17.55 LIG 0.23  A 
ATOM     38 NE2  HIS C   2       9.703  22.578  29.264  1.00 18.01 LIG-0.25  NA
ATOM     39  CD2 HIS C   2       9.701  21.635  30.262  1.00 16.53 LIG 0.14  A 
ENDBRANCH 34 35
ENDBRANCH 1 34
TORSDOF 12
ENDMDL
MODEL 10
USER: ADFR SOLUTION from run 197
USER: SCORE 11.661166 LL:  -2.475 LR: -10.848 RR:   0.000 FEB:  -7.268
USER: RMSD 8.230235
USER: SEED 196
USER: STATUS no improvement in best in 34 clusters for 5 generations
USER: GENES 14
USER: genes 0 Translation |==|  0.46189 0.56460 0.42509
USER: genes 1 Rotation |==|  0.57821 0.98625 0.53773 0.57761
USER: genes 2 Torsion [CB]-CA--N-[C] |==|  0.55812
USER: genes 3 Torsion [N]-C--CA-[N] |==|  0.90446
USER: genes 4 Torsion [C]-CA--CB-[CG] |==|  0.43711
USER: genes 5 Torsion [CA]-CB--CG-[CD1] |==|  0.99467
USER: genes 6 Torsion [C]-CA--N-[C] |==|  0.83432
USER: genes 7 Torsion [N]-CA--C-[N] |==|  0.39444
USER: genes 8 Torsion [C]-N--CA-[CB] |==|  0.26298
USER: genes 9 Torsion [N]-CA--C-[N] |==|  0.80584
USER: genes 10 Torsion [C]-N--CA-[C] |==|  0.76026
USER: genes 11 Torsion [N]-CA--C-[N] |==|  0.03939
USER: genes 12 Torsion [N]-CA--CB-[CG] |==|  0.84943
USER: genes 13 Torsion [CA]-CB--CG-[CD2] |==|  0.31296
ROOT
ATOM      1  CA  HIS C   2      11.905  23.045  29.400  1.00 10.06 LIG 0.18  C 
ENDROOT
BRANCH 1 2
ATOM      2  N   HIS C   2      10.623  22.520  28.931  1.00  9.48 LIG-0.35  N 
ATOM      3 H    HIS C   2      10.303  22.935  28.250  1.00  9.48 LIG 0.16  HD
ATOM      4  C   PHE C   1      10.017  21.494  29.514  1.00  9.37 LIG 0.24  C 
ATOM      5 O    PHE C   1      10.512  20.852  30.434  1.00 11.27 LIG-0.27  OA
BRANCH 4 6
ATOM      6  CA  PHE C   1       8.637  21.159  28.992  1.00  8.68 LIG 0.18  C 
BRANCH 6 7
ATOM      7  CB  PHE C   1       8.784  20.202  27.810  1.00  8.30 LIG 0.07  C 
BRANCH 7 8
ATOM      8  CG  PHE C   1       7.557  19.382  27.541  1.00  6.80 LIG-0.06  A 
ATOM      9  CD1 PHE C   1       6.435  19.496  28.351  1.00  6.68 LIG 0.01  A 
ATOM     10  CE1 PHE C   1       5.304  18.747  28.089  1.00  6.85 LIG 0.00  A 
ATOM     11  CZ  PHE C   1       5.284  17.867  27.030  1.00  6.56 LIG 0.00  A 
ATOM     12  CE2 PHE C   1       6.393  17.739  26.215  1.00  6.82 LIG 0.00  A 
ATOM     13  CD2 PHE C   1       7.522  18.498  26.472  1.00  7.43 LIG 0.01  A 
ENDBRANCH 7 8
ENDBRANCH 6 7
BRANCH 6 14
ATOM     14  N   PHE C   1       7.915  22.369  28.588  1.00  9.64 LIG-0.35  N 
ATOM     15 H    PHE C   1       7.679  22.384  27.761  1.00  9.64 LIG 0.16  HD
ATOM     16  C   ACE C   0       7.661  23.347  29.452  1.00 12.10 LIG 0.21  C 
ATOM     17  CH3 ACE C   0       6.976  24.561  28.895  1.00 13.09 LIG 0.12  C 
ATOM     18 O    ACE C   0       7.986  23.272  30.637  1.00 13.69 LIG-0.27  OA
ENDBRANCH 6 14
ENDBRANCH 4 6
ENDBRANCH 1 2
BRANCH 1 19
ATOM     19  C   HIS C   2      11.916  23.056  30.914  1.00  9.05 LIG 0.24  C 
ATOM     20  N   ALA C   3      13.058  22.738  31.506  1.00  9.24 LIG-0.35  N 
ATOM     21 H    ALA C   3      13.761  22.459  31.096  1.00  9.24 LIG 0.16  HD
ATOM     22 O    HIS C   2      10.918  23.387  31.542  1.00  8.29 LIG-0.27  OA
BRANCH 20 23
ATOM     23  CA  ALA C   3      13.192  22.848  32.956  1.00  8.91 LIG 0.17  C 
ATOM     24  CB  ALA C   3      12.904  21.513  33.622  1.00  9.99 LIG 0.04  C 
BRANCH 23 25
ATOM     25  C   ALA C   3      14.600  23.326  33.320  1.00  9.36 LIG 0.24  C 
ATOM     26  N   ALA C   4      15.585  22.460  33.111  1.00  9.08 LIG-0.35  N 
ATOM     27 H    ALA C   4      15.486  21.710  32.702  1.00  9.08 LIG 0.16  HD
ATOM     28 O    ALA C   3      14.790  24.467  33.761  1.00  9.90 LIG-0.27  OA
BRANCH 26 29
ATOM     29  CA  ALA C   4      16.948  22.722  33.571  1.00  9.70 LIG 0.18  C 
ATOM     30  CB  ALA C   4      17.649  21.420  33.886  1.00  9.53 LIG 0.04  C 
BRANCH 29 31
ATOM     31  C   ALA C   4      17.782  23.529  32.594  1.00 11.00 LIG 0.28  C 
ATOM     32  N   NH2 C   5      17.135  24.140  31.611  1.00 10.22 LIG-0.11  N 
ATOM     33 O    ALA C   4      18.998  23.562  32.720  1.00 13.70 LIG-0.27  OA
ENDBRANCH 29 31
ENDBRANCH 26 29
ENDBRANCH 23 25
ENDBRANCH 20 23
ENDBRANCH 1 19
BRANCH 1 34
ATOM     34  CB  HIS C   2      12.126  24.485  28.922  1.00 12.23 LIG 0.10  C 
BRANCH 34 35
ATOM     35  CG  HIS C   2      11.999  24.665  27.447  1.00 15.24 LIG 0.06  A 
ATOM     36 ND1  HIS C   2      12.893  24.119  26.554  1.00 17.16 LIG-0.24  NA
ATOM     37  CE1 HIS C   2      12.535  24.440  25.324  1.00 17.55 LIG 0.23  A 
ATOM     38 NE2  HIS C   2      11.439  25.175  25.388  1.00 18.01 LIG-0.25  NA
ATOM     39  CD2 HIS C   2      11.082  25.329  26.705  1.00 16.53 LIG 0.14  A 
ENDBRANCH 34 35
ENDBRANCH 1 34
TORSDOF 12
ENDMDL
MODEL 11
USER: ADFR SOLUTION from run 82
USER: SCORE 11.969840 LL:  -2.851 LR: -10.830 RR:   0.000 FEB:  -7.250
USER: RMSD 5.148810
USER: SEED 81
USER: STATUS no improvement in best in 13 clusters for 5 generations
USER: GENES 14
USER: genes 0 Translation |==|  0.48383 0.45612 0.50309
USER: genes 1 Rotation |==|  0.73144 0.26278 0.63027 0.85099
USER: genes 2 Torsion [CB]-CA--N-[C] |==|  0.22004
USER: genes 3 Torsion [N]-C--CA-[N] |==|  0.19066
USER: genes 4 Torsion [C]-CA--CB-[CG] |==|  0.22759
USER: genes 5 Torsion [CA]-CB--CG-[CD1] |==|  0.43300
USER: genes 6 Torsion [C]-CA--N-[C] |==|  0.75054
USER: genes 7 Torsion [N]-CA--C-[N] |==|  0.95663
USER: genes 8 Torsion [C]-N--CA-[CB] |==|  0.15993
USER: genes 9 Torsion [N]-CA--C-[N] |==|  0.03170
USER: genes 10 Torsion [C]-N--CA-[C] |==|  0.70556
USER: genes 11 Torsion [N]-CA--C-[N] |==|  0.23085
USER: genes 12 Torsion [N]-CA--CB-[CG] |==|  0.58834
USER: genes 13 Torsion [CA]-CB--CG-[CD2] |==|  0.45188
ROOT
ATOM      1  CA  HIS C   2      12.267  20.766  30.921  1.00 10.06 LIG 0.18  C 
ENDROOT
BRANCH 1 2
ATOM      2  N   HIS C   2      13.502  20.298  31.550  1.00  9.48 LIG-0.35  N 
ATOM      3 H    HIS C   2      14.029  20.930  31.800  1.00  9.48 LIG 0.16  HD
ATOM      4  C   PHE C   1      13.775  19.010  31.713  1.00  9.37 LIG 0.24  C 
ATOM      5 O    PHE C   1      12.988  18.113  31.430  1.00 11.27 LIG-0.27  OA
BRANCH 4 6
ATOM      6  CA  PHE C   1      15.150  18.691  32.258  1.00  8.68 LIG 0.18  C 
BRANCH 6 7
ATOM      7  CB  PHE C   1      15.383  17.186  32.133  1.00  8.30 LIG 0.07  C 
BRANCH 7 8
ATOM      8  CG  PHE C   1      15.834  16.757  30.768  1.00  6.80 LIG-0.06  A 
ATOM      9  CD1 PHE C   1      16.550  15.580  30.595  1.00  6.68 LIG 0.01  A 
ATOM     10  CE1 PHE C   1      16.952  15.184  29.333  1.00  6.85 LIG 0.00  A 
ATOM     11  CZ  PHE C   1      16.658  15.963  28.236  1.00  6.56 LIG 0.00  A 
ATOM     12  CE2 PHE C   1      15.949  17.140  28.391  1.00  6.82 LIG 0.00  A 
ATOM     13  CD2 PHE C   1      15.538  17.529  29.654  1.00  7.43 LIG 0.01  A 
ENDBRANCH 7 8
ENDBRANCH 6 7
BRANCH 6 14
ATOM     14  N   PHE C   1      15.279  19.118  33.654  1.00  9.64 LIG-0.35  N 
ATOM     15 H    PHE C   1      15.056  18.521  34.232  1.00  9.64 LIG 0.16  HD
ATOM     16  C   ACE C   0      15.709  20.335  33.970  1.00 12.10 LIG 0.21  C 
ATOM     17  CH3 ACE C   0      15.730  20.671  35.433  1.00 13.09 LIG 0.12  C 
ATOM     18 O    ACE C   0      16.053  21.149  33.113  1.00 13.69 LIG-0.27  OA
ENDBRANCH 6 14
ENDBRANCH 4 6
ENDBRANCH 1 2
BRANCH 1 19
ATOM     19  C   HIS C   2      12.445  22.205  30.486  1.00  9.05 LIG 0.24  C 
ATOM     20  N   ALA C   3      13.473  22.863  31.002  1.00  9.24 LIG-0.35  N 
ATOM     21 H    ALA C   3      13.995  22.555  31.612  1.00  9.24 LIG 0.16  HD
ATOM     22 O    HIS C   2      11.688  22.706  29.663  1.00  8.29 LIG-0.27  OA
BRANCH 20 23
ATOM     23  CA  ALA C   3      13.792  24.211  30.540  1.00  8.91 LIG 0.17  C 
ATOM     24  CB  ALA C   3      12.604  25.137  30.731  1.00  9.99 LIG 0.04  C 
BRANCH 23 25
ATOM     25  C   ALA C   3      15.009  24.753  31.295  1.00  9.36 LIG 0.24  C 
ATOM     26  N   ALA C   4      15.685  23.873  32.024  1.00  9.08 LIG-0.35  N 
ATOM     27 H    ALA C   4      15.538  23.026  32.012  1.00  9.08 LIG 0.16  HD
ATOM     28 O    ALA C   3      15.340  25.942  31.198  1.00  9.90 LIG-0.27  OA
BRANCH 26 29
ATOM     29  CA  ALA C   4      16.759  24.287  32.925  1.00  9.70 LIG 0.18  C 
ATOM     30  CB  ALA C   4      16.558  23.673  34.291  1.00  9.53 LIG 0.04  C 
BRANCH 29 31
ATOM     31  C   ALA C   4      18.150  23.956  32.417  1.00 11.00 LIG 0.28  C 
ATOM     32  N   NH2 C   5      18.697  24.808  31.560  1.00 10.22 LIG-0.11  N 
ATOM     33 O    ALA C   4      18.697  22.923  32.777  1.00 13.70 LIG-0.27  OA
ENDBRANCH 29 31
ENDBRANCH 26 29
ENDBRANCH 23 25
ENDBRANCH 20 23
ENDBRANCH 1 19
BRANCH 1 34
ATOM     34  CB  HIS C   2      11.089  20.718  31.902  1.00 12.23 LIG 0.10  C 
BRANCH 34 35
ATOM     35  CG  HIS C   2       9.772  20.441  31.261  1.00 15.24 LIG 0.06  A 
ATOM     36 ND1  HIS C   2       9.561  20.587  29.908  1.00 17.16 LIG-0.24  NA
ATOM     37  CE1 HIS C   2       8.308  20.275  29.625  1.00 17.55 LIG 0.23  A 
ATOM     38 NE2  HIS C   2       7.701  19.932  30.747  1.00 18.01 LIG-0.25  NA
ATOM     39  CD2 HIS C   2       8.595  20.025  31.784  1.00 16.53 LIG 0.14  A 
ENDBRANCH 34 35
ENDBRANCH 1 34
TORSDOF 12
ENDMDL
MODEL 12
USER: ADFR SOLUTION from run 193
USER: SCORE 11.382609 LL:  -2.739 LR: -10.758 RR:   0.000 FEB:  -7.179
USER: RMSD 9.057015
USER: SEED 192
USER: STATUS no improvement in best in 8 clusters for 5 generations
USER: GENES 14
USER: genes 0 Translation |==|  0.34290 0.58906 0.37591
USER: genes 1 Rotation |==|  0.73625 0.81165 0.74087 0.69759
USER: genes 2 Torsion [CB]-CA--N-[C] |==|  0.88741
USER: genes 3 Torsion [N]-C--CA-[N] |==|  0.42333
USER: genes 4 Torsion [C]-CA--CB-[CG] |==|  0.10907
USER: genes 5 Torsion [CA]-CB--CG-[CD1] |==|  0.21576
USER: genes 6 Torsion [C]-CA--N-[C] |==|  0.62797
USER: genes 7 Torsion [N]-CA--C-[N] |==|  0.30566
USER: genes 8 Torsion [C]-N--CA-[CB] |==|  0.16568
USER: genes 9 Torsion [N]-CA--C-[N] |==|  0.83757
USER: genes 10 Torsion [C]-N--CA-[C] |==|  0.73116
USER: genes 11 Torsion [N]-CA--C-[N] |==|  0.35657
USER: genes 12 Torsion [N]-CA--CB-[CG] |==|  0.53996
USER: genes 13 Torsion [CA]-CB--CG-[CD2] |==|  0.53563
ROOT
ATOM      1  CA  HIS C   2       9.942  23.558  28.441  1.00 10.06 LIG 0.18  C 
ENDROOT
BRANCH 1 2
ATOM      2  N   HIS C   2       9.449  24.550  27.485  1.00  9.48 LIG-0.35  N 
ATOM      3 H    HIS C   2       9.500  24.299  26.664  1.00  9.48 LIG 0.16  HD
ATOM      4  C   PHE C   1       8.969  25.727  27.863  1.00  9.37 LIG 0.24  C 
ATOM      5 O    PHE C   1       8.822  26.051  29.037  1.00 11.27 LIG-0.27  OA
BRANCH 4 6
ATOM      6  CA  PHE C   1       8.626  26.689  26.746  1.00  8.68 LIG 0.18  C 
BRANCH 6 7
ATOM      7  CB  PHE C   1       9.890  27.456  26.361  1.00  8.30 LIG 0.07  C 
BRANCH 7 8
ATOM      8  CG  PHE C   1      11.131  26.614  26.360  1.00  6.80 LIG-0.06  A 
ATOM      9  CD1 PHE C   1      11.400  25.747  25.309  1.00  6.68 LIG 0.01  A 
ATOM     10  CE1 PHE C   1      12.551  24.983  25.309  1.00  6.85 LIG 0.00  A 
ATOM     11  CZ  PHE C   1      13.436  25.063  26.361  1.00  6.56 LIG 0.00  A 
ATOM     12  CE2 PHE C   1      13.182  25.918  27.417  1.00  6.82 LIG 0.00  A 
ATOM     13  CD2 PHE C   1      12.033  26.691  27.411  1.00  7.43 LIG 0.01  A 
ENDBRANCH 7 8
ENDBRANCH 6 7
BRANCH 6 14
ATOM     14  N   PHE C   1       7.564  27.614  27.151  1.00  9.64 LIG-0.35  N 
ATOM     15 H    PHE C   1       7.673  27.962  27.930  1.00  9.64 LIG 0.16  HD
ATOM     16  C   ACE C   0       6.529  27.872  26.359  1.00 12.10 LIG 0.21  C 
ATOM     17  CH3 ACE C   0       5.476  28.783  26.921  1.00 13.09 LIG 0.12  C 
ATOM     18 O    ACE C   0       6.427  27.379  25.236  1.00 13.69 LIG-0.27  OA
ENDBRANCH 6 14
ENDBRANCH 4 6
ENDBRANCH 1 2
BRANCH 1 19
ATOM     19  C   HIS C   2       8.764  22.850  29.075  1.00  9.05 LIG 0.24  C 
ATOM     20  N   ALA C   3       8.580  21.580  28.741  1.00  9.24 LIG-0.35  N 
ATOM     21 H    ALA C   3       9.033  21.161  28.142  1.00  9.24 LIG 0.16  HD
ATOM     22 O    HIS C   2       8.053  23.427  29.889  1.00  8.29 LIG-0.27  OA
BRANCH 20 23
ATOM     23  CA  ALA C   3       7.547  20.787  29.402  1.00  8.91 LIG 0.17  C 
ATOM     24  CB  ALA C   3       6.178  21.408  29.190  1.00  9.99 LIG 0.04  C 
BRANCH 23 25
ATOM     25  C   ALA C   3       7.563  19.352  28.869  1.00  9.36 LIG 0.24  C 
ATOM     26  N   ALA C   4       7.377  19.211  27.561  1.00  9.08 LIG-0.35  N 
ATOM     27 H    ALA C   4       7.350  19.868  27.007  1.00  9.08 LIG 0.16  HD
ATOM     28 O    ALA C   3       7.764  18.394  29.626  1.00  9.90 LIG-0.27  OA
BRANCH 26 29
ATOM     29  CA  ALA C   4       7.199  17.895  26.949  1.00  9.70 LIG 0.18  C 
ATOM     30  CB  ALA C   4       6.128  17.958  25.884  1.00  9.53 LIG 0.04  C 
BRANCH 29 31
ATOM     31  C   ALA C   4       8.472  17.314  26.360  1.00 11.00 LIG 0.28  C 
ATOM     32  N   NH2 C   5       8.798  16.083  26.728  1.00 10.22 LIG-0.11  N 
ATOM     33 O    ALA C   4       9.158  17.995  25.611  1.00 13.70 LIG-0.27  OA
ENDBRANCH 29 31
ENDBRANCH 26 29
ENDBRANCH 23 25
ENDBRANCH 20 23
ENDBRANCH 1 19
BRANCH 1 34
ATOM     34  CB  HIS C   2      10.748  24.221  29.566  1.00 12.23 LIG 0.10  C 
BRANCH 34 35
ATOM     35  CG  HIS C   2      11.557  23.269  30.379  1.00 15.24 LIG 0.06  A 
ATOM     36 ND1  HIS C   2      11.784  21.968  29.989  1.00 17.16 LIG-0.24  NA
ATOM     37  CE1 HIS C   2      12.528  21.362  30.898  1.00 17.55 LIG 0.23  A 
ATOM     38 NE2  HIS C   2      12.791  22.225  31.863  1.00 18.01 LIG-0.25  NA
ATOM     39  CD2 HIS C   2      12.197  23.425  31.561  1.00 16.53 LIG 0.14  A 
ENDBRANCH 34 35
ENDBRANCH 1 34
TORSDOF 12
ENDMDL
MODEL 13
USER: ADFR SOLUTION from run 185
USER: SCORE 12.246071 LL:  -2.999 LR: -10.734 RR:   0.000 FEB:  -7.155
USER: RMSD 7.504864
USER: SEED 184
USER: STATUS no improvement in best in 8 clusters for 5 generations
USER: GENES 14
USER: genes 0 Translation |==|  0.30383 0.64638 0.32692
USER: genes 1 Rotation |==|  0.60011 0.16815 0.44055 0.85541
USER: genes 2 Torsion [CB]-CA--N-[C] |==|  0.15151
USER: genes 3 Torsion [N]-C--CA-[N] |==|  0.20926
USER: genes 4 Torsion [C]-CA--CB-[CG] |==|  0.29889
USER: genes 5 Torsion [CA]-CB--CG-[CD1] |==|  0.57631
USER: genes 6 Torsion [C]-CA--N-[C] |==|  0.79323
USER: genes 7 Torsion [N]-CA--C-[N] |==|  0.14399
USER: genes 8 Torsion [C]-N--CA-[CB] |==|  0.84135
USER: genes 9 Torsion [N]-CA--C-[N] |==|  0.03888
USER: genes 10 Torsion [C]-N--CA-[C] |==|  0.60458
USER: genes 11 Torsion [N]-CA--C-[N] |==|  0.48289
USER: genes 12 Torsion [N]-CA--CB-[CG] |==|  0.64448
USER: genes 13 Torsion [CA]-CB--CG-[CD2] |==|  0.36327
ROOT
ATOM      1  CA  HIS C   2       9.297  24.762  27.486  1.00 10.06 LIG 0.18  C 
ENDROOT
BRANCH 1 2
ATOM      2  N   HIS C   2       9.518  23.438  28.067  1.00  9.48 LIG-0.35  N 
ATOM      3 H    HIS C   2      10.340  23.188  28.066  1.00  9.48 LIG 0.16  HD
ATOM      4  C   PHE C   1       8.529  22.697  28.549  1.00  9.37 LIG 0.24  C 
ATOM      5 O    PHE C   1       7.368  23.087  28.624  1.00 11.27 LIG-0.27  OA
BRANCH 4 6
ATOM      6  CA  PHE C   1       8.905  21.300  28.991  1.00  8.68 LIG 0.18  C 
BRANCH 6 7
ATOM      7  CB  PHE C   1       7.630  20.466  29.102  1.00  8.30 LIG 0.07  C 
BRANCH 7 8
ATOM      8  CG  PHE C   1       7.479  19.446  28.012  1.00  6.80 LIG-0.06  A 
ATOM      9  CD1 PHE C   1       6.222  19.018  27.610  1.00  6.68 LIG 0.01  A 
ATOM     10  CE1 PHE C   1       6.090  18.087  26.596  1.00  6.85 LIG 0.00  A 
ATOM     11  CZ  PHE C   1       7.208  17.564  25.986  1.00  6.56 LIG 0.00  A 
ATOM     12  CE2 PHE C   1       8.468  17.977  26.376  1.00  6.82 LIG 0.00  A 
ATOM     13  CD2 PHE C   1       8.598  18.917  27.384  1.00  7.43 LIG 0.01  A 
ENDBRANCH 7 8
ENDBRANCH 6 7
BRANCH 6 14
ATOM     14  N   PHE C   1       9.619  21.323  30.271  1.00  9.64 LIG-0.35  N 
ATOM     15 H    PHE C   1       9.153  21.059  30.944  1.00  9.64 LIG 0.16  HD
ATOM     16  C   ACE C   0      10.883  21.725  30.354  1.00 12.10 LIG 0.21  C 
ATOM     17  CH3 ACE C   0      11.475  21.768  31.733  1.00 13.09 LIG 0.12  C 
ATOM     18 O    ACE C   0      11.527  22.063  29.361  1.00 13.69 LIG-0.27  OA
ENDBRANCH 6 14
ENDBRANCH 4 6
ENDBRANCH 1 2
BRANCH 1 19
ATOM     19  C   HIS C   2      10.635  25.403  27.185  1.00  9.05 LIG 0.24  C 
ATOM     20  N   ALA C   3      11.493  24.688  26.472  1.00  9.24 LIG-0.35  N 
ATOM     21 H    ALA C   3      11.371  23.870  26.235  1.00  9.24 LIG 0.16  HD
ATOM     22 O    HIS C   2      10.877  26.546  27.556  1.00  8.29 LIG-0.27  OA
BRANCH 20 23
ATOM     23  CA  ALA C   3      12.753  25.278  26.028  1.00  8.91 LIG 0.17  C 
ATOM     24  CB  ALA C   3      12.497  26.528  25.204  1.00  9.99 LIG 0.04  C 
BRANCH 23 25
ATOM     25  C   ALA C   3      13.633  25.613  27.235  1.00  9.36 LIG 0.24  C 
ATOM     26  N   ALA C   4      13.268  25.075  28.393  1.00  9.08 LIG-0.35  N 
ATOM     27 H    ALA C   4      12.645  24.488  28.474  1.00  9.08 LIG 0.16  HD
ATOM     28 O    ALA C   3      14.636  26.328  27.112  1.00  9.90 LIG-0.27  OA
BRANCH 26 29
ATOM     29  CA  ALA C   4      13.915  25.447  29.650  1.00  9.70 LIG 0.18  C 
ATOM     30  CB  ALA C   4      13.137  26.552  30.328  1.00  9.53 LIG 0.04  C 
BRANCH 29 31
ATOM     31  C   ALA C   4      14.101  24.288  30.613  1.00 11.00 LIG 0.28  C 
ATOM     32  N   NH2 C   5      14.792  24.529  31.718  1.00 10.22 LIG-0.11  N 
ATOM     33 O    ALA C   4      13.648  23.188  30.330  1.00 13.70 LIG-0.27  OA
ENDBRANCH 29 31
ENDBRANCH 26 29
ENDBRANCH 23 25
ENDBRANCH 20 23
ENDBRANCH 1 19
BRANCH 1 34
ATOM     34  CB  HIS C   2       8.549  25.680  28.460  1.00 12.23 LIG 0.10  C 
BRANCH 34 35
ATOM     35  CG  HIS C   2       7.339  26.331  27.880  1.00 15.24 LIG 0.06  A 
ATOM     36 ND1  HIS C   2       7.359  26.983  26.667  1.00 17.16 LIG-0.24  NA
ATOM     37  CE1 HIS C   2       6.154  27.460  26.408  1.00 17.55 LIG 0.23  A 
ATOM     38 NE2  HIS C   2       5.355  27.138  27.409  1.00 18.01 LIG-0.25  NA
ATOM     39  CD2 HIS C   2       6.071  26.430  28.341  1.00 16.53 LIG 0.14  A 
ENDBRANCH 34 35
ENDBRANCH 1 34
TORSDOF 12
ENDMDL
MODEL 14
USER: ADFR SOLUTION from run 60
USER: SCORE 11.677266 LL:  -3.067 LR: -10.654 RR:   0.000 FEB:  -7.075
USER: RMSD 4.816151
USER: SEED 59
USER: STATUS no improvement in best in 21 clusters for 5 generations
USER: GENES 14
USER: genes 0 Translation |==|  0.46259 0.49110 0.50793
USER: genes 1 Rotation |==|  0.68569 0.27553 0.50964 0.90625
USER: genes 2 Torsion [CB]-CA--N-[C] |==|  0.16111
USER: genes 3 Torsion [N]-C--CA-[N] |==|  0.58981
USER: genes 4 Torsion [C]-CA--CB-[CG] |==|  0.58084
USER: genes 5 Torsion [CA]-CB--CG-[CD1] |==|  0.34873
USER: genes 6 Torsion [C]-CA--N-[C] |==|  0.67315
USER: genes 7 Torsion [N]-CA--C-[N] |==|  0.85947
USER: genes 8 Torsion [C]-N--CA-[CB] |==|  0.16427
USER: genes 9 Torsion [N]-CA--C-[N] |==|  0.09432
USER: genes 10 Torsion [C]-N--CA-[C] |==|  0.74707
USER: genes 11 Torsion [N]-CA--C-[N] |==|  0.14825
USER: genes 12 Torsion [N]-CA--CB-[CG] |==|  0.15669
USER: genes 13 Torsion [CA]-CB--CG-[CD2] |==|  0.79570
ROOT
ATOM      1  CA  HIS C   2      11.917  21.501  31.016  1.00 10.06 LIG 0.18  C 
ENDROOT
BRANCH 1 2
ATOM      2  N   HIS C   2      12.947  20.498  31.283  1.00  9.48 LIG-0.35  N 
ATOM      3 H    HIS C   2      13.736  20.730  31.031  1.00  9.48 LIG 0.16  HD
ATOM      4  C   PHE C   1      12.677  19.336  31.862  1.00  9.37 LIG 0.24  C 
ATOM      5 O    PHE C   1      11.568  19.038  32.294  1.00 11.27 LIG-0.27  OA
BRANCH 4 6
ATOM      6  CA  PHE C   1      13.828  18.356  31.946  1.00  8.68 LIG 0.18  C 
BRANCH 6 7
ATOM      7  CB  PHE C   1      14.808  18.663  30.815  1.00  8.30 LIG 0.07  C 
BRANCH 7 8
ATOM      8  CG  PHE C   1      15.571  17.464  30.335  1.00  6.80 LIG-0.06  A 
ATOM      9  CD1 PHE C   1      15.567  17.111  28.992  1.00  6.68 LIG 0.01  A 
ATOM     10  CE1 PHE C   1      16.282  16.012  28.555  1.00  6.85 LIG 0.00  A 
ATOM     11  CZ  PHE C   1      16.993  15.246  29.452  1.00  6.56 LIG 0.00  A 
ATOM     12  CE2 PHE C   1      17.005  15.581  30.793  1.00  6.82 LIG 0.00  A 
ATOM     13  CD2 PHE C   1      16.297  16.689  31.228  1.00  7.43 LIG 0.01  A 
ENDBRANCH 7 8
ENDBRANCH 6 7
BRANCH 6 14
ATOM     14  N   PHE C   1      13.354  16.973  31.856  1.00  9.64 LIG-0.35  N 
ATOM     15 H    PHE C   1      12.964  16.777  31.115  1.00  9.64 LIG 0.16  HD
ATOM     16  C   ACE C   0      13.526  16.114  32.856  1.00 12.10 LIG 0.21  C 
ATOM     17  CH3 ACE C   0      12.933  14.748  32.665  1.00 13.09 LIG 0.12  C 
ATOM     18 O    ACE C   0      14.120  16.424  33.888  1.00 13.69 LIG-0.27  OA
ENDBRANCH 6 14
ENDBRANCH 4 6
ENDBRANCH 1 2
BRANCH 1 19
ATOM     19  C   HIS C   2      12.564  22.735  30.423  1.00  9.05 LIG 0.24  C 
ATOM     20  N   ALA C   3      13.608  23.231  31.072  1.00  9.24 LIG-0.35  N 
ATOM     21 H    ALA C   3      13.891  22.948  31.833  1.00  9.24 LIG 0.16  HD
ATOM     22 O    HIS C   2      12.155  23.210  29.371  1.00  8.29 LIG-0.27  OA
BRANCH 20 23
ATOM     23  CA  ALA C   3      14.370  24.340  30.504  1.00  8.91 LIG 0.17  C 
ATOM     24  CB  ALA C   3      13.474  25.547  30.284  1.00  9.99 LIG 0.04  C 
BRANCH 23 25
ATOM     25  C   ALA C   3      15.533  24.709  31.427  1.00  9.36 LIG 0.24  C 
ATOM     26  N   ALA C   4      16.096  23.704  32.089  1.00  9.08 LIG-0.35  N 
ATOM     27 H    ALA C   4      15.912  22.876  31.952  1.00  9.08 LIG 0.16  HD
ATOM     28 O    ALA C   3      15.927  25.879  31.518  1.00  9.90 LIG-0.27  OA
BRANCH 26 29
ATOM     29  CA  ALA C   4      17.099  23.936  33.128  1.00  9.70 LIG 0.18  C 
ATOM     30  CB  ALA C   4      16.958  22.907  34.226  1.00  9.53 LIG 0.04  C 
BRANCH 29 31
ATOM     31  C   ALA C   4      18.527  23.942  32.613  1.00 11.00 LIG 0.28  C 
ATOM     32  N   NH2 C   5      18.800  24.757  31.604  1.00 10.22 LIG-0.11  N 
ATOM     33 O    ALA C   4      19.352  23.189  33.110  1.00 13.70 LIG-0.27  OA
ENDBRANCH 29 31
ENDBRANCH 26 29
ENDBRANCH 23 25
ENDBRANCH 20 23
ENDBRANCH 1 19
BRANCH 1 34
ATOM     34  CB  HIS C   2      11.202  21.923  32.305  1.00 12.23 LIG 0.10  C 
BRANCH 34 35
ATOM     35  CG  HIS C   2      12.113  22.442  33.366  1.00 15.24 LIG 0.06  A 
ATOM     36 ND1  HIS C   2      12.188  23.778  33.690  1.00 17.16 LIG-0.24  NA
ATOM     37  CE1 HIS C   2      13.073  23.944  34.657  1.00 17.55 LIG 0.23  A 
ATOM     38 NE2  HIS C   2      13.572  22.763  34.972  1.00 18.01 LIG-0.25  NA
ATOM     39  CD2 HIS C   2      12.987  21.806  34.180  1.00 16.53 LIG 0.14  A 
ENDBRANCH 34 35
ENDBRANCH 1 34
TORSDOF 12
ENDMDL
MODEL 15
USER: ADFR SOLUTION from run 55
USER: SCORE 11.442792 LL:  -2.817 LR: -10.635 RR:   0.000 FEB:  -7.055
USER: RMSD 3.112537
USER: SEED 54
USER: STATUS no improvement in best in 13 clusters for 5 generations
USER: GENES 14
USER: genes 0 Translation |==|  0.60899 0.50447 0.62154
USER: genes 1 Rotation |==|  0.35637 0.64872 0.48087 0.95485
USER: genes 2 Torsion [CB]-CA--N-[C] |==|  0.39592
USER: genes 3 Torsion [N]-C--CA-[N] |==|  0.38050
USER: genes 4 Torsion [C]-CA--CB-[CG] |==|  0.30165
USER: genes 5 Torsion [CA]-CB--CG-[CD1] |==|  0.28475
USER: genes 6 Torsion [C]-CA--N-[C] |==|  0.78046
USER: genes 7 Torsion [N]-CA--C-[N] |==|  0.65795
USER: genes 8 Torsion [C]-N--CA-[CB] |==|  0.17208
USER: genes 9 Torsion [N]-CA--C-[N] |==|  0.07558
USER: genes 10 Torsion [C]-N--CA-[C] |==|  0.80589
USER: genes 11 Torsion [N]-CA--C-[N] |==|  0.41459
USER: genes 12 Torsion [N]-CA--CB-[CG] |==|  0.93934
USER: genes 13 Torsion [CA]-CB--CG-[CD2] |==|  0.39003
ROOT
ATOM      1  CA  HIS C   2      14.332  21.782  33.231  1.00 10.06 LIG 0.18  C 
ENDROOT
BRANCH 1 2
ATOM      2  N   HIS C   2      15.328  20.713  33.149  1.00  9.48 LIG-0.35  N 
ATOM      3 H    HIS C   2      15.835  20.760  32.456  1.00  9.48 LIG 0.16  HD
ATOM      4  C   PHE C   1      15.430  19.762  34.067  1.00  9.37 LIG 0.24  C 
ATOM      5 O    PHE C   1      14.761  19.742  35.095  1.00 11.27 LIG-0.27  OA
BRANCH 4 6
ATOM      6  CA  PHE C   1      16.420  18.658  33.766  1.00  8.68 LIG 0.18  C 
BRANCH 6 7
ATOM      7  CB  PHE C   1      15.649  17.440  33.259  1.00  8.30 LIG 0.07  C 
BRANCH 7 8
ATOM      8  CG  PHE C   1      15.836  17.174  31.795  1.00  6.80 LIG-0.06  A 
ATOM      9  CD1 PHE C   1      16.683  16.164  31.359  1.00  6.68 LIG 0.01  A 
ATOM     10  CE1 PHE C   1      16.840  15.916  30.008  1.00  6.85 LIG 0.00  A 
ATOM     11  CZ  PHE C   1      16.169  16.681  29.081  1.00  6.56 LIG 0.00  A 
ATOM     12  CE2 PHE C   1      15.324  17.693  29.497  1.00  6.82 LIG 0.00  A 
ATOM     13  CD2 PHE C   1      15.159  17.933  30.851  1.00  7.43 LIG 0.01  A 
ENDBRANCH 7 8
ENDBRANCH 6 7
BRANCH 6 14
ATOM     14  N   PHE C   1      17.207  18.313  34.954  1.00  9.64 LIG-0.35  N 
ATOM     15 H    PHE C   1      16.945  17.601  35.360  1.00  9.64 LIG 0.16  HD
ATOM     16  C   ACE C   0      18.234  19.058  35.347  1.00 12.10 LIG 0.21  C 
ATOM     17  CH3 ACE C   0      18.912  18.635  36.618  1.00 13.09 LIG 0.12  C 
ATOM     18 O    ACE C   0      18.598  20.052  34.717  1.00 13.69 LIG-0.27  OA
ENDBRANCH 6 14
ENDBRANCH 4 6
ENDBRANCH 1 2
BRANCH 1 19
ATOM     19  C   HIS C   2      13.152  21.432  32.351  1.00  9.05 LIG 0.24  C 
ATOM     20  N   ALA C   3      12.828  22.308  31.410  1.00  9.24 LIG-0.35  N 
ATOM     21 H    ALA C   3      13.191  23.082  31.316  1.00  9.24 LIG 0.16  HD
ATOM     22 O    HIS C   2      12.564  20.366  32.489  1.00  8.29 LIG-0.27  OA
BRANCH 20 23
ATOM     23  CA  ALA C   3      11.786  21.992  30.436  1.00  8.91 LIG 0.17  C 
ATOM     24  CB  ALA C   3      10.452  21.779  31.131  1.00  9.99 LIG 0.04  C 
BRANCH 23 25
ATOM     25  C   ALA C   3      11.670  23.118  29.406  1.00  9.36 LIG 0.24  C 
ATOM     26  N   ALA C   4      12.770  23.829  29.188  1.00  9.08 LIG-0.35  N 
ATOM     27 H    ALA C   4      13.541  23.631  29.512  1.00  9.08 LIG 0.16  HD
ATOM     28 O    ALA C   3      10.607  23.321  28.803  1.00  9.90 LIG-0.27  OA
BRANCH 26 29
ATOM     29  CA  ALA C   4      12.753  25.035  28.361  1.00  9.70 LIG 0.18  C 
ATOM     30  CB  ALA C   4      14.034  25.815  28.553  1.00  9.53 LIG 0.04  C 
BRANCH 29 31
ATOM     31  C   ALA C   4      12.536  24.764  26.884  1.00 11.00 LIG 0.28  C 
ATOM     32  N   NH2 C   5      11.905  25.699  26.187  1.00 10.22 LIG-0.11  N 
ATOM     33 O    ALA C   4      12.909  23.705  26.401  1.00 13.70 LIG-0.27  OA
ENDBRANCH 29 31
ENDBRANCH 26 29
ENDBRANCH 23 25
ENDBRANCH 20 23
ENDBRANCH 1 19
BRANCH 1 34
ATOM     34  CB  HIS C   2      14.905  23.116  32.736  1.00 12.23 LIG 0.10  C 
BRANCH 34 35
ATOM     35  CG  HIS C   2      16.393  23.192  32.772  1.00 15.24 LIG 0.06  A 
ATOM     36 ND1  HIS C   2      17.137  22.666  33.805  1.00 17.16 LIG-0.24  NA
ATOM     37  CE1 HIS C   2      18.420  22.881  33.573  1.00 17.55 LIG 0.23  A 
ATOM     38 NE2  HIS C   2      18.534  23.526  32.426  1.00 18.01 LIG-0.25  NA
ATOM     39  CD2 HIS C   2      17.281  23.732  31.905  1.00 16.53 LIG 0.14  A 
ENDBRANCH 34 35
ENDBRANCH 1 34
TORSDOF 12
ENDMDL
MODEL 16
USER: ADFR SOLUTION from run 62
USER: SCORE 11.373703 LL:  -2.599 LR: -10.597 RR:   0.000 FEB:  -7.017
USER: RMSD 6.808461
USER: SEED 61
USER: STATUS no improvement in best in 28 clusters for 5 generations
USER: GENES 14
USER: genes 0 Translation |==|  0.52790 0.40789 0.52923
USER: genes 1 Rotation |==|  0.77274 0.09023 0.43530 0.55930
USER: genes 2 Torsion [CB]-CA--N-[C] |==|  0.52899
USER: genes 3 Torsion [N]-C--CA-[N] |==|  0.33414
USER: genes 4 Torsion [C]-CA--CB-[CG] |==|  0.25628
USER: genes 5 Torsion [CA]-CB--CG-[CD1] |==|  0.59309
USER: genes 6 Torsion [C]-CA--N-[C] |==|  0.83386
USER: genes 7 Torsion [N]-CA--C-[N] |==|  0.28545
USER: genes 8 Torsion [C]-N--CA-[CB] |==|  0.17304
USER: genes 9 Torsion [N]-CA--C-[N] |==|  0.99445
USER: genes 10 Torsion [C]-N--CA-[C] |==|  0.17010
USER: genes 11 Torsion [N]-CA--C-[N] |==|  0.02280
USER: genes 12 Torsion [N]-CA--CB-[CG] |==|  0.62391
USER: genes 13 Torsion [CA]-CB--CG-[CD2] |==|  0.47623
ROOT
ATOM      1  CA  HIS C   2      12.994  19.754  31.431  1.00 10.06 LIG 0.18  C 
ENDROOT
BRANCH 1 2
ATOM      2  N   HIS C   2      13.399  18.368  31.194  1.00  9.48 LIG-0.35  N 
ATOM      3 H    HIS C   2      12.776  17.872  30.869  1.00  9.48 LIG 0.16  HD
ATOM      4  C   PHE C   1      14.621  17.927  31.460  1.00  9.37 LIG 0.24  C 
ATOM      5 O    PHE C   1      15.532  18.653  31.846  1.00 11.27 LIG-0.27  OA
BRANCH 4 6
ATOM      6  CA  PHE C   1      14.840  16.440  31.283  1.00  8.68 LIG 0.18  C 
BRANCH 6 7
ATOM      7  CB  PHE C   1      15.219  15.842  32.637  1.00  8.30 LIG 0.07  C 
BRANCH 7 8
ATOM      8  CG  PHE C   1      14.047  15.330  33.421  1.00  6.80 LIG-0.06  A 
ATOM      9  CD1 PHE C   1      14.034  15.403  34.807  1.00  6.68 LIG 0.01  A 
ATOM     10  CE1 PHE C   1      12.946  14.940  35.522  1.00  6.85 LIG 0.00  A 
ATOM     11  CZ  PHE C   1      11.869  14.387  34.866  1.00  6.56 LIG 0.00  A 
ATOM     12  CE2 PHE C   1      11.867  14.304  33.486  1.00  6.82 LIG 0.00  A 
ATOM     13  CD2 PHE C   1      12.953  14.778  32.770  1.00  7.43 LIG 0.01  A 
ENDBRANCH 7 8
ENDBRANCH 6 7
BRANCH 6 14
ATOM     14  N   PHE C   1      15.883  16.172  30.290  1.00  9.64 LIG-0.35  N 
ATOM     15 H    PHE C   1      16.557  15.730  30.591  1.00  9.64 LIG 0.16  HD
ATOM     16  C   ACE C   0      15.769  16.589  29.033  1.00 12.10 LIG 0.21  C 
ATOM     17  CH3 ACE C   0      16.938  16.309  28.134  1.00 13.09 LIG 0.12  C 
ATOM     18 O    ACE C   0      14.771  17.188  28.632  1.00 13.69 LIG-0.27  OA
ENDBRANCH 6 14
ENDBRANCH 4 6
ENDBRANCH 1 2
BRANCH 1 19
ATOM     19  C   HIS C   2      13.365  20.146  32.845  1.00  9.05 LIG 0.24  C 
ATOM     20  N   ALA C   3      14.442  20.904  32.993  1.00  9.24 LIG-0.35  N 
ATOM     21 H    ALA C   3      14.977  21.123  32.356  1.00  9.24 LIG 0.16  HD
ATOM     22 O    HIS C   2      12.665  19.805  33.791  1.00  8.29 LIG-0.27  OA
BRANCH 20 23
ATOM     23  CA  ALA C   3      14.796  21.433  34.307  1.00  8.91 LIG 0.17  C 
ATOM     24  CB  ALA C   3      15.089  20.302  35.277  1.00  9.99 LIG 0.04  C 
BRANCH 23 25
ATOM     25  C   ALA C   3      16.011  22.357  34.193  1.00  9.36 LIG 0.24  C 
ATOM     26  N   ALA C   4      16.541  22.482  32.981  1.00  9.08 LIG-0.35  N 
ATOM     27 H    ALA C   4      16.186  22.160  32.267  1.00  9.08 LIG 0.16  HD
ATOM     28 O    ALA C   3      16.445  22.963  35.181  1.00  9.90 LIG-0.27  OA
BRANCH 26 29
ATOM     29  CA  ALA C   4      17.799  23.193  32.762  1.00  9.70 LIG 0.18  C 
ATOM     30  CB  ALA C   4      17.653  24.644  33.160  1.00  9.53 LIG 0.04  C 
BRANCH 29 31
ATOM     31  C   ALA C   4      18.985  22.581  33.486  1.00 11.00 LIG 0.28  C 
ATOM     32  N   NH2 C   5      18.791  21.411  34.078  1.00 10.22 LIG-0.11  N 
ATOM     33 O    ALA C   4      20.046  23.188  33.530  1.00 13.70 LIG-0.27  OA
ENDBRANCH 29 31
ENDBRANCH 26 29
ENDBRANCH 23 25
ENDBRANCH 20 23
ENDBRANCH 1 19
BRANCH 1 34
ATOM     34  CB  HIS C   2      11.478  19.924  31.282  1.00 12.23 LIG 0.10  C 
BRANCH 34 35
ATOM     35  CG  HIS C   2      11.072  21.126  30.499  1.00 15.24 LIG 0.06  A 
ATOM     36 ND1  HIS C   2      11.971  22.092  30.105  1.00 17.16 LIG-0.24  NA
ATOM     37  CE1 HIS C   2      11.335  23.034  29.431  1.00 17.55 LIG 0.23  A 
ATOM     38 NE2  HIS C   2      10.055  22.712  29.374  1.00 18.01 LIG-0.25  NA
ATOM     39  CD2 HIS C   2       9.865  21.523  30.033  1.00 16.53 LIG 0.14  A 
ENDBRANCH 34 35
ENDBRANCH 1 34
TORSDOF 12
ENDMDL
MODEL 17
USER: ADFR SOLUTION from run 76
USER: SCORE 11.836871 LL:  -2.928 LR: -10.579 RR:   0.000 FEB:  -7.000
USER: RMSD 5.127796
USER: SEED 75
USER: STATUS no improvement in best in 14 clusters for 5 generations
USER: GENES 14
USER: genes 0 Translation |==|  0.72989 0.44406 0.66441
USER: genes 1 Rotation |==|  0.70978 0.65232 0.20459 0.80907
USER: genes 2 Torsion [CB]-CA--N-[C] |==|  0.17304
USER: genes 3 Torsion [N]-C--CA-[N] |==|  0.84444
USER: genes 4 Torsion [C]-CA--CB-[CG] |==|  0.23423
USER: genes 5 Torsion [CA]-CB--CG-[CD1] |==|  0.43593
USER: genes 6 Torsion [C]-CA--N-[C] |==|  0.85602
USER: genes 7 Torsion [N]-CA--C-[N] |==|  0.05382
USER: genes 8 Torsion [C]-N--CA-[CB] |==|  0.21246
USER: genes 9 Torsion [N]-CA--C-[N] |==|  0.93818
USER: genes 10 Torsion [C]-N--CA-[C] |==|  0.53013
USER: genes 11 Torsion [N]-CA--C-[N] |==|  0.48288
USER: genes 12 Torsion [N]-CA--CB-[CG] |==|  0.62649
USER: genes 13 Torsion [CA]-CB--CG-[CD2] |==|  0.08345
ROOT
ATOM      1  CA  HIS C   2      16.327  20.513  34.067  1.00 10.06 LIG 0.18  C 
ENDROOT
BRANCH 1 2
ATOM      2  N   HIS C   2      15.528  20.055  32.930  1.00  9.48 LIG-0.35  N 
ATOM      3 H    HIS C   2      15.433  20.644  32.310  1.00  9.48 LIG 0.16  HD
ATOM      4  C   PHE C   1      15.003  18.839  32.872  1.00  9.37 LIG 0.24  C 
ATOM      5 O    PHE C   1      15.207  17.975  33.719  1.00 11.27 LIG-0.27  OA
BRANCH 4 6
ATOM      6  CA  PHE C   1      14.094  18.568  31.693  1.00  8.68 LIG 0.18  C 
BRANCH 6 7
ATOM      7  CB  PHE C   1      14.930  18.618  30.415  1.00  8.30 LIG 0.07  C 
BRANCH 7 8
ATOM      8  CG  PHE C   1      15.624  17.327  30.097  1.00  6.80 LIG-0.06  A 
ATOM      9  CD1 PHE C   1      16.014  17.032  28.797  1.00  6.68 LIG 0.01  A 
ATOM     10  CE1 PHE C   1      16.664  15.846  28.513  1.00  6.85 LIG 0.00  A 
ATOM     11  CZ  PHE C   1      16.917  14.937  29.516  1.00  6.56 LIG 0.00  A 
ATOM     12  CE2 PHE C   1      16.532  15.212  30.815  1.00  6.82 LIG 0.00  A 
ATOM     13  CD2 PHE C   1      15.891  16.406  31.100  1.00  7.43 LIG 0.01  A 
ENDBRANCH 7 8
ENDBRANCH 6 7
BRANCH 6 14
ATOM     14  N   PHE C   1      13.000  19.541  31.632  1.00  9.64 LIG-0.35  N 
ATOM     15 H    PHE C   1      12.910  19.928  30.869  1.00  9.64 LIG 0.16  HD
ATOM     16  C   ACE C   0      12.228  19.785  32.686  1.00 12.10 LIG 0.21  C 
ATOM     17  CH3 ACE C   0      11.188  20.854  32.512  1.00 13.09 LIG 0.12  C 
ATOM     18 O    ACE C   0      12.369  19.184  33.751  1.00 13.69 LIG-0.27  OA
ENDBRANCH 6 14
ENDBRANCH 4 6
ENDBRANCH 1 2
BRANCH 1 19
ATOM     19  C   HIS C   2      16.751  21.947  33.832  1.00  9.05 LIG 0.24  C 
ATOM     20  N   ALA C   3      16.056  22.638  32.940  1.00  9.24 LIG-0.35  N 
ATOM     21 H    ALA C   3      15.438  22.309  32.441  1.00  9.24 LIG 0.16  HD
ATOM     22 O    HIS C   2      17.668  22.440  34.478  1.00  8.29 LIG-0.27  OA
BRANCH 20 23
ATOM     23  CA  ALA C   3      16.315  24.062  32.746  1.00  8.91 LIG 0.17  C 
ATOM     24  CB  ALA C   3      17.586  24.269  31.941  1.00  9.99 LIG 0.04  C 
BRANCH 23 25
ATOM     25  C   ALA C   3      15.129  24.721  32.036  1.00  9.36 LIG 0.24  C 
ATOM     26  N   ALA C   4      14.344  23.913  31.334  1.00  9.08 LIG-0.35  N 
ATOM     27 H    ALA C   4      14.409  23.055  31.340  1.00  9.08 LIG 0.16  HD
ATOM     28 O    ALA C   3      14.919  25.936  32.144  1.00  9.90 LIG-0.27  OA
BRANCH 26 29
ATOM     29  CA  ALA C   4      13.282  24.431  30.472  1.00  9.70 LIG 0.18  C 
ATOM     30  CB  ALA C   4      13.879  25.186  29.307  1.00  9.53 LIG 0.04  C 
BRANCH 29 31
ATOM     31  C   ALA C   4      12.332  23.365  29.958  1.00 11.00 LIG 0.28  C 
ATOM     32  N   NH2 C   5      11.274  23.780  29.276  1.00 10.22 LIG-0.11  N 
ATOM     33 O    ALA C   4      12.548  22.189  30.212  1.00 13.70 LIG-0.27  OA
ENDBRANCH 29 31
ENDBRANCH 26 29
ENDBRANCH 23 25
ENDBRANCH 20 23
ENDBRANCH 1 19
BRANCH 1 34
ATOM     34  CB  HIS C   2      17.599  19.672  34.229  1.00 12.23 LIG 0.10  C 
BRANCH 34 35
ATOM     35  CG  HIS C   2      17.877  19.249  35.632  1.00 15.24 LIG 0.06  A 
ATOM     36 ND1  HIS C   2      19.154  19.048  36.106  1.00 17.16 LIG-0.24  NA
ATOM     37  CE1 HIS C   2      19.097  18.681  37.374  1.00 17.55 LIG 0.23  A 
ATOM     38 NE2  HIS C   2      17.828  18.637  37.738  1.00 18.01 LIG-0.25  NA
ATOM     39  CD2 HIS C   2      17.045  18.990  36.667  1.00 16.53 LIG 0.14  A 
ENDBRANCH 34 35
ENDBRANCH 1 34
TORSDOF 12
ENDMDL
MODEL 18
USER: ADFR SOLUTION from run 28
USER: SCORE 11.771991 LL:  -2.822 LR: -10.484 RR:   0.000 FEB:  -6.905
USER: RMSD 4.097193
USER: SEED 27
USER: STATUS no improvement in best in 13 clusters for 5 generations
USER: GENES 14
USER: genes 0 Translation |==|  0.48114 0.45336 0.50003
USER: genes 1 Rotation |==|  0.72609 0.16095 0.62914 0.75933
USER: genes 2 Torsion [CB]-CA--N-[C] |==|  0.22212
USER: genes 3 Torsion [N]-C--CA-[N] |==|  0.44144
USER: genes 4 Torsion [C]-CA--CB-[CG] |==|  0.79656
USER: genes 5 Torsion [CA]-CB--CG-[CD1] |==|  0.73763
USER: genes 6 Torsion [C]-CA--N-[C] |==|  0.78906
USER: genes 7 Torsion [N]-CA--C-[N] |==|  0.42279
USER: genes 8 Torsion [C]-N--CA-[CB] |==|  0.17593
USER: genes 9 Torsion [N]-CA--C-[N] |==|  0.05000
USER: genes 10 Torsion [C]-N--CA-[C] |==|  0.17271
USER: genes 11 Torsion [N]-CA--C-[N] |==|  0.12211
USER: genes 12 Torsion [N]-CA--CB-[CG] |==|  0.56306
USER: genes 13 Torsion [CA]-CB--CG-[CD2] |==|  0.80796
ROOT
ATOM      1  CA  HIS C   2      12.223  20.709  30.862  1.00 10.06 LIG 0.18  C 
ENDROOT
BRANCH 1 2
ATOM      2  N   HIS C   2      13.010  19.914  31.804  1.00  9.48 LIG-0.35  N 
ATOM      3 H    HIS C   2      13.379  20.376  32.428  1.00  9.48 LIG 0.16  HD
ATOM      4  C   PHE C   1      13.135  18.598  31.696  1.00  9.37 LIG 0.24  C 
ATOM      5 O    PHE C   1      12.542  17.930  30.855  1.00 11.27 LIG-0.27  OA
BRANCH 4 6
ATOM      6  CA  PHE C   1      14.089  17.943  32.671  1.00  8.68 LIG 0.18  C 
BRANCH 6 7
ATOM      7  CB  PHE C   1      15.516  18.153  32.168  1.00  8.30 LIG 0.07  C 
BRANCH 7 8
ATOM      8  CG  PHE C   1      15.866  17.312  30.976  1.00  6.80 LIG-0.06  A 
ATOM      9  CD1 PHE C   1      16.498  16.087  31.133  1.00  6.68 LIG 0.01  A 
ATOM     10  CE1 PHE C   1      16.806  15.311  30.031  1.00  6.85 LIG 0.00  A 
ATOM     11  CZ  PHE C   1      16.502  15.756  28.763  1.00  6.56 LIG 0.00  A 
ATOM     12  CE2 PHE C   1      15.876  16.976  28.589  1.00  6.82 LIG 0.00  A 
ATOM     13  CD2 PHE C   1      15.558  17.746  29.695  1.00  7.43 LIG 0.01  A 
ENDBRANCH 7 8
ENDBRANCH 6 7
BRANCH 6 14
ATOM     14  N   PHE C   1      13.799  16.514  32.819  1.00  9.64 LIG-0.35  N 
ATOM     15 H    PHE C   1      14.348  15.995  32.408  1.00  9.64 LIG 0.16  HD
ATOM     16  C   ACE C   0      12.765  16.086  33.535  1.00 12.10 LIG 0.21  C 
ATOM     17  CH3 ACE C   0      12.538  14.602  33.549  1.00 13.09 LIG 0.12  C 
ATOM     18 O    ACE C   0      12.022  16.861  34.138  1.00 13.69 LIG-0.27  OA
ENDBRANCH 6 14
ENDBRANCH 4 6
ENDBRANCH 1 2
BRANCH 1 19
ATOM     19  C   HIS C   2      12.640  22.160  30.964  1.00  9.05 LIG 0.24  C 
ATOM     20  N   ALA C   3      12.491  22.903  29.877  1.00  9.24 LIG-0.35  N 
ATOM     21 H    ALA C   3      12.245  22.603  29.109  1.00  9.24 LIG 0.16  HD
ATOM     22 O    HIS C   2      13.053  22.617  32.023  1.00  8.29 LIG-0.27  OA
BRANCH 20 23
ATOM     23  CA  ALA C   3      12.746  24.340  29.926  1.00  8.91 LIG 0.17  C 
ATOM     24  CB  ALA C   3      14.204  24.613  30.255  1.00  9.99 LIG 0.04  C 
BRANCH 23 25
ATOM     25  C   ALA C   3      12.378  24.987  28.588  1.00  9.36 LIG 0.24  C 
ATOM     26  N   ALA C   4      11.583  24.279  27.794  1.00  9.08 LIG-0.35  N 
ATOM     27 H    ALA C   4      11.198  23.546  28.030  1.00  9.08 LIG 0.16  HD
ATOM     28 O    ALA C   3      12.790  26.117  28.293  1.00  9.90 LIG-0.27  OA
BRANCH 26 29
ATOM     29  CA  ALA C   4      11.293  24.700  26.425  1.00  9.70 LIG 0.18  C 
ATOM     30  CB  ALA C   4      10.599  26.042  26.429  1.00  9.53 LIG 0.04  C 
BRANCH 29 31
ATOM     31  C   ALA C   4      12.516  24.760  25.528  1.00 11.00 LIG 0.28  C 
ATOM     32  N   NH2 C   5      13.370  23.748  25.606  1.00 10.22 LIG-0.11  N 
ATOM     33 O    ALA C   4      12.690  25.730  24.805  1.00 13.70 LIG-0.27  OA
ENDBRANCH 29 31
ENDBRANCH 26 29
ENDBRANCH 23 25
ENDBRANCH 20 23
ENDBRANCH 1 19
BRANCH 1 34
ATOM     34  CB  HIS C   2      10.725  20.630  31.181  1.00 12.23 LIG 0.10  C 
BRANCH 34 35
ATOM     35  CG  HIS C   2       9.837  20.938  30.024  1.00 15.24 LIG 0.06  A 
ATOM     36 ND1  HIS C   2       9.058  19.981  29.412  1.00 17.16 LIG-0.24  NA
ATOM     37  CE1 HIS C   2       8.380  20.536  28.423  1.00 17.55 LIG 0.23  A 
ATOM     38 NE2  HIS C   2       8.692  21.818  28.372  1.00 18.01 LIG-0.25  NA
ATOM     39  CD2 HIS C   2       9.599  22.095  29.364  1.00 16.53 LIG 0.14  A 
ENDBRANCH 34 35
ENDBRANCH 1 34
TORSDOF 12
ENDMDL
MODEL 19
USER: ADFR SOLUTION from run 171
USER: SCORE 11.415341 LL:  -2.790 LR: -10.472 RR:   0.000 FEB:  -6.893
USER: RMSD 8.817153
USER: SEED 170
USER: STATUS no improvement in best in 22 clusters for 5 generations
USER: GENES 14
USER: genes 0 Translation |==|  0.49956 0.58948 0.40966
USER: genes 1 Rotation |==|  0.60037 0.97910 0.49777 0.60192
USER: genes 2 Torsion [CB]-CA--N-[C] |==|  0.54811
USER: genes 3 Torsion [N]-C--CA-[N] |==|  0.41115
USER: genes 4 Torsion [C]-CA--CB-[CG] |==|  0.26205
USER: genes 5 Torsion [CA]-CB--CG-[CD1] |==|  0.90506
USER: genes 6 Torsion [C]-CA--N-[C] |==|  0.66699
USER: genes 7 Torsion [N]-CA--C-[N] |==|  0.36839
USER: genes 8 Torsion [C]-N--CA-[CB] |==|  0.27676
USER: genes 9 Torsion [N]-CA--C-[N] |==|  0.82062
USER: genes 10 Torsion [C]-N--CA-[C] |==|  0.77648
USER: genes 11 Torsion [N]-CA--C-[N] |==|  0.02271
USER: genes 12 Torsion [N]-CA--CB-[CG] |==|  0.89752
USER: genes 13 Torsion [CA]-CB--CG-[CD2] |==|  0.82599
ROOT
ATOM      1  CA  HIS C   2      12.527  23.567  29.099  1.00 10.06 LIG 0.18  C 
ENDROOT
BRANCH 1 2
ATOM      2  N   HIS C   2      11.217  23.128  28.618  1.00  9.48 LIG-0.35  N 
ATOM      3 H    HIS C   2      10.971  23.502  27.884  1.00  9.48 LIG 0.16  HD
ATOM      4  C   PHE C   1      10.484  22.232  29.265  1.00  9.37 LIG 0.24  C 
ATOM      5 O    PHE C   1      10.870  21.640  30.267  1.00 11.27 LIG-0.27  OA
BRANCH 4 6
ATOM      6  CA  PHE C   1       9.099  21.987  28.706  1.00  8.68 LIG 0.18  C 
BRANCH 6 7
ATOM      7  CB  PHE C   1       8.126  22.953  29.380  1.00  8.30 LIG 0.07  C 
BRANCH 7 8
ATOM      8  CG  PHE C   1       7.897  24.217  28.605  1.00  6.80 LIG-0.06  A 
ATOM      9  CD1 PHE C   1       8.920  24.788  27.861  1.00  6.68 LIG 0.01  A 
ATOM     10  CE1 PHE C   1       8.699  25.946  27.139  1.00  6.85 LIG 0.00  A 
ATOM     11  CZ  PHE C   1       7.463  26.553  27.165  1.00  6.56 LIG 0.00  A 
ATOM     12  CE2 PHE C   1       6.433  26.000  27.903  1.00  6.82 LIG 0.00  A 
ATOM     13  CD2 PHE C   1       6.654  24.834  28.617  1.00  7.43 LIG 0.01  A 
ENDBRANCH 7 8
ENDBRANCH 6 7
BRANCH 6 14
ATOM     14  N   PHE C   1       8.679  20.599  28.921  1.00  9.64 LIG-0.35  N 
ATOM     15 H    PHE C   1       8.645  20.361  29.747  1.00  9.64 LIG 0.16  HD
ATOM     16  C   ACE C   0       8.382  19.798  27.903  1.00 12.10 LIG 0.21  C 
ATOM     17  CH3 ACE C   0       8.034  18.381  28.256  1.00 13.09 LIG 0.12  C 
ATOM     18 O    ACE C   0       8.409  20.188  26.736  1.00 13.69 LIG-0.27  OA
ENDBRANCH 6 14
ENDBRANCH 4 6
ENDBRANCH 1 2
BRANCH 1 19
ATOM     19  C   HIS C   2      12.452  23.816  30.591  1.00  9.05 LIG 0.24  C 
ATOM     20  N   ALA C   3      13.418  23.295  31.333  1.00  9.24 LIG-0.35  N 
ATOM     21 H    ALA C   3      14.034  22.772  31.038  1.00  9.24 LIG 0.16  HD
ATOM     22 O    HIS C   2      11.556  24.505  31.064  1.00  8.29 LIG-0.27  OA
BRANCH 20 23
ATOM     23  CA  ALA C   3      13.493  23.593  32.761  1.00  8.91 LIG 0.17  C 
ATOM     24  CB  ALA C   3      12.904  22.455  33.576  1.00  9.99 LIG 0.04  C 
BRANCH 23 25
ATOM     25  C   ALA C   3      14.947  23.839  33.172  1.00  9.36 LIG 0.24  C 
ATOM     26  N   ALA C   4      15.770  22.803  33.060  1.00  9.08 LIG-0.35  N 
ATOM     27 H    ALA C   4      15.557  22.058  32.687  1.00  9.08 LIG 0.16  HD
ATOM     28 O    ALA C   3      15.318  24.954  33.561  1.00  9.90 LIG-0.27  OA
BRANCH 26 29
ATOM     29  CA  ALA C   4      17.137  22.850  33.576  1.00  9.70 LIG 0.18  C 
ATOM     30  CB  ALA C   4      17.634  21.451  33.861  1.00  9.53 LIG 0.04  C 
BRANCH 29 31
ATOM     31  C   ALA C   4      18.116  23.563  32.661  1.00 11.00 LIG 0.28  C 
ATOM     32  N   NH2 C   5      17.608  24.194  31.611  1.00 10.22 LIG-0.11  N 
ATOM     33 O    ALA C   4      19.315  23.506  32.895  1.00 13.70 LIG-0.27  OA
ENDBRANCH 29 31
ENDBRANCH 26 29
ENDBRANCH 23 25
ENDBRANCH 20 23
ENDBRANCH 1 19
BRANCH 1 34
ATOM     34  CB  HIS C   2      12.956  24.878  28.429  1.00 12.23 LIG 0.10  C 
BRANCH 34 35
ATOM     35  CG  HIS C   2      12.562  24.988  26.995  1.00 15.24 LIG 0.06  A 
ATOM     36 ND1  HIS C   2      11.702  25.961  26.536  1.00 17.16 LIG-0.24  NA
ATOM     37  CE1 HIS C   2      11.534  25.816  25.233  1.00 17.55 LIG 0.23  A 
ATOM     38 NE2  HIS C   2      12.256  24.785  24.832  1.00 18.01 LIG-0.25  NA
ATOM     39  CD2 HIS C   2      12.909  24.251  25.915  1.00 16.53 LIG 0.14  A 
ENDBRANCH 34 35
ENDBRANCH 1 34
TORSDOF 12
ENDMDL
MODEL 20
USER: ADFR SOLUTION from run 82
USER: SCORE 11.394912 LL:  -2.825 LR: -10.451 RR:   0.000 FEB:  -6.872
USER: RMSD 2.079282
USER: SEED 81
USER: STATUS no improvement in best in 13 clusters for 5 generations
USER: GENES 14
USER: genes 0 Translation |==|  0.44116 0.45895 0.48469
USER: genes 1 Rotation |==|  0.74363 0.30627 0.63076 0.86880
USER: genes 2 Torsion [CB]-CA--N-[C] |==|  0.20960
USER: genes 3 Torsion [N]-C--CA-[N] |==|  0.14444
USER: genes 4 Torsion [C]-CA--CB-[CG] |==|  0.29184
USER: genes 5 Torsion [CA]-CB--CG-[CD1] |==|  0.42265
USER: genes 6 Torsion [C]-CA--N-[C] |==|  0.18463
USER: genes 7 Torsion [N]-CA--C-[N] |==|  0.41347
USER: genes 8 Torsion [C]-N--CA-[CB] |==|  0.86164
USER: genes 9 Torsion [N]-CA--C-[N] |==|  0.33300
USER: genes 10 Torsion [C]-N--CA-[C] |==|  0.76699
USER: genes 11 Torsion [N]-CA--C-[N] |==|  0.21768
USER: genes 12 Torsion [N]-CA--CB-[CG] |==|  0.10068
USER: genes 13 Torsion [CA]-CB--CG-[CD2] |==|  0.67347
ROOT
ATOM      1  CA  HIS C   2      11.563  20.826  30.562  1.00 10.06 LIG 0.18  C 
ENDROOT
BRANCH 1 2
ATOM      2  N   HIS C   2      12.922  20.494  30.991  1.00  9.48 LIG-0.35  N 
ATOM      3 H    HIS C   2      13.438  21.176  31.076  1.00  9.48 LIG 0.16  HD
ATOM      4  C   PHE C   1      13.311  19.248  31.224  1.00  9.37 LIG 0.24  C 
ATOM      5 O    PHE C   1      12.553  18.285  31.181  1.00 11.27 LIG-0.27  OA
BRANCH 4 6
ATOM      6  CA  PHE C   1      14.781  19.062  31.530  1.00  8.68 LIG 0.18  C 
BRANCH 6 7
ATOM      7  CB  PHE C   1      15.015  17.603  31.919  1.00  8.30 LIG 0.07  C 
BRANCH 7 8
ATOM      8  CG  PHE C   1      15.681  16.792  30.847  1.00  6.80 LIG-0.06  A 
ATOM      9  CD1 PHE C   1      16.465  15.693  31.173  1.00  6.68 LIG 0.01  A 
ATOM     10  CE1 PHE C   1      17.066  14.943  30.180  1.00  6.85 LIG 0.00  A 
ATOM     11  CZ  PHE C   1      16.903  15.288  28.856  1.00  6.56 LIG 0.00  A 
ATOM     12  CE2 PHE C   1      16.128  16.380  28.515  1.00  6.82 LIG 0.00  A 
ATOM     13  CD2 PHE C   1      15.519  17.124  29.510  1.00  7.43 LIG 0.01  A 
ENDBRANCH 7 8
ENDBRANCH 6 7
BRANCH 6 14
ATOM     14  N   PHE C   1      15.217  19.959  32.604  1.00  9.64 LIG-0.35  N 
ATOM     15 H    PHE C   1      15.777  20.563  32.358  1.00  9.64 LIG 0.16  HD
ATOM     16  C   ACE C   0      14.766  19.825  33.847  1.00 12.10 LIG 0.21  C 
ATOM     17  CH3 ACE C   0      15.344  20.763  34.866  1.00 13.09 LIG 0.12  C 
ATOM     18 O    ACE C   0      13.937  18.967  34.151  1.00 13.69 LIG-0.27  OA
ENDBRANCH 6 14
ENDBRANCH 4 6
ENDBRANCH 1 2
BRANCH 1 19
ATOM     19  C   HIS C   2      11.536  22.250  30.050  1.00  9.05 LIG 0.24  C 
ATOM     20  N   ALA C   3      10.665  22.523  29.089  1.00  9.24 LIG-0.35  N 
ATOM     21 H    ALA C   3      10.173  21.939  28.694  1.00  9.24 LIG 0.16  HD
ATOM     22 O    HIS C   2      12.263  23.104  30.542  1.00  8.29 LIG-0.27  OA
BRANCH 20 23
ATOM     23  CA  ALA C   3      10.483  23.897  28.628  1.00  8.91 LIG 0.17  C 
ATOM     24  CB  ALA C   3      10.273  24.833  29.806  1.00  9.99 LIG 0.04  C 
BRANCH 23 25
ATOM     25  C   ALA C   3      11.697  24.343  27.810  1.00  9.36 LIG 0.24  C 
ATOM     26  N   ALA C   4      11.459  24.696  26.552  1.00  9.08 LIG-0.35  N 
ATOM     27 H    ALA C   4      10.671  24.779  26.218  1.00  9.08 LIG 0.16  HD
ATOM     28 O    ALA C   3      12.825  24.388  28.319  1.00  9.90 LIG-0.27  OA
BRANCH 26 29
ATOM     29  CA  ALA C   4      12.545  24.978  25.615  1.00  9.70 LIG 0.18  C 
ATOM     30  CB  ALA C   4      12.099  24.689  24.200  1.00  9.53 LIG 0.04  C 
BRANCH 29 31
ATOM     31  C   ALA C   4      13.081  26.395  25.703  1.00 11.00 LIG 0.28  C 
ATOM     32  N   NH2 C   5      13.909  26.665  26.703  1.00 10.22 LIG-0.11  N 
ATOM     33 O    ALA C   4      12.715  27.232  24.890  1.00 13.70 LIG-0.27  OA
ENDBRANCH 29 31
ENDBRANCH 26 29
ENDBRANCH 23 25
ENDBRANCH 20 23
ENDBRANCH 1 19
BRANCH 1 34
ATOM     34  CB  HIS C   2      10.572  20.732  31.729  1.00 12.23 LIG 0.10  C 
BRANCH 34 35
ATOM     35  CG  HIS C   2      11.129  21.174  33.040  1.00 15.24 LIG 0.06  A 
ATOM     36 ND1  HIS C   2      11.559  22.463  33.266  1.00 17.16 LIG-0.24  NA
ATOM     37  CE1 HIS C   2      12.000  22.566  34.507  1.00 17.55 LIG 0.23  A 
ATOM     38 NE2  HIS C   2      11.870  21.389  35.094  1.00 18.01 LIG-0.25  NA
ATOM     39  CD2 HIS C   2      11.327  20.503  34.198  1.00 16.53 LIG 0.14  A 
ENDBRANCH 34 35
ENDBRANCH 1 34
TORSDOF 12
ENDMDL
MODEL 21
USER: ADFR SOLUTION from run 146
USER: SCORE 11.300485 LL:  -2.475 LR: -10.410 RR:   0.000 FEB:  -6.831
USER: RMSD 6.094173
USER: SEED 145
USER: STATUS no improvement in best in 15 clusters for 5 generations
USER: GENES 14
USER: genes 0 Translation |==|  0.63505 0.41545 0.60419
USER: genes 1 Rotation |==|  0.68324 0.07418 0.46404 0.68388
USER: genes 2 Torsion [CB]-CA--N-[C] |==|  0.56907
USER: genes 3 Torsion [N]-C--CA-[N] |==|  0.81667
USER: genes 4 Torsion [C]-CA--CB-[CG] |==|  0.11193
USER: genes 5 Torsion [CA]-CB--CG-[CD1] |==|  0.73738
USER: genes 6 Torsion [C]-CA--N-[C] |==|  0.20502
USER: genes 7 Torsion [N]-CA--C-[N] |==|  0.36708
USER: genes 8 Torsion [C]-N--CA-[CB] |==|  0.18847
USER: genes 9 Torsion [N]-CA--C-[N] |==|  0.18689
USER: genes 10 Torsion [C]-N--CA-[C] |==|  0.82996
USER: genes 11 Torsion [N]-CA--C-[N] |==|  0.41309
USER: genes 12 Torsion [N]-CA--CB-[CG] |==|  0.66211
USER: genes 13 Torsion [CA]-CB--CG-[CD2] |==|  0.79406
ROOT
ATOM      1  CA  HIS C   2      14.762  19.912  32.893  1.00 10.06 LIG 0.18  C 
ENDROOT
BRANCH 1 2
ATOM      2  N   HIS C   2      14.807  18.479  33.183  1.00  9.48 LIG-0.35  N 
ATOM      3 H    HIS C   2      14.043  18.088  33.133  1.00  9.48 LIG 0.16  HD
ATOM      4  C   PHE C   1      15.932  17.850  33.494  1.00  9.37 LIG 0.24  C 
ATOM      5 O    PHE C   1      17.033  18.391  33.486  1.00 11.27 LIG-0.27  OA
BRANCH 4 6
ATOM      6  CA  PHE C   1      15.786  16.398  33.895  1.00  8.68 LIG 0.18  C 
BRANCH 6 7
ATOM      7  CB  PHE C   1      15.068  15.654  32.771  1.00  8.30 LIG 0.07  C 
BRANCH 7 8
ATOM      8  CG  PHE C   1      15.508  16.065  31.397  1.00  6.80 LIG-0.06  A 
ATOM      9  CD1 PHE C   1      14.813  17.038  30.691  1.00  6.68 LIG 0.01  A 
ATOM     10  CE1 PHE C   1      15.232  17.422  29.431  1.00  6.85 LIG 0.00  A 
ATOM     11  CZ  PHE C   1      16.334  16.830  28.856  1.00  6.56 LIG 0.00  A 
ATOM     12  CE2 PHE C   1      17.036  15.857  29.544  1.00  6.82 LIG 0.00  A 
ATOM     13  CD2 PHE C   1      16.622  15.482  30.811  1.00  7.43 LIG 0.01  A 
ENDBRANCH 7 8
ENDBRANCH 6 7
BRANCH 6 14
ATOM     14  N   PHE C   1      15.048  16.267  35.154  1.00  9.64 LIG-0.35  N 
ATOM     15 H    PHE C   1      15.535  16.059  35.832  1.00  9.64 LIG 0.16  HD
ATOM     16  C   ACE C   0      13.735  16.460  35.213  1.00 12.10 LIG 0.21  C 
ATOM     17  CH3 ACE C   0      13.089  16.228  36.548  1.00 13.09 LIG 0.12  C 
ATOM     18 O    ACE C   0      13.079  16.791  34.224  1.00 13.69 LIG-0.27  OA
ENDBRANCH 6 14
ENDBRANCH 4 6
ENDBRANCH 1 2
BRANCH 1 19
ATOM     19  C   HIS C   2      15.746  20.633  33.789  1.00  9.05 LIG 0.24  C 
ATOM     20  N   ALA C   3      16.556  21.506  33.208  1.00  9.24 LIG-0.35  N 
ATOM     21 H    ALA C   3      16.608  21.635  32.359  1.00  9.24 LIG 0.16  HD
ATOM     22 O    HIS C   2      15.749  20.435  34.999  1.00  8.29 LIG-0.27  OA
BRANCH 20 23
ATOM     23  CA  ALA C   3      17.445  22.337  34.015  1.00  8.91 LIG 0.17  C 
ATOM     24  CB  ALA C   3      18.519  21.488  34.673  1.00  9.99 LIG 0.04  C 
BRANCH 23 25
ATOM     25  C   ALA C   3      18.090  23.419  33.144  1.00  9.36 LIG 0.24  C 
ATOM     26  N   ALA C   4      17.273  24.351  32.668  1.00  9.08 LIG-0.35  N 
ATOM     27 H    ALA C   4      16.449  24.431  32.899  1.00  9.08 LIG 0.16  HD
ATOM     28 O    ALA C   3      19.309  23.420  32.929  1.00  9.90 LIG-0.27  OA
BRANCH 26 29
ATOM     29  CA  ALA C   4      17.724  25.340  31.689  1.00  9.70 LIG 0.18  C 
ATOM     30  CB  ALA C   4      16.561  26.193  31.239  1.00  9.53 LIG 0.04  C 
BRANCH 29 31
ATOM     31  C   ALA C   4      18.848  26.229  32.187  1.00 11.00 LIG 0.28  C 
ATOM     32  N   NH2 C   5      19.715  26.666  31.284  1.00 10.22 LIG-0.11  N 
ATOM     33 O    ALA C   4      18.938  26.481  33.380  1.00 13.70 LIG-0.27  OA
ENDBRANCH 29 31
ENDBRANCH 26 29
ENDBRANCH 23 25
ENDBRANCH 20 23
ENDBRANCH 1 19
BRANCH 1 34
ATOM     34  CB  HIS C   2      13.370  20.493  33.167  1.00 12.23 LIG 0.10  C 
BRANCH 34 35
ATOM     35  CG  HIS C   2      12.733  21.139  31.984  1.00 15.24 LIG 0.06  A 
ATOM     36 ND1  HIS C   2      11.698  20.555  31.288  1.00 17.16 LIG-0.24  NA
ATOM     37  CE1 HIS C   2      11.337  21.348  30.294  1.00 17.55 LIG 0.23  A 
ATOM     38 NE2  HIS C   2      12.101  22.425  30.322  1.00 18.01 LIG-0.25  NA
ATOM     39  CD2 HIS C   2      12.981  22.319  31.370  1.00 16.53 LIG 0.14  A 
ENDBRANCH 34 35
ENDBRANCH 1 34
TORSDOF 12
ENDMDL
MODEL 22
USER: ADFR SOLUTION from run 189
USER: SCORE 11.545322 LL:  -2.551 LR: -10.349 RR:   0.000 FEB:  -6.769
USER: RMSD 8.949124
USER: SEED 188
USER: STATUS no improvement in best in 12 clusters for 5 generations
USER: GENES 14
USER: genes 0 Translation |==|  0.59231 0.60528 0.49371
USER: genes 1 Rotation |==|  0.70853 0.85296 0.73272 0.66666
USER: genes 2 Torsion [CB]-CA--N-[C] |==|  0.53111
USER: genes 3 Torsion [N]-C--CA-[N] |==|  0.36508
USER: genes 4 Torsion [C]-CA--CB-[CG] |==|  0.51261
USER: genes 5 Torsion [CA]-CB--CG-[CD1] |==|  0.91956
USER: genes 6 Torsion [C]-CA--N-[C] |==|  0.69185
USER: genes 7 Torsion [N]-CA--C-[N] |==|  0.31111
USER: genes 8 Torsion [C]-N--CA-[CB] |==|  0.20815
USER: genes 9 Torsion [N]-CA--C-[N] |==|  0.99086
USER: genes 10 Torsion [C]-N--CA-[C] |==|  0.79958
USER: genes 11 Torsion [N]-CA--C-[N] |==|  0.41254
USER: genes 12 Torsion [N]-CA--CB-[CG] |==|  0.62709
USER: genes 13 Torsion [CA]-CB--CG-[CD2] |==|  0.82810
ROOT
ATOM      1  CA  HIS C   2      14.057  23.899  30.738  1.00 10.06 LIG 0.18  C 
ENDROOT
BRANCH 1 2
ATOM      2  N   HIS C   2      13.290  24.685  29.772  1.00  9.48 LIG-0.35  N 
ATOM      3 H    HIS C   2      13.480  25.524  29.774  1.00  9.48 LIG 0.16  HD
ATOM      4  C   PHE C   1      12.384  24.142  28.970  1.00  9.37 LIG 0.24  C 
ATOM      5 O    PHE C   1      12.171  22.935  28.912  1.00 11.27 LIG-0.27  OA
BRANCH 4 6
ATOM      6  CA  PHE C   1      11.585  25.110  28.125  1.00  8.68 LIG 0.18  C 
BRANCH 6 7
ATOM      7  CB  PHE C   1      10.170  25.198  28.695  1.00  8.30 LIG 0.07  C 
BRANCH 7 8
ATOM      8  CG  PHE C   1       9.242  26.048  27.879  1.00  6.80 LIG-0.06  A 
ATOM      9  CD1 PHE C   1       9.729  27.109  27.127  1.00  6.68 LIG 0.01  A 
ATOM     10  CE1 PHE C   1       8.870  27.881  26.367  1.00  6.85 LIG 0.00  A 
ATOM     11  CZ  PHE C   1       7.519  27.613  26.362  1.00  6.56 LIG 0.00  A 
ATOM     12  CE2 PHE C   1       7.017  26.563  27.109  1.00  6.82 LIG 0.00  A 
ATOM     13  CD2 PHE C   1       7.880  25.784  27.860  1.00  7.43 LIG 0.01  A 
ENDBRANCH 7 8
ENDBRANCH 6 7
BRANCH 6 14
ATOM     14  N   PHE C   1      11.551  24.687  26.723  1.00  9.64 LIG-0.35  N 
ATOM     15 H    PHE C   1      11.092  23.974  26.577  1.00  9.64 LIG 0.16  HD
ATOM     16  C   ACE C   0      12.188  25.368  25.776  1.00 12.10 LIG 0.21  C 
ATOM     17  CH3 ACE C   0      12.131  24.789  24.392  1.00 13.09 LIG 0.12  C 
ATOM     18 O    ACE C   0      12.806  26.404  26.021  1.00 13.69 LIG-0.27  OA
ENDBRANCH 6 14
ENDBRANCH 4 6
ENDBRANCH 1 2
BRANCH 1 19
ATOM     19  C   HIS C   2      13.108  23.045  31.551  1.00  9.05 LIG 0.24  C 
ATOM     20  N   ALA C   3      13.174  21.734  31.364  1.00  9.24 LIG-0.35  N 
ATOM     21 H    ALA C   3      13.661  21.349  30.769  1.00  9.24 LIG 0.16  HD
ATOM     22 O    HIS C   2      12.353  23.556  32.369  1.00  8.29 LIG-0.27  OA
BRANCH 20 23
ATOM     23  CA  ALA C   3      12.387  20.830  32.198  1.00  8.91 LIG 0.17  C 
ATOM     24  CB  ALA C   3      10.924  20.864  31.790  1.00  9.99 LIG 0.04  C 
BRANCH 23 25
ATOM     25  C   ALA C   3      12.931  19.404  32.088  1.00  9.36 LIG 0.24  C 
ATOM     26  N   ALA C   4      13.935  19.224  31.238  1.00  9.08 LIG-0.35  N 
ATOM     27 H    ALA C   4      14.346  19.864  30.837  1.00  9.08 LIG 0.16  HD
ATOM     28 O    ALA C   3      12.463  18.489  32.779  1.00  9.90 LIG-0.27  OA
BRANCH 26 29
ATOM     29  CA  ALA C   4      14.434  17.889  30.910  1.00  9.70 LIG 0.18  C 
ATOM     30  CB  ALA C   4      15.285  17.943  29.662  1.00  9.53 LIG 0.04  C 
BRANCH 29 31
ATOM     31  C   ALA C   4      15.215  17.231  32.033  1.00 11.00 LIG 0.28  C 
ATOM     32  N   NH2 C   5      15.149  15.910  32.119  1.00 10.22 LIG-0.11  N 
ATOM     33 O    ALA C   4      15.836  17.925  32.825  1.00 13.70 LIG-0.27  OA
ENDBRANCH 29 31
ENDBRANCH 26 29
ENDBRANCH 23 25
ENDBRANCH 20 23
ENDBRANCH 1 19
BRANCH 1 34
ATOM     34  CB  HIS C   2      14.820  24.805  31.713  1.00 12.23 LIG 0.10  C 
BRANCH 34 35
ATOM     35  CG  HIS C   2      16.239  24.404  31.935  1.00 15.24 LIG 0.06  A 
ATOM     36 ND1  HIS C   2      17.299  25.221  31.611  1.00 17.16 LIG-0.24  NA
ATOM     37  CE1 HIS C   2      18.431  24.611  31.915  1.00 17.55 LIG 0.23  A 
ATOM     38 NE2  HIS C   2      18.142  23.427  32.425  1.00 18.01 LIG-0.25  NA
ATOM     39  CD2 HIS C   2      16.778  23.275  32.450  1.00 16.53 LIG 0.14  A 
ENDBRANCH 34 35
ENDBRANCH 1 34
TORSDOF 12
ENDMDL
MODEL 23
USER: ADFR SOLUTION from run 105
USER: SCORE 12.295791 LL:  -3.836 LR: -10.331 RR:   0.000 FEB:  -6.751
USER: RMSD 4.421900
USER: SEED 104
USER: STATUS no improvement in best in 16 clusters for 5 generations
USER: GENES 14
USER: genes 0 Translation |==|  0.48443 0.45433 0.52135
USER: genes 1 Rotation |==|  0.71183 0.29419 0.60877 0.88851
USER: genes 2 Torsion [CB]-CA--N-[C] |==|  0.22407
USER: genes 3 Torsion [N]-C--CA-[N] |==|  0.20966
USER: genes 4 Torsion [C]-CA--CB-[CG] |==|  0.25357
USER: genes 5 Torsion [CA]-CB--CG-[CD1] |==|  0.42556
USER: genes 6 Torsion [C]-CA--N-[C] |==|  0.77222
USER: genes 7 Torsion [N]-CA--C-[N] |==|  0.91025
USER: genes 8 Torsion [C]-N--CA-[CB] |==|  0.17529
USER: genes 9 Torsion [N]-CA--C-[N] |==|  0.04640
USER: genes 10 Torsion [C]-N--CA-[C] |==|  0.68062
USER: genes 11 Torsion [N]-CA--C-[N] |==|  0.26816
USER: genes 12 Torsion [N]-CA--CB-[CG] |==|  0.07468
USER: genes 13 Torsion [CA]-CB--CG-[CD2] |==|  0.69168
ROOT
ATOM      1  CA  HIS C   2      12.277  20.729  31.277  1.00 10.06 LIG 0.18  C 
ENDROOT
BRANCH 1 2
ATOM      2  N   HIS C   2      13.571  20.224  31.735  1.00  9.48 LIG-0.35  N 
ATOM      3 H    HIS C   2      14.171  20.833  31.831  1.00  9.48 LIG 0.16  HD
ATOM      4  C   PHE C   1      13.789  18.939  31.979  1.00  9.37 LIG 0.24  C 
ATOM      5 O    PHE C   1      12.912  18.083  31.921  1.00 11.27 LIG-0.27  OA
BRANCH 4 6
ATOM      6  CA  PHE C   1      15.216  18.564  32.317  1.00  8.68 LIG 0.18  C 
BRANCH 6 7
ATOM      7  CB  PHE C   1      15.376  17.055  32.139  1.00  8.30 LIG 0.07  C 
BRANCH 7 8
ATOM      8  CG  PHE C   1      15.829  16.654  30.766  1.00  6.80 LIG-0.06  A 
ATOM      9  CD1 PHE C   1      16.537  15.475  30.569  1.00  6.68 LIG 0.01  A 
ATOM     10  CE1 PHE C   1      16.941  15.106  29.300  1.00  6.85 LIG 0.00  A 
ATOM     11  CZ  PHE C   1      16.659  15.913  28.220  1.00  6.56 LIG 0.00  A 
ATOM     12  CE2 PHE C   1      15.958  17.091  28.399  1.00  6.82 LIG 0.00  A 
ATOM     13  CD2 PHE C   1      15.545  17.454  29.670  1.00  7.43 LIG 0.01  A 
ENDBRANCH 7 8
ENDBRANCH 6 7
BRANCH 6 14
ATOM     14  N   PHE C   1      15.558  18.961  33.685  1.00  9.64 LIG-0.35  N 
ATOM     15 H    PHE C   1      15.499  18.328  34.265  1.00  9.64 LIG 0.16  HD
ATOM     16  C   ACE C   0      15.927  20.204  33.976  1.00 12.10 LIG 0.21  C 
ATOM     17  CH3 ACE C   0      16.184  20.497  35.426  1.00 13.09 LIG 0.12  C 
ATOM     18 O    ACE C   0      16.033  21.072  33.110  1.00 13.69 LIG-0.27  OA
ENDBRANCH 6 14
ENDBRANCH 4 6
ENDBRANCH 1 2
BRANCH 1 19
ATOM     19  C   HIS C   2      12.469  22.091  30.645  1.00  9.05 LIG 0.24  C 
ATOM     20  N   ALA C   3      13.434  22.850  31.143  1.00  9.24 LIG-0.35  N 
ATOM     21 H    ALA C   3      13.902  22.654  31.838  1.00  9.24 LIG 0.16  HD
ATOM     22 O    HIS C   2      11.783  22.438  29.691  1.00  8.29 LIG-0.27  OA
BRANCH 20 23
ATOM     23  CA  ALA C   3      13.771  24.123  30.511  1.00  8.91 LIG 0.17  C 
ATOM     24  CB  ALA C   3      12.593  25.080  30.573  1.00  9.99 LIG 0.04  C 
BRANCH 23 25
ATOM     25  C   ALA C   3      14.991  24.744  31.195  1.00  9.36 LIG 0.24  C 
ATOM     26  N   ALA C   4      15.717  23.929  31.951  1.00  9.08 LIG-0.35  N 
ATOM     27 H    ALA C   4      15.597  23.079  31.993  1.00  9.08 LIG 0.16  HD
ATOM     28 O    ALA C   3      15.281  25.936  31.020  1.00  9.90 LIG-0.27  OA
BRANCH 26 29
ATOM     29  CA  ALA C   4      16.804  24.428  32.793  1.00  9.70 LIG 0.18  C 
ATOM     30  CB  ALA C   4      16.546  24.072  34.240  1.00  9.53 LIG 0.04  C 
BRANCH 29 31
ATOM     31  C   ALA C   4      18.178  23.931  32.382  1.00 11.00 LIG 0.28  C 
ATOM     32  N   NH2 C   5      18.901  24.731  31.611  1.00 10.22 LIG-0.11  N 
ATOM     33 O    ALA C   4      18.551  22.822  32.736  1.00 13.70 LIG-0.27  OA
ENDBRANCH 29 31
ENDBRANCH 26 29
ENDBRANCH 23 25
ENDBRANCH 20 23
ENDBRANCH 1 19
BRANCH 1 34
ATOM     34  CB  HIS C   2      11.297  20.892  32.446  1.00 12.23 LIG 0.10  C 
BRANCH 34 35
ATOM     35  CG  HIS C   2      11.952  21.134  33.763  1.00 15.24 LIG 0.06  A 
ATOM     36 ND1  HIS C   2      12.614  22.306  34.057  1.00 17.16 LIG-0.24  NA
ATOM     37  CE1 HIS C   2      13.093  22.241  35.287  1.00 17.55 LIG 0.23  A 
ATOM     38 NE2  HIS C   2      12.764  21.069  35.800  1.00 18.01 LIG-0.25  NA
ATOM     39  CD2 HIS C   2      12.049  20.359  34.868  1.00 16.53 LIG 0.14  A 
ENDBRANCH 34 35
ENDBRANCH 1 34
TORSDOF 12
ENDMDL
MODEL 24
USER: ADFR SOLUTION from run 75
USER: SCORE 11.756726 LL:  -2.603 LR: -10.295 RR:   0.000 FEB:  -6.716
USER: RMSD 6.192053
USER: SEED 74
USER: STATUS no improvement in best in 15 clusters for 5 generations
USER: GENES 14
USER: genes 0 Translation |==|  0.57995 0.38675 0.54843
USER: genes 1 Rotation |==|  0.77626 0.09007 0.50975 0.57445
USER: genes 2 Torsion [CB]-CA--N-[C] |==|  0.55859
USER: genes 3 Torsion [N]-C--CA-[N] |==|  0.96667
USER: genes 4 Torsion [C]-CA--CB-[CG] |==|  0.82473
USER: genes 5 Torsion [CA]-CB--CG-[CD1] |==|  0.16558
USER: genes 6 Torsion [C]-CA--N-[C] |==|  0.78587
USER: genes 7 Torsion [N]-CA--C-[N] |==|  0.29959
USER: genes 8 Torsion [C]-N--CA-[CB] |==|  0.17695
USER: genes 9 Torsion [N]-CA--C-[N] |==|  0.02842
USER: genes 10 Torsion [C]-N--CA-[C] |==|  0.15345
USER: genes 11 Torsion [N]-CA--C-[N] |==|  0.07794
USER: genes 12 Torsion [N]-CA--CB-[CG] |==|  0.49955
USER: genes 13 Torsion [CA]-CB--CG-[CD2] |==|  0.62589
ROOT
ATOM      1  CA  HIS C   2      13.853  19.310  31.805  1.00 10.06 LIG 0.18  C 
ENDROOT
BRANCH 1 2
ATOM      2  N   HIS C   2      14.336  17.943  32.003  1.00  9.48 LIG-0.35  N 
ATOM      3 H    HIS C   2      13.844  17.342  31.635  1.00  9.48 LIG 0.16  HD
ATOM      4  C   PHE C   1      15.436  17.669  32.692  1.00  9.37 LIG 0.24  C 
ATOM      5 O    PHE C   1      16.180  18.531  33.147  1.00 11.27 LIG-0.27  OA
BRANCH 4 6
ATOM      6  CA  PHE C   1      15.724  16.200  32.917  1.00  8.68 LIG 0.18  C 
BRANCH 6 7
ATOM      7  CB  PHE C   1      16.941  15.811  32.079  1.00  8.30 LIG 0.07  C 
BRANCH 7 8
ATOM      8  CG  PHE C   1      16.727  15.952  30.601  1.00  6.80 LIG-0.06  A 
ATOM      9  CD1 PHE C   1      16.402  17.183  30.045  1.00  6.68 LIG 0.01  A 
ATOM     10  CE1 PHE C   1      16.218  17.308  28.681  1.00  6.85 LIG 0.00  A 
ATOM     11  CZ  PHE C   1      16.340  16.209  27.861  1.00  6.56 LIG 0.00  A 
ATOM     12  CE2 PHE C   1      16.659  14.975  28.398  1.00  6.82 LIG 0.00  A 
ATOM     13  CD2 PHE C   1      16.854  14.854  29.763  1.00  7.43 LIG 0.01  A 
ENDBRANCH 7 8
ENDBRANCH 6 7
BRANCH 6 14
ATOM     14  N   PHE C   1      14.568  15.372  32.562  1.00  9.64 LIG-0.35  N 
ATOM     15 H    PHE C   1      14.637  14.970  31.806  1.00  9.64 LIG 0.16  HD
ATOM     16  C   ACE C   0      13.514  15.273  33.365  1.00 12.10 LIG 0.21  C 
ATOM     17  CH3 ACE C   0      12.367  14.449  32.853  1.00 13.09 LIG 0.12  C 
ATOM     18 O    ACE C   0      13.469  15.838  34.457  1.00 13.69 LIG-0.27  OA
ENDBRANCH 6 14
ENDBRANCH 4 6
ENDBRANCH 1 2
BRANCH 1 19
ATOM     19  C   HIS C   2      14.035  20.093  33.088  1.00  9.05 LIG 0.24  C 
ATOM     20  N   ALA C   3      14.992  21.010  33.098  1.00  9.24 LIG-0.35  N 
ATOM     21 H    ALA C   3      15.555  21.137  32.460  1.00  9.24 LIG 0.16  HD
ATOM     22 O    HIS C   2      13.294  19.903  34.045  1.00  8.29 LIG-0.27  OA
BRANCH 20 23
ATOM     23  CA  ALA C   3      15.151  21.897  34.247  1.00  8.91 LIG 0.17  C 
ATOM     24  CB  ALA C   3      15.519  21.103  35.488  1.00  9.99 LIG 0.04  C 
BRANCH 23 25
ATOM     25  C   ALA C   3      16.224  22.948  33.957  1.00  9.36 LIG 0.24  C 
ATOM     26  N   ALA C   4      16.654  23.016  32.702  1.00  9.08 LIG-0.35  N 
ATOM     27 H    ALA C   4      16.298  22.584  32.049  1.00  9.08 LIG 0.16  HD
ATOM     28 O    ALA C   3      16.638  23.699  34.850  1.00  9.90 LIG-0.27  OA
BRANCH 26 29
ATOM     29  CA  ALA C   4      17.792  23.853  32.324  1.00  9.70 LIG 0.18  C 
ATOM     30  CB  ALA C   4      17.431  25.314  32.460  1.00  9.53 LIG 0.04  C 
BRANCH 29 31
ATOM     31  C   ALA C   4      19.056  23.563  33.111  1.00 11.00 LIG 0.28  C 
ATOM     32  N   NH2 C   5      19.206  22.331  33.578  1.00 10.22 LIG-0.11  N 
ATOM     33 O    ALA C   4      19.861  24.461  33.315  1.00 13.70 LIG-0.27  OA
ENDBRANCH 29 31
ENDBRANCH 26 29
ENDBRANCH 23 25
ENDBRANCH 20 23
ENDBRANCH 1 19
BRANCH 1 34
ATOM     34  CB  HIS C   2      12.360  19.328  31.455  1.00 12.23 LIG 0.10  C 
BRANCH 34 35
ATOM     35  CG  HIS C   2      11.799  20.693  31.243  1.00 15.24 LIG 0.06  A 
ATOM     36 ND1  HIS C   2      12.440  21.648  30.486  1.00 17.16 LIG-0.24  NA
ATOM     37  CE1 HIS C   2      11.717  22.754  30.474  1.00 17.55 LIG 0.23  A 
ATOM     38 NE2  HIS C   2      10.630  22.549  31.195  1.00 18.01 LIG-0.25  NA
ATOM     39  CD2 HIS C   2      10.657  21.267  31.686  1.00 16.53 LIG 0.14  A 
ENDBRANCH 34 35
ENDBRANCH 1 34
TORSDOF 12
ENDMDL
MODEL 25
USER: ADFR SOLUTION from run 42
USER: SCORE 11.148318 LL:  -2.287 LR: -10.280 RR:   0.000 FEB:  -6.700
USER: RMSD 8.484133
USER: SEED 41
USER: STATUS no improvement in best in 28 clusters for 5 generations
USER: GENES 14
USER: genes 0 Translation |==|  0.45771 0.55357 0.42028
USER: genes 1 Rotation |==|  0.58318 0.98472 0.57703 0.54684
USER: genes 2 Torsion [CB]-CA--N-[C] |==|  0.57900
USER: genes 3 Torsion [N]-C--CA-[N] |==|  0.90524
USER: genes 4 Torsion [C]-CA--CB-[CG] |==|  0.42703
USER: genes 5 Torsion [CA]-CB--CG-[CD1] |==|  0.52069
USER: genes 6 Torsion [C]-CA--N-[C] |==|  0.84352
USER: genes 7 Torsion [N]-CA--C-[N] |==|  0.30668
USER: genes 8 Torsion [C]-N--CA-[CB] |==|  0.14012
USER: genes 9 Torsion [N]-CA--C-[N] |==|  0.98333
USER: genes 10 Torsion [C]-N--CA-[C] |==|  0.55790
USER: genes 11 Torsion [N]-CA--C-[N] |==|  0.45686
USER: genes 12 Torsion [N]-CA--CB-[CG] |==|  0.82814
USER: genes 13 Torsion [CA]-CB--CG-[CD2] |==|  0.32192
ROOT
ATOM      1  CA  HIS C   2      11.836  22.813  29.307  1.00 10.06 LIG 0.18  C 
ENDROOT
BRANCH 1 2
ATOM      2  N   HIS C   2      10.518  22.350  28.875  1.00  9.48 LIG-0.35  N 
ATOM      3 H    HIS C   2      10.175  22.813  28.237  1.00  9.48 LIG 0.16  HD
ATOM      4  C   PHE C   1       9.913  21.307  29.428  1.00  9.37 LIG 0.24  C 
ATOM      5 O    PHE C   1      10.435  20.598  30.282  1.00 11.27 LIG-0.27  OA
BRANCH 4 6
ATOM      6  CA  PHE C   1       8.498  21.040  28.960  1.00  8.68 LIG 0.18  C 
BRANCH 6 7
ATOM      7  CB  PHE C   1       8.558  20.145  27.722  1.00  8.30 LIG 0.07  C 
BRANCH 7 8
ATOM      8  CG  PHE C   1       7.328  19.311  27.520  1.00  6.80 LIG-0.06  A 
ATOM      9  CD1 PHE C   1       7.286  18.336  26.533  1.00  6.68 LIG 0.01  A 
ATOM     10  CE1 PHE C   1       6.153  17.563  26.360  1.00  6.85 LIG 0.00  A 
ATOM     11  CZ  PHE C   1       5.048  17.764  27.158  1.00  6.56 LIG 0.00  A 
ATOM     12  CE2 PHE C   1       5.072  18.733  28.144  1.00  6.82 LIG 0.00  A 
ATOM     13  CD2 PHE C   1       6.211  19.499  28.323  1.00  7.43 LIG 0.01  A 
ENDBRANCH 7 8
ENDBRANCH 6 7
BRANCH 6 14
ATOM     14  N   PHE C   1       7.794  22.290  28.660  1.00  9.64 LIG-0.35  N 
ATOM     15 H    PHE C   1       7.479  22.338  27.861  1.00  9.64 LIG 0.16  HD
ATOM     16  C   ACE C   0       7.670  23.252  29.568  1.00 12.10 LIG 0.21  C 
ATOM     17  CH3 ACE C   0       6.987  24.508  29.112  1.00 13.09 LIG 0.12  C 
ATOM     18 O    ACE C   0       8.106  23.129  30.713  1.00 13.69 LIG-0.27  OA
ENDBRANCH 6 14
ENDBRANCH 4 6
ENDBRANCH 1 2
BRANCH 1 19
ATOM     19  C   HIS C   2      11.992  22.561  30.791  1.00  9.05 LIG 0.24  C 
ATOM     20  N   ALA C   3      12.855  21.621  31.150  1.00  9.24 LIG-0.35  N 
ATOM     21 H    ALA C   3      13.271  21.104  30.603  1.00  9.24 LIG 0.16  HD
ATOM     22 O    HIS C   2      11.373  23.233  31.607  1.00  8.29 LIG-0.27  OA
BRANCH 20 23
ATOM     23  CA  ALA C   3      13.162  21.402  32.561  1.00  8.91 LIG 0.17  C 
ATOM     24  CB  ALA C   3      11.884  21.259  33.369  1.00  9.99 LIG 0.04  C 
BRANCH 23 25
ATOM     25  C   ALA C   3      14.030  20.152  32.723  1.00  9.36 LIG 0.24  C 
ATOM     26  N   ALA C   4      14.242  19.438  31.623  1.00  9.08 LIG-0.35  N 
ATOM     27 H    ALA C   4      14.007  19.690  30.835  1.00  9.08 LIG 0.16  HD
ATOM     28 O    ALA C   3      14.518  19.855  33.822  1.00  9.90 LIG-0.27  OA
BRANCH 26 29
ATOM     29  CA  ALA C   4      14.907  18.137  31.669  1.00  9.70 LIG 0.18  C 
ATOM     30  CB  ALA C   4      13.947  17.079  32.165  1.00  9.53 LIG 0.04  C 
BRANCH 29 31
ATOM     31  C   ALA C   4      15.502  17.704  30.342  1.00 11.00 LIG 0.28  C 
ATOM     32  N   NH2 C   5      16.379  16.710  30.370  1.00 10.22 LIG-0.11  N 
ATOM     33 O    ALA C   4      15.189  18.293  29.317  1.00 13.70 LIG-0.27  OA
ENDBRANCH 29 31
ENDBRANCH 26 29
ENDBRANCH 23 25
ENDBRANCH 20 23
ENDBRANCH 1 19
BRANCH 1 34
ATOM     34  CB  HIS C   2      12.003  24.319  29.070  1.00 12.23 LIG 0.10  C 
BRANCH 34 35
ATOM     35  CG  HIS C   2      11.911  24.726  27.638  1.00 15.24 LIG 0.06  A 
ATOM     36 ND1  HIS C   2      12.821  24.314  26.691  1.00 17.16 LIG-0.24  NA
ATOM     37  CE1 HIS C   2      12.493  24.826  25.518  1.00 17.55 LIG 0.23  A 
ATOM     38 NE2  HIS C   2      11.403  25.555  25.671  1.00 18.01 LIG-0.25  NA
ATOM     39  CD2 HIS C   2      11.018  25.507  26.988  1.00 16.53 LIG 0.14  A 
ENDBRANCH 34 35
ENDBRANCH 1 34
TORSDOF 12
ENDMDL
MODEL 26
USER: ADFR SOLUTION from run 84
USER: SCORE 10.997677 LL:  -2.458 LR: -10.282 RR:   0.000 FEB:  -6.702
USER: RMSD 7.204426
USER: SEED 83
USER: STATUS no improvement in best in 13 clusters for 5 generations
USER: GENES 14
USER: genes 0 Translation |==|  0.30228 0.64038 0.32862
USER: genes 1 Rotation |==|  0.57305 0.21979 0.42162 0.90001
USER: genes 2 Torsion [CB]-CA--N-[C] |==|  0.17363
USER: genes 3 Torsion [N]-C--CA-[N] |==|  0.22792
USER: genes 4 Torsion [C]-CA--CB-[CG] |==|  0.28503
USER: genes 5 Torsion [CA]-CB--CG-[CD1] |==|  0.08844
USER: genes 6 Torsion [C]-CA--N-[C] |==|  0.79948
USER: genes 7 Torsion [N]-CA--C-[N] |==|  0.99225
USER: genes 8 Torsion [C]-N--CA-[CB] |==|  0.83371
USER: genes 9 Torsion [N]-CA--C-[N] |==|  0.27242
USER: genes 10 Torsion [C]-N--CA-[C] |==|  0.72394
USER: genes 11 Torsion [N]-CA--C-[N] |==|  0.44021
USER: genes 12 Torsion [N]-CA--CB-[CG] |==|  0.69309
USER: genes 13 Torsion [CA]-CB--CG-[CD2] |==|  0.57637
ROOT
ATOM      1  CA  HIS C   2       9.272  24.636  27.519  1.00 10.06 LIG 0.18  C 
ENDROOT
BRANCH 1 2
ATOM      2  N   HIS C   2       9.576  23.317  28.073  1.00  9.48 LIG-0.35  N 
ATOM      3 H    HIS C   2      10.385  23.058  27.937  1.00  9.48 LIG 0.16  HD
ATOM      4  C   PHE C   1       8.676  22.592  28.724  1.00  9.37 LIG 0.24  C 
ATOM      5 O    PHE C   1       7.548  22.995  28.987  1.00 11.27 LIG-0.27  OA
BRANCH 4 6
ATOM      6  CA  PHE C   1       9.111  21.197  29.116  1.00  8.68 LIG 0.18  C 
BRANCH 6 7
ATOM      7  CB  PHE C   1       7.864  20.330  29.287  1.00  8.30 LIG 0.07  C 
BRANCH 7 8
ATOM      8  CG  PHE C   1       7.605  19.409  28.131  1.00  6.80 LIG-0.06  A 
ATOM      9  CD1 PHE C   1       8.658  18.882  27.395  1.00  6.68 LIG 0.01  A 
ATOM     10  CE1 PHE C   1       8.413  18.024  26.339  1.00  6.85 LIG 0.00  A 
ATOM     11  CZ  PHE C   1       7.119  17.697  25.998  1.00  6.56 LIG 0.00  A 
ATOM     12  CE2 PHE C   1       6.059  18.215  26.719  1.00  6.82 LIG 0.00  A 
ATOM     13  CD2 PHE C   1       6.307  19.066  27.783  1.00  7.43 LIG 0.01  A 
ENDBRANCH 7 8
ENDBRANCH 6 7
BRANCH 6 14
ATOM     14  N   PHE C   1       9.900  21.214  30.350  1.00  9.64 LIG-0.35  N 
ATOM     15 H    PHE C   1       9.492  20.899  31.039  1.00  9.64 LIG 0.16  HD
ATOM     16  C   ACE C   0      11.142  21.686  30.374  1.00 12.10 LIG 0.21  C 
ATOM     17  CH3 ACE C   0      11.816  21.711  31.715  1.00 13.09 LIG 0.12  C 
ATOM     18 O    ACE C   0      11.704  22.097  29.358  1.00 13.69 LIG-0.27  OA
ENDBRANCH 6 14
ENDBRANCH 4 6
ENDBRANCH 1 2
BRANCH 1 19
ATOM     19  C   HIS C   2      10.498  25.176  26.815  1.00  9.05 LIG 0.24  C 
ATOM     20  N   ALA C   3      11.594  24.432  26.868  1.00  9.24 LIG-0.35  N 
ATOM     21 H    ALA C   3      11.674  23.711  27.330  1.00  9.24 LIG 0.16  HD
ATOM     22 O    HIS C   2      10.448  26.232  26.196  1.00  8.29 LIG-0.27  OA
BRANCH 20 23
ATOM     23  CA  ALA C   3      12.782  24.815  26.110  1.00  8.91 LIG 0.17  C 
ATOM     24  CB  ALA C   3      12.473  24.871  24.624  1.00  9.99 LIG 0.04  C 
BRANCH 23 25
ATOM     25  C   ALA C   3      13.300  26.172  26.592  1.00  9.36 LIG 0.24  C 
ATOM     26  N   ALA C   4      14.305  26.141  27.460  1.00  9.08 LIG-0.35  N 
ATOM     27 H    ALA C   4      14.728  25.425  27.678  1.00  9.08 LIG 0.16  HD
ATOM     28 O    ALA C   3      12.812  27.227  26.166  1.00  9.90 LIG-0.27  OA
BRANCH 26 29
ATOM     29  CA  ALA C   4      14.780  27.352  28.128  1.00  9.70 LIG 0.18  C 
ATOM     30  CB  ALA C   4      15.034  27.073  29.591  1.00  9.53 LIG 0.04  C 
BRANCH 29 31
ATOM     31  C   ALA C   4      16.023  27.953  27.499  1.00 11.00 LIG 0.28  C 
ATOM     32  N   NH2 C   5      16.260  29.236  27.739  1.00 10.22 LIG-0.11  N 
ATOM     33 O    ALA C   4      16.732  27.264  26.779  1.00 13.70 LIG-0.27  OA
ENDBRANCH 29 31
ENDBRANCH 26 29
ENDBRANCH 23 25
ENDBRANCH 20 23
ENDBRANCH 1 19
BRANCH 1 34
ATOM     34  CB  HIS C   2       8.893  25.630  28.624  1.00 12.23 LIG 0.10  C 
BRANCH 34 35
ATOM     35  CG  HIS C   2       7.458  26.033  28.617  1.00 15.24 LIG 0.06  A 
ATOM     36 ND1  HIS C   2       6.461  25.219  28.126  1.00 17.16 LIG-0.24  NA
ATOM     37  CE1 HIS C   2       5.297  25.832  28.246  1.00 17.55 LIG 0.23  A 
ATOM     38 NE2  HIS C   2       5.503  27.014  28.797  1.00 18.01 LIG-0.25  NA
ATOM     39  CD2 HIS C   2       6.846  27.164  29.040  1.00 16.53 LIG 0.14  A 
ENDBRANCH 34 35
ENDBRANCH 1 34
TORSDOF 12
ENDMDL
MODEL 27
USER: ADFR SOLUTION from run 113
USER: SCORE 11.526309 LL:  -2.644 LR: -10.209 RR:   0.000 FEB:  -6.629
USER: RMSD 5.525313
USER: SEED 112
USER: STATUS no improvement in best in 14 clusters for 5 generations
USER: GENES 14
USER: genes 0 Translation |==|  0.47555 0.49155 0.49959
USER: genes 1 Rotation |==|  0.70762 0.23312 0.54127 0.86601
USER: genes 2 Torsion [CB]-CA--N-[C] |==|  0.20651
USER: genes 3 Torsion [N]-C--CA-[N] |==|  0.49444
USER: genes 4 Torsion [C]-CA--CB-[CG] |==|  0.61738
USER: genes 5 Torsion [CA]-CB--CG-[CD1] |==|  0.82702
USER: genes 6 Torsion [C]-CA--N-[C] |==|  0.65895
USER: genes 7 Torsion [N]-CA--C-[N] |==|  0.89469
USER: genes 8 Torsion [C]-N--CA-[CB] |==|  0.17953
USER: genes 9 Torsion [N]-CA--C-[N] |==|  0.10087
USER: genes 10 Torsion [C]-N--CA-[C] |==|  0.81020
USER: genes 11 Torsion [N]-CA--C-[N] |==|  0.38663
USER: genes 12 Torsion [N]-CA--CB-[CG] |==|  0.72792
USER: genes 13 Torsion [CA]-CB--CG-[CD2] |==|  0.37559
ROOT
ATOM      1  CA  HIS C   2      12.131  21.511  30.853  1.00 10.06 LIG 0.18  C 
ENDROOT
BRANCH 1 2
ATOM      2  N   HIS C   2      13.148  20.564  31.308  1.00  9.48 LIG-0.35  N 
ATOM      3 H    HIS C   2      13.905  20.927  31.495  1.00  9.48 LIG 0.16  HD
ATOM      4  C   PHE C   1      12.914  19.263  31.419  1.00  9.37 LIG 0.24  C 
ATOM      5 O    PHE C   1      11.812  18.758  31.230  1.00 11.27 LIG-0.27  OA
BRANCH 4 6
ATOM      6  CA  PHE C   1      14.108  18.405  31.774  1.00  8.68 LIG 0.18  C 
BRANCH 6 7
ATOM      7  CB  PHE C   1      15.165  18.568  30.682  1.00  8.30 LIG 0.07  C 
BRANCH 7 8
ATOM      8  CG  PHE C   1      15.823  17.281  30.282  1.00  6.80 LIG-0.06  A 
ATOM      9  CD1 PHE C   1      16.562  16.547  31.199  1.00  6.68 LIG 0.01  A 
ATOM     10  CE1 PHE C   1      17.156  15.355  30.826  1.00  6.85 LIG 0.00  A 
ATOM     11  CZ  PHE C   1      17.031  14.893  29.535  1.00  6.56 LIG 0.00  A 
ATOM     12  CE2 PHE C   1      16.302  15.614  28.608  1.00  6.82 LIG 0.00  A 
ATOM     13  CD2 PHE C   1      15.699  16.802  28.986  1.00  7.43 LIG 0.01  A 
ENDBRANCH 7 8
ENDBRANCH 6 7
BRANCH 6 14
ATOM     14  N   PHE C   1      13.726  16.997  31.916  1.00  9.64 LIG-0.35  N 
ATOM     15 H    PHE C   1      13.352  16.658  31.220  1.00  9.64 LIG 0.16  HD
ATOM     16  C   ACE C   0      13.952  16.326  33.040  1.00 12.10 LIG 0.21  C 
ATOM     17  CH3 ACE C   0      13.450  14.912  33.080  1.00 13.09 LIG 0.12  C 
ATOM     18 O    ACE C   0      14.523  16.839  34.003  1.00 13.69 LIG-0.27  OA
ENDBRANCH 6 14
ENDBRANCH 4 6
ENDBRANCH 1 2
BRANCH 1 19
ATOM     19  C   HIS C   2      12.790  22.834  30.530  1.00  9.05 LIG 0.24  C 
ATOM     20  N   ALA C   3      13.777  23.220  31.325  1.00  9.24 LIG-0.35  N 
ATOM     21 H    ALA C   3      14.015  22.812  32.044  1.00  9.24 LIG 0.16  HD
ATOM     22 O    HIS C   2      12.442  23.482  29.550  1.00  8.29 LIG-0.27  OA
BRANCH 20 23
ATOM     23  CA  ALA C   3      14.551  24.418  31.011  1.00  8.91 LIG 0.17  C 
ATOM     24  CB  ALA C   3      13.672  25.655  31.075  1.00  9.99 LIG 0.04  C 
BRANCH 23 25
ATOM     25  C   ALA C   3      15.726  24.556  31.983  1.00  9.36 LIG 0.24  C 
ATOM     26  N   ALA C   4      16.309  23.425  32.361  1.00  9.08 LIG-0.35  N 
ATOM     27 H    ALA C   4      16.131  22.655  32.021  1.00  9.08 LIG 0.16  HD
ATOM     28 O    ALA C   3      16.110  25.670  32.363  1.00  9.90 LIG-0.27  OA
BRANCH 26 29
ATOM     29  CA  ALA C   4      17.326  23.399  33.411  1.00  9.70 LIG 0.18  C 
ATOM     30  CB  ALA C   4      17.598  21.975  33.838  1.00  9.53 LIG 0.04  C 
BRANCH 29 31
ATOM     31  C   ALA C   4      18.629  24.073  33.023  1.00 11.00 LIG 0.28  C 
ATOM     32  N   NH2 C   5      19.220  24.819  33.946  1.00 10.22 LIG-0.11  N 
ATOM     33 O    ALA C   4      19.065  23.940  31.888  1.00 13.70 LIG-0.27  OA
ENDBRANCH 29 31
ENDBRANCH 26 29
ENDBRANCH 23 25
ENDBRANCH 20 23
ENDBRANCH 1 19
BRANCH 1 34
ATOM     34  CB  HIS C   2      11.081  21.766  31.942  1.00 12.23 LIG 0.10  C 
BRANCH 34 35
ATOM     35  CG  HIS C   2       9.834  20.964  31.788  1.00 15.24 LIG 0.06  A 
ATOM     36 ND1  HIS C   2       9.196  20.811  30.577  1.00 17.16 LIG-0.24  NA
ATOM     37  CE1 HIS C   2       8.124  20.056  30.740  1.00 17.55 LIG 0.23  A 
ATOM     38 NE2  HIS C   2       8.045  19.715  32.014  1.00 18.01 LIG-0.25  NA
ATOM     39  CD2 HIS C   2       9.103  20.269  32.690  1.00 16.53 LIG 0.14  A 
ENDBRANCH 34 35
ENDBRANCH 1 34
TORSDOF 12
ENDMDL
MODEL 28
USER: ADFR SOLUTION from run 55
USER: SCORE 10.554868 LL:  -2.743 LR: -10.187 RR:   0.000 FEB:  -6.607
USER: RMSD 4.300667
USER: SEED 54
USER: STATUS no improvement in best in 13 clusters for 5 generations
USER: GENES 14
USER: genes 0 Translation |==|  0.58573 0.50213 0.61463
USER: genes 1 Rotation |==|  0.40912 0.59989 0.48419 0.98116
USER: genes 2 Torsion [CB]-CA--N-[C] |==|  0.35819
USER: genes 3 Torsion [N]-C--CA-[N] |==|  0.36703
USER: genes 4 Torsion [C]-CA--CB-[CG] |==|  0.32580
USER: genes 5 Torsion [CA]-CB--CG-[CD1] |==|  0.28576
USER: genes 6 Torsion [C]-CA--N-[C] |==|  0.76793
USER: genes 7 Torsion [N]-CA--C-[N] |==|  0.47667
USER: genes 8 Torsion [C]-N--CA-[CB] |==|  0.83889
USER: genes 9 Torsion [N]-CA--C-[N] |==|  0.48843
USER: genes 10 Torsion [C]-N--CA-[C] |==|  0.60839
USER: genes 11 Torsion [N]-CA--C-[N] |==|  0.42401
USER: genes 12 Torsion [N]-CA--CB-[CG] |==|  0.99292
USER: genes 13 Torsion [CA]-CB--CG-[CD2] |==|  0.32121
ROOT
ATOM      1  CA  HIS C   2      13.949  21.733  33.096  1.00 10.06 LIG 0.18  C 
ENDROOT
BRANCH 1 2
ATOM      2  N   HIS C   2      14.973  20.694  32.999  1.00  9.48 LIG-0.35  N 
ATOM      3 H    HIS C   2      15.508  20.791  32.332  1.00  9.48 LIG 0.16  HD
ATOM      4  C   PHE C   1      15.061  19.695  33.867  1.00  9.37 LIG 0.24  C 
ATOM      5 O    PHE C   1      14.350  19.602  34.862  1.00 11.27 LIG-0.27  OA
BRANCH 4 6
ATOM      6  CA  PHE C   1      16.091  18.632  33.549  1.00  8.68 LIG 0.18  C 
BRANCH 6 7
ATOM      7  CB  PHE C   1      15.362  17.383  33.056  1.00  8.30 LIG 0.07  C 
BRANCH 7 8
ATOM      8  CG  PHE C   1      15.698  17.007  31.643  1.00  6.80 LIG-0.06  A 
ATOM      9  CD1 PHE C   1      16.568  15.959  31.375  1.00  6.68 LIG 0.01  A 
ATOM     10  CE1 PHE C   1      16.863  15.610  30.071  1.00  6.85 LIG 0.00  A 
ATOM     11  CZ  PHE C   1      16.307  16.310  29.023  1.00  6.56 LIG 0.00  A 
ATOM     12  CE2 PHE C   1      15.441  17.359  29.272  1.00  6.82 LIG 0.00  A 
ATOM     13  CD2 PHE C   1      15.138  17.700  30.579  1.00  7.43 LIG 0.01  A 
ENDBRANCH 7 8
ENDBRANCH 6 7
BRANCH 6 14
ATOM     14  N   PHE C   1      16.911  18.322  34.723  1.00  9.64 LIG-0.35  N 
ATOM     15 H    PHE C   1      16.649  17.635  35.169  1.00  9.64 LIG 0.16  HD
ATOM     16  C   ACE C   0      17.967  19.061  35.047  1.00 12.10 LIG 0.21  C 
ATOM     17  CH3 ACE C   0      18.681  18.677  36.311  1.00 13.09 LIG 0.12  C 
ATOM     18 O    ACE C   0      18.330  20.017  34.361  1.00 13.69 LIG-0.27  OA
ENDBRANCH 6 14
ENDBRANCH 4 6
ENDBRANCH 1 2
BRANCH 1 19
ATOM     19  C   HIS C   2      12.991  21.599  31.932  1.00  9.05 LIG 0.24  C 
ATOM     20  N   ALA C   3      11.904  22.357  31.962  1.00  9.24 LIG-0.35  N 
ATOM     21 H    ALA C   3      11.674  22.856  32.623  1.00  9.24 LIG 0.16  HD
ATOM     22 O    HIS C   2      13.248  20.853  30.995  1.00  8.29 LIG-0.27  OA
BRANCH 20 23
ATOM     23  CA  ALA C   3      10.993  22.386  30.820  1.00  8.91 LIG 0.17  C 
ATOM     24  CB  ALA C   3      11.727  22.822  29.563  1.00  9.99 LIG 0.04  C 
BRANCH 23 25
ATOM     25  C   ALA C   3      10.366  21.006  30.612  1.00  9.36 LIG 0.24  C 
ATOM     26  N   ALA C   4       9.450  20.917  29.654  1.00  9.08 LIG-0.35  N 
ATOM     27 H    ALA C   4       9.272  21.550  29.100  1.00  9.08 LIG 0.16  HD
ATOM     28 O    ALA C   3      10.723  20.034  31.292  1.00  9.90 LIG-0.27  OA
BRANCH 26 29
ATOM     29  CA  ALA C   4       8.652  19.707  29.464  1.00  9.70 LIG 0.18  C 
ATOM     30  CB  ALA C   4       7.329  19.837  30.183  1.00  9.53 LIG 0.04  C 
BRANCH 29 31
ATOM     31  C   ALA C   4       8.410  19.353  28.008  1.00 11.00 LIG 0.28  C 
ATOM     32  N   NH2 C   5       8.215  18.072  27.724  1.00 10.22 LIG-0.11  N 
ATOM     33 O    ALA C   4       8.435  20.232  27.159  1.00 13.70 LIG-0.27  OA
ENDBRANCH 29 31
ENDBRANCH 26 29
ENDBRANCH 23 25
ENDBRANCH 20 23
ENDBRANCH 1 19
BRANCH 1 34
ATOM     34  CB  HIS C   2      14.568  23.134  33.032  1.00 12.23 LIG 0.10  C 
BRANCH 34 35
ATOM     35  CG  HIS C   2      16.057  23.140  32.947  1.00 15.24 LIG 0.06  A 
ATOM     36 ND1  HIS C   2      16.859  22.661  33.959  1.00 17.16 LIG-0.24  NA
ATOM     37  CE1 HIS C   2      18.127  22.793  33.611  1.00 17.55 LIG 0.23  A 
ATOM     38 NE2  HIS C   2      18.175  23.340  32.410  1.00 18.01 LIG-0.25  NA
ATOM     39  CD2 HIS C   2      16.893  23.565  31.972  1.00 16.53 LIG 0.14  A 
ENDBRANCH 34 35
ENDBRANCH 1 34
TORSDOF 12
ENDMDL
MODEL 29
USER: ADFR SOLUTION from run 184
USER: SCORE 11.612348 LL:  -3.024 LR: -10.167 RR:   0.000 FEB:  -6.588
USER: RMSD 7.877547
USER: SEED 183
USER: STATUS no improvement in best in 18 clusters for 5 generations
USER: GENES 14
USER: genes 0 Translation |==|  0.60773 0.61051 0.51405
USER: genes 1 Rotation |==|  0.71657 0.88057 0.70049 0.63441
USER: genes 2 Torsion [CB]-CA--N-[C] |==|  0.48889
USER: genes 3 Torsion [N]-C--CA-[N] |==|  0.36626
USER: genes 4 Torsion [C]-CA--CB-[CG] |==|  0.83399
USER: genes 5 Torsion [CA]-CB--CG-[CD1] |==|  0.25811
USER: genes 6 Torsion [C]-CA--N-[C] |==|  0.75477
USER: genes 7 Torsion [N]-CA--C-[N] |==|  0.27387
USER: genes 8 Torsion [C]-N--CA-[CB] |==|  0.19406
USER: genes 9 Torsion [N]-CA--C-[N] |==|  0.07058
USER: genes 10 Torsion [C]-N--CA-[C] |==|  0.77844
USER: genes 11 Torsion [N]-CA--C-[N] |==|  0.39546
USER: genes 12 Torsion [N]-CA--CB-[CG] |==|  0.60428
USER: genes 13 Torsion [CA]-CB--CG-[CD2] |==|  0.86041
ROOT
ATOM      1  CA  HIS C   2      14.311  24.009  31.135  1.00 10.06 LIG 0.18  C 
ENDROOT
BRANCH 1 2
ATOM      2  N   HIS C   2      13.335  24.688  30.284  1.00  9.48 LIG-0.35  N 
ATOM      3 H    HIS C   2      13.352  25.545  30.348  1.00  9.48 LIG 0.16  HD
ATOM      4  C   PHE C   1      12.503  24.030  29.489  1.00  9.37 LIG 0.24  C 
ATOM      5 O    PHE C   1      12.534  22.813  29.338  1.00 11.27 LIG-0.27  OA
BRANCH 4 6
ATOM      6  CA  PHE C   1      11.467  24.872  28.775  1.00  8.68 LIG 0.18  C 
BRANCH 6 7
ATOM      7  CB  PHE C   1      10.109  24.631  29.434  1.00  8.30 LIG 0.07  C 
BRANCH 7 8
ATOM      8  CG  PHE C   1       9.659  23.201  29.384  1.00  6.80 LIG-0.06  A 
ATOM      9  CD1 PHE C   1       9.937  22.333  30.431  1.00  6.68 LIG 0.01  A 
ATOM     10  CE1 PHE C   1       9.509  21.019  30.384  1.00  6.85 LIG 0.00  A 
ATOM     11  CZ  PHE C   1       8.815  20.555  29.289  1.00  6.56 LIG 0.00  A 
ATOM     12  CE2 PHE C   1       8.532  21.405  28.236  1.00  6.82 LIG 0.00  A 
ATOM     13  CD2 PHE C   1       8.953  22.724  28.290  1.00  7.43 LIG 0.01  A 
ENDBRANCH 7 8
ENDBRANCH 6 7
BRANCH 6 14
ATOM     14  N   PHE C   1      11.412  24.548  27.347  1.00  9.64 LIG-0.35  N 
ATOM     15 H    PHE C   1      10.840  23.939  27.142  1.00  9.64 LIG 0.16  HD
ATOM     16  C   ACE C   0      12.196  25.160  26.466  1.00 12.10 LIG 0.21  C 
ATOM     17  CH3 ACE C   0      12.091  24.687  25.045  1.00 13.09 LIG 0.12  C 
ATOM     18 O    ACE C   0      12.978  26.051  26.796  1.00 13.69 LIG-0.27  OA
ENDBRANCH 6 14
ENDBRANCH 4 6
ENDBRANCH 1 2
BRANCH 1 19
ATOM     19  C   HIS C   2      13.580  23.193  32.180  1.00  9.05 LIG 0.24  C 
ATOM     20  N   ALA C   3      13.437  21.898  31.935  1.00  9.24 LIG-0.35  N 
ATOM     21 H    ALA C   3      13.664  21.511  31.201  1.00  9.24 LIG 0.16  HD
ATOM     22 O    HIS C   2      13.184  23.715  33.215  1.00  8.29 LIG-0.27  OA
BRANCH 20 23
ATOM     23  CA  ALA C   3      12.860  21.016  32.945  1.00  8.91 LIG 0.17  C 
ATOM     24  CB  ALA C   3      11.378  21.303  33.121  1.00  9.99 LIG 0.04  C 
BRANCH 23 25
ATOM     25  C   ALA C   3      13.070  19.553  32.550  1.00  9.36 LIG 0.24  C 
ATOM     26  N   ALA C   4      14.103  19.304  31.754  1.00  9.08 LIG-0.35  N 
ATOM     27 H    ALA C   4      14.697  19.888  31.541  1.00  9.08 LIG 0.16  HD
ATOM     28 O    ALA C   3      12.321  18.664  32.978  1.00  9.90 LIG-0.27  OA
BRANCH 26 29
ATOM     29  CA  ALA C   4      14.318  17.983  31.165  1.00  9.70 LIG 0.18  C 
ATOM     30  CB  ALA C   4      15.158  18.101  29.914  1.00  9.53 LIG 0.04  C 
BRANCH 29 31
ATOM     31  C   ALA C   4      14.952  16.982  32.114  1.00 11.00 LIG 0.28  C 
ATOM     32  N   NH2 C   5      14.525  15.729  32.040  1.00 10.22 LIG-0.11  N 
ATOM     33 O    ALA C   4      15.790  17.359  32.920  1.00 13.70 LIG-0.27  OA
ENDBRANCH 29 31
ENDBRANCH 26 29
ENDBRANCH 23 25
ENDBRANCH 20 23
ENDBRANCH 1 19
BRANCH 1 34
ATOM     34  CB  HIS C   2      15.205  25.015  31.871  1.00 12.23 LIG 0.10  C 
BRANCH 34 35
ATOM     35  CG  HIS C   2      16.626  24.586  32.005  1.00 15.24 LIG 0.06  A 
ATOM     36 ND1  HIS C   2      17.682  25.399  31.658  1.00 17.16 LIG-0.24  NA
ATOM     37  CE1 HIS C   2      18.817  24.760  31.881  1.00 17.55 LIG 0.23  A 
ATOM     38 NE2  HIS C   2      18.534  23.563  32.361  1.00 18.01 LIG-0.25  NA
ATOM     39  CD2 HIS C   2      17.171  23.430  32.450  1.00 16.53 LIG 0.14  A 
ENDBRANCH 34 35
ENDBRANCH 1 34
TORSDOF 12
ENDMDL
MODEL 30
USER: ADFR SOLUTION from run 199
USER: SCORE 11.045052 LL:  -2.992 LR: -10.159 RR:   0.000 FEB:  -6.579
USER: RMSD 9.374381
USER: SEED 198
USER: STATUS no improvement in best in 35 clusters for 5 generations
USER: GENES 14
USER: genes 0 Translation |==|  0.25139 0.51118 0.37551
USER: genes 1 Rotation |==|  0.91855 0.64198 0.26739 0.52340
USER: genes 2 Torsion [CB]-CA--N-[C] |==|  0.48615
USER: genes 3 Torsion [N]-C--CA-[N] |==|  0.39444
USER: genes 4 Torsion [C]-CA--CB-[CG] |==|  0.23637
USER: genes 5 Torsion [CA]-CB--CG-[CD1] |==|  0.71082
USER: genes 6 Torsion [C]-CA--N-[C] |==|  0.59041
USER: genes 7 Torsion [N]-CA--C-[N] |==|  0.83013
USER: genes 8 Torsion [C]-N--CA-[CB] |==|  0.85457
USER: genes 9 Torsion [N]-CA--C-[N] |==|  0.44809
USER: genes 10 Torsion [C]-N--CA-[C] |==|  0.16378
USER: genes 11 Torsion [N]-CA--C-[N] |==|  0.16891
USER: genes 12 Torsion [N]-CA--CB-[CG] |==|  0.60852
USER: genes 13 Torsion [CA]-CB--CG-[CD2] |==|  0.43850
ROOT
ATOM      1  CA  HIS C   2       8.432  21.923  28.433  1.00 10.06 LIG 0.18  C 
ENDROOT
BRANCH 1 2
ATOM      2  N   HIS C   2       8.416  23.203  27.726  1.00  9.48 LIG-0.35  N 
ATOM      3 H    HIS C   2       8.667  23.152  26.905  1.00  9.48 LIG 0.16  HD
ATOM      4  C   PHE C   1       8.044  24.335  28.309  1.00  9.37 LIG 0.24  C 
ATOM      5 O    PHE C   1       7.608  24.393  29.454  1.00 11.27 LIG-0.27  OA
BRANCH 4 6
ATOM      6  CA  PHE C   1       8.210  25.590  27.480  1.00  8.68 LIG 0.18  C 
BRANCH 6 7
ATOM      7  CB  PHE C   1       9.539  26.245  27.853  1.00  8.30 LIG 0.07  C 
BRANCH 7 8
ATOM      8  CG  PHE C   1      10.716  25.691  27.106  1.00  6.80 LIG-0.06  A 
ATOM      9  CD1 PHE C   1      11.605  24.823  27.724  1.00  6.68 LIG 0.01  A 
ATOM     10  CE1 PHE C   1      12.680  24.307  27.026  1.00  6.85 LIG 0.00  A 
ATOM     11  CZ  PHE C   1      12.889  24.663  25.712  1.00  6.56 LIG 0.00  A 
ATOM     12  CE2 PHE C   1      12.016  25.530  25.081  1.00  6.82 LIG 0.00  A 
ATOM     13  CD2 PHE C   1      10.933  26.037  25.779  1.00  7.43 LIG 0.01  A 
ENDBRANCH 7 8
ENDBRANCH 6 7
BRANCH 6 14
ATOM     14  N   PHE C   1       7.098  26.519  27.695  1.00  9.64 LIG-0.35  N 
ATOM     15 H    PHE C   1       6.767  26.501  28.489  1.00  9.64 LIG 0.16  HD
ATOM     16  C   ACE C   0       6.658  27.313  26.725  1.00 12.10 LIG 0.21  C 
ATOM     17  CH3 ACE C   0       5.468  28.167  27.056  1.00 13.09 LIG 0.12  C 
ATOM     18 O    ACE C   0       7.182  27.334  25.611  1.00 13.69 LIG-0.27  OA
ENDBRANCH 6 14
ENDBRANCH 4 6
ENDBRANCH 1 2
BRANCH 1 19
ATOM     19  C   HIS C   2       9.486  21.967  29.518  1.00  9.05 LIG 0.24  C 
ATOM     20  N   ALA C   3      10.738  22.158  29.128  1.00  9.24 LIG-0.35  N 
ATOM     21 H    ALA C   3      10.996  22.185  28.308  1.00  9.24 LIG 0.16  HD
ATOM     22 O    HIS C   2       9.172  21.871  30.699  1.00  8.29 LIG-0.27  OA
BRANCH 20 23
ATOM     23  CA  ALA C   3      11.799  22.342  30.115  1.00  8.91 LIG 0.17  C 
ATOM     24  CB  ALA C   3      11.430  23.440  31.097  1.00  9.99 LIG 0.04  C 
BRANCH 23 25
ATOM     25  C   ALA C   3      12.056  21.031  30.862  1.00  9.36 LIG 0.24  C 
ATOM     26  N   ALA C   4      13.219  20.937  31.497  1.00  9.08 LIG-0.35  N 
ATOM     27 H    ALA C   4      13.769  21.591  31.589  1.00  9.08 LIG 0.16  HD
ATOM     28 O    ALA C   3      11.206  20.131  30.880  1.00  9.90 LIG-0.27  OA
BRANCH 26 29
ATOM     29  CA  ALA C   4      13.663  19.684  32.104  1.00  9.70 LIG 0.18  C 
ATOM     30  CB  ALA C   4      12.738  19.296  33.234  1.00  9.53 LIG 0.04  C 
BRANCH 29 31
ATOM     31  C   ALA C   4      13.781  18.533  31.122  1.00 11.00 LIG 0.28  C 
ATOM     32  N   NH2 C   5      14.636  18.681  30.120  1.00 10.22 LIG-0.11  N 
ATOM     33 O    ALA C   4      13.075  17.543  31.261  1.00 13.70 LIG-0.27  OA
ENDBRANCH 29 31
ENDBRANCH 26 29
ENDBRANCH 23 25
ENDBRANCH 20 23
ENDBRANCH 1 19
BRANCH 1 34
ATOM     34  CB  HIS C   2       8.784  20.768  27.488  1.00 12.23 LIG 0.10  C 
BRANCH 34 35
ATOM     35  CG  HIS C   2       8.011  19.518  27.736  1.00 15.24 LIG 0.06  A 
ATOM     36 ND1  HIS C   2       7.412  19.245  28.946  1.00 17.16 LIG-0.24  NA
ATOM     37  CE1 HIS C   2       6.802  18.075  28.878  1.00 17.55 LIG 0.23  A 
ATOM     38 NE2  HIS C   2       6.983  17.581  27.666  1.00 18.01 LIG-0.25  NA
ATOM     39  CD2 HIS C   2       7.734  18.465  26.932  1.00 16.53 LIG 0.14  A 
ENDBRANCH 34 35
ENDBRANCH 1 34
TORSDOF 12
ENDMDL
MODEL 31
USER: ADFR SOLUTION from run 120
USER: SCORE 11.860598 LL:  -3.239 LR: -10.141 RR:   0.000 FEB:  -6.562
USER: RMSD 8.146886
USER: SEED 119
USER: STATUS no improvement in best in 21 clusters for 5 generations
USER: GENES 14
USER: genes 0 Translation |==|  0.25496 0.67140 0.32123
USER: genes 1 Rotation |==|  0.56526 0.12885 0.38130 0.80644
USER: genes 2 Torsion [CB]-CA--N-[C] |==|  0.78889
USER: genes 3 Torsion [N]-C--CA-[N] |==|  0.92326
USER: genes 4 Torsion [C]-CA--CB-[CG] |==|  0.60918
USER: genes 5 Torsion [CA]-CB--CG-[CD1] |==|  0.34495
USER: genes 6 Torsion [C]-CA--N-[C] |==|  0.75510
USER: genes 7 Torsion [N]-CA--C-[N] |==|  0.17028
USER: genes 8 Torsion [C]-N--CA-[CB] |==|  0.81905
USER: genes 9 Torsion [N]-CA--C-[N] |==|  0.13394
USER: genes 10 Torsion [C]-N--CA-[C] |==|  0.50226
USER: genes 11 Torsion [N]-CA--C-[N] |==|  0.48378
USER: genes 12 Torsion [N]-CA--CB-[CG] |==|  0.74492
USER: genes 13 Torsion [CA]-CB--CG-[CD2] |==|  0.35682
ROOT
ATOM      1  CA  HIS C   2       8.491  25.287  27.375  1.00 10.06 LIG 0.18  C 
ENDROOT
BRANCH 1 2
ATOM      2  N   HIS C   2       8.187  23.935  27.841  1.00  9.48 LIG-0.35  N 
ATOM      3 H    HIS C   2       7.570  23.540  27.390  1.00  9.48 LIG 0.16  HD
ATOM      4  C   PHE C   1       8.812  23.377  28.869  1.00  9.37 LIG 0.24  C 
ATOM      5 O    PHE C   1       9.746  23.909  29.459  1.00 11.27 LIG-0.27  OA
BRANCH 4 6
ATOM      6  CA  PHE C   1       8.289  22.026  29.306  1.00  8.68 LIG 0.18  C 
BRANCH 6 7
ATOM      7  CB  PHE C   1       9.111  20.940  28.614  1.00  8.30 LIG 0.07  C 
BRANCH 7 8
ATOM      8  CG  PHE C   1       8.297  19.765  28.160  1.00  6.80 LIG-0.06  A 
ATOM      9  CD1 PHE C   1       8.315  19.359  26.832  1.00  6.68 LIG 0.01  A 
ATOM     10  CE1 PHE C   1       7.573  18.268  26.423  1.00  6.85 LIG 0.00  A 
ATOM     11  CZ  PHE C   1       6.794  17.581  27.328  1.00  6.56 LIG 0.00  A 
ATOM     12  CE2 PHE C   1       6.762  17.973  28.653  1.00  6.82 LIG 0.00  A 
ATOM     13  CD2 PHE C   1       7.515  19.060  29.063  1.00  7.43 LIG 0.01  A 
ENDBRANCH 7 8
ENDBRANCH 6 7
BRANCH 6 14
ATOM     14  N   PHE C   1       6.866  21.880  28.986  1.00  9.64 LIG-0.35  N 
ATOM     15 H    PHE C   1       6.709  21.523  28.220  1.00  9.64 LIG 0.16  HD
ATOM     16  C   ACE C   0       5.920  22.277  29.830  1.00 12.10 LIG 0.21  C 
ATOM     17  CH3 ACE C   0       4.504  22.135  29.352  1.00 13.09 LIG 0.12  C 
ATOM     18 O    ACE C   0       6.187  22.753  30.934  1.00 13.69 LIG-0.27  OA
ENDBRANCH 6 14
ENDBRANCH 4 6
ENDBRANCH 1 2
BRANCH 1 19
ATOM     19  C   HIS C   2       9.992  25.485  27.364  1.00  9.05 LIG 0.24  C 
ATOM     20  N   ALA C   3      10.694  24.687  26.572  1.00  9.24 LIG-0.35  N 
ATOM     21 H    ALA C   3      10.367  24.028  26.128  1.00  9.24 LIG 0.16  HD
ATOM     22 O    HIS C   2      10.509  26.374  28.030  1.00  8.29 LIG-0.27  OA
BRANCH 20 23
ATOM     23  CA  ALA C   3      12.130  24.893  26.404  1.00  8.91 LIG 0.17  C 
ATOM     24  CB  ALA C   3      12.402  26.222  25.719  1.00  9.99 LIG 0.04  C 
BRANCH 23 25
ATOM     25  C   ALA C   3      12.832  24.848  27.763  1.00  9.36 LIG 0.24  C 
ATOM     26  N   ALA C   4      12.518  23.826  28.551  1.00  9.08 LIG-0.35  N 
ATOM     27 H    ALA C   4      12.034  23.159  28.303  1.00  9.08 LIG 0.16  HD
ATOM     28 O    ALA C   3      13.660  25.712  28.081  1.00  9.90 LIG-0.27  OA
BRANCH 26 29
ATOM     29  CA  ALA C   4      12.982  23.752  29.935  1.00  9.70 LIG 0.18  C 
ATOM     30  CB  ALA C   4      12.533  24.976  30.700  1.00  9.53 LIG 0.04  C 
BRANCH 29 31
ATOM     31  C   ALA C   4      12.537  22.500  30.668  1.00 11.00 LIG 0.28  C 
ATOM     32  N   NH2 C   5      13.020  22.311  31.888  1.00 10.22 LIG-0.11  N 
ATOM     33 O    ALA C   4      11.791  21.706  30.111  1.00 13.70 LIG-0.27  OA
ENDBRANCH 29 31
ENDBRANCH 26 29
ENDBRANCH 23 25
ENDBRANCH 20 23
ENDBRANCH 1 19
BRANCH 1 34
ATOM     34  CB  HIS C   2       7.888  26.346  28.306  1.00 12.23 LIG 0.10  C 
BRANCH 34 35
ATOM     35  CG  HIS C   2       6.524  26.801  27.912  1.00 15.24 LIG 0.06  A 
ATOM     36 ND1  HIS C   2       6.226  27.235  26.639  1.00 17.16 LIG-0.24  NA
ATOM     37  CE1 HIS C   2       4.950  27.574  26.580  1.00 17.55 LIG 0.23  A 
ATOM     38 NE2  HIS C   2       4.411  27.374  27.769  1.00 18.01 LIG-0.25  NA
ATOM     39  CD2 HIS C   2       5.373  26.889  28.619  1.00 16.53 LIG 0.14  A 
ENDBRANCH 34 35
ENDBRANCH 1 34
TORSDOF 12
ENDMDL
MODEL 32
USER: ADFR SOLUTION from run 102
USER: SCORE 10.983672 LL:  -2.567 LR: -10.105 RR:   0.000 FEB:  -6.525
USER: RMSD 8.493259
USER: SEED 101
USER: STATUS no improvement in best in 42 clusters for 5 generations
USER: GENES 14
USER: genes 0 Translation |==|  0.42338 0.46748 0.53035
USER: genes 1 Rotation |==|  0.13350 0.55344 0.80711 0.63604
USER: genes 2 Torsion [CB]-CA--N-[C] |==|  0.24444
USER: genes 3 Torsion [N]-C--CA-[N] |==|  0.85468
USER: genes 4 Torsion [C]-CA--CB-[CG] |==|  0.40305
USER: genes 5 Torsion [CA]-CB--CG-[CD1] |==|  0.09343
USER: genes 6 Torsion [C]-CA--N-[C] |==|  0.69092
USER: genes 7 Torsion [N]-CA--C-[N] |==|  0.02773
USER: genes 8 Torsion [C]-N--CA-[CB] |==|  0.86974
USER: genes 9 Torsion [N]-CA--C-[N] |==|  0.31873
USER: genes 10 Torsion [C]-N--CA-[C] |==|  0.69965
USER: genes 11 Torsion [N]-CA--C-[N] |==|  0.07547
USER: genes 12 Torsion [N]-CA--CB-[CG] |==|  0.85995
USER: genes 13 Torsion [CA]-CB--CG-[CD2] |==|  0.75975
ROOT
ATOM      1  CA  HIS C   2      11.270  21.005  31.453  1.00 10.06 LIG 0.18  C 
ENDROOT
BRANCH 1 2
ATOM      2  N   HIS C   2      12.006  21.972  30.639  1.00  9.48 LIG-0.35  N 
ATOM      3 H    HIS C   2      12.697  21.644  30.246  1.00  9.48 LIG 0.16  HD
ATOM      4  C   PHE C   1      11.631  23.239  30.524  1.00  9.37 LIG 0.24  C 
ATOM      5 O    PHE C   1      10.602  23.686  31.019  1.00 11.27 LIG-0.27  OA
BRANCH 4 6
ATOM      6  CA  PHE C   1      12.573  24.139  29.754  1.00  8.68 LIG 0.18  C 
BRANCH 6 7
ATOM      7  CB  PHE C   1      12.530  23.738  28.280  1.00  8.30 LIG 0.07  C 
BRANCH 7 8
ATOM      8  CG  PHE C   1      12.677  24.894  27.336  1.00  6.80 LIG-0.06  A 
ATOM      9  CD1 PHE C   1      13.476  25.981  27.663  1.00  6.68 LIG 0.01  A 
ATOM     10  CE1 PHE C   1      13.617  27.037  26.783  1.00  6.85 LIG 0.00  A 
ATOM     11  CZ  PHE C   1      12.952  27.027  25.577  1.00  6.56 LIG 0.00  A 
ATOM     12  CE2 PHE C   1      12.150  25.955  25.236  1.00  6.82 LIG 0.00  A 
ATOM     13  CD2 PHE C   1      12.019  24.892  26.115  1.00  7.43 LIG 0.01  A 
ENDBRANCH 7 8
ENDBRANCH 6 7
BRANCH 6 14
ATOM     14  N   PHE C   1      13.940  24.045  30.275  1.00  9.64 LIG-0.35  N 
ATOM     15 H    PHE C   1      14.325  23.289  30.130  1.00  9.64 LIG 0.16  HD
ATOM     16  C   ACE C   0      14.511  25.061  30.913  1.00 12.10 LIG 0.21  C 
ATOM     17  CH3 ACE C   0      15.888  24.811  31.457  1.00 13.09 LIG 0.12  C 
ATOM     18 O    ACE C   0      13.938  26.139  31.069  1.00 13.69 LIG-0.27  OA
ENDBRANCH 6 14
ENDBRANCH 4 6
ENDBRANCH 1 2
BRANCH 1 19
ATOM     19  C   HIS C   2      12.218  19.921  31.918  1.00  9.05 LIG 0.24  C 
ATOM     20  N   ALA C   3      13.511  20.127  31.707  1.00  9.24 LIG-0.35  N 
ATOM     21 H    ALA C   3      13.835  20.790  31.267  1.00  9.24 LIG 0.16  HD
ATOM     22 O    HIS C   2      11.795  18.928  32.497  1.00  8.29 LIG-0.27  OA
BRANCH 20 23
ATOM     23  CA  ALA C   3      14.501  19.194  32.238  1.00  8.91 LIG 0.17  C 
ATOM     24  CB  ALA C   3      14.206  18.871  33.693  1.00  9.99 LIG 0.04  C 
BRANCH 23 25
ATOM     25  C   ALA C   3      14.516  17.910  31.405  1.00  9.36 LIG 0.24  C 
ATOM     26  N   ALA C   4      15.632  17.662  30.730  1.00  9.08 LIG-0.35  N 
ATOM     27 H    ALA C   4      16.356  18.119  30.814  1.00  9.08 LIG 0.16  HD
ATOM     28 O    ALA C   3      13.540  17.147  31.395  1.00  9.90 LIG-0.27  OA
BRANCH 26 29
ATOM     29  CA  ALA C   4      15.719  16.566  29.766  1.00  9.70 LIG 0.18  C 
ATOM     30  CB  ALA C   4      16.245  17.077  28.444  1.00  9.53 LIG 0.04  C 
BRANCH 29 31
ATOM     31  C   ALA C   4      16.566  15.399  30.237  1.00 11.00 LIG 0.28  C 
ATOM     32  N   NH2 C   5      16.657  15.211  31.546  1.00 10.22 LIG-0.11  N 
ATOM     33 O    ALA C   4      17.151  14.706  29.417  1.00 13.70 LIG-0.27  OA
ENDBRANCH 29 31
ENDBRANCH 26 29
ENDBRANCH 23 25
ENDBRANCH 20 23
ENDBRANCH 1 19
BRANCH 1 34
ATOM     34  CB  HIS C   2      10.153  20.333  30.645  1.00 12.23 LIG 0.10  C 
BRANCH 34 35
ATOM     35  CG  HIS C   2       9.264  21.286  29.922  1.00 15.24 LIG 0.06  A 
ATOM     36 ND1  HIS C   2       9.481  21.654  28.612  1.00 17.16 LIG-0.24  NA
ATOM     37  CE1 HIS C   2       8.543  22.504  28.236  1.00 17.55 LIG 0.23  A 
ATOM     38 NE2  HIS C   2       7.725  22.700  29.254  1.00 18.01 LIG-0.25  NA
ATOM     39  CD2 HIS C   2       8.153  21.948  30.320  1.00 16.53 LIG 0.14  A 
ENDBRANCH 34 35
ENDBRANCH 1 34
TORSDOF 12
ENDMDL
MODEL 33
USER: ADFR SOLUTION from run 155
USER: SCORE 10.483049 LL:  -3.241 LR: -10.098 RR:   0.000 FEB:  -6.518
USER: RMSD 8.160723
USER: SEED 154
USER: STATUS no improvement in best in 32 clusters for 5 generations
USER: GENES 14
USER: genes 0 Translation |==|  0.32686 0.59342 0.42141
USER: genes 1 Rotation |==|  0.10427 0.54901 0.62941 0.77248
USER: genes 2 Torsion [CB]-CA--N-[C] |==|  0.20550
USER: genes 3 Torsion [N]-C--CA-[N] |==|  0.86211
USER: genes 4 Torsion [C]-CA--CB-[CG] |==|  0.09124
USER: genes 5 Torsion [CA]-CB--CG-[CD1] |==|  0.69949
USER: genes 6 Torsion [C]-CA--N-[C] |==|  0.20035
USER: genes 7 Torsion [N]-CA--C-[N] |==|  0.58839
USER: genes 8 Torsion [C]-N--CA-[CB] |==|  0.24674
USER: genes 9 Torsion [N]-CA--C-[N] |==|  0.55673
USER: genes 10 Torsion [C]-N--CA-[C] |==|  0.18102
USER: genes 11 Torsion [N]-CA--C-[N] |==|  0.15955
USER: genes 12 Torsion [N]-CA--CB-[CG] |==|  0.73802
USER: genes 13 Torsion [CA]-CB--CG-[CD2] |==|  0.80197
ROOT
ATOM      1  CA  HIS C   2       9.677  23.650  29.329  1.00 10.06 LIG 0.18  C 
ENDROOT
BRANCH 1 2
ATOM      2  N   HIS C   2      11.044  24.131  29.527  1.00  9.48 LIG-0.35  N 
ATOM      3 H    HIS C   2      11.623  23.505  29.637  1.00  9.48 LIG 0.16  HD
ATOM      4  C   PHE C   1      11.351  25.422  29.534  1.00  9.37 LIG 0.24  C 
ATOM      5 O    PHE C   1      10.539  26.310  29.296  1.00 11.27 LIG-0.27  OA
BRANCH 4 6
ATOM      6  CA  PHE C   1      12.785  25.757  29.884  1.00  8.68 LIG 0.18  C 
BRANCH 6 7
ATOM      7  CB  PHE C   1      13.677  25.360  28.709  1.00  8.30 LIG 0.07  C 
BRANCH 7 8
ATOM      8  CG  PHE C   1      13.015  25.511  27.371  1.00  6.80 LIG-0.06  A 
ATOM      9  CD1 PHE C   1      12.629  24.396  26.640  1.00  6.68 LIG 0.01  A 
ATOM     10  CE1 PHE C   1      12.008  24.544  25.414  1.00  6.85 LIG 0.00  A 
ATOM     11  CZ  PHE C   1      11.782  25.800  24.898  1.00  6.56 LIG 0.00  A 
ATOM     12  CE2 PHE C   1      12.164  26.922  25.611  1.00  6.82 LIG 0.00  A 
ATOM     13  CD2 PHE C   1      12.775  26.772  26.844  1.00  7.43 LIG 0.01  A 
ENDBRANCH 7 8
ENDBRANCH 6 7
BRANCH 6 14
ATOM     14  N   PHE C   1      13.206  25.069  31.108  1.00  9.64 LIG-0.35  N 
ATOM     15 H    PHE C   1      13.292  25.582  31.793  1.00  9.64 LIG 0.16  HD
ATOM     16  C   ACE C   0      13.431  23.760  31.126  1.00 12.10 LIG 0.21  C 
ATOM     17  CH3 ACE C   0      13.925  23.190  32.424  1.00 13.09 LIG 0.12  C 
ATOM     18 O    ACE C   0      13.264  23.055  30.130  1.00 13.69 LIG-0.27  OA
ENDBRANCH 6 14
ENDBRANCH 4 6
ENDBRANCH 1 2
BRANCH 1 19
ATOM     19  C   HIS C   2       9.610  22.180  29.684  1.00  9.05 LIG 0.24  C 
ATOM     20  N   ALA C   3       8.743  21.440  29.008  1.00  9.24 LIG-0.35  N 
ATOM     21 H    ALA C   3       8.174  21.749  28.442  1.00  9.24 LIG 0.16  HD
ATOM     22 O    HIS C   2      10.361  21.708  30.530  1.00  8.29 LIG-0.27  OA
BRANCH 20 23
ATOM     23  CA  ALA C   3       8.704  19.993  29.197  1.00  8.91 LIG 0.17  C 
ATOM     24  CB  ALA C   3       7.760  19.627  30.329  1.00  9.99 LIG 0.04  C 
BRANCH 23 25
ATOM     25  C   ALA C   3       8.265  19.304  27.902  1.00  9.36 LIG 0.24  C 
ATOM     26  N   ALA C   4       7.786  18.072  28.028  1.00  9.08 LIG-0.35  N 
ATOM     27 H    ALA C   4       7.622  17.695  28.783  1.00  9.08 LIG 0.16  HD
ATOM     28 O    ALA C   3       8.339  19.889  26.814  1.00  9.90 LIG-0.27  OA
BRANCH 26 29
ATOM     29  CA  ALA C   4       7.492  17.240  26.862  1.00  9.70 LIG 0.18  C 
ATOM     30  CB  ALA C   4       6.481  17.928  25.973  1.00  9.53 LIG 0.04  C 
BRANCH 29 31
ATOM     31  C   ALA C   4       8.718  16.867  26.048  1.00 11.00 LIG 0.28  C 
ATOM     32  N   NH2 C   5       9.690  16.227  26.683  1.00 10.22 LIG-0.11  N 
ATOM     33 O    ALA C   4       8.784  17.190  24.871  1.00 13.70 LIG-0.27  OA
ENDBRANCH 29 31
ENDBRANCH 26 29
ENDBRANCH 23 25
ENDBRANCH 20 23
ENDBRANCH 1 19
BRANCH 1 34
ATOM     34  CB  HIS C   2       9.242  23.796  27.865  1.00 12.23 LIG 0.10  C 
BRANCH 34 35
ATOM     35  CG  HIS C   2       8.501  25.056  27.571  1.00 15.24 LIG 0.06  A 
ATOM     36 ND1  HIS C   2       9.049  26.083  26.835  1.00 17.16 LIG-0.24  NA
ATOM     37  CE1 HIS C   2       8.172  27.066  26.735  1.00 17.55 LIG 0.23  A 
ATOM     38 NE2  HIS C   2       7.075  26.712  27.380  1.00 18.01 LIG-0.25  NA
ATOM     39  CD2 HIS C   2       7.255  25.458  27.910  1.00 16.53 LIG 0.14  A 
ENDBRANCH 34 35
ENDBRANCH 1 34
TORSDOF 12
ENDMDL
MODEL 34
USER: ADFR SOLUTION from run 5
USER: SCORE 11.104310 LL:  -2.425 LR: -10.102 RR:   0.000 FEB:  -6.523
USER: RMSD 8.530872
USER: SEED 385843
USER: STATUS no improvement in best in 23 clusters for 5 generations
USER: GENES 14
USER: genes 0 Translation |==|  0.44665 0.47949 0.49009
USER: genes 1 Rotation |==|  0.44848 0.08090 0.24475 0.58089
USER: genes 2 Torsion [CB]-CA--N-[C] |==|  0.20309
USER: genes 3 Torsion [N]-C--CA-[N] |==|  0.40816
USER: genes 4 Torsion [C]-CA--CB-[CG] |==|  0.47901
USER: genes 5 Torsion [CA]-CB--CG-[CD1] |==|  0.49493
USER: genes 6 Torsion [C]-CA--N-[C] |==|  0.81022
USER: genes 7 Torsion [N]-CA--C-[N] |==|  0.51528
USER: genes 8 Torsion [C]-N--CA-[CB] |==|  0.81667
USER: genes 9 Torsion [N]-CA--C-[N] |==|  0.20751
USER: genes 10 Torsion [C]-N--CA-[C] |==|  0.76229
USER: genes 11 Torsion [N]-CA--C-[N] |==|  0.01005
USER: genes 12 Torsion [N]-CA--CB-[CG] |==|  0.63136
USER: genes 13 Torsion [CA]-CB--CG-[CD2] |==|  0.51442
ROOT
ATOM      1  CA  HIS C   2      11.654  21.257  30.668  1.00 10.06 LIG 0.18  C 
ENDROOT
BRANCH 1 2
ATOM      2  N   HIS C   2      10.305  20.808  30.323  1.00  9.48 LIG-0.35  N 
ATOM      3 H    HIS C   2      10.077  20.068  30.695  1.00  9.48 LIG 0.16  HD
ATOM      4  C   PHE C   1       9.514  21.491  29.506  1.00  9.37 LIG 0.24  C 
ATOM      5 O    PHE C   1       9.809  22.587  29.040  1.00 11.27 LIG-0.27  OA
BRANCH 4 6
ATOM      6  CA  PHE C   1       8.203  20.825  29.147  1.00  8.68 LIG 0.18  C 
BRANCH 6 7
ATOM      7  CB  PHE C   1       8.409  20.005  27.874  1.00  8.30 LIG 0.07  C 
BRANCH 7 8
ATOM      8  CG  PHE C   1       7.231  19.150  27.510  1.00  6.80 LIG-0.06  A 
ATOM      9  CD1 PHE C   1       7.247  18.373  26.359  1.00  6.68 LIG 0.01  A 
ATOM     10  CE1 PHE C   1       6.164  17.578  26.036  1.00  6.85 LIG 0.00  A 
ATOM     11  CZ  PHE C   1       5.050  17.561  26.847  1.00  6.56 LIG 0.00  A 
ATOM     12  CE2 PHE C   1       5.016  18.331  27.995  1.00  6.82 LIG 0.00  A 
ATOM     13  CD2 PHE C   1       6.107  19.118  28.322  1.00  7.43 LIG 0.01  A 
ENDBRANCH 7 8
ENDBRANCH 6 7
BRANCH 6 14
ATOM     14  N   PHE C   1       7.140  21.815  28.956  1.00  9.64 LIG-0.35  N 
ATOM     15 H    PHE C   1       6.864  21.890  28.145  1.00  9.64 LIG 0.16  HD
ATOM     16  C   ACE C   0       6.661  22.524  29.973  1.00 12.10 LIG 0.21  C 
ATOM     17  CH3 ACE C   0       5.623  23.554  29.632  1.00 13.09 LIG 0.12  C 
ATOM     18 O    ACE C   0       7.059  22.362  31.127  1.00 13.69 LIG-0.27  OA
ENDBRANCH 6 14
ENDBRANCH 4 6
ENDBRANCH 1 2
BRANCH 1 19
ATOM     19  C   HIS C   2      12.389  20.134  31.366  1.00  9.05 LIG 0.24  C 
ATOM     20  N   ALA C   3      13.592  20.415  31.847  1.00  9.24 LIG-0.35  N 
ATOM     21 H    ALA C   3      14.005  21.159  31.727  1.00  9.24 LIG 0.16  HD
ATOM     22 O    HIS C   2      11.863  19.036  31.508  1.00  8.29 LIG-0.27  OA
BRANCH 20 23
ATOM     23  CA  ALA C   3      14.315  19.429  32.646  1.00  8.91 LIG 0.17  C 
ATOM     24  CB  ALA C   3      13.597  19.174  33.959  1.00  9.99 LIG 0.04  C 
BRANCH 23 25
ATOM     25  C   ALA C   3      14.462  18.122  31.863  1.00  9.36 LIG 0.24  C 
ATOM     26  N   ALA C   4      15.357  18.123  30.883  1.00  9.08 LIG-0.35  N 
ATOM     27 H    ALA C   4      15.909  18.767  30.738  1.00  9.08 LIG 0.16  HD
ATOM     28 O    ALA C   3      13.791  17.124  32.160  1.00  9.90 LIG-0.27  OA
BRANCH 26 29
ATOM     29  CA  ALA C   4      15.478  17.003  29.951  1.00  9.70 LIG 0.18  C 
ATOM     30  CB  ALA C   4      15.977  17.492  28.611  1.00  9.53 LIG 0.04  C 
BRANCH 29 31
ATOM     31  C   ALA C   4      16.369  15.881  30.450  1.00 11.00 LIG 0.28  C 
ATOM     32  N   NH2 C   5      16.865  16.005  31.674  1.00 10.22 LIG-0.11  N 
ATOM     33 O    ALA C   4      16.625  14.938  29.715  1.00 13.70 LIG-0.27  OA
ENDBRANCH 29 31
ENDBRANCH 26 29
ENDBRANCH 23 25
ENDBRANCH 20 23
ENDBRANCH 1 19
BRANCH 1 34
ATOM     34  CB  HIS C   2      11.614  22.455  31.625  1.00 12.23 LIG 0.10  C 
BRANCH 34 35
ATOM     35  CG  HIS C   2      12.513  23.579  31.235  1.00 15.24 LIG 0.06  A 
ATOM     36 ND1  HIS C   2      13.226  23.582  30.057  1.00 17.16 LIG-0.24  NA
ATOM     37  CE1 HIS C   2      13.933  24.696  29.977  1.00 17.55 LIG 0.23  A 
ATOM     38 NE2  HIS C   2      13.702  25.414  31.061  1.00 18.01 LIG-0.25  NA
ATOM     39  CD2 HIS C   2      12.816  24.738  31.863  1.00 16.53 LIG 0.14  A 
ENDBRANCH 34 35
ENDBRANCH 1 34
TORSDOF 12
ENDMDL
MODEL 35
USER: ADFR SOLUTION from run 77
USER: SCORE 11.576861 LL:  -2.625 LR: -10.091 RR:   0.000 FEB:  -6.511
USER: RMSD 3.171319
USER: SEED 76
USER: STATUS no improvement in best in 14 clusters for 5 generations
USER: GENES 14
USER: genes 0 Translation |==|  0.42212 0.45042 0.53955
USER: genes 1 Rotation |==|  0.69305 0.35006 0.44351 0.93250
USER: genes 2 Torsion [CB]-CA--N-[C] |==|  0.85556
USER: genes 3 Torsion [N]-C--CA-[N] |==|  0.88379
USER: genes 4 Torsion [C]-CA--CB-[CG] |==|  0.49229
USER: genes 5 Torsion [CA]-CB--CG-[CD1] |==|  0.43568
USER: genes 6 Torsion [C]-CA--N-[C] |==|  0.67381
USER: genes 7 Torsion [N]-CA--C-[N] |==|  0.47159
USER: genes 8 Torsion [C]-N--CA-[CB] |==|  0.85514
USER: genes 9 Torsion [N]-CA--C-[N] |==|  0.38921
USER: genes 10 Torsion [C]-N--CA-[C] |==|  0.82873
USER: genes 11 Torsion [N]-CA--C-[N] |==|  0.92092
USER: genes 12 Torsion [N]-CA--CB-[CG] |==|  0.89632
USER: genes 13 Torsion [CA]-CB--CG-[CD2] |==|  0.32372
ROOT
ATOM      1  CA  HIS C   2      11.249  20.647  31.632  1.00 10.06 LIG 0.18  C 
ENDROOT
BRANCH 1 2
ATOM      2  N   HIS C   2      12.187  19.548  31.404  1.00  9.48 LIG-0.35  N 
ATOM      3 H    HIS C   2      11.869  18.911  30.922  1.00  9.48 LIG 0.16  HD
ATOM      4  C   PHE C   1      13.416  19.545  31.902  1.00  9.37 LIG 0.24  C 
ATOM      5 O    PHE C   1      13.896  20.489  32.521  1.00 11.27 LIG-0.27  OA
BRANCH 4 6
ATOM      6  CA  PHE C   1      14.213  18.276  31.686  1.00  8.68 LIG 0.18  C 
BRANCH 6 7
ATOM      7  CB  PHE C   1      14.773  18.292  30.265  1.00  8.30 LIG 0.07  C 
BRANCH 7 8
ATOM      8  CG  PHE C   1      15.643  17.112  29.945  1.00  6.80 LIG-0.06  A 
ATOM      9  CD1 PHE C   1      15.838  16.709  28.631  1.00  6.68 LIG 0.01  A 
ATOM     10  CE1 PHE C   1      16.650  15.628  28.343  1.00  6.85 LIG 0.00  A 
ATOM     11  CZ  PHE C   1      17.261  14.930  29.361  1.00  6.56 LIG 0.00  A 
ATOM     12  CE2 PHE C   1      17.075  15.315  30.676  1.00  6.82 LIG 0.00  A 
ATOM     13  CD2 PHE C   1      16.270  16.405  30.961  1.00  7.43 LIG 0.01  A 
ENDBRANCH 7 8
ENDBRANCH 6 7
BRANCH 6 14
ATOM     14  N   PHE C   1      13.384  17.087  31.900  1.00  9.64 LIG-0.35  N 
ATOM     15 H    PHE C   1      12.722  17.012  31.357  1.00  9.64 LIG 0.16  HD
ATOM     16  C   ACE C   0      13.657  16.214  32.864  1.00 12.10 LIG 0.21  C 
ATOM     17  CH3 ACE C   0      12.691  15.077  33.022  1.00 13.09 LIG 0.12  C 
ATOM     18 O    ACE C   0      14.636  16.341  33.600  1.00 13.69 LIG-0.27  OA
ENDBRANCH 6 14
ENDBRANCH 4 6
ENDBRANCH 1 2
BRANCH 1 19
ATOM     19  C   HIS C   2      11.758  21.890  30.935  1.00  9.05 LIG 0.24  C 
ATOM     20  N   ALA C   3      10.927  22.920  30.865  1.00  9.24 LIG-0.35  N 
ATOM     21 H    ALA C   3      10.106  22.904  31.121  1.00  9.24 LIG 0.16  HD
ATOM     22 O    HIS C   2      12.903  21.937  30.499  1.00  8.29 LIG-0.27  OA
BRANCH 20 23
ATOM     23  CA  ALA C   3      11.381  24.198  30.325  1.00  8.91 LIG 0.17  C 
ATOM     24  CB  ALA C   3      12.653  24.650  31.020  1.00  9.99 LIG 0.04  C 
BRANCH 23 25
ATOM     25  C   ALA C   3      11.617  24.079  28.818  1.00  9.36 LIG 0.24  C 
ATOM     26  N   ALA C   4      11.233  25.116  28.081  1.00  9.08 LIG-0.35  N 
ATOM     27 H    ALA C   4      10.961  25.863  28.408  1.00  9.08 LIG 0.16  HD
ATOM     28 O    ALA C   3      12.159  23.076  28.336  1.00  9.90 LIG-0.27  OA
BRANCH 26 29
ATOM     29  CA  ALA C   4      11.243  25.065  26.620  1.00  9.70 LIG 0.18  C 
ATOM     30  CB  ALA C   4      10.637  26.326  26.051  1.00  9.53 LIG 0.04  C 
BRANCH 29 31
ATOM     31  C   ALA C   4      12.621  24.845  26.022  1.00 11.00 LIG 0.28  C 
ATOM     32  N   NH2 C   5      13.658  25.288  26.720  1.00 10.22 LIG-0.11  N 
ATOM     33 O    ALA C   4      12.728  24.311  24.927  1.00 13.70 LIG-0.27  OA
ENDBRANCH 29 31
ENDBRANCH 26 29
ENDBRANCH 23 25
ENDBRANCH 20 23
ENDBRANCH 1 19
BRANCH 1 34
ATOM     34  CB  HIS C   2      11.122  20.970  33.126  1.00 12.23 LIG 0.10  C 
BRANCH 34 35
ATOM     35  CG  HIS C   2      11.162  19.773  34.015  1.00 15.24 LIG 0.06  A 
ATOM     36 ND1  HIS C   2      10.204  18.785  33.972  1.00 17.16 LIG-0.24  NA
ATOM     37  CE1 HIS C   2      10.493  17.856  34.866  1.00 17.55 LIG 0.23  A 
ATOM     38 NE2  HIS C   2      11.605  18.207  35.486  1.00 18.01 LIG-0.25  NA
ATOM     39  CD2 HIS C   2      12.044  19.401  34.971  1.00 16.53 LIG 0.14  A 
ENDBRANCH 34 35
ENDBRANCH 1 34
TORSDOF 12
ENDMDL
MODEL 36
USER: ADFR SOLUTION from run 32
USER: SCORE 10.962263 LL:  -2.843 LR: -10.078 RR:   0.000 FEB:  -6.498
USER: RMSD 3.769052
USER: SEED 31
USER: STATUS no improvement in best in 25 clusters for 5 generations
USER: GENES 14
USER: genes 0 Translation |==|  0.45129 0.49877 0.46164
USER: genes 1 Rotation |==|  0.67956 0.24466 0.62884 0.86873
USER: genes 2 Torsion [CB]-CA--N-[C] |==|  0.20556
USER: genes 3 Torsion [N]-C--CA-[N] |==|  0.22741
USER: genes 4 Torsion [C]-CA--CB-[CG] |==|  0.28362
USER: genes 5 Torsion [CA]-CB--CG-[CD1] |==|  0.85256
USER: genes 6 Torsion [C]-CA--N-[C] |==|  0.63486
USER: genes 7 Torsion [N]-CA--C-[N] |==|  0.46827
USER: genes 8 Torsion [C]-N--CA-[CB] |==|  0.21660
USER: genes 9 Torsion [N]-CA--C-[N] |==|  0.12571
USER: genes 10 Torsion [C]-N--CA-[C] |==|  0.83101
USER: genes 11 Torsion [N]-CA--C-[N] |==|  0.41492
USER: genes 12 Torsion [N]-CA--CB-[CG] |==|  0.57692
USER: genes 13 Torsion [CA]-CB--CG-[CD2] |==|  0.61223
ROOT
ATOM      1  CA  HIS C   2      11.730  21.662  30.113  1.00 10.06 LIG 0.18  C 
ENDROOT
BRANCH 1 2
ATOM      2  N   HIS C   2      12.838  21.123  30.902  1.00  9.48 LIG-0.35  N 
ATOM      3 H    HIS C   2      13.477  21.683  31.036  1.00  9.48 LIG 0.16  HD
ATOM      4  C   PHE C   1      12.845  19.880  31.365  1.00  9.37 LIG 0.24  C 
ATOM      5 O    PHE C   1      11.899  19.110  31.242  1.00 11.27 LIG-0.27  OA
BRANCH 4 6
ATOM      6  CA  PHE C   1      14.121  19.438  32.047  1.00  8.68 LIG 0.18  C 
BRANCH 6 7
ATOM      7  CB  PHE C   1      14.204  17.914  31.979  1.00  8.30 LIG 0.07  C 
BRANCH 7 8
ATOM      8  CG  PHE C   1      15.143  17.407  30.924  1.00  6.80 LIG-0.06  A 
ATOM      9  CD1 PHE C   1      15.028  17.832  29.608  1.00  6.68 LIG 0.01  A 
ATOM     10  CE1 PHE C   1      15.905  17.370  28.644  1.00  6.85 LIG 0.00  A 
ATOM     11  CZ  PHE C   1      16.893  16.471  28.979  1.00  6.56 LIG 0.00  A 
ATOM     12  CE2 PHE C   1      17.020  16.035  30.285  1.00  6.82 LIG 0.00  A 
ATOM     13  CD2 PHE C   1      16.147  16.507  31.251  1.00  7.43 LIG 0.01  A 
ENDBRANCH 7 8
ENDBRANCH 6 7
BRANCH 6 14
ATOM     14  N   PHE C   1      14.163  19.895  33.439  1.00  9.64 LIG-0.35  N 
ATOM     15 H    PHE C   1      13.447  19.736  33.888  1.00  9.64 LIG 0.16  HD
ATOM     16  C   ACE C   0      15.234  20.502  33.938  1.00 12.10 LIG 0.21  C 
ATOM     17  CH3 ACE C   0      15.123  20.982  35.356  1.00 13.09 LIG 0.12  C 
ATOM     18 O    ACE C   0      16.254  20.680  33.271  1.00 13.69 LIG-0.27  OA
ENDBRANCH 6 14
ENDBRANCH 4 6
ENDBRANCH 1 2
BRANCH 1 19
ATOM     19  C   HIS C   2      12.158  22.970  29.482  1.00  9.05 LIG 0.24  C 
ATOM     20  N   ALA C   3      11.360  23.473  28.551  1.00  9.24 LIG-0.35  N 
ATOM     21 H    ALA C   3      10.666  23.076  28.235  1.00  9.24 LIG 0.16  HD
ATOM     22 O    HIS C   2      13.174  23.541  29.858  1.00  8.29 LIG-0.27  OA
BRANCH 20 23
ATOM     23  CA  ALA C   3      11.630  24.791  27.983  1.00  8.91 LIG 0.17  C 
ATOM     24  CB  ALA C   3      12.751  24.714  26.961  1.00  9.99 LIG 0.04  C 
BRANCH 23 25
ATOM     25  C   ALA C   3      10.364  25.355  27.334  1.00  9.36 LIG 0.24  C 
ATOM     26  N   ALA C   4       9.243  25.238  28.037  1.00  9.08 LIG-0.35  N 
ATOM     27 H    ALA C   4       9.214  24.962  28.851  1.00  9.08 LIG 0.16  HD
ATOM     28 O    ALA C   3      10.408  25.906  26.226  1.00  9.90 LIG-0.27  OA
BRANCH 26 29
ATOM     29  CA  ALA C   4       7.940  25.577  27.467  1.00  9.70 LIG 0.18  C 
ATOM     30  CB  ALA C   4       6.840  25.243  28.449  1.00  9.53 LIG 0.04  C 
BRANCH 29 31
ATOM     31  C   ALA C   4       7.817  27.027  27.035  1.00 11.00 LIG 0.28  C 
ATOM     32  N   NH2 C   5       7.015  27.283  26.011  1.00 10.22 LIG-0.11  N 
ATOM     33 O    ALA C   4       8.470  27.887  27.608  1.00 13.70 LIG-0.27  OA
ENDBRANCH 29 31
ENDBRANCH 26 29
ENDBRANCH 23 25
ENDBRANCH 20 23
ENDBRANCH 1 19
BRANCH 1 34
ATOM     34  CB  HIS C   2      10.507  21.947  30.992  1.00 12.23 LIG 0.10  C 
BRANCH 34 35
ATOM     35  CG  HIS C   2       9.204  21.863  30.272  1.00 15.24 LIG 0.06  A 
ATOM     36 ND1  HIS C   2       8.935  20.887  29.339  1.00 17.16 LIG-0.24  NA
ATOM     37  CE1 HIS C   2       7.713  21.058  28.867  1.00 17.55 LIG 0.23  A 
ATOM     38 NE2  HIS C   2       7.180  22.111  29.461  1.00 18.01 LIG-0.25  NA
ATOM     39  CD2 HIS C   2       8.092  22.631  30.346  1.00 16.53 LIG 0.14  A 
ENDBRANCH 34 35
ENDBRANCH 1 34
TORSDOF 12
ENDMDL
MODEL 37
USER: ADFR SOLUTION from run 145
USER: SCORE 11.640929 LL:  -2.917 LR: -10.076 RR:   0.000 FEB:  -6.496
USER: RMSD 9.791571
USER: SEED 144
USER: STATUS no improvement in best in 14 clusters for 5 generations
USER: GENES 14
USER: genes 0 Translation |==|  0.65409 0.24910 0.63766
USER: genes 1 Rotation |==|  0.02684 0.46858 0.43285 0.64362
USER: genes 2 Torsion [CB]-CA--N-[C] |==|  0.24998
USER: genes 3 Torsion [N]-C--CA-[N] |==|  0.95738
USER: genes 4 Torsion [C]-CA--CB-[CG] |==|  0.30910
USER: genes 5 Torsion [CA]-CB--CG-[CD1] |==|  0.89116
USER: genes 6 Torsion [C]-CA--N-[C] |==|  0.74873
USER: genes 7 Torsion [N]-CA--C-[N] |==|  0.99849
USER: genes 8 Torsion [C]-N--CA-[CB] |==|  0.51493
USER: genes 9 Torsion [N]-CA--C-[N] |==|  0.38533
USER: genes 10 Torsion [C]-N--CA-[C] |==|  0.14254
USER: genes 11 Torsion [N]-CA--C-[N] |==|  0.11931
USER: genes 12 Torsion [N]-CA--CB-[CG] |==|  0.73422
USER: genes 13 Torsion [CA]-CB--CG-[CD2] |==|  0.95208
ROOT
ATOM      1  CA  HIS C   2      15.077  16.419  33.545  1.00 10.06 LIG 0.18  C 
ENDROOT
BRANCH 1 2
ATOM      2  N   HIS C   2      15.952  17.232  34.389  1.00  9.48 LIG-0.35  N 
ATOM      3 H    HIS C   2      16.276  16.810  35.065  1.00  9.48 LIG 0.16  HD
ATOM      4  C   PHE C   1      16.215  18.505  34.126  1.00  9.37 LIG 0.24  C 
ATOM      5 O    PHE C   1      15.818  19.082  33.119  1.00 11.27 LIG-0.27  OA
BRANCH 4 6
ATOM      6  CA  PHE C   1      17.031  19.239  35.168  1.00  8.68 LIG 0.18  C 
BRANCH 6 7
ATOM      7  CB  PHE C   1      18.444  19.441  34.624  1.00  8.30 LIG 0.07  C 
BRANCH 7 8
ATOM      8  CG  PHE C   1      18.775  20.873  34.321  1.00  6.80 LIG-0.06  A 
ATOM      9  CD1 PHE C   1      17.829  21.715  33.752  1.00  6.68 LIG 0.01  A 
ATOM     10  CE1 PHE C   1      18.137  23.036  33.486  1.00  6.85 LIG 0.00  A 
ATOM     11  CZ  PHE C   1      19.393  23.525  33.770  1.00  6.56 LIG 0.00  A 
ATOM     12  CE2 PHE C   1      20.348  22.700  34.333  1.00  6.82 LIG 0.00  A 
ATOM     13  CD2 PHE C   1      20.034  21.380  34.609  1.00  7.43 LIG 0.01  A 
ENDBRANCH 7 8
ENDBRANCH 6 7
BRANCH 6 14
ATOM     14  N   PHE C   1      17.065  18.499  36.433  1.00  9.64 LIG-0.35  N 
ATOM     15 H    PHE C   1      17.714  17.938  36.499  1.00  9.64 LIG 0.16  HD
ATOM     16  C   ACE C   0      16.156  18.700  37.380  1.00 12.10 LIG 0.21  C 
ATOM     17  CH3 ACE C   0      16.264  17.828  38.598  1.00 13.09 LIG 0.12  C 
ATOM     18 O    ACE C   0      15.262  19.539  37.260  1.00 13.69 LIG-0.27  OA
ENDBRANCH 6 14
ENDBRANCH 4 6
ENDBRANCH 1 2
BRANCH 1 19
ATOM     19  C   HIS C   2      14.419  15.350  34.392  1.00  9.05 LIG 0.24  C 
ATOM     20  N   ALA C   3      14.740  15.326  35.678  1.00  9.24 LIG-0.35  N 
ATOM     21 H    ALA C   3      15.340  15.822  36.042  1.00  9.24 LIG 0.16  HD
ATOM     22 O    HIS C   2      13.601  14.581  33.902  1.00  8.29 LIG-0.27  OA
BRANCH 20 23
ATOM     23  CA  ALA C   3      14.057  14.413  36.591  1.00  8.91 LIG 0.17  C 
ATOM     24  CB  ALA C   3      14.498  14.660  38.023  1.00  9.99 LIG 0.04  C 
BRANCH 23 25
ATOM     25  C   ALA C   3      12.541  14.583  36.470  1.00  9.36 LIG 0.24  C 
ATOM     26  N   ALA C   4      11.823  13.466  36.483  1.00  9.08 LIG-0.35  N 
ATOM     27 H    ALA C   4      12.149  12.688  36.652  1.00  9.08 LIG 0.16  HD
ATOM     28 O    ALA C   3      12.031  15.709  36.390  1.00  9.90 LIG-0.27  OA
BRANCH 26 29
ATOM     29  CA  ALA C   4      10.387  13.472  36.206  1.00  9.70 LIG 0.18  C 
ATOM     30  CB  ALA C   4       9.635  14.079  37.368  1.00  9.53 LIG 0.04  C 
BRANCH 29 31
ATOM     31  C   ALA C   4      10.012  14.191  34.923  1.00 11.00 LIG 0.28  C 
ATOM     32  N   NH2 C   5      10.773  13.965  33.861  1.00 10.22 LIG-0.11  N 
ATOM     33 O    ALA C   4       9.065  14.964  34.917  1.00 13.70 LIG-0.27  OA
ENDBRANCH 29 31
ENDBRANCH 26 29
ENDBRANCH 23 25
ENDBRANCH 20 23
ENDBRANCH 1 19
BRANCH 1 34
ATOM     34  CB  HIS C   2      15.869  15.714  32.437  1.00 12.23 LIG 0.10  C 
BRANCH 34 35
ATOM     35  CG  HIS C   2      15.872  16.439  31.134  1.00 15.24 LIG 0.06  A 
ATOM     36 ND1  HIS C   2      16.784  16.167  30.138  1.00 17.16 LIG-0.24  NA
ATOM     37  CE1 HIS C   2      16.551  16.957  29.105  1.00 17.55 LIG 0.23  A 
ATOM     38 NE2  HIS C   2      15.521  17.731  29.396  1.00 18.01 LIG-0.25  NA
ATOM     39  CD2 HIS C   2      15.077  17.425  30.659  1.00 16.53 LIG 0.14  A 
ENDBRANCH 34 35
ENDBRANCH 1 34
TORSDOF 12
ENDMDL
MODEL 38
USER: ADFR SOLUTION from run 138
USER: SCORE 10.434564 LL:  -2.587 LR: -10.078 RR:   0.000 FEB:  -6.498
USER: RMSD 9.109107
USER: SEED 137
USER: STATUS no improvement in best in 14 clusters for 5 generations
USER: GENES 14
USER: genes 0 Translation |==|  0.40071 0.52591 0.43652
USER: genes 1 Rotation |==|  0.74562 0.78233 0.73751 0.73141
USER: genes 2 Torsion [CB]-CA--N-[C] |==|  0.82222
USER: genes 3 Torsion [N]-C--CA-[N] |==|  0.00830
USER: genes 4 Torsion [C]-CA--CB-[CG] |==|  0.43463
USER: genes 5 Torsion [CA]-CB--CG-[CD1] |==|  0.47269
USER: genes 6 Torsion [C]-CA--N-[C] |==|  0.72255
USER: genes 7 Torsion [N]-CA--C-[N] |==|  0.18128
USER: genes 8 Torsion [C]-N--CA-[CB] |==|  0.28369
USER: genes 9 Torsion [N]-CA--C-[N] |==|  0.84425
USER: genes 10 Torsion [C]-N--CA-[C] |==|  0.67424
USER: genes 11 Torsion [N]-CA--C-[N] |==|  0.39120
USER: genes 12 Torsion [N]-CA--CB-[CG] |==|  0.58034
USER: genes 13 Torsion [CA]-CB--CG-[CD2] |==|  0.52868
ROOT
ATOM      1  CA  HIS C   2      10.896  22.232  29.623  1.00 10.06 LIG 0.18  C 
ENDROOT
BRANCH 1 2
ATOM      2  N   HIS C   2      10.660  23.277  28.627  1.00  9.48 LIG-0.35  N 
ATOM      3 H    HIS C   2      11.049  23.136  27.874  1.00  9.48 LIG 0.16  HD
ATOM      4  C   PHE C   1       9.911  24.343  28.876  1.00  9.37 LIG 0.24  C 
ATOM      5 O    PHE C   1       9.291  24.503  29.923  1.00 11.27 LIG-0.27  OA
BRANCH 4 6
ATOM      6  CA  PHE C   1       9.876  25.394  27.788  1.00  8.68 LIG 0.18  C 
BRANCH 6 7
ATOM      7  CB  PHE C   1       8.418  25.649  27.407  1.00  8.30 LIG 0.07  C 
BRANCH 7 8
ATOM      8  CG  PHE C   1       8.183  26.995  26.788  1.00  6.80 LIG-0.06  A 
ATOM      9  CD1 PHE C   1       6.962  27.304  26.203  1.00  6.68 LIG 0.01  A 
ATOM     10  CE1 PHE C   1       6.748  28.550  25.645  1.00  6.85 LIG 0.00  A 
ATOM     11  CZ  PHE C   1       7.751  29.493  25.650  1.00  6.56 LIG 0.00  A 
ATOM     12  CE2 PHE C   1       8.974  29.201  26.224  1.00  6.82 LIG 0.00  A 
ATOM     13  CD2 PHE C   1       9.183  27.956  26.793  1.00  7.43 LIG 0.01  A 
ENDBRANCH 7 8
ENDBRANCH 6 7
BRANCH 6 14
ATOM     14  N   PHE C   1      10.649  24.970  26.617  1.00  9.64 LIG-0.35  N 
ATOM     15 H    PHE C   1      10.236  24.423  26.097  1.00  9.64 LIG 0.16  HD
ATOM     16  C   ACE C   0      11.883  25.412  26.403  1.00 12.10 LIG 0.21  C 
ATOM     17  CH3 ACE C   0      12.590  24.848  25.204  1.00 13.09 LIG 0.12  C 
ATOM     18 O    ACE C   0      12.426  26.223  27.153  1.00 13.69 LIG-0.27  OA
ENDBRANCH 6 14
ENDBRANCH 4 6
ENDBRANCH 1 2
BRANCH 1 19
ATOM     19  C   HIS C   2       9.565  21.712  30.124  1.00  9.05 LIG 0.24  C 
ATOM     20  N   ALA C   3       8.801  21.080  29.244  1.00  9.24 LIG-0.35  N 
ATOM     21 H    ALA C   3       8.975  21.012  28.405  1.00  9.24 LIG 0.16  HD
ATOM     22 O    HIS C   2       9.247  21.841  31.300  1.00  8.29 LIG-0.27  OA
BRANCH 20 23
ATOM     23  CA  ALA C   3       7.563  20.436  29.673  1.00  8.91 LIG 0.17  C 
ATOM     24  CB  ALA C   3       6.361  21.291  29.307  1.00  9.99 LIG 0.04  C 
BRANCH 23 25
ATOM     25  C   ALA C   3       7.439  19.052  29.030  1.00  9.36 LIG 0.24  C 
ATOM     26  N   ALA C   4       7.499  19.015  27.704  1.00  9.08 LIG-0.35  N 
ATOM     27 H    ALA C   4       7.697  19.692  27.213  1.00  9.08 LIG 0.16  HD
ATOM     28 O    ALA C   3       7.315  18.036  29.727  1.00  9.90 LIG-0.27  OA
BRANCH 26 29
ATOM     29  CA  ALA C   4       7.225  17.787  26.958  1.00  9.70 LIG 0.18  C 
ATOM     30  CB  ALA C   4       6.042  17.991  26.038  1.00  9.53 LIG 0.04  C 
BRANCH 29 31
ATOM     31  C   ALA C   4       8.410  17.275  26.161  1.00 11.00 LIG 0.28  C 
ATOM     32  N   NH2 C   5       8.595  15.963  26.133  1.00 10.22 LIG-0.11  N 
ATOM     33 O    ALA C   4       9.159  18.070  25.611  1.00 13.70 LIG-0.27  OA
ENDBRANCH 29 31
ENDBRANCH 26 29
ENDBRANCH 23 25
ENDBRANCH 20 23
ENDBRANCH 1 19
BRANCH 1 34
ATOM     34  CB  HIS C   2      11.668  22.777  30.831  1.00 12.23 LIG 0.10  C 
BRANCH 34 35
ATOM     35  CG  HIS C   2      12.516  21.764  31.522  1.00 15.24 LIG 0.06  A 
ATOM     36 ND1  HIS C   2      12.759  20.517  30.992  1.00 17.16 LIG-0.24  NA
ATOM     37  CE1 HIS C   2      13.536  19.836  31.816  1.00 17.55 LIG 0.23  A 
ATOM     38 NE2  HIS C   2      13.805  20.599  32.861  1.00 18.01 LIG-0.25  NA
ATOM     39  CD2 HIS C   2      13.180  21.810  32.700  1.00 16.53 LIG 0.14  A 
ENDBRANCH 34 35
ENDBRANCH 1 34
TORSDOF 12
ENDMDL
MODEL 39
USER: ADFR SOLUTION from run 82
USER: SCORE 12.175746 LL:  -3.487 LR: -10.070 RR:   0.000 FEB:  -6.490
USER: RMSD 6.480976
USER: SEED 81
USER: STATUS no improvement in best in 13 clusters for 5 generations
USER: GENES 14
USER: genes 0 Translation |==|  0.30258 0.65593 0.33177
USER: genes 1 Rotation |==|  0.57031 0.24534 0.38192 0.90775
USER: genes 2 Torsion [CB]-CA--N-[C] |==|  0.20436
USER: genes 3 Torsion [N]-C--CA-[N] |==|  0.22756
USER: genes 4 Torsion [C]-CA--CB-[CG] |==|  0.35180
USER: genes 5 Torsion [CA]-CB--CG-[CD1] |==|  0.52974
USER: genes 6 Torsion [C]-CA--N-[C] |==|  0.79868
USER: genes 7 Torsion [N]-CA--C-[N] |==|  0.99179
USER: genes 8 Torsion [C]-N--CA-[CB] |==|  0.82174
USER: genes 9 Torsion [N]-CA--C-[N] |==|  0.18188
USER: genes 10 Torsion [C]-N--CA-[C] |==|  0.77052
USER: genes 11 Torsion [N]-CA--C-[N] |==|  0.42364
USER: genes 12 Torsion [N]-CA--CB-[CG] |==|  0.10167
USER: genes 13 Torsion [CA]-CB--CG-[CD2] |==|  0.67413
ROOT
ATOM      1  CA  HIS C   2       9.277  24.963  27.580  1.00 10.06 LIG 0.18  C 
ENDROOT
BRANCH 1 2
ATOM      2  N   HIS C   2       9.486  23.570  27.977  1.00  9.48 LIG-0.35  N 
ATOM      3 H    HIS C   2      10.288  23.287  27.852  1.00  9.48 LIG 0.16  HD
ATOM      4  C   PHE C   1       8.516  22.820  28.484  1.00  9.37 LIG 0.24  C 
ATOM      5 O    PHE C   1       7.395  23.248  28.737  1.00 11.27 LIG-0.27  OA
BRANCH 4 6
ATOM      6  CA  PHE C   1       8.861  21.365  28.717  1.00  8.68 LIG 0.18  C 
BRANCH 6 7
ATOM      7  CB  PHE C   1       7.567  20.554  28.715  1.00  8.30 LIG 0.07  C 
BRANCH 7 8
ATOM      8  CG  PHE C   1       7.581  19.396  27.761  1.00  6.80 LIG-0.06  A 
ATOM      9  CD1 PHE C   1       6.416  18.696  27.476  1.00  6.68 LIG 0.01  A 
ATOM     10  CE1 PHE C   1       6.435  17.639  26.587  1.00  6.85 LIG 0.00  A 
ATOM     11  CZ  PHE C   1       7.614  17.259  25.986  1.00  6.56 LIG 0.00  A 
ATOM     12  CE2 PHE C   1       8.784  17.942  26.261  1.00  6.82 LIG 0.00  A 
ATOM     13  CD2 PHE C   1       8.762  19.009  27.144  1.00  7.43 LIG 0.01  A 
ENDBRANCH 7 8
ENDBRANCH 6 7
BRANCH 6 14
ATOM     14  N   PHE C   1       9.580  21.187  29.982  1.00  9.64 LIG-0.35  N 
ATOM     15 H    PHE C   1       9.118  20.815  30.605  1.00  9.64 LIG 0.16  HD
ATOM     16  C   ACE C   0      10.841  21.579  30.125  1.00 12.10 LIG 0.21  C 
ATOM     17  CH3 ACE C   0      11.439  21.402  31.491  1.00 13.09 LIG 0.12  C 
ATOM     18 O    ACE C   0      11.480  22.076  29.197  1.00 13.69 LIG-0.27  OA
ENDBRANCH 6 14
ENDBRANCH 4 6
ENDBRANCH 1 2
BRANCH 1 19
ATOM     19  C   HIS C   2      10.466  25.435  26.773  1.00  9.05 LIG 0.24  C 
ATOM     20  N   ALA C   3      11.466  24.577  26.624  1.00  9.24 LIG-0.35  N 
ATOM     21 H    ALA C   3      11.515  23.810  27.011  1.00  9.24 LIG 0.16  HD
ATOM     22 O    HIS C   2      10.468  26.544  26.253  1.00  8.29 LIG-0.27  OA
BRANCH 20 23
ATOM     23  CA  ALA C   3      12.594  24.903  25.755  1.00  8.91 LIG 0.17  C 
ATOM     24  CB  ALA C   3      12.136  25.029  24.312  1.00  9.99 LIG 0.04  C 
BRANCH 23 25
ATOM     25  C   ALA C   3      13.254  26.204  26.214  1.00  9.36 LIG 0.24  C 
ATOM     26  N   ALA C   4      13.841  26.175  27.405  1.00  9.08 LIG-0.35  N 
ATOM     27 H    ALA C   4      13.951  25.459  27.869  1.00  9.08 LIG 0.16  HD
ATOM     28 O    ALA C   3      13.252  27.209  25.490  1.00  9.90 LIG-0.27  OA
BRANCH 26 29
ATOM     29  CA  ALA C   4      14.359  27.388  28.036  1.00  9.70 LIG 0.18  C 
ATOM     30  CB  ALA C   4      14.368  27.230  29.539  1.00  9.53 LIG 0.04  C 
BRANCH 29 31
ATOM     31  C   ALA C   4      15.741  27.789  27.556  1.00 11.00 LIG 0.28  C 
ATOM     32  N   NH2 C   5      16.048  29.078  27.612  1.00 10.22 LIG-0.11  N 
ATOM     33 O    ALA C   4      16.498  26.938  27.111  1.00 13.70 LIG-0.27  OA
ENDBRANCH 29 31
ENDBRANCH 26 29
ENDBRANCH 23 25
ENDBRANCH 20 23
ENDBRANCH 1 19
BRANCH 1 34
ATOM     34  CB  HIS C   2       9.152  25.878  28.805  1.00 12.23 LIG 0.10  C 
BRANCH 34 35
ATOM     35  CG  HIS C   2      10.037  25.499  29.943  1.00 15.24 LIG 0.06  A 
ATOM     36 ND1  HIS C   2      11.411  25.509  29.849  1.00 17.16 LIG-0.24  NA
ATOM     37  CE1 HIS C   2      11.931  25.130  31.002  1.00 17.55 LIG 0.23  A 
ATOM     38 NE2  HIS C   2      10.943  24.875  31.841  1.00 18.01 LIG-0.25  NA
ATOM     39  CD2 HIS C   2       9.749  25.100  31.203  1.00 16.53 LIG 0.14  A 
ENDBRANCH 34 35
ENDBRANCH 1 34
TORSDOF 12
ENDMDL
MODEL 40
USER: ADFR SOLUTION from run 142
USER: SCORE 11.317525 LL:  -2.909 LR: -10.062 RR:   0.000 FEB:  -6.482
USER: RMSD 8.738417
USER: SEED 141
USER: STATUS no improvement in best in 41 clusters for 5 generations
USER: GENES 14
USER: genes 0 Translation |==|  0.49352 0.57672 0.43898
USER: genes 1 Rotation |==|  0.61261 0.91486 0.73292 0.60467
USER: genes 2 Torsion [CB]-CA--N-[C] |==|  0.88333
USER: genes 3 Torsion [N]-C--CA-[N] |==|  0.36998
USER: genes 4 Torsion [C]-CA--CB-[CG] |==|  0.20671
USER: genes 5 Torsion [CA]-CB--CG-[CD1] |==|  0.54294
USER: genes 6 Torsion [C]-CA--N-[C] |==|  0.84444
USER: genes 7 Torsion [N]-CA--C-[N] |==|  0.36275
USER: genes 8 Torsion [C]-N--CA-[CB] |==|  0.17184
USER: genes 9 Torsion [N]-CA--C-[N] |==|  0.84492
USER: genes 10 Torsion [C]-N--CA-[C] |==|  0.54312
USER: genes 11 Torsion [N]-CA--C-[N] |==|  0.42905
USER: genes 12 Torsion [N]-CA--CB-[CG] |==|  0.76133
USER: genes 13 Torsion [CA]-CB--CG-[CD2] |==|  0.62961
ROOT
ATOM      1  CA  HIS C   2      12.427  23.299  29.671  1.00 10.06 LIG 0.18  C 
ENDROOT
BRANCH 1 2
ATOM      2  N   HIS C   2      11.338  23.476  28.711  1.00  9.48 LIG-0.35  N 
ATOM      3 H    HIS C   2      11.481  23.107  27.948  1.00  9.48 LIG 0.16  HD
ATOM      4  C   PHE C   1      10.232  24.148  29.004  1.00  9.37 LIG 0.24  C 
ATOM      5 O    PHE C   1       9.994  24.604  30.117  1.00 11.27 LIG-0.27  OA
BRANCH 4 6
ATOM      6  CA  PHE C   1       9.262  24.353  27.860  1.00  8.68 LIG 0.18  C 
BRANCH 6 7
ATOM      7  CB  PHE C   1       9.364  25.803  27.392  1.00  8.30 LIG 0.07  C 
BRANCH 7 8
ATOM      8  CG  PHE C   1      10.605  26.098  26.602  1.00  6.80 LIG-0.06  A 
ATOM      9  CD1 PHE C   1      11.010  27.407  26.378  1.00  6.68 LIG 0.01  A 
ATOM     10  CE1 PHE C   1      12.161  27.670  25.660  1.00  6.85 LIG 0.00  A 
ATOM     11  CZ  PHE C   1      12.909  26.635  25.146  1.00  6.56 LIG 0.00  A 
ATOM     12  CE2 PHE C   1      12.518  25.325  25.356  1.00  6.82 LIG 0.00  A 
ATOM     13  CD2 PHE C   1      11.371  25.063  26.085  1.00  7.43 LIG 0.01  A 
ENDBRANCH 7 8
ENDBRANCH 6 7
BRANCH 6 14
ATOM     14  N   PHE C   1       7.890  24.036  28.266  1.00  9.64 LIG-0.35  N 
ATOM     15 H    PHE C   1       7.327  24.675  28.147  1.00  9.64 LIG 0.16  HD
ATOM     16  C   ACE C   0       7.572  22.849  28.772  1.00 12.10 LIG 0.21  C 
ATOM     17  CH3 ACE C   0       6.147  22.677  29.211  1.00 13.09 LIG 0.12  C 
ATOM     18 O    ACE C   0       8.401  21.947  28.893  1.00 13.69 LIG-0.27  OA
ENDBRANCH 6 14
ENDBRANCH 4 6
ENDBRANCH 1 2
BRANCH 1 19
ATOM     19  C   HIS C   2      12.038  22.237  30.677  1.00  9.05 LIG 0.24  C 
ATOM     20  N   ALA C   3      12.922  21.276  30.903  1.00  9.24 LIG-0.35  N 
ATOM     21 H    ALA C   3      13.659  21.177  30.471  1.00  9.24 LIG 0.16  HD
ATOM     22 O    HIS C   2      10.970  22.303  31.273  1.00  8.29 LIG-0.27  OA
BRANCH 20 23
ATOM     23  CA  ALA C   3      12.682  20.285  31.949  1.00  8.91 LIG 0.17  C 
ATOM     24  CB  ALA C   3      11.426  19.485  31.650  1.00  9.99 LIG 0.04  C 
BRANCH 23 25
ATOM     25  C   ALA C   3      13.886  19.349  32.074  1.00  9.36 LIG 0.24  C 
ATOM     26  N   ALA C   4      14.255  18.718  30.965  1.00  9.08 LIG-0.35  N 
ATOM     27 H    ALA C   4      13.926  18.881  30.188  1.00  9.08 LIG 0.16  HD
ATOM     28 O    ALA C   3      14.483  19.219  33.151  1.00  9.90 LIG-0.27  OA
BRANCH 26 29
ATOM     29  CA  ALA C   4      15.275  17.670  30.981  1.00  9.70 LIG 0.18  C 
ATOM     30  CB  ALA C   4      14.729  16.421  31.634  1.00  9.53 LIG 0.04  C 
BRANCH 29 31
ATOM     31  C   ALA C   4      15.828  17.330  29.609  1.00 11.00 LIG 0.28  C 
ATOM     32  N   NH2 C   5      17.051  16.819  29.562  1.00 10.22 LIG-0.11  N 
ATOM     33 O    ALA C   4      15.159  17.563  28.612  1.00 13.70 LIG-0.27  OA
ENDBRANCH 29 31
ENDBRANCH 26 29
ENDBRANCH 23 25
ENDBRANCH 20 23
ENDBRANCH 1 19
BRANCH 1 34
ATOM     34  CB  HIS C   2      12.703  24.594  30.445  1.00 12.23 LIG 0.10  C 
BRANCH 34 35
ATOM     35  CG  HIS C   2      13.639  25.529  29.756  1.00 15.24 LIG 0.06  A 
ATOM     36 ND1  HIS C   2      13.516  25.852  28.423  1.00 17.16 LIG-0.24  NA
ATOM     37  CE1 HIS C   2      14.476  26.695  28.087  1.00 17.55 LIG 0.23  A 
ATOM     38 NE2  HIS C   2      15.217  26.930  29.155  1.00 18.01 LIG-0.25  NA
ATOM     39  CD2 HIS C   2      14.713  26.214  30.212  1.00 16.53 LIG 0.14  A 
ENDBRANCH 34 35
ENDBRANCH 1 34
TORSDOF 12
ENDMDL
MODEL 41
USER: ADFR SOLUTION from run 193
USER: SCORE 11.555158 LL:  -2.610 LR: -10.059 RR:   0.000 FEB:  -6.479
USER: RMSD 4.878739
USER: SEED 192
USER: STATUS no improvement in best in 8 clusters for 5 generations
USER: GENES 14
USER: genes 0 Translation |==|  0.31531 0.45906 0.43310
USER: genes 1 Rotation |==|  0.79457 0.36039 0.73427 0.79809
USER: genes 2 Torsion [CB]-CA--N-[C] |==|  0.12793
USER: genes 3 Torsion [N]-C--CA-[N] |==|  0.12362
USER: genes 4 Torsion [C]-CA--CB-[CG] |==|  0.24965
USER: genes 5 Torsion [CA]-CB--CG-[CD1] |==|  0.98181
USER: genes 6 Torsion [C]-CA--N-[C] |==|  0.76813
USER: genes 7 Torsion [N]-CA--C-[N] |==|  0.12167
USER: genes 8 Torsion [C]-N--CA-[CB] |==|  0.12847
USER: genes 9 Torsion [N]-CA--C-[N] |==|  0.09138
USER: genes 10 Torsion [C]-N--CA-[C] |==|  0.70829
USER: genes 11 Torsion [N]-CA--C-[N] |==|  0.42837
USER: genes 12 Torsion [N]-CA--CB-[CG] |==|  0.59122
USER: genes 13 Torsion [CA]-CB--CG-[CD2] |==|  0.50191
ROOT
ATOM      1  CA  HIS C   2       9.487  20.828  29.556  1.00 10.06 LIG 0.18  C 
ENDROOT
BRANCH 1 2
ATOM      2  N   HIS C   2      10.771  21.237  30.123  1.00  9.48 LIG-0.35  N 
ATOM      3 H    HIS C   2      10.995  22.046  29.935  1.00  9.48 LIG 0.16  HD
ATOM      4  C   PHE C   1      11.516  20.425  30.861  1.00  9.37 LIG 0.24  C 
ATOM      5 O    PHE C   1      11.158  19.301  31.197  1.00 11.27 LIG-0.27  OA
BRANCH 4 6
ATOM      6  CA  PHE C   1      12.876  20.956  31.260  1.00  8.68 LIG 0.18  C 
BRANCH 6 7
ATOM      7  CB  PHE C   1      13.442  20.062  32.362  1.00  8.30 LIG 0.07  C 
BRANCH 7 8
ATOM      8  CG  PHE C   1      14.253  18.909  31.847  1.00  6.80 LIG-0.06  A 
ATOM      9  CD1 PHE C   1      14.326  18.645  30.486  1.00  6.68 LIG 0.01  A 
ATOM     10  CE1 PHE C   1      15.085  17.588  30.018  1.00  6.85 LIG 0.00  A 
ATOM     11  CZ  PHE C   1      15.764  16.778  30.900  1.00  6.56 LIG 0.00  A 
ATOM     12  CE2 PHE C   1      15.699  17.025  32.259  1.00  6.82 LIG 0.00  A 
ATOM     13  CD2 PHE C   1      14.947  18.090  32.725  1.00  7.43 LIG 0.01  A 
ENDBRANCH 7 8
ENDBRANCH 6 7
BRANCH 6 14
ATOM     14  N   PHE C   1      12.790  22.346  31.716  1.00  9.64 LIG-0.35  N 
ATOM     15 H    PHE C   1      12.739  22.438  32.570  1.00  9.64 LIG 0.16  HD
ATOM     16  C   ACE C   0      12.791  23.360  30.858  1.00 12.10 LIG 0.21  C 
ATOM     17  CH3 ACE C   0      12.628  24.730  31.451  1.00 13.09 LIG 0.12  C 
ATOM     18 O    ACE C   0      12.900  23.188  29.644  1.00 13.69 LIG-0.27  OA
ENDBRANCH 6 14
ENDBRANCH 4 6
ENDBRANCH 1 2
BRANCH 1 19
ATOM     19  C   HIS C   2       8.728  22.057  29.102  1.00  9.05 LIG 0.24  C 
ATOM     20  N   ALA C   3       9.420  22.977  28.444  1.00  9.24 LIG-0.35  N 
ATOM     21 H    ALA C   3      10.271  22.956  28.324  1.00  9.24 LIG 0.16  HD
ATOM     22 O    HIS C   2       7.525  22.158  29.305  1.00  8.29 LIG-0.27  OA
BRANCH 20 23
ATOM     23  CA  ALA C   3       8.742  24.130  27.859  1.00  8.91 LIG 0.17  C 
ATOM     24  CB  ALA C   3       7.769  24.739  28.854  1.00  9.99 LIG 0.04  C 
BRANCH 23 25
ATOM     25  C   ALA C   3       9.768  25.177  27.418  1.00  9.36 LIG 0.24  C 
ATOM     26  N   ALA C   4      10.933  24.709  26.986  1.00  9.08 LIG-0.35  N 
ATOM     27 H    ALA C   4      11.096  23.875  26.852  1.00  9.08 LIG 0.16  HD
ATOM     28 O    ALA C   3       9.498  26.385  27.447  1.00  9.90 LIG-0.27  OA
BRANCH 26 29
ATOM     29  CA  ALA C   4      12.058  25.597  26.697  1.00  9.70 LIG 0.18  C 
ATOM     30  CB  ALA C   4      13.314  25.078  27.358  1.00  9.53 LIG 0.04  C 
BRANCH 29 31
ATOM     31  C   ALA C   4      12.310  25.808  25.215  1.00 11.00 LIG 0.28  C 
ATOM     32  N   NH2 C   5      12.909  26.937  24.861  1.00 10.22 LIG-0.11  N 
ATOM     33 O    ALA C   4      11.933  24.968  24.412  1.00 13.70 LIG-0.27  OA
ENDBRANCH 29 31
ENDBRANCH 26 29
ENDBRANCH 23 25
ENDBRANCH 20 23
ENDBRANCH 1 19
BRANCH 1 34
ATOM     34  CB  HIS C   2       8.623  20.106  30.598  1.00 12.23 LIG 0.10  C 
BRANCH 34 35
ATOM     35  CG  HIS C   2       7.747  19.040  30.032  1.00 15.24 LIG 0.06  A 
ATOM     36 ND1  HIS C   2       7.734  18.726  28.691  1.00 17.16 LIG-0.24  NA
ATOM     37  CE1 HIS C   2       6.868  17.751  28.479  1.00 17.55 LIG 0.23  A 
ATOM     38 NE2  HIS C   2       6.320  17.422  29.635  1.00 18.01 LIG-0.25  NA
ATOM     39  CD2 HIS C   2       6.855  18.212  30.622  1.00 16.53 LIG 0.14  A 
ENDBRANCH 34 35
ENDBRANCH 1 34
TORSDOF 12
ENDMDL
MODEL 42
USER: ADFR SOLUTION from run 72
USER: SCORE 10.586892 LL:  -2.858 LR: -10.059 RR:   0.000 FEB:  -6.480
USER: RMSD 10.841988
USER: SEED 71
USER: STATUS no improvement in best in 23 clusters for 5 generations
USER: GENES 14
USER: genes 0 Translation |==|  0.32417 0.60921 0.33077
USER: genes 1 Rotation |==|  0.84040 0.81734 0.67358 0.55742
USER: genes 2 Torsion [CB]-CA--N-[C] |==|  0.87098
USER: genes 3 Torsion [N]-C--CA-[N] |==|  0.69430
USER: genes 4 Torsion [C]-CA--CB-[CG] |==|  0.51060
USER: genes 5 Torsion [CA]-CB--CG-[CD1] |==|  0.78052
USER: genes 6 Torsion [C]-CA--N-[C] |==|  0.16597
USER: genes 7 Torsion [N]-CA--C-[N] |==|  0.30791
USER: genes 8 Torsion [C]-N--CA-[CB] |==|  0.23229
USER: genes 9 Torsion [N]-CA--C-[N] |==|  0.85556
USER: genes 10 Torsion [C]-N--CA-[C] |==|  0.77396
USER: genes 11 Torsion [N]-CA--C-[N] |==|  0.39719
USER: genes 12 Torsion [N]-CA--CB-[CG] |==|  0.81415
USER: genes 13 Torsion [CA]-CB--CG-[CD2] |==|  0.40794
ROOT
ATOM      1  CA  HIS C   2       9.633  23.981  27.561  1.00 10.06 LIG 0.18  C 
ENDROOT
BRANCH 1 2
ATOM      2  N   HIS C   2       8.822  25.186  27.382  1.00  9.48 LIG-0.35  N 
ATOM      3 H    HIS C   2       8.364  25.194  26.654  1.00  9.48 LIG 0.16  HD
ATOM      4  C   PHE C   1       8.803  26.170  28.270  1.00  9.37 LIG 0.24  C 
ATOM      5 O    PHE C   1       9.392  26.121  29.345  1.00 11.27 LIG-0.27  OA
BRANCH 4 6
ATOM      6  CA  PHE C   1       8.018  27.402  27.874  1.00  8.68 LIG 0.18  C 
BRANCH 6 7
ATOM      7  CB  PHE C   1       7.189  27.070  26.634  1.00  8.30 LIG 0.07  C 
BRANCH 7 8
ATOM      8  CG  PHE C   1       6.429  28.241  26.084  1.00  6.80 LIG-0.06  A 
ATOM      9  CD1 PHE C   1       5.242  28.656  26.671  1.00  6.68 LIG 0.01  A 
ATOM     10  CE1 PHE C   1       4.554  29.744  26.167  1.00  6.85 LIG 0.00  A 
ATOM     11  CZ  PHE C   1       5.034  30.417  25.065  1.00  6.56 LIG 0.00  A 
ATOM     12  CE2 PHE C   1       6.213  30.014  24.465  1.00  6.82 LIG 0.00  A 
ATOM     13  CD2 PHE C   1       6.906  28.931  24.979  1.00  7.43 LIG 0.01  A 
ENDBRANCH 7 8
ENDBRANCH 6 7
BRANCH 6 14
ATOM     14  N   PHE C   1       8.908  28.536  27.611  1.00  9.64 LIG-0.35  N 
ATOM     15 H    PHE C   1       8.770  29.220  28.113  1.00  9.64 LIG 0.16  HD
ATOM     16  C   ACE C   0       9.841  28.482  26.667  1.00 12.10 LIG 0.21  C 
ATOM     17  CH3 ACE C   0      10.640  29.735  26.452  1.00 13.09 LIG 0.12  C 
ATOM     18 O    ACE C   0      10.030  27.469  25.992  1.00 13.69 LIG-0.27  OA
ENDBRANCH 6 14
ENDBRANCH 4 6
ENDBRANCH 1 2
BRANCH 1 19
ATOM     19  C   HIS C   2       9.018  23.123  28.645  1.00  9.05 LIG 0.24  C 
ATOM     20  N   ALA C   3       8.472  21.977  28.263  1.00  9.24 LIG-0.35  N 
ATOM     21 H    ALA C   3       8.381  21.727  27.445  1.00  9.24 LIG 0.16  HD
ATOM     22 O    HIS C   2       9.070  23.469  29.820  1.00  8.29 LIG-0.27  OA
BRANCH 20 23
ATOM     23  CA  ALA C   3       7.972  21.031  29.257  1.00  8.91 LIG 0.17  C 
ATOM     24  CB  ALA C   3       6.564  21.404  29.688  1.00  9.99 LIG 0.04  C 
BRANCH 23 25
ATOM     25  C   ALA C   3       7.990  19.610  28.688  1.00  9.36 LIG 0.24  C 
ATOM     26  N   ALA C   4       7.395  19.442  27.513  1.00  9.08 LIG-0.35  N 
ATOM     27 H    ALA C   4       7.100  20.088  27.027  1.00  9.08 LIG 0.16  HD
ATOM     28 O    ALA C   3       8.554  18.690  29.294  1.00  9.90 LIG-0.27  OA
BRANCH 26 29
ATOM     29  CA  ALA C   4       7.191  18.113  26.939  1.00  9.70 LIG 0.18  C 
ATOM     30  CB  ALA C   4       6.019  18.133  25.985  1.00  9.53 LIG 0.04  C 
BRANCH 29 31
ATOM     31  C   ALA C   4       8.414  17.552  26.236  1.00 11.00 LIG 0.28  C 
ATOM     32  N   NH2 C   5       8.633  16.250  26.355  1.00 10.22 LIG-0.11  N 
ATOM     33 O    ALA C   4       9.159  18.305  25.625  1.00 13.70 LIG-0.27  OA
ENDBRANCH 29 31
ENDBRANCH 26 29
ENDBRANCH 23 25
ENDBRANCH 20 23
ENDBRANCH 1 19
BRANCH 1 34
ATOM     34  CB  HIS C   2      11.061  24.331  27.997  1.00 12.23 LIG 0.10  C 
BRANCH 34 35
ATOM     35  CG  HIS C   2      11.858  25.048  26.961  1.00 15.24 LIG 0.06  A 
ATOM     36 ND1  HIS C   2      11.699  24.816  25.613  1.00 17.16 LIG-0.24  NA
ATOM     37  CE1 HIS C   2      12.532  25.587  24.936  1.00 17.55 LIG 0.23  A 
ATOM     38 NE2  HIS C   2      13.224  26.310  25.798  1.00 18.01 LIG-0.25  NA
ATOM     39  CD2 HIS C   2      12.820  25.993  27.071  1.00 16.53 LIG 0.14  A 
ENDBRANCH 34 35
ENDBRANCH 1 34
TORSDOF 12
ENDMDL
MODEL 43
USER: ADFR SOLUTION from run 57
USER: SCORE 11.171738 LL:  -2.736 LR: -10.047 RR:   0.000 FEB:  -6.468
USER: RMSD 5.544508
USER: SEED 56
USER: STATUS no improvement in best in 28 clusters for 5 generations
USER: GENES 14
USER: genes 0 Translation |==|  0.28931 0.45873 0.39883
USER: genes 1 Rotation |==|  0.76594 0.21643 0.76127 0.67495
USER: genes 2 Torsion [CB]-CA--N-[C] |==|  0.49445
USER: genes 3 Torsion [N]-C--CA-[N] |==|  0.05608
USER: genes 4 Torsion [C]-CA--CB-[CG] |==|  0.71629
USER: genes 5 Torsion [CA]-CB--CG-[CD1] |==|  0.25189
USER: genes 6 Torsion [C]-CA--N-[C] |==|  0.69078
USER: genes 7 Torsion [N]-CA--C-[N] |==|  0.23595
USER: genes 8 Torsion [C]-N--CA-[CB] |==|  0.14904
USER: genes 9 Torsion [N]-CA--C-[N] |==|  0.12447
USER: genes 10 Torsion [C]-N--CA-[C] |==|  0.14555
USER: genes 11 Torsion [N]-CA--C-[N] |==|  0.09706
USER: genes 12 Torsion [N]-CA--CB-[CG] |==|  0.63870
USER: genes 13 Torsion [CA]-CB--CG-[CD2] |==|  0.61462
ROOT
ATOM      1  CA  HIS C   2       9.058  20.821  28.888  1.00 10.06 LIG 0.18  C 
ENDROOT
BRANCH 1 2
ATOM      2  N   HIS C   2       9.757  20.689  30.166  1.00  9.48 LIG-0.35  N 
ATOM      3 H    HIS C   2       9.368  20.164  30.725  1.00  9.48 LIG 0.16  HD
ATOM      4  C   PHE C   1      10.891  21.326  30.427  1.00  9.37 LIG 0.24  C 
ATOM      5 O    PHE C   1      11.487  22.009  29.601  1.00 11.27 LIG-0.27  OA
BRANCH 4 6
ATOM      6  CA  PHE C   1      11.416  21.187  31.840  1.00  8.68 LIG 0.18  C 
BRANCH 6 7
ATOM      7  CB  PHE C   1      12.939  21.082  31.783  1.00  8.30 LIG 0.07  C 
BRANCH 7 8
ATOM      8  CG  PHE C   1      13.454  19.683  31.952  1.00  6.80 LIG-0.06  A 
ATOM      9  CD1 PHE C   1      13.656  18.863  30.850  1.00  6.68 LIG 0.01  A 
ATOM     10  CE1 PHE C   1      14.143  17.579  31.013  1.00  6.85 LIG 0.00  A 
ATOM     11  CZ  PHE C   1      14.418  17.097  32.273  1.00  6.56 LIG 0.00  A 
ATOM     12  CE2 PHE C   1      14.219  17.899  33.381  1.00  6.82 LIG 0.00  A 
ATOM     13  CD2 PHE C   1      13.742  19.188  33.216  1.00  7.43 LIG 0.01  A 
ENDBRANCH 7 8
ENDBRANCH 6 7
BRANCH 6 14
ATOM     14  N   PHE C   1      10.842  20.014  32.505  1.00  9.64 LIG-0.35  N 
ATOM     15 H    PHE C   1      11.105  19.260  32.187  1.00  9.64 LIG 0.16  HD
ATOM     16  C   ACE C   0       9.988  20.138  33.515  1.00 12.10 LIG 0.21  C 
ATOM     17  CH3 ACE C   0       9.420  18.861  34.064  1.00 13.09 LIG 0.12  C 
ATOM     18 O    ACE C   0       9.663  21.237  33.965  1.00 13.69 LIG-0.27  OA
ENDBRANCH 6 14
ENDBRANCH 4 6
ENDBRANCH 1 2
BRANCH 1 19
ATOM     19  C   HIS C   2       8.613  22.257  28.710  1.00  9.05 LIG 0.24  C 
ATOM     20  N   ALA C   3       9.501  23.098  28.198  1.00  9.24 LIG-0.35  N 
ATOM     21 H    ALA C   3      10.322  22.902  28.032  1.00  9.24 LIG 0.16  HD
ATOM     22 O    HIS C   2       7.470  22.597  28.991  1.00  8.29 LIG-0.27  OA
BRANCH 20 23
ATOM     23  CA  ALA C   3       9.116  24.469  27.874  1.00  8.91 LIG 0.17  C 
ATOM     24  CB  ALA C   3       8.485  25.146  29.078  1.00  9.99 LIG 0.04  C 
BRANCH 23 25
ATOM     25  C   ALA C   3      10.337  25.262  27.403  1.00  9.36 LIG 0.24  C 
ATOM     26  N   ALA C   4      11.135  24.650  26.536  1.00  9.08 LIG-0.35  N 
ATOM     27 H    ALA C   4      10.951  23.898  26.163  1.00  9.08 LIG 0.16  HD
ATOM     28 O    ALA C   3      10.538  26.417  27.803  1.00  9.90 LIG-0.27  OA
BRANCH 26 29
ATOM     29  CA  ALA C   4      12.420  25.223  26.137  1.00  9.70 LIG 0.18  C 
ATOM     30  CB  ALA C   4      12.200  26.432  25.257  1.00  9.53 LIG 0.04  C 
BRANCH 29 31
ATOM     31  C   ALA C   4      13.314  25.597  27.305  1.00 11.00 LIG 0.28  C 
ATOM     32  N   NH2 C   5      13.264  24.817  28.376  1.00 10.22 LIG-0.11  N 
ATOM     33 O    ALA C   4      14.011  26.600  27.237  1.00 13.70 LIG-0.27  OA
ENDBRANCH 29 31
ENDBRANCH 26 29
ENDBRANCH 23 25
ENDBRANCH 20 23
ENDBRANCH 1 19
BRANCH 1 34
ATOM     34  CB  HIS C   2       7.805  19.937  28.845  1.00 12.23 LIG 0.10  C 
BRANCH 34 35
ATOM     35  CG  HIS C   2       7.701  19.085  27.626  1.00 15.24 LIG 0.06  A 
ATOM     36 ND1  HIS C   2       8.784  18.429  27.085  1.00 17.16 LIG-0.24  NA
ATOM     37  CE1 HIS C   2       8.399  17.756  26.016  1.00 17.55 LIG 0.23  A 
ATOM     38 NE2  HIS C   2       7.104  17.951  25.845  1.00 18.01 LIG-0.25  NA
ATOM     39  CD2 HIS C   2       6.643  18.778  26.840  1.00 16.53 LIG 0.14  A 
ENDBRANCH 34 35
ENDBRANCH 1 34
TORSDOF 12
ENDMDL
MODEL 44
USER: ADFR SOLUTION from run 136
USER: SCORE 10.906147 LL:  -3.056 LR: -10.041 RR:   0.000 FEB:  -6.461
USER: RMSD 8.173356
USER: SEED 135
USER: STATUS no improvement in best in 11 clusters for 5 generations
USER: GENES 14
USER: genes 0 Translation |==|  0.43547 0.17606 0.65935
USER: genes 1 Rotation |==|  0.93009 0.45685 0.65316 0.69927
USER: genes 2 Torsion [CB]-CA--N-[C] |==|  0.23333
USER: genes 3 Torsion [N]-C--CA-[N] |==|  0.11872
USER: genes 4 Torsion [C]-CA--CB-[CG] |==|  0.24208
USER: genes 5 Torsion [CA]-CB--CG-[CD1] |==|  0.56627
USER: genes 6 Torsion [C]-CA--N-[C] |==|  0.72622
USER: genes 7 Torsion [N]-CA--C-[N] |==|  0.55174
USER: genes 8 Torsion [C]-N--CA-[CB] |==|  0.83790
USER: genes 9 Torsion [N]-CA--C-[N] |==|  0.15824
USER: genes 10 Torsion [C]-N--CA-[C] |==|  0.80494
USER: genes 11 Torsion [N]-CA--C-[N] |==|  0.38704
USER: genes 12 Torsion [N]-CA--CB-[CG] |==|  0.11380
USER: genes 13 Torsion [CA]-CB--CG-[CD2] |==|  0.26312
ROOT
ATOM      1  CA  HIS C   2      11.469  14.885  33.968  1.00 10.06 LIG 0.18  C 
ENDROOT
BRANCH 1 2
ATOM      2  N   HIS C   2      12.717  15.643  34.049  1.00  9.48 LIG-0.35  N 
ATOM      3 H    HIS C   2      12.729  16.232  34.676  1.00  9.48 LIG 0.16  HD
ATOM      4  C   PHE C   1      13.734  15.434  33.223  1.00  9.37 LIG 0.24  C 
ATOM      5 O    PHE C   1      13.746  14.541  32.382  1.00 11.27 LIG-0.27  OA
BRANCH 4 6
ATOM      6  CA  PHE C   1      14.899  16.391  33.354  1.00  8.68 LIG 0.18  C 
BRANCH 6 7
ATOM      7  CB  PHE C   1      16.103  15.791  32.629  1.00  8.30 LIG 0.07  C 
BRANCH 7 8
ATOM      8  CG  PHE C   1      16.156  16.126  31.167  1.00  6.80 LIG-0.06  A 
ATOM      9  CD1 PHE C   1      16.846  15.313  30.278  1.00  6.68 LIG 0.01  A 
ATOM     10  CE1 PHE C   1      16.881  15.621  28.931  1.00  6.85 LIG 0.00  A 
ATOM     11  CZ  PHE C   1      16.243  16.747  28.461  1.00  6.56 LIG 0.00  A 
ATOM     12  CE2 PHE C   1      15.554  17.569  29.333  1.00  6.82 LIG 0.00  A 
ATOM     13  CD2 PHE C   1      15.511  17.253  30.681  1.00  7.43 LIG 0.01  A 
ENDBRANCH 7 8
ENDBRANCH 6 7
BRANCH 6 14
ATOM     14  N   PHE C   1      15.219  16.648  34.760  1.00  9.64 LIG-0.35  N 
ATOM     15 H    PHE C   1      15.701  16.041  35.132  1.00  9.64 LIG 0.16  HD
ATOM     16  C   ACE C   0      14.784  17.738  35.384  1.00 12.10 LIG 0.21  C 
ATOM     17  CH3 ACE C   0      15.124  17.847  36.842  1.00 13.09 LIG 0.12  C 
ATOM     18 O    ACE C   0      14.124  18.601  34.805  1.00 13.69 LIG-0.27  OA
ENDBRANCH 6 14
ENDBRANCH 4 6
ENDBRANCH 1 2
BRANCH 1 19
ATOM     19  C   HIS C   2      10.357  15.686  34.611  1.00  9.05 LIG 0.24  C 
ATOM     20  N   ALA C   3       9.269  15.019  34.967  1.00  9.24 LIG-0.35  N 
ATOM     21 H    ALA C   3       9.125  14.189  34.793  1.00  9.24 LIG 0.16  HD
ATOM     22 O    HIS C   2      10.494  16.885  34.823  1.00  8.29 LIG-0.27  OA
BRANCH 20 23
ATOM     23  CA  ALA C   3       8.203  15.688  35.708  1.00  8.91 LIG 0.17  C 
ATOM     24  CB  ALA C   3       8.736  16.257  37.012  1.00  9.99 LIG 0.04  C 
BRANCH 23 25
ATOM     25  C   ALA C   3       7.589  16.803  34.858  1.00  9.36 LIG 0.24  C 
ATOM     26  N   ALA C   4       7.099  16.438  33.679  1.00  9.08 LIG-0.35  N 
ATOM     27 H    ALA C   4       7.022  15.621  33.423  1.00  9.08 LIG 0.16  HD
ATOM     28 O    ALA C   3       7.541  17.968  35.275  1.00  9.90 LIG-0.27  OA
BRANCH 26 29
ATOM     29  CA  ALA C   4       6.642  17.423  32.700  1.00  9.70 LIG 0.18  C 
ATOM     30  CB  ALA C   4       6.461  16.769  31.349  1.00  9.53 LIG 0.04  C 
BRANCH 29 31
ATOM     31  C   ALA C   4       5.363  18.136  33.097  1.00 11.00 LIG 0.28  C 
ATOM     32  N   NH2 C   5       5.296  19.437  32.849  1.00 10.22 LIG-0.11  N 
ATOM     33 O    ALA C   4       4.469  17.512  33.651  1.00 13.70 LIG-0.27  OA
ENDBRANCH 29 31
ENDBRANCH 26 29
ENDBRANCH 23 25
ENDBRANCH 20 23
ENDBRANCH 1 19
BRANCH 1 34
ATOM     34  CB  HIS C   2      11.578  13.552  34.719  1.00 12.23 LIG 0.10  C 
BRANCH 34 35
ATOM     35  CG  HIS C   2      12.301  13.641  36.019  1.00 15.24 LIG 0.06  A 
ATOM     36 ND1  HIS C   2      13.673  13.557  36.112  1.00 17.16 LIG-0.24  NA
ATOM     37  CE1 HIS C   2      14.033  13.666  37.378  1.00 17.55 LIG 0.23  A 
ATOM     38 NE2  HIS C   2      12.944  13.817  38.110  1.00 18.01 LIG-0.25  NA
ATOM     39  CD2 HIS C   2      11.848  13.807  37.283  1.00 16.53 LIG 0.14  A 
ENDBRANCH 34 35
ENDBRANCH 1 34
TORSDOF 12
ENDMDL
MODEL 45
USER: ADFR SOLUTION from run 109
USER: SCORE 10.247545 LL:  -2.971 LR: -10.014 RR:   0.000 FEB:  -6.435
USER: RMSD 8.118945
USER: SEED 108
USER: STATUS no improvement in best in 38 clusters for 5 generations
USER: GENES 14
USER: genes 0 Translation |==|  0.52976 0.39067 0.53030
USER: genes 1 Rotation |==|  0.94038 0.68647 0.35761 0.53194
USER: genes 2 Torsion [CB]-CA--N-[C] |==|  0.35867
USER: genes 3 Torsion [N]-C--CA-[N] |==|  0.96960
USER: genes 4 Torsion [C]-CA--CB-[CG] |==|  0.55086
USER: genes 5 Torsion [CA]-CB--CG-[CD1] |==|  0.88217
USER: genes 6 Torsion [C]-CA--N-[C] |==|  0.67507
USER: genes 7 Torsion [N]-CA--C-[N] |==|  0.88308
USER: genes 8 Torsion [C]-N--CA-[CB] |==|  0.20106
USER: genes 9 Torsion [N]-CA--C-[N] |==|  0.96338
USER: genes 10 Torsion [C]-N--CA-[C] |==|  0.17973
USER: genes 11 Torsion [N]-CA--C-[N] |==|  0.00556
USER: genes 12 Torsion [N]-CA--CB-[CG] |==|  0.41253
USER: genes 13 Torsion [CA]-CB--CG-[CD2] |==|  0.16319
ROOT
ATOM      1  CA  HIS C   2      13.025  19.392  31.452  1.00 10.06 LIG 0.18  C 
ENDROOT
BRANCH 1 2
ATOM      2  N   HIS C   2      13.007  20.768  30.957  1.00  9.48 LIG-0.35  N 
ATOM      3 H    HIS C   2      13.787  21.091  30.792  1.00  9.48 LIG 0.16  HD
ATOM      4  C   PHE C   1      11.882  21.448  30.780  1.00  9.37 LIG 0.24  C 
ATOM      5 O    PHE C   1      10.768  20.960  30.938  1.00 11.27 LIG-0.27  OA
BRANCH 4 6
ATOM      6  CA  PHE C   1      12.043  22.901  30.390  1.00  8.68 LIG 0.18  C 
BRANCH 6 7
ATOM      7  CB  PHE C   1      11.572  23.070  28.946  1.00  8.30 LIG 0.07  C 
BRANCH 7 8
ATOM      8  CG  PHE C   1      12.067  24.327  28.293  1.00  6.80 LIG-0.06  A 
ATOM      9  CD1 PHE C   1      12.071  25.531  28.984  1.00  6.68 LIG 0.01  A 
ATOM     10  CE1 PHE C   1      12.539  26.683  28.380  1.00  6.85 LIG 0.00  A 
ATOM     11  CZ  PHE C   1      12.992  26.649  27.080  1.00  6.56 LIG 0.00  A 
ATOM     12  CE2 PHE C   1      12.992  25.459  26.377  1.00  6.82 LIG 0.00  A 
ATOM     13  CD2 PHE C   1      12.533  24.304  26.987  1.00  7.43 LIG 0.01  A 
ENDBRANCH 7 8
ENDBRANCH 6 7
BRANCH 6 14
ATOM     14  N   PHE C   1      13.434  23.338  30.534  1.00  9.64 LIG-0.35  N 
ATOM     15 H    PHE C   1      13.991  22.928  30.022  1.00  9.64 LIG 0.16  HD
ATOM     16  C   ACE C   0      13.778  24.291  31.393  1.00 12.10 LIG 0.21  C 
ATOM     17  CH3 ACE C   0      15.244  24.596  31.493  1.00 13.09 LIG 0.12  C 
ATOM     18 O    ACE C   0      12.945  24.879  32.084  1.00 13.69 LIG-0.27  OA
ENDBRANCH 6 14
ENDBRANCH 4 6
ENDBRANCH 1 2
BRANCH 1 19
ATOM     19  C   HIS C   2      13.645  19.368  32.833  1.00  9.05 LIG 0.24  C 
ATOM     20  N   ALA C   3      14.719  20.121  33.019  1.00  9.24 LIG-0.35  N 
ATOM     21 H    ALA C   3      15.124  20.558  32.399  1.00  9.24 LIG 0.16  HD
ATOM     22 O    HIS C   2      13.137  18.710  33.733  1.00  8.29 LIG-0.27  OA
BRANCH 20 23
ATOM     23  CA  ALA C   3      15.303  20.256  34.351  1.00  8.91 LIG 0.17  C 
ATOM     24  CB  ALA C   3      16.006  18.973  34.759  1.00  9.99 LIG 0.04  C 
BRANCH 23 25
ATOM     25  C   ALA C   3      16.287  21.427  34.379  1.00  9.36 LIG 0.24  C 
ATOM     26  N   ALA C   4      16.645  21.920  33.199  1.00  9.08 LIG-0.35  N 
ATOM     27 H    ALA C   4      16.287  21.687  32.453  1.00  9.08 LIG 0.16  HD
ATOM     28 O    ALA C   3      16.695  21.890  35.453  1.00  9.90 LIG-0.27  OA
BRANCH 26 29
ATOM     29  CA  ALA C   4      17.704  22.921  33.074  1.00  9.70 LIG 0.18  C 
ATOM     30  CB  ALA C   4      17.351  24.154  33.873  1.00  9.53 LIG 0.04  C 
BRANCH 29 31
ATOM     31  C   ALA C   4      19.076  22.420  33.486  1.00 11.00 LIG 0.28  C 
ATOM     32  N   NH2 C   5      19.166  21.152  33.863  1.00 10.22 LIG-0.11  N 
ATOM     33 O    ALA C   4      20.025  23.190  33.490  1.00 13.70 LIG-0.27  OA
ENDBRANCH 29 31
ENDBRANCH 26 29
ENDBRANCH 23 25
ENDBRANCH 20 23
ENDBRANCH 1 19
BRANCH 1 34
ATOM     34  CB  HIS C   2      13.868  18.485  30.547  1.00 12.23 LIG 0.10  C 
BRANCH 34 35
ATOM     35  CG  HIS C   2      14.546  17.368  31.264  1.00 15.24 LIG 0.06  A 
ATOM     36 ND1  HIS C   2      15.914  17.205  31.257  1.00 17.16 LIG-0.24  NA
ATOM     37  CE1 HIS C   2      16.231  16.138  31.969  1.00 17.55 LIG 0.23  A 
ATOM     38 NE2  HIS C   2      15.117  15.604  32.437  1.00 18.01 LIG-0.25  NA
ATOM     39  CD2 HIS C   2      14.050  16.355  32.012  1.00 16.53 LIG 0.14  A 
ENDBRANCH 34 35
ENDBRANCH 1 34
TORSDOF 12
ENDMDL
MODEL 46
USER: ADFR SOLUTION from run 197
USER: SCORE 10.660550 LL:  -2.914 LR:  -9.947 RR:   0.000 FEB:  -6.367
USER: RMSD 6.378147
USER: SEED 196
USER: STATUS no improvement in best in 34 clusters for 5 generations
USER: GENES 14
USER: genes 0 Translation |==|  0.45782 0.66073 0.45706
USER: genes 1 Rotation |==|  0.19503 0.60968 0.27645 0.80820
USER: genes 2 Torsion [CB]-CA--N-[C] |==|  0.88794
USER: genes 3 Torsion [N]-C--CA-[N] |==|  0.52618
USER: genes 4 Torsion [C]-CA--CB-[CG] |==|  0.78014
USER: genes 5 Torsion [CA]-CB--CG-[CD1] |==|  0.75658
USER: genes 6 Torsion [C]-CA--N-[C] |==|  0.76981
USER: genes 7 Torsion [N]-CA--C-[N] |==|  0.88868
USER: genes 8 Torsion [C]-N--CA-[CB] |==|  0.15426
USER: genes 9 Torsion [N]-CA--C-[N] |==|  0.57015
USER: genes 10 Torsion [C]-N--CA-[C] |==|  0.61676
USER: genes 11 Torsion [N]-CA--C-[N] |==|  0.73320
USER: genes 12 Torsion [N]-CA--CB-[CG] |==|  0.43087
USER: genes 13 Torsion [CA]-CB--CG-[CD2] |==|  0.18235
ROOT
ATOM      1  CA  HIS C   2      11.838  25.063  30.024  1.00 10.06 LIG 0.18  C 
ENDROOT
BRANCH 1 2
ATOM      2  N   HIS C   2      12.110  24.270  31.222  1.00  9.48 LIG-0.35  N 
ATOM      3 H    HIS C   2      11.907  24.667  31.958  1.00  9.48 LIG 0.16  HD
ATOM      4  C   PHE C   1      12.623  23.049  31.167  1.00  9.37 LIG 0.24  C 
ATOM      5 O    PHE C   1      12.837  22.453  30.116  1.00 11.27 LIG-0.27  OA
BRANCH 4 6
ATOM      6  CA  PHE C   1      12.967  22.416  32.498  1.00  8.68 LIG 0.18  C 
BRANCH 6 7
ATOM      7  CB  PHE C   1      13.772  23.423  33.320  1.00  8.30 LIG 0.07  C 
BRANCH 7 8
ATOM      8  CG  PHE C   1      15.217  23.506  32.925  1.00  6.80 LIG-0.06  A 
ATOM      9  CD1 PHE C   1      16.157  22.657  33.492  1.00  6.68 LIG 0.01  A 
ATOM     10  CE1 PHE C   1      17.485  22.731  33.115  1.00  6.85 LIG 0.00  A 
ATOM     11  CZ  PHE C   1      17.890  23.660  32.183  1.00  6.56 LIG 0.00  A 
ATOM     12  CE2 PHE C   1      16.967  24.516  31.611  1.00  6.82 LIG 0.00  A 
ATOM     13  CD2 PHE C   1      15.636  24.433  31.982  1.00  7.43 LIG 0.01  A 
ENDBRANCH 7 8
ENDBRANCH 6 7
BRANCH 6 14
ATOM     14  N   PHE C   1      13.725  21.176  32.316  1.00  9.64 LIG-0.35  N 
ATOM     15 H    PHE C   1      14.578  21.265  32.388  1.00  9.64 LIG 0.16  HD
ATOM     16  C   ACE C   0      13.118  20.022  32.062  1.00 12.10 LIG 0.21  C 
ATOM     17  CH3 ACE C   0      14.013  18.839  31.827  1.00 13.09 LIG 0.12  C 
ATOM     18 O    ACE C   0      11.891  19.929  32.001  1.00 13.69 LIG-0.27  OA
ENDBRANCH 6 14
ENDBRANCH 4 6
ENDBRANCH 1 2
BRANCH 1 19
ATOM     19  C   HIS C   2      10.553  24.580  29.387  1.00  9.05 LIG 0.24  C 
ATOM     20  N   ALA C   3      10.351  23.270  29.369  1.00  9.24 LIG-0.35  N 
ATOM     21 H    ALA C   3      10.924  22.683  29.624  1.00  9.24 LIG 0.16  HD
ATOM     22 O    HIS C   2       9.732  25.379  28.953  1.00  8.29 LIG-0.27  OA
BRANCH 20 23
ATOM     23  CA  ALA C   3       9.082  22.727  28.891  1.00  8.91 LIG 0.17  C 
ATOM     24  CB  ALA C   3       8.784  23.222  27.486  1.00  9.99 LIG 0.04  C 
BRANCH 23 25
ATOM     25  C   ALA C   3       9.123  21.197  28.912  1.00  9.36 LIG 0.24  C 
ATOM     26  N   ALA C   4       8.310  20.578  28.063  1.00  9.08 LIG-0.35  N 
ATOM     27 H    ALA C   4       7.854  20.980  27.455  1.00  9.08 LIG 0.16  HD
ATOM     28 O    ALA C   3       9.894  20.591  29.668  1.00  9.90 LIG-0.27  OA
BRANCH 26 29
ATOM     29  CA  ALA C   4       8.124  19.128  28.098  1.00  9.70 LIG 0.18  C 
ATOM     30  CB  ALA C   4       6.862  18.783  28.855  1.00  9.53 LIG 0.04  C 
BRANCH 29 31
ATOM     31  C   ALA C   4       8.090  18.479  26.726  1.00 11.00 LIG 0.28  C 
ATOM     32  N   NH2 C   5       6.896  18.259  26.193  1.00 10.22 LIG-0.11  N 
ATOM     33 O    ALA C   4       9.137  18.157  26.183  1.00 13.70 LIG-0.27  OA
ENDBRANCH 29 31
ENDBRANCH 26 29
ENDBRANCH 23 25
ENDBRANCH 20 23
ENDBRANCH 1 19
BRANCH 1 34
ATOM     34  CB  HIS C   2      12.958  24.909  28.988  1.00 12.23 LIG 0.10  C 
BRANCH 34 35
ATOM     35  CG  HIS C   2      12.532  25.170  27.583  1.00 15.24 LIG 0.06  A 
ATOM     36 ND1  HIS C   2      12.516  24.187  26.619  1.00 17.16 LIG-0.24  NA
ATOM     37  CE1 HIS C   2      12.098  24.702  25.476  1.00 17.55 LIG 0.23  A 
ATOM     38 NE2  HIS C   2      11.841  25.983  25.666  1.00 18.01 LIG-0.25  NA
ATOM     39  CD2 HIS C   2      12.102  26.300  26.976  1.00 16.53 LIG 0.14  A 
ENDBRANCH 34 35
ENDBRANCH 1 34
TORSDOF 12
ENDMDL
MODEL 47
USER: ADFR SOLUTION from run 116
USER: SCORE 10.135401 LL:  -2.771 LR:  -9.900 RR:   0.000 FEB:  -6.320
USER: RMSD 8.530172
USER: SEED 115
USER: STATUS no improvement in best in 21 clusters for 5 generations
USER: GENES 14
USER: genes 0 Translation |==|  0.50660 0.63967 0.38630
USER: genes 1 Rotation |==|  0.81877 0.67032 0.76873 0.71716
USER: genes 2 Torsion [CB]-CA--N-[C] |==|  0.25200
USER: genes 3 Torsion [N]-C--CA-[N] |==|  0.91545
USER: genes 4 Torsion [C]-CA--CB-[CG] |==|  0.20784
USER: genes 5 Torsion [CA]-CB--CG-[CD1] |==|  0.57278
USER: genes 6 Torsion [C]-CA--N-[C] |==|  0.83724
USER: genes 7 Torsion [N]-CA--C-[N] |==|  0.41711
USER: genes 8 Torsion [C]-N--CA-[CB] |==|  0.19956
USER: genes 9 Torsion [N]-CA--C-[N] |==|  0.65000
USER: genes 10 Torsion [C]-N--CA-[C] |==|  0.66531
USER: genes 11 Torsion [N]-CA--C-[N] |==|  0.70781
USER: genes 12 Torsion [N]-CA--CB-[CG] |==|  0.41730
USER: genes 13 Torsion [CA]-CB--CG-[CD2] |==|  0.69470
ROOT
ATOM      1  CA  HIS C   2      12.643  24.621  28.644  1.00 10.06 LIG 0.18  C 
ENDROOT
BRANCH 1 2
ATOM      2  N   HIS C   2      12.858  26.001  28.210  1.00  9.48 LIG-0.35  N 
ATOM      3 H    HIS C   2      12.263  26.554  28.492  1.00  9.48 LIG 0.16  HD
ATOM      4  C   PHE C   1      13.885  26.358  27.450  1.00  9.37 LIG 0.24  C 
ATOM      5 O    PHE C   1      14.778  25.585  27.116  1.00 11.27 LIG-0.27  OA
BRANCH 4 6
ATOM      6  CA  PHE C   1      13.890  27.796  26.980  1.00  8.68 LIG 0.18  C 
BRANCH 6 7
ATOM      7  CB  PHE C   1      14.666  28.635  27.994  1.00  8.30 LIG 0.07  C 
BRANCH 7 8
ATOM      8  CG  PHE C   1      16.153  28.448  27.921  1.00  6.80 LIG-0.06  A 
ATOM      9  CD1 PHE C   1      16.952  28.668  29.035  1.00  6.68 LIG 0.01  A 
ATOM     10  CE1 PHE C   1      18.320  28.482  28.964  1.00  6.85 LIG 0.00  A 
ATOM     11  CZ  PHE C   1      18.905  28.092  27.780  1.00  6.56 LIG 0.00  A 
ATOM     12  CE2 PHE C   1      18.125  27.872  26.660  1.00  6.82 LIG 0.00  A 
ATOM     13  CD2 PHE C   1      16.754  28.048  26.736  1.00  7.43 LIG 0.01  A 
ENDBRANCH 7 8
ENDBRANCH 6 7
BRANCH 6 14
ATOM     14  N   PHE C   1      12.526  28.308  26.823  1.00  9.64 LIG-0.35  N 
ATOM     15 H    PHE C   1      12.348  29.000  27.302  1.00  9.64 LIG 0.16  HD
ATOM     16  C   ACE C   0      11.657  27.728  26.002  1.00 12.10 LIG 0.21  C 
ATOM     17  CH3 ACE C   0      10.273  28.308  25.986  1.00 13.09 LIG 0.12  C 
ATOM     18 O    ACE C   0      11.962  26.758  25.308  1.00 13.69 LIG-0.27  OA
ENDBRANCH 6 14
ENDBRANCH 4 6
ENDBRANCH 1 2
BRANCH 1 19
ATOM     19  C   HIS C   2      11.159  24.382  28.826  1.00  9.05 LIG 0.24  C 
ATOM     20  N   ALA C   3      10.723  23.148  28.615  1.00  9.24 LIG-0.35  N 
ATOM     21 H    ALA C   3      11.206  22.503  28.315  1.00  9.24 LIG 0.16  HD
ATOM     22 O    HIS C   2      10.421  25.288  29.192  1.00  8.29 LIG-0.27  OA
BRANCH 20 23
ATOM     23  CA  ALA C   3       9.331  22.802  28.892  1.00  8.91 LIG 0.17  C 
ATOM     24  CB  ALA C   3       8.409  23.426  27.859  1.00  9.99 LIG 0.04  C 
BRANCH 23 25
ATOM     25  C   ALA C   3       9.159  21.281  28.901  1.00  9.36 LIG 0.24  C 
ATOM     26  N   ALA C   4       8.219  20.793  28.099  1.00  9.08 LIG-0.35  N 
ATOM     27 H    ALA C   4       7.788  21.264  27.523  1.00  9.08 LIG 0.16  HD
ATOM     28 O    ALA C   3       9.882  20.563  29.604  1.00  9.90 LIG-0.27  OA
BRANCH 26 29
ATOM     29  CA  ALA C   4       7.834  19.383  28.136  1.00  9.70 LIG 0.18  C 
ATOM     30  CB  ALA C   4       6.396  19.247  28.581  1.00  9.53 LIG 0.04  C 
BRANCH 29 31
ATOM     31  C   ALA C   4       8.032  18.657  26.818  1.00 11.00 LIG 0.28  C 
ATOM     32  N   NH2 C   5       6.944  18.389  26.109  1.00 10.22 LIG-0.11  N 
ATOM     33 O    ALA C   4       9.156  18.320  26.475  1.00 13.70 LIG-0.27  OA
ENDBRANCH 29 31
ENDBRANCH 26 29
ENDBRANCH 23 25
ENDBRANCH 20 23
ENDBRANCH 1 19
BRANCH 1 34
ATOM     34  CB  HIS C   2      13.328  24.346  29.988  1.00 12.23 LIG 0.10  C 
BRANCH 34 35
ATOM     35  CG  HIS C   2      12.647  23.313  30.820  1.00 15.24 LIG 0.06  A 
ATOM     36 ND1  HIS C   2      12.643  21.977  30.486  1.00 17.16 LIG-0.24  NA
ATOM     37  CE1 HIS C   2      11.968  21.300  31.398  1.00 17.55 LIG 0.23  A 
ATOM     38 NE2  HIS C   2      11.535  22.150  32.312  1.00 18.01 LIG-0.25  NA
ATOM     39  CD2 HIS C   2      11.948  23.415  31.975  1.00 16.53 LIG 0.14  A 
ENDBRANCH 34 35
ENDBRANCH 1 34
TORSDOF 12
ENDMDL
MODEL 48
USER: ADFR SOLUTION from run 85
USER: SCORE 10.869965 LL:  -2.685 LR:  -9.887 RR:   0.000 FEB:  -6.307
USER: RMSD 5.013626
USER: SEED 84
USER: STATUS no improvement in best in 22 clusters for 5 generations
USER: GENES 14
USER: genes 0 Translation |==|  0.55414 0.40297 0.55248
USER: genes 1 Rotation |==|  0.76066 0.08689 0.51184 0.60609
USER: genes 2 Torsion [CB]-CA--N-[C] |==|  0.54511
USER: genes 3 Torsion [N]-C--CA-[N] |==|  0.01113
USER: genes 4 Torsion [C]-CA--CB-[CG] |==|  0.82003
USER: genes 5 Torsion [CA]-CB--CG-[CD1] |==|  0.65008
USER: genes 6 Torsion [C]-CA--N-[C] |==|  0.66394
USER: genes 7 Torsion [N]-CA--C-[N] |==|  0.38437
USER: genes 8 Torsion [C]-N--CA-[CB] |==|  0.22213
USER: genes 9 Torsion [N]-CA--C-[N] |==|  0.92909
USER: genes 10 Torsion [C]-N--CA-[C] |==|  0.62152
USER: genes 11 Torsion [N]-CA--C-[N] |==|  0.47663
USER: genes 12 Torsion [N]-CA--CB-[CG] |==|  0.56692
USER: genes 13 Torsion [CA]-CB--CG-[CD2] |==|  0.47839
ROOT
ATOM      1  CA  HIS C   2      13.427  19.650  31.884  1.00 10.06 LIG 0.18  C 
ENDROOT
BRANCH 1 2
ATOM      2  N   HIS C   2      13.851  18.277  32.157  1.00  9.48 LIG-0.35  N 
ATOM      3 H    HIS C   2      13.265  17.683  31.951  1.00  9.48 LIG 0.16  HD
ATOM      4  C   PHE C   1      15.037  17.987  32.675  1.00  9.37 LIG 0.24  C 
ATOM      5 O    PHE C   1      15.902  18.828  32.893  1.00 11.27 LIG-0.27  OA
BRANCH 4 6
ATOM      6  CA  PHE C   1      15.268  16.531  33.019  1.00  8.68 LIG 0.18  C 
BRANCH 6 7
ATOM      7  CB  PHE C   1      16.549  16.067  32.327  1.00  8.30 LIG 0.07  C 
BRANCH 7 8
ATOM      8  CG  PHE C   1      16.463  16.078  30.829  1.00  6.80 LIG-0.06  A 
ATOM      9  CD1 PHE C   1      16.759  14.938  30.093  1.00  6.68 LIG 0.01  A 
ATOM     10  CE1 PHE C   1      16.667  14.951  28.714  1.00  6.85 LIG 0.00  A 
ATOM     11  CZ  PHE C   1      16.295  16.102  28.056  1.00  6.56 LIG 0.00  A 
ATOM     12  CE2 PHE C   1      16.000  17.247  28.772  1.00  6.82 LIG 0.00  A 
ATOM     13  CD2 PHE C   1      16.082  17.229  30.154  1.00  7.43 LIG 0.01  A 
ENDBRANCH 7 8
ENDBRANCH 6 7
BRANCH 6 14
ATOM     14  N   PHE C   1      14.131  15.702  32.609  1.00  9.64 LIG-0.35  N 
ATOM     15 H    PHE C   1      13.953  15.733  31.768  1.00  9.64 LIG 0.16  HD
ATOM     16  C   ACE C   0      13.449  14.975  33.488  1.00 12.10 LIG 0.21  C 
ATOM     17  CH3 ACE C   0      12.264  14.226  32.950  1.00 13.09 LIG 0.12  C 
ATOM     18 O    ACE C   0      13.758  14.932  34.679  1.00 13.69 LIG-0.27  OA
ENDBRANCH 6 14
ENDBRANCH 4 6
ENDBRANCH 1 2
BRANCH 1 19
ATOM     19  C   HIS C   2      13.777  20.524  33.070  1.00  9.05 LIG 0.24  C 
ATOM     20  N   ALA C   3      14.274  21.723  32.803  1.00  9.24 LIG-0.35  N 
ATOM     21 H    ALA C   3      14.475  22.005  32.016  1.00  9.24 LIG 0.16  HD
ATOM     22 O    HIS C   2      13.563  20.139  34.213  1.00  8.29 LIG-0.27  OA
BRANCH 20 23
ATOM     23  CA  ALA C   3      14.517  22.677  33.881  1.00  8.91 LIG 0.17  C 
ATOM     24  CB  ALA C   3      15.821  22.358  34.593  1.00  9.99 LIG 0.04  C 
BRANCH 23 25
ATOM     25  C   ALA C   3      14.557  24.103  33.325  1.00  9.36 LIG 0.24  C 
ATOM     26  N   ALA C   4      14.897  24.224  32.047  1.00  9.08 LIG-0.35  N 
ATOM     27 H    ALA C   4      14.994  23.559  31.511  1.00  9.08 LIG 0.16  HD
ATOM     28 O    ALA C   3      14.261  25.072  34.037  1.00  9.90 LIG-0.27  OA
BRANCH 26 29
ATOM     29  CA  ALA C   4      15.138  25.531  31.438  1.00  9.70 LIG 0.18  C 
ATOM     30  CB  ALA C   4      16.623  25.800  31.356  1.00  9.53 LIG 0.04  C 
BRANCH 29 31
ATOM     31  C   ALA C   4      14.513  25.694  30.065  1.00 11.00 LIG 0.28  C 
ATOM     32  N   NH2 C   5      14.545  26.906  29.528  1.00 10.22 LIG-0.11  N 
ATOM     33 O    ALA C   4      13.981  24.735  29.524  1.00 13.70 LIG-0.27  OA
ENDBRANCH 29 31
ENDBRANCH 26 29
ENDBRANCH 23 25
ENDBRANCH 20 23
ENDBRANCH 1 19
BRANCH 1 34
ATOM     34  CB  HIS C   2      11.910  19.734  31.675  1.00 12.23 LIG 0.10  C 
BRANCH 34 35
ATOM     35  CG  HIS C   2      11.469  20.906  30.866  1.00 15.24 LIG 0.06  A 
ATOM     36 ND1  HIS C   2      12.331  21.911  30.485  1.00 17.16 LIG-0.24  NA
ATOM     37  CE1 HIS C   2      11.669  22.812  29.782  1.00 17.55 LIG 0.23  A 
ATOM     38 NE2  HIS C   2      10.409  22.427  29.693  1.00 18.01 LIG-0.25  NA
ATOM     39  CD2 HIS C   2      10.258  21.237  30.361  1.00 16.53 LIG 0.14  A 
ENDBRANCH 34 35
ENDBRANCH 1 34
TORSDOF 12
ENDMDL
MODEL 49
USER: ADFR SOLUTION from run 71
USER: SCORE 10.686684 LL:  -2.718 LR:  -9.861 RR:   0.000 FEB:  -6.282
USER: RMSD 1.767569
USER: SEED 70
USER: STATUS no improvement in best in 19 clusters for 5 generations
USER: GENES 14
USER: genes 0 Translation |==|  0.46348 0.51756 0.53989
USER: genes 1 Rotation |==|  0.50327 0.50759 0.51200 0.99979
USER: genes 2 Torsion [CB]-CA--N-[C] |==|  0.28878
USER: genes 3 Torsion [N]-C--CA-[N] |==|  0.38367
USER: genes 4 Torsion [C]-CA--CB-[CG] |==|  0.45450
USER: genes 5 Torsion [CA]-CB--CG-[CD1] |==|  0.28587
USER: genes 6 Torsion [C]-CA--N-[C] |==|  0.77628
USER: genes 7 Torsion [N]-CA--C-[N] |==|  0.38062
USER: genes 8 Torsion [C]-N--CA-[CB] |==|  0.49502
USER: genes 9 Torsion [N]-CA--C-[N] |==|  0.36913
USER: genes 10 Torsion [C]-N--CA-[C] |==|  0.80063
USER: genes 11 Torsion [N]-CA--C-[N] |==|  0.40763
USER: genes 12 Torsion [N]-CA--CB-[CG] |==|  0.57955
USER: genes 13 Torsion [CA]-CB--CG-[CD2] |==|  0.30622
ROOT
ATOM      1  CA  HIS C   2      11.931  22.057  31.639  1.00 10.06 LIG 0.18  C 
ENDROOT
BRANCH 1 2
ATOM      2  N   HIS C   2      13.090  21.167  31.564  1.00  9.48 LIG-0.35  N 
ATOM      3 H    HIS C   2      13.654  21.378  30.951  1.00  9.48 LIG 0.16  HD
ATOM      4  C   PHE C   1      13.245  20.130  32.376  1.00  9.37 LIG 0.24  C 
ATOM      5 O    PHE C   1      12.482  19.877  33.302  1.00 11.27 LIG-0.27  OA
BRANCH 4 6
ATOM      6  CA  PHE C   1      14.428  19.233  32.082  1.00  8.68 LIG 0.18  C 
BRANCH 6 7
ATOM      7  CB  PHE C   1      13.929  18.005  31.323  1.00  8.30 LIG 0.07  C 
BRANCH 7 8
ATOM      8  CG  PHE C   1      15.018  17.235  30.636  1.00  6.80 LIG-0.06  A 
ATOM      9  CD1 PHE C   1      15.497  16.049  31.175  1.00  6.68 LIG 0.01  A 
ATOM     10  CE1 PHE C   1      16.492  15.338  30.530  1.00  6.85 LIG 0.00  A 
ATOM     11  CZ  PHE C   1      17.030  15.810  29.353  1.00  6.56 LIG 0.00  A 
ATOM     12  CE2 PHE C   1      16.567  16.992  28.805  1.00  6.82 LIG 0.00  A 
ATOM     13  CD2 PHE C   1      15.562  17.697  29.446  1.00  7.43 LIG 0.01  A 
ENDBRANCH 7 8
ENDBRANCH 6 7
BRANCH 6 14
ATOM     14  N   PHE C   1      15.111  18.835  33.316  1.00  9.64 LIG-0.35  N 
ATOM     15 H    PHE C   1      14.905  18.049  33.599  1.00  9.64 LIG 0.16  HD
ATOM     16  C   ACE C   0      15.974  19.642  33.924  1.00 12.10 LIG 0.21  C 
ATOM     17  CH3 ACE C   0      16.552  19.142  35.216  1.00 13.09 LIG 0.12  C 
ATOM     18 O    ACE C   0      16.269  20.746  33.465  1.00 13.69 LIG-0.27  OA
ENDBRANCH 6 14
ENDBRANCH 4 6
ENDBRANCH 1 2
BRANCH 1 19
ATOM     19  C   HIS C   2      11.447  22.362  30.238  1.00  9.05 LIG 0.24  C 
ATOM     20  N   ALA C   3      10.136  22.339  30.040  1.00  9.24 LIG-0.35  N 
ATOM     21 H    ALA C   3       9.557  22.095  30.627  1.00  9.24 LIG 0.16  HD
ATOM     22 O    HIS C   2      12.241  22.656  29.353  1.00  8.29 LIG-0.27  OA
BRANCH 20 23
ATOM     23  CA  ALA C   3       9.578  22.747  28.754  1.00  8.91 LIG 0.17  C 
ATOM     24  CB  ALA C   3       8.066  22.594  28.756  1.00  9.99 LIG 0.04  C 
BRANCH 23 25
ATOM     25  C   ALA C   3       9.960  24.197  28.449  1.00  9.36 LIG 0.24  C 
ATOM     26  N   ALA C   4      10.426  24.436  27.229  1.00  9.08 LIG-0.35  N 
ATOM     27 H    ALA C   4      10.428  23.856  26.594  1.00  9.08 LIG 0.16  HD
ATOM     28 O    ALA C   3       9.812  25.086  29.299  1.00  9.90 LIG-0.27  OA
BRANCH 26 29
ATOM     29  CA  ALA C   4      10.985  25.736  26.861  1.00  9.70 LIG 0.18  C 
ATOM     30  CB  ALA C   4      11.769  25.620  25.574  1.00  9.53 LIG 0.04  C 
BRANCH 29 31
ATOM     31  C   ALA C   4       9.949  26.837  26.732  1.00 11.00 LIG 0.28  C 
ATOM     32  N   NH2 C   5      10.325  28.062  27.073  1.00 10.22 LIG-0.11  N 
ATOM     33 O    ALA C   4       8.817  26.562  26.359  1.00 13.70 LIG-0.27  OA
ENDBRANCH 29 31
ENDBRANCH 26 29
ENDBRANCH 23 25
ENDBRANCH 20 23
ENDBRANCH 1 19
BRANCH 1 34
ATOM     34  CB  HIS C   2      12.294  23.389  32.308  1.00 12.23 LIG 0.10  C 
BRANCH 34 35
ATOM     35  CG  HIS C   2      11.159  24.044  33.018  1.00 15.24 LIG 0.06  A 
ATOM     36 ND1  HIS C   2      10.087  24.596  32.352  1.00 17.16 LIG-0.24  NA
ATOM     37  CE1 HIS C   2       9.241  25.104  33.230  1.00 17.55 LIG 0.23  A 
ATOM     38 NE2  HIS C   2       9.725  24.899  34.442  1.00 18.01 LIG-0.25  NA
ATOM     39  CD2 HIS C   2      10.923  24.237  34.337  1.00 16.53 LIG 0.14  A 
ENDBRANCH 34 35
ENDBRANCH 1 34
TORSDOF 12
ENDMDL
MODEL 50
USER: ADFR SOLUTION from run 199
USER: SCORE 10.740738 LL:  -2.212 LR:  -9.848 RR:   0.000 FEB:  -6.268
USER: RMSD 4.355510
USER: SEED 198
USER: STATUS no improvement in best in 35 clusters for 5 generations
USER: GENES 14
USER: genes 0 Translation |==|  0.36325 0.46981 0.44231
USER: genes 1 Rotation |==|  0.76641 0.16429 0.63751 0.71775
USER: genes 2 Torsion [CB]-CA--N-[C] |==|  0.55556
USER: genes 3 Torsion [N]-C--CA-[N] |==|  0.79596
USER: genes 4 Torsion [C]-CA--CB-[CG] |==|  0.29579
USER: genes 5 Torsion [CA]-CB--CG-[CD1] |==|  0.30501
USER: genes 6 Torsion [C]-CA--N-[C] |==|  0.74528
USER: genes 7 Torsion [N]-CA--C-[N] |==|  0.31927
USER: genes 8 Torsion [C]-N--CA-[CB] |==|  0.14789
USER: genes 9 Torsion [N]-CA--C-[N] |==|  0.11811
USER: genes 10 Torsion [C]-N--CA-[C] |==|  0.84062
USER: genes 11 Torsion [N]-CA--C-[N] |==|  0.91441
USER: genes 12 Torsion [N]-CA--CB-[CG] |==|  0.72537
USER: genes 13 Torsion [CA]-CB--CG-[CD2] |==|  0.38450
ROOT
ATOM      1  CA  HIS C   2      10.278  21.054  29.736  1.00 10.06 LIG 0.18  C 
ENDROOT
BRANCH 1 2
ATOM      2  N   HIS C   2      11.129  20.281  30.639  1.00  9.48 LIG-0.35  N 
ATOM      3 H    HIS C   2      10.764  19.560  30.933  1.00  9.48 LIG 0.16  HD
ATOM      4  C   PHE C   1      12.355  20.667  30.969  1.00  9.37 LIG 0.24  C 
ATOM      5 O    PHE C   1      12.905  21.651  30.486  1.00 11.27 LIG-0.27  OA
BRANCH 4 6
ATOM      6  CA  PHE C   1      13.053  19.826  32.016  1.00  8.68 LIG 0.18  C 
BRANCH 6 7
ATOM      7  CB  PHE C   1      12.913  18.354  31.628  1.00  8.30 LIG 0.07  C 
BRANCH 7 8
ATOM      8  CG  PHE C   1      14.179  17.745  31.106  1.00  6.80 LIG-0.06  A 
ATOM      9  CD1 PHE C   1      14.873  16.801  31.851  1.00  6.68 LIG 0.01  A 
ATOM     10  CE1 PHE C   1      16.034  16.234  31.358  1.00  6.85 LIG 0.00  A 
ATOM     11  CZ  PHE C   1      16.520  16.613  30.127  1.00  6.56 LIG 0.00  A 
ATOM     12  CE2 PHE C   1      15.844  17.553  29.372  1.00  6.82 LIG 0.00  A 
ATOM     13  CD2 PHE C   1      14.676  18.112  29.863  1.00  7.43 LIG 0.01  A 
ENDBRANCH 7 8
ENDBRANCH 6 7
BRANCH 6 14
ATOM     14  N   PHE C   1      12.491  20.065  33.348  1.00  9.64 LIG-0.35  N 
ATOM     15 H    PHE C   1      11.820  19.564  33.547  1.00  9.64 LIG 0.16  HD
ATOM     16  C   ACE C   0      12.996  20.987  34.160  1.00 12.10 LIG 0.21  C 
ATOM     17  CH3 ACE C   0      12.286  21.179  35.468  1.00 13.09 LIG 0.12  C 
ATOM     18 O    ACE C   0      13.980  21.660  33.851  1.00 13.69 LIG-0.27  OA
ENDBRANCH 6 14
ENDBRANCH 4 6
ENDBRANCH 1 2
BRANCH 1 19
ATOM     19  C   HIS C   2      10.419  22.527  30.056  1.00  9.05 LIG 0.24  C 
ATOM     20  N   ALA C   3      10.961  23.293  29.120  1.00  9.24 LIG-0.35  N 
ATOM     21 H    ALA C   3      11.298  23.002  28.385  1.00  9.24 LIG 0.16  HD
ATOM     22 O    HIS C   2      10.007  22.976  31.119  1.00  8.29 LIG-0.27  OA
BRANCH 20 23
ATOM     23  CA  ALA C   3      11.017  24.741  29.295  1.00  8.91 LIG 0.17  C 
ATOM     24  CB  ALA C   3      11.670  25.095  30.620  1.00  9.99 LIG 0.04  C 
BRANCH 23 25
ATOM     25  C   ALA C   3      11.790  25.382  28.140  1.00  9.36 LIG 0.24  C 
ATOM     26  N   ALA C   4      11.527  24.910  26.926  1.00  9.08 LIG-0.35  N 
ATOM     27 H    ALA C   4      10.895  24.354  26.754  1.00  9.08 LIG 0.16  HD
ATOM     28 O    ALA C   3      12.593  26.303  28.344  1.00  9.90 LIG-0.27  OA
BRANCH 26 29
ATOM     29  CA  ALA C   4      12.313  25.311  25.760  1.00  9.70 LIG 0.18  C 
ATOM     30  CB  ALA C   4      11.809  24.601  24.524  1.00  9.53 LIG 0.04  C 
BRANCH 29 31
ATOM     31  C   ALA C   4      12.333  26.809  25.517  1.00 11.00 LIG 0.28  C 
ATOM     32  N   NH2 C   5      11.259  27.493  25.885  1.00 10.22 LIG-0.11  N 
ATOM     33 O    ALA C   4      13.300  27.321  24.972  1.00 13.70 LIG-0.27  OA
ENDBRANCH 29 31
ENDBRANCH 26 29
ENDBRANCH 23 25
ENDBRANCH 20 23
ENDBRANCH 1 19
BRANCH 1 34
ATOM     34  CB  HIS C   2       8.800  20.680  29.906  1.00 12.23 LIG 0.10  C 
BRANCH 34 35
ATOM     35  CG  HIS C   2       8.292  19.718  28.886  1.00 15.24 LIG 0.06  A 
ATOM     36 ND1  HIS C   2       8.624  19.808  27.553  1.00 17.16 LIG-0.24  NA
ATOM     37  CE1 HIS C   2       8.033  18.831  26.888  1.00 17.55 LIG 0.23  A 
ATOM     38 NE2  HIS C   2       7.331  18.111  27.744  1.00 18.01 LIG-0.25  NA
ATOM     39  CD2 HIS C   2       7.478  18.643  29.001  1.00 16.53 LIG 0.14  A 
ENDBRANCH 34 35
ENDBRANCH 1 34
TORSDOF 12
ENDMDL
MODEL 51
USER: ADFR SOLUTION from run 163
USER: SCORE 10.097284 LL:  -2.467 LR:  -9.851 RR:   0.000 FEB:  -6.272
USER: RMSD 6.663055
USER: SEED 162
USER: STATUS no improvement in best in 32 clusters for 5 generations
USER: GENES 14
USER: genes 0 Translation |==|  0.64576 0.40027 0.59660
USER: genes 1 Rotation |==|  0.68476 0.07856 0.45224 0.68967
USER: genes 2 Torsion [CB]-CA--N-[C] |==|  0.20033
USER: genes 3 Torsion [N]-C--CA-[N] |==|  0.79304
USER: genes 4 Torsion [C]-CA--CB-[CG] |==|  0.28295
USER: genes 5 Torsion [CA]-CB--CG-[CD1] |==|  0.98055
USER: genes 6 Torsion [C]-CA--N-[C] |==|  0.85700
USER: genes 7 Torsion [N]-CA--C-[N] |==|  0.40000
USER: genes 8 Torsion [C]-N--CA-[CB] |==|  0.16897
USER: genes 9 Torsion [N]-CA--C-[N] |==|  0.15845
USER: genes 10 Torsion [C]-N--CA-[C] |==|  0.84009
USER: genes 11 Torsion [N]-CA--C-[N] |==|  0.37463
USER: genes 12 Torsion [N]-CA--CB-[CG] |==|  0.62565
USER: genes 13 Torsion [CA]-CB--CG-[CD2] |==|  0.22028
ROOT
ATOM      1  CA  HIS C   2      14.939  19.594  32.745  1.00 10.06 LIG 0.18  C 
ENDROOT
BRANCH 1 2
ATOM      2  N   HIS C   2      14.989  18.151  32.982  1.00  9.48 LIG-0.35  N 
ATOM      3 H    HIS C   2      15.462  17.925  33.664  1.00  9.48 LIG 0.16  HD
ATOM      4  C   PHE C   1      14.357  17.279  32.208  1.00  9.37 LIG 0.24  C 
ATOM      5 O    PHE C   1      13.618  17.607  31.285  1.00 11.27 LIG-0.27  OA
BRANCH 4 6
ATOM      6  CA  PHE C   1      14.618  15.819  32.508  1.00  8.68 LIG 0.18  C 
BRANCH 6 7
ATOM      7  CB  PHE C   1      14.481  15.602  34.015  1.00  8.30 LIG 0.07  C 
BRANCH 7 8
ATOM      8  CG  PHE C   1      13.179  14.977  34.418  1.00  6.80 LIG-0.06  A 
ATOM      9  CD1 PHE C   1      12.168  14.779  33.488  1.00  6.68 LIG 0.01  A 
ATOM     10  CE1 PHE C   1      10.975  14.191  33.864  1.00  6.85 LIG 0.00  A 
ATOM     11  CZ  PHE C   1      10.773  13.809  35.172  1.00  6.56 LIG 0.00  A 
ATOM     12  CE2 PHE C   1      11.768  14.001  36.112  1.00  6.82 LIG 0.00  A 
ATOM     13  CD2 PHE C   1      12.966  14.581  35.731  1.00  7.43 LIG 0.01  A 
ENDBRANCH 7 8
ENDBRANCH 6 7
BRANCH 6 14
ATOM     14  N   PHE C   1      15.949  15.413  32.047  1.00  9.64 LIG-0.35  N 
ATOM     15 H    PHE C   1      16.426  15.016  32.643  1.00  9.64 LIG 0.16  HD
ATOM     16  C   ACE C   0      16.356  15.651  30.805  1.00 12.10 LIG 0.21  C 
ATOM     17  CH3 ACE C   0      17.765  15.246  30.481  1.00 13.09 LIG 0.12  C 
ATOM     18 O    ACE C   0      15.629  16.191  29.972  1.00 13.69 LIG-0.27  OA
ENDBRANCH 6 14
ENDBRANCH 4 6
ENDBRANCH 1 2
BRANCH 1 19
ATOM     19  C   HIS C   2      15.964  20.279  33.623  1.00  9.05 LIG 0.24  C 
ATOM     20  N   ALA C   3      16.583  21.332  33.108  1.00  9.24 LIG-0.35  N 
ATOM     21 H    ALA C   3      16.496  21.603  32.297  1.00  9.24 LIG 0.16  HD
ATOM     22 O    HIS C   2      16.166  19.890  34.767  1.00  8.29 LIG-0.27  OA
BRANCH 20 23
ATOM     23  CA  ALA C   3      17.491  22.128  33.931  1.00  8.91 LIG 0.17  C 
ATOM     24  CB  ALA C   3      18.647  21.276  34.428  1.00  9.99 LIG 0.04  C 
BRANCH 23 25
ATOM     25  C   ALA C   3      18.021  23.319  33.129  1.00  9.36 LIG 0.24  C 
ATOM     26  N   ALA C   4      17.106  24.138  32.624  1.00  9.08 LIG-0.35  N 
ATOM     27 H    ALA C   4      16.266  24.089  32.803  1.00  9.08 LIG 0.16  HD
ATOM     28 O    ALA C   3      19.237  23.504  32.993  1.00  9.90 LIG-0.27  OA
BRANCH 26 29
ATOM     29  CA  ALA C   4      17.464  25.213  31.700  1.00  9.70 LIG 0.18  C 
ATOM     30  CB  ALA C   4      16.224  25.961  31.265  1.00  9.53 LIG 0.04  C 
BRANCH 29 31
ATOM     31  C   ALA C   4      18.481  26.191  32.259  1.00 11.00 LIG 0.28  C 
ATOM     32  N   NH2 C   5      19.482  26.541  31.462  1.00 10.22 LIG-0.11  N 
ATOM     33 O    ALA C   4      18.368  26.589  33.409  1.00 13.70 LIG-0.27  OA
ENDBRANCH 29 31
ENDBRANCH 26 29
ENDBRANCH 23 25
ENDBRANCH 20 23
ENDBRANCH 1 19
BRANCH 1 34
ATOM     34  CB  HIS C   2      13.562  20.169  33.099  1.00 12.23 LIG 0.10  C 
BRANCH 34 35
ATOM     35  CG  HIS C   2      13.015  21.113  32.083  1.00 15.24 LIG 0.06  A 
ATOM     36 ND1  HIS C   2      13.070  22.481  32.236  1.00 17.16 LIG-0.24  NA
ATOM     37  CE1 HIS C   2      12.512  23.061  31.188  1.00 17.55 LIG 0.23  A 
ATOM     38 NE2  HIS C   2      12.097  22.117  30.361  1.00 18.01 LIG-0.25  NA
ATOM     39  CD2 HIS C   2      12.402  20.891  30.897  1.00 16.53 LIG 0.14  A 
ENDBRANCH 34 35
ENDBRANCH 1 34
TORSDOF 12
ENDMDL
MODEL 52
USER: ADFR SOLUTION from run 175
USER: SCORE 10.523628 LL:  -2.985 LR:  -9.849 RR:   0.000 FEB:  -6.269
USER: RMSD 5.434875
USER: SEED 174
USER: STATUS no improvement in best in 39 clusters for 5 generations
USER: GENES 14
USER: genes 0 Translation |==|  0.62634 0.36472 0.51593
USER: genes 1 Rotation |==|  0.13519 0.76299 0.28443 0.53577
USER: genes 2 Torsion [CB]-CA--N-[C] |==|  0.54446
USER: genes 3 Torsion [N]-C--CA-[N] |==|  0.43737
USER: genes 4 Torsion [C]-CA--CB-[CG] |==|  0.15143
USER: genes 5 Torsion [CA]-CB--CG-[CD1] |==|  0.62857
USER: genes 6 Torsion [C]-CA--N-[C] |==|  0.77259
USER: genes 7 Torsion [N]-CA--C-[N] |==|  0.32759
USER: genes 8 Torsion [C]-N--CA-[CB] |==|  0.35422
USER: genes 9 Torsion [N]-CA--C-[N] |==|  0.34276
USER: genes 10 Torsion [C]-N--CA-[C] |==|  0.78304
USER: genes 11 Torsion [N]-CA--C-[N] |==|  0.40184
USER: genes 12 Torsion [N]-CA--CB-[CG] |==|  0.81385
USER: genes 13 Torsion [CA]-CB--CG-[CD2] |==|  0.20967
ROOT
ATOM      1  CA  HIS C   2      14.619  18.847  31.172  1.00 10.06 LIG 0.18  C 
ENDROOT
BRANCH 1 2
ATOM      2  N   HIS C   2      15.350  18.344  32.334  1.00  9.48 LIG-0.35  N 
ATOM      3 H    HIS C   2      15.627  17.534  32.249  1.00  9.48 LIG 0.16  HD
ATOM      4  C   PHE C   1      15.559  19.080  33.418  1.00  9.37 LIG 0.24  C 
ATOM      5 O    PHE C   1      15.234  20.259  33.506  1.00 11.27 LIG-0.27  OA
BRANCH 4 6
ATOM      6  CA  PHE C   1      16.215  18.369  34.582  1.00  8.68 LIG 0.18  C 
BRANCH 6 7
ATOM      7  CB  PHE C   1      15.145  17.573  35.329  1.00  8.30 LIG 0.07  C 
BRANCH 7 8
ATOM      8  CG  PHE C   1      14.373  16.631  34.454  1.00  6.80 LIG-0.06  A 
ATOM      9  CD1 PHE C   1      12.988  16.565  34.530  1.00  6.68 LIG 0.01  A 
ATOM     10  CE1 PHE C   1      12.282  15.703  33.712  1.00  6.85 LIG 0.00  A 
ATOM     11  CZ  PHE C   1      12.948  14.888  32.824  1.00  6.56 LIG 0.00  A 
ATOM     12  CE2 PHE C   1      14.327  14.938  32.738  1.00  6.82 LIG 0.00  A 
ATOM     13  CD2 PHE C   1      15.032  15.810  33.550  1.00  7.43 LIG 0.01  A 
ENDBRANCH 7 8
ENDBRANCH 6 7
BRANCH 6 14
ATOM     14  N   PHE C   1      16.873  19.320  35.481  1.00  9.64 LIG-0.35  N 
ATOM     15 H    PHE C   1      16.410  19.534  36.174  1.00  9.64 LIG 0.16  HD
ATOM     16  C   ACE C   0      18.086  19.796  35.222  1.00 12.10 LIG 0.21  C 
ATOM     17  CH3 ACE C   0      18.618  20.816  36.187  1.00 13.09 LIG 0.12  C 
ATOM     18 O    ACE C   0      18.731  19.438  34.236  1.00 13.69 LIG-0.27  OA
ENDBRANCH 6 14
ENDBRANCH 4 6
ENDBRANCH 1 2
BRANCH 1 19
ATOM     19  C   HIS C   2      13.369  19.562  31.640  1.00  9.05 LIG 0.24  C 
ATOM     20  N   ALA C   3      13.275  20.852  31.351  1.00  9.24 LIG-0.35  N 
ATOM     21 H    ALA C   3      13.899  21.319  30.987  1.00  9.24 LIG 0.16  HD
ATOM     22 O    HIS C   2      12.480  18.949  32.218  1.00  8.29 LIG-0.27  OA
BRANCH 20 23
ATOM     23  CA  ALA C   3      12.049  21.587  31.652  1.00  8.91 LIG 0.17  C 
ATOM     24  CB  ALA C   3      12.359  22.835  32.460  1.00  9.99 LIG 0.04  C 
BRANCH 23 25
ATOM     25  C   ALA C   3      11.330  21.964  30.354  1.00  9.36 LIG 0.24  C 
ATOM     26  N   ALA C   4      10.076  21.545  30.237  1.00  9.08 LIG-0.35  N 
ATOM     27 H    ALA C   4       9.632  21.172  30.873  1.00  9.08 LIG 0.16  HD
ATOM     28 O    ALA C   3      11.896  22.644  29.488  1.00  9.90 LIG-0.27  OA
BRANCH 26 29
ATOM     29  CA  ALA C   4       9.332  21.687  28.986  1.00  9.70 LIG 0.18  C 
ATOM     30  CB  ALA C   4       8.192  20.697  28.942  1.00  9.53 LIG 0.04  C 
BRANCH 29 31
ATOM     31  C   ALA C   4       8.802  23.088  28.742  1.00 11.00 LIG 0.28  C 
ATOM     32  N   NH2 C   5       8.784  23.515  27.486  1.00 10.22 LIG-0.11  N 
ATOM     33 O    ALA C   4       8.450  23.776  29.689  1.00 13.70 LIG-0.27  OA
ENDBRANCH 29 31
ENDBRANCH 26 29
ENDBRANCH 23 25
ENDBRANCH 20 23
ENDBRANCH 1 19
BRANCH 1 34
ATOM     34  CB  HIS C   2      14.183  17.702  30.249  1.00 12.23 LIG 0.10  C 
BRANCH 34 35
ATOM     35  CG  HIS C   2      15.311  16.996  29.578  1.00 15.24 LIG 0.06  A 
ATOM     36 ND1  HIS C   2      15.621  17.188  28.249  1.00 17.16 LIG-0.24  NA
ATOM     37  CE1 HIS C   2      16.659  16.436  27.929  1.00 17.55 LIG 0.23  A 
ATOM     38 NE2  HIS C   2      17.034  15.765  29.002  1.00 18.01 LIG-0.25  NA
ATOM     39  CD2 HIS C   2      16.208  16.098  30.047  1.00 16.53 LIG 0.14  A 
ENDBRANCH 34 35
ENDBRANCH 1 34
TORSDOF 12
ENDMDL
MODEL 53
USER: ADFR SOLUTION from run 17
USER: SCORE 11.074120 LL:  -2.375 LR:  -9.840 RR:   0.000 FEB:  -6.260
USER: RMSD 8.149234
USER: SEED 16
USER: STATUS no improvement in best in 11 clusters for 5 generations
USER: GENES 14
USER: genes 0 Translation |==|  0.41640 0.57137 0.40507
USER: genes 1 Rotation |==|  0.46487 0.01338 0.50554 0.60923
USER: genes 2 Torsion [CB]-CA--N-[C] |==|  0.16516
USER: genes 3 Torsion [N]-C--CA-[N] |==|  0.42969
USER: genes 4 Torsion [C]-CA--CB-[CG] |==|  0.71912
USER: genes 5 Torsion [CA]-CB--CG-[CD1] |==|  0.28755
USER: genes 6 Torsion [C]-CA--N-[C] |==|  0.65320
USER: genes 7 Torsion [N]-CA--C-[N] |==|  0.71064
USER: genes 8 Torsion [C]-N--CA-[CB] |==|  0.84366
USER: genes 9 Torsion [N]-CA--C-[N] |==|  0.46667
USER: genes 10 Torsion [C]-N--CA-[C] |==|  0.77598
USER: genes 11 Torsion [N]-CA--C-[N] |==|  0.97603
USER: genes 12 Torsion [N]-CA--CB-[CG] |==|  0.62772
USER: genes 13 Torsion [CA]-CB--CG-[CD2] |==|  0.42513
ROOT
ATOM      1  CA  HIS C   2      11.155  23.187  29.010  1.00 10.06 LIG 0.18  C 
ENDROOT
BRANCH 1 2
ATOM      2  N   HIS C   2      10.043  22.409  29.557  1.00  9.48 LIG-0.35  N 
ATOM      3 H    HIS C   2      10.146  22.185  30.381  1.00  9.48 LIG 0.16  HD
ATOM      4  C   PHE C   1       8.978  22.085  28.838  1.00  9.37 LIG 0.24  C 
ATOM      5 O    PHE C   1       8.795  22.473  27.689  1.00 11.27 LIG-0.27  OA
BRANCH 4 6
ATOM      6  CA  PHE C   1       7.981  21.166  29.511  1.00  8.68 LIG 0.18  C 
BRANCH 6 7
ATOM      7  CB  PHE C   1       8.458  19.725  29.340  1.00  8.30 LIG 0.07  C 
BRANCH 7 8
ATOM      8  CG  PHE C   1       7.742  18.977  28.255  1.00  6.80 LIG-0.06  A 
ATOM      9  CD1 PHE C   1       8.351  18.750  27.028  1.00  6.68 LIG 0.01  A 
ATOM     10  CE1 PHE C   1       7.690  18.050  26.037  1.00  6.85 LIG 0.00  A 
ATOM     11  CZ  PHE C   1       6.413  17.582  26.253  1.00  6.56 LIG 0.00  A 
ATOM     12  CE2 PHE C   1       5.790  17.802  27.467  1.00  6.82 LIG 0.00  A 
ATOM     13  CD2 PHE C   1       6.458  18.494  28.463  1.00  7.43 LIG 0.01  A 
ENDBRANCH 7 8
ENDBRANCH 6 7
BRANCH 6 14
ATOM     14  N   PHE C   1       6.639  21.336  28.948  1.00  9.64 LIG-0.35  N 
ATOM     15 H    PHE C   1       6.595  21.234  28.095  1.00  9.64 LIG 0.16  HD
ATOM     16  C   ACE C   0       5.595  21.625  29.717  1.00 12.10 LIG 0.21  C 
ATOM     17  CH3 ACE C   0       4.289  21.841  29.008  1.00 13.09 LIG 0.12  C 
ATOM     18 O    ACE C   0       5.693  21.729  30.940  1.00 13.69 LIG-0.27  OA
ENDBRANCH 6 14
ENDBRANCH 4 6
ENDBRANCH 1 2
BRANCH 1 19
ATOM     19  C   HIS C   2      12.183  23.419  30.096  1.00  9.05 LIG 0.24  C 
ATOM     20  N   ALA C   3      12.220  24.630  30.635  1.00  9.24 LIG-0.35  N 
ATOM     21 H    ALA C   3      11.757  25.301  30.362  1.00  9.24 LIG 0.16  HD
ATOM     22 O    HIS C   2      12.908  22.507  30.475  1.00  8.29 LIG-0.27  OA
BRANCH 20 23
ATOM     23  CA  ALA C   3      13.092  24.903  31.774  1.00  8.91 LIG 0.17  C 
ATOM     24  CB  ALA C   3      12.788  23.952  32.919  1.00  9.99 LIG 0.04  C 
BRANCH 23 25
ATOM     25  C   ALA C   3      14.559  24.775  31.358  1.00  9.36 LIG 0.24  C 
ATOM     26  N   ALA C   4      15.455  25.234  32.224  1.00  9.08 LIG-0.35  N 
ATOM     27 H    ALA C   4      15.263  25.498  33.020  1.00  9.08 LIG 0.16  HD
ATOM     28 O    ALA C   3      14.872  24.248  30.282  1.00  9.90 LIG-0.27  OA
BRANCH 26 29
ATOM     29  CA  ALA C   4      16.874  25.330  31.882  1.00  9.70 LIG 0.18  C 
ATOM     30  CB  ALA C   4      17.545  26.380  32.737  1.00  9.53 LIG 0.04  C 
BRANCH 29 31
ATOM     31  C   ALA C   4      17.625  24.017  32.002  1.00 11.00 LIG 0.28  C 
ATOM     32  N   NH2 C   5      16.978  23.001  32.558  1.00 10.22 LIG-0.11  N 
ATOM     33 O    ALA C   4      18.786  23.947  31.624  1.00 13.70 LIG-0.27  OA
ENDBRANCH 29 31
ENDBRANCH 26 29
ENDBRANCH 23 25
ENDBRANCH 20 23
ENDBRANCH 1 19
BRANCH 1 34
ATOM     34  CB  HIS C   2      10.683  24.559  28.513  1.00 12.23 LIG 0.10  C 
BRANCH 34 35
ATOM     35  CG  HIS C   2      11.208  24.936  27.170  1.00 15.24 LIG 0.06  A 
ATOM     36 ND1  HIS C   2      12.399  24.450  26.677  1.00 17.16 LIG-0.24  NA
ATOM     37  CE1 HIS C   2      12.610  24.952  25.472  1.00 17.55 LIG 0.23  A 
ATOM     38 NE2  HIS C   2      11.599  25.744  25.168  1.00 18.01 LIG-0.25  NA
ATOM     39  CD2 HIS C   2      10.708  25.750  26.212  1.00 16.53 LIG 0.14  A 
ENDBRANCH 34 35
ENDBRANCH 1 34
TORSDOF 12
ENDMDL
MODEL 54
USER: ADFR SOLUTION from run 87
USER: SCORE 11.411868 LL:  -2.603 LR:  -9.825 RR:   0.000 FEB:  -6.246
USER: RMSD 7.234829
USER: SEED 86
USER: STATUS no improvement in best in 10 clusters for 5 generations
USER: GENES 14
USER: genes 0 Translation |==|  0.27375 0.61846 0.34485
USER: genes 1 Rotation |==|  0.62833 0.16770 0.47866 0.85022
USER: genes 2 Torsion [CB]-CA--N-[C] |==|  0.14058
USER: genes 3 Torsion [N]-C--CA-[N] |==|  0.20716
USER: genes 4 Torsion [C]-CA--CB-[CG] |==|  0.23524
USER: genes 5 Torsion [CA]-CB--CG-[CD1] |==|  0.58525
USER: genes 6 Torsion [C]-CA--N-[C] |==|  0.77778
USER: genes 7 Torsion [N]-CA--C-[N] |==|  0.11382
USER: genes 8 Torsion [C]-N--CA-[CB] |==|  0.53854
USER: genes 9 Torsion [N]-CA--C-[N] |==|  0.33425
USER: genes 10 Torsion [C]-N--CA-[C] |==|  0.53892
USER: genes 11 Torsion [N]-CA--C-[N] |==|  0.45381
USER: genes 12 Torsion [N]-CA--CB-[CG] |==|  0.56834
USER: genes 13 Torsion [CA]-CB--CG-[CD2] |==|  0.40728
ROOT
ATOM      1  CA  HIS C   2       8.801  24.176  27.836  1.00 10.06 LIG 0.18  C 
ENDROOT
BRANCH 1 2
ATOM      2  N   HIS C   2       9.220  22.920  28.457  1.00  9.48 LIG-0.35  N 
ATOM      3 H    HIS C   2      10.071  22.798  28.461  1.00  9.48 LIG 0.16  HD
ATOM      4  C   PHE C   1       8.354  22.053  28.967  1.00  9.37 LIG 0.24  C 
ATOM      5 O    PHE C   1       7.148  22.265  29.034  1.00 11.27 LIG-0.27  OA
BRANCH 4 6
ATOM      6  CA  PHE C   1       8.939  20.744  29.452  1.00  8.68 LIG 0.18  C 
BRANCH 6 7
ATOM      7  CB  PHE C   1       7.802  19.736  29.612  1.00  8.30 LIG 0.07  C 
BRANCH 7 8
ATOM      8  CG  PHE C   1       7.444  19.023  28.342  1.00  6.80 LIG-0.06  A 
ATOM      9  CD1 PHE C   1       6.144  18.596  28.110  1.00  6.68 LIG 0.01  A 
ATOM     10  CE1 PHE C   1       5.818  17.950  26.932  1.00  6.85 LIG 0.00  A 
ATOM     11  CZ  PHE C   1       6.786  17.711  25.982  1.00  6.56 LIG 0.00  A 
ATOM     12  CE2 PHE C   1       8.087  18.127  26.198  1.00  6.82 LIG 0.00  A 
ATOM     13  CD2 PHE C   1       8.409  18.783  27.374  1.00  7.43 LIG 0.01  A 
ENDBRANCH 7 8
ENDBRANCH 6 7
BRANCH 6 14
ATOM     14  N   PHE C   1       9.655  20.921  30.718  1.00  9.64 LIG-0.35  N 
ATOM     15 H    PHE C   1       9.209  20.685  31.415  1.00  9.64 LIG 0.16  HD
ATOM     16  C   ACE C   0      10.890  21.408  30.755  1.00 12.10 LIG 0.21  C 
ATOM     17  CH3 ACE C   0      11.485  21.603  32.120  1.00 13.09 LIG 0.12  C 
ATOM     18 O    ACE C   0      11.508  21.701  29.731  1.00 13.69 LIG-0.27  OA
ENDBRANCH 6 14
ENDBRANCH 4 6
ENDBRANCH 1 2
BRANCH 1 19
ATOM     19  C   HIS C   2      10.018  25.044  27.597  1.00  9.05 LIG 0.24  C 
ATOM     20  N   ALA C   3      11.109  24.435  27.154  1.00  9.24 LIG-0.35  N 
ATOM     21 H    ALA C   3      11.192  23.584  27.064  1.00  9.24 LIG 0.16  HD
ATOM     22 O    HIS C   2       9.964  26.255  27.771  1.00  8.29 LIG-0.27  OA
BRANCH 20 23
ATOM     23  CA  ALA C   3      12.285  25.213  26.777  1.00  8.91 LIG 0.17  C 
ATOM     24  CB  ALA C   3      13.264  24.356  25.993  1.00  9.99 LIG 0.04  C 
BRANCH 23 25
ATOM     25  C   ALA C   3      11.868  26.429  25.946  1.00  9.36 LIG 0.24  C 
ATOM     26  N   ALA C   4      12.194  27.617  26.443  1.00  9.08 LIG-0.35  N 
ATOM     27 H    ALA C   4      12.697  27.728  27.131  1.00  9.08 LIG 0.16  HD
ATOM     28 O    ALA C   3      11.283  26.290  24.864  1.00  9.90 LIG-0.27  OA
BRANCH 26 29
ATOM     29  CA  ALA C   4      11.710  28.859  25.842  1.00  9.70 LIG 0.18  C 
ATOM     30  CB  ALA C   4      10.226  29.013  26.088  1.00  9.53 LIG 0.04  C 
BRANCH 29 31
ATOM     31  C   ALA C   4      12.439  30.100  26.323  1.00 11.00 LIG 0.28  C 
ATOM     32  N   NH2 C   5      12.302  31.200  25.595  1.00 10.22 LIG-0.11  N 
ATOM     33 O    ALA C   4      13.141  30.040  27.323  1.00 13.70 LIG-0.27  OA
ENDBRANCH 29 31
ENDBRANCH 26 29
ENDBRANCH 23 25
ENDBRANCH 20 23
ENDBRANCH 1 19
BRANCH 1 34
ATOM     34  CB  HIS C   2       7.843  24.955  28.745  1.00 12.23 LIG 0.10  C 
BRANCH 34 35
ATOM     35  CG  HIS C   2       6.942  25.896  28.019  1.00 15.24 LIG 0.06  A 
ATOM     36 ND1  HIS C   2       7.329  26.560  26.877  1.00 17.16 LIG-0.24  NA
ATOM     37  CE1 HIS C   2       6.335  27.321  26.455  1.00 17.55 LIG 0.23  A 
ATOM     38 NE2  HIS C   2       5.317  27.173  27.284  1.00 18.01 LIG-0.25  NA
ATOM     39  CD2 HIS C   2       5.670  26.285  28.270  1.00 16.53 LIG 0.14  A 
ENDBRANCH 34 35
ENDBRANCH 1 34
TORSDOF 12
ENDMDL
MODEL 55
USER: ADFR SOLUTION from run 85
USER: SCORE 11.922665 LL:  -3.180 LR:  -9.824 RR:   0.000 FEB:  -6.244
USER: RMSD 8.019323
USER: SEED 84
USER: STATUS no improvement in best in 22 clusters for 5 generations
USER: GENES 14
USER: genes 0 Translation |==|  0.71623 0.40094 0.67610
USER: genes 1 Rotation |==|  0.54956 0.91088 0.68826 0.70805
USER: genes 2 Torsion [CB]-CA--N-[C] |==|  0.52354
USER: genes 3 Torsion [N]-C--CA-[N] |==|  0.90361
USER: genes 4 Torsion [C]-CA--CB-[CG] |==|  0.23673
USER: genes 5 Torsion [CA]-CB--CG-[CD1] |==|  0.85952
USER: genes 6 Torsion [C]-CA--N-[C] |==|  0.81742
USER: genes 7 Torsion [N]-CA--C-[N] |==|  0.35000
USER: genes 8 Torsion [C]-N--CA-[CB] |==|  0.88269
USER: genes 9 Torsion [N]-CA--C-[N] |==|  0.87296
USER: genes 10 Torsion [C]-N--CA-[C] |==|  0.69751
USER: genes 11 Torsion [N]-CA--C-[N] |==|  0.04492
USER: genes 12 Torsion [N]-CA--CB-[CG] |==|  0.80788
USER: genes 13 Torsion [CA]-CB--CG-[CD2] |==|  0.77939
ROOT
ATOM      1  CA  HIS C   2      16.102  19.608  34.295  1.00 10.06 LIG 0.18  C 
ENDROOT
BRANCH 1 2
ATOM      2  N   HIS C   2      15.515  19.466  32.963  1.00  9.48 LIG-0.35  N 
ATOM      3 H    HIS C   2      15.384  20.212  32.557  1.00  9.48 LIG 0.16  HD
ATOM      4  C   PHE C   1      15.216  18.285  32.437  1.00  9.37 LIG 0.24  C 
ATOM      5 O    PHE C   1      15.479  17.218  32.983  1.00 11.27 LIG-0.27  OA
BRANCH 4 6
ATOM      6  CA  PHE C   1      14.494  18.318  31.108  1.00  8.68 LIG 0.18  C 
BRANCH 6 7
ATOM      7  CB  PHE C   1      15.536  18.385  29.992  1.00  8.30 LIG 0.07  C 
BRANCH 7 8
ATOM      8  CG  PHE C   1      16.064  17.044  29.577  1.00  6.80 LIG-0.06  A 
ATOM      9  CD1 PHE C   1      16.537  16.144  30.523  1.00  6.68 LIG 0.01  A 
ATOM     10  CE1 PHE C   1      17.011  14.905  30.135  1.00  6.85 LIG 0.00  A 
ATOM     11  CZ  PHE C   1      17.033  14.557  28.803  1.00  6.56 LIG 0.00  A 
ATOM     12  CE2 PHE C   1      16.569  15.443  27.847  1.00  6.82 LIG 0.00  A 
ATOM     13  CD2 PHE C   1      16.084  16.679  28.239  1.00  7.43 LIG 0.01  A 
ENDBRANCH 7 8
ENDBRANCH 6 7
BRANCH 6 14
ATOM     14  N   PHE C   1      13.579  19.459  31.030  1.00  9.64 LIG-0.35  N 
ATOM     15 H    PHE C   1      13.793  20.048  30.440  1.00  9.64 LIG 0.16  HD
ATOM     16  C   ACE C   0      12.514  19.551  31.819  1.00 12.10 LIG 0.21  C 
ATOM     17  CH3 ACE C   0      11.697  20.804  31.686  1.00 13.09 LIG 0.12  C 
ATOM     18 O    ACE C   0      12.223  18.670  32.627  1.00 13.69 LIG-0.27  OA
ENDBRANCH 6 14
ENDBRANCH 4 6
ENDBRANCH 1 2
BRANCH 1 19
ATOM     19  C   HIS C   2      15.250  18.859  35.297  1.00  9.05 LIG 0.24  C 
ATOM     20  N   ALA C   3      15.867  17.966  36.057  1.00  9.24 LIG-0.35  N 
ATOM     21 H    ALA C   3      16.691  17.735  35.970  1.00  9.24 LIG 0.16  HD
ATOM     22 O    HIS C   2      14.056  19.111  35.414  1.00  8.29 LIG-0.27  OA
BRANCH 20 23
ATOM     23  CA  ALA C   3      15.148  17.292  37.135  1.00  8.91 LIG 0.17  C 
ATOM     24  CB  ALA C   3      14.272  18.277  37.890  1.00  9.99 LIG 0.04  C 
BRANCH 23 25
ATOM     25  C   ALA C   3      14.295  16.154  36.570  1.00  9.36 LIG 0.24  C 
ATOM     26  N   ALA C   4      13.581  16.440  35.487  1.00  9.08 LIG-0.35  N 
ATOM     27 H    ALA C   4      13.650  17.175  35.046  1.00  9.08 LIG 0.16  HD
ATOM     28 O    ALA C   3      14.304  15.032  37.093  1.00  9.90 LIG-0.27  OA
BRANCH 26 29
ATOM     29  CA  ALA C   4      12.598  15.502  34.946  1.00  9.70 LIG 0.18  C 
ATOM     30  CB  ALA C   4      11.263  16.191  34.773  1.00  9.53 LIG 0.04  C 
BRANCH 29 31
ATOM     31  C   ALA C   4      13.016  14.860  33.636  1.00 11.00 LIG 0.28  C 
ATOM     32  N   NH2 C   5      14.297  14.943  33.307  1.00 10.22 LIG-0.11  N 
ATOM     33 O    ALA C   4      12.173  14.330  32.926  1.00 13.70 LIG-0.27  OA
ENDBRANCH 29 31
ENDBRANCH 26 29
ENDBRANCH 23 25
ENDBRANCH 20 23
ENDBRANCH 1 19
BRANCH 1 34
ATOM     34  CB  HIS C   2      16.148  21.078  34.729  1.00 12.23 LIG 0.10  C 
BRANCH 34 35
ATOM     35  CG  HIS C   2      17.118  21.911  33.962  1.00 15.24 LIG 0.06  A 
ATOM     36 ND1  HIS C   2      16.730  22.747  32.938  1.00 17.16 LIG-0.24  NA
ATOM     37  CE1 HIS C   2      17.793  23.355  32.443  1.00 17.55 LIG 0.23  A 
ATOM     38 NE2  HIS C   2      18.857  22.943  33.110  1.00 18.01 LIG-0.25  NA
ATOM     39  CD2 HIS C   2      18.461  22.041  34.066  1.00 16.53 LIG 0.14  A 
ENDBRANCH 34 35
ENDBRANCH 1 34
TORSDOF 12
ENDMDL
MODEL 56
USER: ADFR SOLUTION from run 137
USER: SCORE 10.425143 LL:  -2.548 LR:  -9.799 RR:   0.000 FEB:  -6.219
USER: RMSD 6.724399
USER: SEED 136
USER: STATUS no improvement in best in 17 clusters for 5 generations
USER: GENES 14
USER: genes 0 Translation |==|  0.40255 0.60505 0.42800
USER: genes 1 Rotation |==|  0.55951 0.62982 0.16364 0.84128
USER: genes 2 Torsion [CB]-CA--N-[C] |==|  0.24877
USER: genes 3 Torsion [N]-C--CA-[N] |==|  0.78750
USER: genes 4 Torsion [C]-CA--CB-[CG] |==|  0.46802
USER: genes 5 Torsion [CA]-CB--CG-[CD1] |==|  0.01405
USER: genes 6 Torsion [C]-CA--N-[C] |==|  0.72222
USER: genes 7 Torsion [N]-CA--C-[N] |==|  0.85502
USER: genes 8 Torsion [C]-N--CA-[CB] |==|  0.88830
USER: genes 9 Torsion [N]-CA--C-[N] |==|  0.89537
USER: genes 10 Torsion [C]-N--CA-[C] |==|  0.58917
USER: genes 11 Torsion [N]-CA--C-[N] |==|  0.43902
USER: genes 12 Torsion [N]-CA--CB-[CG] |==|  0.79038
USER: genes 13 Torsion [CA]-CB--CG-[CD2] |==|  0.75845
ROOT
ATOM      1  CA  HIS C   2      10.926  23.894  29.457  1.00 10.06 LIG 0.18  C 
ENDROOT
BRANCH 1 2
ATOM      2  N   HIS C   2       9.950  22.890  29.036  1.00  9.48 LIG-0.35  N 
ATOM      3 H    HIS C   2       9.844  22.840  28.184  1.00  9.48 LIG 0.16  HD
ATOM      4  C   PHE C   1       9.292  22.128  29.900  1.00  9.37 LIG 0.24  C 
ATOM      5 O    PHE C   1       9.503  22.143  31.109  1.00 11.27 LIG-0.27  OA
BRANCH 4 6
ATOM      6  CA  PHE C   1       8.223  21.234  29.312  1.00  8.68 LIG 0.18  C 
BRANCH 6 7
ATOM      7  CB  PHE C   1       8.789  20.556  28.065  1.00  8.30 LIG 0.07  C 
BRANCH 7 8
ATOM      8  CG  PHE C   1       7.933  19.441  27.542  1.00  6.80 LIG-0.06  A 
ATOM      9  CD1 PHE C   1       6.696  19.170  28.111  1.00  6.68 LIG 0.01  A 
ATOM     10  CE1 PHE C   1       5.906  18.149  27.616  1.00  6.85 LIG 0.00  A 
ATOM     11  CZ  PHE C   1       6.348  17.380  26.562  1.00  6.56 LIG 0.00  A 
ATOM     12  CE2 PHE C   1       7.579  17.634  25.986  1.00  6.82 LIG 0.00  A 
ATOM     13  CD2 PHE C   1       8.363  18.665  26.476  1.00  7.43 LIG 0.01  A 
ENDBRANCH 7 8
ENDBRANCH 6 7
BRANCH 6 14
ATOM     14  N   PHE C   1       7.016  21.998  28.981  1.00  9.64 LIG-0.35  N 
ATOM     15 H    PHE C   1       7.061  22.430  28.238  1.00  9.64 LIG 0.16  HD
ATOM     16  C   ACE C   0       5.956  22.003  29.782  1.00 12.10 LIG 0.21  C 
ATOM     17  CH3 ACE C   0       4.813  22.880  29.361  1.00 13.09 LIG 0.12  C 
ATOM     18 O    ACE C   0       5.919  21.342  30.820  1.00 13.69 LIG-0.27  OA
ENDBRANCH 6 14
ENDBRANCH 4 6
ENDBRANCH 1 2
BRANCH 1 19
ATOM     19  C   HIS C   2      10.970  25.007  28.432  1.00  9.05 LIG 0.24  C 
ATOM     20  N   ALA C   3      11.153  24.648  27.169  1.00  9.24 LIG-0.35  N 
ATOM     21 H    ALA C   3      11.317  23.846  26.906  1.00  9.24 LIG 0.16  HD
ATOM     22 O    HIS C   2      10.801  26.173  28.768  1.00  8.29 LIG-0.27  OA
BRANCH 20 23
ATOM     23  CA  ALA C   3      11.080  25.643  26.102  1.00  8.91 LIG 0.17  C 
ATOM     24  CB  ALA C   3       9.948  26.623  26.362  1.00  9.99 LIG 0.04  C 
BRANCH 23 25
ATOM     25  C   ALA C   3      12.409  26.393  25.989  1.00  9.36 LIG 0.24  C 
ATOM     26  N   ALA C   4      13.031  26.659  27.132  1.00  9.08 LIG-0.35  N 
ATOM     27 H    ALA C   4      12.782  26.354  27.896  1.00  9.08 LIG 0.16  HD
ATOM     28 O    ALA C   3      12.873  26.703  24.883  1.00  9.90 LIG-0.27  OA
BRANCH 26 29
ATOM     29  CA  ALA C   4      14.216  27.514  27.180  1.00  9.70 LIG 0.18  C 
ATOM     30  CB  ALA C   4      13.809  28.960  27.343  1.00  9.53 LIG 0.04  C 
BRANCH 29 31
ATOM     31  C   ALA C   4      15.203  27.135  28.269  1.00 11.00 LIG 0.28  C 
ATOM     32  N   NH2 C   5      16.457  27.536  28.111  1.00 10.22 LIG-0.11  N 
ATOM     33 O    ALA C   4      14.828  26.460  29.218  1.00 13.70 LIG-0.27  OA
ENDBRANCH 29 31
ENDBRANCH 26 29
ENDBRANCH 23 25
ENDBRANCH 20 23
ENDBRANCH 1 19
BRANCH 1 34
ATOM     34  CB  HIS C   2      12.334  23.295  29.556  1.00 12.23 LIG 0.10  C 
BRANCH 34 35
ATOM     35  CG  HIS C   2      12.551  22.440  30.758  1.00 15.24 LIG 0.06  A 
ATOM     36 ND1  HIS C   2      12.366  21.076  30.740  1.00 17.16 LIG-0.24  NA
ATOM     37  CE1 HIS C   2      12.628  20.583  31.938  1.00 17.55 LIG 0.23  A 
ATOM     38 NE2  HIS C   2      12.978  21.580  32.731  1.00 18.01 LIG-0.25  NA
ATOM     39  CD2 HIS C   2      12.940  22.751  32.016  1.00 16.53 LIG 0.14  A 
ENDBRANCH 34 35
ENDBRANCH 1 34
TORSDOF 12
ENDMDL
MODEL 57
USER: ADFR SOLUTION from run 173
USER: SCORE 11.198890 LL:  -2.793 LR:  -9.801 RR:   0.000 FEB:  -6.222
USER: RMSD 5.398911
USER: SEED 172
USER: STATUS no improvement in best in 14 clusters for 5 generations
USER: GENES 14
USER: genes 0 Translation |==|  0.55408 0.42862 0.56405
USER: genes 1 Rotation |==|  0.83080 0.23041 0.54527 0.75660
USER: genes 2 Torsion [CB]-CA--N-[C] |==|  0.87532
USER: genes 3 Torsion [N]-C--CA-[N] |==|  0.44196
USER: genes 4 Torsion [C]-CA--CB-[CG] |==|  0.27292
USER: genes 5 Torsion [CA]-CB--CG-[CD1] |==|  0.81840
USER: genes 6 Torsion [C]-CA--N-[C] |==|  0.72098
USER: genes 7 Torsion [N]-CA--C-[N] |==|  0.31153
USER: genes 8 Torsion [C]-N--CA-[CB] |==|  0.85515
USER: genes 9 Torsion [N]-CA--C-[N] |==|  0.00547
USER: genes 10 Torsion [C]-N--CA-[C] |==|  0.71550
USER: genes 11 Torsion [N]-CA--C-[N] |==|  0.02672
USER: genes 12 Torsion [N]-CA--CB-[CG] |==|  0.57831
USER: genes 13 Torsion [CA]-CB--CG-[CD2] |==|  0.56447
ROOT
ATOM      1  CA  HIS C   2      13.426  20.189  32.110  1.00 10.06 LIG 0.18  C 
ENDROOT
BRANCH 1 2
ATOM      2  N   HIS C   2      14.649  19.416  32.325  1.00  9.48 LIG-0.35  N 
ATOM      3 H    HIS C   2      15.108  19.281  31.610  1.00  9.48 LIG 0.16  HD
ATOM      4  C   PHE C   1      15.009  18.968  33.520  1.00  9.37 LIG 0.24  C 
ATOM      5 O    PHE C   1      14.397  19.229  34.550  1.00 11.27 LIG-0.27  OA
BRANCH 4 6
ATOM      6  CA  PHE C   1      16.229  18.073  33.550  1.00  8.68 LIG 0.18  C 
BRANCH 6 7
ATOM      7  CB  PHE C   1      15.813  16.671  33.108  1.00  8.30 LIG 0.07  C 
BRANCH 7 8
ATOM      8  CG  PHE C   1      16.105  16.381  31.666  1.00  6.80 LIG-0.06  A 
ATOM      9  CD1 PHE C   1      15.455  17.077  30.656  1.00  6.68 LIG 0.01  A 
ATOM     10  CE1 PHE C   1      15.738  16.813  29.329  1.00  6.85 LIG 0.00  A 
ATOM     11  CZ  PHE C   1      16.659  15.845  28.996  1.00  6.56 LIG 0.00  A 
ATOM     12  CE2 PHE C   1      17.313  15.140  29.989  1.00  6.82 LIG 0.00  A 
ATOM     13  CD2 PHE C   1      17.037  15.413  31.318  1.00  7.43 LIG 0.01  A 
ENDBRANCH 7 8
ENDBRANCH 6 7
BRANCH 6 14
ATOM     14  N   PHE C   1      16.827  18.037  34.887  1.00  9.64 LIG-0.35  N 
ATOM     15 H    PHE C   1      16.427  17.516  35.442  1.00  9.64 LIG 0.16  HD
ATOM     16  C   ACE C   0      17.900  18.761  35.188  1.00 12.10 LIG 0.21  C 
ATOM     17  CH3 ACE C   0      18.371  18.687  36.612  1.00 13.09 LIG 0.12  C 
ATOM     18 O    ACE C   0      18.465  19.469  34.354  1.00 13.69 LIG-0.27  OA
ENDBRANCH 6 14
ENDBRANCH 4 6
ENDBRANCH 1 2
BRANCH 1 19
ATOM     19  C   HIS C   2      13.621  21.590  32.650  1.00  9.05 LIG 0.24  C 
ATOM     20  N   ALA C   3      13.659  22.573  31.762  1.00  9.24 LIG-0.35  N 
ATOM     21 H    ALA C   3      13.654  22.463  30.910  1.00  9.24 LIG 0.16  HD
ATOM     22 O    HIS C   2      13.694  21.788  33.857  1.00  8.29 LIG-0.27  OA
BRANCH 20 23
ATOM     23  CA  ALA C   3      13.714  23.964  32.205  1.00  8.91 LIG 0.17  C 
ATOM     24  CB  ALA C   3      12.602  24.252  33.199  1.00  9.99 LIG 0.04  C 
BRANCH 23 25
ATOM     25  C   ALA C   3      15.076  24.262  32.836  1.00  9.36 LIG 0.24  C 
ATOM     26  N   ALA C   4      15.953  23.265  32.837  1.00  9.08 LIG-0.35  N 
ATOM     27 H    ALA C   4      15.832  22.520  32.425  1.00  9.08 LIG 0.16  HD
ATOM     28 O    ALA C   3      15.333  25.384  33.292  1.00  9.90 LIG-0.27  OA
BRANCH 26 29
ATOM     29  CA  ALA C   4      17.222  23.359  33.556  1.00  9.70 LIG 0.18  C 
ATOM     30  CB  ALA C   4      17.466  22.096  34.349  1.00  9.53 LIG 0.04  C 
BRANCH 29 31
ATOM     31  C   ALA C   4      18.416  23.640  32.661  1.00 11.00 LIG 0.28  C 
ATOM     32  N   NH2 C   5      18.161  23.958  31.399  1.00 10.22 LIG-0.11  N 
ATOM     33 O    ALA C   4      19.548  23.532  33.111  1.00 13.70 LIG-0.27  OA
ENDBRANCH 29 31
ENDBRANCH 26 29
ENDBRANCH 23 25
ENDBRANCH 20 23
ENDBRANCH 1 19
BRANCH 1 34
ATOM     34  CB  HIS C   2      12.236  19.565  32.849  1.00 12.23 LIG 0.10  C 
BRANCH 34 35
ATOM     35  CG  HIS C   2      10.914  19.830  32.212  1.00 15.24 LIG 0.06  A 
ATOM     36 ND1  HIS C   2      10.785  20.141  30.876  1.00 17.16 LIG-0.24  NA
ATOM     37  CE1 HIS C   2       9.507  20.324  30.592  1.00 17.55 LIG 0.23  A 
ATOM     38 NE2  HIS C   2       8.805  20.143  31.696  1.00 18.01 LIG-0.25  NA
ATOM     39  CD2 HIS C   2       9.661  19.831  32.723  1.00 16.53 LIG 0.14  A 
ENDBRANCH 34 35
ENDBRANCH 1 34
TORSDOF 12
ENDMDL
MODEL 58
USER: ADFR SOLUTION from run 152
USER: SCORE 10.073640 LL:  -2.770 LR:  -9.788 RR:   0.000 FEB:  -6.208
USER: RMSD 6.006812
USER: SEED 151
USER: STATUS no improvement in best in 27 clusters for 5 generations
USER: GENES 14
USER: genes 0 Translation |==|  0.61539 0.36881 0.52219
USER: genes 1 Rotation |==|  0.15203 0.75920 0.25423 0.53647
USER: genes 2 Torsion [CB]-CA--N-[C] |==|  0.48889
USER: genes 3 Torsion [N]-C--CA-[N] |==|  0.95365
USER: genes 4 Torsion [C]-CA--CB-[CG] |==|  0.18655
USER: genes 5 Torsion [CA]-CB--CG-[CD1] |==|  0.59276
USER: genes 6 Torsion [C]-CA--N-[C] |==|  0.83320
USER: genes 7 Torsion [N]-CA--C-[N] |==|  0.26013
USER: genes 8 Torsion [C]-N--CA-[CB] |==|  0.45039
USER: genes 9 Torsion [N]-CA--C-[N] |==|  0.32901
USER: genes 10 Torsion [C]-N--CA-[C] |==|  0.75428
USER: genes 11 Torsion [N]-CA--C-[N] |==|  0.37063
USER: genes 12 Torsion [N]-CA--CB-[CG] |==|  0.79742
USER: genes 13 Torsion [CA]-CB--CG-[CD2] |==|  0.20155
ROOT
ATOM      1  CA  HIS C   2      14.438  18.933  31.294  1.00 10.06 LIG 0.18  C 
ENDROOT
BRANCH 1 2
ATOM      2  N   HIS C   2      15.008  18.486  32.565  1.00  9.48 LIG-0.35  N 
ATOM      3 H    HIS C   2      15.013  17.632  32.664  1.00  9.48 LIG 0.16  HD
ATOM      4  C   PHE C   1      15.471  19.332  33.475  1.00  9.37 LIG 0.24  C 
ATOM      5 O    PHE C   1      15.537  20.544  33.298  1.00 11.27 LIG-0.27  OA
BRANCH 4 6
ATOM      6  CA  PHE C   1      15.904  18.717  34.788  1.00  8.68 LIG 0.18  C 
BRANCH 6 7
ATOM      7  CB  PHE C   1      17.431  18.698  34.835  1.00  8.30 LIG 0.07  C 
BRANCH 7 8
ATOM      8  CG  PHE C   1      18.050  20.062  34.908  1.00  6.80 LIG-0.06  A 
ATOM      9  CD1 PHE C   1      19.271  20.321  34.298  1.00  6.68 LIG 0.01  A 
ATOM     10  CE1 PHE C   1      19.830  21.584  34.359  1.00  6.85 LIG 0.00  A 
ATOM     11  CZ  PHE C   1      19.187  22.594  35.040  1.00  6.56 LIG 0.00  A 
ATOM     12  CE2 PHE C   1      17.973  22.353  35.655  1.00  6.82 LIG 0.00  A 
ATOM     13  CD2 PHE C   1      17.409  21.090  35.584  1.00  7.43 LIG 0.01  A 
ENDBRANCH 7 8
ENDBRANCH 6 7
BRANCH 6 14
ATOM     14  N   PHE C   1      15.365  17.363  34.942  1.00  9.64 LIG-0.35  N 
ATOM     15 H    PHE C   1      15.963  16.750  35.026  1.00  9.64 LIG 0.16  HD
ATOM     16  C   ACE C   0      14.057  17.132  34.947  1.00 12.10 LIG 0.21  C 
ATOM     17  CH3 ACE C   0      13.638  15.694  35.042  1.00 13.09 LIG 0.12  C 
ATOM     18 O    ACE C   0      13.233  18.043  34.859  1.00 13.69 LIG-0.27  OA
ENDBRANCH 6 14
ENDBRANCH 4 6
ENDBRANCH 1 2
BRANCH 1 19
ATOM     19  C   HIS C   2      13.168  19.711  31.563  1.00  9.05 LIG 0.24  C 
ATOM     20  N   ALA C   3      13.284  21.028  31.666  1.00  9.24 LIG-0.35  N 
ATOM     21 H    ALA C   3      14.030  21.455  31.662  1.00  9.24 LIG 0.16  HD
ATOM     22 O    HIS C   2      12.088  19.137  31.637  1.00  8.29 LIG-0.27  OA
BRANCH 20 23
ATOM     23  CA  ALA C   3      12.094  21.864  31.797  1.00  8.91 LIG 0.17  C 
ATOM     24  CB  ALA C   3      12.463  23.238  32.329  1.00  9.99 LIG 0.04  C 
BRANCH 23 25
ATOM     25  C   ALA C   3      11.390  21.995  30.444  1.00  9.36 LIG 0.24  C 
ATOM     26  N   ALA C   4      10.150  21.524  30.381  1.00  9.08 LIG-0.35  N 
ATOM     27 H    ALA C   4       9.705  21.251  31.064  1.00  9.08 LIG 0.16  HD
ATOM     28 O    ALA C   3      11.955  22.535  29.483  1.00  9.90 LIG-0.27  OA
BRANCH 26 29
ATOM     29  CA  ALA C   4       9.428  21.430  29.113  1.00  9.70 LIG 0.18  C 
ATOM     30  CB  ALA C   4       8.490  20.246  29.135  1.00  9.53 LIG 0.04  C 
BRANCH 29 31
ATOM     31  C   ALA C   4       8.658  22.687  28.750  1.00 11.00 LIG 0.28  C 
ATOM     32  N   NH2 C   5       8.784  23.133  27.507  1.00 10.22 LIG-0.11  N 
ATOM     33 O    ALA C   4       7.989  23.254  29.602  1.00 13.70 LIG-0.27  OA
ENDBRANCH 29 31
ENDBRANCH 26 29
ENDBRANCH 23 25
ENDBRANCH 20 23
ENDBRANCH 1 19
BRANCH 1 34
ATOM     34  CB  HIS C   2      14.074  17.743  30.397  1.00 12.23 LIG 0.10  C 
BRANCH 34 35
ATOM     35  CG  HIS C   2      15.249  17.048  29.799  1.00 15.24 LIG 0.06  A 
ATOM     36 ND1  HIS C   2      15.574  17.155  28.465  1.00 17.16 LIG-0.24  NA
ATOM     37  CE1 HIS C   2      16.655  16.436  28.218  1.00 17.55 LIG 0.23  A 
ATOM     38 NE2  HIS C   2      17.043  15.868  29.345  1.00 18.01 LIG-0.25  NA
ATOM     39  CD2 HIS C   2      16.181  16.236  30.349  1.00 16.53 LIG 0.14  A 
ENDBRANCH 34 35
ENDBRANCH 1 34
TORSDOF 12
ENDMDL
MODEL 59
USER: ADFR SOLUTION from run 7
USER: SCORE 11.101801 LL:  -3.188 LR:  -9.790 RR:   0.000 FEB:  -6.210
USER: RMSD 5.530858
USER: SEED 984768
USER: STATUS no improvement in best in 20 clusters for 5 generations
USER: GENES 14
USER: genes 0 Translation |==|  0.78241 0.44203 0.69168
USER: genes 1 Rotation |==|  0.56019 0.70461 0.27641 0.89309
USER: genes 2 Torsion [CB]-CA--N-[C] |==|  0.50570
USER: genes 3 Torsion [N]-C--CA-[N] |==|  0.42222
USER: genes 4 Torsion [C]-CA--CB-[CG] |==|  0.38689
USER: genes 5 Torsion [CA]-CB--CG-[CD1] |==|  0.49343
USER: genes 6 Torsion [C]-CA--N-[C] |==|  0.61498
USER: genes 7 Torsion [N]-CA--C-[N] |==|  0.36347
USER: genes 8 Torsion [C]-N--CA-[CB] |==|  0.87637
USER: genes 9 Torsion [N]-CA--C-[N] |==|  0.78344
USER: genes 10 Torsion [C]-N--CA-[C] |==|  0.67697
USER: genes 11 Torsion [N]-CA--C-[N] |==|  0.03645
USER: genes 12 Torsion [N]-CA--CB-[CG] |==|  0.42474
USER: genes 13 Torsion [CA]-CB--CG-[CD2] |==|  0.24690
ROOT
ATOM      1  CA  HIS C   2      17.194  20.471  34.599  1.00 10.06 LIG 0.18  C 
ENDROOT
BRANCH 1 2
ATOM      2  N   HIS C   2      16.717  19.272  33.910  1.00  9.48 LIG-0.35  N 
ATOM      3 H    HIS C   2      17.343  18.797  33.560  1.00  9.48 LIG 0.16  HD
ATOM      4  C   PHE C   1      15.431  18.955  33.837  1.00  9.37 LIG 0.24  C 
ATOM      5 O    PHE C   1      14.547  19.589  34.404  1.00 11.27 LIG-0.27  OA
BRANCH 4 6
ATOM      6  CA  PHE C   1      15.094  17.757  32.976  1.00  8.68 LIG 0.18  C 
BRANCH 6 7
ATOM      7  CB  PHE C   1      14.933  18.227  31.531  1.00  8.30 LIG 0.07  C 
BRANCH 7 8
ATOM      8  CG  PHE C   1      15.535  17.294  30.522  1.00  6.80 LIG-0.06  A 
ATOM      9  CD1 PHE C   1      15.429  17.556  29.163  1.00  6.68 LIG 0.01  A 
ATOM     10  CE1 PHE C   1      15.996  16.698  28.239  1.00  6.85 LIG 0.00  A 
ATOM     11  CZ  PHE C   1      16.659  15.567  28.659  1.00  6.56 LIG 0.00  A 
ATOM     12  CE2 PHE C   1      16.771  15.289  30.009  1.00  6.82 LIG 0.00  A 
ATOM     13  CD2 PHE C   1      16.211  16.155  30.933  1.00  7.43 LIG 0.01  A 
ENDBRANCH 7 8
ENDBRANCH 6 7
BRANCH 6 14
ATOM     14  N   PHE C   1      13.872  17.096  33.443  1.00  9.64 LIG-0.35  N 
ATOM     15 H    PHE C   1      13.243  17.634  33.677  1.00  9.64 LIG 0.16  HD
ATOM     16  C   ACE C   0      13.774  15.772  33.490  1.00 12.10 LIG 0.21  C 
ATOM     17  CH3 ACE C   0      12.495  15.222  34.053  1.00 13.09 LIG 0.12  C 
ATOM     18 O    ACE C   0      14.686  15.035  33.114  1.00 13.69 LIG-0.27  OA
ENDBRANCH 6 14
ENDBRANCH 4 6
ENDBRANCH 1 2
BRANCH 1 19
ATOM     19  C   HIS C   2      16.568  21.693  33.962  1.00  9.05 LIG 0.24  C 
ATOM     20  N   ALA C   3      16.012  22.575  34.781  1.00  9.24 LIG-0.35  N 
ATOM     21 H    ALA C   3      15.921  22.465  35.629  1.00  9.24 LIG 0.16  HD
ATOM     22 O    HIS C   2      16.621  21.862  32.750  1.00  8.29 LIG-0.27  OA
BRANCH 20 23
ATOM     23  CA  ALA C   3      15.501  23.841  34.263  1.00  8.91 LIG 0.17  C 
ATOM     24  CB  ALA C   3      16.490  24.458  33.289  1.00  9.99 LIG 0.04  C 
BRANCH 23 25
ATOM     25  C   ALA C   3      14.151  23.623  33.576  1.00  9.36 LIG 0.24  C 
ATOM     26  N   ALA C   4      14.192  23.104  32.355  1.00  9.08 LIG-0.35  N 
ATOM     27 H    ALA C   4      14.908  22.802  31.985  1.00  9.08 LIG 0.16  HD
ATOM     28 O    ALA C   3      13.091  23.900  34.154  1.00  9.90 LIG-0.27  OA
BRANCH 26 29
ATOM     29  CA  ALA C   4      12.994  23.003  31.523  1.00  9.70 LIG 0.18  C 
ATOM     30  CB  ALA C   4      13.182  23.785  30.243  1.00  9.53 LIG 0.04  C 
BRANCH 29 31
ATOM     31  C   ALA C   4      12.592  21.577  31.195  1.00 11.00 LIG 0.28  C 
ATOM     32  N   NH2 C   5      13.175  20.611  31.892  1.00 10.22 LIG-0.11  N 
ATOM     33 O    ALA C   4      11.788  21.365  30.299  1.00 13.70 LIG-0.27  OA
ENDBRANCH 29 31
ENDBRANCH 26 29
ENDBRANCH 23 25
ENDBRANCH 20 23
ENDBRANCH 1 19
BRANCH 1 34
ATOM     34  CB  HIS C   2      18.716  20.612  34.482  1.00 12.23 LIG 0.10  C 
BRANCH 34 35
ATOM     35  CG  HIS C   2      19.207  22.018  34.562  1.00 15.24 LIG 0.06  A 
ATOM     36 ND1  HIS C   2      19.373  22.810  33.448  1.00 17.16 LIG-0.24  NA
ATOM     37  CE1 HIS C   2      19.818  23.998  33.818  1.00 17.55 LIG 0.23  A 
ATOM     38 NE2  HIS C   2      19.945  24.003  35.133  1.00 18.01 LIG-0.25  NA
ATOM     39  CD2 HIS C   2      19.568  22.778  35.622  1.00 16.53 LIG 0.14  A 
ENDBRANCH 34 35
ENDBRANCH 1 34
TORSDOF 12
ENDMDL
MODEL 60
USER: ADFR SOLUTION from run 110
USER: SCORE 10.746964 LL:  -2.938 LR:  -9.795 RR:   0.000 FEB:  -6.215
USER: RMSD 2.758011
USER: SEED 109
USER: STATUS no improvement in best in 11 clusters for 5 generations
USER: GENES 14
USER: genes 0 Translation |==|  0.58905 0.54470 0.61045
USER: genes 1 Rotation |==|  0.41160 0.67724 0.42725 0.95330
USER: genes 2 Torsion [CB]-CA--N-[C] |==|  0.49112
USER: genes 3 Torsion [N]-C--CA-[N] |==|  0.42112
USER: genes 4 Torsion [C]-CA--CB-[CG] |==|  0.47541
USER: genes 5 Torsion [CA]-CB--CG-[CD1] |==|  0.61309
USER: genes 6 Torsion [C]-CA--N-[C] |==|  0.76093
USER: genes 7 Torsion [N]-CA--C-[N] |==|  0.93362
USER: genes 8 Torsion [C]-N--CA-[CB] |==|  0.83649
USER: genes 9 Torsion [N]-CA--C-[N] |==|  0.30333
USER: genes 10 Torsion [C]-N--CA-[C] |==|  0.80214
USER: genes 11 Torsion [N]-CA--C-[N] |==|  0.90009
USER: genes 12 Torsion [N]-CA--CB-[CG] |==|  0.32589
USER: genes 13 Torsion [CA]-CB--CG-[CD2] |==|  0.29462
ROOT
ATOM      1  CA  HIS C   2      14.003  22.627  33.015  1.00 10.06 LIG 0.18  C 
ENDROOT
BRANCH 1 2
ATOM      2  N   HIS C   2      14.641  21.340  32.736  1.00  9.48 LIG-0.35  N 
ATOM      3 H    HIS C   2      15.422  21.407  32.381  1.00  9.48 LIG 0.16  HD
ATOM      4  C   PHE C   1      14.058  20.181  33.011  1.00  9.37 LIG 0.24  C 
ATOM      5 O    PHE C   1      12.982  20.088  33.591  1.00 11.27 LIG-0.27  OA
BRANCH 4 6
ATOM      6  CA  PHE C   1      14.793  18.945  32.540  1.00  8.68 LIG 0.18  C 
BRANCH 6 7
ATOM      7  CB  PHE C   1      14.383  18.658  31.096  1.00  8.30 LIG 0.07  C 
BRANCH 7 8
ATOM      8  CG  PHE C   1      15.196  17.581  30.440  1.00  6.80 LIG-0.06  A 
ATOM      9  CD1 PHE C   1      15.606  17.707  29.120  1.00  6.68 LIG 0.01  A 
ATOM     10  CE1 PHE C   1      16.366  16.717  28.525  1.00  6.85 LIG 0.00  A 
ATOM     11  CZ  PHE C   1      16.710  15.588  29.234  1.00  6.56 LIG 0.00  A 
ATOM     12  CE2 PHE C   1      16.307  15.445  30.549  1.00  6.82 LIG 0.00  A 
ATOM     13  CD2 PHE C   1      15.556  16.443  31.146  1.00  7.43 LIG 0.01  A 
ENDBRANCH 7 8
ENDBRANCH 6 7
BRANCH 6 14
ATOM     14  N   PHE C   1      14.500  17.794  33.399  1.00  9.64 LIG-0.35  N 
ATOM     15 H    PHE C   1      13.854  17.298  33.121  1.00  9.64 LIG 0.16  HD
ATOM     16  C   ACE C   0      15.191  17.563  34.510  1.00 12.10 LIG 0.21  C 
ATOM     17  CH3 ACE C   0      14.744  16.391  35.335  1.00 13.09 LIG 0.12  C 
ATOM     18 O    ACE C   0      16.131  18.278  34.855  1.00 13.69 LIG-0.27  OA
ENDBRANCH 6 14
ENDBRANCH 4 6
ENDBRANCH 1 2
BRANCH 1 19
ATOM     19  C   HIS C   2      12.759  22.761  32.163  1.00  9.05 LIG 0.24  C 
ATOM     20  N   ALA C   3      12.718  22.044  31.049  1.00  9.24 LIG-0.35  N 
ATOM     21 H    ALA C   3      13.370  21.572  30.746  1.00  9.24 LIG 0.16  HD
ATOM     22 O    HIS C   2      11.829  23.471  32.525  1.00  8.29 LIG-0.27  OA
BRANCH 20 23
ATOM     23  CA  ALA C   3      11.505  22.015  30.236  1.00  8.91 LIG 0.17  C 
ATOM     24  CB  ALA C   3      10.330  21.497  31.047  1.00  9.99 LIG 0.04  C 
BRANCH 23 25
ATOM     25  C   ALA C   3      11.198  23.414  29.698  1.00  9.36 LIG 0.24  C 
ATOM     26  N   ALA C   4      11.381  23.594  28.395  1.00  9.08 LIG-0.35  N 
ATOM     27 H    ALA C   4      11.560  22.960  27.843  1.00  9.08 LIG 0.16  HD
ATOM     28 O    ALA C   3      10.780  24.307  30.448  1.00  9.90 LIG-0.27  OA
BRANCH 26 29
ATOM     29  CA  ALA C   4      11.289  24.919  27.782  1.00  9.70 LIG 0.18  C 
ATOM     30  CB  ALA C   4      11.889  24.893  26.395  1.00  9.53 LIG 0.04  C 
BRANCH 29 31
ATOM     31  C   ALA C   4       9.877  25.471  27.718  1.00 11.00 LIG 0.28  C 
ATOM     32  N   NH2 C   5       8.901  24.603  27.490  1.00 10.22 LIG-0.11  N 
ATOM     33 O    ALA C   4       9.691  26.673  27.841  1.00 13.70 LIG-0.27  OA
ENDBRANCH 29 31
ENDBRANCH 26 29
ENDBRANCH 23 25
ENDBRANCH 20 23
ENDBRANCH 1 19
BRANCH 1 34
ATOM     34  CB  HIS C   2      14.933  23.796  32.670  1.00 12.23 LIG 0.10  C 
BRANCH 34 35
ATOM     35  CG  HIS C   2      14.418  24.688  31.591  1.00 15.24 LIG 0.06  A 
ATOM     36 ND1  HIS C   2      14.407  24.317  30.265  1.00 17.16 LIG-0.24  NA
ATOM     37  CE1 HIS C   2      13.900  25.299  29.541  1.00 17.55 LIG 0.23  A 
ATOM     38 NE2  HIS C   2      13.582  26.293  30.351  1.00 18.01 LIG-0.25  NA
ATOM     39  CD2 HIS C   2      13.895  25.935  31.639  1.00 16.53 LIG 0.14  A 
ENDBRANCH 34 35
ENDBRANCH 1 34
TORSDOF 12
ENDMDL
MODEL 61
USER: ADFR SOLUTION from run 132
USER: SCORE 11.426895 LL:  -2.648 LR:  -9.770 RR:   0.000 FEB:  -6.191
USER: RMSD 3.655937
USER: SEED 131
USER: STATUS no improvement in best in 27 clusters for 5 generations
USER: GENES 14
USER: genes 0 Translation |==|  0.57265 0.53776 0.60740
USER: genes 1 Rotation |==|  0.47712 0.58017 0.41125 0.98495
USER: genes 2 Torsion [CB]-CA--N-[C] |==|  0.51667
USER: genes 3 Torsion [N]-C--CA-[N] |==|  0.30682
USER: genes 4 Torsion [C]-CA--CB-[CG] |==|  0.46864
USER: genes 5 Torsion [CA]-CB--CG-[CD1] |==|  0.60899
USER: genes 6 Torsion [C]-CA--N-[C] |==|  0.71149
USER: genes 7 Torsion [N]-CA--C-[N] |==|  0.46373
USER: genes 8 Torsion [C]-N--CA-[CB] |==|  0.80455
USER: genes 9 Torsion [N]-CA--C-[N] |==|  0.14311
USER: genes 10 Torsion [C]-N--CA-[C] |==|  0.83006
USER: genes 11 Torsion [N]-CA--C-[N] |==|  0.38619
USER: genes 12 Torsion [N]-CA--CB-[CG] |==|  0.01101
USER: genes 13 Torsion [CA]-CB--CG-[CD2] |==|  0.31909
ROOT
ATOM      1  CA  HIS C   2      13.733  22.481  32.955  1.00 10.06 LIG 0.18  C 
ENDROOT
BRANCH 1 2
ATOM      2  N   HIS C   2      14.400  21.198  32.738  1.00  9.48 LIG-0.35  N 
ATOM      3 H    HIS C   2      15.246  21.213  32.892  1.00  9.48 LIG 0.16  HD
ATOM      4  C   PHE C   1      13.749  20.114  32.338  1.00  9.37 LIG 0.24  C 
ATOM      5 O    PHE C   1      12.531  20.073  32.196  1.00 11.27 LIG-0.27  OA
BRANCH 4 6
ATOM      6  CA  PHE C   1      14.605  18.905  32.031  1.00  8.68 LIG 0.18  C 
BRANCH 6 7
ATOM      7  CB  PHE C   1      14.250  18.401  30.633  1.00  8.30 LIG 0.07  C 
BRANCH 7 8
ATOM      8  CG  PHE C   1      15.206  17.375  30.100  1.00  6.80 LIG-0.06  A 
ATOM      9  CD1 PHE C   1      15.584  17.384  28.764  1.00  6.68 LIG 0.01  A 
ATOM     10  CE1 PHE C   1      16.475  16.444  28.282  1.00  6.85 LIG 0.00  A 
ATOM     11  CZ  PHE C   1      16.986  15.478  29.122  1.00  6.56 LIG 0.00  A 
ATOM     12  CE2 PHE C   1      16.618  15.453  30.454  1.00  6.82 LIG 0.00  A 
ATOM     13  CD2 PHE C   1      15.733  16.403  30.937  1.00  7.43 LIG 0.01  A 
ENDBRANCH 7 8
ENDBRANCH 6 7
BRANCH 6 14
ATOM     14  N   PHE C   1      14.406  17.848  33.027  1.00  9.64 LIG-0.35  N 
ATOM     15 H    PHE C   1      13.672  17.409  32.938  1.00  9.64 LIG 0.16  HD
ATOM     16  C   ACE C   0      15.304  17.612  33.978  1.00 12.10 LIG 0.21  C 
ATOM     17  CH3 ACE C   0      14.947  16.549  34.976  1.00 13.09 LIG 0.12  C 
ATOM     18 O    ACE C   0      16.360  18.241  34.050  1.00 13.69 LIG-0.27  OA
ENDBRANCH 6 14
ENDBRANCH 4 6
ENDBRANCH 1 2
BRANCH 1 19
ATOM     19  C   HIS C   2      12.992  22.877  31.696  1.00  9.05 LIG 0.24  C 
ATOM     20  N   ALA C   3      12.122  23.871  31.803  1.00  9.24 LIG-0.35  N 
ATOM     21 H    ALA C   3      11.900  24.251  32.542  1.00  9.24 LIG 0.16  HD
ATOM     22 O    HIS C   2      13.231  22.322  30.630  1.00  8.29 LIG-0.27  OA
BRANCH 20 23
ATOM     23  CA  ALA C   3      11.460  24.402  30.614  1.00  8.91 LIG 0.17  C 
ATOM     24  CB  ALA C   3      12.447  25.168  29.750  1.00  9.99 LIG 0.04  C 
BRANCH 23 25
ATOM     25  C   ALA C   3      10.829  23.263  29.809  1.00  9.36 LIG 0.24  C 
ATOM     26  N   ALA C   4      10.042  22.434  30.485  1.00  9.08 LIG-0.35  N 
ATOM     27 H    ALA C   4       9.798  22.561  31.300  1.00  9.08 LIG 0.16  HD
ATOM     28 O    ALA C   3      11.035  23.153  28.593  1.00  9.90 LIG-0.27  OA
BRANCH 26 29
ATOM     29  CA  ALA C   4       9.515  21.211  29.881  1.00  9.70 LIG 0.18  C 
ATOM     30  CB  ALA C   4       8.754  20.408  30.911  1.00  9.53 LIG 0.04  C 
BRANCH 29 31
ATOM     31  C   ALA C   4       8.634  21.454  28.669  1.00 11.00 LIG 0.28  C 
ATOM     32  N   NH2 C   5       8.784  20.631  27.641  1.00 10.22 LIG-0.11  N 
ATOM     33 O    ALA C   4       7.857  22.399  28.665  1.00 13.70 LIG-0.27  OA
ENDBRANCH 29 31
ENDBRANCH 26 29
ENDBRANCH 23 25
ENDBRANCH 20 23
ENDBRANCH 1 19
BRANCH 1 34
ATOM     34  CB  HIS C   2      14.745  23.590  33.269  1.00 12.23 LIG 0.10  C 
BRANCH 34 35
ATOM     35  CG  HIS C   2      16.169  23.155  33.194  1.00 15.24 LIG 0.06  A 
ATOM     36 ND1  HIS C   2      16.706  22.223  34.054  1.00 17.16 LIG-0.24  NA
ATOM     37  CE1 HIS C   2      17.980  22.036  33.756  1.00 17.55 LIG 0.23  A 
ATOM     38 NE2  HIS C   2      18.287  22.813  32.733  1.00 18.01 LIG-0.25  NA
ATOM     39  CD2 HIS C   2      17.171  23.521  32.362  1.00 16.53 LIG 0.14  A 
ENDBRANCH 34 35
ENDBRANCH 1 34
TORSDOF 12
ENDMDL
MODEL 62
USER: ADFR SOLUTION from run 98
USER: SCORE 10.309749 LL:  -2.880 LR:  -9.759 RR:   0.000 FEB:  -6.180
USER: RMSD 8.094892
USER: SEED 97
USER: STATUS no improvement in best in 24 clusters for 5 generations
USER: GENES 14
USER: genes 0 Translation |==|  0.50646 0.40421 0.55975
USER: genes 1 Rotation |==|  0.71710 0.85708 0.26161 0.63613
USER: genes 2 Torsion [CB]-CA--N-[C] |==|  0.86207
USER: genes 3 Torsion [N]-C--CA-[N] |==|  0.54262
USER: genes 4 Torsion [C]-CA--CB-[CG] |==|  0.58953
USER: genes 5 Torsion [CA]-CB--CG-[CD1] |==|  0.77678
USER: genes 6 Torsion [C]-CA--N-[C] |==|  0.67527
USER: genes 7 Torsion [N]-CA--C-[N] |==|  0.77559
USER: genes 8 Torsion [C]-N--CA-[CB] |==|  0.82222
USER: genes 9 Torsion [N]-CA--C-[N] |==|  0.12914
USER: genes 10 Torsion [C]-N--CA-[C] |==|  0.69810
USER: genes 11 Torsion [N]-CA--C-[N] |==|  0.43987
USER: genes 12 Torsion [N]-CA--CB-[CG] |==|  0.61741
USER: genes 13 Torsion [CA]-CB--CG-[CD2] |==|  0.94740
ROOT
ATOM      1  CA  HIS C   2      12.641  19.676  32.026  1.00 10.06 LIG 0.18  C 
ENDROOT
BRANCH 1 2
ATOM      2  N   HIS C   2      11.280  19.945  31.561  1.00  9.48 LIG-0.35  N 
ATOM      3 H    HIS C   2      10.677  19.473  31.952  1.00  9.48 LIG 0.16  HD
ATOM      4  C   PHE C   1      11.012  20.841  30.620  1.00  9.37 LIG 0.24  C 
ATOM      5 O    PHE C   1      11.863  21.571  30.122  1.00 11.27 LIG-0.27  OA
BRANCH 4 6
ATOM      6  CA  PHE C   1       9.572  20.904  30.160  1.00  8.68 LIG 0.18  C 
BRANCH 6 7
ATOM      7  CB  PHE C   1       9.051  19.476  30.000  1.00  8.30 LIG 0.07  C 
BRANCH 7 8
ATOM      8  CG  PHE C   1       8.035  19.323  28.907  1.00  6.80 LIG-0.06  A 
ATOM      9  CD1 PHE C   1       6.709  19.673  29.117  1.00  6.68 LIG 0.01  A 
ATOM     10  CE1 PHE C   1       5.780  19.541  28.102  1.00  6.85 LIG 0.00  A 
ATOM     11  CZ  PHE C   1       6.161  19.044  26.875  1.00  6.56 LIG 0.00  A 
ATOM     12  CE2 PHE C   1       7.477  18.687  26.650  1.00  6.82 LIG 0.00  A 
ATOM     13  CD2 PHE C   1       8.408  18.831  27.665  1.00  7.43 LIG 0.01  A 
ENDBRANCH 7 8
ENDBRANCH 6 7
BRANCH 6 14
ATOM     14  N   PHE C   1       9.450  21.642  28.899  1.00  9.64 LIG-0.35  N 
ATOM     15 H    PHE C   1       9.859  21.280  28.234  1.00  9.64 LIG 0.16  HD
ATOM     16  C   ACE C   0       8.759  22.773  28.821  1.00 12.10 LIG 0.21  C 
ATOM     17  CH3 ACE C   0       8.770  23.466  27.489  1.00 13.09 LIG 0.12  C 
ATOM     18 O    ACE C   0       8.158  23.239  29.789  1.00 13.69 LIG-0.27  OA
ENDBRANCH 6 14
ENDBRANCH 4 6
ENDBRANCH 1 2
BRANCH 1 19
ATOM     19  C   HIS C   2      13.151  20.876  32.795  1.00  9.05 LIG 0.24  C 
ATOM     20  N   ALA C   3      13.615  21.891  32.080  1.00  9.24 LIG-0.35  N 
ATOM     21 H    ALA C   3      13.712  21.884  31.225  1.00  9.24 LIG 0.16  HD
ATOM     22 O    HIS C   2      13.089  20.906  34.018  1.00  8.29 LIG-0.27  OA
BRANCH 20 23
ATOM     23  CA  ALA C   3      14.006  23.136  32.735  1.00  8.91 LIG 0.17  C 
ATOM     24  CB  ALA C   3      12.805  23.796  33.389  1.00  9.99 LIG 0.04  C 
BRANCH 23 25
ATOM     25  C   ALA C   3      15.091  22.864  33.779  1.00  9.36 LIG 0.24  C 
ATOM     26  N   ALA C   4      16.095  22.085  33.392  1.00  9.08 LIG-0.35  N 
ATOM     27 H    ALA C   4      16.212  21.820  32.582  1.00  9.08 LIG 0.16  HD
ATOM     28 O    ALA C   3      15.030  23.370  34.908  1.00  9.90 LIG-0.27  OA
BRANCH 26 29
ATOM     29  CA  ALA C   4      17.105  21.608  34.335  1.00  9.70 LIG 0.18  C 
ATOM     30  CB  ALA C   4      17.239  20.106  34.238  1.00  9.53 LIG 0.04  C 
BRANCH 29 31
ATOM     31  C   ALA C   4      18.466  22.255  34.158  1.00 11.00 LIG 0.28  C 
ATOM     32  N   NH2 C   5      19.287  22.227  35.200  1.00 10.22 LIG-0.11  N 
ATOM     33 O    ALA C   4      18.745  22.799  33.100  1.00 13.70 LIG-0.27  OA
ENDBRANCH 29 31
ENDBRANCH 26 29
ENDBRANCH 23 25
ENDBRANCH 20 23
ENDBRANCH 1 19
BRANCH 1 34
ATOM     34  CB  HIS C   2      13.594  19.437  30.849  1.00 12.23 LIG 0.10  C 
BRANCH 34 35
ATOM     35  CG  HIS C   2      14.548  18.309  31.055  1.00 15.24 LIG 0.06  A 
ATOM     36 ND1  HIS C   2      15.207  17.697  30.013  1.00 17.16 LIG-0.24  NA
ATOM     37  CE1 HIS C   2      15.981  16.737  30.489  1.00 17.55 LIG 0.23  A 
ATOM     38 NE2  HIS C   2      15.846  16.706  31.802  1.00 18.01 LIG-0.25  NA
ATOM     39  CD2 HIS C   2      14.956  17.681  32.182  1.00 16.53 LIG 0.14  A 
ENDBRANCH 34 35
ENDBRANCH 1 34
TORSDOF 12
ENDMDL
MODEL 63
USER: ADFR SOLUTION from run 37
USER: SCORE 10.865983 LL:  -2.845 LR:  -9.752 RR:   0.000 FEB:  -6.173
USER: RMSD 5.599103
USER: SEED 36
USER: STATUS no improvement in best in 19 clusters for 5 generations
USER: GENES 14
USER: genes 0 Translation |==|  0.67021 0.48156 0.64744
USER: genes 1 Rotation |==|  0.63943 0.73217 0.26940 0.85140
USER: genes 2 Torsion [CB]-CA--N-[C] |==|  0.23809
USER: genes 3 Torsion [N]-C--CA-[N] |==|  0.82222
USER: genes 4 Torsion [C]-CA--CB-[CG] |==|  0.23918
USER: genes 5 Torsion [CA]-CB--CG-[CD1] |==|  0.96599
USER: genes 6 Torsion [C]-CA--N-[C] |==|  0.20433
USER: genes 7 Torsion [N]-CA--C-[N] |==|  0.95144
USER: genes 8 Torsion [C]-N--CA-[CB] |==|  0.87098
USER: genes 9 Torsion [N]-CA--C-[N] |==|  0.93886
USER: genes 10 Torsion [C]-N--CA-[C] |==|  0.59906
USER: genes 11 Torsion [N]-CA--C-[N] |==|  0.43677
USER: genes 12 Torsion [N]-CA--CB-[CG] |==|  0.71409
USER: genes 13 Torsion [CA]-CB--CG-[CD2] |==|  0.97318
ROOT
ATOM      1  CA  HIS C   2      15.342  21.301  33.736  1.00 10.06 LIG 0.18  C 
ENDROOT
BRANCH 1 2
ATOM      2  N   HIS C   2      14.634  20.493  32.743  1.00  9.48 LIG-0.35  N 
ATOM      3 H    HIS C   2      14.425  20.922  32.028  1.00  9.48 LIG 0.16  HD
ATOM      4  C   PHE C   1      14.345  19.214  32.940  1.00  9.37 LIG 0.24  C 
ATOM      5 O    PHE C   1      14.715  18.582  33.924  1.00 11.27 LIG-0.27  OA
BRANCH 4 6
ATOM      6  CA  PHE C   1      13.494  18.558  31.875  1.00  8.68 LIG 0.18  C 
BRANCH 6 7
ATOM      7  CB  PHE C   1      14.210  18.689  30.532  1.00  8.30 LIG 0.07  C 
BRANCH 7 8
ATOM      8  CG  PHE C   1      15.201  17.595  30.267  1.00  6.80 LIG-0.06  A 
ATOM      9  CD1 PHE C   1      15.592  16.731  31.281  1.00  6.68 LIG 0.01  A 
ATOM     10  CE1 PHE C   1      16.497  15.717  31.026  1.00  6.85 LIG 0.00  A 
ATOM     11  CZ  PHE C   1      17.030  15.564  29.766  1.00  6.56 LIG 0.00  A 
ATOM     12  CE2 PHE C   1      16.654  16.417  28.745  1.00  6.82 LIG 0.00  A 
ATOM     13  CD2 PHE C   1      15.740  17.426  28.999  1.00  7.43 LIG 0.01  A 
ENDBRANCH 7 8
ENDBRANCH 6 7
BRANCH 6 14
ATOM     14  N   PHE C   1      12.162  19.167  31.811  1.00  9.64 LIG-0.35  N 
ATOM     15 H    PHE C   1      11.532  18.681  32.137  1.00  9.64 LIG 0.16  HD
ATOM     16  C   ACE C   0      11.975  20.374  31.286  1.00 12.10 LIG 0.21  C 
ATOM     17  CH3 ACE C   0      10.554  20.853  31.218  1.00 13.09 LIG 0.12  C 
ATOM     18 O    ACE C   0      12.910  21.053  30.861  1.00 13.69 LIG-0.27  OA
ENDBRANCH 6 14
ENDBRANCH 4 6
ENDBRANCH 1 2
BRANCH 1 19
ATOM     19  C   HIS C   2      15.000  22.760  33.527  1.00  9.05 LIG 0.24  C 
ATOM     20  N   ALA C   3      14.473  23.089  32.356  1.00  9.24 LIG-0.35  N 
ATOM     21 H    ALA C   3      14.381  22.550  31.692  1.00  9.24 LIG 0.16  HD
ATOM     22 O    HIS C   2      15.171  23.576  34.425  1.00  8.29 LIG-0.27  OA
BRANCH 20 23
ATOM     23  CA  ALA C   3      13.995  24.448  32.118  1.00  8.91 LIG 0.17  C 
ATOM     24  CB  ALA C   3      13.152  24.930  33.286  1.00  9.99 LIG 0.04  C 
BRANCH 23 25
ATOM     25  C   ALA C   3      15.180  25.392  31.899  1.00  9.36 LIG 0.24  C 
ATOM     26  N   ALA C   4      16.348  24.990  32.388  1.00  9.08 LIG-0.35  N 
ATOM     27 H    ALA C   4      16.486  24.208  32.720  1.00  9.08 LIG 0.16  HD
ATOM     28 O    ALA C   3      15.041  26.454  31.278  1.00  9.90 LIG-0.27  OA
BRANCH 26 29
ATOM     29  CA  ALA C   4      17.518  25.866  32.399  1.00  9.70 LIG 0.18  C 
ATOM     30  CB  ALA C   4      17.590  26.622  33.706  1.00  9.53 LIG 0.04  C 
BRANCH 29 31
ATOM     31  C   ALA C   4      18.830  25.143  32.154  1.00 11.00 LIG 0.28  C 
ATOM     32  N   NH2 C   5      19.841  25.867  31.694  1.00 10.22 LIG-0.11  N 
ATOM     33 O    ALA C   4      18.903  23.938  32.351  1.00 13.70 LIG-0.27  OA
ENDBRANCH 29 31
ENDBRANCH 26 29
ENDBRANCH 23 25
ENDBRANCH 20 23
ENDBRANCH 1 19
BRANCH 1 34
ATOM     34  CB  HIS C   2      16.862  21.153  33.593  1.00 12.23 LIG 0.10  C 
BRANCH 34 35
ATOM     35  CG  HIS C   2      17.488  20.264  34.613  1.00 15.24 LIG 0.06  A 
ATOM     36 ND1  HIS C   2      18.801  19.856  34.535  1.00 17.16 LIG-0.24  NA
ATOM     37  CE1 HIS C   2      19.080  19.080  35.567  1.00 17.55 LIG 0.23  A 
ATOM     38 NE2  HIS C   2      17.995  18.972  36.312  1.00 18.01 LIG-0.25  NA
ATOM     39  CD2 HIS C   2      16.986  19.704  35.738  1.00 16.53 LIG 0.14  A 
ENDBRANCH 34 35
ENDBRANCH 1 34
TORSDOF 12
ENDMDL
MODEL 64
USER: ADFR SOLUTION from run 175
USER: SCORE 10.764080 LL:  -2.693 LR:  -9.739 RR:   0.000 FEB:  -6.159
USER: RMSD 6.197094
USER: SEED 174
USER: STATUS no improvement in best in 39 clusters for 5 generations
USER: GENES 14
USER: genes 0 Translation |==|  0.65510 0.33813 0.54427
USER: genes 1 Rotation |==|  0.10044 0.66673 0.25003 0.50825
USER: genes 2 Torsion [CB]-CA--N-[C] |==|  0.51749
USER: genes 3 Torsion [N]-C--CA-[N] |==|  0.87283
USER: genes 4 Torsion [C]-CA--CB-[CG] |==|  0.23421
USER: genes 5 Torsion [CA]-CB--CG-[CD1] |==|  0.89399
USER: genes 6 Torsion [C]-CA--N-[C] |==|  0.83649
USER: genes 7 Torsion [N]-CA--C-[N] |==|  0.26119
USER: genes 8 Torsion [C]-N--CA-[CB] |==|  0.19014
USER: genes 9 Torsion [N]-CA--C-[N] |==|  0.96137
USER: genes 10 Torsion [C]-N--CA-[C] |==|  0.79867
USER: genes 11 Torsion [N]-CA--C-[N] |==|  0.44444
USER: genes 12 Torsion [N]-CA--CB-[CG] |==|  0.67559
USER: genes 13 Torsion [CA]-CB--CG-[CD2] |==|  0.94850
ROOT
ATOM      1  CA  HIS C   2      15.093  18.289  31.724  1.00 10.06 LIG 0.18  C 
ENDROOT
BRANCH 1 2
ATOM      2  N   HIS C   2      15.868  18.418  32.958  1.00  9.48 LIG-0.35  N 
ATOM      3 H    HIS C   2      16.269  17.696  33.197  1.00  9.48 LIG 0.16  HD
ATOM      4  C   PHE C   1      15.941  19.555  33.638  1.00  9.37 LIG 0.24  C 
ATOM      5 O    PHE C   1      15.437  20.605  33.253  1.00 11.27 LIG-0.27  OA
BRANCH 4 6
ATOM      6  CA  PHE C   1      16.673  19.486  34.961  1.00  8.68 LIG 0.18  C 
BRANCH 6 7
ATOM      7  CB  PHE C   1      18.175  19.439  34.681  1.00  8.30 LIG 0.07  C 
BRANCH 7 8
ATOM      8  CG  PHE C   1      18.794  20.791  34.480  1.00  6.80 LIG-0.06  A 
ATOM      9  CD1 PHE C   1      18.114  21.788  33.793  1.00  6.68 LIG 0.01  A 
ATOM     10  CE1 PHE C   1      18.685  23.034  33.621  1.00  6.85 LIG 0.00  A 
ATOM     11  CZ  PHE C   1      19.943  23.295  34.118  1.00  6.56 LIG 0.00  A 
ATOM     12  CE2 PHE C   1      20.636  22.313  34.801  1.00  6.82 LIG 0.00  A 
ATOM     13  CD2 PHE C   1      20.057  21.067  34.982  1.00  7.43 LIG 0.01  A 
ENDBRANCH 7 8
ENDBRANCH 6 7
BRANCH 6 14
ATOM     14  N   PHE C   1      16.256  18.316  35.738  1.00  9.64 LIG-0.35  N 
ATOM     15 H    PHE C   1      16.894  17.774  35.936  1.00  9.64 LIG 0.16  HD
ATOM     16  C   ACE C   0      14.989  18.135  36.093  1.00 12.10 LIG 0.21  C 
ATOM     17  CH3 ACE C   0      14.682  16.861  36.828  1.00 13.09 LIG 0.12  C 
ATOM     18 O    ACE C   0      14.110  18.953  35.820  1.00 13.69 LIG-0.27  OA
ENDBRANCH 6 14
ENDBRANCH 4 6
ENDBRANCH 1 2
BRANCH 1 19
ATOM     19  C   HIS C   2      13.665  18.719  31.985  1.00  9.05 LIG 0.24  C 
ATOM     20  N   ALA C   3      13.363  19.981  31.717  1.00  9.24 LIG-0.35  N 
ATOM     21 H    ALA C   3      13.931  20.580  31.477  1.00  9.24 LIG 0.16  HD
ATOM     22 O    HIS C   2      12.834  17.913  32.386  1.00  8.29 LIG-0.27  OA
BRANCH 20 23
ATOM     23  CA  ALA C   3      11.982  20.445  31.817  1.00  8.91 LIG 0.17  C 
ATOM     24  CB  ALA C   3      11.526  20.454  33.266  1.00  9.99 LIG 0.04  C 
BRANCH 23 25
ATOM     25  C   ALA C   3      11.852  21.847  31.215  1.00  9.36 LIG 0.24  C 
ATOM     26  N   ALA C   4      12.989  22.495  30.989  1.00  9.08 LIG-0.35  N 
ATOM     27 H    ALA C   4      13.768  22.139  31.067  1.00  9.08 LIG 0.16  HD
ATOM     28 O    ALA C   3      10.742  22.320  30.940  1.00  9.90 LIG-0.27  OA
BRANCH 26 29
ATOM     29  CA  ALA C   4      13.004  23.898  30.579  1.00  9.70 LIG 0.18  C 
ATOM     30  CB  ALA C   4      14.384  24.483  30.775  1.00  9.53 LIG 0.04  C 
BRANCH 29 31
ATOM     31  C   ALA C   4      12.551  24.126  29.149  1.00 11.00 LIG 0.28  C 
ATOM     32  N   NH2 C   5      12.150  25.349  28.831  1.00 10.22 LIG-0.11  N 
ATOM     33 O    ALA C   4      12.538  23.190  28.362  1.00 13.70 LIG-0.27  OA
ENDBRANCH 29 31
ENDBRANCH 26 29
ENDBRANCH 23 25
ENDBRANCH 20 23
ENDBRANCH 1 19
BRANCH 1 34
ATOM     34  CB  HIS C   2      15.060  16.835  31.237  1.00 12.23 LIG 0.10  C 
BRANCH 34 35
ATOM     35  CG  HIS C   2      15.709  16.620  29.912  1.00 15.24 LIG 0.06  A 
ATOM     36 ND1  HIS C   2      16.111  15.377  29.477  1.00 17.16 LIG-0.24  NA
ATOM     37  CE1 HIS C   2      16.650  15.487  28.276  1.00 17.55 LIG 0.23  A 
ATOM     38 NE2  HIS C   2      16.611  16.758  27.917  1.00 18.01 LIG-0.25  NA
ATOM     39  CD2 HIS C   2      16.025  17.486  28.922  1.00 16.53 LIG 0.14  A 
ENDBRANCH 34 35
ENDBRANCH 1 34
TORSDOF 12
ENDMDL
MODEL 65
USER: ADFR SOLUTION from run 72
USER: SCORE 9.976251 LL:  -2.500 LR:  -9.710 RR:   0.000 FEB:  -6.131
USER: RMSD 10.284645
USER: SEED 71
USER: STATUS no improvement in best in 23 clusters for 5 generations
USER: GENES 14
USER: genes 0 Translation |==|  0.35695 0.62478 0.33657
USER: genes 1 Rotation |==|  0.82718 0.81544 0.68417 0.59765
USER: genes 2 Torsion [CB]-CA--N-[C] |==|  0.87191
USER: genes 3 Torsion [N]-C--CA-[N] |==|  0.71667
USER: genes 4 Torsion [C]-CA--CB-[CG] |==|  0.43446
USER: genes 5 Torsion [CA]-CB--CG-[CD1] |==|  0.71839
USER: genes 6 Torsion [C]-CA--N-[C] |==|  0.16767
USER: genes 7 Torsion [N]-CA--C-[N] |==|  0.36729
USER: genes 8 Torsion [C]-N--CA-[CB] |==|  0.14908
USER: genes 9 Torsion [N]-CA--C-[N] |==|  0.83443
USER: genes 10 Torsion [C]-N--CA-[C] |==|  0.77558
USER: genes 11 Torsion [N]-CA--C-[N] |==|  0.37562
USER: genes 12 Torsion [N]-CA--CB-[CG] |==|  0.35751
USER: genes 13 Torsion [CA]-CB--CG-[CD2] |==|  0.74521
ROOT
ATOM      1  CA  HIS C   2      10.174  24.308  27.674  1.00 10.06 LIG 0.18  C 
ENDROOT
BRANCH 1 2
ATOM      2  N   HIS C   2       9.434  25.505  27.275  1.00  9.48 LIG-0.35  N 
ATOM      3 H    HIS C   2       9.086  25.456  26.490  1.00  9.48 LIG 0.16  HD
ATOM      4  C   PHE C   1       9.317  26.567  28.061  1.00  9.37 LIG 0.24  C 
ATOM      5 O    PHE C   1       9.743  26.605  29.210  1.00 11.27 LIG-0.27  OA
BRANCH 4 6
ATOM      6  CA  PHE C   1       8.634  27.770  27.448  1.00  8.68 LIG 0.18  C 
BRANCH 6 7
ATOM      7  CB  PHE C   1       7.816  27.304  26.245  1.00  8.30 LIG 0.07  C 
BRANCH 7 8
ATOM      8  CG  PHE C   1       6.685  28.224  25.891  1.00  6.80 LIG-0.06  A 
ATOM      9  CD1 PHE C   1       5.382  27.920  26.259  1.00  6.68 LIG 0.01  A 
ATOM     10  CE1 PHE C   1       4.346  28.778  25.940  1.00  6.85 LIG 0.00  A 
ATOM     11  CZ  PHE C   1       4.597  29.937  25.239  1.00  6.56 LIG 0.00  A 
ATOM     12  CE2 PHE C   1       5.889  30.253  24.861  1.00  6.82 LIG 0.00  A 
ATOM     13  CD2 PHE C   1       6.927  29.397  25.192  1.00  7.43 LIG 0.01  A 
ENDBRANCH 7 8
ENDBRANCH 6 7
BRANCH 6 14
ATOM     14  N   PHE C   1       9.612  28.785  27.045  1.00  9.64 LIG-0.35  N 
ATOM     15 H    PHE C   1       9.516  29.546  27.436  1.00  9.64 LIG 0.16  HD
ATOM     16  C   ACE C   0      10.556  28.523  26.148  1.00 12.10 LIG 0.21  C 
ATOM     17  CH3 ACE C   0      11.450  29.669  25.773  1.00 13.09 LIG 0.12  C 
ATOM     18 O    ACE C   0      10.680  27.409  25.638  1.00 13.69 LIG-0.27  OA
ENDBRANCH 6 14
ENDBRANCH 4 6
ENDBRANCH 1 2
BRANCH 1 19
ATOM     19  C   HIS C   2       9.379  23.558  28.722  1.00  9.05 LIG 0.24  C 
ATOM     20  N   ALA C   3       9.237  22.253  28.542  1.00  9.24 LIG-0.35  N 
ATOM     21 H    ALA C   3       9.499  21.823  27.845  1.00  9.24 LIG 0.16  HD
ATOM     22 O    HIS C   2       8.934  24.141  29.703  1.00  8.29 LIG-0.27  OA
BRANCH 20 23
ATOM     23  CA  ALA C   3       8.598  21.433  29.568  1.00  8.91 LIG 0.17  C 
ATOM     24  CB  ALA C   3       7.234  21.997  29.929  1.00  9.99 LIG 0.04  C 
BRANCH 23 25
ATOM     25  C   ALA C   3       8.459  19.990  29.079  1.00  9.36 LIG 0.24  C 
ATOM     26  N   ALA C   4       7.745  19.812  27.973  1.00  9.08 LIG-0.35  N 
ATOM     27 H    ALA C   4       7.453  20.455  27.482  1.00  9.08 LIG 0.16  HD
ATOM     28 O    ALA C   3       9.009  19.058  29.681  1.00  9.90 LIG-0.27  OA
BRANCH 26 29
ATOM     29  CA  ALA C   4       7.391  18.477  27.494  1.00  9.70 LIG 0.18  C 
ATOM     30  CB  ALA C   4       6.147  18.544  26.638  1.00  9.53 LIG 0.04  C 
BRANCH 29 31
ATOM     31  C   ALA C   4       8.502  17.785  26.726  1.00 11.00 LIG 0.28  C 
ATOM     32  N   NH2 C   5       8.733  16.512  27.018  1.00 10.22 LIG-0.11  N 
ATOM     33 O    ALA C   4       9.157  18.415  25.908  1.00 13.70 LIG-0.27  OA
ENDBRANCH 29 31
ENDBRANCH 26 29
ENDBRANCH 23 25
ENDBRANCH 20 23
ENDBRANCH 1 19
BRANCH 1 34
ATOM     34  CB  HIS C   2      11.531  24.672  28.289  1.00 12.23 LIG 0.10  C 
BRANCH 34 35
ATOM     35  CG  HIS C   2      11.791  24.035  29.612  1.00 15.24 LIG 0.06  A 
ATOM     36 ND1  HIS C   2      12.377  22.795  29.735  1.00 17.16 LIG-0.24  NA
ATOM     37  CE1 HIS C   2      12.482  22.486  31.015  1.00 17.55 LIG 0.23  A 
ATOM     38 NE2  HIS C   2      11.987  23.482  31.726  1.00 18.01 LIG-0.25  NA
ATOM     39  CD2 HIS C   2      11.550  24.464  30.873  1.00 16.53 LIG 0.14  A 
ENDBRANCH 34 35
ENDBRANCH 1 34
TORSDOF 12
ENDMDL
MODEL 66
USER: ADFR SOLUTION from run 146
USER: SCORE 10.608746 LL:  -2.749 LR:  -9.707 RR:   0.000 FEB:  -6.127
USER: RMSD 7.890017
USER: SEED 145
USER: STATUS no improvement in best in 15 clusters for 5 generations
USER: GENES 14
USER: genes 0 Translation |==|  0.46844 0.43225 0.54129
USER: genes 1 Rotation |==|  0.83825 0.79749 0.33980 0.64637
USER: genes 2 Torsion [CB]-CA--N-[C] |==|  0.86519
USER: genes 3 Torsion [N]-C--CA-[N] |==|  0.07127
USER: genes 4 Torsion [C]-CA--CB-[CG] |==|  0.32887
USER: genes 5 Torsion [CA]-CB--CG-[CD1] |==|  0.82945
USER: genes 6 Torsion [C]-CA--N-[C] |==|  0.69291
USER: genes 7 Torsion [N]-CA--C-[N] |==|  0.75571
USER: genes 8 Torsion [C]-N--CA-[CB] |==|  0.14492
USER: genes 9 Torsion [N]-CA--C-[N] |==|  0.03524
USER: genes 10 Torsion [C]-N--CA-[C] |==|  0.14867
USER: genes 11 Torsion [N]-CA--C-[N] |==|  0.07301
USER: genes 12 Torsion [N]-CA--CB-[CG] |==|  0.53279
USER: genes 13 Torsion [CA]-CB--CG-[CD2] |==|  0.76957
ROOT
ATOM      1  CA  HIS C   2      12.013  20.265  31.666  1.00 10.06 LIG 0.18  C 
ENDROOT
BRANCH 1 2
ATOM      2  N   HIS C   2      11.174  21.090  30.797  1.00  9.48 LIG-0.35  N 
ATOM      3 H    HIS C   2      10.351  20.843  30.769  1.00  9.48 LIG 0.16  HD
ATOM      4  C   PHE C   1      11.652  22.124  30.118  1.00  9.37 LIG 0.24  C 
ATOM      5 O    PHE C   1      12.807  22.524  30.221  1.00 11.27 LIG-0.27  OA
BRANCH 4 6
ATOM      6  CA  PHE C   1      10.685  22.790  29.163  1.00  8.68 LIG 0.18  C 
BRANCH 6 7
ATOM      7  CB  PHE C   1      11.013  24.281  29.102  1.00  8.30 LIG 0.07  C 
BRANCH 7 8
ATOM      8  CG  PHE C   1      11.418  24.756  27.738  1.00  6.80 LIG-0.06  A 
ATOM      9  CD1 PHE C   1      12.544  24.239  27.112  1.00  6.68 LIG 0.01  A 
ATOM     10  CE1 PHE C   1      12.904  24.672  25.850  1.00  6.85 LIG 0.00  A 
ATOM     11  CZ  PHE C   1      12.156  25.632  25.207  1.00  6.56 LIG 0.00  A 
ATOM     12  CE2 PHE C   1      11.033  26.160  25.817  1.00  6.82 LIG 0.00  A 
ATOM     13  CD2 PHE C   1      10.667  25.717  27.077  1.00  7.43 LIG 0.01  A 
ENDBRANCH 7 8
ENDBRANCH 6 7
BRANCH 6 14
ATOM     14  N   PHE C   1       9.297  22.584  29.585  1.00  9.64 LIG-0.35  N 
ATOM     15 H    PHE C   1       9.077  23.003  30.303  1.00  9.64 LIG 0.16  HD
ATOM     16  C   ACE C   0       8.469  21.807  28.895  1.00 12.10 LIG 0.21  C 
ATOM     17  CH3 ACE C   0       7.095  21.624  29.472  1.00 13.09 LIG 0.12  C 
ATOM     18 O    ACE C   0       8.813  21.251  27.852  1.00 13.69 LIG-0.27  OA
ENDBRANCH 6 14
ENDBRANCH 4 6
ENDBRANCH 1 2
BRANCH 1 19
ATOM     19  C   HIS C   2      12.404  21.067  32.889  1.00  9.05 LIG 0.24  C 
ATOM     20  N   ALA C   3      13.501  21.805  32.794  1.00  9.24 LIG-0.35  N 
ATOM     21 H    ALA C   3      14.036  21.802  32.121  1.00  9.24 LIG 0.16  HD
ATOM     22 O    HIS C   2      11.703  21.055  33.894  1.00  8.29 LIG-0.27  OA
BRANCH 20 23
ATOM     23  CA  ALA C   3      13.878  22.707  33.879  1.00  8.91 LIG 0.17  C 
ATOM     24  CB  ALA C   3      13.908  21.966  35.205  1.00  9.99 LIG 0.04  C 
BRANCH 23 25
ATOM     25  C   ALA C   3      15.246  23.331  33.594  1.00  9.36 LIG 0.24  C 
ATOM     26  N   ALA C   4      15.715  23.178  32.361  1.00  9.08 LIG-0.35  N 
ATOM     27 H    ALA C   4      15.259  22.845  31.712  1.00  9.08 LIG 0.16  HD
ATOM     28 O    ALA C   3      15.854  23.960  34.471  1.00  9.90 LIG-0.27  OA
BRANCH 26 29
ATOM     29  CA  ALA C   4      17.076  23.573  32.002  1.00  9.70 LIG 0.18  C 
ATOM     30  CB  ALA C   4      17.199  25.079  32.008  1.00  9.53 LIG 0.04  C 
BRANCH 29 31
ATOM     31  C   ALA C   4      18.146  22.969  32.892  1.00 11.00 LIG 0.28  C 
ATOM     32  N   NH2 C   5      17.858  21.818  33.484  1.00 10.22 LIG-0.11  N 
ATOM     33 O    ALA C   4      19.201  23.564  33.059  1.00 13.70 LIG-0.27  OA
ENDBRANCH 29 31
ENDBRANCH 26 29
ENDBRANCH 23 25
ENDBRANCH 20 23
ENDBRANCH 1 19
BRANCH 1 34
ATOM     34  CB  HIS C   2      13.304  19.841  30.955  1.00 12.23 LIG 0.10  C 
BRANCH 34 35
ATOM     35  CG  HIS C   2      14.074  18.781  31.667  1.00 15.24 LIG 0.06  A 
ATOM     36 ND1  HIS C   2      13.973  17.447  31.342  1.00 17.16 LIG-0.24  NA
ATOM     37  CE1 HIS C   2      14.762  16.743  32.134  1.00 17.55 LIG 0.23  A 
ATOM     38 NE2  HIS C   2      15.371  17.574  32.960  1.00 18.01 LIG-0.25  NA
ATOM     39  CD2 HIS C   2      14.959  18.854  32.688  1.00 16.53 LIG 0.14  A 
ENDBRANCH 34 35
ENDBRANCH 1 34
TORSDOF 12
ENDMDL
MODEL 67
USER: ADFR SOLUTION from run 175
USER: SCORE 11.309813 LL:  -2.920 LR:  -9.711 RR:   0.000 FEB:  -6.131
USER: RMSD 5.455551
USER: SEED 174
USER: STATUS no improvement in best in 39 clusters for 5 generations
USER: GENES 14
USER: genes 0 Translation |==|  0.61243 0.37464 0.51486
USER: genes 1 Rotation |==|  0.15578 0.75665 0.24553 0.52975
USER: genes 2 Torsion [CB]-CA--N-[C] |==|  0.79938
USER: genes 3 Torsion [N]-C--CA-[N] |==|  0.39609
USER: genes 4 Torsion [C]-CA--CB-[CG] |==|  0.82677
USER: genes 5 Torsion [CA]-CB--CG-[CD1] |==|  0.25267
USER: genes 6 Torsion [C]-CA--N-[C] |==|  0.82010
USER: genes 7 Torsion [N]-CA--C-[N] |==|  0.21236
USER: genes 8 Torsion [C]-N--CA-[CB] |==|  0.48270
USER: genes 9 Torsion [N]-CA--C-[N] |==|  0.33333
USER: genes 10 Torsion [C]-N--CA-[C] |==|  0.76730
USER: genes 11 Torsion [N]-CA--C-[N] |==|  0.95453
USER: genes 12 Torsion [N]-CA--CB-[CG] |==|  0.79697
USER: genes 13 Torsion [CA]-CB--CG-[CD2] |==|  0.21470
ROOT
ATOM      1  CA  HIS C   2      14.389  19.056  31.151  1.00 10.06 LIG 0.18  C 
ENDROOT
BRANCH 1 2
ATOM      2  N   HIS C   2      14.928  18.652  32.449  1.00  9.48 LIG-0.35  N 
ATOM      3 H    HIS C   2      15.775  18.780  32.532  1.00  9.48 LIG 0.16  HD
ATOM      4  C   PHE C   1      14.170  18.135  33.407  1.00  9.37 LIG 0.24  C 
ATOM      5 O    PHE C   1      12.951  18.029  33.318  1.00 11.27 LIG-0.27  OA
BRANCH 4 6
ATOM      6  CA  PHE C   1      14.902  17.647  34.638  1.00  8.68 LIG 0.18  C 
BRANCH 6 7
ATOM      7  CB  PHE C   1      15.150  16.147  34.492  1.00  8.30 LIG 0.07  C 
BRANCH 7 8
ATOM      8  CG  PHE C   1      13.893  15.332  34.409  1.00  6.80 LIG-0.06  A 
ATOM      9  CD1 PHE C   1      13.311  15.047  33.181  1.00  6.68 LIG 0.01  A 
ATOM     10  CE1 PHE C   1      12.160  14.285  33.112  1.00  6.85 LIG 0.00  A 
ATOM     11  CZ  PHE C   1      11.569  13.816  34.264  1.00  6.56 LIG 0.00  A 
ATOM     12  CE2 PHE C   1      12.133  14.094  35.496  1.00  6.82 LIG 0.00  A 
ATOM     13  CD2 PHE C   1      13.292  14.847  35.562  1.00  7.43 LIG 0.01  A 
ENDBRANCH 7 8
ENDBRANCH 6 7
BRANCH 6 14
ATOM     14  N   PHE C   1      14.136  17.928  35.856  1.00  9.64 LIG-0.35  N 
ATOM     15 H    PHE C   1      13.869  17.227  36.277  1.00  9.64 LIG 0.16  HD
ATOM     16  C   ACE C   0      13.891  19.173  36.250  1.00 12.10 LIG 0.21  C 
ATOM     17  CH3 ACE C   0      13.037  19.323  37.476  1.00 13.09 LIG 0.12  C 
ATOM     18 O    ACE C   0      14.321  20.149  35.637  1.00 13.69 LIG-0.27  OA
ENDBRANCH 6 14
ENDBRANCH 4 6
ENDBRANCH 1 2
BRANCH 1 19
ATOM     19  C   HIS C   2      13.128  19.864  31.365  1.00  9.05 LIG 0.24  C 
ATOM     20  N   ALA C   3      13.282  21.119  31.764  1.00  9.24 LIG-0.35  N 
ATOM     21 H    ALA C   3      14.036  21.475  31.976  1.00  9.24 LIG 0.16  HD
ATOM     22 O    HIS C   2      12.027  19.377  31.133  1.00  8.29 LIG-0.27  OA
BRANCH 20 23
ATOM     23  CA  ALA C   3      12.128  22.006  31.870  1.00  8.91 LIG 0.17  C 
ATOM     24  CB  ALA C   3      12.529  23.334  32.488  1.00  9.99 LIG 0.04  C 
BRANCH 23 25
ATOM     25  C   ALA C   3      11.509  22.234  30.489  1.00  9.36 LIG 0.24  C 
ATOM     26  N   ALA C   4      10.244  21.857  30.344  1.00  9.08 LIG-0.35  N 
ATOM     27 H    ALA C   4       9.744  21.595  30.993  1.00  9.08 LIG 0.16  HD
ATOM     28 O    ALA C   3      12.161  22.763  29.579  1.00  9.90 LIG-0.27  OA
BRANCH 26 29
ATOM     29  CA  ALA C   4       9.586  21.859  29.038  1.00  9.70 LIG 0.18  C 
ATOM     30  CB  ALA C   4       8.487  20.823  29.007  1.00  9.53 LIG 0.04  C 
BRANCH 29 31
ATOM     31  C   ALA C   4       9.025  23.211  28.635  1.00 11.00 LIG 0.28  C 
ATOM     32  N   NH2 C   5       8.885  24.116  29.594  1.00 10.22 LIG-0.11  N 
ATOM     33 O    ALA C   4       8.696  23.407  27.474  1.00 13.70 LIG-0.27  OA
ENDBRANCH 29 31
ENDBRANCH 26 29
ENDBRANCH 23 25
ENDBRANCH 20 23
ENDBRANCH 1 19
BRANCH 1 34
ATOM     34  CB  HIS C   2      14.022  17.836  30.297  1.00 12.23 LIG 0.10  C 
BRANCH 34 35
ATOM     35  CG  HIS C   2      15.196  17.100  29.746  1.00 15.24 LIG 0.06  A 
ATOM     36 ND1  HIS C   2      15.599  17.224  28.435  1.00 17.16 LIG-0.24  NA
ATOM     37  CE1 HIS C   2      16.658  16.461  28.230  1.00 17.55 LIG 0.23  A 
ATOM     38 NE2  HIS C   2      16.955  15.848  29.361  1.00 18.01 LIG-0.25  NA
ATOM     39  CD2 HIS C   2      16.057  16.232  30.325  1.00 16.53 LIG 0.14  A 
ENDBRANCH 34 35
ENDBRANCH 1 34
TORSDOF 12
ENDMDL
MODEL 68
USER: ADFR SOLUTION from run 84
USER: SCORE 11.131760 LL:  -2.515 LR:  -9.714 RR:   0.000 FEB:  -6.134
USER: RMSD 8.254522
USER: SEED 83
USER: STATUS no improvement in best in 13 clusters for 5 generations
USER: GENES 14
USER: genes 0 Translation |==|  0.44622 0.50077 0.50993
USER: genes 1 Rotation |==|  0.45510 0.85406 0.85017 0.50134
USER: genes 2 Torsion [CB]-CA--N-[C] |==|  0.87222
USER: genes 3 Torsion [N]-C--CA-[N] |==|  0.90440
USER: genes 4 Torsion [C]-CA--CB-[CG] |==|  0.39135
USER: genes 5 Torsion [CA]-CB--CG-[CD1] |==|  0.93964
USER: genes 6 Torsion [C]-CA--N-[C] |==|  0.79526
USER: genes 7 Torsion [N]-CA--C-[N] |==|  0.39409
USER: genes 8 Torsion [C]-N--CA-[CB] |==|  0.86541
USER: genes 9 Torsion [N]-CA--C-[N] |==|  0.34033
USER: genes 10 Torsion [C]-N--CA-[C] |==|  0.61120
USER: genes 11 Torsion [N]-CA--C-[N] |==|  0.97741
USER: genes 12 Torsion [N]-CA--CB-[CG] |==|  0.44409
USER: genes 13 Torsion [CA]-CB--CG-[CD2] |==|  0.20009
ROOT
ATOM      1  CA  HIS C   2      11.647  21.704  31.055  1.00 10.06 LIG 0.18  C 
ENDROOT
BRANCH 1 2
ATOM      2  N   HIS C   2      10.676  21.536  29.974  1.00  9.48 LIG-0.35  N 
ATOM      3 H    HIS C   2      10.956  21.804  29.206  1.00  9.48 LIG 0.16  HD
ATOM      4  C   PHE C   1       9.472  21.014  30.171  1.00  9.37 LIG 0.24  C 
ATOM      5 O    PHE C   1       9.103  20.558  31.248  1.00 11.27 LIG-0.27  OA
BRANCH 4 6
ATOM      6  CA  PHE C   1       8.541  21.033  28.978  1.00  8.68 LIG 0.18  C 
BRANCH 6 7
ATOM      7  CB  PHE C   1       8.784  19.769  28.154  1.00  8.30 LIG 0.07  C 
BRANCH 7 8
ATOM      8  CG  PHE C   1       7.531  19.161  27.598  1.00  6.80 LIG-0.06  A 
ATOM      9  CD1 PHE C   1       6.296  19.431  28.172  1.00  6.68 LIG 0.01  A 
ATOM     10  CE1 PHE C   1       5.143  18.876  27.647  1.00  6.85 LIG 0.00  A 
ATOM     11  CZ  PHE C   1       5.212  18.037  26.557  1.00  6.56 LIG 0.00  A 
ATOM     12  CE2 PHE C   1       6.434  17.755  25.976  1.00  6.82 LIG 0.00  A 
ATOM     13  CD2 PHE C   1       7.586  18.320  26.496  1.00  7.43 LIG 0.01  A 
ENDBRANCH 7 8
ENDBRANCH 6 7
BRANCH 6 14
ATOM     14  N   PHE C   1       8.751  22.230  28.160  1.00  9.64 LIG-0.35  N 
ATOM     15 H    PHE C   1       9.159  22.087  27.417  1.00  9.64 LIG 0.16  HD
ATOM     16  C   ACE C   0       8.334  23.427  28.561  1.00 12.10 LIG 0.21  C 
ATOM     17  CH3 ACE C   0       8.673  24.581  27.663  1.00 13.09 LIG 0.12  C 
ATOM     18 O    ACE C   0       7.722  23.585  29.618  1.00 13.69 LIG-0.27  OA
ENDBRANCH 6 14
ENDBRANCH 4 6
ENDBRANCH 1 2
BRANCH 1 19
ATOM     19  C   HIS C   2      12.199  20.350  31.443  1.00  9.05 LIG 0.24  C 
ATOM     20  N   ALA C   3      13.488  20.295  31.750  1.00  9.24 LIG-0.35  N 
ATOM     21 H    ALA C   3      14.037  20.953  31.673  1.00  9.24 LIG 0.16  HD
ATOM     22 O    HIS C   2      11.465  19.371  31.507  1.00  8.29 LIG-0.27  OA
BRANCH 20 23
ATOM     23  CA  ALA C   3      14.073  19.058  32.258  1.00  8.91 LIG 0.17  C 
ATOM     24  CB  ALA C   3      13.222  18.486  33.379  1.00  9.99 LIG 0.04  C 
BRANCH 23 25
ATOM     25  C   ALA C   3      14.211  18.036  31.127  1.00  9.36 LIG 0.24  C 
ATOM     26  N   ALA C   4      15.435  17.574  30.901  1.00  9.08 LIG-0.35  N 
ATOM     27 H    ALA C   4      16.111  17.739  31.406  1.00  9.08 LIG 0.16  HD
ATOM     28 O    ALA C   3      13.220  17.657  30.488  1.00  9.90 LIG-0.27  OA
BRANCH 26 29
ATOM     29  CA  ALA C   4      15.735  16.728  29.747  1.00  9.70 LIG 0.18  C 
ATOM     30  CB  ALA C   4      16.284  17.567  28.616  1.00  9.53 LIG 0.04  C 
BRANCH 29 31
ATOM     31  C   ALA C   4      16.693  15.591  30.051  1.00 11.00 LIG 0.28  C 
ATOM     32  N   NH2 C   5      17.267  15.590  31.247  1.00 10.22 LIG-0.11  N 
ATOM     33 O    ALA C   4      16.927  14.751  29.194  1.00 13.70 LIG-0.27  OA
ENDBRANCH 29 31
ENDBRANCH 26 29
ENDBRANCH 23 25
ENDBRANCH 20 23
ENDBRANCH 1 19
BRANCH 1 34
ATOM     34  CB  HIS C   2      10.993  22.316  32.300  1.00 12.23 LIG 0.10  C 
BRANCH 34 35
ATOM     35  CG  HIS C   2      11.754  22.089  33.562  1.00 15.24 LIG 0.06  A 
ATOM     36 ND1  HIS C   2      11.326  21.219  34.540  1.00 17.16 LIG-0.24  NA
ATOM     37  CE1 HIS C   2      12.192  21.222  35.538  1.00 17.55 LIG 0.23  A 
ATOM     38 NE2  HIS C   2      13.166  22.063  35.241  1.00 18.01 LIG-0.25  NA
ATOM     39  CD2 HIS C   2      12.916  22.617  34.011  1.00 16.53 LIG 0.14  A 
ENDBRANCH 34 35
ENDBRANCH 1 34
TORSDOF 12
ENDMDL
MODEL 69
USER: ADFR SOLUTION from run 26
USER: SCORE 10.296044 LL:  -2.042 LR:  -9.700 RR:   0.000 FEB:  -6.120
USER: RMSD 3.454229
USER: SEED 25
USER: STATUS searching
USER: GENES 14
USER: genes 0 Translation |==|  0.45209 0.45272 0.49992
USER: genes 1 Rotation |==|  0.74156 0.31059 0.59039 0.88419
USER: genes 2 Torsion [CB]-CA--N-[C] |==|  0.23668
USER: genes 3 Torsion [N]-C--CA-[N] |==|  0.39417
USER: genes 4 Torsion [C]-CA--CB-[CG] |==|  0.64932
USER: genes 5 Torsion [CA]-CB--CG-[CD1] |==|  0.35641
USER: genes 6 Torsion [C]-CA--N-[C] |==|  0.74496
USER: genes 7 Torsion [N]-CA--C-[N] |==|  0.51533
USER: genes 8 Torsion [C]-N--CA-[CB] |==|  0.85604
USER: genes 9 Torsion [N]-CA--C-[N] |==|  0.43241
USER: genes 10 Torsion [C]-N--CA-[C] |==|  0.86441
USER: genes 11 Torsion [N]-CA--C-[N] |==|  0.37593
USER: genes 12 Torsion [N]-CA--CB-[CG] |==|  0.61041
USER: genes 13 Torsion [CA]-CB--CG-[CD2] |==|  0.47740
ROOT
ATOM      1  CA  HIS C   2      11.743  20.695  30.859  1.00 10.06 LIG 0.18  C 
ENDROOT
BRANCH 1 2
ATOM      2  N   HIS C   2      13.086  20.179  31.125  1.00  9.48 LIG-0.35  N 
ATOM      3 H    HIS C   2      13.669  20.789  31.291  1.00  9.48 LIG 0.16  HD
ATOM      4  C   PHE C   1      13.368  18.883  31.108  1.00  9.37 LIG 0.24  C 
ATOM      5 O    PHE C   1      12.521  18.011  30.950  1.00 11.27 LIG-0.27  OA
BRANCH 4 6
ATOM      6  CA  PHE C   1      14.829  18.524  31.271  1.00  8.68 LIG 0.18  C 
BRANCH 6 7
ATOM      7  CB  PHE C   1      15.434  18.313  29.884  1.00  8.30 LIG 0.07  C 
BRANCH 7 8
ATOM      8  CG  PHE C   1      16.123  16.990  29.720  1.00  6.80 LIG-0.06  A 
ATOM      9  CD1 PHE C   1      15.816  16.158  28.652  1.00  6.68 LIG 0.01  A 
ATOM     10  CE1 PHE C   1      16.463  14.946  28.500  1.00  6.85 LIG 0.00  A 
ATOM     11  CZ  PHE C   1      17.409  14.546  29.418  1.00  6.56 LIG 0.00  A 
ATOM     12  CE2 PHE C   1      17.724  15.361  30.489  1.00  6.82 LIG 0.00  A 
ATOM     13  CD2 PHE C   1      17.083  16.580  30.633  1.00  7.43 LIG 0.01  A 
ENDBRANCH 7 8
ENDBRANCH 6 7
BRANCH 6 14
ATOM     14  N   PHE C   1      14.990  17.321  32.092  1.00  9.64 LIG-0.35  N 
ATOM     15 H    PHE C   1      14.967  16.583  31.651  1.00  9.64 LIG 0.16  HD
ATOM     16  C   ACE C   0      15.157  17.396  33.408  1.00 12.10 LIG 0.21  C 
ATOM     17  CH3 ACE C   0      15.241  16.089  34.141  1.00 13.09 LIG 0.12  C 
ATOM     18 O    ACE C   0      15.220  18.475  33.998  1.00 13.69 LIG-0.27  OA
ENDBRANCH 6 14
ENDBRANCH 4 6
ENDBRANCH 1 2
BRANCH 1 19
ATOM     19  C   HIS C   2      11.846  22.125  30.374  1.00  9.05 LIG 0.24  C 
ATOM     20  N   ALA C   3      10.707  22.779  30.195  1.00  9.24 LIG-0.35  N 
ATOM     21 H    ALA C   3       9.925  22.428  30.265  1.00  9.24 LIG 0.16  HD
ATOM     22 O    HIS C   2      12.940  22.649  30.202  1.00  8.29 LIG-0.27  OA
BRANCH 20 23
ATOM     23  CA  ALA C   3      10.718  24.199  29.853  1.00  8.91 LIG 0.17  C 
ATOM     24  CB  ALA C   3      11.580  24.977  30.832  1.00  9.99 LIG 0.04  C 
BRANCH 23 25
ATOM     25  C   ALA C   3      11.235  24.393  28.426  1.00  9.36 LIG 0.24  C 
ATOM     26  N   ALA C   4      10.848  25.504  27.809  1.00  9.08 LIG-0.35  N 
ATOM     27 H    ALA C   4      10.420  26.143  28.194  1.00  9.08 LIG 0.16  HD
ATOM     28 O    ALA C   3      11.989  23.562  27.903  1.00  9.90 LIG-0.27  OA
BRANCH 26 29
ATOM     29  CA  ALA C   4      11.126  25.732  26.392  1.00  9.70 LIG 0.18  C 
ATOM     30  CB  ALA C   4      10.739  27.141  26.006  1.00  9.53 LIG 0.04  C 
BRANCH 29 31
ATOM     31  C   ALA C   4      12.569  25.473  26.000  1.00 11.00 LIG 0.28  C 
ATOM     32  N   NH2 C   5      12.776  24.785  24.885  1.00 10.22 LIG-0.11  N 
ATOM     33 O    ALA C   4      13.473  25.867  26.723  1.00 13.70 LIG-0.27  OA
ENDBRANCH 29 31
ENDBRANCH 26 29
ENDBRANCH 23 25
ENDBRANCH 20 23
ENDBRANCH 1 19
BRANCH 1 34
ATOM     34  CB  HIS C   2      10.885  20.695  32.130  1.00 12.23 LIG 0.10  C 
BRANCH 34 35
ATOM     35  CG  HIS C   2       9.468  20.286  31.910  1.00 15.24 LIG 0.06  A 
ATOM     36 ND1  HIS C   2       8.938  20.096  30.653  1.00 17.16 LIG-0.24  NA
ATOM     37  CE1 HIS C   2       7.670  19.741  30.762  1.00 17.55 LIG 0.23  A 
ATOM     38 NE2  HIS C   2       7.360  19.692  32.045  1.00 18.01 LIG-0.25  NA
ATOM     39  CD2 HIS C   2       8.468  20.027  32.784  1.00 16.53 LIG 0.14  A 
ENDBRANCH 34 35
ENDBRANCH 1 34
TORSDOF 12
ENDMDL
MODEL 70
USER: ADFR SOLUTION from run 196
USER: SCORE 11.003447 LL:  -2.963 LR:  -9.697 RR:   0.000 FEB:  -6.117
USER: RMSD 2.304186
USER: SEED 195
USER: STATUS no improvement in best in 22 clusters for 5 generations
USER: GENES 14
USER: genes 0 Translation |==|  0.45116 0.52022 0.47871
USER: genes 1 Rotation |==|  0.64250 0.29665 0.53902 0.93223
USER: genes 2 Torsion [CB]-CA--N-[C] |==|  0.22400
USER: genes 3 Torsion [N]-C--CA-[N] |==|  0.30305
USER: genes 4 Torsion [C]-CA--CB-[CG] |==|  0.43844
USER: genes 5 Torsion [CA]-CB--CG-[CD1] |==|  0.76759
USER: genes 6 Torsion [C]-CA--N-[C] |==|  0.72252
USER: genes 7 Torsion [N]-CA--C-[N] |==|  0.40673
USER: genes 8 Torsion [C]-N--CA-[CB] |==|  0.21667
USER: genes 9 Torsion [N]-CA--C-[N] |==|  0.11123
USER: genes 10 Torsion [C]-N--CA-[C] |==|  0.81636
USER: genes 11 Torsion [N]-CA--C-[N] |==|  0.43333
USER: genes 12 Torsion [N]-CA--CB-[CG] |==|  0.06773
USER: genes 13 Torsion [CA]-CB--CG-[CD2] |==|  0.68582
ROOT
ATOM      1  CA  HIS C   2      11.728  22.113  30.446  1.00 10.06 LIG 0.18  C 
ENDROOT
BRANCH 1 2
ATOM      2  N   HIS C   2      12.826  21.240  30.860  1.00  9.48 LIG-0.35  N 
ATOM      3 H    HIS C   2      13.606  21.592  30.771  1.00  9.48 LIG 0.16  HD
ATOM      4  C   PHE C   1      12.626  20.016  31.331  1.00  9.37 LIG 0.24  C 
ATOM      5 O    PHE C   1      11.512  19.545  31.533  1.00 11.27 LIG-0.27  OA
BRANCH 4 6
ATOM      6  CA  PHE C   1      13.871  19.196  31.589  1.00  8.68 LIG 0.18  C 
BRANCH 6 7
ATOM      7  CB  PHE C   1      13.710  17.840  30.903  1.00  8.30 LIG 0.07  C 
BRANCH 7 8
ATOM      8  CG  PHE C   1      15.010  17.147  30.621  1.00  6.80 LIG-0.06  A 
ATOM      9  CD1 PHE C   1      15.744  17.450  29.482  1.00  6.68 LIG 0.01  A 
ATOM     10  CE1 PHE C   1      16.947  16.817  29.235  1.00  6.85 LIG 0.00  A 
ATOM     11  CZ  PHE C   1      17.423  15.866  30.111  1.00  6.56 LIG 0.00  A 
ATOM     12  CE2 PHE C   1      16.703  15.550  31.249  1.00  6.82 LIG 0.00  A 
ATOM     13  CD2 PHE C   1      15.503  16.194  31.500  1.00  7.43 LIG 0.01  A 
ENDBRANCH 7 8
ENDBRANCH 6 7
BRANCH 6 14
ATOM     14  N   PHE C   1      14.104  19.023  33.025  1.00  9.64 LIG-0.35  N 
ATOM     15 H    PHE C   1      13.627  18.409  33.392  1.00  9.64 LIG 0.16  HD
ATOM     16  C   ACE C   0      14.986  19.770  33.680  1.00 12.10 LIG 0.21  C 
ATOM     17  CH3 ACE C   0      15.079  19.540  35.161  1.00 13.09 LIG 0.12  C 
ATOM     18 O    ACE C   0      15.675  20.617  33.111  1.00 13.69 LIG-0.27  OA
ENDBRANCH 6 14
ENDBRANCH 4 6
ENDBRANCH 1 2
BRANCH 1 19
ATOM     19  C   HIS C   2      12.269  23.198  29.540  1.00  9.05 LIG 0.24  C 
ATOM     20  N   ALA C   3      11.469  23.622  28.571  1.00  9.24 LIG-0.35  N 
ATOM     21 H    ALA C   3      10.706  23.276  28.381  1.00  9.24 LIG 0.16  HD
ATOM     22 O    HIS C   2      13.379  23.679  29.736  1.00  8.29 LIG-0.27  OA
BRANCH 20 23
ATOM     23  CA  ALA C   3      11.861  24.753  27.735  1.00  8.91 LIG 0.17  C 
ATOM     24  CB  ALA C   3      12.874  24.318  26.689  1.00  9.99 LIG 0.04  C 
BRANCH 23 25
ATOM     25  C   ALA C   3      10.629  25.357  27.056  1.00  9.36 LIG 0.24  C 
ATOM     26  N   ALA C   4       9.533  25.441  27.800  1.00  9.08 LIG-0.35  N 
ATOM     27 H    ALA C   4       9.510  25.273  28.643  1.00  9.08 LIG 0.16  HD
ATOM     28 O    ALA C   3      10.681  25.760  25.886  1.00  9.90 LIG-0.27  OA
BRANCH 26 29
ATOM     29  CA  ALA C   4       8.246  25.838  27.229  1.00  9.70 LIG 0.18  C 
ATOM     30  CB  ALA C   4       7.140  25.618  28.236  1.00  9.53 LIG 0.04  C 
BRANCH 29 31
ATOM     31  C   ALA C   4       8.209  27.272  26.734  1.00 11.00 LIG 0.28  C 
ATOM     32  N   NH2 C   5       7.315  27.563  25.800  1.00 10.22 LIG-0.11  N 
ATOM     33 O    ALA C   4       9.007  28.086  27.176  1.00 13.70 LIG-0.27  OA
ENDBRANCH 29 31
ENDBRANCH 26 29
ENDBRANCH 23 25
ENDBRANCH 20 23
ENDBRANCH 1 19
BRANCH 1 34
ATOM     34  CB  HIS C   2      11.073  22.796  31.653  1.00 12.23 LIG 0.10  C 
BRANCH 34 35
ATOM     35  CG  HIS C   2      11.964  22.919  32.842  1.00 15.24 LIG 0.06  A 
ATOM     36 ND1  HIS C   2      13.081  23.724  32.852  1.00 17.16 LIG-0.24  NA
ATOM     37  CE1 HIS C   2      13.674  23.635  34.029  1.00 17.55 LIG 0.23  A 
ATOM     38 NE2  HIS C   2      12.980  22.802  34.783  1.00 18.01 LIG-0.25  NA
ATOM     39  CD2 HIS C   2      11.905  22.341  34.065  1.00 16.53 LIG 0.14  A 
ENDBRANCH 34 35
ENDBRANCH 1 34
TORSDOF 12
ENDMDL
MODEL 71
USER: ADFR SOLUTION from run 39
USER: SCORE 9.778243 LL:  -2.413 LR:  -9.701 RR:   0.000 FEB:  -6.121
USER: RMSD 7.721660
USER: SEED 38
USER: STATUS no improvement in best in 22 clusters for 5 generations
USER: GENES 14
USER: genes 0 Translation |==|  0.47043 0.58912 0.40410
USER: genes 1 Rotation |==|  0.56995 0.00517 0.49200 0.51358
USER: genes 2 Torsion [CB]-CA--N-[C] |==|  0.80000
USER: genes 3 Torsion [N]-C--CA-[N] |==|  0.42812
USER: genes 4 Torsion [C]-CA--CB-[CG] |==|  0.44248
USER: genes 5 Torsion [CA]-CB--CG-[CD1] |==|  0.24879
USER: genes 6 Torsion [C]-CA--N-[C] |==|  0.79891
USER: genes 7 Torsion [N]-CA--C-[N] |==|  0.20265
USER: genes 8 Torsion [C]-N--CA-[CB] |==|  0.39068
USER: genes 9 Torsion [N]-CA--C-[N] |==|  0.57640
USER: genes 10 Torsion [C]-N--CA-[C] |==|  0.75099
USER: genes 11 Torsion [N]-CA--C-[N] |==|  0.36296
USER: genes 12 Torsion [N]-CA--CB-[CG] |==|  0.72655
USER: genes 13 Torsion [CA]-CB--CG-[CD2] |==|  0.48292
ROOT
ATOM      1  CA  HIS C   2      12.046  23.560  28.991  1.00 10.06 LIG 0.18  C 
ENDROOT
BRANCH 1 2
ATOM      2  N   HIS C   2      11.238  22.341  29.037  1.00  9.48 LIG-0.35  N 
ATOM      3 H    HIS C   2      11.469  21.746  28.461  1.00  9.48 LIG 0.16  HD
ATOM      4  C   PHE C   1      10.239  22.180  29.895  1.00  9.37 LIG 0.24  C 
ATOM      5 O    PHE C   1       9.963  22.995  30.769  1.00 11.27 LIG-0.27  OA
BRANCH 4 6
ATOM      6  CA  PHE C   1       9.419  20.920  29.724  1.00  8.68 LIG 0.18  C 
BRANCH 6 7
ATOM      7  CB  PHE C   1       8.359  21.173  28.653  1.00  8.30 LIG 0.07  C 
BRANCH 7 8
ATOM      8  CG  PHE C   1       7.812  19.919  28.036  1.00  6.80 LIG-0.06  A 
ATOM      9  CD1 PHE C   1       6.707  19.282  28.584  1.00  6.68 LIG 0.01  A 
ATOM     10  CE1 PHE C   1       6.202  18.134  28.004  1.00  6.85 LIG 0.00  A 
ATOM     11  CZ  PHE C   1       6.800  17.603  26.883  1.00  6.56 LIG 0.00  A 
ATOM     12  CE2 PHE C   1       7.904  18.223  26.326  1.00  6.82 LIG 0.00  A 
ATOM     13  CD2 PHE C   1       8.402  19.379  26.903  1.00  7.43 LIG 0.01  A 
ENDBRANCH 7 8
ENDBRANCH 6 7
BRANCH 6 14
ATOM     14  N   PHE C   1       8.793  20.520  30.987  1.00  9.64 LIG-0.35  N 
ATOM     15 H    PHE C   1       7.943  20.649  31.019  1.00  9.64 LIG 0.16  HD
ATOM     16  C   ACE C   0       9.505  20.003  31.982  1.00 12.10 LIG 0.21  C 
ATOM     17  CH3 ACE C   0       8.753  19.700  33.246  1.00 13.09 LIG 0.12  C 
ATOM     18 O    ACE C   0      10.715  19.802  31.883  1.00 13.69 LIG-0.27  OA
ENDBRANCH 6 14
ENDBRANCH 4 6
ENDBRANCH 1 2
BRANCH 1 19
ATOM     19  C   HIS C   2      12.453  23.941  30.398  1.00  9.05 LIG 0.24  C 
ATOM     20  N   ALA C   3      13.380  23.190  30.976  1.00  9.24 LIG-0.35  N 
ATOM     21 H    ALA C   3      13.708  22.470  30.639  1.00  9.24 LIG 0.16  HD
ATOM     22 O    HIS C   2      11.968  24.925  30.943  1.00  8.29 LIG-0.27  OA
BRANCH 20 23
ATOM     23  CA  ALA C   3      13.923  23.563  32.280  1.00  8.91 LIG 0.17  C 
ATOM     24  CB  ALA C   3      14.129  22.331  33.144  1.00  9.99 LIG 0.04  C 
BRANCH 23 25
ATOM     25  C   ALA C   3      15.246  24.312  32.106  1.00  9.36 LIG 0.24  C 
ATOM     26  N   ALA C   4      16.109  24.219  33.111  1.00  9.08 LIG-0.35  N 
ATOM     27 H    ALA C   4      16.005  23.696  33.786  1.00  9.08 LIG 0.16  HD
ATOM     28 O    ALA C   3      15.488  24.943  31.068  1.00  9.90 LIG-0.27  OA
BRANCH 26 29
ATOM     29  CA  ALA C   4      17.332  25.019  33.150  1.00  9.70 LIG 0.18  C 
ATOM     30  CB  ALA C   4      17.679  25.370  34.578  1.00  9.53 LIG 0.04  C 
BRANCH 29 31
ATOM     31  C   ALA C   4      18.522  24.354  32.484  1.00 11.00 LIG 0.28  C 
ATOM     32  N   NH2 C   5      19.208  25.081  31.612  1.00 10.22 LIG-0.11  N 
ATOM     33 O    ALA C   4      18.786  23.188  32.739  1.00 13.70 LIG-0.27  OA
ENDBRANCH 29 31
ENDBRANCH 26 29
ENDBRANCH 23 25
ENDBRANCH 20 23
ENDBRANCH 1 19
BRANCH 1 34
ATOM     34  CB  HIS C   2      11.253  24.732  28.401  1.00 12.23 LIG 0.10  C 
BRANCH 34 35
ATOM     35  CG  HIS C   2      11.524  24.988  26.957  1.00 15.24 LIG 0.06  A 
ATOM     36 ND1  HIS C   2      12.498  24.313  26.255  1.00 17.16 LIG-0.24  NA
ATOM     37  CE1 HIS C   2      12.513  24.743  25.006  1.00 17.55 LIG 0.23  A 
ATOM     38 NE2  HIS C   2      11.584  25.673  24.874  1.00 18.01 LIG-0.25  NA
ATOM     39  CD2 HIS C   2      10.950  25.843  26.079  1.00 16.53 LIG 0.14  A 
ENDBRANCH 34 35
ENDBRANCH 1 34
TORSDOF 12
ENDMDL
MODEL 72
USER: ADFR SOLUTION from run 138
USER: SCORE 10.796182 LL:  -2.991 LR:  -9.646 RR:   0.000 FEB:  -6.066
USER: RMSD 8.958394
USER: SEED 137
USER: STATUS no improvement in best in 14 clusters for 5 generations
USER: GENES 14
USER: genes 0 Translation |==|  0.42619 0.50911 0.44344
USER: genes 1 Rotation |==|  0.74524 0.78745 0.74489 0.71739
USER: genes 2 Torsion [CB]-CA--N-[C] |==|  0.79444
USER: genes 3 Torsion [N]-C--CA-[N] |==|  0.03885
USER: genes 4 Torsion [C]-CA--CB-[CG] |==|  0.44670
USER: genes 5 Torsion [CA]-CB--CG-[CD1] |==|  0.50287
USER: genes 6 Torsion [C]-CA--N-[C] |==|  0.71162
USER: genes 7 Torsion [N]-CA--C-[N] |==|  0.15261
USER: genes 8 Torsion [C]-N--CA-[CB] |==|  0.24674
USER: genes 9 Torsion [N]-CA--C-[N] |==|  0.86697
USER: genes 10 Torsion [C]-N--CA-[C] |==|  0.16588
USER: genes 11 Torsion [N]-CA--C-[N] |==|  0.11803
USER: genes 12 Torsion [N]-CA--CB-[CG] |==|  0.96397
USER: genes 13 Torsion [CA]-CB--CG-[CD2] |==|  0.30552
ROOT
ATOM      1  CA  HIS C   2      11.316  21.879  29.758  1.00 10.06 LIG 0.18  C 
ENDROOT
BRANCH 1 2
ATOM      2  N   HIS C   2      11.001  22.943  28.805  1.00  9.48 LIG-0.35  N 
ATOM      3 H    HIS C   2      11.477  22.924  28.089  1.00  9.48 LIG 0.16  HD
ATOM      4  C   PHE C   1      10.062  23.851  29.035  1.00  9.37 LIG 0.24  C 
ATOM      5 O    PHE C   1       9.329  23.829  30.018  1.00 11.27 LIG-0.27  OA
BRANCH 4 6
ATOM      6  CA  PHE C   1       9.952  24.960  28.012  1.00  8.68 LIG 0.18  C 
BRANCH 6 7
ATOM      7  CB  PHE C   1       8.473  25.187  27.699  1.00  8.30 LIG 0.07  C 
BRANCH 7 8
ATOM      8  CG  PHE C   1       8.185  26.519  27.072  1.00  6.80 LIG-0.06  A 
ATOM      9  CD1 PHE C   1       6.886  26.884  26.747  1.00  6.68 LIG 0.01  A 
ATOM     10  CE1 PHE C   1       6.627  28.118  26.181  1.00  6.85 LIG 0.00  A 
ATOM     11  CZ  PHE C   1       7.659  28.991  25.918  1.00  6.56 LIG 0.00  A 
ATOM     12  CE2 PHE C   1       8.959  28.641  26.232  1.00  6.82 LIG 0.00  A 
ATOM     13  CD2 PHE C   1       9.216  27.409  26.810  1.00  7.43 LIG 0.01  A 
ENDBRANCH 7 8
ENDBRANCH 6 7
BRANCH 6 14
ATOM     14  N   PHE C   1      10.693  24.631  26.791  1.00  9.64 LIG-0.35  N 
ATOM     15 H    PHE C   1      10.302  24.059  26.281  1.00  9.64 LIG 0.16  HD
ATOM     16  C   ACE C   0      11.869  25.186  26.521  1.00 12.10 LIG 0.21  C 
ATOM     17  CH3 ACE C   0      12.556  24.712  25.274  1.00 13.09 LIG 0.12  C 
ATOM     18 O    ACE C   0      12.378  26.028  27.261  1.00 13.69 LIG-0.27  OA
ENDBRANCH 6 14
ENDBRANCH 4 6
ENDBRANCH 1 2
BRANCH 1 19
ATOM     19  C   HIS C   2      10.028  21.275  30.274  1.00  9.05 LIG 0.24  C 
ATOM     20  N   ALA C   3       9.175  20.821  29.366  1.00  9.24 LIG-0.35  N 
ATOM     21 H    ALA C   3       9.271  20.912  28.516  1.00  9.24 LIG 0.16  HD
ATOM     22 O    HIS C   2       9.821  21.180  31.478  1.00  8.29 LIG-0.27  OA
BRANCH 20 23
ATOM     23  CA  ALA C   3       7.969  20.108  29.779  1.00  8.91 LIG 0.17  C 
ATOM     24  CB  ALA C   3       6.826  21.081  30.010  1.00  9.99 LIG 0.04  C 
BRANCH 23 25
ATOM     25  C   ALA C   3       7.577  19.077  28.718  1.00  9.36 LIG 0.24  C 
ATOM     26  N   ALA C   4       7.557  19.507  27.462  1.00  9.08 LIG-0.35  N 
ATOM     27 H    ALA C   4       7.841  20.281  27.215  1.00  9.08 LIG 0.16  HD
ATOM     28 O    ALA C   3       7.321  17.907  29.032  1.00  9.90 LIG-0.27  OA
BRANCH 26 29
ATOM     29  CA  ALA C   4       7.038  18.679  26.375  1.00  9.70 LIG 0.18  C 
ATOM     30  CB  ALA C   4       7.893  17.443  26.209  1.00  9.53 LIG 0.04  C 
BRANCH 29 31
ATOM     31  C   ALA C   4       5.585  18.276  26.548  1.00 11.00 LIG 0.28  C 
ATOM     32  N   NH2 C   5       4.749  19.210  26.979  1.00 10.22 LIG-0.11  N 
ATOM     33 O    ALA C   4       5.246  17.123  26.325  1.00 13.70 LIG-0.27  OA
ENDBRANCH 29 31
ENDBRANCH 26 29
ENDBRANCH 23 25
ENDBRANCH 20 23
ENDBRANCH 1 19
BRANCH 1 34
ATOM     34  CB  HIS C   2      12.091  22.424  30.964  1.00 12.23 LIG 0.10  C 
BRANCH 34 35
ATOM     35  CG  HIS C   2      12.618  23.806  30.778  1.00 15.24 LIG 0.06  A 
ATOM     36 ND1  HIS C   2      13.647  24.097  29.910  1.00 17.16 LIG-0.24  NA
ATOM     37  CE1 HIS C   2      13.902  25.393  29.953  1.00 17.55 LIG 0.23  A 
ATOM     38 NE2  HIS C   2      13.075  25.952  30.817  1.00 18.01 LIG-0.25  NA
ATOM     39  CD2 HIS C   2      12.261  24.981  31.346  1.00 16.53 LIG 0.14  A 
ENDBRANCH 34 35
ENDBRANCH 1 34
TORSDOF 12
ENDMDL
MODEL 73
USER: ADFR SOLUTION from run 153
USER: SCORE 10.448525 LL:  -2.699 LR:  -9.652 RR:   0.000 FEB:  -6.072
USER: RMSD 6.957913
USER: SEED 152
USER: STATUS no improvement in best in 18 clusters for 5 generations
USER: GENES 14
USER: genes 0 Translation |==|  0.36819 0.67722 0.35231
USER: genes 1 Rotation |==|  0.33916 0.83482 0.34164 0.79487
USER: genes 2 Torsion [CB]-CA--N-[C] |==|  0.52778
USER: genes 3 Torsion [N]-C--CA-[N] |==|  0.34233
USER: genes 4 Torsion [C]-CA--CB-[CG] |==|  0.44778
USER: genes 5 Torsion [CA]-CB--CG-[CD1] |==|  0.35056
USER: genes 6 Torsion [C]-CA--N-[C] |==|  0.84934
USER: genes 7 Torsion [N]-CA--C-[N] |==|  0.90529
USER: genes 8 Torsion [C]-N--CA-[CB] |==|  0.82207
USER: genes 9 Torsion [N]-CA--C-[N] |==|  0.20306
USER: genes 10 Torsion [C]-N--CA-[C] |==|  0.16635
USER: genes 11 Torsion [N]-CA--C-[N] |==|  0.06419
USER: genes 12 Torsion [N]-CA--CB-[CG] |==|  0.70871
USER: genes 13 Torsion [CA]-CB--CG-[CD2] |==|  0.62147
ROOT
ATOM      1  CA  HIS C   2      10.359  25.410  27.981  1.00 10.06 LIG 0.18  C 
ENDROOT
BRANCH 1 2
ATOM      2  N   HIS C   2      10.277  23.953  28.089  1.00  9.48 LIG-0.35  N 
ATOM      3 H    HIS C   2      10.661  23.532  27.446  1.00  9.48 LIG 0.16  HD
ATOM      4  C   PHE C   1       9.661  23.347  29.095  1.00  9.37 LIG 0.24  C 
ATOM      5 O    PHE C   1       9.184  23.946  30.054  1.00 11.27 LIG-0.27  OA
BRANCH 4 6
ATOM      6  CA  PHE C   1       9.549  21.842  28.990  1.00  8.68 LIG 0.18  C 
BRANCH 6 7
ATOM      7  CB  PHE C   1       8.072  21.472  28.865  1.00  8.30 LIG 0.07  C 
BRANCH 7 8
ATOM      8  CG  PHE C   1       7.838  20.096  28.315  1.00  6.80 LIG-0.06  A 
ATOM      9  CD1 PHE C   1       7.045  19.184  28.999  1.00  6.68 LIG 0.01  A 
ATOM     10  CE1 PHE C   1       6.824  17.922  28.480  1.00  6.85 LIG 0.00  A 
ATOM     11  CZ  PHE C   1       7.402  17.552  27.286  1.00  6.56 LIG 0.00  A 
ATOM     12  CE2 PHE C   1       8.197  18.447  26.594  1.00  6.82 LIG 0.00  A 
ATOM     13  CD2 PHE C   1       8.408  19.715  27.109  1.00  7.43 LIG 0.01  A 
ENDBRANCH 7 8
ENDBRANCH 6 7
BRANCH 6 14
ATOM     14  N   PHE C   1      10.149  21.183  30.153  1.00  9.64 LIG-0.35  N 
ATOM     15 H    PHE C   1       9.626  20.635  30.561  1.00  9.64 LIG 0.16  HD
ATOM     16  C   ACE C   0      11.401  21.432  30.524  1.00 12.10 LIG 0.21  C 
ATOM     17  CH3 ACE C   0      11.871  20.744  31.773  1.00 13.09 LIG 0.12  C 
ATOM     18 O    ACE C   0      12.128  22.198  29.892  1.00 13.69 LIG-0.27  OA
ENDBRANCH 6 14
ENDBRANCH 4 6
ENDBRANCH 1 2
BRANCH 1 19
ATOM     19  C   HIS C   2       8.973  26.000  28.130  1.00  9.05 LIG 0.24  C 
ATOM     20  N   ALA C   3       7.966  25.289  27.644  1.00  9.24 LIG-0.35  N 
ATOM     21 H    ALA C   3       8.052  24.563  27.192  1.00  9.24 LIG 0.16  HD
ATOM     22 O    HIS C   2       8.808  27.064  28.714  1.00  8.29 LIG-0.27  OA
BRANCH 20 23
ATOM     23  CA  ALA C   3       6.587  25.722  27.859  1.00  8.91 LIG 0.17  C 
ATOM     24  CB  ALA C   3       6.244  25.696  29.338  1.00  9.99 LIG 0.04  C 
BRANCH 23 25
ATOM     25  C   ALA C   3       6.383  27.130  27.295  1.00  9.36 LIG 0.24  C 
ATOM     26  N   ALA C   4       6.339  27.231  25.972  1.00  9.08 LIG-0.35  N 
ATOM     27 H    ALA C   4       6.320  26.556  25.439  1.00  9.08 LIG 0.16  HD
ATOM     28 O    ALA C   3       6.244  28.103  28.049  1.00  9.90 LIG-0.27  OA
BRANCH 26 29
ATOM     29  CA  ALA C   4       6.320  28.530  25.301  1.00  9.70 LIG 0.18  C 
ATOM     30  CB  ALA C   4       5.060  29.283  25.661  1.00  9.53 LIG 0.04  C 
BRANCH 29 31
ATOM     31  C   ALA C   4       7.533  29.392  25.597  1.00 11.00 LIG 0.28  C 
ATOM     32  N   NH2 C   5       8.635  28.768  25.990  1.00 10.22 LIG-0.11  N 
ATOM     33 O    ALA C   4       7.450  30.608  25.500  1.00 13.70 LIG-0.27  OA
ENDBRANCH 29 31
ENDBRANCH 26 29
ENDBRANCH 23 25
ENDBRANCH 20 23
ENDBRANCH 1 19
BRANCH 1 34
ATOM     34  CB  HIS C   2      10.903  25.837  26.612  1.00 12.23 LIG 0.10  C 
BRANCH 34 35
ATOM     35  CG  HIS C   2      12.317  26.308  26.636  1.00 15.24 LIG 0.06  A 
ATOM     36 ND1  HIS C   2      13.304  25.654  27.340  1.00 17.16 LIG-0.24  NA
ATOM     37  CE1 HIS C   2      14.450  26.292  27.181  1.00 17.55 LIG 0.23  A 
ATOM     38 NE2  HIS C   2      14.241  27.336  26.399  1.00 18.01 LIG-0.25  NA
ATOM     39  CD2 HIS C   2      12.915  27.367  26.043  1.00 16.53 LIG 0.14  A 
ENDBRANCH 34 35
ENDBRANCH 1 34
TORSDOF 12
ENDMDL
MODEL 74
USER: ADFR SOLUTION from run 194
USER: SCORE 11.393094 LL:  -3.157 LR:  -9.655 RR:   0.000 FEB:  -6.075
USER: RMSD 10.302286
USER: SEED 193
USER: STATUS no improvement in best in 8 clusters for 5 generations
USER: GENES 14
USER: genes 0 Translation |==|  0.47779 0.67644 0.23796
USER: genes 1 Rotation |==|  0.28746 0.04866 0.47141 0.51721
USER: genes 2 Torsion [CB]-CA--N-[C] |==|  0.77014
USER: genes 3 Torsion [N]-C--CA-[N] |==|  0.36148
USER: genes 4 Torsion [C]-CA--CB-[CG] |==|  0.46273
USER: genes 5 Torsion [CA]-CB--CG-[CD1] |==|  0.07681
USER: genes 6 Torsion [C]-CA--N-[C] |==|  0.82329
USER: genes 7 Torsion [N]-CA--C-[N] |==|  0.14621
USER: genes 8 Torsion [C]-N--CA-[CB] |==|  0.17081
USER: genes 9 Torsion [N]-CA--C-[N] |==|  0.96667
USER: genes 10 Torsion [C]-N--CA-[C] |==|  0.56437
USER: genes 11 Torsion [N]-CA--C-[N] |==|  0.49196
USER: genes 12 Torsion [N]-CA--CB-[CG] |==|  0.12533
USER: genes 13 Torsion [CA]-CB--CG-[CD2] |==|  0.24320
ROOT
ATOM      1  CA  HIS C   2      12.168  25.393  25.751  1.00 10.06 LIG 0.18  C 
ENDROOT
BRANCH 1 2
ATOM      2  N   HIS C   2      10.729  25.644  25.833  1.00  9.48 LIG-0.35  N 
ATOM      3 H    HIS C   2      10.285  25.359  25.154  1.00  9.48 LIG 0.16  HD
ATOM      4  C   PHE C   1      10.170  26.258  26.867  1.00  9.37 LIG 0.24  C 
ATOM      5 O    PHE C   1      10.792  26.592  27.870  1.00 11.27 LIG-0.27  OA
BRANCH 4 6
ATOM      6  CA  PHE C   1       8.692  26.559  26.736  1.00  8.68 LIG 0.18  C 
BRANCH 6 7
ATOM      7  CB  PHE C   1       8.519  28.064  26.537  1.00  8.30 LIG 0.07  C 
BRANCH 7 8
ATOM      8  CG  PHE C   1       7.146  28.458  26.079  1.00  6.80 LIG-0.06  A 
ATOM      9  CD1 PHE C   1       6.041  27.681  26.399  1.00  6.68 LIG 0.01  A 
ATOM     10  CE1 PHE C   1       4.777  28.057  25.985  1.00  6.85 LIG 0.00  A 
ATOM     11  CZ  PHE C   1       4.605  29.200  25.236  1.00  6.56 LIG 0.00  A 
ATOM     12  CE2 PHE C   1       5.695  29.984  24.906  1.00  6.82 LIG 0.00  A 
ATOM     13  CD2 PHE C   1       6.959  29.611  25.331  1.00  7.43 LIG 0.01  A 
ENDBRANCH 7 8
ENDBRANCH 6 7
BRANCH 6 14
ATOM     14  N   PHE C   1       7.953  26.106  27.918  1.00  9.64 LIG-0.35  N 
ATOM     15 H    PHE C   1       7.578  26.737  28.366  1.00  9.64 LIG 0.16  HD
ATOM     16  C   ACE C   0       7.886  24.820  28.245  1.00 12.10 LIG 0.21  C 
ATOM     17  CH3 ACE C   0       7.156  24.497  29.516  1.00 13.09 LIG 0.12  C 
ATOM     18 O    ACE C   0       8.408  23.943  27.556  1.00 13.69 LIG-0.27  OA
ENDBRANCH 6 14
ENDBRANCH 4 6
ENDBRANCH 1 2
BRANCH 1 19
ATOM     19  C   HIS C   2      12.697  25.074  27.133  1.00  9.05 LIG 0.24  C 
ATOM     20  N   ALA C   3      12.078  24.113  27.803  1.00  9.24 LIG-0.35  N 
ATOM     21 H    ALA C   3      11.362  23.715  27.539  1.00  9.24 LIG 0.16  HD
ATOM     22 O    HIS C   2      13.678  25.659  27.576  1.00  8.29 LIG-0.27  OA
BRANCH 20 23
ATOM     23  CA  ALA C   3      12.601  23.654  29.087  1.00  8.91 LIG 0.17  C 
ATOM     24  CB  ALA C   3      12.609  24.789  30.097  1.00  9.99 LIG 0.04  C 
BRANCH 23 25
ATOM     25  C   ALA C   3      11.762  22.488  29.612  1.00  9.36 LIG 0.24  C 
ATOM     26  N   ALA C   4      10.612  22.264  28.986  1.00  9.08 LIG-0.35  N 
ATOM     27 H    ALA C   4      10.374  22.665  28.263  1.00  9.08 LIG 0.16  HD
ATOM     28 O    ALA C   3      12.161  21.789  30.553  1.00  9.90 LIG-0.27  OA
BRANCH 26 29
ATOM     29  CA  ALA C   4       9.639  21.296  29.489  1.00  9.70 LIG 0.18  C 
ATOM     30  CB  ALA C   4       8.843  21.900  30.623  1.00  9.53 LIG 0.04  C 
BRANCH 29 31
ATOM     31  C   ALA C   4       8.693  20.766  28.427  1.00 11.00 LIG 0.28  C 
ATOM     32  N   NH2 C   5       7.823  19.839  28.804  1.00 10.22 LIG-0.11  N 
ATOM     33 O    ALA C   4       8.784  21.174  27.278  1.00 13.70 LIG-0.27  OA
ENDBRANCH 29 31
ENDBRANCH 26 29
ENDBRANCH 23 25
ENDBRANCH 20 23
ENDBRANCH 1 19
BRANCH 1 34
ATOM     34  CB  HIS C   2      12.920  26.627  25.237  1.00 12.23 LIG 0.10  C 
BRANCH 34 35
ATOM     35  CG  HIS C   2      12.496  27.909  25.869  1.00 15.24 LIG 0.06  A 
ATOM     36 ND1  HIS C   2      11.517  28.713  25.330  1.00 17.16 LIG-0.24  NA
ATOM     37  CE1 HIS C   2      11.352  29.775  26.097  1.00 17.55 LIG 0.23  A 
ATOM     38 NE2  HIS C   2      12.189  29.688  27.115  1.00 18.01 LIG-0.25  NA
ATOM     39  CD2 HIS C   2      12.914  28.529  26.997  1.00 16.53 LIG 0.14  A 
ENDBRANCH 34 35
ENDBRANCH 1 34
TORSDOF 12
ENDMDL
MODEL 75
USER: ADFR SOLUTION from run 35
USER: SCORE 10.203175 LL:  -3.168 LR:  -9.642 RR:   0.000 FEB:  -6.063
USER: RMSD 7.863343
USER: SEED 34
USER: STATUS no improvement in best in 42 clusters for 5 generations
USER: GENES 14
USER: genes 0 Translation |==|  0.59554 0.35408 0.52758
USER: genes 1 Rotation |==|  0.86694 0.79530 0.35026 0.57571
USER: genes 2 Torsion [CB]-CA--N-[C] |==|  0.46506
USER: genes 3 Torsion [N]-C--CA-[N] |==|  0.45556
USER: genes 4 Torsion [C]-CA--CB-[CG] |==|  0.37390
USER: genes 5 Torsion [CA]-CB--CG-[CD1] |==|  0.04382
USER: genes 6 Torsion [C]-CA--N-[C] |==|  0.63584
USER: genes 7 Torsion [N]-CA--C-[N] |==|  0.88334
USER: genes 8 Torsion [C]-N--CA-[CB] |==|  0.17865
USER: genes 9 Torsion [N]-CA--C-[N] |==|  0.01881
USER: genes 10 Torsion [C]-N--CA-[C] |==|  0.14664
USER: genes 11 Torsion [N]-CA--C-[N] |==|  0.58448
USER: genes 12 Torsion [N]-CA--CB-[CG] |==|  0.53296
USER: genes 13 Torsion [CA]-CB--CG-[CD2] |==|  0.03493
ROOT
ATOM      1  CA  HIS C   2      14.110  18.624  31.399  1.00 10.06 LIG 0.18  C 
ENDROOT
BRANCH 1 2
ATOM      2  N   HIS C   2      13.350  19.748  30.855  1.00  9.48 LIG-0.35  N 
ATOM      3 H    HIS C   2      13.731  20.139  30.190  1.00  9.48 LIG 0.16  HD
ATOM      4  C   PHE C   1      12.179  20.124  31.351  1.00  9.37 LIG 0.24  C 
ATOM      5 O    PHE C   1      11.599  19.517  32.246  1.00 11.27 LIG-0.27  OA
BRANCH 4 6
ATOM      6  CA  PHE C   1      11.586  21.386  30.762  1.00  8.68 LIG 0.18  C 
BRANCH 6 7
ATOM      7  CB  PHE C   1      12.364  22.585  31.302  1.00  8.30 LIG 0.07  C 
BRANCH 7 8
ATOM      8  CG  PHE C   1      12.728  23.592  30.251  1.00  6.80 LIG-0.06  A 
ATOM      9  CD1 PHE C   1      12.105  23.579  29.011  1.00  6.68 LIG 0.01  A 
ATOM     10  CE1 PHE C   1      12.436  24.517  28.051  1.00  6.85 LIG 0.00  A 
ATOM     11  CZ  PHE C   1      13.400  25.465  28.313  1.00  6.56 LIG 0.00  A 
ATOM     12  CE2 PHE C   1      14.033  25.490  29.542  1.00  6.82 LIG 0.00  A 
ATOM     13  CD2 PHE C   1      13.692  24.556  30.505  1.00  7.43 LIG 0.01  A 
ENDBRANCH 7 8
ENDBRANCH 6 7
BRANCH 6 14
ATOM     14  N   PHE C   1      10.162  21.505  31.087  1.00  9.64 LIG-0.35  N 
ATOM     15 H    PHE C   1       9.976  21.384  31.918  1.00  9.64 LIG 0.16  HD
ATOM     16  C   ACE C   0       9.257  21.778  30.154  1.00 12.10 LIG 0.21  C 
ATOM     17  CH3 ACE C   0       7.826  21.804  30.607  1.00 13.09 LIG 0.12  C 
ATOM     18 O    ACE C   0       9.569  21.979  28.981  1.00 13.69 LIG-0.27  OA
ENDBRANCH 6 14
ENDBRANCH 4 6
ENDBRANCH 1 2
BRANCH 1 19
ATOM     19  C   HIS C   2      14.724  19.030  32.722  1.00  9.05 LIG 0.24  C 
ATOM     20  N   ALA C   3      15.253  20.244  32.787  1.00  9.24 LIG-0.35  N 
ATOM     21 H    ALA C   3      15.335  20.778  32.119  1.00  9.24 LIG 0.16  HD
ATOM     22 O    HIS C   2      14.684  18.276  33.686  1.00  8.29 LIG-0.27  OA
BRANCH 20 23
ATOM     23  CA  ALA C   3      15.750  20.764  34.058  1.00  8.91 LIG 0.17  C 
ATOM     24  CB  ALA C   3      16.925  19.937  34.551  1.00  9.99 LIG 0.04  C 
BRANCH 23 25
ATOM     25  C   ALA C   3      16.164  22.229  33.903  1.00  9.36 LIG 0.24  C 
ATOM     26  N   ALA C   4      15.881  22.797  32.736  1.00  9.08 LIG-0.35  N 
ATOM     27 H    ALA C   4      15.405  22.425  32.124  1.00  9.08 LIG 0.16  HD
ATOM     28 O    ALA C   3      16.709  22.838  34.833  1.00  9.90 LIG-0.27  OA
BRANCH 26 29
ATOM     29  CA  ALA C   4      16.371  24.131  32.393  1.00  9.70 LIG 0.18  C 
ATOM     30  CB  ALA C   4      15.652  25.176  33.215  1.00  9.53 LIG 0.04  C 
BRANCH 29 31
ATOM     31  C   ALA C   4      17.871  24.296  32.555  1.00 11.00 LIG 0.28  C 
ATOM     32  N   NH2 C   5      18.312  25.504  32.876  1.00 10.22 LIG-0.11  N 
ATOM     33 O    ALA C   4      18.610  23.342  32.357  1.00 13.70 LIG-0.27  OA
ENDBRANCH 29 31
ENDBRANCH 26 29
ENDBRANCH 23 25
ENDBRANCH 20 23
ENDBRANCH 1 19
BRANCH 1 34
ATOM     34  CB  HIS C   2      15.253  18.218  30.460  1.00 12.23 LIG 0.10  C 
BRANCH 34 35
ATOM     35  CG  HIS C   2      15.894  16.916  30.805  1.00 15.24 LIG 0.06  A 
ATOM     36 ND1  HIS C   2      17.085  16.506  30.249  1.00 17.16 LIG-0.24  NA
ATOM     37  CE1 HIS C   2      17.409  15.321  30.735  1.00 17.55 LIG 0.23  A 
ATOM     38 NE2  HIS C   2      16.471  14.949  31.587  1.00 18.01 LIG-0.25  NA
ATOM     39  CD2 HIS C   2      15.513  15.930  31.650  1.00 16.53 LIG 0.14  A 
ENDBRANCH 34 35
ENDBRANCH 1 34
TORSDOF 12
ENDMDL
MODEL 76
USER: ADFR SOLUTION from run 42
USER: SCORE 11.132977 LL:  -2.913 LR:  -9.635 RR:   0.000 FEB:  -6.056
USER: RMSD 5.396149
USER: SEED 41
USER: STATUS no improvement in best in 28 clusters for 5 generations
USER: GENES 14
USER: genes 0 Translation |==|  0.64529 0.35700 0.51985
USER: genes 1 Rotation |==|  0.14912 0.75920 0.28385 0.61391
USER: genes 2 Torsion [CB]-CA--N-[C] |==|  0.54528
USER: genes 3 Torsion [N]-C--CA-[N] |==|  0.36426
USER: genes 4 Torsion [C]-CA--CB-[CG] |==|  0.17270
USER: genes 5 Torsion [CA]-CB--CG-[CD1] |==|  0.56423
USER: genes 6 Torsion [C]-CA--N-[C] |==|  0.86055
USER: genes 7 Torsion [N]-CA--C-[N] |==|  0.34446
USER: genes 8 Torsion [C]-N--CA-[CB] |==|  0.21361
USER: genes 9 Torsion [N]-CA--C-[N] |==|  0.96184
USER: genes 10 Torsion [C]-N--CA-[C] |==|  0.76667
USER: genes 11 Torsion [N]-CA--C-[N] |==|  0.48588
USER: genes 12 Torsion [N]-CA--CB-[CG] |==|  0.92275
USER: genes 13 Torsion [CA]-CB--CG-[CD2] |==|  0.63760
ROOT
ATOM      1  CA  HIS C   2      14.931  18.685  31.248  1.00 10.06 LIG 0.18  C 
ENDROOT
BRANCH 1 2
ATOM      2  N   HIS C   2      15.508  17.996  32.402  1.00  9.48 LIG-0.35  N 
ATOM      3 H    HIS C   2      15.908  17.260  32.206  1.00  9.48 LIG 0.16  HD
ATOM      4  C   PHE C   1      15.417  18.473  33.636  1.00  9.37 LIG 0.24  C 
ATOM      5 O    PHE C   1      14.918  19.561  33.904  1.00 11.27 LIG-0.27  OA
BRANCH 4 6
ATOM      6  CA  PHE C   1      15.949  17.575  34.732  1.00  8.68 LIG 0.18  C 
BRANCH 6 7
ATOM      7  CB  PHE C   1      14.764  16.997  35.504  1.00  8.30 LIG 0.07  C 
BRANCH 7 8
ATOM      8  CG  PHE C   1      13.858  16.142  34.668  1.00  6.80 LIG-0.06  A 
ATOM      9  CD1 PHE C   1      12.536  15.937  35.038  1.00  6.68 LIG 0.01  A 
ATOM     10  CE1 PHE C   1      11.703  15.158  34.257  1.00  6.85 LIG 0.00  A 
ATOM     11  CZ  PHE C   1      12.183  14.564  33.111  1.00  6.56 LIG 0.00  A 
ATOM     12  CE2 PHE C   1      13.498  14.755  32.730  1.00  6.82 LIG 0.00  A 
ATOM     13  CD2 PHE C   1      14.328  15.545  33.508  1.00  7.43 LIG 0.01  A 
ENDBRANCH 7 8
ENDBRANCH 6 7
BRANCH 6 14
ATOM     14  N   PHE C   1      16.843  18.309  35.632  1.00  9.64 LIG-0.35  N 
ATOM     15 H    PHE C   1      16.661  18.217  36.467  1.00  9.64 LIG 0.16  HD
ATOM     16  C   ACE C   0      17.843  19.049  35.165  1.00 12.10 LIG 0.21  C 
ATOM     17  CH3 ACE C   0      18.641  19.805  36.188  1.00 13.09 LIG 0.12  C 
ATOM     18 O    ACE C   0      18.092  19.127  33.962  1.00 13.69 LIG-0.27  OA
ENDBRANCH 6 14
ENDBRANCH 4 6
ENDBRANCH 1 2
BRANCH 1 19
ATOM     19  C   HIS C   2      13.533  19.151  31.594  1.00  9.05 LIG 0.24  C 
ATOM     20  N   ALA C   3      13.282  20.445  31.451  1.00  9.24 LIG-0.35  N 
ATOM     21 H    ALA C   3      13.871  21.038  31.248  1.00  9.24 LIG 0.16  HD
ATOM     22 O    HIS C   2      12.677  18.349  31.946  1.00  8.29 LIG-0.27  OA
BRANCH 20 23
ATOM     23  CA  ALA C   3      11.928  20.958  31.638  1.00  8.91 LIG 0.17  C 
ATOM     24  CB  ALA C   3      11.590  21.047  33.117  1.00  9.99 LIG 0.04  C 
BRANCH 23 25
ATOM     25  C   ALA C   3      11.790  22.334  30.982  1.00  9.36 LIG 0.24  C 
ATOM     26  N   ALA C   4      12.923  22.932  30.633  1.00  9.08 LIG-0.35  N 
ATOM     27 H    ALA C   4      13.695  22.555  30.664  1.00  9.08 LIG 0.16  HD
ATOM     28 O    ALA C   3      10.675  22.832  30.777  1.00  9.90 LIG-0.27  OA
BRANCH 26 29
ATOM     29  CA  ALA C   4      12.945  24.314  30.156  1.00  9.70 LIG 0.18  C 
ATOM     30  CB  ALA C   4      14.280  24.951  30.470  1.00  9.53 LIG 0.04  C 
BRANCH 29 31
ATOM     31  C   ALA C   4      12.646  24.459  28.676  1.00 11.00 LIG 0.28  C 
ATOM     32  N   NH2 C   5      12.548  25.692  28.198  1.00 10.22 LIG-0.11  N 
ATOM     33 O    ALA C   4      12.475  23.460  27.992  1.00 13.70 LIG-0.27  OA
ENDBRANCH 29 31
ENDBRANCH 26 29
ENDBRANCH 23 25
ENDBRANCH 20 23
ENDBRANCH 1 19
BRANCH 1 34
ATOM     34  CB  HIS C   2      14.825  17.750  30.037  1.00 12.23 LIG 0.10  C 
BRANCH 34 35
ATOM     35  CG  HIS C   2      15.840  16.658  30.017  1.00 15.24 LIG 0.06  A 
ATOM     36 ND1  HIS C   2      16.079  15.849  31.105  1.00 17.16 LIG-0.24  NA
ATOM     37  CE1 HIS C   2      17.025  14.977  30.802  1.00 17.55 LIG 0.23  A 
ATOM     38 NE2  HIS C   2      17.406  15.193  29.556  1.00 18.01 LIG-0.25  NA
ATOM     39  CD2 HIS C   2      16.679  16.238  29.042  1.00 16.53 LIG 0.14  A 
ENDBRANCH 34 35
ENDBRANCH 1 34
TORSDOF 12
ENDMDL
MODEL 77
USER: ADFR SOLUTION from run 45
USER: SCORE 9.937269 LL:  -2.509 LR:  -9.637 RR:   0.000 FEB:  -6.057
USER: RMSD 8.764348
USER: SEED 44
USER: STATUS no improvement in best in 13 clusters for 5 generations
USER: GENES 14
USER: genes 0 Translation |==|  0.68861 0.28099 0.60779
USER: genes 1 Rotation |==|  0.50499 0.03252 0.67728 0.50357
USER: genes 2 Torsion [CB]-CA--N-[C] |==|  0.16844
USER: genes 3 Torsion [N]-C--CA-[N] |==|  0.83719
USER: genes 4 Torsion [C]-CA--CB-[CG] |==|  0.53364
USER: genes 5 Torsion [CA]-CB--CG-[CD1] |==|  0.92864
USER: genes 6 Torsion [C]-CA--N-[C] |==|  0.20191
USER: genes 7 Torsion [N]-CA--C-[N] |==|  0.22759
USER: genes 8 Torsion [C]-N--CA-[CB] |==|  0.50556
USER: genes 9 Torsion [N]-CA--C-[N] |==|  0.29492
USER: genes 10 Torsion [C]-N--CA-[C] |==|  0.79122
USER: genes 11 Torsion [N]-CA--C-[N] |==|  0.94755
USER: genes 12 Torsion [N]-CA--CB-[CG] |==|  0.68822
USER: genes 13 Torsion [CA]-CB--CG-[CD2] |==|  0.53631
ROOT
ATOM      1  CA  HIS C   2      15.646  17.089  32.963  1.00 10.06 LIG 0.18  C 
ENDROOT
BRANCH 1 2
ATOM      2  N   HIS C   2      14.553  16.385  33.633  1.00  9.48 LIG-0.35  N 
ATOM      3 H    HIS C   2      14.328  16.728  34.389  1.00  9.48 LIG 0.16  HD
ATOM      4  C   PHE C   1      13.969  15.314  33.112  1.00  9.37 LIG 0.24  C 
ATOM      5 O    PHE C   1      14.236  14.875  31.998  1.00 11.27 LIG-0.27  OA
BRANCH 4 6
ATOM      6  CA  PHE C   1      12.947  14.626  33.991  1.00  8.68 LIG 0.18  C 
BRANCH 6 7
ATOM      7  CB  PHE C   1      11.794  15.596  34.245  1.00  8.30 LIG 0.07  C 
BRANCH 7 8
ATOM      8  CG  PHE C   1      10.857  15.149  35.327  1.00  6.80 LIG-0.06  A 
ATOM      9  CD1 PHE C   1      10.717  13.803  35.634  1.00  6.68 LIG 0.01  A 
ATOM     10  CE1 PHE C   1       9.861  13.399  36.641  1.00  6.85 LIG 0.00  A 
ATOM     11  CZ  PHE C   1       9.125  14.330  37.340  1.00  6.56 LIG 0.00  A 
ATOM     12  CE2 PHE C   1       9.249  15.675  37.045  1.00  6.82 LIG 0.00  A 
ATOM     13  CD2 PHE C   1      10.116  16.078  36.043  1.00  7.43 LIG 0.01  A 
ENDBRANCH 7 8
ENDBRANCH 6 7
BRANCH 6 14
ATOM     14  N   PHE C   1      13.544  14.191  35.257  1.00  9.64 LIG-0.35  N 
ATOM     15 H    PHE C   1      13.659  13.341  35.322  1.00  9.64 LIG 0.16  HD
ATOM     16  C   ACE C   0      13.868  15.061  36.207  1.00 12.10 LIG 0.21  C 
ATOM     17  CH3 ACE C   0      14.407  14.480  37.482  1.00 13.09 LIG 0.12  C 
ATOM     18 O    ACE C   0      13.718  16.274  36.060  1.00 13.69 LIG-0.27  OA
ENDBRANCH 6 14
ENDBRANCH 4 6
ENDBRANCH 1 2
BRANCH 1 19
ATOM     19  C   HIS C   2      16.075  18.267  33.812  1.00  9.05 LIG 0.24  C 
ATOM     20  N   ALA C   3      16.906  18.012  34.812  1.00  9.24 LIG-0.35  N 
ATOM     21 H    ALA C   3      17.156  17.225  35.052  1.00  9.24 LIG 0.16  HD
ATOM     22 O    HIS C   2      15.694  19.400  33.544  1.00  8.29 LIG-0.27  OA
BRANCH 20 23
ATOM     23  CA  ALA C   3      17.469  19.105  35.599  1.00  8.91 LIG 0.17  C 
ATOM     24  CB  ALA C   3      18.425  18.569  36.651  1.00  9.99 LIG 0.04  C 
BRANCH 23 25
ATOM     25  C   ALA C   3      18.194  20.095  34.683  1.00  9.36 LIG 0.24  C 
ATOM     26  N   ALA C   4      17.579  21.252  34.468  1.00  9.08 LIG-0.35  N 
ATOM     27 H    ALA C   4      16.869  21.503  34.883  1.00  9.08 LIG 0.16  HD
ATOM     28 O    ALA C   3      19.301  19.821  34.201  1.00  9.90 LIG-0.27  OA
BRANCH 26 29
ATOM     29  CA  ALA C   4      18.074  22.213  33.485  1.00  9.70 LIG 0.18  C 
ATOM     30  CB  ALA C   4      16.981  23.188  33.113  1.00  9.53 LIG 0.04  C 
BRANCH 29 31
ATOM     31  C   ALA C   4      19.307  22.976  33.936  1.00 11.00 LIG 0.28  C 
ATOM     32  N   NH2 C   5      19.560  22.994  35.238  1.00 10.22 LIG-0.11  N 
ATOM     33 O    ALA C   4      19.991  23.564  33.111  1.00 13.70 LIG-0.27  OA
ENDBRANCH 29 31
ENDBRANCH 26 29
ENDBRANCH 23 25
ENDBRANCH 20 23
ENDBRANCH 1 19
BRANCH 1 34
ATOM     34  CB  HIS C   2      15.205  17.633  31.599  1.00 12.23 LIG 0.10  C 
BRANCH 34 35
ATOM     35  CG  HIS C   2      15.858  16.968  30.435  1.00 15.24 LIG 0.06  A 
ATOM     36 ND1  HIS C   2      16.567  15.793  30.555  1.00 17.16 LIG-0.24  NA
ATOM     37  CE1 HIS C   2      17.032  15.440  29.370  1.00 17.55 LIG 0.23  A 
ATOM     38 NE2  HIS C   2      16.649  16.343  28.486  1.00 18.01 LIG-0.25  NA
ATOM     39  CD2 HIS C   2      15.912  17.308  29.127  1.00 16.53 LIG 0.14  A 
ENDBRANCH 34 35
ENDBRANCH 1 34
TORSDOF 12
ENDMDL
MODEL 78
USER: ADFR SOLUTION from run 155
USER: SCORE 10.841591 LL:  -2.948 LR:  -9.634 RR:   0.000 FEB:  -6.055
USER: RMSD 7.553105
USER: SEED 154
USER: STATUS no improvement in best in 32 clusters for 5 generations
USER: GENES 14
USER: genes 0 Translation |==|  0.58544 0.31479 0.72804
USER: genes 1 Rotation |==|  0.82725 0.57029 0.20223 0.72204
USER: genes 2 Torsion [CB]-CA--N-[C] |==|  0.82703
USER: genes 3 Torsion [N]-C--CA-[N] |==|  0.11611
USER: genes 4 Torsion [C]-CA--CB-[CG] |==|  0.25377
USER: genes 5 Torsion [CA]-CB--CG-[CD1] |==|  0.36545
USER: genes 6 Torsion [C]-CA--N-[C] |==|  0.14624
USER: genes 7 Torsion [N]-CA--C-[N] |==|  0.71667
USER: genes 8 Torsion [C]-N--CA-[CB] |==|  0.51680
USER: genes 9 Torsion [N]-CA--C-[N] |==|  0.38749
USER: genes 10 Torsion [C]-N--CA-[C] |==|  0.82260
USER: genes 11 Torsion [N]-CA--C-[N] |==|  0.37937
USER: genes 12 Torsion [N]-CA--CB-[CG] |==|  0.81386
USER: genes 13 Torsion [CA]-CB--CG-[CD2] |==|  0.14415
ROOT
ATOM      1  CA  HIS C   2      13.944  17.799  35.308  1.00 10.06 LIG 0.18  C 
ENDROOT
BRANCH 1 2
ATOM      2  N   HIS C   2      13.569  17.970  33.904  1.00  9.48 LIG-0.35  N 
ATOM      3 H    HIS C   2      12.727  18.094  33.780  1.00  9.48 LIG 0.16  HD
ATOM      4  C   PHE C   1      14.456  17.934  32.920  1.00  9.37 LIG 0.24  C 
ATOM      5 O    PHE C   1      15.665  17.837  33.104  1.00 11.27 LIG-0.27  OA
BRANCH 4 6
ATOM      6  CA  PHE C   1      13.890  17.994  31.518  1.00  8.68 LIG 0.18  C 
BRANCH 6 7
ATOM      7  CB  PHE C   1      15.020  18.351  30.553  1.00  8.30 LIG 0.07  C 
BRANCH 7 8
ATOM      8  CG  PHE C   1      15.722  17.157  29.978  1.00  6.80 LIG-0.06  A 
ATOM      9  CD1 PHE C   1      15.954  17.059  28.612  1.00  6.68 LIG 0.01  A 
ATOM     10  CE1 PHE C   1      16.613  15.962  28.091  1.00  6.85 LIG 0.00  A 
ATOM     11  CZ  PHE C   1      17.033  14.946  28.921  1.00  6.56 LIG 0.00  A 
ATOM     12  CE2 PHE C   1      16.807  15.026  30.282  1.00  6.82 LIG 0.00  A 
ATOM     13  CD2 PHE C   1      16.157  16.131  30.804  1.00  7.43 LIG 0.01  A 
ENDBRANCH 7 8
ENDBRANCH 6 7
BRANCH 6 14
ATOM     14  N   PHE C   1      12.804  18.974  31.426  1.00  9.64 LIG-0.35  N 
ATOM     15 H    PHE C   1      12.074  18.666  31.091  1.00  9.64 LIG 0.16  HD
ATOM     16  C   ACE C   0      12.964  20.228  31.836  1.00 12.10 LIG 0.21  C 
ATOM     17  CH3 ACE C   0      11.797  21.148  31.623  1.00 13.09 LIG 0.12  C 
ATOM     18 O    ACE C   0      14.015  20.620  32.343  1.00 13.69 LIG-0.27  OA
ENDBRANCH 6 14
ENDBRANCH 4 6
ENDBRANCH 1 2
BRANCH 1 19
ATOM     19  C   HIS C   2      14.986  18.833  35.675  1.00  9.05 LIG 0.24  C 
ATOM     20  N   ALA C   3      16.244  18.419  35.735  1.00  9.24 LIG-0.35  N 
ATOM     21 H    ALA C   3      16.494  17.601  35.653  1.00  9.24 LIG 0.16  HD
ATOM     22 O    HIS C   2      14.667  20.001  35.861  1.00  8.29 LIG-0.27  OA
BRANCH 20 23
ATOM     23  CA  ALA C   3      17.325  19.376  35.955  1.00  8.91 LIG 0.17  C 
ATOM     24  CB  ALA C   3      18.676  18.692  35.838  1.00  9.99 LIG 0.04  C 
BRANCH 23 25
ATOM     25  C   ALA C   3      17.226  20.524  34.947  1.00  9.36 LIG 0.24  C 
ATOM     26  N   ALA C   4      17.475  21.740  35.418  1.00  9.08 LIG-0.35  N 
ATOM     27 H    ALA C   4      17.776  21.897  36.208  1.00  9.08 LIG 0.16  HD
ATOM     28 O    ALA C   3      16.951  20.306  33.759  1.00  9.90 LIG-0.27  OA
BRANCH 26 29
ATOM     29  CA  ALA C   4      17.251  22.938  34.610  1.00  9.70 LIG 0.18  C 
ATOM     30  CB  ALA C   4      17.439  24.178  35.453  1.00  9.53 LIG 0.04  C 
BRANCH 29 31
ATOM     31  C   ALA C   4      18.130  23.020  33.376  1.00 11.00 LIG 0.28  C 
ATOM     32  N   NH2 C   5      17.550  23.405  32.247  1.00 10.22 LIG-0.11  N 
ATOM     33 O    ALA C   4      19.309  22.704  33.450  1.00 13.70 LIG-0.27  OA
ENDBRANCH 29 31
ENDBRANCH 26 29
ENDBRANCH 23 25
ENDBRANCH 20 23
ENDBRANCH 1 19
BRANCH 1 34
ATOM     34  CB  HIS C   2      14.554  16.414  35.556  1.00 12.23 LIG 0.10  C 
BRANCH 34 35
ATOM     35  CG  HIS C   2      13.595  15.285  35.391  1.00 15.24 LIG 0.06  A 
ATOM     36 ND1  HIS C   2      13.412  14.319  36.356  1.00 17.16 LIG-0.24  NA
ATOM     37  CE1 HIS C   2      12.508  13.450  35.939  1.00 17.55 LIG 0.23  A 
ATOM     38 NE2  HIS C   2      12.098  13.818  34.739  1.00 18.01 LIG-0.25  NA
ATOM     39  CD2 HIS C   2      12.761  14.964  34.374  1.00 16.53 LIG 0.14  A 
ENDBRANCH 34 35
ENDBRANCH 1 34
TORSDOF 12
ENDMDL
MODEL 79
USER: ADFR SOLUTION from run 100
USER: SCORE 10.226642 LL:  -2.676 LR:  -9.620 RR:   0.000 FEB:  -6.040
USER: RMSD 7.079593
USER: SEED 99
USER: STATUS no improvement in best in 25 clusters for 5 generations
USER: GENES 14
USER: genes 0 Translation |==|  0.61743 0.42463 0.58826
USER: genes 1 Rotation |==|  0.76542 0.11499 0.47241 0.67482
USER: genes 2 Torsion [CB]-CA--N-[C] |==|  0.86667
USER: genes 3 Torsion [N]-C--CA-[N] |==|  0.50712
USER: genes 4 Torsion [C]-CA--CB-[CG] |==|  0.21959
USER: genes 5 Torsion [CA]-CB--CG-[CD1] |==|  0.20206
USER: genes 6 Torsion [C]-CA--N-[C] |==|  0.20200
USER: genes 7 Torsion [N]-CA--C-[N] |==|  0.35695
USER: genes 8 Torsion [C]-N--CA-[CB] |==|  0.85392
USER: genes 9 Torsion [N]-CA--C-[N] |==|  0.13731
USER: genes 10 Torsion [C]-N--CA-[C] |==|  0.17238
USER: genes 11 Torsion [N]-CA--C-[N] |==|  0.09772
USER: genes 12 Torsion [N]-CA--CB-[CG] |==|  0.65079
USER: genes 13 Torsion [CA]-CB--CG-[CD2] |==|  0.41898
ROOT
ATOM      1  CA  HIS C   2      14.472  20.105  32.582  1.00 10.06 LIG 0.18  C 
ENDROOT
BRANCH 1 2
ATOM      2  N   HIS C   2      15.010  18.751  32.708  1.00  9.48 LIG-0.35  N 
ATOM      3 H    HIS C   2      15.502  18.507  32.045  1.00  9.48 LIG 0.16  HD
ATOM      4  C   PHE C   1      14.756  17.977  33.754  1.00  9.37 LIG 0.24  C 
ATOM      5 O    PHE C   1      14.123  18.354  34.734  1.00 11.27 LIG-0.27  OA
BRANCH 4 6
ATOM      6  CA  PHE C   1      15.278  16.559  33.669  1.00  8.68 LIG 0.18  C 
BRANCH 6 7
ATOM      7  CB  PHE C   1      14.731  15.917  32.394  1.00  8.30 LIG 0.07  C 
BRANCH 7 8
ATOM      8  CG  PHE C   1      15.466  16.322  31.151  1.00  6.80 LIG-0.06  A 
ATOM      9  CD1 PHE C   1      16.742  15.840  30.892  1.00  6.68 LIG 0.01  A 
ATOM     10  CE1 PHE C   1      17.408  16.208  29.738  1.00  6.85 LIG 0.00  A 
ATOM     11  CZ  PHE C   1      16.817  17.070  28.841  1.00  6.56 LIG 0.00  A 
ATOM     12  CE2 PHE C   1      15.548  17.562  29.085  1.00  6.82 LIG 0.00  A 
ATOM     13  CD2 PHE C   1      14.878  17.183  30.236  1.00  7.43 LIG 0.01  A 
ENDBRANCH 7 8
ENDBRANCH 6 7
BRANCH 6 14
ATOM     14  N   PHE C   1      14.890  15.779  34.847  1.00  9.64 LIG-0.35  N 
ATOM     15 H    PHE C   1      15.534  15.614  35.393  1.00  9.64 LIG 0.16  HD
ATOM     16  C   ACE C   0      13.638  15.374  35.030  1.00 12.10 LIG 0.21  C 
ATOM     17  CH3 ACE C   0      13.387  14.525  36.242  1.00 13.09 LIG 0.12  C 
ATOM     18 O    ACE C   0      12.737  15.661  34.242  1.00 13.69 LIG-0.27  OA
ENDBRANCH 6 14
ENDBRANCH 4 6
ENDBRANCH 1 2
BRANCH 1 19
ATOM     19  C   HIS C   2      15.160  21.010  33.582  1.00  9.05 LIG 0.24  C 
ATOM     20  N   ALA C   3      15.677  22.136  33.111  1.00  9.24 LIG-0.35  N 
ATOM     21 H    ALA C   3      15.712  22.348  32.279  1.00  9.24 LIG 0.16  HD
ATOM     22 O    HIS C   2      15.189  20.718  34.771  1.00  8.29 LIG-0.27  OA
BRANCH 20 23
ATOM     23  CA  ALA C   3      16.245  23.124  34.024  1.00  8.91 LIG 0.17  C 
ATOM     24  CB  ALA C   3      15.248  23.477  35.115  1.00  9.99 LIG 0.04  C 
BRANCH 23 25
ATOM     25  C   ALA C   3      17.537  22.588  34.644  1.00  9.36 LIG 0.24  C 
ATOM     26  N   ALA C   4      18.427  22.082  33.798  1.00  9.08 LIG-0.35  N 
ATOM     27 H    ALA C   4      18.358  22.132  32.943  1.00  9.08 LIG 0.16  HD
ATOM     28 O    ALA C   3      17.732  22.655  35.865  1.00  9.90 LIG-0.27  OA
BRANCH 26 29
ATOM     29  CA  ALA C   4      19.623  21.385  34.268  1.00  9.70 LIG 0.18  C 
ATOM     30  CB  ALA C   4      20.484  22.321  35.085  1.00  9.53 LIG 0.04  C 
BRANCH 29 31
ATOM     31  C   ALA C   4      19.328  20.131  35.070  1.00 11.00 LIG 0.28  C 
ATOM     32  N   NH2 C   5      18.275  19.415  34.703  1.00 10.22 LIG-0.11  N 
ATOM     33 O    ALA C   4      20.034  19.845  36.027  1.00 13.70 LIG-0.27  OA
ENDBRANCH 29 31
ENDBRANCH 26 29
ENDBRANCH 23 25
ENDBRANCH 20 23
ENDBRANCH 1 19
BRANCH 1 34
ATOM     34  CB  HIS C   2      12.968  20.137  32.883  1.00 12.23 LIG 0.10  C 
BRANCH 34 35
ATOM     35  CG  HIS C   2      12.141  20.747  31.802  1.00 15.24 LIG 0.06  A 
ATOM     36 ND1  HIS C   2      12.627  21.720  30.958  1.00 17.16 LIG-0.24  NA
ATOM     37  CE1 HIS C   2      11.680  22.072  30.106  1.00 17.55 LIG 0.23  A 
ATOM     38 NE2  HIS C   2      10.599  21.361  30.369  1.00 18.01 LIG-0.25  NA
ATOM     39  CD2 HIS C   2      10.862  20.523  31.424  1.00 16.53 LIG 0.14  A 
ENDBRANCH 34 35
ENDBRANCH 1 34
TORSDOF 12
ENDMDL
MODEL 80
USER: ADFR SOLUTION from run 132
USER: SCORE 10.349472 LL:  -2.953 LR:  -9.606 RR:   0.000 FEB:  -6.027
USER: RMSD 8.578088
USER: SEED 131
USER: STATUS no improvement in best in 27 clusters for 5 generations
USER: GENES 14
USER: genes 0 Translation |==|  0.50025 0.60643 0.41531
USER: genes 1 Rotation |==|  0.78885 0.65168 0.78021 0.75503
USER: genes 2 Torsion [CB]-CA--N-[C] |==|  0.43889
USER: genes 3 Torsion [N]-C--CA-[N] |==|  0.28116
USER: genes 4 Torsion [C]-CA--CB-[CG] |==|  0.20881
USER: genes 5 Torsion [CA]-CB--CG-[CD1] |==|  0.79566
USER: genes 6 Torsion [C]-CA--N-[C] |==|  0.73574
USER: genes 7 Torsion [N]-CA--C-[N] |==|  0.42107
USER: genes 8 Torsion [C]-N--CA-[CB] |==|  0.18320
USER: genes 9 Torsion [N]-CA--C-[N] |==|  0.62571
USER: genes 10 Torsion [C]-N--CA-[C] |==|  0.74356
USER: genes 11 Torsion [N]-CA--C-[N] |==|  0.95895
USER: genes 12 Torsion [N]-CA--CB-[CG] |==|  0.49894
USER: genes 13 Torsion [CA]-CB--CG-[CD2] |==|  0.58496
ROOT
ATOM      1  CA  HIS C   2      12.538  23.923  29.210  1.00 10.06 LIG 0.18  C 
ENDROOT
BRANCH 1 2
ATOM      2  N   HIS C   2      12.930  25.239  28.704  1.00  9.48 LIG-0.35  N 
ATOM      3 H    HIS C   2      13.055  25.827  29.319  1.00  9.48 LIG 0.16  HD
ATOM      4  C   PHE C   1      13.077  25.491  27.411  1.00  9.37 LIG 0.24  C 
ATOM      5 O    PHE C   1      12.978  24.632  26.541  1.00 11.27 LIG-0.27  OA
BRANCH 4 6
ATOM      6  CA  PHE C   1      13.355  26.933  27.047  1.00  8.68 LIG 0.18  C 
BRANCH 6 7
ATOM      7  CB  PHE C   1      12.507  27.298  25.829  1.00  8.30 LIG 0.07  C 
BRANCH 7 8
ATOM      8  CG  PHE C   1      11.056  27.509  26.145  1.00  6.80 LIG-0.06  A 
ATOM      9  CD1 PHE C   1      10.228  26.431  26.428  1.00  6.68 LIG 0.01  A 
ATOM     10  CE1 PHE C   1       8.894  26.634  26.730  1.00  6.85 LIG 0.00  A 
ATOM     11  CZ  PHE C   1       8.371  27.908  26.737  1.00  6.56 LIG 0.00  A 
ATOM     12  CE2 PHE C   1       9.181  28.992  26.454  1.00  6.82 LIG 0.00  A 
ATOM     13  CD2 PHE C   1      10.519  28.788  26.163  1.00  7.43 LIG 0.01  A 
ENDBRANCH 7 8
ENDBRANCH 6 7
BRANCH 6 14
ATOM     14  N   PHE C   1      14.778  27.144  26.767  1.00  9.64 LIG-0.35  N 
ATOM     15 H    PHE C   1      15.013  26.962  25.960  1.00  9.64 LIG 0.16  HD
ATOM     16  C   ACE C   0      15.612  27.583  27.704  1.00 12.10 LIG 0.21  C 
ATOM     17  CH3 ACE C   0      17.056  27.690  27.307  1.00 13.09 LIG 0.12  C 
ATOM     18 O    ACE C   0      15.228  27.866  28.839  1.00 13.69 LIG-0.27  OA
ENDBRANCH 6 14
ENDBRANCH 4 6
ENDBRANCH 1 2
BRANCH 1 19
ATOM     19  C   HIS C   2      11.032  23.792  29.142  1.00  9.05 LIG 0.24  C 
ATOM     20  N   ALA C   3      10.545  22.568  28.992  1.00  9.24 LIG-0.35  N 
ATOM     21 H    ALA C   3      11.021  21.865  28.860  1.00  9.24 LIG 0.16  HD
ATOM     22 O    HIS C   2      10.313  24.776  29.264  1.00  8.29 LIG-0.27  OA
BRANCH 20 23
ATOM     23  CA  ALA C   3       9.104  22.337  29.046  1.00  8.91 LIG 0.17  C 
ATOM     24  CB  ALA C   3       8.411  23.006  27.872  1.00  9.99 LIG 0.04  C 
BRANCH 23 25
ATOM     25  C   ALA C   3       8.811  20.835  29.044  1.00  9.36 LIG 0.24  C 
ATOM     26  N   ALA C   4       7.843  20.428  28.231  1.00  9.08 LIG-0.35  N 
ATOM     27 H    ALA C   4       7.456  20.934  27.653  1.00  9.08 LIG 0.16  HD
ATOM     28 O    ALA C   3       9.467  20.057  29.750  1.00  9.90 LIG-0.27  OA
BRANCH 26 29
ATOM     29  CA  ALA C   4       7.347  19.052  28.255  1.00  9.70 LIG 0.18  C 
ATOM     30  CB  ALA C   4       5.858  19.031  27.997  1.00  9.53 LIG 0.04  C 
BRANCH 29 31
ATOM     31  C   ALA C   4       8.049  18.128  27.277  1.00 11.00 LIG 0.28  C 
ATOM     32  N   NH2 C   5       8.782  18.698  26.331  1.00 10.22 LIG-0.11  N 
ATOM     33 O    ALA C   4       7.893  16.919  27.369  1.00 13.70 LIG-0.27  OA
ENDBRANCH 29 31
ENDBRANCH 26 29
ENDBRANCH 23 25
ENDBRANCH 20 23
ENDBRANCH 1 19
BRANCH 1 34
ATOM     34  CB  HIS C   2      12.957  23.741  30.674  1.00 12.23 LIG 0.10  C 
BRANCH 34 35
ATOM     35  CG  HIS C   2      12.579  22.422  31.258  1.00 15.24 LIG 0.06  A 
ATOM     36 ND1  HIS C   2      12.498  21.274  30.502  1.00 17.16 LIG-0.24  NA
ATOM     37  CE1 HIS C   2      12.144  20.264  31.278  1.00 17.55 LIG 0.23  A 
ATOM     38 NE2  HIS C   2      11.994  20.718  32.509  1.00 18.01 LIG-0.25  NA
ATOM     39  CD2 HIS C   2      12.262  22.064  32.523  1.00 16.53 LIG 0.14  A 
ENDBRANCH 34 35
ENDBRANCH 1 34
TORSDOF 12
ENDMDL
MODEL 81
USER: ADFR SOLUTION from run 28
USER: SCORE 10.605808 LL:  -2.740 LR:  -9.598 RR:   0.000 FEB:  -6.019
USER: RMSD 8.373015
USER: SEED 27
USER: STATUS no improvement in best in 13 clusters for 5 generations
USER: GENES 14
USER: genes 0 Translation |==|  0.52510 0.41529 0.55224
USER: genes 1 Rotation |==|  0.92539 0.65602 0.28891 0.51205
USER: genes 2 Torsion [CB]-CA--N-[C] |==|  0.22314
USER: genes 3 Torsion [N]-C--CA-[N] |==|  0.34040
USER: genes 4 Torsion [C]-CA--CB-[CG] |==|  0.69634
USER: genes 5 Torsion [CA]-CB--CG-[CD1] |==|  0.71064
USER: genes 6 Torsion [C]-CA--N-[C] |==|  0.56425
USER: genes 7 Torsion [N]-CA--C-[N] |==|  0.88782
USER: genes 8 Torsion [C]-N--CA-[CB] |==|  0.18734
USER: genes 9 Torsion [N]-CA--C-[N] |==|  0.09800
USER: genes 10 Torsion [C]-N--CA-[C] |==|  0.86663
USER: genes 11 Torsion [N]-CA--C-[N] |==|  0.84444
USER: genes 12 Torsion [N]-CA--CB-[CG] |==|  0.41671
USER: genes 13 Torsion [CA]-CB--CG-[CD2] |==|  0.66951
ROOT
ATOM      1  CA  HIS C   2      12.948  19.909  31.880  1.00 10.06 LIG 0.18  C 
ENDROOT
BRANCH 1 2
ATOM      2  N   HIS C   2      12.948  21.247  31.289  1.00  9.48 LIG-0.35  N 
ATOM      3 H    HIS C   2      13.643  21.716  31.483  1.00  9.48 LIG 0.16  HD
ATOM      4  C   PHE C   1      11.958  21.689  30.525  1.00  9.37 LIG 0.24  C 
ATOM      5 O    PHE C   1      11.008  20.993  30.183  1.00 11.27 LIG-0.27  OA
BRANCH 4 6
ATOM      6  CA  PHE C   1      12.047  23.140  30.103  1.00  8.68 LIG 0.18  C 
BRANCH 6 7
ATOM      7  CB  PHE C   1      10.871  23.896  30.718  1.00  8.30 LIG 0.07  C 
BRANCH 7 8
ATOM      8  CG  PHE C   1       9.835  24.318  29.719  1.00  6.80 LIG-0.06  A 
ATOM      9  CD1 PHE C   1       9.748  25.640  29.302  1.00  6.68 LIG 0.01  A 
ATOM     10  CE1 PHE C   1       8.799  26.019  28.371  1.00  6.85 LIG 0.00  A 
ATOM     11  CZ  PHE C   1       7.919  25.091  27.861  1.00  6.56 LIG 0.00  A 
ATOM     12  CE2 PHE C   1       7.989  23.771  28.268  1.00  6.82 LIG 0.00  A 
ATOM     13  CD2 PHE C   1       8.948  23.391  29.192  1.00  7.43 LIG 0.01  A 
ENDBRANCH 7 8
ENDBRANCH 6 7
BRANCH 6 14
ATOM     14  N   PHE C   1      12.036  23.269  28.643  1.00  9.64 LIG-0.35  N 
ATOM     15 H    PHE C   1      11.680  22.604  28.229  1.00  9.64 LIG 0.16  HD
ATOM     16  C   ACE C   0      12.544  24.337  28.037  1.00 12.10 LIG 0.21  C 
ATOM     17  CH3 ACE C   0      12.533  24.314  26.536  1.00 13.09 LIG 0.12  C 
ATOM     18 O    ACE C   0      13.014  25.284  28.667  1.00 13.69 LIG-0.27  OA
ENDBRANCH 6 14
ENDBRANCH 4 6
ENDBRANCH 1 2
BRANCH 1 19
ATOM     19  C   HIS C   2      13.925  19.875  33.036  1.00  9.05 LIG 0.24  C 
ATOM     20  N   ALA C   3      15.073  20.516  32.867  1.00  9.24 LIG-0.35  N 
ATOM     21 H    ALA C   3      15.325  20.882  32.132  1.00  9.24 LIG 0.16  HD
ATOM     22 O    HIS C   2      13.632  19.312  34.084  1.00  8.29 LIG-0.27  OA
BRANCH 20 23
ATOM     23  CA  ALA C   3      16.016  20.642  33.975  1.00  8.91 LIG 0.17  C 
ATOM     24  CB  ALA C   3      16.594  19.286  34.341  1.00  9.99 LIG 0.04  C 
BRANCH 23 25
ATOM     25  C   ALA C   3      17.140  21.611  33.603  1.00  9.36 LIG 0.24  C 
ATOM     26  N   ALA C   4      16.795  22.643  32.841  1.00  9.08 LIG-0.35  N 
ATOM     27 H    ALA C   4      15.983  22.840  32.638  1.00  9.08 LIG 0.16  HD
ATOM     28 O    ALA C   3      18.293  21.438  34.019  1.00  9.90 LIG-0.27  OA
BRANCH 26 29
ATOM     29  CA  ALA C   4      17.796  23.546  32.274  1.00  9.70 LIG 0.18  C 
ATOM     30  CB  ALA C   4      17.118  24.732  31.627  1.00  9.53 LIG 0.04  C 
BRANCH 29 31
ATOM     31  C   ALA C   4      18.826  24.030  33.277  1.00 11.00 LIG 0.28  C 
ATOM     32  N   NH2 C   5      18.370  24.636  34.364  1.00 10.22 LIG-0.11  N 
ATOM     33 O    ALA C   4      20.017  23.881  33.041  1.00 13.70 LIG-0.27  OA
ENDBRANCH 29 31
ENDBRANCH 26 29
ENDBRANCH 23 25
ENDBRANCH 20 23
ENDBRANCH 1 19
BRANCH 1 34
ATOM     34  CB  HIS C   2      13.393  18.852  30.862  1.00 12.23 LIG 0.10  C 
BRANCH 34 35
ATOM     35  CG  HIS C   2      14.083  17.676  31.465  1.00 15.24 LIG 0.06  A 
ATOM     36 ND1  HIS C   2      13.471  16.844  32.376  1.00 17.16 LIG-0.24  NA
ATOM     37  CE1 HIS C   2      14.316  15.894  32.738  1.00 17.55 LIG 0.23  A 
ATOM     38 NE2  HIS C   2      15.453  16.081  32.094  1.00 18.01 LIG-0.25  NA
ATOM     39  CD2 HIS C   2      15.333  17.188  31.290  1.00 16.53 LIG 0.14  A 
ENDBRANCH 34 35
ENDBRANCH 1 34
TORSDOF 12
ENDMDL
MODEL 82
USER: ADFR SOLUTION from run 49
USER: SCORE 9.715080 LL:  -2.774 LR:  -9.586 RR:   0.000 FEB:  -6.007
USER: RMSD 7.617462
USER: SEED 48
USER: STATUS no improvement in best in 33 clusters for 5 generations
USER: GENES 14
USER: genes 0 Translation |==|  0.49509 0.59910 0.37359
USER: genes 1 Rotation |==|  0.49174 0.98481 0.38856 0.54971
USER: genes 2 Torsion [CB]-CA--N-[C] |==|  0.51416
USER: genes 3 Torsion [N]-C--CA-[N] |==|  0.67824
USER: genes 4 Torsion [C]-CA--CB-[CG] |==|  0.42050
USER: genes 5 Torsion [CA]-CB--CG-[CD1] |==|  0.18053
USER: genes 6 Torsion [C]-CA--N-[C] |==|  0.16254
USER: genes 7 Torsion [N]-CA--C-[N] |==|  0.28333
USER: genes 8 Torsion [C]-N--CA-[CB] |==|  0.18400
USER: genes 9 Torsion [N]-CA--C-[N] |==|  0.89856
USER: genes 10 Torsion [C]-N--CA-[C] |==|  0.79352
USER: genes 11 Torsion [N]-CA--C-[N] |==|  0.00491
USER: genes 12 Torsion [N]-CA--CB-[CG] |==|  0.45917
USER: genes 13 Torsion [CA]-CB--CG-[CD2] |==|  0.60056
ROOT
ATOM      1  CA  HIS C   2      12.453  23.769  28.396  1.00 10.06 LIG 0.18  C 
ENDROOT
BRANCH 1 2
ATOM      2  N   HIS C   2      11.342  22.845  28.625  1.00  9.48 LIG-0.35  N 
ATOM      3 H    HIS C   2      10.740  22.863  28.011  1.00  9.48 LIG 0.16  HD
ATOM      4  C   PHE C   1      11.280  22.055  29.689  1.00  9.37 LIG 0.24  C 
ATOM      5 O    PHE C   1      12.177  21.972  30.521  1.00 11.27 LIG-0.27  OA
BRANCH 4 6
ATOM      6  CA  PHE C   1      10.003  21.258  29.845  1.00  8.68 LIG 0.18  C 
BRANCH 6 7
ATOM      7  CB  PHE C   1       9.142  21.474  28.602  1.00  8.30 LIG 0.07  C 
BRANCH 7 8
ATOM      8  CG  PHE C   1       8.244  20.316  28.281  1.00  6.80 LIG-0.06  A 
ATOM      9  CD1 PHE C   1       7.219  19.952  29.145  1.00  6.68 LIG 0.01  A 
ATOM     10  CE1 PHE C   1       6.388  18.892  28.837  1.00  6.85 LIG 0.00  A 
ATOM     11  CZ  PHE C   1       6.578  18.176  27.676  1.00  6.56 LIG 0.00  A 
ATOM     12  CE2 PHE C   1       7.596  18.522  26.807  1.00  6.82 LIG 0.00  A 
ATOM     13  CD2 PHE C   1       8.421  19.592  27.111  1.00  7.43 LIG 0.01  A 
ENDBRANCH 7 8
ENDBRANCH 6 7
BRANCH 6 14
ATOM     14  N   PHE C   1       9.275  21.655  31.053  1.00  9.64 LIG-0.35  N 
ATOM     15 H    PHE C   1       9.138  21.015  31.612  1.00  9.64 LIG 0.16  HD
ATOM     16  C   ACE C   0       8.872  22.907  31.242  1.00 12.10 LIG 0.21  C 
ATOM     17  CH3 ACE C   0       8.076  23.166  32.488  1.00 13.09 LIG 0.12  C 
ATOM     18 O    ACE C   0       9.119  23.801  30.432  1.00 13.69 LIG-0.27  OA
ENDBRANCH 6 14
ENDBRANCH 4 6
ENDBRANCH 1 2
BRANCH 1 19
ATOM     19  C   HIS C   2      12.591  24.689  29.591  1.00  9.05 LIG 0.24  C 
ATOM     20  N   ALA C   3      13.563  24.412  30.448  1.00  9.24 LIG-0.35  N 
ATOM     21 H    ALA C   3      14.065  23.715  30.411  1.00  9.24 LIG 0.16  HD
ATOM     22 O    HIS C   2      11.857  25.661  29.718  1.00  8.29 LIG-0.27  OA
BRANCH 20 23
ATOM     23  CA  ALA C   3      13.848  25.319  31.557  1.00  8.91 LIG 0.17  C 
ATOM     24  CB  ALA C   3      12.686  25.349  32.535  1.00  9.99 LIG 0.04  C 
BRANCH 23 25
ATOM     25  C   ALA C   3      15.130  24.889  32.274  1.00  9.36 LIG 0.24  C 
ATOM     26  N   ALA C   4      15.335  23.580  32.373  1.00  9.08 LIG-0.35  N 
ATOM     27 H    ALA C   4      14.851  22.988  31.980  1.00  9.08 LIG 0.16  HD
ATOM     28 O    ALA C   3      15.929  25.729  32.708  1.00  9.90 LIG-0.27  OA
BRANCH 26 29
ATOM     29  CA  ALA C   4      16.425  23.033  33.178  1.00  9.70 LIG 0.18  C 
ATOM     30  CB  ALA C   4      16.171  21.573  33.474  1.00  9.53 LIG 0.04  C 
BRANCH 29 31
ATOM     31  C   ALA C   4      17.796  23.195  32.547  1.00 11.00 LIG 0.28  C 
ATOM     32  N   NH2 C   5      17.853  23.832  31.386  1.00 10.22 LIG-0.11  N 
ATOM     33 O    ALA C   4      18.777  22.716  33.099  1.00 13.70 LIG-0.27  OA
ENDBRANCH 29 31
ENDBRANCH 26 29
ENDBRANCH 23 25
ENDBRANCH 20 23
ENDBRANCH 1 19
BRANCH 1 34
ATOM     34  CB  HIS C   2      12.204  24.644  27.161  1.00 12.23 LIG 0.10  C 
BRANCH 34 35
ATOM     35  CG  HIS C   2      13.105  25.827  27.059  1.00 15.24 LIG 0.06  A 
ATOM     36 ND1  HIS C   2      14.426  25.789  27.449  1.00 17.16 LIG-0.24  NA
ATOM     37  CE1 HIS C   2      14.975  26.974  27.248  1.00 17.55 LIG 0.23  A 
ATOM     38 NE2  HIS C   2      14.058  27.778  26.740  1.00 18.01 LIG-0.25  NA
ATOM     39  CD2 HIS C   2      12.881  27.084  26.611  1.00 16.53 LIG 0.14  A 
ENDBRANCH 34 35
ENDBRANCH 1 34
TORSDOF 12
ENDMDL
MODEL 83
USER: ADFR SOLUTION from run 1
USER: SCORE 11.042737 LL:  -2.498 LR:  -9.582 RR:   0.000 FEB:  -6.003
USER: RMSD 9.502339
USER: SEED 973436
USER: STATUS no improvement in best in 25 clusters for 5 generations
USER: GENES 14
USER: genes 0 Translation |==|  0.52273 0.58915 0.43647
USER: genes 1 Rotation |==|  0.66263 0.89772 0.70949 0.64657
USER: genes 2 Torsion [CB]-CA--N-[C] |==|  0.88203
USER: genes 3 Torsion [N]-C--CA-[N] |==|  0.97017
USER: genes 4 Torsion [C]-CA--CB-[CG] |==|  0.38781
USER: genes 5 Torsion [CA]-CB--CG-[CD1] |==|  0.55100
USER: genes 6 Torsion [C]-CA--N-[C] |==|  0.74408
USER: genes 7 Torsion [N]-CA--C-[N] |==|  0.34685
USER: genes 8 Torsion [C]-N--CA-[CB] |==|  0.15918
USER: genes 9 Torsion [N]-CA--C-[N] |==|  0.99545
USER: genes 10 Torsion [C]-N--CA-[C] |==|  0.80777
USER: genes 11 Torsion [N]-CA--C-[N] |==|  0.43889
USER: genes 12 Torsion [N]-CA--CB-[CG] |==|  0.84157
USER: genes 13 Torsion [CA]-CB--CG-[CD2] |==|  0.04382
ROOT
ATOM      1  CA  HIS C   2      12.909  23.560  29.622  1.00 10.06 LIG 0.18  C 
ENDROOT
BRANCH 1 2
ATOM      2  N   HIS C   2      11.943  23.985  28.609  1.00  9.48 LIG-0.35  N 
ATOM      3 H    HIS C   2      12.008  23.560  27.864  1.00  9.48 LIG 0.16  HD
ATOM      4  C   PHE C   1      11.052  24.942  28.831  1.00  9.37 LIG 0.24  C 
ATOM      5 O    PHE C   1      10.908  25.491  29.918  1.00 11.27 LIG-0.27  OA
BRANCH 4 6
ATOM      6  CA  PHE C   1      10.216  25.354  27.639  1.00  8.68 LIG 0.18  C 
BRANCH 6 7
ATOM      7  CB  PHE C   1       8.776  24.903  27.878  1.00  8.30 LIG 0.07  C 
BRANCH 7 8
ATOM      8  CG  PHE C   1       7.749  25.906  27.442  1.00  6.80 LIG-0.06  A 
ATOM      9  CD1 PHE C   1       6.446  25.839  27.916  1.00  6.68 LIG 0.01  A 
ATOM     10  CE1 PHE C   1       5.507  26.774  27.521  1.00  6.85 LIG 0.00  A 
ATOM     11  CZ  PHE C   1       5.854  27.773  26.639  1.00  6.56 LIG 0.00  A 
ATOM     12  CE2 PHE C   1       7.147  27.853  26.155  1.00  6.82 LIG 0.00  A 
ATOM     13  CD2 PHE C   1       8.088  26.922  26.561  1.00  7.43 LIG 0.01  A 
ENDBRANCH 7 8
ENDBRANCH 6 7
BRANCH 6 14
ATOM     14  N   PHE C   1      10.739  24.775  26.398  1.00  9.64 LIG-0.35  N 
ATOM     15 H    PHE C   1      10.433  23.993  26.214  1.00  9.64 LIG 0.16  HD
ATOM     16  C   ACE C   0      11.614  25.429  25.642  1.00 12.10 LIG 0.21  C 
ATOM     17  CH3 ACE C   0      12.124  24.696  24.434  1.00 13.09 LIG 0.12  C 
ATOM     18 O    ACE C   0      12.001  26.563  25.923  1.00 13.69 LIG-0.27  OA
ENDBRANCH 6 14
ENDBRANCH 4 6
ENDBRANCH 1 2
BRANCH 1 19
ATOM     19  C   HIS C   2      12.208  22.694  30.647  1.00  9.05 LIG 0.24  C 
ATOM     20  N   ALA C   3      12.718  21.490  30.861  1.00  9.24 LIG-0.35  N 
ATOM     21 H    ALA C   3      13.366  21.146  30.412  1.00  9.24 LIG 0.16  HD
ATOM     22 O    HIS C   2      11.242  23.121  31.268  1.00  8.29 LIG-0.27  OA
BRANCH 20 23
ATOM     23  CA  ALA C   3      12.183  20.641  31.922  1.00  8.91 LIG 0.17  C 
ATOM     24  CB  ALA C   3      10.695  20.408  31.720  1.00  9.99 LIG 0.04  C 
BRANCH 23 25
ATOM     25  C   ALA C   3      12.926  19.303  31.952  1.00  9.36 LIG 0.24  C 
ATOM     26  N   ALA C   4      13.866  19.134  31.029  1.00  9.08 LIG-0.35  N 
ATOM     27 H    ALA C   4      14.135  19.756  30.499  1.00  9.08 LIG 0.16  HD
ATOM     28 O    ALA C   3      12.668  18.451  32.812  1.00  9.90 LIG-0.27  OA
BRANCH 26 29
ATOM     29  CA  ALA C   4      14.531  17.846  30.837  1.00  9.70 LIG 0.18  C 
ATOM     30  CB  ALA C   4      15.307  17.850  29.540  1.00  9.53 LIG 0.04  C 
BRANCH 29 31
ATOM     31  C   ALA C   4      15.447  17.451  31.980  1.00 11.00 LIG 0.28  C 
ATOM     32  N   NH2 C   5      15.725  16.162  32.111  1.00 10.22 LIG-0.11  N 
ATOM     33 O    ALA C   4      15.863  18.309  32.746  1.00 13.70 LIG-0.27  OA
ENDBRANCH 29 31
ENDBRANCH 26 29
ENDBRANCH 23 25
ENDBRANCH 20 23
ENDBRANCH 1 19
BRANCH 1 34
ATOM     34  CB  HIS C   2      13.508  24.764  30.361  1.00 12.23 LIG 0.10  C 
BRANCH 34 35
ATOM     35  CG  HIS C   2      14.172  25.758  29.470  1.00 15.24 LIG 0.06  A 
ATOM     36 ND1  HIS C   2      15.031  26.723  29.947  1.00 17.16 LIG-0.24  NA
ATOM     37  CE1 HIS C   2      15.465  27.459  28.939  1.00 17.55 LIG 0.23  A 
ATOM     38 NE2  HIS C   2      14.918  27.004  27.826  1.00 18.01 LIG-0.25  NA
ATOM     39  CD2 HIS C   2      14.106  25.940  28.130  1.00 16.53 LIG 0.14  A 
ENDBRANCH 34 35
ENDBRANCH 1 34
TORSDOF 12
ENDMDL
MODEL 84
USER: ADFR SOLUTION from run 5
USER: SCORE 11.174898 LL:  -3.433 LR:  -9.583 RR:   0.000 FEB:  -6.003
USER: RMSD 6.852159
USER: SEED 385843
USER: STATUS no improvement in best in 23 clusters for 5 generations
USER: GENES 14
USER: genes 0 Translation |==|  0.29237 0.48152 0.39182
USER: genes 1 Rotation |==|  0.76201 0.23448 0.76143 0.70618
USER: genes 2 Torsion [CB]-CA--N-[C] |==|  0.48890
USER: genes 3 Torsion [N]-C--CA-[N] |==|  0.31227
USER: genes 4 Torsion [C]-CA--CB-[CG] |==|  0.16643
USER: genes 5 Torsion [CA]-CB--CG-[CD1] |==|  0.59007
USER: genes 6 Torsion [C]-CA--N-[C] |==|  0.77160
USER: genes 7 Torsion [N]-CA--C-[N] |==|  0.21387
USER: genes 8 Torsion [C]-N--CA-[CB] |==|  0.16534
USER: genes 9 Torsion [N]-CA--C-[N] |==|  0.06344
USER: genes 10 Torsion [C]-N--CA-[C] |==|  0.18170
USER: genes 11 Torsion [N]-CA--C-[N] |==|  0.08011
USER: genes 12 Torsion [N]-CA--CB-[CG] |==|  0.64818
USER: genes 13 Torsion [CA]-CB--CG-[CD2] |==|  0.58486
ROOT
ATOM      1  CA  HIS C   2       9.108  21.300  28.751  1.00 10.06 LIG 0.18  C 
ENDROOT
BRANCH 1 2
ATOM      2  N   HIS C   2       9.915  21.278  29.971  1.00  9.48 LIG-0.35  N 
ATOM      3 H    HIS C   2       9.549  20.856  30.625  1.00  9.48 LIG 0.16  HD
ATOM      4  C   PHE C   1      11.104  21.861  30.050  1.00  9.37 LIG 0.24  C 
ATOM      5 O    PHE C   1      11.659  22.392  29.094  1.00 11.27 LIG-0.27  OA
BRANCH 4 6
ATOM      6  CA  PHE C   1      11.749  21.862  31.419  1.00  8.68 LIG 0.18  C 
BRANCH 6 7
ATOM      7  CB  PHE C   1      12.103  23.302  31.787  1.00  8.30 LIG 0.07  C 
BRANCH 7 8
ATOM      8  CG  PHE C   1      10.919  24.222  31.834  1.00  6.80 LIG-0.06  A 
ATOM      9  CD1 PHE C   1      11.046  25.561  31.488  1.00  6.68 LIG 0.01  A 
ATOM     10  CE1 PHE C   1       9.948  26.400  31.522  1.00  6.85 LIG 0.00  A 
ATOM     11  CZ  PHE C   1       8.719  25.918  31.916  1.00  6.56 LIG 0.00  A 
ATOM     12  CE2 PHE C   1       8.576  24.589  32.267  1.00  6.82 LIG 0.00  A 
ATOM     13  CD2 PHE C   1       9.674  23.747  32.222  1.00  7.43 LIG 0.01  A 
ENDBRANCH 7 8
ENDBRANCH 6 7
BRANCH 6 14
ATOM     14  N   PHE C   1      12.944  21.015  31.443  1.00  9.64 LIG-0.35  N 
ATOM     15 H    PHE C   1      13.684  21.441  31.345  1.00  9.64 LIG 0.16  HD
ATOM     16  C   ACE C   0      12.859  19.698  31.604  1.00 12.10 LIG 0.21  C 
ATOM     17  CH3 ACE C   0      14.152  18.938  31.540  1.00 13.09 LIG 0.12  C 
ATOM     18 O    ACE C   0      11.780  19.130  31.776  1.00 13.69 LIG-0.27  OA
ENDBRANCH 6 14
ENDBRANCH 4 6
ENDBRANCH 1 2
BRANCH 1 19
ATOM     19  C   HIS C   2       8.694  22.725  28.453  1.00  9.05 LIG 0.24  C 
ATOM     20  N   ALA C   3       9.616  23.516  27.923  1.00  9.24 LIG-0.35  N 
ATOM     21 H    ALA C   3      10.440  23.299  27.807  1.00  9.24 LIG 0.16  HD
ATOM     22 O    HIS C   2       7.545  23.097  28.659  1.00  8.29 LIG-0.27  OA
BRANCH 20 23
ATOM     23  CA  ALA C   3       9.266  24.865  27.486  1.00  8.91 LIG 0.17  C 
ATOM     24  CB  ALA C   3       8.726  25.681  28.649  1.00  9.99 LIG 0.04  C 
BRANCH 23 25
ATOM     25  C   ALA C   3      10.489  25.557  26.880  1.00  9.36 LIG 0.24  C 
ATOM     26  N   ALA C   4      11.446  24.759  26.422  1.00  9.08 LIG-0.35  N 
ATOM     27 H    ALA C   4      11.370  23.904  26.360  1.00  9.08 LIG 0.16  HD
ATOM     28 O    ALA C   3      10.552  26.792  26.809  1.00  9.90 LIG-0.27  OA
BRANCH 26 29
ATOM     29  CA  ALA C   4      12.736  25.284  25.977  1.00  9.70 LIG 0.18  C 
ATOM     30  CB  ALA C   4      12.534  26.283  24.861  1.00  9.53 LIG 0.04  C 
BRANCH 29 31
ATOM     31  C   ALA C   4      13.559  25.915  27.085  1.00 11.00 LIG 0.28  C 
ATOM     32  N   NH2 C   5      13.378  25.445  28.311  1.00 10.22 LIG-0.11  N 
ATOM     33 O    ALA C   4      14.319  26.837  26.825  1.00 13.70 LIG-0.27  OA
ENDBRANCH 29 31
ENDBRANCH 26 29
ENDBRANCH 23 25
ENDBRANCH 20 23
ENDBRANCH 1 19
BRANCH 1 34
ATOM     34  CB  HIS C   2       7.830  20.467  28.914  1.00 12.23 LIG 0.10  C 
BRANCH 34 35
ATOM     35  CG  HIS C   2       7.633  19.438  27.853  1.00 15.24 LIG 0.06  A 
ATOM     36 ND1  HIS C   2       8.685  18.818  27.217  1.00 17.16 LIG-0.24  NA
ATOM     37  CE1 HIS C   2       8.215  17.960  26.330  1.00 17.55 LIG 0.23  A 
ATOM     38 NE2  HIS C   2       6.895  18.001  26.369  1.00 18.01 LIG-0.25  NA
ATOM     39  CD2 HIS C   2       6.506  18.917  27.315  1.00 16.53 LIG 0.14  A 
ENDBRANCH 34 35
ENDBRANCH 1 34
TORSDOF 12
ENDMDL
MODEL 85
USER: ADFR SOLUTION from run 99
USER: SCORE 10.969821 LL:  -2.676 LR:  -9.577 RR:   0.000 FEB:  -5.997
USER: RMSD 9.048914
USER: SEED 98
USER: STATUS no improvement in best in 8 clusters for 5 generations
USER: GENES 14
USER: genes 0 Translation |==|  0.47711 0.57143 0.40555
USER: genes 1 Rotation |==|  0.63762 0.97453 0.54408 0.56273
USER: genes 2 Torsion [CB]-CA--N-[C] |==|  0.55053
USER: genes 3 Torsion [N]-C--CA-[N] |==|  0.44802
USER: genes 4 Torsion [C]-CA--CB-[CG] |==|  0.28562
USER: genes 5 Torsion [CA]-CB--CG-[CD1] |==|  0.36790
USER: genes 6 Torsion [C]-CA--N-[C] |==|  0.78005
USER: genes 7 Torsion [N]-CA--C-[N] |==|  0.31255
USER: genes 8 Torsion [C]-N--CA-[CB] |==|  0.14787
USER: genes 9 Torsion [N]-CA--C-[N] |==|  0.00708
USER: genes 10 Torsion [C]-N--CA-[C] |==|  0.55214
USER: genes 11 Torsion [N]-CA--C-[N] |==|  0.43056
USER: genes 12 Torsion [N]-CA--CB-[CG] |==|  0.85953
USER: genes 13 Torsion [CA]-CB--CG-[CD2] |==|  0.34183
ROOT
ATOM      1  CA  HIS C   2      12.156  23.188  29.019  1.00 10.06 LIG 0.18  C 
ENDROOT
BRANCH 1 2
ATOM      2  N   HIS C   2      10.764  23.006  28.611  1.00  9.48 LIG-0.35  N 
ATOM      3 H    HIS C   2      10.500  23.561  28.010  1.00  9.48 LIG 0.16  HD
ATOM      4  C   PHE C   1       9.986  22.065  29.129  1.00  9.37 LIG 0.24  C 
ATOM      5 O    PHE C   1      10.386  21.223  29.927  1.00 11.27 LIG-0.27  OA
BRANCH 4 6
ATOM      6  CA  PHE C   1       8.536  22.095  28.697  1.00  8.68 LIG 0.18  C 
BRANCH 6 7
ATOM      7  CB  PHE C   1       7.828  23.217  29.454  1.00  8.30 LIG 0.07  C 
BRANCH 7 8
ATOM      8  CG  PHE C   1       7.597  24.449  28.630  1.00  6.80 LIG-0.06  A 
ATOM      9  CD1 PHE C   1       6.355  25.070  28.613  1.00  6.68 LIG 0.01  A 
ATOM     10  CE1 PHE C   1       6.153  26.212  27.861  1.00  6.85 LIG 0.00  A 
ATOM     11  CZ  PHE C   1       7.180  26.736  27.108  1.00  6.56 LIG 0.00  A 
ATOM     12  CE2 PHE C   1       8.422  26.130  27.111  1.00  6.82 LIG 0.00  A 
ATOM     13  CD2 PHE C   1       8.626  24.992  27.874  1.00  7.43 LIG 0.01  A 
ENDBRANCH 7 8
ENDBRANCH 6 7
BRANCH 6 14
ATOM     14  N   PHE C   1       7.881  20.809  28.950  1.00  9.64 LIG-0.35  N 
ATOM     15 H    PHE C   1       7.392  20.791  29.658  1.00  9.64 LIG 0.16  HD
ATOM     16  C   ACE C   0       8.047  19.773  28.135  1.00 12.10 LIG 0.21  C 
ATOM     17  CH3 ACE C   0       7.376  18.493  28.545  1.00 13.09 LIG 0.12  C 
ATOM     18 O    ACE C   0       8.727  19.850  27.112  1.00 13.69 LIG-0.27  OA
ENDBRANCH 6 14
ENDBRANCH 4 6
ENDBRANCH 1 2
BRANCH 1 19
ATOM     19  C   HIS C   2      12.253  23.073  30.526  1.00  9.05 LIG 0.24  C 
ATOM     20  N   ALA C   3      12.906  22.024  31.004  1.00  9.24 LIG-0.35  N 
ATOM     21 H    ALA C   3      13.210  21.377  30.526  1.00  9.24 LIG 0.16  HD
ATOM     22 O    HIS C   2      11.781  23.942  31.249  1.00  8.29 LIG-0.27  OA
BRANCH 20 23
ATOM     23  CA  ALA C   3      13.157  21.903  32.438  1.00  8.91 LIG 0.17  C 
ATOM     24  CB  ALA C   3      11.862  22.043  33.221  1.00  9.99 LIG 0.04  C 
BRANCH 23 25
ATOM     25  C   ALA C   3      13.816  20.557  32.746  1.00  9.36 LIG 0.24  C 
ATOM     26  N   ALA C   4      14.087  19.784  31.701  1.00  9.08 LIG-0.35  N 
ATOM     27 H    ALA C   4      14.005  20.037  30.883  1.00  9.08 LIG 0.16  HD
ATOM     28 O    ALA C   3      14.096  20.237  33.909  1.00  9.90 LIG-0.27  OA
BRANCH 26 29
ATOM     29  CA  ALA C   4      14.557  18.409  31.863  1.00  9.70 LIG 0.18  C 
ATOM     30  CB  ALA C   4      13.412  17.514  32.277  1.00  9.53 LIG 0.04  C 
BRANCH 29 31
ATOM     31  C   ALA C   4      15.231  17.840  30.628  1.00 11.00 LIG 0.28  C 
ATOM     32  N   NH2 C   5      16.105  16.861  30.817  1.00 10.22 LIG-0.11  N 
ATOM     33 O    ALA C   4      14.979  18.313  29.529  1.00 13.70 LIG-0.27  OA
ENDBRANCH 29 31
ENDBRANCH 26 29
ENDBRANCH 23 25
ENDBRANCH 20 23
ENDBRANCH 1 19
BRANCH 1 34
ATOM     34  CB  HIS C   2      12.676  24.575  28.623  1.00 12.23 LIG 0.10  C 
BRANCH 34 35
ATOM     35  CG  HIS C   2      12.435  24.933  27.196  1.00 15.24 LIG 0.06  A 
ATOM     36 ND1  HIS C   2      12.891  24.160  26.151  1.00 17.16 LIG-0.24  NA
ATOM     37  CE1 HIS C   2      12.534  24.716  25.007  1.00 17.55 LIG 0.23  A 
ATOM     38 NE2  HIS C   2      11.863  25.823  25.273  1.00 18.01 LIG-0.25  NA
ATOM     39  CD2 HIS C   2      11.786  25.980  26.635  1.00 16.53 LIG 0.14  A 
ENDBRANCH 34 35
ENDBRANCH 1 34
TORSDOF 12
ENDMDL
MODEL 86
USER: ADFR SOLUTION from run 190
USER: SCORE 10.931845 LL:  -2.405 LR:  -9.553 RR:   0.000 FEB:  -5.974
USER: RMSD 8.422200
USER: SEED 189
USER: STATUS no improvement in best in 27 clusters for 5 generations
USER: GENES 14
USER: genes 0 Translation |==|  0.44813 0.50140 0.52047
USER: genes 1 Rotation |==|  0.12998 0.52430 0.76169 0.70979
USER: genes 2 Torsion [CB]-CA--N-[C] |==|  0.19906
USER: genes 3 Torsion [N]-C--CA-[N] |==|  0.95702
USER: genes 4 Torsion [C]-CA--CB-[CG] |==|  0.47700
USER: genes 5 Torsion [CA]-CB--CG-[CD1] |==|  0.42965
USER: genes 6 Torsion [C]-CA--N-[C] |==|  0.66282
USER: genes 7 Torsion [N]-CA--C-[N] |==|  0.05679
USER: genes 8 Torsion [C]-N--CA-[CB] |==|  0.85412
USER: genes 9 Torsion [N]-CA--C-[N] |==|  0.41635
USER: genes 10 Torsion [C]-N--CA-[C] |==|  0.56851
USER: genes 11 Torsion [N]-CA--C-[N] |==|  0.50556
USER: genes 12 Torsion [N]-CA--CB-[CG] |==|  0.52939
USER: genes 13 Torsion [CA]-CB--CG-[CD2] |==|  0.57815
ROOT
ATOM      1  CA  HIS C   2      11.678  21.718  31.260  1.00 10.06 LIG 0.18  C 
ENDROOT
BRANCH 1 2
ATOM      2  N   HIS C   2      12.681  22.716  30.892  1.00  9.48 LIG-0.35  N 
ATOM      3 H    HIS C   2      13.468  22.393  30.769  1.00  9.48 LIG 0.16  HD
ATOM      4  C   PHE C   1      12.390  24.004  30.761  1.00  9.37 LIG 0.24  C 
ATOM      5 O    PHE C   1      11.253  24.452  30.857  1.00 11.27 LIG-0.27  OA
BRANCH 4 6
ATOM      6  CA  PHE C   1      13.565  24.923  30.507  1.00  8.68 LIG 0.18  C 
BRANCH 6 7
ATOM      7  CB  PHE C   1      13.528  25.364  29.044  1.00  8.30 LIG 0.07  C 
BRANCH 7 8
ATOM      8  CG  PHE C   1      14.526  26.433  28.711  1.00  6.80 LIG-0.06  A 
ATOM      9  CD1 PHE C   1      14.999  26.583  27.414  1.00  6.68 LIG 0.01  A 
ATOM     10  CE1 PHE C   1      15.909  27.579  27.111  1.00  6.85 LIG 0.00  A 
ATOM     11  CZ  PHE C   1      16.367  28.422  28.098  1.00  6.56 LIG 0.00  A 
ATOM     12  CE2 PHE C   1      15.910  28.285  29.396  1.00  6.82 LIG 0.00  A 
ATOM     13  CD2 PHE C   1      14.990  27.294  29.695  1.00  7.43 LIG 0.01  A 
ENDBRANCH 7 8
ENDBRANCH 6 7
BRANCH 6 14
ATOM     14  N   PHE C   1      14.835  24.258  30.813  1.00  9.64 LIG-0.35  N 
ATOM     15 H    PHE C   1      14.977  23.538  30.365  1.00  9.64 LIG 0.16  HD
ATOM     16  C   ACE C   0      15.677  24.751  31.716  1.00 12.10 LIG 0.21  C 
ATOM     17  CH3 ACE C   0      16.909  23.937  31.986  1.00 13.09 LIG 0.12  C 
ATOM     18 O    ACE C   0      15.452  25.805  32.312  1.00 13.69 LIG-0.27  OA
ENDBRANCH 6 14
ENDBRANCH 4 6
ENDBRANCH 1 2
BRANCH 1 19
ATOM     19  C   HIS C   2      12.370  20.409  31.574  1.00  9.05 LIG 0.24  C 
ATOM     20  N   ALA C   3      13.659  20.472  31.879  1.00  9.24 LIG-0.35  N 
ATOM     21 H    ALA C   3      14.136  21.186  31.839  1.00  9.24 LIG 0.16  HD
ATOM     22 O    HIS C   2      11.742  19.357  31.583  1.00  8.29 LIG-0.27  OA
BRANCH 20 23
ATOM     23  CA  ALA C   3      14.372  19.276  32.319  1.00  8.91 LIG 0.17  C 
ATOM     24  CB  ALA C   3      13.641  18.613  33.473  1.00  9.99 LIG 0.04  C 
BRANCH 23 25
ATOM     25  C   ALA C   3      14.521  18.293  31.156  1.00  9.36 LIG 0.24  C 
ATOM     26  N   ALA C   4      15.597  17.515  31.180  1.00  9.08 LIG-0.35  N 
ATOM     27 H    ALA C   4      16.141  17.469  31.845  1.00  9.08 LIG 0.16  HD
ATOM     28 O    ALA C   3      13.663  18.226  30.265  1.00  9.90 LIG-0.27  OA
BRANCH 26 29
ATOM     29  CA  ALA C   4      15.950  16.656  30.051  1.00  9.70 LIG 0.18  C 
ATOM     30  CB  ALA C   4      16.659  17.462  28.986  1.00  9.53 LIG 0.04  C 
BRANCH 29 31
ATOM     31  C   ALA C   4      16.796  15.456  30.432  1.00 11.00 LIG 0.28  C 
ATOM     32  N   NH2 C   5      17.186  14.657  29.448  1.00 10.22 LIG-0.11  N 
ATOM     33 O    ALA C   4      17.057  15.248  31.608  1.00 13.70 LIG-0.27  OA
ENDBRANCH 29 31
ENDBRANCH 26 29
ENDBRANCH 23 25
ENDBRANCH 20 23
ENDBRANCH 1 19
BRANCH 1 34
ATOM     34  CB  HIS C   2      10.697  21.462  30.109  1.00 12.23 LIG 0.10  C 
BRANCH 34 35
ATOM     35  CG  HIS C   2       9.508  20.648  30.490  1.00 15.24 LIG 0.06  A 
ATOM     36 ND1  HIS C   2       8.995  20.638  31.768  1.00 17.16 LIG-0.24  NA
ATOM     37  CE1 HIS C   2       7.948  19.833  31.813  1.00 17.55 LIG 0.23  A 
ATOM     38 NE2  HIS C   2       7.765  19.320  30.609  1.00 18.01 LIG-0.25  NA
ATOM     39  CD2 HIS C   2       8.726  19.816  29.763  1.00 16.53 LIG 0.14  A 
ENDBRANCH 34 35
ENDBRANCH 1 34
TORSDOF 12
ENDMDL
MODEL 87
USER: ADFR SOLUTION from run 113
USER: SCORE 11.085212 LL:  -2.747 LR:  -9.537 RR:   0.000 FEB:  -5.957
USER: RMSD 8.424009
USER: SEED 112
USER: STATUS no improvement in best in 14 clusters for 5 generations
USER: GENES 14
USER: genes 0 Translation |==|  0.30015 0.59951 0.34759
USER: genes 1 Rotation |==|  0.53938 0.02150 0.45342 0.63160
USER: genes 2 Torsion [CB]-CA--N-[C] |==|  0.57428
USER: genes 3 Torsion [N]-C--CA-[N] |==|  0.00137
USER: genes 4 Torsion [C]-CA--CB-[CG] |==|  0.65154
USER: genes 5 Torsion [CA]-CB--CG-[CD1] |==|  0.80950
USER: genes 6 Torsion [C]-CA--N-[C] |==|  0.70364
USER: genes 7 Torsion [N]-CA--C-[N] |==|  0.30099
USER: genes 8 Torsion [C]-N--CA-[CB] |==|  0.82778
USER: genes 9 Torsion [N]-CA--C-[N] |==|  0.23292
USER: genes 10 Torsion [C]-N--CA-[C] |==|  0.52658
USER: genes 11 Torsion [N]-CA--C-[N] |==|  0.42151
USER: genes 12 Torsion [N]-CA--CB-[CG] |==|  0.53882
USER: genes 13 Torsion [CA]-CB--CG-[CD2] |==|  0.98371
ROOT
ATOM      1  CA  HIS C   2       9.237  23.778  27.889  1.00 10.06 LIG 0.18  C 
ENDROOT
BRANCH 1 2
ATOM      2  N   HIS C   2       8.400  22.634  28.251  1.00  9.48 LIG-0.35  N 
ATOM      3 H    HIS C   2       7.573  22.721  28.028  1.00  9.48 LIG 0.16  HD
ATOM      4  C   PHE C   1       8.883  21.564  28.867  1.00  9.37 LIG 0.24  C 
ATOM      5 O    PHE C   1      10.075  21.406  29.111  1.00 11.27 LIG-0.27  OA
BRANCH 4 6
ATOM      6  CA  PHE C   1       7.863  20.529  29.289  1.00  8.68 LIG 0.18  C 
BRANCH 6 7
ATOM      7  CB  PHE C   1       8.230  19.194  28.642  1.00  8.30 LIG 0.07  C 
BRANCH 7 8
ATOM      8  CG  PHE C   1       7.115  18.583  27.845  1.00  6.80 LIG-0.06  A 
ATOM      9  CD1 PHE C   1       5.978  18.095  28.474  1.00  6.68 LIG 0.01  A 
ATOM     10  CE1 PHE C   1       4.950  17.544  27.733  1.00  6.85 LIG 0.00  A 
ATOM     11  CZ  PHE C   1       5.051  17.461  26.362  1.00  6.56 LIG 0.00  A 
ATOM     12  CE2 PHE C   1       6.178  17.939  25.720  1.00  6.82 LIG 0.00  A 
ATOM     13  CD2 PHE C   1       7.202  18.500  26.463  1.00  7.43 LIG 0.01  A 
ENDBRANCH 7 8
ENDBRANCH 6 7
BRANCH 6 14
ATOM     14  N   PHE C   1       6.507  20.933  28.906  1.00  9.64 LIG-0.35  N 
ATOM     15 H    PHE C   1       6.342  20.871  28.064  1.00  9.64 LIG 0.16  HD
ATOM     16  C   ACE C   0       5.628  21.356  29.808  1.00 12.10 LIG 0.21  C 
ATOM     17  CH3 ACE C   0       4.298  21.806  29.276  1.00 13.09 LIG 0.12  C 
ATOM     18 O    ACE C   0       5.893  21.397  31.009  1.00 13.69 LIG-0.27  OA
ENDBRANCH 6 14
ENDBRANCH 4 6
ENDBRANCH 1 2
BRANCH 1 19
ATOM     19  C   HIS C   2      10.303  23.969  28.946  1.00  9.05 LIG 0.24  C 
ATOM     20  N   ALA C   3      11.545  23.654  28.605  1.00  9.24 LIG-0.35  N 
ATOM     21 H    ALA C   3      11.770  23.286  27.861  1.00  9.24 LIG 0.16  HD
ATOM     22 O    HIS C   2      10.019  24.433  30.043  1.00  8.29 LIG-0.27  OA
BRANCH 20 23
ATOM     23  CA  ALA C   3      12.651  23.928  29.518  1.00  8.91 LIG 0.17  C 
ATOM     24  CB  ALA C   3      12.773  25.419  29.778  1.00  9.99 LIG 0.04  C 
BRANCH 23 25
ATOM     25  C   ALA C   3      12.444  23.179  30.837  1.00  9.36 LIG 0.24  C 
ATOM     26  N   ALA C   4      12.846  21.913  30.861  1.00  9.08 LIG-0.35  N 
ATOM     27 H    ALA C   4      13.291  21.539  30.228  1.00  9.08 LIG 0.16  HD
ATOM     28 O    ALA C   3      11.951  23.747  31.821  1.00  9.90 LIG-0.27  OA
BRANCH 26 29
ATOM     29  CA  ALA C   4      12.554  21.036  31.994  1.00  9.70 LIG 0.18  C 
ATOM     30  CB  ALA C   4      11.065  20.797  32.097  1.00  9.53 LIG 0.04  C 
BRANCH 29 31
ATOM     31  C   ALA C   4      13.283  19.706  31.946  1.00 11.00 LIG 0.28  C 
ATOM     32  N   NH2 C   5      13.551  19.124  33.107  1.00 10.22 LIG-0.11  N 
ATOM     33 O    ALA C   4      13.623  19.241  30.868  1.00 13.70 LIG-0.27  OA
ENDBRANCH 29 31
ENDBRANCH 26 29
ENDBRANCH 23 25
ENDBRANCH 20 23
ENDBRANCH 1 19
BRANCH 1 34
ATOM     34  CB  HIS C   2       8.414  25.070  27.819  1.00 12.23 LIG 0.10  C 
BRANCH 34 35
ATOM     35  CG  HIS C   2       9.112  26.203  27.146  1.00 15.24 LIG 0.06  A 
ATOM     36 ND1  HIS C   2       8.493  27.405  26.884  1.00 17.16 LIG-0.24  NA
ATOM     37  CE1 HIS C   2       9.347  28.215  26.284  1.00 17.55 LIG 0.23  A 
ATOM     38 NE2  HIS C   2      10.497  27.581  26.148  1.00 18.01 LIG-0.25  NA
ATOM     39  CD2 HIS C   2      10.377  26.321  26.681  1.00 16.53 LIG 0.14  A 
ENDBRANCH 34 35
ENDBRANCH 1 34
TORSDOF 12
ENDMDL
MODEL 88
USER: ADFR SOLUTION from run 171
USER: SCORE 10.751069 LL:  -3.630 LR:  -9.534 RR:   0.000 FEB:  -5.955
USER: RMSD 9.017305
USER: SEED 170
USER: STATUS no improvement in best in 22 clusters for 5 generations
USER: GENES 14
USER: genes 0 Translation |==|  0.39652 0.64061 0.31643
USER: genes 1 Rotation |==|  0.90747 0.71768 0.66449 0.59760
USER: genes 2 Torsion [CB]-CA--N-[C] |==|  0.23151
USER: genes 3 Torsion [N]-C--CA-[N] |==|  0.95724
USER: genes 4 Torsion [C]-CA--CB-[CG] |==|  0.90534
USER: genes 5 Torsion [CA]-CB--CG-[CD1] |==|  0.77397
USER: genes 6 Torsion [C]-CA--N-[C] |==|  0.81429
USER: genes 7 Torsion [N]-CA--C-[N] |==|  0.43476
USER: genes 8 Torsion [C]-N--CA-[CB] |==|  0.21517
USER: genes 9 Torsion [N]-CA--C-[N] |==|  0.78889
USER: genes 10 Torsion [C]-N--CA-[C] |==|  0.58531
USER: genes 11 Torsion [N]-CA--C-[N] |==|  0.36709
USER: genes 12 Torsion [N]-CA--CB-[CG] |==|  0.27915
USER: genes 13 Torsion [CA]-CB--CG-[CD2] |==|  0.75843
ROOT
ATOM      1  CA  HIS C   2      10.827  24.641  27.281  1.00 10.06 LIG 0.18  C 
ENDROOT
BRANCH 1 2
ATOM      2  N   HIS C   2      10.709  26.092  27.139  1.00  9.48 LIG-0.35  N 
ATOM      3 H    HIS C   2      10.356  26.483  27.818  1.00  9.48 LIG 0.16  HD
ATOM      4  C   PHE C   1      11.114  26.736  26.052  1.00  9.37 LIG 0.24  C 
ATOM      5 O    PHE C   1      11.690  26.188  25.118  1.00 11.27 LIG-0.27  OA
BRANCH 4 6
ATOM      6  CA  PHE C   1      10.800  28.216  26.008  1.00  8.68 LIG 0.18  C 
BRANCH 6 7
ATOM      7  CB  PHE C   1      12.094  28.993  26.241  1.00  8.30 LIG 0.07  C 
BRANCH 7 8
ATOM      8  CG  PHE C   1      13.044  28.316  27.184  1.00  6.80 LIG-0.06  A 
ATOM      9  CD1 PHE C   1      12.876  28.423  28.558  1.00  6.68 LIG 0.01  A 
ATOM     10  CE1 PHE C   1      13.747  27.786  29.422  1.00  6.85 LIG 0.00  A 
ATOM     11  CZ  PHE C   1      14.801  27.051  28.926  1.00  6.56 LIG 0.00  A 
ATOM     12  CE2 PHE C   1      14.985  26.937  27.561  1.00  6.82 LIG 0.00  A 
ATOM     13  CD2 PHE C   1      14.105  27.567  26.697  1.00  7.43 LIG 0.01  A 
ENDBRANCH 7 8
ENDBRANCH 6 7
BRANCH 6 14
ATOM     14  N   PHE C   1       9.794  28.575  27.011  1.00  9.64 LIG-0.35  N 
ATOM     15 H    PHE C   1      10.086  29.081  27.642  1.00  9.64 LIG 0.16  HD
ATOM     16  C   ACE C   0       8.542  28.140  26.926  1.00 12.10 LIG 0.21  C 
ATOM     17  CH3 ACE C   0       7.629  28.523  28.054  1.00 13.09 LIG 0.12  C 
ATOM     18 O    ACE C   0       8.155  27.445  25.986  1.00 13.69 LIG-0.27  OA
ENDBRANCH 6 14
ENDBRANCH 4 6
ENDBRANCH 1 2
BRANCH 1 19
ATOM     19  C   HIS C   2       9.831  24.160  28.316  1.00  9.05 LIG 0.24  C 
ATOM     20  N   ALA C   3       9.457  22.891  28.239  1.00  9.24 LIG-0.35  N 
ATOM     21 H    ALA C   3       9.681  22.351  27.608  1.00  9.24 LIG 0.16  HD
ATOM     22 O    HIS C   2       9.436  24.912  29.198  1.00  8.29 LIG-0.27  OA
BRANCH 20 23
ATOM     23  CA  ALA C   3       8.601  22.311  29.271  1.00  8.91 LIG 0.17  C 
ATOM     24  CB  ALA C   3       7.159  22.746  29.076  1.00  9.99 LIG 0.04  C 
BRANCH 23 25
ATOM     25  C   ALA C   3       8.700  20.784  29.242  1.00  9.36 LIG 0.24  C 
ATOM     26  N   ALA C   4       8.047  20.174  28.261  1.00  9.08 LIG-0.35  N 
ATOM     27 H    ALA C   4       7.668  20.585  27.607  1.00  9.08 LIG 0.16  HD
ATOM     28 O    ALA C   3       9.376  20.174  30.081  1.00  9.90 LIG-0.27  OA
BRANCH 26 29
ATOM     29  CA  ALA C   4       7.916  18.718  28.214  1.00  9.70 LIG 0.18  C 
ATOM     30  CB  ALA C   4       6.707  18.278  29.008  1.00  9.53 LIG 0.04  C 
BRANCH 29 31
ATOM     31  C   ALA C   4       7.838  18.153  26.808  1.00 11.00 LIG 0.28  C 
ATOM     32  N   NH2 C   5       8.620  17.118  26.530  1.00 10.22 LIG-0.11  N 
ATOM     33 O    ALA C   4       7.100  18.676  25.985  1.00 13.70 LIG-0.27  OA
ENDBRANCH 29 31
ENDBRANCH 26 29
ENDBRANCH 23 25
ENDBRANCH 20 23
ENDBRANCH 1 19
BRANCH 1 34
ATOM     34  CB  HIS C   2      12.227  24.240  27.760  1.00 12.23 LIG 0.10  C 
BRANCH 34 35
ATOM     35  CG  HIS C   2      12.310  23.934  29.217  1.00 15.24 LIG 0.06  A 
ATOM     36 ND1  HIS C   2      12.170  22.657  29.716  1.00 17.16 LIG-0.24  NA
ATOM     37  CE1 HIS C   2      12.288  22.686  31.031  1.00 17.55 LIG 0.23  A 
ATOM     38 NE2  HIS C   2      12.500  23.936  31.403  1.00 18.01 LIG-0.25  NA
ATOM     39  CD2 HIS C   2      12.520  24.735  30.287  1.00 16.53 LIG 0.14  A 
ENDBRANCH 34 35
ENDBRANCH 1 34
TORSDOF 12
ENDMDL
MODEL 89
USER: ADFR SOLUTION from run 192
USER: SCORE 11.584489 LL:  -2.868 LR:  -9.523 RR:   0.000 FEB:  -5.943
USER: RMSD 6.975778
USER: SEED 191
USER: STATUS no improvement in best in 3 clusters for 5 generations
USER: GENES 14
USER: genes 0 Translation |==|  0.19008 0.60448 0.36542
USER: genes 1 Rotation |==|  0.69465 0.21911 0.44939 0.86146
USER: genes 2 Torsion [CB]-CA--N-[C] |==|  0.86613
USER: genes 3 Torsion [N]-C--CA-[N] |==|  0.45993
USER: genes 4 Torsion [C]-CA--CB-[CG] |==|  0.26263
USER: genes 5 Torsion [CA]-CB--CG-[CD1] |==|  0.59427
USER: genes 6 Torsion [C]-CA--N-[C] |==|  0.81623
USER: genes 7 Torsion [N]-CA--C-[N] |==|  0.37669
USER: genes 8 Torsion [C]-N--CA-[CB] |==|  0.84343
USER: genes 9 Torsion [N]-CA--C-[N] |==|  1.00000
USER: genes 10 Torsion [C]-N--CA-[C] |==|  0.15507
USER: genes 11 Torsion [N]-CA--C-[N] |==|  0.13811
USER: genes 12 Torsion [N]-CA--CB-[CG] |==|  0.52384
USER: genes 13 Torsion [CA]-CB--CG-[CD2] |==|  0.54621
ROOT
ATOM      1  CA  HIS C   2       7.420  23.882  28.237  1.00 10.06 LIG 0.18  C 
ENDROOT
BRANCH 1 2
ATOM      2  N   HIS C   2       8.109  22.604  28.414  1.00  9.48 LIG-0.35  N 
ATOM      3 H    HIS C   2       8.023  22.065  27.749  1.00  9.48 LIG 0.16  HD
ATOM      4  C   PHE C   1       8.802  22.313  29.507  1.00  9.37 LIG 0.24  C 
ATOM      5 O    PHE C   1       8.991  23.112  30.418  1.00 11.27 LIG-0.27  OA
BRANCH 4 6
ATOM      6  CA  PHE C   1       9.341  20.902  29.590  1.00  8.68 LIG 0.18  C 
BRANCH 6 7
ATOM      7  CB  PHE C   1       8.175  19.952  29.859  1.00  8.30 LIG 0.07  C 
BRANCH 7 8
ATOM      8  CG  PHE C   1       7.596  19.341  28.617  1.00  6.80 LIG-0.06  A 
ATOM      9  CD1 PHE C   1       6.237  19.066  28.528  1.00  6.68 LIG 0.01  A 
ATOM     10  CE1 PHE C   1       5.708  18.515  27.377  1.00  6.85 LIG 0.00  A 
ATOM     11  CZ  PHE C   1       6.528  18.218  26.311  1.00  6.56 LIG 0.00  A 
ATOM     12  CE2 PHE C   1       7.883  18.482  26.383  1.00  6.82 LIG 0.00  A 
ATOM     13  CD2 PHE C   1       8.410  19.045  27.534  1.00  7.43 LIG 0.01  A 
ENDBRANCH 7 8
ENDBRANCH 6 7
BRANCH 6 14
ATOM     14  N   PHE C   1      10.356  20.783  30.641  1.00  9.64 LIG-0.35  N 
ATOM     15 H    PHE C   1      10.128  20.281  31.301  1.00  9.64 LIG 0.16  HD
ATOM     16  C   ACE C   0      11.523  21.412  30.554  1.00 12.10 LIG 0.21  C 
ATOM     17  CH3 ACE C   0      12.445  21.263  31.729  1.00 13.09 LIG 0.12  C 
ATOM     18 O    ACE C   0      11.825  22.095  29.575  1.00 13.69 LIG-0.27  OA
ENDBRANCH 6 14
ENDBRANCH 4 6
ENDBRANCH 1 2
BRANCH 1 19
ATOM     19  C   HIS C   2       8.446  24.978  28.039  1.00  9.05 LIG 0.24  C 
ATOM     20  N   ALA C   3       8.207  25.853  27.074  1.00  9.24 LIG-0.35  N 
ATOM     21 H    ALA C   3       7.556  25.799  26.514  1.00  9.24 LIG 0.16  HD
ATOM     22 O    HIS C   2       9.422  25.059  28.775  1.00  8.29 LIG-0.27  OA
BRANCH 20 23
ATOM     23  CA  ALA C   3       9.076  27.014  26.899  1.00  8.91 LIG 0.17  C 
ATOM     24  CB  ALA C   3       9.148  27.826  28.181  1.00  9.99 LIG 0.04  C 
BRANCH 23 25
ATOM     25  C   ALA C   3      10.478  26.564  26.482  1.00  9.36 LIG 0.24  C 
ATOM     26  N   ALA C   4      10.660  25.254  26.355  1.00  9.08 LIG-0.35  N 
ATOM     27 H    ALA C   4      10.025  24.676  26.395  1.00  9.08 LIG 0.16  HD
ATOM     28 O    ALA C   3      11.372  27.391  26.257  1.00  9.90 LIG-0.27  OA
BRANCH 26 29
ATOM     29  CA  ALA C   4      11.986  24.681  26.130  1.00  9.70 LIG 0.18  C 
ATOM     30  CB  ALA C   4      12.495  25.069  24.760  1.00  9.53 LIG 0.04  C 
BRANCH 29 31
ATOM     31  C   ALA C   4      13.009  25.066  27.183  1.00 11.00 LIG 0.28  C 
ATOM     32  N   NH2 C   5      12.655  24.909  28.451  1.00 10.22 LIG-0.11  N 
ATOM     33 O    ALA C   4      14.087  25.529  26.839  1.00 13.70 LIG-0.27  OA
ENDBRANCH 29 31
ENDBRANCH 26 29
ENDBRANCH 23 25
ENDBRANCH 20 23
ENDBRANCH 1 19
BRANCH 1 34
ATOM     34  CB  HIS C   2       6.586  24.242  29.472  1.00 12.23 LIG 0.10  C 
BRANCH 34 35
ATOM     35  CG  HIS C   2       5.700  25.426  29.287  1.00 15.24 LIG 0.06  A 
ATOM     36 ND1  HIS C   2       5.381  25.926  28.045  1.00 17.16 LIG-0.24  NA
ATOM     37  CE1 HIS C   2       4.585  26.972  28.185  1.00 17.55 LIG 0.23  A 
ATOM     38 NE2  HIS C   2       4.377  27.167  29.475  1.00 18.01 LIG-0.25  NA
ATOM     39  CD2 HIS C   2       5.062  26.213  30.185  1.00 16.53 LIG 0.14  A 
ENDBRANCH 34 35
ENDBRANCH 1 34
TORSDOF 12
ENDMDL
MODEL 90
USER: ADFR SOLUTION from run 108
USER: SCORE 10.231142 LL:  -2.896 LR:  -9.510 RR:   0.000 FEB:  -5.931
USER: RMSD 8.956053
USER: SEED 107
USER: STATUS no improvement in best in 28 clusters for 5 generations
USER: GENES 14
USER: genes 0 Translation |==|  0.59300 0.33363 0.48163
USER: genes 1 Rotation |==|  0.09499 0.21222 0.53529 0.54366
USER: genes 2 Torsion [CB]-CA--N-[C] |==|  0.49203
USER: genes 3 Torsion [N]-C--CA-[N] |==|  0.88416
USER: genes 4 Torsion [C]-CA--CB-[CG] |==|  0.18569
USER: genes 5 Torsion [CA]-CB--CG-[CD1] |==|  0.05709
USER: genes 6 Torsion [C]-CA--N-[C] |==|  0.77909
USER: genes 7 Torsion [N]-CA--C-[N] |==|  0.85852
USER: genes 8 Torsion [C]-N--CA-[CB] |==|  0.15001
USER: genes 9 Torsion [N]-CA--C-[N] |==|  0.58149
USER: genes 10 Torsion [C]-N--CA-[C] |==|  0.82380
USER: genes 11 Torsion [N]-CA--C-[N] |==|  0.41567
USER: genes 12 Torsion [N]-CA--CB-[CG] |==|  0.46900
USER: genes 13 Torsion [CA]-CB--CG-[CD2] |==|  0.79556
ROOT
ATOM      1  CA  HIS C   2      14.069  18.194  30.503  1.00 10.06 LIG 0.18  C 
ENDROOT
BRANCH 1 2
ATOM      2  N   HIS C   2      13.571  19.551  30.725  1.00  9.48 LIG-0.35  N 
ATOM      3 H    HIS C   2      14.034  20.162  30.336  1.00  9.48 LIG 0.16  HD
ATOM      4  C   PHE C   1      12.498  19.805  31.463  1.00  9.37 LIG 0.24  C 
ATOM      5 O    PHE C   1      11.792  18.929  31.950  1.00 11.27 LIG-0.27  OA
BRANCH 4 6
ATOM      6  CA  PHE C   1      12.194  21.268  31.704  1.00  8.68 LIG 0.18  C 
BRANCH 6 7
ATOM      7  CB  PHE C   1      11.489  21.826  30.468  1.00  8.30 LIG 0.07  C 
BRANCH 7 8
ATOM      8  CG  PHE C   1      10.124  21.248  30.239  1.00  6.80 LIG-0.06  A 
ATOM      9  CD1 PHE C   1       9.426  20.644  31.276  1.00  6.68 LIG 0.01  A 
ATOM     10  CE1 PHE C   1       8.163  20.124  31.061  1.00  6.85 LIG 0.00  A 
ATOM     11  CZ  PHE C   1       7.592  20.187  29.810  1.00  6.56 LIG 0.00  A 
ATOM     12  CE2 PHE C   1       8.274  20.782  28.765  1.00  6.82 LIG 0.00  A 
ATOM     13  CD2 PHE C   1       9.534  21.312  28.985  1.00  7.43 LIG 0.01  A 
ENDBRANCH 7 8
ENDBRANCH 6 7
BRANCH 6 14
ATOM     14  N   PHE C   1      13.417  22.025  31.986  1.00  9.64 LIG-0.35  N 
ATOM     15 H    PHE C   1      13.723  22.469  31.316  1.00  9.64 LIG 0.16  HD
ATOM     16  C   ACE C   0      13.983  22.006  33.188  1.00 12.10 LIG 0.21  C 
ATOM     17  CH3 ACE C   0      15.269  22.768  33.326  1.00 13.09 LIG 0.12  C 
ATOM     18 O    ACE C   0      13.493  21.385  34.131  1.00 13.69 LIG-0.27  OA
ENDBRANCH 6 14
ENDBRANCH 4 6
ENDBRANCH 1 2
BRANCH 1 19
ATOM     19  C   HIS C   2      14.518  17.606  31.823  1.00  9.05 LIG 0.24  C 
ATOM     20  N   ALA C   3      15.348  18.338  32.552  1.00  9.24 LIG-0.35  N 
ATOM     21 H    ALA C   3      15.700  19.080  32.296  1.00  9.24 LIG 0.16  HD
ATOM     22 O    HIS C   2      14.089  16.522  32.201  1.00  8.29 LIG-0.27  OA
BRANCH 20 23
ATOM     23  CA  ALA C   3      15.729  17.905  33.893  1.00  8.91 LIG 0.17  C 
ATOM     24  CB  ALA C   3      16.283  16.490  33.861  1.00  9.99 LIG 0.04  C 
BRANCH 23 25
ATOM     25  C   ALA C   3      16.767  18.863  34.482  1.00  9.36 LIG 0.24  C 
ATOM     26  N   ALA C   4      17.623  18.338  35.351  1.00  9.08 LIG-0.35  N 
ATOM     27 H    ALA C   4      17.685  17.496  35.515  1.00  9.08 LIG 0.16  HD
ATOM     28 O    ALA C   3      16.804  20.052  34.136  1.00  9.90 LIG-0.27  OA
BRANCH 26 29
ATOM     29  CA  ALA C   4      18.552  19.171  36.113  1.00  9.70 LIG 0.18  C 
ATOM     30  CB  ALA C   4      19.277  18.335  37.142  1.00  9.53 LIG 0.04  C 
BRANCH 29 31
ATOM     31  C   ALA C   4      19.559  19.914  35.255  1.00 11.00 LIG 0.28  C 
ATOM     32  N   NH2 C   5      19.990  21.083  35.707  1.00 10.22 LIG-0.11  N 
ATOM     33 O    ALA C   4      19.908  19.439  34.184  1.00 13.70 LIG-0.27  OA
ENDBRANCH 29 31
ENDBRANCH 26 29
ENDBRANCH 23 25
ENDBRANCH 20 23
ENDBRANCH 1 19
BRANCH 1 34
ATOM     34  CB  HIS C   2      15.275  18.192  29.556  1.00 12.23 LIG 0.10  C 
BRANCH 34 35
ATOM     35  CG  HIS C   2      15.996  16.888  29.489  1.00 15.24 LIG 0.06  A 
ATOM     36 ND1  HIS C   2      15.909  16.048  28.401  1.00 17.16 LIG-0.24  NA
ATOM     37  CE1 HIS C   2      16.646  14.973  28.618  1.00 17.55 LIG 0.23  A 
ATOM     38 NE2  HIS C   2      17.208  15.087  29.808  1.00 18.01 LIG-0.25  NA
ATOM     39  CD2 HIS C   2      16.819  16.276  30.372  1.00 16.53 LIG 0.14  A 
ENDBRANCH 34 35
ENDBRANCH 1 34
TORSDOF 12
ENDMDL
MODEL 91
USER: ADFR SOLUTION from run 89
USER: SCORE 10.829211 LL:  -2.795 LR:  -9.514 RR:   0.000 FEB:  -5.935
USER: RMSD 8.462120
USER: SEED 88
USER: STATUS no improvement in best in 18 clusters for 5 generations
USER: GENES 14
USER: genes 0 Translation |==|  0.45351 0.53705 0.44333
USER: genes 1 Rotation |==|  0.52974 0.97214 0.66132 0.51301
USER: genes 2 Torsion [CB]-CA--N-[C] |==|  0.78792
USER: genes 3 Torsion [N]-C--CA-[N] |==|  0.72891
USER: genes 4 Torsion [C]-CA--CB-[CG] |==|  0.41570
USER: genes 5 Torsion [CA]-CB--CG-[CD1] |==|  0.56178
USER: genes 6 Torsion [C]-CA--N-[C] |==|  0.75556
USER: genes 7 Torsion [N]-CA--C-[N] |==|  0.19827
USER: genes 8 Torsion [C]-N--CA-[CB] |==|  0.18251
USER: genes 9 Torsion [N]-CA--C-[N] |==|  0.12475
USER: genes 10 Torsion [C]-N--CA-[C] |==|  0.83063
USER: genes 11 Torsion [N]-CA--C-[N] |==|  0.40052
USER: genes 12 Torsion [N]-CA--CB-[CG] |==|  0.96628
USER: genes 13 Torsion [CA]-CB--CG-[CD2] |==|  0.32510
ROOT
ATOM      1  CA  HIS C   2      11.767  22.466  29.756  1.00 10.06 LIG 0.18  C 
ENDROOT
BRANCH 1 2
ATOM      2  N   HIS C   2      10.568  21.852  29.187  1.00  9.48 LIG-0.35  N 
ATOM      3 H    HIS C   2      10.615  21.710  28.340  1.00  9.48 LIG 0.16  HD
ATOM      4  C   PHE C   1       9.507  21.545  29.922  1.00  9.37 LIG 0.24  C 
ATOM      5 O    PHE C   1       9.471  21.672  31.142  1.00 11.27 LIG-0.27  OA
BRANCH 4 6
ATOM      6  CA  PHE C   1       8.301  21.039  29.161  1.00  8.68 LIG 0.18  C 
BRANCH 6 7
ATOM      7  CB  PHE C   1       8.777  20.444  27.837  1.00  8.30 LIG 0.07  C 
BRANCH 7 8
ATOM      8  CG  PHE C   1       7.914  19.326  27.332  1.00  6.80 LIG-0.06  A 
ATOM      9  CD1 PHE C   1       8.415  18.391  26.437  1.00  6.68 LIG 0.01  A 
ATOM     10  CE1 PHE C   1       7.618  17.356  25.985  1.00  6.85 LIG 0.00  A 
ATOM     11  CZ  PHE C   1       6.312  17.252  26.409  1.00  6.56 LIG 0.00  A 
ATOM     12  CE2 PHE C   1       5.795  18.176  27.298  1.00  6.82 LIG 0.00  A 
ATOM     13  CD2 PHE C   1       6.599  19.206  27.758  1.00  7.43 LIG 0.01  A 
ENDBRANCH 7 8
ENDBRANCH 6 7
BRANCH 6 14
ATOM     14  N   PHE C   1       7.334  22.115  28.926  1.00  9.64 LIG-0.35  N 
ATOM     15 H    PHE C   1       7.437  22.530  28.179  1.00  9.64 LIG 0.16  HD
ATOM     16  C   ACE C   0       6.386  22.403  29.811  1.00 12.10 LIG 0.21  C 
ATOM     17  CH3 ACE C   0       5.503  23.572  29.480  1.00 13.09 LIG 0.12  C 
ATOM     18 O    ACE C   0       6.249  21.761  30.853  1.00 13.69 LIG-0.27  OA
ENDBRANCH 6 14
ENDBRANCH 4 6
ENDBRANCH 1 2
BRANCH 1 19
ATOM     19  C   HIS C   2      12.096  21.793  31.072  1.00  9.05 LIG 0.24  C 
ATOM     20  N   ALA C   3      12.565  20.555  31.009  1.00  9.24 LIG-0.35  N 
ATOM     21 H    ALA C   3      12.625  20.091  30.287  1.00  9.24 LIG 0.16  HD
ATOM     22 O    HIS C   2      11.968  22.396  32.130  1.00  8.29 LIG-0.27  OA
BRANCH 20 23
ATOM     23  CA  ALA C   3      13.027  19.880  32.218  1.00  8.91 LIG 0.17  C 
ATOM     24  CB  ALA C   3      11.871  19.645  33.175  1.00  9.99 LIG 0.04  C 
BRANCH 23 25
ATOM     25  C   ALA C   3      13.691  18.549  31.858  1.00  9.36 LIG 0.24  C 
ATOM     26  N   ALA C   4      14.538  18.574  30.835  1.00  9.08 LIG-0.35  N 
ATOM     27 H    ALA C   4      14.798  19.296  30.445  1.00  9.08 LIG 0.16  HD
ATOM     28 O    ALA C   3      13.456  17.523  32.511  1.00  9.90 LIG-0.27  OA
BRANCH 26 29
ATOM     29  CA  ALA C   4      15.108  17.348  30.279  1.00  9.70 LIG 0.18  C 
ATOM     30  CB  ALA C   4      15.941  17.668  29.060  1.00  9.53 LIG 0.04  C 
BRANCH 29 31
ATOM     31  C   ALA C   4      15.936  16.551  31.270  1.00 11.00 LIG 0.28  C 
ATOM     32  N   NH2 C   5      15.877  15.230  31.179  1.00 10.22 LIG-0.11  N 
ATOM     33 O    ALA C   4      16.589  17.137  32.122  1.00 13.70 LIG-0.27  OA
ENDBRANCH 29 31
ENDBRANCH 26 29
ENDBRANCH 23 25
ENDBRANCH 20 23
ENDBRANCH 1 19
BRANCH 1 34
ATOM     34  CB  HIS C   2      11.549  23.958  30.037  1.00 12.23 LIG 0.10  C 
BRANCH 34 35
ATOM     35  CG  HIS C   2      10.310  24.520  29.426  1.00 15.24 LIG 0.06  A 
ATOM     36 ND1  HIS C   2      10.109  24.563  28.064  1.00 17.16 LIG-0.24  NA
ATOM     37  CE1 HIS C   2       8.933  25.110  27.813  1.00 17.55 LIG 0.23  A 
ATOM     38 NE2  HIS C   2       8.365  25.422  28.963  1.00 18.01 LIG-0.25  NA
ATOM     39  CD2 HIS C   2       9.204  25.062  29.988  1.00 16.53 LIG 0.14  A 
ENDBRANCH 34 35
ENDBRANCH 1 34
TORSDOF 12
ENDMDL
MODEL 92
USER: ADFR SOLUTION from run 153
USER: SCORE 10.644441 LL:  -3.140 LR:  -9.507 RR:   0.000 FEB:  -5.928
USER: RMSD 9.221902
USER: SEED 152
USER: STATUS no improvement in best in 18 clusters for 5 generations
USER: GENES 14
USER: genes 0 Translation |==|  0.61339 0.32844 0.48342
USER: genes 1 Rotation |==|  0.09230 0.21929 0.52935 0.56422
USER: genes 2 Torsion [CB]-CA--N-[C] |==|  0.42902
USER: genes 3 Torsion [N]-C--CA-[N] |==|  0.90709
USER: genes 4 Torsion [C]-CA--CB-[CG] |==|  0.21818
USER: genes 5 Torsion [CA]-CB--CG-[CD1] |==|  0.49600
USER: genes 6 Torsion [C]-CA--N-[C] |==|  0.80399
USER: genes 7 Torsion [N]-CA--C-[N] |==|  0.91834
USER: genes 8 Torsion [C]-N--CA-[CB] |==|  0.50592
USER: genes 9 Torsion [N]-CA--C-[N] |==|  0.38333
USER: genes 10 Torsion [C]-N--CA-[C] |==|  0.14181
USER: genes 11 Torsion [N]-CA--C-[N] |==|  0.08457
USER: genes 12 Torsion [N]-CA--CB-[CG] |==|  0.47386
USER: genes 13 Torsion [CA]-CB--CG-[CD2] |==|  0.77610
ROOT
ATOM      1  CA  HIS C   2      14.405  18.085  30.538  1.00 10.06 LIG 0.18  C 
ENDROOT
BRANCH 1 2
ATOM      2  N   HIS C   2      13.965  19.438  30.879  1.00  9.48 LIG-0.35  N 
ATOM      3 H    HIS C   2      14.579  20.036  30.799  1.00  9.48 LIG 0.16  HD
ATOM      4  C   PHE C   1      12.729  19.707  31.275  1.00  9.37 LIG 0.24  C 
ATOM      5 O    PHE C   1      11.834  18.869  31.311  1.00 11.27 LIG-0.27  OA
BRANCH 4 6
ATOM      6  CA  PHE C   1      12.473  21.132  31.717  1.00  8.68 LIG 0.18  C 
BRANCH 6 7
ATOM      7  CB  PHE C   1      12.071  21.954  30.494  1.00  8.30 LIG 0.07  C 
BRANCH 7 8
ATOM      8  CG  PHE C   1      10.644  21.756  30.076  1.00  6.80 LIG-0.06  A 
ATOM      9  CD1 PHE C   1      10.117  22.456  28.999  1.00  6.68 LIG 0.01  A 
ATOM     10  CE1 PHE C   1       8.805  22.260  28.611  1.00  6.85 LIG 0.00  A 
ATOM     11  CZ  PHE C   1       8.003  21.378  29.300  1.00  6.56 LIG 0.00  A 
ATOM     12  CE2 PHE C   1       8.510  20.675  30.377  1.00  6.82 LIG 0.00  A 
ATOM     13  CD2 PHE C   1       9.828  20.865  30.758  1.00  7.43 LIG 0.01  A 
ENDBRANCH 7 8
ENDBRANCH 6 7
BRANCH 6 14
ATOM     14  N   PHE C   1      13.656  21.708  32.361  1.00  9.64 LIG-0.35  N 
ATOM     15 H    PHE C   1      14.051  22.317  31.900  1.00  9.64 LIG 0.16  HD
ATOM     16  C   ACE C   0      14.062  21.302  33.559  1.00 12.10 LIG 0.21  C 
ATOM     17  CH3 ACE C   0      15.327  21.924  34.076  1.00 13.09 LIG 0.12  C 
ATOM     18 O    ACE C   0      13.448  20.452  34.203  1.00 13.69 LIG-0.27  OA
ENDBRANCH 6 14
ENDBRANCH 4 6
ENDBRANCH 1 2
BRANCH 1 19
ATOM     19  C   HIS C   2      14.869  17.380  31.794  1.00  9.05 LIG 0.24  C 
ATOM     20  N   ALA C   3      15.373  18.141  32.755  1.00  9.24 LIG-0.35  N 
ATOM     21 H    ALA C   3      15.519  18.986  32.684  1.00  9.24 LIG 0.16  HD
ATOM     22 O    HIS C   2      14.736  16.168  31.915  1.00  8.29 LIG-0.27  OA
BRANCH 20 23
ATOM     23  CA  ALA C   3      15.725  17.560  34.048  1.00  8.91 LIG 0.17  C 
ATOM     24  CB  ALA C   3      16.231  18.633  34.996  1.00  9.99 LIG 0.04  C 
BRANCH 23 25
ATOM     25  C   ALA C   3      14.512  16.850  34.654  1.00  9.36 LIG 0.24  C 
ATOM     26  N   ALA C   4      14.747  15.677  35.229  1.00  9.08 LIG-0.35  N 
ATOM     27 H    ALA C   4      15.534  15.356  35.362  1.00  9.08 LIG 0.16  HD
ATOM     28 O    ALA C   3      13.388  17.369  34.620  1.00  9.90 LIG-0.27  OA
BRANCH 26 29
ATOM     29  CA  ALA C   4      13.659  14.818  35.694  1.00  9.70 LIG 0.18  C 
ATOM     30  CB  ALA C   4      13.031  15.401  36.939  1.00  9.53 LIG 0.04  C 
BRANCH 29 31
ATOM     31  C   ALA C   4      12.586  14.566  34.651  1.00 11.00 LIG 0.28  C 
ATOM     32  N   NH2 C   5      12.969  14.563  33.382  1.00 10.22 LIG-0.11  N 
ATOM     33 O    ALA C   4      11.425  14.411  35.002  1.00 13.70 LIG-0.27  OA
ENDBRANCH 29 31
ENDBRANCH 26 29
ENDBRANCH 23 25
ENDBRANCH 20 23
ENDBRANCH 1 19
BRANCH 1 34
ATOM     34  CB  HIS C   2      15.583  18.113  29.557  1.00 12.23 LIG 0.10  C 
BRANCH 34 35
ATOM     35  CG  HIS C   2      16.226  16.786  29.336  1.00 15.24 LIG 0.06  A 
ATOM     36 ND1  HIS C   2      15.951  16.004  28.236  1.00 17.16 LIG-0.24  NA
ATOM     37  CE1 HIS C   2      16.659  14.890  28.304  1.00 17.55 LIG 0.23  A 
ATOM     38 NE2  HIS C   2      17.383  14.923  29.408  1.00 18.01 LIG-0.25  NA
ATOM     39  CD2 HIS C   2      17.132  16.099  30.070  1.00 16.53 LIG 0.14  A 
ENDBRANCH 34 35
ENDBRANCH 1 34
TORSDOF 12
ENDMDL
MODEL 93
USER: ADFR SOLUTION from run 68
USER: SCORE 11.094502 LL:  -2.559 LR:  -9.505 RR:   0.000 FEB:  -5.925
USER: RMSD 7.182318
USER: SEED 67
USER: STATUS searching
USER: GENES 14
USER: genes 0 Translation |==|  0.48444 0.43990 0.50244
USER: genes 1 Rotation |==|  0.88864 0.56648 0.74800 0.68177
USER: genes 2 Torsion [CB]-CA--N-[C] |==|  0.52222
USER: genes 3 Torsion [N]-C--CA-[N] |==|  0.02020
USER: genes 4 Torsion [C]-CA--CB-[CG] |==|  0.17747
USER: genes 5 Torsion [CA]-CB--CG-[CD1] |==|  0.63281
USER: genes 6 Torsion [C]-CA--N-[C] |==|  0.72012
USER: genes 7 Torsion [N]-CA--C-[N] |==|  0.30466
USER: genes 8 Torsion [C]-N--CA-[CB] |==|  0.18847
USER: genes 9 Torsion [N]-CA--C-[N] |==|  0.10330
USER: genes 10 Torsion [C]-N--CA-[C] |==|  0.82578
USER: genes 11 Torsion [N]-CA--C-[N] |==|  0.40813
USER: genes 12 Torsion [N]-CA--CB-[CG] |==|  0.74214
USER: genes 13 Torsion [CA]-CB--CG-[CD2] |==|  0.42686
ROOT
ATOM      1  CA  HIS C   2      12.277  20.426  30.909  1.00 10.06 LIG 0.18  C 
ENDROOT
BRANCH 1 2
ATOM      2  N   HIS C   2      12.926  21.733  31.009  1.00  9.48 LIG-0.35  N 
ATOM      3 H    HIS C   2      13.598  21.750  31.545  1.00  9.48 LIG 0.16  HD
ATOM      4  C   PHE C   1      12.506  22.792  30.330  1.00  9.37 LIG 0.24  C 
ATOM      5 O    PHE C   1      11.599  22.748  29.506  1.00 11.27 LIG-0.27  OA
BRANCH 4 6
ATOM      6  CA  PHE C   1      13.201  24.098  30.647  1.00  8.68 LIG 0.18  C 
BRANCH 6 7
ATOM      7  CB  PHE C   1      13.659  24.734  29.335  1.00  8.30 LIG 0.07  C 
BRANCH 7 8
ATOM      8  CG  PHE C   1      12.531  25.114  28.423  1.00  6.80 LIG-0.06  A 
ATOM      9  CD1 PHE C   1      12.559  24.770  27.078  1.00  6.68 LIG 0.01  A 
ATOM     10  CE1 PHE C   1      11.510  25.112  26.245  1.00  6.85 LIG 0.00  A 
ATOM     11  CZ  PHE C   1      10.433  25.813  26.740  1.00  6.56 LIG 0.00  A 
ATOM     12  CE2 PHE C   1      10.390  26.167  28.075  1.00  6.82 LIG 0.00  A 
ATOM     13  CD2 PHE C   1      11.436  25.814  28.910  1.00  7.43 LIG 0.01  A 
ENDBRANCH 7 8
ENDBRANCH 6 7
BRANCH 6 14
ATOM     14  N   PHE C   1      14.340  23.888  31.544  1.00  9.64 LIG-0.35  N 
ATOM     15 H    PHE C   1      15.050  23.596  31.156  1.00  9.64 LIG 0.16  HD
ATOM     16  C   ACE C   0      14.254  24.137  32.846  1.00 12.10 LIG 0.21  C 
ATOM     17  CH3 ACE C   0      15.471  23.815  33.665  1.00 13.09 LIG 0.12  C 
ATOM     18 O    ACE C   0      13.230  24.589  33.358  1.00 13.69 LIG-0.27  OA
ENDBRANCH 6 14
ENDBRANCH 4 6
ENDBRANCH 1 2
BRANCH 1 19
ATOM     19  C   HIS C   2      10.797  20.582  31.182  1.00  9.05 LIG 0.24  C 
ATOM     20  N   ALA C   3       9.979  20.426  30.150  1.00  9.24 LIG-0.35  N 
ATOM     21 H    ALA C   3      10.234  20.317  29.336  1.00  9.24 LIG 0.16  HD
ATOM     22 O    HIS C   2      10.391  20.800  32.317  1.00  8.29 LIG-0.27  OA
BRANCH 20 23
ATOM     23  CA  ALA C   3       8.532  20.432  30.349  1.00  8.91 LIG 0.17  C 
ATOM     24  CB  ALA C   3       8.056  21.813  30.767  1.00  9.99 LIG 0.04  C 
BRANCH 23 25
ATOM     25  C   ALA C   3       7.822  19.996  29.066  1.00  9.36 LIG 0.24  C 
ATOM     26  N   ALA C   4       8.417  19.039  28.363  1.00  9.08 LIG-0.35  N 
ATOM     27 H    ALA C   4       9.104  18.599  28.637  1.00  9.08 LIG 0.16  HD
ATOM     28 O    ALA C   3       6.742  20.502  28.733  1.00  9.90 LIG-0.27  OA
BRANCH 26 29
ATOM     29  CA  ALA C   4       7.939  18.649  27.038  1.00  9.70 LIG 0.18  C 
ATOM     30  CB  ALA C   4       8.892  17.657  26.412  1.00  9.53 LIG 0.04  C 
BRANCH 29 31
ATOM     31  C   ALA C   4       6.533  18.079  27.035  1.00 11.00 LIG 0.28  C 
ATOM     32  N   NH2 C   5       5.787  18.321  25.965  1.00 10.22 LIG-0.11  N 
ATOM     33 O    ALA C   4       6.128  17.460  28.008  1.00 13.70 LIG-0.27  OA
ENDBRANCH 29 31
ENDBRANCH 26 29
ENDBRANCH 23 25
ENDBRANCH 20 23
ENDBRANCH 1 19
BRANCH 1 34
ATOM     34  CB  HIS C   2      12.841  19.443  31.942  1.00 12.23 LIG 0.10  C 
BRANCH 34 35
ATOM     35  CG  HIS C   2      13.967  18.605  31.438  1.00 15.24 LIG 0.06  A 
ATOM     36 ND1  HIS C   2      14.124  18.301  30.104  1.00 17.16 LIG-0.24  NA
ATOM     37  CE1 HIS C   2      15.199  17.548  29.952  1.00 17.55 LIG 0.23  A 
ATOM     38 NE2  HIS C   2      15.744  17.354  31.139  1.00 18.01 LIG-0.25  NA
ATOM     39  CD2 HIS C   2      14.993  18.006  32.085  1.00 16.53 LIG 0.14  A 
ENDBRANCH 34 35
ENDBRANCH 1 34
TORSDOF 12
ENDMDL
MODEL 94
USER: ADFR SOLUTION from run 153
USER: SCORE 10.919099 LL:  -3.143 LR:  -9.491 RR:   0.000 FEB:  -5.912
USER: RMSD 4.810804
USER: SEED 152
USER: STATUS no improvement in best in 18 clusters for 5 generations
USER: GENES 14
USER: genes 0 Translation |==|  0.46265 0.48658 0.50057
USER: genes 1 Rotation |==|  0.70121 0.25890 0.53182 0.88778
USER: genes 2 Torsion [CB]-CA--N-[C] |==|  0.88889
USER: genes 3 Torsion [N]-C--CA-[N] |==|  0.56936
USER: genes 4 Torsion [C]-CA--CB-[CG] |==|  0.34093
USER: genes 5 Torsion [CA]-CB--CG-[CD1] |==|  0.26815
USER: genes 6 Torsion [C]-CA--N-[C] |==|  0.58238
USER: genes 7 Torsion [N]-CA--C-[N] |==|  0.87422
USER: genes 8 Torsion [C]-N--CA-[CB] |==|  0.17876
USER: genes 9 Torsion [N]-CA--C-[N] |==|  0.08158
USER: genes 10 Torsion [C]-N--CA-[C] |==|  0.77069
USER: genes 11 Torsion [N]-CA--C-[N] |==|  0.13909
USER: genes 12 Torsion [N]-CA--CB-[CG] |==|  0.41689
USER: genes 13 Torsion [CA]-CB--CG-[CD2] |==|  0.21861
ROOT
ATOM      1  CA  HIS C   2      11.918  21.406  30.872  1.00 10.06 LIG 0.18  C 
ENDROOT
BRANCH 1 2
ATOM      2  N   HIS C   2      12.985  20.471  31.226  1.00  9.48 LIG-0.35  N 
ATOM      3 H    HIS C   2      13.145  19.878  30.624  1.00  9.48 LIG 0.16  HD
ATOM      4  C   PHE C   1      13.641  20.541  32.377  1.00  9.37 LIG 0.24  C 
ATOM      5 O    PHE C   1      13.468  21.434  33.199  1.00 11.27 LIG-0.27  OA
BRANCH 4 6
ATOM      6  CA  PHE C   1      14.623  19.421  32.646  1.00  8.68 LIG 0.18  C 
BRANCH 6 7
ATOM      7  CB  PHE C   1      14.078  18.138  32.019  1.00  8.30 LIG 0.07  C 
BRANCH 7 8
ATOM      8  CG  PHE C   1      15.011  17.507  31.028  1.00  6.80 LIG-0.06  A 
ATOM      9  CD1 PHE C   1      15.857  16.474  31.408  1.00  6.68 LIG 0.01  A 
ATOM     10  CE1 PHE C   1      16.705  15.888  30.487  1.00  6.85 LIG 0.00  A 
ATOM     11  CZ  PHE C   1      16.729  16.336  29.185  1.00  6.56 LIG 0.00  A 
ATOM     12  CE2 PHE C   1      15.896  17.366  28.790  1.00  6.82 LIG 0.00  A 
ATOM     13  CD2 PHE C   1      15.039  17.944  29.712  1.00  7.43 LIG 0.01  A 
ENDBRANCH 7 8
ENDBRANCH 6 7
BRANCH 6 14
ATOM     14  N   PHE C   1      14.841  19.241  34.084  1.00  9.64 LIG-0.35  N 
ATOM     15 H    PHE C   1      14.167  19.452  34.575  1.00  9.64 LIG 0.16  HD
ATOM     16  C   ACE C   0      15.995  18.787  34.560  1.00 12.10 LIG 0.21  C 
ATOM     17  CH3 ACE C   0      16.113  18.715  36.055  1.00 13.09 LIG 0.12  C 
ATOM     18 O    ACE C   0      16.924  18.463  33.820  1.00 13.69 LIG-0.27  OA
ENDBRANCH 6 14
ENDBRANCH 4 6
ENDBRANCH 1 2
BRANCH 1 19
ATOM     19  C   HIS C   2      12.531  22.709  30.405  1.00  9.05 LIG 0.24  C 
ATOM     20  N   ALA C   3      13.524  23.197  31.135  1.00  9.24 LIG-0.35  N 
ATOM     21 H    ALA C   3      13.790  22.867  31.883  1.00  9.24 LIG 0.16  HD
ATOM     22 O    HIS C   2      12.142  23.248  29.376  1.00  8.29 LIG-0.27  OA
BRANCH 20 23
ATOM     23  CA  ALA C   3      14.256  24.379  30.686  1.00  8.91 LIG 0.17  C 
ATOM     24  CB  ALA C   3      13.341  25.591  30.646  1.00  9.99 LIG 0.04  C 
BRANCH 23 25
ATOM     25  C   ALA C   3      15.444  24.646  31.614  1.00  9.36 LIG 0.24  C 
ATOM     26  N   ALA C   4      15.978  23.583  32.203  1.00  9.08 LIG-0.35  N 
ATOM     27 H    ALA C   4      15.762  22.772  32.017  1.00  9.08 LIG 0.16  HD
ATOM     28 O    ALA C   3      15.881  25.794  31.773  1.00  9.90 LIG-0.27  OA
BRANCH 26 29
ATOM     29  CA  ALA C   4      17.001  23.713  33.239  1.00  9.70 LIG 0.18  C 
ATOM     30  CB  ALA C   4      16.970  22.510  34.155  1.00  9.53 LIG 0.04  C 
BRANCH 29 31
ATOM     31  C   ALA C   4      18.405  23.905  32.696  1.00 11.00 LIG 0.28  C 
ATOM     32  N   NH2 C   5      18.572  24.849  31.780  1.00 10.22 LIG-0.11  N 
ATOM     33 O    ALA C   4      19.310  23.180  33.086  1.00 13.70 LIG-0.27  OA
ENDBRANCH 29 31
ENDBRANCH 26 29
ENDBRANCH 23 25
ENDBRANCH 20 23
ENDBRANCH 1 19
BRANCH 1 34
ATOM     34  CB  HIS C   2      11.026  21.717  32.081  1.00 12.23 LIG 0.10  C 
BRANCH 34 35
ATOM     35  CG  HIS C   2      10.417  23.078  32.056  1.00 15.24 LIG 0.06  A 
ATOM     36 ND1  HIS C   2      10.914  24.126  32.800  1.00 17.16 LIG-0.24  NA
ATOM     37  CE1 HIS C   2      10.180  25.203  32.582  1.00 17.55 LIG 0.23  A 
ATOM     38 NE2  HIS C   2       9.226  24.890  31.724  1.00 18.01 LIG-0.25  NA
ATOM     39  CD2 HIS C   2       9.353  23.568  31.378  1.00 16.53 LIG 0.14  A 
ENDBRANCH 34 35
ENDBRANCH 1 34
TORSDOF 12
ENDMDL
MODEL 95
USER: ADFR SOLUTION from run 182
USER: SCORE 11.625760 LL:  -2.894 LR:  -9.481 RR:   0.000 FEB:  -5.901
USER: RMSD 7.988336
USER: SEED 181
USER: STATUS no improvement in best in 27 clusters for 5 generations
USER: GENES 14
USER: genes 0 Translation |==|  0.45455 0.51249 0.50160
USER: genes 1 Rotation |==|  0.11991 0.55751 0.74504 0.70538
USER: genes 2 Torsion [CB]-CA--N-[C] |==|  0.21041
USER: genes 3 Torsion [N]-C--CA-[N] |==|  0.39874
USER: genes 4 Torsion [C]-CA--CB-[CG] |==|  0.24146
USER: genes 5 Torsion [CA]-CB--CG-[CD1] |==|  0.76227
USER: genes 6 Torsion [C]-CA--N-[C] |==|  0.84444
USER: genes 7 Torsion [N]-CA--C-[N] |==|  0.06045
USER: genes 8 Torsion [C]-N--CA-[CB] |==|  0.86089
USER: genes 9 Torsion [N]-CA--C-[N] |==|  0.34532
USER: genes 10 Torsion [C]-N--CA-[C] |==|  0.55239
USER: genes 11 Torsion [N]-CA--C-[N] |==|  0.42095
USER: genes 12 Torsion [N]-CA--CB-[CG] |==|  0.76348
USER: genes 13 Torsion [CA]-CB--CG-[CD2] |==|  0.85070
ROOT
ATOM      1  CA  HIS C   2      11.784  21.950  30.892  1.00 10.06 LIG 0.18  C 
ENDROOT
BRANCH 1 2
ATOM      2  N   HIS C   2      12.898  22.785  30.444  1.00  9.48 LIG-0.35  N 
ATOM      3 H    HIS C   2      13.631  22.352  30.317  1.00  9.48 LIG 0.16  HD
ATOM      4  C   PHE C   1      12.779  24.092  30.254  1.00  9.37 LIG 0.24  C 
ATOM      5 O    PHE C   1      11.715  24.694  30.357  1.00 11.27 LIG-0.27  OA
BRANCH 4 6
ATOM      6  CA  PHE C   1      14.057  24.830  29.919  1.00  8.68 LIG 0.18  C 
BRANCH 6 7
ATOM      7  CB  PHE C   1      14.645  25.392  31.212  1.00  8.30 LIG 0.07  C 
BRANCH 7 8
ATOM      8  CG  PHE C   1      15.536  24.429  31.939  1.00  6.80 LIG-0.06  A 
ATOM      9  CD1 PHE C   1      15.005  23.499  32.822  1.00  6.68 LIG 0.01  A 
ATOM     10  CE1 PHE C   1      15.831  22.606  33.479  1.00  6.85 LIG 0.00  A 
ATOM     11  CZ  PHE C   1      17.192  22.641  33.274  1.00  6.56 LIG 0.00  A 
ATOM     12  CE2 PHE C   1      17.738  23.563  32.400  1.00  6.82 LIG 0.00  A 
ATOM     13  CD2 PHE C   1      16.908  24.449  31.735  1.00  7.43 LIG 0.01  A 
ENDBRANCH 7 8
ENDBRANCH 6 7
BRANCH 6 14
ATOM     14  N   PHE C   1      13.810  25.905  28.954  1.00  9.64 LIG-0.35  N 
ATOM     15 H    PHE C   1      14.065  26.684  29.216  1.00  9.64 LIG 0.16  HD
ATOM     16  C   ACE C   0      13.239  25.666  27.778  1.00 12.10 LIG 0.21  C 
ATOM     17  CH3 ACE C   0      12.980  26.864  26.911  1.00 13.09 LIG 0.12  C 
ATOM     18 O    ACE C   0      12.921  24.530  27.427  1.00 13.69 LIG-0.27  OA
ENDBRANCH 6 14
ENDBRANCH 4 6
ENDBRANCH 1 2
BRANCH 1 19
ATOM     19  C   HIS C   2      12.318  20.610  31.351  1.00  9.05 LIG 0.24  C 
ATOM     20  N   ALA C   3      13.597  20.564  31.699  1.00  9.24 LIG-0.35  N 
ATOM     21 H    ALA C   3      14.151  21.216  31.613  1.00  9.24 LIG 0.16  HD
ATOM     22 O    HIS C   2      11.578  19.638  31.431  1.00  8.29 LIG-0.27  OA
BRANCH 20 23
ATOM     23  CA  ALA C   3      14.160  19.346  32.274  1.00  8.91 LIG 0.17  C 
ATOM     24  CB  ALA C   3      13.294  18.844  33.416  1.00  9.99 LIG 0.04  C 
BRANCH 23 25
ATOM     25  C   ALA C   3      14.289  18.265  31.197  1.00  9.36 LIG 0.24  C 
ATOM     26  N   ALA C   4      15.501  17.748  31.029  1.00  9.08 LIG-0.35  N 
ATOM     27 H    ALA C   4      16.169  17.913  31.545  1.00  9.08 LIG 0.16  HD
ATOM     28 O    ALA C   3      13.303  17.892  30.548  1.00  9.90 LIG-0.27  OA
BRANCH 26 29
ATOM     29  CA  ALA C   4      15.800  16.837  29.926  1.00  9.70 LIG 0.18  C 
ATOM     30  CB  ALA C   4      15.909  17.606  28.630  1.00  9.53 LIG 0.04  C 
BRANCH 29 31
ATOM     31  C   ALA C   4      17.055  16.009  30.135  1.00 11.00 LIG 0.28  C 
ATOM     32  N   NH2 C   5      17.098  14.821  29.546  1.00 10.22 LIG-0.11  N 
ATOM     33 O    ALA C   4      17.949  16.436  30.851  1.00 13.70 LIG-0.27  OA
ENDBRANCH 29 31
ENDBRANCH 26 29
ENDBRANCH 23 25
ENDBRANCH 20 23
ENDBRANCH 1 19
BRANCH 1 34
ATOM     34  CB  HIS C   2      10.790  21.691  29.754  1.00 12.23 LIG 0.10  C 
BRANCH 34 35
ATOM     35  CG  HIS C   2       9.767  22.762  29.580  1.00 15.24 LIG 0.06  A 
ATOM     36 ND1  HIS C   2       9.548  23.389  28.374  1.00 17.16 LIG-0.24  NA
ATOM     37  CE1 HIS C   2       8.591  24.289  28.516  1.00 17.55 LIG 0.23  A 
ATOM     38 NE2  HIS C   2       8.182  24.267  29.772  1.00 18.01 LIG-0.25  NA
ATOM     39  CD2 HIS C   2       8.900  23.319  30.457  1.00 16.53 LIG 0.14  A 
ENDBRANCH 34 35
ENDBRANCH 1 34
TORSDOF 12
ENDMDL
MODEL 96
USER: ADFR SOLUTION from run 58
USER: SCORE 10.928890 LL:  -3.039 LR:  -9.480 RR:   0.000 FEB:  -5.901
USER: RMSD 5.822616
USER: SEED 57
USER: STATUS no improvement in best in 37 clusters for 5 generations
USER: GENES 14
USER: genes 0 Translation |==|  0.46339 0.45054 0.57483
USER: genes 1 Rotation |==|  0.80602 0.24717 0.40301 0.78813
USER: genes 2 Torsion [CB]-CA--N-[C] |==|  0.76290
USER: genes 3 Torsion [N]-C--CA-[N] |==|  0.86111
USER: genes 4 Torsion [C]-CA--CB-[CG] |==|  0.50937
USER: genes 5 Torsion [CA]-CB--CG-[CD1] |==|  0.93459
USER: genes 6 Torsion [C]-CA--N-[C] |==|  0.71286
USER: genes 7 Torsion [N]-CA--C-[N] |==|  0.18353
USER: genes 8 Torsion [C]-N--CA-[CB] |==|  0.82616
USER: genes 9 Torsion [N]-CA--C-[N] |==|  0.21093
USER: genes 10 Torsion [C]-N--CA-[C] |==|  0.63002
USER: genes 11 Torsion [N]-CA--C-[N] |==|  0.53768
USER: genes 12 Torsion [N]-CA--CB-[CG] |==|  0.10684
USER: genes 13 Torsion [CA]-CB--CG-[CD2] |==|  0.24740
ROOT
ATOM      1  CA  HIS C   2      11.930  20.649  32.320  1.00 10.06 LIG 0.18  C 
ENDROOT
BRANCH 1 2
ATOM      2  N   HIS C   2      12.788  19.557  31.861  1.00  9.48 LIG-0.35  N 
ATOM      3 H    HIS C   2      12.467  19.117  31.196  1.00  9.48 LIG 0.16  HD
ATOM      4  C   PHE C   1      13.955  19.281  32.428  1.00  9.37 LIG 0.24  C 
ATOM      5 O    PHE C   1      14.448  19.960  33.322  1.00 11.27 LIG-0.27  OA
BRANCH 4 6
ATOM      6  CA  PHE C   1      14.657  18.039  31.921  1.00  8.68 LIG 0.18  C 
BRANCH 6 7
ATOM      7  CB  PHE C   1      15.186  18.321  30.516  1.00  8.30 LIG 0.07  C 
BRANCH 7 8
ATOM      8  CG  PHE C   1      15.837  17.135  29.868  1.00  6.80 LIG-0.06  A 
ATOM      9  CD1 PHE C   1      16.360  16.104  30.636  1.00  6.68 LIG 0.01  A 
ATOM     10  CE1 PHE C   1      16.948  15.008  30.032  1.00  6.85 LIG 0.00  A 
ATOM     11  CZ  PHE C   1      17.033  14.937  28.659  1.00  6.56 LIG 0.00  A 
ATOM     12  CE2 PHE C   1      16.521  15.957  27.879  1.00  6.82 LIG 0.00  A 
ATOM     13  CD2 PHE C   1      15.923  17.048  28.486  1.00  7.43 LIG 0.01  A 
ENDBRANCH 7 8
ENDBRANCH 6 7
BRANCH 6 14
ATOM     14  N   PHE C   1      13.753  16.886  31.912  1.00  9.64 LIG-0.35  N 
ATOM     15 H    PHE C   1      13.189  16.881  31.262  1.00  9.64 LIG 0.16  HD
ATOM     16  C   ACE C   0      13.822  15.941  32.843  1.00 12.10 LIG 0.21  C 
ATOM     17  CH3 ACE C   0      12.794  14.850  32.758  1.00 13.09 LIG 0.12  C 
ATOM     18 O    ACE C   0      14.667  15.967  33.738  1.00 13.69 LIG-0.27  OA
ENDBRANCH 6 14
ENDBRANCH 4 6
ENDBRANCH 1 2
BRANCH 1 19
ATOM     19  C   HIS C   2      12.795  21.786  32.821  1.00  9.05 LIG 0.24  C 
ATOM     20  N   ALA C   3      13.543  22.409  31.921  1.00  9.24 LIG-0.35  N 
ATOM     21 H    ALA C   3      13.624  22.167  31.100  1.00  9.24 LIG 0.16  HD
ATOM     22 O    HIS C   2      12.759  22.126  33.997  1.00  8.29 LIG-0.27  OA
BRANCH 20 23
ATOM     23  CA  ALA C   3      14.308  23.596  32.294  1.00  8.91 LIG 0.17  C 
ATOM     24  CB  ALA C   3      13.379  24.715  32.731  1.00  9.99 LIG 0.04  C 
BRANCH 23 25
ATOM     25  C   ALA C   3      15.292  23.258  33.417  1.00  9.36 LIG 0.24  C 
ATOM     26  N   ALA C   4      16.379  22.583  33.061  1.00  9.08 LIG-0.35  N 
ATOM     27 H    ALA C   4      16.597  22.421  32.245  1.00  9.08 LIG 0.16  HD
ATOM     28 O    ALA C   3      15.079  23.624  34.580  1.00  9.90 LIG-0.27  OA
BRANCH 26 29
ATOM     29  CA  ALA C   4      17.311  22.050  34.053  1.00  9.70 LIG 0.18  C 
ATOM     30  CB  ALA C   4      17.107  20.561  34.212  1.00  9.53 LIG 0.04  C 
BRANCH 29 31
ATOM     31  C   ALA C   4      18.769  22.336  33.742  1.00 11.00 LIG 0.28  C 
ATOM     32  N   NH2 C   5      19.676  21.659  34.433  1.00 10.22 LIG-0.11  N 
ATOM     33 O    ALA C   4      19.055  23.185  32.910  1.00 13.70 LIG-0.27  OA
ENDBRANCH 29 31
ENDBRANCH 26 29
ENDBRANCH 23 25
ENDBRANCH 20 23
ENDBRANCH 1 19
BRANCH 1 34
ATOM     34  CB  HIS C   2      11.031  20.202  33.479  1.00 12.23 LIG 0.10  C 
BRANCH 34 35
ATOM     35  CG  HIS C   2      11.696  19.284  34.449  1.00 15.24 LIG 0.06  A 
ATOM     36 ND1  HIS C   2      11.662  17.914  34.316  1.00 17.16 LIG-0.24  NA
ATOM     37  CE1 HIS C   2      12.330  17.361  35.312  1.00 17.55 LIG 0.23  A 
ATOM     38 NE2  HIS C   2      12.796  18.324  36.086  1.00 18.01 LIG-0.25  NA
ATOM     39  CD2 HIS C   2      12.415  19.537  35.567  1.00 16.53 LIG 0.14  A 
ENDBRANCH 34 35
ENDBRANCH 1 34
TORSDOF 12
ENDMDL
MODEL 97
USER: ADFR SOLUTION from run 165
USER: SCORE 11.029578 LL:  -2.281 LR:  -9.473 RR:   0.000 FEB:  -5.893
USER: RMSD 6.383242
USER: SEED 164
USER: STATUS searching
USER: GENES 14
USER: genes 0 Translation |==|  0.60818 0.39503 0.61882
USER: genes 1 Rotation |==|  0.71592 0.11424 0.39528 0.70882
USER: genes 2 Torsion [CB]-CA--N-[C] |==|  0.60687
USER: genes 3 Torsion [N]-C--CA-[N] |==|  0.02759
USER: genes 4 Torsion [C]-CA--CB-[CG] |==|  0.81523
USER: genes 5 Torsion [CA]-CB--CG-[CD1] |==|  0.09294
USER: genes 6 Torsion [C]-CA--N-[C] |==|  0.72372
USER: genes 7 Torsion [N]-CA--C-[N] |==|  0.33824
USER: genes 8 Torsion [C]-N--CA-[CB] |==|  0.17825
USER: genes 9 Torsion [N]-CA--C-[N] |==|  0.15534
USER: genes 10 Torsion [C]-N--CA-[C] |==|  0.83333
USER: genes 11 Torsion [N]-CA--C-[N] |==|  0.41825
USER: genes 12 Torsion [N]-CA--CB-[CG] |==|  0.05807
USER: genes 13 Torsion [CA]-CB--CG-[CD2] |==|  0.19752
ROOT
ATOM      1  CA  HIS C   2      14.319  19.484  33.178  1.00 10.06 LIG 0.18  C 
ENDROOT
BRANCH 1 2
ATOM      2  N   HIS C   2      14.496  18.036  33.065  1.00  9.48 LIG-0.35  N 
ATOM      3 H    HIS C   2      13.770  17.607  32.900  1.00  9.48 LIG 0.16  HD
ATOM      4  C   PHE C   1      15.677  17.449  33.206  1.00  9.37 LIG 0.24  C 
ATOM      5 O    PHE C   1      16.724  18.069  33.361  1.00 11.27 LIG-0.27  OA
BRANCH 4 6
ATOM      6  CA  PHE C   1      15.668  15.936  33.193  1.00  8.68 LIG 0.18  C 
BRANCH 6 7
ATOM      7  CB  PHE C   1      16.756  15.453  32.236  1.00  8.30 LIG 0.07  C 
BRANCH 7 8
ATOM      8  CG  PHE C   1      16.492  15.795  30.799  1.00  6.80 LIG-0.06  A 
ATOM      9  CD1 PHE C   1      15.836  16.970  30.458  1.00  6.68 LIG 0.01  A 
ATOM     10  CE1 PHE C   1      15.607  17.285  29.132  1.00  6.85 LIG 0.00  A 
ATOM     11  CZ  PHE C   1      16.015  16.426  28.135  1.00  6.56 LIG 0.00  A 
ATOM     12  CE2 PHE C   1      16.667  15.250  28.457  1.00  6.82 LIG 0.00  A 
ATOM     13  CD2 PHE C   1      16.906  14.942  29.786  1.00  7.43 LIG 0.01  A 
ENDBRANCH 7 8
ENDBRANCH 6 7
BRANCH 6 14
ATOM     14  N   PHE C   1      14.358  15.417  32.789  1.00  9.64 LIG-0.35  N 
ATOM     15 H    PHE C   1      14.222  15.417  31.939  1.00  9.64 LIG 0.16  HD
ATOM     16  C   ACE C   0      13.474  14.990  33.683  1.00 12.10 LIG 0.21  C 
ATOM     17  CH3 ACE C   0      12.145  14.548  33.143  1.00 13.09 LIG 0.12  C 
ATOM     18 O    ACE C   0      13.721  14.974  34.889  1.00 13.69 LIG-0.27  OA
ENDBRANCH 6 14
ENDBRANCH 4 6
ENDBRANCH 1 2
BRANCH 1 19
ATOM     19  C   HIS C   2      15.457  20.063  33.991  1.00  9.05 LIG 0.24  C 
ATOM     20  N   ALA C   3      16.198  20.992  33.404  1.00  9.24 LIG-0.35  N 
ATOM     21 H    ALA C   3      16.122  21.232  32.582  1.00  9.24 LIG 0.16  HD
ATOM     22 O    HIS C   2      15.641  19.707  35.149  1.00  8.29 LIG-0.27  OA
BRANCH 20 23
ATOM     23  CA  ALA C   3      17.233  21.694  34.159  1.00  8.91 LIG 0.17  C 
ATOM     24  CB  ALA C   3      18.319  20.729  34.601  1.00  9.99 LIG 0.04  C 
BRANCH 23 25
ATOM     25  C   ALA C   3      17.837  22.814  33.308  1.00  9.36 LIG 0.24  C 
ATOM     26  N   ALA C   4      16.983  23.708  32.824  1.00  9.08 LIG-0.35  N 
ATOM     27 H    ALA C   4      16.151  23.744  33.042  1.00  9.08 LIG 0.16  HD
ATOM     28 O    ALA C   3      19.058  22.877  33.114  1.00  9.90 LIG-0.27  OA
BRANCH 26 29
ATOM     29  CA  ALA C   4      17.400  24.726  31.861  1.00  9.70 LIG 0.18  C 
ATOM     30  CB  ALA C   4      16.208  25.544  31.420  1.00  9.53 LIG 0.04  C 
BRANCH 29 31
ATOM     31  C   ALA C   4      18.490  25.648  32.375  1.00 11.00 LIG 0.28  C 
ATOM     32  N   NH2 C   5      19.321  26.159  31.476  1.00 10.22 LIG-0.11  N 
ATOM     33 O    ALA C   4      18.589  25.859  33.575  1.00 13.70 LIG-0.27  OA
ENDBRANCH 29 31
ENDBRANCH 26 29
ENDBRANCH 23 25
ENDBRANCH 20 23
ENDBRANCH 1 19
BRANCH 1 34
ATOM     34  CB  HIS C   2      13.009  19.830  33.897  1.00 12.23 LIG 0.10  C 
BRANCH 34 35
ATOM     35  CG  HIS C   2      12.462  18.725  34.736  1.00 15.24 LIG 0.06  A 
ATOM     36 ND1  HIS C   2      11.330  18.022  34.388  1.00 17.16 LIG-0.24  NA
ATOM     37  CE1 HIS C   2      11.082  17.110  35.312  1.00 17.55 LIG 0.23  A 
ATOM     38 NE2  HIS C   2      12.013  17.197  36.244  1.00 18.01 LIG-0.25  NA
ATOM     39  CD2 HIS C   2      12.889  18.199  35.907  1.00 16.53 LIG 0.14  A 
ENDBRANCH 34 35
ENDBRANCH 1 34
TORSDOF 12
ENDMDL
MODEL 98
USER: ADFR SOLUTION from run 88
USER: SCORE 11.123804 LL:  -2.956 LR:  -9.473 RR:   0.000 FEB:  -5.893
USER: RMSD 8.145212
USER: SEED 87
USER: STATUS no improvement in best in 12 clusters for 5 generations
USER: GENES 14
USER: genes 0 Translation |==|  0.63194 0.64149 0.48049
USER: genes 1 Rotation |==|  0.73824 0.77909 0.75297 0.72663
USER: genes 2 Torsion [CB]-CA--N-[C] |==|  0.87570
USER: genes 3 Torsion [N]-C--CA-[N] |==|  0.90669
USER: genes 4 Torsion [C]-CA--CB-[CG] |==|  0.78076
USER: genes 5 Torsion [CA]-CB--CG-[CD1] |==|  0.70471
USER: genes 6 Torsion [C]-CA--N-[C] |==|  0.82786
USER: genes 7 Torsion [N]-CA--C-[N] |==|  0.35915
USER: genes 8 Torsion [C]-N--CA-[CB] |==|  0.22222
USER: genes 9 Torsion [N]-CA--C-[N] |==|  0.07169
USER: genes 10 Torsion [C]-N--CA-[C] |==|  0.16647
USER: genes 11 Torsion [N]-CA--C-[N] |==|  0.20467
USER: genes 12 Torsion [N]-CA--CB-[CG] |==|  0.63325
USER: genes 13 Torsion [CA]-CB--CG-[CD2] |==|  0.27970
ROOT
ATOM      1  CA  HIS C   2      14.711  24.659  30.481  1.00 10.06 LIG 0.18  C 
ENDROOT
BRANCH 1 2
ATOM      2  N   HIS C   2      14.463  25.729  29.514  1.00  9.48 LIG-0.35  N 
ATOM      3 H    HIS C   2      14.661  25.521  28.704  1.00  9.48 LIG 0.16  HD
ATOM      4  C   PHE C   1      13.976  26.911  29.868  1.00  9.37 LIG 0.24  C 
ATOM      5 O    PHE C   1      13.619  27.178  31.010  1.00 11.27 LIG-0.27  OA
BRANCH 4 6
ATOM      6  CA  PHE C   1      13.904  27.950  28.771  1.00  8.68 LIG 0.18  C 
BRANCH 6 7
ATOM      7  CB  PHE C   1      12.563  27.806  28.053  1.00  8.30 LIG 0.07  C 
BRANCH 7 8
ATOM      8  CG  PHE C   1      12.524  26.677  27.067  1.00  6.80 LIG-0.06  A 
ATOM      9  CD1 PHE C   1      12.553  26.927  25.701  1.00  6.68 LIG 0.01  A 
ATOM     10  CE1 PHE C   1      12.529  25.881  24.798  1.00  6.85 LIG 0.00  A 
ATOM     11  CZ  PHE C   1      12.461  24.580  25.245  1.00  6.56 LIG 0.00  A 
ATOM     12  CE2 PHE C   1      12.428  24.314  26.601  1.00  6.82 LIG 0.00  A 
ATOM     13  CD2 PHE C   1      12.463  25.362  27.505  1.00  7.43 LIG 0.01  A 
ENDBRANCH 7 8
ENDBRANCH 6 7
BRANCH 6 14
ATOM     14  N   PHE C   1      15.014  27.801  27.825  1.00  9.64 LIG-0.35  N 
ATOM     15 H    PHE C   1      14.773  27.620  27.019  1.00  9.64 LIG 0.16  HD
ATOM     16  C   ACE C   0      16.278  27.938  28.210  1.00 12.10 LIG 0.21  C 
ATOM     17  CH3 ACE C   0      17.322  27.692  27.160  1.00 13.09 LIG 0.12  C 
ATOM     18 O    ACE C   0      16.580  28.232  29.367  1.00 13.69 LIG-0.27  OA
ENDBRANCH 6 14
ENDBRANCH 4 6
ENDBRANCH 1 2
BRANCH 1 19
ATOM     19  C   HIS C   2      13.389  24.058  30.908  1.00  9.05 LIG 0.24  C 
ATOM     20  N   ALA C   3      13.284  22.739  30.843  1.00  9.24 LIG-0.35  N 
ATOM     21 H    ALA C   3      13.880  22.216  30.511  1.00  9.24 LIG 0.16  HD
ATOM     22 O    HIS C   2      12.487  24.771  31.332  1.00  8.29 LIG-0.27  OA
BRANCH 20 23
ATOM     23  CA  ALA C   3      12.092  22.068  31.357  1.00  8.91 LIG 0.17  C 
ATOM     24  CB  ALA C   3      10.957  22.152  30.351  1.00  9.99 LIG 0.04  C 
BRANCH 23 25
ATOM     25  C   ALA C   3      12.407  20.605  31.675  1.00  9.36 LIG 0.24  C 
ATOM     26  N   ALA C   4      13.674  20.327  31.961  1.00  9.08 LIG-0.35  N 
ATOM     27 H    ALA C   4      14.283  20.923  32.070  1.00  9.08 LIG 0.16  HD
ATOM     28 O    ALA C   3      11.512  19.749  31.685  1.00  9.90 LIG-0.27  OA
BRANCH 26 29
ATOM     29  CA  ALA C   4      14.142  18.950  32.116  1.00  9.70 LIG 0.18  C 
ATOM     30  CB  ALA C   4      13.459  18.298  33.296  1.00  9.53 LIG 0.04  C 
BRANCH 29 31
ATOM     31  C   ALA C   4      13.951  18.093  30.878  1.00 11.00 LIG 0.28  C 
ATOM     32  N   NH2 C   5      14.767  18.319  29.857  1.00 10.22 LIG-0.11  N 
ATOM     33 O    ALA C   4      13.051  17.265  30.848  1.00 13.70 LIG-0.27  OA
ENDBRANCH 29 31
ENDBRANCH 26 29
ENDBRANCH 23 25
ENDBRANCH 20 23
ENDBRANCH 1 19
BRANCH 1 34
ATOM     34  CB  HIS C   2      15.408  25.194  31.737  1.00 12.23 LIG 0.10  C 
BRANCH 34 35
ATOM     35  CG  HIS C   2      16.590  24.394  32.168  1.00 15.24 LIG 0.06  A 
ATOM     36 ND1  HIS C   2      16.470  23.213  32.866  1.00 17.16 LIG-0.24  NA
ATOM     37  CE1 HIS C   2      17.674  22.726  33.113  1.00 17.55 LIG 0.23  A 
ATOM     38 NE2  HIS C   2      18.569  23.550  32.598  1.00 18.01 LIG-0.25  NA
ATOM     39  CD2 HIS C   2      17.917  24.600  32.000  1.00 16.53 LIG 0.14  A 
ENDBRANCH 34 35
ENDBRANCH 1 34
TORSDOF 12
ENDMDL
MODEL 99
USER: ADFR SOLUTION from run 9
USER: SCORE 11.086462 LL:  -2.536 LR:  -9.460 RR:   0.000 FEB:  -5.880
USER: RMSD 8.914288
USER: SEED 235605
USER: STATUS no improvement in best in 33 clusters for 5 generations
USER: GENES 14
USER: genes 0 Translation |==|  0.58274 0.15504 0.78892
USER: genes 1 Rotation |==|  0.69142 0.66232 0.74909 0.85351
USER: genes 2 Torsion [CB]-CA--N-[C] |==|  0.55758
USER: genes 3 Torsion [N]-C--CA-[N] |==|  0.97222
USER: genes 4 Torsion [C]-CA--CB-[CG] |==|  0.35619
USER: genes 5 Torsion [CA]-CB--CG-[CD1] |==|  0.04400
USER: genes 6 Torsion [C]-CA--N-[C] |==|  0.64033
USER: genes 7 Torsion [N]-CA--C-[N] |==|  0.44621
USER: genes 8 Torsion [C]-N--CA-[CB] |==|  0.54587
USER: genes 9 Torsion [N]-CA--C-[N] |==|  0.39123
USER: genes 10 Torsion [C]-N--CA-[C] |==|  0.71936
USER: genes 11 Torsion [N]-CA--C-[N] |==|  0.39550
USER: genes 12 Torsion [N]-CA--CB-[CG] |==|  0.08751
USER: genes 13 Torsion [CA]-CB--CG-[CD2] |==|  0.19044
ROOT
ATOM      1  CA  HIS C   2      13.899  14.444  36.495  1.00 10.06 LIG 0.18  C 
ENDROOT
BRANCH 1 2
ATOM      2  N   HIS C   2      14.633  15.314  35.577  1.00  9.48 LIG-0.35  N 
ATOM      3 H    HIS C   2      15.221  15.811  35.961  1.00  9.48 LIG 0.16  HD
ATOM      4  C   PHE C   1      14.405  15.328  34.271  1.00  9.37 LIG 0.24  C 
ATOM      5 O    PHE C   1      13.625  14.562  33.715  1.00 11.27 LIG-0.27  OA
BRANCH 4 6
ATOM      6  CA  PHE C   1      15.153  16.379  33.480  1.00  8.68 LIG 0.18  C 
BRANCH 6 7
ATOM      7  CB  PHE C   1      16.174  15.677  32.586  1.00  8.30 LIG 0.07  C 
BRANCH 7 8
ATOM      8  CG  PHE C   1      16.096  16.085  31.145  1.00  6.80 LIG-0.06  A 
ATOM      9  CD1 PHE C   1      15.408  17.231  30.768  1.00  6.68 LIG 0.01  A 
ATOM     10  CE1 PHE C   1      15.350  17.608  29.439  1.00  6.85 LIG 0.00  A 
ATOM     11  CZ  PHE C   1      15.962  16.840  28.474  1.00  6.56 LIG 0.00  A 
ATOM     12  CE2 PHE C   1      16.649  15.694  28.831  1.00  6.82 LIG 0.00  A 
ATOM     13  CD2 PHE C   1      16.715  15.324  30.164  1.00  7.43 LIG 0.01  A 
ENDBRANCH 7 8
ENDBRANCH 6 7
BRANCH 6 14
ATOM     14  N   PHE C   1      15.817  17.337  34.368  1.00  9.64 LIG-0.35  N 
ATOM     15 H    PHE C   1      16.296  16.977  34.986  1.00  9.64 LIG 0.16  HD
ATOM     16  C   ACE C   0      15.673  18.648  34.208  1.00 12.10 LIG 0.21  C 
ATOM     17  CH3 ACE C   0      16.350  19.519  35.227  1.00 13.09 LIG 0.12  C 
ATOM     18 O    ACE C   0      15.006  19.124  33.289  1.00 13.69 LIG-0.27  OA
ENDBRANCH 6 14
ENDBRANCH 4 6
ENDBRANCH 1 2
BRANCH 1 19
ATOM     19  C   HIS C   2      12.441  14.411  36.091  1.00  9.05 LIG 0.24  C 
ATOM     20  N   ALA C   3      11.718  13.396  36.544  1.00  9.24 LIG-0.35  N 
ATOM     21 H    ALA C   3      12.034  12.728  36.983  1.00  9.24 LIG 0.16  HD
ATOM     22 O    HIS C   2      11.960  15.312  35.414  1.00  8.29 LIG-0.27  OA
BRANCH 20 23
ATOM     23  CA  ALA C   3      10.277  13.355  36.310  1.00  8.91 LIG 0.17  C 
ATOM     24  CB  ALA C   3       9.613  12.352  37.237  1.00  9.99 LIG 0.04  C 
BRANCH 23 25
ATOM     25  C   ALA C   3       9.670  14.745  36.516  1.00  9.36 LIG 0.24  C 
ATOM     26  N   ALA C   4       8.714  15.099  35.664  1.00  9.08 LIG-0.35  N 
ATOM     27 H    ALA C   4       8.364  14.566  35.088  1.00  9.08 LIG 0.16  HD
ATOM     28 O    ALA C   3      10.046  15.472  37.445  1.00  9.90 LIG-0.27  OA
BRANCH 26 29
ATOM     29  CA  ALA C   4       8.171  16.456  35.641  1.00  9.70 LIG 0.18  C 
ATOM     30  CB  ALA C   4       8.050  16.944  34.215  1.00  9.53 LIG 0.04  C 
BRANCH 29 31
ATOM     31  C   ALA C   4       6.834  16.595  36.344  1.00 11.00 LIG 0.28  C 
ATOM     32  N   NH2 C   5       6.628  17.710  37.033  1.00 10.22 LIG-0.11  N 
ATOM     33 O    ALA C   4       6.020  15.684  36.284  1.00 13.70 LIG-0.27  OA
ENDBRANCH 29 31
ENDBRANCH 26 29
ENDBRANCH 23 25
ENDBRANCH 20 23
ENDBRANCH 1 19
BRANCH 1 34
ATOM     34  CB  HIS C   2      13.973  14.965  37.936  1.00 12.23 LIG 0.10  C 
BRANCH 34 35
ATOM     35  CG  HIS C   2      14.059  16.449  38.045  1.00 15.24 LIG 0.06  A 
ATOM     36 ND1  HIS C   2      15.192  17.095  38.487  1.00 17.16 LIG-0.24  NA
ATOM     37  CE1 HIS C   2      14.983  18.399  38.481  1.00 17.55 LIG 0.23  A 
ATOM     38 NE2  HIS C   2      13.754  18.622  38.050  1.00 18.01 LIG-0.25  NA
ATOM     39  CD2 HIS C   2      13.156  17.418  37.768  1.00 16.53 LIG 0.14  A 
ENDBRANCH 34 35
ENDBRANCH 1 34
TORSDOF 12
ENDMDL
MODEL 100
USER: ADFR SOLUTION from run 48
USER: SCORE 9.845738 LL:  -2.482 LR:  -9.451 RR:   0.000 FEB:  -5.871
USER: RMSD 8.483098
USER: SEED 47
USER: STATUS no improvement in best in 13 clusters for 5 generations
USER: GENES 14
USER: genes 0 Translation |==|  0.55597 0.42949 0.54837
USER: genes 1 Rotation |==|  0.58683 0.83211 0.86337 0.51111
USER: genes 2 Torsion [CB]-CA--N-[C] |==|  0.23503
USER: genes 3 Torsion [N]-C--CA-[N] |==|  0.06895
USER: genes 4 Torsion [C]-CA--CB-[CG] |==|  0.26598
USER: genes 5 Torsion [CA]-CB--CG-[CD1] |==|  0.86685
USER: genes 6 Torsion [C]-CA--N-[C] |==|  0.59367
USER: genes 7 Torsion [N]-CA--C-[N] |==|  0.56093
USER: genes 8 Torsion [C]-N--CA-[CB] |==|  0.86517
USER: genes 9 Torsion [N]-CA--C-[N] |==|  0.97222
USER: genes 10 Torsion [C]-N--CA-[C] |==|  0.82771
USER: genes 11 Torsion [N]-CA--C-[N] |==|  0.38927
USER: genes 12 Torsion [N]-CA--CB-[CG] |==|  0.61084
USER: genes 13 Torsion [CA]-CB--CG-[CD2] |==|  0.27094
ROOT
ATOM      1  CA  HIS C   2      13.457  20.207  31.804  1.00 10.06 LIG 0.18  C 
ENDROOT
BRANCH 1 2
ATOM      2  N   HIS C   2      12.215  20.584  31.132  1.00  9.48 LIG-0.35  N 
ATOM      3 H    HIS C   2      11.591  19.996  31.194  1.00  9.48 LIG 0.16  HD
ATOM      4  C   PHE C   1      12.074  21.734  30.486  1.00  9.37 LIG 0.24  C 
ATOM      5 O    PHE C   1      12.935  22.607  30.467  1.00 11.27 LIG-0.27  OA
BRANCH 4 6
ATOM      6  CA  PHE C   1      10.773  21.913  29.733  1.00  8.68 LIG 0.18  C 
BRANCH 6 7
ATOM      7  CB  PHE C   1      10.387  23.391  29.777  1.00  8.30 LIG 0.07  C 
BRANCH 7 8
ATOM      8  CG  PHE C   1      10.820  24.164  28.566  1.00  6.80 LIG-0.06  A 
ATOM      9  CD1 PHE C   1      12.117  24.055  28.081  1.00  6.68 LIG 0.01  A 
ATOM     10  CE1 PHE C   1      12.505  24.761  26.957  1.00  6.85 LIG 0.00  A 
ATOM     11  CZ  PHE C   1      11.612  25.591  26.317  1.00  6.56 LIG 0.00  A 
ATOM     12  CE2 PHE C   1      10.319  25.714  26.789  1.00  6.82 LIG 0.00  A 
ATOM     13  CD2 PHE C   1       9.928  24.998  27.908  1.00  7.43 LIG 0.01  A 
ENDBRANCH 7 8
ENDBRANCH 6 7
BRANCH 6 14
ATOM     14  N   PHE C   1       9.709  21.085  30.308  1.00  9.64 LIG-0.35  N 
ATOM     15 H    PHE C   1       9.758  20.984  31.160  1.00  9.64 LIG 0.16  HD
ATOM     16  C   ACE C   0       8.761  20.548  29.548  1.00 12.10 LIG 0.21  C 
ATOM     17  CH3 ACE C   0       7.771  19.664  30.250  1.00 13.09 LIG 0.12  C 
ATOM     18 O    ACE C   0       8.706  20.746  28.334  1.00 13.69 LIG-0.27  OA
ENDBRANCH 6 14
ENDBRANCH 4 6
ENDBRANCH 1 2
BRANCH 1 19
ATOM     19  C   HIS C   2      13.520  18.700  31.929  1.00  9.05 LIG 0.24  C 
ATOM     20  N   ALA C   3      14.312  18.210  32.872  1.00  9.24 LIG-0.35  N 
ATOM     21 H    ALA C   3      14.839  18.681  33.361  1.00  9.24 LIG 0.16  HD
ATOM     22 O    HIS C   2      12.830  17.986  31.210  1.00  8.29 LIG-0.27  OA
BRANCH 20 23
ATOM     23  CA  ALA C   3      14.333  16.776  33.145  1.00  8.91 LIG 0.17  C 
ATOM     24  CB  ALA C   3      12.919  16.239  33.290  1.00  9.99 LIG 0.04  C 
BRANCH 23 25
ATOM     25  C   ALA C   3      15.065  16.036  32.023  1.00  9.36 LIG 0.24  C 
ATOM     26  N   ALA C   4      15.354  16.751  30.941  1.00  9.08 LIG-0.35  N 
ATOM     27 H    ALA C   4      15.244  17.602  30.885  1.00  9.08 LIG 0.16  HD
ATOM     28 O    ALA C   3      15.381  14.845  32.146  1.00  9.90 LIG-0.27  OA
BRANCH 26 29
ATOM     29  CA  ALA C   4      15.896  16.131  29.733  1.00  9.70 LIG 0.18  C 
ATOM     30  CB  ALA C   4      15.996  17.153  28.624  1.00  9.53 LIG 0.04  C 
BRANCH 29 31
ATOM     31  C   ALA C   4      17.243  15.463  29.936  1.00 11.00 LIG 0.28  C 
ATOM     32  N   NH2 C   5      17.441  14.306  29.320  1.00 10.22 LIG-0.11  N 
ATOM     33 O    ALA C   4      18.072  15.982  30.670  1.00 13.70 LIG-0.27  OA
ENDBRANCH 29 31
ENDBRANCH 26 29
ENDBRANCH 23 25
ENDBRANCH 20 23
ENDBRANCH 1 19
BRANCH 1 34
ATOM     34  CB  HIS C   2      13.526  20.795  33.219  1.00 12.23 LIG 0.10  C 
BRANCH 34 35
ATOM     35  CG  HIS C   2      14.874  21.300  33.607  1.00 15.24 LIG 0.06  A 
ATOM     36 ND1  HIS C   2      15.868  20.471  34.080  1.00 17.16 LIG-0.24  NA
ATOM     37  CE1 HIS C   2      16.946  21.188  34.342  1.00 17.55 LIG 0.23  A 
ATOM     38 NE2  HIS C   2      16.687  22.451  34.055  1.00 18.01 LIG-0.25  NA
ATOM     39  CD2 HIS C   2      15.398  22.547  33.592  1.00 16.53 LIG 0.14  A 
ENDBRANCH 34 35
ENDBRANCH 1 34
TORSDOF 12
ENDMDL
MODEL 101
USER: ADFR SOLUTION from run 111
USER: SCORE 10.580312 LL:  -3.147 LR:  -9.430 RR:   0.000 FEB:  -5.850
USER: RMSD 9.259780
USER: SEED 110
USER: STATUS no improvement in best in 16 clusters for 5 generations
USER: GENES 14
USER: genes 0 Translation |==|  0.62082 0.31428 0.47504
USER: genes 1 Rotation |==|  0.09128 0.21765 0.53151 0.54724
USER: genes 2 Torsion [CB]-CA--N-[C] |==|  0.52222
USER: genes 3 Torsion [N]-C--CA-[N] |==|  0.35002
USER: genes 4 Torsion [C]-CA--CB-[CG] |==|  0.29067
USER: genes 5 Torsion [CA]-CB--CG-[CD1] |==|  0.69904
USER: genes 6 Torsion [C]-CA--N-[C] |==|  0.68952
USER: genes 7 Torsion [N]-CA--C-[N] |==|  0.89796
USER: genes 8 Torsion [C]-N--CA-[CB] |==|  0.50865
USER: genes 9 Torsion [N]-CA--C-[N] |==|  0.37809
USER: genes 10 Torsion [C]-N--CA-[C] |==|  0.14945
USER: genes 11 Torsion [N]-CA--C-[N] |==|  0.09350
USER: genes 12 Torsion [N]-CA--CB-[CG] |==|  0.48069
USER: genes 13 Torsion [CA]-CB--CG-[CD2] |==|  0.80654
ROOT
ATOM      1  CA  HIS C   2      14.528  17.788  30.374  1.00 10.06 LIG 0.18  C 
ENDROOT
BRANCH 1 2
ATOM      2  N   HIS C   2      14.068  19.155  30.619  1.00  9.48 LIG-0.35  N 
ATOM      3 H    HIS C   2      14.454  19.747  30.129  1.00  9.48 LIG 0.16  HD
ATOM      4  C   PHE C   1      13.137  19.443  31.519  1.00  9.37 LIG 0.24  C 
ATOM      5 O    PHE C   1      12.530  18.591  32.159  1.00 11.27 LIG-0.27  OA
BRANCH 4 6
ATOM      6  CA  PHE C   1      12.871  20.916  31.743  1.00  8.68 LIG 0.18  C 
BRANCH 6 7
ATOM      7  CB  PHE C   1      13.344  21.286  33.148  1.00  8.30 LIG 0.07  C 
BRANCH 7 8
ATOM      8  CG  PHE C   1      14.633  22.052  33.169  1.00  6.80 LIG-0.06  A 
ATOM      9  CD1 PHE C   1      15.805  21.456  33.616  1.00  6.68 LIG 0.01  A 
ATOM     10  CE1 PHE C   1      16.993  22.164  33.620  1.00  6.85 LIG 0.00  A 
ATOM     11  CZ  PHE C   1      17.021  23.473  33.196  1.00  6.56 LIG 0.00  A 
ATOM     12  CE2 PHE C   1      15.862  24.083  32.751  1.00  6.82 LIG 0.00  A 
ATOM     13  CD2 PHE C   1      14.676  23.369  32.737  1.00  7.43 LIG 0.01  A 
ENDBRANCH 7 8
ENDBRANCH 6 7
BRANCH 6 14
ATOM     14  N   PHE C   1      11.448  21.228  31.579  1.00  9.64 LIG-0.35  N 
ATOM     15 H    PHE C   1      10.938  20.897  32.187  1.00  9.64 LIG 0.16  HD
ATOM     16  C   ACE C   0      11.012  21.965  30.563  1.00 12.10 LIG 0.21  C 
ATOM     17  CH3 ACE C   0       9.525  22.153  30.471  1.00 13.09 LIG 0.12  C 
ATOM     18 O    ACE C   0      11.779  22.450  29.731  1.00 13.69 LIG-0.27  OA
ENDBRANCH 6 14
ENDBRANCH 4 6
ENDBRANCH 1 2
BRANCH 1 19
ATOM     19  C   HIS C   2      14.956  17.164  31.685  1.00  9.05 LIG 0.24  C 
ATOM     20  N   ALA C   3      15.560  17.959  32.556  1.00  9.24 LIG-0.35  N 
ATOM     21 H    ALA C   3      15.787  18.774  32.400  1.00  9.24 LIG 0.16  HD
ATOM     22 O    HIS C   2      14.707  15.989  31.928  1.00  8.29 LIG-0.27  OA
BRANCH 20 23
ATOM     23  CA  ALA C   3      15.890  17.473  33.893  1.00  8.91 LIG 0.17  C 
ATOM     24  CB  ALA C   3      16.505  18.582  34.729  1.00  9.99 LIG 0.04  C 
BRANCH 23 25
ATOM     25  C   ALA C   3      14.635  16.929  34.581  1.00  9.36 LIG 0.24  C 
ATOM     26  N   ALA C   4      14.775  15.778  35.229  1.00  9.08 LIG-0.35  N 
ATOM     27 H    ALA C   4      15.530  15.390  35.361  1.00  9.08 LIG 0.16  HD
ATOM     28 O    ALA C   3      13.567  17.555  34.543  1.00  9.90 LIG-0.27  OA
BRANCH 26 29
ATOM     29  CA  ALA C   4      13.624  15.065  35.782  1.00  9.70 LIG 0.18  C 
ATOM     30  CB  ALA C   4      13.059  15.824  36.960  1.00  9.53 LIG 0.04  C 
BRANCH 29 31
ATOM     31  C   ALA C   4      12.524  14.795  34.772  1.00 11.00 LIG 0.28  C 
ATOM     32  N   NH2 C   5      12.899  14.564  33.521  1.00 10.22 LIG-0.11  N 
ATOM     33 O    ALA C   4      11.355  14.832  35.126  1.00 13.70 LIG-0.27  OA
ENDBRANCH 29 31
ENDBRANCH 26 29
ENDBRANCH 23 25
ENDBRANCH 20 23
ENDBRANCH 1 19
BRANCH 1 34
ATOM     34  CB  HIS C   2      15.737  17.768  29.432  1.00 12.23 LIG 0.10  C 
BRANCH 34 35
ATOM     35  CG  HIS C   2      16.360  16.423  29.267  1.00 15.24 LIG 0.06  A 
ATOM     36 ND1  HIS C   2      16.285  15.711  28.091  1.00 17.16 LIG-0.24  NA
ATOM     37  CE1 HIS C   2      16.923  14.562  28.234  1.00 17.55 LIG 0.23  A 
ATOM     38 NE2  HIS C   2      17.408  14.505  29.461  1.00 18.01 LIG-0.25  NA
ATOM     39  CD2 HIS C   2      17.072  15.658  30.127  1.00 16.53 LIG 0.14  A 
ENDBRANCH 34 35
ENDBRANCH 1 34
TORSDOF 12
ENDMDL
MODEL 102
USER: ADFR SOLUTION from run 137
USER: SCORE 10.528921 LL:  -2.720 LR:  -9.417 RR:   0.000 FEB:  -5.837
USER: RMSD 6.747018
USER: SEED 136
USER: STATUS no improvement in best in 17 clusters for 5 generations
USER: GENES 14
USER: genes 0 Translation |==|  0.36835 0.60008 0.42936
USER: genes 1 Rotation |==|  0.55947 0.69989 0.18572 0.82823
USER: genes 2 Torsion [CB]-CA--N-[C] |==|  0.18107
USER: genes 3 Torsion [N]-C--CA-[N] |==|  0.87552
USER: genes 4 Torsion [C]-CA--CB-[CG] |==|  0.47312
USER: genes 5 Torsion [CA]-CB--CG-[CD1] |==|  0.09503
USER: genes 6 Torsion [C]-CA--N-[C] |==|  0.81491
USER: genes 7 Torsion [N]-CA--C-[N] |==|  0.03802
USER: genes 8 Torsion [C]-N--CA-[CB] |==|  0.81831
USER: genes 9 Torsion [N]-CA--C-[N] |==|  0.05556
USER: genes 10 Torsion [C]-N--CA-[C] |==|  0.52888
USER: genes 11 Torsion [N]-CA--C-[N] |==|  0.27938
USER: genes 12 Torsion [N]-CA--CB-[CG] |==|  0.56145
USER: genes 13 Torsion [CA]-CB--CG-[CD2] |==|  0.21346
ROOT
ATOM      1  CA  HIS C   2      10.362  23.790  29.484  1.00 10.06 LIG 0.18  C 
ENDROOT
BRANCH 1 2
ATOM      2  N   HIS C   2       9.359  22.822  29.040  1.00  9.48 LIG-0.35  N 
ATOM      3 H    HIS C   2       8.855  23.107  28.404  1.00  9.48 LIG 0.16  HD
ATOM      4  C   PHE C   1       9.246  21.615  29.578  1.00  9.37 LIG 0.24  C 
ATOM      5 O    PHE C   1      10.016  21.181  30.428  1.00 11.27 LIG-0.27  OA
BRANCH 4 6
ATOM      6  CA  PHE C   1       8.075  20.785  29.099  1.00  8.68 LIG 0.18  C 
BRANCH 6 7
ATOM      7  CB  PHE C   1       8.410  20.226  27.717  1.00  8.30 LIG 0.07  C 
BRANCH 7 8
ATOM      8  CG  PHE C   1       7.430  19.201  27.227  1.00  6.80 LIG-0.06  A 
ATOM      9  CD1 PHE C   1       6.082  19.300  27.544  1.00  6.68 LIG 0.01  A 
ATOM     10  CE1 PHE C   1       5.183  18.358  27.078  1.00  6.85 LIG 0.00  A 
ATOM     11  CZ  PHE C   1       5.620  17.304  26.308  1.00  6.56 LIG 0.00  A 
ATOM     12  CE2 PHE C   1       6.959  17.188  25.987  1.00  6.82 LIG 0.00  A 
ATOM     13  CD2 PHE C   1       7.857  18.138  26.445  1.00  7.43 LIG 0.01  A 
ENDBRANCH 7 8
ENDBRANCH 6 7
BRANCH 6 14
ATOM     14  N   PHE C   1       6.846  21.582  29.049  1.00  9.64 LIG-0.35  N 
ATOM     15 H    PHE C   1       6.538  21.713  28.257  1.00  9.64 LIG 0.16  HD
ATOM     16  C   ACE C   0       6.277  22.052  30.154  1.00 12.10 LIG 0.21  C 
ATOM     17  CH3 ACE C   0       5.062  22.912  29.960  1.00 13.09 LIG 0.12  C 
ATOM     18 O    ACE C   0       6.731  21.814  31.274  1.00 13.69 LIG-0.27  OA
ENDBRANCH 6 14
ENDBRANCH 4 6
ENDBRANCH 1 2
BRANCH 1 19
ATOM     19  C   HIS C   2      10.160  25.092  28.739  1.00  9.05 LIG 0.24  C 
ATOM     20  N   ALA C   3       9.019  25.234  28.080  1.00  9.24 LIG-0.35  N 
ATOM     21 H    ALA C   3       8.427  24.617  27.989  1.00  9.24 LIG 0.16  HD
ATOM     22 O    HIS C   2      11.005  25.978  28.791  1.00  8.29 LIG-0.27  OA
BRANCH 20 23
ATOM     23  CA  ALA C   3       8.689  26.506  27.443  1.00  8.91 LIG 0.17  C 
ATOM     24  CB  ALA C   3       8.501  27.593  28.487  1.00  9.99 LIG 0.04  C 
BRANCH 23 25
ATOM     25  C   ALA C   3       9.791  26.905  26.460  1.00  9.36 LIG 0.24  C 
ATOM     26  N   ALA C   4      10.585  25.926  26.041  1.00  9.08 LIG-0.35  N 
ATOM     27 H    ALA C   4      10.452  25.094  26.211  1.00  9.08 LIG 0.16  HD
ATOM     28 O    ALA C   3       9.904  28.075  26.070  1.00  9.90 LIG-0.27  OA
BRANCH 26 29
ATOM     29  CA  ALA C   4      11.778  26.195  25.239  1.00  9.70 LIG 0.18  C 
ATOM     30  CB  ALA C   4      12.798  26.949  26.060  1.00  9.53 LIG 0.04  C 
BRANCH 29 31
ATOM     31  C   ALA C   4      12.415  24.950  24.649  1.00 11.00 LIG 0.28  C 
ATOM     32  N   NH2 C   5      12.159  24.688  23.375  1.00 10.22 LIG-0.11  N 
ATOM     33 O    ALA C   4      13.100  24.227  25.358  1.00 13.70 LIG-0.27  OA
ENDBRANCH 29 31
ENDBRANCH 26 29
ENDBRANCH 23 25
ENDBRANCH 20 23
ENDBRANCH 1 19
BRANCH 1 34
ATOM     34  CB  HIS C   2      11.783  23.297  29.184  1.00 12.23 LIG 0.10  C 
BRANCH 34 35
ATOM     35  CG  HIS C   2      12.838  23.925  30.029  1.00 15.24 LIG 0.06  A 
ATOM     36 ND1  HIS C   2      13.670  24.918  29.560  1.00 17.16 LIG-0.24  NA
ATOM     37  CE1 HIS C   2      14.501  25.282  30.520  1.00 17.55 LIG 0.23  A 
ATOM     38 NE2  HIS C   2      14.237  24.561  31.595  1.00 18.01 LIG-0.25  NA
ATOM     39  CD2 HIS C   2      13.200  23.707  31.315  1.00 16.53 LIG 0.14  A 
ENDBRANCH 34 35
ENDBRANCH 1 34
TORSDOF 12
ENDMDL
MODEL 103
USER: ADFR SOLUTION from run 64
USER: SCORE 10.243238 LL:  -2.972 LR:  -9.405 RR:   0.000 FEB:  -5.826
USER: RMSD 9.014460
USER: SEED 63
USER: STATUS no improvement in best in 36 clusters for 5 generations
USER: GENES 14
USER: genes 0 Translation |==|  0.59225 0.32999 0.48100
USER: genes 1 Rotation |==|  0.09761 0.20831 0.53394 0.54299
USER: genes 2 Torsion [CB]-CA--N-[C] |==|  0.51018
USER: genes 3 Torsion [N]-C--CA-[N] |==|  0.87918
USER: genes 4 Torsion [C]-CA--CB-[CG] |==|  0.61490
USER: genes 5 Torsion [CA]-CB--CG-[CD1] |==|  0.84701
USER: genes 6 Torsion [C]-CA--N-[C] |==|  0.77778
USER: genes 7 Torsion [N]-CA--C-[N] |==|  0.86003
USER: genes 8 Torsion [C]-N--CA-[CB] |==|  0.15031
USER: genes 9 Torsion [N]-CA--C-[N] |==|  0.59550
USER: genes 10 Torsion [C]-N--CA-[C] |==|  0.80717
USER: genes 11 Torsion [N]-CA--C-[N] |==|  0.43137
USER: genes 12 Torsion [N]-CA--CB-[CG] |==|  0.46226
USER: genes 13 Torsion [CA]-CB--CG-[CD2] |==|  0.29760
ROOT
ATOM      1  CA  HIS C   2      14.056  18.118  30.490  1.00 10.06 LIG 0.18  C 
ENDROOT
BRANCH 1 2
ATOM      2  N   HIS C   2      13.532  19.465  30.713  1.00  9.48 LIG-0.35  N 
ATOM      3 H    HIS C   2      13.932  20.076  30.259  1.00  9.48 LIG 0.16  HD
ATOM      4  C   PHE C   1      12.528  19.711  31.545  1.00  9.37 LIG 0.24  C 
ATOM      5 O    PHE C   1      11.906  18.830  32.130  1.00 11.27 LIG-0.27  OA
BRANCH 4 6
ATOM      6  CA  PHE C   1      12.194  21.170  31.763  1.00  8.68 LIG 0.18  C 
BRANCH 6 7
ATOM      7  CB  PHE C   1      11.389  21.668  30.564  1.00  8.30 LIG 0.07  C 
BRANCH 7 8
ATOM      8  CG  PHE C   1      11.783  23.039  30.100  1.00  6.80 LIG-0.06  A 
ATOM      9  CD1 PHE C   1      11.781  24.114  30.979  1.00  6.68 LIG 0.01  A 
ATOM     10  CE1 PHE C   1      12.157  25.372  30.548  1.00  6.85 LIG 0.00  A 
ATOM     11  CZ  PHE C   1      12.521  25.575  29.235  1.00  6.56 LIG 0.00  A 
ATOM     12  CE2 PHE C   1      12.525  24.517  28.345  1.00  6.82 LIG 0.00  A 
ATOM     13  CD2 PHE C   1      12.159  23.255  28.782  1.00  7.43 LIG 0.01  A 
ENDBRANCH 7 8
ENDBRANCH 6 7
BRANCH 6 14
ATOM     14  N   PHE C   1      13.408  21.972  31.938  1.00  9.64 LIG-0.35  N 
ATOM     15 H    PHE C   1      13.658  22.399  31.234  1.00  9.64 LIG 0.16  HD
ATOM     16  C   ACE C   0      14.050  22.015  33.101  1.00 12.10 LIG 0.21  C 
ATOM     17  CH3 ACE C   0      15.319  22.818  33.128  1.00 13.09 LIG 0.12  C 
ATOM     18 O    ACE C   0      13.641  21.416  34.095  1.00 13.69 LIG-0.27  OA
ENDBRANCH 6 14
ENDBRANCH 4 6
ENDBRANCH 1 2
BRANCH 1 19
ATOM     19  C   HIS C   2      14.508  17.534  31.812  1.00  9.05 LIG 0.24  C 
ATOM     20  N   ALA C   3      15.311  18.283  32.553  1.00  9.24 LIG-0.35  N 
ATOM     21 H    ALA C   3      15.645  19.036  32.305  1.00  9.24 LIG 0.16  HD
ATOM     22 O    HIS C   2      14.104  16.437  32.180  1.00  8.29 LIG-0.27  OA
BRANCH 20 23
ATOM     23  CA  ALA C   3      15.690  17.852  33.896  1.00  8.91 LIG 0.17  C 
ATOM     24  CB  ALA C   3      16.284  16.455  33.861  1.00  9.99 LIG 0.04  C 
BRANCH 23 25
ATOM     25  C   ALA C   3      16.693  18.836  34.502  1.00  9.36 LIG 0.24  C 
ATOM     26  N   ALA C   4      17.620  18.313  35.296  1.00  9.08 LIG-0.35  N 
ATOM     27 H    ALA C   4      17.740  17.468  35.402  1.00  9.08 LIG 0.16  HD
ATOM     28 O    ALA C   3      16.641  20.044  34.235  1.00  9.90 LIG-0.27  OA
BRANCH 26 29
ATOM     29  CA  ALA C   4      18.530  19.154  36.072  1.00  9.70 LIG 0.18  C 
ATOM     30  CB  ALA C   4      19.247  18.324  37.112  1.00  9.53 LIG 0.04  C 
BRANCH 29 31
ATOM     31  C   ALA C   4      19.545  19.904  35.228  1.00 11.00 LIG 0.28  C 
ATOM     32  N   NH2 C   5      20.046  21.020  35.739  1.00 10.22 LIG-0.11  N 
ATOM     33 O    ALA C   4      19.835  19.484  34.117  1.00 13.70 LIG-0.27  OA
ENDBRANCH 29 31
ENDBRANCH 26 29
ENDBRANCH 23 25
ENDBRANCH 20 23
ENDBRANCH 1 19
BRANCH 1 34
ATOM     34  CB  HIS C   2      15.269  18.140  29.552  1.00 12.23 LIG 0.10  C 
BRANCH 34 35
ATOM     35  CG  HIS C   2      16.047  16.869  29.529  1.00 15.24 LIG 0.06  A 
ATOM     36 ND1  HIS C   2      16.851  16.473  30.575  1.00 17.16 LIG-0.24  NA
ATOM     37  CE1 HIS C   2      17.414  15.315  30.279  1.00 17.55 LIG 0.23  A 
ATOM     38 NE2  HIS C   2      17.003  14.946  29.079  1.00 18.01 LIG-0.25  NA
ATOM     39  CD2 HIS C   2      16.146  15.900  28.590  1.00 16.53 LIG 0.14  A 
ENDBRANCH 34 35
ENDBRANCH 1 34
TORSDOF 12
ENDMDL
MODEL 104
USER: ADFR SOLUTION from run 34
USER: SCORE 10.490620 LL:  -2.513 LR:  -9.394 RR:   0.000 FEB:  -5.815
USER: RMSD 6.909931
USER: SEED 33
USER: STATUS no improvement in best in 32 clusters for 5 generations
USER: GENES 14
USER: genes 0 Translation |==|  0.64072 0.35465 0.54564
USER: genes 1 Rotation |==|  0.24556 0.85520 0.27604 0.59456
USER: genes 2 Torsion [CB]-CA--N-[C] |==|  0.88886
USER: genes 3 Torsion [N]-C--CA-[N] |==|  0.10992
USER: genes 4 Torsion [C]-CA--CB-[CG] |==|  0.60731
USER: genes 5 Torsion [CA]-CB--CG-[CD1] |==|  0.33733
USER: genes 6 Torsion [C]-CA--N-[C] |==|  0.14441
USER: genes 7 Torsion [N]-CA--C-[N] |==|  0.32778
USER: genes 8 Torsion [C]-N--CA-[CB] |==|  0.19098
USER: genes 9 Torsion [N]-CA--C-[N] |==|  0.97939
USER: genes 10 Torsion [C]-N--CA-[C] |==|  0.52194
USER: genes 11 Torsion [N]-CA--C-[N] |==|  0.42982
USER: genes 12 Torsion [N]-CA--CB-[CG] |==|  0.80542
USER: genes 13 Torsion [CA]-CB--CG-[CD2] |==|  0.10737
ROOT
ATOM      1  CA  HIS C   2      14.856  18.636  31.751  1.00 10.06 LIG 0.18  C 
ENDROOT
BRANCH 1 2
ATOM      2  N   HIS C   2      14.901  17.576  32.758  1.00  9.48 LIG-0.35  N 
ATOM      3 H    HIS C   2      15.565  17.637  33.301  1.00  9.48 LIG 0.16  HD
ATOM      4  C   PHE C   1      13.992  16.611  32.819  1.00  9.37 LIG 0.24  C 
ATOM      5 O    PHE C   1      13.002  16.571  32.096  1.00 11.27 LIG-0.27  OA
BRANCH 4 6
ATOM      6  CA  PHE C   1      14.255  15.519  33.833  1.00  8.68 LIG 0.18  C 
BRANCH 6 7
ATOM      7  CB  PHE C   1      12.946  14.779  34.099  1.00  8.30 LIG 0.07  C 
BRANCH 7 8
ATOM      8  CG  PHE C   1      12.753  14.391  35.535  1.00  6.80 LIG-0.06  A 
ATOM      9  CD1 PHE C   1      11.648  14.837  36.249  1.00  6.68 LIG 0.01  A 
ATOM     10  CE1 PHE C   1      11.471  14.465  37.568  1.00  6.85 LIG 0.00  A 
ATOM     11  CZ  PHE C   1      12.398  13.660  38.193  1.00  6.56 LIG 0.00  A 
ATOM     12  CE2 PHE C   1      13.505  13.210  37.498  1.00  6.82 LIG 0.00  A 
ATOM     13  CD2 PHE C   1      13.676  13.575  36.173  1.00  7.43 LIG 0.01  A 
ENDBRANCH 7 8
ENDBRANCH 6 7
BRANCH 6 14
ATOM     14  N   PHE C   1      14.799  16.071  35.077  1.00  9.64 LIG-0.35  N 
ATOM     15 H    PHE C   1      15.524  15.694  35.346  1.00  9.64 LIG 0.16  HD
ATOM     16  C   ACE C   0      14.199  17.071  35.714  1.00 12.10 LIG 0.21  C 
ATOM     17  CH3 ACE C   0      14.820  17.496  37.013  1.00 13.09 LIG 0.12  C 
ATOM     18 O    ACE C   0      13.180  17.606  35.276  1.00 13.69 LIG-0.27  OA
ENDBRANCH 6 14
ENDBRANCH 4 6
ENDBRANCH 1 2
BRANCH 1 19
ATOM     19  C   HIS C   2      13.832  19.672  32.163  1.00  9.05 LIG 0.24  C 
ATOM     20  N   ALA C   3      14.280  20.899  32.387  1.00  9.24 LIG-0.35  N 
ATOM     21 H    ALA C   3      15.110  21.125  32.385  1.00  9.24 LIG 0.16  HD
ATOM     22 O    HIS C   2      12.644  19.380  32.238  1.00  8.29 LIG-0.27  OA
BRANCH 20 23
ATOM     23  CA  ALA C   3      13.345  21.986  32.663  1.00  8.91 LIG 0.17  C 
ATOM     24  CB  ALA C   3      12.683  21.791  34.016  1.00  9.99 LIG 0.04  C 
BRANCH 23 25
ATOM     25  C   ALA C   3      14.074  23.331  32.622  1.00  9.36 LIG 0.24  C 
ATOM     26  N   ALA C   4      15.396  23.278  32.507  1.00  9.08 LIG-0.35  N 
ATOM     27 H    ALA C   4      15.836  22.554  32.359  1.00  9.08 LIG 0.16  HD
ATOM     28 O    ALA C   3      13.446  24.397  32.669  1.00  9.90 LIG-0.27  OA
BRANCH 26 29
ATOM     29  CA  ALA C   4      16.226  24.476  32.627  1.00  9.70 LIG 0.18  C 
ATOM     30  CB  ALA C   4      16.116  25.047  34.022  1.00  9.53 LIG 0.04  C 
BRANCH 29 31
ATOM     31  C   ALA C   4      17.686  24.249  32.280  1.00 11.00 LIG 0.28  C 
ATOM     32  N   NH2 C   5      18.377  25.302  31.865  1.00 10.22 LIG-0.11  N 
ATOM     33 O    ALA C   4      18.159  23.124  32.360  1.00 13.70 LIG-0.27  OA
ENDBRANCH 29 31
ENDBRANCH 26 29
ENDBRANCH 23 25
ENDBRANCH 20 23
ENDBRANCH 1 19
BRANCH 1 34
ATOM     34  CB  HIS C   2      14.438  18.086  30.382  1.00 12.23 LIG 0.10  C 
BRANCH 34 35
ATOM     35  CG  HIS C   2      15.464  17.221  29.732  1.00 15.24 LIG 0.06  A 
ATOM     36 ND1  HIS C   2      15.711  17.255  28.377  1.00 17.16 LIG-0.24  NA
ATOM     37  CE1 HIS C   2      16.664  16.387  28.085  1.00 17.55 LIG 0.23  A 
ATOM     38 NE2  HIS C   2      17.043  15.793  29.202  1.00 18.01 LIG-0.25  NA
ATOM     39  CD2 HIS C   2      16.309  16.298  30.246  1.00 16.53 LIG 0.14  A 
ENDBRANCH 34 35
ENDBRANCH 1 34
TORSDOF 12
ENDMDL
MODEL 105
USER: ADFR SOLUTION from run 197
USER: SCORE 11.641009 LL:  -3.304 LR:  -9.392 RR:   0.000 FEB:  -5.813
USER: RMSD 8.332232
USER: SEED 196
USER: STATUS no improvement in best in 34 clusters for 5 generations
USER: GENES 14
USER: genes 0 Translation |==|  0.52291 0.58283 0.44498
USER: genes 1 Rotation |==|  0.66243 0.89971 0.71774 0.62820
USER: genes 2 Torsion [CB]-CA--N-[C] |==|  0.88241
USER: genes 3 Torsion [N]-C--CA-[N] |==|  0.97017
USER: genes 4 Torsion [C]-CA--CB-[CG] |==|  0.87427
USER: genes 5 Torsion [CA]-CB--CG-[CD1] |==|  0.78820
USER: genes 6 Torsion [C]-CA--N-[C] |==|  0.76071
USER: genes 7 Torsion [N]-CA--C-[N] |==|  0.35099
USER: genes 8 Torsion [C]-N--CA-[CB] |==|  0.14447
USER: genes 9 Torsion [N]-CA--C-[N] |==|  0.01226
USER: genes 10 Torsion [C]-N--CA-[C] |==|  0.81437
USER: genes 11 Torsion [N]-CA--C-[N] |==|  0.46525
USER: genes 12 Torsion [N]-CA--CB-[CG] |==|  0.83664
USER: genes 13 Torsion [CA]-CB--CG-[CD2] |==|  0.51644
ROOT
ATOM      1  CA  HIS C   2      12.912  23.428  29.788  1.00 10.06 LIG 0.18  C 
ENDROOT
BRANCH 1 2
ATOM      2  N   HIS C   2      11.879  23.854  28.845  1.00  9.48 LIG-0.35  N 
ATOM      3 H    HIS C   2      11.922  23.466  28.079  1.00  9.48 LIG 0.16  HD
ATOM      4  C   PHE C   1      10.962  24.761  29.154  1.00  9.37 LIG 0.24  C 
ATOM      5 O    PHE C   1      10.851  25.255  30.271  1.00 11.27 LIG-0.27  OA
BRANCH 4 6
ATOM      6  CA  PHE C   1      10.050  25.189  28.025  1.00  8.68 LIG 0.18  C 
BRANCH 6 7
ATOM      7  CB  PHE C   1       8.643  24.666  28.314  1.00  8.30 LIG 0.07  C 
BRANCH 7 8
ATOM      8  CG  PHE C   1       8.612  23.237  28.770  1.00  6.80 LIG-0.06  A 
ATOM      9  CD1 PHE C   1       8.784  22.199  27.863  1.00  6.68 LIG 0.01  A 
ATOM     10  CE1 PHE C   1       8.767  20.885  28.292  1.00  6.85 LIG 0.00  A 
ATOM     11  CZ  PHE C   1       8.563  20.593  29.623  1.00  6.56 LIG 0.00  A 
ATOM     12  CE2 PHE C   1       8.386  21.614  30.538  1.00  6.82 LIG 0.00  A 
ATOM     13  CD2 PHE C   1       8.415  22.930  30.108  1.00  7.43 LIG 0.01  A 
ENDBRANCH 7 8
ENDBRANCH 6 7
BRANCH 6 14
ATOM     14  N   PHE C   1      10.532  24.688  26.735  1.00  9.64 LIG-0.35  N 
ATOM     15 H    PHE C   1      10.186  23.938  26.492  1.00  9.64 LIG 0.16  HD
ATOM     16  C   ACE C   0      11.430  25.358  26.021  1.00 12.10 LIG 0.21  C 
ATOM     17  CH3 ACE C   0      11.891  24.703  24.752  1.00 13.09 LIG 0.12  C 
ATOM     18 O    ACE C   0      11.874  26.446  26.388  1.00 13.69 LIG-0.27  OA
ENDBRANCH 6 14
ENDBRANCH 4 6
ENDBRANCH 1 2
BRANCH 1 19
ATOM     19  C   HIS C   2      12.301  22.485  30.803  1.00  9.05 LIG 0.24  C 
ATOM     20  N   ALA C   3      12.891  21.308  30.957  1.00  9.24 LIG-0.35  N 
ATOM     21 H    ALA C   3      13.542  21.021  30.474  1.00  9.24 LIG 0.16  HD
ATOM     22 O    HIS C   2      11.333  22.830  31.471  1.00  8.29 LIG-0.27  OA
BRANCH 20 23
ATOM     23  CA  ALA C   3      12.445  20.392  32.003  1.00  8.91 LIG 0.17  C 
ATOM     24  CB  ALA C   3      10.944  20.176  31.921  1.00  9.99 LIG 0.04  C 
BRANCH 23 25
ATOM     25  C   ALA C   3      13.177  19.054  31.878  1.00  9.36 LIG 0.24  C 
ATOM     26  N   ALA C   4      14.118  18.985  30.943  1.00  9.08 LIG-0.35  N 
ATOM     27 H    ALA C   4      14.394  19.662  30.490  1.00  9.08 LIG 0.16  HD
ATOM     28 O    ALA C   3      12.909  18.109  32.632  1.00  9.90 LIG-0.27  OA
BRANCH 26 29
ATOM     29  CA  ALA C   4      14.772  17.723  30.603  1.00  9.70 LIG 0.18  C 
ATOM     30  CB  ALA C   4      15.599  17.887  29.348  1.00  9.53 LIG 0.04  C 
BRANCH 29 31
ATOM     31  C   ALA C   4      15.637  17.160  31.715  1.00 11.00 LIG 0.28  C 
ATOM     32  N   NH2 C   5      16.053  15.908  31.580  1.00 10.22 LIG-0.11  N 
ATOM     33 O    ALA C   4      15.890  17.849  32.694  1.00 13.70 LIG-0.27  OA
ENDBRANCH 29 31
ENDBRANCH 26 29
ENDBRANCH 23 25
ENDBRANCH 20 23
ENDBRANCH 1 19
BRANCH 1 34
ATOM     34  CB  HIS C   2      13.496  24.622  30.553  1.00 12.23 LIG 0.10  C 
BRANCH 34 35
ATOM     35  CG  HIS C   2      14.108  25.665  29.681  1.00 15.24 LIG 0.06  A 
ATOM     36 ND1  HIS C   2      14.037  25.618  28.307  1.00 17.16 LIG-0.24  NA
ATOM     37  CE1 HIS C   2      14.663  26.664  27.800  1.00 17.55 LIG 0.23  A 
ATOM     38 NE2  HIS C   2      15.138  27.389  28.797  1.00 18.01 LIG-0.25  NA
ATOM     39  CD2 HIS C   2      14.803  26.786  29.984  1.00 16.53 LIG 0.14  A 
ENDBRANCH 34 35
ENDBRANCH 1 34
TORSDOF 12
ENDMDL
MODEL 106
USER: ADFR SOLUTION from run 109
USER: SCORE 10.761149 LL:  -2.492 LR:  -9.388 RR:   0.000 FEB:  -5.808
USER: RMSD 9.609961
USER: SEED 108
USER: STATUS no improvement in best in 38 clusters for 5 generations
USER: GENES 14
USER: genes 0 Translation |==|  0.59627 0.33713 0.48952
USER: genes 1 Rotation |==|  0.09498 0.20860 0.47493 0.52038
USER: genes 2 Torsion [CB]-CA--N-[C] |==|  0.52602
USER: genes 3 Torsion [N]-C--CA-[N] |==|  0.90802
USER: genes 4 Torsion [C]-CA--CB-[CG] |==|  0.62579
USER: genes 5 Torsion [CA]-CB--CG-[CD1] |==|  0.82683
USER: genes 6 Torsion [C]-CA--N-[C] |==|  0.73343
USER: genes 7 Torsion [N]-CA--C-[N] |==|  0.42778
USER: genes 8 Torsion [C]-N--CA-[CB] |==|  0.87002
USER: genes 9 Torsion [N]-CA--C-[N] |==|  0.34039
USER: genes 10 Torsion [C]-N--CA-[C] |==|  0.65724
USER: genes 11 Torsion [N]-CA--C-[N] |==|  0.03587
USER: genes 12 Torsion [N]-CA--CB-[CG] |==|  0.53006
USER: genes 13 Torsion [CA]-CB--CG-[CD2] |==|  0.77764
ROOT
ATOM      1  CA  HIS C   2      14.122  18.268  30.657  1.00 10.06 LIG 0.18  C 
ENDROOT
BRANCH 1 2
ATOM      2  N   HIS C   2      13.578  19.613  30.835  1.00  9.48 LIG-0.35  N 
ATOM      3 H    HIS C   2      14.045  20.232  30.464  1.00  9.48 LIG 0.16  HD
ATOM      4  C   PHE C   1      12.461  19.846  31.512  1.00  9.37 LIG 0.24  C 
ATOM      5 O    PHE C   1      11.752  18.957  31.971  1.00 11.27 LIG-0.27  OA
BRANCH 4 6
ATOM      6  CA  PHE C   1      12.105  21.303  31.717  1.00  8.68 LIG 0.18  C 
BRANCH 6 7
ATOM      7  CB  PHE C   1      11.265  21.769  30.530  1.00  8.30 LIG 0.07  C 
BRANCH 7 8
ATOM      8  CG  PHE C   1      11.685  23.101  29.979  1.00  6.80 LIG-0.06  A 
ATOM      9  CD1 PHE C   1      11.616  24.245  30.762  1.00  6.68 LIG 0.01  A 
ATOM     10  CE1 PHE C   1      12.016  25.467  30.253  1.00  6.85 LIG 0.00  A 
ATOM     11  CZ  PHE C   1      12.472  25.561  28.957  1.00  6.56 LIG 0.00  A 
ATOM     12  CE2 PHE C   1      12.543  24.432  28.162  1.00  6.82 LIG 0.00  A 
ATOM     13  CD2 PHE C   1      12.152  23.208  28.678  1.00  7.43 LIG 0.01  A 
ENDBRANCH 7 8
ENDBRANCH 6 7
BRANCH 6 14
ATOM     14  N   PHE C   1      13.309  22.128  31.855  1.00  9.64 LIG-0.35  N 
ATOM     15 H    PHE C   1      13.659  22.373  31.108  1.00  9.64 LIG 0.16  HD
ATOM     16  C   ACE C   0      13.796  22.453  33.047  1.00 12.10 LIG 0.21  C 
ATOM     17  CH3 ACE C   0      15.072  23.244  33.049  1.00 13.09 LIG 0.12  C 
ATOM     18 O    ACE C   0      13.244  22.110  34.093  1.00 13.69 LIG-0.27  OA
ENDBRANCH 6 14
ENDBRANCH 4 6
ENDBRANCH 1 2
BRANCH 1 19
ATOM     19  C   HIS C   2      14.233  17.592  32.006  1.00  9.05 LIG 0.24  C 
ATOM     20  N   ALA C   3      14.188  16.267  32.017  1.00  9.24 LIG-0.35  N 
ATOM     21 H    ALA C   3      14.030  15.777  31.328  1.00  9.24 LIG 0.16  HD
ATOM     22 O    HIS C   2      14.398  18.253  33.024  1.00  8.29 LIG-0.27  OA
BRANCH 20 23
ATOM     23  CA  ALA C   3      14.416  15.531  33.258  1.00  8.91 LIG 0.17  C 
ATOM     24  CB  ALA C   3      15.641  16.067  33.979  1.00  9.99 LIG 0.04  C 
BRANCH 23 25
ATOM     25  C   ALA C   3      13.186  15.631  34.163  1.00  9.36 LIG 0.24  C 
ATOM     26  N   ALA C   4      12.633  14.481  34.528  1.00  9.08 LIG-0.35  N 
ATOM     27 H    ALA C   4      12.979  13.710  34.369  1.00  9.08 LIG 0.16  HD
ATOM     28 O    ALA C   3      12.762  16.731  34.541  1.00  9.90 LIG-0.27  OA
BRANCH 26 29
ATOM     29  CA  ALA C   4      11.360  14.435  35.247  1.00  9.70 LIG 0.18  C 
ATOM     30  CB  ALA C   4      10.293  13.813  34.376  1.00  9.53 LIG 0.04  C 
BRANCH 29 31
ATOM     31  C   ALA C   4      11.429  13.700  36.573  1.00 11.00 LIG 0.28  C 
ATOM     32  N   NH2 C   5      12.636  13.427  37.048  1.00 10.22 LIG-0.11  N 
ATOM     33 O    ALA C   4      10.396  13.360  37.131  1.00 13.70 LIG-0.27  OA
ENDBRANCH 29 31
ENDBRANCH 26 29
ENDBRANCH 23 25
ENDBRANCH 20 23
ENDBRANCH 1 19
BRANCH 1 34
ATOM     34  CB  HIS C   2      15.527  18.312  30.041  1.00 12.23 LIG 0.10  C 
BRANCH 34 35
ATOM     35  CG  HIS C   2      16.041  16.985  29.596  1.00 15.24 LIG 0.06  A 
ATOM     36 ND1  HIS C   2      16.010  16.582  28.280  1.00 17.16 LIG-0.24  NA
ATOM     37  CE1 HIS C   2      16.527  15.370  28.182  1.00 17.55 LIG 0.23  A 
ATOM     38 NE2  HIS C   2      16.893  14.974  29.387  1.00 18.01 LIG-0.25  NA
ATOM     39  CD2 HIS C   2      16.601  15.967  30.290  1.00 16.53 LIG 0.14  A 
ENDBRANCH 34 35
ENDBRANCH 1 34
TORSDOF 12
ENDMDL
MODEL 107
USER: ADFR SOLUTION from run 158
USER: SCORE 10.454798 LL:  -3.110 LR:  -9.390 RR:   0.000 FEB:  -5.811
USER: RMSD 7.526130
USER: SEED 157
USER: STATUS no improvement in best in 26 clusters for 5 generations
USER: GENES 14
USER: genes 0 Translation |==|  0.63863 0.65052 0.49511
USER: genes 1 Rotation |==|  0.75655 0.70081 0.80937 0.71942
USER: genes 2 Torsion [CB]-CA--N-[C] |==|  0.48462
USER: genes 3 Torsion [N]-C--CA-[N] |==|  0.33628
USER: genes 4 Torsion [C]-CA--CB-[CG] |==|  0.87928
USER: genes 5 Torsion [CA]-CB--CG-[CD1] |==|  0.28879
USER: genes 6 Torsion [C]-CA--N-[C] |==|  0.83155
USER: genes 7 Torsion [N]-CA--C-[N] |==|  0.46668
USER: genes 8 Torsion [C]-N--CA-[CB] |==|  0.82993
USER: genes 9 Torsion [N]-CA--C-[N] |==|  0.55456
USER: genes 10 Torsion [C]-N--CA-[C] |==|  0.66111
USER: genes 11 Torsion [N]-CA--C-[N] |==|  0.17720
USER: genes 12 Torsion [N]-CA--CB-[CG] |==|  0.66868
USER: genes 13 Torsion [CA]-CB--CG-[CD2] |==|  0.17486
ROOT
ATOM      1  CA  HIS C   2      14.821  24.849  30.766  1.00 10.06 LIG 0.18  C 
ENDROOT
BRANCH 1 2
ATOM      2  N   HIS C   2      14.819  26.190  30.181  1.00  9.48 LIG-0.35  N 
ATOM      3 H    HIS C   2      14.990  26.817  30.744  1.00  9.48 LIG 0.16  HD
ATOM      4  C   PHE C   1      14.574  26.407  28.896  1.00  9.37 LIG 0.24  C 
ATOM      5 O    PHE C   1      14.411  25.507  28.079  1.00 11.27 LIG-0.27  OA
BRANCH 4 6
ATOM      6  CA  PHE C   1      14.477  27.859  28.479  1.00  8.68 LIG 0.18  C 
BRANCH 6 7
ATOM      7  CB  PHE C   1      13.063  28.121  27.963  1.00  8.30 LIG 0.07  C 
BRANCH 7 8
ATOM      8  CG  PHE C   1      12.538  27.042  27.063  1.00  6.80 LIG-0.06  A 
ATOM      9  CD1 PHE C   1      11.605  26.124  27.526  1.00  6.68 LIG 0.01  A 
ATOM     10  CE1 PHE C   1      11.117  25.139  26.688  1.00  6.85 LIG 0.00  A 
ATOM     11  CZ  PHE C   1      11.564  25.050  25.388  1.00  6.56 LIG 0.00  A 
ATOM     12  CE2 PHE C   1      12.495  25.954  24.912  1.00  6.82 LIG 0.00  A 
ATOM     13  CD2 PHE C   1      12.975  26.947  25.750  1.00  7.43 LIG 0.01  A 
ENDBRANCH 7 8
ENDBRANCH 6 7
BRANCH 6 14
ATOM     14  N   PHE C   1      15.470  28.182  27.451  1.00  9.64 LIG-0.35  N 
ATOM     15 H    PHE C   1      15.136  28.452  26.706  1.00  9.64 LIG 0.16  HD
ATOM     16  C   ACE C   0      16.773  28.056  27.680  1.00 12.10 LIG 0.21  C 
ATOM     17  CH3 ACE C   0      17.681  28.353  26.522  1.00 13.09 LIG 0.12  C 
ATOM     18 O    ACE C   0      17.212  27.699  28.773  1.00 13.69 LIG-0.27  OA
ENDBRANCH 6 14
ENDBRANCH 4 6
ENDBRANCH 1 2
BRANCH 1 19
ATOM     19  C   HIS C   2      13.417  24.285  30.724  1.00  9.05 LIG 0.24  C 
ATOM     20  N   ALA C   3      13.285  22.992  30.986  1.00  9.24 LIG-0.35  N 
ATOM     21 H    ALA C   3      13.939  22.447  31.105  1.00  9.24 LIG 0.16  HD
ATOM     22 O    HIS C   2      12.459  25.013  30.498  1.00  8.29 LIG-0.27  OA
BRANCH 20 23
ATOM     23  CA  ALA C   3      11.957  22.395  31.094  1.00  8.91 LIG 0.17  C 
ATOM     24  CB  ALA C   3      11.173  23.035  32.226  1.00  9.99 LIG 0.04  C 
BRANCH 23 25
ATOM     25  C   ALA C   3      11.199  22.553  29.773  1.00  9.36 LIG 0.24  C 
ATOM     26  N   ALA C   4       9.878  22.432  29.838  1.00  9.08 LIG-0.35  N 
ATOM     27 H    ALA C   4       9.437  22.372  30.574  1.00  9.08 LIG 0.16  HD
ATOM     28 O    ALA C   3      11.801  22.804  28.721  1.00  9.90 LIG-0.27  OA
BRANCH 26 29
ATOM     29  CA  ALA C   4       9.051  22.391  28.633  1.00  9.70 LIG 0.18  C 
ATOM     30  CB  ALA C   4       8.394  21.036  28.499  1.00  9.53 LIG 0.04  C 
BRANCH 29 31
ATOM     31  C   ALA C   4       7.995  23.479  28.575  1.00 11.00 LIG 0.28  C 
ATOM     32  N   NH2 C   5       8.424  24.733  28.520  1.00 10.22 LIG-0.11  N 
ATOM     33 O    ALA C   4       6.811  23.176  28.614  1.00 13.70 LIG-0.27  OA
ENDBRANCH 29 31
ENDBRANCH 26 29
ENDBRANCH 23 25
ENDBRANCH 20 23
ENDBRANCH 1 19
BRANCH 1 34
ATOM     34  CB  HIS C   2      15.267  24.881  32.233  1.00 12.23 LIG 0.10  C 
BRANCH 34 35
ATOM     35  CG  HIS C   2      16.498  24.089  32.515  1.00 15.24 LIG 0.06  A 
ATOM     36 ND1  HIS C   2      16.501  22.999  33.357  1.00 17.16 LIG-0.24  NA
ATOM     37  CE1 HIS C   2      17.722  22.497  33.418  1.00 17.55 LIG 0.23  A 
ATOM     38 NE2  HIS C   2      18.509  23.222  32.645  1.00 18.01 LIG-0.25  NA
ATOM     39  CD2 HIS C   2      17.768  24.222  32.067  1.00 16.53 LIG 0.14  A 
ENDBRANCH 34 35
ENDBRANCH 1 34
TORSDOF 12
ENDMDL
MODEL 108
USER: ADFR SOLUTION from run 14
USER: SCORE 10.767327 LL:  -2.560 LR:  -9.380 RR:   0.000 FEB:  -5.800
USER: RMSD 6.168950
USER: SEED 942726
USER: STATUS no improvement in best in 21 clusters for 5 generations
USER: GENES 14
USER: genes 0 Translation |==|  0.32000 0.50521 0.40419
USER: genes 1 Rotation |==|  0.74832 0.18140 0.71292 0.70372
USER: genes 2 Torsion [CB]-CA--N-[C] |==|  0.51669
USER: genes 3 Torsion [N]-C--CA-[N] |==|  0.32976
USER: genes 4 Torsion [C]-CA--CB-[CG] |==|  0.75705
USER: genes 5 Torsion [CA]-CB--CG-[CD1] |==|  0.24917
USER: genes 6 Torsion [C]-CA--N-[C] |==|  0.77247
USER: genes 7 Torsion [N]-CA--C-[N] |==|  0.31460
USER: genes 8 Torsion [C]-N--CA-[CB] |==|  0.50906
USER: genes 9 Torsion [N]-CA--C-[N] |==|  0.46492
USER: genes 10 Torsion [C]-N--CA-[C] |==|  0.81448
USER: genes 11 Torsion [N]-CA--C-[N] |==|  0.39219
USER: genes 12 Torsion [N]-CA--CB-[CG] |==|  0.75011
USER: genes 13 Torsion [CA]-CB--CG-[CD2] |==|  0.34653
ROOT
ATOM      1  CA  HIS C   2       9.564  21.797  28.993  1.00 10.06 LIG 0.18  C 
ENDROOT
BRANCH 1 2
ATOM      2  N   HIS C   2      10.298  21.369  30.183  1.00  9.48 LIG-0.35  N 
ATOM      3 H    HIS C   2       9.870  20.807  30.675  1.00  9.48 LIG 0.16  HD
ATOM      4  C   PHE C   1      11.514  21.813  30.469  1.00  9.37 LIG 0.24  C 
ATOM      5 O    PHE C   1      12.155  22.550  29.728  1.00 11.27 LIG-0.27  OA
BRANCH 4 6
ATOM      6  CA  PHE C   1      12.080  21.376  31.803  1.00  8.68 LIG 0.18  C 
BRANCH 6 7
ATOM      7  CB  PHE C   1      12.355  22.621  32.645  1.00  8.30 LIG 0.07  C 
BRANCH 7 8
ATOM      8  CG  PHE C   1      13.713  23.216  32.416  1.00  6.80 LIG-0.06  A 
ATOM      9  CD1 PHE C   1      13.910  24.179  31.435  1.00  6.68 LIG 0.01  A 
ATOM     10  CE1 PHE C   1      15.161  24.732  31.238  1.00  6.85 LIG 0.00  A 
ATOM     11  CZ  PHE C   1      16.229  24.321  32.004  1.00  6.56 LIG 0.00  A 
ATOM     12  CE2 PHE C   1      16.052  23.361  32.983  1.00  6.82 LIG 0.00  A 
ATOM     13  CD2 PHE C   1      14.795  22.816  33.186  1.00  7.43 LIG 0.01  A 
ENDBRANCH 7 8
ENDBRANCH 6 7
BRANCH 6 14
ATOM     14  N   PHE C   1      13.304  20.590  31.628  1.00  9.64 LIG-0.35  N 
ATOM     15 H    PHE C   1      14.032  21.038  31.728  1.00  9.64 LIG 0.16  HD
ATOM     16  C   ACE C   0      13.262  19.295  31.338  1.00 12.10 LIG 0.21  C 
ATOM     17  CH3 ACE C   0      14.586  18.622  31.116  1.00 13.09 LIG 0.12  C 
ATOM     18 O    ACE C   0      12.199  18.682  31.236  1.00 13.69 LIG-0.27  OA
ENDBRANCH 6 14
ENDBRANCH 4 6
ENDBRANCH 1 2
BRANCH 1 19
ATOM     19  C   HIS C   2       9.472  23.308  28.981  1.00  9.05 LIG 0.24  C 
ATOM     20  N   ALA C   3      10.131  23.939  28.019  1.00  9.24 LIG-0.35  N 
ATOM     21 H    ALA C   3      10.656  23.559  27.455  1.00  9.24 LIG 0.16  HD
ATOM     22 O    HIS C   2       8.783  23.898  29.805  1.00  8.29 LIG-0.27  OA
BRANCH 20 23
ATOM     23  CA  ALA C   3       9.992  25.384  27.857  1.00  8.91 LIG 0.17  C 
ATOM     24  CB  ALA C   3      10.774  25.863  26.646  1.00  9.99 LIG 0.04  C 
BRANCH 23 25
ATOM     25  C   ALA C   3       8.516  25.760  27.713  1.00  9.36 LIG 0.24  C 
ATOM     26  N   ALA C   4       8.226  27.051  27.819  1.00  9.08 LIG-0.35  N 
ATOM     27 H    ALA C   4       8.818  27.674  27.862  1.00  9.08 LIG 0.16  HD
ATOM     28 O    ALA C   3       7.659  24.895  27.486  1.00  9.90 LIG-0.27  OA
BRANCH 26 29
ATOM     29  CA  ALA C   4       6.845  27.527  27.871  1.00  9.70 LIG 0.18  C 
ATOM     30  CB  ALA C   4       6.813  28.991  28.247  1.00  9.53 LIG 0.04  C 
BRANCH 29 31
ATOM     31  C   ALA C   4       6.072  27.313  26.583  1.00 11.00 LIG 0.28  C 
ATOM     32  N   NH2 C   5       4.802  26.949  26.696  1.00 10.22 LIG-0.11  N 
ATOM     33 O    ALA C   4       6.638  27.446  25.508  1.00 13.70 LIG-0.27  OA
ENDBRANCH 29 31
ENDBRANCH 26 29
ENDBRANCH 23 25
ENDBRANCH 20 23
ENDBRANCH 1 19
BRANCH 1 34
ATOM     34  CB  HIS C   2       8.134  21.244  28.990  1.00 12.23 LIG 0.10  C 
BRANCH 34 35
ATOM     35  CG  HIS C   2       7.994  19.916  28.327  1.00 15.24 LIG 0.06  A 
ATOM     36 ND1  HIS C   2       8.408  19.686  27.034  1.00 17.16 LIG-0.24  NA
ATOM     37  CE1 HIS C   2       8.161  18.429  26.712  1.00 17.55 LIG 0.23  A 
ATOM     38 NE2  HIS C   2       7.602  17.835  27.751  1.00 18.01 LIG-0.25  NA
ATOM     39  CD2 HIS C   2       7.488  18.743  28.775  1.00 16.53 LIG 0.14  A 
ENDBRANCH 34 35
ENDBRANCH 1 34
TORSDOF 12
ENDMDL
MODEL 109
USER: ADFR SOLUTION from run 162
USER: SCORE 10.051408 LL:  -3.037 LR:  -9.382 RR:   0.000 FEB:  -5.802
USER: RMSD 5.931862
USER: SEED 161
USER: STATUS no improvement in best in 6 clusters for 5 generations
USER: GENES 14
USER: genes 0 Translation |==|  0.64168 0.36186 0.52799
USER: genes 1 Rotation |==|  0.87891 0.43576 0.80300 0.60244
USER: genes 2 Torsion [CB]-CA--N-[C] |==|  0.84788
USER: genes 3 Torsion [N]-C--CA-[N] |==|  0.86838
USER: genes 4 Torsion [C]-CA--CB-[CG] |==|  0.66735
USER: genes 5 Torsion [CA]-CB--CG-[CD1] |==|  0.80349
USER: genes 6 Torsion [C]-CA--N-[C] |==|  0.72230
USER: genes 7 Torsion [N]-CA--C-[N] |==|  0.11432
USER: genes 8 Torsion [C]-N--CA-[CB] |==|  0.22269
USER: genes 9 Torsion [N]-CA--C-[N] |==|  0.98588
USER: genes 10 Torsion [C]-N--CA-[C] |==|  0.79659
USER: genes 11 Torsion [N]-CA--C-[N] |==|  0.48851
USER: genes 12 Torsion [N]-CA--CB-[CG] |==|  0.68088
USER: genes 13 Torsion [CA]-CB--CG-[CD2] |==|  0.41689
ROOT
ATOM      1  CA  HIS C   2      14.872  18.787  31.407  1.00 10.06 LIG 0.18  C 
ENDROOT
BRANCH 1 2
ATOM      2  N   HIS C   2      15.526  19.694  32.349  1.00  9.48 LIG-0.35  N 
ATOM      3 H    HIS C   2      16.131  20.191  31.994  1.00  9.48 LIG 0.16  HD
ATOM      4  C   PHE C   1      15.205  19.738  33.636  1.00  9.37 LIG 0.24  C 
ATOM      5 O    PHE C   1      14.287  19.089  34.125  1.00 11.27 LIG-0.27  OA
BRANCH 4 6
ATOM      6  CA  PHE C   1      16.066  20.634  34.500  1.00  8.68 LIG 0.18  C 
BRANCH 6 7
ATOM      7  CB  PHE C   1      15.691  22.088  34.216  1.00  8.30 LIG 0.07  C 
BRANCH 7 8
ATOM      8  CG  PHE C   1      16.829  22.914  33.694  1.00  6.80 LIG-0.06  A 
ATOM      9  CD1 PHE C   1      17.885  23.270  34.521  1.00  6.68 LIG 0.01  A 
ATOM     10  CE1 PHE C   1      18.937  24.021  34.030  1.00  6.85 LIG 0.00  A 
ATOM     11  CZ  PHE C   1      18.938  24.436  32.717  1.00  6.56 LIG 0.00  A 
ATOM     12  CE2 PHE C   1      17.892  24.094  31.880  1.00  6.82 LIG 0.00  A 
ATOM     13  CD2 PHE C   1      16.845  23.332  32.371  1.00  7.43 LIG 0.01  A 
ENDBRANCH 7 8
ENDBRANCH 6 7
BRANCH 6 14
ATOM     14  N   PHE C   1      17.491  20.409  34.243  1.00  9.64 LIG-0.35  N 
ATOM     15 H    PHE C   1      17.792  20.802  33.540  1.00  9.64 LIG 0.16  HD
ATOM     16  C   ACE C   0      18.231  19.654  35.048  1.00 12.10 LIG 0.21  C 
ATOM     17  CH3 ACE C   0      19.659  19.447  34.634  1.00 13.09 LIG 0.12  C 
ATOM     18 O    ACE C   0      17.769  19.137  36.066  1.00 13.69 LIG-0.27  OA
ENDBRANCH 6 14
ENDBRANCH 4 6
ENDBRANCH 1 2
BRANCH 1 19
ATOM     19  C   HIS C   2      13.407  19.153  31.298  1.00  9.05 LIG 0.24  C 
ATOM     20  N   ALA C   3      13.115  20.445  31.256  1.00  9.24 LIG-0.35  N 
ATOM     21 H    ALA C   3      13.687  21.079  31.359  1.00  9.24 LIG 0.16  HD
ATOM     22 O    HIS C   2      12.551  18.281  31.210  1.00  8.29 LIG-0.27  OA
BRANCH 20 23
ATOM     23  CA  ALA C   3      11.742  20.884  31.022  1.00  8.91 LIG 0.17  C 
ATOM     24  CB  ALA C   3      10.930  20.803  32.304  1.00  9.99 LIG 0.04  C 
BRANCH 23 25
ATOM     25  C   ALA C   3      11.731  22.315  30.481  1.00  9.36 LIG 0.24  C 
ATOM     26  N   ALA C   4      12.907  22.928  30.420  1.00  9.08 LIG-0.35  N 
ATOM     27 H    ALA C   4      13.659  22.539  30.570  1.00  9.08 LIG 0.16  HD
ATOM     28 O    ALA C   3      10.677  22.844  30.103  1.00  9.90 LIG-0.27  OA
BRANCH 26 29
ATOM     29  CA  ALA C   4      13.018  24.347  30.086  1.00  9.70 LIG 0.18  C 
ATOM     30  CB  ALA C   4      14.377  24.872  30.486  1.00  9.53 LIG 0.04  C 
BRANCH 29 31
ATOM     31  C   ALA C   4      12.762  24.655  28.622  1.00 11.00 LIG 0.28  C 
ATOM     32  N   NH2 C   5      12.762  25.933  28.266  1.00 10.22 LIG-0.11  N 
ATOM     33 O    ALA C   4      12.534  23.742  27.842  1.00 13.70 LIG-0.27  OA
ENDBRANCH 29 31
ENDBRANCH 26 29
ENDBRANCH 23 25
ENDBRANCH 20 23
ENDBRANCH 1 19
BRANCH 1 34
ATOM     34  CB  HIS C   2      14.954  17.332  31.885  1.00 12.23 LIG 0.10  C 
BRANCH 34 35
ATOM     35  CG  HIS C   2      15.767  16.445  31.004  1.00 15.24 LIG 0.06  A 
ATOM     36 ND1  HIS C   2      15.885  16.654  29.648  1.00 17.16 LIG-0.24  NA
ATOM     37  CE1 HIS C   2      16.659  15.718  29.128  1.00 17.55 LIG 0.23  A 
ATOM     38 NE2  HIS C   2      17.047  14.911  30.098  1.00 18.01 LIG-0.25  NA
ATOM     39  CD2 HIS C   2      16.504  15.345  31.282  1.00 16.53 LIG 0.14  A 
ENDBRANCH 34 35
ENDBRANCH 1 34
TORSDOF 12
ENDMDL
MODEL 110
USER: ADFR SOLUTION from run 197
USER: SCORE 11.726074 LL:  -2.995 LR:  -9.382 RR:   0.000 FEB:  -5.802
USER: RMSD 6.840116
USER: SEED 196
USER: STATUS no improvement in best in 34 clusters for 5 generations
USER: GENES 14
USER: genes 0 Translation |==|  0.18240 0.61181 0.36539
USER: genes 1 Rotation |==|  0.71428 0.22247 0.45629 0.85377
USER: genes 2 Torsion [CB]-CA--N-[C] |==|  0.87108
USER: genes 3 Torsion [N]-C--CA-[N] |==|  0.44985
USER: genes 4 Torsion [C]-CA--CB-[CG] |==|  0.27287
USER: genes 5 Torsion [CA]-CB--CG-[CD1] |==|  0.63241
USER: genes 6 Torsion [C]-CA--N-[C] |==|  0.81057
USER: genes 7 Torsion [N]-CA--C-[N] |==|  0.35456
USER: genes 8 Torsion [C]-N--CA-[CB] |==|  0.87217
USER: genes 9 Torsion [N]-CA--C-[N] |==|  0.93785
USER: genes 10 Torsion [C]-N--CA-[C] |==|  0.73709
USER: genes 11 Torsion [N]-CA--C-[N] |==|  0.05556
USER: genes 12 Torsion [N]-CA--CB-[CG] |==|  0.86727
USER: genes 13 Torsion [CA]-CB--CG-[CD2] |==|  0.37876
ROOT
ATOM      1  CA  HIS C   2       7.294  24.036  28.236  1.00 10.06 LIG 0.18  C 
ENDROOT
BRANCH 1 2
ATOM      2  N   HIS C   2       8.062  22.798  28.364  1.00  9.48 LIG-0.35  N 
ATOM      3 H    HIS C   2       8.048  22.303  27.660  1.00  9.48 LIG 0.16  HD
ATOM      4  C   PHE C   1       8.717  22.477  29.471  1.00  9.37 LIG 0.24  C 
ATOM      5 O    PHE C   1       8.803  23.219  30.444  1.00 11.27 LIG-0.27  OA
BRANCH 4 6
ATOM      6  CA  PHE C   1       9.351  21.102  29.488  1.00  8.68 LIG 0.18  C 
BRANCH 6 7
ATOM      7  CB  PHE C   1       8.253  20.065  29.717  1.00  8.30 LIG 0.07  C 
BRANCH 7 8
ATOM      8  CG  PHE C   1       7.769  19.410  28.457  1.00  6.80 LIG-0.06  A 
ATOM      9  CD1 PHE C   1       6.410  19.287  28.199  1.00  6.68 LIG 0.01  A 
ATOM     10  CE1 PHE C   1       5.971  18.693  27.030  1.00  6.85 LIG 0.00  A 
ATOM     11  CZ  PHE C   1       6.879  18.204  26.118  1.00  6.56 LIG 0.00  A 
ATOM     12  CE2 PHE C   1       8.235  18.315  26.361  1.00  6.82 LIG 0.00  A 
ATOM     13  CD2 PHE C   1       8.674  18.920  27.527  1.00  7.43 LIG 0.01  A 
ENDBRANCH 7 8
ENDBRANCH 6 7
BRANCH 6 14
ATOM     14  N   PHE C   1      10.378  21.005  30.528  1.00  9.64 LIG-0.35  N 
ATOM     15 H    PHE C   1      10.177  20.480  31.179  1.00  9.64 LIG 0.16  HD
ATOM     16  C   ACE C   0      11.517  21.684  30.445  1.00 12.10 LIG 0.21  C 
ATOM     17  CH3 ACE C   0      12.455  21.550  31.610  1.00 13.09 LIG 0.12  C 
ATOM     18 O    ACE C   0      11.782  22.399  29.479  1.00 13.69 LIG-0.27  OA
ENDBRANCH 6 14
ENDBRANCH 4 6
ENDBRANCH 1 2
BRANCH 1 19
ATOM     19  C   HIS C   2       8.248  25.206  28.127  1.00  9.05 LIG 0.24  C 
ATOM     20  N   ALA C   3       8.071  26.028  27.103  1.00  9.24 LIG-0.35  N 
ATOM     21 H    ALA C   3       7.506  25.903  26.467  1.00  9.24 LIG 0.16  HD
ATOM     22 O    HIS C   2       9.110  25.389  28.978  1.00  8.29 LIG-0.27  OA
BRANCH 20 23
ATOM     23  CA  ALA C   3       8.863  27.250  26.993  1.00  8.91 LIG 0.17  C 
ATOM     24  CB  ALA C   3       8.908  27.979  28.325  1.00  9.99 LIG 0.04  C 
BRANCH 23 25
ATOM     25  C   ALA C   3      10.282  26.918  26.526  1.00  9.36 LIG 0.24  C 
ATOM     26  N   ALA C   4      10.695  25.675  26.743  1.00  9.08 LIG-0.35  N 
ATOM     27 H    ALA C   4      10.186  25.044  27.032  1.00  9.08 LIG 0.16  HD
ATOM     28 O    ALA C   3      10.980  27.768  25.957  1.00  9.90 LIG-0.27  OA
BRANCH 26 29
ATOM     29  CA  ALA C   4      12.080  25.272  26.504  1.00  9.70 LIG 0.18  C 
ATOM     30  CB  ALA C   4      12.534  24.307  27.574  1.00  9.53 LIG 0.04  C 
BRANCH 29 31
ATOM     31  C   ALA C   4      12.315  24.663  25.134  1.00 11.00 LIG 0.28  C 
ATOM     32  N   NH2 C   5      11.415  24.925  24.196  1.00 10.22 LIG-0.11  N 
ATOM     33 O    ALA C   4      13.284  23.940  24.951  1.00 13.70 LIG-0.27  OA
ENDBRANCH 29 31
ENDBRANCH 26 29
ENDBRANCH 23 25
ENDBRANCH 20 23
ENDBRANCH 1 19
BRANCH 1 34
ATOM     34  CB  HIS C   2       6.407  24.271  29.465  1.00 12.23 LIG 0.10  C 
BRANCH 34 35
ATOM     35  CG  HIS C   2       5.616  23.079  29.884  1.00 15.24 LIG 0.06  A 
ATOM     36 ND1  HIS C   2       4.955  22.274  28.983  1.00 17.16 LIG-0.24  NA
ATOM     37  CE1 HIS C   2       4.340  21.302  29.634  1.00 17.55 LIG 0.23  A 
ATOM     38 NE2  HIS C   2       4.581  21.448  30.924  1.00 18.01 LIG-0.25  NA
ATOM     39  CD2 HIS C   2       5.377  22.551  31.107  1.00 16.53 LIG 0.14  A 
ENDBRANCH 34 35
ENDBRANCH 1 34
TORSDOF 12
ENDMDL
MODEL 111
USER: ADFR SOLUTION from run 95
USER: SCORE 10.558396 LL:  -2.720 LR:  -9.365 RR:   0.000 FEB:  -5.786
USER: RMSD 10.018829
USER: SEED 94
USER: STATUS no improvement in best in 22 clusters for 5 generations
USER: GENES 14
USER: genes 0 Translation |==|  0.25740 0.51109 0.37853
USER: genes 1 Rotation |==|  0.93142 0.62208 0.27870 0.50126
USER: genes 2 Torsion [CB]-CA--N-[C] |==|  0.52662
USER: genes 3 Torsion [N]-C--CA-[N] |==|  0.89451
USER: genes 4 Torsion [C]-CA--CB-[CG] |==|  0.46053
USER: genes 5 Torsion [CA]-CB--CG-[CD1] |==|  0.47612
USER: genes 6 Torsion [C]-CA--N-[C] |==|  0.82224
USER: genes 7 Torsion [N]-CA--C-[N] |==|  0.86101
USER: genes 8 Torsion [C]-N--CA-[CB] |==|  0.85478
USER: genes 9 Torsion [N]-CA--C-[N] |==|  0.42092
USER: genes 10 Torsion [C]-N--CA-[C] |==|  0.56517
USER: genes 11 Torsion [N]-CA--C-[N] |==|  0.47492
USER: genes 12 Torsion [N]-CA--CB-[CG] |==|  0.58706
USER: genes 13 Torsion [CA]-CB--CG-[CD2] |==|  0.88660
ROOT
ATOM      1  CA  HIS C   2       8.531  21.921  28.492  1.00 10.06 LIG 0.18  C 
ENDROOT
BRANCH 1 2
ATOM      2  N   HIS C   2       8.698  23.227  27.856  1.00  9.48 LIG-0.35  N 
ATOM      3 H    HIS C   2       8.783  23.191  27.001  1.00  9.48 LIG 0.16  HD
ATOM      4  C   PHE C   1       8.715  24.360  28.546  1.00  9.37 LIG 0.24  C 
ATOM      5 O    PHE C   1       8.513  24.416  29.754  1.00 11.27 LIG-0.27  OA
BRANCH 4 6
ATOM      6  CA  PHE C   1       9.030  25.610  27.754  1.00  8.68 LIG 0.18  C 
BRANCH 6 7
ATOM      7  CB  PHE C   1       7.740  26.111  27.106  1.00  8.30 LIG 0.07  C 
BRANCH 7 8
ATOM      8  CG  PHE C   1       7.834  27.511  26.577  1.00  6.80 LIG-0.06  A 
ATOM      9  CD1 PHE C   1       6.813  28.049  25.805  1.00  6.68 LIG 0.01  A 
ATOM     10  CE1 PHE C   1       6.901  29.344  25.331  1.00  6.85 LIG 0.00  A 
ATOM     11  CZ  PHE C   1       8.012  30.109  25.607  1.00  6.56 LIG 0.00  A 
ATOM     12  CE2 PHE C   1       9.040  29.589  26.371  1.00  6.82 LIG 0.00  A 
ATOM     13  CD2 PHE C   1       8.945  28.295  26.855  1.00  7.43 LIG 0.01  A 
ENDBRANCH 7 8
ENDBRANCH 6 7
BRANCH 6 14
ATOM     14  N   PHE C   1      10.052  25.351  26.737  1.00  9.64 LIG-0.35  N 
ATOM     15 H    PHE C   1       9.780  25.449  25.926  1.00  9.64 LIG 0.16  HD
ATOM     16  C   ACE C   0      11.288  24.994  27.069  1.00 12.10 LIG 0.21  C 
ATOM     17  CH3 ACE C   0      12.218  24.691  25.930  1.00 13.09 LIG 0.12  C 
ATOM     18 O    ACE C   0      11.646  24.899  28.243  1.00 13.69 LIG-0.27  OA
ENDBRANCH 6 14
ENDBRANCH 4 6
ENDBRANCH 1 2
BRANCH 1 19
ATOM     19  C   HIS C   2       9.535  21.783  29.617  1.00  9.05 LIG 0.24  C 
ATOM     20  N   ALA C   3      10.798  22.064  29.328  1.00  9.24 LIG-0.35  N 
ATOM     21 H    ALA C   3      11.091  22.246  28.540  1.00  9.24 LIG 0.16  HD
ATOM     22 O    HIS C   2       9.171  21.466  30.743  1.00  8.29 LIG-0.27  OA
BRANCH 20 23
ATOM     23  CA  ALA C   3      11.809  22.081  30.382  1.00  8.91 LIG 0.17  C 
ATOM     24  CB  ALA C   3      11.367  22.972  31.531  1.00  9.99 LIG 0.04  C 
BRANCH 23 25
ATOM     25  C   ALA C   3      12.068  20.660  30.887  1.00  9.36 LIG 0.24  C 
ATOM     26  N   ALA C   4      13.282  20.422  31.369  1.00  9.08 LIG-0.35  N 
ATOM     27 H    ALA C   4      13.875  21.031  31.499  1.00  9.08 LIG 0.16  HD
ATOM     28 O    ALA C   3      11.175  19.803  30.861  1.00  9.90 LIG-0.27  OA
BRANCH 26 29
ATOM     29  CA  ALA C   4      13.716  19.072  31.724  1.00  9.70 LIG 0.18  C 
ATOM     30  CB  ALA C   4      14.124  18.313  30.483  1.00  9.53 LIG 0.04  C 
BRANCH 29 31
ATOM     31  C   ALA C   4      14.844  19.036  32.739  1.00 11.00 LIG 0.28  C 
ATOM     32  N   NH2 C   5      15.162  17.852  33.244  1.00 10.22 LIG-0.11  N 
ATOM     33 O    ALA C   4      15.388  20.077  33.077  1.00 13.70 LIG-0.27  OA
ENDBRANCH 29 31
ENDBRANCH 26 29
ENDBRANCH 23 25
ENDBRANCH 20 23
ENDBRANCH 1 19
BRANCH 1 34
ATOM     34  CB  HIS C   2       8.784  20.781  27.499  1.00 12.23 LIG 0.10  C 
BRANCH 34 35
ATOM     35  CG  HIS C   2       7.983  19.551  27.763  1.00 15.24 LIG 0.06  A 
ATOM     36 ND1  HIS C   2       7.402  18.814  26.755  1.00 17.16 LIG-0.24  NA
ATOM     37  CE1 HIS C   2       6.758  17.787  27.280  1.00 17.55 LIG 0.23  A 
ATOM     38 NE2  HIS C   2       6.900  17.832  28.592  1.00 18.01 LIG-0.25  NA
ATOM     39  CD2 HIS C   2       7.663  18.925  28.919  1.00 16.53 LIG 0.14  A 
ENDBRANCH 34 35
ENDBRANCH 1 34
TORSDOF 12
ENDMDL
MODEL 112
USER: ADFR SOLUTION from run 54
USER: SCORE 10.249123 LL:  -2.633 LR:  -9.370 RR:   0.000 FEB:  -5.790
USER: RMSD 8.297729
USER: SEED 53
USER: STATUS no improvement in best in 13 clusters for 5 generations
USER: GENES 14
USER: genes 0 Translation |==|  0.41838 0.46858 0.47829
USER: genes 1 Rotation |==|  0.46908 0.06791 0.26592 0.58689
USER: genes 2 Torsion [CB]-CA--N-[C] |==|  0.21111
USER: genes 3 Torsion [N]-C--CA-[N] |==|  0.83585
USER: genes 4 Torsion [C]-CA--CB-[CG] |==|  0.64784
USER: genes 5 Torsion [CA]-CB--CG-[CD1] |==|  0.79925
USER: genes 6 Torsion [C]-CA--N-[C] |==|  0.68064
USER: genes 7 Torsion [N]-CA--C-[N] |==|  0.46322
USER: genes 8 Torsion [C]-N--CA-[CB] |==|  0.87371
USER: genes 9 Torsion [N]-CA--C-[N] |==|  0.39305
USER: genes 10 Torsion [C]-N--CA-[C] |==|  0.14758
USER: genes 11 Torsion [N]-CA--C-[N] |==|  0.08084
USER: genes 12 Torsion [N]-CA--CB-[CG] |==|  0.58133
USER: genes 13 Torsion [CA]-CB--CG-[CD2] |==|  0.17779
ROOT
ATOM      1  CA  HIS C   2      11.187  21.028  30.438  1.00 10.06 LIG 0.18  C 
ENDROOT
BRANCH 1 2
ATOM      2  N   HIS C   2       9.899  20.419  30.107  1.00  9.48 LIG-0.35  N 
ATOM      3 H    HIS C   2       9.719  19.713  30.564  1.00  9.48 LIG 0.16  HD
ATOM      4  C   PHE C   1       9.090  20.920  29.183  1.00  9.37 LIG 0.24  C 
ATOM      5 O    PHE C   1       9.311  21.970  28.590  1.00 11.27 LIG-0.27  OA
BRANCH 4 6
ATOM      6  CA  PHE C   1       7.859  20.098  28.868  1.00  8.68 LIG 0.18  C 
BRANCH 6 7
ATOM      7  CB  PHE C   1       6.998  20.011  30.128  1.00  8.30 LIG 0.07  C 
BRANCH 7 8
ATOM      8  CG  PHE C   1       6.641  18.608  30.520  1.00  6.80 LIG-0.06  A 
ATOM      9  CD1 PHE C   1       5.719  17.878  29.782  1.00  6.68 LIG 0.01  A 
ATOM     10  CE1 PHE C   1       5.403  16.581  30.142  1.00  6.85 LIG 0.00  A 
ATOM     11  CZ  PHE C   1       5.991  16.006  31.247  1.00  6.56 LIG 0.00  A 
ATOM     12  CE2 PHE C   1       6.909  16.720  31.995  1.00  6.82 LIG 0.00  A 
ATOM     13  CD2 PHE C   1       7.232  18.015  31.626  1.00  7.43 LIG 0.01  A 
ENDBRANCH 7 8
ENDBRANCH 6 7
BRANCH 6 14
ATOM     14  N   PHE C   1       8.223  18.758  28.399  1.00  9.64 LIG-0.35  N 
ATOM     15 H    PHE C   1       8.619  18.270  28.986  1.00  9.64 LIG 0.16  HD
ATOM     16  C   ACE C   0       7.949  18.358  27.161  1.00 12.10 LIG 0.21  C 
ATOM     17  CH3 ACE C   0       8.436  16.988  26.785  1.00 13.09 LIG 0.12  C 
ATOM     18 O    ACE C   0       7.349  19.075  26.361  1.00 13.69 LIG-0.27  OA
ENDBRANCH 6 14
ENDBRANCH 4 6
ENDBRANCH 1 2
BRANCH 1 19
ATOM     19  C   HIS C   2      12.013  20.045  31.239  1.00  9.05 LIG 0.24  C 
ATOM     20  N   ALA C   3      13.299  20.327  31.389  1.00  9.24 LIG-0.35  N 
ATOM     21 H    ALA C   3      13.704  20.981  31.007  1.00  9.24 LIG 0.16  HD
ATOM     22 O    HIS C   2      11.489  19.063  31.753  1.00  8.29 LIG-0.27  OA
BRANCH 20 23
ATOM     23  CA  ALA C   3      14.138  19.501  32.253  1.00  8.91 LIG 0.17  C 
ATOM     24  CB  ALA C   3      13.437  19.222  33.571  1.00  9.99 LIG 0.04  C 
BRANCH 23 25
ATOM     25  C   ALA C   3      14.484  18.186  31.552  1.00  9.36 LIG 0.24  C 
ATOM     26  N   ALA C   4      15.717  17.729  31.739  1.00  9.08 LIG-0.35  N 
ATOM     27 H    ALA C   4      16.277  18.071  32.295  1.00  9.08 LIG 0.16  HD
ATOM     28 O    ALA C   3      13.641  17.585  30.873  1.00  9.90 LIG-0.27  OA
BRANCH 26 29
ATOM     29  CA  ALA C   4      16.232  16.580  30.994  1.00  9.70 LIG 0.18  C 
ATOM     30  CB  ALA C   4      15.553  15.313  31.460  1.00  9.53 LIG 0.04  C 
BRANCH 29 31
ATOM     31  C   ALA C   4      16.093  16.711  29.489  1.00 11.00 LIG 0.28  C 
ATOM     32  N   NH2 C   5      16.116  17.938  28.986  1.00 10.22 LIG-0.11  N 
ATOM     33 O    ALA C   4      15.933  15.709  28.806  1.00 13.70 LIG-0.27  OA
ENDBRANCH 29 31
ENDBRANCH 26 29
ENDBRANCH 23 25
ENDBRANCH 20 23
ENDBRANCH 1 19
BRANCH 1 34
ATOM     34  CB  HIS C   2      11.005  22.289  31.292  1.00 12.23 LIG 0.10  C 
BRANCH 34 35
ATOM     35  CG  HIS C   2      12.075  23.310  31.110  1.00 15.24 LIG 0.06  A 
ATOM     36 ND1  HIS C   2      12.929  23.678  32.126  1.00 17.16 LIG-0.24  NA
ATOM     37  CE1 HIS C   2      13.769  24.596  31.681  1.00 17.55 LIG 0.23  A 
ATOM     38 NE2  HIS C   2      13.489  24.836  30.413  1.00 18.01 LIG-0.25  NA
ATOM     39  CD2 HIS C   2      12.435  24.044  30.031  1.00 16.53 LIG 0.14  A 
ENDBRANCH 34 35
ENDBRANCH 1 34
TORSDOF 12
ENDMDL
MODEL 113
USER: ADFR SOLUTION from run 3
USER: SCORE 10.693970 LL:  -2.791 LR:  -9.373 RR:   0.000 FEB:  -5.794
USER: RMSD 4.527511
USER: SEED 847911
USER: STATUS no improvement in best in 11 clusters for 5 generations
USER: GENES 14
USER: genes 0 Translation |==|  0.64135 0.42488 0.69682
USER: genes 1 Rotation |==|  0.40711 0.70313 0.33490 0.91575
USER: genes 2 Torsion [CB]-CA--N-[C] |==|  0.88333
USER: genes 3 Torsion [N]-C--CA-[N] |==|  0.01165
USER: genes 4 Torsion [C]-CA--CB-[CG] |==|  0.19490
USER: genes 5 Torsion [CA]-CB--CG-[CD1] |==|  0.22576
USER: genes 6 Torsion [C]-CA--N-[C] |==|  0.20391
USER: genes 7 Torsion [N]-CA--C-[N] |==|  0.87093
USER: genes 8 Torsion [C]-N--CA-[CB] |==|  0.82678
USER: genes 9 Torsion [N]-CA--C-[N] |==|  0.13928
USER: genes 10 Torsion [C]-N--CA-[C] |==|  0.73730
USER: genes 11 Torsion [N]-CA--C-[N] |==|  0.45289
USER: genes 12 Torsion [N]-CA--CB-[CG] |==|  0.85475
USER: genes 13 Torsion [CA]-CB--CG-[CD2] |==|  0.46132
ROOT
ATOM      1  CA  HIS C   2      14.866  20.111  34.699  1.00 10.06 LIG 0.18  C 
ENDROOT
BRANCH 1 2
ATOM      2  N   HIS C   2      14.972  18.654  34.611  1.00  9.48 LIG-0.35  N 
ATOM      3 H    HIS C   2      14.706  18.241  35.316  1.00  9.48 LIG 0.16  HD
ATOM      4  C   PHE C   1      15.439  18.038  33.533  1.00  9.37 LIG 0.24  C 
ATOM      5 O    PHE C   1      15.742  18.623  32.499  1.00 11.27 LIG-0.27  OA
BRANCH 4 6
ATOM      6  CA  PHE C   1      15.608  16.538  33.652  1.00  8.68 LIG 0.18  C 
BRANCH 6 7
ATOM      7  CB  PHE C   1      14.855  15.873  32.501  1.00  8.30 LIG 0.07  C 
BRANCH 7 8
ATOM      8  CG  PHE C   1      15.488  16.090  31.159  1.00  6.80 LIG-0.06  A 
ATOM      9  CD1 PHE C   1      16.562  15.313  30.747  1.00  6.68 LIG 0.01  A 
ATOM     10  CE1 PHE C   1      17.133  15.511  29.504  1.00  6.85 LIG 0.00  A 
ATOM     11  CZ  PHE C   1      16.651  16.493  28.668  1.00  6.56 LIG 0.00  A 
ATOM     12  CE2 PHE C   1      15.584  17.278  29.064  1.00  6.82 LIG 0.00  A 
ATOM     13  CD2 PHE C   1      15.006  17.072  30.305  1.00  7.43 LIG 0.01  A 
ENDBRANCH 7 8
ENDBRANCH 6 7
BRANCH 6 14
ATOM     14  N   PHE C   1      15.115  16.050  34.943  1.00  9.64 LIG-0.35  N 
ATOM     15 H    PHE C   1      15.732  15.823  35.497  1.00  9.64 LIG 0.16  HD
ATOM     16  C   ACE C   0      13.815  15.975  35.206  1.00 12.10 LIG 0.21  C 
ATOM     17  CH3 ACE C   0      13.441  15.393  36.539  1.00 13.09 LIG 0.12  C 
ATOM     18 O    ACE C   0      12.962  16.343  34.398  1.00 13.69 LIG-0.27  OA
ENDBRANCH 6 14
ENDBRANCH 4 6
ENDBRANCH 1 2
BRANCH 1 19
ATOM     19  C   HIS C   2      13.664  20.572  33.904  1.00  9.05 LIG 0.24  C 
ATOM     20  N   ALA C   3      13.517  20.060  32.690  1.00  9.24 LIG-0.35  N 
ATOM     21 H    ALA C   3      14.089  19.548  32.303  1.00  9.24 LIG 0.16  HD
ATOM     22 O    HIS C   2      12.853  21.350  34.393  1.00  8.29 LIG-0.27  OA
BRANCH 20 23
ATOM     23  CA  ALA C   3      12.319  20.351  31.907  1.00  8.91 LIG 0.17  C 
ATOM     24  CB  ALA C   3      11.080  19.821  32.608  1.00  9.99 LIG 0.04  C 
BRANCH 23 25
ATOM     25  C   ALA C   3      12.191  21.859  31.681  1.00  9.36 LIG 0.24  C 
ATOM     26  N   ALA C   4      13.273  22.476  31.218  1.00  9.08 LIG-0.35  N 
ATOM     27 H    ALA C   4      13.982  22.068  30.953  1.00  9.08 LIG 0.16  HD
ATOM     28 O    ALA C   3      11.124  22.447  31.901  1.00  9.90 LIG-0.27  OA
BRANCH 26 29
ATOM     29  CA  ALA C   4      13.342  23.933  31.119  1.00  9.70 LIG 0.18  C 
ATOM     30  CB  ALA C   4      14.727  24.414  31.489  1.00  9.53 LIG 0.04  C 
BRANCH 29 31
ATOM     31  C   ALA C   4      12.960  24.476  29.754  1.00 11.00 LIG 0.28  C 
ATOM     32  N   NH2 C   5      12.665  25.766  29.680  1.00 10.22 LIG-0.11  N 
ATOM     33 O    ALA C   4      12.905  23.718  28.796  1.00 13.70 LIG-0.27  OA
ENDBRANCH 29 31
ENDBRANCH 26 29
ENDBRANCH 23 25
ENDBRANCH 20 23
ENDBRANCH 1 19
BRANCH 1 34
ATOM     34  CB  HIS C   2      16.105  20.796  34.110  1.00 12.23 LIG 0.10  C 
BRANCH 34 35
ATOM     35  CG  HIS C   2      17.398  20.300  34.663  1.00 15.24 LIG 0.06  A 
ATOM     36 ND1  HIS C   2      17.470  19.526  35.800  1.00 17.16 LIG-0.24  NA
ATOM     37  CE1 HIS C   2      18.734  19.237  36.053  1.00 17.55 LIG 0.23  A 
ATOM     38 NE2  HIS C   2      19.484  19.795  35.120  1.00 18.01 LIG-0.25  NA
ATOM     39  CD2 HIS C   2      18.672  20.464  34.238  1.00 16.53 LIG 0.14  A 
ENDBRANCH 34 35
ENDBRANCH 1 34
TORSDOF 12
ENDMDL
MODEL 114
USER: ADFR SOLUTION from run 75
USER: SCORE 11.542553 LL:  -2.931 LR:  -9.359 RR:   0.000 FEB:  -5.780
USER: RMSD 7.278515
USER: SEED 74
USER: STATUS no improvement in best in 15 clusters for 5 generations
USER: GENES 14
USER: genes 0 Translation |==|  0.58501 0.39287 0.55475
USER: genes 1 Rotation |==|  0.76883 0.08557 0.50106 0.57732
USER: genes 2 Torsion [CB]-CA--N-[C] |==|  0.55557
USER: genes 3 Torsion [N]-C--CA-[N] |==|  0.97315
USER: genes 4 Torsion [C]-CA--CB-[CG] |==|  0.82098
USER: genes 5 Torsion [CA]-CB--CG-[CD1] |==|  0.15515
USER: genes 6 Torsion [C]-CA--N-[C] |==|  0.76431
USER: genes 7 Torsion [N]-CA--C-[N] |==|  0.34681
USER: genes 8 Torsion [C]-N--CA-[CB] |==|  0.87984
USER: genes 9 Torsion [N]-CA--C-[N] |==|  0.90049
USER: genes 10 Torsion [C]-N--CA-[C] |==|  0.73830
USER: genes 11 Torsion [N]-CA--C-[N] |==|  0.00923
USER: genes 12 Torsion [N]-CA--CB-[CG] |==|  0.55075
USER: genes 13 Torsion [CA]-CB--CG-[CD2] |==|  0.49460
ROOT
ATOM      1  CA  HIS C   2      13.937  19.438  31.929  1.00 10.06 LIG 0.18  C 
ENDROOT
BRANCH 1 2
ATOM      2  N   HIS C   2      14.369  18.050  32.090  1.00  9.48 LIG-0.35  N 
ATOM      3 H    HIS C   2      13.837  17.475  31.737  1.00  9.48 LIG 0.16  HD
ATOM      4  C   PHE C   1      15.485  17.721  32.727  1.00  9.37 LIG 0.24  C 
ATOM      5 O    PHE C   1      16.284  18.545  33.159  1.00 11.27 LIG-0.27  OA
BRANCH 4 6
ATOM      6  CA  PHE C   1      15.721  16.239  32.922  1.00  8.68 LIG 0.18  C 
BRANCH 6 7
ATOM      7  CB  PHE C   1      16.920  15.822  32.072  1.00  8.30 LIG 0.07  C 
BRANCH 7 8
ATOM      8  CG  PHE C   1      16.694  15.970  30.597  1.00  6.80 LIG-0.06  A 
ATOM      9  CD1 PHE C   1      16.318  17.191  30.055  1.00  6.68 LIG 0.01  A 
ATOM     10  CE1 PHE C   1      16.123  17.323  28.693  1.00  6.85 LIG 0.00  A 
ATOM     11  CZ  PHE C   1      16.287  16.237  27.861  1.00  6.56 LIG 0.00  A 
ATOM     12  CE2 PHE C   1      16.659  15.013  28.384  1.00  6.82 LIG 0.00  A 
ATOM     13  CD2 PHE C   1      16.864  14.885  29.748  1.00  7.43 LIG 0.01  A 
ENDBRANCH 7 8
ENDBRANCH 6 7
BRANCH 6 14
ATOM     14  N   PHE C   1      14.534  15.461  32.557  1.00  9.64 LIG-0.35  N 
ATOM     15 H    PHE C   1      14.541  15.158  31.752  1.00  9.64 LIG 0.16  HD
ATOM     16  C   ACE C   0      13.544  15.258  33.419  1.00 12.10 LIG 0.21  C 
ATOM     17  CH3 ACE C   0      12.355  14.503  32.898  1.00 13.09 LIG 0.12  C 
ATOM     18 O    ACE C   0      13.588  15.680  34.575  1.00 13.69 LIG-0.27  OA
ENDBRANCH 6 14
ENDBRANCH 4 6
ENDBRANCH 1 2
BRANCH 1 19
ATOM     19  C   HIS C   2      14.181  20.190  33.220  1.00  9.05 LIG 0.24  C 
ATOM     20  N   ALA C   3      14.916  21.290  33.140  1.00  9.24 LIG-0.35  N 
ATOM     21 H    ALA C   3      15.317  21.560  32.430  1.00  9.24 LIG 0.16  HD
ATOM     22 O    HIS C   2      13.679  19.807  34.269  1.00  8.29 LIG-0.27  OA
BRANCH 20 23
ATOM     23  CA  ALA C   3      15.094  22.143  34.312  1.00  8.91 LIG 0.17  C 
ATOM     24  CB  ALA C   3      13.776  22.324  35.046  1.00  9.99 LIG 0.04  C 
BRANCH 23 25
ATOM     25  C   ALA C   3      16.141  21.539  35.251  1.00  9.36 LIG 0.24  C 
ATOM     26  N   ALA C   4      16.157  20.214  35.334  1.00  9.08 LIG-0.35  N 
ATOM     27 H    ALA C   4      15.693  19.695  34.829  1.00  9.08 LIG 0.16  HD
ATOM     28 O    ALA C   3      16.934  22.262  35.869  1.00  9.90 LIG-0.27  OA
BRANCH 26 29
ATOM     29  CA  ALA C   4      16.986  19.517  36.316  1.00  9.70 LIG 0.18  C 
ATOM     30  CB  ALA C   4      16.250  18.313  36.858  1.00  9.53 LIG 0.04  C 
BRANCH 29 31
ATOM     31  C   ALA C   4      18.342  19.089  35.784  1.00 11.00 LIG 0.28  C 
ATOM     32  N   NH2 C   5      18.642  19.448  34.543  1.00 10.22 LIG-0.11  N 
ATOM     33 O    ALA C   4      19.083  18.416  36.485  1.00 13.70 LIG-0.27  OA
ENDBRANCH 29 31
ENDBRANCH 26 29
ENDBRANCH 23 25
ENDBRANCH 20 23
ENDBRANCH 1 19
BRANCH 1 34
ATOM     34  CB  HIS C   2      12.437  19.522  31.617  1.00 12.23 LIG 0.10  C 
BRANCH 34 35
ATOM     35  CG  HIS C   2      12.008  20.821  31.025  1.00 15.24 LIG 0.06  A 
ATOM     36 ND1  HIS C   2      12.881  21.865  30.817  1.00 17.16 LIG-0.24  NA
ATOM     37  CE1 HIS C   2      12.227  22.883  30.285  1.00 17.55 LIG 0.23  A 
ATOM     38 NE2  HIS C   2      10.961  22.535  30.141  1.00 18.01 LIG-0.25  NA
ATOM     39  CD2 HIS C   2      10.799  21.249  30.595  1.00 16.53 LIG 0.14  A 
ENDBRANCH 34 35
ENDBRANCH 1 34
TORSDOF 12
ENDMDL
MODEL 115
USER: ADFR SOLUTION from run 160
USER: SCORE 10.552933 LL:  -2.822 LR:  -9.347 RR:   0.000 FEB:  -5.767
USER: RMSD 2.427705
USER: SEED 159
USER: STATUS no improvement in best in 19 clusters for 5 generations
USER: GENES 14
USER: genes 0 Translation |==|  0.46453 0.54623 0.47391
USER: genes 1 Rotation |==|  0.60051 0.28554 0.52311 0.93974
USER: genes 2 Torsion [CB]-CA--N-[C] |==|  0.27219
USER: genes 3 Torsion [N]-C--CA-[N] |==|  0.26158
USER: genes 4 Torsion [C]-CA--CB-[CG] |==|  0.39578
USER: genes 5 Torsion [CA]-CB--CG-[CD1] |==|  0.76765
USER: genes 6 Torsion [C]-CA--N-[C] |==|  0.74648
USER: genes 7 Torsion [N]-CA--C-[N] |==|  0.34855
USER: genes 8 Torsion [C]-N--CA-[CB] |==|  0.54444
USER: genes 9 Torsion [N]-CA--C-[N] |==|  0.39763
USER: genes 10 Torsion [C]-N--CA-[C] |==|  0.78908
USER: genes 11 Torsion [N]-CA--C-[N] |==|  0.41439
USER: genes 12 Torsion [N]-CA--CB-[CG] |==|  0.05740
USER: genes 13 Torsion [CA]-CB--CG-[CD2] |==|  0.67378
ROOT
ATOM      1  CA  HIS C   2      11.949  22.659  30.352  1.00 10.06 LIG 0.18  C 
ENDROOT
BRANCH 1 2
ATOM      2  N   HIS C   2      12.910  21.704  30.903  1.00  9.48 LIG-0.35  N 
ATOM      3 H    HIS C   2      13.700  22.025  31.010  1.00  9.48 LIG 0.16  HD
ATOM      4  C   PHE C   1      12.580  20.455  31.206  1.00  9.37 LIG 0.24  C 
ATOM      5 O    PHE C   1      11.435  20.022  31.129  1.00 11.27 LIG-0.27  OA
BRANCH 4 6
ATOM      6  CA  PHE C   1      13.719  19.558  31.639  1.00  8.68 LIG 0.18  C 
BRANCH 6 7
ATOM      7  CB  PHE C   1      13.461  18.152  31.102  1.00  8.30 LIG 0.07  C 
BRANCH 7 8
ATOM      8  CG  PHE C   1      14.701  17.441  30.647  1.00  6.80 LIG-0.06  A 
ATOM      9  CD1 PHE C   1      15.214  17.654  29.375  1.00  6.68 LIG 0.01  A 
ATOM     10  CE1 PHE C   1      16.365  17.006  28.967  1.00  6.85 LIG 0.00  A 
ATOM     11  CZ  PHE C   1      17.005  16.129  29.815  1.00  6.56 LIG 0.00  A 
ATOM     12  CE2 PHE C   1      16.505  15.903  31.084  1.00  6.82 LIG 0.00  A 
ATOM     13  CD2 PHE C   1      15.359  16.562  31.495  1.00  7.43 LIG 0.01  A 
ENDBRANCH 7 8
ENDBRANCH 6 7
BRANCH 6 14
ATOM     14  N   PHE C   1      13.852  19.537  33.099  1.00  9.64 LIG-0.35  N 
ATOM     15 H    PHE C   1      13.378  18.935  33.490  1.00  9.64 LIG 0.16  HD
ATOM     16  C   ACE C   0      14.645  20.390  33.737  1.00 12.10 LIG 0.21  C 
ATOM     17  CH3 ACE C   0      14.637  20.309  35.236  1.00 13.09 LIG 0.12  C 
ATOM     18 O    ACE C   0      15.334  21.215  33.136  1.00 13.69 LIG-0.27  OA
ENDBRANCH 6 14
ENDBRANCH 4 6
ENDBRANCH 1 2
BRANCH 1 19
ATOM     19  C   HIS C   2      12.646  23.539  29.337  1.00  9.05 LIG 0.24  C 
ATOM     20  N   ALA C   3      12.110  23.595  28.126  1.00  9.24 LIG-0.35  N 
ATOM     21 H    ALA C   3      11.446  23.117  27.862  1.00  9.24 LIG 0.16  HD
ATOM     22 O    HIS C   2      13.634  24.192  29.651  1.00  8.29 LIG-0.27  OA
BRANCH 20 23
ATOM     23  CA  ALA C   3      12.643  24.516  27.126  1.00  8.91 LIG 0.17  C 
ATOM     24  CB  ALA C   3      11.657  24.694  25.984  1.00  9.99 LIG 0.04  C 
BRANCH 23 25
ATOM     25  C   ALA C   3      12.953  25.870  27.769  1.00  9.36 LIG 0.24  C 
ATOM     26  N   ALA C   4      14.035  26.497  27.321  1.00  9.08 LIG-0.35  N 
ATOM     27 H    ALA C   4      14.495  26.236  26.642  1.00  9.08 LIG 0.16  HD
ATOM     28 O    ALA C   3      12.212  26.346  28.639  1.00  9.90 LIG-0.27  OA
BRANCH 26 29
ATOM     29  CA  ALA C   4      14.541  27.710  27.963  1.00  9.70 LIG 0.18  C 
ATOM     30  CB  ALA C   4      15.987  27.933  27.586  1.00  9.53 LIG 0.04  C 
BRANCH 29 31
ATOM     31  C   ALA C   4      13.732  28.955  27.647  1.00 11.00 LIG 0.28  C 
ATOM     32  N   NH2 C   5      13.682  29.893  28.583  1.00 10.22 LIG-0.11  N 
ATOM     33 O    ALA C   4      13.139  29.037  26.582  1.00 13.70 LIG-0.27  OA
ENDBRANCH 29 31
ENDBRANCH 26 29
ENDBRANCH 23 25
ENDBRANCH 20 23
ENDBRANCH 1 19
BRANCH 1 34
ATOM     34  CB  HIS C   2      11.380  23.571  31.447  1.00 12.23 LIG 0.10  C 
BRANCH 34 35
ATOM     35  CG  HIS C   2      12.223  23.650  32.674  1.00 15.24 LIG 0.06  A 
ATOM     36 ND1  HIS C   2      13.504  24.155  32.662  1.00 17.16 LIG-0.24  NA
ATOM     37  CE1 HIS C   2      14.007  24.101  33.883  1.00 17.55 LIG 0.23  A 
ATOM     38 NE2  HIS C   2      13.096  23.580  34.685  1.00 18.01 LIG-0.25  NA
ATOM     39  CD2 HIS C   2      11.971  23.291  33.954  1.00 16.53 LIG 0.14  A 
ENDBRANCH 34 35
ENDBRANCH 1 34
TORSDOF 12
ENDMDL
MODEL 116
USER: ADFR SOLUTION from run 32
USER: SCORE 11.180554 LL:  -3.119 LR:  -9.350 RR:   0.000 FEB:  -5.771
USER: RMSD 3.291394
USER: SEED 31
USER: STATUS no improvement in best in 25 clusters for 5 generations
USER: GENES 14
USER: genes 0 Translation |==|  0.50991 0.42711 0.59789
USER: genes 1 Rotation |==|  0.65139 0.41622 0.56578 0.96448
USER: genes 2 Torsion [CB]-CA--N-[C] |==|  0.18333
USER: genes 3 Torsion [N]-C--CA-[N] |==|  0.35290
USER: genes 4 Torsion [C]-CA--CB-[CG] |==|  0.29066
USER: genes 5 Torsion [CA]-CB--CG-[CD1] |==|  0.40728
USER: genes 6 Torsion [C]-CA--N-[C] |==|  0.76323
USER: genes 7 Torsion [N]-CA--C-[N] |==|  0.67748
USER: genes 8 Torsion [C]-N--CA-[CB] |==|  0.79903
USER: genes 9 Torsion [N]-CA--C-[N] |==|  0.21521
USER: genes 10 Torsion [C]-N--CA-[C] |==|  0.16506
USER: genes 11 Torsion [N]-CA--C-[N] |==|  0.08143
USER: genes 12 Torsion [N]-CA--CB-[CG] |==|  0.08131
USER: genes 13 Torsion [CA]-CB--CG-[CD2] |==|  0.64515
ROOT
ATOM      1  CA  HIS C   2      12.698  20.157  32.770  1.00 10.06 LIG 0.18  C 
ENDROOT
BRANCH 1 2
ATOM      2  N   HIS C   2      14.046  19.595  32.695  1.00  9.48 LIG-0.35  N 
ATOM      3 H    HIS C   2      14.550  19.972  32.109  1.00  9.48 LIG 0.16  HD
ATOM      4  C   PHE C   1      14.444  18.592  33.467  1.00  9.37 LIG 0.24  C 
ATOM      5 O    PHE C   1      13.751  18.110  34.356  1.00 11.27 LIG-0.27  OA
BRANCH 4 6
ATOM      6  CA  PHE C   1      15.822  18.040  33.173  1.00  8.68 LIG 0.18  C 
BRANCH 6 7
ATOM      7  CB  PHE C   1      15.667  16.634  32.595  1.00  8.30 LIG 0.07  C 
BRANCH 7 8
ATOM      8  CG  PHE C   1      15.894  16.562  31.114  1.00  6.80 LIG-0.06  A 
ATOM      9  CD1 PHE C   1      16.464  15.434  30.538  1.00  6.68 LIG 0.01  A 
ATOM     10  CE1 PHE C   1      16.659  15.370  29.171  1.00  6.85 LIG 0.00  A 
ATOM     11  CZ  PHE C   1      16.304  16.431  28.369  1.00  6.56 LIG 0.00  A 
ATOM     12  CE2 PHE C   1      15.738  17.563  28.926  1.00  6.82 LIG 0.00  A 
ATOM     13  CD2 PHE C   1      15.534  17.622  30.295  1.00  7.43 LIG 0.01  A 
ENDBRANCH 7 8
ENDBRANCH 6 7
BRANCH 6 14
ATOM     14  N   PHE C   1      16.651  18.013  34.381  1.00  9.64 LIG-0.35  N 
ATOM     15 H    PHE C   1      16.646  17.262  34.799  1.00  9.64 LIG 0.16  HD
ATOM     16  C   ACE C   0      17.341  19.079  34.773  1.00 12.10 LIG 0.21  C 
ATOM     17  CH3 ACE C   0      18.095  18.942  36.064  1.00 13.09 LIG 0.12  C 
ATOM     18 O    ACE C   0      17.348  20.126  34.126  1.00 13.69 LIG-0.27  OA
ENDBRANCH 6 14
ENDBRANCH 4 6
ENDBRANCH 1 2
BRANCH 1 19
ATOM     19  C   HIS C   2      12.531  21.199  31.684  1.00  9.05 LIG 0.24  C 
ATOM     20  N   ALA C   3      12.327  22.447  32.079  1.00  9.24 LIG-0.35  N 
ATOM     21 H    ALA C   3      12.212  22.689  32.897  1.00  9.24 LIG 0.16  HD
ATOM     22 O    HIS C   2      12.626  20.889  30.502  1.00  8.29 LIG-0.27  OA
BRANCH 20 23
ATOM     23  CA  ALA C   3      12.285  23.532  31.103  1.00  8.91 LIG 0.17  C 
ATOM     24  CB  ALA C   3      13.675  23.821  30.564  1.00  9.99 LIG 0.04  C 
BRANCH 23 25
ATOM     25  C   ALA C   3      11.340  23.171  29.954  1.00  9.36 LIG 0.24  C 
ATOM     26  N   ALA C   4      10.041  23.290  30.205  1.00  9.08 LIG-0.35  N 
ATOM     27 H    ALA C   4       9.721  23.644  30.920  1.00  9.08 LIG 0.16  HD
ATOM     28 O    ALA C   3      11.782  22.813  28.855  1.00  9.90 LIG-0.27  OA
BRANCH 26 29
ATOM     29  CA  ALA C   4       9.030  22.818  29.260  1.00  9.70 LIG 0.18  C 
ATOM     30  CB  ALA C   4       9.111  23.608  27.974  1.00  9.53 LIG 0.04  C 
BRANCH 29 31
ATOM     31  C   ALA C   4       9.119  21.334  28.955  1.00 11.00 LIG 0.28  C 
ATOM     32  N   NH2 C   5       9.601  20.551  29.910  1.00 10.22 LIG-0.11  N 
ATOM     33 O    ALA C   4       8.784  20.921  27.854  1.00 13.70 LIG-0.27  OA
ENDBRANCH 29 31
ENDBRANCH 26 29
ENDBRANCH 23 25
ENDBRANCH 20 23
ENDBRANCH 1 19
BRANCH 1 34
ATOM     34  CB  HIS C   2      12.456  20.847  34.118  1.00 12.23 LIG 0.10  C 
BRANCH 34 35
ATOM     35  CG  HIS C   2      13.686  21.413  34.744  1.00 15.24 LIG 0.06  A 
ATOM     36 ND1  HIS C   2      14.536  22.262  34.071  1.00 17.16 LIG-0.24  NA
ATOM     37  CE1 HIS C   2      15.535  22.601  34.867  1.00 17.55 LIG 0.23  A 
ATOM     38 NE2  HIS C   2      15.361  22.002  36.031  1.00 18.01 LIG-0.25  NA
ATOM     39  CD2 HIS C   2      14.211  21.255  35.981  1.00 16.53 LIG 0.14  A 
ENDBRANCH 34 35
ENDBRANCH 1 34
TORSDOF 12
ENDMDL
MODEL 117
USER: ADFR SOLUTION from run 181
USER: SCORE 10.425096 LL:  -2.802 LR:  -9.347 RR:   0.000 FEB:  -5.767
USER: RMSD 7.993983
USER: SEED 180
USER: STATUS no improvement in best in 16 clusters for 5 generations
USER: GENES 14
USER: genes 0 Translation |==|  0.24724 0.65960 0.32649
USER: genes 1 Rotation |==|  0.58737 0.10768 0.40200 0.78080
USER: genes 2 Torsion [CB]-CA--N-[C] |==|  0.79986
USER: genes 3 Torsion [N]-C--CA-[N] |==|  0.90001
USER: genes 4 Torsion [C]-CA--CB-[CG] |==|  0.61702
USER: genes 5 Torsion [CA]-CB--CG-[CD1] |==|  0.32796
USER: genes 6 Torsion [C]-CA--N-[C] |==|  0.75183
USER: genes 7 Torsion [N]-CA--C-[N] |==|  0.19194
USER: genes 8 Torsion [C]-N--CA-[CB] |==|  0.50165
USER: genes 9 Torsion [N]-CA--C-[N] |==|  0.27695
USER: genes 10 Torsion [C]-N--CA-[C] |==|  0.12374
USER: genes 11 Torsion [N]-CA--C-[N] |==|  0.12852
USER: genes 12 Torsion [N]-CA--CB-[CG] |==|  0.66839
USER: genes 13 Torsion [CA]-CB--CG-[CD2] |==|  0.82425
ROOT
ATOM      1  CA  HIS C   2       8.363  25.040  27.478  1.00 10.06 LIG 0.18  C 
ENDROOT
BRANCH 1 2
ATOM      2  N   HIS C   2       8.097  23.670  27.917  1.00  9.48 LIG-0.35  N 
ATOM      3 H    HIS C   2       7.639  23.206  27.356  1.00  9.48 LIG 0.16  HD
ATOM      4  C   PHE C   1       8.529  23.197  29.078  1.00  9.37 LIG 0.24  C 
ATOM      5 O    PHE C   1       9.251  23.833  29.839  1.00 11.27 LIG-0.27  OA
BRANCH 4 6
ATOM      6  CA  PHE C   1       8.057  21.806  29.441  1.00  8.68 LIG 0.18  C 
BRANCH 6 7
ATOM      7  CB  PHE C   1       9.007  20.790  28.809  1.00  8.30 LIG 0.07  C 
BRANCH 7 8
ATOM      8  CG  PHE C   1       8.310  19.609  28.201  1.00  6.80 LIG-0.06  A 
ATOM      9  CD1 PHE C   1       8.411  19.348  26.841  1.00  6.68 LIG 0.01  A 
ATOM     10  CE1 PHE C   1       7.776  18.251  26.290  1.00  6.85 LIG 0.00  A 
ATOM     11  CZ  PHE C   1       7.024  17.414  27.084  1.00  6.56 LIG 0.00  A 
ATOM     12  CE2 PHE C   1       6.910  17.661  28.439  1.00  6.82 LIG 0.00  A 
ATOM     13  CD2 PHE C   1       7.555  18.755  28.992  1.00  7.43 LIG 0.01  A 
ENDBRANCH 7 8
ENDBRANCH 6 7
BRANCH 6 14
ATOM     14  N   PHE C   1       6.681  21.579  28.988  1.00  9.64 LIG-0.35  N 
ATOM     15 H    PHE C   1       6.618  21.245  28.198  1.00  9.64 LIG 0.16  HD
ATOM     16  C   ACE C   0       5.639  21.874  29.758  1.00 12.10 LIG 0.21  C 
ATOM     17  CH3 ACE C   0       4.284  21.657  29.149  1.00 13.09 LIG 0.12  C 
ATOM     18 O    ACE C   0       5.774  22.318  30.898  1.00 13.69 LIG-0.27  OA
ENDBRANCH 6 14
ENDBRANCH 4 6
ENDBRANCH 1 2
BRANCH 1 19
ATOM     19  C   HIS C   2       9.826  25.359  27.701  1.00  9.05 LIG 0.24  C 
ATOM     20  N   ALA C   3      10.700  24.727  26.931  1.00  9.24 LIG-0.35  N 
ATOM     21 H    ALA C   3      10.500  24.104  26.373  1.00  9.24 LIG 0.16  HD
ATOM     22 O    HIS C   2      10.162  26.197  28.530  1.00  8.29 LIG-0.27  OA
BRANCH 20 23
ATOM     23  CA  ALA C   3      12.119  25.070  26.992  1.00  8.91 LIG 0.17  C 
ATOM     24  CB  ALA C   3      12.915  24.224  26.012  1.00  9.99 LIG 0.04  C 
BRANCH 23 25
ATOM     25  C   ALA C   3      12.315  26.556  26.685  1.00  9.36 LIG 0.24  C 
ATOM     26  N   ALA C   4      12.480  27.354  27.734  1.00  9.08 LIG-0.35  N 
ATOM     27 H    ALA C   4      12.578  27.072  28.541  1.00  9.08 LIG 0.16  HD
ATOM     28 O    ALA C   3      12.340  26.967  25.517  1.00  9.90 LIG-0.27  OA
BRANCH 26 29
ATOM     29  CA  ALA C   4      12.507  28.809  27.596  1.00  9.70 LIG 0.18  C 
ATOM     30  CB  ALA C   4      13.861  29.259  27.099  1.00  9.53 LIG 0.04  C 
BRANCH 29 31
ATOM     31  C   ALA C   4      11.421  29.360  26.690  1.00 11.00 LIG 0.28  C 
ATOM     32  N   NH2 C   5      10.192  28.895  26.871  1.00 10.22 LIG-0.11  N 
ATOM     33 O    ALA C   4      11.711  30.170  25.821  1.00 13.70 LIG-0.27  OA
ENDBRANCH 29 31
ENDBRANCH 26 29
ENDBRANCH 23 25
ENDBRANCH 20 23
ENDBRANCH 1 19
BRANCH 1 34
ATOM     34  CB  HIS C   2       7.537  26.052  28.280  1.00 12.23 LIG 0.10  C 
BRANCH 34 35
ATOM     35  CG  HIS C   2       6.603  26.870  27.453  1.00 15.24 LIG 0.06  A 
ATOM     36 ND1  HIS C   2       5.236  26.815  27.607  1.00 17.16 LIG-0.24  NA
ATOM     37  CE1 HIS C   2       4.666  27.640  26.747  1.00 17.55 LIG 0.23  A 
ATOM     38 NE2  HIS C   2       5.615  28.227  26.041  1.00 18.01 LIG-0.25  NA
ATOM     39  CD2 HIS C   2       6.836  27.764  26.465  1.00 16.53 LIG 0.14  A 
ENDBRANCH 34 35
ENDBRANCH 1 34
TORSDOF 12
ENDMDL
MODEL 118
USER: ADFR SOLUTION from run 69
USER: SCORE 10.568629 LL:  -2.760 LR:  -9.345 RR:   0.000 FEB:  -5.766
USER: RMSD 8.236216
USER: SEED 68
USER: STATUS no improvement in best in 14 clusters for 5 generations
USER: GENES 14
USER: genes 0 Translation |==|  0.60254 0.58901 0.53898
USER: genes 1 Rotation |==|  0.72084 0.87771 0.72699 0.58389
USER: genes 2 Torsion [CB]-CA--N-[C] |==|  0.51157
USER: genes 3 Torsion [N]-C--CA-[N] |==|  0.06127
USER: genes 4 Torsion [C]-CA--CB-[CG] |==|  0.74931
USER: genes 5 Torsion [CA]-CB--CG-[CD1] |==|  0.71983
USER: genes 6 Torsion [C]-CA--N-[C] |==|  0.65000
USER: genes 7 Torsion [N]-CA--C-[N] |==|  0.27655
USER: genes 8 Torsion [C]-N--CA-[CB] |==|  0.19130
USER: genes 9 Torsion [N]-CA--C-[N] |==|  0.09266
USER: genes 10 Torsion [C]-N--CA-[C] |==|  0.75659
USER: genes 11 Torsion [N]-CA--C-[N] |==|  0.02874
USER: genes 12 Torsion [N]-CA--CB-[CG] |==|  0.58742
USER: genes 13 Torsion [CA]-CB--CG-[CD2] |==|  0.81313
ROOT
ATOM      1  CA  HIS C   2      14.226  23.557  31.621  1.00 10.06 LIG 0.18  C 
ENDROOT
BRANCH 1 2
ATOM      2  N   HIS C   2      13.103  24.270  31.012  1.00  9.48 LIG-0.35  N 
ATOM      3 H    HIS C   2      13.120  25.121  31.138  1.00  9.48 LIG 0.16  HD
ATOM      4  C   PHE C   1      12.150  23.649  30.330  1.00  9.37 LIG 0.24  C 
ATOM      5 O    PHE C   1      12.170  22.448  30.084  1.00 11.27 LIG-0.27  OA
BRANCH 4 6
ATOM      6  CA  PHE C   1      10.992  24.513  29.880  1.00  8.68 LIG 0.18  C 
BRANCH 6 7
ATOM      7  CB  PHE C   1      10.530  24.026  28.507  1.00  8.30 LIG 0.07  C 
BRANCH 7 8
ATOM      8  CG  PHE C   1      11.222  24.704  27.362  1.00  6.80 LIG-0.06  A 
ATOM      9  CD1 PHE C   1      10.600  25.728  26.662  1.00  6.68 LIG 0.01  A 
ATOM     10  CE1 PHE C   1      11.249  26.357  25.615  1.00  6.85 LIG 0.00  A 
ATOM     11  CZ  PHE C   1      12.515  25.961  25.248  1.00  6.56 LIG 0.00  A 
ATOM     12  CE2 PHE C   1      13.149  24.940  25.932  1.00  6.82 LIG 0.00  A 
ATOM     13  CD2 PHE C   1      12.502  24.319  26.987  1.00  7.43 LIG 0.01  A 
ENDBRANCH 7 8
ENDBRANCH 6 7
BRANCH 6 14
ATOM     14  N   PHE C   1      11.374  25.926  29.825  1.00  9.64 LIG-0.35  N 
ATOM     15 H    PHE C   1      12.072  26.088  29.349  1.00  9.64 LIG 0.16  HD
ATOM     16  C   ACE C   0      10.680  26.859  30.468  1.00 12.10 LIG 0.21  C 
ATOM     17  CH3 ACE C   0      11.217  28.259  30.387  1.00 13.09 LIG 0.12  C 
ATOM     18 O    ACE C   0       9.665  26.590  31.111  1.00 13.69 LIG-0.27  OA
ENDBRANCH 6 14
ENDBRANCH 4 6
ENDBRANCH 1 2
BRANCH 1 19
ATOM     19  C   HIS C   2      13.693  22.505  32.570  1.00  9.05 LIG 0.24  C 
ATOM     20  N   ALA C   3      13.646  21.261  32.117  1.00  9.24 LIG-0.35  N 
ATOM     21 H    ALA C   3      13.826  21.027  31.310  1.00  9.24 LIG 0.16  HD
ATOM     22 O    HIS C   2      13.365  22.804  33.712  1.00  8.29 LIG-0.27  OA
BRANCH 20 23
ATOM     23  CA  ALA C   3      13.267  20.166  33.007  1.00  8.91 LIG 0.17  C 
ATOM     24  CB  ALA C   3      11.799  20.268  33.385  1.00  9.99 LIG 0.04  C 
BRANCH 23 25
ATOM     25  C   ALA C   3      13.545  18.820  32.335  1.00  9.36 LIG 0.24  C 
ATOM     26  N   ALA C   4      14.598  18.776  31.526  1.00  9.08 LIG-0.35  N 
ATOM     27 H    ALA C   4      15.167  19.415  31.443  1.00  9.08 LIG 0.16  HD
ATOM     28 O    ALA C   3      12.832  17.834  32.565  1.00  9.90 LIG-0.27  OA
BRANCH 26 29
ATOM     29  CA  ALA C   4      14.876  17.607  30.692  1.00  9.70 LIG 0.18  C 
ATOM     30  CB  ALA C   4      15.556  18.033  29.410  1.00  9.53 LIG 0.04  C 
BRANCH 29 31
ATOM     31  C   ALA C   4      15.709  16.543  31.383  1.00 11.00 LIG 0.28  C 
ATOM     32  N   NH2 C   5      15.902  16.683  32.687  1.00 10.22 LIG-0.11  N 
ATOM     33 O    ALA C   4      16.192  15.632  30.726  1.00 13.70 LIG-0.27  OA
ENDBRANCH 29 31
ENDBRANCH 26 29
ENDBRANCH 23 25
ENDBRANCH 20 23
ENDBRANCH 1 19
BRANCH 1 34
ATOM     34  CB  HIS C   2      15.116  24.508  32.431  1.00 12.23 LIG 0.10  C 
BRANCH 34 35
ATOM     35  CG  HIS C   2      16.557  24.124  32.455  1.00 15.24 LIG 0.06  A 
ATOM     36 ND1  HIS C   2      17.535  24.879  31.847  1.00 17.16 LIG-0.24  NA
ATOM     37  CE1 HIS C   2      18.709  24.301  32.028  1.00 17.55 LIG 0.23  A 
ATOM     38 NE2  HIS C   2      18.526  23.199  32.733  1.00 18.01 LIG-0.25  NA
ATOM     39  CD2 HIS C   2      17.189  23.066  33.014  1.00 16.53 LIG 0.14  A 
ENDBRANCH 34 35
ENDBRANCH 1 34
TORSDOF 12
ENDMDL
MODEL 119
USER: ADFR SOLUTION from run 71
USER: SCORE 10.290150 LL:  -2.438 LR:  -9.352 RR:   0.000 FEB:  -5.773
USER: RMSD 3.972103
USER: SEED 70
USER: STATUS no improvement in best in 19 clusters for 5 generations
USER: GENES 14
USER: genes 0 Translation |==|  0.45986 0.48284 0.48002
USER: genes 1 Rotation |==|  0.73755 0.23649 0.65002 0.81879
USER: genes 2 Torsion [CB]-CA--N-[C] |==|  0.19060
USER: genes 3 Torsion [N]-C--CA-[N] |==|  0.19957
USER: genes 4 Torsion [C]-CA--CB-[CG] |==|  0.23682
USER: genes 5 Torsion [CA]-CB--CG-[CD1] |==|  0.90867
USER: genes 6 Torsion [C]-CA--N-[C] |==|  0.77654
USER: genes 7 Torsion [N]-CA--C-[N] |==|  0.36323
USER: genes 8 Torsion [C]-N--CA-[CB] |==|  0.84346
USER: genes 9 Torsion [N]-CA--C-[N] |==|  0.44545
USER: genes 10 Torsion [C]-N--CA-[C] |==|  0.80667
USER: genes 11 Torsion [N]-CA--C-[N] |==|  0.40763
USER: genes 12 Torsion [N]-CA--CB-[CG] |==|  0.60117
USER: genes 13 Torsion [CA]-CB--CG-[CD2] |==|  0.29179
ROOT
ATOM      1  CA  HIS C   2      11.872  21.328  30.471  1.00 10.06 LIG 0.18  C 
ENDROOT
BRANCH 1 2
ATOM      2  N   HIS C   2      13.012  20.873  31.266  1.00  9.48 LIG-0.35  N 
ATOM      3 H    HIS C   2      13.536  21.506  31.520  1.00  9.48 LIG 0.16  HD
ATOM      4  C   PHE C   1      13.211  19.596  31.563  1.00  9.37 LIG 0.24  C 
ATOM      5 O    PHE C   1      12.421  18.705  31.270  1.00 11.27 LIG-0.27  OA
BRANCH 4 6
ATOM      6  CA  PHE C   1      14.507  19.278  32.278  1.00  8.68 LIG 0.18  C 
BRANCH 6 7
ATOM      7  CB  PHE C   1      14.728  17.767  32.231  1.00  8.30 LIG 0.07  C 
BRANCH 7 8
ATOM      8  CG  PHE C   1      15.402  17.294  30.977  1.00  6.80 LIG-0.06  A 
ATOM      9  CD1 PHE C   1      15.182  17.938  29.767  1.00  6.68 LIG 0.01  A 
ATOM     10  CE1 PHE C   1      15.815  17.504  28.618  1.00  6.85 LIG 0.00  A 
ATOM     11  CZ  PHE C   1      16.661  16.418  28.660  1.00  6.56 LIG 0.00  A 
ATOM     12  CE2 PHE C   1      16.888  15.763  29.856  1.00  6.82 LIG 0.00  A 
ATOM     13  CD2 PHE C   1      16.261  16.205  31.009  1.00  7.43 LIG 0.01  A 
ENDBRANCH 7 8
ENDBRANCH 6 7
BRANCH 6 14
ATOM     14  N   PHE C   1      14.478  19.753  33.664  1.00  9.64 LIG-0.35  N 
ATOM     15 H    PHE C   1      14.299  19.145  34.245  1.00  9.64 LIG 0.16  HD
ATOM     16  C   ACE C   0      14.711  21.026  33.967  1.00 12.10 LIG 0.21  C 
ATOM     17  CH3 ACE C   0      14.583  21.396  35.416  1.00 13.09 LIG 0.12  C 
ATOM     18 O    ACE C   0      14.997  21.859  33.108  1.00 13.69 LIG-0.27  OA
ENDBRANCH 6 14
ENDBRANCH 4 6
ENDBRANCH 1 2
BRANCH 1 19
ATOM     19  C   HIS C   2      12.035  22.800  30.162  1.00  9.05 LIG 0.24  C 
ATOM     20  N   ALA C   3      11.873  23.167  28.899  1.00  9.24 LIG-0.35  N 
ATOM     21 H    ALA C   3      11.757  22.624  28.242  1.00  9.24 LIG 0.16  HD
ATOM     22 O    HIS C   2      12.263  23.605  31.058  1.00  8.29 LIG-0.27  OA
BRANCH 20 23
ATOM     23  CA  ALA C   3      11.886  24.581  28.534  1.00  8.91 LIG 0.17  C 
ATOM     24  CB  ALA C   3      10.834  25.345  29.321  1.00  9.99 LIG 0.04  C 
BRANCH 23 25
ATOM     25  C   ALA C   3      13.272  25.179  28.789  1.00  9.36 LIG 0.24  C 
ATOM     26  N   ALA C   4      13.550  26.308  28.147  1.00  9.08 LIG-0.35  N 
ATOM     27 H    ALA C   4      12.974  26.755  27.692  1.00  9.08 LIG 0.16  HD
ATOM     28 O    ALA C   3      14.064  24.638  29.572  1.00  9.90 LIG-0.27  OA
BRANCH 26 29
ATOM     29  CA  ALA C   4      14.890  26.892  28.166  1.00  9.70 LIG 0.18  C 
ATOM     30  CB  ALA C   4      15.004  27.968  27.111  1.00  9.53 LIG 0.04  C 
BRANCH 29 31
ATOM     31  C   ALA C   4      15.296  27.455  29.516  1.00 11.00 LIG 0.28  C 
ATOM     32  N   NH2 C   5      16.579  27.372  29.841  1.00 10.22 LIG-0.11  N 
ATOM     33 O    ALA C   4      14.445  27.924  30.257  1.00 13.70 LIG-0.27  OA
ENDBRANCH 29 31
ENDBRANCH 26 29
ENDBRANCH 23 25
ENDBRANCH 20 23
ENDBRANCH 1 19
BRANCH 1 34
ATOM     34  CB  HIS C   2      10.555  21.156  31.238  1.00 12.23 LIG 0.10  C 
BRANCH 34 35
ATOM     35  CG  HIS C   2       9.399  20.757  30.385  1.00 15.24 LIG 0.06  A 
ATOM     36 ND1  HIS C   2       8.761  21.640  29.542  1.00 17.16 LIG-0.24  NA
ATOM     37  CE1 HIS C   2       7.779  21.015  28.916  1.00 17.55 LIG 0.23  A 
ATOM     38 NE2  HIS C   2       7.759  19.759  29.322  1.00 18.01 LIG-0.25  NA
ATOM     39  CD2 HIS C   2       8.763  19.572  30.240  1.00 16.53 LIG 0.14  A 
ENDBRANCH 34 35
ENDBRANCH 1 34
TORSDOF 12
ENDMDL
MODEL 120
USER: ADFR SOLUTION from run 199
USER: SCORE 10.527770 LL:  -2.963 LR:  -9.341 RR:   0.000 FEB:  -5.761
USER: RMSD 8.854906
USER: SEED 198
USER: STATUS no improvement in best in 35 clusters for 5 generations
USER: GENES 14
USER: genes 0 Translation |==|  0.51945 0.62177 0.42776
USER: genes 1 Rotation |==|  0.59439 0.95657 0.64917 0.60188
USER: genes 2 Torsion [CB]-CA--N-[C] |==|  0.86111
USER: genes 3 Torsion [N]-C--CA-[N] |==|  0.33991
USER: genes 4 Torsion [C]-CA--CB-[CG] |==|  0.16369
USER: genes 5 Torsion [CA]-CB--CG-[CD1] |==|  0.60975
USER: genes 6 Torsion [C]-CA--N-[C] |==|  0.79591
USER: genes 7 Torsion [N]-CA--C-[N] |==|  0.38976
USER: genes 8 Torsion [C]-N--CA-[CB] |==|  0.28167
USER: genes 9 Torsion [N]-CA--C-[N] |==|  0.88461
USER: genes 10 Torsion [C]-N--CA-[C] |==|  0.61804
USER: genes 11 Torsion [N]-CA--C-[N] |==|  0.04359
USER: genes 12 Torsion [N]-CA--CB-[CG] |==|  0.73962
USER: genes 13 Torsion [CA]-CB--CG-[CD2] |==|  0.08663
ROOT
ATOM      1  CA  HIS C   2      12.855  24.245  29.452  1.00 10.06 LIG 0.18  C 
ENDROOT
BRANCH 1 2
ATOM      2  N   HIS C   2      11.687  24.043  28.596  1.00  9.48 LIG-0.35  N 
ATOM      3 H    HIS C   2      11.823  23.504  27.940  1.00  9.48 LIG 0.16  HD
ATOM      4  C   PHE C   1      10.526  24.644  28.820  1.00  9.37 LIG 0.24  C 
ATOM      5 O    PHE C   1      10.309  25.349  29.800  1.00 11.27 LIG-0.27  OA
BRANCH 4 6
ATOM      6  CA  PHE C   1       9.459  24.433  27.768  1.00  8.68 LIG 0.18  C 
BRANCH 6 7
ATOM      7  CB  PHE C   1       9.143  25.781  27.121  1.00  8.30 LIG 0.07  C 
BRANCH 7 8
ATOM      8  CG  PHE C   1      10.330  26.436  26.478  1.00  6.80 LIG-0.06  A 
ATOM      9  CD1 PHE C   1      10.523  27.807  26.576  1.00  6.68 LIG 0.01  A 
ATOM     10  CE1 PHE C   1      11.626  28.402  25.992  1.00  6.85 LIG 0.00  A 
ATOM     11  CZ  PHE C   1      12.536  27.640  25.293  1.00  6.56 LIG 0.00  A 
ATOM     12  CE2 PHE C   1      12.356  26.273  25.183  1.00  6.82 LIG 0.00  A 
ATOM     13  CD2 PHE C   1      11.257  25.678  25.778  1.00  7.43 LIG 0.01  A 
ENDBRANCH 7 8
ENDBRANCH 6 7
BRANCH 6 14
ATOM     14  N   PHE C   1       8.250  23.843  28.349  1.00  9.64 LIG-0.35  N 
ATOM     15 H    PHE C   1       7.589  24.388  28.426  1.00  9.64 LIG 0.16  HD
ATOM     16  C   ACE C   0       8.208  22.567  28.717  1.00 12.10 LIG 0.21  C 
ATOM     17  CH3 ACE C   0       6.933  22.106  29.362  1.00 13.09 LIG 0.12  C 
ATOM     18 O    ACE C   0       9.165  21.810  28.558  1.00 13.69 LIG-0.27  OA
ENDBRANCH 6 14
ENDBRANCH 4 6
ENDBRANCH 1 2
BRANCH 1 19
ATOM     19  C   HIS C   2      12.597  23.614  30.804  1.00  9.05 LIG 0.24  C 
ATOM     20  N   ALA C   3      13.614  22.980  31.371  1.00  9.24 LIG-0.35  N 
ATOM     21 H    ALA C   3      14.375  22.843  30.996  1.00  9.24 LIG 0.16  HD
ATOM     22 O    HIS C   2      11.507  23.732  31.350  1.00  8.29 LIG-0.27  OA
BRANCH 20 23
ATOM     23  CA  ALA C   3      13.490  22.455  32.728  1.00  8.91 LIG 0.17  C 
ATOM     24  CB  ALA C   3      13.239  20.957  32.700  1.00  9.99 LIG 0.04  C 
BRANCH 23 25
ATOM     25  C   ALA C   3      14.757  22.762  33.530  1.00  9.36 LIG 0.24  C 
ATOM     26  N   ALA C   4      15.909  22.602  32.889  1.00  9.08 LIG-0.35  N 
ATOM     27 H    ALA C   4      15.971  22.438  32.047  1.00  9.08 LIG 0.16  HD
ATOM     28 O    ALA C   3      14.688  23.159  34.701  1.00  9.90 LIG-0.27  OA
BRANCH 26 29
ATOM     29  CA  ALA C   4      17.193  22.695  33.582  1.00  9.70 LIG 0.18  C 
ATOM     30  CB  ALA C   4      17.709  21.312  33.908  1.00  9.53 LIG 0.04  C 
BRANCH 29 31
ATOM     31  C   ALA C   4      18.250  23.469  32.817  1.00 11.00 LIG 0.28  C 
ATOM     32  N   NH2 C   5      17.833  24.224  31.811  1.00 10.22 LIG-0.11  N 
ATOM     33 O    ALA C   4      19.428  23.349  33.123  1.00 13.70 LIG-0.27  OA
ENDBRANCH 29 31
ENDBRANCH 26 29
ENDBRANCH 23 25
ENDBRANCH 20 23
ENDBRANCH 1 19
BRANCH 1 34
ATOM     34  CB  HIS C   2      13.128  25.737  29.679  1.00 12.23 LIG 0.10  C 
BRANCH 34 35
ATOM     35  CG  HIS C   2      14.107  26.331  28.724  1.00 15.24 LIG 0.06  A 
ATOM     36 ND1  HIS C   2      14.945  27.367  29.070  1.00 17.16 LIG-0.24  NA
ATOM     37  CE1 HIS C   2      15.697  27.687  28.032  1.00 17.55 LIG 0.23  A 
ATOM     38 NE2  HIS C   2      15.376  26.894  27.025  1.00 18.01 LIG-0.25  NA
ATOM     39  CD2 HIS C   2      14.386  26.036  27.433  1.00 16.53 LIG 0.14  A 
ENDBRANCH 34 35
ENDBRANCH 1 34
TORSDOF 12
ENDMDL
MODEL 121
USER: ADFR SOLUTION from run 20
USER: SCORE 10.376846 LL:  -2.713 LR:  -9.345 RR:   0.000 FEB:  -5.765
USER: RMSD 6.396881
USER: SEED 19
USER: STATUS no improvement in best in 7 clusters for 5 generations
USER: GENES 14
USER: genes 0 Translation |==|  0.30596 0.48361 0.40435
USER: genes 1 Rotation |==|  0.75766 0.19975 0.72267 0.70948
USER: genes 2 Torsion [CB]-CA--N-[C] |==|  0.51353
USER: genes 3 Torsion [N]-C--CA-[N] |==|  0.33862
USER: genes 4 Torsion [C]-CA--CB-[CG] |==|  0.28156
USER: genes 5 Torsion [CA]-CB--CG-[CD1] |==|  0.31105
USER: genes 6 Torsion [C]-CA--N-[C] |==|  0.76475
USER: genes 7 Torsion [N]-CA--C-[N] |==|  0.50455
USER: genes 8 Torsion [C]-N--CA-[CB] |==|  0.85973
USER: genes 9 Torsion [N]-CA--C-[N] |==|  0.02512
USER: genes 10 Torsion [C]-N--CA-[C] |==|  0.71328
USER: genes 11 Torsion [N]-CA--C-[N] |==|  0.41183
USER: genes 12 Torsion [N]-CA--CB-[CG] |==|  0.68860
USER: genes 13 Torsion [CA]-CB--CG-[CD2] |==|  0.49283
ROOT
ATOM      1  CA  HIS C   2       9.332  21.344  28.996  1.00 10.06 LIG 0.18  C 
ENDROOT
BRANCH 1 2
ATOM      2  N   HIS C   2      10.139  21.028  30.174  1.00  9.48 LIG-0.35  N 
ATOM      3 H    HIS C   2       9.764  20.479  30.719  1.00  9.48 LIG 0.16  HD
ATOM      4  C   PHE C   1      11.343  21.549  30.374  1.00  9.37 LIG 0.24  C 
ATOM      5 O    PHE C   1      11.911  22.267  29.558  1.00 11.27 LIG-0.27  OA
BRANCH 4 6
ATOM      6  CA  PHE C   1      11.989  21.226  31.704  1.00  8.68 LIG 0.18  C 
BRANCH 6 7
ATOM      7  CB  PHE C   1      12.164  22.527  32.486  1.00  8.30 LIG 0.07  C 
BRANCH 7 8
ATOM      8  CG  PHE C   1      11.128  22.735  33.551  1.00  6.80 LIG-0.06  A 
ATOM      9  CD1 PHE C   1      11.473  22.696  34.895  1.00  6.68 LIG 0.01  A 
ATOM     10  CE1 PHE C   1      10.516  22.901  35.870  1.00  6.85 LIG 0.00  A 
ATOM     11  CZ  PHE C   1       9.205  23.131  35.517  1.00  6.56 LIG 0.00  A 
ATOM     12  CE2 PHE C   1       8.843  23.170  34.183  1.00  6.82 LIG 0.00  A 
ATOM     13  CD2 PHE C   1       9.806  22.975  33.207  1.00  7.43 LIG 0.01  A 
ENDBRANCH 7 8
ENDBRANCH 6 7
BRANCH 6 14
ATOM     14  N   PHE C   1      13.280  20.558  31.517  1.00  9.64 LIG-0.35  N 
ATOM     15 H    PHE C   1      13.960  21.085  31.538  1.00  9.64 LIG 0.16  HD
ATOM     16  C   ACE C   0      13.362  19.245  31.333  1.00 12.10 LIG 0.21  C 
ATOM     17  CH3 ACE C   0      14.737  18.695  31.086  1.00 13.09 LIG 0.12  C 
ATOM     18 O    ACE C   0      12.367  18.520  31.345  1.00 13.69 LIG-0.27  OA
ENDBRANCH 6 14
ENDBRANCH 4 6
ENDBRANCH 1 2
BRANCH 1 19
ATOM     19  C   HIS C   2       9.139  22.843  28.911  1.00  9.05 LIG 0.24  C 
ATOM     20  N   ALA C   3       8.396  23.294  27.910  1.00  9.24 LIG-0.35  N 
ATOM     21 H    ALA C   3       8.082  22.806  27.275  1.00  9.24 LIG 0.16  HD
ATOM     22 O    HIS C   2       9.619  23.583  29.761  1.00  8.29 LIG-0.27  OA
BRANCH 20 23
ATOM     23  CA  ALA C   3       8.052  24.711  27.828  1.00  8.91 LIG 0.17  C 
ATOM     24  CB  ALA C   3       7.483  25.200  29.149  1.00  9.99 LIG 0.04  C 
BRANCH 23 25
ATOM     25  C   ALA C   3       9.288  25.531  27.450  1.00  9.36 LIG 0.24  C 
ATOM     26  N   ALA C   4      10.362  24.840  27.089  1.00  9.08 LIG-0.35  N 
ATOM     27 H    ALA C   4      10.366  23.989  26.964  1.00  9.08 LIG 0.16  HD
ATOM     28 O    ALA C   3       9.258  26.769  27.465  1.00  9.90 LIG-0.27  OA
BRANCH 26 29
ATOM     29  CA  ALA C   4      11.654  25.488  26.869  1.00  9.70 LIG 0.18  C 
ATOM     30  CB  ALA C   4      12.750  24.715  27.567  1.00  9.53 LIG 0.04  C 
BRANCH 29 31
ATOM     31  C   ALA C   4      12.011  25.668  25.405  1.00 11.00 LIG 0.28  C 
ATOM     32  N   NH2 C   5      12.740  26.729  25.089  1.00 10.22 LIG-0.11  N 
ATOM     33 O    ALA C   4      11.595  24.869  24.578  1.00 13.70 LIG-0.27  OA
ENDBRANCH 29 31
ENDBRANCH 26 29
ENDBRANCH 23 25
ENDBRANCH 20 23
ENDBRANCH 1 19
BRANCH 1 34
ATOM     34  CB  HIS C   2       7.944  20.699  29.083  1.00 12.23 LIG 0.10  C 
BRANCH 34 35
ATOM     35  CG  HIS C   2       7.710  19.615  28.086  1.00 15.24 LIG 0.06  A 
ATOM     36 ND1  HIS C   2       8.645  19.267  27.137  1.00 17.16 LIG-0.24  NA
ATOM     37  CE1 HIS C   2       8.169  18.283  26.394  1.00 17.55 LIG 0.23  A 
ATOM     38 NE2  HIS C   2       6.959  17.981  26.828  1.00 18.01 LIG-0.25  NA
ATOM     39  CD2 HIS C   2       6.649  18.799  27.887  1.00 16.53 LIG 0.14  A 
ENDBRANCH 34 35
ENDBRANCH 1 34
TORSDOF 12
ENDMDL
MODEL 122
USER: ADFR SOLUTION from run 181
USER: SCORE 10.551294 LL:  -3.351 LR:  -9.329 RR:   0.000 FEB:  -5.749
USER: RMSD 6.797819
USER: SEED 180
USER: STATUS no improvement in best in 16 clusters for 5 generations
USER: GENES 14
USER: genes 0 Translation |==|  0.23974 0.64234 0.34401
USER: genes 1 Rotation |==|  0.62603 0.18201 0.38676 0.84666
USER: genes 2 Torsion [CB]-CA--N-[C] |==|  0.82318
USER: genes 3 Torsion [N]-C--CA-[N] |==|  0.56454
USER: genes 4 Torsion [C]-CA--CB-[CG] |==|  0.35898
USER: genes 5 Torsion [CA]-CB--CG-[CD1] |==|  0.95378
USER: genes 6 Torsion [C]-CA--N-[C] |==|  0.77638
USER: genes 7 Torsion [N]-CA--C-[N] |==|  0.11445
USER: genes 8 Torsion [C]-N--CA-[CB] |==|  0.85900
USER: genes 9 Torsion [N]-CA--C-[N] |==|  0.97222
USER: genes 10 Torsion [C]-N--CA-[C] |==|  0.75920
USER: genes 11 Torsion [N]-CA--C-[N] |==|  0.40361
USER: genes 12 Torsion [N]-CA--CB-[CG] |==|  0.93023
USER: genes 13 Torsion [CA]-CB--CG-[CD2] |==|  0.80079
ROOT
ATOM      1  CA  HIS C   2       8.240  24.677  27.819  1.00 10.06 LIG 0.18  C 
ENDROOT
BRANCH 1 2
ATOM      2  N   HIS C   2       8.373  23.243  28.072  1.00  9.48 LIG-0.35  N 
ATOM      3 H    HIS C   2       7.907  22.750  27.543  1.00  9.48 LIG 0.16  HD
ATOM      4  C   PHE C   1       9.146  22.757  29.034  1.00  9.37 LIG 0.24  C 
ATOM      5 O    PHE C   1       9.871  23.455  29.734  1.00 11.27 LIG-0.27  OA
BRANCH 4 6
ATOM      6  CA  PHE C   1       9.069  21.261  29.249  1.00  8.68 LIG 0.18  C 
BRANCH 6 7
ATOM      7  CB  PHE C   1       7.634  20.806  28.990  1.00  8.30 LIG 0.07  C 
BRANCH 7 8
ATOM      8  CG  PHE C   1       7.529  19.648  28.043  1.00  6.80 LIG-0.06  A 
ATOM      9  CD1 PHE C   1       8.596  19.300  27.226  1.00  6.68 LIG 0.01  A 
ATOM     10  CE1 PHE C   1       8.497  18.224  26.364  1.00  6.85 LIG 0.00  A 
ATOM     11  CZ  PHE C   1       7.331  17.495  26.297  1.00  6.56 LIG 0.00  A 
ATOM     12  CE2 PHE C   1       6.257  17.830  27.101  1.00  6.82 LIG 0.00  A 
ATOM     13  CD2 PHE C   1       6.362  18.901  27.971  1.00  7.43 LIG 0.01  A 
ENDBRANCH 7 8
ENDBRANCH 6 7
BRANCH 6 14
ATOM     14  N   PHE C   1       9.488  20.899  30.606  1.00  9.64 LIG-0.35  N 
ATOM     15 H    PHE C   1       8.840  20.759  31.154  1.00  9.64 LIG 0.16  HD
ATOM     16  C   ACE C   0      10.772  20.802  30.934  1.00 12.10 LIG 0.21  C 
ATOM     17  CH3 ACE C   0      11.067  20.492  32.373  1.00 13.09 LIG 0.12  C 
ATOM     18 O    ACE C   0      11.671  20.977  30.111  1.00 13.69 LIG-0.27  OA
ENDBRANCH 6 14
ENDBRANCH 4 6
ENDBRANCH 1 2
BRANCH 1 19
ATOM     19  C   HIS C   2       9.613  25.273  27.598  1.00  9.05 LIG 0.24  C 
ATOM     20  N   ALA C   3      10.460  24.566  26.863  1.00  9.24 LIG-0.35  N 
ATOM     21 H    ALA C   3      10.309  23.772  26.571  1.00  9.24 LIG 0.16  HD
ATOM     22 O    HIS C   2       9.895  26.377  28.048  1.00  8.29 LIG-0.27  OA
BRANCH 20 23
ATOM     23  CA  ALA C   3      11.759  25.124  26.494  1.00  8.91 LIG 0.17  C 
ATOM     24  CB  ALA C   3      11.593  26.506  25.886  1.00  9.99 LIG 0.04  C 
BRANCH 23 25
ATOM     25  C   ALA C   3      12.671  25.193  27.720  1.00  9.36 LIG 0.24  C 
ATOM     26  N   ALA C   4      12.096  24.953  28.893  1.00  9.08 LIG-0.35  N 
ATOM     27 H    ALA C   4      11.288  24.671  28.982  1.00  9.08 LIG 0.16  HD
ATOM     28 O    ALA C   3      13.879  25.438  27.602  1.00  9.90 LIG-0.27  OA
BRANCH 26 29
ATOM     29  CA  ALA C   4      12.809  25.153  30.153  1.00  9.70 LIG 0.18  C 
ATOM     30  CB  ALA C   4      11.837  25.538  31.245  1.00  9.53 LIG 0.04  C 
BRANCH 29 31
ATOM     31  C   ALA C   4      13.624  23.952  30.596  1.00 11.00 LIG 0.28  C 
ATOM     32  N   NH2 C   5      14.766  24.198  31.224  1.00 10.22 LIG-0.11  N 
ATOM     33 O    ALA C   4      13.231  22.824  30.335  1.00 13.70 LIG-0.27  OA
ENDBRANCH 29 31
ENDBRANCH 26 29
ENDBRANCH 23 25
ENDBRANCH 20 23
ENDBRANCH 1 19
BRANCH 1 34
ATOM     34  CB  HIS C   2       7.607  25.397  29.016  1.00 12.23 LIG 0.10  C 
BRANCH 34 35
ATOM     35  CG  HIS C   2       6.752  24.525  29.871  1.00 15.24 LIG 0.06  A 
ATOM     36 ND1  HIS C   2       7.132  24.121  31.132  1.00 17.16 LIG-0.24  NA
ATOM     37  CE1 HIS C   2       6.185  23.360  31.651  1.00 17.55 LIG 0.23  A 
ATOM     38 NE2  HIS C   2       5.205  23.257  30.772  1.00 18.01 LIG-0.25  NA
ATOM     39  CD2 HIS C   2       5.534  23.977  29.652  1.00 16.53 LIG 0.14  A 
ENDBRANCH 34 35
ENDBRANCH 1 34
TORSDOF 12
ENDMDL
MODEL 123
USER: ADFR SOLUTION from run 163
USER: SCORE 10.505624 LL:  -2.516 LR:  -9.319 RR:   0.000 FEB:  -5.739
USER: RMSD 7.601605
USER: SEED 162
USER: STATUS no improvement in best in 32 clusters for 5 generations
USER: GENES 14
USER: genes 0 Translation |==|  0.22644 0.56686 0.37517
USER: genes 1 Rotation |==|  0.59935 0.04452 0.41626 0.66017
USER: genes 2 Torsion [CB]-CA--N-[C] |==|  0.54962
USER: genes 3 Torsion [N]-C--CA-[N] |==|  0.38606
USER: genes 4 Torsion [C]-CA--CB-[CG] |==|  0.46395
USER: genes 5 Torsion [CA]-CB--CG-[CD1] |==|  0.01732
USER: genes 6 Torsion [C]-CA--N-[C] |==|  0.82203
USER: genes 7 Torsion [N]-CA--C-[N] |==|  0.30074
USER: genes 8 Torsion [C]-N--CA-[CB] |==|  0.24665
USER: genes 9 Torsion [N]-CA--C-[N] |==|  0.00150
USER: genes 10 Torsion [C]-N--CA-[C] |==|  0.78889
USER: genes 11 Torsion [N]-CA--C-[N] |==|  0.36164
USER: genes 12 Torsion [N]-CA--CB-[CG] |==|  0.57863
USER: genes 13 Torsion [CA]-CB--CG-[CD2] |==|  0.92336
ROOT
ATOM      1  CA  HIS C   2       8.020  23.092  28.427  1.00 10.06 LIG 0.18  C 
ENDROOT
BRANCH 1 2
ATOM      2  N   HIS C   2       7.480  21.746  28.616  1.00  9.48 LIG-0.35  N 
ATOM      3 H    HIS C   2       6.621  21.711  28.621  1.00  9.48 LIG 0.16  HD
ATOM      4  C   PHE C   1       8.257  20.681  28.766  1.00  9.37 LIG 0.24  C 
ATOM      5 O    PHE C   1       9.479  20.720  28.678  1.00 11.27 LIG-0.27  OA
BRANCH 4 6
ATOM      6  CA  PHE C   1       7.544  19.384  29.084  1.00  8.68 LIG 0.18  C 
BRANCH 6 7
ATOM      7  CB  PHE C   1       7.632  19.140  30.590  1.00  8.30 LIG 0.07  C 
BRANCH 7 8
ATOM      8  CG  PHE C   1       6.714  18.060  31.081  1.00  6.80 LIG-0.06  A 
ATOM      9  CD1 PHE C   1       5.977  17.294  30.187  1.00  6.68 LIG 0.01  A 
ATOM     10  CE1 PHE C   1       5.142  16.293  30.646  1.00  6.85 LIG 0.00  A 
ATOM     11  CZ  PHE C   1       5.020  16.057  31.998  1.00  6.56 LIG 0.00  A 
ATOM     12  CE2 PHE C   1       5.744  16.813  32.901  1.00  6.82 LIG 0.00  A 
ATOM     13  CD2 PHE C   1       6.588  17.808  32.439  1.00  7.43 LIG 0.01  A 
ENDBRANCH 7 8
ENDBRANCH 6 7
BRANCH 6 14
ATOM     14  N   PHE C   1       8.128  18.263  28.344  1.00  9.64 LIG-0.35  N 
ATOM     15 H    PHE C   1       8.493  17.661  28.838  1.00  9.64 LIG 0.16  HD
ATOM     16  C   ACE C   0       8.083  18.208  27.017  1.00 12.10 LIG 0.21  C 
ATOM     17  CH3 ACE C   0       8.779  17.041  26.378  1.00 13.09 LIG 0.12  C 
ATOM     18 O    ACE C   0       7.520  19.073  26.347  1.00 13.69 LIG-0.27  OA
ENDBRANCH 6 14
ENDBRANCH 4 6
ENDBRANCH 1 2
BRANCH 1 19
ATOM     19  C   HIS C   2       9.170  23.307  29.388  1.00  9.05 LIG 0.24  C 
ATOM     20  N   ALA C   3      10.387  23.340  28.865  1.00  9.24 LIG-0.35  N 
ATOM     21 H    ALA C   3      10.571  23.176  28.041  1.00  9.24 LIG 0.16  HD
ATOM     22 O    HIS C   2       8.960  23.484  30.582  1.00  8.29 LIG-0.27  OA
BRANCH 20 23
ATOM     23  CA  ALA C   3      11.539  23.670  29.700  1.00  8.91 LIG 0.17  C 
ATOM     24  CB  ALA C   3      12.112  22.417  30.340  1.00  9.99 LIG 0.04  C 
BRANCH 23 25
ATOM     25  C   ALA C   3      12.612  24.373  28.865  1.00  9.36 LIG 0.24  C 
ATOM     26  N   ALA C   4      12.323  24.565  27.583  1.00  9.08 LIG-0.35  N 
ATOM     27 H    ALA C   4      11.551  24.411  27.236  1.00  9.08 LIG 0.16  HD
ATOM     28 O    ALA C   3      13.671  24.754  29.379  1.00  9.90 LIG-0.27  OA
BRANCH 26 29
ATOM     29  CA  ALA C   4      13.319  25.067  26.638  1.00  9.70 LIG 0.18  C 
ATOM     30  CB  ALA C   4      12.904  24.741  25.222  1.00  9.53 LIG 0.04  C 
BRANCH 29 31
ATOM     31  C   ALA C   4      13.589  26.555  26.762  1.00 11.00 LIG 0.28  C 
ATOM     32  N   NH2 C   5      14.858  26.933  26.844  1.00 10.22 LIG-0.11  N 
ATOM     33 O    ALA C   4      12.651  27.338  26.815  1.00 13.70 LIG-0.27  OA
ENDBRANCH 29 31
ENDBRANCH 26 29
ENDBRANCH 23 25
ENDBRANCH 20 23
ENDBRANCH 1 19
BRANCH 1 34
ATOM     34  CB  HIS C   2       6.962  24.163  28.719  1.00 12.23 LIG 0.10  C 
BRANCH 34 35
ATOM     35  CG  HIS C   2       7.153  25.433  27.962  1.00 15.24 LIG 0.06  A 
ATOM     36 ND1  HIS C   2       6.107  26.267  27.637  1.00 17.16 LIG-0.24  NA
ATOM     37  CE1 HIS C   2       6.569  27.310  26.970  1.00 17.55 LIG 0.23  A 
ATOM     38 NE2  HIS C   2       7.878  27.181  26.851  1.00 18.01 LIG-0.25  NA
ATOM     39  CD2 HIS C   2       8.269  26.017  27.465  1.00 16.53 LIG 0.14  A 
ENDBRANCH 34 35
ENDBRANCH 1 34
TORSDOF 12
ENDMDL
MODEL 124
USER: ADFR SOLUTION from run 50
USER: SCORE 10.174004 LL:  -2.437 LR:  -9.323 RR:   0.000 FEB:  -5.743
USER: RMSD 7.999101
USER: SEED 49
USER: STATUS no improvement in best in 22 clusters for 5 generations
USER: GENES 14
USER: genes 0 Translation |==|  0.38178 0.51629 0.41904
USER: genes 1 Rotation |==|  0.73684 0.64007 0.77625 0.81300
USER: genes 2 Torsion [CB]-CA--N-[C] |==|  0.12670
USER: genes 3 Torsion [N]-C--CA-[N] |==|  0.97944
USER: genes 4 Torsion [C]-CA--CB-[CG] |==|  0.38396
USER: genes 5 Torsion [CA]-CB--CG-[CD1] |==|  0.13216
USER: genes 6 Torsion [C]-CA--N-[C] |==|  0.70589
USER: genes 7 Torsion [N]-CA--C-[N] |==|  0.58898
USER: genes 8 Torsion [C]-N--CA-[CB] |==|  0.86568
USER: genes 9 Torsion [N]-CA--C-[N] |==|  1.00000
USER: genes 10 Torsion [C]-N--CA-[C] |==|  0.82333
USER: genes 11 Torsion [N]-CA--C-[N] |==|  0.39144
USER: genes 12 Torsion [N]-CA--CB-[CG] |==|  0.67124
USER: genes 13 Torsion [CA]-CB--CG-[CD2] |==|  0.60609
ROOT
ATOM      1  CA  HIS C   2      10.583  22.030  29.282  1.00 10.06 LIG 0.18  C 
ENDROOT
BRANCH 1 2
ATOM      2  N   HIS C   2      11.221  23.162  28.611  1.00  9.48 LIG-0.35  N 
ATOM      3 H    HIS C   2      10.752  23.501  27.975  1.00  9.48 LIG 0.16  HD
ATOM      4  C   PHE C   1      12.417  23.617  28.961  1.00  9.37 LIG 0.24  C 
ATOM      5 O    PHE C   1      13.049  23.185  29.919  1.00 11.27 LIG-0.27  OA
BRANCH 4 6
ATOM      6  CA  PHE C   1      12.992  24.706  28.082  1.00  8.68 LIG 0.18  C 
BRANCH 6 7
ATOM      7  CB  PHE C   1      13.098  25.989  28.906  1.00  8.30 LIG 0.07  C 
BRANCH 7 8
ATOM      8  CG  PHE C   1      14.371  26.749  28.679  1.00  6.80 LIG-0.06  A 
ATOM      9  CD1 PHE C   1      14.828  27.000  27.392  1.00  6.68 LIG 0.01  A 
ATOM     10  CE1 PHE C   1      15.995  27.712  27.190  1.00  6.85 LIG 0.00  A 
ATOM     11  CZ  PHE C   1      16.725  28.166  28.266  1.00  6.56 LIG 0.00  A 
ATOM     12  CE2 PHE C   1      16.287  27.921  29.554  1.00  6.82 LIG 0.00  A 
ATOM     13  CD2 PHE C   1      15.111  27.218  29.754  1.00  7.43 LIG 0.01  A 
ENDBRANCH 7 8
ENDBRANCH 6 7
BRANCH 6 14
ATOM     14  N   PHE C   1      12.162  24.923  26.894  1.00  9.64 LIG-0.35  N 
ATOM     15 H    PHE C   1      11.423  25.337  27.046  1.00  9.64 LIG 0.16  HD
ATOM     16  C   ACE C   0      12.544  24.502  25.693  1.00 12.10 LIG 0.21  C 
ATOM     17  CH3 ACE C   0      11.571  24.725  24.572  1.00 13.09 LIG 0.12  C 
ATOM     18 O    ACE C   0      13.626  23.944  25.511  1.00 13.69 LIG-0.27  OA
ENDBRANCH 6 14
ENDBRANCH 4 6
ENDBRANCH 1 2
BRANCH 1 19
ATOM     19  C   HIS C   2       9.112  22.005  28.928  1.00  9.05 LIG 0.24  C 
ATOM     20  N   ALA C   3       8.282  21.543  29.853  1.00  9.24 LIG-0.35  N 
ATOM     21 H    ALA C   3       8.527  21.195  30.600  1.00  9.24 LIG 0.16  HD
ATOM     22 O    HIS C   2       8.722  22.436  27.849  1.00  8.29 LIG-0.27  OA
BRANCH 20 23
ATOM     23  CA  ALA C   3       6.838  21.604  29.644  1.00  8.91 LIG 0.17  C 
ATOM     24  CB  ALA C   3       6.423  22.990  29.181  1.00  9.99 LIG 0.04  C 
BRANCH 23 25
ATOM     25  C   ALA C   3       6.410  20.555  28.615  1.00  9.36 LIG 0.24  C 
ATOM     26  N   ALA C   4       7.379  19.801  28.109  1.00  9.08 LIG-0.35  N 
ATOM     27 H    ALA C   4       8.190  19.805  28.396  1.00  9.08 LIG 0.16  HD
ATOM     28 O    ALA C   3       5.219  20.417  28.304  1.00  9.90 LIG-0.27  OA
BRANCH 26 29
ATOM     29  CA  ALA C   4       7.136  18.881  26.999  1.00  9.70 LIG 0.18  C 
ATOM     30  CB  ALA C   4       8.442  18.292  26.516  1.00  9.53 LIG 0.04  C 
BRANCH 29 31
ATOM     31  C   ALA C   4       6.162  17.765  27.327  1.00 11.00 LIG 0.28  C 
ATOM     32  N   NH2 C   5       5.304  17.417  26.378  1.00 10.22 LIG-0.11  N 
ATOM     33 O    ALA C   4       6.175  17.258  28.439  1.00 13.70 LIG-0.27  OA
ENDBRANCH 29 31
ENDBRANCH 26 29
ENDBRANCH 23 25
ENDBRANCH 20 23
ENDBRANCH 1 19
BRANCH 1 34
ATOM     34  CB  HIS C   2      10.694  22.152  30.807  1.00 12.23 LIG 0.10  C 
BRANCH 34 35
ATOM     35  CG  HIS C   2      11.453  21.045  31.455  1.00 15.24 LIG 0.06  A 
ATOM     36 ND1  HIS C   2      12.576  20.485  30.888  1.00 17.16 LIG-0.24  NA
ATOM     37  CE1 HIS C   2      13.036  19.531  31.678  1.00 17.55 LIG 0.23  A 
ATOM     38 NE2  HIS C   2      12.251  19.454  32.738  1.00 18.01 LIG-0.25  NA
ATOM     39  CD2 HIS C   2      11.255  20.391  32.623  1.00 16.53 LIG 0.14  A 
ENDBRANCH 34 35
ENDBRANCH 1 34
TORSDOF 12
ENDMDL
MODEL 125
USER: ADFR SOLUTION from run 45
USER: SCORE 10.782544 LL:  -2.620 LR:  -9.318 RR:   0.000 FEB:  -5.739
USER: RMSD 6.248653
USER: SEED 44
USER: STATUS no improvement in best in 13 clusters for 5 generations
USER: GENES 14
USER: genes 0 Translation |==|  0.62923 0.36589 0.53945
USER: genes 1 Rotation |==|  0.22731 0.82889 0.27786 0.63464
USER: genes 2 Torsion [CB]-CA--N-[C] |==|  0.86111
USER: genes 3 Torsion [N]-C--CA-[N] |==|  0.11810
USER: genes 4 Torsion [C]-CA--CB-[CG] |==|  0.62614
USER: genes 5 Torsion [CA]-CB--CG-[CD1] |==|  0.82972
USER: genes 6 Torsion [C]-CA--N-[C] |==|  0.13170
USER: genes 7 Torsion [N]-CA--C-[N] |==|  0.32516
USER: genes 8 Torsion [C]-N--CA-[CB] |==|  0.49455
USER: genes 9 Torsion [N]-CA--C-[N] |==|  0.42996
USER: genes 10 Torsion [C]-N--CA-[C] |==|  0.17109
USER: genes 11 Torsion [N]-CA--C-[N] |==|  0.09800
USER: genes 12 Torsion [N]-CA--CB-[CG] |==|  0.84570
USER: genes 13 Torsion [CA]-CB--CG-[CD2] |==|  0.55799
ROOT
ATOM      1  CA  HIS C   2      14.666  18.872  31.630  1.00 10.06 LIG 0.18  C 
ENDROOT
BRANCH 1 2
ATOM      2  N   HIS C   2      14.804  17.802  32.619  1.00  9.48 LIG-0.35  N 
ATOM      3 H    HIS C   2      15.480  17.895  33.143  1.00  9.48 LIG 0.16  HD
ATOM      4  C   PHE C   1      13.957  16.784  32.690  1.00  9.37 LIG 0.24  C 
ATOM      5 O    PHE C   1      12.950  16.694  31.996  1.00 11.27 LIG-0.27  OA
BRANCH 4 6
ATOM      6  CA  PHE C   1      14.316  15.696  33.679  1.00  8.68 LIG 0.18  C 
BRANCH 6 7
ATOM      7  CB  PHE C   1      13.080  14.829  33.915  1.00  8.30 LIG 0.07  C 
BRANCH 7 8
ATOM      8  CG  PHE C   1      12.826  14.521  35.361  1.00  6.80 LIG-0.06  A 
ATOM      9  CD1 PHE C   1      13.759  13.817  36.111  1.00  6.68 LIG 0.01  A 
ATOM     10  CE1 PHE C   1      13.524  13.548  37.446  1.00  6.85 LIG 0.00  A 
ATOM     11  CZ  PHE C   1      12.353  13.962  38.042  1.00  6.56 LIG 0.00  A 
ATOM     12  CE2 PHE C   1      11.412  14.662  37.309  1.00  6.82 LIG 0.00  A 
ATOM     13  CD2 PHE C   1      11.654  14.940  35.974  1.00  7.43 LIG 0.01  A 
ENDBRANCH 7 8
ENDBRANCH 6 7
BRANCH 6 14
ATOM     14  N   PHE C   1      14.797  16.264  34.941  1.00  9.64 LIG-0.35  N 
ATOM     15 H    PHE C   1      15.521  15.906  35.239  1.00  9.64 LIG 0.16  HD
ATOM     16  C   ACE C   0      14.148  17.249  35.552  1.00 12.10 LIG 0.21  C 
ATOM     17  CH3 ACE C   0      14.708  17.693  36.872  1.00 13.09 LIG 0.12  C 
ATOM     18 O    ACE C   0      13.133  17.757  35.074  1.00 13.69 LIG-0.27  OA
ENDBRANCH 6 14
ENDBRANCH 4 6
ENDBRANCH 1 2
BRANCH 1 19
ATOM     19  C   HIS C   2      13.439  19.696  31.956  1.00  9.05 LIG 0.24  C 
ATOM     20  N   ALA C   3      13.639  20.970  32.263  1.00  9.24 LIG-0.35  N 
ATOM     21 H    ALA C   3      14.412  21.334  32.359  1.00  9.24 LIG 0.16  HD
ATOM     22 O    HIS C   2      12.320  19.202  31.892  1.00  8.29 LIG-0.27  OA
BRANCH 20 23
ATOM     23  CA  ALA C   3      12.504  21.866  32.465  1.00  8.91 LIG 0.17  C 
ATOM     24  CB  ALA C   3      12.983  23.255  32.853  1.00  9.99 LIG 0.04  C 
BRANCH 23 25
ATOM     25  C   ALA C   3      11.656  21.938  31.193  1.00  9.36 LIG 0.24  C 
ATOM     26  N   ALA C   4      10.379  22.261  31.358  1.00  9.08 LIG-0.35  N 
ATOM     27 H    ALA C   4      10.042  22.521  32.105  1.00  9.08 LIG 0.16  HD
ATOM     28 O    ALA C   3      12.158  21.726  30.081  1.00  9.90 LIG-0.27  OA
BRANCH 26 29
ATOM     29  CA  ALA C   4       9.422  22.198  30.254  1.00  9.70 LIG 0.18  C 
ATOM     30  CB  ALA C   4       9.827  23.159  29.160  1.00  9.53 LIG 0.04  C 
BRANCH 29 31
ATOM     31  C   ALA C   4       9.244  20.808  29.673  1.00 11.00 LIG 0.28  C 
ATOM     32  N   NH2 C   5       9.309  19.789  30.519  1.00 10.22 LIG-0.11  N 
ATOM     33 O    ALA C   4       9.084  20.670  28.469  1.00 13.70 LIG-0.27  OA
ENDBRANCH 29 31
ENDBRANCH 26 29
ENDBRANCH 23 25
ENDBRANCH 20 23
ENDBRANCH 1 19
BRANCH 1 34
ATOM     34  CB  HIS C   2      14.485  18.304  30.217  1.00 12.23 LIG 0.10  C 
BRANCH 34 35
ATOM     35  CG  HIS C   2      15.567  17.372  29.790  1.00 15.24 LIG 0.06  A 
ATOM     36 ND1  HIS C   2      16.385  16.724  30.689  1.00 17.16 LIG-0.24  NA
ATOM     37  CE1 HIS C   2      17.246  15.968  30.030  1.00 17.55 LIG 0.23  A 
ATOM     38 NE2  HIS C   2      17.014  16.103  28.737  1.00 18.01 LIG-0.25  NA
ATOM     39  CD2 HIS C   2      15.968  16.974  28.560  1.00 16.53 LIG 0.14  A 
ENDBRANCH 34 35
ENDBRANCH 1 34
TORSDOF 12
ENDMDL
MODEL 126
USER: ADFR SOLUTION from run 178
USER: SCORE 10.667361 LL:  -2.780 LR:  -9.313 RR:   0.000 FEB:  -5.733
USER: RMSD 3.779484
USER: SEED 177
USER: STATUS no improvement in best in 9 clusters for 5 generations
USER: GENES 14
USER: genes 0 Translation |==|  0.46899 0.45067 0.50109
USER: genes 1 Rotation |==|  0.74776 0.27012 0.64970 0.83669
USER: genes 2 Torsion [CB]-CA--N-[C] |==|  0.19076
USER: genes 3 Torsion [N]-C--CA-[N] |==|  0.20431
USER: genes 4 Torsion [C]-CA--CB-[CG] |==|  0.22792
USER: genes 5 Torsion [CA]-CB--CG-[CD1] |==|  0.43978
USER: genes 6 Torsion [C]-CA--N-[C] |==|  0.76016
USER: genes 7 Torsion [N]-CA--C-[N] |==|  0.80401
USER: genes 8 Torsion [C]-N--CA-[CB] |==|  0.87198
USER: genes 9 Torsion [N]-CA--C-[N] |==|  0.86117
USER: genes 10 Torsion [C]-N--CA-[C] |==|  0.59440
USER: genes 11 Torsion [N]-CA--C-[N] |==|  0.38062
USER: genes 12 Torsion [N]-CA--CB-[CG] |==|  0.56185
USER: genes 13 Torsion [CA]-CB--CG-[CD2] |==|  0.46966
ROOT
ATOM      1  CA  HIS C   2      12.022  20.652  30.882  1.00 10.06 LIG 0.18  C 
ENDROOT
BRANCH 1 2
ATOM      2  N   HIS C   2      13.287  20.308  31.531  1.00  9.48 LIG-0.35  N 
ATOM      3 H    HIS C   2      13.797  20.984  31.684  1.00  9.48 LIG 0.16  HD
ATOM      4  C   PHE C   1      13.609  19.062  31.852  1.00  9.37 LIG 0.24  C 
ATOM      5 O    PHE C   1      12.848  18.111  31.708  1.00 11.27 LIG-0.27  OA
BRANCH 4 6
ATOM      6  CA  PHE C   1      15.007  18.860  32.395  1.00  8.68 LIG 0.18  C 
BRANCH 6 7
ATOM      7  CB  PHE C   1      15.336  17.369  32.343  1.00  8.30 LIG 0.07  C 
BRANCH 7 8
ATOM      8  CG  PHE C   1      15.804  16.901  30.997  1.00  6.80 LIG-0.06  A 
ATOM      9  CD1 PHE C   1      16.551  15.737  30.870  1.00  6.68 LIG 0.01  A 
ATOM     10  CE1 PHE C   1      16.968  15.305  29.625  1.00  6.85 LIG 0.00  A 
ATOM     11  CZ  PHE C   1      16.659  16.035  28.499  1.00  6.56 LIG 0.00  A 
ATOM     12  CE2 PHE C   1      15.919  17.197  28.607  1.00  6.82 LIG 0.00  A 
ATOM     13  CD2 PHE C   1      15.492  17.623  29.854  1.00  7.43 LIG 0.01  A 
ENDBRANCH 7 8
ENDBRANCH 6 7
BRANCH 6 14
ATOM     14  N   PHE C   1      15.121  19.366  33.766  1.00  9.64 LIG-0.35  N 
ATOM     15 H    PHE C   1      14.988  18.775  34.376  1.00  9.64 LIG 0.16  HD
ATOM     16  C   ACE C   0      15.408  20.639  34.014  1.00 12.10 LIG 0.21  C 
ATOM     17  CH3 ACE C   0      15.428  21.044  35.459  1.00 13.09 LIG 0.12  C 
ATOM     18 O    ACE C   0      15.626  21.447  33.111  1.00 13.69 LIG-0.27  OA
ENDBRANCH 6 14
ENDBRANCH 4 6
ENDBRANCH 1 2
BRANCH 1 19
ATOM     19  C   HIS C   2      12.045  22.114  30.490  1.00  9.05 LIG 0.24  C 
ATOM     20  N   ALA C   3      11.982  22.998  31.476  1.00  9.24 LIG-0.35  N 
ATOM     21 H    ALA C   3      11.857  22.800  32.303  1.00  9.24 LIG 0.16  HD
ATOM     22 O    HIS C   2      12.159  22.443  29.316  1.00  8.29 LIG-0.27  OA
BRANCH 20 23
ATOM     23  CA  ALA C   3      12.127  24.424  31.196  1.00  8.91 LIG 0.17  C 
ATOM     24  CB  ALA C   3      13.304  24.670  30.269  1.00  9.99 LIG 0.04  C 
BRANCH 23 25
ATOM     25  C   ALA C   3      10.841  24.973  30.573  1.00  9.36 LIG 0.24  C 
ATOM     26  N   ALA C   4      10.352  24.291  29.544  1.00  9.08 LIG-0.35  N 
ATOM     27 H    ALA C   4      10.655  23.529  29.285  1.00  9.08 LIG 0.16  HD
ATOM     28 O    ALA C   3      10.291  25.982  31.033  1.00  9.90 LIG-0.27  OA
BRANCH 26 29
ATOM     29  CA  ALA C   4       9.232  24.795  28.751  1.00  9.70 LIG 0.18  C 
ATOM     30  CB  ALA C   4       9.744  25.626  27.597  1.00  9.53 LIG 0.04  C 
BRANCH 29 31
ATOM     31  C   ALA C   4       8.309  23.709  28.229  1.00 11.00 LIG 0.28  C 
ATOM     32  N   NH2 C   5       7.006  23.937  28.308  1.00 10.22 LIG-0.11  N 
ATOM     33 O    ALA C   4       8.784  22.670  27.794  1.00 13.70 LIG-0.27  OA
ENDBRANCH 29 31
ENDBRANCH 26 29
ENDBRANCH 23 25
ENDBRANCH 20 23
ENDBRANCH 1 19
BRANCH 1 34
ATOM     34  CB  HIS C   2      10.835  20.442  31.830  1.00 12.23 LIG 0.10  C 
BRANCH 34 35
ATOM     35  CG  HIS C   2       9.527  20.257  31.138  1.00 15.24 LIG 0.06  A 
ATOM     36 ND1  HIS C   2       9.362  20.489  29.790  1.00 17.16 LIG-0.24  NA
ATOM     37  CE1 HIS C   2       8.107  20.246  29.455  1.00 17.55 LIG 0.23  A 
ATOM     38 NE2  HIS C   2       7.454  19.864  30.537  1.00 18.01 LIG-0.25  NA
ATOM     39  CD2 HIS C   2       8.319  19.861  31.603  1.00 16.53 LIG 0.14  A 
ENDBRANCH 34 35
ENDBRANCH 1 34
TORSDOF 12
ENDMDL
MODEL 127
USER: ADFR SOLUTION from run 196
USER: SCORE 10.885388 LL:  -2.489 LR:  -9.308 RR:   0.000 FEB:  -5.728
USER: RMSD 4.077586
USER: SEED 195
USER: STATUS no improvement in best in 22 clusters for 5 generations
USER: GENES 14
USER: genes 0 Translation |==|  0.45958 0.49179 0.50740
USER: genes 1 Rotation |==|  0.76709 0.22334 0.55545 0.81471
USER: genes 2 Torsion [CB]-CA--N-[C] |==|  0.16773
USER: genes 3 Torsion [N]-C--CA-[N] |==|  0.46496
USER: genes 4 Torsion [C]-CA--CB-[CG] |==|  0.61903
USER: genes 5 Torsion [CA]-CB--CG-[CD1] |==|  0.32636
USER: genes 6 Torsion [C]-CA--N-[C] |==|  0.67493
USER: genes 7 Torsion [N]-CA--C-[N] |==|  0.04444
USER: genes 8 Torsion [C]-N--CA-[CB] |==|  0.48973
USER: genes 9 Torsion [N]-CA--C-[N] |==|  0.48172
USER: genes 10 Torsion [C]-N--CA-[C] |==|  0.82623
USER: genes 11 Torsion [N]-CA--C-[N] |==|  0.41527
USER: genes 12 Torsion [N]-CA--CB-[CG] |==|  0.69204
USER: genes 13 Torsion [CA]-CB--CG-[CD2] |==|  0.54218
ROOT
ATOM      1  CA  HIS C   2      11.867  21.516  31.005  1.00 10.06 LIG 0.18  C 
ENDROOT
BRANCH 1 2
ATOM      2  N   HIS C   2      12.979  20.651  31.401  1.00  9.48 LIG-0.35  N 
ATOM      3 H    HIS C   2      13.698  21.077  31.603  1.00  9.48 LIG 0.16  HD
ATOM      4  C   PHE C   1      12.876  19.330  31.440  1.00  9.37 LIG 0.24  C 
ATOM      5 O    PHE C   1      11.828  18.728  31.230  1.00 11.27 LIG-0.27  OA
BRANCH 4 6
ATOM      6  CA  PHE C   1      14.154  18.576  31.739  1.00  8.68 LIG 0.18  C 
BRANCH 6 7
ATOM      7  CB  PHE C   1      15.078  18.688  30.528  1.00  8.30 LIG 0.07  C 
BRANCH 7 8
ATOM      8  CG  PHE C   1      15.761  17.402  30.169  1.00  6.80 LIG-0.06  A 
ATOM      9  CD1 PHE C   1      15.531  16.794  28.942  1.00  6.68 LIG 0.01  A 
ATOM     10  CE1 PHE C   1      16.174  15.615  28.613  1.00  6.85 LIG 0.00  A 
ATOM     11  CZ  PHE C   1      17.037  15.024  29.508  1.00  6.56 LIG 0.00  A 
ATOM     12  CE2 PHE C   1      17.275  15.613  30.736  1.00  6.82 LIG 0.00  A 
ATOM     13  CD2 PHE C   1      16.639  16.800  31.059  1.00  7.43 LIG 0.01  A 
ENDBRANCH 7 8
ENDBRANCH 6 7
BRANCH 6 14
ATOM     14  N   PHE C   1      13.880  17.171  32.052  1.00  9.64 LIG-0.35  N 
ATOM     15 H    PHE C   1      13.527  16.725  31.406  1.00  9.64 LIG 0.16  HD
ATOM     16  C   ACE C   0      14.163  16.657  33.244  1.00 12.10 LIG 0.21  C 
ATOM     17  CH3 ACE C   0      13.769  15.224  33.457  1.00 13.09 LIG 0.12  C 
ATOM     18 O    ACE C   0      14.699  17.321  34.131  1.00 13.69 LIG-0.27  OA
ENDBRANCH 6 14
ENDBRANCH 4 6
ENDBRANCH 1 2
BRANCH 1 19
ATOM     19  C   HIS C   2      12.306  22.962  31.087  1.00  9.05 LIG 0.24  C 
ATOM     20  N   ALA C   3      13.611  23.187  31.156  1.00  9.24 LIG-0.35  N 
ATOM     21 H    ALA C   3      14.210  22.575  31.230  1.00  9.24 LIG 0.16  HD
ATOM     22 O    HIS C   2      11.483  23.868  31.047  1.00  8.29 LIG-0.27  OA
BRANCH 20 23
ATOM     23  CA  ALA C   3      14.126  24.553  31.108  1.00  8.91 LIG 0.17  C 
ATOM     24  CB  ALA C   3      15.634  24.561  31.294  1.00  9.99 LIG 0.04  C 
BRANCH 23 25
ATOM     25  C   ALA C   3      13.757  25.209  29.776  1.00  9.36 LIG 0.24  C 
ATOM     26  N   ALA C   4      14.049  26.499  29.657  1.00  9.08 LIG-0.35  N 
ATOM     27 H    ALA C   4      14.510  26.942  30.233  1.00  9.08 LIG 0.16  HD
ATOM     28 O    ALA C   3      13.237  24.551  28.864  1.00  9.90 LIG-0.27  OA
BRANCH 26 29
ATOM     29  CA  ALA C   4      13.599  27.286  28.510  1.00  9.70 LIG 0.18  C 
ATOM     30  CB  ALA C   4      13.942  28.744  28.713  1.00  9.53 LIG 0.04  C 
BRANCH 29 31
ATOM     31  C   ALA C   4      14.156  26.810  27.181  1.00 11.00 LIG 0.28  C 
ATOM     32  N   NH2 C   5      13.398  26.996  26.109  1.00 10.22 LIG-0.11  N 
ATOM     33 O    ALA C   4      15.243  26.252  27.145  1.00 13.70 LIG-0.27  OA
ENDBRANCH 29 31
ENDBRANCH 26 29
ENDBRANCH 23 25
ENDBRANCH 20 23
ENDBRANCH 1 19
BRANCH 1 34
ATOM     34  CB  HIS C   2      10.665  21.340  31.942  1.00 12.23 LIG 0.10  C 
BRANCH 34 35
ATOM     35  CG  HIS C   2       9.489  20.677  31.308  1.00 15.24 LIG 0.06  A 
ATOM     36 ND1  HIS C   2       9.578  19.991  30.117  1.00 17.16 LIG-0.24  NA
ATOM     37  CE1 HIS C   2       8.388  19.513  29.799  1.00 17.55 LIG 0.23  A 
ATOM     38 NE2  HIS C   2       7.532  19.863  30.742  1.00 18.01 LIG-0.25  NA
ATOM     39  CD2 HIS C   2       8.196  20.591  31.698  1.00 16.53 LIG 0.14  A 
ENDBRANCH 34 35
ENDBRANCH 1 34
TORSDOF 12
ENDMDL
MODEL 128
USER: ADFR SOLUTION from run 161
USER: SCORE 10.455636 LL:  -2.396 LR:  -9.302 RR:   0.000 FEB:  -5.722
USER: RMSD 8.590401
USER: SEED 160
USER: STATUS no improvement in best in 35 clusters for 5 generations
USER: GENES 14
USER: genes 0 Translation |==|  0.39432 0.50355 0.45339
USER: genes 1 Rotation |==|  0.57060 0.08764 0.22908 0.53970
USER: genes 2 Torsion [CB]-CA--N-[C] |==|  0.85327
USER: genes 3 Torsion [N]-C--CA-[N] |==|  0.24101
USER: genes 4 Torsion [C]-CA--CB-[CG] |==|  0.77527
USER: genes 5 Torsion [CA]-CB--CG-[CD1] |==|  0.27420
USER: genes 6 Torsion [C]-CA--N-[C] |==|  0.58616
USER: genes 7 Torsion [N]-CA--C-[N] |==|  0.37628
USER: genes 8 Torsion [C]-N--CA-[CB] |==|  0.86712
USER: genes 9 Torsion [N]-CA--C-[N] |==|  0.30556
USER: genes 10 Torsion [C]-N--CA-[C] |==|  0.69152
USER: genes 11 Torsion [N]-CA--C-[N] |==|  0.40235
USER: genes 12 Torsion [N]-CA--CB-[CG] |==|  0.89454
USER: genes 13 Torsion [CA]-CB--CG-[CD2] |==|  0.37224
ROOT
ATOM      1  CA  HIS C   2      10.790  21.763  29.952  1.00 10.06 LIG 0.18  C 
ENDROOT
BRANCH 1 2
ATOM      2  N   HIS C   2       9.880  21.030  29.073  1.00  9.48 LIG-0.35  N 
ATOM      3 H    HIS C   2      10.074  21.092  28.238  1.00  9.48 LIG 0.16  HD
ATOM      4  C   PHE C   1       8.849  20.334  29.534  1.00  9.37 LIG 0.24  C 
ATOM      5 O    PHE C   1       8.620  20.180  30.729  1.00 11.27 LIG-0.27  OA
BRANCH 4 6
ATOM      6  CA  PHE C   1       7.928  19.745  28.487  1.00  8.68 LIG 0.18  C 
BRANCH 6 7
ATOM      7  CB  PHE C   1       6.525  19.634  29.083  1.00  8.30 LIG 0.07  C 
BRANCH 7 8
ATOM      8  CG  PHE C   1       6.332  18.427  29.952  1.00  6.80 LIG-0.06  A 
ATOM      9  CD1 PHE C   1       6.420  18.527  31.334  1.00  6.68 LIG 0.01  A 
ATOM     10  CE1 PHE C   1       6.229  17.413  32.130  1.00  6.85 LIG 0.00  A 
ATOM     11  CZ  PHE C   1       5.965  16.189  31.557  1.00  6.56 LIG 0.00  A 
ATOM     12  CE2 PHE C   1       5.878  16.071  30.182  1.00  6.82 LIG 0.00  A 
ATOM     13  CD2 PHE C   1       6.059  17.190  29.387  1.00  7.43 LIG 0.01  A 
ENDBRANCH 7 8
ENDBRANCH 6 7
BRANCH 6 14
ATOM     14  N   PHE C   1       8.404  18.434  28.040  1.00  9.64 LIG-0.35  N 
ATOM     15 H    PHE C   1       8.826  17.985  28.640  1.00  9.64 LIG 0.16  HD
ATOM     16  C   ACE C   0       8.188  18.001  26.803  1.00 12.10 LIG 0.21  C 
ATOM     17  CH3 ACE C   0       8.788  16.671  26.451  1.00 13.09 LIG 0.12  C 
ATOM     18 O    ACE C   0       7.548  18.661  25.983  1.00 13.69 LIG-0.27  OA
ENDBRANCH 6 14
ENDBRANCH 4 6
ENDBRANCH 1 2
BRANCH 1 19
ATOM     19  C   HIS C   2      11.552  20.778  30.813  1.00  9.05 LIG 0.24  C 
ATOM     20  N   ALA C   3      12.855  20.982  30.944  1.00  9.24 LIG-0.35  N 
ATOM     21 H    ALA C   3      13.301  21.584  30.522  1.00  9.24 LIG 0.16  HD
ATOM     22 O    HIS C   2      10.967  19.866  31.386  1.00  8.29 LIG-0.27  OA
BRANCH 20 23
ATOM     23  CA  ALA C   3      13.642  20.158  31.857  1.00  8.91 LIG 0.17  C 
ATOM     24  CB  ALA C   3      12.958  20.055  33.209  1.00  9.99 LIG 0.04  C 
BRANCH 23 25
ATOM     25  C   ALA C   3      13.847  18.762  31.263  1.00  9.36 LIG 0.24  C 
ATOM     26  N   ALA C   4      15.081  18.469  30.869  1.00  9.08 LIG-0.35  N 
ATOM     27 H    ALA C   4      15.765  18.969  31.019  1.00  9.08 LIG 0.16  HD
ATOM     28 O    ALA C   3      12.908  17.959  31.186  1.00  9.90 LIG-0.27  OA
BRANCH 26 29
ATOM     29  CA  ALA C   4      15.380  17.242  30.132  1.00  9.70 LIG 0.18  C 
ATOM     30  CB  ALA C   4      16.091  17.572  28.840  1.00  9.53 LIG 0.04  C 
BRANCH 29 31
ATOM     31  C   ALA C   4      16.197  16.235  30.921  1.00 11.00 LIG 0.28  C 
ATOM     32  N   NH2 C   5      15.933  14.952  30.714  1.00 10.22 LIG-0.11  N 
ATOM     33 O    ALA C   4      17.027  16.627  31.728  1.00 13.70 LIG-0.27  OA
ENDBRANCH 29 31
ENDBRANCH 26 29
ENDBRANCH 23 25
ENDBRANCH 20 23
ENDBRANCH 1 19
BRANCH 1 34
ATOM     34  CB  HIS C   2      10.023  22.704  30.889  1.00 12.23 LIG 0.10  C 
BRANCH 34 35
ATOM     35  CG  HIS C   2       8.848  23.370  30.257  1.00 15.24 LIG 0.06  A 
ATOM     36 ND1  HIS C   2       8.909  23.954  29.011  1.00 17.16 LIG-0.24  NA
ATOM     37  CE1 HIS C   2       7.728  24.464  28.710  1.00 17.55 LIG 0.23  A 
ATOM     38 NE2  HIS C   2       6.904  24.231  29.716  1.00 18.01 LIG-0.25  NA
ATOM     39  CD2 HIS C   2       7.580  23.547  30.695  1.00 16.53 LIG 0.14  A 
ENDBRANCH 34 35
ENDBRANCH 1 34
TORSDOF 12
ENDMDL
MODEL 129
USER: ADFR SOLUTION from run 92
USER: SCORE 10.958349 LL:  -2.435 LR:  -9.286 RR:   0.000 FEB:  -5.707
USER: RMSD 2.906589
USER: SEED 91
USER: STATUS no improvement in best in 14 clusters for 5 generations
USER: GENES 14
USER: genes 0 Translation |==|  0.43428 0.41510 0.51734
USER: genes 1 Rotation |==|  0.75729 0.32686 0.58707 0.88242
USER: genes 2 Torsion [CB]-CA--N-[C] |==|  0.87644
USER: genes 3 Torsion [N]-C--CA-[N] |==|  0.53107
USER: genes 4 Torsion [C]-CA--CB-[CG] |==|  0.32087
USER: genes 5 Torsion [CA]-CB--CG-[CD1] |==|  0.84294
USER: genes 6 Torsion [C]-CA--N-[C] |==|  0.76482
USER: genes 7 Torsion [N]-CA--C-[N] |==|  0.36615
USER: genes 8 Torsion [C]-N--CA-[CB] |==|  0.85521
USER: genes 9 Torsion [N]-CA--C-[N] |==|  0.35785
USER: genes 10 Torsion [C]-N--CA-[C] |==|  0.80275
USER: genes 11 Torsion [N]-CA--C-[N] |==|  0.95139
USER: genes 12 Torsion [N]-CA--CB-[CG] |==|  0.47221
USER: genes 13 Torsion [CA]-CB--CG-[CD2] |==|  0.18116
ROOT
ATOM      1  CA  HIS C   2      11.450  19.905  31.199  1.00 10.06 LIG 0.18  C 
ENDROOT
BRANCH 1 2
ATOM      2  N   HIS C   2      12.829  19.443  31.354  1.00  9.48 LIG-0.35  N 
ATOM      3 H    HIS C   2      13.098  18.928  30.720  1.00  9.48 LIG 0.16  HD
ATOM      4  C   PHE C   1      13.587  19.794  32.384  1.00  9.37 LIG 0.24  C 
ATOM      5 O    PHE C   1      13.229  20.592  33.244  1.00 11.27 LIG-0.27  OA
BRANCH 4 6
ATOM      6  CA  PHE C   1      14.942  19.124  32.465  1.00  8.68 LIG 0.18  C 
BRANCH 6 7
ATOM      7  CB  PHE C   1      14.756  17.625  32.238  1.00  8.30 LIG 0.07  C 
BRANCH 7 8
ATOM      8  CG  PHE C   1      15.419  17.116  30.992  1.00  6.80 LIG-0.06  A 
ATOM      9  CD1 PHE C   1      15.117  17.664  29.753  1.00  6.68 LIG 0.01  A 
ATOM     10  CE1 PHE C   1      15.741  17.199  28.611  1.00  6.85 LIG 0.00  A 
ATOM     11  CZ  PHE C   1      16.659  16.175  28.690  1.00  6.56 LIG 0.00  A 
ATOM     12  CE2 PHE C   1      16.969  15.616  29.916  1.00  6.82 LIG 0.00  A 
ATOM     13  CD2 PHE C   1      16.351  16.091  31.060  1.00  7.43 LIG 0.01  A 
ENDBRANCH 7 8
ENDBRANCH 6 7
BRANCH 6 14
ATOM     14  N   PHE C   1      15.581  19.375  33.760  1.00  9.64 LIG-0.35  N 
ATOM     15 H    PHE C   1      15.459  18.755  34.343  1.00  9.64 LIG 0.16  HD
ATOM     16  C   ACE C   0      16.284  20.480  33.985  1.00 12.10 LIG 0.21  C 
ATOM     17  CH3 ACE C   0      16.828  20.647  35.374  1.00 13.09 LIG 0.12  C 
ATOM     18 O    ACE C   0      16.464  21.328  33.111  1.00 13.69 LIG-0.27  OA
ENDBRANCH 6 14
ENDBRANCH 4 6
ENDBRANCH 1 2
BRANCH 1 19
ATOM     19  C   HIS C   2      11.456  21.358  30.775  1.00  9.05 LIG 0.24  C 
ATOM     20  N   ALA C   3      10.682  21.685  29.750  1.00  9.24 LIG-0.35  N 
ATOM     21 H    ALA C   3      10.240  21.123  29.272  1.00  9.24 LIG 0.16  HD
ATOM     22 O    HIS C   2      12.119  22.185  31.390  1.00  8.29 LIG-0.27  OA
BRANCH 20 23
ATOM     23  CA  ALA C   3      10.529  23.083  29.358  1.00  8.91 LIG 0.17  C 
ATOM     24  CB  ALA C   3      10.134  23.933  30.553  1.00  9.99 LIG 0.04  C 
BRANCH 23 25
ATOM     25  C   ALA C   3      11.833  23.605  28.749  1.00  9.36 LIG 0.24  C 
ATOM     26  N   ALA C   4      11.729  24.206  27.569  1.00  9.08 LIG-0.35  N 
ATOM     27 H    ALA C   4      10.980  24.399  27.193  1.00  9.08 LIG 0.16  HD
ATOM     28 O    ALA C   3      12.909  23.485  29.349  1.00  9.90 LIG-0.27  OA
BRANCH 26 29
ATOM     29  CA  ALA C   4      12.909  24.597  26.800  1.00  9.70 LIG 0.18  C 
ATOM     30  CB  ALA C   4      12.519  24.919  25.376  1.00  9.53 LIG 0.04  C 
BRANCH 29 31
ATOM     31  C   ALA C   4      13.673  25.765  27.396  1.00 11.00 LIG 0.28  C 
ATOM     32  N   NH2 C   5      13.035  26.509  28.289  1.00 10.22 LIG-0.11  N 
ATOM     33 O    ALA C   4      14.813  25.998  27.020  1.00 13.70 LIG-0.27  OA
ENDBRANCH 29 31
ENDBRANCH 26 29
ENDBRANCH 23 25
ENDBRANCH 20 23
ENDBRANCH 1 19
BRANCH 1 34
ATOM     34  CB  HIS C   2      10.678  19.808  32.521  1.00 12.23 LIG 0.10  C 
BRANCH 34 35
ATOM     35  CG  HIS C   2       9.345  20.477  32.500  1.00 15.24 LIG 0.06  A 
ATOM     36 ND1  HIS C   2       9.056  21.576  33.277  1.00 17.16 LIG-0.24  NA
ATOM     37  CE1 HIS C   2       7.809  21.953  33.055  1.00 17.55 LIG 0.23  A 
ATOM     38 NE2  HIS C   2       7.280  21.136  32.162  1.00 18.01 LIG-0.25  NA
ATOM     39  CD2 HIS C   2       8.221  20.205  31.797  1.00 16.53 LIG 0.14  A 
ENDBRANCH 34 35
ENDBRANCH 1 34
TORSDOF 12
ENDMDL
MODEL 130
USER: ADFR SOLUTION from run 61
USER: SCORE 10.464061 LL:  -3.070 LR:  -9.287 RR:   0.000 FEB:  -5.708
USER: RMSD 6.105452
USER: SEED 60
USER: STATUS no improvement in best in 23 clusters for 5 generations
USER: GENES 14
USER: genes 0 Translation |==|  0.60518 0.37161 0.53651
USER: genes 1 Rotation |==|  0.20216 0.74733 0.18436 0.52217
USER: genes 2 Torsion [CB]-CA--N-[C] |==|  0.18935
USER: genes 3 Torsion [N]-C--CA-[N] |==|  0.28937
USER: genes 4 Torsion [C]-CA--CB-[CG] |==|  0.15675
USER: genes 5 Torsion [CA]-CB--CG-[CD1] |==|  0.07957
USER: genes 6 Torsion [C]-CA--N-[C] |==|  0.80556
USER: genes 7 Torsion [N]-CA--C-[N] |==|  0.20586
USER: genes 8 Torsion [C]-N--CA-[CB] |==|  0.20605
USER: genes 9 Torsion [N]-CA--C-[N] |==|  0.01579
USER: genes 10 Torsion [C]-N--CA-[C] |==|  0.54463
USER: genes 11 Torsion [N]-CA--C-[N] |==|  0.42823
USER: genes 12 Torsion [N]-CA--CB-[CG] |==|  0.71196
USER: genes 13 Torsion [CA]-CB--CG-[CD2] |==|  0.80616
ROOT
ATOM      1  CA  HIS C   2      14.269  18.992  31.573  1.00 10.06 LIG 0.18  C 
ENDROOT
BRANCH 1 2
ATOM      2  N   HIS C   2      14.432  18.766  33.009  1.00  9.48 LIG-0.35  N 
ATOM      3 H    HIS C   2      13.803  19.103  33.489  1.00  9.48 LIG 0.16  HD
ATOM      4  C   PHE C   1      15.461  18.100  33.514  1.00  9.37 LIG 0.24  C 
ATOM      5 O    PHE C   1      16.313  17.551  32.824  1.00 11.27 LIG-0.27  OA
BRANCH 4 6
ATOM      6  CA  PHE C   1      15.551  18.070  35.025  1.00  8.68 LIG 0.18  C 
BRANCH 6 7
ATOM      7  CB  PHE C   1      16.990  18.381  35.431  1.00  8.30 LIG 0.07  C 
BRANCH 7 8
ATOM      8  CG  PHE C   1      17.500  19.687  34.898  1.00  6.80 LIG-0.06  A 
ATOM      9  CD1 PHE C   1      16.629  20.739  34.646  1.00  6.68 LIG 0.01  A 
ATOM     10  CE1 PHE C   1      17.107  21.944  34.166  1.00  6.85 LIG 0.00  A 
ATOM     11  CZ  PHE C   1      18.452  22.106  33.918  1.00  6.56 LIG 0.00  A 
ATOM     12  CE2 PHE C   1      19.332  21.068  34.159  1.00  6.82 LIG 0.00  A 
ATOM     13  CD2 PHE C   1      18.853  19.865  34.651  1.00  7.43 LIG 0.01  A 
ENDBRANCH 7 8
ENDBRANCH 6 7
BRANCH 6 14
ATOM     14  N   PHE C   1      15.134  16.769  35.555  1.00  9.64 LIG-0.35  N 
ATOM     15 H    PHE C   1      15.773  16.298  35.886  1.00  9.64 LIG 0.16  HD
ATOM     16  C   ACE C   0      13.866  16.375  35.512  1.00 12.10 LIG 0.21  C 
ATOM     17  CH3 ACE C   0      13.583  14.993  36.025  1.00 13.09 LIG 0.12  C 
ATOM     18 O    ACE C   0      12.974  17.094  35.060  1.00 13.69 LIG-0.27  OA
ENDBRANCH 6 14
ENDBRANCH 4 6
ENDBRANCH 1 2
BRANCH 1 19
ATOM     19  C   HIS C   2      13.098  19.922  31.344  1.00  9.05 LIG 0.24  C 
ATOM     20  N   ALA C   3      13.284  21.202  31.634  1.00  9.24 LIG-0.35  N 
ATOM     21 H    ALA C   3      13.991  21.521  32.007  1.00  9.24 LIG 0.16  HD
ATOM     22 O    HIS C   2      12.049  19.500  30.871  1.00  8.29 LIG-0.27  OA
BRANCH 20 23
ATOM     23  CA  ALA C   3      12.252  22.186  31.323  1.00  8.91 LIG 0.17  C 
ATOM     24  CB  ALA C   3      11.090  22.068  32.295  1.00  9.99 LIG 0.04  C 
BRANCH 23 25
ATOM     25  C   ALA C   3      12.839  23.599  31.374  1.00  9.36 LIG 0.24  C 
ATOM     26  N   ALA C   4      14.151  23.682  31.562  1.00  9.08 LIG-0.35  N 
ATOM     27 H    ALA C   4      14.680  23.004  31.556  1.00  9.08 LIG 0.16  HD
ATOM     28 O    ALA C   3      12.117  24.594  31.221  1.00  9.90 LIG-0.27  OA
BRANCH 26 29
ATOM     29  CA  ALA C   4      14.813  24.964  31.800  1.00  9.70 LIG 0.18  C 
ATOM     30  CB  ALA C   4      14.488  25.467  33.187  1.00  9.53 LIG 0.04  C 
BRANCH 29 31
ATOM     31  C   ALA C   4      16.318  24.923  31.610  1.00 11.00 LIG 0.28  C 
ATOM     32  N   NH2 C   5      16.915  26.062  31.286  1.00 10.22 LIG-0.11  N 
ATOM     33 O    ALA C   4      16.914  23.861  31.724  1.00 13.70 LIG-0.27  OA
ENDBRANCH 29 31
ENDBRANCH 26 29
ENDBRANCH 23 25
ENDBRANCH 20 23
ENDBRANCH 1 19
BRANCH 1 34
ATOM     34  CB  HIS C   2      13.976  17.681  30.833  1.00 12.23 LIG 0.10  C 
BRANCH 34 35
ATOM     35  CG  HIS C   2      15.140  17.129  30.083  1.00 15.24 LIG 0.06  A 
ATOM     36 ND1  HIS C   2      15.793  15.979  30.470  1.00 17.16 LIG-0.24  NA
ATOM     37  CE1 HIS C   2      16.779  15.731  29.626  1.00 17.55 LIG 0.23  A 
ATOM     38 NE2  HIS C   2      16.788  16.679  28.706  1.00 18.01 LIG-0.25  NA
ATOM     39  CD2 HIS C   2      15.772  17.564  28.969  1.00 16.53 LIG 0.14  A 
ENDBRANCH 34 35
ENDBRANCH 1 34
TORSDOF 12
ENDMDL
MODEL 131
USER: ADFR SOLUTION from run 95
USER: SCORE 10.753691 LL:  -2.224 LR:  -9.285 RR:   0.000 FEB:  -5.705
USER: RMSD 8.377044
USER: SEED 94
USER: STATUS no improvement in best in 22 clusters for 5 generations
USER: GENES 14
USER: genes 0 Translation |==|  0.28056 0.55964 0.36103
USER: genes 1 Rotation |==|  0.54486 0.01996 0.41667 0.60298
USER: genes 2 Torsion [CB]-CA--N-[C] |==|  0.57879
USER: genes 3 Torsion [N]-C--CA-[N] |==|  0.36371
USER: genes 4 Torsion [C]-CA--CB-[CG] |==|  0.55172
USER: genes 5 Torsion [CA]-CB--CG-[CD1] |==|  0.82727
USER: genes 6 Torsion [C]-CA--N-[C] |==|  0.85253
USER: genes 7 Torsion [N]-CA--C-[N] |==|  0.31672
USER: genes 8 Torsion [C]-N--CA-[CB] |==|  0.86534
USER: genes 9 Torsion [N]-CA--C-[N] |==|  0.37727
USER: genes 10 Torsion [C]-N--CA-[C] |==|  0.60952
USER: genes 11 Torsion [N]-CA--C-[N] |==|  0.44309
USER: genes 12 Torsion [N]-CA--CB-[CG] |==|  0.57576
USER: genes 13 Torsion [CA]-CB--CG-[CD2] |==|  0.45822
ROOT
ATOM      1  CA  HIS C   2       8.913  22.941  28.151  1.00 10.06 LIG 0.18  C 
ENDROOT
BRANCH 1 2
ATOM      2  N   HIS C   2       8.020  21.786  28.246  1.00  9.48 LIG-0.35  N 
ATOM      3 H    HIS C   2       7.229  21.930  27.939  1.00  9.48 LIG 0.16  HD
ATOM      4  C   PHE C   1       8.405  20.627  28.762  1.00  9.37 LIG 0.24  C 
ATOM      5 O    PHE C   1       9.554  20.399  29.125  1.00 11.27 LIG-0.27  OA
BRANCH 4 6
ATOM      6  CA  PHE C   1       7.324  19.578  28.909  1.00  8.68 LIG 0.18  C 
BRANCH 6 7
ATOM      7  CB  PHE C   1       6.980  19.441  30.391  1.00  8.30 LIG 0.07  C 
BRANCH 7 8
ATOM      8  CG  PHE C   1       6.269  18.164  30.730  1.00  6.80 LIG-0.06  A 
ATOM      9  CD1 PHE C   1       5.025  17.878  30.184  1.00  6.68 LIG 0.01  A 
ATOM     10  CE1 PHE C   1       4.381  16.694  30.491  1.00  6.85 LIG 0.00  A 
ATOM     11  CZ  PHE C   1       4.961  15.793  31.355  1.00  6.56 LIG 0.00  A 
ATOM     12  CE2 PHE C   1       6.198  16.064  31.911  1.00  6.82 LIG 0.00  A 
ATOM     13  CD2 PHE C   1       6.847  17.245  31.594  1.00  7.43 LIG 0.01  A 
ENDBRANCH 7 8
ENDBRANCH 6 7
BRANCH 6 14
ATOM     14  N   PHE C   1       7.756  18.291  28.358  1.00  9.64 LIG-0.35  N 
ATOM     15 H    PHE C   1       7.680  17.627  28.900  1.00  9.64 LIG 0.16  HD
ATOM     16  C   ACE C   0       8.224  18.187  27.118  1.00 12.10 LIG 0.21  C 
ATOM     17  CH3 ACE C   0       8.697  16.826  26.700  1.00 13.09 LIG 0.12  C 
ATOM     18 O    ACE C   0       8.285  19.156  26.361  1.00 13.69 LIG-0.27  OA
ENDBRANCH 6 14
ENDBRANCH 4 6
ENDBRANCH 1 2
BRANCH 1 19
ATOM     19  C   HIS C   2       9.869  22.929  29.325  1.00  9.05 LIG 0.24  C 
ATOM     20  N   ALA C   3      11.151  22.739  29.050  1.00  9.24 LIG-0.35  N 
ATOM     21 H    ALA C   3      11.462  22.552  28.270  1.00  9.24 LIG 0.16  HD
ATOM     22 O    HIS C   2       9.462  23.129  30.463  1.00  8.29 LIG-0.27  OA
BRANCH 20 23
ATOM     23  CA  ALA C   3      12.155  22.841  30.106  1.00  8.91 LIG 0.17  C 
ATOM     24  CB  ALA C   3      11.954  24.112  30.913  1.00  9.99 LIG 0.04  C 
BRANCH 23 25
ATOM     25  C   ALA C   3      12.081  21.618  31.023  1.00  9.36 LIG 0.24  C 
ATOM     26  N   ALA C   4      13.242  21.069  31.362  1.00  9.08 LIG-0.35  N 
ATOM     27 H    ALA C   4      14.008  21.415  31.180  1.00  9.08 LIG 0.16  HD
ATOM     28 O    ALA C   3      10.992  21.195  31.434  1.00  9.90 LIG-0.27  OA
BRANCH 26 29
ATOM     29  CA  ALA C   4      13.309  19.802  32.089  1.00  9.70 LIG 0.18  C 
ATOM     30  CB  ALA C   4      13.500  18.656  31.121  1.00  9.53 LIG 0.04  C 
BRANCH 29 31
ATOM     31  C   ALA C   4      14.392  19.759  33.151  1.00 11.00 LIG 0.28  C 
ATOM     32  N   NH2 C   5      14.259  18.853  34.110  1.00 10.22 LIG-0.11  N 
ATOM     33 O    ALA C   4      15.311  20.564  33.111  1.00 13.70 LIG-0.27  OA
ENDBRANCH 29 31
ENDBRANCH 26 29
ENDBRANCH 23 25
ENDBRANCH 20 23
ENDBRANCH 1 19
BRANCH 1 34
ATOM     34  CB  HIS C   2       8.129  24.258  28.202  1.00 12.23 LIG 0.10  C 
BRANCH 34 35
ATOM     35  CG  HIS C   2       8.796  25.393  27.501  1.00 15.24 LIG 0.06  A 
ATOM     36 ND1  HIS C   2      10.122  25.358  27.130  1.00 17.16 LIG-0.24  NA
ATOM     37  CE1 HIS C   2      10.438  26.494  26.533  1.00 17.55 LIG 0.23  A 
ATOM     38 NE2  HIS C   2       9.365  27.262  26.503  1.00 18.01 LIG-0.25  NA
ATOM     39  CD2 HIS C   2       8.324  26.596  27.101  1.00 16.53 LIG 0.14  A 
ENDBRANCH 34 35
ENDBRANCH 1 34
TORSDOF 12
ENDMDL
MODEL 132
USER: ADFR SOLUTION from run 68
USER: SCORE 10.425488 LL:  -3.244 LR:  -9.269 RR:   0.000 FEB:  -5.690
USER: RMSD 5.456824
USER: SEED 67
USER: STATUS searching
USER: GENES 14
USER: genes 0 Translation |==|  0.29556 0.48297 0.39690
USER: genes 1 Rotation |==|  0.76131 0.20840 0.74163 0.69571
USER: genes 2 Torsion [CB]-CA--N-[C] |==|  0.49444
USER: genes 3 Torsion [N]-C--CA-[N] |==|  0.34524
USER: genes 4 Torsion [C]-CA--CB-[CG] |==|  0.78974
USER: genes 5 Torsion [CA]-CB--CG-[CD1] |==|  0.74832
USER: genes 6 Torsion [C]-CA--N-[C] |==|  0.76920
USER: genes 7 Torsion [N]-CA--C-[N] |==|  0.24016
USER: genes 8 Torsion [C]-N--CA-[CB] |==|  0.21270
USER: genes 9 Torsion [N]-CA--C-[N] |==|  0.96965
USER: genes 10 Torsion [C]-N--CA-[C] |==|  0.12399
USER: genes 11 Torsion [N]-CA--C-[N] |==|  0.12404
USER: genes 12 Torsion [N]-CA--CB-[CG] |==|  0.06039
USER: genes 13 Torsion [CA]-CB--CG-[CD2] |==|  0.27767
ROOT
ATOM      1  CA  HIS C   2       9.161  21.330  28.851  1.00 10.06 LIG 0.18  C 
ENDROOT
BRANCH 1 2
ATOM      2  N   HIS C   2       9.928  21.112  30.076  1.00  9.48 LIG-0.35  N 
ATOM      3 H    HIS C   2       9.528  20.620  30.657  1.00  9.48 LIG 0.16  HD
ATOM      4  C   PHE C   1      11.134  21.631  30.264  1.00  9.37 LIG 0.24  C 
ATOM      5 O    PHE C   1      11.738  22.264  29.404  1.00 11.27 LIG-0.27  OA
BRANCH 4 6
ATOM      6  CA  PHE C   1      11.737  21.422  31.636  1.00  8.68 LIG 0.18  C 
BRANCH 6 7
ATOM      7  CB  PHE C   1      11.856  22.780  32.326  1.00  8.30 LIG 0.07  C 
BRANCH 7 8
ATOM      8  CG  PHE C   1      12.989  23.620  31.813  1.00  6.80 LIG-0.06  A 
ATOM      9  CD1 PHE C   1      14.247  23.547  32.397  1.00  6.68 LIG 0.01  A 
ATOM     10  CE1 PHE C   1      15.289  24.315  31.912  1.00  6.85 LIG 0.00  A 
ATOM     11  CZ  PHE C   1      15.084  25.172  30.853  1.00  6.56 LIG 0.00  A 
ATOM     12  CE2 PHE C   1      13.837  25.259  30.263  1.00  6.82 LIG 0.00  A 
ATOM     13  CD2 PHE C   1      12.797  24.481  30.743  1.00  7.43 LIG 0.01  A 
ENDBRANCH 7 8
ENDBRANCH 6 7
BRANCH 6 14
ATOM     14  N   PHE C   1      13.047  20.772  31.546  1.00  9.64 LIG-0.35  N 
ATOM     15 H    PHE C   1      13.715  21.312  31.574  1.00  9.64 LIG 0.16  HD
ATOM     16  C   ACE C   0      13.161  19.453  31.432  1.00 12.10 LIG 0.21  C 
ATOM     17  CH3 ACE C   0      14.556  18.920  31.279  1.00 13.09 LIG 0.12  C 
ATOM     18 O    ACE C   0      12.180  18.710  31.431  1.00 13.69 LIG-0.27  OA
ENDBRANCH 6 14
ENDBRANCH 4 6
ENDBRANCH 1 2
BRANCH 1 19
ATOM     19  C   HIS C   2       8.849  22.805  28.714  1.00  9.05 LIG 0.24  C 
ATOM     20  N   ALA C   3       9.766  23.557  28.121  1.00  9.24 LIG-0.35  N 
ATOM     21 H    ALA C   3      10.544  23.281  27.879  1.00  9.24 LIG 0.16  HD
ATOM     22 O    HIS C   2       7.778  23.255  29.100  1.00  8.29 LIG-0.27  OA
BRANCH 20 23
ATOM     23  CA  ALA C   3       9.493  24.962  27.833  1.00  8.91 LIG 0.17  C 
ATOM     24  CB  ALA C   3       9.603  25.798  29.097  1.00  9.99 LIG 0.04  C 
BRANCH 23 25
ATOM     25  C   ALA C   3      10.466  25.482  26.772  1.00  9.36 LIG 0.24  C 
ATOM     26  N   ALA C   4      11.489  24.688  26.476  1.00  9.08 LIG-0.35  N 
ATOM     27 H    ALA C   4      11.572  23.883  26.768  1.00  9.08 LIG 0.16  HD
ATOM     28 O    ALA C   3      10.278  26.572  26.215  1.00  9.90 LIG-0.27  OA
BRANCH 26 29
ATOM     29  CA  ALA C   4      12.581  25.132  25.611  1.00  9.70 LIG 0.18  C 
ATOM     30  CB  ALA C   4      12.160  25.055  24.161  1.00  9.53 LIG 0.04  C 
BRANCH 29 31
ATOM     31  C   ALA C   4      13.083  26.529  25.924  1.00 11.00 LIG 0.28  C 
ATOM     32  N   NH2 C   5      13.272  26.830  27.201  1.00 10.22 LIG-0.11  N 
ATOM     33 O    ALA C   4      13.262  27.326  25.013  1.00 13.70 LIG-0.27  OA
ENDBRANCH 29 31
ENDBRANCH 26 29
ENDBRANCH 23 25
ENDBRANCH 20 23
ENDBRANCH 1 19
BRANCH 1 34
ATOM     34  CB  HIS C   2       7.827  20.574  28.887  1.00 12.23 LIG 0.10  C 
BRANCH 34 35
ATOM     35  CG  HIS C   2       7.358  20.228  30.259  1.00 15.24 LIG 0.06  A 
ATOM     36 ND1  HIS C   2       7.851  19.151  30.961  1.00 17.16 LIG-0.24  NA
ATOM     37  CE1 HIS C   2       7.257  19.088  32.140  1.00 17.55 LIG 0.23  A 
ATOM     38 NE2  HIS C   2       6.396  20.086  32.226  1.00 18.01 LIG-0.25  NA
ATOM     39  CD2 HIS C   2       6.442  20.815  31.063  1.00 16.53 LIG 0.14  A 
ENDBRANCH 34 35
ENDBRANCH 1 34
TORSDOF 12
ENDMDL
MODEL 133
USER: ADFR SOLUTION from run 155
USER: SCORE 10.508414 LL:  -3.370 LR:  -9.266 RR:   0.000 FEB:  -5.687
USER: RMSD 5.463137
USER: SEED 154
USER: STATUS no improvement in best in 32 clusters for 5 generations
USER: GENES 14
USER: genes 0 Translation |==|  0.60651 0.38199 0.71061
USER: genes 1 Rotation |==|  0.74860 0.55841 0.17614 0.78266
USER: genes 2 Torsion [CB]-CA--N-[C] |==|  0.80556
USER: genes 3 Torsion [N]-C--CA-[N] |==|  0.12877
USER: genes 4 Torsion [C]-CA--CB-[CG] |==|  0.23808
USER: genes 5 Torsion [CA]-CB--CG-[CD1] |==|  0.43335
USER: genes 6 Torsion [C]-CA--N-[C] |==|  0.14189
USER: genes 7 Torsion [N]-CA--C-[N] |==|  0.13555
USER: genes 8 Torsion [C]-N--CA-[CB] |==|  0.18019
USER: genes 9 Torsion [N]-CA--C-[N] |==|  0.81833
USER: genes 10 Torsion [C]-N--CA-[C] |==|  0.59524
USER: genes 11 Torsion [N]-CA--C-[N] |==|  0.39626
USER: genes 12 Torsion [N]-CA--CB-[CG] |==|  0.90061
USER: genes 13 Torsion [CA]-CB--CG-[CD2] |==|  0.69576
ROOT
ATOM      1  CA  HIS C   2      14.291  19.210  34.968  1.00 10.06 LIG 0.18  C 
ENDROOT
BRANCH 1 2
ATOM      2  N   HIS C   2      13.653  18.857  33.700  1.00  9.48 LIG-0.35  N 
ATOM      3 H    HIS C   2      12.800  18.765  33.752  1.00  9.48 LIG 0.16  HD
ATOM      4  C   PHE C   1      14.340  18.696  32.577  1.00  9.37 LIG 0.24  C 
ATOM      5 O    PHE C   1      15.545  18.907  32.486  1.00 11.27 LIG-0.27  OA
BRANCH 4 6
ATOM      6  CA  PHE C   1      13.549  18.203  31.385  1.00  8.68 LIG 0.18  C 
BRANCH 6 7
ATOM      7  CB  PHE C   1      14.411  18.356  30.133  1.00  8.30 LIG 0.07  C 
BRANCH 7 8
ATOM      8  CG  PHE C   1      15.328  17.195  29.886  1.00  6.80 LIG-0.06  A 
ATOM      9  CD1 PHE C   1      15.797  16.921  28.608  1.00  6.68 LIG 0.01  A 
ATOM     10  CE1 PHE C   1      16.651  15.857  28.389  1.00  6.85 LIG 0.00  A 
ATOM     11  CZ  PHE C   1      17.034  15.048  29.436  1.00  6.56 LIG 0.00  A 
ATOM     12  CE2 PHE C   1      16.574  15.305  30.715  1.00  6.82 LIG 0.00  A 
ATOM     13  CD2 PHE C   1      15.727  16.379  30.934  1.00  7.43 LIG 0.01  A 
ENDBRANCH 7 8
ENDBRANCH 6 7
BRANCH 6 14
ATOM     14  N   PHE C   1      12.292  18.942  31.239  1.00  9.64 LIG-0.35  N 
ATOM     15 H    PHE C   1      11.594  18.446  31.162  1.00  9.64 LIG 0.16  HD
ATOM     16  C   ACE C   0      12.265  20.271  31.231  1.00 12.10 LIG 0.21  C 
ATOM     17  CH3 ACE C   0      10.923  20.905  31.005  1.00 13.09 LIG 0.12  C 
ATOM     18 O    ACE C   0      13.284  20.945  31.379  1.00 13.69 LIG-0.27  OA
ENDBRANCH 6 14
ENDBRANCH 4 6
ENDBRANCH 1 2
BRANCH 1 19
ATOM     19  C   HIS C   2      15.223  20.382  34.748  1.00  9.05 LIG 0.24  C 
ATOM     20  N   ALA C   3      14.732  21.420  34.085  1.00  9.24 LIG-0.35  N 
ATOM     21 H    ALA C   3      13.956  21.441  33.714  1.00  9.24 LIG 0.16  HD
ATOM     22 O    HIS C   2      16.360  20.371  35.205  1.00  8.29 LIG-0.27  OA
BRANCH 20 23
ATOM     23  CA  ALA C   3      15.519  22.641  33.940  1.00  8.91 LIG 0.17  C 
ATOM     24  CB  ALA C   3      16.764  22.380  33.111  1.00  9.99 LIG 0.04  C 
BRANCH 23 25
ATOM     25  C   ALA C   3      14.673  23.738  33.289  1.00  9.36 LIG 0.24  C 
ATOM     26  N   ALA C   4      14.294  23.519  32.035  1.00  9.08 LIG-0.35  N 
ATOM     27 H    ALA C   4      14.410  22.774  31.622  1.00  9.08 LIG 0.16  HD
ATOM     28 O    ALA C   3      14.353  24.754  33.920  1.00  9.90 LIG-0.27  OA
BRANCH 26 29
ATOM     29  CA  ALA C   4      13.632  24.553  31.241  1.00  9.70 LIG 0.18  C 
ATOM     30  CB  ALA C   4      14.658  25.365  30.485  1.00  9.53 LIG 0.04  C 
BRANCH 29 31
ATOM     31  C   ALA C   4      12.593  24.015  30.274  1.00 11.00 LIG 0.28  C 
ATOM     32  N   NH2 C   5      11.497  24.741  30.103  1.00 10.22 LIG-0.11  N 
ATOM     33 O    ALA C   4      12.779  22.939  29.723  1.00 13.70 LIG-0.27  OA
ENDBRANCH 29 31
ENDBRANCH 26 29
ENDBRANCH 23 25
ENDBRANCH 20 23
ENDBRANCH 1 19
BRANCH 1 34
ATOM     34  CB  HIS C   2      15.128  18.046  35.513  1.00 12.23 LIG 0.10  C 
BRANCH 34 35
ATOM     35  CG  HIS C   2      14.544  16.699  35.251  1.00 15.24 LIG 0.06  A 
ATOM     36 ND1  HIS C   2      14.500  16.142  33.992  1.00 17.16 LIG-0.24  NA
ATOM     37  CE1 HIS C   2      13.931  14.952  34.061  1.00 17.55 LIG 0.23  A 
ATOM     38 NE2  HIS C   2      13.606  14.717  35.319  1.00 18.01 LIG-0.25  NA
ATOM     39  CD2 HIS C   2      13.980  15.793  36.084  1.00 16.53 LIG 0.14  A 
ENDBRANCH 34 35
ENDBRANCH 1 34
TORSDOF 12
ENDMDL
