MODEL 1
USER: ADFR SOLUTION from run 6
USER: SCORE 11.711348 LL:  -2.519 LR: -11.581 RR:   0.000 FEB:  -8.002
USER: RMSD 1.258983
USER: SEED 120627
USER: STATUS no improvement in best in 23 clusters for 5 generations
USER: GENES 14
USER: genes 0 Translation |==|  0.54779 0.51936 0.56283
USER: genes 1 Rotation |==|  0.51615 0.48753 0.50186 0.99958
USER: genes 2 Torsion [CB]-CA--N-[C] |==|  0.45051
USER: genes 3 Torsion [N]-C--CA-[N] |==|  0.26723
USER: genes 4 Torsion [C]-CA--N-[C] |==|  0.74427
USER: genes 5 Torsion [C]-CA--CB-[CG] |==|  0.49735
USER: genes 6 Torsion [CA]-CB--CG-[CD2] |==|  0.28367
USER: genes 7 Torsion [N]-CA--C-[N] |==|  0.41250
USER: genes 8 Torsion [C]-N--CA-[CB] |==|  0.51111
USER: genes 9 Torsion [N]-CA--C-[N] |==|  0.38722
USER: genes 10 Torsion [C]-N--CA-[CB] |==|  0.47319
USER: genes 11 Torsion [N]-CA--C-[N] |==|  0.42734
USER: genes 12 Torsion [N]-CA--CB-[OG1] |==|  0.77210
USER: genes 13 Torsion [CA]-CB--OG1-[HG1] |==|  0.78341
ROOT
ATOM      1  CA  ALA C   2      25.550   2.624  44.034  1.00 19.98 LIG 0.17  C 
ATOM      2  CB  ALA C   2      26.215   3.987  44.242  1.00 20.88 LIG 0.04  C 
ENDROOT
BRANCH 1 3
ATOM      3  N   ALA C   2      25.528   2.268  42.626  1.00 19.64 LIG-0.35  N 
ATOM      4 H    ALA C   2      25.650   2.919  42.078  1.00 19.64 LIG 0.16  HD
ATOM      5  C   PHE C   1      25.328   1.009  42.276  1.00 22.16 LIG 0.24  C 
ATOM      6 O    PHE C   1      25.249   0.112  43.115  1.00 23.85 LIG-0.27  OA
BRANCH 5 7
ATOM      7  CA  PHE C   1      25.265   0.695  40.791  1.00 22.77 LIG 0.18  C 
BRANCH 7 8
ATOM      8  N   PHE C   1      26.574   0.252  40.392  1.00 26.70 LIG-0.35  N 
ATOM      9 H    PHE C   1      26.705  -0.593  40.486  1.00 26.70 LIG 0.16  HD
ATOM     10  C   ACE C   0      27.476   1.083  39.928  1.00 28.63 LIG 0.21  C 
ATOM     11  CH3 ACE C   0      28.765   0.387  39.549  1.00 28.20 LIG 0.12  C 
ATOM     12 O    ACE C   0      27.223   2.289  39.846  1.00 29.97 LIG-0.27  OA
ENDBRANCH 7 8
BRANCH 7 13
ATOM     13  CB  PHE C   1      24.303  -0.428  40.455  1.00 20.34 LIG 0.07  C 
BRANCH 13 14
ATOM     14  CG  PHE C   1      24.229  -0.719  38.979  1.00 17.40 LIG-0.06  A 
ATOM     15  CD1 PHE C   1      23.490   0.072  38.094  1.00 16.88 LIG 0.01  A 
ATOM     16  CE1 PHE C   1      23.434  -0.255  36.721  1.00 14.02 LIG 0.00  A 
ATOM     17  CZ  PHE C   1      24.092  -1.336  36.266  1.00 15.72 LIG 0.00  A 
ATOM     18  CE2 PHE C   1      24.824  -2.118  37.139  1.00 14.79 LIG 0.00  A 
ATOM     19  CD2 PHE C   1      24.893  -1.801  38.471  1.00 15.53 LIG 0.01  A 
ENDBRANCH 13 14
ENDBRANCH 7 13
ENDBRANCH 5 7
ENDBRANCH 1 3
BRANCH 1 20
ATOM     20  C   ALA C   2      24.136   2.678  44.575  1.00 17.39 LIG 0.24  C 
ATOM     21  N   THR C   3      24.004   2.342  45.861  1.00 15.98 LIG-0.34  N 
ATOM     22 H    THR C   3      24.649   2.074  46.363  1.00 15.98 LIG 0.16  HD
ATOM     23 O    ALA C   2      23.202   3.049  43.856  1.00 16.73 LIG-0.27  OA
BRANCH 21 24
ATOM     24  CA  THR C   3      22.709   2.413  46.514  1.00 15.15 LIG 0.20  C 
BRANCH 24 25
ATOM     25  C   THR C   3      22.089   3.787  46.328  1.00 14.93 LIG 0.24  C 
ATOM     26  N   ALA C   4      20.790   3.791  46.082  1.00 13.95 LIG-0.35  N 
ATOM     27 H    ALA C   4      20.323   3.075  45.983  1.00 13.95 LIG 0.16  HD
ATOM     28 O    THR C   3      22.758   4.819  46.444  1.00 16.43 LIG-0.27  OA
BRANCH 26 29
ATOM     29  CA  ALA C   4      20.026   5.009  45.958  1.00 14.93 LIG 0.18  C 
ATOM     30  CB  ALA C   4      18.633   4.662  45.443  1.00 15.34 LIG 0.04  C 
BRANCH 29 31
ATOM     31  C   ALA C   4      19.968   5.751  47.297  1.00 16.13 LIG 0.28  C 
ATOM     32 O    ALA C   4      20.074   5.137  48.356  1.00 17.37 LIG-0.27  OA
ATOM     33  N   NH2 C   5      19.794   7.070  47.251  1.00 15.73 LIG-0.11  N 
ENDBRANCH 29 31
ENDBRANCH 26 29
ENDBRANCH 24 25
BRANCH 24 34
ATOM     34  CB  THR C   3      22.813   2.078  48.008  1.00 16.10 LIG 0.15  C 
ATOM     35  CG2 THR C   3      21.649   2.651  48.810  1.00 16.48 LIG 0.04  C 
BRANCH 34 36
ATOM     36 OG1  THR C   3      22.818   0.652  48.156  1.00 16.89 LIG-0.39  OA
ATOM     37 HG1  THR C   3      22.034   0.359  48.075  1.00 16.89 LIG 0.21  HD
ENDBRANCH 34 36
ENDBRANCH 24 34
ENDBRANCH 21 24
ENDBRANCH 1 20
TORSDOF 12
ENDMDL
MODEL 2
USER: ADFR SOLUTION from run 136
USER: SCORE 10.834396 LL:  -2.354 LR: -11.498 RR:   0.000 FEB:  -7.919
USER: RMSD 2.068779
USER: SEED 135
USER: STATUS searching
USER: GENES 14
USER: genes 0 Translation |==|  0.56932 0.42321 0.55801
USER: genes 1 Rotation |==|  0.47976 0.46484 0.42805 0.99313
USER: genes 2 Torsion [CB]-CA--N-[C] |==|  0.38969
USER: genes 3 Torsion [N]-C--CA-[N] |==|  0.41307
USER: genes 4 Torsion [C]-CA--N-[C] |==|  0.64556
USER: genes 5 Torsion [C]-CA--CB-[CG] |==|  0.40669
USER: genes 6 Torsion [CA]-CB--CG-[CD2] |==|  0.18189
USER: genes 7 Torsion [N]-CA--C-[N] |==|  0.39735
USER: genes 8 Torsion [C]-N--CA-[CB] |==|  0.51177
USER: genes 9 Torsion [N]-CA--C-[N] |==|  0.41261
USER: genes 10 Torsion [C]-N--CA-[CB] |==|  0.19497
USER: genes 11 Torsion [N]-CA--C-[N] |==|  0.96111
USER: genes 12 Torsion [N]-CA--CB-[OG1] |==|  0.82297
USER: genes 13 Torsion [CA]-CB--OG1-[HG1] |==|  0.68931
ROOT
ATOM      1  CA  ALA C   2      25.954   1.038  43.933  1.00 19.98 LIG 0.17  C 
ATOM      2  CB  ALA C   2      26.986   2.163  44.039  1.00 20.88 LIG 0.04  C 
ENDROOT
BRANCH 1 3
ATOM      3  N   ALA C   2      25.910   0.500  42.584  1.00 19.64 LIG-0.35  N 
ATOM      4 H    ALA C   2      25.974   1.080  41.952  1.00 19.64 LIG 0.16  HD
ATOM      5  C   PHE C   1      25.778  -0.803  42.406  1.00 22.16 LIG 0.24  C 
ATOM      6 O    PHE C   1      25.783  -1.586  43.356  1.00 23.85 LIG-0.27  OA
BRANCH 5 7
ATOM      7  CA  PHE C   1      25.689  -1.312  40.977  1.00 22.77 LIG 0.18  C 
BRANCH 7 8
ATOM      8  N   PHE C   1      26.278  -2.624  40.954  1.00 26.70 LIG-0.35  N 
ATOM      9 H    PHE C   1      25.959  -3.165  41.541  1.00 26.70 LIG 0.16  HD
ATOM     10  C   ACE C   0      27.221  -2.946  40.101  1.00 28.63 LIG 0.21  C 
ATOM     11  CH3 ACE C   0      27.666  -4.384  40.246  1.00 28.20 LIG 0.12  C 
ATOM     12 O    ACE C   0      27.648  -2.105  39.303  1.00 29.97 LIG-0.27  OA
ENDBRANCH 7 8
BRANCH 7 13
ATOM     13  CB  PHE C   1      24.265  -1.464  40.483  1.00 20.34 LIG 0.07  C 
BRANCH 13 14
ATOM     14  CG  PHE C   1      24.118  -1.172  39.012  1.00 17.40 LIG-0.06  A 
ATOM     15  CD1 PHE C   1      23.364  -0.096  38.532  1.00 16.88 LIG 0.01  A 
ATOM     16  CE1 PHE C   1      23.239   0.122  37.142  1.00 14.02 LIG 0.00  A 
ATOM     17  CZ  PHE C   1      23.844  -0.713  36.278  1.00 15.72 LIG 0.00  A 
ATOM     18  CE2 PHE C   1      24.590  -1.775  36.751  1.00 14.79 LIG 0.00  A 
ATOM     19  CD2 PHE C   1      24.726  -1.989  38.099  1.00 15.53 LIG 0.01  A 
ENDBRANCH 13 14
ENDBRANCH 7 13
ENDBRANCH 5 7
ENDBRANCH 1 3
BRANCH 1 20
ATOM     20  C   ALA C   2      24.592   1.580  44.316  1.00 17.39 LIG 0.24  C 
ATOM     21  N   THR C   3      24.240   1.389  45.591  1.00 15.98 LIG-0.34  N 
ATOM     22 H    THR C   3      24.712   0.959  46.167  1.00 15.98 LIG 0.16  HD
ATOM     23 O    ALA C   2      23.902   2.186  43.490  1.00 16.73 LIG-0.27  OA
BRANCH 21 24
ATOM     24  CA  THR C   3      22.986   1.916  46.098  1.00 15.15 LIG 0.20  C 
BRANCH 24 25
ATOM     25  C   THR C   3      22.868   3.400  45.798  1.00 14.93 LIG 0.24  C 
ATOM     26  N   ALA C   4      21.637   3.840  45.600  1.00 13.95 LIG-0.35  N 
ATOM     27 H    ALA C   4      20.946   3.327  45.587  1.00 13.95 LIG 0.16  HD
ATOM     28 O    THR C   3      23.859   4.138  45.789  1.00 16.43 LIG-0.27  OA
BRANCH 26 29
ATOM     29  CA  ALA C   4      21.335   5.234  45.382  1.00 14.93 LIG 0.18  C 
ATOM     30  CB  ALA C   4      21.861   5.640  44.010  1.00 15.34 LIG 0.04  C 
BRANCH 29 31
ATOM     31  C   ALA C   4      19.829   5.489  45.511  1.00 16.13 LIG 0.28  C 
ATOM     32 O    ALA C   4      19.398   6.634  45.622  1.00 17.37 LIG-0.27  OA
ATOM     33  N   NH2 C   5      19.032   4.422  45.504  1.00 15.73 LIG-0.11  N 
ENDBRANCH 29 31
ENDBRANCH 26 29
ENDBRANCH 24 25
BRANCH 24 34
ATOM     34  CB  THR C   3      22.839   1.667  47.605  1.00 16.10 LIG 0.15  C 
ATOM     35  CG2 THR C   3      21.573   2.301  48.173  1.00 16.48 LIG 0.04  C 
BRANCH 34 36
ATOM     36 OG1  THR C   3      22.789   0.253  47.831  1.00 16.89 LIG-0.39  OA
ATOM     37 HG1  THR C   3      22.022   0.038  48.095  1.00 16.89 LIG 0.21  HD
ENDBRANCH 34 36
ENDBRANCH 24 34
ENDBRANCH 21 24
ENDBRANCH 1 20
TORSDOF 12
ENDMDL
MODEL 3
USER: ADFR SOLUTION from run 49
USER: SCORE 11.268906 LL:  -2.581 LR: -11.070 RR:   0.000 FEB:  -7.490
USER: RMSD 2.792851
USER: SEED 48
USER: STATUS no improvement in best in 12 clusters for 5 generations
USER: GENES 14
USER: genes 0 Translation |==|  0.53179 0.38307 0.55937
USER: genes 1 Rotation |==|  0.50198 0.37670 0.22945 0.90199
USER: genes 2 Torsion [CB]-CA--N-[C] |==|  0.19341
USER: genes 3 Torsion [N]-C--CA-[N] |==|  0.44230
USER: genes 4 Torsion [C]-CA--N-[C] |==|  0.60850
USER: genes 5 Torsion [C]-CA--CB-[CG] |==|  0.38062
USER: genes 6 Torsion [CA]-CB--CG-[CD2] |==|  0.71890
USER: genes 7 Torsion [N]-CA--C-[N] |==|  0.43306
USER: genes 8 Torsion [C]-N--CA-[CB] |==|  0.16702
USER: genes 9 Torsion [N]-CA--C-[N] |==|  0.83907
USER: genes 10 Torsion [C]-N--CA-[CB] |==|  0.79838
USER: genes 11 Torsion [N]-CA--C-[N] |==|  0.14444
USER: genes 12 Torsion [N]-CA--CB-[OG1] |==|  0.74327
USER: genes 13 Torsion [CA]-CB--OG1-[HG1] |==|  0.18077
ROOT
ATOM      1  CA  ALA C   2      25.250   0.376  43.962  1.00 19.98 LIG 0.17  C 
ATOM      2  CB  ALA C   2      26.602   0.370  44.678  1.00 20.88 LIG 0.04  C 
ENDROOT
BRANCH 1 3
ATOM      3  N   ALA C   2      25.388  -0.086  42.591  1.00 19.64 LIG-0.35  N 
ATOM      4 H    ALA C   2      25.277   0.515  41.985  1.00 19.64 LIG 0.16  HD
ATOM      5  C   PHE C   1      25.668  -1.356  42.356  1.00 22.16 LIG 0.24  C 
ATOM      6 O    PHE C   1      25.904  -2.144  43.273  1.00 23.85 LIG-0.27  OA
BRANCH 5 7
ATOM      7  CA  PHE C   1      25.754  -1.801  40.906  1.00 22.77 LIG 0.18  C 
BRANCH 7 8
ATOM      8  N   PHE C   1      26.522  -3.017  40.877  1.00 26.70 LIG-0.35  N 
ATOM      9 H    PHE C   1      26.361  -3.552  41.531  1.00 26.70 LIG 0.16  HD
ATOM     10  C   ACE C   0      27.389  -3.267  39.926  1.00 28.63 LIG 0.21  C 
ATOM     11  CH3 ACE C   0      28.055  -4.616  40.090  1.00 28.20 LIG 0.12  C 
ATOM     12 O    ACE C   0      27.586  -2.438  39.033  1.00 29.97 LIG-0.27  OA
ENDBRANCH 7 8
BRANCH 7 13
ATOM     13  CB  PHE C   1      24.405  -2.122  40.295  1.00 20.34 LIG 0.07  C 
BRANCH 13 14
ATOM     14  CG  PHE C   1      24.247  -1.578  38.899  1.00 17.40 LIG-0.06  A 
ATOM     15  CD1 PHE C   1      24.821  -2.195  37.783  1.00 16.88 LIG 0.01  A 
ATOM     16  CE1 PHE C   1      24.662  -1.634  36.497  1.00 14.02 LIG 0.00  A 
ATOM     17  CZ  PHE C   1      23.958  -0.497  36.348  1.00 15.72 LIG 0.00  A 
ATOM     18  CE2 PHE C   1      23.389   0.113  37.449  1.00 14.79 LIG 0.00  A 
ATOM     19  CD2 PHE C   1      23.529  -0.431  38.700  1.00 15.53 LIG 0.01  A 
ENDBRANCH 13 14
ENDBRANCH 7 13
ENDBRANCH 5 7
ENDBRANCH 1 3
BRANCH 1 20
ATOM     20  C   ALA C   2      24.690   1.783  43.978  1.00 17.39 LIG 0.24  C 
ATOM     21  N   THR C   3      24.057   2.132  45.101  1.00 15.98 LIG-0.34  N 
ATOM     22 H    THR C   3      23.927   1.607  45.770  1.00 15.98 LIG 0.16  HD
ATOM     23 O    ALA C   2      24.860   2.538  43.015  1.00 16.73 LIG-0.27  OA
BRANCH 21 24
ATOM     24  CA  THR C   3      23.529   3.475  45.266  1.00 15.15 LIG 0.20  C 
BRANCH 24 25
ATOM     25  C   THR C   3      22.926   3.648  46.649  1.00 14.93 LIG 0.24  C 
ATOM     26  N   ALA C   4      21.955   2.802  46.951  1.00 13.95 LIG-0.35  N 
ATOM     27 H    ALA C   4      21.641   2.223  46.398  1.00 13.95 LIG 0.16  HD
ATOM     28 O    THR C   3      23.355   4.496  47.438  1.00 16.43 LIG-0.27  OA
BRANCH 26 29
ATOM     29  CA  ALA C   4      21.326   2.774  48.249  1.00 14.93 LIG 0.18  C 
ATOM     30  CB  ALA C   4      22.303   2.169  49.252  1.00 15.34 LIG 0.04  C 
BRANCH 29 31
ATOM     31  C   ALA C   4      20.880   4.179  48.666  1.00 16.13 LIG 0.28  C 
ATOM     32 O    ALA C   4      21.203   4.636  49.760  1.00 17.37 LIG-0.27  OA
ATOM     33  N   NH2 C   5      20.134   4.859  47.799  1.00 15.73 LIG-0.11  N 
ENDBRANCH 29 31
ENDBRANCH 26 29
ENDBRANCH 24 25
BRANCH 24 34
ATOM     34  CB  THR C   3      22.487   3.806  44.189  1.00 16.10 LIG 0.15  C 
ATOM     35  CG2 THR C   3      21.398   4.739  44.708  1.00 16.48 LIG 0.04  C 
BRANCH 34 36
ATOM     36 OG1  THR C   3      23.154   4.441  43.090  1.00 16.89 LIG-0.39  OA
ATOM     37 HG1  THR C   3      23.686   3.897  42.733  1.00 16.89 LIG 0.21  HD
ENDBRANCH 34 36
ENDBRANCH 24 34
ENDBRANCH 21 24
ENDBRANCH 1 20
TORSDOF 12
ENDMDL
MODEL 4
USER: ADFR SOLUTION from run 179
USER: SCORE 11.887852 LL:  -3.015 LR: -10.953 RR:   0.000 FEB:  -7.374
USER: RMSD 5.529984
USER: SEED 178
USER: STATUS no improvement in best in 18 clusters for 5 generations
USER: GENES 14
USER: genes 0 Translation |==|  0.67306 0.53792 0.37179
USER: genes 1 Rotation |==|  0.19122 0.65935 0.33317 0.81848
USER: genes 2 Torsion [CB]-CA--N-[C] |==|  0.15299
USER: genes 3 Torsion [N]-C--CA-[N] |==|  0.85396
USER: genes 4 Torsion [C]-CA--N-[C] |==|  0.72857
USER: genes 5 Torsion [C]-CA--CB-[CG] |==|  0.19657
USER: genes 6 Torsion [CA]-CB--CG-[CD2] |==|  0.05826
USER: genes 7 Torsion [N]-CA--C-[N] |==|  0.08225
USER: genes 8 Torsion [C]-N--CA-[CB] |==|  0.19971
USER: genes 9 Torsion [N]-CA--C-[N] |==|  0.87778
USER: genes 10 Torsion [C]-N--CA-[CB] |==|  0.22211
USER: genes 11 Torsion [N]-CA--C-[N] |==|  0.57445
USER: genes 12 Torsion [N]-CA--CB-[OG1] |==|  0.74836
USER: genes 13 Torsion [CA]-CB--OG1-[HG1] |==|  0.10736
ROOT
ATOM      1  CA  ALA C   2      27.899   2.931  40.023  1.00 19.98 LIG 0.17  C 
ATOM      2  CB  ALA C   2      28.404   2.442  38.664  1.00 20.88 LIG 0.04  C 
ENDROOT
BRANCH 1 3
ATOM      3  N   ALA C   2      26.701   2.210  40.421  1.00 19.64 LIG-0.35  N 
ATOM      4 H    ALA C   2      26.020   2.700  40.607  1.00 19.64 LIG 0.16  HD
ATOM      5  C   PHE C   1      26.724   0.889  40.473  1.00 22.16 LIG 0.24  C 
ATOM      6 O    PHE C   1      27.707   0.246  40.106  1.00 23.85 LIG-0.27  OA
BRANCH 5 7
ATOM      7  CA  PHE C   1      25.462   0.183  40.941  1.00 22.77 LIG 0.18  C 
BRANCH 7 8
ATOM      8  N   PHE C   1      25.087   0.770  42.200  1.00 26.70 LIG-0.35  N 
ATOM      9 H    PHE C   1      24.645   1.504  42.129  1.00 26.70 LIG 0.16  HD
ATOM     10  C   ACE C   0      25.403   0.215  43.345  1.00 28.63 LIG 0.21  C 
ATOM     11  CH3 ACE C   0      24.879   0.996  44.530  1.00 28.20 LIG 0.12  C 
ATOM     12 O    ACE C   0      26.063  -0.828  43.367  1.00 29.97 LIG-0.27  OA
ENDBRANCH 7 8
BRANCH 7 13
ATOM     13  CB  PHE C   1      24.287   0.371  40.003  1.00 20.34 LIG 0.07  C 
BRANCH 13 14
ATOM     14  CG  PHE C   1      24.446  -0.373  38.703  1.00 17.40 LIG-0.06  A 
ATOM     15  CD1 PHE C   1      23.725  -0.037  37.553  1.00 16.88 LIG 0.01  A 
ATOM     16  CE1 PHE C   1      23.894  -0.780  36.364  1.00 14.02 LIG 0.00  A 
ATOM     17  CZ  PHE C   1      24.748  -1.820  36.341  1.00 15.72 LIG 0.00  A 
ATOM     18  CE2 PHE C   1      25.461  -2.152  37.477  1.00 14.79 LIG 0.00  A 
ATOM     19  CD2 PHE C   1      25.312  -1.429  38.633  1.00 15.53 LIG 0.01  A 
ENDBRANCH 13 14
ENDBRANCH 7 13
ENDBRANCH 5 7
ENDBRANCH 1 3
BRANCH 1 20
ATOM     20  C   ALA C   2      27.602   4.413  39.934  1.00 17.39 LIG 0.24  C 
ATOM     21  N   THR C   3      26.647   4.854  40.758  1.00 15.98 LIG-0.34  N 
ATOM     22 H    THR C   3      26.189   4.351  41.285  1.00 15.98 LIG 0.16  HD
ATOM     23 O    ALA C   2      28.246   5.139  39.169  1.00 16.73 LIG-0.27  OA
BRANCH 21 24
ATOM     24  CA  THR C   3      26.312   6.266  40.814  1.00 15.15 LIG 0.20  C 
BRANCH 24 25
ATOM     25  C   THR C   3      25.485   6.572  42.050  1.00 14.93 LIG 0.24  C 
ATOM     26  N   ALA C   4      24.517   5.709  42.309  1.00 13.95 LIG-0.35  N 
ATOM     27 H    ALA C   4      24.323   5.045  41.797  1.00 13.95 LIG 0.16  HD
ATOM     28 O    THR C   3      25.741   7.539  42.775  1.00 16.43 LIG-0.27  OA
BRANCH 26 29
ATOM     29  CA  ALA C   4      23.687   5.802  43.486  1.00 14.93 LIG 0.18  C 
ATOM     30  CB  ALA C   4      22.613   6.857  43.243  1.00 15.34 LIG 0.04  C 
BRANCH 29 31
ATOM     31  C   ALA C   4      23.078   4.439  43.829  1.00 16.13 LIG 0.28  C 
ATOM     32 O    ALA C   4      23.644   3.401  43.495  1.00 17.37 LIG-0.27  OA
ATOM     33  N   NH2 C   5      21.922   4.442  44.491  1.00 15.73 LIG-0.11  N 
ENDBRANCH 29 31
ENDBRANCH 26 29
ENDBRANCH 24 25
BRANCH 24 34
ATOM     34  CB  THR C   3      25.565   6.717  39.552  1.00 16.10 LIG 0.15  C 
ATOM     35  CG2 THR C   3      24.585   7.851  39.837  1.00 16.48 LIG 0.04  C 
BRANCH 34 36
ATOM     36 OG1  THR C   3      26.527   7.169  38.590  1.00 16.89 LIG-0.39  OA
ATOM     37 HG1  THR C   3      27.204   6.672  38.616  1.00 16.89 LIG 0.21  HD
ENDBRANCH 34 36
ENDBRANCH 24 34
ENDBRANCH 21 24
ENDBRANCH 1 20
TORSDOF 12
ENDMDL
MODEL 5
USER: ADFR SOLUTION from run 81
USER: SCORE 11.636572 LL:  -2.444 LR: -10.919 RR:   0.000 FEB:  -7.340
USER: RMSD 3.181236
USER: SEED 80
USER: STATUS no improvement in best in 13 clusters for 5 generations
USER: GENES 14
USER: genes 0 Translation |==|  0.52220 0.46164 0.56305
USER: genes 1 Rotation |==|  0.54098 0.43625 0.24007 0.92035
USER: genes 2 Torsion [CB]-CA--N-[C] |==|  0.22503
USER: genes 3 Torsion [N]-C--CA-[N] |==|  0.30109
USER: genes 4 Torsion [C]-CA--N-[C] |==|  0.74127
USER: genes 5 Torsion [C]-CA--CB-[CG] |==|  0.51168
USER: genes 6 Torsion [CA]-CB--CG-[CD2] |==|  0.77892
USER: genes 7 Torsion [N]-CA--C-[N] |==|  0.94801
USER: genes 8 Torsion [C]-N--CA-[CB] |==|  0.50000
USER: genes 9 Torsion [N]-CA--C-[N] |==|  0.44534
USER: genes 10 Torsion [C]-N--CA-[CB] |==|  0.17864
USER: genes 11 Torsion [N]-CA--C-[N] |==|  0.11076
USER: genes 12 Torsion [N]-CA--CB-[OG1] |==|  0.89593
USER: genes 13 Torsion [CA]-CB--OG1-[HG1] |==|  0.14424
ROOT
ATOM      1  CA  ALA C   2      25.070   1.672  44.039  1.00 19.98 LIG 0.17  C 
ATOM      2  CB  ALA C   2      26.502   1.671  44.579  1.00 20.88 LIG 0.04  C 
ENDROOT
BRANCH 1 3
ATOM      3  N   ALA C   2      25.063   1.565  42.590  1.00 19.64 LIG-0.35  N 
ATOM      4 H    ALA C   2      24.961   2.306  42.165  1.00 19.64 LIG 0.16  HD
ATOM      5  C   PHE C   1      25.207   0.380  42.023  1.00 22.16 LIG 0.24  C 
ATOM      6 O    PHE C   1      25.438  -0.629  42.690  1.00 23.85 LIG-0.27  OA
BRANCH 5 7
ATOM      7  CA  PHE C   1      25.144   0.313  40.507  1.00 22.77 LIG 0.18  C 
BRANCH 7 8
ATOM      8  N   PHE C   1      26.477   0.052  40.035  1.00 26.70 LIG-0.35  N 
ATOM      9 H    PHE C   1      26.682  -0.782  39.999  1.00 26.70 LIG 0.16  HD
ATOM     10  C   ACE C   0      27.295   1.019  39.695  1.00 28.63 LIG 0.21  C 
ATOM     11  CH3 ACE C   0      28.630   0.503  39.204  1.00 28.20 LIG 0.12  C 
ATOM     12 O    ACE C   0      26.938   2.197  39.798  1.00 29.97 LIG-0.27  OA
ENDBRANCH 7 8
BRANCH 7 13
ATOM     13  CB  PHE C   1      24.270  -0.813  39.992  1.00 20.34 LIG 0.07  C 
BRANCH 13 14
ATOM     14  CG  PHE C   1      24.292  -0.935  38.490  1.00 17.40 LIG-0.06  A 
ATOM     15  CD1 PHE C   1      25.078  -1.881  37.826  1.00 16.88 LIG 0.01  A 
ATOM     16  CE1 PHE C   1      25.081  -1.941  36.415  1.00 14.02 LIG 0.00  A 
ATOM     17  CZ  PHE C   1      24.328  -1.079  35.708  1.00 15.72 LIG 0.00  A 
ATOM     18  CE2 PHE C   1      23.549  -0.145  36.363  1.00 14.79 LIG 0.00  A 
ATOM     19  CD2 PHE C   1      23.532  -0.086  37.733  1.00 15.53 LIG 0.01  A 
ENDBRANCH 13 14
ENDBRANCH 7 13
ENDBRANCH 5 7
ENDBRANCH 1 3
BRANCH 1 20
ATOM     20  C   ALA C   2      24.384   2.954  44.465  1.00 17.39 LIG 0.24  C 
ATOM     21  N   THR C   3      24.271   3.883  43.512  1.00 15.98 LIG-0.34  N 
ATOM     22 H    THR C   3      24.589   3.806  42.716  1.00 15.98 LIG 0.16  HD
ATOM     23 O    ALA C   2      23.938   3.077  45.610  1.00 16.73 LIG-0.27  OA
BRANCH 21 24
ATOM     24  CA  THR C   3      23.577   5.132  43.776  1.00 15.15 LIG 0.20  C 
BRANCH 24 25
ATOM     25  C   THR C   3      22.155   4.867  44.238  1.00 14.93 LIG 0.24  C 
ATOM     26  N   ALA C   4      21.576   5.867  44.882  1.00 13.95 LIG-0.35  N 
ATOM     27 H    ALA C   4      21.978   6.602  45.077  1.00 13.95 LIG 0.16  HD
ATOM     28 O    THR C   3      21.581   3.804  43.983  1.00 16.43 LIG-0.27  OA
BRANCH 26 29
ATOM     29  CA  ALA C   4      20.203   5.817  45.321  1.00 14.93 LIG 0.18  C 
ATOM     30  CB  ALA C   4      20.063   4.714  46.364  1.00 15.34 LIG 0.04  C 
BRANCH 29 31
ATOM     31  C   ALA C   4      19.759   7.177  45.868  1.00 16.13 LIG 0.28  C 
ATOM     32 O    ALA C   4      19.040   7.245  46.863  1.00 17.37 LIG-0.27  OA
ATOM     33  N   NH2 C   5      20.180   8.259  45.216  1.00 15.73 LIG-0.11  N 
ENDBRANCH 29 31
ENDBRANCH 26 29
ENDBRANCH 24 25
BRANCH 24 34
ATOM     34  CB  THR C   3      23.571   6.044  42.542  1.00 16.10 LIG 0.15  C 
ATOM     35  CG2 THR C   3      23.360   7.509  42.910  1.00 16.48 LIG 0.04  C 
BRANCH 34 36
ATOM     36 OG1  THR C   3      24.832   5.913  41.873  1.00 16.89 LIG-0.39  OA
ATOM     37 HG1  THR C   3      24.994   5.100  41.736  1.00 16.89 LIG 0.21  HD
ENDBRANCH 34 36
ENDBRANCH 24 34
ENDBRANCH 21 24
ENDBRANCH 1 20
TORSDOF 12
ENDMDL
MODEL 6
USER: ADFR SOLUTION from run 188
USER: SCORE 10.746784 LL:  -2.199 LR: -10.749 RR:   0.000 FEB:  -7.169
USER: RMSD 2.503737
USER: SEED 187
USER: STATUS searching
USER: GENES 14
USER: genes 0 Translation |==|  0.49167 0.47232 0.57305
USER: genes 1 Rotation |==|  0.54556 0.41681 0.27030 0.93387
USER: genes 2 Torsion [CB]-CA--N-[C] |==|  0.21418
USER: genes 3 Torsion [N]-C--CA-[N] |==|  0.32866
USER: genes 4 Torsion [C]-CA--N-[C] |==|  0.73662
USER: genes 5 Torsion [C]-CA--CB-[CG] |==|  0.49090
USER: genes 6 Torsion [CA]-CB--CG-[CD2] |==|  0.78715
USER: genes 7 Torsion [N]-CA--C-[N] |==|  0.44557
USER: genes 8 Torsion [C]-N--CA-[CB] |==|  0.20578
USER: genes 9 Torsion [N]-CA--C-[N] |==|  0.80598
USER: genes 10 Torsion [C]-N--CA-[CB] |==|  0.85259
USER: genes 11 Torsion [N]-CA--C-[N] |==|  0.44443
USER: genes 12 Torsion [N]-CA--CB-[OG1] |==|  0.88645
USER: genes 13 Torsion [CA]-CB--OG1-[HG1] |==|  0.18984
ROOT
ATOM      1  CA  ALA C   2      24.498   1.848  44.249  1.00 19.98 LIG 0.17  C 
ATOM      2  CB  ALA C   2      25.871   2.051  44.894  1.00 20.88 LIG 0.04  C 
ENDROOT
BRANCH 1 3
ATOM      3  N   ALA C   2      24.620   1.684  42.810  1.00 19.64 LIG-0.35  N 
ATOM      4 H    ALA C   2      24.412   2.373  42.340  1.00 19.64 LIG 0.16  HD
ATOM      5  C   PHE C   1      25.030   0.527  42.320  1.00 22.16 LIG 0.24  C 
ATOM      6 O    PHE C   1      25.398  -0.390  43.054  1.00 23.85 LIG-0.27  OA
BRANCH 5 7
ATOM      7  CA  PHE C   1      25.095   0.388  40.808  1.00 22.77 LIG 0.18  C 
BRANCH 7 8
ATOM      8  N   PHE C   1      26.469   0.135  40.462  1.00 26.70 LIG-0.35  N 
ATOM      9 H    PHE C   1      26.697  -0.692  40.505  1.00 26.70 LIG 0.16  HD
ATOM     10  C   ACE C   0      27.285   1.101  40.112  1.00 28.63 LIG 0.21  C 
ATOM     11  CH3 ACE C   0      28.667   0.593  39.767  1.00 28.20 LIG 0.12  C 
ATOM     12 O    ACE C   0      26.890   2.271  40.098  1.00 29.97 LIG-0.27  OA
ENDBRANCH 7 8
BRANCH 7 13
ATOM     13  CB  PHE C   1      24.289  -0.780  40.277  1.00 20.34 LIG 0.07  C 
BRANCH 13 14
ATOM     14  CG  PHE C   1      24.295  -0.864  38.773  1.00 17.40 LIG-0.06  A 
ATOM     15  CD1 PHE C   1      25.086  -1.782  38.076  1.00 16.88 LIG 0.01  A 
ATOM     16  CE1 PHE C   1      25.073  -1.806  36.664  1.00 14.02 LIG 0.00  A 
ATOM     17  CZ  PHE C   1      24.298  -0.938  35.988  1.00 15.72 LIG 0.00  A 
ATOM     18  CE2 PHE C   1      23.515  -0.031  36.676  1.00 14.79 LIG 0.00  A 
ATOM     19  CD2 PHE C   1      23.513  -0.008  38.047  1.00 15.53 LIG 0.01  A 
ENDBRANCH 13 14
ENDBRANCH 7 13
ENDBRANCH 5 7
ENDBRANCH 1 3
BRANCH 1 20
ATOM     20  C   ALA C   2      23.626   3.048  44.558  1.00 17.39 LIG 0.24  C 
ATOM     21  N   THR C   3      23.105   3.072  45.788  1.00 15.98 LIG-0.34  N 
ATOM     22 H    THR C   3      23.207   2.449  46.372  1.00 15.98 LIG 0.16  HD
ATOM     23 O    ALA C   2      23.464   3.940  43.719  1.00 16.73 LIG-0.27  OA
BRANCH 21 24
ATOM     24  CA  THR C   3      22.303   4.200  46.228  1.00 15.15 LIG 0.20  C 
BRANCH 24 25
ATOM     25  C   THR C   3      22.179   4.211  47.742  1.00 14.93 LIG 0.24  C 
ATOM     26  N   ALA C   4      21.438   3.243  48.255  1.00 13.95 LIG-0.35  N 
ATOM     27 H    ALA C   4      21.009   2.670  47.777  1.00 13.95 LIG 0.16  HD
ATOM     28 O    THR C   3      22.772   5.047  48.432  1.00 16.43 LIG-0.27  OA
BRANCH 26 29
ATOM     29  CA  ALA C   4      21.279   3.057  49.676  1.00 14.93 LIG 0.18  C 
ATOM     30  CB  ALA C   4      22.660   2.978  50.317  1.00 15.34 LIG 0.04  C 
BRANCH 29 31
ATOM     31  C   ALA C   4      20.437   4.185  50.280  1.00 16.13 LIG 0.28  C 
ATOM     32 O    ALA C   4      20.310   5.254  49.688  1.00 17.37 LIG-0.27  OA
ATOM     33  N   NH2 C   5      19.868   3.950  51.461  1.00 15.73 LIG-0.11  N 
ENDBRANCH 29 31
ENDBRANCH 26 29
ENDBRANCH 24 25
BRANCH 24 34
ATOM     34  CB  THR C   3      20.910   4.186  45.584  1.00 16.10 LIG 0.15  C 
ATOM     35  CG2 THR C   3      20.230   5.549  45.651  1.00 16.48 LIG 0.04  C 
BRANCH 34 36
ATOM     36 OG1  THR C   3      21.049   3.805  44.209  1.00 16.89 LIG-0.39  OA
ATOM     37 HG1  THR C   3      21.285   3.000  44.163  1.00 16.89 LIG 0.21  HD
ENDBRANCH 34 36
ENDBRANCH 24 34
ENDBRANCH 21 24
ENDBRANCH 1 20
TORSDOF 12
ENDMDL
MODEL 7
USER: ADFR SOLUTION from run 158
USER: SCORE 10.763240 LL:  -2.444 LR: -10.638 RR:   0.000 FEB:  -7.059
USER: RMSD 4.941592
USER: SEED 157
USER: STATUS no improvement in best in 20 clusters for 5 generations
USER: GENES 14
USER: genes 0 Translation |==|  0.51519 0.48521 0.55303
USER: genes 1 Rotation |==|  0.50518 0.38600 0.30914 0.94783
USER: genes 2 Torsion [CB]-CA--N-[C] |==|  0.27290
USER: genes 3 Torsion [N]-C--CA-[N] |==|  0.36153
USER: genes 4 Torsion [C]-CA--N-[C] |==|  0.61206
USER: genes 5 Torsion [C]-CA--CB-[CG] |==|  0.44235
USER: genes 6 Torsion [CA]-CB--CG-[CD2] |==|  0.75500
USER: genes 7 Torsion [N]-CA--C-[N] |==|  0.81769
USER: genes 8 Torsion [C]-N--CA-[CB] |==|  0.18333
USER: genes 9 Torsion [N]-CA--C-[N] |==|  0.05026
USER: genes 10 Torsion [C]-N--CA-[CB] |==|  0.17618
USER: genes 11 Torsion [N]-CA--C-[N] |==|  0.95636
USER: genes 12 Torsion [N]-CA--CB-[OG1] |==|  0.03942
USER: genes 13 Torsion [CA]-CB--OG1-[HG1] |==|  0.15958
ROOT
ATOM      1  CA  ALA C   2      24.939   2.061  43.829  1.00 19.98 LIG 0.17  C 
ATOM      2  CB  ALA C   2      26.244   2.573  44.442  1.00 20.88 LIG 0.04  C 
ENDROOT
BRANCH 1 3
ATOM      3  N   ALA C   2      25.153   1.596  42.468  1.00 19.64 LIG-0.35  N 
ATOM      4 H    ALA C   2      25.163   2.209  41.866  1.00 19.64 LIG 0.16  HD
ATOM      5  C   PHE C   1      25.315   0.304  42.240  1.00 22.16 LIG 0.24  C 
ATOM      6 O    PHE C   1      25.379  -0.510  43.161  1.00 23.85 LIG-0.27  OA
BRANCH 5 7
ATOM      7  CA  PHE C   1      25.487  -0.138  40.797  1.00 22.77 LIG 0.18  C 
BRANCH 7 8
ATOM      8  N   PHE C   1      26.645  -0.990  40.747  1.00 26.70 LIG-0.35  N 
ATOM      9 H    PHE C   1      26.715  -1.532  41.411  1.00 26.70 LIG 0.16  HD
ATOM     10  C   ACE C   0      27.509  -0.929  39.762  1.00 28.63 LIG 0.21  C 
ATOM     11  CH3 ACE C   0      28.628  -1.937  39.910  1.00 28.20 LIG 0.12  C 
ATOM     12 O    ACE C   0      27.357  -0.106  38.854  1.00 29.97 LIG-0.27  OA
ENDBRANCH 7 8
BRANCH 7 13
ATOM     13  CB  PHE C   1      24.322  -0.955  40.276  1.00 20.34 LIG 0.07  C 
BRANCH 13 14
ATOM     14  CG  PHE C   1      24.239  -0.969  38.771  1.00 17.40 LIG-0.06  A 
ATOM     15  CD1 PHE C   1      24.865  -1.949  37.995  1.00 16.88 LIG 0.01  A 
ATOM     16  CE1 PHE C   1      24.776  -1.907  36.586  1.00 14.02 LIG 0.00  A 
ATOM     17  CZ  PHE C   1      24.089  -0.915  35.990  1.00 15.72 LIG 0.00  A 
ATOM     18  CE2 PHE C   1      23.469   0.053  36.757  1.00 14.79 LIG 0.00  A 
ATOM     19  CD2 PHE C   1      23.541   0.014  38.125  1.00 15.53 LIG 0.01  A 
ENDBRANCH 13 14
ENDBRANCH 7 13
ENDBRANCH 5 7
ENDBRANCH 1 3
BRANCH 1 20
ATOM     20  C   ALA C   2      23.918   3.180  43.835  1.00 17.39 LIG 0.24  C 
ATOM     21  N   THR C   3      24.299   4.302  43.217  1.00 15.98 LIG-0.34  N 
ATOM     22 H    THR C   3      25.074   4.425  42.865  1.00 15.98 LIG 0.16  HD
ATOM     23 O    ALA C   2      22.808   3.015  44.352  1.00 16.73 LIG-0.27  OA
BRANCH 21 24
ATOM     24  CA  THR C   3      23.387   5.427  43.100  1.00 15.15 LIG 0.20  C 
BRANCH 24 25
ATOM     25  C   THR C   3      23.960   6.487  42.177  1.00 14.93 LIG 0.24  C 
ATOM     26  N   ALA C   4      24.933   6.076  41.381  1.00 13.95 LIG-0.35  N 
ATOM     27 H    ALA C   4      25.264   5.282  41.407  1.00 13.95 LIG 0.16  HD
ATOM     28 O    THR C   3      23.507   7.636  42.153  1.00 16.43 LIG-0.27  OA
BRANCH 26 29
ATOM     29  CA  ALA C   4      25.536   6.929  40.386  1.00 14.93 LIG 0.18  C 
ATOM     30  CB  ALA C   4      26.223   8.093  41.092  1.00 15.34 LIG 0.04  C 
BRANCH 29 31
ATOM     31  C   ALA C   4      26.515   6.137  39.513  1.00 16.13 LIG 0.28  C 
ATOM     32 O    ALA C   4      26.905   6.594  38.442  1.00 17.37 LIG-0.27  OA
ATOM     33  N   NH2 C   5      26.905   4.948  39.968  1.00 15.73 LIG-0.11  N 
ENDBRANCH 29 31
ENDBRANCH 26 29
ENDBRANCH 24 25
BRANCH 24 34
ATOM     34  CB  THR C   3      23.066   6.037  44.472  1.00 16.10 LIG 0.15  C 
ATOM     35  CG2 THR C   3      21.658   5.687  44.942  1.00 16.48 LIG 0.04  C 
BRANCH 34 36
ATOM     36 OG1  THR C   3      24.010   5.534  45.426  1.00 16.89 LIG-0.39  OA
ATOM     37 HG1  THR C   3      24.790   5.720  45.173  1.00 16.89 LIG 0.21  HD
ENDBRANCH 34 36
ENDBRANCH 24 34
ENDBRANCH 21 24
ENDBRANCH 1 20
TORSDOF 12
ENDMDL
MODEL 8
USER: ADFR SOLUTION from run 90
USER: SCORE 11.360868 LL:  -2.236 LR: -10.605 RR:   0.000 FEB:  -7.026
USER: RMSD 2.986067
USER: SEED 89
USER: STATUS no improvement in best in 16 clusters for 5 generations
USER: GENES 14
USER: genes 0 Translation |==|  0.49150 0.47233 0.57336
USER: genes 1 Rotation |==|  0.53851 0.41549 0.25648 0.92670
USER: genes 2 Torsion [CB]-CA--N-[C] |==|  0.18810
USER: genes 3 Torsion [N]-C--CA-[N] |==|  0.34839
USER: genes 4 Torsion [C]-CA--N-[C] |==|  0.71876
USER: genes 5 Torsion [C]-CA--CB-[CG] |==|  0.48547
USER: genes 6 Torsion [CA]-CB--CG-[CD2] |==|  0.80645
USER: genes 7 Torsion [N]-CA--C-[N] |==|  0.18880
USER: genes 8 Torsion [C]-N--CA-[CB] |==|  0.81319
USER: genes 9 Torsion [N]-CA--C-[N] |==|  0.51111
USER: genes 10 Torsion [C]-N--CA-[CB] |==|  0.17570
USER: genes 11 Torsion [N]-CA--C-[N] |==|  0.08875
USER: genes 12 Torsion [N]-CA--CB-[OG1] |==|  0.93506
USER: genes 13 Torsion [CA]-CB--OG1-[HG1] |==|  0.91072
ROOT
ATOM      1  CA  ALA C   2      24.495   1.848  44.255  1.00 19.98 LIG 0.17  C 
ATOM      2  CB  ALA C   2      25.884   1.969  44.886  1.00 20.88 LIG 0.04  C 
ENDROOT
BRANCH 1 3
ATOM      3  N   ALA C   2      24.593   1.655  42.818  1.00 19.64 LIG-0.35  N 
ATOM      4 H    ALA C   2      24.306   2.307  42.337  1.00 19.64 LIG 0.16  HD
ATOM      5  C   PHE C   1      25.098   0.528  42.346  1.00 22.16 LIG 0.24  C 
ATOM      6 O    PHE C   1      25.572  -0.328  43.093  1.00 23.85 LIG-0.27  OA
BRANCH 5 7
ATOM      7  CA  PHE C   1      25.135   0.353  40.837  1.00 22.77 LIG 0.18  C 
BRANCH 7 8
ATOM      8  N   PHE C   1      26.495   0.055  40.476  1.00 26.70 LIG-0.35  N 
ATOM      9 H    PHE C   1      26.728  -0.761  40.617  1.00 26.70 LIG 0.16  HD
ATOM     10  C   ACE C   0      27.295   0.965  39.974  1.00 28.63 LIG 0.21  C 
ATOM     11  CH3 ACE C   0      28.665   0.414  39.645  1.00 28.20 LIG 0.12  C 
ATOM     12 O    ACE C   0      26.897   2.124  39.823  1.00 29.97 LIG-0.27  OA
ENDBRANCH 7 8
BRANCH 7 13
ATOM     13  CB  PHE C   1      24.289  -0.804  40.347  1.00 20.34 LIG 0.07  C 
BRANCH 13 14
ATOM     14  CG  PHE C   1      24.230  -0.895  38.844  1.00 17.40 LIG-0.06  A 
ATOM     15  CD1 PHE C   1      24.863  -1.916  38.128  1.00 16.88 LIG 0.01  A 
ATOM     16  CE1 PHE C   1      24.797  -1.944  36.718  1.00 14.02 LIG 0.00  A 
ATOM     17  CZ  PHE C   1      24.125  -0.981  36.061  1.00 15.72 LIG 0.00  A 
ATOM     18  CE2 PHE C   1      23.497   0.027  36.768  1.00 14.79 LIG 0.00  A 
ATOM     19  CD2 PHE C   1      23.547   0.057  38.138  1.00 15.53 LIG 0.01  A 
ENDBRANCH 13 14
ENDBRANCH 7 13
ENDBRANCH 5 7
ENDBRANCH 1 3
BRANCH 1 20
ATOM     20  C   ALA C   2      23.707   3.108  44.553  1.00 17.39 LIG 0.24  C 
ATOM     21  N   THR C   3      22.410   3.057  44.236  1.00 15.98 LIG-0.34  N 
ATOM     22 H    THR C   3      22.028   2.388  43.855  1.00 15.98 LIG 0.16  HD
ATOM     23 O    ALA C   2      24.253   4.078  45.087  1.00 16.73 LIG-0.27  OA
BRANCH 21 24
ATOM     24  CA  THR C   3      21.534   4.178  44.529  1.00 15.15 LIG 0.20  C 
BRANCH 24 25
ATOM     25  C   THR C   3      22.066   5.453  43.900  1.00 14.93 LIG 0.24  C 
ATOM     26  N   ALA C   4      21.379   6.549  44.179  1.00 13.95 LIG-0.35  N 
ATOM     27 H    ALA C   4      20.653   6.549  44.641  1.00 13.95 LIG 0.16  HD
ATOM     28 O    THR C   3      23.093   5.455  43.215  1.00 16.43 LIG-0.27  OA
BRANCH 26 29
ATOM     29  CA  ALA C   4      21.789   7.857  43.731  1.00 14.93 LIG 0.18  C 
ATOM     30  CB  ALA C   4      21.758   7.884  42.207  1.00 15.34 LIG 0.04  C 
BRANCH 29 31
ATOM     31  C   ALA C   4      20.892   8.943  44.336  1.00 16.13 LIG 0.28  C 
ATOM     32 O    ALA C   4      20.657   9.975  43.714  1.00 17.37 LIG-0.27  OA
ATOM     33  N   NH2 C   5      20.398   8.711  45.551  1.00 15.73 LIG-0.11  N 
ENDBRANCH 29 31
ENDBRANCH 26 29
ENDBRANCH 24 25
BRANCH 24 34
ATOM     34  CB  THR C   3      21.351   4.369  46.041  1.00 16.10 LIG 0.15  C 
ATOM     35  CG2 THR C   3      19.938   4.815  46.399  1.00 16.48 LIG 0.04  C 
BRANCH 34 36
ATOM     36 OG1  THR C   3      21.622   3.122  46.694  1.00 16.89 LIG-0.39  OA
ATOM     37 HG1  THR C   3      21.396   2.488  46.192  1.00 16.89 LIG 0.21  HD
ENDBRANCH 34 36
ENDBRANCH 24 34
ENDBRANCH 21 24
ENDBRANCH 1 20
TORSDOF 12
ENDMDL
MODEL 9
USER: ADFR SOLUTION from run 136
USER: SCORE 10.606905 LL:  -2.388 LR: -10.607 RR:   0.000 FEB:  -7.027
USER: RMSD 4.453666
USER: SEED 135
USER: STATUS searching
USER: GENES 14
USER: genes 0 Translation |==|  0.51839 0.47395 0.55177
USER: genes 1 Rotation |==|  0.49228 0.39717 0.30938 0.95059
USER: genes 2 Torsion [CB]-CA--N-[C] |==|  0.25363
USER: genes 3 Torsion [N]-C--CA-[N] |==|  0.42239
USER: genes 4 Torsion [C]-CA--N-[C] |==|  0.62133
USER: genes 5 Torsion [C]-CA--CB-[CG] |==|  0.44814
USER: genes 6 Torsion [CA]-CB--CG-[CD2] |==|  0.72846
USER: genes 7 Torsion [N]-CA--C-[N] |==|  0.80471
USER: genes 8 Torsion [C]-N--CA-[CB] |==|  0.21533
USER: genes 9 Torsion [N]-CA--C-[N] |==|  0.44387
USER: genes 10 Torsion [C]-N--CA-[CB] |==|  0.17046
USER: genes 11 Torsion [N]-CA--C-[N] |==|  0.11667
USER: genes 12 Torsion [N]-CA--CB-[OG1] |==|  0.03713
USER: genes 13 Torsion [CA]-CB--OG1-[HG1] |==|  0.84473
ROOT
ATOM      1  CA  ALA C   2      24.999   1.875  43.802  1.00 19.98 LIG 0.17  C 
ATOM      2  CB  ALA C   2      26.342   2.396  44.318  1.00 20.88 LIG 0.04  C 
ENDROOT
BRANCH 1 3
ATOM      3  N   ALA C   2      25.125   1.369  42.446  1.00 19.64 LIG-0.35  N 
ATOM      4 H    ALA C   2      25.009   1.949  41.822  1.00 19.64 LIG 0.16  HD
ATOM      5  C   PHE C   1      25.403   0.091  42.251  1.00 22.16 LIG 0.24  C 
ATOM      6 O    PHE C   1      25.647  -0.665  43.191  1.00 23.85 LIG-0.27  OA
BRANCH 5 7
ATOM      7  CA  PHE C   1      25.478  -0.400  40.816  1.00 22.77 LIG 0.18  C 
BRANCH 7 8
ATOM      8  N   PHE C   1      26.383  -1.518  40.794  1.00 26.70 LIG-0.35  N 
ATOM      9 H    PHE C   1      26.274  -2.074  41.440  1.00 26.70 LIG 0.16  HD
ATOM     10  C   ACE C   0      27.291  -1.657  39.857  1.00 28.63 LIG 0.21  C 
ATOM     11  CH3 ACE C   0      28.107  -2.920  40.025  1.00 28.20 LIG 0.12  C 
ATOM     12 O    ACE C   0      27.405  -0.802  38.973  1.00 29.97 LIG-0.27  OA
ENDBRANCH 7 8
BRANCH 7 13
ATOM     13  CB  PHE C   1      24.151  -0.903  40.284  1.00 20.34 LIG 0.07  C 
BRANCH 13 14
ATOM     14  CG  PHE C   1      24.104  -0.965  38.779  1.00 17.40 LIG-0.06  A 
ATOM     15  CD1 PHE C   1      24.647  -2.031  38.055  1.00 16.88 LIG 0.01  A 
ATOM     16  CE1 PHE C   1      24.598  -2.032  36.643  1.00 14.02 LIG 0.00  A 
ATOM     17  CZ  PHE C   1      24.031  -0.999  35.994  1.00 15.72 LIG 0.00  A 
ATOM     18  CE2 PHE C   1      23.494   0.054  36.709  1.00 14.79 LIG 0.00  A 
ATOM     19  CD2 PHE C   1      23.527   0.058  38.080  1.00 15.53 LIG 0.01  A 
ENDBRANCH 13 14
ENDBRANCH 7 13
ENDBRANCH 5 7
ENDBRANCH 1 3
BRANCH 1 20
ATOM     20  C   ALA C   2      23.986   3.001  43.839  1.00 17.39 LIG 0.24  C 
ATOM     21  N   THR C   3      24.374   4.136  43.249  1.00 15.98 LIG-0.34  N 
ATOM     22 H    THR C   3      25.149   4.262  42.899  1.00 15.98 LIG 0.16  HD
ATOM     23 O    ALA C   2      22.876   2.832  44.353  1.00 16.73 LIG-0.27  OA
BRANCH 21 24
ATOM     24  CA  THR C   3      23.471   5.270  43.162  1.00 15.15 LIG 0.20  C 
BRANCH 24 25
ATOM     25  C   THR C   3      23.905   6.217  42.057  1.00 14.93 LIG 0.24  C 
ATOM     26  N   ALA C   4      22.964   7.034  41.614  1.00 13.95 LIG-0.35  N 
ATOM     27 H    ALA C   4      22.148   7.010  41.884  1.00 13.95 LIG 0.16  HD
ATOM     28 O    THR C   3      25.069   6.240  41.647  1.00 16.43 LIG-0.27  OA
BRANCH 26 29
ATOM     29  CA  ALA C   4      23.223   8.052  40.624  1.00 14.93 LIG 0.18  C 
ATOM     30  CB  ALA C   4      23.693   7.377  39.340  1.00 15.34 LIG 0.04  C 
BRANCH 29 31
ATOM     31  C   ALA C   4      21.975   8.911  40.391  1.00 16.13 LIG 0.28  C 
ATOM     32 O    ALA C   4      21.654   9.248  39.254  1.00 17.37 LIG-0.27  OA
ATOM     33  N   NH2 C   5      21.277   9.268  41.467  1.00 15.73 LIG-0.11  N 
ENDBRANCH 29 31
ENDBRANCH 26 29
ENDBRANCH 24 25
BRANCH 24 34
ATOM     34  CB  THR C   3      23.379   6.020  44.498  1.00 16.10 LIG 0.15  C 
ATOM     35  CG2 THR C   3      22.050   5.776  45.206  1.00 16.48 LIG 0.04  C 
BRANCH 34 36
ATOM     36 OG1  THR C   3      24.444   5.572  45.346  1.00 16.89 LIG-0.39  OA
ATOM     37 HG1  THR C   3      24.403   4.737  45.431  1.00 16.89 LIG 0.21  HD
ENDBRANCH 34 36
ENDBRANCH 24 34
ENDBRANCH 21 24
ENDBRANCH 1 20
TORSDOF 12
ENDMDL
MODEL 10
USER: ADFR SOLUTION from run 136
USER: SCORE 11.567640 LL:  -2.340 LR: -10.578 RR:   0.000 FEB:  -6.998
USER: RMSD 3.048455
USER: SEED 135
USER: STATUS searching
USER: GENES 14
USER: genes 0 Translation |==|  0.53945 0.39100 0.56381
USER: genes 1 Rotation |==|  0.49176 0.37104 0.24275 0.90881
USER: genes 2 Torsion [CB]-CA--N-[C] |==|  0.21177
USER: genes 3 Torsion [N]-C--CA-[N] |==|  0.43088
USER: genes 4 Torsion [C]-CA--N-[C] |==|  0.60273
USER: genes 5 Torsion [C]-CA--CB-[CG] |==|  0.36118
USER: genes 6 Torsion [CA]-CB--CG-[CD2] |==|  0.72379
USER: genes 7 Torsion [N]-CA--C-[N] |==|  0.53513
USER: genes 8 Torsion [C]-N--CA-[CB] |==|  0.82771
USER: genes 9 Torsion [N]-CA--C-[N] |==|  0.44369
USER: genes 10 Torsion [C]-N--CA-[CB] |==|  0.19444
USER: genes 11 Torsion [N]-CA--C-[N] |==|  0.10916
USER: genes 12 Torsion [N]-CA--CB-[OG1] |==|  0.25665
USER: genes 13 Torsion [CA]-CB--OG1-[HG1] |==|  0.85110
ROOT
ATOM      1  CA  ALA C   2      25.394   0.507  44.055  1.00 19.98 LIG 0.17  C 
ATOM      2  CB  ALA C   2      26.751   0.606  44.755  1.00 20.88 LIG 0.04  C 
ENDROOT
BRANCH 1 3
ATOM      3  N   ALA C   2      25.541  -0.027  42.711  1.00 19.64 LIG-0.35  N 
ATOM      4 H    ALA C   2      25.483   0.549  42.076  1.00 19.64 LIG 0.16  HD
ATOM      5  C   PHE C   1      25.749  -1.322  42.545  1.00 22.16 LIG 0.24  C 
ATOM      6 O    PHE C   1      25.911  -2.077  43.503  1.00 23.85 LIG-0.27  OA
BRANCH 5 7
ATOM      7  CA  PHE C   1      25.848  -1.840  41.120  1.00 22.77 LIG 0.18  C 
BRANCH 7 8
ATOM      8  N   PHE C   1      26.625  -3.050  41.158  1.00 26.70 LIG-0.35  N 
ATOM      9 H    PHE C   1      26.484  -3.538  41.852  1.00 26.70 LIG 0.16  HD
ATOM     10  C   ACE C   0      27.471  -3.362  40.206  1.00 28.63 LIG 0.21  C 
ATOM     11  CH3 ACE C   0      28.152  -4.691  40.448  1.00 28.20 LIG 0.12  C 
ATOM     12 O    ACE C   0      27.640  -2.596  39.252  1.00 29.97 LIG-0.27  OA
ENDBRANCH 7 8
BRANCH 7 13
ATOM     13  CB  PHE C   1      24.505  -2.202  40.518  1.00 20.34 LIG 0.07  C 
BRANCH 13 14
ATOM     14  CG  PHE C   1      24.285  -1.590  39.158  1.00 17.40 LIG-0.06  A 
ATOM     15  CD1 PHE C   1      24.839  -2.131  37.994  1.00 16.88 LIG 0.01  A 
ATOM     16  CE1 PHE C   1      24.621  -1.507  36.745  1.00 14.02 LIG 0.00  A 
ATOM     17  CZ  PHE C   1      23.881  -0.385  36.680  1.00 15.72 LIG 0.00  A 
ATOM     18  CE2 PHE C   1      23.333   0.149  37.830  1.00 14.79 LIG 0.00  A 
ATOM     19  CD2 PHE C   1      23.530  -0.456  39.044  1.00 15.53 LIG 0.01  A 
ENDBRANCH 13 14
ENDBRANCH 7 13
ENDBRANCH 5 7
ENDBRANCH 1 3
BRANCH 1 20
ATOM     20  C   ALA C   2      24.767   1.884  43.996  1.00 17.39 LIG 0.24  C 
ATOM     21  N   THR C   3      24.821   2.584  45.132  1.00 15.98 LIG-0.34  N 
ATOM     22 H    THR C   3      25.146   2.288  45.872  1.00 15.98 LIG 0.16  HD
ATOM     23 O    ALA C   2      24.285   2.311  42.941  1.00 16.73 LIG-0.27  OA
BRANCH 21 24
ATOM     24  CA  THR C   3      24.311   3.943  45.188  1.00 15.15 LIG 0.20  C 
BRANCH 24 25
ATOM     25  C   THR C   3      22.828   3.973  44.864  1.00 14.93 LIG 0.24  C 
ATOM     26  N   ALA C   4      22.181   5.048  45.282  1.00 13.95 LIG-0.35  N 
ATOM     27 H    ALA C   4      22.547   5.671  45.749  1.00 13.95 LIG 0.16  HD
ATOM     28 O    THR C   3      22.290   3.069  44.216  1.00 16.43 LIG-0.27  OA
BRANCH 26 29
ATOM     29  CA  ALA C   4      20.786   5.277  44.991  1.00 14.93 LIG 0.18  C 
ATOM     30  CB  ALA C   4      19.951   4.278  45.783  1.00 15.34 LIG 0.04  C 
BRANCH 29 31
ATOM     31  C   ALA C   4      20.397   6.724  45.311  1.00 16.13 LIG 0.28  C 
ATOM     32 O    ALA C   4      19.308   6.978  45.820  1.00 17.37 LIG-0.27  OA
ATOM     33  N   NH2 C   5      21.283   7.671  45.008  1.00 15.73 LIG-0.11  N 
ENDBRANCH 29 31
ENDBRANCH 26 29
ENDBRANCH 24 25
BRANCH 24 34
ATOM     34  CB  THR C   3      25.079   4.872  44.239  1.00 16.10 LIG 0.15  C 
ATOM     35  CG2 THR C   3      26.513   4.404  44.009  1.00 16.48 LIG 0.04  C 
BRANCH 34 36
ATOM     36 OG1  THR C   3      24.396   4.903  42.979  1.00 16.89 LIG-0.39  OA
ATOM     37 HG1  THR C   3      24.287   4.118  42.700  1.00 16.89 LIG 0.21  HD
ENDBRANCH 34 36
ENDBRANCH 24 34
ENDBRANCH 21 24
ENDBRANCH 1 20
TORSDOF 12
ENDMDL
MODEL 11
USER: ADFR SOLUTION from run 167
USER: SCORE 10.093406 LL:  -2.311 LR: -10.558 RR:   0.000 FEB:  -6.978
USER: RMSD 9.427277
USER: SEED 166
USER: STATUS no improvement in best in 19 clusters for 5 generations
USER: GENES 14
USER: genes 0 Translation |==|  0.55503 0.45033 0.46568
USER: genes 1 Rotation |==|  0.94388 0.68756 0.58376 0.60379
USER: genes 2 Torsion [CB]-CA--N-[C] |==|  0.86740
USER: genes 3 Torsion [N]-C--CA-[N] |==|  0.57698
USER: genes 4 Torsion [C]-CA--N-[C] |==|  0.64657
USER: genes 5 Torsion [C]-CA--CB-[CG] |==|  0.40667
USER: genes 6 Torsion [CA]-CB--CG-[CD2] |==|  0.66640
USER: genes 7 Torsion [N]-CA--C-[N] |==|  0.27805
USER: genes 8 Torsion [C]-N--CA-[CB] |==|  0.51111
USER: genes 9 Torsion [N]-CA--C-[N] |==|  0.89830
USER: genes 10 Torsion [C]-N--CA-[CB] |==|  0.51797
USER: genes 11 Torsion [N]-CA--C-[N] |==|  0.41773
USER: genes 12 Torsion [N]-CA--CB-[OG1] |==|  0.73417
USER: genes 13 Torsion [CA]-CB--OG1-[HG1] |==|  0.05876
ROOT
ATOM      1  CA  ALA C   2      25.686   1.485  41.994  1.00 19.98 LIG 0.17  C 
ATOM      2  CB  ALA C   2      26.992   1.102  42.693  1.00 20.88 LIG 0.04  C 
ENDROOT
BRANCH 1 3
ATOM      3  N   ALA C   2      24.731   2.033  42.944  1.00 19.64 LIG-0.35  N 
ATOM      4 H    ALA C   2      24.349   2.764  42.704  1.00 19.64 LIG 0.16  HD
ATOM      5  C   PHE C   1      24.511   1.400  44.083  1.00 22.16 LIG 0.24  C 
ATOM      6 O    PHE C   1      25.026   0.308  44.324  1.00 23.85 LIG-0.27  OA
BRANCH 5 7
ATOM      7  CA  PHE C   1      23.541   2.037  45.064  1.00 22.77 LIG 0.18  C 
BRANCH 7 8
ATOM      8  N   PHE C   1      23.928   1.612  46.383  1.00 26.70 LIG-0.35  N 
ATOM      9 H    PHE C   1      24.755   1.752  46.571  1.00 26.70 LIG 0.16  HD
ATOM     10  C   ACE C   0      23.074   1.060  47.212  1.00 28.63 LIG 0.21  C 
ATOM     11  CH3 ACE C   0      23.700   0.723  48.548  1.00 28.20 LIG 0.12  C 
ATOM     12 O    ACE C   0      21.906   0.867  46.861  1.00 29.97 LIG-0.27  OA
ENDBRANCH 7 8
BRANCH 7 13
ATOM     13  CB  PHE C   1      23.592   3.551  45.061  1.00 20.34 LIG 0.07  C 
BRANCH 13 14
ATOM     14  CG  PHE C   1      22.251   4.186  45.327  1.00 17.40 LIG-0.06  A 
ATOM     15  CD1 PHE C   1      21.529   3.949  46.501  1.00 16.88 LIG 0.01  A 
ATOM     16  CE1 PHE C   1      20.266   4.551  46.694  1.00 14.02 LIG 0.00  A 
ATOM     17  CZ  PHE C   1      19.755   5.351  45.741  1.00 15.72 LIG 0.00  A 
ATOM     18  CE2 PHE C   1      20.468   5.586  44.581  1.00 14.79 LIG 0.00  A 
ATOM     19  CD2 PHE C   1      21.700   5.015  44.390  1.00 15.53 LIG 0.01  A 
ENDBRANCH 13 14
ENDBRANCH 7 13
ENDBRANCH 5 7
ENDBRANCH 1 3
BRANCH 1 20
ATOM     20  C   ALA C   2      25.103   0.256  41.329  1.00 17.39 LIG 0.24  C 
ATOM     21  N   THR C   3      24.599   0.454  40.107  1.00 15.98 LIG-0.34  N 
ATOM     22 H    THR C   3      24.558   1.218  39.715  1.00 15.98 LIG 0.16  HD
ATOM     23 O    ALA C   2      25.144  -0.843  41.892  1.00 16.73 LIG-0.27  OA
BRANCH 21 24
ATOM     24  CA  THR C   3      24.067  -0.658  39.339  1.00 15.15 LIG 0.20  C 
BRANCH 24 25
ATOM     25  C   THR C   3      25.085  -1.781  39.244  1.00 14.93 LIG 0.24  C 
ATOM     26  N   ALA C   4      26.345  -1.391  39.132  1.00 13.95 LIG-0.35  N 
ATOM     27 H    ALA C   4      26.583  -0.567  39.065  1.00 13.95 LIG 0.16  HD
ATOM     28 O    THR C   3      24.748  -2.966  39.314  1.00 16.43 LIG-0.27  OA
BRANCH 26 29
ATOM     29  CA  ALA C   4      27.446  -2.323  39.111  1.00 14.93 LIG 0.18  C 
ATOM     30  CB  ALA C   4      28.752  -1.536  39.135  1.00 15.34 LIG 0.04  C 
BRANCH 29 31
ATOM     31  C   ALA C   4      27.351  -3.301  40.287  1.00 16.13 LIG 0.28  C 
ATOM     32 O    ALA C   4      26.827  -2.958  41.343  1.00 17.37 LIG-0.27  OA
ATOM     33  N   NH2 C   5      27.863  -4.517  40.105  1.00 15.73 LIG-0.11  N 
ENDBRANCH 29 31
ENDBRANCH 26 29
ENDBRANCH 24 25
BRANCH 24 34
ATOM     34  CB  THR C   3      23.635  -0.216  37.934  1.00 16.10 LIG 0.15  C 
ATOM     35  CG2 THR C   3      23.911  -1.286  36.883  1.00 16.48 LIG 0.04  C 
BRANCH 34 36
ATOM     36 OG1  THR C   3      22.229   0.060  37.956  1.00 16.89 LIG-0.39  OA
ATOM     37 HG1  THR C   3      21.984   0.209  38.746  1.00 16.89 LIG 0.21  HD
ENDBRANCH 34 36
ENDBRANCH 24 34
ENDBRANCH 21 24
ENDBRANCH 1 20
TORSDOF 12
ENDMDL
MODEL 12
USER: ADFR SOLUTION from run 173
USER: SCORE 10.870794 LL:  -2.355 LR: -10.423 RR:   0.000 FEB:  -6.843
USER: RMSD 4.841510
USER: SEED 172
USER: STATUS no improvement in best in 13 clusters for 5 generations
USER: GENES 14
USER: genes 0 Translation |==|  0.37909 0.44358 0.70855
USER: genes 1 Rotation |==|  0.58869 0.38318 0.16015 0.83614
USER: genes 2 Torsion [CB]-CA--N-[C] |==|  0.84444
USER: genes 3 Torsion [N]-C--CA-[N] |==|  0.36461
USER: genes 4 Torsion [C]-CA--N-[C] |==|  0.82492
USER: genes 5 Torsion [C]-CA--CB-[CG] |==|  0.38206
USER: genes 6 Torsion [CA]-CB--CG-[CD2] |==|  0.14948
USER: genes 7 Torsion [N]-CA--C-[N] |==|  0.18793
USER: genes 8 Torsion [C]-N--CA-[CB] |==|  0.53509
USER: genes 9 Torsion [N]-CA--C-[N] |==|  0.90063
USER: genes 10 Torsion [C]-N--CA-[CB] |==|  0.84073
USER: genes 11 Torsion [N]-CA--C-[N] |==|  0.46023
USER: genes 12 Torsion [N]-CA--CB-[OG1] |==|  0.97630
USER: genes 13 Torsion [CA]-CB--OG1-[HG1] |==|  0.17621
ROOT
ATOM      1  CA  ALA C   2      22.387   1.374  47.094  1.00 19.98 LIG 0.17  C 
ATOM      2  CB  ALA C   2      23.452   0.719  47.976  1.00 20.88 LIG 0.04  C 
ENDROOT
BRANCH 1 3
ATOM      3  N   ALA C   2      22.786   1.354  45.697  1.00 19.64 LIG-0.35  N 
ATOM      4 H    ALA C   2      22.229   0.980  45.159  1.00 19.64 LIG 0.16  HD
ATOM      5  C   PHE C   1      23.940   1.891  45.342  1.00 22.16 LIG 0.24  C 
ATOM      6 O    PHE C   1      24.648   2.491  46.151  1.00 23.85 LIG-0.27  OA
BRANCH 5 7
ATOM      7  CA  PHE C   1      24.334   1.803  43.877  1.00 22.77 LIG 0.18  C 
BRANCH 7 8
ATOM      8  N   PHE C   1      24.740   3.120  43.464  1.00 26.70 LIG-0.35  N 
ATOM      9 H    PHE C   1      25.563   3.176  43.221  1.00 26.70 LIG 0.16  HD
ATOM     10  C   ACE C   0      23.908   4.134  43.465  1.00 28.63 LIG 0.21  C 
ATOM     11  CH3 ACE C   0      24.550   5.409  42.965  1.00 28.20 LIG 0.12  C 
ATOM     12 O    ACE C   0      22.746   3.981  43.852  1.00 29.97 LIG-0.27  OA
ENDBRANCH 7 8
BRANCH 7 13
ATOM     13  CB  PHE C   1      25.514   0.885  43.628  1.00 20.34 LIG 0.07  C 
BRANCH 13 14
ATOM     14  CG  PHE C   1      25.333   0.008  42.416  1.00 17.40 LIG-0.06  A 
ATOM     15  CD1 PHE C   1      25.477  -1.382  42.466  1.00 16.88 LIG 0.01  A 
ATOM     16  CE1 PHE C   1      25.318  -2.157  41.296  1.00 14.02 LIG 0.00  A 
ATOM     17  CZ  PHE C   1      25.033  -1.553  40.128  1.00 15.72 LIG 0.00  A 
ATOM     18  CE2 PHE C   1      24.890  -0.180  40.078  1.00 14.79 LIG 0.00  A 
ATOM     19  CD2 PHE C   1      25.031   0.580  41.211  1.00 15.53 LIG 0.01  A 
ENDBRANCH 13 14
ENDBRANCH 7 13
ENDBRANCH 5 7
ENDBRANCH 1 3
BRANCH 1 20
ATOM     20  C   ALA C   2      22.181   2.804  47.550  1.00 17.39 LIG 0.24  C 
ATOM     21  N   THR C   3      21.141   3.434  46.997  1.00 15.98 LIG-0.34  N 
ATOM     22 H    THR C   3      20.630   3.094  46.394  1.00 15.98 LIG 0.16  HD
ATOM     23 O    ALA C   2      22.919   3.304  48.405  1.00 16.73 LIG-0.27  OA
BRANCH 21 24
ATOM     24  CA  THR C   3      20.799   4.788  47.397  1.00 15.15 LIG 0.20  C 
BRANCH 24 25
ATOM     25  C   THR C   3      20.855   4.931  48.908  1.00 14.93 LIG 0.24  C 
ATOM     26  N   ALA C   4      20.459   3.869  49.589  1.00 13.95 LIG-0.35  N 
ATOM     27 H    ALA C   4      20.143   3.159  49.220  1.00 13.95 LIG 0.16  HD
ATOM     28 O    THR C   3      21.284   5.957  49.444  1.00 16.43 LIG-0.27  OA
BRANCH 26 29
ATOM     29  CA  ALA C   4      20.522   3.802  51.029  1.00 14.93 LIG 0.18  C 
ATOM     30  CB  ALA C   4      21.964   4.036  51.467  1.00 15.34 LIG 0.04  C 
BRANCH 29 31
ATOM     31  C   ALA C   4      19.564   4.818  51.661  1.00 16.13 LIG 0.28  C 
ATOM     32 O    ALA C   4      19.080   5.722  50.984  1.00 17.37 LIG-0.27  OA
ATOM     33  N   NH2 C   5      19.298   4.673  52.957  1.00 15.73 LIG-0.11  N 
ENDBRANCH 29 31
ENDBRANCH 26 29
ENDBRANCH 24 25
BRANCH 24 34
ATOM     34  CB  THR C   3      19.414   5.196  46.877  1.00 16.10 LIG 0.15  C 
ATOM     35  CG2 THR C   3      19.445   6.531  46.141  1.00 16.48 LIG 0.04  C 
BRANCH 34 36
ATOM     36 OG1  THR C   3      18.949   4.182  45.977  1.00 16.89 LIG-0.39  OA
ATOM     37 HG1  THR C   3      18.853   3.459  46.394  1.00 16.89 LIG 0.21  HD
ENDBRANCH 34 36
ENDBRANCH 24 34
ENDBRANCH 21 24
ENDBRANCH 1 20
TORSDOF 12
ENDMDL
MODEL 13
USER: ADFR SOLUTION from run 158
USER: SCORE 10.285420 LL:  -2.335 LR: -10.392 RR:   0.000 FEB:  -6.812
USER: RMSD 5.138264
USER: SEED 157
USER: STATUS no improvement in best in 20 clusters for 5 generations
USER: GENES 14
USER: genes 0 Translation |==|  0.49545 0.54453 0.56055
USER: genes 1 Rotation |==|  0.53286 0.30819 0.15377 0.80373
USER: genes 2 Torsion [CB]-CA--N-[C] |==|  0.16929
USER: genes 3 Torsion [N]-C--CA-[N] |==|  0.24049
USER: genes 4 Torsion [C]-CA--N-[C] |==|  0.75462
USER: genes 5 Torsion [C]-CA--CB-[CG] |==|  0.40680
USER: genes 6 Torsion [CA]-CB--CG-[CD2] |==|  0.35977
USER: genes 7 Torsion [N]-CA--C-[N] |==|  0.06680
USER: genes 8 Torsion [C]-N--CA-[CB] |==|  0.40594
USER: genes 9 Torsion [N]-CA--C-[N] |==|  0.64904
USER: genes 10 Torsion [C]-N--CA-[CB] |==|  0.18297
USER: genes 11 Torsion [N]-CA--C-[N] |==|  0.12222
USER: genes 12 Torsion [N]-CA--CB-[OG1] |==|  0.94262
USER: genes 13 Torsion [CA]-CB--OG1-[HG1] |==|  0.18469
ROOT
ATOM      1  CA  ALA C   2      24.569   3.040  43.987  1.00 19.98 LIG 0.17  C 
ATOM      2  CB  ALA C   2      25.429   2.515  45.138  1.00 20.88 LIG 0.04  C 
ENDROOT
BRANCH 1 3
ATOM      3  N   ALA C   2      25.009   2.487  42.716  1.00 19.64 LIG-0.35  N 
ATOM      4 H    ALA C   2      25.276   3.062  42.136  1.00 19.64 LIG 0.16  HD
ATOM      5  C   PHE C   1      24.976   1.179  42.529  1.00 22.16 LIG 0.24  C 
ATOM      6 O    PHE C   1      24.667   0.406  43.436  1.00 23.85 LIG-0.27  OA
BRANCH 5 7
ATOM      7  CA  PHE C   1      25.400   0.653  41.169  1.00 22.77 LIG 0.18  C 
BRANCH 7 8
ATOM      8  N   PHE C   1      26.829   0.487  41.202  1.00 26.70 LIG-0.35  N 
ATOM      9 H    PHE C   1      27.088  -0.296  41.444  1.00 26.70 LIG 0.16  HD
ATOM     10  C   ACE C   0      27.648   1.461  40.886  1.00 28.63 LIG 0.21  C 
ATOM     11  CH3 ACE C   0      29.101   1.045  40.967  1.00 28.20 LIG 0.12  C 
ATOM     12 O    ACE C   0      27.202   2.568  40.572  1.00 29.97 LIG-0.27  OA
ENDBRANCH 7 8
BRANCH 7 13
ATOM     13  CB  PHE C   1      24.811  -0.703  40.839  1.00 20.34 LIG 0.07  C 
BRANCH 13 14
ATOM     14  CG  PHE C   1      24.521  -0.878  39.371  1.00 17.40 LIG-0.06  A 
ATOM     15  CD1 PHE C   1      23.782   0.054  38.635  1.00 16.88 LIG 0.01  A 
ATOM     16  CE1 PHE C   1      23.518  -0.167  37.266  1.00 14.02 LIG 0.00  A 
ATOM     17  CZ  PHE C   1      23.976  -1.282  36.669  1.00 15.72 LIG 0.00  A 
ATOM     18  CE2 PHE C   1      24.707  -2.203  37.394  1.00 14.79 LIG 0.00  A 
ATOM     19  CD2 PHE C   1      24.977  -1.992  38.721  1.00 15.53 LIG 0.01  A 
ENDBRANCH 13 14
ENDBRANCH 7 13
ENDBRANCH 5 7
ENDBRANCH 1 3
BRANCH 1 20
ATOM     20  C   ALA C   2      24.662   4.551  43.951  1.00 17.39 LIG 0.24  C 
ATOM     21  N   THR C   3      24.616   5.096  42.731  1.00 15.98 LIG-0.34  N 
ATOM     22 H    THR C   3      24.576   4.648  41.999  1.00 15.98 LIG 0.16  HD
ATOM     23 O    ALA C   2      24.736   5.201  44.998  1.00 16.73 LIG-0.27  OA
BRANCH 21 24
ATOM     24  CA  THR C   3      24.634   6.539  42.566  1.00 15.15 LIG 0.20  C 
BRANCH 24 25
ATOM     25  C   THR C   3      23.220   7.094  42.549  1.00 14.93 LIG 0.24  C 
ATOM     26  N   ALA C   4      22.922   7.846  41.502  1.00 13.95 LIG-0.35  N 
ATOM     27 H    ALA C   4      23.491   8.056  40.892  1.00 13.95 LIG 0.16  HD
ATOM     28 O    THR C   3      22.407   6.816  43.436  1.00 16.43 LIG-0.27  OA
BRANCH 26 29
ATOM     29  CA  ALA C   4      21.603   8.387  41.286  1.00 14.93 LIG 0.18  C 
ATOM     30  CB  ALA C   4      21.300   9.393  42.390  1.00 15.34 LIG 0.04  C 
BRANCH 29 31
ATOM     31  C   ALA C   4      21.499   9.023  39.895  1.00 16.13 LIG 0.28  C 
ATOM     32 O    ALA C   4      20.946  10.109  39.746  1.00 17.37 LIG-0.27  OA
ATOM     33  N   NH2 C   5      22.026   8.342  38.879  1.00 15.73 LIG-0.11  N 
ENDBRANCH 29 31
ENDBRANCH 26 29
ENDBRANCH 24 25
BRANCH 24 34
ATOM     34  CB  THR C   3      25.379   6.950  41.289  1.00 16.10 LIG 0.15  C 
ATOM     35  CG2 THR C   3      26.225   8.202  41.494  1.00 16.48 LIG 0.04  C 
BRANCH 34 36
ATOM     36 OG1  THR C   3      26.238   5.872  40.896  1.00 16.89 LIG-0.39  OA
ATOM     37 HG1  THR C   3      25.771   5.212  40.664  1.00 16.89 LIG 0.21  HD
ENDBRANCH 34 36
ENDBRANCH 24 34
ENDBRANCH 21 24
ENDBRANCH 1 20
TORSDOF 12
ENDMDL
MODEL 14
USER: ADFR SOLUTION from run 151
USER: SCORE 10.530226 LL:  -1.631 LR: -10.372 RR:   0.000 FEB:  -6.792
USER: RMSD 3.730582
USER: SEED 150
USER: STATUS no improvement in best in 11 clusters for 5 generations
USER: GENES 14
USER: genes 0 Translation |==|  0.48780 0.47907 0.58857
USER: genes 1 Rotation |==|  0.44563 0.34106 0.31766 0.93420
USER: genes 2 Torsion [CB]-CA--N-[C] |==|  0.87588
USER: genes 3 Torsion [N]-C--CA-[N] |==|  0.78333
USER: genes 4 Torsion [C]-CA--N-[C] |==|  0.19577
USER: genes 5 Torsion [C]-CA--CB-[CG] |==|  0.39842
USER: genes 6 Torsion [CA]-CB--CG-[CD2] |==|  0.65587
USER: genes 7 Torsion [N]-CA--C-[N] |==|  0.35643
USER: genes 8 Torsion [C]-N--CA-[CB] |==|  0.54924
USER: genes 9 Torsion [N]-CA--C-[N] |==|  0.40717
USER: genes 10 Torsion [C]-N--CA-[CB] |==|  0.86306
USER: genes 11 Torsion [N]-CA--C-[N] |==|  0.36363
USER: genes 12 Torsion [N]-CA--CB-[OG1] |==|  0.96699
USER: genes 13 Torsion [CA]-CB--OG1-[HG1] |==|  0.77175
ROOT
ATOM      1  CA  ALA C   2      24.425   1.960  44.575  1.00 19.98 LIG 0.17  C 
ATOM      2  CB  ALA C   2      25.708   2.582  45.131  1.00 20.88 LIG 0.04  C 
ENDROOT
BRANCH 1 3
ATOM      3  N   ALA C   2      24.714   1.116  43.427  1.00 19.64 LIG-0.35  N 
ATOM      4 H    ALA C   2      24.315   0.354  43.419  1.00 19.64 LIG 0.16  HD
ATOM      5  C   PHE C   1      25.544   1.548  42.493  1.00 22.16 LIG 0.24  C 
ATOM      6 O    PHE C   1      26.010   2.687  42.524  1.00 23.85 LIG-0.27  OA
BRANCH 5 7
ATOM      7  CA  PHE C   1      25.851   0.611  41.338  1.00 22.77 LIG 0.18  C 
BRANCH 7 8
ATOM      8  N   PHE C   1      26.803  -0.357  41.815  1.00 26.70 LIG-0.35  N 
ATOM      9 H    PHE C   1      27.592  -0.267  41.486  1.00 26.70 LIG 0.16  HD
ATOM     10  C   ACE C   0      26.473  -1.287  42.679  1.00 28.63 LIG 0.21  C 
ATOM     11  CH3 ACE C   0      27.643  -2.170  43.054  1.00 28.20 LIG 0.12  C 
ATOM     12 O    ACE C   0      25.311  -1.368  43.088  1.00 29.97 LIG-0.27  OA
ENDBRANCH 7 8
BRANCH 7 13
ATOM     13  CB  PHE C   1      24.642  -0.166  40.858  1.00 20.34 LIG 0.07  C 
BRANCH 13 14
ATOM     14  CG  PHE C   1      24.625  -0.367  39.365  1.00 17.40 LIG-0.06  A 
ATOM     15  CD1 PHE C   1      25.687  -0.961  38.676  1.00 16.88 LIG 0.01  A 
ATOM     16  CE1 PHE C   1      25.633  -1.106  37.272  1.00 14.02 LIG 0.00  A 
ATOM     17  CZ  PHE C   1      24.557  -0.665  36.596  1.00 15.72 LIG 0.00  A 
ATOM     18  CE2 PHE C   1      23.507  -0.079  37.276  1.00 14.79 LIG 0.00  A 
ATOM     19  CD2 PHE C   1      23.546   0.056  38.640  1.00 15.53 LIG 0.01  A 
ENDBRANCH 13 14
ENDBRANCH 7 13
ENDBRANCH 5 7
ENDBRANCH 1 3
BRANCH 1 20
ATOM     20  C   ALA C   2      23.473   3.067  44.173  1.00 17.39 LIG 0.24  C 
ATOM     21  N   THR C   3      22.390   3.195  44.944  1.00 15.98 LIG-0.34  N 
ATOM     22 H    THR C   3      22.198   2.678  45.604  1.00 15.98 LIG 0.16  HD
ATOM     23 O    ALA C   2      23.735   3.805  43.217  1.00 16.73 LIG-0.27  OA
BRANCH 21 24
ATOM     24  CA  THR C   3      21.432   4.260  44.702  1.00 15.15 LIG 0.20  C 
BRANCH 24 25
ATOM     25  C   THR C   3      22.144   5.546  44.321  1.00 14.93 LIG 0.24  C 
ATOM     26  N   ALA C   4      21.498   6.314  43.460  1.00 13.95 LIG-0.35  N 
ATOM     27 H    ALA C   4      20.751   6.094  43.094  1.00 13.95 LIG 0.16  HD
ATOM     28 O    THR C   3      23.229   5.856  44.823  1.00 16.43 LIG-0.27  OA
BRANCH 26 29
ATOM     29  CA  ALA C   4      21.991   7.607  43.051  1.00 14.93 LIG 0.18  C 
ATOM     30  CB  ALA C   4      22.366   8.403  44.295  1.00 15.34 LIG 0.04  C 
BRANCH 29 31
ATOM     31  C   ALA C   4      23.178   7.456  42.093  1.00 16.13 LIG 0.28  C 
ATOM     32 O    ALA C   4      24.116   6.714  42.375  1.00 17.37 LIG-0.27  OA
ATOM     33  N   NH2 C   5      23.140   8.163  40.966  1.00 15.73 LIG-0.11  N 
ENDBRANCH 29 31
ENDBRANCH 26 29
ENDBRANCH 24 25
BRANCH 24 34
ATOM     34  CB  THR C   3      20.531   4.495  45.922  1.00 16.10 LIG 0.15  C 
ATOM     35  CG2 THR C   3      19.056   4.572  45.542  1.00 16.48 LIG 0.04  C 
BRANCH 34 36
ATOM     36 OG1  THR C   3      20.716   3.410  46.841  1.00 16.89 LIG-0.39  OA
ATOM     37 HG1  THR C   3      20.245   2.757  46.602  1.00 16.89 LIG 0.21  HD
ENDBRANCH 34 36
ENDBRANCH 24 34
ENDBRANCH 21 24
ENDBRANCH 1 20
TORSDOF 12
ENDMDL
MODEL 15
USER: ADFR SOLUTION from run 79
USER: SCORE 10.974101 LL:  -2.108 LR: -10.337 RR:   0.000 FEB:  -6.757
USER: RMSD 3.409538
USER: SEED 78
USER: STATUS no improvement in best in 16 clusters for 5 generations
USER: GENES 14
USER: genes 0 Translation |==|  0.56399 0.41051 0.57200
USER: genes 1 Rotation |==|  0.39780 0.49210 0.44943 0.98676
USER: genes 2 Torsion [CB]-CA--N-[C] |==|  0.86621
USER: genes 3 Torsion [N]-C--CA-[N] |==|  0.43139
USER: genes 4 Torsion [C]-CA--N-[C] |==|  0.54947
USER: genes 5 Torsion [C]-CA--CB-[CG] |==|  0.27821
USER: genes 6 Torsion [CA]-CB--CG-[CD2] |==|  0.33692
USER: genes 7 Torsion [N]-CA--C-[N] |==|  0.33566
USER: genes 8 Torsion [C]-N--CA-[CB] |==|  0.52451
USER: genes 9 Torsion [N]-CA--C-[N] |==|  0.40226
USER: genes 10 Torsion [C]-N--CA-[CB] |==|  0.18843
USER: genes 11 Torsion [N]-CA--C-[N] |==|  0.97778
USER: genes 12 Torsion [N]-CA--CB-[OG1] |==|  0.82019
USER: genes 13 Torsion [CA]-CB--OG1-[HG1] |==|  0.67959
ROOT
ATOM      1  CA  ALA C   2      25.854   0.828  44.227  1.00 19.98 LIG 0.17  C 
ATOM      2  CB  ALA C   2      26.800   1.958  43.815  1.00 20.88 LIG 0.04  C 
ENDROOT
BRANCH 1 3
ATOM      3  N   ALA C   2      25.655  -0.107  43.132  1.00 19.64 LIG-0.35  N 
ATOM      4 H    ALA C   2      25.741  -0.938  43.336  1.00 19.64 LIG 0.16  HD
ATOM      5  C   PHE C   1      25.366   0.353  41.927  1.00 22.16 LIG 0.24  C 
ATOM      6 O    PHE C   1      25.170   1.552  41.725  1.00 23.85 LIG-0.27  OA
BRANCH 5 7
ATOM      7  CA  PHE C   1      25.215  -0.660  40.806  1.00 22.77 LIG 0.18  C 
BRANCH 7 8
ATOM      8  N   PHE C   1      24.369  -0.067  39.805  1.00 26.70 LIG-0.35  N 
ATOM      9 H    PHE C   1      24.295   0.787  39.866  1.00 26.70 LIG 0.16  HD
ATOM     10  C   ACE C   0      23.771  -0.787  38.887  1.00 28.63 LIG 0.21  C 
ATOM     11  CH3 ACE C   0      22.958   0.055  37.929  1.00 28.20 LIG 0.12  C 
ATOM     12 O    ACE C   0      23.904  -2.015  38.878  1.00 29.97 LIG-0.27  OA
ENDBRANCH 7 8
BRANCH 7 13
ATOM     13  CB  PHE C   1      26.526  -1.000  40.124  1.00 20.34 LIG 0.07  C 
BRANCH 13 14
ATOM     14  CG  PHE C   1      27.118  -2.301  40.601  1.00 17.40 LIG-0.06  A 
ATOM     15  CD1 PHE C   1      27.456  -2.526  41.939  1.00 16.88 LIG 0.01  A 
ATOM     16  CE1 PHE C   1      28.029  -3.755  42.332  1.00 14.02 LIG 0.00  A 
ATOM     17  CZ  PHE C   1      28.255  -4.711  41.412  1.00 15.72 LIG 0.00  A 
ATOM     18  CE2 PHE C   1      27.919  -4.490  40.090  1.00 14.79 LIG 0.00  A 
ATOM     19  CD2 PHE C   1      27.353  -3.304  39.701  1.00 15.53 LIG 0.01  A 
ENDBRANCH 13 14
ENDBRANCH 7 13
ENDBRANCH 5 7
ENDBRANCH 1 3
BRANCH 1 20
ATOM     20  C   ALA C   2      24.525   1.425  44.641  1.00 17.39 LIG 0.24  C 
ATOM     21  N   THR C   3      24.178   1.215  45.914  1.00 15.98 LIG-0.34  N 
ATOM     22 H    THR C   3      24.635   0.747  46.473  1.00 15.98 LIG 0.16  HD
ATOM     23 O    ALA C   2      23.856   2.087  43.841  1.00 16.73 LIG-0.27  OA
BRANCH 21 24
ATOM     24  CA  THR C   3      22.956   1.789  46.452  1.00 15.15 LIG 0.20  C 
BRANCH 24 25
ATOM     25  C   THR C   3      22.855   3.262  46.097  1.00 14.93 LIG 0.24  C 
ATOM     26  N   ALA C   4      21.631   3.701  45.856  1.00 13.95 LIG-0.35  N 
ATOM     27 H    ALA C   4      20.937   3.192  45.848  1.00 13.95 LIG 0.16  HD
ATOM     28 O    THR C   3      23.851   3.993  46.083  1.00 16.43 LIG-0.27  OA
BRANCH 26 29
ATOM     29  CA  ALA C   4      21.343   5.088  45.583  1.00 14.93 LIG 0.18  C 
ATOM     30  CB  ALA C   4      21.952   5.458  44.235  1.00 15.34 LIG 0.04  C 
BRANCH 29 31
ATOM     31  C   ALA C   4      19.832   5.344  45.614  1.00 16.13 LIG 0.28  C 
ATOM     32 O    ALA C   4      19.393   6.490  45.556  1.00 17.37 LIG-0.27  OA
ATOM     33  N   NH2 C   5      19.040   4.278  45.711  1.00 15.73 LIG-0.11  N 
ENDBRANCH 29 31
ENDBRANCH 26 29
ENDBRANCH 24 25
BRANCH 24 34
ATOM     34  CB  THR C   3      22.869   1.603  47.973  1.00 16.10 LIG 0.15  C 
ATOM     35  CG2 THR C   3      21.654   2.306  48.570  1.00 16.48 LIG 0.04  C 
BRANCH 34 36
ATOM     36 OG1  THR C   3      22.778   0.201  48.256  1.00 16.89 LIG-0.39  OA
ATOM     37 HG1  THR C   3      22.033   0.034  48.607  1.00 16.89 LIG 0.21  HD
ENDBRANCH 34 36
ENDBRANCH 24 34
ENDBRANCH 21 24
ENDBRANCH 1 20
TORSDOF 12
ENDMDL
MODEL 16
USER: ADFR SOLUTION from run 59
USER: SCORE 11.285114 LL:  -2.392 LR: -10.332 RR:   0.000 FEB:  -6.753
USER: RMSD 6.041067
USER: SEED 58
USER: STATUS no improvement in best in 20 clusters for 5 generations
USER: GENES 14
USER: genes 0 Translation |==|  0.68015 0.51806 0.36612
USER: genes 1 Rotation |==|  0.26262 0.64553 0.27151 0.84679
USER: genes 2 Torsion [CB]-CA--N-[C] |==|  0.16354
USER: genes 3 Torsion [N]-C--CA-[N] |==|  0.31335
USER: genes 4 Torsion [C]-CA--N-[C] |==|  0.57339
USER: genes 5 Torsion [C]-CA--CB-[CG] |==|  0.86378
USER: genes 6 Torsion [CA]-CB--CG-[CD2] |==|  0.81789
USER: genes 7 Torsion [N]-CA--C-[N] |==|  0.07879
USER: genes 8 Torsion [C]-N--CA-[CB] |==|  0.22778
USER: genes 9 Torsion [N]-CA--C-[N] |==|  0.98042
USER: genes 10 Torsion [C]-N--CA-[CB] |==|  0.16798
USER: genes 11 Torsion [N]-CA--C-[N] |==|  0.13475
USER: genes 12 Torsion [N]-CA--CB-[OG1] |==|  0.86008
USER: genes 13 Torsion [CA]-CB--OG1-[HG1] |==|  0.94672
ROOT
ATOM      1  CA  ALA C   2      28.032   2.603  39.904  1.00 19.98 LIG 0.17  C 
ATOM      2  CB  ALA C   2      28.874   2.196  38.693  1.00 20.88 LIG 0.04  C 
ENDROOT
BRANCH 1 3
ATOM      3  N   ALA C   2      26.677   2.089  39.789  1.00 19.64 LIG-0.35  N 
ATOM      4 H    ALA C   2      26.055   2.682  39.797  1.00 19.64 LIG 0.16  HD
ATOM      5  C   PHE C   1      26.482   0.786  39.683  1.00 22.16 LIG 0.24  C 
ATOM      6 O    PHE C   1      27.424  -0.001  39.587  1.00 23.85 LIG-0.27  OA
BRANCH 5 7
ATOM      7  CA  PHE C   1      25.046   0.294  39.614  1.00 22.77 LIG 0.18  C 
BRANCH 7 8
ATOM      8  N   PHE C   1      24.843  -0.247  38.297  1.00 26.70 LIG-0.35  N 
ATOM      9 H    PHE C   1      25.559  -0.538  37.920  1.00 26.70 LIG 0.16  HD
ATOM     10  C   ACE C   0      23.657  -0.284  37.738  1.00 28.63 LIG 0.21  C 
ATOM     11  CH3 ACE C   0      23.684  -0.921  36.366  1.00 28.20 LIG 0.12  C 
ATOM     12 O    ACE C   0      22.678   0.177  38.331  1.00 29.97 LIG-0.27  OA
ENDBRANCH 7 8
BRANCH 7 13
ATOM     13  CB  PHE C   1      24.747  -0.821  40.596  1.00 20.34 LIG 0.07  C 
BRANCH 13 14
ATOM     14  CG  PHE C   1      25.766  -1.931  40.555  1.00 17.40 LIG-0.06  A 
ATOM     15  CD1 PHE C   1      26.618  -2.206  41.629  1.00 16.88 LIG 0.01  A 
ATOM     16  CE1 PHE C   1      27.572  -3.243  41.533  1.00 14.02 LIG 0.00  A 
ATOM     17  CZ  PHE C   1      27.663  -3.965  40.401  1.00 15.72 LIG 0.00  A 
ATOM     18  CE2 PHE C   1      26.820  -3.694  39.340  1.00 14.79 LIG 0.00  A 
ATOM     19  CD2 PHE C   1      25.884  -2.696  39.428  1.00 15.53 LIG 0.01  A 
ENDBRANCH 13 14
ENDBRANCH 7 13
ENDBRANCH 5 7
ENDBRANCH 1 3
BRANCH 1 20
ATOM     20  C   ALA C   2      28.003   4.114  39.998  1.00 17.39 LIG 0.24  C 
ATOM     21  N   THR C   3      26.896   4.630  40.541  1.00 15.98 LIG-0.34  N 
ATOM     22 H    THR C   3      26.216   4.168  40.792  1.00 15.98 LIG 0.16  HD
ATOM     23 O    ALA C   2      28.970   4.786  39.625  1.00 16.73 LIG-0.27  OA
BRANCH 21 24
ATOM     24  CA  THR C   3      26.772   6.063  40.745  1.00 15.15 LIG 0.20  C 
BRANCH 24 25
ATOM     25  C   THR C   3      25.794   6.362  41.868  1.00 14.93 LIG 0.24  C 
ATOM     26  N   ALA C   4      25.141   5.313  42.340  1.00 13.95 LIG-0.35  N 
ATOM     27 H    ALA C   4      25.215   4.521  42.013  1.00 13.95 LIG 0.16  HD
ATOM     28 O    THR C   3      25.664   7.502  42.324  1.00 16.43 LIG-0.27  OA
BRANCH 26 29
ATOM     29  CA  ALA C   4      24.234   5.403  43.459  1.00 14.93 LIG 0.18  C 
ATOM     30  CB  ALA C   4      23.109   6.366  43.100  1.00 15.34 LIG 0.04  C 
BRANCH 29 31
ATOM     31  C   ALA C   4      23.698   4.017  43.834  1.00 16.13 LIG 0.28  C 
ATOM     32 O    ALA C   4      22.494   3.841  44.008  1.00 17.37 LIG-0.27  OA
ATOM     33  N   NH2 C   5      24.590   3.038  43.963  1.00 15.73 LIG-0.11  N 
ENDBRANCH 29 31
ENDBRANCH 26 29
ENDBRANCH 24 25
BRANCH 24 34
ATOM     34  CB  THR C   3      26.336   6.779  39.459  1.00 16.10 LIG 0.15  C 
ATOM     35  CG2 THR C   3      26.421   8.296  39.588  1.00 16.48 LIG 0.04  C 
BRANCH 34 36
ATOM     36 OG1  THR C   3      27.194   6.357  38.390  1.00 16.89 LIG-0.39  OA
ATOM     37 HG1  THR C   3      27.898   6.029  38.709  1.00 16.89 LIG 0.21  HD
ENDBRANCH 34 36
ENDBRANCH 24 34
ENDBRANCH 21 24
ENDBRANCH 1 20
TORSDOF 12
ENDMDL
MODEL 17
USER: ADFR SOLUTION from run 193
USER: SCORE 11.246845 LL:  -2.801 LR: -10.322 RR:   0.000 FEB:  -6.742
USER: RMSD 8.599682
USER: SEED 192
USER: STATUS no improvement in best in 24 clusters for 5 generations
USER: GENES 14
USER: genes 0 Translation |==|  0.68829 0.33883 0.31740
USER: genes 1 Rotation |==|  0.24604 0.81719 0.31413 0.72438
USER: genes 2 Torsion [CB]-CA--N-[C] |==|  0.21101
USER: genes 3 Torsion [N]-C--CA-[N] |==|  0.96248
USER: genes 4 Torsion [C]-CA--N-[C] |==|  0.73199
USER: genes 5 Torsion [C]-CA--CB-[CG] |==|  0.91078
USER: genes 6 Torsion [CA]-CB--CG-[CD2] |==|  0.24629
USER: genes 7 Torsion [N]-CA--C-[N] |==|  0.51975
USER: genes 8 Torsion [C]-N--CA-[CB] |==|  0.51196
USER: genes 9 Torsion [N]-CA--C-[N] |==|  0.40700
USER: genes 10 Torsion [C]-N--CA-[CB] |==|  0.85000
USER: genes 11 Torsion [N]-CA--C-[N] |==|  0.99427
USER: genes 12 Torsion [N]-CA--CB-[OG1] |==|  0.09974
USER: genes 13 Torsion [CA]-CB--OG1-[HG1] |==|  0.85275
ROOT
ATOM      1  CA  ALA C   2      28.184  -0.354  38.880  1.00 19.98 LIG 0.17  C 
ATOM      2  CB  ALA C   2      27.786  -0.739  37.454  1.00 20.88 LIG 0.04  C 
ENDROOT
BRANCH 1 3
ATOM      3  N   ALA C   2      27.024  -0.332  39.755  1.00 19.64 LIG-0.35  N 
ATOM      4 H    ALA C   2      26.728   0.449  39.957  1.00 19.64 LIG 0.16  HD
ATOM      5  C   PHE C   1      26.505  -1.473  40.177  1.00 22.16 LIG 0.24  C 
ATOM      6 O    PHE C   1      26.924  -2.558  39.776  1.00 23.85 LIG-0.27  OA
BRANCH 5 7
ATOM      7  CA  PHE C   1      25.323  -1.397  41.128  1.00 22.77 LIG 0.18  C 
BRANCH 7 8
ATOM      8  N   PHE C   1      25.241  -0.040  41.600  1.00 26.70 LIG-0.35  N 
ATOM      9 H    PHE C   1      24.823   0.494  41.071  1.00 26.70 LIG 0.16  HD
ATOM     10  C   ACE C   0      25.766   0.329  42.744  1.00 28.63 LIG 0.21  C 
ATOM     11  CH3 ACE C   0      25.531   1.793  43.043  1.00 28.20 LIG 0.12  C 
ATOM     12 O    ACE C   0      26.374  -0.491  43.439  1.00 29.97 LIG-0.27  OA
ENDBRANCH 7 8
BRANCH 7 13
ATOM     13  CB  PHE C   1      23.997  -1.708  40.463  1.00 20.34 LIG 0.07  C 
BRANCH 13 14
ATOM     14  CG  PHE C   1      23.949  -1.283  39.018  1.00 17.40 LIG-0.06  A 
ATOM     15  CD1 PHE C   1      23.474  -0.029  38.620  1.00 16.88 LIG 0.01  A 
ATOM     16  CE1 PHE C   1      23.429   0.313  37.250  1.00 14.02 LIG 0.00  A 
ATOM     17  CZ  PHE C   1      23.840  -0.574  36.326  1.00 15.72 LIG 0.00  A 
ATOM     18  CE2 PHE C   1      24.310  -1.812  36.718  1.00 14.79 LIG 0.00  A 
ATOM     19  CD2 PHE C   1      24.368  -2.149  38.046  1.00 15.53 LIG 0.01  A 
ENDBRANCH 13 14
ENDBRANCH 7 13
ENDBRANCH 5 7
ENDBRANCH 1 3
BRANCH 1 20
ATOM     20  C   ALA C   2      28.839   1.012  38.858  1.00 17.39 LIG 0.24  C 
ATOM     21  N   THR C   3      29.829   1.155  37.973  1.00 15.98 LIG-0.34  N 
ATOM     22 H    THR C   3      30.124   0.526  37.466  1.00 15.98 LIG 0.16  HD
ATOM     23 O    ALA C   2      28.431   1.916  39.594  1.00 16.73 LIG-0.27  OA
BRANCH 21 24
ATOM     24  CA  THR C   3      30.495   2.435  37.810  1.00 15.15 LIG 0.20  C 
BRANCH 24 25
ATOM     25  C   THR C   3      29.482   3.539  37.563  1.00 14.93 LIG 0.24  C 
ATOM     26  N   ALA C   4      29.802   4.721  38.063  1.00 13.95 LIG-0.35  N 
ATOM     27 H    ALA C   4      30.505   4.860  38.539  1.00 13.95 LIG 0.16  HD
ATOM     28 O    THR C   3      28.458   3.339  36.901  1.00 16.43 LIG-0.27  OA
BRANCH 26 29
ATOM     29  CA  ALA C   4      28.994   5.898  37.853  1.00 14.93 LIG 0.18  C 
ATOM     30  CB  ALA C   4      28.780   6.083  36.355  1.00 15.34 LIG 0.04  C 
BRANCH 29 31
ATOM     31  C   ALA C   4      27.665   5.783  38.607  1.00 16.13 LIG 0.28  C 
ATOM     32 O    ALA C   4      26.856   6.708  38.588  1.00 17.37 LIG-0.27  OA
ATOM     33  N   NH2 C   5      27.443   4.653  39.275  1.00 15.73 LIG-0.11  N 
ENDBRANCH 29 31
ENDBRANCH 26 29
ENDBRANCH 24 25
BRANCH 24 34
ATOM     34  CB  THR C   3      31.523   2.395  36.671  1.00 16.10 LIG 0.15  C 
ATOM     35  CG2 THR C   3      32.870   1.846  37.129  1.00 16.48 LIG 0.04  C 
BRANCH 34 36
ATOM     36 OG1  THR C   3      31.012   1.555  35.627  1.00 16.89 LIG-0.39  OA
ATOM     37 HG1  THR C   3      30.796   0.809  35.948  1.00 16.89 LIG 0.21  HD
ENDBRANCH 34 36
ENDBRANCH 24 34
ENDBRANCH 21 24
ENDBRANCH 1 20
TORSDOF 12
ENDMDL
MODEL 18
USER: ADFR SOLUTION from run 110
USER: SCORE 11.331471 LL:  -2.103 LR: -10.223 RR:   0.000 FEB:  -6.643
USER: RMSD 3.571859
USER: SEED 109
USER: STATUS no improvement in best in 13 clusters for 5 generations
USER: GENES 14
USER: genes 0 Translation |==|  0.57382 0.31929 0.51236
USER: genes 1 Rotation |==|  0.51585 0.39821 0.23099 0.90868
USER: genes 2 Torsion [CB]-CA--N-[C] |==|  0.17857
USER: genes 3 Torsion [N]-C--CA-[N] |==|  0.44535
USER: genes 4 Torsion [C]-CA--N-[C] |==|  0.78104
USER: genes 5 Torsion [C]-CA--CB-[CG] |==|  0.28913
USER: genes 6 Torsion [CA]-CB--CG-[CD2] |==|  0.74951
USER: genes 7 Torsion [N]-CA--C-[N] |==|  0.60239
USER: genes 8 Torsion [C]-N--CA-[CB] |==|  0.85000
USER: genes 9 Torsion [N]-CA--C-[N] |==|  0.34460
USER: genes 10 Torsion [C]-N--CA-[CB] |==|  0.86098
USER: genes 11 Torsion [N]-CA--C-[N] |==|  0.40758
USER: genes 12 Torsion [N]-CA--CB-[OG1] |==|  0.94847
USER: genes 13 Torsion [CA]-CB--OG1-[HG1] |==|  0.34790
ROOT
ATOM      1  CA  ALA C   2      26.038  -0.677  42.975  1.00 19.98 LIG 0.17  C 
ATOM      2  CB  ALA C   2      27.422  -0.698  43.627  1.00 20.88 LIG 0.04  C 
ENDROOT
BRANCH 1 3
ATOM      3  N   ALA C   2      26.126  -1.010  41.562  1.00 19.64 LIG-0.35  N 
ATOM      4 H    ALA C   2      25.898  -0.383  41.020  1.00 19.64 LIG 0.16  HD
ATOM      5  C   PHE C   1      26.536  -2.213  41.202  1.00 22.16 LIG 0.24  C 
ATOM      6 O    PHE C   1      26.934  -3.033  42.029  1.00 23.85 LIG-0.27  OA
BRANCH 5 7
ATOM      7  CA  PHE C   1      26.565  -2.529  39.716  1.00 22.77 LIG 0.18  C 
BRANCH 7 8
ATOM      8  N   PHE C   1      27.448  -3.651  39.535  1.00 26.70 LIG-0.35  N 
ATOM      9 H    PHE C   1      27.047  -4.404  39.432  1.00 26.70 LIG 0.16  HD
ATOM     10  C   ACE C   0      28.753  -3.512  39.531  1.00 28.63 LIG 0.21  C 
ATOM     11  CH3 ACE C   0      29.473  -4.822  39.297  1.00 28.20 LIG 0.12  C 
ATOM     12 O    ACE C   0      29.258  -2.401  39.712  1.00 29.97 LIG-0.27  OA
ENDBRANCH 7 8
BRANCH 7 13
ATOM     13  CB  PHE C   1      25.216  -2.943  39.165  1.00 20.34 LIG 0.07  C 
BRANCH 13 14
ATOM     14  CG  PHE C   1      24.548  -1.855  38.365  1.00 17.40 LIG-0.06  A 
ATOM     15  CD1 PHE C   1      24.752  -1.700  36.990  1.00 16.88 LIG 0.01  A 
ATOM     16  CE1 PHE C   1      24.120  -0.650  36.289  1.00 14.02 LIG 0.00  A 
ATOM     17  CZ  PHE C   1      23.321   0.208  36.950  1.00 15.72 LIG 0.00  A 
ATOM     18  CE2 PHE C   1      23.118   0.055  38.308  1.00 14.79 LIG 0.00  A 
ATOM     19  CD2 PHE C   1      23.719  -0.968  38.994  1.00 15.53 LIG 0.01  A 
ENDBRANCH 13 14
ENDBRANCH 7 13
ENDBRANCH 5 7
ENDBRANCH 1 3
BRANCH 1 20
ATOM     20  C   ALA C   2      25.435   0.703  43.142  1.00 17.39 LIG 0.24  C 
ATOM     21  N   THR C   3      25.948   1.432  44.137  1.00 15.98 LIG-0.34  N 
ATOM     22 H    THR C   3      26.550   1.153  44.685  1.00 15.98 LIG 0.16  HD
ATOM     23 O    ALA C   2      24.560   1.104  42.368  1.00 16.73 LIG-0.27  OA
BRANCH 21 24
ATOM     24  CA  THR C   3      25.499   2.795  44.362  1.00 15.15 LIG 0.20  C 
BRANCH 24 25
ATOM     25  C   THR C   3      24.067   2.811  44.866  1.00 14.93 LIG 0.24  C 
ATOM     26  N   ALA C   4      23.881   3.440  46.015  1.00 13.95 LIG-0.35  N 
ATOM     27 H    ALA C   4      24.520   3.778  46.480  1.00 13.95 LIG 0.16  HD
ATOM     28 O    THR C   3      23.147   2.306  44.215  1.00 16.43 LIG-0.27  OA
BRANCH 26 29
ATOM     29  CA  ALA C   4      22.573   3.620  46.599  1.00 14.93 LIG 0.18  C 
ATOM     30  CB  ALA C   4      21.639   4.190  45.538  1.00 15.34 LIG 0.04  C 
BRANCH 29 31
ATOM     31  C   ALA C   4      22.048   2.299  47.168  1.00 16.13 LIG 0.28  C 
ATOM     32 O    ALA C   4      22.326   1.232  46.627  1.00 17.37 LIG-0.27  OA
ATOM     33  N   NH2 C   5      21.283   2.371  48.256  1.00 15.73 LIG-0.11  N 
ENDBRANCH 29 31
ENDBRANCH 26 29
ENDBRANCH 24 25
BRANCH 24 34
ATOM     34  CB  THR C   3      25.622   3.645  43.090  1.00 16.10 LIG 0.15  C 
ATOM     35  CG2 THR C   3      26.145   5.048  43.384  1.00 16.48 LIG 0.04  C 
BRANCH 34 36
ATOM     36 OG1  THR C   3      26.529   2.992  42.192  1.00 16.89 LIG-0.39  OA
ATOM     37 HG1  THR C   3      26.154   2.878  41.449  1.00 16.89 LIG 0.21  HD
ENDBRANCH 34 36
ENDBRANCH 24 34
ENDBRANCH 21 24
ENDBRANCH 1 20
TORSDOF 12
ENDMDL
MODEL 19
USER: ADFR SOLUTION from run 62
USER: SCORE 11.230616 LL:  -2.653 LR: -10.195 RR:   0.000 FEB:  -6.615
USER: RMSD 3.869686
USER: SEED 61
USER: STATUS searching
USER: GENES 14
USER: genes 0 Translation |==|  0.62915 0.39951 0.40801
USER: genes 1 Rotation |==|  0.39032 0.59919 0.62170 0.96187
USER: genes 2 Torsion [CB]-CA--N-[C] |==|  0.50612
USER: genes 3 Torsion [N]-C--CA-[N] |==|  0.44432
USER: genes 4 Torsion [C]-CA--N-[C] |==|  0.79247
USER: genes 5 Torsion [C]-CA--CB-[CG] |==|  0.18961
USER: genes 6 Torsion [CA]-CB--CG-[CD2] |==|  0.72704
USER: genes 7 Torsion [N]-CA--C-[N] |==|  0.31847
USER: genes 8 Torsion [C]-N--CA-[CB] |==|  0.47339
USER: genes 9 Torsion [N]-CA--C-[N] |==|  0.41649
USER: genes 10 Torsion [C]-N--CA-[CB] |==|  0.85000
USER: genes 11 Torsion [N]-CA--C-[N] |==|  0.37788
USER: genes 12 Torsion [N]-CA--CB-[OG1] |==|  0.80105
USER: genes 13 Torsion [CA]-CB--OG1-[HG1] |==|  0.72688
ROOT
ATOM      1  CA  ALA C   2      27.075   0.647  40.783  1.00 19.98 LIG 0.17  C 
ATOM      2  CB  ALA C   2      26.912   2.011  40.109  1.00 20.88 LIG 0.04  C 
ENDROOT
BRANCH 1 3
ATOM      3  N   ALA C   2      26.880  -0.430  39.827  1.00 19.64 LIG-0.35  N 
ATOM      4 H    ALA C   2      26.731  -0.183  39.017  1.00 19.64 LIG 0.16  HD
ATOM      5  C   PHE C   1      26.940  -1.685  40.239  1.00 22.16 LIG 0.24  C 
ATOM      6 O    PHE C   1      27.247  -1.969  41.397  1.00 23.85 LIG-0.27  OA
BRANCH 5 7
ATOM      7  CA  PHE C   1      26.682  -2.774  39.212  1.00 22.77 LIG 0.18  C 
BRANCH 7 8
ATOM      8  N   PHE C   1      27.249  -3.991  39.729  1.00 26.70 LIG-0.35  N 
ATOM      9 H    PHE C   1      26.670  -4.554  40.024  1.00 26.70 LIG 0.16  HD
ATOM     10  C   ACE C   0      28.543  -4.204  39.739  1.00 28.63 LIG 0.21  C 
ATOM     11  CH3 ACE C   0      28.903  -5.561  40.302  1.00 28.20 LIG 0.12  C 
ATOM     12 O    ACE C   0      29.316  -3.337  39.320  1.00 29.97 LIG-0.27  OA
ENDBRANCH 7 8
BRANCH 7 13
ATOM     13  CB  PHE C   1      25.208  -3.043  38.981  1.00 20.34 LIG 0.07  C 
BRANCH 13 14
ATOM     14  CG  PHE C   1      24.501  -1.900  38.300  1.00 17.40 LIG-0.06  A 
ATOM     15  CD1 PHE C   1      24.555  -1.702  36.917  1.00 16.88 LIG 0.01  A 
ATOM     16  CE1 PHE C   1      23.893  -0.602  36.328  1.00 14.02 LIG 0.00  A 
ATOM     17  CZ  PHE C   1      23.212   0.261  37.105  1.00 15.72 LIG 0.00  A 
ATOM     18  CE2 PHE C   1      23.157   0.064  38.471  1.00 14.79 LIG 0.00  A 
ATOM     19  CD2 PHE C   1      23.787  -1.007  39.050  1.00 15.53 LIG 0.01  A 
ENDBRANCH 13 14
ENDBRANCH 7 13
ENDBRANCH 5 7
ENDBRANCH 1 3
BRANCH 1 20
ATOM     20  C   ALA C   2      26.067   0.528  41.907  1.00 17.39 LIG 0.24  C 
ATOM     21  N   THR C   3      26.583   0.266  43.111  1.00 15.98 LIG-0.34  N 
ATOM     22 H    THR C   3      27.419   0.132  43.264  1.00 15.98 LIG 0.16  HD
ATOM     23 O    ALA C   2      24.863   0.705  41.692  1.00 16.73 LIG-0.27  OA
BRANCH 21 24
ATOM     24  CA  THR C   3      25.726   0.190  44.281  1.00 15.15 LIG 0.20  C 
BRANCH 24 25
ATOM     25  C   THR C   3      25.126   1.549  44.596  1.00 14.93 LIG 0.24  C 
ATOM     26  N   ALA C   4      23.936   1.520  45.173  1.00 13.95 LIG-0.35  N 
ATOM     27 H    ALA C   4      23.497   0.795  45.320  1.00 13.95 LIG 0.16  HD
ATOM     28 O    THR C   3      25.740   2.595  44.364  1.00 16.43 LIG-0.27  OA
BRANCH 26 29
ATOM     29  CA  ALA C   4      23.257   2.714  45.612  1.00 14.93 LIG 0.18  C 
ATOM     30  CB  ALA C   4      24.187   3.495  46.534  1.00 15.34 LIG 0.04  C 
BRANCH 29 31
ATOM     31  C   ALA C   4      22.809   3.556  44.412  1.00 16.13 LIG 0.28  C 
ATOM     32 O    ALA C   4      23.570   3.746  43.466  1.00 17.37 LIG-0.27  OA
ATOM     33  N   NH2 C   5      21.579   4.064  44.454  1.00 15.73 LIG-0.11  N 
ENDBRANCH 29 31
ENDBRANCH 26 29
ENDBRANCH 24 25
BRANCH 24 34
ATOM     34  CB  THR C   3      26.486  -0.349  45.501  1.00 16.10 LIG 0.15  C 
ATOM     35  CG2 THR C   3      25.701  -0.167  46.796  1.00 16.48 LIG 0.04  C 
BRANCH 34 36
ATOM     36 OG1  THR C   3      26.733  -1.747  45.303  1.00 16.89 LIG-0.39  OA
ATOM     37 HG1  THR C   3      26.154  -2.195  45.715  1.00 16.89 LIG 0.21  HD
ENDBRANCH 34 36
ENDBRANCH 24 34
ENDBRANCH 21 24
ENDBRANCH 1 20
TORSDOF 12
ENDMDL
MODEL 20
USER: ADFR SOLUTION from run 197
USER: SCORE 10.124269 LL:  -2.342 LR: -10.171 RR:   0.000 FEB:  -6.591
USER: RMSD 2.852158
USER: SEED 196
USER: STATUS no improvement in best in 14 clusters for 5 generations
USER: GENES 14
USER: genes 0 Translation |==|  0.54540 0.50151 0.55700
USER: genes 1 Rotation |==|  0.51614 0.44312 0.36849 0.97876
USER: genes 2 Torsion [CB]-CA--N-[C] |==|  0.34988
USER: genes 3 Torsion [N]-C--CA-[N] |==|  0.25504
USER: genes 4 Torsion [C]-CA--N-[C] |==|  0.76840
USER: genes 5 Torsion [C]-CA--CB-[CG] |==|  0.46821
USER: genes 6 Torsion [CA]-CB--CG-[CD2] |==|  0.30773
USER: genes 7 Torsion [N]-CA--C-[N] |==|  0.69874
USER: genes 8 Torsion [C]-N--CA-[CB] |==|  0.78333
USER: genes 9 Torsion [N]-CA--C-[N] |==|  0.20565
USER: genes 10 Torsion [C]-N--CA-[CB] |==|  0.86657
USER: genes 11 Torsion [N]-CA--C-[N] |==|  0.41603
USER: genes 12 Torsion [N]-CA--CB-[OG1] |==|  0.92366
USER: genes 13 Torsion [CA]-CB--OG1-[HG1] |==|  0.16081
ROOT
ATOM      1  CA  ALA C   2      25.505   2.330  43.912  1.00 19.98 LIG 0.17  C 
ATOM      2  CB  ALA C   2      26.734   3.156  44.299  1.00 20.88 LIG 0.04  C 
ENDROOT
BRANCH 1 3
ATOM      3  N   ALA C   2      25.529   1.998  42.497  1.00 19.64 LIG-0.35  N 
ATOM      4 H    ALA C   2      25.614   2.665  41.962  1.00 19.64 LIG 0.16  HD
ATOM      5  C   PHE C   1      25.421   0.735  42.123  1.00 22.16 LIG 0.24  C 
ATOM      6 O    PHE C   1      25.392  -0.181  42.946  1.00 23.85 LIG-0.27  OA
BRANCH 5 7
ATOM      7  CA  PHE C   1      25.402   0.443  40.633  1.00 22.77 LIG 0.18  C 
BRANCH 7 8
ATOM      8  N   PHE C   1      26.761   0.200  40.228  1.00 26.70 LIG-0.35  N 
ATOM      9 H    PHE C   1      26.976  -0.632  40.193  1.00 26.70 LIG 0.16  HD
ATOM     10  C   ACE C   0      27.585   1.179  39.941  1.00 28.63 LIG 0.21  C 
ATOM     11  CH3 ACE C   0      28.949   0.682  39.515  1.00 28.20 LIG 0.12  C 
ATOM     12 O    ACE C   0      27.211   2.352  40.039  1.00 29.97 LIG-0.27  OA
ENDBRANCH 7 8
BRANCH 7 13
ATOM     13  CB  PHE C   1      24.611  -0.800  40.275  1.00 20.34 LIG 0.07  C 
BRANCH 13 14
ATOM     14  CG  PHE C   1      24.364  -0.934  38.794  1.00 17.40 LIG-0.06  A 
ATOM     15  CD1 PHE C   1      23.497  -0.085  38.098  1.00 16.88 LIG 0.01  A 
ATOM     16  CE1 PHE C   1      23.282  -0.266  36.714  1.00 14.02 LIG 0.00  A 
ATOM     17  CZ  PHE C   1      23.911  -1.264  36.065  1.00 15.72 LIG 0.00  A 
ATOM     18  CE2 PHE C   1      24.768  -2.102  36.752  1.00 14.79 LIG 0.00  A 
ATOM     19  CD2 PHE C   1      24.991  -1.927  38.093  1.00 15.53 LIG 0.01  A 
ENDBRANCH 13 14
ENDBRANCH 7 13
ENDBRANCH 5 7
ENDBRANCH 1 3
BRANCH 1 20
ATOM     20  C   ALA C   2      24.256   3.123  44.234  1.00 17.39 LIG 0.24  C 
ATOM     21  N   THR C   3      24.455   4.417  44.502  1.00 15.98 LIG-0.34  N 
ATOM     22 H    THR C   3      25.228   4.794  44.536  1.00 15.98 LIG 0.16  HD
ATOM     23 O    ALA C   2      23.144   2.585  44.203  1.00 16.73 LIG-0.27  OA
BRANCH 21 24
ATOM     24  CA  THR C   3      23.332   5.299  44.765  1.00 15.15 LIG 0.20  C 
BRANCH 24 25
ATOM     25  C   THR C   3      22.346   4.643  45.716  1.00 14.93 LIG 0.24  C 
ATOM     26  N   ALA C   4      22.735   4.583  46.979  1.00 13.95 LIG-0.35  N 
ATOM     27 H    ALA C   4      23.508   4.846  47.250  1.00 13.95 LIG 0.16  HD
ATOM     28 O    THR C   3      21.245   4.240  45.327  1.00 16.43 LIG-0.27  OA
BRANCH 26 29
ATOM     29  CA  ALA C   4      21.891   4.065  48.028  1.00 14.93 LIG 0.18  C 
ATOM     30  CB  ALA C   4      20.512   4.704  47.906  1.00 15.34 LIG 0.04  C 
BRANCH 29 31
ATOM     31  C   ALA C   4      21.816   2.536  47.958  1.00 16.13 LIG 0.28  C 
ATOM     32 O    ALA C   4      21.912   1.956  46.879  1.00 17.37 LIG-0.27  OA
ATOM     33  N   NH2 C   5      21.637   1.886  49.106  1.00 15.73 LIG-0.11  N 
ENDBRANCH 29 31
ENDBRANCH 26 29
ENDBRANCH 24 25
BRANCH 24 34
ATOM     34  CB  THR C   3      22.623   5.709  43.468  1.00 16.10 LIG 0.15  C 
ATOM     35  CG2 THR C   3      22.036   7.115  43.551  1.00 16.48 LIG 0.04  C 
BRANCH 34 36
ATOM     36 OG1  THR C   3      23.574   5.669  42.396  1.00 16.89 LIG-0.39  OA
ATOM     37 HG1  THR C   3      23.901   4.896  42.340  1.00 16.89 LIG 0.21  HD
ENDBRANCH 34 36
ENDBRANCH 24 34
ENDBRANCH 21 24
ENDBRANCH 1 20
TORSDOF 12
ENDMDL
MODEL 21
USER: ADFR SOLUTION from run 53
USER: SCORE 9.969725 LL:  -1.769 LR: -10.144 RR:   0.000 FEB:  -6.565
USER: RMSD 3.554589
USER: SEED 52
USER: STATUS no improvement in best in 31 clusters for 5 generations
USER: GENES 14
USER: genes 0 Translation |==|  0.48422 0.43353 0.65089
USER: genes 1 Rotation |==|  0.57899 0.23337 0.18861 0.77515
USER: genes 2 Torsion [CB]-CA--N-[C] |==|  0.52338
USER: genes 3 Torsion [N]-C--CA-[N] |==|  0.91898
USER: genes 4 Torsion [C]-CA--N-[C] |==|  0.20747
USER: genes 5 Torsion [C]-CA--CB-[CG] |==|  0.28236
USER: genes 6 Torsion [CA]-CB--CG-[CD2] |==|  0.42787
USER: genes 7 Torsion [N]-CA--C-[N] |==|  0.34199
USER: genes 8 Torsion [C]-N--CA-[CB] |==|  0.21083
USER: genes 9 Torsion [N]-CA--C-[N] |==|  0.08830
USER: genes 10 Torsion [C]-N--CA-[CB] |==|  0.86667
USER: genes 11 Torsion [N]-CA--C-[N] |==|  0.91572
USER: genes 12 Torsion [N]-CA--CB-[OG1] |==|  0.07466
USER: genes 13 Torsion [CA]-CB--OG1-[HG1] |==|  0.68703
ROOT
ATOM      1  CA  ALA C   2      24.358   1.208  45.884  1.00 19.98 LIG 0.17  C 
ATOM      2  CB  ALA C   2      24.762   0.906  47.328  1.00 20.88 LIG 0.04  C 
ENDROOT
BRANCH 1 3
ATOM      3  N   ALA C   2      25.242   0.535  44.947  1.00 19.64 LIG-0.35  N 
ATOM      4 H    ALA C   2      25.793  -0.025  45.295  1.00 19.64 LIG 0.16  HD
ATOM      5  C   PHE C   1      25.153   0.809  43.656  1.00 22.16 LIG 0.24  C 
ATOM      6 O    PHE C   1      24.279   1.555  43.215  1.00 23.85 LIG-0.27  OA
BRANCH 5 7
ATOM      7  CA  PHE C   1      26.130   0.116  42.722  1.00 22.77 LIG 0.18  C 
BRANCH 7 8
ATOM      8  N   PHE C   1      27.331  -0.140  43.474  1.00 26.70 LIG-0.35  N 
ATOM      9 H    PHE C   1      27.986   0.382  43.281  1.00 26.70 LIG 0.16  HD
ATOM     10  C   ACE C   0      27.397  -1.093  44.372  1.00 28.63 LIG 0.21  C 
ATOM     11  CH3 ACE C   0      28.747  -1.155  45.052  1.00 28.20 LIG 0.12  C 
ATOM     12 O    ACE C   0      26.420  -1.820  44.577  1.00 29.97 LIG-0.27  OA
ENDBRANCH 7 8
BRANCH 7 13
ATOM     13  CB  PHE C   1      25.634  -1.226  42.223  1.00 20.34 LIG 0.07  C 
BRANCH 13 14
ATOM     14  CG  PHE C   1      25.094  -1.168  40.817  1.00 17.40 LIG-0.06  A 
ATOM     15  CD1 PHE C   1      24.557   0.000  40.267  1.00 16.88 LIG 0.01  A 
ATOM     16  CE1 PHE C   1      24.043  -0.003  38.952  1.00 14.02 LIG 0.00  A 
ATOM     17  CZ  PHE C   1      24.066  -1.137  38.228  1.00 15.72 LIG 0.00  A 
ATOM     18  CE2 PHE C   1      24.598  -2.291  38.770  1.00 14.79 LIG 0.00  A 
ATOM     19  CD2 PHE C   1      25.109  -2.295  40.042  1.00 15.53 LIG 0.01  A 
ENDBRANCH 13 14
ENDBRANCH 7 13
ENDBRANCH 5 7
ENDBRANCH 1 3
BRANCH 1 20
ATOM     20  C   ALA C   2      24.413   2.705  45.659  1.00 17.39 LIG 0.24  C 
ATOM     21  N   THR C   3      23.239   3.286  45.397  1.00 15.98 LIG-0.34  N 
ATOM     22 H    THR C   3      22.494   2.863  45.318  1.00 15.98 LIG 0.16  HD
ATOM     23 O    ALA C   2      25.482   3.316  45.757  1.00 16.73 LIG-0.27  OA
BRANCH 21 24
ATOM     24  CA  THR C   3      23.148   4.725  45.224  1.00 15.15 LIG 0.20  C 
BRANCH 24 25
ATOM     25  C   THR C   3      21.715   5.197  45.402  1.00 14.93 LIG 0.24  C 
ATOM     26  N   ALA C   4      20.992   4.495  46.258  1.00 13.95 LIG-0.35  N 
ATOM     27 H    ALA C   4      21.281   3.789  46.656  1.00 13.95 LIG 0.16  HD
ATOM     28 O    THR C   3      21.287   6.195  44.813  1.00 16.43 LIG-0.27  OA
BRANCH 26 29
ATOM     29  CA  ALA C   4      19.638   4.852  46.607  1.00 14.93 LIG 0.18  C 
ATOM     30  CB  ALA C   4      19.595   6.339  46.937  1.00 15.34 LIG 0.04  C 
BRANCH 29 31
ATOM     31  C   ALA C   4      18.674   4.494  45.471  1.00 16.13 LIG 0.28  C 
ATOM     32 O    ALA C   4      17.512   4.180  45.715  1.00 17.37 LIG-0.27  OA
ATOM     33  N   NH2 C   5      19.159   4.534  44.231  1.00 15.73 LIG-0.11  N 
ENDBRANCH 29 31
ENDBRANCH 26 29
ENDBRANCH 24 25
BRANCH 24 34
ATOM     34  CB  THR C   3      23.684   5.162  43.854  1.00 16.10 LIG 0.15  C 
ATOM     35  CG2 THR C   3      25.157   5.553  43.910  1.00 16.48 LIG 0.04  C 
BRANCH 34 36
ATOM     36 OG1  THR C   3      23.529   4.072  42.936  1.00 16.89 LIG-0.39  OA
ATOM     37 HG1  THR C   3      24.286   3.782  42.715  1.00 16.89 LIG 0.21  HD
ENDBRANCH 34 36
ENDBRANCH 24 34
ENDBRANCH 21 24
ENDBRANCH 1 20
TORSDOF 12
ENDMDL
MODEL 22
USER: ADFR SOLUTION from run 8
USER: SCORE 10.494104 LL:  -2.264 LR: -10.131 RR:   0.000 FEB:  -6.552
USER: RMSD 9.308351
USER: SEED 685562
USER: STATUS searching
USER: GENES 14
USER: genes 0 Translation |==|  0.58427 0.48434 0.49631
USER: genes 1 Rotation |==|  0.91845 0.59933 0.61645 0.72687
USER: genes 2 Torsion [CB]-CA--N-[C] |==|  0.83333
USER: genes 3 Torsion [N]-C--CA-[N] |==|  0.05665
USER: genes 4 Torsion [C]-CA--N-[C] |==|  0.68650
USER: genes 5 Torsion [C]-CA--CB-[CG] |==|  0.45297
USER: genes 6 Torsion [CA]-CB--CG-[CD2] |==|  0.55707
USER: genes 7 Torsion [N]-CA--C-[N] |==|  0.21224
USER: genes 8 Torsion [C]-N--CA-[CB] |==|  0.50613
USER: genes 9 Torsion [N]-CA--C-[N] |==|  0.90369
USER: genes 10 Torsion [C]-N--CA-[CB] |==|  0.84950
USER: genes 11 Torsion [N]-CA--C-[N] |==|  0.40625
USER: genes 12 Torsion [N]-CA--CB-[OG1] |==|  0.65726
USER: genes 13 Torsion [CA]-CB--OG1-[HG1] |==|  0.19905
ROOT
ATOM      1  CA  ALA C   2      26.234   2.047  42.638  1.00 19.98 LIG 0.17  C 
ATOM      2  CB  ALA C   2      27.003   1.664  43.904  1.00 20.88 LIG 0.04  C 
ENDROOT
BRANCH 1 3
ATOM      3  N   ALA C   2      25.316   3.142  42.900  1.00 19.64 LIG-0.35  N 
ATOM      4 H    ALA C   2      25.449   3.855  42.437  1.00 19.64 LIG 0.16  HD
ATOM      5  C   PHE C   1      24.362   2.991  43.802  1.00 22.16 LIG 0.24  C 
ATOM      6 O    PHE C   1      24.172   1.912  44.364  1.00 23.85 LIG-0.27  OA
BRANCH 5 7
ATOM      7  CA  PHE C   1      23.458   4.181  44.075  1.00 22.77 LIG 0.18  C 
BRANCH 7 8
ATOM      8  N   PHE C   1      23.553   5.058  42.939  1.00 26.70 LIG-0.35  N 
ATOM      9 H    PHE C   1      23.221   4.736  42.214  1.00 26.70 LIG 0.16  HD
ATOM     10  C   ACE C   0      24.102   6.246  43.024  1.00 28.63 LIG 0.21  C 
ATOM     11  CH3 ACE C   0      24.063   6.998  41.712  1.00 28.20 LIG 0.12  C 
ATOM     12 O    ACE C   0      24.581   6.632  44.095  1.00 29.97 LIG-0.27  OA
ENDBRANCH 7 8
BRANCH 7 13
ATOM     13  CB  PHE C   1      21.997   3.804  44.215  1.00 20.34 LIG 0.07  C 
BRANCH 13 14
ATOM     14  CG  PHE C   1      21.172   4.880  44.874  1.00 17.40 LIG-0.06  A 
ATOM     15  CD1 PHE C   1      21.591   6.213  44.938  1.00 16.88 LIG 0.01  A 
ATOM     16  CE1 PHE C   1      20.791   7.180  45.586  1.00 14.02 LIG 0.00  A 
ATOM     17  CZ  PHE C   1      19.625   6.814  46.148  1.00 15.72 LIG 0.00  A 
ATOM     18  CE2 PHE C   1      19.210   5.498  46.084  1.00 14.79 LIG 0.00  A 
ATOM     19  CD2 PHE C   1      19.974   4.554  45.447  1.00 15.53 LIG 0.01  A 
ENDBRANCH 13 14
ENDBRANCH 7 13
ENDBRANCH 5 7
ENDBRANCH 1 3
BRANCH 1 20
ATOM     20  C   ALA C   2      25.466   0.838  42.143  1.00 17.39 LIG 0.24  C 
ATOM     21  N   THR C   3      25.062   0.901  40.871  1.00 15.98 LIG-0.34  N 
ATOM     22 H    THR C   3      25.179   1.580  40.356  1.00 15.98 LIG 0.16  HD
ATOM     23 O    ALA C   2      25.280  -0.134  42.882  1.00 16.73 LIG-0.27  OA
BRANCH 21 24
ATOM     24  CA  THR C   3      24.370  -0.219  40.259  1.00 15.15 LIG 0.20  C 
BRANCH 24 25
ATOM     25  C   THR C   3      25.189  -1.491  40.391  1.00 14.93 LIG 0.24  C 
ATOM     26  N   ALA C   4      26.500  -1.327  40.322  1.00 13.95 LIG-0.35  N 
ATOM     27 H    ALA C   4      26.876  -0.570  40.164  1.00 13.95 LIG 0.16  HD
ATOM     28 O    THR C   3      24.654  -2.586  40.592  1.00 16.43 LIG-0.27  OA
BRANCH 26 29
ATOM     29  CA  ALA C   4      27.429  -2.415  40.506  1.00 14.93 LIG 0.18  C 
ATOM     30  CB  ALA C   4      27.131  -3.092  41.839  1.00 15.34 LIG 0.04  C 
BRANCH 29 31
ATOM     31  C   ALA C   4      27.347  -3.403  39.337  1.00 16.13 LIG 0.28  C 
ATOM     32 O    ALA C   4      26.275  -3.618  38.777  1.00 17.37 LIG-0.27  OA
ATOM     33  N   NH2 C   5      28.478  -4.006  38.974  1.00 15.73 LIG-0.11  N 
ENDBRANCH 29 31
ENDBRANCH 26 29
ENDBRANCH 24 25
BRANCH 24 34
ATOM     34  CB  THR C   3      24.050   0.054  38.783  1.00 16.10 LIG 0.15  C 
ATOM     35  CG2 THR C   3      24.772  -0.911  37.849  1.00 16.48 LIG 0.04  C 
BRANCH 34 36
ATOM     36 OG1  THR C   3      22.637  -0.086  38.590  1.00 16.89 LIG-0.39  OA
ATOM     37 HG1  THR C   3      22.239   0.561  38.949  1.00 16.89 LIG 0.21  HD
ENDBRANCH 34 36
ENDBRANCH 24 34
ENDBRANCH 21 24
ENDBRANCH 1 20
TORSDOF 12
ENDMDL
MODEL 23
USER: ADFR SOLUTION from run 114
USER: SCORE 10.545974 LL:  -2.389 LR: -10.112 RR:   0.000 FEB:  -6.532
USER: RMSD 4.153615
USER: SEED 113
USER: STATUS no improvement in best in 15 clusters for 5 generations
USER: GENES 14
USER: genes 0 Translation |==|  0.62119 0.48961 0.46160
USER: genes 1 Rotation |==|  0.38731 0.68794 0.37881 0.93277
USER: genes 2 Torsion [CB]-CA--N-[C] |==|  0.17254
USER: genes 3 Torsion [N]-C--CA-[N] |==|  0.37842
USER: genes 4 Torsion [C]-CA--N-[C] |==|  0.57664
USER: genes 5 Torsion [C]-CA--CB-[CG] |==|  0.88438
USER: genes 6 Torsion [CA]-CB--CG-[CD2] |==|  0.76823
USER: genes 7 Torsion [N]-CA--C-[N] |==|  0.99444
USER: genes 8 Torsion [C]-N--CA-[CB] |==|  0.25517
USER: genes 9 Torsion [N]-CA--C-[N] |==|  0.41832
USER: genes 10 Torsion [C]-N--CA-[CB] |==|  0.86044
USER: genes 11 Torsion [N]-CA--C-[N] |==|  0.38230
USER: genes 12 Torsion [N]-CA--CB-[OG1] |==|  0.01802
USER: genes 13 Torsion [CA]-CB--OG1-[HG1] |==|  0.10306
ROOT
ATOM      1  CA  ALA C   2      26.926   2.134  41.909  1.00 19.98 LIG 0.17  C 
ATOM      2  CB  ALA C   2      27.743   2.817  40.810  1.00 20.88 LIG 0.04  C 
ENDROOT
BRANCH 1 3
ATOM      3  N   ALA C   2      25.709   1.554  41.365  1.00 19.64 LIG-0.35  N 
ATOM      4 H    ALA C   2      24.975   1.877  41.677  1.00 19.64 LIG 0.16  HD
ATOM      5  C   PHE C   1      25.792   0.599  40.456  1.00 22.16 LIG 0.24  C 
ATOM      6 O    PHE C   1      26.875   0.247  39.988  1.00 23.85 LIG-0.27  OA
BRANCH 5 7
ATOM      7  CA  PHE C   1      24.493  -0.009  39.954  1.00 22.77 LIG 0.18  C 
BRANCH 7 8
ATOM      8  N   PHE C   1      24.602  -0.128  38.525  1.00 26.70 LIG-0.35  N 
ATOM      9 H    PHE C   1      25.408  -0.218  38.238  1.00 26.70 LIG 0.16  HD
ATOM     10  C   ACE C   0      23.549  -0.102  37.744  1.00 28.63 LIG 0.21  C 
ATOM     11  CH3 ACE C   0      23.906  -0.273  36.284  1.00 28.20 LIG 0.12  C 
ATOM     12 O    ACE C   0      22.424   0.056  38.227  1.00 29.97 LIG-0.27  OA
ENDBRANCH 7 8
BRANCH 7 13
ATOM     13  CB  PHE C   1      24.236  -1.402  40.491  1.00 20.34 LIG 0.07  C 
BRANCH 13 14
ATOM     14  CG  PHE C   1      25.472  -2.264  40.510  1.00 17.40 LIG-0.06  A 
ATOM     15  CD1 PHE C   1      26.268  -2.410  41.651  1.00 16.88 LIG 0.01  A 
ATOM     16  CE1 PHE C   1      27.430  -3.211  41.611  1.00 14.02 LIG 0.00  A 
ATOM     17  CZ  PHE C   1      27.774  -3.832  40.468  1.00 15.72 LIG 0.00  A 
ATOM     18  CE2 PHE C   1      26.988  -3.689  39.341  1.00 14.79 LIG 0.00  A 
ATOM     19  CD2 PHE C   1      25.853  -2.922  39.373  1.00 15.53 LIG 0.01  A 
ENDBRANCH 13 14
ENDBRANCH 7 13
ENDBRANCH 5 7
ENDBRANCH 1 3
BRANCH 1 20
ATOM     20  C   ALA C   2      26.580   3.154  42.973  1.00 17.39 LIG 0.24  C 
ATOM     21  N   THR C   3      25.274   3.350  43.171  1.00 15.98 LIG-0.34  N 
ATOM     22 H    THR C   3      24.650   2.970  42.718  1.00 15.98 LIG 0.16  HD
ATOM     23 O    ALA C   2      27.471   3.715  43.619  1.00 16.73 LIG-0.27  OA
BRANCH 21 24
ATOM     24  CA  THR C   3      24.812   4.257  44.208  1.00 15.15 LIG 0.20  C 
BRANCH 24 25
ATOM     25  C   THR C   3      23.524   3.747  44.831  1.00 14.93 LIG 0.24  C 
ATOM     26  N   ALA C   4      23.337   4.087  46.096  1.00 13.95 LIG-0.35  N 
ATOM     27 H    ALA C   4      23.915   4.523  46.561  1.00 13.95 LIG 0.16  HD
ATOM     28 O    THR C   3      22.702   3.099  44.176  1.00 16.43 LIG-0.27  OA
BRANCH 26 29
ATOM     29  CA  ALA C   4      22.133   3.756  46.819  1.00 14.93 LIG 0.18  C 
ATOM     30  CB  ALA C   4      20.930   4.182  45.986  1.00 15.34 LIG 0.04  C 
BRANCH 29 31
ATOM     31  C   ALA C   4      22.094   2.260  47.149  1.00 16.13 LIG 0.28  C 
ATOM     32 O    ALA C   4      22.428   1.427  46.310  1.00 17.37 LIG-0.27  OA
ATOM     33  N   NH2 C   5      21.682   1.921  48.369  1.00 15.73 LIG-0.11  N 
ENDBRANCH 29 31
ENDBRANCH 26 29
ENDBRANCH 24 25
BRANCH 24 34
ATOM     34  CB  THR C   3      24.609   5.678  43.663  1.00 16.10 LIG 0.15  C 
ATOM     35  CG2 THR C   3      25.592   6.673  44.270  1.00 16.48 LIG 0.04  C 
BRANCH 34 36
ATOM     36 OG1  THR C   3      24.795   5.652  42.242  1.00 16.89 LIG-0.39  OA
ATOM     37 HG1  THR C   3      24.481   4.937  41.931  1.00 16.89 LIG 0.21  HD
ENDBRANCH 34 36
ENDBRANCH 24 34
ENDBRANCH 21 24
ENDBRANCH 1 20
TORSDOF 12
ENDMDL
MODEL 24
USER: ADFR SOLUTION from run 6
USER: SCORE 11.512254 LL:  -2.161 LR: -10.077 RR:   0.000 FEB:  -6.497
USER: RMSD 8.991923
USER: SEED 120627
USER: STATUS no improvement in best in 23 clusters for 5 generations
USER: GENES 14
USER: genes 0 Translation |==|  0.51177 0.49835 0.56851
USER: genes 1 Rotation |==|  0.79765 0.44821 0.85715 0.67655
USER: genes 2 Torsion [CB]-CA--N-[C] |==|  0.15418
USER: genes 3 Torsion [N]-C--CA-[N] |==|  0.43711
USER: genes 4 Torsion [C]-CA--N-[C] |==|  0.78333
USER: genes 5 Torsion [C]-CA--CB-[CG] |==|  0.39905
USER: genes 6 Torsion [CA]-CB--CG-[CD2] |==|  0.70482
USER: genes 7 Torsion [N]-CA--C-[N] |==|  0.11839
USER: genes 8 Torsion [C]-N--CA-[CB] |==|  0.84968
USER: genes 9 Torsion [N]-CA--C-[N] |==|  0.40926
USER: genes 10 Torsion [C]-N--CA-[CB] |==|  0.19999
USER: genes 11 Torsion [N]-CA--C-[N] |==|  0.11997
USER: genes 12 Torsion [N]-CA--CB-[OG1] |==|  0.86793
USER: genes 13 Torsion [CA]-CB--OG1-[HG1] |==|  0.18131
ROOT
ATOM      1  CA  ALA C   2      24.875   2.278  44.154  1.00 19.98 LIG 0.17  C 
ATOM      2  CB  ALA C   2      24.055   1.492  45.179  1.00 20.88 LIG 0.04  C 
ENDROOT
BRANCH 1 3
ATOM      3  N   ALA C   2      24.086   3.351  43.572  1.00 19.64 LIG-0.35  N 
ATOM      4 H    ALA C   2      24.031   3.346  42.714  1.00 19.64 LIG 0.16  HD
ATOM      5  C   PHE C   1      23.518   4.244  44.364  1.00 22.16 LIG 0.24  C 
ATOM      6 O    PHE C   1      23.564   4.140  45.590  1.00 23.85 LIG-0.27  OA
BRANCH 5 7
ATOM      7  CA  PHE C   1      22.744   5.374  43.707  1.00 22.77 LIG 0.18  C 
BRANCH 7 8
ATOM      8  N   PHE C   1      21.809   5.873  44.679  1.00 26.70 LIG-0.35  N 
ATOM      9 H    PHE C   1      22.049   6.607  45.057  1.00 26.70 LIG 0.16  HD
ATOM     10  C   ACE C   0      20.690   5.245  44.952  1.00 28.63 LIG 0.21  C 
ATOM     11  CH3 ACE C   0      19.855   5.971  45.984  1.00 28.20 LIG 0.12  C 
ATOM     12 O    ACE C   0      20.425   4.180  44.387  1.00 29.97 LIG-0.27  OA
ENDBRANCH 7 8
BRANCH 7 13
ATOM     13  CB  PHE C   1      23.618   6.544  43.302  1.00 20.34 LIG 0.07  C 
BRANCH 13 14
ATOM     14  CG  PHE C   1      23.181   7.186  42.011  1.00 17.40 LIG-0.06  A 
ATOM     15  CD1 PHE C   1      22.034   7.980  41.918  1.00 16.88 LIG 0.01  A 
ATOM     16  CE1 PHE C   1      21.655   8.542  40.679  1.00 14.02 LIG 0.00  A 
ATOM     17  CZ  PHE C   1      22.399   8.307  39.583  1.00 15.72 LIG 0.00  A 
ATOM     18  CE2 PHE C   1      23.533   7.524  39.674  1.00 14.79 LIG 0.00  A 
ATOM     19  CD2 PHE C   1      23.915   6.983  40.875  1.00 15.53 LIG 0.01  A 
ENDBRANCH 13 14
ENDBRANCH 7 13
ENDBRANCH 5 7
ENDBRANCH 1 3
BRANCH 1 20
ATOM     20  C   ALA C   2      25.340   1.332  43.065  1.00 17.39 LIG 0.24  C 
ATOM     21  N   THR C   3      25.779   1.921  41.949  1.00 15.98 LIG-0.34  N 
ATOM     22 H    THR C   3      25.775   2.770  41.812  1.00 15.98 LIG 0.16  HD
ATOM     23 O    ALA C   2      25.334   0.111  43.249  1.00 16.73 LIG-0.27  OA
BRANCH 21 24
ATOM     24  CA  THR C   3      26.310   1.126  40.855  1.00 15.15 LIG 0.20  C 
BRANCH 24 25
ATOM     25  C   THR C   3      25.208   0.317  40.195  1.00 14.93 LIG 0.24  C 
ATOM     26  N   ALA C   4      25.355   0.118  38.896  1.00 13.95 LIG-0.35  N 
ATOM     27 H    ALA C   4      25.996   0.457  38.433  1.00 13.95 LIG 0.16  HD
ATOM     28 O    THR C   3      24.270  -0.151  40.849  1.00 16.43 LIG-0.27  OA
BRANCH 26 29
ATOM     29  CA  ALA C   4      24.444  -0.695  38.127  1.00 14.93 LIG 0.18  C 
ATOM     30  CB  ALA C   4      23.126   0.056  37.977  1.00 15.34 LIG 0.04  C 
BRANCH 29 31
ATOM     31  C   ALA C   4      25.053  -1.051  36.766  1.00 16.13 LIG 0.28  C 
ATOM     32 O    ALA C   4      24.371  -1.000  35.746  1.00 17.37 LIG-0.27  OA
ATOM     33  N   NH2 C   5      26.333  -1.417  36.754  1.00 15.73 LIG-0.11  N 
ENDBRANCH 29 31
ENDBRANCH 26 29
ENDBRANCH 24 25
BRANCH 24 34
ATOM     34  CB  THR C   3      27.437   0.198  41.329  1.00 16.10 LIG 0.15  C 
ATOM     35  CG2 THR C   3      28.203  -0.419  40.164  1.00 16.48 LIG 0.04  C 
BRANCH 34 36
ATOM     36 OG1  THR C   3      28.349   0.961  42.130  1.00 16.89 LIG-0.39  OA
ATOM     37 HG1  THR C   3      27.960   1.218  42.829  1.00 16.89 LIG 0.21  HD
ENDBRANCH 34 36
ENDBRANCH 24 34
ENDBRANCH 21 24
ENDBRANCH 1 20
TORSDOF 12
ENDMDL
MODEL 25
USER: ADFR SOLUTION from run 179
USER: SCORE 11.013376 LL:  -2.605 LR: -10.061 RR:   0.000 FEB:  -6.481
USER: RMSD 5.475697
USER: SEED 178
USER: STATUS no improvement in best in 18 clusters for 5 generations
USER: GENES 14
USER: genes 0 Translation |==|  0.61027 0.37284 0.41683
USER: genes 1 Rotation |==|  0.33265 0.68956 0.67220 0.89548
USER: genes 2 Torsion [CB]-CA--N-[C] |==|  0.19496
USER: genes 3 Torsion [N]-C--CA-[N] |==|  0.85606
USER: genes 4 Torsion [C]-CA--N-[C] |==|  0.71186
USER: genes 5 Torsion [C]-CA--CB-[CG] |==|  0.07666
USER: genes 6 Torsion [CA]-CB--CG-[CD2] |==|  0.72776
USER: genes 7 Torsion [N]-CA--C-[N] |==|  0.50153
USER: genes 8 Torsion [C]-N--CA-[CB] |==|  0.78819
USER: genes 9 Torsion [N]-CA--C-[N] |==|  0.19117
USER: genes 10 Torsion [C]-N--CA-[CB] |==|  0.85000
USER: genes 11 Torsion [N]-CA--C-[N] |==|  0.36983
USER: genes 12 Torsion [N]-CA--CB-[OG1] |==|  0.82448
USER: genes 13 Torsion [CA]-CB--OG1-[HG1] |==|  0.13779
ROOT
ATOM      1  CA  ALA C   2      26.722   0.207  40.968  1.00 19.98 LIG 0.17  C 
ATOM      2  CB  ALA C   2      25.986   1.210  40.077  1.00 20.88 LIG 0.04  C 
ENDROOT
BRANCH 1 3
ATOM      3  N   ALA C   2      26.523  -1.152  40.493  1.00 19.64 LIG-0.35  N 
ATOM      4 H    ALA C   2      26.029  -1.649  40.990  1.00 19.64 LIG 0.16  HD
ATOM      5  C   PHE C   1      27.092  -1.536  39.363  1.00 22.16 LIG 0.24  C 
ATOM      6 O    PHE C   1      27.715  -0.746  38.654  1.00 23.85 LIG-0.27  OA
BRANCH 5 7
ATOM      7  CA  PHE C   1      26.895  -2.980  38.933  1.00 22.77 LIG 0.18  C 
BRANCH 7 8
ATOM      8  N   PHE C   1      27.258  -3.812  40.049  1.00 26.70 LIG-0.35  N 
ATOM      9 H    PHE C   1      26.669  -3.841  40.674  1.00 26.70 LIG 0.16  HD
ATOM     10  C   ACE C   0      28.397  -4.461  40.089  1.00 28.63 LIG 0.21  C 
ATOM     11  CH3 ACE C   0      28.547  -5.291  41.345  1.00 28.20 LIG 0.12  C 
ATOM     12 O    ACE C   0      29.206  -4.349  39.163  1.00 29.97 LIG-0.27  OA
ENDBRANCH 7 8
BRANCH 7 13
ATOM     13  CB  PHE C   1      25.457  -3.312  38.590  1.00 20.34 LIG 0.07  C 
BRANCH 13 14
ATOM     14  CG  PHE C   1      24.676  -2.118  38.105  1.00 17.40 LIG-0.06  A 
ATOM     15  CD1 PHE C   1      24.749  -1.659  36.787  1.00 16.88 LIG 0.01  A 
ATOM     16  CE1 PHE C   1      24.014  -0.521  36.387  1.00 14.02 LIG 0.00  A 
ATOM     17  CZ  PHE C   1      23.245   0.126  37.282  1.00 15.72 LIG 0.00  A 
ATOM     18  CE2 PHE C   1      23.171  -0.328  38.584  1.00 14.79 LIG 0.00  A 
ATOM     19  CD2 PHE C   1      23.872  -1.439  38.979  1.00 15.53 LIG 0.01  A 
ENDBRANCH 13 14
ENDBRANCH 7 13
ENDBRANCH 5 7
ENDBRANCH 1 3
BRANCH 1 20
ATOM     20  C   ALA C   2      26.206   0.337  42.387  1.00 17.39 LIG 0.24  C 
ATOM     21  N   THR C   3      26.326   1.552  42.928  1.00 15.98 LIG-0.34  N 
ATOM     22 H    THR C   3      26.698   2.223  42.540  1.00 15.98 LIG 0.16  HD
ATOM     23 O    ALA C   2      25.683  -0.627  42.956  1.00 16.73 LIG-0.27  OA
BRANCH 21 24
ATOM     24  CA  THR C   3      25.812   1.822  44.259  1.00 15.15 LIG 0.20  C 
BRANCH 24 25
ATOM     25  C   THR C   3      26.231   0.730  45.227  1.00 14.93 LIG 0.24  C 
ATOM     26  N   ALA C   4      27.523   0.691  45.509  1.00 13.95 LIG-0.35  N 
ATOM     27 H    ALA C   4      28.105   1.207  45.141  1.00 13.95 LIG 0.16  HD
ATOM     28 O    THR C   3      25.404  -0.031  45.739  1.00 16.43 LIG-0.27  OA
BRANCH 26 29
ATOM     29  CA  ALA C   4      28.081  -0.231  46.469  1.00 14.93 LIG 0.18  C 
ATOM     30  CB  ALA C   4      27.335  -0.073  47.789  1.00 15.34 LIG 0.04  C 
BRANCH 29 31
ATOM     31  C   ALA C   4      28.010  -1.669  45.944  1.00 16.13 LIG 0.28  C 
ATOM     32 O    ALA C   4      26.971  -2.102  45.452  1.00 17.37 LIG-0.27  OA
ATOM     33  N   NH2 C   5      29.111  -2.408  46.056  1.00 15.73 LIG-0.11  N 
ENDBRANCH 29 31
ENDBRANCH 26 29
ENDBRANCH 24 25
BRANCH 24 34
ATOM     34  CB  THR C   3      24.285   1.969  44.255  1.00 16.10 LIG 0.15  C 
ATOM     35  CG2 THR C   3      23.721   2.169  45.658  1.00 16.48 LIG 0.04  C 
BRANCH 34 36
ATOM     36 OG1  THR C   3      23.938   3.104  43.451  1.00 16.89 LIG-0.39  OA
ATOM     37 HG1  THR C   3      24.335   3.056  42.712  1.00 16.89 LIG 0.21  HD
ENDBRANCH 34 36
ENDBRANCH 24 34
ENDBRANCH 21 24
ENDBRANCH 1 20
TORSDOF 12
ENDMDL
MODEL 26
USER: ADFR SOLUTION from run 39
USER: SCORE 10.734168 LL:  -2.381 LR: -10.048 RR:   0.000 FEB:  -6.468
USER: RMSD 9.344096
USER: SEED 38
USER: STATUS no improvement in best in 20 clusters for 5 generations
USER: GENES 14
USER: genes 0 Translation |==|  0.48692 0.63108 0.53494
USER: genes 1 Rotation |==|  0.74428 0.91985 0.46395 0.61295
USER: genes 2 Torsion [CB]-CA--N-[C] |==|  0.48346
USER: genes 3 Torsion [N]-C--CA-[N] |==|  0.36017
USER: genes 4 Torsion [C]-CA--N-[C] |==|  0.77233
USER: genes 5 Torsion [C]-CA--CB-[CG] |==|  0.47141
USER: genes 6 Torsion [CA]-CB--CG-[CD2] |==|  0.52487
USER: genes 7 Torsion [N]-CA--C-[N] |==|  0.30839
USER: genes 8 Torsion [C]-N--CA-[CB] |==|  0.19980
USER: genes 9 Torsion [N]-CA--C-[N] |==|  0.14179
USER: genes 10 Torsion [C]-N--CA-[CB] |==|  0.84679
USER: genes 11 Torsion [N]-CA--C-[N] |==|  0.33333
USER: genes 12 Torsion [N]-CA--CB-[OG1] |==|  0.98150
USER: genes 13 Torsion [CA]-CB--OG1-[HG1] |==|  0.17170
ROOT
ATOM      1  CA  ALA C   2      24.409   4.468  43.449  1.00 19.98 LIG 0.17  C 
ATOM      2  CB  ALA C   2      25.315   5.676  43.202  1.00 20.88 LIG 0.04  C 
ENDROOT
BRANCH 1 3
ATOM      3  N   ALA C   2      23.642   4.636  44.672  1.00 19.64 LIG-0.35  N 
ATOM      4 H    ALA C   2      23.839   5.330  45.139  1.00 19.64 LIG 0.16  HD
ATOM      5  C   PHE C   1      22.717   3.747  44.988  1.00 22.16 LIG 0.24  C 
ATOM      6 O    PHE C   1      22.423   2.825  44.227  1.00 23.85 LIG-0.27  OA
BRANCH 5 7
ATOM      7  CA  PHE C   1      21.975   3.940  46.300  1.00 22.77 LIG 0.18  C 
BRANCH 7 8
ATOM      8  N   PHE C   1      20.568   3.853  46.012  1.00 26.70 LIG-0.35  N 
ATOM      9 H    PHE C   1      20.222   3.082  46.172  1.00 26.70 LIG 0.16  HD
ATOM     10  C   ACE C   0      19.891   4.874  45.545  1.00 28.63 LIG 0.21  C 
ATOM     11  CH3 ACE C   0      18.426   4.555  45.346  1.00 28.20 LIG 0.12  C 
ATOM     12 O    ACE C   0      20.464   5.943  45.315  1.00 29.97 LIG-0.27  OA
ENDBRANCH 7 8
BRANCH 7 13
ATOM     13  CB  PHE C   1      22.279   2.865  47.324  1.00 20.34 LIG 0.07  C 
BRANCH 13 14
ATOM     14  CG  PHE C   1      21.742   3.190  48.694  1.00 17.40 LIG-0.06  A 
ATOM     15  CD1 PHE C   1      20.900   4.280  48.932  1.00 16.88 LIG 0.01  A 
ATOM     16  CE1 PHE C   1      20.441   4.555  50.239  1.00 14.02 LIG 0.00  A 
ATOM     17  CZ  PHE C   1      20.823   3.766  51.260  1.00 15.72 LIG 0.00  A 
ATOM     18  CE2 PHE C   1      21.654   2.688  51.026  1.00 14.79 LIG 0.00  A 
ATOM     19  CD2 PHE C   1      22.095   2.407  49.759  1.00 15.53 LIG 0.01  A 
ENDBRANCH 13 14
ENDBRANCH 7 13
ENDBRANCH 5 7
ENDBRANCH 1 3
BRANCH 1 20
ATOM     20  C   ALA C   2      25.264   3.221  43.545  1.00 17.39 LIG 0.24  C 
ATOM     21  N   THR C   3      24.901   2.218  42.741  1.00 15.98 LIG-0.34  N 
ATOM     22 H    THR C   3      24.215   2.232  42.223  1.00 15.98 LIG 0.16  HD
ATOM     23 O    ALA C   2      26.243   3.188  44.297  1.00 16.73 LIG-0.27  OA
BRANCH 21 24
ATOM     24  CA  THR C   3      25.678   0.992  42.693  1.00 15.15 LIG 0.20  C 
BRANCH 24 25
ATOM     25  C   THR C   3      25.304   0.167  41.474  1.00 14.93 LIG 0.24  C 
ATOM     26  N   ALA C   4      25.321   0.821  40.324  1.00 13.95 LIG-0.35  N 
ATOM     27 H    ALA C   4      25.481   1.663  40.260  1.00 13.95 LIG 0.16  HD
ATOM     28 O    THR C   3      25.048  -1.038  41.563  1.00 16.43 LIG-0.27  OA
BRANCH 26 29
ATOM     29  CA  ALA C   4      25.070   0.174  39.059  1.00 14.93 LIG 0.18  C 
ATOM     30  CB  ALA C   4      26.038  -0.995  38.907  1.00 15.34 LIG 0.04  C 
BRANCH 29 31
ATOM     31  C   ALA C   4      23.610  -0.282  38.964  1.00 16.13 LIG 0.28  C 
ATOM     32 O    ALA C   4      23.154  -1.085  39.774  1.00 17.37 LIG-0.27  OA
ATOM     33  N   NH2 C   5      22.882   0.226  37.972  1.00 15.73 LIG-0.11  N 
ENDBRANCH 29 31
ENDBRANCH 26 29
ENDBRANCH 24 25
BRANCH 24 34
ATOM     34  CB  THR C   3      25.497   0.160  43.970  1.00 16.10 LIG 0.15  C 
ATOM     35  CG2 THR C   3      26.830  -0.205  44.614  1.00 16.48 LIG 0.04  C 
BRANCH 34 36
ATOM     36 OG1  THR C   3      24.726   0.925  44.906  1.00 16.89 LIG-0.39  OA
ATOM     37 HG1  THR C   3      23.967   1.083  44.582  1.00 16.89 LIG 0.21  HD
ENDBRANCH 34 36
ENDBRANCH 24 34
ENDBRANCH 21 24
ENDBRANCH 1 20
TORSDOF 12
ENDMDL
MODEL 27
USER: ADFR SOLUTION from run 99
USER: SCORE 10.880155 LL:  -2.859 LR: -10.027 RR:   0.000 FEB:  -6.448
USER: RMSD 6.179172
USER: SEED 98
USER: STATUS no improvement in best in 9 clusters for 5 generations
USER: GENES 14
USER: genes 0 Translation |==|  0.67635 0.51742 0.36389
USER: genes 1 Rotation |==|  0.24862 0.63756 0.28302 0.84757
USER: genes 2 Torsion [CB]-CA--N-[C] |==|  0.15083
USER: genes 3 Torsion [N]-C--CA-[N] |==|  0.31856
USER: genes 4 Torsion [C]-CA--N-[C] |==|  0.61776
USER: genes 5 Torsion [C]-CA--CB-[CG] |==|  0.14472
USER: genes 6 Torsion [CA]-CB--CG-[CD2] |==|  0.60769
USER: genes 7 Torsion [N]-CA--C-[N] |==|  0.11722
USER: genes 8 Torsion [C]-N--CA-[CB] |==|  0.21666
USER: genes 9 Torsion [N]-CA--C-[N] |==|  0.87691
USER: genes 10 Torsion [C]-N--CA-[CB] |==|  0.22183
USER: genes 11 Torsion [N]-CA--C-[N] |==|  0.58856
USER: genes 12 Torsion [N]-CA--CB-[OG1] |==|  0.78311
USER: genes 13 Torsion [CA]-CB--OG1-[HG1] |==|  0.98849
ROOT
ATOM      1  CA  ALA C   2      27.961   2.592  39.857  1.00 19.98 LIG 0.17  C 
ATOM      2  CB  ALA C   2      28.800   2.193  38.641  1.00 20.88 LIG 0.04  C 
ENDROOT
BRANCH 1 3
ATOM      3  N   ALA C   2      26.640   1.988  39.796  1.00 19.64 LIG-0.35  N 
ATOM      4 H    ALA C   2      25.980   2.536  39.860  1.00 19.64 LIG 0.16  HD
ATOM      5  C   PHE C   1      26.529   0.679  39.653  1.00 22.16 LIG 0.24  C 
ATOM      6 O    PHE C   1      27.516  -0.036  39.478  1.00 23.85 LIG-0.27  OA
BRANCH 5 7
ATOM      7  CA  PHE C   1      25.129   0.090  39.644  1.00 22.77 LIG 0.18  C 
BRANCH 7 8
ATOM      8  N   PHE C   1      24.906  -0.461  38.333  1.00 26.70 LIG-0.35  N 
ATOM      9 H    PHE C   1      25.576  -0.894  38.013  1.00 26.70 LIG 0.16  HD
ATOM     10  C   ACE C   0      23.769  -0.303  37.699  1.00 28.63 LIG 0.21  C 
ATOM     11  CH3 ACE C   0      23.757  -0.992  36.352  1.00 28.20 LIG 0.12  C 
ATOM     12 O    ACE C   0      22.859   0.355  38.213  1.00 29.97 LIG-0.27  OA
ENDBRANCH 7 8
BRANCH 7 13
ATOM     13  CB  PHE C   1      24.950  -1.046  40.631  1.00 20.34 LIG 0.07  C 
BRANCH 13 14
ATOM     14  CG  PHE C   1      25.385  -0.687  42.028  1.00 17.40 LIG-0.06  A 
ATOM     15  CD1 PHE C   1      25.164   0.579  42.580  1.00 16.88 LIG 0.01  A 
ATOM     16  CE1 PHE C   1      25.612   0.873  43.887  1.00 14.02 LIG 0.00  A 
ATOM     17  CZ  PHE C   1      26.258  -0.068  44.600  1.00 15.72 LIG 0.00  A 
ATOM     18  CE2 PHE C   1      26.476  -1.318  44.055  1.00 14.79 LIG 0.00  A 
ATOM     19  CD2 PHE C   1      26.035  -1.617  42.791  1.00 15.53 LIG 0.01  A 
ENDBRANCH 13 14
ENDBRANCH 7 13
ENDBRANCH 5 7
ENDBRANCH 1 3
BRANCH 1 20
ATOM     20  C   ALA C   2      27.835   4.102  39.895  1.00 17.39 LIG 0.24  C 
ATOM     21  N   THR C   3      26.870   4.573  40.689  1.00 15.98 LIG-0.34  N 
ATOM     22 H    THR C   3      26.318   4.082  41.129  1.00 15.98 LIG 0.16  HD
ATOM     23 O    ALA C   2      28.615   4.813  39.253  1.00 16.73 LIG-0.27  OA
BRANCH 21 24
ATOM     24  CA  THR C   3      26.688   6.004  40.861  1.00 15.15 LIG 0.20  C 
BRANCH 24 25
ATOM     25  C   THR C   3      25.927   6.297  42.142  1.00 14.93 LIG 0.24  C 
ATOM     26  N   ALA C   4      24.876   5.526  42.363  1.00 13.95 LIG-0.35  N 
ATOM     27 H    ALA C   4      24.599   4.930  41.808  1.00 13.95 LIG 0.16  HD
ATOM     28 O    THR C   3      26.305   7.169  42.932  1.00 16.43 LIG-0.27  OA
BRANCH 26 29
ATOM     29  CA  ALA C   4      24.088   5.613  43.569  1.00 14.93 LIG 0.18  C 
ATOM     30  CB  ALA C   4      23.133   6.795  43.444  1.00 15.34 LIG 0.04  C 
BRANCH 29 31
ATOM     31  C   ALA C   4      23.338   4.301  43.823  1.00 16.13 LIG 0.28  C 
ATOM     32 O    ALA C   4      23.823   3.228  43.472  1.00 17.37 LIG-0.27  OA
ATOM     33  N   NH2 C   5      22.155   4.388  44.426  1.00 15.73 LIG-0.11  N 
ENDBRANCH 29 31
ENDBRANCH 26 29
ENDBRANCH 24 25
BRANCH 24 34
ATOM     34  CB  THR C   3      25.963   6.628  39.661  1.00 16.10 LIG 0.15  C 
ATOM     35  CG2 THR C   3      25.369   7.992  39.992  1.00 16.48 LIG 0.04  C 
BRANCH 34 36
ATOM     36 OG1  THR C   3      26.903   6.780  38.590  1.00 16.89 LIG-0.39  OA
ATOM     37 HG1  THR C   3      27.668   6.552  38.853  1.00 16.89 LIG 0.21  HD
ENDBRANCH 34 36
ENDBRANCH 24 34
ENDBRANCH 21 24
ENDBRANCH 1 20
TORSDOF 12
ENDMDL
MODEL 28
USER: ADFR SOLUTION from run 93
USER: SCORE 11.069137 LL:  -2.303 LR: -10.018 RR:   0.000 FEB:  -6.438
USER: RMSD 9.040290
USER: SEED 92
USER: STATUS no improvement in best in 13 clusters for 5 generations
USER: GENES 14
USER: genes 0 Translation |==|  0.51396 0.49597 0.56968
USER: genes 1 Rotation |==|  0.77453 0.40368 0.85810 0.69266
USER: genes 2 Torsion [CB]-CA--N-[C] |==|  0.17574
USER: genes 3 Torsion [N]-C--CA-[N] |==|  0.92739
USER: genes 4 Torsion [C]-CA--N-[C] |==|  0.62478
USER: genes 5 Torsion [C]-CA--CB-[CG] |==|  0.18042
USER: genes 6 Torsion [CA]-CB--CG-[CD2] |==|  0.70751
USER: genes 7 Torsion [N]-CA--C-[N] |==|  0.08482
USER: genes 8 Torsion [C]-N--CA-[CB] |==|  0.85000
USER: genes 9 Torsion [N]-CA--C-[N] |==|  0.40263
USER: genes 10 Torsion [C]-N--CA-[CB] |==|  0.20969
USER: genes 11 Torsion [N]-CA--C-[N] |==|  0.11792
USER: genes 12 Torsion [N]-CA--CB-[OG1] |==|  0.66063
USER: genes 13 Torsion [CA]-CB--OG1-[HG1] |==|  0.81397
ROOT
ATOM      1  CA  ALA C   2      24.916   2.239  44.178  1.00 19.98 LIG 0.17  C 
ATOM      2  CB  ALA C   2      23.859   1.551  45.045  1.00 20.88 LIG 0.04  C 
ENDROOT
BRANCH 1 3
ATOM      3  N   ALA C   2      24.385   3.451  43.578  1.00 19.64 LIG-0.35  N 
ATOM      4 H    ALA C   2      24.344   3.452  42.720  1.00 19.64 LIG 0.16  HD
ATOM      5  C   PHE C   1      24.009   4.452  44.356  1.00 22.16 LIG 0.24  C 
ATOM      6 O    PHE C   1      24.011   4.350  45.583  1.00 23.85 LIG-0.27  OA
BRANCH 5 7
ATOM      7  CA  PHE C   1      23.506   5.716  43.680  1.00 22.77 LIG 0.18  C 
BRANCH 7 8
ATOM      8  N   PHE C   1      24.113   5.774  42.377  1.00 26.70 LIG-0.35  N 
ATOM      9 H    PHE C   1      24.100   5.029  41.948  1.00 26.70 LIG 0.16  HD
ATOM     10  C   ACE C   0      24.635   6.879  41.903  1.00 28.63 LIG 0.21  C 
ATOM     11  CH3 ACE C   0      25.188   6.706  40.506  1.00 28.20 LIG 0.12  C 
ATOM     12 O    ACE C   0      24.639   7.906  42.589  1.00 29.97 LIG-0.27  OA
ENDBRANCH 7 8
BRANCH 7 13
ATOM     13  CB  PHE C   1      22.006   5.726  43.465  1.00 20.34 LIG 0.07  C 
BRANCH 13 14
ATOM     14  CG  PHE C   1      21.226   5.736  44.754  1.00 17.40 LIG-0.06  A 
ATOM     15  CD1 PHE C   1      21.124   6.875  45.560  1.00 16.88 LIG 0.01  A 
ATOM     16  CE1 PHE C   1      20.399   6.827  46.771  1.00 14.02 LIG 0.00  A 
ATOM     17  CZ  PHE C   1      19.809   5.680  47.152  1.00 15.72 LIG 0.00  A 
ATOM     18  CE2 PHE C   1      19.908   4.555  46.356  1.00 14.79 LIG 0.00  A 
ATOM     19  CD2 PHE C   1      20.601   4.595  45.173  1.00 15.53 LIG 0.01  A 
ENDBRANCH 13 14
ENDBRANCH 7 13
ENDBRANCH 5 7
ENDBRANCH 1 3
BRANCH 1 20
ATOM     20  C   ALA C   2      25.363   1.281  43.093  1.00 17.39 LIG 0.24  C 
ATOM     21  N   THR C   3      25.799   1.856  41.969  1.00 15.98 LIG-0.34  N 
ATOM     22 H    THR C   3      25.803   2.704  41.826  1.00 15.98 LIG 0.16  HD
ATOM     23 O    ALA C   2      25.348   0.061  43.287  1.00 16.73 LIG-0.27  OA
BRANCH 21 24
ATOM     24  CA  THR C   3      26.315   1.049  40.878  1.00 15.15 LIG 0.20  C 
BRANCH 24 25
ATOM     25  C   THR C   3      25.199   0.247  40.231  1.00 14.93 LIG 0.24  C 
ATOM     26  N   ALA C   4      25.310   0.079  38.923  1.00 13.95 LIG-0.35  N 
ATOM     27 H    ALA C   4      25.935   0.434  38.451  1.00 13.95 LIG 0.16  HD
ATOM     28 O    THR C   3      24.284  -0.243  40.900  1.00 16.43 LIG-0.27  OA
BRANCH 26 29
ATOM     29  CA  ALA C   4      24.383  -0.722  38.162  1.00 14.93 LIG 0.18  C 
ATOM     30  CB  ALA C   4      23.085   0.060  37.993  1.00 15.34 LIG 0.04  C 
BRANCH 29 31
ATOM     31  C   ALA C   4      24.989  -1.114  36.810  1.00 16.13 LIG 0.28  C 
ATOM     32 O    ALA C   4      24.310  -1.075  35.787  1.00 17.37 LIG-0.27  OA
ATOM     33  N   NH2 C   5      26.264  -1.498  36.808  1.00 15.73 LIG-0.11  N 
ENDBRANCH 29 31
ENDBRANCH 26 29
ENDBRANCH 24 25
BRANCH 24 34
ATOM     34  CB  THR C   3      27.434   0.111  41.350  1.00 16.10 LIG 0.15  C 
ATOM     35  CG2 THR C   3      27.068  -1.358  41.175  1.00 16.48 LIG 0.04  C 
BRANCH 34 36
ATOM     36 OG1  THR C   3      28.614   0.388  40.584  1.00 16.89 LIG-0.39  OA
ATOM     37 HG1  THR C   3      28.486   0.168  39.784  1.00 16.89 LIG 0.21  HD
ENDBRANCH 34 36
ENDBRANCH 24 34
ENDBRANCH 21 24
ENDBRANCH 1 20
TORSDOF 12
ENDMDL
MODEL 29
USER: ADFR SOLUTION from run 81
USER: SCORE 10.023662 LL:  -2.539 LR:  -9.967 RR:   0.000 FEB:  -6.387
USER: RMSD 4.613287
USER: SEED 80
USER: STATUS no improvement in best in 13 clusters for 5 generations
USER: GENES 14
USER: genes 0 Translation |==|  0.55813 0.38042 0.51283
USER: genes 1 Rotation |==|  0.54389 0.28522 0.09538 0.69552
USER: genes 2 Torsion [CB]-CA--N-[C] |==|  0.15446
USER: genes 3 Torsion [N]-C--CA-[N] |==|  0.31330
USER: genes 4 Torsion [C]-CA--N-[C] |==|  0.57597
USER: genes 5 Torsion [C]-CA--CB-[CG] |==|  0.22803
USER: genes 6 Torsion [CA]-CB--CG-[CD2] |==|  0.29646
USER: genes 7 Torsion [N]-CA--C-[N] |==|  0.14086
USER: genes 8 Torsion [C]-N--CA-[CB] |==|  0.45388
USER: genes 9 Torsion [N]-CA--C-[N] |==|  0.94398
USER: genes 10 Torsion [C]-N--CA-[CB] |==|  0.21111
USER: genes 11 Torsion [N]-CA--C-[N] |==|  0.12257
USER: genes 12 Torsion [N]-CA--CB-[OG1] |==|  0.98572
USER: genes 13 Torsion [CA]-CB--OG1-[HG1] |==|  0.25285
ROOT
ATOM      1  CA  ALA C   2      25.744   0.332  42.984  1.00 19.98 LIG 0.17  C 
ATOM      2  CB  ALA C   2      26.002  -0.542  44.214  1.00 20.88 LIG 0.04  C 
ENDROOT
BRANCH 1 3
ATOM      3  N   ALA C   2      26.219  -0.320  41.776  1.00 19.64 LIG-0.35  N 
ATOM      4 H    ALA C   2      26.779   0.133  41.307  1.00 19.64 LIG 0.16  HD
ATOM      5  C   PHE C   1      25.782  -1.531  41.474  1.00 22.16 LIG 0.24  C 
ATOM      6 O    PHE C   1      25.049  -2.160  42.238  1.00 23.85 LIG-0.27  OA
BRANCH 5 7
ATOM      7  CA  PHE C   1      26.271  -2.151  40.176  1.00 22.77 LIG 0.18  C 
BRANCH 7 8
ATOM      8  N   PHE C   1      27.104  -3.270  40.526  1.00 26.70 LIG-0.35  N 
ATOM      9 H    PHE C   1      26.912  -3.632  41.282  1.00 26.70 LIG 0.16  HD
ATOM     10  C   ACE C   0      28.071  -3.687  39.742  1.00 28.63 LIG 0.21  C 
ATOM     11  CH3 ACE C   0      28.792  -4.892  40.303  1.00 28.20 LIG 0.12  C 
ATOM     12 O    ACE C   0      28.304  -3.100  38.682  1.00 29.97 LIG-0.27  OA
ENDBRANCH 7 8
BRANCH 7 13
ATOM     13  CB  PHE C   1      25.151  -2.694  39.312  1.00 20.34 LIG 0.07  C 
BRANCH 13 14
ATOM     14  CG  PHE C   1      24.478  -1.630  38.483  1.00 17.40 LIG-0.06  A 
ATOM     15  CD1 PHE C   1      23.604  -0.689  39.035  1.00 16.88 LIG 0.01  A 
ATOM     16  CE1 PHE C   1      22.982   0.274  38.211  1.00 14.02 LIG 0.00  A 
ATOM     17  CZ  PHE C   1      23.228   0.282  36.888  1.00 15.72 LIG 0.00  A 
ATOM     18  CE2 PHE C   1      24.093  -0.647  36.342  1.00 14.79 LIG 0.00  A 
ATOM     19  CD2 PHE C   1      24.710  -1.579  37.136  1.00 15.53 LIG 0.01  A 
ENDBRANCH 13 14
ENDBRANCH 7 13
ENDBRANCH 5 7
ENDBRANCH 1 3
BRANCH 1 20
ATOM     20  C   ALA C   2      26.451   1.659  43.165  1.00 17.39 LIG 0.24  C 
ATOM     21  N   THR C   3      26.441   2.461  42.096  1.00 15.98 LIG-0.34  N 
ATOM     22 H    THR C   3      26.101   2.252  41.335  1.00 15.98 LIG 0.16  HD
ATOM     23 O    ALA C   2      26.955   1.959  44.252  1.00 16.73 LIG-0.27  OA
BRANCH 21 24
ATOM     24  CA  THR C   3      27.031   3.786  42.161  1.00 15.15 LIG 0.20  C 
BRANCH 24 25
ATOM     25  C   THR C   3      26.150   4.726  42.966  1.00 14.93 LIG 0.24  C 
ATOM     26  N   ALA C   4      24.889   4.348  43.091  1.00 13.95 LIG-0.35  N 
ATOM     27 H    ALA C   4      24.563   3.650  42.709  1.00 13.95 LIG 0.16  HD
ATOM     28 O    THR C   3      26.607   5.744  43.495  1.00 16.43 LIG-0.27  OA
BRANCH 26 29
ATOM     29  CA  ALA C   4      23.934   5.080  43.887  1.00 14.93 LIG 0.18  C 
ATOM     30  CB  ALA C   4      23.516   6.330  43.122  1.00 15.34 LIG 0.04  C 
BRANCH 29 31
ATOM     31  C   ALA C   4      22.730   4.198  44.236  1.00 16.13 LIG 0.28  C 
ATOM     32 O    ALA C   4      21.587   4.641  44.152  1.00 17.37 LIG-0.27  OA
ATOM     33  N   NH2 C   5      22.987   2.953  44.632  1.00 15.73 LIG-0.11  N 
ENDBRANCH 29 31
ENDBRANCH 26 29
ENDBRANCH 24 25
BRANCH 24 34
ATOM     34  CB  THR C   3      27.278   4.362  40.760  1.00 16.10 LIG 0.15  C 
ATOM     35  CG2 THR C   3      28.728   4.792  40.562  1.00 16.48 LIG 0.04  C 
BRANCH 34 36
ATOM     36 OG1  THR C   3      26.958   3.355  39.791  1.00 16.89 LIG-0.39  OA
ATOM     37 HG1  THR C   3      26.152   3.428  39.567  1.00 16.89 LIG 0.21  HD
ENDBRANCH 34 36
ENDBRANCH 24 34
ENDBRANCH 21 24
ENDBRANCH 1 20
TORSDOF 12
ENDMDL
MODEL 30
USER: ADFR SOLUTION from run 71
USER: SCORE 9.952877 LL:  -2.234 LR:  -9.960 RR:   0.000 FEB:  -6.380
USER: RMSD 9.146269
USER: SEED 70
USER: STATUS no improvement in best in 17 clusters for 5 generations
USER: GENES 14
USER: genes 0 Translation |==|  0.57563 0.43145 0.50740
USER: genes 1 Rotation |==|  0.86664 0.39552 0.81136 0.58784
USER: genes 2 Torsion [CB]-CA--N-[C] |==|  0.15623
USER: genes 3 Torsion [N]-C--CA-[N] |==|  0.94111
USER: genes 4 Torsion [C]-CA--N-[C] |==|  0.67232
USER: genes 5 Torsion [C]-CA--CB-[CG] |==|  0.43413
USER: genes 6 Torsion [CA]-CB--CG-[CD2] |==|  0.16405
USER: genes 7 Torsion [N]-CA--C-[N] |==|  0.50247
USER: genes 8 Torsion [C]-N--CA-[CB] |==|  0.49714
USER: genes 9 Torsion [N]-CA--C-[N] |==|  0.35840
USER: genes 10 Torsion [C]-N--CA-[CB] |==|  0.84827
USER: genes 11 Torsion [N]-CA--C-[N] |==|  0.43889
USER: genes 12 Torsion [N]-CA--CB-[OG1] |==|  0.52461
USER: genes 13 Torsion [CA]-CB--OG1-[HG1] |==|  0.24784
ROOT
ATOM      1  CA  ALA C   2      26.072   1.174  42.871  1.00 19.98 LIG 0.17  C 
ATOM      2  CB  ALA C   2      25.520  -0.094  43.526  1.00 20.88 LIG 0.04  C 
ENDROOT
BRANCH 1 3
ATOM      3  N   ALA C   2      25.134   2.277  43.003  1.00 19.64 LIG-0.35  N 
ATOM      4 H    ALA C   2      24.892   2.646  42.265  1.00 19.64 LIG 0.16  HD
ATOM      5  C   PHE C   1      24.720   2.638  44.204  1.00 22.16 LIG 0.24  C 
ATOM      6 O    PHE C   1      25.037   2.006  45.212  1.00 23.85 LIG-0.27  OA
BRANCH 5 7
ATOM      7  CA  PHE C   1      23.778   3.826  44.294  1.00 22.77 LIG 0.18  C 
BRANCH 7 8
ATOM      8  N   PHE C   1      23.942   4.593  43.088  1.00 26.70 LIG-0.35  N 
ATOM      9 H    PHE C   1      23.735   4.170  42.369  1.00 26.70 LIG 0.16  HD
ATOM     10  C   ACE C   0      24.371   5.833  43.107  1.00 28.63 LIG 0.21  C 
ATOM     11  CH3 ACE C   0      24.436   6.444  41.725  1.00 28.20 LIG 0.12  C 
ATOM     12 O    ACE C   0      24.673   6.367  44.178  1.00 29.97 LIG-0.27  OA
ENDBRANCH 7 8
BRANCH 7 13
ATOM     13  CB  PHE C   1      22.317   3.430  44.364  1.00 20.34 LIG 0.07  C 
BRANCH 13 14
ATOM     14  CG  PHE C   1      21.451   4.484  45.005  1.00 17.40 LIG-0.06  A 
ATOM     15  CD1 PHE C   1      20.678   4.231  46.143  1.00 16.88 LIG 0.01  A 
ATOM     16  CE1 PHE C   1      19.865   5.246  46.692  1.00 14.02 LIG 0.00  A 
ATOM     17  CZ  PHE C   1      19.831   6.461  46.114  1.00 15.72 LIG 0.00  A 
ATOM     18  CE2 PHE C   1      20.595   6.712  44.991  1.00 14.79 LIG 0.00  A 
ATOM     19  CD2 PHE C   1      21.396   5.736  44.457  1.00 15.53 LIG 0.01  A 
ENDBRANCH 13 14
ENDBRANCH 7 13
ENDBRANCH 5 7
ENDBRANCH 1 3
BRANCH 1 20
ATOM     20  C   ALA C   2      26.337   0.896  41.405  1.00 17.39 LIG 0.24  C 
ATOM     21  N   THR C   3      27.175  -0.115  41.159  1.00 15.98 LIG-0.34  N 
ATOM     22 H    THR C   3      27.581  -0.570  41.766  1.00 15.98 LIG 0.16  HD
ATOM     23 O    ALA C   2      25.769   1.555  40.528  1.00 16.73 LIG-0.27  OA
BRANCH 21 24
ATOM     24  CA  THR C   3      27.462  -0.522  39.795  1.00 15.15 LIG 0.20  C 
BRANCH 24 25
ATOM     25  C   THR C   3      26.185  -0.908  39.071  1.00 14.93 LIG 0.24  C 
ATOM     26  N   ALA C   4      26.004  -0.326  37.897  1.00 13.95 LIG-0.35  N 
ATOM     27 H    ALA C   4      26.536   0.268  37.575  1.00 13.95 LIG 0.16  HD
ATOM     28 O    THR C   3      25.404  -1.743  39.540  1.00 16.43 LIG-0.27  OA
BRANCH 26 29
ATOM     29  CA  ALA C   4      24.886  -0.638  37.040  1.00 14.93 LIG 0.18  C 
ATOM     30  CB  ALA C   4      24.862  -2.142  36.795  1.00 15.34 LIG 0.04  C 
BRANCH 29 31
ATOM     31  C   ALA C   4      23.574  -0.142  37.658  1.00 16.13 LIG 0.28  C 
ATOM     32 O    ALA C   4      23.490   0.052  38.868  1.00 17.37 LIG-0.27  OA
ATOM     33  N   NH2 C   5      22.551   0.055  36.829  1.00 15.73 LIG-0.11  N 
ENDBRANCH 29 31
ENDBRANCH 26 29
ENDBRANCH 24 25
BRANCH 24 34
ATOM     34  CB  THR C   3      28.467  -1.682  39.753  1.00 16.10 LIG 0.15  C 
ATOM     35  CG2 THR C   3      27.874  -2.976  40.300  1.00 16.48 LIG 0.04  C 
BRANCH 34 36
ATOM     36 OG1  THR C   3      28.861  -1.893  38.391  1.00 16.89 LIG-0.39  OA
ATOM     37 HG1  THR C   3      29.528  -1.413  38.215  1.00 16.89 LIG 0.21  HD
ENDBRANCH 34 36
ENDBRANCH 24 34
ENDBRANCH 21 24
ENDBRANCH 1 20
TORSDOF 12
ENDMDL
MODEL 31
USER: ADFR SOLUTION from run 56
USER: SCORE 9.999384 LL:  -1.903 LR:  -9.945 RR:   0.000 FEB:  -6.366
USER: RMSD 2.873746
USER: SEED 55
USER: STATUS no improvement in best in 13 clusters for 5 generations
USER: GENES 14
USER: genes 0 Translation |==|  0.48267 0.54407 0.57592
USER: genes 1 Rotation |==|  0.35590 0.64017 0.68532 0.91862
USER: genes 2 Torsion [CB]-CA--N-[C] |==|  0.23264
USER: genes 3 Torsion [N]-C--CA-[N] |==|  0.30445
USER: genes 4 Torsion [C]-CA--N-[C] |==|  0.60114
USER: genes 5 Torsion [C]-CA--CB-[CG] |==|  0.59701
USER: genes 6 Torsion [CA]-CB--CG-[CD2] |==|  0.75675
USER: genes 7 Torsion [N]-CA--C-[N] |==|  0.96934
USER: genes 8 Torsion [C]-N--CA-[CB] |==|  0.77136
USER: genes 9 Torsion [N]-CA--C-[N] |==|  0.12338
USER: genes 10 Torsion [C]-N--CA-[CB] |==|  0.18333
USER: genes 11 Torsion [N]-CA--C-[N] |==|  0.12741
USER: genes 12 Torsion [N]-CA--CB-[OG1] |==|  0.49975
USER: genes 13 Torsion [CA]-CB--OG1-[HG1] |==|  0.16528
ROOT
ATOM      1  CA  ALA C   2      24.329   3.032  44.309  1.00 19.98 LIG 0.17  C 
ATOM      2  CB  ALA C   2      23.669   4.169  43.526  1.00 20.88 LIG 0.04  C 
ENDROOT
BRANCH 1 3
ATOM      3  N   ALA C   2      24.271   1.786  43.563  1.00 19.64 LIG-0.35  N 
ATOM      4 H    ALA C   2      23.619   1.264  43.766  1.00 19.64 LIG 0.16  HD
ATOM      5  C   PHE C   1      25.189   1.533  42.646  1.00 22.16 LIG 0.24  C 
ATOM      6 O    PHE C   1      26.044   2.366  42.343  1.00 23.85 LIG-0.27  OA
BRANCH 5 7
ATOM      7  CA  PHE C   1      25.114   0.197  41.927  1.00 22.77 LIG 0.18  C 
BRANCH 7 8
ATOM      8  N   PHE C   1      24.709   0.464  40.573  1.00 26.70 LIG-0.35  N 
ATOM      9 H    PHE C   1      25.033   1.189  40.243  1.00 26.70 LIG 0.16  HD
ATOM     10  C   ACE C   0      23.912  -0.344  39.915  1.00 28.63 LIG 0.21  C 
ATOM     11  CH3 ACE C   0      23.647   0.127  38.502  1.00 28.20 LIG 0.12  C 
ATOM     12 O    ACE C   0      23.465  -1.355  40.465  1.00 29.97 LIG-0.27  OA
ENDBRANCH 7 8
BRANCH 7 13
ATOM     13  CB  PHE C   1      26.448  -0.519  41.851  1.00 20.34 LIG 0.07  C 
BRANCH 13 14
ATOM     14  CG  PHE C   1      26.628  -1.292  40.570  1.00 17.40 LIG-0.06  A 
ATOM     15  CD1 PHE C   1      27.231  -0.737  39.437  1.00 16.88 LIG 0.01  A 
ATOM     16  CE1 PHE C   1      27.356  -1.497  38.253  1.00 14.02 LIG 0.00  A 
ATOM     17  CZ  PHE C   1      26.889  -2.758  38.215  1.00 15.72 LIG 0.00  A 
ATOM     18  CE2 PHE C   1      26.294  -3.307  39.335  1.00 14.79 LIG 0.00  A 
ATOM     19  CD2 PHE C   1      26.178  -2.581  40.492  1.00 15.53 LIG 0.01  A 
ENDBRANCH 13 14
ENDBRANCH 7 13
ENDBRANCH 5 7
ENDBRANCH 1 3
BRANCH 1 20
ATOM     20  C   ALA C   2      23.618   2.870  45.637  1.00 17.39 LIG 0.24  C 
ATOM     21  N   THR C   3      22.901   1.751  45.767  1.00 15.98 LIG-0.34  N 
ATOM     22 H    THR C   3      22.798   1.163  45.147  1.00 15.98 LIG 0.16  HD
ATOM     23 O    ALA C   2      23.749   3.717  46.527  1.00 16.73 LIG-0.27  OA
BRANCH 21 24
ATOM     24  CA  THR C   3      22.222   1.448  47.015  1.00 15.15 LIG 0.20  C 
BRANCH 24 25
ATOM     25  C   THR C   3      21.593   2.700  47.600  1.00 14.93 LIG 0.24  C 
ATOM     26  N   ALA C   4      20.946   3.463  46.735  1.00 13.95 LIG-0.35  N 
ATOM     27 H    ALA C   4      20.917   3.304  45.890  1.00 13.95 LIG 0.16  HD
ATOM     28 O    THR C   3      21.653   2.949  48.808  1.00 16.43 LIG-0.27  OA
BRANCH 26 29
ATOM     29  CA  ALA C   4      20.223   4.647  47.132  1.00 14.93 LIG 0.18  C 
ATOM     30  CB  ALA C   4      21.219   5.678  47.651  1.00 15.34 LIG 0.04  C 
BRANCH 29 31
ATOM     31  C   ALA C   4      19.396   5.194  45.964  1.00 16.13 LIG 0.28  C 
ATOM     32 O    ALA C   4      19.398   6.396  45.708  1.00 17.37 LIG-0.27  OA
ATOM     33  N   NH2 C   5      18.685   4.314  45.262  1.00 15.73 LIG-0.11  N 
ENDBRANCH 29 31
ENDBRANCH 26 29
ENDBRANCH 24 25
BRANCH 24 34
ATOM     34  CB  THR C   3      23.176   0.809  48.033  1.00 16.10 LIG 0.15  C 
ATOM     35  CG2 THR C   3      24.355   1.718  48.367  1.00 16.48 LIG 0.04  C 
BRANCH 34 36
ATOM     36 OG1  THR C   3      22.444   0.541  49.236  1.00 16.89 LIG-0.39  OA
ATOM     37 HG1  THR C   3      21.807   0.020  49.066  1.00 16.89 LIG 0.21  HD
ENDBRANCH 34 36
ENDBRANCH 24 34
ENDBRANCH 21 24
ENDBRANCH 1 20
TORSDOF 12
ENDMDL
MODEL 32
USER: ADFR SOLUTION from run 59
USER: SCORE 9.862064 LL:  -2.257 LR:  -9.949 RR:   0.000 FEB:  -6.370
USER: RMSD 6.701614
USER: SEED 58
USER: STATUS no improvement in best in 20 clusters for 5 generations
USER: GENES 14
USER: genes 0 Translation |==|  0.65156 0.43058 0.37824
USER: genes 1 Rotation |==|  0.42824 0.23299 0.15442 0.73267
USER: genes 2 Torsion [CB]-CA--N-[C] |==|  0.16959
USER: genes 3 Torsion [N]-C--CA-[N] |==|  0.35240
USER: genes 4 Torsion [C]-CA--N-[C] |==|  0.73342
USER: genes 5 Torsion [C]-CA--CB-[CG] |==|  0.11893
USER: genes 6 Torsion [CA]-CB--CG-[CD2] |==|  0.73774
USER: genes 7 Torsion [N]-CA--C-[N] |==|  0.35213
USER: genes 8 Torsion [C]-N--CA-[CB] |==|  0.19868
USER: genes 9 Torsion [N]-CA--C-[N] |==|  0.06168
USER: genes 10 Torsion [C]-N--CA-[CB] |==|  0.17939
USER: genes 11 Torsion [N]-CA--C-[N] |==|  0.11517
USER: genes 12 Torsion [N]-CA--CB-[OG1] |==|  0.89501
USER: genes 13 Torsion [CA]-CB--OG1-[HG1] |==|  0.77018
ROOT
ATOM      1  CA  ALA C   2      27.496   1.160  40.158  1.00 19.98 LIG 0.17  C 
ATOM      2  CB  ALA C   2      28.200   0.905  41.492  1.00 20.88 LIG 0.04  C 
ENDROOT
BRANCH 1 3
ATOM      3  N   ALA C   2      27.603   0.002  39.286  1.00 19.64 LIG-0.35  N 
ATOM      4 H    ALA C   2      28.011   0.136  38.542  1.00 19.64 LIG 0.16  HD
ATOM      5  C   PHE C   1      27.084  -1.152  39.670  1.00 22.16 LIG 0.24  C 
ATOM      6 O    PHE C   1      26.591  -1.297  40.789  1.00 23.85 LIG-0.27  OA
BRANCH 5 7
ATOM      7  CA  PHE C   1      27.179  -2.321  38.704  1.00 22.77 LIG 0.18  C 
BRANCH 7 8
ATOM      8  N   PHE C   1      27.780  -3.417  39.417  1.00 26.70 LIG-0.35  N 
ATOM      9 H    PHE C   1      27.226  -3.881  39.882  1.00 26.70 LIG 0.16  HD
ATOM     10  C   ACE C   0      29.065  -3.667  39.348  1.00 28.63 LIG 0.21  C 
ATOM     11  CH3 ACE C   0      29.462  -4.882  40.157  1.00 28.20 LIG 0.12  C 
ATOM     12 O    ACE C   0      29.803  -2.939  38.679  1.00 29.97 LIG-0.27  OA
ENDBRANCH 7 8
BRANCH 7 13
ATOM     13  CB  PHE C   1      25.829  -2.806  38.215  1.00 20.34 LIG 0.07  C 
BRANCH 13 14
ATOM     14  CG  PHE C   1      24.891  -1.680  37.864  1.00 17.40 LIG-0.06  A 
ATOM     15  CD1 PHE C   1      24.901  -1.057  36.613  1.00 16.88 LIG 0.01  A 
ATOM     16  CE1 PHE C   1      24.016   0.010  36.340  1.00 14.02 LIG 0.00  A 
ATOM     17  CZ  PHE C   1      23.164   0.430  37.293  1.00 15.72 LIG 0.00  A 
ATOM     18  CE2 PHE C   1      23.152  -0.186  38.530  1.00 14.79 LIG 0.00  A 
ATOM     19  CD2 PHE C   1      24.000  -1.229  38.799  1.00 15.53 LIG 0.01  A 
ENDBRANCH 13 14
ENDBRANCH 7 13
ENDBRANCH 5 7
ENDBRANCH 1 3
BRANCH 1 20
ATOM     20  C   ALA C   2      28.124   2.366  39.491  1.00 17.39 LIG 0.24  C 
ATOM     21  N   THR C   3      27.342   3.447  39.416  1.00 15.98 LIG-0.34  N 
ATOM     22 H    THR C   3      26.525   3.476  39.683  1.00 15.98 LIG 0.16  HD
ATOM     23 O    ALA C   2      29.292   2.326  39.092  1.00 16.73 LIG-0.27  OA
BRANCH 21 24
ATOM     24  CA  THR C   3      27.848   4.688  38.856  1.00 15.15 LIG 0.20  C 
BRANCH 24 25
ATOM     25  C   THR C   3      26.927   5.846  39.197  1.00 14.93 LIG 0.24  C 
ATOM     26  N   ALA C   4      26.154   5.658  40.254  1.00 13.95 LIG-0.35  N 
ATOM     27 H    ALA C   4      26.126   4.921  40.697  1.00 13.95 LIG 0.16  HD
ATOM     28 O    THR C   3      26.944   6.897  38.550  1.00 16.43 LIG-0.27  OA
BRANCH 26 29
ATOM     29  CA  ALA C   4      25.277   6.683  40.766  1.00 14.93 LIG 0.18  C 
ATOM     30  CB  ALA C   4      24.214   6.986  39.717  1.00 15.34 LIG 0.04  C 
BRANCH 29 31
ATOM     31  C   ALA C   4      24.655   6.248  42.097  1.00 16.13 LIG 0.28  C 
ATOM     32 O    ALA C   4      23.472   6.476  42.336  1.00 17.37 LIG-0.27  OA
ATOM     33  N   NH2 C   5      25.453   5.628  42.964  1.00 15.73 LIG-0.11  N 
ENDBRANCH 29 31
ENDBRANCH 26 29
ENDBRANCH 24 25
BRANCH 24 34
ATOM     34  CB  THR C   3      28.029   4.586  37.335  1.00 16.10 LIG 0.15  C 
ATOM     35  CG2 THR C   3      29.021   5.614  36.803  1.00 16.48 LIG 0.04  C 
BRANCH 34 36
ATOM     36 OG1  THR C   3      28.511   3.273  37.021  1.00 16.89 LIG-0.39  OA
ATOM     37 HG1  THR C   3      29.344   3.247  37.127  1.00 16.89 LIG 0.21  HD
ENDBRANCH 34 36
ENDBRANCH 24 34
ENDBRANCH 21 24
ENDBRANCH 1 20
TORSDOF 12
ENDMDL
MODEL 33
USER: ADFR SOLUTION from run 153
USER: SCORE 10.297667 LL:  -2.495 LR:  -9.933 RR:   0.000 FEB:  -6.354
USER: RMSD 4.299118
USER: SEED 152
USER: STATUS no improvement in best in 10 clusters for 5 generations
USER: GENES 14
USER: genes 0 Translation |==|  0.58149 0.30200 0.54436
USER: genes 1 Rotation |==|  0.51673 0.31473 0.24823 0.88988
USER: genes 2 Torsion [CB]-CA--N-[C] |==|  0.48953
USER: genes 3 Torsion [N]-C--CA-[N] |==|  0.13832
USER: genes 4 Torsion [C]-CA--N-[C] |==|  0.56842
USER: genes 5 Torsion [C]-CA--CB-[CG] |==|  0.23707
USER: genes 6 Torsion [CA]-CB--CG-[CD2] |==|  0.79289
USER: genes 7 Torsion [N]-CA--C-[N] |==|  0.45384
USER: genes 8 Torsion [C]-N--CA-[CB] |==|  0.50556
USER: genes 9 Torsion [N]-CA--C-[N] |==|  0.38384
USER: genes 10 Torsion [C]-N--CA-[CB] |==|  0.21281
USER: genes 11 Torsion [N]-CA--C-[N] |==|  0.06023
USER: genes 12 Torsion [N]-CA--CB-[OG1] |==|  0.89570
USER: genes 13 Torsion [CA]-CB--OG1-[HG1] |==|  0.71396
ROOT
ATOM      1  CA  ALA C   2      26.182  -0.962  43.647  1.00 19.98 LIG 0.17  C 
ATOM      2  CB  ALA C   2      27.318  -0.816  44.661  1.00 20.88 LIG 0.04  C 
ENDROOT
BRANCH 1 3
ATOM      3  N   ALA C   2      26.666  -1.547  42.407  1.00 19.64 LIG-0.35  N 
ATOM      4 H    ALA C   2      27.513  -1.689  42.372  1.00 19.64 LIG 0.16  HD
ATOM      5  C   PHE C   1      25.810  -1.819  41.438  1.00 22.16 LIG 0.24  C 
ATOM      6 O    PHE C   1      24.597  -1.673  41.590  1.00 23.85 LIG-0.27  OA
BRANCH 5 7
ATOM      7  CA  PHE C   1      26.370  -2.384  40.144  1.00 22.77 LIG 0.18  C 
BRANCH 7 8
ATOM      8  N   PHE C   1      27.230  -3.483  40.495  1.00 26.70 LIG-0.35  N 
ATOM      9 H    PHE C   1      27.045  -3.849  41.251  1.00 26.70 LIG 0.16  HD
ATOM     10  C   ACE C   0      28.208  -3.875  39.714  1.00 28.63 LIG 0.21  C 
ATOM     11  CH3 ACE C   0      28.957  -5.063  40.277  1.00 28.20 LIG 0.12  C 
ATOM     12 O    ACE C   0      28.429  -3.283  38.654  1.00 29.97 LIG-0.27  OA
ENDBRANCH 7 8
BRANCH 7 13
ATOM     13  CB  PHE C   1      25.304  -2.941  39.222  1.00 20.34 LIG 0.07  C 
BRANCH 13 14
ATOM     14  CG  PHE C   1      24.680  -1.891  38.340  1.00 17.40 LIG-0.06  A 
ATOM     15  CD1 PHE C   1      24.986  -1.773  36.981  1.00 16.88 LIG 0.01  A 
ATOM     16  CE1 PHE C   1      24.391  -0.757  36.201  1.00 14.02 LIG 0.00  A 
ATOM     17  CZ  PHE C   1      23.530   0.105  36.773  1.00 15.72 LIG 0.00  A 
ATOM     18  CE2 PHE C   1      23.226  -0.011  38.116  1.00 14.79 LIG 0.00  A 
ATOM     19  CD2 PHE C   1      23.791  -1.002  38.877  1.00 15.53 LIG 0.01  A 
ENDBRANCH 13 14
ENDBRANCH 7 13
ENDBRANCH 5 7
ENDBRANCH 1 3
BRANCH 1 20
ATOM     20  C   ALA C   2      25.586   0.404  43.373  1.00 17.39 LIG 0.24  C 
ATOM     21  N   THR C   3      24.807   0.890  44.344  1.00 15.98 LIG-0.34  N 
ATOM     22 H    THR C   3      24.608   0.468  45.066  1.00 15.98 LIG 0.16  HD
ATOM     23 O    ALA C   2      25.857   1.010  42.332  1.00 16.73 LIG-0.27  OA
BRANCH 21 24
ATOM     24  CA  THR C   3      24.227   2.217  44.231  1.00 15.15 LIG 0.20  C 
BRANCH 24 25
ATOM     25  C   THR C   3      25.308   3.256  43.986  1.00 14.93 LIG 0.24  C 
ATOM     26  N   ALA C   4      25.009   4.179  43.088  1.00 13.95 LIG-0.35  N 
ATOM     27 H    ALA C   4      24.281   4.178  42.629  1.00 13.95 LIG 0.16  HD
ATOM     28 O    THR C   3      26.367   3.248  44.622  1.00 16.43 LIG-0.27  OA
BRANCH 26 29
ATOM     29  CA  ALA C   4      25.886   5.286  42.790  1.00 14.93 LIG 0.18  C 
ATOM     30  CB  ALA C   4      27.031   4.781  41.918  1.00 15.34 LIG 0.04  C 
BRANCH 29 31
ATOM     31  C   ALA C   4      25.114   6.422  42.112  1.00 16.13 LIG 0.28  C 
ATOM     32 O    ALA C   4      25.705   7.263  41.439  1.00 17.37 LIG-0.27  OA
ATOM     33  N   NH2 C   5      23.796   6.451  42.296  1.00 15.73 LIG-0.11  N 
ENDBRANCH 29 31
ENDBRANCH 26 29
ENDBRANCH 24 25
BRANCH 24 34
ATOM     34  CB  THR C   3      23.413   2.584  45.479  1.00 16.10 LIG 0.15  C 
ATOM     35  CG2 THR C   3      22.383   3.672  45.195  1.00 16.48 LIG 0.04  C 
BRANCH 34 36
ATOM     36 OG1  THR C   3      22.731   1.410  45.939  1.00 16.89 LIG-0.39  OA
ATOM     37 HG1  THR C   3      21.922   1.451  45.716  1.00 16.89 LIG 0.21  HD
ENDBRANCH 34 36
ENDBRANCH 24 34
ENDBRANCH 21 24
ENDBRANCH 1 20
TORSDOF 12
ENDMDL
MODEL 34
USER: ADFR SOLUTION from run 109
USER: SCORE 10.567755 LL:  -2.063 LR:  -9.912 RR:   0.000 FEB:  -6.333
USER: RMSD 2.491887
USER: SEED 108
USER: STATUS no improvement in best in 15 clusters for 5 generations
USER: GENES 14
USER: genes 0 Translation |==|  0.48000 0.45300 0.55919
USER: genes 1 Rotation |==|  0.62425 0.40047 0.18594 0.85499
USER: genes 2 Torsion [CB]-CA--N-[C] |==|  0.18648
USER: genes 3 Torsion [N]-C--CA-[N] |==|  0.14442
USER: genes 4 Torsion [C]-CA--N-[C] |==|  0.17519
USER: genes 5 Torsion [C]-CA--CB-[CG] |==|  0.34348
USER: genes 6 Torsion [CA]-CB--CG-[CD2] |==|  0.96377
USER: genes 7 Torsion [N]-CA--C-[N] |==|  0.50644
USER: genes 8 Torsion [C]-N--CA-[CB] |==|  0.83983
USER: genes 9 Torsion [N]-CA--C-[N] |==|  0.35463
USER: genes 10 Torsion [C]-N--CA-[CB] |==|  0.83847
USER: genes 11 Torsion [N]-CA--C-[N] |==|  0.33943
USER: genes 12 Torsion [N]-CA--CB-[OG1] |==|  0.86865
USER: genes 13 Torsion [CA]-CB--OG1-[HG1] |==|  0.18503
ROOT
ATOM      1  CA  ALA C   2      24.279   1.530  43.958  1.00 19.98 LIG 0.17  C 
ATOM      2  CB  ALA C   2      25.402   0.964  44.831  1.00 20.88 LIG 0.04  C 
ENDROOT
BRANCH 1 3
ATOM      3  N   ALA C   2      24.734   1.727  42.592  1.00 19.64 LIG-0.35  N 
ATOM      4 H    ALA C   2      24.783   2.545  42.333  1.00 19.64 LIG 0.16  HD
ATOM      5  C   PHE C   1      25.036   0.676  41.848  1.00 22.16 LIG 0.24  C 
ATOM      6 O    PHE C   1      25.029  -0.464  42.311  1.00 23.85 LIG-0.27  OA
BRANCH 5 7
ATOM      7  CA  PHE C   1      25.460   0.931  40.412  1.00 22.77 LIG 0.18  C 
BRANCH 7 8
ATOM      8  N   PHE C   1      26.517   1.907  40.445  1.00 26.70 LIG-0.35  N 
ATOM      9 H    PHE C   1      26.327   2.647  40.051  1.00 26.70 LIG 0.16  HD
ATOM     10  C   ACE C   0      27.664   1.666  41.033  1.00 28.63 LIG 0.21  C 
ATOM     11  CH3 ACE C   0      28.608   2.846  40.965  1.00 28.20 LIG 0.12  C 
ATOM     12 O    ACE C   0      27.873   0.568  41.557  1.00 29.97 LIG-0.27  OA
ENDBRANCH 7 8
BRANCH 7 13
ATOM     13  CB  PHE C   1      26.022  -0.298  39.725  1.00 20.34 LIG 0.07  C 
BRANCH 13 14
ATOM     14  CG  PHE C   1      25.291  -0.648  38.455  1.00 17.40 LIG-0.06  A 
ATOM     15  CD1 PHE C   1      25.801  -1.556  37.522  1.00 16.88 LIG 0.01  A 
ATOM     16  CE1 PHE C   1      25.089  -1.834  36.334  1.00 14.02 LIG 0.00  A 
ATOM     17  CZ  PHE C   1      23.916  -1.217  36.099  1.00 15.72 LIG 0.00  A 
ATOM     18  CE2 PHE C   1      23.411  -0.321  37.021  1.00 14.79 LIG 0.00  A 
ATOM     19  CD2 PHE C   1      24.090  -0.053  38.182  1.00 15.53 LIG 0.01  A 
ENDBRANCH 13 14
ENDBRANCH 7 13
ENDBRANCH 5 7
ENDBRANCH 1 3
BRANCH 1 20
ATOM     20  C   ALA C   2      23.817   2.849  44.542  1.00 17.39 LIG 0.24  C 
ATOM     21  N   THR C   3      23.420   2.799  45.817  1.00 15.98 LIG-0.34  N 
ATOM     22 H    THR C   3      23.381   2.080  46.287  1.00 15.98 LIG 0.16  HD
ATOM     23 O    ALA C   2      23.856   3.883  43.868  1.00 16.73 LIG-0.27  OA
BRANCH 21 24
ATOM     24  CA  THR C   3      23.013   4.008  46.511  1.00 15.15 LIG 0.20  C 
BRANCH 24 25
ATOM     25  C   THR C   3      21.751   4.583  45.892  1.00 14.93 LIG 0.24  C 
ATOM     26  N   ALA C   4      20.766   4.825  46.740  1.00 13.95 LIG-0.35  N 
ATOM     27 H    ALA C   4      20.802   4.630  47.578  1.00 13.95 LIG 0.16  HD
ATOM     28 O    THR C   3      21.684   4.842  44.686  1.00 16.43 LIG-0.27  OA
BRANCH 26 29
ATOM     29  CA  ALA C   4      19.527   5.444  46.336  1.00 14.93 LIG 0.18  C 
ATOM     30  CB  ALA C   4      19.838   6.803  45.720  1.00 15.34 LIG 0.04  C 
BRANCH 29 31
ATOM     31  C   ALA C   4      18.762   4.541  45.363  1.00 16.13 LIG 0.28  C 
ATOM     32 O    ALA C   4      19.279   4.181  44.308  1.00 17.37 LIG-0.27  OA
ATOM     33  N   NH2 C   5      17.529   4.180  45.715  1.00 15.73 LIG-0.11  N 
ENDBRANCH 29 31
ENDBRANCH 26 29
ENDBRANCH 24 25
BRANCH 24 34
ATOM     34  CB  THR C   3      24.129   5.061  46.511  1.00 16.10 LIG 0.15  C 
ATOM     35  CG2 THR C   3      23.845   6.203  47.481  1.00 16.48 LIG 0.04  C 
BRANCH 34 36
ATOM     36 OG1  THR C   3      25.355   4.424  46.894  1.00 16.89 LIG-0.39  OA
ATOM     37 HG1  THR C   3      25.584   3.876  46.299  1.00 16.89 LIG 0.21  HD
ENDBRANCH 34 36
ENDBRANCH 24 34
ENDBRANCH 21 24
ENDBRANCH 1 20
TORSDOF 12
ENDMDL
MODEL 35
USER: ADFR SOLUTION from run 103
USER: SCORE 10.489897 LL:  -1.975 LR:  -9.903 RR:   0.000 FEB:  -6.323
USER: RMSD 9.349263
USER: SEED 102
USER: STATUS no improvement in best in 18 clusters for 5 generations
USER: GENES 14
USER: genes 0 Translation |==|  0.56751 0.51989 0.51131
USER: genes 1 Rotation |==|  0.89128 0.68400 0.67818 0.67692
USER: genes 2 Torsion [CB]-CA--N-[C] |==|  0.86873
USER: genes 3 Torsion [N]-C--CA-[N] |==|  0.56788
USER: genes 4 Torsion [C]-CA--N-[C] |==|  0.16281
USER: genes 5 Torsion [C]-CA--CB-[CG] |==|  0.53771
USER: genes 6 Torsion [CA]-CB--CG-[CD2] |==|  0.91154
USER: genes 7 Torsion [N]-CA--C-[N] |==|  0.36435
USER: genes 8 Torsion [C]-N--CA-[CB] |==|  0.86272
USER: genes 9 Torsion [N]-CA--C-[N] |==|  0.35556
USER: genes 10 Torsion [C]-N--CA-[CB] |==|  0.18751
USER: genes 11 Torsion [N]-CA--C-[N] |==|  0.05088
USER: genes 12 Torsion [N]-CA--CB-[OG1] |==|  0.86188
USER: genes 13 Torsion [CA]-CB--OG1-[HG1] |==|  0.13567
ROOT
ATOM      1  CA  ALA C   2      25.920   2.633  42.953  1.00 19.98 LIG 0.17  C 
ATOM      2  CB  ALA C   2      26.757   2.518  44.228  1.00 20.88 LIG 0.04  C 
ENDROOT
BRANCH 1 3
ATOM      3  N   ALA C   2      24.601   3.170  43.244  1.00 19.64 LIG-0.35  N 
ATOM      4 H    ALA C   2      24.337   3.803  42.726  1.00 19.64 LIG 0.16  HD
ATOM      5  C   PHE C   1      23.905   2.675  44.253  1.00 22.16 LIG 0.24  C 
ATOM      6 O    PHE C   1      24.306   1.707  44.899  1.00 23.85 LIG-0.27  OA
BRANCH 5 7
ATOM      7  CA  PHE C   1      22.553   3.302  44.548  1.00 22.77 LIG 0.18  C 
BRANCH 7 8
ATOM      8  N   PHE C   1      22.259   3.050  45.934  1.00 26.70 LIG-0.35  N 
ATOM      9 H    PHE C   1      21.530   2.614  46.067  1.00 26.70 LIG 0.16  HD
ATOM     10  C   ACE C   0      23.050   3.460  46.896  1.00 28.63 LIG 0.21  C 
ATOM     11  CH3 ACE C   0      22.552   3.056  48.267  1.00 28.20 LIG 0.12  C 
ATOM     12 O    ACE C   0      24.069   4.105  46.628  1.00 29.97 LIG-0.27  OA
ENDBRANCH 7 8
BRANCH 7 13
ATOM     13  CB  PHE C   1      22.536   4.806  44.365  1.00 20.34 LIG 0.07  C 
BRANCH 13 14
ATOM     14  CG  PHE C   1      21.316   5.458  44.961  1.00 17.40 LIG-0.06  A 
ATOM     15  CD1 PHE C   1      21.345   6.743  45.511  1.00 16.88 LIG 0.01  A 
ATOM     16  CE1 PHE C   1      20.178   7.302  46.078  1.00 14.02 LIG 0.00  A 
ATOM     17  CZ  PHE C   1      19.036   6.591  46.092  1.00 15.72 LIG 0.00  A 
ATOM     18  CE2 PHE C   1      19.006   5.322  45.547  1.00 14.79 LIG 0.00  A 
ATOM     19  CD2 PHE C   1      20.131   4.776  44.985  1.00 15.53 LIG 0.01  A 
ENDBRANCH 13 14
ENDBRANCH 7 13
ENDBRANCH 5 7
ENDBRANCH 1 3
BRANCH 1 20
ATOM     20  C   ALA C   2      25.789   1.261  42.323  1.00 17.39 LIG 0.24  C 
ATOM     21  N   THR C   3      26.505   1.074  41.211  1.00 15.98 LIG-0.34  N 
ATOM     22 H    THR C   3      26.984   1.680  40.833  1.00 15.98 LIG 0.16  HD
ATOM     23 O    ALA C   2      25.091   0.391  42.853  1.00 16.73 LIG-0.27  OA
BRANCH 21 24
ATOM     24  CA  THR C   3      26.515  -0.217  40.547  1.00 15.15 LIG 0.20  C 
BRANCH 24 25
ATOM     25  C   THR C   3      25.199  -0.461  39.829  1.00 14.93 LIG 0.24  C 
ATOM     26  N   ALA C   4      25.307  -0.805  38.556  1.00 13.95 LIG-0.35  N 
ATOM     27 H    ALA C   4      26.057  -0.843  38.136  1.00 13.95 LIG 0.16  HD
ATOM     28 O    THR C   3      24.117  -0.382  40.419  1.00 16.43 LIG-0.27  OA
BRANCH 26 29
ATOM     29  CA  ALA C   4      24.164  -1.150  37.746  1.00 14.93 LIG 0.18  C 
ATOM     30  CB  ALA C   4      23.311   0.097  37.547  1.00 15.34 LIG 0.04  C 
BRANCH 29 31
ATOM     31  C   ALA C   4      24.610  -1.752  36.409  1.00 16.13 LIG 0.28  C 
ATOM     32 O    ALA C   4      23.832  -1.806  35.459  1.00 17.37 LIG-0.27  OA
ATOM     33  N   NH2 C   5      25.859  -2.209  36.338  1.00 15.73 LIG-0.11  N 
ENDBRANCH 29 31
ENDBRANCH 26 29
ENDBRANCH 24 25
BRANCH 24 34
ATOM     34  CB  THR C   3      26.797  -1.357  41.536  1.00 16.10 LIG 0.15  C 
ATOM     35  CG2 THR C   3      27.053  -2.683  40.829  1.00 16.48 LIG 0.04  C 
BRANCH 34 36
ATOM     36 OG1  THR C   3      27.955  -1.013  42.308  1.00 16.89 LIG-0.39  OA
ATOM     37 HG1  THR C   3      27.873  -0.231  42.603  1.00 16.89 LIG 0.21  HD
ENDBRANCH 34 36
ENDBRANCH 24 34
ENDBRANCH 21 24
ENDBRANCH 1 20
TORSDOF 12
ENDMDL
MODEL 36
USER: ADFR SOLUTION from run 190
USER: SCORE 11.117955 LL:  -2.547 LR:  -9.887 RR:   0.000 FEB:  -6.308
USER: RMSD 8.793548
USER: SEED 189
USER: STATUS no improvement in best in 27 clusters for 5 generations
USER: GENES 14
USER: genes 0 Translation |==|  0.50677 0.51159 0.57390
USER: genes 1 Rotation |==|  0.77031 0.44445 0.88728 0.65448
USER: genes 2 Torsion [CB]-CA--N-[C] |==|  0.18610
USER: genes 3 Torsion [N]-C--CA-[N] |==|  0.43515
USER: genes 4 Torsion [C]-CA--N-[C] |==|  0.80776
USER: genes 5 Torsion [C]-CA--CB-[CG] |==|  0.46415
USER: genes 6 Torsion [CA]-CB--CG-[CD2] |==|  0.20242
USER: genes 7 Torsion [N]-CA--C-[N] |==|  0.09955
USER: genes 8 Torsion [C]-N--CA-[CB] |==|  0.23679
USER: genes 9 Torsion [N]-CA--C-[N] |==|  0.87163
USER: genes 10 Torsion [C]-N--CA-[CB] |==|  0.17698
USER: genes 11 Torsion [N]-CA--C-[N] |==|  0.10126
USER: genes 12 Torsion [N]-CA--CB-[OG1] |==|  0.96216
USER: genes 13 Torsion [CA]-CB--OG1-[HG1] |==|  0.10531
ROOT
ATOM      1  CA  ALA C   2      24.781   2.496  44.267  1.00 19.98 LIG 0.17  C 
ATOM      2  CB  ALA C   2      23.875   1.625  45.140  1.00 20.88 LIG 0.04  C 
ENDROOT
BRANCH 1 3
ATOM      3  N   ALA C   2      24.008   3.511  43.569  1.00 19.64 LIG-0.35  N 
ATOM      4 H    ALA C   2      23.970   3.424  42.715  1.00 19.64 LIG 0.16  HD
ATOM      5  C   PHE C   1      23.428   4.476  44.260  1.00 22.16 LIG 0.24  C 
ATOM      6 O    PHE C   1      23.448   4.490  45.491  1.00 23.85 LIG-0.27  OA
BRANCH 5 7
ATOM      7  CA  PHE C   1      22.672   5.540  43.482  1.00 22.77 LIG 0.18  C 
BRANCH 7 8
ATOM      8  N   PHE C   1      21.707   6.120  44.379  1.00 26.70 LIG-0.35  N 
ATOM      9 H    PHE C   1      21.876   6.933  44.602  1.00 26.70 LIG 0.16  HD
ATOM     10  C   ACE C   0      20.666   5.447  44.807  1.00 28.63 LIG 0.21  C 
ATOM     11  CH3 ACE C   0      19.779   6.270  45.715  1.00 28.20 LIG 0.12  C 
ATOM     12 O    ACE C   0      20.503   4.273  44.462  1.00 29.97 LIG-0.27  OA
ENDBRANCH 7 8
BRANCH 7 13
ATOM     13  CB  PHE C   1      23.556   6.672  43.000  1.00 20.34 LIG 0.07  C 
BRANCH 13 14
ATOM     14  CG  PHE C   1      22.880   7.553  41.981  1.00 17.40 LIG-0.06  A 
ATOM     15  CD1 PHE C   1      23.232   7.541  40.627  1.00 16.88 LIG 0.01  A 
ATOM     16  CE1 PHE C   1      22.584   8.402  39.715  1.00 14.02 LIG 0.00  A 
ATOM     17  CZ  PHE C   1      21.628   9.242  40.153  1.00 15.72 LIG 0.00  A 
ATOM     18  CE2 PHE C   1      21.279   9.254  41.490  1.00 14.79 LIG 0.00  A 
ATOM     19  CD2 PHE C   1      21.895   8.413  42.381  1.00 15.53 LIG 0.01  A 
ENDBRANCH 13 14
ENDBRANCH 7 13
ENDBRANCH 5 7
ENDBRANCH 1 3
BRANCH 1 20
ATOM     20  C   ALA C   2      25.497   1.614  43.265  1.00 17.39 LIG 0.24  C 
ATOM     21  N   THR C   3      25.937   2.239  42.169  1.00 15.98 LIG-0.34  N 
ATOM     22 H    THR C   3      25.806   3.071  41.997  1.00 15.98 LIG 0.16  HD
ATOM     23 O    ALA C   2      25.675   0.415  43.498  1.00 16.73 LIG-0.27  OA
BRANCH 21 24
ATOM     24  CA  THR C   3      26.693   1.517  41.161  1.00 15.15 LIG 0.20  C 
BRANCH 24 25
ATOM     25  C   THR C   3      27.639   2.452  40.428  1.00 14.93 LIG 0.24  C 
ATOM     26  N   ALA C   4      27.107   3.598  40.037  1.00 13.95 LIG-0.35  N 
ATOM     27 H    ALA C   4      26.276   3.795  40.138  1.00 13.95 LIG 0.16  HD
ATOM     28 O    THR C   3      28.828   2.165  40.257  1.00 16.43 LIG-0.27  OA
BRANCH 26 29
ATOM     29  CA  ALA C   4      27.881   4.636  39.399  1.00 14.93 LIG 0.18  C 
ATOM     30  CB  ALA C   4      28.404   4.106  38.068  1.00 15.34 LIG 0.04  C 
BRANCH 29 31
ATOM     31  C   ALA C   4      27.040   5.903  39.215  1.00 16.13 LIG 0.28  C 
ATOM     32 O    ALA C   4      27.178   6.604  38.215  1.00 17.37 LIG-0.27  OA
ATOM     33  N   NH2 C   5      26.174   6.200  40.182  1.00 15.73 LIG-0.11  N 
ENDBRANCH 29 31
ENDBRANCH 26 29
ENDBRANCH 24 25
BRANCH 24 34
ATOM     34  CB  THR C   3      25.768   0.809  40.161  1.00 16.10 LIG 0.15  C 
ATOM     35  CG2 THR C   3      26.197  -0.630  39.898  1.00 16.48 LIG 0.04  C 
BRANCH 34 36
ATOM     36 OG1  THR C   3      24.438   0.805  40.697  1.00 16.89 LIG-0.39  OA
ATOM     37 HG1  THR C   3      24.292   1.533  41.090  1.00 16.89 LIG 0.21  HD
ENDBRANCH 34 36
ENDBRANCH 24 34
ENDBRANCH 21 24
ENDBRANCH 1 20
TORSDOF 12
ENDMDL
MODEL 37
USER: ADFR SOLUTION from run 79
USER: SCORE 10.782923 LL:  -2.544 LR:  -9.879 RR:   0.000 FEB:  -6.299
USER: RMSD 3.368297
USER: SEED 78
USER: STATUS no improvement in best in 16 clusters for 5 generations
USER: GENES 14
USER: genes 0 Translation |==|  0.54582 0.39107 0.41401
USER: genes 1 Rotation |==|  0.22563 0.62497 0.84234 0.70472
USER: genes 2 Torsion [CB]-CA--N-[C] |==|  0.85436
USER: genes 3 Torsion [N]-C--CA-[N] |==|  0.43639
USER: genes 4 Torsion [C]-CA--N-[C] |==|  0.56098
USER: genes 5 Torsion [C]-CA--CB-[CG] |==|  0.98636
USER: genes 6 Torsion [CA]-CB--CG-[CD2] |==|  0.30835
USER: genes 7 Torsion [N]-CA--C-[N] |==|  0.42089
USER: genes 8 Torsion [C]-N--CA-[CB] |==|  0.18333
USER: genes 9 Torsion [N]-CA--C-[N] |==|  0.41947
USER: genes 10 Torsion [C]-N--CA-[CB] |==|  0.18035
USER: genes 11 Torsion [N]-CA--C-[N] |==|  0.05079
USER: genes 12 Torsion [N]-CA--CB-[OG1] |==|  0.73544
USER: genes 13 Torsion [CA]-CB--OG1-[HG1] |==|  0.13692
ROOT
ATOM      1  CA  ALA C   2      25.513   0.508  40.909  1.00 19.98 LIG 0.17  C 
ATOM      2  CB  ALA C   2      24.282   0.033  40.134  1.00 20.88 LIG 0.04  C 
ENDROOT
BRANCH 1 3
ATOM      3  N   ALA C   2      26.646  -0.371  40.671  1.00 19.64 LIG-0.35  N 
ATOM      4 H    ALA C   2      27.369   0.018  40.417  1.00 19.64 LIG 0.16  HD
ATOM      5  C   PHE C   1      26.509  -1.673  40.851  1.00 22.16 LIG 0.24  C 
ATOM      6 O    PHE C   1      25.470  -2.155  41.303  1.00 23.85 LIG-0.27  OA
BRANCH 5 7
ATOM      7  CA  PHE C   1      27.707  -2.555  40.543  1.00 22.77 LIG 0.18  C 
BRANCH 7 8
ATOM      8  N   PHE C   1      27.543  -3.774  41.290  1.00 26.70 LIG-0.35  N 
ATOM      9 H    PHE C   1      26.731  -3.942  41.519  1.00 26.70 LIG 0.16  HD
ATOM     10  C   ACE C   0      28.559  -4.549  41.584  1.00 28.63 LIG 0.21  C 
ATOM     11  CH3 ACE C   0      28.141  -5.786  42.349  1.00 28.20 LIG 0.12  C 
ATOM     12 O    ACE C   0      29.701  -4.229  41.242  1.00 29.97 LIG-0.27  OA
ENDBRANCH 7 8
BRANCH 7 13
ATOM     13  CB  PHE C   1      27.803  -2.948  39.083  1.00 20.34 LIG 0.07  C 
BRANCH 13 14
ATOM     14  CG  PHE C   1      26.626  -2.477  38.268  1.00 17.40 LIG-0.06  A 
ATOM     15  CD1 PHE C   1      25.346  -3.021  38.415  1.00 16.88 LIG 0.01  A 
ATOM     16  CE1 PHE C   1      24.280  -2.560  37.611  1.00 14.02 LIG 0.00  A 
ATOM     17  CZ  PHE C   1      24.500  -1.599  36.696  1.00 15.72 LIG 0.00  A 
ATOM     18  CE2 PHE C   1      25.764  -1.060  36.551  1.00 14.79 LIG 0.00  A 
ATOM     19  CD2 PHE C   1      26.803  -1.493  37.335  1.00 15.53 LIG 0.01  A 
ENDBRANCH 13 14
ENDBRANCH 7 13
ENDBRANCH 5 7
ENDBRANCH 1 3
BRANCH 1 20
ATOM     20  C   ALA C   2      25.185   0.536  42.388  1.00 17.39 LIG 0.24  C 
ATOM     21  N   THR C   3      24.624   1.666  42.826  1.00 15.98 LIG-0.34  N 
ATOM     22 H    THR C   3      24.482   2.360  42.338  1.00 15.98 LIG 0.16  HD
ATOM     23 O    ALA C   2      25.399  -0.452  43.098  1.00 16.73 LIG-0.27  OA
BRANCH 21 24
ATOM     24  CA  THR C   3      24.204   1.795  44.210  1.00 15.15 LIG 0.20  C 
BRANCH 24 25
ATOM     25  C   THR C   3      23.403   3.070  44.411  1.00 14.93 LIG 0.24  C 
ATOM     26  N   ALA C   4      22.502   3.023  45.379  1.00 13.95 LIG-0.35  N 
ATOM     27 H    ALA C   4      22.334   2.314  45.837  1.00 13.95 LIG 0.16  HD
ATOM     28 O    THR C   3      23.622   4.082  43.739  1.00 16.43 LIG-0.27  OA
BRANCH 26 29
ATOM     29  CA  ALA C   4      21.710   4.167  45.758  1.00 14.93 LIG 0.18  C 
ATOM     30  CB  ALA C   4      20.807   4.546  44.590  1.00 15.34 LIG 0.04  C 
BRANCH 29 31
ATOM     31  C   ALA C   4      20.904   3.871  47.027  1.00 16.13 LIG 0.28  C 
ATOM     32 O    ALA C   4      19.938   4.568  47.329  1.00 17.37 LIG-0.27  OA
ATOM     33  N   NH2 C   5      21.305   2.843  47.772  1.00 15.73 LIG-0.11  N 
ENDBRANCH 29 31
ENDBRANCH 26 29
ENDBRANCH 24 25
BRANCH 24 34
ATOM     34  CB  THR C   3      25.404   1.767  45.167  1.00 16.10 LIG 0.15  C 
ATOM     35  CG2 THR C   3      25.207   2.690  46.365  1.00 16.48 LIG 0.04  C 
BRANCH 34 36
ATOM     36 OG1  THR C   3      25.578   0.426  45.641  1.00 16.89 LIG-0.39  OA
ATOM     37 HG1  THR C   3      25.572  -0.105  44.989  1.00 16.89 LIG 0.21  HD
ENDBRANCH 34 36
ENDBRANCH 24 34
ENDBRANCH 21 24
ENDBRANCH 1 20
TORSDOF 12
ENDMDL
MODEL 38
USER: ADFR SOLUTION from run 93
USER: SCORE 10.252838 LL:  -2.872 LR:  -9.856 RR:   0.000 FEB:  -6.276
USER: RMSD 8.769797
USER: SEED 92
USER: STATUS no improvement in best in 13 clusters for 5 generations
USER: GENES 14
USER: genes 0 Translation |==|  0.49198 0.53691 0.57666
USER: genes 1 Rotation |==|  0.75177 0.41781 0.87136 0.70482
USER: genes 2 Torsion [CB]-CA--N-[C] |==|  0.18889
USER: genes 3 Torsion [N]-C--CA-[N] |==|  0.93745
USER: genes 4 Torsion [C]-CA--N-[C] |==|  0.52929
USER: genes 5 Torsion [C]-CA--CB-[CG] |==|  0.12089
USER: genes 6 Torsion [CA]-CB--CG-[CD2] |==|  0.23499
USER: genes 7 Torsion [N]-CA--C-[N] |==|  0.11388
USER: genes 8 Torsion [C]-N--CA-[CB] |==|  0.20517
USER: genes 9 Torsion [N]-CA--C-[N] |==|  0.90465
USER: genes 10 Torsion [C]-N--CA-[CB] |==|  0.15602
USER: genes 11 Torsion [N]-CA--C-[N] |==|  0.15325
USER: genes 12 Torsion [N]-CA--CB-[OG1] |==|  0.78055
USER: genes 13 Torsion [CA]-CB--OG1-[HG1] |==|  0.00078
ROOT
ATOM      1  CA  ALA C   2      24.504   2.914  44.325  1.00 19.98 LIG 0.17  C 
ATOM      2  CB  ALA C   2      23.391   2.325  45.195  1.00 20.88 LIG 0.04  C 
ENDROOT
BRANCH 1 3
ATOM      3  N   ALA C   2      24.017   4.050  43.560  1.00 19.64 LIG-0.35  N 
ATOM      4 H    ALA C   2      23.971   3.931  42.710  1.00 19.64 LIG 0.16  HD
ATOM      5  C   PHE C   1      23.686   5.165  44.190  1.00 22.16 LIG 0.24  C 
ATOM      6 O    PHE C   1      23.692   5.237  45.419  1.00 23.85 LIG-0.27  OA
BRANCH 5 7
ATOM      7  CA  PHE C   1      23.229   6.340  43.343  1.00 22.77 LIG 0.18  C 
BRANCH 7 8
ATOM      8  N   PHE C   1      23.758   6.144  42.019  1.00 26.70 LIG-0.35  N 
ATOM      9 H    PHE C   1      24.101   5.367  41.887  1.00 26.70 LIG 0.16  HD
ATOM     10  C   ACE C   0      23.712   7.086  41.108  1.00 28.63 LIG 0.21  C 
ATOM     11  CH3 ACE C   0      24.303   6.642  39.787  1.00 28.20 LIG 0.12  C 
ATOM     12 O    ACE C   0      23.227   8.188  41.380  1.00 29.97 LIG-0.27  OA
ENDBRANCH 7 8
BRANCH 7 13
ATOM     13  CB  PHE C   1      21.723   6.429  43.202  1.00 20.34 LIG 0.07  C 
BRANCH 13 14
ATOM     14  CG  PHE C   1      20.995   6.188  44.499  1.00 17.40 LIG-0.06  A 
ATOM     15  CD1 PHE C   1      20.476   4.937  44.848  1.00 16.88 LIG 0.01  A 
ATOM     16  CE1 PHE C   1      19.782   4.768  46.066  1.00 14.02 LIG 0.00  A 
ATOM     17  CZ  PHE C   1      19.615   5.817  46.891  1.00 15.72 LIG 0.00  A 
ATOM     18  CE2 PHE C   1      20.128   7.054  46.548  1.00 14.79 LIG 0.00  A 
ATOM     19  CD2 PHE C   1      20.813   7.225  45.372  1.00 15.53 LIG 0.01  A 
ENDBRANCH 13 14
ENDBRANCH 7 13
ENDBRANCH 5 7
ENDBRANCH 1 3
BRANCH 1 20
ATOM     20  C   ALA C   2      25.014   1.842  43.385  1.00 17.39 LIG 0.24  C 
ATOM     21  N   THR C   3      25.716   2.288  42.339  1.00 15.98 LIG-0.34  N 
ATOM     22 H    THR C   3      25.853   3.118  42.163  1.00 15.98 LIG 0.16  HD
ATOM     23 O    ALA C   2      24.809   0.647  43.624  1.00 16.73 LIG-0.27  OA
BRANCH 21 24
ATOM     24  CA  THR C   3      26.313   1.356  41.399  1.00 15.15 LIG 0.20  C 
BRANCH 24 25
ATOM     25  C   THR C   3      27.377   2.046  40.563  1.00 14.93 LIG 0.24  C 
ATOM     26  N   ALA C   4      27.132   3.313  40.273  1.00 13.95 LIG-0.35  N 
ATOM     27 H    ALA C   4      26.405   3.718  40.490  1.00 13.95 LIG 0.16  HD
ATOM     28 O    THR C   3      28.412   1.462  40.225  1.00 16.43 LIG-0.27  OA
BRANCH 26 29
ATOM     29  CA  ALA C   4      28.072   4.141  39.556  1.00 14.93 LIG 0.18  C 
ATOM     30  CB  ALA C   4      28.404   3.468  38.229  1.00 15.34 LIG 0.04  C 
BRANCH 29 31
ATOM     31  C   ALA C   4      27.507   5.551  39.353  1.00 16.13 LIG 0.28  C 
ATOM     32 O    ALA C   4      27.433   6.036  38.227  1.00 17.37 LIG-0.27  OA
ATOM     33  N   NH2 C   5      27.113   6.207  40.442  1.00 15.73 LIG-0.11  N 
ENDBRANCH 29 31
ENDBRANCH 26 29
ENDBRANCH 24 25
BRANCH 24 34
ATOM     34  CB  THR C   3      25.255   0.719  40.488  1.00 16.10 LIG 0.15  C 
ATOM     35  CG2 THR C   3      25.866   0.125  39.223  1.00 16.48 LIG 0.04  C 
BRANCH 34 36
ATOM     36 OG1  THR C   3      24.595  -0.324  41.216  1.00 16.89 LIG-0.39  OA
ATOM     37 HG1  THR C   3      24.917  -0.372  41.991  1.00 16.89 LIG 0.21  HD
ENDBRANCH 34 36
ENDBRANCH 24 34
ENDBRANCH 21 24
ENDBRANCH 1 20
TORSDOF 12
ENDMDL
MODEL 39
USER: ADFR SOLUTION from run 29
USER: SCORE 10.382113 LL:  -2.468 LR:  -9.846 RR:   0.000 FEB:  -6.266
USER: RMSD 9.587228
USER: SEED 28
USER: STATUS searching
USER: GENES 14
USER: genes 0 Translation |==|  0.50398 0.57889 0.56462
USER: genes 1 Rotation |==|  0.88951 0.80205 0.52375 0.58055
USER: genes 2 Torsion [CB]-CA--N-[C] |==|  0.50601
USER: genes 3 Torsion [N]-C--CA-[N] |==|  0.46226
USER: genes 4 Torsion [C]-CA--N-[C] |==|  0.77264
USER: genes 5 Torsion [C]-CA--CB-[CG] |==|  0.46146
USER: genes 6 Torsion [CA]-CB--CG-[CD2] |==|  0.55514
USER: genes 7 Torsion [N]-CA--C-[N] |==|  0.45584
USER: genes 8 Torsion [C]-N--CA-[CB] |==|  0.50682
USER: genes 9 Torsion [N]-CA--C-[N] |==|  0.90362
USER: genes 10 Torsion [C]-N--CA-[CB] |==|  0.79401
USER: genes 11 Torsion [N]-CA--C-[N] |==|  0.18122
USER: genes 12 Torsion [N]-CA--CB-[OG1] |==|  0.03670
USER: genes 13 Torsion [CA]-CB--OG1-[HG1] |==|  0.83181
ROOT
ATOM      1  CA  ALA C   2      24.729   3.607  44.072  1.00 19.98 LIG 0.17  C 
ATOM      2  CB  ALA C   2      26.199   3.944  44.330  1.00 20.88 LIG 0.04  C 
ENDROOT
BRANCH 1 3
ATOM      3  N   ALA C   2      23.920   3.880  45.248  1.00 19.64 LIG-0.35  N 
ATOM      4 H    ALA C   2      24.342   4.216  45.917  1.00 19.64 LIG 0.16  HD
ATOM      5  C   PHE C   1      22.626   3.608  45.226  1.00 22.16 LIG 0.24  C 
ATOM      6 O    PHE C   1      22.069   3.212  44.203  1.00 23.85 LIG-0.27  OA
BRANCH 5 7
ATOM      7  CA  PHE C   1      21.833   3.867  46.496  1.00 22.77 LIG 0.18  C 
BRANCH 7 8
ATOM      8  N   PHE C   1      20.438   3.812  46.146  1.00 26.70 LIG-0.35  N 
ATOM      9 H    PHE C   1      20.061   3.059  46.316  1.00 26.70 LIG 0.16  HD
ATOM     10  C   ACE C   0      19.816   4.837  45.614  1.00 28.63 LIG 0.21  C 
ATOM     11  CH3 ACE C   0      18.352   4.555  45.358  1.00 28.20 LIG 0.12  C 
ATOM     12 O    ACE C   0      20.432   5.880  45.375  1.00 29.97 LIG-0.27  OA
ENDBRANCH 7 8
BRANCH 7 13
ATOM     13  CB  PHE C   1      22.056   2.818  47.567  1.00 20.34 LIG 0.07  C 
BRANCH 13 14
ATOM     14  CG  PHE C   1      21.544   3.240  48.920  1.00 17.40 LIG-0.06  A 
ATOM     15  CD1 PHE C   1      20.606   4.265  49.081  1.00 16.88 LIG 0.01  A 
ATOM     16  CE1 PHE C   1      20.174   4.639  50.373  1.00 14.02 LIG 0.00  A 
ATOM     17  CZ  PHE C   1      20.673   4.008  51.452  1.00 15.72 LIG 0.00  A 
ATOM     18  CE2 PHE C   1      21.598   2.995  51.293  1.00 14.79 LIG 0.00  A 
ATOM     19  CD2 PHE C   1      22.015   2.618  50.043  1.00 15.53 LIG 0.01  A 
ENDBRANCH 13 14
ENDBRANCH 7 13
ENDBRANCH 5 7
ENDBRANCH 1 3
BRANCH 1 20
ATOM     20  C   ALA C   2      24.617   2.143  43.699  1.00 17.39 LIG 0.24  C 
ATOM     21  N   THR C   3      25.035   1.835  42.468  1.00 15.98 LIG-0.34  N 
ATOM     22 H    THR C   3      25.316   2.408  41.892  1.00 15.98 LIG 0.16  HD
ATOM     23 O    ALA C   2      24.200   1.316  44.517  1.00 16.73 LIG-0.27  OA
BRANCH 21 24
ATOM     24  CA  THR C   3      25.038   0.456  42.012  1.00 15.15 LIG 0.20  C 
BRANCH 24 25
ATOM     25  C   THR C   3      25.819  -0.425  42.973  1.00 14.93 LIG 0.24  C 
ATOM     26  N   ALA C   4      26.867   0.150  43.539  1.00 13.95 LIG-0.35  N 
ATOM     27 H    ALA C   4      27.130   0.947  43.350  1.00 13.95 LIG 0.16  HD
ATOM     28 O    THR C   3      25.460  -1.578  43.228  1.00 16.43 LIG-0.27  OA
BRANCH 26 29
ATOM     29  CA  ALA C   4      27.672  -0.513  44.535  1.00 14.93 LIG 0.18  C 
ATOM     30  CB  ALA C   4      26.896  -0.549  45.847  1.00 15.34 LIG 0.04  C 
BRANCH 29 31
ATOM     31  C   ALA C   4      28.064  -1.919  44.067  1.00 16.13 LIG 0.28  C 
ATOM     32 O    ALA C   4      27.654  -2.911  44.664  1.00 17.37 LIG-0.27  OA
ATOM     33  N   NH2 C   5      28.860  -2.002  43.003  1.00 15.73 LIG-0.11  N 
ENDBRANCH 29 31
ENDBRANCH 26 29
ENDBRANCH 24 25
BRANCH 24 34
ATOM     34  CB  THR C   3      25.612   0.332  40.595  1.00 16.10 LIG 0.15  C 
ATOM     35  CG2 THR C   3      24.531   0.044  39.558  1.00 16.48 LIG 0.04  C 
BRANCH 34 36
ATOM     36 OG1  THR C   3      26.260   1.566  40.257  1.00 16.89 LIG-0.39  OA
ATOM     37 HG1  THR C   3      25.699   2.192  40.279  1.00 16.89 LIG 0.21  HD
ENDBRANCH 34 36
ENDBRANCH 24 34
ENDBRANCH 21 24
ENDBRANCH 1 20
TORSDOF 12
ENDMDL
MODEL 40
USER: ADFR SOLUTION from run 136
USER: SCORE 9.934706 LL:  -2.245 LR:  -9.841 RR:   0.000 FEB:  -6.262
USER: RMSD 9.602054
USER: SEED 135
USER: STATUS searching
USER: GENES 14
USER: genes 0 Translation |==|  0.51044 0.55209 0.53442
USER: genes 1 Rotation |==|  0.83777 0.86839 0.51273 0.50633
USER: genes 2 Torsion [CB]-CA--N-[C] |==|  0.38637
USER: genes 3 Torsion [N]-C--CA-[N] |==|  0.45360
USER: genes 4 Torsion [C]-CA--N-[C] |==|  0.74940
USER: genes 5 Torsion [C]-CA--CB-[CG] |==|  0.41118
USER: genes 6 Torsion [CA]-CB--CG-[CD2] |==|  0.11926
USER: genes 7 Torsion [N]-CA--C-[N] |==|  0.54739
USER: genes 8 Torsion [C]-N--CA-[CB] |==|  0.86644
USER: genes 9 Torsion [N]-CA--C-[N] |==|  0.35000
USER: genes 10 Torsion [C]-N--CA-[CB] |==|  0.17014
USER: genes 11 Torsion [N]-CA--C-[N] |==|  0.11058
USER: genes 12 Torsion [N]-CA--CB-[OG1] |==|  0.76167
USER: genes 13 Torsion [CA]-CB--OG1-[HG1] |==|  0.10383
ROOT
ATOM      1  CA  ALA C   2      24.850   3.164  43.438  1.00 19.98 LIG 0.17  C 
ATOM      2  CB  ALA C   2      26.155   3.963  43.437  1.00 20.88 LIG 0.04  C 
ENDROOT
BRANCH 1 3
ATOM      3  N   ALA C   2      24.341   3.003  44.790  1.00 19.64 LIG-0.35  N 
ATOM      4 H    ALA C   2      24.933   2.834  45.390  1.00 19.64 LIG 0.16  HD
ATOM      5  C   PHE C   1      23.044   3.122  45.016  1.00 22.16 LIG 0.24  C 
ATOM      6 O    PHE C   1      22.263   3.455  44.125  1.00 23.85 LIG-0.27  OA
BRANCH 5 7
ATOM      7  CA  PHE C   1      22.555   2.897  46.437  1.00 22.77 LIG 0.18  C 
BRANCH 7 8
ATOM      8  N   PHE C   1      21.231   3.453  46.525  1.00 26.70 LIG-0.35  N 
ATOM      9 H    PHE C   1      20.602   2.900  46.331  1.00 26.70 LIG 0.16  HD
ATOM     10  C   ACE C   0      21.024   4.700  46.876  1.00 28.63 LIG 0.21  C 
ATOM     11  CH3 ACE C   0      19.553   5.050  46.926  1.00 28.20 LIG 0.12  C 
ATOM     12 O    ACE C   0      21.981   5.442  47.116  1.00 29.97 LIG-0.27  OA
ENDBRANCH 7 8
BRANCH 7 13
ATOM     13  CB  PHE C   1      22.440   1.432  46.807  1.00 20.34 LIG 0.07  C 
BRANCH 13 14
ATOM     14  CG  PHE C   1      22.716   1.170  48.265  1.00 17.40 LIG-0.06  A 
ATOM     15  CD1 PHE C   1      23.481   0.084  48.700  1.00 16.88 LIG 0.01  A 
ATOM     16  CE1 PHE C   1      23.693  -0.132  50.080  1.00 14.02 LIG 0.00  A 
ATOM     17  CZ  PHE C   1      23.149   0.710  50.978  1.00 15.72 LIG 0.00  A 
ATOM     18  CE2 PHE C   1      22.394   1.784  50.549  1.00 14.79 LIG 0.00  A 
ATOM     19  CD2 PHE C   1      22.193   2.007  49.211  1.00 15.53 LIG 0.01  A 
ENDBRANCH 13 14
ENDBRANCH 7 13
ENDBRANCH 5 7
ENDBRANCH 1 3
BRANCH 1 20
ATOM     20  C   ALA C   2      25.103   1.806  42.818  1.00 17.39 LIG 0.24  C 
ATOM     21  N   THR C   3      25.890   1.810  41.738  1.00 15.98 LIG-0.34  N 
ATOM     22 H    THR C   3      26.214   2.519  41.374  1.00 15.98 LIG 0.16  HD
ATOM     23 O    ALA C   2      24.629   0.785  43.326  1.00 16.73 LIG-0.27  OA
BRANCH 21 24
ATOM     24  CA  THR C   3      26.259   0.565  41.088  1.00 15.15 LIG 0.20  C 
BRANCH 24 25
ATOM     25  C   THR C   3      25.092   0.009  40.291  1.00 14.93 LIG 0.24  C 
ATOM     26  N   ALA C   4      25.350  -0.250  39.020  1.00 13.95 LIG-0.35  N 
ATOM     27 H    ALA C   4      26.104  -0.076  38.643  1.00 13.95 LIG 0.16  HD
ATOM     28 O    THR C   3      24.000  -0.219  40.820  1.00 16.43 LIG-0.27  OA
BRANCH 26 29
ATOM     29  CA  ALA C   4      24.381  -0.856  38.139  1.00 14.93 LIG 0.18  C 
ATOM     30  CB  ALA C   4      23.169   0.064  38.040  1.00 15.34 LIG 0.04  C 
BRANCH 29 31
ATOM     31  C   ALA C   4      24.998  -1.132  36.763  1.00 16.13 LIG 0.28  C 
ATOM     32 O    ALA C   4      24.346  -0.944  35.739  1.00 17.37 LIG-0.27  OA
ATOM     33  N   NH2 C   5      26.250  -1.584  36.742  1.00 15.73 LIG-0.11  N 
ENDBRANCH 29 31
ENDBRANCH 26 29
ENDBRANCH 24 25
BRANCH 24 34
ATOM     34  CB  THR C   3      26.750  -0.476  42.103  1.00 16.10 LIG 0.15  C 
ATOM     35  CG2 THR C   3      26.540  -1.904  41.611  1.00 16.48 LIG 0.04  C 
BRANCH 34 36
ATOM     36 OG1  THR C   3      28.150  -0.266  42.330  1.00 16.89 LIG-0.39  OA
ATOM     37 HG1  THR C   3      28.313   0.558  42.329  1.00 16.89 LIG 0.21  HD
ENDBRANCH 34 36
ENDBRANCH 24 34
ENDBRANCH 21 24
ENDBRANCH 1 20
TORSDOF 12
ENDMDL
MODEL 41
USER: ADFR SOLUTION from run 135
USER: SCORE 9.849400 LL:  -2.219 LR:  -9.844 RR:   0.000 FEB:  -6.264
USER: RMSD 6.308605
USER: SEED 134
USER: STATUS no improvement in best in 20 clusters for 5 generations
USER: GENES 14
USER: genes 0 Translation |==|  0.57699 0.26916 0.48244
USER: genes 1 Rotation |==|  0.51257 0.36547 0.19356 0.87126
USER: genes 2 Torsion [CB]-CA--N-[C] |==|  0.88314
USER: genes 3 Torsion [N]-C--CA-[N] |==|  0.68595
USER: genes 4 Torsion [C]-CA--N-[C] |==|  0.16126
USER: genes 5 Torsion [C]-CA--CB-[CG] |==|  0.22719
USER: genes 6 Torsion [CA]-CB--CG-[CD2] |==|  0.76008
USER: genes 7 Torsion [N]-CA--C-[N] |==|  0.85000
USER: genes 8 Torsion [C]-N--CA-[CB] |==|  0.17972
USER: genes 9 Torsion [N]-CA--C-[N] |==|  0.43335
USER: genes 10 Torsion [C]-N--CA-[CB] |==|  0.16003
USER: genes 11 Torsion [N]-CA--C-[N] |==|  0.09309
USER: genes 12 Torsion [N]-CA--CB-[OG1] |==|  0.62204
USER: genes 13 Torsion [CA]-CB--OG1-[HG1] |==|  0.09200
ROOT
ATOM      1  CA  ALA C   2      26.098  -1.504  42.346  1.00 19.98 LIG 0.17  C 
ATOM      2  CB  ALA C   2      27.357  -1.770  43.173  1.00 20.88 LIG 0.04  C 
ENDROOT
BRANCH 1 3
ATOM      3  N   ALA C   2      26.282  -1.930  40.969  1.00 19.64 LIG-0.35  N 
ATOM      4 H    ALA C   2      25.613  -2.339  40.616  1.00 19.64 LIG 0.16  HD
ATOM      5  C   PHE C   1      27.425  -1.676  40.356  1.00 22.16 LIG 0.24  C 
ATOM      6 O    PHE C   1      28.308  -1.006  40.892  1.00 23.85 LIG-0.27  OA
BRANCH 5 7
ATOM      7  CA  PHE C   1      27.588  -2.183  38.934  1.00 22.77 LIG 0.18  C 
BRANCH 7 8
ATOM      8  N   PHE C   1      28.606  -3.199  38.957  1.00 26.70 LIG-0.35  N 
ATOM      9 H    PHE C   1      29.276  -3.040  38.442  1.00 26.70 LIG 0.16  HD
ATOM     10  C   ACE C   0      28.501  -4.270  39.708  1.00 28.63 LIG 0.21  C 
ATOM     11  CH3 ACE C   0      29.703  -5.181  39.588  1.00 28.20 LIG 0.12  C 
ATOM     12 O    ACE C   0      27.495  -4.442  40.403  1.00 29.97 LIG-0.27  OA
ENDBRANCH 7 8
BRANCH 7 13
ATOM     13  CB  PHE C   1      26.335  -2.833  38.382  1.00 20.34 LIG 0.07  C 
BRANCH 13 14
ATOM     14  CG  PHE C   1      25.336  -1.835  37.857  1.00 17.40 LIG-0.06  A 
ATOM     15  CD1 PHE C   1      25.302  -1.442  36.515  1.00 16.88 LIG 0.01  A 
ATOM     16  CE1 PHE C   1      24.360  -0.485  36.077  1.00 14.02 LIG 0.00  A 
ATOM     17  CZ  PHE C   1      23.495   0.053  36.957  1.00 15.72 LIG 0.00  A 
ATOM     18  CE2 PHE C   1      23.528  -0.336  38.282  1.00 14.79 LIG 0.00  A 
ATOM     19  CD2 PHE C   1      24.431  -1.272  38.714  1.00 15.53 LIG 0.01  A 
ENDBRANCH 13 14
ENDBRANCH 7 13
ENDBRANCH 5 7
ENDBRANCH 1 3
BRANCH 1 20
ATOM     20  C   ALA C   2      25.784  -0.023  42.389  1.00 17.39 LIG 0.24  C 
ATOM     21  N   THR C   3      26.663   0.765  41.763  1.00 15.98 LIG-0.34  N 
ATOM     22 H    THR C   3      27.384   0.486  41.386  1.00 15.98 LIG 0.16  HD
ATOM     23 O    ALA C   2      24.757   0.386  42.941  1.00 16.73 LIG-0.27  OA
BRANCH 21 24
ATOM     24  CA  THR C   3      26.443   2.198  41.678  1.00 15.15 LIG 0.20  C 
BRANCH 24 25
ATOM     25  C   THR C   3      27.469   2.845  40.765  1.00 14.93 LIG 0.24  C 
ATOM     26  N   ALA C   4      27.098   3.994  40.225  1.00 13.95 LIG-0.35  N 
ATOM     27 H    ALA C   4      26.317   4.339  40.333  1.00 13.95 LIG 0.16  HD
ATOM     28 O    THR C   3      28.582   2.341  40.585  1.00 16.43 LIG-0.27  OA
BRANCH 26 29
ATOM     29  CA  ALA C   4      27.977   4.783  39.397  1.00 14.93 LIG 0.18  C 
ATOM     30  CB  ALA C   4      28.435   3.931  38.219  1.00 15.34 LIG 0.04  C 
BRANCH 29 31
ATOM     31  C   ALA C   4      27.279   6.066  38.933  1.00 16.13 LIG 0.28  C 
ATOM     32 O    ALA C   4      27.530   6.549  37.832  1.00 17.37 LIG-0.27  OA
ATOM     33  N   NH2 C   5      26.409   6.619  39.775  1.00 15.73 LIG-0.11  N 
ENDBRANCH 29 31
ENDBRANCH 26 29
ENDBRANCH 24 25
BRANCH 24 34
ATOM     34  CB  THR C   3      26.479   2.855  43.065  1.00 16.10 LIG 0.15  C 
ATOM     35  CG2 THR C   3      27.786   3.600  43.315  1.00 16.48 LIG 0.04  C 
BRANCH 34 36
ATOM     36 OG1  THR C   3      25.392   3.786  43.155  1.00 16.89 LIG-0.39  OA
ATOM     37 HG1  THR C   3      24.739   3.499  42.711  1.00 16.89 LIG 0.21  HD
ENDBRANCH 34 36
ENDBRANCH 24 34
ENDBRANCH 21 24
ENDBRANCH 1 20
TORSDOF 12
ENDMDL
MODEL 42
USER: ADFR SOLUTION from run 46
USER: SCORE 10.542716 LL:  -2.278 LR:  -9.837 RR:   0.000 FEB:  -6.257
USER: RMSD 8.717780
USER: SEED 45
USER: STATUS no improvement in best in 16 clusters for 5 generations
USER: GENES 14
USER: genes 0 Translation |==|  0.65896 0.60691 0.35913
USER: genes 1 Rotation |==|  0.85059 0.76396 0.48212 0.73894
USER: genes 2 Torsion [CB]-CA--N-[C] |==|  0.23250
USER: genes 3 Torsion [N]-C--CA-[N] |==|  0.39519
USER: genes 4 Torsion [C]-CA--N-[C] |==|  0.79820
USER: genes 5 Torsion [C]-CA--CB-[CG] |==|  0.52804
USER: genes 6 Torsion [CA]-CB--CG-[CD2] |==|  0.92102
USER: genes 7 Torsion [N]-CA--C-[N] |==|  0.95725
USER: genes 8 Torsion [C]-N--CA-[CB] |==|  0.50002
USER: genes 9 Torsion [N]-CA--C-[N] |==|  0.44925
USER: genes 10 Torsion [C]-N--CA-[CB] |==|  0.86436
USER: genes 11 Torsion [N]-CA--C-[N] |==|  0.32383
USER: genes 12 Torsion [N]-CA--CB-[OG1] |==|  0.02433
USER: genes 13 Torsion [CA]-CB--OG1-[HG1] |==|  0.06983
ROOT
ATOM      1  CA  ALA C   2      27.635   4.069  39.757  1.00 19.98 LIG 0.17  C 
ATOM      2  CB  ALA C   2      29.033   4.509  40.196  1.00 20.88 LIG 0.04  C 
ENDROOT
BRANCH 1 3
ATOM      3  N   ALA C   2      26.620   4.973  40.274  1.00 19.64 LIG-0.35  N 
ATOM      4 H    ALA C   2      26.239   4.722  41.002  1.00 19.64 LIG 0.16  HD
ATOM      5  C   PHE C   1      26.349   6.089  39.620  1.00 22.16 LIG 0.24  C 
ATOM      6 O    PHE C   1      26.998   6.430  38.631  1.00 23.85 LIG-0.27  OA
BRANCH 5 7
ATOM      7  CA  PHE C   1      25.248   6.977  40.174  1.00 22.77 LIG 0.18  C 
BRANCH 7 8
ATOM      8  N   PHE C   1      25.664   8.342  39.984  1.00 26.70 LIG-0.35  N 
ATOM      9 H    PHE C   1      25.236   8.758  39.365  1.00 26.70 LIG 0.16  HD
ATOM     10  C   ACE C   0      26.616   8.883  40.705  1.00 28.63 LIG 0.21  C 
ATOM     11  CH3 ACE C   0      26.861  10.332  40.347  1.00 28.20 LIG 0.12  C 
ATOM     12 O    ACE C   0      27.203   8.212  41.560  1.00 29.97 LIG-0.27  OA
ENDBRANCH 7 8
BRANCH 7 13
ATOM     13  CB  PHE C   1      23.927   6.818  39.447  1.00 20.34 LIG 0.07  C 
BRANCH 13 14
ATOM     14  CG  PHE C   1      22.913   7.864  39.834  1.00 17.40 LIG-0.06  A 
ATOM     15  CD1 PHE C   1      21.918   8.305  38.956  1.00 16.88 LIG 0.01  A 
ATOM     16  CE1 PHE C   1      21.004   9.304  39.359  1.00 14.02 LIG 0.00  A 
ATOM     17  CZ  PHE C   1      21.097   9.835  40.592  1.00 15.72 LIG 0.00  A 
ATOM     18  CE2 PHE C   1      22.079   9.399  41.460  1.00 14.79 LIG 0.00  A 
ATOM     19  CD2 PHE C   1      22.963   8.422  41.081  1.00 15.53 LIG 0.01  A 
ENDBRANCH 13 14
ENDBRANCH 7 13
ENDBRANCH 5 7
ENDBRANCH 1 3
BRANCH 1 20
ATOM     20  C   ALA C   2      27.378   2.664  40.262  1.00 17.39 LIG 0.24  C 
ATOM     21  N   THR C   3      26.529   2.574  41.289  1.00 15.98 LIG-0.34  N 
ATOM     22 H    THR C   3      26.167   3.248  41.683  1.00 15.98 LIG 0.16  HD
ATOM     23 O    ALA C   2      27.905   1.693  39.711  1.00 16.73 LIG-0.27  OA
BRANCH 21 24
ATOM     24  CA  THR C   3      26.152   1.278  41.825  1.00 15.15 LIG 0.20  C 
BRANCH 24 25
ATOM     25  C   THR C   3      25.550   0.403  40.739  1.00 14.93 LIG 0.24  C 
ATOM     26  N   ALA C   4      25.523  -0.891  41.008  1.00 13.95 LIG-0.35  N 
ATOM     27 H    ALA C   4      25.862  -1.236  41.719  1.00 13.95 LIG 0.16  HD
ATOM     28 O    THR C   3      25.085   0.889  39.703  1.00 16.43 LIG-0.27  OA
BRANCH 26 29
ATOM     29  CA  ALA C   4      24.915  -1.856  40.123  1.00 14.93 LIG 0.18  C 
ATOM     30  CB  ALA C   4      23.527  -1.357  39.736  1.00 15.34 LIG 0.04  C 
BRANCH 29 31
ATOM     31  C   ALA C   4      25.797  -2.094  38.893  1.00 16.13 LIG 0.28  C 
ATOM     32 O    ALA C   4      26.021  -1.183  38.101  1.00 17.37 LIG-0.27  OA
ATOM     33  N   NH2 C   5      26.291  -3.320  38.732  1.00 15.73 LIG-0.11  N 
ENDBRANCH 29 31
ENDBRANCH 26 29
ENDBRANCH 24 25
BRANCH 24 34
ATOM     34  CB  THR C   3      25.171   1.416  42.997  1.00 16.10 LIG 0.15  C 
ATOM     35  CG2 THR C   3      25.798   1.006  44.325  1.00 16.48 LIG 0.04  C 
BRANCH 34 36
ATOM     36 OG1  THR C   3      24.757   2.786  43.084  1.00 16.89 LIG-0.39  OA
ATOM     37 HG1  THR C   3      24.833   3.151  42.331  1.00 16.89 LIG 0.21  HD
ENDBRANCH 34 36
ENDBRANCH 24 34
ENDBRANCH 21 24
ENDBRANCH 1 20
TORSDOF 12
ENDMDL
MODEL 43
USER: ADFR SOLUTION from run 171
USER: SCORE 10.698772 LL:  -2.317 LR:  -9.816 RR:   0.000 FEB:  -6.237
USER: RMSD 9.876249
USER: SEED 170
USER: STATUS no improvement in best in 18 clusters for 5 generations
USER: GENES 14
USER: genes 0 Translation |==|  0.40953 0.63253 0.55399
USER: genes 1 Rotation |==|  0.66702 0.94711 0.51944 0.64772
USER: genes 2 Torsion [CB]-CA--N-[C] |==|  0.86110
USER: genes 3 Torsion [N]-C--CA-[N] |==|  0.95315
USER: genes 4 Torsion [C]-CA--N-[C] |==|  0.78155
USER: genes 5 Torsion [C]-CA--CB-[CG] |==|  0.39328
USER: genes 6 Torsion [CA]-CB--CG-[CD2] |==|  0.05195
USER: genes 7 Torsion [N]-CA--C-[N] |==|  0.48293
USER: genes 8 Torsion [C]-N--CA-[CB] |==|  0.21342
USER: genes 9 Torsion [N]-CA--C-[N] |==|  0.95861
USER: genes 10 Torsion [C]-N--CA-[CB] |==|  0.17554
USER: genes 11 Torsion [N]-CA--C-[N] |==|  0.08831
USER: genes 12 Torsion [N]-CA--CB-[OG1] |==|  0.06439
USER: genes 13 Torsion [CA]-CB--OG1-[HG1] |==|  0.04793
ROOT
ATOM      1  CA  ALA C   2      22.958   4.492  43.849  1.00 19.98 LIG 0.17  C 
ATOM      2  CB  ALA C   2      23.380   5.962  43.800  1.00 20.88 LIG 0.04  C 
ENDROOT
BRANCH 1 3
ATOM      3  N   ALA C   2      21.994   4.264  44.912  1.00 19.64 LIG-0.35  N 
ATOM      4 H    ALA C   2      21.283   3.838  44.682  1.00 19.64 LIG 0.16  HD
ATOM      5  C   PHE C   1      22.252   4.708  46.131  1.00 22.16 LIG 0.24  C 
ATOM      6 O    PHE C   1      23.330   5.231  46.411  1.00 23.85 LIG-0.27  OA
BRANCH 5 7
ATOM      7  CA  PHE C   1      21.192   4.488  47.197  1.00 22.77 LIG 0.18  C 
BRANCH 7 8
ATOM      8  N   PHE C   1      19.961   4.180  46.519  1.00 26.70 LIG-0.35  N 
ATOM      9 H    PHE C   1      19.763   3.343  46.509  1.00 26.70 LIG 0.16  HD
ATOM     10  C   ACE C   0      19.220   5.112  45.970  1.00 28.63 LIG 0.21  C 
ATOM     11  CH3 ACE C   0      17.962   4.555  45.340  1.00 28.20 LIG 0.12  C 
ATOM     12 O    ACE C   0      19.584   6.291  46.002  1.00 29.97 LIG-0.27  OA
ENDBRANCH 7 8
BRANCH 7 13
ATOM     13  CB  PHE C   1      21.493   3.316  48.109  1.00 20.34 LIG 0.07  C 
BRANCH 13 14
ATOM     14  CG  PHE C   1      21.120   3.576  49.546  1.00 17.40 LIG-0.06  A 
ATOM     15  CD1 PHE C   1      21.627   2.814  50.603  1.00 16.88 LIG 0.01  A 
ATOM     16  CE1 PHE C   1      21.228   3.084  51.931  1.00 14.02 LIG 0.00  A 
ATOM     17  CZ  PHE C   1      20.353   4.076  52.177  1.00 15.72 LIG 0.00  A 
ATOM     18  CE2 PHE C   1      19.852   4.830  51.133  1.00 14.79 LIG 0.00  A 
ATOM     19  CD2 PHE C   1      20.242   4.582  49.842  1.00 15.53 LIG 0.01  A 
ENDBRANCH 13 14
ENDBRANCH 7 13
ENDBRANCH 5 7
ENDBRANCH 1 3
BRANCH 1 20
ATOM     20  C   ALA C   2      24.185   3.633  44.074  1.00 17.39 LIG 0.24  C 
ATOM     21  N   THR C   3      25.089   3.661  43.090  1.00 15.98 LIG-0.34  N 
ATOM     22 H    THR C   3      24.993   4.095  42.353  1.00 15.98 LIG 0.16  HD
ATOM     23 O    ALA C   2      24.323   2.997  45.124  1.00 16.73 LIG-0.27  OA
BRANCH 21 24
ATOM     24  CA  THR C   3      26.338   2.931  43.213  1.00 15.15 LIG 0.20  C 
BRANCH 24 25
ATOM     25  C   THR C   3      27.376   3.478  42.249  1.00 14.93 LIG 0.24  C 
ATOM     26  N   ALA C   4      26.902   4.262  41.295  1.00 13.95 LIG-0.35  N 
ATOM     27 H    ALA C   4      26.063   4.420  41.183  1.00 13.95 LIG 0.16  HD
ATOM     28 O    THR C   3      28.579   3.234  42.388  1.00 16.43 LIG-0.27  OA
BRANCH 26 29
ATOM     29  CA  ALA C   4      27.755   4.931  40.343  1.00 14.93 LIG 0.18  C 
ATOM     30  CB  ALA C   4      28.481   3.878  39.513  1.00 15.34 LIG 0.04  C 
BRANCH 29 31
ATOM     31  C   ALA C   4      26.942   5.886  39.463  1.00 16.13 LIG 0.28  C 
ATOM     32 O    ALA C   4      27.278   6.101  38.301  1.00 17.37 LIG-0.27  OA
ATOM     33  N   NH2 C   5      25.878   6.462  40.019  1.00 15.73 LIG-0.11  N 
ENDBRANCH 29 31
ENDBRANCH 26 29
ENDBRANCH 24 25
BRANCH 24 34
ATOM     34  CB  THR C   3      26.136   1.428  42.976  1.00 16.10 LIG 0.15  C 
ATOM     35  CG2 THR C   3      25.989   0.654  44.282  1.00 16.48 LIG 0.04  C 
BRANCH 34 36
ATOM     36 OG1  THR C   3      24.949   1.245  42.194  1.00 16.89 LIG-0.39  OA
ATOM     37 HG1  THR C   3      24.739   1.972  41.829  1.00 16.89 LIG 0.21  HD
ENDBRANCH 34 36
ENDBRANCH 24 34
ENDBRANCH 21 24
ENDBRANCH 1 20
TORSDOF 12
ENDMDL
MODEL 44
USER: ADFR SOLUTION from run 194
USER: SCORE 10.572251 LL:  -2.432 LR:  -9.779 RR:   0.000 FEB:  -6.200
USER: RMSD 3.033823
USER: SEED 193
USER: STATUS no improvement in best in 17 clusters for 5 generations
USER: GENES 14
USER: genes 0 Translation |==|  0.56840 0.34491 0.59445
USER: genes 1 Rotation |==|  0.56885 0.47299 0.22509 0.91104
USER: genes 2 Torsion [CB]-CA--N-[C] |==|  0.22163
USER: genes 3 Torsion [N]-C--CA-[N] |==|  0.36574
USER: genes 4 Torsion [C]-CA--N-[C] |==|  0.64752
USER: genes 5 Torsion [C]-CA--CB-[CG] |==|  0.48962
USER: genes 6 Torsion [CA]-CB--CG-[CD2] |==|  0.23459
USER: genes 7 Torsion [N]-CA--C-[N] |==|  0.06762
USER: genes 8 Torsion [C]-N--CA-[CB] |==|  0.49486
USER: genes 9 Torsion [N]-CA--C-[N] |==|  0.32260
USER: genes 10 Torsion [C]-N--CA-[CB] |==|  0.84762
USER: genes 11 Torsion [N]-CA--C-[N] |==|  0.37414
USER: genes 12 Torsion [N]-CA--CB-[OG1] |==|  0.80895
USER: genes 13 Torsion [CA]-CB--OG1-[HG1] |==|  0.20063
ROOT
ATOM      1  CA  ALA C   2      25.937  -0.254  44.698  1.00 19.98 LIG 0.17  C 
ATOM      2  CB  ALA C   2      27.397  -0.406  45.129  1.00 20.88 LIG 0.04  C 
ENDROOT
BRANCH 1 3
ATOM      3  N   ALA C   2      25.835  -0.096  43.257  1.00 19.64 LIG-0.35  N 
ATOM      4 H    ALA C   2      25.727   0.711  42.981  1.00 19.64 LIG 0.16  HD
ATOM      5  C   PHE C   1      25.909  -1.161  42.478  1.00 22.16 LIG 0.24  C 
ATOM      6 O    PHE C   1      26.154  -2.278  42.936  1.00 23.85 LIG-0.27  OA
BRANCH 5 7
ATOM      7  CA  PHE C   1      25.749  -0.950  40.982  1.00 22.77 LIG 0.18  C 
BRANCH 7 8
ATOM      8  N   PHE C   1      26.826  -1.651  40.335  1.00 26.70 LIG-0.35  N 
ATOM      9 H    PHE C   1      26.896  -2.478  40.560  1.00 26.70 LIG 0.16  HD
ATOM     10  C   ACE C   0      27.621  -1.059  39.476  1.00 28.63 LIG 0.21  C 
ATOM     11  CH3 ACE C   0      28.659  -2.000  38.905  1.00 28.20 LIG 0.12  C 
ATOM     12 O    ACE C   0      27.474   0.140  39.221  1.00 29.97 LIG-0.27  OA
ENDBRANCH 7 8
BRANCH 7 13
ATOM     13  CB  PHE C   1      24.460  -1.525  40.430  1.00 20.34 LIG 0.07  C 
BRANCH 13 14
ATOM     14  CG  PHE C   1      24.266  -1.234  38.965  1.00 17.40 LIG-0.06  A 
ATOM     15  CD1 PHE C   1      23.497  -0.158  38.508  1.00 16.88 LIG 0.01  A 
ATOM     16  CE1 PHE C   1      23.327   0.059  37.123  1.00 14.02 LIG 0.00  A 
ATOM     17  CZ  PHE C   1      23.904  -0.777  36.240  1.00 15.72 LIG 0.00  A 
ATOM     18  CE2 PHE C   1      24.664  -1.839  36.690  1.00 14.79 LIG 0.00  A 
ATOM     19  CD2 PHE C   1      24.844  -2.051  38.033  1.00 15.53 LIG 0.01  A 
ENDBRANCH 13 14
ENDBRANCH 7 13
ENDBRANCH 5 7
ENDBRANCH 1 3
BRANCH 1 20
ATOM     20  C   ALA C   2      25.342   0.954  45.392  1.00 17.39 LIG 0.24  C 
ATOM     21  N   THR C   3      24.434   1.630  44.682  1.00 15.98 LIG-0.34  N 
ATOM     22 H    THR C   3      24.210   1.441  43.873  1.00 15.98 LIG 0.16  HD
ATOM     23 O    ALA C   2      25.669   1.239  46.549  1.00 16.73 LIG-0.27  OA
BRANCH 21 24
ATOM     24  CA  THR C   3      23.744   2.770  45.259  1.00 15.15 LIG 0.20  C 
BRANCH 24 25
ATOM     25  C   THR C   3      22.990   2.363  46.513  1.00 14.93 LIG 0.24  C 
ATOM     26  N   ALA C   4      23.408   2.931  47.631  1.00 13.95 LIG-0.35  N 
ATOM     27 H    ALA C   4      24.088   3.457  47.672  1.00 13.95 LIG 0.16  HD
ATOM     28 O    THR C   3      22.029   1.588  46.465  1.00 16.43 LIG-0.27  OA
BRANCH 26 29
ATOM     29  CA  ALA C   4      22.755   2.719  48.901  1.00 14.93 LIG 0.18  C 
ATOM     30  CB  ALA C   4      21.279   3.072  48.756  1.00 15.34 LIG 0.04  C 
BRANCH 29 31
ATOM     31  C   ALA C   4      22.951   1.276  49.377  1.00 16.13 LIG 0.28  C 
ATOM     32 O    ALA C   4      22.791   0.337  48.601  1.00 17.37 LIG-0.27  OA
ATOM     33  N   NH2 C   5      23.291   1.101  50.652  1.00 15.73 LIG-0.11  N 
ENDBRANCH 29 31
ENDBRANCH 26 29
ENDBRANCH 24 25
BRANCH 24 34
ATOM     34  CB  THR C   3      22.784   3.416  44.250  1.00 16.10 LIG 0.15  C 
ATOM     35  CG2 THR C   3      21.893   4.471  44.898  1.00 16.48 LIG 0.04  C 
BRANCH 34 36
ATOM     36 OG1  THR C   3      23.560   4.038  43.217  1.00 16.89 LIG-0.39  OA
ATOM     37 HG1  THR C   3      23.900   3.446  42.728  1.00 16.89 LIG 0.21  HD
ENDBRANCH 34 36
ENDBRANCH 24 34
ENDBRANCH 21 24
ENDBRANCH 1 20
TORSDOF 12
ENDMDL
MODEL 45
USER: ADFR SOLUTION from run 58
USER: SCORE 9.949741 LL:  -2.272 LR:  -9.784 RR:   0.000 FEB:  -6.205
USER: RMSD 5.025166
USER: SEED 57
USER: STATUS no improvement in best in 18 clusters for 5 generations
USER: GENES 14
USER: genes 0 Translation |==|  0.49940 0.47913 0.55663
USER: genes 1 Rotation |==|  0.47477 0.32050 0.07366 0.68808
USER: genes 2 Torsion [CB]-CA--N-[C] |==|  0.82778
USER: genes 3 Torsion [N]-C--CA-[N] |==|  0.61850
USER: genes 4 Torsion [C]-CA--N-[C] |==|  0.17174
USER: genes 5 Torsion [C]-CA--CB-[CG] |==|  0.44467
USER: genes 6 Torsion [CA]-CB--CG-[CD2] |==|  0.17570
USER: genes 7 Torsion [N]-CA--C-[N] |==|  0.15415
USER: genes 8 Torsion [C]-N--CA-[CB] |==|  0.25746
USER: genes 9 Torsion [N]-CA--C-[N] |==|  0.96196
USER: genes 10 Torsion [C]-N--CA-[CB] |==|  0.85427
USER: genes 11 Torsion [N]-CA--C-[N] |==|  0.94444
USER: genes 12 Torsion [N]-CA--CB-[OG1] |==|  0.08038
USER: genes 13 Torsion [CA]-CB--OG1-[HG1] |==|  0.07212
ROOT
ATOM      1  CA  ALA C   2      24.643   1.961  43.904  1.00 19.98 LIG 0.17  C 
ATOM      2  CB  ALA C   2      25.068   0.976  44.996  1.00 20.88 LIG 0.04  C 
ENDROOT
BRANCH 1 3
ATOM      3  N   ALA C   2      24.662   1.326  42.597  1.00 19.64 LIG-0.35  N 
ATOM      4 H    ALA C   2      23.904   1.286  42.194  1.00 19.64 LIG 0.16  HD
ATOM      5  C   PHE C   1      25.802   0.861  42.116  1.00 22.16 LIG 0.24  C 
ATOM      6 O    PHE C   1      26.868   1.032  42.707  1.00 23.85 LIG-0.27  OA
BRANCH 5 7
ATOM      7  CA  PHE C   1      25.763   0.163  40.767  1.00 22.77 LIG 0.18  C 
BRANCH 7 8
ATOM      8  N   PHE C   1      26.596  -1.006  40.867  1.00 26.70 LIG-0.35  N 
ATOM      9 H    PHE C   1      27.269  -1.006  40.332  1.00 26.70 LIG 0.16  HD
ATOM     10  C   ACE C   0      26.333  -1.975  41.710  1.00 28.63 LIG 0.21  C 
ATOM     11  CH3 ACE C   0      27.362  -3.084  41.656  1.00 28.20 LIG 0.12  C 
ATOM     12 O    ACE C   0      25.332  -1.915  42.430  1.00 29.97 LIG-0.27  OA
ENDBRANCH 7 8
BRANCH 7 13
ATOM     13  CB  PHE C   1      24.379  -0.320  40.382  1.00 20.34 LIG 0.07  C 
BRANCH 13 14
ATOM     14  CG  PHE C   1      24.232  -0.567  38.902  1.00 17.40 LIG-0.06  A 
ATOM     15  CD1 PHE C   1      23.334   0.151  38.107  1.00 16.88 LIG 0.01  A 
ATOM     16  CE1 PHE C   1      23.218  -0.134  36.728  1.00 14.02 LIG 0.00  A 
ATOM     17  CZ  PHE C   1      23.973  -1.105  36.181  1.00 15.72 LIG 0.00  A 
ATOM     18  CE2 PHE C   1      24.862  -1.813  36.966  1.00 14.79 LIG 0.00  A 
ATOM     19  CD2 PHE C   1      24.989  -1.536  38.303  1.00 15.53 LIG 0.01  A 
ENDBRANCH 13 14
ENDBRANCH 7 13
ENDBRANCH 5 7
ENDBRANCH 1 3
BRANCH 1 20
ATOM     20  C   ALA C   2      25.586   3.146  43.915  1.00 17.39 LIG 0.24  C 
ATOM     21  N   THR C   3      25.362   4.061  42.967  1.00 15.98 LIG-0.34  N 
ATOM     22 H    THR C   3      24.760   3.992  42.357  1.00 15.98 LIG 0.16  HD
ATOM     23 O    ALA C   2      26.463   3.243  44.779  1.00 16.73 LIG-0.27  OA
BRANCH 21 24
ATOM     24  CA  THR C   3      26.158   5.274  42.909  1.00 15.15 LIG 0.20  C 
BRANCH 24 25
ATOM     25  C   THR C   3      25.309   6.451  42.460  1.00 14.93 LIG 0.24  C 
ATOM     26  N   ALA C   4      24.134   6.133  41.943  1.00 13.95 LIG-0.35  N 
ATOM     27 H    ALA C   4      23.874   5.323  41.817  1.00 13.95 LIG 0.16  HD
ATOM     28 O    THR C   3      25.687   7.616  42.615  1.00 16.43 LIG-0.27  OA
BRANCH 26 29
ATOM     29  CA  ALA C   4      23.169   7.127  41.539  1.00 14.93 LIG 0.18  C 
ATOM     30  CB  ALA C   4      22.937   8.084  42.703  1.00 15.34 LIG 0.04  C 
BRANCH 29 31
ATOM     31  C   ALA C   4      23.644   7.864  40.283  1.00 16.13 LIG 0.28  C 
ATOM     32 O    ALA C   4      22.842   8.465  39.572  1.00 17.37 LIG-0.27  OA
ATOM     33  N   NH2 C   5      24.946   7.813  40.007  1.00 15.73 LIG-0.11  N 
ENDBRANCH 29 31
ENDBRANCH 26 29
ENDBRANCH 24 25
BRANCH 24 34
ATOM     34  CB  THR C   3      27.369   5.110  41.980  1.00 16.10 LIG 0.15  C 
ATOM     35  CG2 THR C   3      28.606   4.624  42.728  1.00 16.48 LIG 0.04  C 
BRANCH 34 36
ATOM     36 OG1  THR C   3      27.037   4.154  40.964  1.00 16.89 LIG-0.39  OA
ATOM     37 HG1  THR C   3      26.205   4.145  40.850  1.00 16.89 LIG 0.21  HD
ENDBRANCH 34 36
ENDBRANCH 24 34
ENDBRANCH 21 24
ENDBRANCH 1 20
TORSDOF 12
ENDMDL
MODEL 46
USER: ADFR SOLUTION from run 176
USER: SCORE 10.273422 LL:  -2.204 LR:  -9.778 RR:   0.000 FEB:  -6.198
USER: RMSD 8.511780
USER: SEED 175
USER: STATUS no improvement in best in 16 clusters for 5 generations
USER: GENES 14
USER: genes 0 Translation |==|  0.55261 0.48128 0.54370
USER: genes 1 Rotation |==|  0.81578 0.48391 0.84367 0.67864
USER: genes 2 Torsion [CB]-CA--N-[C] |==|  0.21505
USER: genes 3 Torsion [N]-C--CA-[N] |==|  0.33379
USER: genes 4 Torsion [C]-CA--N-[C] |==|  0.84700
USER: genes 5 Torsion [C]-CA--CB-[CG] |==|  0.46245
USER: genes 6 Torsion [CA]-CB--CG-[CD2] |==|  0.23814
USER: genes 7 Torsion [N]-CA--C-[N] |==|  0.55193
USER: genes 8 Torsion [C]-N--CA-[CB] |==|  0.52861
USER: genes 9 Torsion [N]-CA--C-[N] |==|  0.33687
USER: genes 10 Torsion [C]-N--CA-[CB] |==|  0.85520
USER: genes 11 Torsion [N]-CA--C-[N] |==|  0.42222
USER: genes 12 Torsion [N]-CA--CB-[OG1] |==|  0.01743
USER: genes 13 Torsion [CA]-CB--OG1-[HG1] |==|  0.79601
ROOT
ATOM      1  CA  ALA C   2      25.640   1.996  43.633  1.00 19.98 LIG 0.17  C 
ATOM      2  CB  ALA C   2      25.022   1.245  44.814  1.00 20.88 LIG 0.04  C 
ENDROOT
BRANCH 1 3
ATOM      3  N   ALA C   2      24.706   2.968  43.090  1.00 19.64 LIG-0.35  N 
ATOM      4 H    ALA C   2      24.313   2.736  42.362  1.00 19.64 LIG 0.16  HD
ATOM      5  C   PHE C   1      24.519   4.114  43.722  1.00 22.16 LIG 0.24  C 
ATOM      6 O    PHE C   1      25.048   4.344  44.810  1.00 23.85 LIG-0.27  OA
BRANCH 5 7
ATOM      7  CA  PHE C   1      23.569   5.117  43.091  1.00 22.77 LIG 0.18  C 
BRANCH 7 8
ATOM      8  N   PHE C   1      22.510   5.357  44.036  1.00 26.70 LIG-0.35  N 
ATOM      9 H    PHE C   1      22.398   6.185  44.238  1.00 26.70 LIG 0.16  HD
ATOM     10  C   ACE C   0      21.791   4.380  44.534  1.00 28.63 LIG 0.21  C 
ATOM     11  CH3 ACE C   0      20.722   4.874  45.483  1.00 28.20 LIG 0.12  C 
ATOM     12 O    ACE C   0      22.029   3.211  44.215  1.00 29.97 LIG-0.27  OA
ENDBRANCH 7 8
BRANCH 7 13
ATOM     13  CB  PHE C   1      24.214   6.459  42.809  1.00 20.34 LIG 0.07  C 
BRANCH 13 14
ATOM     14  CG  PHE C   1      23.386   7.332  41.902  1.00 17.40 LIG-0.06  A 
ATOM     15  CD1 PHE C   1      23.588   7.383  40.519  1.00 16.88 LIG 0.01  A 
ATOM     16  CE1 PHE C   1      22.799   8.235  39.715  1.00 14.02 LIG 0.00  A 
ATOM     17  CZ  PHE C   1      21.853   9.004  40.284  1.00 15.72 LIG 0.00  A 
ATOM     18  CE2 PHE C   1      21.652   8.953  41.650  1.00 14.79 LIG 0.00  A 
ATOM     19  CD2 PHE C   1      22.406   8.122  42.438  1.00 15.53 LIG 0.01  A 
ENDBRANCH 13 14
ENDBRANCH 7 13
ENDBRANCH 5 7
ENDBRANCH 1 3
BRANCH 1 20
ATOM     20  C   ALA C   2      26.025   0.997  42.561  1.00 17.39 LIG 0.24  C 
ATOM     21  N   THR C   3      26.550  -0.146  43.009  1.00 15.98 LIG-0.34  N 
ATOM     22 H    THR C   3      26.708  -0.318  43.837  1.00 15.98 LIG 0.16  HD
ATOM     23 O    ALA C   2      25.815   1.243  41.369  1.00 16.73 LIG-0.27  OA
BRANCH 21 24
ATOM     24  CA  THR C   3      26.902  -1.210  42.085  1.00 15.15 LIG 0.20  C 
BRANCH 24 25
ATOM     25  C   THR C   3      25.777  -1.454  41.095  1.00 14.93 LIG 0.24  C 
ATOM     26  N   ALA C   4      26.104  -1.305  39.822  1.00 13.95 LIG-0.35  N 
ATOM     27 H    ALA C   4      26.879  -1.041  39.559  1.00 13.95 LIG 0.16  HD
ATOM     28 O    THR C   3      24.654  -1.808  41.468  1.00 16.43 LIG-0.27  OA
BRANCH 26 29
ATOM     29  CA  ALA C   4      25.181  -1.575  38.746  1.00 14.93 LIG 0.18  C 
ATOM     30  CB  ALA C   4      24.602  -2.972  38.937  1.00 15.34 LIG 0.04  C 
BRANCH 29 31
ATOM     31  C   ALA C   4      24.083  -0.507  38.694  1.00 16.13 LIG 0.28  C 
ATOM     32 O    ALA C   4      23.739   0.083  39.715  1.00 17.37 LIG-0.27  OA
ATOM     33  N   NH2 C   5      23.530  -0.266  37.507  1.00 15.73 LIG-0.11  N 
ENDBRANCH 29 31
ENDBRANCH 26 29
ENDBRANCH 24 25
BRANCH 24 34
ATOM     34  CB  THR C   3      27.245  -2.509  42.827  1.00 16.10 LIG 0.15  C 
ATOM     35  CG2 THR C   3      28.710  -2.898  42.660  1.00 16.48 LIG 0.04  C 
BRANCH 34 36
ATOM     36 OG1  THR C   3      26.972  -2.323  44.222  1.00 16.89 LIG-0.39  OA
ATOM     37 HG1  THR C   3      27.560  -1.827  44.559  1.00 16.89 LIG 0.21  HD
ENDBRANCH 34 36
ENDBRANCH 24 34
ENDBRANCH 21 24
ENDBRANCH 1 20
TORSDOF 12
ENDMDL
MODEL 47
USER: ADFR SOLUTION from run 181
USER: SCORE 11.132198 LL:  -2.413 LR:  -9.783 RR:   0.000 FEB:  -6.203
USER: RMSD 3.614682
USER: SEED 180
USER: STATUS no improvement in best in 24 clusters for 5 generations
USER: GENES 14
USER: genes 0 Translation |==|  0.49163 0.47338 0.58206
USER: genes 1 Rotation |==|  0.54423 0.42066 0.25733 0.92762
USER: genes 2 Torsion [CB]-CA--N-[C] |==|  0.18296
USER: genes 3 Torsion [N]-C--CA-[N] |==|  0.33807
USER: genes 4 Torsion [C]-CA--N-[C] |==|  0.76881
USER: genes 5 Torsion [C]-CA--CB-[CG] |==|  0.47470
USER: genes 6 Torsion [CA]-CB--CG-[CD2] |==|  0.78681
USER: genes 7 Torsion [N]-CA--C-[N] |==|  0.16887
USER: genes 8 Torsion [C]-N--CA-[CB] |==|  0.85556
USER: genes 9 Torsion [N]-CA--C-[N] |==|  0.94358
USER: genes 10 Torsion [C]-N--CA-[CB] |==|  0.14282
USER: genes 11 Torsion [N]-CA--C-[N] |==|  0.07801
USER: genes 12 Torsion [N]-CA--CB-[OG1] |==|  0.85706
USER: genes 13 Torsion [CA]-CB--OG1-[HG1] |==|  0.88552
ROOT
ATOM      1  CA  ALA C   2      24.497   1.866  44.438  1.00 19.98 LIG 0.17  C 
ATOM      2  CB  ALA C   2      25.889   1.982  45.063  1.00 20.88 LIG 0.04  C 
ENDROOT
BRANCH 1 3
ATOM      3  N   ALA C   2      24.587   1.715  42.996  1.00 19.64 LIG-0.35  N 
ATOM      4 H    ALA C   2      24.268   2.367  42.535  1.00 19.64 LIG 0.16  HD
ATOM      5  C   PHE C   1      25.134   0.623  42.488  1.00 22.16 LIG 0.24  C 
ATOM      6 O    PHE C   1      25.652  -0.231  43.207  1.00 23.85 LIG-0.27  OA
BRANCH 5 7
ATOM      7  CA  PHE C   1      25.161   0.490  40.975  1.00 22.77 LIG 0.18  C 
BRANCH 7 8
ATOM      8  N   PHE C   1      26.538   0.347  40.584  1.00 26.70 LIG-0.35  N 
ATOM      9 H    PHE C   1      26.789  -0.467  40.466  1.00 26.70 LIG 0.16  HD
ATOM     10  C   ACE C   0      27.325   1.384  40.426  1.00 28.63 LIG 0.21  C 
ATOM     11  CH3 ACE C   0      28.719   0.991  39.986  1.00 28.20 LIG 0.12  C 
ATOM     12 O    ACE C   0      26.899   2.523  40.639  1.00 29.97 LIG-0.27  OA
ENDBRANCH 7 8
BRANCH 7 13
ATOM     13  CB  PHE C   1      24.433  -0.739  40.468  1.00 20.34 LIG 0.07  C 
BRANCH 13 14
ATOM     14  CG  PHE C   1      24.275  -0.753  38.970  1.00 17.40 LIG-0.06  A 
ATOM     15  CD1 PHE C   1      25.079  -1.537  38.137  1.00 16.88 LIG 0.01  A 
ATOM     16  CE1 PHE C   1      24.906  -1.498  36.736  1.00 14.02 LIG 0.00  A 
ATOM     17  CZ  PHE C   1      23.965  -0.698  36.202  1.00 15.72 LIG 0.00  A 
ATOM     18  CE2 PHE C   1      23.169   0.076  37.023  1.00 14.79 LIG 0.00  A 
ATOM     19  CD2 PHE C   1      23.323   0.037  38.385  1.00 15.53 LIG 0.01  A 
ENDBRANCH 13 14
ENDBRANCH 7 13
ENDBRANCH 5 7
ENDBRANCH 1 3
BRANCH 1 20
ATOM     20  C   ALA C   2      23.699   3.108  44.777  1.00 17.39 LIG 0.24  C 
ATOM     21  N   THR C   3      22.439   3.114  44.335  1.00 15.98 LIG-0.34  N 
ATOM     22 H    THR C   3      22.087   2.491  43.857  1.00 15.98 LIG 0.16  HD
ATOM     23 O    ALA C   2      24.202   4.013  45.451  1.00 16.73 LIG-0.27  OA
BRANCH 21 24
ATOM     24  CA  THR C   3      21.551   4.220  44.647  1.00 15.15 LIG 0.20  C 
BRANCH 24 25
ATOM     25  C   THR C   3      21.958   5.467  43.882  1.00 14.93 LIG 0.24  C 
ATOM     26  N   ALA C   4      23.204   5.475  43.440  1.00 13.95 LIG-0.35  N 
ATOM     27 H    ALA C   4      23.772   4.851  43.608  1.00 13.95 LIG 0.16  HD
ATOM     28 O    THR C   3      21.155   6.379  43.660  1.00 16.43 LIG-0.27  OA
BRANCH 26 29
ATOM     29  CA  ALA C   4      23.733   6.544  42.627  1.00 14.93 LIG 0.18  C 
ATOM     30  CB  ALA C   4      23.443   7.872  43.317  1.00 15.34 LIG 0.04  C 
BRANCH 29 31
ATOM     31  C   ALA C   4      25.233   6.347  42.382  1.00 16.13 LIG 0.28  C 
ATOM     32 O    ALA C   4      25.964   7.314  42.182  1.00 17.37 LIG-0.27  OA
ATOM     33  N   NH2 C   5      25.688   5.096  42.391  1.00 15.73 LIG-0.11  N 
ENDBRANCH 29 31
ENDBRANCH 26 29
ENDBRANCH 24 25
BRANCH 24 34
ATOM     34  CB  THR C   3      21.521   4.510  46.154  1.00 16.10 LIG 0.15  C 
ATOM     35  CG2 THR C   3      20.448   5.528  46.524  1.00 16.48 LIG 0.04  C 
BRANCH 34 36
ATOM     36 OG1  THR C   3      21.255   3.284  46.848  1.00 16.89 LIG-0.39  OA
ATOM     37 HG1  THR C   3      20.665   2.851  46.435  1.00 16.89 LIG 0.21  HD
ENDBRANCH 34 36
ENDBRANCH 24 34
ENDBRANCH 21 24
ENDBRANCH 1 20
TORSDOF 12
ENDMDL
MODEL 48
USER: ADFR SOLUTION from run 84
USER: SCORE 9.733575 LL:  -2.610 LR:  -9.740 RR:   0.000 FEB:  -6.160
USER: RMSD 2.661197
USER: SEED 83
USER: STATUS no improvement in best in 20 clusters for 5 generations
USER: GENES 14
USER: genes 0 Translation |==|  0.49617 0.60490 0.57409
USER: genes 1 Rotation |==|  0.42896 0.46588 0.62471 0.97774
USER: genes 2 Torsion [CB]-CA--N-[C] |==|  0.47852
USER: genes 3 Torsion [N]-C--CA-[N] |==|  0.26667
USER: genes 4 Torsion [C]-CA--N-[C] |==|  0.68195
USER: genes 5 Torsion [C]-CA--CB-[CG] |==|  0.41898
USER: genes 6 Torsion [CA]-CB--CG-[CD2] |==|  0.39827
USER: genes 7 Torsion [N]-CA--C-[N] |==|  0.43769
USER: genes 8 Torsion [C]-N--CA-[CB] |==|  0.44398
USER: genes 9 Torsion [N]-CA--C-[N] |==|  0.93334
USER: genes 10 Torsion [C]-N--CA-[CB] |==|  0.20399
USER: genes 11 Torsion [N]-CA--C-[N] |==|  0.04518
USER: genes 12 Torsion [N]-CA--CB-[OG1] |==|  0.64810
USER: genes 13 Torsion [CA]-CB--OG1-[HG1] |==|  0.90691
ROOT
ATOM      1  CA  ALA C   2      24.582   4.036  44.271  1.00 19.98 LIG 0.17  C 
ATOM      2  CB  ALA C   2      24.531   5.536  43.975  1.00 20.88 LIG 0.04  C 
ENDROOT
BRANCH 1 3
ATOM      3  N   ALA C   2      24.982   3.288  43.090  1.00 19.64 LIG-0.35  N 
ATOM      4 H    ALA C   2      25.036   3.746  42.364  1.00 19.64 LIG 0.16  HD
ATOM      5  C   PHE C   1      25.230   1.994  43.192  1.00 22.16 LIG 0.24  C 
ATOM      6 O    PHE C   1      25.221   1.420  44.281  1.00 23.85 LIG-0.27  OA
BRANCH 5 7
ATOM      7  CA  PHE C   1      25.597   1.247  41.921  1.00 22.77 LIG 0.18  C 
BRANCH 7 8
ATOM      8  N   PHE C   1      27.034   1.187  41.861  1.00 26.70 LIG-0.35  N 
ATOM      9 H    PHE C   1      27.394   0.719  42.486  1.00 26.70 LIG 0.16  HD
ATOM     10  C   ACE C   0      27.715   1.802  40.924  1.00 28.63 LIG 0.21  C 
ATOM     11  CH3 ACE C   0      29.205   1.573  41.047  1.00 28.20 LIG 0.12  C 
ATOM     12 O    ACE C   0      27.128   2.478  40.074  1.00 29.97 LIG-0.27  OA
ENDBRANCH 7 8
BRANCH 7 13
ATOM     13  CB  PHE C   1      25.099  -0.184  41.901  1.00 20.34 LIG 0.07  C 
BRANCH 13 14
ATOM     14  CG  PHE C   1      24.819  -0.690  40.510  1.00 17.40 LIG-0.06  A 
ATOM     15  CD1 PHE C   1      24.266   0.120  39.513  1.00 16.88 LIG 0.01  A 
ATOM     16  CE1 PHE C   1      24.001  -0.409  38.231  1.00 14.02 LIG 0.00  A 
ATOM     17  CZ  PHE C   1      24.279  -1.700  37.970  1.00 15.72 LIG 0.00  A 
ATOM     18  CE2 PHE C   1      24.827  -2.500  38.954  1.00 14.79 LIG 0.00  A 
ATOM     19  CD2 PHE C   1      25.097  -1.993  40.198  1.00 15.53 LIG 0.01  A 
ENDBRANCH 13 14
ENDBRANCH 7 13
ENDBRANCH 5 7
ENDBRANCH 1 3
BRANCH 1 20
ATOM     20  C   ALA C   2      23.214   3.577  44.732  1.00 17.39 LIG 0.24  C 
ATOM     21  N   THR C   3      22.936   3.819  46.017  1.00 15.98 LIG-0.34  N 
ATOM     22 H    THR C   3      23.485   4.172  46.576  1.00 15.98 LIG 0.16  HD
ATOM     23 O    ALA C   2      22.426   3.055  43.938  1.00 16.73 LIG-0.27  OA
BRANCH 21 24
ATOM     24  CA  THR C   3      21.633   3.483  46.566  1.00 15.15 LIG 0.20  C 
BRANCH 24 25
ATOM     25  C   THR C   3      20.595   4.509  46.148  1.00 14.93 LIG 0.24  C 
ATOM     26  N   ALA C   4      21.075   5.701  45.834  1.00 13.95 LIG-0.35  N 
ATOM     27 H    ALA C   4      21.906   5.912  45.905  1.00 13.95 LIG 0.16  HD
ATOM     28 O    THR C   3      19.397   4.220  46.069  1.00 16.43 LIG-0.27  OA
BRANCH 26 29
ATOM     29  CA  ALA C   4      20.239   6.769  45.340  1.00 14.93 LIG 0.18  C 
ATOM     30  CB  ALA C   4      19.408   7.314  46.496  1.00 15.34 LIG 0.04  C 
BRANCH 29 31
ATOM     31  C   ALA C   4      21.089   7.863  44.686  1.00 16.13 LIG 0.28  C 
ATOM     32 O    ALA C   4      20.614   8.975  44.467  1.00 17.37 LIG-0.27  OA
ATOM     33  N   NH2 C   5      22.343   7.547  44.368  1.00 15.73 LIG-0.11  N 
ENDBRANCH 29 31
ENDBRANCH 26 29
ENDBRANCH 24 25
BRANCH 24 34
ATOM     34  CB  THR C   3      21.680   3.370  48.096  1.00 16.10 LIG 0.15  C 
ATOM     35  CG2 THR C   3      20.875   4.471  48.779  1.00 16.48 LIG 0.04  C 
BRANCH 34 36
ATOM     36 OG1  THR C   3      21.138   2.098  48.475  1.00 16.89 LIG-0.39  OA
ATOM     37 HG1  THR C   3      20.529   1.882  47.938  1.00 16.89 LIG 0.21  HD
ENDBRANCH 34 36
ENDBRANCH 24 34
ENDBRANCH 21 24
ENDBRANCH 1 20
TORSDOF 12
ENDMDL
MODEL 49
USER: ADFR SOLUTION from run 43
USER: SCORE 11.221376 LL:  -2.247 LR:  -9.745 RR:   0.000 FEB:  -6.165
USER: RMSD 3.474612
USER: SEED 42
USER: STATUS no improvement in best in 21 clusters for 5 generations
USER: GENES 14
USER: genes 0 Translation |==|  0.55750 0.44705 0.49573
USER: genes 1 Rotation |==|  0.39674 0.63191 0.42082 0.96440
USER: genes 2 Torsion [CB]-CA--N-[C] |==|  0.14068
USER: genes 3 Torsion [N]-C--CA-[N] |==|  0.37335
USER: genes 4 Torsion [C]-CA--N-[C] |==|  0.65120
USER: genes 5 Torsion [C]-CA--CB-[CG] |==|  0.88302
USER: genes 6 Torsion [CA]-CB--CG-[CD2] |==|  0.27194
USER: genes 7 Torsion [N]-CA--C-[N] |==|  0.11506
USER: genes 8 Torsion [C]-N--CA-[CB] |==|  0.84162
USER: genes 9 Torsion [N]-CA--C-[N] |==|  0.42168
USER: genes 10 Torsion [C]-N--CA-[CB] |==|  0.51111
USER: genes 11 Torsion [N]-CA--C-[N] |==|  0.43999
USER: genes 12 Torsion [N]-CA--CB-[OG1] |==|  0.89725
USER: genes 13 Torsion [CA]-CB--OG1-[HG1] |==|  0.23162
ROOT
ATOM      1  CA  ALA C   2      25.732   1.431  42.625  1.00 19.98 LIG 0.17  C 
ATOM      2  CB  ALA C   2      26.586   2.364  41.764  1.00 20.88 LIG 0.04  C 
ENDROOT
BRANCH 1 3
ATOM      3  N   ALA C   2      24.806   0.670  41.804  1.00 19.64 LIG-0.35  N 
ATOM      4 H    ALA C   2      23.985   0.687  42.060  1.00 19.64 LIG 0.16  HD
ATOM      5  C   PHE C   1      25.258   0.017  40.747  1.00 22.16 LIG 0.24  C 
ATOM      6 O    PHE C   1      26.432   0.109  40.386  1.00 23.85 LIG-0.27  OA
BRANCH 5 7
ATOM      7  CA  PHE C   1      24.260  -0.803  39.948  1.00 22.77 LIG 0.18  C 
BRANCH 7 8
ATOM      8  N   PHE C   1      24.490  -0.518  38.557  1.00 26.70 LIG-0.35  N 
ATOM      9 H    PHE C   1      25.301  -0.642  38.300  1.00 26.70 LIG 0.16  HD
ATOM     10  C   ACE C   0      23.529  -0.105  37.766  1.00 28.63 LIG 0.21  C 
ATOM     11  CH3 ACE C   0      23.999   0.103  36.343  1.00 28.20 LIG 0.12  C 
ATOM     12 O    ACE C   0      22.393   0.076  38.214  1.00 29.97 LIG-0.27  OA
ENDBRANCH 7 8
BRANCH 7 13
ATOM     13  CB  PHE C   1      24.437  -2.298  40.122  1.00 20.34 LIG 0.07  C 
BRANCH 13 14
ATOM     14  CG  PHE C   1      25.882  -2.726  40.110  1.00 17.40 LIG-0.06  A 
ATOM     15  CD1 PHE C   1      26.591  -2.941  38.924  1.00 16.88 LIG 0.01  A 
ATOM     16  CE1 PHE C   1      27.938  -3.363  38.966  1.00 14.02 LIG 0.00  A 
ATOM     17  CZ  PHE C   1      28.538  -3.564  40.153  1.00 15.72 LIG 0.00  A 
ATOM     18  CE2 PHE C   1      27.839  -3.351  41.325  1.00 14.79 LIG 0.00  A 
ATOM     19  CD2 PHE C   1      26.534  -2.931  41.294  1.00 15.53 LIG 0.01  A 
ENDBRANCH 13 14
ENDBRANCH 7 13
ENDBRANCH 5 7
ENDBRANCH 1 3
BRANCH 1 20
ATOM     20  C   ALA C   2      24.964   2.258  43.635  1.00 17.39 LIG 0.24  C 
ATOM     21  N   THR C   3      23.930   1.639  44.211  1.00 15.98 LIG-0.34  N 
ATOM     22 H    THR C   3      23.669   0.843  44.016  1.00 15.98 LIG 0.16  HD
ATOM     23 O    ALA C   2      25.324   3.408  43.910  1.00 16.73 LIG-0.27  OA
BRANCH 21 24
ATOM     24  CA  THR C   3      23.151   2.303  45.242  1.00 15.15 LIG 0.20  C 
BRANCH 24 25
ATOM     25  C   THR C   3      22.408   3.496  44.668  1.00 14.93 LIG 0.24  C 
ATOM     26  N   ALA C   4      21.281   3.808  45.286  1.00 13.95 LIG-0.35  N 
ATOM     27 H    ALA C   4      20.953   3.350  45.936  1.00 13.95 LIG 0.16  HD
ATOM     28 O    THR C   3      22.860   4.143  43.718  1.00 16.43 LIG-0.27  OA
BRANCH 26 29
ATOM     29  CA  ALA C   4      20.490   4.959  44.923  1.00 14.93 LIG 0.18  C 
ATOM     30  CB  ALA C   4      19.322   5.076  45.896  1.00 15.34 LIG 0.04  C 
BRANCH 29 31
ATOM     31  C   ALA C   4      21.350   6.227  44.914  1.00 16.13 LIG 0.28  C 
ATOM     32 O    ALA C   4      22.399   6.274  45.553  1.00 17.37 LIG-0.27  OA
ATOM     33  N   NH2 C   5      20.904   7.256  44.196  1.00 15.73 LIG-0.11  N 
ENDBRANCH 29 31
ENDBRANCH 26 29
ENDBRANCH 24 25
BRANCH 24 34
ATOM     34  CB  THR C   3      24.034   2.745  46.417  1.00 16.10 LIG 0.15  C 
ATOM     35  CG2 THR C   3      23.235   2.922  47.703  1.00 16.48 LIG 0.04  C 
BRANCH 34 36
ATOM     36 OG1  THR C   3      25.040   1.746  46.631  1.00 16.89 LIG-0.39  OA
ATOM     37 HG1  THR C   3      25.681   1.876  46.104  1.00 16.89 LIG 0.21  HD
ENDBRANCH 34 36
ENDBRANCH 24 34
ENDBRANCH 21 24
ENDBRANCH 1 20
TORSDOF 12
ENDMDL
MODEL 50
USER: ADFR SOLUTION from run 179
USER: SCORE 10.810909 LL:  -2.123 LR:  -9.732 RR:   0.000 FEB:  -6.152
USER: RMSD 2.324090
USER: SEED 178
USER: STATUS no improvement in best in 18 clusters for 5 generations
USER: GENES 14
USER: genes 0 Translation |==|  0.58446 0.50693 0.54494
USER: genes 1 Rotation |==|  0.32776 0.50791 0.63077 0.95074
USER: genes 2 Torsion [CB]-CA--N-[C] |==|  0.82576
USER: genes 3 Torsion [N]-C--CA-[N] |==|  0.08014
USER: genes 4 Torsion [C]-CA--N-[C] |==|  0.17379
USER: genes 5 Torsion [C]-CA--CB-[CG] |==|  0.27684
USER: genes 6 Torsion [CA]-CB--CG-[CD2] |==|  0.25991
USER: genes 7 Torsion [N]-CA--C-[N] |==|  0.25208
USER: genes 8 Torsion [C]-N--CA-[CB] |==|  0.51204
USER: genes 9 Torsion [N]-CA--C-[N] |==|  0.43854
USER: genes 10 Torsion [C]-N--CA-[CB] |==|  0.85000
USER: genes 11 Torsion [N]-CA--C-[N] |==|  0.38822
USER: genes 12 Torsion [N]-CA--CB-[OG1] |==|  0.88461
USER: genes 13 Torsion [CA]-CB--OG1-[HG1] |==|  0.21195
ROOT
ATOM      1  CA  ALA C   2      26.238   2.419  43.659  1.00 19.98 LIG 0.17  C 
ATOM      2  CB  ALA C   2      26.153   3.643  42.744  1.00 20.88 LIG 0.04  C 
ENDROOT
BRANCH 1 3
ATOM      3  N   ALA C   2      26.580   1.228  42.900  1.00 19.64 LIG-0.35  N 
ATOM      4 H    ALA C   2      27.326   0.857  43.111  1.00 19.64 LIG 0.16  HD
ATOM      5  C   PHE C   1      25.757   0.795  41.961  1.00 22.16 LIG 0.24  C 
ATOM      6 O    PHE C   1      24.661   1.323  41.772  1.00 23.85 LIG-0.27  OA
BRANCH 5 7
ATOM      7  CA  PHE C   1      26.181  -0.426  41.163  1.00 22.77 LIG 0.18  C 
BRANCH 7 8
ATOM      8  N   PHE C   1      27.023  -1.222  42.016  1.00 26.70 LIG-0.35  N 
ATOM      9 H    PHE C   1      27.829  -1.314  41.730  1.00 26.70 LIG 0.16  HD
ATOM     10  C   ACE C   0      26.579  -1.752  43.130  1.00 28.63 LIG 0.21  C 
ATOM     11  CH3 ACE C   0      27.649  -2.521  43.872  1.00 28.20 LIG 0.12  C 
ATOM     12 O    ACE C   0      25.400  -1.596  43.463  1.00 29.97 LIG-0.27  OA
ENDBRANCH 7 8
BRANCH 7 13
ATOM     13  CB  PHE C   1      25.019  -1.307  40.751  1.00 20.34 LIG 0.07  C 
BRANCH 13 14
ATOM     14  CG  PHE C   1      24.586  -1.082  39.325  1.00 17.40 LIG-0.06  A 
ATOM     15  CD1 PHE C   1      23.655  -0.101  38.970  1.00 16.88 LIG 0.01  A 
ATOM     16  CE1 PHE C   1      23.265   0.056  37.622  1.00 14.02 LIG 0.00  A 
ATOM     17  CZ  PHE C   1      23.788  -0.747  36.677  1.00 15.72 LIG 0.00  A 
ATOM     18  CE2 PHE C   1      24.709  -1.716  37.027  1.00 14.79 LIG 0.00  A 
ATOM     19  CD2 PHE C   1      25.102  -1.868  38.332  1.00 15.53 LIG 0.01  A 
ENDBRANCH 13 14
ENDBRANCH 7 13
ENDBRANCH 5 7
ENDBRANCH 1 3
BRANCH 1 20
ATOM     20  C   ALA C   2      24.902   2.225  44.347  1.00 17.39 LIG 0.24  C 
ATOM     21  N   THR C   3      24.965   1.713  45.580  1.00 15.98 LIG-0.34  N 
ATOM     22 H    THR C   3      25.692   1.465  45.967  1.00 15.98 LIG 0.16  HD
ATOM     23 O    ALA C   2      23.853   2.565  43.791  1.00 16.73 LIG-0.27  OA
BRANCH 21 24
ATOM     24  CA  THR C   3      23.759   1.537  46.369  1.00 15.15 LIG 0.20  C 
BRANCH 24 25
ATOM     25  C   THR C   3      22.970   2.832  46.439  1.00 14.93 LIG 0.24  C 
ATOM     26  N   ALA C   4      21.685   2.695  46.718  1.00 13.95 LIG-0.35  N 
ATOM     27 H    ALA C   4      21.297   1.932  46.807  1.00 13.95 LIG 0.16  HD
ATOM     28 O    THR C   3      23.516   3.930  46.287  1.00 16.43 LIG-0.27  OA
BRANCH 26 29
ATOM     29  CA  ALA C   4      20.805   3.824  46.901  1.00 14.93 LIG 0.18  C 
ATOM     30  CB  ALA C   4      21.402   4.742  47.961  1.00 15.34 LIG 0.04  C 
BRANCH 29 31
ATOM     31  C   ALA C   4      20.581   4.557  45.574  1.00 16.13 LIG 0.28  C 
ATOM     32 O    ALA C   4      21.513   4.731  44.793  1.00 17.37 LIG-0.27  OA
ATOM     33  N   NH2 C   5      19.348   4.993  45.324  1.00 15.73 LIG-0.11  N 
ENDBRANCH 29 31
ENDBRANCH 26 29
ENDBRANCH 24 25
BRANCH 24 34
ATOM     34  CB  THR C   3      24.081   1.036  47.784  1.00 16.10 LIG 0.15  C 
ATOM     35  CG2 THR C   3      22.862   0.429  48.471  1.00 16.48 LIG 0.04  C 
BRANCH 34 36
ATOM     36 OG1  THR C   3      25.105   0.037  47.691  1.00 16.89 LIG-0.39  OA
ATOM     37 HG1  THR C   3      25.847   0.408  47.558  1.00 16.89 LIG 0.21  HD
ENDBRANCH 34 36
ENDBRANCH 24 34
ENDBRANCH 21 24
ENDBRANCH 1 20
TORSDOF 12
ENDMDL
MODEL 51
USER: ADFR SOLUTION from run 79
USER: SCORE 10.516136 LL:  -2.270 LR:  -9.733 RR:   0.000 FEB:  -6.154
USER: RMSD 3.021832
USER: SEED 78
USER: STATUS no improvement in best in 16 clusters for 5 generations
USER: GENES 14
USER: genes 0 Translation |==|  0.55847 0.41812 0.57140
USER: genes 1 Rotation |==|  0.38509 0.49910 0.45618 0.98464
USER: genes 2 Torsion [CB]-CA--N-[C] |==|  0.86652
USER: genes 3 Torsion [N]-C--CA-[N] |==|  0.46971
USER: genes 4 Torsion [C]-CA--N-[C] |==|  0.54476
USER: genes 5 Torsion [C]-CA--CB-[CG] |==|  0.81021
USER: genes 6 Torsion [CA]-CB--CG-[CD2] |==|  0.17789
USER: genes 7 Torsion [N]-CA--C-[N] |==|  0.32778
USER: genes 8 Torsion [C]-N--CA-[CB] |==|  0.52436
USER: genes 9 Torsion [N]-CA--C-[N] |==|  0.39500
USER: genes 10 Torsion [C]-N--CA-[CB] |==|  0.19673
USER: genes 11 Torsion [N]-CA--C-[N] |==|  0.97752
USER: genes 12 Torsion [N]-CA--CB-[OG1] |==|  0.82016
USER: genes 13 Torsion [CA]-CB--OG1-[HG1] |==|  0.67934
ROOT
ATOM      1  CA  ALA C   2      25.750   0.954  44.214  1.00 19.98 LIG 0.17  C 
ATOM      2  CB  ALA C   2      26.658   2.079  43.712  1.00 20.88 LIG 0.04  C 
ENDROOT
BRANCH 1 3
ATOM      3  N   ALA C   2      25.530  -0.037  43.175  1.00 19.64 LIG-0.35  N 
ATOM      4 H    ALA C   2      25.638  -0.856  43.415  1.00 19.64 LIG 0.16  HD
ATOM      5  C   PHE C   1      25.189   0.358  41.960  1.00 22.16 LIG 0.24  C 
ATOM      6 O    PHE C   1      24.964   1.541  41.707  1.00 23.85 LIG-0.27  OA
BRANCH 5 7
ATOM      7  CA  PHE C   1      25.016  -0.712  40.896  1.00 22.77 LIG 0.18  C 
BRANCH 7 8
ATOM      8  N   PHE C   1      24.404  -0.085  39.755  1.00 26.70 LIG-0.35  N 
ATOM      9 H    PHE C   1      24.440   0.774  39.762  1.00 26.70 LIG 0.16  HD
ATOM     10  C   ACE C   0      23.844  -0.784  38.797  1.00 28.63 LIG 0.21  C 
ATOM     11  CH3 ACE C   0      23.292   0.089  37.691  1.00 28.20 LIG 0.12  C 
ATOM     12 O    ACE C   0      23.808  -2.016  38.869  1.00 29.97 LIG-0.27  OA
ENDBRANCH 7 8
BRANCH 7 13
ATOM     13  CB  PHE C   1      26.329  -1.300  40.418  1.00 20.34 LIG 0.07  C 
BRANCH 13 14
ATOM     14  CG  PHE C   1      27.164  -0.319  39.636  1.00 17.40 LIG-0.06  A 
ATOM     15  CD1 PHE C   1      27.488  -0.516  38.290  1.00 16.88 LIG 0.01  A 
ATOM     16  CE1 PHE C   1      28.292   0.423  37.607  1.00 14.02 LIG 0.00  A 
ATOM     17  CZ  PHE C   1      28.752   1.508  38.257  1.00 15.72 LIG 0.00  A 
ATOM     18  CE2 PHE C   1      28.431   1.703  39.586  1.00 14.79 LIG 0.00  A 
ATOM     19  CD2 PHE C   1      27.642   0.803  40.255  1.00 15.53 LIG 0.01  A 
ENDBRANCH 13 14
ENDBRANCH 7 13
ENDBRANCH 5 7
ENDBRANCH 1 3
BRANCH 1 20
ATOM     20  C   ALA C   2      24.426   1.547  44.650  1.00 17.39 LIG 0.24  C 
ATOM     21  N   THR C   3      24.104   1.342  45.930  1.00 15.98 LIG-0.34  N 
ATOM     22 H    THR C   3      24.573   0.879  46.482  1.00 15.98 LIG 0.16  HD
ATOM     23 O    ALA C   2      23.740   2.200  43.858  1.00 16.73 LIG-0.27  OA
BRANCH 21 24
ATOM     24  CA  THR C   3      22.889   1.912  46.487  1.00 15.15 LIG 0.20  C 
BRANCH 24 25
ATOM     25  C   THR C   3      22.775   3.383  46.127  1.00 14.93 LIG 0.24  C 
ATOM     26  N   ALA C   4      21.551   3.803  45.854  1.00 13.95 LIG-0.35  N 
ATOM     27 H    ALA C   4      20.865   3.284  45.828  1.00 13.95 LIG 0.16  HD
ATOM     28 O    THR C   3      23.759   4.129  46.138  1.00 16.43 LIG-0.27  OA
BRANCH 26 29
ATOM     29  CA  ALA C   4      21.248   5.185  45.571  1.00 14.93 LIG 0.18  C 
ATOM     30  CB  ALA C   4      21.823   5.541  44.205  1.00 15.34 LIG 0.04  C 
BRANCH 29 31
ATOM     31  C   ALA C   4      19.738   5.434  45.634  1.00 16.13 LIG 0.28  C 
ATOM     32 O    ALA C   4      19.291   6.576  45.575  1.00 17.37 LIG-0.27  OA
ATOM     33  N   NH2 C   5      18.954   4.365  45.761  1.00 15.73 LIG-0.11  N 
ENDBRANCH 29 31
ENDBRANCH 26 29
ENDBRANCH 24 25
BRANCH 24 34
ATOM     34  CB  THR C   3      22.830   1.734  48.010  1.00 16.10 LIG 0.15  C 
ATOM     35  CG2 THR C   3      21.623   2.433  48.625  1.00 16.48 LIG 0.04  C 
BRANCH 34 36
ATOM     36 OG1  THR C   3      22.751   0.332  48.301  1.00 16.89 LIG-0.39  OA
ATOM     37 HG1  THR C   3      22.014   0.163  48.667  1.00 16.89 LIG 0.21  HD
ENDBRANCH 34 36
ENDBRANCH 24 34
ENDBRANCH 21 24
ENDBRANCH 1 20
TORSDOF 12
ENDMDL
MODEL 52
USER: ADFR SOLUTION from run 4
USER: SCORE 9.964229 LL:  -2.124 LR:  -9.681 RR:   0.000 FEB:  -6.102
USER: RMSD 6.341476
USER: SEED 664368
USER: STATUS no improvement in best in 7 clusters for 5 generations
USER: GENES 14
USER: genes 0 Translation |==|  0.67083 0.59519 0.35465
USER: genes 1 Rotation |==|  0.16957 0.63838 0.38851 0.83051
USER: genes 2 Torsion [CB]-CA--N-[C] |==|  0.15119
USER: genes 3 Torsion [N]-C--CA-[N] |==|  0.86044
USER: genes 4 Torsion [C]-CA--N-[C] |==|  0.60556
USER: genes 5 Torsion [C]-CA--CB-[CG] |==|  0.21021
USER: genes 6 Torsion [CA]-CB--CG-[CD2] |==|  0.03955
USER: genes 7 Torsion [N]-CA--C-[N] |==|  0.16659
USER: genes 8 Torsion [C]-N--CA-[CB] |==|  0.89274
USER: genes 9 Torsion [N]-CA--C-[N] |==|  0.34113
USER: genes 10 Torsion [C]-N--CA-[CB] |==|  0.49792
USER: genes 11 Torsion [N]-CA--C-[N] |==|  0.45810
USER: genes 12 Torsion [N]-CA--CB-[OG1] |==|  0.81252
USER: genes 13 Torsion [CA]-CB--OG1-[HG1] |==|  0.11002
ROOT
ATOM      1  CA  ALA C   2      27.857   3.876  39.663  1.00 19.98 LIG 0.17  C 
ATOM      2  CB  ALA C   2      28.327   3.527  38.249  1.00 20.88 LIG 0.04  C 
ENDROOT
BRANCH 1 3
ATOM      3  N   ALA C   2      26.906   2.891  40.151  1.00 19.64 LIG-0.35  N 
ATOM      4 H    ALA C   2      26.154   3.207  40.423  1.00 19.64 LIG 0.16  HD
ATOM      5  C   PHE C   1      27.237   1.611  40.151  1.00 22.16 LIG 0.24  C 
ATOM      6 O    PHE C   1      28.297   1.219  39.664  1.00 23.85 LIG-0.27  OA
BRANCH 5 7
ATOM      7  CA  PHE C   1      26.228   0.625  40.716  1.00 22.77 LIG 0.18  C 
BRANCH 7 8
ATOM      8  N   PHE C   1      25.821   1.122  42.004  1.00 26.70 LIG-0.35  N 
ATOM      9 H    PHE C   1      25.738   1.976  42.043  1.00 26.70 LIG 0.16  HD
ATOM     10  C   ACE C   0      25.601   0.320  43.018  1.00 28.63 LIG 0.21  C 
ATOM     11  CH3 ACE C   0      25.157   1.064  44.258  1.00 28.20 LIG 0.12  C 
ATOM     12 O    ACE C   0      25.766  -0.897  42.892  1.00 29.97 LIG-0.27  OA
ENDBRANCH 7 8
BRANCH 7 13
ATOM     13  CB  PHE C   1      24.972   0.506  39.877  1.00 20.34 LIG 0.07  C 
BRANCH 13 14
ATOM     14  CG  PHE C   1      25.177  -0.298  38.620  1.00 17.40 LIG-0.06  A 
ATOM     15  CD1 PHE C   1      24.249  -0.308  37.574  1.00 16.88 LIG 0.01  A 
ATOM     16  CE1 PHE C   1      24.477  -1.096  36.425  1.00 14.02 LIG 0.00  A 
ATOM     17  CZ  PHE C   1      25.592  -1.845  36.340  1.00 15.72 LIG 0.00  A 
ATOM     18  CE2 PHE C   1      26.510  -1.836  37.372  1.00 14.79 LIG 0.00  A 
ATOM     19  CD2 PHE C   1      26.302  -1.065  38.486  1.00 15.53 LIG 0.01  A 
ENDBRANCH 13 14
ENDBRANCH 7 13
ENDBRANCH 5 7
ENDBRANCH 1 3
BRANCH 1 20
ATOM     20  C   ALA C   2      27.215   5.247  39.644  1.00 17.39 LIG 0.24  C 
ATOM     21  N   THR C   3      26.789   5.693  40.830  1.00 15.98 LIG-0.34  N 
ATOM     22 H    THR C   3      26.827   5.243  41.562  1.00 15.98 LIG 0.16  HD
ATOM     23 O    ALA C   2      27.143   5.894  38.594  1.00 16.73 LIG-0.27  OA
BRANCH 21 24
ATOM     24  CA  THR C   3      26.211   7.020  40.956  1.00 15.15 LIG 0.20  C 
BRANCH 24 25
ATOM     25  C   THR C   3      24.733   6.996  40.607  1.00 14.93 LIG 0.24  C 
ATOM     26  N   ALA C   4      23.923   7.435  41.556  1.00 13.95 LIG-0.35  N 
ATOM     27 H    ALA C   4      24.192   7.672  42.338  1.00 13.95 LIG 0.16  HD
ATOM     28 O    THR C   3      24.338   6.633  39.495  1.00 16.43 LIG-0.27  OA
BRANCH 26 29
ATOM     29  CA  ALA C   4      22.498   7.557  41.365  1.00 14.93 LIG 0.18  C 
ATOM     30  CB  ALA C   4      21.874   8.071  42.658  1.00 15.34 LIG 0.04  C 
BRANCH 29 31
ATOM     31  C   ALA C   4      22.187   8.476  40.179  1.00 16.13 LIG 0.28  C 
ATOM     32 O    ALA C   4      23.055   9.211  39.716  1.00 17.37 LIG-0.27  OA
ATOM     33  N   NH2 C   5      20.947   8.439  39.695  1.00 15.73 LIG-0.11  N 
ENDBRANCH 29 31
ENDBRANCH 26 29
ENDBRANCH 24 25
BRANCH 24 34
ATOM     34  CB  THR C   3      26.947   8.040  40.077  1.00 16.10 LIG 0.15  C 
ATOM     35  CG2 THR C   3      26.241   9.392  40.051  1.00 16.48 LIG 0.04  C 
BRANCH 34 36
ATOM     36 OG1  THR C   3      28.270   8.219  40.598  1.00 16.89 LIG-0.39  OA
ATOM     37 HG1  THR C   3      28.576   7.478  40.848  1.00 16.89 LIG 0.21  HD
ENDBRANCH 34 36
ENDBRANCH 24 34
ENDBRANCH 21 24
ENDBRANCH 1 20
TORSDOF 12
ENDMDL
MODEL 53
USER: ADFR SOLUTION from run 99
USER: SCORE 10.102300 LL:  -2.662 LR:  -9.671 RR:   0.000 FEB:  -6.092
USER: RMSD 4.394617
USER: SEED 98
USER: STATUS no improvement in best in 9 clusters for 5 generations
USER: GENES 14
USER: genes 0 Translation |==|  0.60391 0.37722 0.42235
USER: genes 1 Rotation |==|  0.31862 0.66787 0.65667 0.90543
USER: genes 2 Torsion [CB]-CA--N-[C] |==|  0.17722
USER: genes 3 Torsion [N]-C--CA-[N] |==|  0.86113
USER: genes 4 Torsion [C]-CA--N-[C] |==|  0.69034
USER: genes 5 Torsion [C]-CA--CB-[CG] |==|  0.07010
USER: genes 6 Torsion [CA]-CB--CG-[CD2] |==|  0.24761
USER: genes 7 Torsion [N]-CA--C-[N] |==|  0.58723
USER: genes 8 Torsion [C]-N--CA-[CB] |==|  0.19974
USER: genes 9 Torsion [N]-CA--C-[N] |==|  0.89611
USER: genes 10 Torsion [C]-N--CA-[CB] |==|  0.16615
USER: genes 11 Torsion [N]-CA--C-[N] |==|  0.04724
USER: genes 12 Torsion [N]-CA--CB-[OG1] |==|  0.02693
USER: genes 13 Torsion [CA]-CB--OG1-[HG1] |==|  0.82431
ROOT
ATOM      1  CA  ALA C   2      26.602   0.279  41.084  1.00 19.98 LIG 0.17  C 
ATOM      2  CB  ALA C   2      25.996   1.267  40.085  1.00 20.88 LIG 0.04  C 
ENDROOT
BRANCH 1 3
ATOM      3  N   ALA C   2      26.445  -1.089  40.620  1.00 19.64 LIG-0.35  N 
ATOM      4 H    ALA C   2      25.953  -1.593  41.114  1.00 19.64 LIG 0.16  HD
ATOM      5  C   PHE C   1      27.045  -1.472  39.507  1.00 22.16 LIG 0.24  C 
ATOM      6 O    PHE C   1      27.662  -0.675  38.801  1.00 23.85 LIG-0.27  OA
BRANCH 5 7
ATOM      7  CA  PHE C   1      26.890  -2.924  39.089  1.00 22.77 LIG 0.18  C 
BRANCH 7 8
ATOM      8  N   PHE C   1      27.209  -3.735  40.234  1.00 26.70 LIG-0.35  N 
ATOM      9 H    PHE C   1      26.638  -3.681  40.875  1.00 26.70 LIG 0.16  HD
ATOM     10  C   ACE C   0      28.285  -4.484  40.276  1.00 28.63 LIG 0.21  C 
ATOM     11  CH3 ACE C   0      28.395  -5.266  41.566  1.00 28.20 LIG 0.12  C 
ATOM     12 O    ACE C   0      29.073  -4.489  39.326  1.00 29.97 LIG-0.27  OA
ENDBRANCH 7 8
BRANCH 7 13
ATOM     13  CB  PHE C   1      25.476  -3.283  38.680  1.00 20.34 LIG 0.07  C 
BRANCH 13 14
ATOM     14  CG  PHE C   1      24.685  -2.097  38.192  1.00 17.40 LIG-0.06  A 
ATOM     15  CD1 PHE C   1      23.894  -1.320  39.045  1.00 16.88 LIG 0.01  A 
ATOM     16  CE1 PHE C   1      23.154  -0.231  38.534  1.00 14.02 LIG 0.00  A 
ATOM     17  CZ  PHE C   1      23.206   0.055  37.221  1.00 15.72 LIG 0.00  A 
ATOM     18  CE2 PHE C   1      23.988  -0.712  36.378  1.00 14.79 LIG 0.00  A 
ATOM     19  CD2 PHE C   1      24.719  -1.764  36.866  1.00 15.53 LIG 0.01  A 
ENDBRANCH 13 14
ENDBRANCH 7 13
ENDBRANCH 5 7
ENDBRANCH 1 3
BRANCH 1 20
ATOM     20  C   ALA C   2      25.917   0.450  42.424  1.00 17.39 LIG 0.24  C 
ATOM     21  N   THR C   3      25.413   1.666  42.656  1.00 15.98 LIG-0.34  N 
ATOM     22 H    THR C   3      25.489   2.335  42.120  1.00 15.98 LIG 0.16  HD
ATOM     23 O    ALA C   2      25.818  -0.501  43.205  1.00 16.73 LIG-0.27  OA
BRANCH 21 24
ATOM     24  CA  THR C   3      24.678   1.941  43.877  1.00 15.15 LIG 0.20  C 
BRANCH 24 25
ATOM     25  C   THR C   3      23.904   3.242  43.756  1.00 14.93 LIG 0.24  C 
ATOM     26  N   ALA C   4      24.521   4.204  43.090  1.00 13.95 LIG-0.35  N 
ATOM     27 H    ALA C   4      25.322   4.133  42.785  1.00 13.95 LIG 0.16  HD
ATOM     28 O    THR C   3      22.764   3.360  44.215  1.00 16.43 LIG-0.27  OA
BRANCH 26 29
ATOM     29  CA  ALA C   4      23.900   5.477  42.812  1.00 14.93 LIG 0.18  C 
ATOM     30  CB  ALA C   4      23.538   6.144  44.134  1.00 15.34 LIG 0.04  C 
BRANCH 29 31
ATOM     31  C   ALA C   4      24.825   6.357  41.965  1.00 16.13 LIG 0.28  C 
ATOM     32 O    ALA C   4      24.625   7.566  41.877  1.00 17.37 LIG-0.27  OA
ATOM     33  N   NH2 C   5      25.831   5.751  41.339  1.00 15.73 LIG-0.11  N 
ENDBRANCH 29 31
ENDBRANCH 26 29
ENDBRANCH 24 25
BRANCH 24 34
ATOM     34  CB  THR C   3      25.610   1.991  45.096  1.00 16.10 LIG 0.15  C 
ATOM     35  CG2 THR C   3      25.396   0.807  46.033  1.00 16.48 LIG 0.04  C 
BRANCH 34 36
ATOM     36 OG1  THR C   3      26.966   1.975  44.633  1.00 16.89 LIG-0.39  OA
ATOM     37 HG1  THR C   3      27.117   1.251  44.234  1.00 16.89 LIG 0.21  HD
ENDBRANCH 34 36
ENDBRANCH 24 34
ENDBRANCH 21 24
ENDBRANCH 1 20
TORSDOF 12
ENDMDL
MODEL 54
USER: ADFR SOLUTION from run 99
USER: SCORE 9.988883 LL:  -2.269 LR:  -9.668 RR:   0.000 FEB:  -6.088
USER: RMSD 6.954196
USER: SEED 98
USER: STATUS no improvement in best in 9 clusters for 5 generations
USER: GENES 14
USER: genes 0 Translation |==|  0.68580 0.52850 0.37044
USER: genes 1 Rotation |==|  0.25874 0.64294 0.27913 0.85011
USER: genes 2 Torsion [CB]-CA--N-[C] |==|  0.15757
USER: genes 3 Torsion [N]-C--CA-[N] |==|  0.32114
USER: genes 4 Torsion [C]-CA--N-[C] |==|  0.57448
USER: genes 5 Torsion [C]-CA--CB-[CG] |==|  0.15472
USER: genes 6 Torsion [CA]-CB--CG-[CD2] |==|  0.60662
USER: genes 7 Torsion [N]-CA--C-[N] |==|  0.04647
USER: genes 8 Torsion [C]-N--CA-[CB] |==|  0.18230
USER: genes 9 Torsion [N]-CA--C-[N] |==|  0.65386
USER: genes 10 Torsion [C]-N--CA-[CB] |==|  0.20556
USER: genes 11 Torsion [N]-CA--C-[N] |==|  0.15773
USER: genes 12 Torsion [N]-CA--CB-[OG1] |==|  0.02379
USER: genes 13 Torsion [CA]-CB--OG1-[HG1] |==|  0.82269
ROOT
ATOM      1  CA  ALA C   2      28.138   2.775  39.994  1.00 19.98 LIG 0.17  C 
ATOM      2  CB  ALA C   2      28.982   2.398  38.775  1.00 20.88 LIG 0.04  C 
ENDROOT
BRANCH 1 3
ATOM      3  N   ALA C   2      26.802   2.212  39.894  1.00 19.64 LIG-0.35  N 
ATOM      4 H    ALA C   2      26.157   2.779  39.937  1.00 19.64 LIG 0.16  HD
ATOM      5  C   PHE C   1      26.655   0.906  39.747  1.00 22.16 LIG 0.24  C 
ATOM      6 O    PHE C   1      27.624   0.162  39.602  1.00 23.85 LIG-0.27  OA
BRANCH 5 7
ATOM      7  CA  PHE C   1      25.238   0.360  39.695  1.00 22.77 LIG 0.18  C 
BRANCH 7 8
ATOM      8  N   PHE C   1      25.046  -0.204  38.386  1.00 26.70 LIG-0.35  N 
ATOM      9 H    PHE C   1      25.768  -0.477  38.009  1.00 26.70 LIG 0.16  HD
ATOM     10  C   ACE C   0      23.859  -0.285  37.833  1.00 28.63 LIG 0.21  C 
ATOM     11  CH3 ACE C   0      23.899  -0.938  36.469  1.00 28.20 LIG 0.12  C 
ATOM     12 O    ACE C   0      22.868   0.153  38.427  1.00 29.97 LIG-0.27  OA
ENDBRANCH 7 8
BRANCH 7 13
ATOM     13  CB  PHE C   1      24.988  -0.754  40.692  1.00 20.34 LIG 0.07  C 
BRANCH 13 14
ATOM     14  CG  PHE C   1      25.303  -0.356  42.111  1.00 17.40 LIG-0.06  A 
ATOM     15  CD1 PHE C   1      25.033   0.922  42.610  1.00 16.88 LIG 0.01  A 
ATOM     16  CE1 PHE C   1      25.367   1.252  43.942  1.00 14.02 LIG 0.00  A 
ATOM     17  CZ  PHE C   1      25.954   0.333  44.730  1.00 15.72 LIG 0.00  A 
ATOM     18  CE2 PHE C   1      26.220  -0.930  44.239  1.00 14.79 LIG 0.00  A 
ATOM     19  CD2 PHE C   1      25.889  -1.263  42.951  1.00 15.53 LIG 0.01  A 
ENDBRANCH 13 14
ENDBRANCH 7 13
ENDBRANCH 5 7
ENDBRANCH 1 3
BRANCH 1 20
ATOM     20  C   ALA C   2      28.054   4.285  40.089  1.00 17.39 LIG 0.24  C 
ATOM     21  N   THR C   3      26.852   4.770  40.412  1.00 15.98 LIG-0.34  N 
ATOM     22 H    THR C   3      26.148   4.290  40.527  1.00 15.98 LIG 0.16  HD
ATOM     23 O    ALA C   2      29.058   4.982  39.911  1.00 16.73 LIG-0.27  OA
BRANCH 21 24
ATOM     24  CA  THR C   3      26.657   6.197  40.596  1.00 15.15 LIG 0.20  C 
BRANCH 24 25
ATOM     25  C   THR C   3      25.276   6.481  41.161  1.00 14.93 LIG 0.24  C 
ATOM     26  N   ALA C   4      24.538   7.320  40.454  1.00 13.95 LIG-0.35  N 
ATOM     27 H    ALA C   4      24.822   7.724  39.749  1.00 13.95 LIG 0.16  HD
ATOM     28 O    THR C   3      24.871   5.923  42.187  1.00 16.43 LIG-0.27  OA
BRANCH 26 29
ATOM     29  CA  ALA C   4      23.175   7.639  40.802  1.00 14.93 LIG 0.18  C 
ATOM     30  CB  ALA C   4      23.183   8.558  42.018  1.00 15.34 LIG 0.04  C 
BRANCH 29 31
ATOM     31  C   ALA C   4      22.447   8.276  39.613  1.00 16.13 LIG 0.28  C 
ATOM     32 O    ALA C   4      21.922   9.381  39.724  1.00 17.37 LIG-0.27  OA
ATOM     33  N   NH2 C   5      22.411   7.577  38.481  1.00 15.73 LIG-0.11  N 
ENDBRANCH 29 31
ENDBRANCH 26 29
ENDBRANCH 24 25
BRANCH 24 34
ATOM     34  CB  THR C   3      26.859   6.967  39.284  1.00 16.10 LIG 0.15  C 
ATOM     35  CG2 THR C   3      28.107   7.843  39.316  1.00 16.48 LIG 0.04  C 
BRANCH 34 36
ATOM     36 OG1  THR C   3      26.987   6.019  38.215  1.00 16.89 LIG-0.39  OA
ATOM     37 HG1  THR C   3      27.678   5.556  38.334  1.00 16.89 LIG 0.21  HD
ENDBRANCH 34 36
ENDBRANCH 24 34
ENDBRANCH 21 24
ENDBRANCH 1 20
TORSDOF 12
ENDMDL
MODEL 55
USER: ADFR SOLUTION from run 103
USER: SCORE 9.721140 LL:  -2.068 LR:  -9.639 RR:   0.000 FEB:  -6.060
USER: RMSD 7.400222
USER: SEED 102
USER: STATUS no improvement in best in 18 clusters for 5 generations
USER: GENES 14
USER: genes 0 Translation |==|  0.68898 0.52326 0.36625
USER: genes 1 Rotation |==|  0.16904 0.60942 0.27857 0.78189
USER: genes 2 Torsion [CB]-CA--N-[C] |==|  0.16842
USER: genes 3 Torsion [N]-C--CA-[N] |==|  0.82340
USER: genes 4 Torsion [C]-CA--N-[C] |==|  0.72134
USER: genes 5 Torsion [C]-CA--CB-[CG] |==|  0.18530
USER: genes 6 Torsion [CA]-CB--CG-[CD2] |==|  0.54867
USER: genes 7 Torsion [N]-CA--C-[N] |==|  0.45907
USER: genes 8 Torsion [C]-N--CA-[CB] |==|  0.75933
USER: genes 9 Torsion [N]-CA--C-[N] |==|  0.15756
USER: genes 10 Torsion [C]-N--CA-[CB] |==|  0.84440
USER: genes 11 Torsion [N]-CA--C-[N] |==|  0.38497
USER: genes 12 Torsion [N]-CA--CB-[OG1] |==|  0.21724
USER: genes 13 Torsion [CA]-CB--OG1-[HG1] |==|  0.28885
ROOT
ATOM      1  CA  ALA C   2      28.197   2.689  39.906  1.00 19.98 LIG 0.17  C 
ATOM      2  CB  ALA C   2      28.905   1.831  38.855  1.00 20.88 LIG 0.04  C 
ENDROOT
BRANCH 1 3
ATOM      3  N   ALA C   2      26.906   2.121  40.255  1.00 19.64 LIG-0.35  N 
ATOM      4 H    ALA C   2      26.226   2.624  40.097  1.00 19.64 LIG 0.16  HD
ATOM      5  C   PHE C   1      26.847   0.908  40.776  1.00 22.16 LIG 0.24  C 
ATOM      6 O    PHE C   1      27.853   0.207  40.892  1.00 23.85 LIG-0.27  OA
BRANCH 5 7
ATOM      7  CA  PHE C   1      25.479   0.377  41.168  1.00 22.77 LIG 0.18  C 
BRANCH 7 8
ATOM      8  N   PHE C   1      24.975   1.227  42.215  1.00 26.70 LIG-0.35  N 
ATOM      9 H    PHE C   1      24.641   1.968  41.937  1.00 26.70 LIG 0.16  HD
ATOM     10  C   ACE C   0      25.033   0.879  43.478  1.00 28.63 LIG 0.21  C 
ATOM     11  CH3 ACE C   0      24.419   1.916  44.392  1.00 28.20 LIG 0.12  C 
ATOM     12 O    ACE C   0      25.552  -0.193  43.802  1.00 29.97 LIG-0.27  OA
ENDBRANCH 7 8
BRANCH 7 13
ATOM     13  CB  PHE C   1      24.469   0.430  40.040  1.00 20.34 LIG 0.07  C 
BRANCH 13 14
ATOM     14  CG  PHE C   1      24.805  -0.503  38.905  1.00 17.40 LIG-0.06  A 
ATOM     15  CD1 PHE C   1      25.718  -1.554  39.042  1.00 16.88 LIG 0.01  A 
ATOM     16  CE1 PHE C   1      26.016  -2.386  37.941  1.00 14.02 LIG 0.00  A 
ATOM     17  CZ  PHE C   1      25.423  -2.163  36.754  1.00 15.72 LIG 0.00  A 
ATOM     18  CE2 PHE C   1      24.520  -1.126  36.618  1.00 14.79 LIG 0.00  A 
ATOM     19  CD2 PHE C   1      24.216  -0.319  37.684  1.00 15.53 LIG 0.01  A 
ENDBRANCH 13 14
ENDBRANCH 7 13
ENDBRANCH 5 7
ENDBRANCH 1 3
BRANCH 1 20
ATOM     20  C   ALA C   2      28.013   4.089  39.358  1.00 17.39 LIG 0.24  C 
ATOM     21  N   THR C   3      29.126   4.825  39.291  1.00 15.98 LIG-0.34  N 
ATOM     22 H    THR C   3      29.899   4.566  39.566  1.00 15.98 LIG 0.16  HD
ATOM     23 O    ALA C   2      26.904   4.473  38.974  1.00 16.73 LIG-0.27  OA
BRANCH 21 24
ATOM     24  CA  THR C   3      29.094   6.163  38.725  1.00 15.15 LIG 0.20  C 
BRANCH 24 25
ATOM     25  C   THR C   3      27.796   6.865  39.083  1.00 14.93 LIG 0.24  C 
ATOM     26  N   ALA C   4      27.543   6.955  40.378  1.00 13.95 LIG-0.35  N 
ATOM     27 H    ALA C   4      28.040   6.603  40.985  1.00 13.95 LIG 0.16  HD
ATOM     28 O    THR C   3      27.064   7.350  38.215  1.00 16.43 LIG-0.27  OA
BRANCH 26 29
ATOM     29  CA  ALA C   4      26.395   7.660  40.897  1.00 14.93 LIG 0.18  C 
ATOM     30  CB  ALA C   4      26.425   9.092  40.377  1.00 15.34 LIG 0.04  C 
BRANCH 29 31
ATOM     31  C   ALA C   4      25.098   6.941  40.511  1.00 16.13 LIG 0.28  C 
ATOM     32 O    ALA C   4      24.955   6.477  39.383  1.00 17.37 LIG-0.27  OA
ATOM     33  N   NH2 C   5      24.153   6.856  41.446  1.00 15.73 LIG-0.11  N 
ENDBRANCH 29 31
ENDBRANCH 26 29
ENDBRANCH 24 25
BRANCH 24 34
ATOM     34  CB  THR C   3      29.278   6.134  37.202  1.00 16.10 LIG 0.15  C 
ATOM     35  CG2 THR C   3      30.358   5.148  36.770  1.00 16.48 LIG 0.04  C 
BRANCH 34 36
ATOM     36 OG1  THR C   3      28.035   5.751  36.600  1.00 16.89 LIG-0.39  OA
ATOM     37 HG1  THR C   3      27.662   6.428  36.270  1.00 16.89 LIG 0.21  HD
ENDBRANCH 34 36
ENDBRANCH 24 34
ENDBRANCH 21 24
ENDBRANCH 1 20
TORSDOF 12
ENDMDL
MODEL 56
USER: ADFR SOLUTION from run 23
USER: SCORE 10.414748 LL:  -2.627 LR:  -9.629 RR:   0.000 FEB:  -6.049
USER: RMSD 9.037886
USER: SEED 22
USER: STATUS no improvement in best in 11 clusters for 5 generations
USER: GENES 14
USER: genes 0 Translation |==|  0.41450 0.59125 0.57306
USER: genes 1 Rotation |==|  0.69470 0.94460 0.56219 0.60273
USER: genes 2 Torsion [CB]-CA--N-[C] |==|  0.85546
USER: genes 3 Torsion [N]-C--CA-[N] |==|  0.38264
USER: genes 4 Torsion [C]-CA--N-[C] |==|  0.77912
USER: genes 5 Torsion [C]-CA--CB-[CG] |==|  0.13236
USER: genes 6 Torsion [CA]-CB--CG-[CD2] |==|  0.15216
USER: genes 7 Torsion [N]-CA--C-[N] |==|  0.50311
USER: genes 8 Torsion [C]-N--CA-[CB] |==|  0.21635
USER: genes 9 Torsion [N]-CA--C-[N] |==|  0.87220
USER: genes 10 Torsion [C]-N--CA-[CB] |==|  0.21111
USER: genes 11 Torsion [N]-CA--C-[N] |==|  0.11944
USER: genes 12 Torsion [N]-CA--CB-[OG1] |==|  0.02877
USER: genes 13 Torsion [CA]-CB--OG1-[HG1] |==|  0.07003
ROOT
ATOM      1  CA  ALA C   2      23.051   3.811  44.249  1.00 19.98 LIG 0.17  C 
ATOM      2  CB  ALA C   2      23.550   5.233  44.511  1.00 20.88 LIG 0.04  C 
ENDROOT
BRANCH 1 3
ATOM      3  N   ALA C   2      22.185   3.359  45.325  1.00 19.64 LIG-0.35  N 
ATOM      4 H    ALA C   2      21.421   3.050  45.080  1.00 19.64 LIG 0.16  HD
ATOM      5  C   PHE C   1      22.603   3.443  46.577  1.00 22.16 LIG 0.24  C 
ATOM      6 O    PHE C   1      23.746   3.812  46.850  1.00 23.85 LIG-0.27  OA
BRANCH 5 7
ATOM      7  CA  PHE C   1      21.644   3.003  47.669  1.00 22.77 LIG 0.18  C 
BRANCH 7 8
ATOM      8  N   PHE C   1      22.406   2.246  48.627  1.00 26.70 LIG-0.35  N 
ATOM      9 H    PHE C   1      22.625   2.687  49.332  1.00 26.70 LIG 0.16  HD
ATOM     10  C   ACE C   0      22.728   0.991  48.421  1.00 28.63 LIG 0.21  C 
ATOM     11  CH3 ACE C   0      23.504   0.397  49.576  1.00 28.20 LIG 0.12  C 
ATOM     12 O    ACE C   0      22.399   0.432  47.371  1.00 29.97 LIG-0.27  OA
ENDBRANCH 7 8
BRANCH 7 13
ATOM     13  CB  PHE C   1      21.022   4.161  48.423  1.00 20.34 LIG 0.07  C 
BRANCH 13 14
ATOM     14  CG  PHE C   1      20.483   5.234  47.513  1.00 17.40 LIG-0.06  A 
ATOM     15  CD1 PHE C   1      20.857   6.576  47.632  1.00 16.88 LIG 0.01  A 
ATOM     16  CE1 PHE C   1      20.306   7.549  46.769  1.00 14.02 LIG 0.00  A 
ATOM     17  CZ  PHE C   1      19.414   7.181  45.831  1.00 15.72 LIG 0.00  A 
ATOM     18  CE2 PHE C   1      19.044   5.855  45.712  1.00 14.79 LIG 0.00  A 
ATOM     19  CD2 PHE C   1      19.582   4.902  46.539  1.00 15.53 LIG 0.01  A 
ENDBRANCH 13 14
ENDBRANCH 7 13
ENDBRANCH 5 7
ENDBRANCH 1 3
BRANCH 1 20
ATOM     20  C   ALA C   2      24.243   2.885  44.124  1.00 17.39 LIG 0.24  C 
ATOM     21  N   THR C   3      25.126   3.217  43.177  1.00 15.98 LIG-0.34  N 
ATOM     22 H    THR C   3      25.033   3.879  42.636  1.00 15.98 LIG 0.16  HD
ATOM     23 O    ALA C   2      24.375   1.924  44.889  1.00 16.73 LIG-0.27  OA
BRANCH 21 24
ATOM     24  CA  THR C   3      26.343   2.445  42.999  1.00 15.15 LIG 0.20  C 
BRANCH 24 25
ATOM     25  C   THR C   3      27.393   3.262  42.266  1.00 14.93 LIG 0.24  C 
ATOM     26  N   ALA C   4      26.958   3.912  41.199  1.00 13.95 LIG-0.35  N 
ATOM     27 H    ALA C   4      26.154   3.847  40.899  1.00 13.95 LIG 0.16  HD
ATOM     28 O    THR C   3      28.555   3.338  42.677  1.00 16.43 LIG-0.27  OA
BRANCH 26 29
ATOM     29  CA  ALA C   4      27.800   4.797  40.432  1.00 14.93 LIG 0.18  C 
ATOM     30  CB  ALA C   4      28.741   3.957  39.575  1.00 15.34 LIG 0.04  C 
BRANCH 29 31
ATOM     31  C   ALA C   4      26.952   5.748  39.579  1.00 16.13 LIG 0.28  C 
ATOM     32 O    ALA C   4      27.265   5.987  38.416  1.00 17.37 LIG-0.27  OA
ATOM     33  N   NH2 C   5      25.885   6.292  40.160  1.00 15.73 LIG-0.11  N 
ENDBRANCH 29 31
ENDBRANCH 26 29
ENDBRANCH 24 25
BRANCH 24 34
ATOM     34  CB  THR C   3      26.074   1.134  42.249  1.00 16.10 LIG 0.15  C 
ATOM     35  CG2 THR C   3      26.219  -0.087  43.151  1.00 16.48 LIG 0.04  C 
BRANCH 34 36
ATOM     36 OG1  THR C   3      24.737   1.171  41.732  1.00 16.89 LIG-0.39  OA
ATOM     37 HG1  THR C   3      24.498   1.970  41.629  1.00 16.89 LIG 0.21  HD
ENDBRANCH 34 36
ENDBRANCH 24 34
ENDBRANCH 21 24
ENDBRANCH 1 20
TORSDOF 12
ENDMDL
MODEL 57
USER: ADFR SOLUTION from run 158
USER: SCORE 10.476170 LL:  -1.959 LR:  -9.605 RR:   0.000 FEB:  -6.025
USER: RMSD 4.242795
USER: SEED 157
USER: STATUS no improvement in best in 20 clusters for 5 generations
USER: GENES 14
USER: genes 0 Translation |==|  0.46959 0.49297 0.61084
USER: genes 1 Rotation |==|  0.39398 0.33863 0.33150 0.92933
USER: genes 2 Torsion [CB]-CA--N-[C] |==|  0.86475
USER: genes 3 Torsion [N]-C--CA-[N] |==|  0.33744
USER: genes 4 Torsion [C]-CA--N-[C] |==|  0.60840
USER: genes 5 Torsion [C]-CA--CB-[CG] |==|  0.52604
USER: genes 6 Torsion [CA]-CB--CG-[CD2] |==|  0.28521
USER: genes 7 Torsion [N]-CA--C-[N] |==|  0.33889
USER: genes 8 Torsion [C]-N--CA-[CB] |==|  0.52849
USER: genes 9 Torsion [N]-CA--C-[N] |==|  0.39971
USER: genes 10 Torsion [C]-N--CA-[CB] |==|  0.87564
USER: genes 11 Torsion [N]-CA--C-[N] |==|  0.88306
USER: genes 12 Torsion [N]-CA--CB-[OG1] |==|  0.71472
USER: genes 13 Torsion [CA]-CB--OG1-[HG1] |==|  0.30371
ROOT
ATOM      1  CA  ALA C   2      24.084   2.189  45.043  1.00 19.98 LIG 0.17  C 
ATOM      2  CB  ALA C   2      25.412   2.871  45.378  1.00 20.88 LIG 0.04  C 
ENDROOT
BRANCH 1 3
ATOM      3  N   ALA C   2      24.279   1.124  44.073  1.00 19.64 LIG-0.35  N 
ATOM      4 H    ALA C   2      23.911   0.372  44.271  1.00 19.64 LIG 0.16  HD
ATOM      5  C   PHE C   1      24.984   1.359  42.980  1.00 22.16 LIG 0.24  C 
ATOM      6 O    PHE C   1      25.406   2.485  42.716  1.00 23.85 LIG-0.27  OA
BRANCH 5 7
ATOM      7  CA  PHE C   1      25.200   0.201  42.021  1.00 22.77 LIG 0.18  C 
BRANCH 7 8
ATOM      8  N   PHE C   1      24.658   0.594  40.748  1.00 26.70 LIG-0.35  N 
ATOM      9 H    PHE C   1      24.800   1.417  40.542  1.00 26.70 LIG 0.16  HD
ATOM     10  C   ACE C   0      24.005  -0.247  39.982  1.00 28.63 LIG 0.21  C 
ATOM     11  CH3 ACE C   0      23.554   0.383  38.683  1.00 28.20 LIG 0.12  C 
ATOM     12 O    ACE C   0      23.817  -1.408  40.358  1.00 29.97 LIG-0.27  OA
ENDBRANCH 7 8
BRANCH 7 13
ATOM     13  CB  PHE C   1      26.663  -0.123  41.792  1.00 20.34 LIG 0.07  C 
BRANCH 13 14
ATOM     14  CG  PHE C   1      26.879  -1.114  40.677  1.00 17.40 LIG-0.06  A 
ATOM     15  CD1 PHE C   1      26.672  -2.487  40.844  1.00 16.88 LIG 0.01  A 
ATOM     16  CE1 PHE C   1      26.910  -3.378  39.774  1.00 14.02 LIG 0.00  A 
ATOM     17  CZ  PHE C   1      27.342  -2.902  38.592  1.00 15.72 LIG 0.00  A 
ATOM     18  CE2 PHE C   1      27.545  -1.546  38.426  1.00 14.79 LIG 0.00  A 
ATOM     19  CD2 PHE C   1      27.307  -0.672  39.456  1.00 15.53 LIG 0.01  A 
ENDBRANCH 13 14
ENDBRANCH 7 13
ENDBRANCH 5 7
ENDBRANCH 1 3
BRANCH 1 20
ATOM     20  C   ALA C   2      23.125   3.222  44.487  1.00 17.39 LIG 0.24  C 
ATOM     21  N   THR C   3      22.031   3.438  45.223  1.00 15.98 LIG-0.34  N 
ATOM     22 H    THR C   3      21.837   3.012  45.944  1.00 15.98 LIG 0.16  HD
ATOM     23 O    ALA C   2      23.391   3.828  43.444  1.00 16.73 LIG-0.27  OA
BRANCH 21 24
ATOM     24  CA  THR C   3      21.065   4.449  44.830  1.00 15.15 LIG 0.20  C 
BRANCH 24 25
ATOM     25  C   THR C   3      21.765   5.746  44.462  1.00 14.93 LIG 0.24  C 
ATOM     26  N   ALA C   4      21.216   6.419  43.465  1.00 13.95 LIG-0.35  N 
ATOM     27 H    ALA C   4      20.542   6.134  43.014  1.00 13.95 LIG 0.16  HD
ATOM     28 O    THR C   3      22.750   6.148  45.090  1.00 16.43 LIG-0.27  OA
BRANCH 26 29
ATOM     29  CA  ALA C   4      21.703   7.708  43.038  1.00 14.93 LIG 0.18  C 
ATOM     30  CB  ALA C   4      21.964   8.566  44.271  1.00 15.34 LIG 0.04  C 
BRANCH 29 31
ATOM     31  C   ALA C   4      22.962   7.554  42.177  1.00 16.13 LIG 0.28  C 
ATOM     32 O    ALA C   4      23.108   8.226  41.159  1.00 17.37 LIG-0.27  OA
ATOM     33  N   NH2 C   5      23.866   6.664  42.582  1.00 15.73 LIG-0.11  N 
ENDBRANCH 29 31
ENDBRANCH 26 29
ENDBRANCH 24 25
BRANCH 24 34
ATOM     34  CB  THR C   3      20.032   4.701  45.937  1.00 16.10 LIG 0.15  C 
ATOM     35  CG2 THR C   3      19.746   6.186  46.130  1.00 16.48 LIG 0.04  C 
BRANCH 34 36
ATOM     36 OG1  THR C   3      18.813   4.037  45.582  1.00 16.89 LIG-0.39  OA
ATOM     37 HG1  THR C   3      18.694   3.378  46.090  1.00 16.89 LIG 0.21  HD
ENDBRANCH 34 36
ENDBRANCH 24 34
ENDBRANCH 21 24
ENDBRANCH 1 20
TORSDOF 12
ENDMDL
MODEL 58
USER: ADFR SOLUTION from run 152
USER: SCORE 10.277957 LL:  -2.768 LR:  -9.611 RR:   0.000 FEB:  -6.031
USER: RMSD 6.485319
USER: SEED 151
USER: STATUS no improvement in best in 15 clusters for 5 generations
USER: GENES 14
USER: genes 0 Translation |==|  0.46316 0.51022 0.57421
USER: genes 1 Rotation |==|  0.77686 0.61120 0.22294 0.79021
USER: genes 2 Torsion [CB]-CA--N-[C] |==|  0.51229
USER: genes 3 Torsion [N]-C--CA-[N] |==|  0.13440
USER: genes 4 Torsion [C]-CA--N-[C] |==|  0.61301
USER: genes 5 Torsion [C]-CA--CB-[CG] |==|  0.52079
USER: genes 6 Torsion [CA]-CB--CG-[CD2] |==|  0.27833
USER: genes 7 Torsion [N]-CA--C-[N] |==|  0.38735
USER: genes 8 Torsion [C]-N--CA-[CB] |==|  0.80000
USER: genes 9 Torsion [N]-CA--C-[N] |==|  0.08912
USER: genes 10 Torsion [C]-N--CA-[CB] |==|  0.20267
USER: genes 11 Torsion [N]-CA--C-[N] |==|  0.03645
USER: genes 12 Torsion [N]-CA--CB-[OG1] |==|  0.55317
USER: genes 13 Torsion [CA]-CB--OG1-[HG1] |==|  0.18606
ROOT
ATOM      1  CA  ALA C   2      23.963   2.474  44.274  1.00 19.98 LIG 0.17  C 
ATOM      2  CB  ALA C   2      25.344   1.816  44.245  1.00 20.88 LIG 0.04  C 
ENDROOT
BRANCH 1 3
ATOM      3  N   ALA C   2      24.030   3.840  43.782  1.00 19.64 LIG-0.35  N 
ATOM      4 H    ALA C   2      24.798   4.089  43.487  1.00 19.64 LIG 0.16  HD
ATOM      5  C   PHE C   1      22.947   4.597  43.815  1.00 22.16 LIG 0.24  C 
ATOM      6 O    PHE C   1      21.857   4.147  44.168  1.00 23.85 LIG-0.27  OA
BRANCH 5 7
ATOM      7  CA  PHE C   1      23.079   6.033  43.336  1.00 22.77 LIG 0.18  C 
BRANCH 7 8
ATOM      8  N   PHE C   1      23.763   5.999  42.071  1.00 26.70 LIG-0.35  N 
ATOM      9 H    PHE C   1      23.517   5.359  41.553  1.00 26.70 LIG 0.16  HD
ATOM     10  C   ACE C   0      24.682   6.880  41.756  1.00 28.63 LIG 0.21  C 
ATOM     11  CH3 ACE C   0      25.241   6.662  40.367  1.00 28.20 LIG 0.12  C 
ATOM     12 O    ACE C   0      25.002   7.757  42.564  1.00 29.97 LIG-0.27  OA
ENDBRANCH 7 8
BRANCH 7 13
ATOM     13  CB  PHE C   1      21.744   6.709  43.092  1.00 20.34 LIG 0.07  C 
BRANCH 13 14
ATOM     14  CG  PHE C   1      21.880   8.064  42.449  1.00 17.40 LIG-0.06  A 
ATOM     15  CD1 PHE C   1      22.198   9.213  43.180  1.00 16.88 LIG 0.01  A 
ATOM     16  CE1 PHE C   1      22.292  10.466  42.533  1.00 14.02 LIG 0.00  A 
ATOM     17  CZ  PHE C   1      22.068  10.552  41.209  1.00 15.72 LIG 0.00  A 
ATOM     18  CE2 PHE C   1      21.755   9.417  40.486  1.00 14.79 LIG 0.00  A 
ATOM     19  CD2 PHE C   1      21.673   8.196  41.103  1.00 15.53 LIG 0.01  A 
ENDBRANCH 13 14
ENDBRANCH 7 13
ENDBRANCH 5 7
ENDBRANCH 1 3
BRANCH 1 20
ATOM     20  C   ALA C   2      23.441   2.463  45.695  1.00 17.39 LIG 0.24  C 
ATOM     21  N   THR C   3      22.579   1.481  45.978  1.00 15.98 LIG-0.34  N 
ATOM     22 H    THR C   3      22.292   0.906  45.407  1.00 15.98 LIG 0.16  HD
ATOM     23 O    ALA C   2      23.837   3.295  46.517  1.00 16.73 LIG-0.27  OA
BRANCH 21 24
ATOM     24  CA  THR C   3      22.053   1.324  47.323  1.00 15.15 LIG 0.20  C 
BRANCH 24 25
ATOM     25  C   THR C   3      21.495   2.639  47.837  1.00 14.93 LIG 0.24  C 
ATOM     26  N   ALA C   4      20.970   3.428  46.915  1.00 13.95 LIG-0.35  N 
ATOM     27 H    ALA C   4      20.980   3.248  46.074  1.00 13.95 LIG 0.16  HD
ATOM     28 O    THR C   3      21.500   2.916  49.041  1.00 16.43 LIG-0.27  OA
BRANCH 26 29
ATOM     29  CA  ALA C   4      20.324   4.678  47.237  1.00 14.93 LIG 0.18  C 
ATOM     30  CB  ALA C   4      21.391   5.692  47.631  1.00 15.34 LIG 0.04  C 
BRANCH 29 31
ATOM     31  C   ALA C   4      19.478   5.171  46.058  1.00 16.13 LIG 0.28  C 
ATOM     32 O    ALA C   4      19.041   6.319  46.042  1.00 17.37 LIG-0.27  OA
ATOM     33  N   NH2 C   5      19.244   4.302  45.077  1.00 15.73 LIG-0.11  N 
ENDBRANCH 29 31
ENDBRANCH 26 29
ENDBRANCH 24 25
BRANCH 24 34
ATOM     34  CB  THR C   3      23.122   0.790  48.286  1.00 16.10 LIG 0.15  C 
ATOM     35  CG2 THR C   3      24.083   1.882  48.743  1.00 16.48 LIG 0.04  C 
BRANCH 34 36
ATOM     36 OG1  THR C   3      22.465   0.240  49.435  1.00 16.89 LIG-0.39  OA
ATOM     37 HG1  THR C   3      22.032  -0.444  49.211  1.00 16.89 LIG 0.21  HD
ENDBRANCH 34 36
ENDBRANCH 24 34
ENDBRANCH 21 24
ENDBRANCH 1 20
TORSDOF 12
ENDMDL
MODEL 59
USER: ADFR SOLUTION from run 182
USER: SCORE 10.189644 LL:  -2.747 LR:  -9.586 RR:   0.000 FEB:  -6.007
USER: RMSD 5.270558
USER: SEED 181
USER: STATUS no improvement in best in 30 clusters for 5 generations
USER: GENES 14
USER: genes 0 Translation |==|  0.40187 0.46483 0.67150
USER: genes 1 Rotation |==|  0.72099 0.26877 0.18810 0.72452
USER: genes 2 Torsion [CB]-CA--N-[C] |==|  0.47778
USER: genes 3 Torsion [N]-C--CA-[N] |==|  0.39301
USER: genes 4 Torsion [C]-CA--N-[C] |==|  0.75096
USER: genes 5 Torsion [C]-CA--CB-[CG] |==|  0.80144
USER: genes 6 Torsion [CA]-CB--CG-[CD2] |==|  0.20243
USER: genes 7 Torsion [N]-CA--C-[N] |==|  0.41347
USER: genes 8 Torsion [C]-N--CA-[CB] |==|  0.44802
USER: genes 9 Torsion [N]-CA--C-[N] |==|  0.89050
USER: genes 10 Torsion [C]-N--CA-[CB] |==|  0.83541
USER: genes 11 Torsion [N]-CA--C-[N] |==|  0.45252
USER: genes 12 Torsion [N]-CA--CB-[OG1] |==|  0.97282
USER: genes 13 Torsion [CA]-CB--OG1-[HG1] |==|  0.18317
ROOT
ATOM      1  CA  ALA C   2      22.814   1.725  46.317  1.00 19.98 LIG 0.17  C 
ATOM      2  CB  ALA C   2      22.797   0.848  47.571  1.00 20.88 LIG 0.04  C 
ENDROOT
BRANCH 1 3
ATOM      3  N   ALA C   2      24.100   1.644  45.645  1.00 19.64 LIG-0.35  N 
ATOM      4 H    ALA C   2      24.714   1.219  46.071  1.00 19.64 LIG 0.16  HD
ATOM      5  C   PHE C   1      24.251   2.207  44.458  1.00 22.16 LIG 0.24  C 
ATOM      6 O    PHE C   1      23.304   2.722  43.864  1.00 23.85 LIG-0.27  OA
BRANCH 5 7
ATOM      7  CA  PHE C   1      25.627   2.137  43.818  1.00 22.77 LIG 0.18  C 
BRANCH 7 8
ATOM      8  N   PHE C   1      25.432   1.921  42.409  1.00 26.70 LIG-0.35  N 
ATOM      9 H    PHE C   1      25.374   2.643  41.946  1.00 26.70 LIG 0.16  HD
ATOM     10  C   ACE C   0      25.352   0.717  41.896  1.00 28.63 LIG 0.21  C 
ATOM     11  CH3 ACE C   0      25.174   0.738  40.394  1.00 28.20 LIG 0.12  C 
ATOM     12 O    ACE C   0      25.419  -0.274  42.629  1.00 29.97 LIG-0.27  OA
ENDBRANCH 7 8
BRANCH 7 13
ATOM     13  CB  PHE C   1      26.420   3.421  43.957  1.00 20.34 LIG 0.07  C 
BRANCH 13 14
ATOM     14  CG  PHE C   1      25.887   4.538  43.098  1.00 17.40 LIG-0.06  A 
ATOM     15  CD1 PHE C   1      26.555   4.989  41.955  1.00 16.88 LIG 0.01  A 
ATOM     16  CE1 PHE C   1      26.026   6.055  41.195  1.00 14.02 LIG 0.00  A 
ATOM     17  CZ  PHE C   1      24.876   6.641  41.577  1.00 15.72 LIG 0.00  A 
ATOM     18  CE2 PHE C   1      24.215   6.195  42.705  1.00 14.79 LIG 0.00  A 
ATOM     19  CD2 PHE C   1      24.716   5.154  43.443  1.00 15.53 LIG 0.01  A 
ENDBRANCH 13 14
ENDBRANCH 7 13
ENDBRANCH 5 7
ENDBRANCH 1 3
BRANCH 1 20
ATOM     20  C   ALA C   2      22.530   3.159  46.713  1.00 17.39 LIG 0.24  C 
ATOM     21  N   THR C   3      21.239   3.502  46.723  1.00 15.98 LIG-0.34  N 
ATOM     22 H    THR C   3      20.595   2.982  46.490  1.00 15.98 LIG 0.16  HD
ATOM     23 O    ALA C   2      23.451   3.916  47.036  1.00 16.73 LIG-0.27  OA
BRANCH 21 24
ATOM     24  CA  THR C   3      20.830   4.830  47.146  1.00 15.15 LIG 0.20  C 
BRANCH 24 25
ATOM     25  C   THR C   3      20.907   4.959  48.657  1.00 14.93 LIG 0.24  C 
ATOM     26  N   ALA C   4      20.512   3.893  49.334  1.00 13.95 LIG-0.35  N 
ATOM     27 H    ALA C   4      20.185   3.189  48.963  1.00 13.95 LIG 0.16  HD
ATOM     28 O    THR C   3      21.351   5.977  49.197  1.00 16.43 LIG-0.27  OA
BRANCH 26 29
ATOM     29  CA  ALA C   4      20.593   3.813  50.773  1.00 14.93 LIG 0.18  C 
ATOM     30  CB  ALA C   4      22.049   3.984  51.190  1.00 15.34 LIG 0.04  C 
BRANCH 29 31
ATOM     31  C   ALA C   4      19.687   4.863  51.426  1.00 16.13 LIG 0.28  C 
ATOM     32 O    ALA C   4      19.271   5.819  50.776  1.00 17.37 LIG-0.27  OA
ATOM     33  N   NH2 C   5      19.388   4.688  52.711  1.00 15.73 LIG-0.11  N 
ENDBRANCH 29 31
ENDBRANCH 26 29
ENDBRANCH 24 25
BRANCH 24 34
ATOM     34  CB  THR C   3      19.415   5.166  46.657  1.00 16.10 LIG 0.15  C 
ATOM     35  CG2 THR C   3      19.352   6.523  45.964  1.00 16.48 LIG 0.04  C 
BRANCH 34 36
ATOM     36 OG1  THR C   3      19.001   4.154  45.730  1.00 16.89 LIG-0.39  OA
ATOM     37 HG1  THR C   3      18.923   3.421  46.133  1.00 16.89 LIG 0.21  HD
ENDBRANCH 34 36
ENDBRANCH 24 34
ENDBRANCH 21 24
ENDBRANCH 1 20
TORSDOF 12
ENDMDL
