MODEL 1
USER: ADFR SOLUTION from run 61
USER: SCORE 16.489067 LL:  -2.499 LR: -14.711 RR:   0.000 FEB:  -9.938
USER: RMSD 2.272229
USER: SEED 60
USER: STATUS no improvement in best in 4 clusters for 5 generations
USER: GENES 18
USER: genes 0 Translation |==|  0.52501 0.56290 0.49704
USER: genes 1 Rotation |==|  0.50569 0.58437 0.57812 0.98657
USER: genes 2 Torsion [C]-N--CA-[CB] |==|  0.50625
USER: genes 3 Torsion [N]-CA--CB-[OG] |==|  0.63841
USER: genes 4 Torsion [CA]-CB--OG-[HG] |==|  0.88033
USER: genes 5 Torsion [N]-CA--C-[N] |==|  0.41523
USER: genes 6 Torsion [C]-N--CA-[CB] |==|  0.40148
USER: genes 7 Torsion [N]-CA--CB-[CG] |==|  0.85303
USER: genes 8 Torsion [CA]-CB--CG-[CD] |==|  0.39162
USER: genes 9 Torsion [CB]-CG--CD-[CE] |==|  0.50413
USER: genes 10 Torsion [CG]-CD--CE-[NZ] |==|  0.27553
USER: genes 11 Torsion [CD]-CE--NZ-[HZ1] |==|  0.43167
USER: genes 12 Torsion [N]-CA--C-[OXT] |==|  0.97101
USER: genes 13 Torsion [N]-C--CA-[N] |==|  0.33602
USER: genes 14 Torsion [C]-CA--CB-[CG] |==|  0.66720
USER: genes 15 Torsion [CA]-CB--CG-[CD1] |==|  0.26545
USER: genes 16 Torsion [C]-CA--N-[C] |==|  0.72478
USER: genes 17 Torsion [N]-C--CA-[N] |==|  0.43260
ROOT
ATOM      1  C   LEU D   2      28.137 -24.372  -4.004  1.00 63.17 LIG 0.24  C 
ATOM      2 O    LEU D   2      26.967 -23.976  -4.089  1.00 65.03 LIG-0.27  OA
ATOM      3  N   SER D   3      28.512 -25.618  -4.290  1.00 44.71 LIG-0.34  N 
ATOM      4 H    SER D   3      29.306 -25.919  -4.160  1.00 44.71 LIG 0.16  HD
ENDROOT
BRANCH 3 5
ATOM      5  CA  SER D   3      27.578 -26.604  -4.863  1.00 47.15 LIG 0.20  C 
BRANCH 5 6
ATOM      6  CB  SER D   3      28.237 -27.976  -5.047  1.00 46.48 LIG 0.20  C 
BRANCH 6 7
ATOM      7 OG   SER D   3      28.014 -28.464  -6.353  1.00 63.57 LIG-0.40  OA
ATOM      8 HG   SER D   3      27.215 -28.324  -6.571  1.00 63.57 LIG 0.21  HD
ENDBRANCH 6 7
ENDBRANCH 5 6
BRANCH 5 9
ATOM      9  C   SER D   3      26.381 -26.750  -3.922  1.00 37.61 LIG 0.24  C 
ATOM     10  N   LYS D   4      25.206 -27.056  -4.482  1.00 35.09 LIG-0.34  N 
ATOM     11 H    LYS D   4      25.078 -27.105  -5.331  1.00 35.09 LIG 0.16  HD
ATOM     12 O    SER D   3      26.535 -26.582  -2.704  1.00 37.14 LIG-0.27  OA
BRANCH 10 13
ATOM     13  CA  LYS D   4      24.022 -27.336  -3.677  1.00 32.57 LIG 0.18  C 
BRANCH 13 14
ATOM     14  CB  LYS D   4      22.742 -26.826  -4.331  1.00 31.41 LIG 0.04  C 
BRANCH 14 15
ATOM     15  CG  LYS D   4      22.946 -25.344  -4.668  1.00 31.93 LIG 0.00  C 
BRANCH 15 16
ATOM     16  CD  LYS D   4      22.352 -24.888  -6.003  1.00 28.01 LIG 0.03  C 
BRANCH 16 17
ATOM     17  CE  LYS D   4      22.688 -23.383  -6.188  1.00 30.04 LIG 0.23  C 
BRANCH 17 18
ATOM     18  NZ  LYS D   4      23.842 -23.207  -7.065  1.00 33.56 LIG-0.08  N 
ATOM     19 HZ3  LYS D   4      23.832 -23.831  -7.700  1.00 33.56 LIG 0.27  HD
ATOM     20 HZ2  LYS D   4      24.591 -23.281  -6.589  1.00 33.56 LIG 0.27  HD
ATOM     21 HZ1  LYS D   4      23.810 -22.401  -7.441  1.00 33.56 LIG 0.27  HD
ENDBRANCH 17 18
ENDBRANCH 16 17
ENDBRANCH 15 16
ENDBRANCH 14 15
ENDBRANCH 13 14
BRANCH 13 22
ATOM     22  C   LYS D   4      23.944 -28.817  -3.373  1.00 36.61 LIG 0.20  C 
ATOM     23 OXT  LYS D   4      24.710 -29.609  -3.961  1.00 35.43 LIG-0.65  OA
ATOM     24 O    LYS D   4      23.093 -29.207  -2.574  1.00 33.95 LIG-0.65  OA
ENDBRANCH 13 22
ENDBRANCH 10 13
ENDBRANCH 5 9
ENDBRANCH 3 5
BRANCH 1 25
ATOM     25  CA  LEU D   2      29.223 -23.415  -3.513  1.00 72.77 LIG 0.18  C 
BRANCH 25 26
ATOM     26  CB  LEU D   2      28.893 -22.958  -2.063  1.00 74.70 LIG 0.04  C 
BRANCH 26 27
ATOM     27  CG  LEU D   2      28.674 -21.443  -1.746  1.00 82.94 LIG-0.02  C 
ATOM     28  CD1 LEU D   2      27.217 -20.991  -1.748  1.00 82.40 LIG 0.01  C 
ATOM     29  CD2 LEU D   2      29.351 -21.036  -0.421  1.00 81.51 LIG 0.01  C 
ENDBRANCH 26 27
ENDBRANCH 25 26
BRANCH 25 30
ATOM     30  N   LEU D   2      29.264 -22.286  -4.457  1.00 75.65 LIG-0.35  N 
ATOM     31 H    LEU D   2      28.648 -21.707  -4.299  1.00 75.65 LIG 0.16  HD
ATOM     32  C   PRO D   1      30.134 -22.127  -5.460  1.00 79.92 LIG 0.25  C 
ATOM     33 O    PRO D   1      29.909 -21.330  -6.378  1.00 91.02 LIG-0.27  OA
BRANCH 32 34
ATOM     34  CA  PRO D   1      31.424 -22.966  -5.500  1.00 80.93 LIG 0.28  C 
ATOM     35  N   PRO D   1      31.974 -23.118  -6.848  1.00 82.79 LIG-0.06  N 
ATOM     36  CD  PRO D   1      33.449 -23.183  -6.830  1.00 86.01 LIG 0.23  C 
ATOM     37 H3   PRO D   1      31.659 -23.832  -7.208  1.00 82.79 LIG 0.28  HD
ATOM     38 H2   PRO D   1      31.721 -22.457  -7.337  1.00 82.79 LIG 0.28  HD
ATOM     39  CG  PRO D   1      33.822 -22.683  -5.449  1.00 80.97 LIG 0.03  C 
ATOM     40  CB  PRO D   1      32.561 -22.266  -4.742  1.00 77.42 LIG 0.04  C 
ENDBRANCH 32 34
ENDBRANCH 25 30
ENDBRANCH 1 25
TORSDOF 16
ENDMDL
MODEL 2
USER: ADFR SOLUTION from run 160
USER: SCORE 15.143420 LL:  -2.325 LR: -14.134 RR:   0.000 FEB:  -9.361
USER: RMSD 7.509623
USER: SEED 159
USER: STATUS no improvement in best in 3 clusters for 5 generations
USER: GENES 18
USER: genes 0 Translation |==|  0.33837 0.46621 0.49269
USER: genes 1 Rotation |==|  0.46102 0.90416 0.67905 0.73038
USER: genes 2 Torsion [C]-N--CA-[CB] |==|  0.23206
USER: genes 3 Torsion [N]-CA--CB-[OG] |==|  0.70447
USER: genes 4 Torsion [CA]-CB--OG-[HG] |==|  0.44675
USER: genes 5 Torsion [N]-CA--C-[N] |==|  0.27487
USER: genes 6 Torsion [C]-N--CA-[CB] |==|  0.44054
USER: genes 7 Torsion [N]-CA--CB-[CG] |==|  0.78028
USER: genes 8 Torsion [CA]-CB--CG-[CD] |==|  0.82245
USER: genes 9 Torsion [CB]-CG--CD-[CE] |==|  0.43978
USER: genes 10 Torsion [CG]-CD--CE-[NZ] |==|  0.77654
USER: genes 11 Torsion [CD]-CE--NZ-[HZ1] |==|  0.40285
USER: genes 12 Torsion [N]-CA--C-[OXT] |==|  0.28936
USER: genes 13 Torsion [N]-C--CA-[N] |==|  0.41993
USER: genes 14 Torsion [C]-CA--CB-[CG] |==|  0.98959
USER: genes 15 Torsion [CA]-CB--CG-[CD1] |==|  0.22793
USER: genes 16 Torsion [C]-CA--N-[C] |==|  0.57789
USER: genes 17 Torsion [N]-C--CA-[N] |==|  0.83253
ROOT
ATOM      1  C   LEU D   2      24.078 -26.040  -4.066  1.00 63.17 LIG 0.24  C 
ATOM      2 O    LEU D   2      23.939 -25.991  -2.836  1.00 65.03 LIG-0.27  OA
ATOM      3  N   SER D   3      24.528 -27.115  -4.712  1.00 44.71 LIG-0.34  N 
ATOM      4 H    SER D   3      24.698 -27.128  -5.554  1.00 44.71 LIG 0.16  HD
ENDROOT
BRANCH 3 5
ATOM      5  CA  SER D   3      24.777 -28.394  -4.024  1.00 47.15 LIG 0.20  C 
BRANCH 5 6
ATOM      6  CB  SER D   3      23.496 -29.225  -3.881  1.00 46.48 LIG 0.20  C 
BRANCH 6 7
ATOM      7 OG   SER D   3      23.038 -29.207  -2.547  1.00 63.57 LIG-0.40  OA
ATOM      8 HG   SER D   3      22.228 -29.429  -2.525  1.00 63.57 LIG 0.21  HD
ENDBRANCH 6 7
ENDBRANCH 5 6
BRANCH 5 9
ATOM      9  C   SER D   3      25.800 -29.193  -4.832  1.00 37.61 LIG 0.24  C 
ATOM     10  N   LYS D   4      27.069 -29.147  -4.413  1.00 35.09 LIG-0.34  N 
ATOM     11 H    LYS D   4      27.344 -28.647  -3.769  1.00 35.09 LIG 0.16  HD
ATOM     12 O    SER D   3      25.431 -29.839  -5.822  1.00 37.14 LIG-0.27  OA
BRANCH 10 13
ATOM     13  CA  LYS D   4      28.112 -29.961  -5.030  1.00 32.57 LIG 0.18  C 
BRANCH 13 14
ATOM     14  CB  LYS D   4      29.508 -29.398  -4.783  1.00 31.41 LIG 0.04  C 
BRANCH 14 15
ATOM     15  CG  LYS D   4      29.726 -28.238  -5.763  1.00 31.93 LIG 0.00  C 
BRANCH 15 16
ATOM     16  CD  LYS D   4      29.728 -28.623  -7.245  1.00 28.01 LIG 0.03  C 
BRANCH 16 17
ATOM     17  CE  LYS D   4      29.405 -27.349  -8.072  1.00 30.04 LIG 0.23  C 
BRANCH 17 18
ATOM     18  NZ  LYS D   4      27.968 -27.085  -8.087  1.00 33.56 LIG-0.08  N 
ATOM     19 HZ3  LYS D   4      27.591 -27.449  -7.367  1.00 33.56 LIG 0.27  HD
ATOM     20 HZ2  LYS D   4      27.608 -27.439  -8.820  1.00 33.56 LIG 0.27  HD
ATOM     21 HZ1  LYS D   4      27.828 -26.207  -8.083  1.00 33.56 LIG 0.27  HD
ENDBRANCH 17 18
ENDBRANCH 16 17
ENDBRANCH 15 16
ENDBRANCH 14 15
ENDBRANCH 13 14
BRANCH 13 22
ATOM     22  C   LYS D   4      27.994 -31.394  -4.559  1.00 36.61 LIG 0.20  C 
ATOM     23 OXT  LYS D   4      27.512 -32.257  -5.323  1.00 35.43 LIG-0.65  OA
ATOM     24 O    LYS D   4      28.343 -31.664  -3.410  1.00 33.95 LIG-0.65  OA
ENDBRANCH 13 22
ENDBRANCH 10 13
ENDBRANCH 5 9
ENDBRANCH 3 5
BRANCH 1 25
ATOM     25  CA  LEU D   2      23.759 -24.805  -4.909  1.00 72.77 LIG 0.18  C 
BRANCH 25 26
ATOM     26  CB  LEU D   2      25.048 -23.954  -5.087  1.00 74.70 LIG 0.04  C 
BRANCH 26 27
ATOM     27  CG  LEU D   2      26.374 -24.372  -4.370  1.00 82.94 LIG-0.02  C 
ATOM     28  CD1 LEU D   2      27.178 -25.451  -5.087  1.00 82.40 LIG 0.01  C 
ATOM     29  CD2 LEU D   2      27.270 -23.152  -4.076  1.00 81.51 LIG 0.01  C 
ENDBRANCH 26 27
ENDBRANCH 25 26
BRANCH 25 30
ATOM     30  N   LEU D   2      22.695 -24.066  -4.209  1.00 75.65 LIG-0.35  N 
ATOM     31 H    LEU D   2      22.715 -24.194  -3.359  1.00 75.65 LIG 0.16  HD
ATOM     32  C   PRO D   1      21.778 -23.276  -4.777  1.00 79.92 LIG 0.25  C 
ATOM     33 O    PRO D   1      20.752 -22.953  -4.168  1.00 91.02 LIG-0.27  OA
BRANCH 32 34
ATOM     34  CA  PRO D   1      21.976 -22.781  -6.221  1.00 80.93 LIG 0.28  C 
ATOM     35  N   PRO D   1      23.192 -21.984  -6.397  1.00 82.79 LIG-0.06  N 
ATOM     36  CD  PRO D   1      23.779 -22.177  -7.738  1.00 86.01 LIG 0.23  C 
ATOM     37 H3   PRO D   1      23.009 -21.152  -6.280  1.00 82.79 LIG 0.28  HD
ATOM     38 H2   PRO D   1      23.768 -22.202  -5.797  1.00 82.79 LIG 0.28  HD
ATOM     39  CG  PRO D   1      23.093 -23.421  -8.264  1.00 80.97 LIG 0.03  C 
ATOM     40  CB  PRO D   1      22.195 -23.957  -7.183  1.00 77.42 LIG 0.04  C 
ENDBRANCH 32 34
ENDBRANCH 25 30
ENDBRANCH 1 25
TORSDOF 16
ENDMDL
MODEL 3
USER: ADFR SOLUTION from run 34
USER: SCORE 14.943222 LL:  -1.880 LR: -14.130 RR:   0.000 FEB:  -9.357
USER: RMSD 3.534993
USER: SEED 33
USER: STATUS no improvement in best in 4 clusters for 5 generations
USER: GENES 18
USER: genes 0 Translation |==|  0.54467 0.46319 0.53831
USER: genes 1 Rotation |==|  0.63623 0.63908 0.59393 0.95086
USER: genes 2 Torsion [C]-N--CA-[CB] |==|  0.57501
USER: genes 3 Torsion [N]-CA--CB-[OG] |==|  0.56316
USER: genes 4 Torsion [CA]-CB--OG-[HG] |==|  0.01276
USER: genes 5 Torsion [N]-CA--C-[N] |==|  0.34704
USER: genes 6 Torsion [C]-N--CA-[CB] |==|  0.50063
USER: genes 7 Torsion [N]-CA--CB-[CG] |==|  0.85730
USER: genes 8 Torsion [CA]-CB--CG-[CD] |==|  0.50102
USER: genes 9 Torsion [CB]-CG--CD-[CE] |==|  0.59734
USER: genes 10 Torsion [CG]-CD--CE-[NZ] |==|  0.64931
USER: genes 11 Torsion [CD]-CE--NZ-[HZ1] |==|  0.98341
USER: genes 12 Torsion [N]-CA--C-[OXT] |==|  0.94456
USER: genes 13 Torsion [N]-C--CA-[N] |==|  0.19432
USER: genes 14 Torsion [C]-CA--CB-[CG] |==|  0.19367
USER: genes 15 Torsion [CA]-CB--CG-[CD1] |==|  0.10743
USER: genes 16 Torsion [C]-CA--N-[C] |==|  0.18889
USER: genes 17 Torsion [N]-C--CA-[N] |==|  0.45285
ROOT
ATOM      1  C   LEU D   2      28.565 -26.092  -3.416  1.00 63.17 LIG 0.24  C 
ATOM      2 O    LEU D   2      27.459 -25.792  -2.945  1.00 65.03 LIG-0.27  OA
ATOM      3  N   SER D   3      28.735 -27.030  -4.347  1.00 44.71 LIG-0.34  N 
ATOM      4 H    SER D   3      29.505 -27.295  -4.621  1.00 44.71 LIG 0.16  HD
ENDROOT
BRANCH 3 5
ATOM      5  CA  SER D   3      27.597 -27.702  -4.998  1.00 47.15 LIG 0.20  C 
BRANCH 5 6
ATOM      6  CB  SER D   3      27.966 -29.108  -5.486  1.00 46.48 LIG 0.20  C 
BRANCH 6 7
ATOM      7 OG   SER D   3      27.097 -29.520  -6.518  1.00 63.57 LIG-0.40  OA
ATOM      8 HG   SER D   3      26.577 -28.890  -6.715  1.00 63.57 LIG 0.21  HD
ENDBRANCH 6 7
ENDBRANCH 5 6
BRANCH 5 9
ATOM      9  C   SER D   3      26.451 -27.811  -3.990  1.00 37.61 LIG 0.24  C 
ATOM     10  N   LYS D   4      25.272 -27.300  -4.358  1.00 35.09 LIG-0.34  N 
ATOM     11 H    LYS D   4      25.145 -26.862  -5.087  1.00 35.09 LIG 0.16  HD
ATOM     12 O    SER D   3      26.649 -28.353  -2.894  1.00 37.14 LIG-0.27  OA
BRANCH 10 13
ATOM     13  CA  LYS D   4      24.079 -27.449  -3.531  1.00 32.57 LIG 0.18  C 
BRANCH 13 14
ATOM     14  CB  LYS D   4      22.854 -26.790  -4.157  1.00 31.41 LIG 0.04  C 
BRANCH 14 15
ATOM     15  CG  LYS D   4      23.233 -25.350  -4.524  1.00 31.93 LIG 0.00  C 
BRANCH 15 16
ATOM     16  CD  LYS D   4      22.115 -24.521  -5.162  1.00 28.01 LIG 0.03  C 
BRANCH 16 17
ATOM     17  CE  LYS D   4      22.760 -23.575  -6.212  1.00 30.04 LIG 0.23  C 
BRANCH 17 18
ATOM     18  NZ  LYS D   4      22.380 -22.186  -5.970  1.00 33.56 LIG-0.08  N 
ATOM     19 HZ3  LYS D   4      22.030 -21.839  -6.712  1.00 33.56 LIG 0.27  HD
ATOM     20 HZ2  LYS D   4      23.100 -21.717  -5.735  1.00 33.56 LIG 0.27  HD
ATOM     21 HZ1  LYS D   4      21.779 -22.152  -5.315  1.00 33.56 LIG 0.27  HD
ENDBRANCH 17 18
ENDBRANCH 16 17
ENDBRANCH 15 16
ENDBRANCH 14 15
ENDBRANCH 13 14
BRANCH 13 22
ATOM     22  C   LYS D   4      23.837 -28.914  -3.235  1.00 36.61 LIG 0.20  C 
ATOM     23 OXT  LYS D   4      24.358 -29.785  -3.962  1.00 35.43 LIG-0.65  OA
ATOM     24 O    LYS D   4      23.093 -29.207  -2.299  1.00 33.95 LIG-0.65  OA
ENDBRANCH 13 22
ENDBRANCH 10 13
ENDBRANCH 5 9
ENDBRANCH 3 5
BRANCH 1 25
ATOM     25  CA  LEU D   2      29.820 -25.395  -2.893  1.00 72.77 LIG 0.18  C 
BRANCH 25 26
ATOM     26  CB  LEU D   2      29.464 -24.569  -1.625  1.00 74.70 LIG 0.04  C 
BRANCH 26 27
ATOM     27  CG  LEU D   2      29.093 -25.295  -0.291  1.00 82.94 LIG-0.02  C 
ATOM     28  CD1 LEU D   2      29.911 -26.547   0.007  1.00 82.40 LIG 0.01  C 
ATOM     29  CD2 LEU D   2      29.143 -24.333   0.913  1.00 81.51 LIG 0.01  C 
ENDBRANCH 26 27
ENDBRANCH 25 26
BRANCH 25 30
ATOM     30  N   LEU D   2      30.332 -24.549  -3.985  1.00 75.65 LIG-0.35  N 
ATOM     31 H    LEU D   2      31.082 -24.834  -4.293  1.00 75.65 LIG 0.16  HD
ATOM     32  C   PRO D   1      29.743 -23.455  -4.478  1.00 79.92 LIG 0.25  C 
ATOM     33 O    PRO D   1      30.377 -22.644  -5.162  1.00 91.02 LIG-0.27  OA
BRANCH 32 34
ATOM     34  CA  PRO D   1      28.261 -23.175  -4.172  1.00 80.93 LIG 0.28  C 
ATOM     35  N   PRO D   1      27.868 -21.788  -4.432  1.00 82.79 LIG-0.06  N 
ATOM     36  CD  PRO D   1      26.469 -21.697  -4.896  1.00 86.01 LIG 0.23  C 
ATOM     37 H3   PRO D   1      27.965 -21.323  -3.716  1.00 82.79 LIG 0.28  HD
ATOM     38 H2   PRO D   1      28.390 -21.449  -5.025  1.00 82.79 LIG 0.28  HD
ATOM     39  CG  PRO D   1      26.116 -23.119  -5.280  1.00 80.97 LIG 0.03  C 
ATOM     40  CB  PRO D   1      27.342 -23.973  -5.108  1.00 77.42 LIG 0.04  C 
ENDBRANCH 32 34
ENDBRANCH 25 30
ENDBRANCH 1 25
TORSDOF 16
ENDMDL
MODEL 4
USER: ADFR SOLUTION from run 63
USER: SCORE 15.342532 LL:  -2.302 LR: -13.987 RR:   0.000 FEB:  -9.214
USER: RMSD 3.213100
USER: SEED 62
USER: STATUS searching
USER: GENES 18
USER: genes 0 Translation |==|  0.55637 0.47925 0.61863
USER: genes 1 Rotation |==|  0.76655 0.76770 0.78816 0.65573
USER: genes 2 Torsion [C]-N--CA-[CB] |==|  0.84408
USER: genes 3 Torsion [N]-CA--CB-[OG] |==|  0.55329
USER: genes 4 Torsion [CA]-CB--OG-[HG] |==|  0.99969
USER: genes 5 Torsion [N]-CA--C-[N] |==|  0.38793
USER: genes 6 Torsion [C]-N--CA-[CB] |==|  0.46040
USER: genes 7 Torsion [N]-CA--CB-[CG] |==|  0.77201
USER: genes 8 Torsion [CA]-CB--CG-[CD] |==|  0.18249
USER: genes 9 Torsion [CB]-CG--CD-[CE] |==|  0.33457
USER: genes 10 Torsion [CG]-CD--CE-[NZ] |==|  0.57421
USER: genes 11 Torsion [CD]-CE--NZ-[HZ1] |==|  0.27608
USER: genes 12 Torsion [N]-CA--C-[OXT] |==|  0.92511
USER: genes 13 Torsion [N]-C--CA-[N] |==|  0.68118
USER: genes 14 Torsion [C]-CA--CB-[CG] |==|  0.21727
USER: genes 15 Torsion [CA]-CB--CG-[CD1] |==|  0.27648
USER: genes 16 Torsion [C]-CA--N-[C] |==|  0.58445
USER: genes 17 Torsion [N]-C--CA-[N] |==|  0.49457
ROOT
ATOM      1  C   LEU D   2      28.819 -25.815  -2.271  1.00 63.17 LIG 0.24  C 
ATOM      2 O    LEU D   2      28.753 -26.947  -1.774  1.00 65.03 LIG-0.27  OA
ATOM      3  N   SER D   3      28.356 -25.519  -3.485  1.00 44.71 LIG-0.34  N 
ATOM      4 H    SER D   3      28.467 -24.756  -3.866  1.00 44.71 LIG 0.16  HD
ENDROOT
BRANCH 3 5
ATOM      5  CA  SER D   3      27.598 -26.493  -4.292  1.00 47.15 LIG 0.20  C 
BRANCH 5 6
ATOM      6  CB  SER D   3      28.383 -27.793  -4.504  1.00 46.48 LIG 0.20  C 
BRANCH 6 7
ATOM      7 OG   SER D   3      27.865 -28.513  -5.601  1.00 63.57 LIG-0.40  OA
ATOM      8 HG   SER D   3      27.218 -28.091  -5.933  1.00 63.57 LIG 0.21  HD
ENDBRANCH 6 7
ENDBRANCH 5 6
BRANCH 5 9
ATOM      9  C   SER D   3      26.289 -26.814  -3.569  1.00 37.61 LIG 0.24  C 
ATOM     10  N   LYS D   4      25.194 -26.931  -4.327  1.00 35.09 LIG-0.34  N 
ATOM     11 H    LYS D   4      25.175 -26.769  -5.172  1.00 35.09 LIG 0.16  HD
ATOM     12 O    SER D   3      26.286 -26.951  -2.338  1.00 37.14 LIG-0.27  OA
BRANCH 10 13
ATOM     13  CA  LYS D   4      23.913 -27.351  -3.767  1.00 32.57 LIG 0.18  C 
BRANCH 13 14
ATOM     14  CB  LYS D   4      22.749 -27.082  -4.715  1.00 31.41 LIG 0.04  C 
BRANCH 14 15
ATOM     15  CG  LYS D   4      22.345 -25.611  -4.556  1.00 31.93 LIG 0.00  C 
BRANCH 15 16
ATOM     16  CD  LYS D   4      23.396 -24.592  -5.006  1.00 28.01 LIG 0.03  C 
BRANCH 16 17
ATOM     17  CE  LYS D   4      22.769 -23.723  -6.131  1.00 30.04 LIG 0.23  C 
BRANCH 17 18
ATOM     18  NZ  LYS D   4      23.800 -23.195  -7.021  1.00 33.56 LIG-0.08  N 
ATOM     19 HZ3  LYS D   4      24.587 -23.209  -6.606  1.00 33.56 LIG 0.27  HD
ATOM     20 HZ2  LYS D   4      23.598 -22.357  -7.246  1.00 33.56 LIG 0.27  HD
ATOM     21 HZ1  LYS D   4      23.843 -23.696  -7.755  1.00 33.56 LIG 0.27  HD
ENDBRANCH 17 18
ENDBRANCH 16 17
ENDBRANCH 15 16
ENDBRANCH 14 15
ENDBRANCH 13 14
BRANCH 13 22
ATOM     22  C   LYS D   4      23.981 -28.807  -3.361  1.00 36.61 LIG 0.20  C 
ATOM     23 OXT  LYS D   4      24.775 -29.575  -3.945  1.00 35.43 LIG-0.65  OA
ATOM     24 O    LYS D   4      23.216 -29.207  -2.483  1.00 33.95 LIG-0.65  OA
ENDBRANCH 13 22
ENDBRANCH 10 13
ENDBRANCH 5 9
ENDBRANCH 3 5
BRANCH 1 25
ATOM     25  CA  LEU D   2      29.496 -24.688  -1.492  1.00 72.77 LIG 0.18  C 
BRANCH 25 26
ATOM     26  CB  LEU D   2      29.326 -23.349  -2.265  1.00 74.70 LIG 0.04  C 
BRANCH 26 27
ATOM     27  CG  LEU D   2      27.970 -22.573  -2.205  1.00 82.94 LIG-0.02  C 
ATOM     28  CD1 LEU D   2      27.942 -21.406  -1.224  1.00 82.40 LIG 0.01  C 
ATOM     29  CD2 LEU D   2      27.524 -22.099  -3.603  1.00 81.51 LIG 0.01  C 
ENDBRANCH 26 27
ENDBRANCH 25 26
BRANCH 25 30
ATOM     30  N   LEU D   2      30.911 -25.063  -1.331  1.00 75.65 LIG-0.35  N 
ATOM     31 H    LEU D   2      31.197 -25.543  -1.985  1.00 75.65 LIG 0.16  HD
ATOM     32  C   PRO D   1      31.706 -24.725  -0.311  1.00 79.92 LIG 0.25  C 
ATOM     33 O    PRO D   1      32.764 -25.329  -0.101  1.00 91.02 LIG-0.27  OA
BRANCH 32 34
ATOM     34  CA  PRO D   1      31.293 -23.590   0.643  1.00 80.93 LIG 0.28  C 
ATOM     35  N   PRO D   1      32.248 -23.374   1.733  1.00 82.79 LIG-0.06  N 
ATOM     36  CD  PRO D   1      32.317 -21.951   2.120  1.00 86.01 LIG 0.23  C 
ATOM     37 H3   PRO D   1      32.018 -23.846   2.413  1.00 82.79 LIG 0.28  HD
ATOM     38 H2   PRO D   1      33.027 -23.644   1.490  1.00 82.79 LIG 0.28  HD
ATOM     39  CG  PRO D   1      31.648 -21.224   0.973  1.00 80.97 LIG 0.03  C 
ATOM     40  CB  PRO D   1      31.287 -22.236  -0.080  1.00 77.42 LIG 0.04  C 
ENDBRANCH 32 34
ENDBRANCH 25 30
ENDBRANCH 1 25
TORSDOF 16
ENDMDL
MODEL 5
USER: ADFR SOLUTION from run 5
USER: SCORE 16.332091 LL:  -2.563 LR: -13.913 RR:   0.000 FEB:  -9.140
USER: RMSD 5.091959
USER: SEED 867419
USER: STATUS no improvement in best in 1 clusters for 5 generations
USER: GENES 18
USER: genes 0 Translation |==|  0.42305 0.33208 0.51953
USER: genes 1 Rotation |==|  0.12821 0.30444 0.23146 0.53765
USER: genes 2 Torsion [C]-N--CA-[CB] |==|  0.14323
USER: genes 3 Torsion [N]-CA--CB-[OG] |==|  0.08887
USER: genes 4 Torsion [CA]-CB--OG-[HG] |==|  0.13926
USER: genes 5 Torsion [N]-CA--C-[N] |==|  0.12726
USER: genes 6 Torsion [C]-N--CA-[CB] |==|  0.48107
USER: genes 7 Torsion [N]-CA--CB-[CG] |==|  0.36048
USER: genes 8 Torsion [CA]-CB--CG-[CD] |==|  0.59580
USER: genes 9 Torsion [CB]-CG--CD-[CE] |==|  0.02813
USER: genes 10 Torsion [CG]-CD--CE-[NZ] |==|  0.31807
USER: genes 11 Torsion [CD]-CE--NZ-[HZ1] |==|  0.57212
USER: genes 12 Torsion [N]-CA--C-[OXT] |==|  0.90543
USER: genes 13 Torsion [N]-C--CA-[N] |==|  0.90415
USER: genes 14 Torsion [C]-CA--CB-[CG] |==|  0.45374
USER: genes 15 Torsion [CA]-CB--CG-[CD1] |==|  0.79513
USER: genes 16 Torsion [C]-CA--N-[C] |==|  0.79404
USER: genes 17 Torsion [N]-C--CA-[N] |==|  0.32335
ROOT
ATOM      1  C   LEU D   2      25.919 -28.354  -3.684  1.00 63.17 LIG 0.24  C 
ATOM      2 O    LEU D   2      25.955 -29.538  -4.043  1.00 65.03 LIG-0.27  OA
ATOM      3  N   SER D   3      24.915 -27.528  -3.977  1.00 44.71 LIG-0.34  N 
ATOM      4 H    SER D   3      24.921 -26.688  -3.797  1.00 44.71 LIG 0.16  HD
ENDROOT
BRANCH 3 5
ATOM      5  CA  SER D   3      23.688 -27.996  -4.647  1.00 47.15 LIG 0.20  C 
BRANCH 5 6
ATOM      6  CB  SER D   3      23.076 -29.209  -3.935  1.00 46.48 LIG 0.20  C 
BRANCH 6 7
ATOM      7 OG   SER D   3      23.321 -29.146  -2.547  1.00 63.57 LIG-0.40  OA
ATOM      8 HG   SER D   3      23.101 -28.389  -2.257  1.00 63.57 LIG 0.21  HD
ENDBRANCH 6 7
ENDBRANCH 5 6
BRANCH 5 9
ATOM      9  C   SER D   3      22.669 -26.855  -4.652  1.00 37.61 LIG 0.24  C 
ATOM     10  N   LYS D   4      23.117 -25.647  -5.007  1.00 35.09 LIG-0.34  N 
ATOM     11 H    LYS D   4      23.944 -25.468  -5.162  1.00 35.09 LIG 0.16  HD
ATOM     12 O    SER D   3      21.494 -27.082  -4.333  1.00 37.14 LIG-0.27  OA
BRANCH 10 13
ATOM     13  CA  LYS D   4      22.216 -24.509  -5.164  1.00 32.57 LIG 0.18  C 
BRANCH 13 14
ATOM     14  CB  LYS D   4      22.967 -23.205  -5.410  1.00 31.41 LIG 0.04  C 
BRANCH 14 15
ATOM     15  CG  LYS D   4      22.344 -22.530  -6.638  1.00 31.93 LIG 0.00  C 
BRANCH 15 16
ATOM     16  CD  LYS D   4      23.322 -21.756  -7.527  1.00 28.01 LIG 0.03  C 
BRANCH 16 17
ATOM     17  CE  LYS D   4      24.764 -22.090  -7.055  1.00 30.04 LIG 0.23  C 
BRANCH 17 18
ATOM     18  NZ  LYS D   4      25.498 -22.818  -8.087  1.00 33.56 LIG-0.08  N 
ATOM     19 HZ3  LYS D   4      25.871 -22.240  -8.651  1.00 33.56 LIG 0.27  HD
ATOM     20 HZ2  LYS D   4      24.937 -23.347  -8.533  1.00 33.56 LIG 0.27  HD
ATOM     21 HZ1  LYS D   4      26.132 -23.313  -7.707  1.00 33.56 LIG 0.27  HD
ENDBRANCH 17 18
ENDBRANCH 16 17
ENDBRANCH 15 16
ENDBRANCH 14 15
ENDBRANCH 13 14
BRANCH 13 22
ATOM     22  C   LYS D   4      21.212 -24.794  -6.260  1.00 36.61 LIG 0.20  C 
ATOM     23 OXT  LYS D   4      21.556 -25.474  -7.250  1.00 35.43 LIG-0.65  OA
ATOM     24 O    LYS D   4      20.085 -24.309  -6.163  1.00 33.95 LIG-0.65  OA
ENDBRANCH 13 22
ENDBRANCH 10 13
ENDBRANCH 5 9
ENDBRANCH 3 5
BRANCH 1 25
ATOM     25  CA  LEU D   2      27.092 -27.770  -2.895  1.00 72.77 LIG 0.18  C 
BRANCH 25 26
ATOM     26  CB  LEU D   2      26.795 -27.876  -1.372  1.00 74.70 LIG 0.04  C 
BRANCH 26 27
ATOM     27  CG  LEU D   2      27.952 -27.723  -0.332  1.00 82.94 LIG-0.02  C 
ATOM     28  CD1 LEU D   2      28.896 -28.917  -0.243  1.00 82.40 LIG 0.01  C 
ATOM     29  CD2 LEU D   2      28.758 -26.428  -0.564  1.00 81.51 LIG 0.01  C 
ENDBRANCH 26 27
ENDBRANCH 25 26
BRANCH 25 30
ATOM     30  N   LEU D   2      27.258 -26.375  -3.336  1.00 75.65 LIG-0.35  N 
ATOM     31 H    LEU D   2      26.978 -25.813  -2.748  1.00 75.65 LIG 0.16  HD
ATOM     32  C   PRO D   1      27.775 -25.971  -4.500  1.00 79.92 LIG 0.25  C 
ATOM     33 O    PRO D   1      27.592 -24.820  -4.912  1.00 91.02 LIG-0.27  OA
BRANCH 32 34
ATOM     34  CA  PRO D   1      28.586 -26.953  -5.363  1.00 80.93 LIG 0.28  C 
ATOM     35  N   PRO D   1      27.968 -27.230  -6.661  1.00 82.79 LIG-0.06  N 
ATOM     36  CD  PRO D   1      28.982 -27.463  -7.708  1.00 86.01 LIG 0.23  C 
ATOM     37 H3   PRO D   1      27.459 -27.919  -6.596  1.00 82.79 LIG 0.28  HD
ATOM     38 H2   PRO D   1      27.468 -26.568  -6.888  1.00 82.79 LIG 0.28  HD
ATOM     39  CG  PRO D   1      30.268 -26.946  -7.097  1.00 80.97 LIG 0.03  C 
ATOM     40  CB  PRO D   1      29.946 -26.354  -5.752  1.00 77.42 LIG 0.04  C 
ENDBRANCH 32 34
ENDBRANCH 25 30
ENDBRANCH 1 25
TORSDOF 16
ENDMDL
MODEL 6
USER: ADFR SOLUTION from run 155
USER: SCORE 14.728751 LL:  -2.659 LR: -13.891 RR:   0.000 FEB:  -9.118
USER: RMSD 7.257147
USER: SEED 154
USER: STATUS 1 or 2 clusters left
USER: GENES 18
USER: genes 0 Translation |==|  0.25270 0.50815 0.38501
USER: genes 1 Rotation |==|  0.30203 0.35299 0.63357 0.91395
USER: genes 2 Torsion [C]-N--CA-[CB] |==|  0.08790
USER: genes 3 Torsion [N]-CA--CB-[OG] |==|  0.39407
USER: genes 4 Torsion [CA]-CB--OG-[HG] |==|  0.69301
USER: genes 5 Torsion [N]-CA--C-[N] |==|  0.78213
USER: genes 6 Torsion [C]-N--CA-[CB] |==|  0.38061
USER: genes 7 Torsion [N]-CA--CB-[CG] |==|  0.13774
USER: genes 8 Torsion [CA]-CB--CG-[CD] |==|  0.48055
USER: genes 9 Torsion [CB]-CG--CD-[CE] |==|  0.53096
USER: genes 10 Torsion [CG]-CD--CE-[NZ] |==|  0.85634
USER: genes 11 Torsion [CD]-CE--NZ-[HZ1] |==|  0.67135
USER: genes 12 Torsion [N]-CA--C-[OXT] |==|  0.93638
USER: genes 13 Torsion [N]-C--CA-[N] |==|  0.37697
USER: genes 14 Torsion [C]-CA--CB-[CG] |==|  0.74660
USER: genes 15 Torsion [CA]-CB--CG-[CD1] |==|  0.83034
USER: genes 16 Torsion [C]-CA--N-[C] |==|  0.73266
USER: genes 17 Torsion [N]-C--CA-[N] |==|  0.27534
ROOT
ATOM      1  C   LEU D   2      22.214 -25.316  -5.601  1.00 63.17 LIG 0.24  C 
ATOM      2 O    LEU D   2      21.768 -25.757  -6.669  1.00 65.03 LIG-0.27  OA
ATOM      3  N   SER D   3      22.649 -26.095  -4.611  1.00 44.71 LIG-0.34  N 
ATOM      4 H    SER D   3      22.887 -25.798  -3.840  1.00 44.71 LIG 0.16  HD
ENDROOT
BRANCH 3 5
ATOM      5  CA  SER D   3      22.759 -27.558  -4.756  1.00 47.15 LIG 0.20  C 
BRANCH 5 6
ATOM      6  CB  SER D   3      23.093 -27.965  -6.196  1.00 46.48 LIG 0.20  C 
BRANCH 6 7
ATOM      7 OG   SER D   3      23.990 -29.054  -6.209  1.00 63.57 LIG-0.40  OA
ATOM      8 HG   SER D   3      24.740 -28.797  -6.489  1.00 63.57 LIG 0.21  HD
ENDBRANCH 6 7
ENDBRANCH 5 6
BRANCH 5 9
ATOM      9  C   SER D   3      23.866 -28.059  -3.828  1.00 37.61 LIG 0.24  C 
ATOM     10  N   LYS D   4      25.126 -27.889  -4.243  1.00 35.09 LIG-0.34  N 
ATOM     11 H    LYS D   4      25.338 -27.582  -5.018  1.00 35.09 LIG 0.16  HD
ATOM     12 O    SER D   3      23.569 -28.594  -2.751  1.00 37.14 LIG-0.27  OA
BRANCH 10 13
ATOM     13  CA  LYS D   4      26.266 -28.218  -3.393  1.00 32.57 LIG 0.18  C 
BRANCH 13 14
ATOM     14  CB  LYS D   4      27.368 -28.945  -4.158  1.00 31.41 LIG 0.04  C 
BRANCH 14 15
ATOM     15  CG  LYS D   4      27.657 -28.147  -5.435  1.00 31.93 LIG 0.00  C 
BRANCH 15 16
ATOM     16  CD  LYS D   4      28.857 -28.633  -6.253  1.00 28.01 LIG 0.03  C 
BRANCH 16 17
ATOM     17  CE  LYS D   4      29.169 -27.558  -7.330  1.00 30.04 LIG 0.23  C 
BRANCH 17 18
ATOM     18  NZ  LYS D   4      27.970 -27.214  -8.091  1.00 33.56 LIG-0.08  N 
ATOM     19 HZ3  LYS D   4      27.809 -26.342  -8.014  1.00 33.56 LIG 0.27  HD
ATOM     20 HZ2  LYS D   4      27.275 -27.672  -7.774  1.00 33.56 LIG 0.27  HD
ATOM     21 HZ1  LYS D   4      28.094 -27.418  -8.948  1.00 33.56 LIG 0.27  HD
ENDBRANCH 17 18
ENDBRANCH 16 17
ENDBRANCH 15 16
ENDBRANCH 14 15
ENDBRANCH 13 14
BRANCH 13 22
ATOM     22  C   LYS D   4      26.784 -26.967  -2.718  1.00 36.61 LIG 0.20  C 
ATOM     23 OXT  LYS D   4      26.550 -25.850  -3.225  1.00 35.43 LIG-0.65  OA
ATOM     24 O    LYS D   4      27.462 -27.090  -1.698  1.00 33.95 LIG-0.65  OA
ENDBRANCH 13 22
ENDBRANCH 10 13
ENDBRANCH 5 9
ENDBRANCH 3 5
BRANCH 1 25
ATOM     25  CA  LEU D   2      22.245 -23.807  -5.363  1.00 72.77 LIG 0.18  C 
BRANCH 25 26
ATOM     26  CB  LEU D   2      20.811 -23.305  -5.032  1.00 74.70 LIG 0.04  C 
BRANCH 26 27
ATOM     27  CG  LEU D   2      19.866 -22.812  -6.177  1.00 82.94 LIG-0.02  C 
ATOM     28  CD1 LEU D   2      20.382 -21.611  -6.962  1.00 82.40 LIG 0.01  C 
ATOM     29  CD2 LEU D   2      19.499 -23.957  -7.142  1.00 81.51 LIG 0.01  C 
ENDBRANCH 26 27
ENDBRANCH 25 26
BRANCH 25 30
ATOM     30  N   LEU D   2      22.785 -23.187  -6.584  1.00 75.65 LIG-0.35  N 
ATOM     31 H    LEU D   2      22.180 -23.067  -7.183  1.00 75.65 LIG 0.16  HD
ATOM     32  C   PRO D   1      24.057 -22.832  -6.794  1.00 79.92 LIG 0.25  C 
ATOM     33 O    PRO D   1      24.477 -22.614  -7.936  1.00 91.02 LIG-0.27  OA
BRANCH 32 34
ATOM     34  CA  PRO D   1      25.030 -22.719  -5.607  1.00 80.93 LIG 0.28  C 
ATOM     35  N   PRO D   1      25.884 -23.897  -5.445  1.00 82.79 LIG-0.06  N 
ATOM     36  CD  PRO D   1      27.217 -23.534  -4.924  1.00 86.01 LIG 0.23  C 
ATOM     37 H3   PRO D   1      25.507 -24.453  -4.908  1.00 82.79 LIG 0.28  HD
ATOM     38 H2   PRO D   1      25.970 -24.296  -6.201  1.00 82.79 LIG 0.28  HD
ATOM     39  CG  PRO D   1      27.295 -22.035  -5.124  1.00 80.97 LIG 0.03  C 
ATOM     40  CB  PRO D   1      26.044 -21.588  -5.829  1.00 77.42 LIG 0.04  C 
ENDBRANCH 32 34
ENDBRANCH 25 30
ENDBRANCH 1 25
TORSDOF 16
ENDMDL
MODEL 7
USER: ADFR SOLUTION from run 168
USER: SCORE 14.962263 LL:  -2.274 LR: -13.868 RR:   0.000 FEB:  -9.095
USER: RMSD 5.008903
USER: SEED 167
USER: STATUS no improvement in best in 3 clusters for 5 generations
USER: GENES 18
USER: genes 0 Translation |==|  0.51916 0.34208 0.42600
USER: genes 1 Rotation |==|  0.75430 0.83183 0.65276 0.72778
USER: genes 2 Torsion [C]-N--CA-[CB] |==|  0.82293
USER: genes 3 Torsion [N]-CA--CB-[OG] |==|  0.22633
USER: genes 4 Torsion [CA]-CB--OG-[HG] |==|  0.09604
USER: genes 5 Torsion [N]-CA--C-[N] |==|  0.07252
USER: genes 6 Torsion [C]-N--CA-[CB] |==|  0.77773
USER: genes 7 Torsion [N]-CA--CB-[CG] |==|  0.78252
USER: genes 8 Torsion [CA]-CB--CG-[CD] |==|  0.82666
USER: genes 9 Torsion [CB]-CG--CD-[CE] |==|  0.62059
USER: genes 10 Torsion [CG]-CD--CE-[NZ] |==|  0.64565
USER: genes 11 Torsion [CD]-CE--NZ-[HZ1] |==|  0.47061
USER: genes 12 Torsion [N]-CA--C-[OXT] |==|  0.19999
USER: genes 13 Torsion [N]-C--CA-[N] |==|  0.39858
USER: genes 14 Torsion [C]-CA--CB-[CG] |==|  0.20308
USER: genes 15 Torsion [CA]-CB--CG-[CD1] |==|  0.76996
USER: genes 16 Torsion [C]-CA--N-[C] |==|  0.72068
USER: genes 17 Torsion [N]-C--CA-[N] |==|  0.28974
ROOT
ATOM      1  C   LEU D   2      28.010 -28.181  -5.016  1.00 63.17 LIG 0.24  C 
ATOM      2 O    LEU D   2      27.939 -28.796  -3.944  1.00 65.03 LIG-0.27  OA
ATOM      3  N   SER D   3      27.316 -28.519  -6.103  1.00 44.71 LIG-0.34  N 
ATOM      4 H    SER D   3      27.418 -28.144  -6.870  1.00 44.71 LIG 0.16  HD
ENDROOT
BRANCH 3 5
ATOM      5  CA  SER D   3      26.296 -29.583  -6.080  1.00 47.15 LIG 0.20  C 
BRANCH 5 6
ATOM      6  CB  SER D   3      26.906 -30.953  -5.762  1.00 46.48 LIG 0.20  C 
BRANCH 6 7
ATOM      7 OG   SER D   3      27.089 -31.104  -4.371  1.00 63.57 LIG-0.40  OA
ATOM      8 HG   SER D   3      26.468 -30.713  -3.962  1.00 63.57 LIG 0.21  HD
ENDBRANCH 6 7
ENDBRANCH 5 6
BRANCH 5 9
ATOM      9  C   SER D   3      25.256 -29.241  -5.011  1.00 37.61 LIG 0.24  C 
ATOM     10  N   LYS D   4      25.102 -27.947  -4.712  1.00 35.09 LIG-0.34  N 
ATOM     11 H    LYS D   4      25.593 -27.318  -5.031  1.00 35.09 LIG 0.16  HD
ATOM     12 O    SER D   3      24.610 -30.149  -4.472  1.00 37.14 LIG-0.27  OA
BRANCH 10 13
ATOM     13  CA  LYS D   4      24.060 -27.490  -3.797  1.00 32.57 LIG 0.18  C 
BRANCH 13 14
ATOM     14  CB  LYS D   4      22.695 -27.397  -4.472  1.00 31.41 LIG 0.04  C 
BRANCH 14 15
ATOM     15  CG  LYS D   4      22.669 -26.106  -5.300  1.00 31.93 LIG 0.00  C 
BRANCH 15 16
ATOM     16  CD  LYS D   4      22.819 -24.811  -4.497  1.00 28.01 LIG 0.03  C 
BRANCH 16 17
ATOM     17  CE  LYS D   4      21.788 -23.786  -5.044  1.00 30.04 LIG 0.23  C 
BRANCH 17 18
ATOM     18  NZ  LYS D   4      22.435 -22.522  -5.388  1.00 33.56 LIG-0.08  N 
ATOM     19 HZ3  LYS D   4      23.151 -22.682  -5.893  1.00 33.56 LIG 0.27  HD
ATOM     20 HZ2  LYS D   4      22.686 -22.105  -4.643  1.00 33.56 LIG 0.27  HD
ATOM     21 HZ1  LYS D   4      21.865 -22.009  -5.837  1.00 33.56 LIG 0.27  HD
ENDBRANCH 17 18
ENDBRANCH 16 17
ENDBRANCH 15 16
ENDBRANCH 14 15
ENDBRANCH 13 14
BRANCH 13 22
ATOM     22  C   LYS D   4      24.021 -28.381  -2.574  1.00 36.61 LIG 0.20  C 
ATOM     23 OXT  LYS D   4      24.939 -28.313  -1.731  1.00 35.43 LIG-0.65  OA
ATOM     24 O    LYS D   4      23.095 -29.185  -2.465  1.00 33.95 LIG-0.65  OA
ENDBRANCH 13 22
ENDBRANCH 10 13
ENDBRANCH 5 9
ENDBRANCH 3 5
BRANCH 1 25
ATOM     25  CA  LEU D   2      28.962 -26.992  -5.142  1.00 72.77 LIG 0.18  C 
BRANCH 25 26
ATOM     26  CB  LEU D   2      30.391 -27.507  -5.477  1.00 74.70 LIG 0.04  C 
BRANCH 26 27
ATOM     27  CG  LEU D   2      30.715 -28.055  -6.906  1.00 82.94 LIG-0.02  C 
ATOM     28  CD1 LEU D   2      30.325 -29.511  -7.137  1.00 82.40 LIG 0.01  C 
ATOM     29  CD2 LEU D   2      30.107 -27.164  -8.008  1.00 81.51 LIG 0.01  C 
ENDBRANCH 26 27
ENDBRANCH 25 26
BRANCH 25 30
ATOM     30  N   LEU D   2      28.918 -26.265  -3.862  1.00 75.65 LIG-0.35  N 
ATOM     31 H    LEU D   2      29.398 -26.643  -3.257  1.00 75.65 LIG 0.16  HD
ATOM     32  C   PRO D   1      28.230 -25.147  -3.613  1.00 79.92 LIG 0.25  C 
ATOM     33 O    PRO D   1      28.000 -24.785  -2.453  1.00 91.02 LIG-0.27  OA
BRANCH 32 34
ATOM     34  CA  PRO D   1      27.683 -24.304  -4.779  1.00 80.93 LIG 0.28  C 
ATOM     35  N   PRO D   1      26.240 -24.457  -4.978  1.00 82.79 LIG-0.06  N 
ATOM     36  CD  PRO D   1      25.622 -23.207  -5.462  1.00 86.01 LIG 0.23  C 
ATOM     37 H3   PRO D   1      26.094 -25.088  -5.543  1.00 82.79 LIG 0.28  HD
ATOM     38 H2   PRO D   1      25.872 -24.692  -4.237  1.00 82.79 LIG 0.28  HD
ATOM     39  CG  PRO D   1      26.674 -22.150  -5.197  1.00 80.97 LIG 0.03  C 
ATOM     40  CB  PRO D   1      27.832 -22.803  -4.493  1.00 77.42 LIG 0.04  C 
ENDBRANCH 32 34
ENDBRANCH 25 30
ENDBRANCH 1 25
TORSDOF 16
ENDMDL
MODEL 8
USER: ADFR SOLUTION from run 63
USER: SCORE 14.878528 LL:  -2.234 LR: -13.684 RR:   0.000 FEB:  -8.912
USER: RMSD 3.342699
USER: SEED 62
USER: STATUS searching
USER: GENES 18
USER: genes 0 Translation |==|  0.53917 0.47843 0.58428
USER: genes 1 Rotation |==|  0.74828 0.71078 0.75078 0.78468
USER: genes 2 Torsion [C]-N--CA-[CB] |==|  0.78791
USER: genes 3 Torsion [N]-CA--CB-[OG] |==|  0.60920
USER: genes 4 Torsion [CA]-CB--OG-[HG] |==|  0.93719
USER: genes 5 Torsion [N]-CA--C-[N] |==|  0.56052
USER: genes 6 Torsion [C]-N--CA-[CB] |==|  0.30370
USER: genes 7 Torsion [N]-CA--CB-[CG] |==|  0.68444
USER: genes 8 Torsion [CA]-CB--CG-[CD] |==|  0.21422
USER: genes 9 Torsion [CB]-CG--CD-[CE] |==|  0.26108
USER: genes 10 Torsion [CG]-CD--CE-[NZ] |==|  0.59033
USER: genes 11 Torsion [CD]-CE--NZ-[HZ1] |==|  0.34732
USER: genes 12 Torsion [N]-CA--C-[OXT] |==|  0.91796
USER: genes 13 Torsion [N]-C--CA-[N] |==|  0.21086
USER: genes 14 Torsion [C]-CA--CB-[CG] |==|  0.13499
USER: genes 15 Torsion [CA]-CB--CG-[CD1] |==|  0.27067
USER: genes 16 Torsion [C]-CA--N-[C] |==|  0.78886
USER: genes 17 Torsion [N]-C--CA-[N] |==|  0.47532
ROOT
ATOM      1  C   LEU D   2      28.445 -25.829  -2.761  1.00 63.17 LIG 0.24  C 
ATOM      2 O    LEU D   2      27.762 -26.649  -2.133  1.00 65.03 LIG-0.27  OA
ATOM      3  N   SER D   3      28.473 -25.764  -4.091  1.00 44.71 LIG-0.34  N 
ATOM      4 H    SER D   3      29.002 -25.250  -4.533  1.00 44.71 LIG 0.16  HD
ENDROOT
BRANCH 3 5
ATOM      5  CA  SER D   3      27.584 -26.584  -4.934  1.00 47.15 LIG 0.20  C 
BRANCH 5 6
ATOM      6  CB  SER D   3      28.054 -28.041  -5.014  1.00 46.48 LIG 0.20  C 
BRANCH 6 7
ATOM      7 OG   SER D   3      27.880 -28.548  -6.319  1.00 63.57 LIG-0.40  OA
ATOM      8 HG   SER D   3      27.291 -28.100  -6.718  1.00 63.57 LIG 0.21  HD
ENDBRANCH 6 7
ENDBRANCH 5 6
BRANCH 5 9
ATOM      9  C   SER D   3      26.175 -26.548  -4.337  1.00 37.61 LIG 0.24  C 
ATOM     10  N   LYS D   4      25.353 -27.548  -4.670  1.00 35.09 LIG-0.34  N 
ATOM     11 H    LYS D   4      25.548 -28.159  -5.243  1.00 35.09 LIG 0.16  HD
ATOM     12 O    SER D   3      25.851 -25.617  -3.587  1.00 37.14 LIG-0.27  OA
BRANCH 10 13
ATOM     13  CA  LYS D   4      24.029 -27.685  -4.071  1.00 32.57 LIG 0.18  C 
BRANCH 13 14
ATOM     14  CB  LYS D   4      22.911 -27.375  -5.061  1.00 31.41 LIG 0.04  C 
BRANCH 14 15
ATOM     15  CG  LYS D   4      22.202 -26.101  -4.583  1.00 31.93 LIG 0.00  C 
BRANCH 15 16
ATOM     16  CD  LYS D   4      22.946 -24.793  -4.868  1.00 28.01 LIG 0.03  C 
BRANCH 16 17
ATOM     17  CE  LYS D   4      22.416 -24.224  -6.214  1.00 30.04 LIG 0.23  C 
BRANCH 17 18
ATOM     18  NZ  LYS D   4      23.468 -23.509  -6.931  1.00 33.56 LIG-0.08  N 
ATOM     19 HZ3  LYS D   4      24.239 -23.596  -6.493  1.00 33.56 LIG 0.27  HD
ATOM     20 HZ2  LYS D   4      23.256 -22.646  -6.988  1.00 33.56 LIG 0.27  HD
ATOM     21 HZ1  LYS D   4      23.552 -23.848  -7.749  1.00 33.56 LIG 0.27  HD
ENDBRANCH 17 18
ENDBRANCH 16 17
ENDBRANCH 15 16
ENDBRANCH 14 15
ENDBRANCH 13 14
BRANCH 13 22
ATOM     22  C   LYS D   4      23.877 -29.065  -3.467  1.00 36.61 LIG 0.20  C 
ATOM     23 OXT  LYS D   4      24.500 -30.027  -3.962  1.00 35.43 LIG-0.65  OA
ATOM     24 O    LYS D   4      23.104 -29.207  -2.520  1.00 33.95 LIG-0.65  OA
ENDBRANCH 13 22
ENDBRANCH 10 13
ENDBRANCH 5 9
ENDBRANCH 3 5
BRANCH 1 25
ATOM     25  CA  LEU D   2      29.341 -24.854  -1.998  1.00 72.77 LIG 0.18  C 
BRANCH 25 26
ATOM     26  CB  LEU D   2      29.527 -25.355  -0.538  1.00 74.70 LIG 0.04  C 
BRANCH 26 27
ATOM     27  CG  LEU D   2      29.920 -26.843  -0.261  1.00 82.94 LIG-0.02  C 
ATOM     28  CD1 LEU D   2      31.408 -27.080  -0.023  1.00 82.40 LIG 0.01  C 
ATOM     29  CD2 LEU D   2      29.098 -27.442   0.898  1.00 81.51 LIG 0.01  C 
ENDBRANCH 26 27
ENDBRANCH 25 26
BRANCH 25 30
ATOM     30  N   LEU D   2      28.692 -23.533  -2.056  1.00 75.65 LIG-0.35  N 
ATOM     31 H    LEU D   2      28.311 -23.326  -1.313  1.00 75.65 LIG 0.16  HD
ATOM     32  C   PRO D   1      28.666 -22.712  -3.110  1.00 79.92 LIG 0.25  C 
ATOM     33 O    PRO D   1      27.851 -21.785  -3.175  1.00 91.02 LIG-0.27  OA
BRANCH 32 34
ATOM     34  CA  PRO D   1      29.640 -22.932  -4.281  1.00 80.93 LIG 0.28  C 
ATOM     35  N   PRO D   1      29.351 -22.085  -5.441  1.00 82.79 LIG-0.06  N 
ATOM     36  CD  PRO D   1      30.585 -21.705  -6.156  1.00 86.01 LIG 0.23  C 
ATOM     37 H3   PRO D   1      28.825 -22.503  -5.977  1.00 82.79 LIG 0.28  HD
ATOM     38 H2   PRO D   1      28.938 -21.377  -5.183  1.00 82.79 LIG 0.28  HD
ATOM     39  CG  PRO D   1      31.694 -22.035  -5.179  1.00 80.97 LIG 0.03  C 
ATOM     40  CB  PRO D   1      31.067 -22.516  -3.899  1.00 77.42 LIG 0.04  C 
ENDBRANCH 32 34
ENDBRANCH 25 30
ENDBRANCH 1 25
TORSDOF 16
ENDMDL
MODEL 9
USER: ADFR SOLUTION from run 154
USER: SCORE 15.257060 LL:  -2.618 LR: -13.567 RR:   0.000 FEB:  -8.794
USER: RMSD 3.476879
USER: SEED 153
USER: STATUS no improvement in best in 7 clusters for 5 generations
USER: GENES 18
USER: genes 0 Translation |==|  0.53093 0.53672 0.56537
USER: genes 1 Rotation |==|  0.55367 0.54618 0.56552 0.99061
USER: genes 2 Torsion [C]-N--CA-[CB] |==|  0.51119
USER: genes 3 Torsion [N]-CA--CB-[OG] |==|  0.62555
USER: genes 4 Torsion [CA]-CB--OG-[HG] |==|  0.84996
USER: genes 5 Torsion [N]-CA--C-[N] |==|  0.43047
USER: genes 6 Torsion [C]-N--CA-[CB] |==|  0.44042
USER: genes 7 Torsion [N]-CA--CB-[CG] |==|  0.78537
USER: genes 8 Torsion [CA]-CB--CG-[CD] |==|  0.39226
USER: genes 9 Torsion [CB]-CG--CD-[CE] |==|  0.58151
USER: genes 10 Torsion [CG]-CD--CE-[NZ] |==|  0.35918
USER: genes 11 Torsion [CD]-CE--NZ-[HZ1] |==|  0.36947
USER: genes 12 Torsion [N]-CA--C-[OXT] |==|  0.43019
USER: genes 13 Torsion [N]-C--CA-[N] |==|  0.51510
USER: genes 14 Torsion [C]-CA--CB-[CG] |==|  0.83178
USER: genes 15 Torsion [CA]-CB--CG-[CD1] |==|  0.41067
USER: genes 16 Torsion [C]-CA--N-[C] |==|  0.53719
USER: genes 17 Torsion [N]-C--CA-[N] |==|  0.38275
ROOT
ATOM      1  C   LEU D   2      28.266 -24.824  -3.030  1.00 63.17 LIG 0.24  C 
ATOM      2 O    LEU D   2      27.148 -24.306  -3.161  1.00 65.03 LIG-0.27  OA
ATOM      3  N   SER D   3      28.582 -26.021  -3.523  1.00 44.71 LIG-0.34  N 
ATOM      4 H    SER D   3      29.330 -26.417  -3.370  1.00 44.71 LIG 0.16  HD
ENDROOT
BRANCH 3 5
ATOM      5  CA  SER D   3      27.661 -26.780  -4.387  1.00 47.15 LIG 0.20  C 
BRANCH 5 6
ATOM      6  CB  SER D   3      28.218 -28.164  -4.739  1.00 46.48 LIG 0.20  C 
BRANCH 6 7
ATOM      7 OG   SER D   3      28.051 -28.432  -6.114  1.00 63.57 LIG-0.40  OA
ATOM      8 HG   SER D   3      27.243 -28.331  -6.324  1.00 63.57 LIG 0.21  HD
ENDBRANCH 6 7
ENDBRANCH 5 6
BRANCH 5 9
ATOM      9  C   SER D   3      26.330 -26.951  -3.652  1.00 37.61 LIG 0.24  C 
ATOM     10  N   LYS D   4      25.242 -27.134  -4.408  1.00 35.09 LIG-0.34  N 
ATOM     11 H    LYS D   4      25.242 -27.092  -5.266  1.00 35.09 LIG 0.16  HD
ATOM     12 O    SER D   3      26.304 -26.914  -2.414  1.00 37.14 LIG-0.27  OA
BRANCH 10 13
ATOM     13  CA  LYS D   4      23.939 -27.426  -3.819  1.00 32.57 LIG 0.18  C 
BRANCH 13 14
ATOM     14  CB  LYS D   4      22.788 -27.085  -4.761  1.00 31.41 LIG 0.04  C 
BRANCH 14 15
ATOM     15  CG  LYS D   4      22.594 -25.564  -4.732  1.00 31.93 LIG 0.00  C 
BRANCH 15 16
ATOM     16  CD  LYS D   4      22.261 -24.921  -6.081  1.00 28.01 LIG 0.03  C 
BRANCH 16 17
ATOM     17  CE  LYS D   4      22.815 -23.470  -6.070  1.00 30.04 LIG 0.23  C 
BRANCH 17 18
ATOM     18  NZ  LYS D   4      23.622 -23.207  -7.259  1.00 33.56 LIG-0.08  N 
ATOM     19 HZ3  LYS D   4      23.493 -23.856  -7.855  1.00 33.56 LIG 0.27  HD
ATOM     20 HZ2  LYS D   4      24.483 -23.178  -7.035  1.00 33.56 LIG 0.27  HD
ATOM     21 HZ1  LYS D   4      23.382 -22.427  -7.614  1.00 33.56 LIG 0.27  HD
ENDBRANCH 17 18
ENDBRANCH 16 17
ENDBRANCH 15 16
ENDBRANCH 14 15
ENDBRANCH 13 14
BRANCH 13 22
ATOM     22  C   LYS D   4      23.888 -28.871  -3.372  1.00 36.61 LIG 0.20  C 
ATOM     23 OXT  LYS D   4      23.105 -29.207  -2.458  1.00 35.43 LIG-0.65  OA
ATOM     24 O    LYS D   4      24.656 -29.675  -3.900  1.00 33.95 LIG-0.65  OA
ENDBRANCH 13 22
ENDBRANCH 10 13
ENDBRANCH 5 9
ENDBRANCH 3 5
BRANCH 1 25
ATOM     25  CA  LEU D   2      29.346 -24.091  -2.235  1.00 72.77 LIG 0.18  C 
BRANCH 25 26
ATOM     26  CB  LEU D   2      29.891 -25.026  -1.119  1.00 74.70 LIG 0.04  C 
BRANCH 26 27
ATOM     27  CG  LEU D   2      28.931 -25.572  -0.011  1.00 82.94 LIG-0.02  C 
ATOM     28  CD1 LEU D   2      29.282 -26.960   0.514  1.00 82.40 LIG 0.01  C 
ATOM     29  CD2 LEU D   2      28.795 -24.581   1.162  1.00 81.51 LIG 0.01  C 
ENDBRANCH 26 27
ENDBRANCH 25 26
BRANCH 25 30
ATOM     30  N   LEU D   2      28.729 -22.871  -1.689  1.00 75.65 LIG-0.35  N 
ATOM     31 H    LEU D   2      27.871 -22.885  -1.750  1.00 75.65 LIG 0.16  HD
ATOM     32  C   PRO D   1      29.375 -21.832  -1.151  1.00 79.92 LIG 0.25  C 
ATOM     33 O    PRO D   1      28.816 -20.739  -1.007  1.00 91.02 LIG-0.27  OA
BRANCH 32 34
ATOM     34  CA  PRO D   1      30.848 -21.978  -0.726  1.00 80.93 LIG 0.28  C 
ATOM     35  N   PRO D   1      31.671 -20.822  -1.085  1.00 82.79 LIG-0.06  N 
ATOM     36  CD  PRO D   1      32.737 -20.584  -0.092  1.00 86.01 LIG 0.23  C 
ATOM     37 H3   PRO D   1      32.022 -20.948  -1.859  1.00 82.79 LIG 0.28  HD
ATOM     38 H2   PRO D   1      31.173 -20.123  -1.145  1.00 82.79 LIG 0.28  HD
ATOM     39  CG  PRO D   1      32.315 -21.410   1.106  1.00 80.97 LIG 0.03  C 
ATOM     40  CB  PRO D   1      30.979 -22.032   0.803  1.00 77.42 LIG 0.04  C 
ENDBRANCH 32 34
ENDBRANCH 25 30
ENDBRANCH 1 25
TORSDOF 16
ENDMDL
MODEL 10
USER: ADFR SOLUTION from run 86
USER: SCORE 14.308285 LL:  -2.746 LR: -13.508 RR:   0.000 FEB:  -8.735
USER: RMSD 6.361841
USER: SEED 85
USER: STATUS no improvement in best in 3 clusters for 5 generations
USER: GENES 18
USER: genes 0 Translation |==|  0.40572 0.27153 0.44460
USER: genes 1 Rotation |==|  0.94999 0.62208 0.67954 0.51921
USER: genes 2 Torsion [C]-N--CA-[CB] |==|  0.09820
USER: genes 3 Torsion [N]-CA--CB-[OG] |==|  0.13679
USER: genes 4 Torsion [CA]-CB--OG-[HG] |==|  0.64057
USER: genes 5 Torsion [N]-CA--C-[N] |==|  0.35904
USER: genes 6 Torsion [C]-N--CA-[CB] |==|  0.15415
USER: genes 7 Torsion [N]-CA--CB-[CG] |==|  0.19327
USER: genes 8 Torsion [CA]-CB--CG-[CD] |==|  0.28336
USER: genes 9 Torsion [CB]-CG--CD-[CE] |==|  0.55954
USER: genes 10 Torsion [CG]-CD--CE-[NZ] |==|  0.90086
USER: genes 11 Torsion [CD]-CE--NZ-[HZ1] |==|  0.60633
USER: genes 12 Torsion [N]-CA--C-[OXT] |==|  0.95268
USER: genes 13 Torsion [N]-C--CA-[N] |==|  0.18704
USER: genes 14 Torsion [C]-CA--CB-[CG] |==|  0.26556
USER: genes 15 Torsion [CA]-CB--CG-[CD1] |==|  0.77446
USER: genes 16 Torsion [C]-CA--N-[C] |==|  0.76046
USER: genes 17 Torsion [N]-C--CA-[N] |==|  0.27335
ROOT
ATOM      1  C   LEU D   2      25.542 -29.398  -4.751  1.00 63.17 LIG 0.24  C 
ATOM      2 O    LEU D   2      24.978 -30.499  -4.801  1.00 65.03 LIG-0.27  OA
ATOM      3  N   SER D   3      24.905 -28.239  -4.911  1.00 44.71 LIG-0.34  N 
ATOM      4 H    SER D   3      25.302 -27.478  -4.954  1.00 44.71 LIG 0.16  HD
ENDROOT
BRANCH 3 5
ATOM      5  CA  SER D   3      23.438 -28.163  -5.028  1.00 47.15 LIG 0.20  C 
BRANCH 5 6
ATOM      6  CB  SER D   3      22.739 -29.208  -4.151  1.00 46.48 LIG 0.20  C 
BRANCH 6 7
ATOM      7 OG   SER D   3      23.253 -29.177  -2.837  1.00 63.57 LIG-0.40  OA
ATOM      8 HG   SER D   3      23.465 -29.955  -2.600  1.00 63.57 LIG 0.21  HD
ENDBRANCH 6 7
ENDBRANCH 5 6
BRANCH 5 9
ATOM      9  C   SER D   3      22.984 -26.767  -4.596  1.00 37.61 LIG 0.24  C 
ATOM     10  N   LYS D   4      22.173 -26.110  -5.432  1.00 35.09 LIG-0.34  N 
ATOM     11 H    LYS D   4      21.954 -26.397  -6.212  1.00 35.09 LIG 0.16  HD
ATOM     12 O    SER D   3      23.375 -26.303  -3.517  1.00 37.14 LIG-0.27  OA
BRANCH 10 13
ATOM     13  CA  LYS D   4      21.581 -24.825  -5.075  1.00 32.57 LIG 0.18  C 
BRANCH 13 14
ATOM     14  CB  LYS D   4      22.633 -23.791  -4.684  1.00 31.41 LIG 0.04  C 
BRANCH 14 15
ATOM     15  CG  LYS D   4      23.413 -23.414  -5.949  1.00 31.93 LIG 0.00  C 
BRANCH 15 16
ATOM     16  CD  LYS D   4      23.022 -22.076  -6.585  1.00 28.01 LIG 0.03  C 
BRANCH 16 17
ATOM     17  CE  LYS D   4      23.470 -22.104  -8.072  1.00 30.04 LIG 0.23  C 
BRANCH 17 18
ATOM     18  NZ  LYS D   4      24.727 -22.832  -8.228  1.00 33.56 LIG-0.08  N 
ATOM     19 HZ3  LYS D   4      24.557 -23.665  -8.493  1.00 33.56 LIG 0.27  HD
ATOM     20 HZ2  LYS D   4      25.158 -22.851  -7.449  1.00 33.56 LIG 0.27  HD
ATOM     21 HZ1  LYS D   4      25.232 -22.425  -8.836  1.00 33.56 LIG 0.27  HD
ENDBRANCH 17 18
ENDBRANCH 16 17
ENDBRANCH 15 16
ENDBRANCH 14 15
ENDBRANCH 13 14
BRANCH 13 22
ATOM     22  C   LYS D   4      20.702 -24.331  -6.204  1.00 36.61 LIG 0.20  C 
ATOM     23 OXT  LYS D   4      20.822 -24.828  -7.343  1.00 35.43 LIG-0.65  OA
ATOM     24 O    LYS D   4      19.913 -23.415  -5.973  1.00 33.95 LIG-0.65  OA
ENDBRANCH 13 22
ENDBRANCH 10 13
ENDBRANCH 5 9
ENDBRANCH 3 5
BRANCH 1 25
ATOM     25  CA  LEU D   2      27.054 -29.336  -4.536  1.00 72.77 LIG 0.18  C 
BRANCH 25 26
ATOM     26  CB  LEU D   2      27.647 -30.772  -4.606  1.00 74.70 LIG 0.04  C 
BRANCH 26 27
ATOM     27  CG  LEU D   2      28.250 -31.311  -5.944  1.00 82.94 LIG-0.02  C 
ATOM     28  CD1 LEU D   2      27.226 -31.836  -6.944  1.00 82.40 LIG 0.01  C 
ATOM     29  CD2 LEU D   2      29.159 -30.264  -6.620  1.00 81.51 LIG 0.01  C 
ENDBRANCH 26 27
ENDBRANCH 25 26
BRANCH 25 30
ATOM     30  N   LEU D   2      27.279 -28.703  -3.226  1.00 75.65 LIG-0.35  N 
ATOM     31 H    LEU D   2      27.361 -29.282  -2.595  1.00 75.65 LIG 0.16  HD
ATOM     32  C   PRO D   1      27.358 -27.390  -2.986  1.00 79.92 LIG 0.25  C 
ATOM     33 O    PRO D   1      27.236 -26.944  -1.840  1.00 91.02 LIG-0.27  OA
BRANCH 32 34
ATOM     34  CA  PRO D   1      27.571 -26.407  -4.151  1.00 80.93 LIG 0.28  C 
ATOM     35  N   PRO D   1      26.332 -25.780  -4.614  1.00 82.79 LIG-0.06  N 
ATOM     36  CD  PRO D   1      26.564 -24.401  -5.087  1.00 86.01 LIG 0.23  C 
ATOM     37 H3   PRO D   1      25.994 -26.249  -5.251  1.00 82.79 LIG 0.28  HD
ATOM     38 H2   PRO D   1      25.757 -25.772  -3.975  1.00 82.79 LIG 0.28  HD
ATOM     39  CG  PRO D   1      27.935 -24.052  -4.547  1.00 80.97 LIG 0.03  C 
ATOM     40  CB  PRO D   1      28.419 -25.205  -3.710  1.00 77.42 LIG 0.04  C 
ENDBRANCH 32 34
ENDBRANCH 25 30
ENDBRANCH 1 25
TORSDOF 16
ENDMDL
MODEL 11
USER: ADFR SOLUTION from run 159
USER: SCORE 15.412009 LL:  -2.670 LR: -13.437 RR:   0.000 FEB:  -8.665
USER: RMSD 7.326135
USER: SEED 158
USER: STATUS searching
USER: GENES 18
USER: genes 0 Translation |==|  0.35532 0.53498 0.45662
USER: genes 1 Rotation |==|  0.76471 0.33519 0.11204 0.54751
USER: genes 2 Torsion [C]-N--CA-[CB] |==|  0.73439
USER: genes 3 Torsion [N]-CA--CB-[OG] |==|  0.65370
USER: genes 4 Torsion [CA]-CB--OG-[HG] |==|  0.67671
USER: genes 5 Torsion [N]-CA--C-[N] |==|  0.17284
USER: genes 6 Torsion [C]-N--CA-[CB] |==|  0.80130
USER: genes 7 Torsion [N]-CA--CB-[CG] |==|  0.77433
USER: genes 8 Torsion [CA]-CB--CG-[CD] |==|  0.89265
USER: genes 9 Torsion [CB]-CG--CD-[CE] |==|  0.39897
USER: genes 10 Torsion [CG]-CD--CE-[NZ] |==|  0.72362
USER: genes 11 Torsion [CD]-CE--NZ-[HZ1] |==|  0.89414
USER: genes 12 Torsion [N]-CA--C-[OXT] |==|  0.58963
USER: genes 13 Torsion [N]-C--CA-[N] |==|  0.50000
USER: genes 14 Torsion [C]-CA--CB-[CG] |==|  0.30292
USER: genes 15 Torsion [CA]-CB--CG-[CD1] |==|  0.44911
USER: genes 16 Torsion [C]-CA--N-[C] |==|  0.79863
USER: genes 17 Torsion [N]-C--CA-[N] |==|  0.25584
ROOT
ATOM      1  C   LEU D   2      24.446 -24.854  -4.580  1.00 63.17 LIG 0.24  C 
ATOM      2 O    LEU D   2      25.082 -25.148  -3.559  1.00 65.03 LIG-0.27  OA
ATOM      3  N   SER D   3      24.855 -23.942  -5.462  1.00 44.71 LIG-0.34  N 
ATOM      4 H    SER D   3      24.383 -23.679  -6.130  1.00 44.71 LIG 0.16  HD
ENDROOT
BRANCH 3 5
ATOM      5  CA  SER D   3      26.177 -23.296  -5.363  1.00 47.15 LIG 0.20  C 
BRANCH 5 6
ATOM      6  CB  SER D   3      26.100 -21.946  -4.640  1.00 46.48 LIG 0.20  C 
BRANCH 6 7
ATOM      7 OG   SER D   3      26.643 -20.921  -5.443  1.00 63.57 LIG-0.40  OA
ATOM      8 HG   SER D   3      27.321 -20.598  -5.066  1.00 63.57 LIG 0.21  HD
ENDBRANCH 6 7
ENDBRANCH 5 6
BRANCH 5 9
ATOM      9  C   SER D   3      27.117 -24.222  -4.590  1.00 37.61 LIG 0.24  C 
ATOM     10  N   LYS D   4      27.370 -25.417  -5.135  1.00 35.09 LIG-0.34  N 
ATOM     11 H    LYS D   4      26.985 -25.712  -5.845  1.00 35.09 LIG 0.16  HD
ATOM     12 O    SER D   3      27.600 -23.846  -3.514  1.00 37.14 LIG-0.27  OA
BRANCH 10 13
ATOM     13  CA  LYS D   4      28.342 -26.337  -4.551  1.00 32.57 LIG 0.18  C 
BRANCH 13 14
ATOM     14  CB  LYS D   4      29.778 -25.861  -4.745  1.00 31.41 LIG 0.04  C 
BRANCH 14 15
ATOM     15  CG  LYS D   4      30.215 -26.255  -6.161  1.00 31.93 LIG 0.00  C 
BRANCH 15 16
ATOM     16  CD  LYS D   4      29.722 -27.622  -6.643  1.00 28.01 LIG 0.03  C 
BRANCH 16 17
ATOM     17  CE  LYS D   4      29.402 -27.510  -8.159  1.00 30.04 LIG 0.23  C 
BRANCH 17 18
ATOM     18  NZ  LYS D   4      27.969 -27.335  -8.381  1.00 33.56 LIG-0.08  N 
ATOM     19 HZ3  LYS D   4      27.764 -27.585  -9.210  1.00 33.56 LIG 0.27  HD
ATOM     20 HZ2  LYS D   4      27.752 -26.479  -8.268  1.00 33.56 LIG 0.27  HD
ATOM     21 HZ1  LYS D   4      27.516 -27.835  -7.800  1.00 33.56 LIG 0.27  HD
ENDBRANCH 17 18
ENDBRANCH 16 17
ENDBRANCH 15 16
ENDBRANCH 14 15
ENDBRANCH 13 14
BRANCH 13 22
ATOM     22  C   LYS D   4      28.020 -26.569  -3.090  1.00 36.61 LIG 0.20  C 
ATOM     23 OXT  LYS D   4      28.946 -26.779  -2.280  1.00 35.43 LIG-0.65  OA
ATOM     24 O    LYS D   4      26.838 -26.582  -2.746  1.00 33.95 LIG-0.65  OA
ENDBRANCH 13 22
ENDBRANCH 10 13
ENDBRANCH 5 9
ENDBRANCH 3 5
BRANCH 1 25
ATOM     25  CA  LEU D   2      23.101 -25.527  -4.850  1.00 72.77 LIG 0.18  C 
BRANCH 25 26
ATOM     26  CB  LEU D   2      21.988 -24.444  -4.935  1.00 74.70 LIG 0.04  C 
BRANCH 26 27
ATOM     27  CG  LEU D   2      21.323 -24.105  -6.309  1.00 82.94 LIG-0.02  C 
ATOM     28  CD1 LEU D   2      19.986 -23.378  -6.213  1.00 82.40 LIG 0.01  C 
ATOM     29  CD2 LEU D   2      22.284 -23.323  -7.227  1.00 81.51 LIG 0.01  C 
ENDBRANCH 26 27
ENDBRANCH 25 26
BRANCH 25 30
ATOM     30  N   LEU D   2      22.867 -26.482  -3.754  1.00 75.65 LIG-0.35  N 
ATOM     31 H    LEU D   2      22.255 -26.213  -3.213  1.00 75.65 LIG 0.16  HD
ATOM     32  C   PRO D   1      23.501 -27.644  -3.571  1.00 79.92 LIG 0.25  C 
ATOM     33 O    PRO D   1      23.468 -28.223  -2.479  1.00 91.02 LIG-0.27  OA
BRANCH 32 34
ATOM     34  CA  PRO D   1      24.313 -28.267  -4.721  1.00 80.93 LIG 0.28  C 
ATOM     35  N   PRO D   1      25.725 -27.878  -4.710  1.00 82.79 LIG-0.06  N 
ATOM     36  CD  PRO D   1      26.592 -28.962  -5.212  1.00 86.01 LIG 0.23  C 
ATOM     37 H3   PRO D   1      25.833 -27.176  -5.194  1.00 82.79 LIG 0.28  HD
ATOM     38 H2   PRO D   1      25.959 -27.670  -3.909  1.00 82.79 LIG 0.28  HD
ATOM     39  CG  PRO D   1      25.703 -30.188  -5.182  1.00 80.97 LIG 0.03  C 
ATOM     40  CB  PRO D   1      24.378 -29.795  -4.587  1.00 77.42 LIG 0.04  C 
ENDBRANCH 32 34
ENDBRANCH 25 30
ENDBRANCH 1 25
TORSDOF 16
ENDMDL
MODEL 12
USER: ADFR SOLUTION from run 96
USER: SCORE 16.102740 LL:  -3.523 LR: -13.309 RR:   0.000 FEB:  -8.536
USER: RMSD 5.584033
USER: SEED 95
USER: STATUS no improvement in best in 3 clusters for 5 generations
USER: GENES 18
USER: genes 0 Translation |==|  0.56041 0.38852 0.37103
USER: genes 1 Rotation |==|  0.67383 0.81362 0.20743 0.68929
USER: genes 2 Torsion [C]-N--CA-[CB] |==|  0.19988
USER: genes 3 Torsion [N]-CA--CB-[OG] |==|  0.19728
USER: genes 4 Torsion [CA]-CB--OG-[HG] |==|  0.78920
USER: genes 5 Torsion [N]-CA--C-[N] |==|  0.87778
USER: genes 6 Torsion [C]-N--CA-[CB] |==|  0.47177
USER: genes 7 Torsion [N]-CA--CB-[CG] |==|  0.75591
USER: genes 8 Torsion [CA]-CB--CG-[CD] |==|  0.12034
USER: genes 9 Torsion [CB]-CG--CD-[CE] |==|  0.35156
USER: genes 10 Torsion [CG]-CD--CE-[NZ] |==|  0.62333
USER: genes 11 Torsion [CD]-CE--NZ-[HZ1] |==|  0.99400
USER: genes 12 Torsion [N]-CA--C-[OXT] |==|  0.91063
USER: genes 13 Torsion [N]-C--CA-[N] |==|  0.97739
USER: genes 14 Torsion [C]-CA--CB-[CG] |==|  0.30228
USER: genes 15 Torsion [CA]-CB--CG-[CD1] |==|  0.72770
USER: genes 16 Torsion [C]-CA--N-[C] |==|  0.77952
USER: genes 17 Torsion [N]-C--CA-[N] |==|  0.53116
ROOT
ATOM      1  C   LEU D   2      28.907 -27.380  -5.800  1.00 63.17 LIG 0.24  C 
ATOM      2 O    LEU D   2      29.934 -26.866  -5.336  1.00 65.03 LIG-0.27  OA
ATOM      3  N   SER D   3      27.714 -27.295  -5.212  1.00 44.71 LIG-0.34  N 
ATOM      4 H    SER D   3      27.015 -27.713  -5.489  1.00 44.71 LIG 0.16  HD
ENDROOT
BRANCH 3 5
ATOM      5  CA  SER D   3      27.488 -26.461  -4.018  1.00 47.15 LIG 0.20  C 
BRANCH 5 6
ATOM      6  CB  SER D   3      27.508 -24.965  -4.354  1.00 46.48 LIG 0.20  C 
BRANCH 6 7
ATOM      7 OG   SER D   3      26.357 -24.605  -5.087  1.00 63.57 LIG-0.40  OA
ATOM      8 HG   SER D   3      26.436 -24.868  -5.881  1.00 63.57 LIG 0.21  HD
ENDBRANCH 6 7
ENDBRANCH 5 6
BRANCH 5 9
ATOM      9  C   SER D   3      26.125 -26.819  -3.423  1.00 37.61 LIG 0.24  C 
ATOM     10  N   LYS D   4      25.110 -26.961  -4.282  1.00 35.09 LIG-0.34  N 
ATOM     11 H    LYS D   4      25.167 -26.798  -5.124  1.00 35.09 LIG 0.16  HD
ATOM     12 O    SER D   3      26.008 -26.960  -2.198  1.00 37.14 LIG-0.27  OA
BRANCH 10 13
ATOM     13  CA  LYS D   4      23.793 -27.417  -3.846  1.00 32.57 LIG 0.18  C 
BRANCH 13 14
ATOM     14  CB  LYS D   4      22.737 -27.267  -4.936  1.00 31.41 LIG 0.04  C 
BRANCH 14 15
ATOM     15  CG  LYS D   4      22.145 -25.857  -4.825  1.00 31.93 LIG 0.00  C 
BRANCH 15 16
ATOM     16  CD  LYS D   4      23.162 -24.736  -4.595  1.00 28.01 LIG 0.03  C 
BRANCH 16 17
ATOM     17  CE  LYS D   4      22.939 -23.655  -5.688  1.00 30.04 LIG 0.23  C 
BRANCH 17 18
ATOM     18  NZ  LYS D   4      24.211 -23.207  -6.249  1.00 33.56 LIG-0.08  N 
ATOM     19 HZ3  LYS D   4      24.291 -22.327  -6.140  1.00 33.56 LIG 0.27  HD
ATOM     20 HZ2  LYS D   4      24.237 -23.401  -7.118  1.00 33.56 LIG 0.27  HD
ATOM     21 HZ1  LYS D   4      24.880 -23.619  -5.833  1.00 33.56 LIG 0.27  HD
ENDBRANCH 17 18
ENDBRANCH 16 17
ENDBRANCH 15 16
ENDBRANCH 14 15
ENDBRANCH 13 14
BRANCH 13 22
ATOM     22  C   LYS D   4      23.881 -28.841  -3.342  1.00 36.61 LIG 0.20  C 
ATOM     23 OXT  LYS D   4      24.709 -29.626  -3.851  1.00 35.43 LIG-0.65  OA
ATOM     24 O    LYS D   4      23.099 -29.201  -2.462  1.00 33.95 LIG-0.65  OA
ENDBRANCH 13 22
ENDBRANCH 10 13
ENDBRANCH 5 9
ENDBRANCH 3 5
BRANCH 1 25
ATOM     25  CA  LEU D   2      28.989 -28.193  -7.092  1.00 72.77 LIG 0.18  C 
BRANCH 25 26
ATOM     26  CB  LEU D   2      29.324 -27.245  -8.279  1.00 74.70 LIG 0.04  C 
BRANCH 26 27
ATOM     27  CG  LEU D   2      30.734 -27.296  -8.953  1.00 82.94 LIG-0.02  C 
ATOM     28  CD1 LEU D   2      31.715 -26.233  -8.470  1.00 82.40 LIG 0.01  C 
ATOM     29  CD2 LEU D   2      31.371 -28.696  -8.835  1.00 81.51 LIG 0.01  C 
ENDBRANCH 26 27
ENDBRANCH 25 26
BRANCH 25 30
ATOM     30  N   LEU D   2      27.691 -28.865  -7.264  1.00 75.65 LIG-0.35  N 
ATOM     31 H    LEU D   2      27.187 -28.459  -7.831  1.00 75.65 LIG 0.16  HD
ATOM     32  C   PRO D   1      27.289 -29.977  -6.640  1.00 79.92 LIG 0.25  C 
ATOM     33 O    PRO D   1      26.093 -30.290  -6.606  1.00 91.02 LIG-0.27  OA
BRANCH 32 34
ATOM     34  CA  PRO D   1      28.315 -30.872  -5.924  1.00 80.93 LIG 0.28  C 
ATOM     35  N   PRO D   1      27.770 -32.168  -5.518  1.00 82.79 LIG-0.06  N 
ATOM     36  CD  PRO D   1      28.792 -33.232  -5.581  1.00 86.01 LIG 0.23  C 
ATOM     37 H3   PRO D   1      27.462 -32.113  -4.718  1.00 82.79 LIG 0.28  HD
ATOM     38 H2   PRO D   1      27.109 -32.374  -6.029  1.00 82.79 LIG 0.28  HD
ATOM     39  CG  PRO D   1      29.906 -32.624  -6.407  1.00 80.97 LIG 0.03  C 
ATOM     40  CB  PRO D   1      29.462 -31.262  -6.868  1.00 77.42 LIG 0.04  C 
ENDBRANCH 32 34
ENDBRANCH 25 30
ENDBRANCH 1 25
TORSDOF 16
ENDMDL
MODEL 13
USER: ADFR SOLUTION from run 83
USER: SCORE 14.287537 LL:  -2.739 LR: -13.267 RR:   0.000 FEB:  -8.495
USER: RMSD 6.787395
USER: SEED 82
USER: STATUS no improvement in best in 15 clusters for 5 generations
USER: GENES 18
USER: genes 0 Translation |==|  0.40999 0.46969 0.48622
USER: genes 1 Rotation |==|  0.24439 0.77377 0.82932 0.53552
USER: genes 2 Torsion [C]-N--CA-[CB] |==|  0.38702
USER: genes 3 Torsion [N]-CA--CB-[OG] |==|  0.52751
USER: genes 4 Torsion [CA]-CB--OG-[HG] |==|  0.89162
USER: genes 5 Torsion [N]-CA--C-[N] |==|  0.10643
USER: genes 6 Torsion [C]-N--CA-[CB] |==|  0.35205
USER: genes 7 Torsion [N]-CA--CB-[CG] |==|  0.98811
USER: genes 8 Torsion [CA]-CB--CG-[CD] |==|  0.73852
USER: genes 9 Torsion [CB]-CG--CD-[CE] |==|  0.56841
USER: genes 10 Torsion [CG]-CD--CE-[NZ] |==|  0.62160
USER: genes 11 Torsion [CD]-CE--NZ-[HZ1] |==|  0.72795
USER: genes 12 Torsion [N]-CA--C-[OXT] |==|  0.07735
USER: genes 13 Torsion [N]-C--CA-[N] |==|  0.40773
USER: genes 14 Torsion [C]-CA--CB-[CG] |==|  0.47050
USER: genes 15 Torsion [CA]-CB--CG-[CD1] |==|  0.60882
USER: genes 16 Torsion [C]-CA--N-[C] |==|  0.82402
USER: genes 17 Torsion [N]-C--CA-[N] |==|  0.18686
ROOT
ATOM      1  C   LEU D   2      25.635 -25.980  -4.158  1.00 63.17 LIG 0.24  C 
ATOM      2 O    LEU D   2      25.854 -26.205  -2.960  1.00 65.03 LIG-0.27  OA
ATOM      3  N   SER D   3      26.586 -25.631  -5.025  1.00 44.71 LIG-0.34  N 
ATOM      4 H    SER D   3      26.428 -25.399  -5.837  1.00 44.71 LIG 0.16  HD
ENDROOT
BRANCH 3 5
ATOM      5  CA  SER D   3      28.012 -25.613  -4.656  1.00 47.15 LIG 0.20  C 
BRANCH 5 6
ATOM      6  CB  SER D   3      28.900 -26.165  -5.778  1.00 46.48 LIG 0.20  C 
BRANCH 6 7
ATOM      7 OG   SER D   3      30.222 -26.348  -5.321  1.00 63.57 LIG-0.40  OA
ATOM      8 HG   SER D   3      30.434 -25.712  -4.814  1.00 63.57 LIG 0.21  HD
ENDBRANCH 6 7
ENDBRANCH 5 6
BRANCH 5 9
ATOM      9  C   SER D   3      28.424 -24.169  -4.361  1.00 37.61 LIG 0.24  C 
ATOM     10  N   LYS D   4      27.532 -23.407  -3.720  1.00 35.09 LIG-0.34  N 
ATOM     11 H    LYS D   4      26.732 -23.659  -3.532  1.00 35.09 LIG 0.16  HD
ATOM     12 O    SER D   3      29.538 -23.764  -4.717  1.00 37.14 LIG-0.27  OA
BRANCH 10 13
ATOM     13  CA  LYS D   4      27.854 -22.053  -3.280  1.00 32.57 LIG 0.18  C 
BRANCH 13 14
ATOM     14  CB  LYS D   4      26.843 -21.025  -3.778  1.00 31.41 LIG 0.04  C 
BRANCH 14 15
ATOM     15  CG  LYS D   4      25.847 -21.752  -4.690  1.00 31.93 LIG 0.00  C 
BRANCH 15 16
ATOM     16  CD  LYS D   4      26.178 -21.711  -6.185  1.00 28.01 LIG 0.03  C 
BRANCH 16 17
ATOM     17  CE  LYS D   4      24.854 -21.899  -6.974  1.00 30.04 LIG 0.23  C 
BRANCH 17 18
ATOM     18  NZ  LYS D   4      25.033 -22.831  -8.085  1.00 33.56 LIG-0.08  N 
ATOM     19 HZ3  LYS D   4      24.306 -23.338  -8.169  1.00 33.56 LIG 0.27  HD
ATOM     20 HZ2  LYS D   4      25.739 -23.350  -7.927  1.00 33.56 LIG 0.27  HD
ATOM     21 HZ1  LYS D   4      25.165 -22.374  -8.837  1.00 33.56 LIG 0.27  HD
ENDBRANCH 17 18
ENDBRANCH 16 17
ENDBRANCH 15 16
ENDBRANCH 14 15
ENDBRANCH 13 14
BRANCH 13 22
ATOM     22  C   LYS D   4      27.992 -22.020  -1.774  1.00 36.61 LIG 0.20  C 
ATOM     23 OXT  LYS D   4      28.349 -23.049  -1.164  1.00 35.43 LIG-0.65  OA
ATOM     24 O    LYS D   4      27.708 -20.978  -1.182  1.00 33.95 LIG-0.65  OA
ENDBRANCH 13 22
ENDBRANCH 10 13
ENDBRANCH 5 9
ENDBRANCH 3 5
BRANCH 1 25
ATOM     25  CA  LEU D   2      24.205 -26.061  -4.691  1.00 72.77 LIG 0.18  C 
BRANCH 25 26
ATOM     26  CB  LEU D   2      23.503 -24.686  -4.500  1.00 74.70 LIG 0.04  C 
BRANCH 26 27
ATOM     27  CG  LEU D   2      22.121 -24.407  -5.176  1.00 82.94 LIG-0.02  C 
ATOM     28  CD1 LEU D   2      21.955 -23.000  -5.739  1.00 82.40 LIG 0.01  C 
ATOM     29  CD2 LEU D   2      21.798 -25.453  -6.262  1.00 81.51 LIG 0.01  C 
ENDBRANCH 26 27
ENDBRANCH 25 26
BRANCH 25 30
ATOM     30  N   LEU D   2      23.528 -27.140  -3.952  1.00 75.65 LIG-0.35  N 
ATOM     31 H    LEU D   2      22.870 -26.849  -3.482  1.00 75.65 LIG 0.16  HD
ATOM     32  C   PRO D   1      23.855 -28.436  -3.972  1.00 79.92 LIG 0.25  C 
ATOM     33 O    PRO D   1      23.445 -29.210  -3.100  1.00 91.02 LIG-0.27  OA
BRANCH 32 34
ATOM     34  CA  PRO D   1      24.781 -28.979  -5.076  1.00 80.93 LIG 0.28  C 
ATOM     35  N   PRO D   1      26.150 -28.469  -4.985  1.00 82.79 LIG-0.06  N 
ATOM     36  CD  PRO D   1      27.134 -29.472  -5.440  1.00 86.01 LIG 0.23  C 
ATOM     37 H3   PRO D   1      26.224 -27.758  -5.462  1.00 82.79 LIG 0.28  HD
ATOM     38 H2   PRO D   1      26.321 -28.247  -4.173  1.00 82.79 LIG 0.28  HD
ATOM     39  CG  PRO D   1      26.354 -30.770  -5.461  1.00 80.97 LIG 0.03  C 
ATOM     40  CB  PRO D   1      24.970 -30.497  -4.940  1.00 77.42 LIG 0.04  C 
ENDBRANCH 32 34
ENDBRANCH 25 30
ENDBRANCH 1 25
TORSDOF 16
ENDMDL
MODEL 14
USER: ADFR SOLUTION from run 28
USER: SCORE 14.913408 LL:  -2.915 LR: -13.258 RR:   0.000 FEB:  -8.485
USER: RMSD 8.154833
USER: SEED 27
USER: STATUS no improvement in best in 10 clusters for 5 generations
USER: GENES 18
USER: genes 0 Translation |==|  0.37997 0.46868 0.51035
USER: genes 1 Rotation |==|  0.29983 0.77717 0.83959 0.63336
USER: genes 2 Torsion [C]-N--CA-[CB] |==|  0.85381
USER: genes 3 Torsion [N]-CA--CB-[OG] |==|  0.47809
USER: genes 4 Torsion [CA]-CB--OG-[HG] |==|  0.83261
USER: genes 5 Torsion [N]-CA--C-[N] |==|  0.41477
USER: genes 6 Torsion [C]-N--CA-[CB] |==|  0.41955
USER: genes 7 Torsion [N]-CA--CB-[CG] |==|  0.87922
USER: genes 8 Torsion [CA]-CB--CG-[CD] |==|  0.21998
USER: genes 9 Torsion [CB]-CG--CD-[CE] |==|  0.53326
USER: genes 10 Torsion [CG]-CD--CE-[NZ] |==|  0.18222
USER: genes 11 Torsion [CD]-CE--NZ-[HZ1] |==|  0.29384
USER: genes 12 Torsion [N]-CA--C-[OXT] |==|  0.93771
USER: genes 13 Torsion [N]-C--CA-[N] |==|  0.92673
USER: genes 14 Torsion [C]-CA--CB-[CG] |==|  0.02880
USER: genes 15 Torsion [CA]-CB--CG-[CD1] |==|  0.28085
USER: genes 16 Torsion [C]-CA--N-[C] |==|  0.53916
USER: genes 17 Torsion [N]-C--CA-[N] |==|  0.44477
ROOT
ATOM      1  C   LEU D   2      24.982 -25.997  -3.815  1.00 63.17 LIG 0.24  C 
ATOM      2 O    LEU D   2      24.995 -26.540  -2.702  1.00 65.03 LIG-0.27  OA
ATOM      3  N   SER D   3      26.067 -25.857  -4.575  1.00 44.71 LIG-0.34  N 
ATOM      4 H    SER D   3      26.080 -25.414  -5.312  1.00 44.71 LIG 0.16  HD
ENDROOT
BRANCH 3 5
ATOM      5  CA  SER D   3      27.362 -26.461  -4.210  1.00 47.15 LIG 0.20  C 
BRANCH 5 6
ATOM      6  CB  SER D   3      27.786 -26.086  -2.785  1.00 46.48 LIG 0.20  C 
BRANCH 6 7
ATOM      7 OG   SER D   3      28.930 -26.817  -2.399  1.00 63.57 LIG-0.40  OA
ATOM      8 HG   SER D   3      28.758 -27.639  -2.422  1.00 63.57 LIG 0.21  HD
ENDBRANCH 6 7
ENDBRANCH 5 6
BRANCH 5 9
ATOM      9  C   SER D   3      27.237 -27.982  -4.308  1.00 37.61 LIG 0.24  C 
ATOM     10  N   LYS D   4      28.341 -28.659  -4.640  1.00 35.09 LIG-0.34  N 
ATOM     11 H    LYS D   4      29.083 -28.286  -4.863  1.00 35.09 LIG 0.16  HD
ATOM     12 O    SER D   3      26.145 -28.524  -4.086  1.00 37.14 LIG-0.27  OA
BRANCH 10 13
ATOM     13  CA  LYS D   4      28.374 -30.118  -4.648  1.00 32.57 LIG 0.18  C 
BRANCH 13 14
ATOM     14  CB  LYS D   4      29.373 -30.669  -5.661  1.00 31.41 LIG 0.04  C 
BRANCH 14 15
ATOM     15  CG  LYS D   4      29.220 -29.863  -6.957  1.00 31.93 LIG 0.00  C 
BRANCH 15 16
ATOM     16  CD  LYS D   4      29.902 -28.492  -6.959  1.00 28.01 LIG 0.03  C 
BRANCH 16 17
ATOM     17  CE  LYS D   4      29.395 -27.706  -8.200  1.00 30.04 LIG 0.23  C 
BRANCH 17 18
ATOM     18  NZ  LYS D   4      27.968 -27.414  -8.088  1.00 33.56 LIG-0.08  N 
ATOM     19 HZ3  LYS D   4      27.613 -27.910  -7.440  1.00 33.56 LIG 0.27  HD
ATOM     20 HZ2  LYS D   4      27.564 -27.601  -8.859  1.00 33.56 LIG 0.27  HD
ATOM     21 HZ1  LYS D   4      27.856 -26.552  -7.897  1.00 33.56 LIG 0.27  HD
ENDBRANCH 17 18
ENDBRANCH 16 17
ENDBRANCH 15 16
ENDBRANCH 14 15
ENDBRANCH 13 14
BRANCH 13 22
ATOM     22  C   LYS D   4      28.648 -30.636  -3.253  1.00 36.61 LIG 0.20  C 
ATOM     23 OXT  LYS D   4      29.208 -29.894  -2.418  1.00 35.43 LIG-0.65  OA
ATOM     24 O    LYS D   4      28.343 -31.798  -2.989  1.00 33.95 LIG-0.65  OA
ENDBRANCH 13 22
ENDBRANCH 10 13
ENDBRANCH 5 9
ENDBRANCH 3 5
BRANCH 1 25
ATOM     25  CA  LEU D   2      23.676 -25.414  -4.353  1.00 72.77 LIG 0.18  C 
BRANCH 25 26
ATOM     26  CB  LEU D   2      22.870 -26.530  -5.075  1.00 74.70 LIG 0.04  C 
BRANCH 26 27
ATOM     27  CG  LEU D   2      23.312 -28.025  -4.953  1.00 82.94 LIG-0.02  C 
ATOM     28  CD1 LEU D   2      22.504 -28.854  -3.961  1.00 82.40 LIG 0.01  C 
ATOM     29  CD2 LEU D   2      23.338 -28.724  -6.328  1.00 81.51 LIG 0.01  C 
ENDBRANCH 26 27
ENDBRANCH 25 26
BRANCH 25 30
ATOM     30  N   LEU D   2      24.036 -24.310  -5.259  1.00 75.65 LIG-0.35  N 
ATOM     31 H    LEU D   2      24.869 -24.321  -5.469  1.00 75.65 LIG 0.16  HD
ATOM     32  C   PRO D   1      23.206 -23.374  -5.730  1.00 79.92 LIG 0.25  C 
ATOM     33 O    PRO D   1      23.642 -22.326  -6.220  1.00 91.02 LIG-0.27  OA
BRANCH 32 34
ATOM     34  CA  PRO D   1      21.684 -23.578  -5.639  1.00 80.93 LIG 0.28  C 
ATOM     35  N   PRO D   1      20.925 -22.331  -5.754  1.00 82.79 LIG-0.06  N 
ATOM     36  CD  PRO D   1      19.628 -22.544  -6.427  1.00 86.01 LIG 0.23  C 
ATOM     37 H3   PRO D   1      20.791 -22.004  -4.970  1.00 82.79 LIG 0.28  HD
ATOM     38 H2   PRO D   1      21.386 -21.754  -6.193  1.00 82.79 LIG 0.28  HD
ATOM     39  CG  PRO D   1      19.768 -23.907  -7.073  1.00 80.97 LIG 0.03  C 
ATOM     40  CB  PRO D   1      21.166 -24.405  -6.825  1.00 77.42 LIG 0.04  C 
ENDBRANCH 32 34
ENDBRANCH 25 30
ENDBRANCH 1 25
TORSDOF 16
ENDMDL
MODEL 15
USER: ADFR SOLUTION from run 80
USER: SCORE 14.373464 LL:  -2.676 LR: -13.259 RR:   0.000 FEB:  -8.486
USER: RMSD 5.110719
USER: SEED 79
USER: STATUS no improvement in best in 3 clusters for 5 generations
USER: GENES 18
USER: genes 0 Translation |==|  0.55881 0.38067 0.40738
USER: genes 1 Rotation |==|  0.84418 0.72686 0.25325 0.63853
USER: genes 2 Torsion [C]-N--CA-[CB] |==|  0.34000
USER: genes 3 Torsion [N]-CA--CB-[OG] |==|  0.07537
USER: genes 4 Torsion [CA]-CB--OG-[HG] |==|  0.05071
USER: genes 5 Torsion [N]-CA--C-[N] |==|  0.86752
USER: genes 6 Torsion [C]-N--CA-[CB] |==|  0.49548
USER: genes 7 Torsion [N]-CA--CB-[CG] |==|  0.74074
USER: genes 8 Torsion [CA]-CB--CG-[CD] |==|  0.27604
USER: genes 9 Torsion [CB]-CG--CD-[CE] |==|  0.61174
USER: genes 10 Torsion [CG]-CD--CE-[NZ] |==|  0.52248
USER: genes 11 Torsion [CD]-CE--NZ-[HZ1] |==|  0.64272
USER: genes 12 Torsion [N]-CA--C-[OXT] |==|  0.88508
USER: genes 13 Torsion [N]-C--CA-[N] |==|  0.46032
USER: genes 14 Torsion [C]-CA--CB-[CG] |==|  0.81865
USER: genes 15 Torsion [CA]-CB--CG-[CD1] |==|  0.19641
USER: genes 16 Torsion [C]-CA--N-[C] |==|  0.66667
USER: genes 17 Torsion [N]-C--CA-[N] |==|  0.35256
ROOT
ATOM      1  C   LEU D   2      28.872 -27.515  -5.282  1.00 63.17 LIG 0.24  C 
ATOM      2 O    LEU D   2      29.625 -27.766  -4.331  1.00 65.03 LIG-0.27  OA
ATOM      3  N   SER D   3      27.770 -26.775  -5.169  1.00 44.71 LIG-0.34  N 
ATOM      4 H    SER D   3      27.205 -26.661  -5.807  1.00 44.71 LIG 0.16  HD
ENDROOT
BRANCH 3 5
ATOM      5  CA  SER D   3      27.422 -26.074  -3.920  1.00 47.15 LIG 0.20  C 
BRANCH 5 6
ATOM      6  CB  SER D   3      27.267 -24.564  -4.136  1.00 46.48 LIG 0.20  C 
BRANCH 6 7
ATOM      7 OG   SER D   3      26.883 -24.289  -5.466  1.00 63.57 LIG-0.40  OA
ATOM      8 HG   SER D   3      26.572 -24.986  -5.818  1.00 63.57 LIG 0.21  HD
ENDBRANCH 6 7
ENDBRANCH 5 6
BRANCH 5 9
ATOM      9  C   SER D   3      26.102 -26.640  -3.394  1.00 37.61 LIG 0.24  C 
ATOM     10  N   LYS D   4      25.103 -26.760  -4.275  1.00 35.09 LIG-0.34  N 
ATOM     11 H    LYS D   4      25.142 -26.478  -5.086  1.00 35.09 LIG 0.16  HD
ATOM     12 O    SER D   3      26.003 -26.957  -2.201  1.00 37.14 LIG-0.27  OA
BRANCH 10 13
ATOM     13  CA  LYS D   4      23.838 -27.395  -3.919  1.00 32.57 LIG 0.18  C 
BRANCH 13 14
ATOM     14  CB  LYS D   4      22.838 -27.382  -5.071  1.00 31.41 LIG 0.04  C 
BRANCH 14 15
ATOM     15  CG  LYS D   4      21.960 -26.134  -4.914  1.00 31.93 LIG 0.00  C 
BRANCH 15 16
ATOM     16  CD  LYS D   4      22.354 -24.942  -5.791  1.00 28.01 LIG 0.03  C 
BRANCH 16 17
ATOM     17  CE  LYS D   4      22.200 -23.651  -4.941  1.00 30.04 LIG 0.23  C 
BRANCH 17 18
ATOM     18  NZ  LYS D   4      22.375 -22.457  -5.765  1.00 33.56 LIG-0.08  N 
ATOM     19 HZ3  LYS D   4      21.597 -22.030  -5.838  1.00 33.56 LIG 0.27  HD
ATOM     20 HZ2  LYS D   4      22.660 -22.693  -6.575  1.00 33.56 LIG 0.27  HD
ATOM     21 HZ1  LYS D   4      22.974 -21.920  -5.385  1.00 33.56 LIG 0.27  HD
ENDBRANCH 17 18
ENDBRANCH 16 17
ENDBRANCH 15 16
ENDBRANCH 14 15
ENDBRANCH 13 14
BRANCH 13 22
ATOM     22  C   LYS D   4      24.091 -28.799  -3.412  1.00 36.61 LIG 0.20  C 
ATOM     23 OXT  LYS D   4      24.932 -29.520  -3.987  1.00 35.43 LIG-0.65  OA
ATOM     24 O    LYS D   4      23.424 -29.207  -2.462  1.00 33.95 LIG-0.65  OA
ENDBRANCH 13 22
ENDBRANCH 10 13
ENDBRANCH 5 9
ENDBRANCH 3 5
BRANCH 1 25
ATOM     25  CA  LEU D   2      29.177 -28.104  -6.659  1.00 72.77 LIG 0.18  C 
BRANCH 25 26
ATOM     26  CB  LEU D   2      28.177 -29.256  -6.962  1.00 74.70 LIG 0.04  C 
BRANCH 26 27
ATOM     27  CG  LEU D   2      28.195 -30.561  -6.100  1.00 82.94 LIG-0.02  C 
ATOM     28  CD1 LEU D   2      27.683 -30.394  -4.674  1.00 82.40 LIG 0.01  C 
ATOM     29  CD2 LEU D   2      27.447 -31.714  -6.799  1.00 81.51 LIG 0.01  C 
ENDBRANCH 26 27
ENDBRANCH 25 26
BRANCH 25 30
ATOM     30  N   LEU D   2      30.573 -28.570  -6.632  1.00 75.65 LIG-0.35  N 
ATOM     31 H    LEU D   2      30.704 -29.170  -6.030  1.00 75.65 LIG 0.16  HD
ATOM     32  C   PRO D   1      31.562 -28.146  -7.424  1.00 79.92 LIG 0.25  C 
ATOM     33 O    PRO D   1      32.746 -28.354  -7.132  1.00 91.02 LIG-0.27  OA
BRANCH 32 34
ATOM     34  CA  PRO D   1      31.238 -27.359  -8.706  1.00 80.93 LIG 0.28  C 
ATOM     35  N   PRO D   1      31.953 -26.084  -8.799  1.00 82.79 LIG-0.06  N 
ATOM     36  CD  PRO D   1      32.278 -25.745 -10.199  1.00 86.01 LIG 0.23  C 
ATOM     37 H3   PRO D   1      31.473 -25.460  -8.456  1.00 82.79 LIG 0.28  HD
ATOM     38 H2   PRO D   1      32.678 -26.127  -8.338  1.00 82.79 LIG 0.28  HD
ATOM     39  CG  PRO D   1      32.073 -27.044 -10.950  1.00 80.97 LIG 0.03  C 
ATOM     40  CB  PRO D   1      31.718 -28.114  -9.954  1.00 77.42 LIG 0.04  C 
ENDBRANCH 32 34
ENDBRANCH 25 30
ENDBRANCH 1 25
TORSDOF 16
ENDMDL
MODEL 16
USER: ADFR SOLUTION from run 122
USER: SCORE 14.638955 LL:  -2.624 LR: -13.199 RR:   0.000 FEB:  -8.426
USER: RMSD 4.329840
USER: SEED 121
USER: STATUS no improvement in best in 3 clusters for 5 generations
USER: GENES 18
USER: genes 0 Translation |==|  0.58496 0.49338 0.41338
USER: genes 1 Rotation |==|  0.18381 0.23914 0.45215 0.78229
USER: genes 2 Torsion [C]-N--CA-[CB] |==|  0.23910
USER: genes 3 Torsion [N]-CA--CB-[OG] |==|  0.93229
USER: genes 4 Torsion [CA]-CB--OG-[HG] |==|  0.84550
USER: genes 5 Torsion [N]-CA--C-[N] |==|  0.30991
USER: genes 6 Torsion [C]-N--CA-[CB] |==|  0.41008
USER: genes 7 Torsion [N]-CA--CB-[CG] |==|  0.65579
USER: genes 8 Torsion [CA]-CB--CG-[CD] |==|  0.25956
USER: genes 9 Torsion [CB]-CG--CD-[CE] |==|  0.32328
USER: genes 10 Torsion [CG]-CD--CE-[NZ] |==|  0.44321
USER: genes 11 Torsion [CD]-CE--NZ-[HZ1] |==|  0.05015
USER: genes 12 Torsion [N]-CA--C-[OXT] |==|  0.91732
USER: genes 13 Torsion [N]-C--CA-[N] |==|  0.99581
USER: genes 14 Torsion [C]-CA--CB-[CG] |==|  0.46083
USER: genes 15 Torsion [CA]-CB--CG-[CD1] |==|  0.86702
USER: genes 16 Torsion [C]-CA--N-[C] |==|  0.78632
USER: genes 17 Torsion [N]-C--CA-[N] |==|  0.32915
ROOT
ATOM      1  C   LEU D   2      29.441 -25.571  -5.196  1.00 63.17 LIG 0.24  C 
ATOM      2 O    LEU D   2      29.817 -26.306  -6.120  1.00 65.03 LIG-0.27  OA
ATOM      3  N   SER D   3      28.533 -25.936  -4.292  1.00 44.71 LIG-0.34  N 
ATOM      4 H    SER D   3      28.213 -25.405  -3.696  1.00 44.71 LIG 0.16  HD
ENDROOT
BRANCH 3 5
ATOM      5  CA  SER D   3      27.991 -27.305  -4.235  1.00 47.15 LIG 0.20  C 
BRANCH 5 6
ATOM      6  CB  SER D   3      28.876 -28.235  -3.396  1.00 46.48 LIG 0.20  C 
BRANCH 6 7
ATOM      7 OG   SER D   3      30.203 -27.756  -3.356  1.00 63.57 LIG-0.40  OA
ATOM      8 HG   SER D   3      30.491 -27.661  -4.140  1.00 63.57 LIG 0.21  HD
ENDBRANCH 6 7
ENDBRANCH 5 6
BRANCH 5 9
ATOM      9  C   SER D   3      26.595 -27.254  -3.613  1.00 37.61 LIG 0.24  C 
ATOM     10  N   LYS D   4      25.565 -27.535  -4.418  1.00 35.09 LIG-0.34  N 
ATOM     11 H    LYS D   4      25.640 -27.672  -5.264  1.00 35.09 LIG 0.16  HD
ATOM     12 O    SER D   3      26.466 -26.959  -2.417  1.00 37.14 LIG-0.27  OA
BRANCH 10 13
ATOM     13  CA  LYS D   4      24.199 -27.633  -3.912  1.00 32.57 LIG 0.18  C 
BRANCH 13 14
ATOM     14  CB  LYS D   4      23.166 -27.180  -4.939  1.00 31.41 LIG 0.04  C 
BRANCH 14 15
ATOM     15  CG  LYS D   4      22.327 -26.067  -4.299  1.00 31.93 LIG 0.00  C 
BRANCH 15 16
ATOM     16  CD  LYS D   4      22.813 -24.641  -4.573  1.00 28.01 LIG 0.03  C 
BRANCH 16 17
ATOM     17  CE  LYS D   4      21.710 -23.906  -5.384  1.00 30.04 LIG 0.23  C 
BRANCH 17 18
ATOM     18  NZ  LYS D   4      21.857 -22.457  -5.276  1.00 33.56 LIG-0.08  N 
ATOM     19 HZ3  LYS D   4      21.262 -22.140  -4.695  1.00 33.56 LIG 0.27  HD
ATOM     20 HZ2  LYS D   4      21.721 -22.084  -6.073  1.00 33.56 LIG 0.27  HD
ATOM     21 HZ1  LYS D   4      22.679 -22.262  -4.995  1.00 33.56 LIG 0.27  HD
ENDBRANCH 17 18
ENDBRANCH 16 17
ENDBRANCH 15 16
ENDBRANCH 14 15
ENDBRANCH 13 14
BRANCH 13 22
ATOM     22  C   LYS D   4      23.929 -29.042  -3.429  1.00 36.61 LIG 0.20  C 
ATOM     23 OXT  LYS D   4      24.523 -30.002  -3.963  1.00 35.43 LIG-0.65  OA
ATOM     24 O    LYS D   4      23.093 -29.206  -2.541  1.00 33.95 LIG-0.65  OA
ENDBRANCH 13 22
ENDBRANCH 10 13
ENDBRANCH 5 9
ENDBRANCH 3 5
BRANCH 1 25
ATOM     25  CA  LEU D   2      30.002 -24.154  -5.086  1.00 72.77 LIG 0.18  C 
BRANCH 25 26
ATOM     26  CB  LEU D   2      31.543 -24.221  -4.887  1.00 74.70 LIG 0.04  C 
BRANCH 26 27
ATOM     27  CG  LEU D   2      32.418 -22.938  -5.072  1.00 82.94 LIG-0.02  C 
ATOM     28  CD1 LEU D   2      32.133 -22.145  -6.343  1.00 82.40 LIG 0.01  C 
ATOM     29  CD2 LEU D   2      32.335 -22.012  -3.842  1.00 81.51 LIG 0.01  C 
ENDBRANCH 26 27
ENDBRANCH 25 26
BRANCH 25 30
ATOM     30  N   LEU D   2      29.321 -23.506  -3.953  1.00 75.65 LIG-0.35  N 
ATOM     31 H    LEU D   2      29.820 -23.469  -3.252  1.00 75.65 LIG 0.16  HD
ATOM     32  C   PRO D   1      28.079 -23.015  -3.955  1.00 79.92 LIG 0.25  C 
ATOM     33 O    PRO D   1      27.486 -22.777  -2.896  1.00 91.02 LIG-0.27  OA
BRANCH 32 34
ATOM     34  CA  PRO D   1      27.351 -22.766  -5.288  1.00 80.93 LIG 0.28  C 
ATOM     35  N   PRO D   1      26.130 -23.558  -5.438  1.00 82.79 LIG-0.06  N 
ATOM     36  CD  PRO D   1      25.101 -22.832  -6.209  1.00 86.01 LIG 0.23  C 
ATOM     37 H3   PRO D   1      26.315 -24.299  -5.833  1.00 82.79 LIG 0.28  HD
ATOM     38 H2   PRO D   1      25.819 -23.758  -4.661  1.00 82.79 LIG 0.28  HD
ATOM     39  CG  PRO D   1      25.588 -21.398  -6.212  1.00 80.97 LIG 0.03  C 
ATOM     40  CB  PRO D   1      26.836 -21.322  -5.375  1.00 77.42 LIG 0.04  C 
ENDBRANCH 32 34
ENDBRANCH 25 30
ENDBRANCH 1 25
TORSDOF 16
ENDMDL
MODEL 17
USER: ADFR SOLUTION from run 149
USER: SCORE 14.322910 LL:  -2.821 LR: -13.170 RR:   0.000 FEB:  -8.397
USER: RMSD 6.208781
USER: SEED 148
USER: STATUS no improvement in best in 10 clusters for 5 generations
USER: GENES 18
USER: genes 0 Translation |==|  0.47094 0.49925 0.49801
USER: genes 1 Rotation |==|  0.77516 0.86256 0.54325 0.70240
USER: genes 2 Torsion [C]-N--CA-[CB] |==|  0.43493
USER: genes 3 Torsion [N]-CA--CB-[OG] |==|  0.67279
USER: genes 4 Torsion [CA]-CB--OG-[HG] |==|  0.70585
USER: genes 5 Torsion [N]-CA--C-[N] |==|  0.95197
USER: genes 6 Torsion [C]-N--CA-[CB] |==|  0.44545
USER: genes 7 Torsion [N]-CA--CB-[CG] |==|  0.24082
USER: genes 8 Torsion [CA]-CB--CG-[CD] |==|  0.81299
USER: genes 9 Torsion [CB]-CG--CD-[CE] |==|  0.74773
USER: genes 10 Torsion [CG]-CD--CE-[NZ] |==|  0.23208
USER: genes 11 Torsion [CD]-CE--NZ-[HZ1] |==|  0.89654
USER: genes 12 Torsion [N]-CA--C-[OXT] |==|  0.45227
USER: genes 13 Torsion [N]-C--CA-[N] |==|  0.27778
USER: genes 14 Torsion [C]-CA--CB-[CG] |==|  0.50718
USER: genes 15 Torsion [CA]-CB--CG-[CD1] |==|  0.70425
USER: genes 16 Torsion [C]-CA--N-[C] |==|  0.79288
USER: genes 17 Torsion [N]-C--CA-[N] |==|  0.27652
ROOT
ATOM      1  C   LEU D   2      26.961 -25.470  -3.990  1.00 63.17 LIG 0.24  C 
ATOM      2 O    LEU D   2      27.235 -25.829  -2.837  1.00 65.03 LIG-0.27  OA
ATOM      3  N   SER D   3      25.873 -25.874  -4.645  1.00 44.71 LIG-0.34  N 
ATOM      4 H    SER D   3      25.717 -25.690  -5.470  1.00 44.71 LIG 0.16  HD
ENDROOT
BRANCH 3 5
ATOM      5  CA  SER D   3      24.826 -26.684  -3.997  1.00 47.15 LIG 0.20  C 
BRANCH 5 6
ATOM      6  CB  SER D   3      23.474 -26.542  -4.706  1.00 46.48 LIG 0.20  C 
BRANCH 6 7
ATOM      7 OG   SER D   3      22.513 -25.982  -3.837  1.00 63.57 LIG-0.40  OA
ATOM      8 HG   SER D   3      21.978 -26.580  -3.588  1.00 63.57 LIG 0.21  HD
ENDBRANCH 6 7
ENDBRANCH 5 6
BRANCH 5 9
ATOM      9  C   SER D   3      25.253 -28.152  -4.030  1.00 37.61 LIG 0.24  C 
ATOM     10  N   LYS D   4      26.221 -28.480  -4.891  1.00 35.09 LIG-0.34  N 
ATOM     11 H    LYS D   4      26.559 -27.935  -5.464  1.00 35.09 LIG 0.16  HD
ATOM     12 O    SER D   3      24.702 -28.968  -3.278  1.00 37.14 LIG-0.27  OA
BRANCH 10 13
ATOM     13  CA  LYS D   4      26.794 -29.822  -4.929  1.00 32.57 LIG 0.18  C 
BRANCH 13 14
ATOM     14  CB  LYS D   4      27.503 -30.113  -6.247  1.00 31.41 LIG 0.04  C 
BRANCH 14 15
ATOM     15  CG  LYS D   4      28.947 -29.610  -6.124  1.00 31.93 LIG 0.00  C 
BRANCH 15 16
ATOM     16  CD  LYS D   4      29.104 -28.091  -6.019  1.00 28.01 LIG 0.03  C 
BRANCH 16 17
ATOM     17  CE  LYS D   4      29.267 -27.525  -7.456  1.00 30.04 LIG 0.23  C 
BRANCH 17 18
ATOM     18  NZ  LYS D   4      27.968 -27.331  -8.094  1.00 33.56 LIG-0.08  N 
ATOM     19 HZ3  LYS D   4      28.068 -27.332  -8.979  1.00 33.56 LIG 0.27  HD
ATOM     20 HZ2  LYS D   4      27.623 -26.552  -7.836  1.00 33.56 LIG 0.27  HD
ATOM     21 HZ1  LYS D   4      27.420 -27.991  -7.858  1.00 33.56 LIG 0.27  HD
ENDBRANCH 17 18
ENDBRANCH 16 17
ENDBRANCH 15 16
ENDBRANCH 14 15
ENDBRANCH 13 14
BRANCH 13 22
ATOM     22  C   LYS D   4      27.711 -30.025  -3.742  1.00 36.61 LIG 0.20  C 
ATOM     23 OXT  LYS D   4      28.043 -31.182  -3.409  1.00 35.43 LIG-0.65  OA
ATOM     24 O    LYS D   4      28.076 -29.035  -3.109  1.00 33.95 LIG-0.65  OA
ENDBRANCH 13 22
ENDBRANCH 10 13
ENDBRANCH 5 9
ENDBRANCH 3 5
BRANCH 1 25
ATOM     25  CA  LEU D   2      27.922 -24.547  -4.740  1.00 72.77 LIG 0.18  C 
BRANCH 25 26
ATOM     26  CB  LEU D   2      29.387 -24.981  -4.452  1.00 74.70 LIG 0.04  C 
BRANCH 26 27
ATOM     27  CG  LEU D   2      30.581 -24.166  -5.049  1.00 82.94 LIG-0.02  C 
ATOM     28  CD1 LEU D   2      31.309 -24.847  -6.203  1.00 82.40 LIG 0.01  C 
ATOM     29  CD2 LEU D   2      30.149 -22.745  -5.462  1.00 81.51 LIG 0.01  C 
ENDBRANCH 26 27
ENDBRANCH 25 26
BRANCH 25 30
ATOM     30  N   LEU D   2      27.646 -23.174  -4.286  1.00 75.65 LIG-0.35  N 
ATOM     31 H    LEU D   2      28.254 -22.880  -3.753  1.00 75.65 LIG 0.16  HD
ATOM     32  C   PRO D   1      26.593 -22.426  -4.627  1.00 79.92 LIG 0.25  C 
ATOM     33 O    PRO D   1      26.282 -21.426  -3.970  1.00 91.02 LIG-0.27  OA
BRANCH 32 34
ATOM     34  CA  PRO D   1      25.728 -22.821  -5.837  1.00 80.93 LIG 0.28  C 
ATOM     35  N   PRO D   1      24.497 -23.521  -5.465  1.00 82.79 LIG-0.06  N 
ATOM     36  CD  PRO D   1      23.392 -23.210  -6.393  1.00 86.01 LIG 0.23  C 
ATOM     37 H3   PRO D   1      24.639 -24.369  -5.461  1.00 82.79 LIG 0.28  HD
ATOM     38 H2   PRO D   1      24.272 -23.300  -4.665  1.00 82.79 LIG 0.28  HD
ATOM     39  CG  PRO D   1      23.877 -21.987  -7.145  1.00 80.97 LIG 0.03  C 
ATOM     40  CB  PRO D   1      25.207 -21.578  -6.573  1.00 77.42 LIG 0.04  C 
ENDBRANCH 32 34
ENDBRANCH 25 30
ENDBRANCH 1 25
TORSDOF 16
ENDMDL
MODEL 18
USER: ADFR SOLUTION from run 159
USER: SCORE 14.036872 LL:  -2.498 LR: -13.136 RR:   0.000 FEB:  -8.364
USER: RMSD 6.440263
USER: SEED 158
USER: STATUS searching
USER: GENES 18
USER: genes 0 Translation |==|  0.38962 0.25943 0.44445
USER: genes 1 Rotation |==|  0.99574 0.53941 0.54016 0.53281
USER: genes 2 Torsion [C]-N--CA-[CB] |==|  0.18914
USER: genes 3 Torsion [N]-CA--CB-[OG] |==|  0.76513
USER: genes 4 Torsion [CA]-CB--OG-[HG] |==|  0.37151
USER: genes 5 Torsion [N]-CA--C-[N] |==|  0.37400
USER: genes 6 Torsion [C]-N--CA-[CB] |==|  0.32261
USER: genes 7 Torsion [N]-CA--CB-[CG] |==|  0.59408
USER: genes 8 Torsion [CA]-CB--CG-[CD] |==|  0.03814
USER: genes 9 Torsion [CB]-CG--CD-[CE] |==|  0.31793
USER: genes 10 Torsion [CG]-CD--CE-[NZ] |==|  0.01388
USER: genes 11 Torsion [CD]-CE--NZ-[HZ1] |==|  0.14386
USER: genes 12 Torsion [N]-CA--C-[OXT] |==|  0.64007
USER: genes 13 Torsion [N]-C--CA-[N] |==|  0.18504
USER: genes 14 Torsion [C]-CA--CB-[CG] |==|  0.53977
USER: genes 15 Torsion [CA]-CB--CG-[CD1] |==|  0.86685
USER: genes 16 Torsion [C]-CA--N-[C] |==|  0.66356
USER: genes 17 Torsion [N]-C--CA-[N] |==|  0.18536
ROOT
ATOM      1  C   LEU D   2      25.192 -29.607  -4.754  1.00 63.17 LIG 0.24  C 
ATOM      2 O    LEU D   2      24.346 -30.410  -4.338  1.00 65.03 LIG-0.27  OA
ATOM      3  N   SER D   3      25.012 -28.287  -4.756  1.00 44.71 LIG-0.34  N 
ATOM      4 H    SER D   3      25.562 -27.731  -5.113  1.00 44.71 LIG 0.16  HD
ENDROOT
BRANCH 3 5
ATOM      5  CA  SER D   3      23.833 -27.657  -4.136  1.00 47.15 LIG 0.20  C 
BRANCH 5 6
ATOM      6  CB  SER D   3      23.845 -27.800  -2.609  1.00 46.48 LIG 0.20  C 
BRANCH 6 7
ATOM      7 OG   SER D   3      23.299 -29.042  -2.223  1.00 63.57 LIG-0.40  OA
ATOM      8 HG   SER D   3      23.795 -29.400  -1.646  1.00 63.57 LIG 0.21  HD
ENDBRANCH 6 7
ENDBRANCH 5 6
BRANCH 5 9
ATOM      9  C   SER D   3      23.826 -26.170  -4.496  1.00 37.61 LIG 0.24  C 
ATOM     10  N   LYS D   4      22.660 -25.651  -4.894  1.00 35.09 LIG-0.34  N 
ATOM     11 H    LYS D   4      21.947 -26.114  -5.022  1.00 35.09 LIG 0.16  HD
ATOM     12 O    SER D   3      24.873 -25.514  -4.411  1.00 37.14 LIG-0.27  OA
BRANCH 10 13
ATOM     13  CA  LYS D   4      22.504 -24.222  -5.150  1.00 32.57 LIG 0.18  C 
BRANCH 13 14
ATOM     14  CB  LYS D   4      22.178 -23.926  -6.610  1.00 31.41 LIG 0.04  C 
BRANCH 14 15
ATOM     15  CG  LYS D   4      22.839 -22.591  -6.977  1.00 31.93 LIG 0.00  C 
BRANCH 15 16
ATOM     16  CD  LYS D   4      23.879 -22.080  -5.976  1.00 28.01 LIG 0.03  C 
BRANCH 16 17
ATOM     17  CE  LYS D   4      25.264 -22.087  -6.680  1.00 30.04 LIG 0.23  C 
BRANCH 17 18
ATOM     18  NZ  LYS D   4      25.135 -22.458  -8.087  1.00 33.56 LIG-0.08  N 
ATOM     19 HZ3  LYS D   4      24.893 -23.313  -8.149  1.00 33.56 LIG 0.27  HD
ATOM     20 HZ2  LYS D   4      25.916 -22.341  -8.498  1.00 33.56 LIG 0.27  HD
ATOM     21 HZ1  LYS D   4      24.518 -21.947  -8.473  1.00 33.56 LIG 0.27  HD
ENDBRANCH 17 18
ENDBRANCH 16 17
ENDBRANCH 15 16
ENDBRANCH 14 15
ENDBRANCH 13 14
BRANCH 13 22
ATOM     22  C   LYS D   4      21.463 -23.642  -4.215  1.00 36.61 LIG 0.20  C 
ATOM     23 OXT  LYS D   4      20.535 -22.948  -4.680  1.00 35.43 LIG-0.65  OA
ATOM     24 O    LYS D   4      21.585 -23.842  -3.007  1.00 33.95 LIG-0.65  OA
ENDBRANCH 13 22
ENDBRANCH 10 13
ENDBRANCH 5 9
ENDBRANCH 3 5
BRANCH 1 25
ATOM     25  CA  LEU D   2      26.506 -30.130  -5.335  1.00 72.77 LIG 0.18  C 
BRANCH 25 26
ATOM     26  CB  LEU D   2      26.442 -31.680  -5.444  1.00 74.70 LIG 0.04  C 
BRANCH 26 27
ATOM     27  CG  LEU D   2      27.747 -32.507  -5.686  1.00 82.94 LIG-0.02  C 
ATOM     28  CD1 LEU D   2      28.637 -31.985  -6.809  1.00 82.40 LIG 0.01  C 
ATOM     29  CD2 LEU D   2      28.568 -32.665  -4.390  1.00 81.51 LIG 0.01  C 
ENDBRANCH 26 27
ENDBRANCH 25 26
BRANCH 25 30
ATOM     30  N   LEU D   2      27.585 -29.678  -4.442  1.00 75.65 LIG-0.35  N 
ATOM     31 H    LEU D   2      27.482 -29.962  -3.637  1.00 75.65 LIG 0.16  HD
ATOM     32  C   PRO D   1      28.627 -28.915  -4.787  1.00 79.92 LIG 0.25  C 
ATOM     33 O    PRO D   1      29.302 -28.333  -3.929  1.00 91.02 LIG-0.27  OA
BRANCH 32 34
ATOM     34  CA  PRO D   1      28.984 -28.725  -6.272  1.00 80.93 LIG 0.28  C 
ATOM     35  N   PRO D   1      27.970 -27.978  -7.020  1.00 82.79 LIG-0.06  N 
ATOM     36  CD  PRO D   1      28.577 -27.157  -8.086  1.00 86.01 LIG 0.23  C 
ATOM     37 H3   PRO D   1      27.406 -28.526  -7.365  1.00 82.79 LIG 0.28  HD
ATOM     38 H2   PRO D   1      27.532 -27.471  -6.481  1.00 82.79 LIG 0.28  HD
ATOM     39  CG  PRO D   1      30.050 -27.124  -7.733  1.00 80.97 LIG 0.03  C 
ATOM     40  CB  PRO D   1      30.239 -27.854  -6.431  1.00 77.42 LIG 0.04  C 
ENDBRANCH 32 34
ENDBRANCH 25 30
ENDBRANCH 1 25
TORSDOF 16
ENDMDL
MODEL 19
USER: ADFR SOLUTION from run 154
USER: SCORE 14.599636 LL:  -2.408 LR: -13.108 RR:   0.000 FEB:  -8.335
USER: RMSD 3.650041
USER: SEED 153
USER: STATUS no improvement in best in 7 clusters for 5 generations
USER: GENES 18
USER: genes 0 Translation |==|  0.53418 0.52672 0.54731
USER: genes 1 Rotation |==|  0.56460 0.56541 0.56874 0.98664
USER: genes 2 Torsion [C]-N--CA-[CB] |==|  0.52299
USER: genes 3 Torsion [N]-CA--CB-[OG] |==|  0.57391
USER: genes 4 Torsion [CA]-CB--OG-[HG] |==|  0.97112
USER: genes 5 Torsion [N]-CA--C-[N] |==|  0.43617
USER: genes 6 Torsion [C]-N--CA-[CB] |==|  0.44219
USER: genes 7 Torsion [N]-CA--CB-[CG] |==|  0.77297
USER: genes 8 Torsion [CA]-CB--CG-[CD] |==|  0.39111
USER: genes 9 Torsion [CB]-CG--CD-[CE] |==|  0.57969
USER: genes 10 Torsion [CG]-CD--CE-[NZ] |==|  0.34603
USER: genes 11 Torsion [CD]-CE--NZ-[HZ1] |==|  0.70671
USER: genes 12 Torsion [N]-CA--C-[OXT] |==|  0.93501
USER: genes 13 Torsion [N]-C--CA-[N] |==|  0.79457
USER: genes 14 Torsion [C]-CA--CB-[CG] |==|  0.22547
USER: genes 15 Torsion [CA]-CB--CG-[CD1] |==|  0.94574
USER: genes 16 Torsion [C]-CA--N-[C] |==|  0.68079
USER: genes 17 Torsion [N]-C--CA-[N] |==|  0.85368
ROOT
ATOM      1  C   LEU D   2      28.336 -24.996  -3.288  1.00 63.17 LIG 0.24  C 
ATOM      2 O    LEU D   2      27.203 -24.498  -3.309  1.00 65.03 LIG-0.27  OA
ATOM      3  N   SER D   3      28.632 -26.169  -3.847  1.00 44.71 LIG-0.34  N 
ATOM      4 H    SER D   3      29.397 -26.554  -3.770  1.00 44.71 LIG 0.16  HD
ENDROOT
BRANCH 3 5
ATOM      5  CA  SER D   3      27.657 -26.916  -4.661  1.00 47.15 LIG 0.20  C 
BRANCH 5 6
ATOM      6  CB  SER D   3      28.166 -28.317  -5.019  1.00 46.48 LIG 0.20  C 
BRANCH 6 7
ATOM      7 OG   SER D   3      27.578 -28.767  -6.220  1.00 63.57 LIG-0.40  OA
ATOM      8 HG   SER D   3      26.955 -28.248  -6.440  1.00 63.57 LIG 0.21  HD
ENDBRANCH 6 7
ENDBRANCH 5 6
BRANCH 5 9
ATOM      9  C   SER D   3      26.356 -27.047  -3.867  1.00 37.61 LIG 0.24  C 
ATOM     10  N   LYS D   4      25.238 -27.255  -4.571  1.00 35.09 LIG-0.34  N 
ATOM     11 H    LYS D   4      25.204 -27.250  -5.430  1.00 35.09 LIG 0.16  HD
ATOM     12 O    SER D   3      26.379 -26.957  -2.633  1.00 37.14 LIG-0.27  OA
BRANCH 10 13
ATOM     13  CA  LYS D   4      23.958 -27.514  -3.919  1.00 32.57 LIG 0.18  C 
BRANCH 13 14
ATOM     14  CB  LYS D   4      22.772 -27.221  -4.833  1.00 31.41 LIG 0.04  C 
BRANCH 14 15
ATOM     15  CG  LYS D   4      22.508 -25.711  -4.789  1.00 31.93 LIG 0.00  C 
BRANCH 15 16
ATOM     16  CD  LYS D   4      22.126 -25.074  -6.128  1.00 28.01 LIG 0.03  C 
BRANCH 16 17
ATOM     17  CE  LYS D   4      22.598 -23.593  -6.106  1.00 30.04 LIG 0.23  C 
BRANCH 17 18
ATOM     18  NZ  LYS D   4      23.468 -23.303  -7.242  1.00 33.56 LIG-0.08  N 
ATOM     19 HZ3  LYS D   4      23.224 -22.532  -7.615  1.00 33.56 LIG 0.27  HD
ATOM     20 HZ2  LYS D   4      23.401 -23.957  -7.843  1.00 33.56 LIG 0.27  HD
ATOM     21 HZ1  LYS D   4      24.310 -23.243  -6.963  1.00 33.56 LIG 0.27  HD
ENDBRANCH 17 18
ENDBRANCH 16 17
ENDBRANCH 15 16
ENDBRANCH 14 15
ENDBRANCH 13 14
BRANCH 13 22
ATOM     22  C   LYS D   4      23.924 -28.933  -3.394  1.00 36.61 LIG 0.20  C 
ATOM     23 OXT  LYS D   4      24.668 -29.797  -3.904  1.00 35.43 LIG-0.65  OA
ATOM     24 O    LYS D   4      23.128 -29.207  -2.497  1.00 33.95 LIG-0.65  OA
ENDBRANCH 13 22
ENDBRANCH 10 13
ENDBRANCH 5 9
ENDBRANCH 3 5
BRANCH 1 25
ATOM     25  CA  LEU D   2      29.465 -24.270  -2.556  1.00 72.77 LIG 0.18  C 
BRANCH 25 26
ATOM     26  CB  LEU D   2      30.733 -24.246  -3.455  1.00 74.70 LIG 0.04  C 
BRANCH 26 27
ATOM     27  CG  LEU D   2      30.874 -23.180  -4.591  1.00 82.94 LIG-0.02  C 
ATOM     28  CD1 LEU D   2      29.564 -22.538  -5.033  1.00 82.40 LIG 0.01  C 
ATOM     29  CD2 LEU D   2      31.900 -22.089  -4.223  1.00 81.51 LIG 0.01  C 
ENDBRANCH 26 27
ENDBRANCH 25 26
BRANCH 25 30
ATOM     30  N   LEU D   2      29.692 -24.987  -1.290  1.00 75.65 LIG-0.35  N 
ATOM     31 H    LEU D   2      29.983 -25.786  -1.417  1.00 75.65 LIG 0.16  HD
ATOM     32  C   PRO D   1      29.487 -24.503  -0.062  1.00 79.92 LIG 0.25  C 
ATOM     33 O    PRO D   1      29.403 -25.257   0.914  1.00 91.02 LIG-0.27  OA
BRANCH 32 34
ATOM     34  CA  PRO D   1      29.319 -22.988   0.151  1.00 80.93 LIG 0.28  C 
ATOM     35  N   PRO D   1      30.405 -22.197  -0.432  1.00 82.79 LIG-0.06  N 
ATOM     36  CD  PRO D   1      29.924 -20.890  -0.922  1.00 86.01 LIG 0.23  C 
ATOM     37 H3   PRO D   1      31.019 -22.075   0.157  1.00 82.79 LIG 0.28  HD
ATOM     38 H2   PRO D   1      30.762 -22.634  -1.081  1.00 82.79 LIG 0.28  HD
ATOM     39  CG  PRO D   1      28.418 -21.046  -0.968  1.00 80.97 LIG 0.03  C 
ATOM     40  CB  PRO D   1      28.078 -22.460  -0.585  1.00 77.42 LIG 0.04  C 
ENDBRANCH 32 34
ENDBRANCH 25 30
ENDBRANCH 1 25
TORSDOF 16
ENDMDL
MODEL 20
USER: ADFR SOLUTION from run 136
USER: SCORE 15.338457 LL:  -3.050 LR: -13.001 RR:   0.000 FEB:  -8.228
USER: RMSD 3.158454
USER: SEED 135
USER: STATUS no improvement in best in 3 clusters for 5 generations
USER: GENES 18
USER: genes 0 Translation |==|  0.59183 0.44762 0.60358
USER: genes 1 Rotation |==|  0.17176 0.12733 0.45787 0.54004
USER: genes 2 Torsion [C]-N--CA-[CB] |==|  0.18870
USER: genes 3 Torsion [N]-CA--CB-[OG] |==|  0.05274
USER: genes 4 Torsion [CA]-CB--OG-[HG] |==|  0.35574
USER: genes 5 Torsion [N]-CA--C-[N] |==|  0.13888
USER: genes 6 Torsion [C]-N--CA-[CB] |==|  0.45205
USER: genes 7 Torsion [N]-CA--CB-[CG] |==|  0.75676
USER: genes 8 Torsion [CA]-CB--CG-[CD] |==|  0.68629
USER: genes 9 Torsion [CB]-CG--CD-[CE] |==|  0.68038
USER: genes 10 Torsion [CG]-CD--CE-[NZ] |==|  0.74769
USER: genes 11 Torsion [CD]-CE--NZ-[HZ1] |==|  0.43883
USER: genes 12 Torsion [N]-CA--C-[OXT] |==|  0.88207
USER: genes 13 Torsion [N]-C--CA-[N] |==|  0.93064
USER: genes 14 Torsion [C]-CA--CB-[CG] |==|  0.85125
USER: genes 15 Torsion [CA]-CB--CG-[CD1] |==|  0.41009
USER: genes 16 Torsion [C]-CA--N-[C] |==|  0.85933
USER: genes 17 Torsion [N]-C--CA-[N] |==|  0.51301
ROOT
ATOM      1  C   LEU D   2      29.590 -26.361  -2.486  1.00 63.17 LIG 0.24  C 
ATOM      2 O    LEU D   2      30.423 -27.242  -2.234  1.00 65.03 LIG-0.27  OA
ATOM      3  N   SER D   3      28.278 -26.524  -2.325  1.00 44.71 LIG-0.34  N 
ATOM      4 H    SER D   3      27.691 -25.945  -2.570  1.00 44.71 LIG 0.16  HD
ENDROOT
BRANCH 3 5
ATOM      5  CA  SER D   3      27.710 -27.732  -1.701  1.00 47.15 LIG 0.20  C 
BRANCH 5 6
ATOM      6  CB  SER D   3      28.057 -27.822  -0.210  1.00 46.48 LIG 0.20  C 
BRANCH 6 7
ATOM      7 OG   SER D   3      28.442 -26.559   0.287  1.00 63.57 LIG-0.40  OA
ATOM      8 HG   SER D   3      27.993 -26.379   0.974  1.00 63.57 LIG 0.21  HD
ENDBRANCH 6 7
ENDBRANCH 5 6
BRANCH 5 9
ATOM      9  C   SER D   3      26.189 -27.695  -1.857  1.00 37.61 LIG 0.24  C 
ATOM     10  N   LYS D   4      25.714 -27.454  -3.083  1.00 35.09 LIG-0.34  N 
ATOM     11 H    LYS D   4      26.207 -27.255  -3.759  1.00 35.09 LIG 0.16  HD
ATOM     12 O    SER D   3      25.466 -27.882  -0.869  1.00 37.14 LIG-0.27  OA
BRANCH 10 13
ATOM     13  CA  LYS D   4      24.285 -27.512  -3.378  1.00 32.57 LIG 0.18  C 
BRANCH 13 14
ATOM     14  CB  LYS D   4      23.935 -26.810  -4.686  1.00 31.41 LIG 0.04  C 
BRANCH 14 15
ATOM     15  CG  LYS D   4      23.687 -25.329  -4.371  1.00 31.93 LIG 0.00  C 
BRANCH 15 16
ATOM     16  CD  LYS D   4      22.244 -24.852  -4.561  1.00 28.01 LIG 0.03  C 
BRANCH 16 17
ATOM     17  CE  LYS D   4      22.231 -23.811  -5.714  1.00 30.04 LIG 0.23  C 
BRANCH 17 18
ATOM     18  NZ  LYS D   4      22.419 -22.457  -5.199  1.00 33.56 LIG-0.08  N 
ATOM     19 HZ3  LYS D   4      23.007 -22.472  -4.531  1.00 33.56 LIG 0.27  HD
ATOM     20 HZ2  LYS D   4      21.642 -22.141  -4.902  1.00 33.56 LIG 0.27  HD
ATOM     21 HZ1  LYS D   4      22.723 -21.932  -5.850  1.00 33.56 LIG 0.27  HD
ENDBRANCH 17 18
ENDBRANCH 16 17
ENDBRANCH 15 16
ENDBRANCH 14 15
ENDBRANCH 13 14
BRANCH 13 22
ATOM     22  C   LYS D   4      23.815 -28.950  -3.370  1.00 36.61 LIG 0.20  C 
ATOM     23 OXT  LYS D   4      24.517 -29.832  -3.909  1.00 35.43 LIG-0.65  OA
ATOM     24 O    LYS D   4      22.724 -29.207  -2.862  1.00 33.95 LIG-0.65  OA
ENDBRANCH 13 22
ENDBRANCH 10 13
ENDBRANCH 5 9
ENDBRANCH 3 5
BRANCH 1 25
ATOM     25  CA  LEU D   2      30.060 -25.019  -3.049  1.00 72.77 LIG 0.18  C 
BRANCH 25 26
ATOM     26  CB  LEU D   2      30.488 -24.088  -1.879  1.00 74.70 LIG 0.04  C 
BRANCH 26 27
ATOM     27  CG  LEU D   2      29.506 -23.811  -0.694  1.00 82.94 LIG-0.02  C 
ATOM     28  CD1 LEU D   2      30.177 -23.592   0.657  1.00 82.40 LIG 0.01  C 
ATOM     29  CD2 LEU D   2      28.554 -22.639  -1.008  1.00 81.51 LIG 0.01  C 
ENDBRANCH 26 27
ENDBRANCH 25 26
BRANCH 25 30
ATOM     30  N   LEU D   2      28.942 -24.460  -3.827  1.00 75.65 LIG-0.35  N 
ATOM     31 H    LEU D   2      28.767 -23.647  -3.606  1.00 75.65 LIG 0.16  HD
ATOM     32  C   PRO D   1      28.245 -25.094  -4.774  1.00 79.92 LIG 0.25  C 
ATOM     33 O    PRO D   1      27.145 -24.669  -5.147  1.00 91.02 LIG-0.27  OA
BRANCH 32 34
ATOM     34  CA  PRO D   1      28.794 -26.391  -5.396  1.00 80.93 LIG 0.28  C 
ATOM     35  N   PRO D   1      27.968 -26.902  -6.492  1.00 82.79 LIG-0.06  N 
ATOM     36  CD  PRO D   1      28.786 -27.569  -7.524  1.00 86.01 LIG 0.23  C 
ATOM     37 H3   PRO D   1      27.389 -27.456  -6.181  1.00 82.79 LIG 0.28  HD
ATOM     38 H2   PRO D   1      27.530 -26.253  -6.848  1.00 82.79 LIG 0.28  HD
ATOM     39  CG  PRO D   1      30.201 -27.123  -7.218  1.00 80.97 LIG 0.03  C 
ATOM     40  CB  PRO D   1      30.150 -26.147  -6.073  1.00 77.42 LIG 0.04  C 
ENDBRANCH 32 34
ENDBRANCH 25 30
ENDBRANCH 1 25
TORSDOF 16
ENDMDL
MODEL 21
USER: ADFR SOLUTION from run 71
USER: SCORE 14.954363 LL:  -2.648 LR: -12.964 RR:   0.000 FEB:  -8.191
USER: RMSD 2.712639
USER: SEED 70
USER: STATUS no improvement in best in 9 clusters for 5 generations
USER: GENES 18
USER: genes 0 Translation |==|  0.53013 0.52987 0.56426
USER: genes 1 Rotation |==|  0.55155 0.53406 0.55983 0.99255
USER: genes 2 Torsion [C]-N--CA-[CB] |==|  0.50734
USER: genes 3 Torsion [N]-CA--CB-[OG] |==|  0.50764
USER: genes 4 Torsion [CA]-CB--OG-[HG] |==|  0.09413
USER: genes 5 Torsion [N]-CA--C-[N] |==|  0.44016
USER: genes 6 Torsion [C]-N--CA-[CB] |==|  0.44678
USER: genes 7 Torsion [N]-CA--CB-[CG] |==|  0.75675
USER: genes 8 Torsion [CA]-CB--CG-[CD] |==|  0.42684
USER: genes 9 Torsion [CB]-CG--CD-[CE] |==|  0.58780
USER: genes 10 Torsion [CG]-CD--CE-[NZ] |==|  0.24115
USER: genes 11 Torsion [CD]-CE--NZ-[HZ1] |==|  0.15424
USER: genes 12 Torsion [N]-CA--C-[OXT] |==|  0.90861
USER: genes 13 Torsion [N]-C--CA-[N] |==|  0.03810
USER: genes 14 Torsion [C]-CA--CB-[CG] |==|  0.23998
USER: genes 15 Torsion [CA]-CB--CG-[CD1] |==|  0.72951
USER: genes 16 Torsion [C]-CA--N-[C] |==|  0.76111
USER: genes 17 Torsion [N]-C--CA-[N] |==|  0.16236
ROOT
ATOM      1  C   LEU D   2      28.248 -24.942  -3.046  1.00 63.17 LIG 0.24  C 
ATOM      2 O    LEU D   2      27.153 -24.395  -3.232  1.00 65.03 LIG-0.27  OA
ATOM      3  N   SER D   3      28.554 -26.150  -3.518  1.00 44.71 LIG-0.34  N 
ATOM      4 H    SER D   3      29.282 -26.566  -3.329  1.00 44.71 LIG 0.16  HD
ENDROOT
BRANCH 3 5
ATOM      5  CA  SER D   3      27.653 -26.888  -4.421  1.00 47.15 LIG 0.20  C 
BRANCH 5 6
ATOM      6  CB  SER D   3      28.204 -28.277  -4.768  1.00 46.48 LIG 0.20  C 
BRANCH 6 7
ATOM      7 OG   SER D   3      27.353 -28.934  -5.682  1.00 63.57 LIG-0.40  OA
ATOM      8 HG   SER D   3      27.010 -28.370  -6.201  1.00 63.57 LIG 0.21  HD
ENDBRANCH 6 7
ENDBRANCH 5 6
BRANCH 5 9
ATOM      9  C   SER D   3      26.296 -27.048  -3.735  1.00 37.61 LIG 0.24  C 
ATOM     10  N   LYS D   4      25.243 -27.281  -4.526  1.00 35.09 LIG-0.34  N 
ATOM     11 H    LYS D   4      25.278 -27.276  -5.385  1.00 35.09 LIG 0.16  HD
ATOM     12 O    SER D   3      26.217 -26.958  -2.502  1.00 37.14 LIG-0.27  OA
BRANCH 10 13
ATOM     13  CA  LYS D   4      23.921 -27.568  -3.979  1.00 32.57 LIG 0.18  C 
BRANCH 13 14
ATOM     14  CB  LYS D   4      22.809 -27.340  -4.999  1.00 31.41 LIG 0.04  C 
BRANCH 14 15
ATOM     15  CG  LYS D   4      22.391 -25.867  -4.914  1.00 31.93 LIG 0.00  C 
BRANCH 15 16
ATOM     16  CD  LYS D   4      21.791 -25.282  -6.196  1.00 28.01 LIG 0.03  C 
BRANCH 16 17
ATOM     17  CE  LYS D   4      22.164 -23.775  -6.254  1.00 30.04 LIG 0.23  C 
BRANCH 17 18
ATOM     18  NZ  LYS D   4      23.468 -23.581  -6.883  1.00 33.56 LIG-0.08  N 
ATOM     19 HZ3  LYS D   4      24.100 -23.956  -6.379  1.00 33.56 LIG 0.27  HD
ATOM     20 HZ2  LYS D   4      23.633 -22.710  -6.965  1.00 33.56 LIG 0.27  HD
ATOM     21 HZ1  LYS D   4      23.468 -23.960  -7.688  1.00 33.56 LIG 0.27  HD
ENDBRANCH 17 18
ENDBRANCH 16 17
ENDBRANCH 15 16
ENDBRANCH 14 15
ENDBRANCH 13 14
BRANCH 13 22
ATOM     22  C   LYS D   4      23.888 -28.975  -3.420  1.00 36.61 LIG 0.20  C 
ATOM     23 OXT  LYS D   4      24.574 -29.869  -3.959  1.00 35.43 LIG-0.65  OA
ATOM     24 O    LYS D   4      23.149 -29.208  -2.464  1.00 33.95 LIG-0.65  OA
ENDBRANCH 13 22
ENDBRANCH 10 13
ENDBRANCH 5 9
ENDBRANCH 3 5
BRANCH 1 25
ATOM     25  CA  LEU D   2      29.310 -24.235  -2.204  1.00 72.77 LIG 0.18  C 
BRANCH 25 26
ATOM     26  CB  LEU D   2      29.414 -22.747  -2.644  1.00 74.70 LIG 0.04  C 
BRANCH 26 27
ATOM     27  CG  LEU D   2      28.465 -21.673  -2.019  1.00 82.94 LIG-0.02  C 
ATOM     28  CD1 LEU D   2      27.236 -21.337  -2.857  1.00 82.40 LIG 0.01  C 
ATOM     29  CD2 LEU D   2      28.040 -22.055  -0.587  1.00 81.51 LIG 0.01  C 
ENDBRANCH 26 27
ENDBRANCH 25 26
BRANCH 25 30
ATOM     30  N   LEU D   2      30.574 -24.964  -2.400  1.00 75.65 LIG-0.35  N 
ATOM     31 H    LEU D   2      31.055 -24.620  -3.025  1.00 75.65 LIG 0.16  HD
ATOM     32  C   PRO D   1      30.979 -26.039  -1.718  1.00 79.92 LIG 0.25  C 
ATOM     33 O    PRO D   1      31.886 -26.762  -2.147  1.00 91.02 LIG-0.27  OA
BRANCH 32 34
ATOM     34  CA  PRO D   1      30.294 -26.412  -0.391  1.00 80.93 LIG 0.28  C 
ATOM     35  N   PRO D   1      28.854 -26.644  -0.528  1.00 82.79 LIG-0.06  N 
ATOM     36  CD  PRO D   1      28.379 -27.680   0.409  1.00 86.01 LIG 0.23  C 
ATOM     37 H3   PRO D   1      28.430 -25.910  -0.385  1.00 82.79 LIG 0.28  HD
ATOM     38 H2   PRO D   1      28.678 -26.883  -1.335  1.00 82.79 LIG 0.28  HD
ATOM     39  CG  PRO D   1      29.647 -28.362   0.879  1.00 80.97 LIG 0.03  C 
ATOM     40  CB  PRO D   1      30.809 -27.758   0.138  1.00 77.42 LIG 0.04  C 
ENDBRANCH 32 34
ENDBRANCH 25 30
ENDBRANCH 1 25
TORSDOF 16
ENDMDL
MODEL 22
USER: ADFR SOLUTION from run 161
USER: SCORE 14.969548 LL:  -2.722 LR: -12.832 RR:   0.000 FEB:  -8.060
USER: RMSD 4.113189
USER: SEED 160
USER: STATUS searching
USER: GENES 18
USER: genes 0 Translation |==|  0.45716 0.57262 0.44068
USER: genes 1 Rotation |==|  0.38454 0.65439 0.69577 0.91774
USER: genes 2 Torsion [C]-N--CA-[CB] |==|  0.57445
USER: genes 3 Torsion [N]-CA--CB-[OG] |==|  0.05694
USER: genes 4 Torsion [CA]-CB--OG-[HG] |==|  0.73132
USER: genes 5 Torsion [N]-CA--C-[N] |==|  0.27525
USER: genes 6 Torsion [C]-N--CA-[CB] |==|  0.43425
USER: genes 7 Torsion [N]-CA--CB-[CG] |==|  0.77224
USER: genes 8 Torsion [CA]-CB--CG-[CD] |==|  0.31363
USER: genes 9 Torsion [CB]-CG--CD-[CE] |==|  0.36833
USER: genes 10 Torsion [CG]-CD--CE-[NZ] |==|  0.30259
USER: genes 11 Torsion [CD]-CE--NZ-[HZ1] |==|  0.87584
USER: genes 12 Torsion [N]-CA--C-[OXT] |==|  0.95696
USER: genes 13 Torsion [N]-C--CA-[N] |==|  0.97164
USER: genes 14 Torsion [C]-CA--CB-[CG] |==|  0.24363
USER: genes 15 Torsion [CA]-CB--CG-[CD1] |==|  0.63752
USER: genes 16 Torsion [C]-CA--N-[C] |==|  0.82770
USER: genes 17 Torsion [N]-C--CA-[N] |==|  0.49910
ROOT
ATOM      1  C   LEU D   2      26.661 -24.204  -4.807  1.00 63.17 LIG 0.24  C 
ATOM      2 O    LEU D   2      25.482 -24.526  -4.607  1.00 65.03 LIG-0.27  OA
ATOM      3  N   SER D   3      27.673 -25.070  -4.777  1.00 44.71 LIG-0.34  N 
ATOM      4 H    SER D   3      28.499 -24.841  -4.839  1.00 44.71 LIG 0.16  HD
ENDROOT
BRANCH 3 5
ATOM      5  CA  SER D   3      27.457 -26.521  -4.631  1.00 47.15 LIG 0.20  C 
BRANCH 5 6
ATOM      6  CB  SER D   3      28.659 -27.216  -3.981  1.00 46.48 LIG 0.20  C 
BRANCH 6 7
ATOM      7 OG   SER D   3      29.448 -26.284  -3.273  1.00 63.57 LIG-0.40  OA
ATOM      8 HG   SER D   3      30.089 -26.035  -3.755  1.00 63.57 LIG 0.21  HD
ENDBRANCH 6 7
ENDBRANCH 5 6
BRANCH 5 9
ATOM      9  C   SER D   3      26.221 -26.747  -3.759  1.00 37.61 LIG 0.24  C 
ATOM     10  N   LYS D   4      25.075 -27.017  -4.394  1.00 35.09 LIG-0.34  N 
ATOM     11 H    LYS D   4      24.986 -27.003  -5.249  1.00 35.09 LIG 0.16  HD
ATOM     12 O    SER D   3      26.317 -26.672  -2.527  1.00 37.14 LIG-0.27  OA
BRANCH 10 13
ATOM     13  CA  LYS D   4      23.859 -27.367  -3.667  1.00 32.57 LIG 0.18  C 
BRANCH 13 14
ATOM     14  CB  LYS D   4      22.598 -27.074  -4.474  1.00 31.41 LIG 0.04  C 
BRANCH 14 15
ATOM     15  CG  LYS D   4      22.276 -25.583  -4.315  1.00 31.93 LIG 0.00  C 
BRANCH 15 16
ATOM     16  CD  LYS D   4      22.422 -24.743  -5.587  1.00 28.01 LIG 0.03  C 
BRANCH 16 17
ATOM     17  CE  LYS D   4      21.150 -23.862  -5.728  1.00 30.04 LIG 0.23  C 
BRANCH 17 18
ATOM     18  NZ  LYS D   4      21.454 -22.457  -5.466  1.00 33.56 LIG-0.08  N 
ATOM     19 HZ3  LYS D   4      20.696 -22.008  -5.333  1.00 33.56 LIG 0.27  HD
ATOM     20 HZ2  LYS D   4      21.884 -22.111  -6.165  1.00 33.56 LIG 0.27  HD
ATOM     21 HZ1  LYS D   4      21.967 -22.394  -4.743  1.00 33.56 LIG 0.27  HD
ENDBRANCH 17 18
ENDBRANCH 16 17
ENDBRANCH 15 16
ENDBRANCH 14 15
ENDBRANCH 13 14
BRANCH 13 22
ATOM     22  C   LYS D   4      23.919 -28.814  -3.227  1.00 36.61 LIG 0.20  C 
ATOM     23 OXT  LYS D   4      24.761 -29.580  -3.740  1.00 35.43 LIG-0.65  OA
ATOM     24 O    LYS D   4      23.102 -29.207  -2.395  1.00 33.95 LIG-0.65  OA
ENDBRANCH 13 22
ENDBRANCH 10 13
ENDBRANCH 5 9
ENDBRANCH 3 5
BRANCH 1 25
ATOM     25  CA  LEU D   2      27.008 -22.739  -5.068  1.00 72.77 LIG 0.18  C 
BRANCH 25 26
ATOM     26  CB  LEU D   2      26.464 -22.318  -6.463  1.00 74.70 LIG 0.04  C 
BRANCH 26 27
ATOM     27  CG  LEU D   2      25.004 -21.778  -6.608  1.00 82.94 LIG-0.02  C 
ATOM     28  CD1 LEU D   2      24.183 -22.436  -7.712  1.00 82.40 LIG 0.01  C 
ATOM     29  CD2 LEU D   2      24.239 -21.842  -5.271  1.00 81.51 LIG 0.01  C 
ENDBRANCH 26 27
ENDBRANCH 25 26
BRANCH 25 30
ATOM     30  N   LEU D   2      28.473 -22.619  -4.981  1.00 75.65 LIG-0.35  N 
ATOM     31 H    LEU D   2      28.823 -22.361  -5.724  1.00 75.65 LIG 0.16  HD
ATOM     32  C   PRO D   1      29.223 -22.866  -3.903  1.00 79.92 LIG 0.25  C 
ATOM     33 O    PRO D   1      30.443 -23.042  -4.003  1.00 91.02 LIG-0.27  OA
BRANCH 32 34
ATOM     34  CA  PRO D   1      28.566 -22.968  -2.515  1.00 80.93 LIG 0.28  C 
ATOM     35  N   PRO D   1      29.521 -23.251  -1.442  1.00 82.79 LIG-0.06  N 
ATOM     36  CD  PRO D   1      29.120 -22.608  -0.175  1.00 86.01 LIG 0.23  C 
ATOM     37 H3   PRO D   1      29.580 -24.101  -1.327  1.00 82.79 LIG 0.28  HD
ATOM     38 H2   PRO D   1      30.301 -22.973  -1.671  1.00 82.79 LIG 0.28  HD
ATOM     39  CG  PRO D   1      28.074 -21.595  -0.591  1.00 80.97 LIG 0.03  C 
ATOM     40  CB  PRO D   1      27.960 -21.623  -2.091  1.00 77.42 LIG 0.04  C 
ENDBRANCH 32 34
ENDBRANCH 25 30
ENDBRANCH 1 25
TORSDOF 16
ENDMDL
MODEL 23
USER: ADFR SOLUTION from run 141
USER: SCORE 14.743290 LL:  -2.214 LR: -12.817 RR:   0.000 FEB:  -8.044
USER: RMSD 3.933142
USER: SEED 140
USER: STATUS no improvement in best in 2 clusters for 5 generations
USER: GENES 18
USER: genes 0 Translation |==|  0.58051 0.45787 0.55974
USER: genes 1 Rotation |==|  0.80580 0.77381 0.74396 0.64831
USER: genes 2 Torsion [C]-N--CA-[CB] |==|  0.84999
USER: genes 3 Torsion [N]-CA--CB-[OG] |==|  0.60782
USER: genes 4 Torsion [CA]-CB--OG-[HG] |==|  0.97183
USER: genes 5 Torsion [N]-CA--C-[N] |==|  0.41667
USER: genes 6 Torsion [C]-N--CA-[CB] |==|  0.40535
USER: genes 7 Torsion [N]-CA--CB-[CG] |==|  0.86731
USER: genes 8 Torsion [CA]-CB--CG-[CD] |==|  0.39810
USER: genes 9 Torsion [CB]-CG--CD-[CE] |==|  0.48300
USER: genes 10 Torsion [CG]-CD--CE-[NZ] |==|  0.28291
USER: genes 11 Torsion [CD]-CE--NZ-[HZ1] |==|  0.76360
USER: genes 12 Torsion [N]-CA--C-[OXT] |==|  0.97744
USER: genes 13 Torsion [N]-C--CA-[N] |==|  0.34311
USER: genes 14 Torsion [C]-CA--CB-[CG] |==|  0.60357
USER: genes 15 Torsion [CA]-CB--CG-[CD1] |==|  0.85431
USER: genes 16 Torsion [C]-CA--N-[C] |==|  0.72435
USER: genes 17 Torsion [N]-C--CA-[N] |==|  0.17648
ROOT
ATOM      1  C   LEU D   2      29.344 -26.184  -3.111  1.00 63.17 LIG 0.24  C 
ATOM      2 O    LEU D   2      29.266 -27.284  -2.548  1.00 65.03 LIG-0.27  OA
ATOM      3  N   SER D   3      28.670 -25.877  -4.219  1.00 44.71 LIG-0.34  N 
ATOM      4 H    SER D   3      28.778 -25.144  -4.655  1.00 44.71 LIG 0.16  HD
ENDROOT
BRANCH 3 5
ATOM      5  CA  SER D   3      27.664 -26.785  -4.799  1.00 47.15 LIG 0.20  C 
BRANCH 5 6
ATOM      6  CB  SER D   3      28.234 -28.186  -5.046  1.00 46.48 LIG 0.20  C 
BRANCH 6 7
ATOM      7 OG   SER D   3      27.741 -28.717  -6.257  1.00 63.57 LIG-0.40  OA
ATOM      8 HG   SER D   3      27.123 -28.227  -6.547  1.00 63.57 LIG 0.21  HD
ENDBRANCH 6 7
ENDBRANCH 5 6
BRANCH 5 9
ATOM      9  C   SER D   3      26.485 -26.891  -3.831  1.00 37.61 LIG 0.24  C 
ATOM     10  N   LYS D   4      25.281 -27.117  -4.368  1.00 35.09 LIG-0.34  N 
ATOM     11 H    LYS D   4      25.129 -27.136  -5.214  1.00 35.09 LIG 0.16  HD
ATOM     12 O    SER D   3      26.677 -26.766  -2.614  1.00 37.14 LIG-0.27  OA
BRANCH 10 13
ATOM     13  CA  LYS D   4      24.103 -27.355  -3.539  1.00 32.57 LIG 0.18  C 
BRANCH 13 14
ATOM     14  CB  LYS D   4      22.832 -26.787  -4.163  1.00 31.41 LIG 0.04  C 
BRANCH 14 15
ATOM     15  CG  LYS D   4      23.131 -25.351  -4.612  1.00 31.93 LIG 0.00  C 
BRANCH 15 16
ATOM     16  CD  LYS D   4      22.455 -24.919  -5.916  1.00 28.01 LIG 0.03  C 
BRANCH 16 17
ATOM     17  CE  LYS D   4      22.742 -23.407  -6.126  1.00 30.04 LIG 0.23  C 
BRANCH 17 18
ATOM     18  NZ  LYS D   4      23.802 -23.207  -7.111  1.00 33.56 LIG-0.08  N 
ATOM     19 HZ3  LYS D   4      23.713 -22.404  -7.485  1.00 33.56 LIG 0.27  HD
ATOM     20 HZ2  LYS D   4      23.745 -23.834  -7.741  1.00 33.56 LIG 0.27  HD
ATOM     21 HZ1  LYS D   4      24.594 -23.261  -6.710  1.00 33.56 LIG 0.27  HD
ENDBRANCH 17 18
ENDBRANCH 16 17
ENDBRANCH 15 16
ENDBRANCH 14 15
ENDBRANCH 13 14
BRANCH 13 22
ATOM     22  C   LYS D   4      23.971 -28.833  -3.243  1.00 36.61 LIG 0.20  C 
ATOM     23 OXT  LYS D   4      24.721 -29.648  -3.822  1.00 35.43 LIG-0.65  OA
ATOM     24 O    LYS D   4      23.093 -29.198  -2.462  1.00 33.95 LIG-0.65  OA
ENDBRANCH 13 22
ENDBRANCH 10 13
ENDBRANCH 5 9
ENDBRANCH 3 5
BRANCH 1 25
ATOM     25  CA  LEU D   2      30.282 -25.116  -2.550  1.00 72.77 LIG 0.18  C 
BRANCH 25 26
ATOM     26  CB  LEU D   2      31.752 -25.615  -2.646  1.00 74.70 LIG 0.04  C 
BRANCH 26 27
ATOM     27  CG  LEU D   2      32.772 -25.284  -1.508  1.00 82.94 LIG-0.02  C 
ATOM     28  CD1 LEU D   2      32.869 -23.806  -1.144  1.00 82.40 LIG 0.01  C 
ATOM     29  CD2 LEU D   2      32.505 -26.124  -0.243  1.00 81.51 LIG 0.01  C 
ENDBRANCH 26 27
ENDBRANCH 25 26
BRANCH 25 30
ATOM     30  N   LEU D   2      29.869 -24.863  -1.159  1.00 75.65 LIG-0.35  N 
ATOM     31 H    LEU D   2      30.176 -25.456  -0.616  1.00 75.65 LIG 0.16  HD
ATOM     32  C   PRO D   1      29.109 -23.850  -0.733  1.00 79.92 LIG 0.25  C 
ATOM     33 O    PRO D   1      28.560 -23.888   0.375  1.00 91.02 LIG-0.27  OA
BRANCH 32 34
ATOM     34  CA  PRO D   1      28.879 -22.627  -1.638  1.00 80.93 LIG 0.28  C 
ATOM     35  N   PRO D   1      28.163 -22.947  -2.874  1.00 82.79 LIG-0.06  N 
ATOM     36  CD  PRO D   1      27.299 -21.831  -3.308  1.00 86.01 LIG 0.23  C 
ATOM     37 H3   PRO D   1      28.729 -23.131  -3.495  1.00 82.79 LIG 0.28  HD
ATOM     38 H2   PRO D   1      27.684 -23.651  -2.755  1.00 82.79 LIG 0.28  HD
ATOM     39  CG  PRO D   1      27.211 -20.939  -2.087  1.00 80.97 LIG 0.03  C 
ATOM     40  CB  PRO D   1      27.954 -21.605  -0.961  1.00 77.42 LIG 0.04  C 
ENDBRANCH 32 34
ENDBRANCH 25 30
ENDBRANCH 1 25
TORSDOF 16
ENDMDL
