MODEL 1
USER: ADFR SOLUTION from run 63
USER: SCORE 15.364597 LL:  -3.724 LR: -12.930 RR:   0.000 FEB:  -7.262
USER: RMSD 4.108516
USER: SEED 62
USER: STATUS no improvement in best in 7 clusters for 5 generations
USER: GENES 21
USER: genes 0 Translation |==|  0.67978 0.57892 0.64581
USER: genes 1 Rotation |==|  0.64376 0.72628 0.34387 0.89212
USER: genes 2 Torsion [C]-CA--N-[C] |==|  0.16041
USER: genes 3 Torsion [N]-C--CA-[N] |==|  0.68791
USER: genes 4 Torsion [C]-CA--N-[C] |==|  0.75304
USER: genes 5 Torsion [N]-C--CA-[N] |==|  0.36743
USER: genes 6 Torsion [C]-CA--CB-[CG] |==|  0.54469
USER: genes 7 Torsion [CA]-CB--CG-[CD1] |==|  0.87549
USER: genes 8 Torsion [C]-CA--N-[C] |==|  0.78026
USER: genes 9 Torsion [N]-C--CA-[N] |==|  0.25201
USER: genes 10 Torsion [N]-CA--C-[N] |==|  0.70554
USER: genes 11 Torsion [C]-N--CA-[C] |==|  0.84358
USER: genes 12 Torsion [N]-CA--C-[N] |==|  0.35599
USER: genes 13 Torsion [C]-N--CA-[C] |==|  0.73025
USER: genes 14 Torsion [N]-CA--C-[O] |==|  0.94324
USER: genes 15 Torsion [N]-CA--CB-[CG] |==|  0.15720
USER: genes 16 Torsion [CA]-CB--CG-[OD1] |==|  0.89313
USER: genes 17 Torsion [N]-CA--CB-[CG] |==|  0.91639
USER: genes 18 Torsion [CA]-CB--CG-[CD2] |==|  0.74128
USER: genes 19 Torsion [N]-CA--CB-[CG] |==|  0.53266
USER: genes 20 Torsion [CA]-CB--CG-[CD2] |==|  0.45561
ROOT
ATOM      1  CA  LEU C   5     -11.580   9.671  25.398  1.00 25.10 LIG 0.18  C 
ENDROOT
BRANCH 1 2
ATOM      2  N   LEU C   5     -12.548   9.068  26.399  1.00 25.35 LIG-0.35  N 
ATOM      3  C   GLY C   4     -13.714   8.504  25.970  1.00 24.95 LIG 0.24  C 
ATOM      4 O    GLY C   4     -14.005   8.500  24.769  1.00 25.89 LIG-0.27  OA
ATOM      5 H    LEU C   5     -12.300   9.116  27.221  1.00 25.35 LIG 0.16  HD
BRANCH 3 6
ATOM      6  CA  GLY C   4     -14.641   7.874  26.952  1.00 25.42 LIG 0.23  C 
BRANCH 6 7
ATOM      7  N   GLY C   4     -14.815   6.422  26.892  1.00 25.00 LIG-0.35  N 
ATOM      8  C   PHE C   3     -15.751   5.823  26.115  1.00 25.70 LIG 0.24  C 
ATOM      9 O    PHE C   3     -16.504   6.461  25.355  1.00 20.17 LIG-0.27  OA
ATOM     10 H    GLY C   4     -14.269   5.986  27.393  1.00 25.00 LIG 0.16  HD
BRANCH 8 11
ATOM     11  CA  PHE C   3     -15.739   4.295  26.092  1.00 26.56 LIG 0.18  C 
BRANCH 11 12
ATOM     12  CB  PHE C   3     -15.191   3.837  24.755  1.00 27.24 LIG 0.07  C 
BRANCH 12 13
ATOM     13  CG  PHE C   3     -15.470   2.427  24.457  1.00 26.12 LIG-0.06  A 
ATOM     14  CD1 PHE C   3     -15.278   1.474  25.444  1.00 28.42 LIG 0.01  A 
ATOM     15  CE1 PHE C   3     -15.566   0.122  25.210  1.00 27.55 LIG 0.00  A 
ATOM     16  CZ  PHE C   3     -15.957  -0.301  23.898  1.00 28.40 LIG 0.00  A 
ATOM     17  CE2 PHE C   3     -16.155   0.663  22.893  1.00 22.84 LIG 0.00  A 
ATOM     18  CD2 PHE C   3     -15.862   2.022  23.161  1.00 25.80 LIG 0.01  A 
ENDBRANCH 12 13
ENDBRANCH 11 12
BRANCH 11 19
ATOM     19  N   PHE C   3     -17.096   3.765  26.288  1.00 29.45 LIG-0.35  N 
ATOM     20 H    PHE C   3     -17.494   3.506  25.571  1.00 29.45 LIG 0.16  HD
ATOM     21  C   GLY C   2     -17.624   3.710  27.511  1.00 31.80 LIG 0.25  C 
ATOM     22 O    GLY C   2     -17.072   4.238  28.512  1.00 33.21 LIG-0.27  OA
BRANCH 21 23
ATOM     23  CA  GLY C   2     -19.002   3.058  27.611  1.00 32.25 LIG 0.47  C 
ATOM     24  N   GLY C   2     -18.925   1.583  27.868  1.00 32.96 LIG 0.61  N 
ENDBRANCH 21 23
ENDBRANCH 11 19
ENDBRANCH 8 11
ENDBRANCH 6 7
ENDBRANCH 3 6
ENDBRANCH 1 2
BRANCH 1 25
ATOM     25  C   LEU C   5     -12.148  10.786  24.509  1.00 23.49 LIG 0.24  C 
ATOM     26  N   PHE C   6     -12.399  10.481  23.233  1.00 22.96 LIG-0.35  N 
ATOM     27 H    PHE C   6     -12.298   9.698  22.893  1.00 22.96 LIG 0.16  HD
ATOM     28 O    LEU C   5     -12.462  11.886  25.017  1.00 25.98 LIG-0.27  OA
BRANCH 26 29
ATOM     29  CA  PHE C   6     -12.888  11.513  22.284  1.00 22.19 LIG 0.18  C 
BRANCH 29 30
ATOM     30  C   PHE C   6     -14.169  12.238  22.688  1.00 17.26 LIG 0.24  C 
ATOM     31 O    PHE C   6     -15.171  11.658  22.986  1.00 22.18 LIG-0.27  OA
ATOM     32  N   ASP C   7     -14.118  13.574  22.668  1.00 22.18 LIG-0.35  N 
ATOM     33 H    ASP C   7     -13.417  14.027  22.461  1.00 22.18 LIG 0.16  HD
BRANCH 32 34
ATOM     34  CA  ASP C   7     -15.293  14.391  23.010  1.00 22.70 LIG 0.17  C 
BRANCH 34 35
ATOM     35  C   ASP C   7     -16.078  14.870  21.818  1.00 27.36 LIG 0.22  C 
ATOM     36 O    ASP C   7     -15.566  14.920  20.674  1.00 28.20 LIG-0.29  OA
ENDBRANCH 34 35
BRANCH 34 37
ATOM     37  CB  ASP C   7     -14.837  15.622  23.804  1.00 23.18 LIG 0.15  C 
BRANCH 37 38
ATOM     38  CG  ASP C   7     -13.809  16.458  23.075  1.00 26.80 LIG 0.17  C 
ATOM     39 OD2  ASP C   7     -13.927  17.722  23.148  1.00 27.82 LIG-0.65  OA
ATOM     40 OD1  ASP C   7     -12.918  15.836  22.398  1.00 32.15 LIG-0.65  OA
ENDBRANCH 37 38
ENDBRANCH 34 37
ENDBRANCH 32 34
ENDBRANCH 29 30
BRANCH 29 41
ATOM     41  CB  PHE C   6     -12.978  10.964  20.840  1.00 21.19 LIG 0.07  C 
BRANCH 41 42
ATOM     42  CG  PHE C   6     -11.977   9.904  20.545  1.00 25.43 LIG-0.06  A 
ATOM     43  CD2 PHE C   6     -10.732  10.204  19.974  1.00 26.31 LIG 0.01  A 
ATOM     44  CE2 PHE C   6      -9.799   9.189  19.776  1.00 29.51 LIG 0.00  A 
ATOM     45  CZ  PHE C   6     -10.118   7.854  20.052  1.00 25.82 LIG 0.00  A 
ATOM     46  CE1 PHE C   6     -11.343   7.550  20.581  1.00 26.71 LIG 0.00  A 
ATOM     47  CD1 PHE C   6     -12.287   8.584  20.808  1.00 21.41 LIG 0.01  A 
ENDBRANCH 41 42
ENDBRANCH 29 41
ENDBRANCH 26 29
ENDBRANCH 1 25
BRANCH 1 48
ATOM     48  CB  LEU C   5     -10.797   8.663  24.474  1.00 26.63 LIG 0.04  C 
BRANCH 48 49
ATOM     49  CG  LEU C   5      -9.655   9.203  23.679  1.00 31.82 LIG-0.02  C 
ATOM     50  CD2 LEU C   5      -8.816   7.964  23.195  1.00 33.90 LIG 0.01  C 
ATOM     51  CD1 LEU C   5      -8.804  10.204  24.470  1.00 30.04 LIG 0.01  C 
ENDBRANCH 48 49
ENDBRANCH 1 48
TORSDOF 19
ENDMDL
MODEL 2
USER: ADFR SOLUTION from run 87
USER: SCORE 16.688299 LL:  -4.563 LR: -12.783 RR:   0.000 FEB:  -7.115
USER: RMSD 7.574565
USER: SEED 86
USER: STATUS searching
USER: GENES 21
USER: genes 0 Translation |==|  0.67759 0.56270 0.33369
USER: genes 1 Rotation |==|  0.03735 0.51898 0.37998 0.64556
USER: genes 2 Torsion [C]-CA--N-[C] |==|  0.77958
USER: genes 3 Torsion [N]-C--CA-[N] |==|  0.93333
USER: genes 4 Torsion [C]-CA--N-[C] |==|  0.83825
USER: genes 5 Torsion [N]-C--CA-[N] |==|  0.29209
USER: genes 6 Torsion [C]-CA--CB-[CG] |==|  0.42367
USER: genes 7 Torsion [CA]-CB--CG-[CD1] |==|  0.45825
USER: genes 8 Torsion [C]-CA--N-[C] |==|  0.63388
USER: genes 9 Torsion [N]-C--CA-[N] |==|  0.35639
USER: genes 10 Torsion [N]-CA--C-[N] |==|  0.95913
USER: genes 11 Torsion [C]-N--CA-[C] |==|  0.70190
USER: genes 12 Torsion [N]-CA--C-[N] |==|  0.94492
USER: genes 13 Torsion [C]-N--CA-[C] |==|  0.77662
USER: genes 14 Torsion [N]-CA--C-[O] |==|  0.56692
USER: genes 15 Torsion [N]-CA--CB-[CG] |==|  0.20998
USER: genes 16 Torsion [CA]-CB--CG-[OD1] |==|  0.84516
USER: genes 17 Torsion [N]-CA--CB-[CG] |==|  0.85525
USER: genes 18 Torsion [CA]-CB--CG-[CD2] |==|  0.86745
USER: genes 19 Torsion [N]-CA--CB-[CG] |==|  0.52982
USER: genes 20 Torsion [CA]-CB--CG-[CD2] |==|  0.72559
ROOT
ATOM      1  CA  LEU C   5     -11.619   9.318  19.779  1.00 25.10 LIG 0.18  C 
ENDROOT
BRANCH 1 2
ATOM      2  N   LEU C   5     -12.521  10.521  19.572  1.00 25.35 LIG-0.35  N 
ATOM      3  C   GLY C   4     -13.693  10.388  18.888  1.00 24.95 LIG 0.24  C 
ATOM      4 O    GLY C   4     -14.022   9.297  18.410  1.00 25.89 LIG-0.27  OA
ATOM      5 H    LEU C   5     -12.232  11.256  19.912  1.00 25.35 LIG 0.16  HD
BRANCH 3 6
ATOM      6  CA  GLY C   4     -14.597  11.562  18.726  1.00 25.42 LIG 0.23  C 
BRANCH 6 7
ATOM      7  N   GLY C   4     -14.499  12.641  19.708  1.00 25.00 LIG-0.35  N 
ATOM      8  C   PHE C   3     -14.683  12.448  21.038  1.00 25.70 LIG 0.24  C 
ATOM      9 O    PHE C   3     -14.902  11.325  21.531  1.00 20.17 LIG-0.27  OA
ATOM     10 H    GLY C   4     -14.313  13.407  19.364  1.00 25.00 LIG 0.16  HD
BRANCH 8 11
ATOM     11  CA  PHE C   3     -14.450  13.658  21.940  1.00 26.56 LIG 0.18  C 
BRANCH 11 12
ATOM     12  CB  PHE C   3     -13.610  13.223  23.124  1.00 27.24 LIG 0.07  C 
BRANCH 12 13
ATOM     13  CG  PHE C   3     -12.797  14.303  23.698  1.00 26.12 LIG-0.06  A 
ATOM     14  CD1 PHE C   3     -12.233  14.137  24.952  1.00 28.42 LIG 0.01  A 
ATOM     15  CE1 PHE C   3     -11.423  15.130  25.518  1.00 27.55 LIG 0.00  A 
ATOM     16  CZ  PHE C   3     -11.265  16.384  24.845  1.00 28.40 LIG 0.00  A 
ATOM     17  CE2 PHE C   3     -11.834  16.559  23.570  1.00 22.84 LIG 0.00  A 
ATOM     18  CD2 PHE C   3     -12.643  15.534  23.020  1.00 25.80 LIG 0.01  A 
ENDBRANCH 12 13
ENDBRANCH 11 12
BRANCH 11 19
ATOM     19  N   PHE C   3     -15.729  14.210  22.406  1.00 29.45 LIG-0.35  N 
ATOM     20 H    PHE C   3     -16.284  13.632  22.720  1.00 29.45 LIG 0.16  HD
ATOM     21  C   GLY C   2     -15.964  15.519  22.326  1.00 31.80 LIG 0.25  C 
ATOM     22 O    GLY C   2     -15.193  16.311  21.721  1.00 33.21 LIG-0.27  OA
BRANCH 21 23
ATOM     23  CA  GLY C   2     -17.288  15.995  22.921  1.00 32.25 LIG 0.47  C 
ATOM     24  N   GLY C   2     -17.112  17.127  23.889  1.00 32.96 LIG 0.61  N 
ENDBRANCH 21 23
ENDBRANCH 11 19
ENDBRANCH 8 11
ENDBRANCH 6 7
ENDBRANCH 3 6
ENDBRANCH 1 2
BRANCH 1 25
ATOM     25  C   LEU C   5     -12.034   8.359  20.904  1.00 23.49 LIG 0.24  C 
ATOM     26  N   PHE C   6     -12.941   8.801  21.779  1.00 22.96 LIG-0.35  N 
ATOM     27 H    PHE C   6     -13.329   9.568  21.731  1.00 22.96 LIG 0.16  HD
ATOM     28 O    LEU C   5     -11.613   7.180  20.903  1.00 25.98 LIG-0.27  OA
BRANCH 26 29
ATOM     29  CA  PHE C   6     -13.355   7.968  22.936  1.00 22.19 LIG 0.18  C 
BRANCH 29 30
ATOM     30  C   PHE C   6     -14.752   7.359  22.855  1.00 17.26 LIG 0.24  C 
ATOM     31 O    PHE C   6     -15.078   6.406  23.499  1.00 22.18 LIG-0.27  OA
ATOM     32  N   ASP C   7     -15.597   7.942  21.997  1.00 22.18 LIG-0.35  N 
ATOM     33 H    ASP C   7     -15.400   8.629  21.518  1.00 22.18 LIG 0.16  HD
BRANCH 32 34
ATOM     34  CA  ASP C   7     -16.963   7.435  21.805  1.00 22.70 LIG 0.17  C 
BRANCH 34 35
ATOM     35  C   ASP C   7     -17.057   6.243  20.890  1.00 27.36 LIG 0.22  C 
ATOM     36 O    ASP C   7     -18.117   5.970  20.277  1.00 28.20 LIG-0.29  OA
ENDBRANCH 34 35
BRANCH 34 37
ATOM     37  CB  ASP C   7     -17.837   8.552  21.218  1.00 23.18 LIG 0.15  C 
BRANCH 37 38
ATOM     38  CG  ASP C   7     -17.584   8.802  19.749  1.00 26.80 LIG 0.17  C 
ATOM     39 OD2  ASP C   7     -18.572   8.686  18.958  1.00 27.82 LIG-0.65  OA
ATOM     40 OD1  ASP C   7     -16.382   9.070  19.397  1.00 32.15 LIG-0.65  OA
ENDBRANCH 37 38
ENDBRANCH 34 37
ENDBRANCH 32 34
ENDBRANCH 29 30
BRANCH 29 41
ATOM     41  CB  PHE C   6     -13.134   8.706  24.279  1.00 21.19 LIG 0.07  C 
BRANCH 41 42
ATOM     42  CG  PHE C   6     -11.757   9.244  24.441  1.00 25.43 LIG-0.06  A 
ATOM     43  CD2 PHE C   6     -10.623   8.462  24.175  1.00 26.31 LIG 0.01  A 
ATOM     44  CE2 PHE C   6      -9.354   9.027  24.276  1.00 29.51 LIG 0.00  A 
ATOM     45  CZ  PHE C   6      -9.184  10.341  24.730  1.00 25.82 LIG 0.00  A 
ATOM     46  CE1 PHE C   6     -10.286  11.100  25.021  1.00 26.71 LIG 0.00  A 
ATOM     47  CD1 PHE C   6     -11.581  10.537  24.894  1.00 21.41 LIG 0.01  A 
ENDBRANCH 41 42
ENDBRANCH 29 41
ENDBRANCH 26 29
ENDBRANCH 1 25
BRANCH 1 48
ATOM     48  CB  LEU C   5     -10.078   9.605  19.928  1.00 26.63 LIG 0.04  C 
BRANCH 48 49
ATOM     49  CG  LEU C   5      -9.153   8.434  19.885  1.00 31.82 LIG-0.02  C 
ATOM     50  CD2 LEU C   5      -8.808   8.076  21.378  1.00 33.90 LIG 0.01  C 
ATOM     51  CD1 LEU C   5      -7.894   8.704  19.051  1.00 30.04 LIG 0.01  C 
ENDBRANCH 48 49
ENDBRANCH 1 48
TORSDOF 19
ENDMDL
MODEL 3
USER: ADFR SOLUTION from run 147
USER: SCORE 16.353930 LL:  -4.435 LR: -12.729 RR:   0.000 FEB:  -7.061
USER: RMSD 8.007609
USER: SEED 146
USER: STATUS no improvement in best in 11 clusters for 5 generations
USER: GENES 21
USER: genes 0 Translation |==|  0.63381 0.65489 0.53393
USER: genes 1 Rotation |==|  0.38724 0.55650 0.18961 0.87115
USER: genes 2 Torsion [C]-CA--N-[C] |==|  0.74850
USER: genes 3 Torsion [N]-C--CA-[N] |==|  0.32854
USER: genes 4 Torsion [C]-CA--N-[C] |==|  0.22782
USER: genes 5 Torsion [N]-C--CA-[N] |==|  0.00324
USER: genes 6 Torsion [C]-CA--CB-[CG] |==|  0.76543
USER: genes 7 Torsion [CA]-CB--CG-[CD1] |==|  0.69650
USER: genes 8 Torsion [C]-CA--N-[C] |==|  0.76062
USER: genes 9 Torsion [N]-C--CA-[N] |==|  0.88075
USER: genes 10 Torsion [N]-CA--C-[N] |==|  0.30209
USER: genes 11 Torsion [C]-N--CA-[C] |==|  0.15556
USER: genes 12 Torsion [N]-CA--C-[N] |==|  0.07894
USER: genes 13 Torsion [C]-N--CA-[C] |==|  0.77845
USER: genes 14 Torsion [N]-CA--C-[O] |==|  0.13158
USER: genes 15 Torsion [N]-CA--CB-[CG] |==|  0.15421
USER: genes 16 Torsion [CA]-CB--CG-[OD1] |==|  0.82013
USER: genes 17 Torsion [N]-CA--CB-[CG] |==|  0.94072
USER: genes 18 Torsion [CA]-CB--CG-[CD2] |==|  0.80888
USER: genes 19 Torsion [N]-CA--CB-[CG] |==|  0.66361
USER: genes 20 Torsion [CA]-CB--CG-[CD2] |==|  0.49224
ROOT
ATOM      1  CA  LEU C   5     -12.407  11.323  23.384  1.00 25.10 LIG 0.18  C 
ENDROOT
BRANCH 1 2
ATOM      2  N   LEU C   5     -13.301  12.375  24.013  1.00 25.35 LIG-0.35  N 
ATOM      3  C   GLY C   4     -13.110  13.696  23.729  1.00 24.95 LIG 0.24  C 
ATOM      4 O    GLY C   4     -12.194  14.050  22.978  1.00 25.89 LIG-0.27  OA
ATOM      5 H    LEU C   5     -13.909  12.071  24.540  1.00 25.35 LIG 0.16  HD
BRANCH 3 6
ATOM      6  CA  GLY C   4     -14.018  14.722  24.313  1.00 25.42 LIG 0.23  C 
BRANCH 6 7
ATOM      7  N   GLY C   4     -13.430  15.729  25.198  1.00 25.00 LIG-0.35  N 
ATOM      8  C   PHE C   3     -12.805  16.841  24.738  1.00 25.70 LIG 0.24  C 
ATOM      9 O    PHE C   3     -12.726  17.115  23.525  1.00 20.17 LIG-0.27  OA
ATOM     10 H    GLY C   4     -13.519  15.550  26.034  1.00 25.00 LIG 0.16  HD
BRANCH 8 11
ATOM     11  CA  PHE C   3     -12.331  17.840  25.791  1.00 26.56 LIG 0.18  C 
BRANCH 11 12
ATOM     12  CB  PHE C   3     -10.835  18.029  25.640  1.00 27.24 LIG 0.07  C 
BRANCH 12 13
ATOM     13  CG  PHE C   3     -10.040  17.012  26.339  1.00 26.12 LIG-0.06  A 
ATOM     14  CD1 PHE C   3      -9.325  17.369  27.471  1.00 28.42 LIG 0.01  A 
ATOM     15  CE1 PHE C   3      -8.582  16.420  28.187  1.00 27.55 LIG 0.00  A 
ATOM     16  CZ  PHE C   3      -8.466  15.085  27.682  1.00 28.40 LIG 0.00  A 
ATOM     17  CE2 PHE C   3      -9.192  14.716  26.534  1.00 22.84 LIG 0.00  A 
ATOM     18  CD2 PHE C   3      -9.939  15.696  25.835  1.00 25.80 LIG 0.01  A 
ENDBRANCH 12 13
ENDBRANCH 11 12
BRANCH 11 19
ATOM     19  N   PHE C   3     -12.643  17.354  27.143  1.00 29.45 LIG-0.35  N 
ATOM     20 H    PHE C   3     -12.009  16.918  27.529  1.00 29.45 LIG 0.16  HD
ATOM     21  C   GLY C   2     -13.835  17.598  27.685  1.00 31.80 LIG 0.25  C 
ATOM     22 O    GLY C   2     -14.786  18.104  27.032  1.00 33.21 LIG-0.27  OA
BRANCH 21 23
ATOM     23  CA  GLY C   2     -14.020  17.126  29.126  1.00 32.25 LIG 0.47  C 
ATOM     24  N   GLY C   2     -13.455  15.757  29.361  1.00 32.96 LIG 0.61  N 
ENDBRANCH 21 23
ENDBRANCH 11 19
ENDBRANCH 8 11
ENDBRANCH 6 7
ENDBRANCH 3 6
ENDBRANCH 1 2
BRANCH 1 25
ATOM     25  C   LEU C   5     -12.894  10.748  22.046  1.00 23.49 LIG 0.24  C 
ATOM     26  N   PHE C   6     -12.219  11.099  20.949  1.00 22.96 LIG-0.35  N 
ATOM     27 H    PHE C   6     -11.515  11.593  20.950  1.00 22.96 LIG 0.16  HD
ATOM     28 O    LEU C   5     -13.811   9.895  22.034  1.00 25.98 LIG-0.27  OA
BRANCH 26 29
ATOM     29  CA  PHE C   6     -12.657  10.644  19.605  1.00 22.19 LIG 0.18  C 
BRANCH 29 30
ATOM     30  C   PHE C   6     -14.092  10.990  19.217  1.00 17.26 LIG 0.24  C 
ATOM     31 O    PHE C   6     -14.727  10.334  18.446  1.00 22.18 LIG-0.27  OA
ATOM     32  N   ASP C   7     -14.600  12.094  19.775  1.00 22.18 LIG-0.35  N 
ATOM     33 H    ASP C   7     -14.176  12.591  20.335  1.00 22.18 LIG 0.16  HD
BRANCH 32 34
ATOM     34  CA  ASP C   7     -15.962  12.553  19.463  1.00 22.70 LIG 0.17  C 
BRANCH 34 35
ATOM     35  C   ASP C   7     -16.080  13.295  18.159  1.00 27.36 LIG 0.22  C 
ATOM     36 O    ASP C   7     -15.563  12.852  17.105  1.00 28.20 LIG-0.29  OA
ENDBRANCH 34 35
BRANCH 34 37
ATOM     37  CB  ASP C   7     -16.450  13.482  20.583  1.00 23.18 LIG 0.15  C 
BRANCH 37 38
ATOM     38  CG  ASP C   7     -15.525  14.651  20.837  1.00 26.80 LIG 0.17  C 
ATOM     39 OD2  ASP C   7     -15.961  15.811  20.556  1.00 27.82 LIG-0.65  OA
ATOM     40 OD1  ASP C   7     -14.351  14.387  21.275  1.00 32.15 LIG-0.65  OA
ENDBRANCH 37 38
ENDBRANCH 34 37
ENDBRANCH 32 34
ENDBRANCH 29 30
BRANCH 29 41
ATOM     41  CB  PHE C   6     -12.356   9.141  19.386  1.00 21.19 LIG 0.07  C 
BRANCH 41 42
ATOM     42  CG  PHE C   6     -11.295   8.611  20.282  1.00 25.43 LIG-0.06  A 
ATOM     43  CD2 PHE C   6      -9.954   9.003  20.151  1.00 26.31 LIG 0.01  A 
ATOM     44  CE2 PHE C   6      -9.004   8.534  21.054  1.00 29.51 LIG 0.00  A 
ATOM     45  CZ  PHE C   6      -9.347   7.600  22.040  1.00 25.82 LIG 0.00  A 
ATOM     46  CE1 PHE C   6     -10.648   7.190  22.154  1.00 26.71 LIG 0.00  A 
ATOM     47  CD1 PHE C   6     -11.624   7.686  21.253  1.00 21.41 LIG 0.01  A 
ENDBRANCH 41 42
ENDBRANCH 29 41
ENDBRANCH 26 29
ENDBRANCH 1 25
BRANCH 1 48
ATOM     48  CB  LEU C   5     -11.974  10.119  24.303  1.00 26.63 LIG 0.04  C 
BRANCH 48 49
ATOM     49  CG  LEU C   5     -10.512   9.907  24.515  1.00 31.82 LIG-0.02  C 
ATOM     50  CD2 LEU C   5     -10.371   8.703  25.516  1.00 33.90 LIG 0.01  C 
ATOM     51  CD1 LEU C   5      -9.799  11.166  25.022  1.00 30.04 LIG 0.01  C 
ENDBRANCH 48 49
ENDBRANCH 1 48
TORSDOF 19
ENDMDL
MODEL 4
USER: ADFR SOLUTION from run 37
USER: SCORE 16.641475 LL:  -4.241 LR: -12.725 RR:   0.000 FEB:  -7.057
USER: RMSD 3.568266
USER: SEED 36
USER: STATUS no improvement in best in 8 clusters for 5 generations
USER: GENES 21
USER: genes 0 Translation |==|  0.52628 0.54371 0.51119
USER: genes 1 Rotation |==|  0.52848 0.48012 0.47284 0.99805
USER: genes 2 Torsion [C]-CA--N-[C] |==|  0.82851
USER: genes 3 Torsion [N]-C--CA-[N] |==|  0.91290
USER: genes 4 Torsion [C]-CA--N-[C] |==|  0.80144
USER: genes 5 Torsion [N]-C--CA-[N] |==|  0.46600
USER: genes 6 Torsion [C]-CA--CB-[CG] |==|  0.43502
USER: genes 7 Torsion [CA]-CB--CG-[CD1] |==|  0.60461
USER: genes 8 Torsion [C]-CA--N-[C] |==|  0.77330
USER: genes 9 Torsion [N]-C--CA-[N] |==|  0.67760
USER: genes 10 Torsion [N]-CA--C-[N] |==|  0.42544
USER: genes 11 Torsion [C]-N--CA-[C] |==|  0.13333
USER: genes 12 Torsion [N]-CA--C-[N] |==|  0.14360
USER: genes 13 Torsion [C]-N--CA-[C] |==|  0.70471
USER: genes 14 Torsion [N]-CA--C-[O] |==|  0.19819
USER: genes 15 Torsion [N]-CA--CB-[CG] |==|  0.76372
USER: genes 16 Torsion [CA]-CB--CG-[OD1] |==|  0.63503
USER: genes 17 Torsion [N]-CA--CB-[CG] |==|  0.98718
USER: genes 18 Torsion [CA]-CB--CG-[CD2] |==|  0.76447
USER: genes 19 Torsion [N]-CA--CB-[CG] |==|  0.69185
USER: genes 20 Torsion [CA]-CB--CG-[CD2] |==|  0.88847
ROOT
ATOM      1  CA  LEU C   5     -14.343   8.905  22.974  1.00 25.10 LIG 0.18  C 
ENDROOT
BRANCH 1 2
ATOM      2  N   LEU C   5     -15.596   8.063  23.131  1.00 25.35 LIG-0.35  N 
ATOM      3  C   GLY C   4     -16.783   8.501  22.623  1.00 24.95 LIG 0.24  C 
ATOM      4 O    GLY C   4     -16.858   9.596  22.054  1.00 25.89 LIG-0.27  OA
ATOM      5 H    LEU C   5     -15.486   7.320  23.551  1.00 25.35 LIG 0.16  HD
BRANCH 3 6
ATOM      6  CA  GLY C   4     -18.002   7.651  22.739  1.00 25.42 LIG 0.23  C 
BRANCH 6 7
ATOM      7  N   GLY C   4     -17.825   6.199  22.727  1.00 25.00 LIG-0.35  N 
ATOM      8  C   PHE C   3     -17.479   5.507  21.613  1.00 25.70 LIG 0.24  C 
ATOM      9 O    PHE C   3     -17.236   6.062  20.524  1.00 20.17 LIG-0.27  OA
ATOM     10 H    GLY C   4     -17.961   5.827  23.490  1.00 25.00 LIG 0.16  HD
BRANCH 8 11
ATOM     11  CA  PHE C   3     -17.241   4.009  21.789  1.00 26.56 LIG 0.18  C 
BRANCH 11 12
ATOM     12  CB  PHE C   3     -15.945   3.812  22.551  1.00 27.24 LIG 0.07  C 
BRANCH 12 13
ATOM     13  CG  PHE C   3     -15.863   2.524  23.249  1.00 26.12 LIG-0.06  A 
ATOM     14  CD1 PHE C   3     -15.262   2.464  24.496  1.00 28.42 LIG 0.01  A 
ATOM     15  CE1 PHE C   3     -15.195   1.260  25.210  1.00 27.55 LIG 0.00  A 
ATOM     16  CZ  PHE C   3     -15.652   0.048  24.598  1.00 28.40 LIG 0.00  A 
ATOM     17  CE2 PHE C   3     -16.265   0.103  23.333  1.00 22.84 LIG 0.00  A 
ATOM     18  CD2 PHE C   3     -16.324   1.336  22.638  1.00 25.80 LIG 0.01  A 
ENDBRANCH 12 13
ENDBRANCH 11 12
BRANCH 11 19
ATOM     19  N   PHE C   3     -17.163   3.340  20.483  1.00 29.45 LIG-0.35  N 
ATOM     20 H    PHE C   3     -16.366   3.193  20.194  1.00 29.45 LIG 0.16  HD
ATOM     21  C   GLY C   2     -18.278   3.006  19.834  1.00 31.80 LIG 0.25  C 
ATOM     22 O    GLY C   2     -19.420   3.374  20.214  1.00 33.21 LIG-0.27  OA
BRANCH 21 23
ATOM     23  CA  GLY C   2     -18.081   2.236  18.529  1.00 32.25 LIG 0.47  C 
ATOM     24  N   GLY C   2     -18.566   2.997  17.331  1.00 32.96 LIG 0.61  N 
ENDBRANCH 21 23
ENDBRANCH 11 19
ENDBRANCH 8 11
ENDBRANCH 6 7
ENDBRANCH 3 6
ENDBRANCH 1 2
BRANCH 1 25
ATOM     25  C   LEU C   5     -13.894   9.169  21.531  1.00 23.49 LIG 0.24  C 
ATOM     26  N   PHE C   6     -13.193  10.284  21.304  1.00 22.96 LIG-0.35  N 
ATOM     27 H    PHE C   6     -12.950  10.837  21.917  1.00 22.96 LIG 0.16  HD
ATOM     28 O    LEU C   5     -14.087   8.300  20.650  1.00 25.98 LIG-0.27  OA
BRANCH 26 29
ATOM     29  CA  PHE C   6     -12.772  10.654  19.930  1.00 22.19 LIG 0.18  C 
BRANCH 29 30
ATOM     30  C   PHE C   6     -13.857  10.585  18.858  1.00 17.26 LIG 0.24  C 
ATOM     31 O    PHE C   6     -13.704  10.007  17.823  1.00 22.18 LIG-0.27  OA
ATOM     32  N   ASP C   7     -14.994  11.234  19.131  1.00 22.18 LIG-0.35  N 
ATOM     33 H    ASP C   7     -15.142  11.660  19.863  1.00 22.18 LIG 0.16  HD
BRANCH 32 34
ATOM     34  CA  ASP C   7     -16.107  11.268  18.170  1.00 22.70 LIG 0.17  C 
BRANCH 34 35
ATOM     35  C   ASP C   7     -16.283  12.592  17.476  1.00 27.36 LIG 0.22  C 
ATOM     36 O    ASP C   7     -15.466  12.992  16.611  1.00 28.20 LIG-0.29  OA
ENDBRANCH 34 35
BRANCH 34 37
ATOM     37  CB  ASP C   7     -17.415  10.938  18.902  1.00 23.18 LIG 0.15  C 
BRANCH 37 38
ATOM     38  CG  ASP C   7     -17.675   9.454  19.023  1.00 26.80 LIG 0.17  C 
ATOM     39 OD2  ASP C   7     -16.708   8.721  19.403  1.00 27.82 LIG-0.65  OA
ATOM     40 OD1  ASP C   7     -18.838   9.032  18.692  1.00 32.15 LIG-0.65  OA
ENDBRANCH 37 38
ENDBRANCH 34 37
ENDBRANCH 32 34
ENDBRANCH 29 30
BRANCH 29 41
ATOM     41  CB  PHE C   6     -11.497   9.891  19.497  1.00 21.19 LIG 0.07  C 
BRANCH 41 42
ATOM     42  CG  PHE C   6     -10.917   9.047  20.576  1.00 25.43 LIG-0.06  A 
ATOM     43  CD2 PHE C   6     -10.038   9.576  21.534  1.00 26.31 LIG 0.01  A 
ATOM     44  CE2 PHE C   6      -9.570   8.766  22.565  1.00 29.51 LIG 0.00  A 
ATOM     45  CZ  PHE C   6      -9.889   7.403  22.611  1.00 25.82 LIG 0.00  A 
ATOM     46  CE1 PHE C   6     -10.721   6.873  21.661  1.00 26.71 LIG 0.00  A 
ATOM     47  CD1 PHE C   6     -11.220   7.701  20.624  1.00 21.41 LIG 0.01  A 
ENDBRANCH 41 42
ENDBRANCH 29 41
ENDBRANCH 26 29
ENDBRANCH 1 25
BRANCH 1 48
ATOM     48  CB  LEU C   5     -13.080   8.458  23.803  1.00 26.63 LIG 0.04  C 
BRANCH 48 49
ATOM     49  CG  LEU C   5     -12.646   9.341  24.926  1.00 31.82 LIG-0.02  C 
ATOM     50  CD2 LEU C   5     -12.807  10.822  24.423  1.00 33.90 LIG 0.01  C 
ATOM     51  CD1 LEU C   5     -11.217   9.042  25.395  1.00 30.04 LIG 0.01  C 
ENDBRANCH 48 49
ENDBRANCH 1 48
TORSDOF 19
ENDMDL
MODEL 5
USER: ADFR SOLUTION from run 42
USER: SCORE 15.066098 LL:  -3.589 LR: -12.471 RR:   0.000 FEB:  -6.804
USER: RMSD 2.727954
USER: SEED 41
USER: STATUS no improvement in best in 14 clusters for 5 generations
USER: GENES 21
USER: genes 0 Translation |==|  0.62474 0.59000 0.56571
USER: genes 1 Rotation |==|  0.60598 0.64670 0.38390 0.95141
USER: genes 2 Torsion [C]-CA--N-[C] |==|  0.72220
USER: genes 3 Torsion [N]-C--CA-[N] |==|  0.03645
USER: genes 4 Torsion [C]-CA--N-[C] |==|  0.18460
USER: genes 5 Torsion [N]-C--CA-[N] |==|  0.88692
USER: genes 6 Torsion [C]-CA--CB-[CG] |==|  0.43485
USER: genes 7 Torsion [CA]-CB--CG-[CD1] |==|  0.87097
USER: genes 8 Torsion [C]-CA--N-[C] |==|  0.79716
USER: genes 9 Torsion [N]-C--CA-[N] |==|  0.78488
USER: genes 10 Torsion [N]-CA--C-[N] |==|  0.82790
USER: genes 11 Torsion [C]-N--CA-[C] |==|  0.61137
USER: genes 12 Torsion [N]-CA--C-[N] |==|  0.28343
USER: genes 13 Torsion [C]-N--CA-[C] |==|  0.14984
USER: genes 14 Torsion [N]-CA--C-[O] |==|  0.74401
USER: genes 15 Torsion [N]-CA--CB-[CG] |==|  0.88672
USER: genes 16 Torsion [CA]-CB--CG-[OD1] |==|  0.22071
USER: genes 17 Torsion [N]-CA--CB-[CG] |==|  0.02222
USER: genes 18 Torsion [CA]-CB--CG-[CD2] |==|  0.18550
USER: genes 19 Torsion [N]-CA--CB-[CG] |==|  0.67731
USER: genes 20 Torsion [CA]-CB--CG-[CD2] |==|  0.48169
ROOT
ATOM      1  CA  LEU C   5     -12.571   9.911  23.956  1.00 25.10 LIG 0.18  C 
ENDROOT
BRANCH 1 2
ATOM      2  N   LEU C   5     -13.748   9.306  24.698  1.00 25.35 LIG-0.35  N 
ATOM      3  C   GLY C   4     -14.248   9.921  25.807  1.00 24.95 LIG 0.24  C 
ATOM      4 O    GLY C   4     -13.735  10.962  26.234  1.00 25.89 LIG-0.27  OA
ATOM      5 H    LEU C   5     -14.052   8.573  24.365  1.00 25.35 LIG 0.16  HD
BRANCH 3 6
ATOM      6  CA  GLY C   4     -15.432   9.348  26.507  1.00 25.42 LIG 0.23  C 
BRANCH 6 7
ATOM      7  N   GLY C   4     -15.841   7.988  26.155  1.00 25.00 LIG-0.35  N 
ATOM      8  C   PHE C   3     -15.082   6.897  26.423  1.00 25.70 LIG 0.24  C 
ATOM      9 O    PHE C   3     -13.999   6.965  27.035  1.00 20.17 LIG-0.27  OA
ATOM     10 H    GLY C   4     -16.606   7.946  25.764  1.00 25.00 LIG 0.16  HD
BRANCH 8 11
ATOM     11  CA  PHE C   3     -15.695   5.541  26.078  1.00 26.56 LIG 0.18  C 
BRANCH 11 12
ATOM     12  CB  PHE C   3     -15.527   5.299  24.591  1.00 27.24 LIG 0.07  C 
BRANCH 12 13
ATOM     13  CG  PHE C   3     -15.558   3.879  24.219  1.00 26.12 LIG-0.06  A 
ATOM     14  CD1 PHE C   3     -14.813   2.969  24.951  1.00 28.42 LIG 0.01  A 
ATOM     15  CE1 PHE C   3     -14.844   1.600  24.649  1.00 27.55 LIG 0.00  A 
ATOM     16  CZ  PHE C   3     -15.566   1.146  23.498  1.00 28.40 LIG 0.00  A 
ATOM     17  CE2 PHE C   3     -16.326   2.066  22.752  1.00 22.84 LIG 0.00  A 
ATOM     18  CD2 PHE C   3     -16.280   3.442  23.086  1.00 25.80 LIG 0.01  A 
ENDBRANCH 12 13
ENDBRANCH 11 12
BRANCH 11 19
ATOM     19  N   PHE C   3     -17.120   5.511  26.436  1.00 29.45 LIG-0.35  N 
ATOM     20 H    PHE C   3     -17.664   5.541  25.770  1.00 29.45 LIG 0.16  HD
ATOM     21  C   GLY C   2     -17.489   5.441  27.715  1.00 31.80 LIG 0.25  C 
ATOM     22 O    GLY C   2     -16.669   5.555  28.664  1.00 33.21 LIG-0.27  OA
BRANCH 21 23
ATOM     23  CA  GLY C   2     -18.991   5.325  27.968  1.00 32.25 LIG 0.47  C 
ATOM     24  N   GLY C   2     -19.705   6.635  27.812  1.00 32.96 LIG 0.61  N 
ENDBRANCH 21 23
ENDBRANCH 11 19
ENDBRANCH 8 11
ENDBRANCH 6 7
ENDBRANCH 3 6
ENDBRANCH 1 2
BRANCH 1 25
ATOM     25  C   LEU C   5     -12.918  10.708  22.690  1.00 23.49 LIG 0.24  C 
ATOM     26  N   PHE C   6     -13.510  10.043  21.695  1.00 22.96 LIG-0.35  N 
ATOM     27 H    PHE C   6     -13.739   9.215  21.733  1.00 22.96 LIG 0.16  HD
ATOM     28 O    LEU C   5     -12.750  11.949  22.671  1.00 25.98 LIG-0.27  OA
BRANCH 26 29
ATOM     29  CA  PHE C   6     -13.825  10.716  20.409  1.00 22.19 LIG 0.18  C 
BRANCH 29 30
ATOM     30  C   PHE C   6     -15.168  10.358  19.779  1.00 17.26 LIG 0.24  C 
ATOM     31 O    PHE C   6     -15.342   9.347  19.165  1.00 22.18 LIG-0.27  OA
ATOM     32  N   ASP C   7     -16.146  11.257  19.932  1.00 22.18 LIG-0.35  N 
ATOM     33 H    ASP C   7     -16.060  11.994  20.367  1.00 22.18 LIG 0.16  HD
BRANCH 32 34
ATOM     34  CA  ASP C   7     -17.480  11.045  19.349  1.00 22.70 LIG 0.17  C 
BRANCH 34 35
ATOM     35  C   ASP C   7     -18.119   9.736  19.731  1.00 27.36 LIG 0.22  C 
ATOM     36 O    ASP C   7     -17.983   8.710  19.023  1.00 28.20 LIG-0.29  OA
ENDBRANCH 34 35
BRANCH 34 37
ATOM     37  CB  ASP C   7     -17.374  11.092  17.819  1.00 23.18 LIG 0.15  C 
BRANCH 37 38
ATOM     38  CG  ASP C   7     -16.449  12.177  17.316  1.00 26.80 LIG 0.17  C 
ATOM     39 OD2  ASP C   7     -16.985  13.231  16.849  1.00 27.82 LIG-0.65  OA
ATOM     40 OD1  ASP C   7     -15.191  11.941  17.354  1.00 32.15 LIG-0.65  OA
ENDBRANCH 37 38
ENDBRANCH 34 37
ENDBRANCH 32 34
ENDBRANCH 29 30
BRANCH 29 41
ATOM     41  CB  PHE C   6     -12.665  10.576  19.393  1.00 21.19 LIG 0.07  C 
BRANCH 41 42
ATOM     42  CG  PHE C   6     -11.589   9.655  19.844  1.00 25.43 LIG-0.06  A 
ATOM     43  CD2 PHE C   6     -11.810   8.277  19.991  1.00 26.31 LIG 0.01  A 
ATOM     44  CE2 PHE C   6     -10.756   7.442  20.352  1.00 29.51 LIG 0.00  A 
ATOM     45  CZ  PHE C   6      -9.495   7.966  20.663  1.00 25.82 LIG 0.00  A 
ATOM     46  CE1 PHE C   6      -9.281   9.314  20.552  1.00 26.71 LIG 0.00  A 
ATOM     47  CD1 PHE C   6     -10.345  10.165  20.159  1.00 21.41 LIG 0.01  A 
ENDBRANCH 41 42
ENDBRANCH 29 41
ENDBRANCH 26 29
ENDBRANCH 1 25
BRANCH 1 48
ATOM     48  CB  LEU C   5     -11.377   8.943  23.610  1.00 26.63 LIG 0.04  C 
BRANCH 48 49
ATOM     49  CG  LEU C   5     -10.055   9.229  24.241  1.00 31.82 LIG-0.02  C 
ATOM     50  CD2 LEU C   5      -9.108   8.030  23.868  1.00 33.90 LIG 0.01  C 
ATOM     51  CD1 LEU C   5     -10.155   9.435  25.758  1.00 30.04 LIG 0.01  C 
ENDBRANCH 48 49
ENDBRANCH 1 48
TORSDOF 19
ENDMDL
MODEL 6
USER: ADFR SOLUTION from run 61
USER: SCORE 14.339293 LL:  -4.182 LR: -12.433 RR:   0.000 FEB:  -6.765
USER: RMSD 4.644579
USER: SEED 60
USER: STATUS no improvement in best in 5 clusters for 5 generations
USER: GENES 21
USER: genes 0 Translation |==|  0.51304 0.55637 0.41929
USER: genes 1 Rotation |==|  0.14633 0.20783 0.67224 0.59943
USER: genes 2 Torsion [C]-CA--N-[C] |==|  0.56190
USER: genes 3 Torsion [N]-C--CA-[N] |==|  0.83939
USER: genes 4 Torsion [C]-CA--N-[C] |==|  0.20619
USER: genes 5 Torsion [N]-C--CA-[N] |==|  0.80676
USER: genes 6 Torsion [C]-CA--CB-[CG] |==|  0.68495
USER: genes 7 Torsion [CA]-CB--CG-[CD1] |==|  0.75849
USER: genes 8 Torsion [C]-CA--N-[C] |==|  0.64874
USER: genes 9 Torsion [N]-C--CA-[N] |==|  0.33173
USER: genes 10 Torsion [N]-CA--C-[N] |==|  0.01667
USER: genes 11 Torsion [C]-N--CA-[C] |==|  0.11726
USER: genes 12 Torsion [N]-CA--C-[N] |==|  0.09618
USER: genes 13 Torsion [C]-N--CA-[C] |==|  0.58644
USER: genes 14 Torsion [N]-CA--C-[O] |==|  0.96250
USER: genes 15 Torsion [N]-CA--CB-[CG] |==|  0.39942
USER: genes 16 Torsion [CA]-CB--CG-[OD1] |==|  0.72993
USER: genes 17 Torsion [N]-CA--CB-[CG] |==|  0.12280
USER: genes 18 Torsion [CA]-CB--CG-[CD2] |==|  0.76041
USER: genes 19 Torsion [N]-CA--CB-[CG] |==|  0.57607
USER: genes 20 Torsion [CA]-CB--CG-[CD2] |==|  0.42523
ROOT
ATOM      1  CA  LEU C   5     -14.581   9.180  21.320  1.00 25.10 LIG 0.18  C 
ENDROOT
BRANCH 1 2
ATOM      2  N   LEU C   5     -15.577   8.268  22.013  1.00 25.35 LIG-0.35  N 
ATOM      3  C   GLY C   4     -16.395   7.462  21.276  1.00 24.95 LIG 0.24  C 
ATOM      4 O    GLY C   4     -16.352   7.485  20.040  1.00 25.89 LIG-0.27  OA
ATOM      5 H    LEU C   5     -15.573   8.308  22.872  1.00 25.35 LIG 0.16  HD
BRANCH 3 6
ATOM      6  CA  GLY C   4     -17.340   6.535  21.960  1.00 25.42 LIG 0.23  C 
BRANCH 6 7
ATOM      7  N   GLY C   4     -16.780   5.552  22.888  1.00 25.00 LIG-0.35  N 
ATOM      8  C   PHE C   3     -16.320   5.879  24.121  1.00 25.70 LIG 0.24  C 
ATOM      9 O    PHE C   3     -16.384   7.036  24.578  1.00 20.17 LIG-0.27  OA
ATOM     10 H    GLY C   4     -16.771   4.749  22.578  1.00 25.00 LIG 0.16  HD
BRANCH 8 11
ATOM     11  CA  PHE C   3     -15.856   4.721  25.003  1.00 26.56 LIG 0.18  C 
BRANCH 11 12
ATOM     12  CB  PHE C   3     -14.878   3.874  24.214  1.00 27.24 LIG 0.07  C 
BRANCH 12 13
ATOM     13  CG  PHE C   3     -15.377   2.528  23.911  1.00 26.12 LIG-0.06  A 
ATOM     14  CD1 PHE C   3     -15.186   1.509  24.831  1.00 28.42 LIG 0.01  A 
ATOM     15  CE1 PHE C   3     -15.679   0.219  24.594  1.00 27.55 LIG 0.00  A 
ATOM     16  CZ  PHE C   3     -16.291  -0.086  23.334  1.00 28.40 LIG 0.00  A 
ATOM     17  CE2 PHE C   3     -16.489   0.945  22.397  1.00 22.84 LIG 0.00  A 
ATOM     18  CD2 PHE C   3     -15.985   2.241  22.668  1.00 25.80 LIG 0.01  A 
ENDBRANCH 12 13
ENDBRANCH 11 12
BRANCH 11 19
ATOM     19  N   PHE C   3     -17.001   3.904  25.428  1.00 29.45 LIG-0.35  N 
ATOM     20 H    PHE C   3     -17.503   3.618  24.790  1.00 29.45 LIG 0.16  HD
ATOM     21  C   GLY C   2     -17.203   3.652  26.721  1.00 31.80 LIG 0.25  C 
ATOM     22 O    GLY C   2     -16.539   4.213  27.632  1.00 33.21 LIG-0.27  OA
BRANCH 21 23
ATOM     23  CA  GLY C   2     -18.369   2.719  27.043  1.00 32.25 LIG 0.47  C 
ATOM     24  N   GLY C   2     -17.932   1.476  27.758  1.00 32.96 LIG 0.61  N 
ENDBRANCH 21 23
ENDBRANCH 11 19
ENDBRANCH 8 11
ENDBRANCH 6 7
ENDBRANCH 3 6
ENDBRANCH 1 2
BRANCH 1 25
ATOM     25  C   LEU C   5     -13.384   9.628  22.170  1.00 23.49 LIG 0.24  C 
ATOM     26  N   PHE C   6     -13.260   9.084  23.384  1.00 22.96 LIG-0.35  N 
ATOM     27 H    PHE C   6     -13.783   8.479  23.700  1.00 22.96 LIG 0.16  HD
ATOM     28 O    LEU C   5     -12.515  10.379  21.672  1.00 25.98 LIG-0.27  OA
BRANCH 26 29
ATOM     29  CA  PHE C   6     -12.170   9.504  24.300  1.00 22.19 LIG 0.18  C 
BRANCH 29 30
ATOM     30  C   PHE C   6     -11.890  11.003  24.361  1.00 17.26 LIG 0.24  C 
ATOM     31 O    PHE C   6     -10.794  11.447  24.534  1.00 22.18 LIG-0.27  OA
ATOM     32  N   ASP C   7     -12.953  11.805  24.233  1.00 22.18 LIG-0.35  N 
ATOM     33 H    ASP C   7     -13.756  11.523  24.107  1.00 22.18 LIG 0.16  HD
BRANCH 32 34
ATOM     34  CA  ASP C   7     -12.822  13.268  24.301  1.00 22.70 LIG 0.17  C 
BRANCH 34 35
ATOM     35  C   ASP C   7     -14.028  13.970  24.866  1.00 27.36 LIG 0.22  C 
ATOM     36 O    ASP C   7     -15.125  13.377  25.004  1.00 28.20 LIG-0.29  OA
ENDBRANCH 34 35
BRANCH 34 37
ATOM     37  CB  ASP C   7     -12.571  13.817  22.890  1.00 23.18 LIG 0.15  C 
BRANCH 37 38
ATOM     38  CG  ASP C   7     -13.239  15.150  22.639  1.00 26.80 LIG 0.17  C 
ATOM     39 OD2  ASP C   7     -12.656  16.188  23.083  1.00 27.82 LIG-0.65  OA
ATOM     40 OD1  ASP C   7     -14.369  15.136  22.036  1.00 32.15 LIG-0.65  OA
ENDBRANCH 37 38
ENDBRANCH 34 37
ENDBRANCH 32 34
ENDBRANCH 29 30
BRANCH 29 41
ATOM     41  CB  PHE C   6     -10.874   8.693  24.056  1.00 21.19 LIG 0.07  C 
BRANCH 41 42
ATOM     42  CG  PHE C   6     -10.539   8.529  22.616  1.00 25.43 LIG-0.06  A 
ATOM     43  CD2 PHE C   6     -11.072   7.482  21.850  1.00 26.31 LIG 0.01  A 
ATOM     44  CE2 PHE C   6     -10.785   7.405  20.489  1.00 29.51 LIG 0.00  A 
ATOM     45  CZ  PHE C   6      -9.895   8.304  19.889  1.00 25.82 LIG 0.00  A 
ATOM     46  CE1 PHE C   6      -9.347   9.310  20.639  1.00 26.71 LIG 0.00  A 
ATOM     47  CD1 PHE C   6      -9.658   9.408  22.019  1.00 21.41 LIG 0.01  A 
ENDBRANCH 41 42
ENDBRANCH 29 41
ENDBRANCH 26 29
ENDBRANCH 1 25
BRANCH 1 48
ATOM     48  CB  LEU C   5     -15.168  10.451  20.598  1.00 26.63 LIG 0.04  C 
BRANCH 48 49
ATOM     49  CG  LEU C   5     -14.402  10.999  19.439  1.00 31.82 LIG-0.02  C 
ATOM     50  CD2 LEU C   5     -15.444  11.726  18.513  1.00 33.90 LIG 0.01  C 
ATOM     51  CD1 LEU C   5     -13.616   9.918  18.686  1.00 30.04 LIG 0.01  C 
ENDBRANCH 48 49
ENDBRANCH 1 48
TORSDOF 19
ENDMDL
MODEL 7
USER: ADFR SOLUTION from run 127
USER: SCORE 16.732793 LL:  -5.592 LR: -12.372 RR:   0.000 FEB:  -6.704
USER: RMSD 2.797298
USER: SEED 126
USER: STATUS no improvement in best in 5 clusters for 5 generations
USER: GENES 21
USER: genes 0 Translation |==|  0.61191 0.64687 0.54419
USER: genes 1 Rotation |==|  0.54284 0.56911 0.42289 0.98728
USER: genes 2 Torsion [C]-CA--N-[C] |==|  0.19760
USER: genes 3 Torsion [N]-C--CA-[N] |==|  0.49282
USER: genes 4 Torsion [C]-CA--N-[C] |==|  0.28507
USER: genes 5 Torsion [N]-C--CA-[N] |==|  0.00146
USER: genes 6 Torsion [C]-CA--CB-[CG] |==|  0.43191
USER: genes 7 Torsion [CA]-CB--CG-[CD1] |==|  0.22386
USER: genes 8 Torsion [C]-CA--N-[C] |==|  0.66115
USER: genes 9 Torsion [N]-C--CA-[N] |==|  0.68205
USER: genes 10 Torsion [N]-CA--C-[N] |==|  0.83485
USER: genes 11 Torsion [C]-N--CA-[C] |==|  0.69444
USER: genes 12 Torsion [N]-CA--C-[N] |==|  0.94962
USER: genes 13 Torsion [C]-N--CA-[C] |==|  0.84485
USER: genes 14 Torsion [N]-CA--C-[O] |==|  0.28649
USER: genes 15 Torsion [N]-CA--CB-[CG] |==|  0.73301
USER: genes 16 Torsion [CA]-CB--CG-[OD1] |==|  0.75947
USER: genes 17 Torsion [N]-CA--CB-[CG] |==|  0.99006
USER: genes 18 Torsion [CA]-CB--CG-[CD2] |==|  0.70395
USER: genes 19 Torsion [N]-CA--CB-[CG] |==|  0.85587
USER: genes 20 Torsion [CA]-CB--CG-[CD2] |==|  0.57576
ROOT
ATOM      1  CA  LEU C   5     -12.802  11.148  23.568  1.00 25.10 LIG 0.18  C 
ENDROOT
BRANCH 1 2
ATOM      2  N   LEU C   5     -14.059  10.504  24.122  1.00 25.35 LIG-0.35  N 
ATOM      3  C   GLY C   4     -14.383   9.225  23.776  1.00 24.95 LIG 0.24  C 
ATOM      4 O    GLY C   4     -13.672   8.587  22.991  1.00 25.89 LIG-0.27  OA
ATOM      5 H    LEU C   5     -14.523  11.002  24.649  1.00 25.35 LIG 0.16  HD
BRANCH 3 6
ATOM      6  CA  GLY C   4     -15.594   8.580  24.357  1.00 25.42 LIG 0.23  C 
BRANCH 6 7
ATOM      7  N   GLY C   4     -15.929   7.228  23.910  1.00 25.00 LIG-0.35  N 
ATOM      8  C   PHE C   3     -15.677   6.122  24.653  1.00 25.70 LIG 0.24  C 
ATOM      9 O    PHE C   3     -15.187   6.177  25.797  1.00 20.17 LIG-0.27  OA
ATOM     10 H    GLY C   4     -16.299   7.201  23.134  1.00 25.00 LIG 0.16  HD
BRANCH 8 11
ATOM     11  CA  PHE C   3     -16.175   4.794  24.085  1.00 26.56 LIG 0.18  C 
BRANCH 11 12
ATOM     12  CB  PHE C   3     -14.989   3.866  23.917  1.00 27.24 LIG 0.07  C 
BRANCH 12 13
ATOM     13  CG  PHE C   3     -15.348   2.443  23.935  1.00 26.12 LIG-0.06  A 
ATOM     14  CD1 PHE C   3     -15.855   1.854  22.788  1.00 28.42 LIG 0.01  A 
ATOM     15  CE1 PHE C   3     -16.177   0.491  22.755  1.00 27.55 LIG 0.00  A 
ATOM     16  CZ  PHE C   3     -16.089  -0.286  23.956  1.00 28.40 LIG 0.00  A 
ATOM     17  CE2 PHE C   3     -15.574   0.305  25.124  1.00 22.84 LIG 0.00  A 
ATOM     18  CD2 PHE C   3     -15.251   1.685  25.124  1.00 25.80 LIG 0.01  A 
ENDBRANCH 12 13
ENDBRANCH 11 12
BRANCH 11 19
ATOM     19  N   PHE C   3     -16.841   5.001  22.791  1.00 29.45 LIG-0.35  N 
ATOM     20 H    PHE C   3     -16.355   5.374  22.187  1.00 29.45 LIG 0.16  HD
ATOM     21  C   GLY C   2     -18.106   4.621  22.620  1.00 31.80 LIG 0.25  C 
ATOM     22 O    GLY C   2     -18.829   4.222  23.570  1.00 33.21 LIG-0.27  OA
BRANCH 21 23
ATOM     23  CA  GLY C   2     -18.669   4.801  21.211  1.00 32.25 LIG 0.47  C 
ATOM     24  N   GLY C   2     -19.774   5.813  21.156  1.00 32.96 LIG 0.61  N 
ENDBRANCH 21 23
ENDBRANCH 11 19
ENDBRANCH 8 11
ENDBRANCH 6 7
ENDBRANCH 3 6
ENDBRANCH 1 2
BRANCH 1 25
ATOM     25  C   LEU C   5     -12.837  11.506  22.076  1.00 23.49 LIG 0.24  C 
ATOM     26  N   PHE C   6     -13.041  10.506  21.214  1.00 22.96 LIG-0.35  N 
ATOM     27 H    PHE C   6     -13.189   9.691  21.443  1.00 22.96 LIG 0.16  HD
ATOM     28 O    LEU C   5     -12.794  12.707  21.723  1.00 25.98 LIG-0.27  OA
BRANCH 26 29
ATOM     29  CA  PHE C   6     -13.027  10.747  19.749  1.00 22.19 LIG 0.18  C 
BRANCH 29 30
ATOM     30  C   PHE C   6     -14.375  10.637  19.041  1.00 17.26 LIG 0.24  C 
ATOM     31 O    PHE C   6     -14.580  11.119  17.967  1.00 22.18 LIG-0.27  OA
ATOM     32  N   ASP C   7     -15.334   9.983  19.705  1.00 22.18 LIG-0.35  N 
ATOM     33 H    ASP C   7     -15.225   9.622  20.479  1.00 22.18 LIG 0.16  HD
BRANCH 32 34
ATOM     34  CA  ASP C   7     -16.685   9.830  19.146  1.00 22.70 LIG 0.17  C 
BRANCH 34 35
ATOM     35  C   ASP C   7     -17.353  11.129  18.781  1.00 27.36 LIG 0.22  C 
ATOM     36 O    ASP C   7     -17.436  11.511  17.589  1.00 28.20 LIG-0.29  OA
ENDBRANCH 34 35
BRANCH 34 37
ATOM     37  CB  ASP C   7     -17.575   9.109  20.167  1.00 23.18 LIG 0.15  C 
BRANCH 37 38
ATOM     38  CG  ASP C   7     -17.674   7.619  19.929  1.00 26.80 LIG 0.17  C 
ATOM     39 OD2  ASP C   7     -16.828   6.877  20.519  1.00 27.82 LIG-0.65  OA
ATOM     40 OD1  ASP C   7     -18.574   7.212  19.114  1.00 32.15 LIG-0.65  OA
ENDBRANCH 37 38
ENDBRANCH 34 37
ENDBRANCH 32 34
ENDBRANCH 29 30
BRANCH 29 41
ATOM     41  CB  PHE C   6     -11.942   9.900  19.041  1.00 21.19 LIG 0.07  C 
BRANCH 41 42
ATOM     42  CG  PHE C   6     -11.106   9.104  19.978  1.00 25.43 LIG-0.06  A 
ATOM     43  CD2 PHE C   6      -9.778   9.457  20.264  1.00 26.31 LIG 0.01  A 
ATOM     44  CE2 PHE C   6      -9.052   8.722  21.198  1.00 29.51 LIG 0.00  A 
ATOM     45  CZ  PHE C   6      -9.596   7.576  21.793  1.00 25.82 LIG 0.00  A 
ATOM     46  CE1 PHE C   6     -10.881   7.209  21.495  1.00 26.71 LIG 0.00  A 
ATOM     47  CD1 PHE C   6     -11.632   7.970  20.564  1.00 21.41 LIG 0.01  A 
ENDBRANCH 41 42
ENDBRANCH 29 41
ENDBRANCH 26 29
ENDBRANCH 1 25
BRANCH 1 48
ATOM     48  CB  LEU C   5     -11.440  10.412  23.861  1.00 26.63 LIG 0.04  C 
BRANCH 48 49
ATOM     49  CG  LEU C   5     -11.141  10.056  25.280  1.00 31.82 LIG-0.02  C 
ATOM     50  CD2 LEU C   5      -9.575  10.019  25.415  1.00 33.90 LIG 0.01  C 
ATOM     51  CD1 LEU C   5     -11.790   8.734  25.707  1.00 30.04 LIG 0.01  C 
ENDBRANCH 48 49
ENDBRANCH 1 48
TORSDOF 19
ENDMDL
MODEL 8
USER: ADFR SOLUTION from run 11
USER: SCORE 16.712650 LL:  -4.600 LR: -12.369 RR:   0.000 FEB:  -6.701
USER: RMSD 2.333724
USER: SEED 758655
USER: STATUS no improvement in best in 3 clusters for 5 generations
USER: GENES 21
USER: genes 0 Translation |==|  0.59570 0.66307 0.55285
USER: genes 1 Rotation |==|  0.51794 0.54194 0.49586 0.99790
USER: genes 2 Torsion [C]-CA--N-[C] |==|  0.85549
USER: genes 3 Torsion [N]-C--CA-[N] |==|  0.02222
USER: genes 4 Torsion [C]-CA--N-[C] |==|  0.78098
USER: genes 5 Torsion [N]-C--CA-[N] |==|  0.94089
USER: genes 6 Torsion [C]-CA--CB-[CG] |==|  0.23553
USER: genes 7 Torsion [CA]-CB--CG-[CD1] |==|  0.71939
USER: genes 8 Torsion [C]-CA--N-[C] |==|  0.76401
USER: genes 9 Torsion [N]-C--CA-[N] |==|  0.73171
USER: genes 10 Torsion [N]-CA--C-[N] |==|  0.88922
USER: genes 11 Torsion [C]-N--CA-[C] |==|  0.73962
USER: genes 12 Torsion [N]-CA--C-[N] |==|  0.03233
USER: genes 13 Torsion [C]-N--CA-[C] |==|  0.15930
USER: genes 14 Torsion [N]-CA--C-[O] |==|  0.14182
USER: genes 15 Torsion [N]-CA--CB-[CG] |==|  0.32325
USER: genes 16 Torsion [CA]-CB--CG-[OD1] |==|  0.74282
USER: genes 17 Torsion [N]-CA--CB-[CG] |==|  0.92037
USER: genes 18 Torsion [CA]-CB--CG-[CD2] |==|  0.29366
USER: genes 19 Torsion [N]-CA--CB-[CG] |==|  0.01951
USER: genes 20 Torsion [CA]-CB--CG-[CD2] |==|  0.50237
ROOT
ATOM      1  CA  LEU C   5     -13.093  11.501  23.724  1.00 25.10 LIG 0.18  C 
ENDROOT
BRANCH 1 2
ATOM      2  N   LEU C   5     -14.175  10.547  24.197  1.00 25.35 LIG-0.35  N 
ATOM      3  C   GLY C   4     -15.470  10.736  23.815  1.00 24.95 LIG 0.24  C 
ATOM      4 O    GLY C   4     -15.781  11.699  23.104  1.00 25.89 LIG-0.27  OA
ATOM      5 H    LEU C   5     -13.901   9.907  24.703  1.00 25.35 LIG 0.16  HD
BRANCH 3 6
ATOM      6  CA  GLY C   4     -16.522   9.772  24.244  1.00 25.42 LIG 0.23  C 
BRANCH 6 7
ATOM      7  N   GLY C   4     -16.150   8.743  25.215  1.00 25.00 LIG-0.35  N 
ATOM      8  C   PHE C   3     -15.470   7.620  24.876  1.00 25.70 LIG 0.24  C 
ATOM      9 O    PHE C   3     -15.066   7.401  23.717  1.00 20.17 LIG-0.27  OA
ATOM     10 H    GLY C   4     -16.402   8.917  26.019  1.00 25.00 LIG 0.16  HD
BRANCH 8 11
ATOM     11  CA  PHE C   3     -15.074   6.691  26.023  1.00 26.56 LIG 0.18  C 
BRANCH 11 12
ATOM     12  CB  PHE C   3     -16.071   5.552  26.087  1.00 27.24 LIG 0.07  C 
BRANCH 12 13
ATOM     13  CG  PHE C   3     -15.757   4.443  25.177  1.00 26.12 LIG-0.06  A 
ATOM     14  CD1 PHE C   3     -16.443   4.333  23.978  1.00 28.42 LIG 0.01  A 
ATOM     15  CE1 PHE C   3     -16.148   3.310  23.067  1.00 27.55 LIG 0.00  A 
ATOM     16  CZ  PHE C   3     -15.202   2.295  23.425  1.00 28.40 LIG 0.00  A 
ATOM     17  CE2 PHE C   3     -14.501   2.403  24.640  1.00 22.84 LIG 0.00  A 
ATOM     18  CD2 PHE C   3     -14.817   3.452  25.537  1.00 25.80 LIG 0.01  A 
ENDBRANCH 12 13
ENDBRANCH 11 12
BRANCH 11 19
ATOM     19  N   PHE C   3     -15.061   7.421  27.298  1.00 29.45 LIG-0.35  N 
ATOM     20 H    PHE C   3     -15.786   7.365  27.759  1.00 29.45 LIG 0.16  HD
ATOM     21  C   GLY C   2     -13.979   8.106  27.667  1.00 31.80 LIG 0.25  C 
ATOM     22 O    GLY C   2     -12.999   8.292  26.899  1.00 33.21 LIG-0.27  OA
BRANCH 21 23
ATOM     23  CA  GLY C   2     -14.042   8.753  29.050  1.00 32.25 LIG 0.47  C 
ATOM     24  N   GLY C   2     -14.451  10.194  28.996  1.00 32.96 LIG 0.61  N 
ENDBRANCH 21 23
ENDBRANCH 11 19
ENDBRANCH 8 11
ENDBRANCH 6 7
ENDBRANCH 3 6
ENDBRANCH 1 2
BRANCH 1 25
ATOM     25  C   LEU C   5     -13.034  11.744  22.210  1.00 23.49 LIG 0.24  C 
ATOM     26  N   PHE C   6     -13.231  10.690  21.414  1.00 22.96 LIG-0.35  N 
ATOM     27 H    PHE C   6     -13.424   9.900  21.694  1.00 22.96 LIG 0.16  HD
ATOM     28 O    LEU C   5     -12.923  12.912  21.772  1.00 25.98 LIG-0.27  OA
BRANCH 26 29
ATOM     29  CA  PHE C   6     -13.128  10.818  19.939  1.00 22.19 LIG 0.18  C 
BRANCH 29 30
ATOM     30  C   PHE C   6     -14.436  11.089  19.199  1.00 17.26 LIG 0.24  C 
ATOM     31 O    PHE C   6     -14.526  11.032  18.009  1.00 22.18 LIG-0.27  OA
ATOM     32  N   ASP C   7     -15.483  11.421  19.962  1.00 22.18 LIG-0.35  N 
ATOM     33 H    ASP C   7     -15.458  11.472  20.820  1.00 22.18 LIG 0.16  HD
BRANCH 32 34
ATOM     34  CA  ASP C   7     -16.793  11.734  19.371  1.00 22.70 LIG 0.17  C 
BRANCH 34 35
ATOM     35  C   ASP C   7     -17.365  10.631  18.519  1.00 27.36 LIG 0.22  C 
ATOM     36 O    ASP C   7     -17.450   9.454  18.944  1.00 28.20 LIG-0.29  OA
ENDBRANCH 34 35
BRANCH 34 37
ATOM     37  CB  ASP C   7     -16.664  12.989  18.497  1.00 23.18 LIG 0.15  C 
BRANCH 37 38
ATOM     38  CG  ASP C   7     -16.940  12.731  17.033  1.00 26.80 LIG 0.17  C 
ATOM     39 OD2  ASP C   7     -18.152  12.765  16.653  1.00 27.82 LIG-0.65  OA
ATOM     40 OD1  ASP C   7     -15.937  12.452  16.287  1.00 32.15 LIG-0.65  OA
ENDBRANCH 37 38
ENDBRANCH 34 37
ENDBRANCH 32 34
ENDBRANCH 29 30
BRANCH 29 41
ATOM     41  CB  PHE C   6     -12.359   9.628  19.314  1.00 21.19 LIG 0.07  C 
BRANCH 41 42
ATOM     42  CG  PHE C   6     -11.356   9.024  20.231  1.00 25.43 LIG-0.06  A 
ATOM     43  CD2 PHE C   6     -11.576   7.786  20.854  1.00 26.31 LIG 0.01  A 
ATOM     44  CE2 PHE C   6     -10.582   7.227  21.652  1.00 29.51 LIG 0.00  A 
ATOM     45  CZ  PHE C   6      -9.396   7.923  21.920  1.00 25.82 LIG 0.00  A 
ATOM     46  CE1 PHE C   6      -9.188   9.146  21.340  1.00 26.71 LIG 0.00  A 
ATOM     47  CD1 PHE C   6     -10.188   9.707  20.505  1.00 21.41 LIG 0.01  A 
ENDBRANCH 41 42
ENDBRANCH 29 41
ENDBRANCH 26 29
ENDBRANCH 1 25
BRANCH 1 48
ATOM     48  CB  LEU C   5     -11.629  11.219  24.230  1.00 26.63 LIG 0.04  C 
BRANCH 48 49
ATOM     49  CG  LEU C   5     -11.395   9.957  24.993  1.00 31.82 LIG-0.02  C 
ATOM     50  CD2 LEU C   5      -9.873   9.943  25.389  1.00 33.90 LIG 0.01  C 
ATOM     51  CD1 LEU C   5     -11.798   8.705  24.204  1.00 30.04 LIG 0.01  C 
ENDBRANCH 48 49
ENDBRANCH 1 48
TORSDOF 19
ENDMDL
MODEL 9
USER: ADFR SOLUTION from run 168
USER: SCORE 14.804096 LL:  -3.815 LR: -12.352 RR:   0.000 FEB:  -6.684
USER: RMSD 3.358325
USER: SEED 167
USER: STATUS no improvement in best in 15 clusters for 5 generations
USER: GENES 21
USER: genes 0 Translation |==|  0.62867 0.64728 0.56628
USER: genes 1 Rotation |==|  0.57481 0.62228 0.46840 0.97797
USER: genes 2 Torsion [C]-CA--N-[C] |==|  0.20181
USER: genes 3 Torsion [N]-C--CA-[N] |==|  0.48889
USER: genes 4 Torsion [C]-CA--N-[C] |==|  0.48123
USER: genes 5 Torsion [N]-C--CA-[N] |==|  0.43166
USER: genes 6 Torsion [C]-CA--CB-[CG] |==|  0.45096
USER: genes 7 Torsion [CA]-CB--CG-[CD1] |==|  0.55152
USER: genes 8 Torsion [C]-CA--N-[C] |==|  0.70385
USER: genes 9 Torsion [N]-C--CA-[N] |==|  0.32956
USER: genes 10 Torsion [N]-CA--C-[N] |==|  0.86109
USER: genes 11 Torsion [C]-N--CA-[C] |==|  0.71566
USER: genes 12 Torsion [N]-CA--C-[N] |==|  0.50220
USER: genes 13 Torsion [C]-N--CA-[C] |==|  0.85314
USER: genes 14 Torsion [N]-CA--C-[O] |==|  0.94843
USER: genes 15 Torsion [N]-CA--CB-[CG] |==|  0.81574
USER: genes 16 Torsion [CA]-CB--CG-[OD1] |==|  0.84528
USER: genes 17 Torsion [N]-CA--CB-[CG] |==|  0.97338
USER: genes 18 Torsion [CA]-CB--CG-[CD2] |==|  0.24768
USER: genes 19 Torsion [N]-CA--CB-[CG] |==|  0.93609
USER: genes 20 Torsion [CA]-CB--CG-[CD2] |==|  0.68357
ROOT
ATOM      1  CA  LEU C   5     -12.500  11.157  23.966  1.00 25.10 LIG 0.18  C 
ENDROOT
BRANCH 1 2
ATOM      2  N   LEU C   5     -13.514  10.206  24.573  1.00 25.35 LIG-0.35  N 
ATOM      3  C   GLY C   4     -13.676   8.954  24.055  1.00 24.95 LIG 0.24  C 
ATOM      4 O    GLY C   4     -13.018   8.592  23.073  1.00 25.89 LIG-0.27  OA
ATOM      5 H    LEU C   5     -13.954  10.520  25.243  1.00 25.35 LIG 0.16  HD
BRANCH 3 6
ATOM      6  CA  GLY C   4     -14.640   8.007  24.682  1.00 25.42 LIG 0.23  C 
BRANCH 6 7
ATOM      7  N   GLY C   4     -14.841   6.711  24.036  1.00 25.00 LIG-0.35  N 
ATOM      8  C   PHE C   3     -15.589   5.721  24.585  1.00 25.70 LIG 0.24  C 
ATOM      9 O    PHE C   3     -16.203   5.859  25.660  1.00 20.17 LIG-0.27  OA
ATOM     10 H    GLY C   4     -14.443   6.635  23.278  1.00 25.00 LIG 0.16  HD
BRANCH 8 11
ATOM     11  CA  PHE C   3     -15.780   4.463  23.739  1.00 26.56 LIG 0.18  C 
BRANCH 11 12
ATOM     12  CB  PHE C   3     -16.930   4.697  22.779  1.00 27.24 LIG 0.07  C 
BRANCH 12 13
ATOM     13  CG  PHE C   3     -16.957   3.755  21.654  1.00 26.12 LIG-0.06  A 
ATOM     14  CD1 PHE C   3     -17.688   4.071  20.520  1.00 28.42 LIG 0.01  A 
ATOM     15  CE1 PHE C   3     -17.711   3.214  19.412  1.00 27.55 LIG 0.00  A 
ATOM     16  CZ  PHE C   3     -17.062   1.939  19.488  1.00 28.40 LIG 0.00  A 
ATOM     17  CE2 PHE C   3     -16.316   1.613  20.636  1.00 22.84 LIG 0.00  A 
ATOM     18  CD2 PHE C   3     -16.307   2.503  21.739  1.00 25.80 LIG 0.01  A 
ENDBRANCH 12 13
ENDBRANCH 11 12
BRANCH 11 19
ATOM     19  N   PHE C   3     -16.065   3.303  24.594  1.00 29.45 LIG-0.35  N 
ATOM     20 H    PHE C   3     -16.854   3.288  24.938  1.00 29.45 LIG 0.16  HD
ATOM     21  C   GLY C   2     -15.134   2.369  24.789  1.00 31.80 LIG 0.25  C 
ATOM     22 O    GLY C   2     -13.946   2.503  24.396  1.00 33.21 LIG-0.27  OA
BRANCH 21 23
ATOM     23  CA  GLY C   2     -15.567   1.163  25.622  1.00 32.25 LIG 0.47  C 
ATOM     24  N   GLY C   2     -15.484  -0.124  24.858  1.00 32.96 LIG 0.61  N 
ENDBRANCH 21 23
ENDBRANCH 11 19
ENDBRANCH 8 11
ENDBRANCH 6 7
ENDBRANCH 3 6
ENDBRANCH 1 2
BRANCH 1 25
ATOM     25  C   LEU C   5     -12.874  11.748  22.599  1.00 23.49 LIG 0.24  C 
ATOM     26  N   PHE C   6     -13.271  10.893  21.653  1.00 22.96 LIG-0.35  N 
ATOM     27 H    PHE C   6     -13.364  10.046  21.773  1.00 22.96 LIG 0.16  HD
ATOM     28 O    LEU C   5     -12.911  12.990  22.448  1.00 25.98 LIG-0.27  OA
BRANCH 26 29
ATOM     29  CA  PHE C   6     -13.591  11.366  20.283  1.00 22.19 LIG 0.18  C 
BRANCH 29 30
ATOM     30  C   PHE C   6     -15.075  11.493  19.950  1.00 17.26 LIG 0.24  C 
ATOM     31 O    PHE C   6     -15.937  11.225  20.734  1.00 22.18 LIG-0.27  OA
ATOM     32  N   ASP C   7     -15.365  11.904  18.710  1.00 22.18 LIG-0.35  N 
ATOM     33 H    ASP C   7     -14.774  12.106  18.119  1.00 22.18 LIG 0.16  HD
BRANCH 32 34
ATOM     34  CA  ASP C   7     -16.757  12.041  18.255  1.00 22.70 LIG 0.17  C 
BRANCH 34 35
ATOM     35  C   ASP C   7     -17.598  10.810  18.461  1.00 27.36 LIG 0.22  C 
ATOM     36 O    ASP C   7     -17.077   9.685  18.648  1.00 28.20 LIG-0.29  OA
ENDBRANCH 34 35
BRANCH 34 37
ATOM     37  CB  ASP C   7     -16.765  12.377  16.757  1.00 23.18 LIG 0.15  C 
BRANCH 37 38
ATOM     38  CG  ASP C   7     -16.180  13.736  16.445  1.00 26.80 LIG 0.17  C 
ATOM     39 OD2  ASP C   7     -15.191  13.776  15.648  1.00 27.82 LIG-0.65  OA
ATOM     40 OD1  ASP C   7     -16.692  14.748  17.040  1.00 32.15 LIG-0.65  OA
ENDBRANCH 37 38
ENDBRANCH 34 37
ENDBRANCH 32 34
ENDBRANCH 29 30
BRANCH 29 41
ATOM     41  CB  PHE C   6     -12.836  10.550  19.206  1.00 21.19 LIG 0.07  C 
BRANCH 41 42
ATOM     42  CG  PHE C   6     -11.801   9.641  19.768  1.00 25.43 LIG-0.06  A 
ATOM     43  CD2 PHE C   6     -12.104   8.326  20.152  1.00 26.31 LIG 0.01  A 
ATOM     44  CE2 PHE C   6     -11.091   7.489  20.611  1.00 29.51 LIG 0.00  A 
ATOM     45  CZ  PHE C   6      -9.785   7.966  20.784  1.00 25.82 LIG 0.00  A 
ATOM     46  CE1 PHE C   6      -9.490   9.257  20.440  1.00 26.71 LIG 0.00  A 
ATOM     47  CD1 PHE C   6     -10.514  10.106  19.948  1.00 21.41 LIG 0.01  A 
ENDBRANCH 41 42
ENDBRANCH 29 41
ENDBRANCH 26 29
ENDBRANCH 1 25
BRANCH 1 48
ATOM     48  CB  LEU C   5     -11.011  10.649  23.886  1.00 26.63 LIG 0.04  C 
BRANCH 48 49
ATOM     49  CG  LEU C   5     -10.599   9.573  24.835  1.00 31.82 LIG-0.02  C 
ATOM     50  CD2 LEU C   5      -9.537  10.208  25.805  1.00 33.90 LIG 0.01  C 
ATOM     51  CD1 LEU C   5     -10.058   8.329  24.119  1.00 30.04 LIG 0.01  C 
ENDBRANCH 48 49
ENDBRANCH 1 48
TORSDOF 19
ENDMDL
MODEL 10
USER: ADFR SOLUTION from run 123
USER: SCORE 16.422332 LL:  -5.491 LR: -12.227 RR:   0.000 FEB:  -6.559
USER: RMSD 7.658771
USER: SEED 122
USER: STATUS no improvement in best in 6 clusters for 5 generations
USER: GENES 21
USER: genes 0 Translation |==|  0.65319 0.55154 0.33327
USER: genes 1 Rotation |==|  0.02613 0.49362 0.39968 0.62388
USER: genes 2 Torsion [C]-CA--N-[C] |==|  0.19313
USER: genes 3 Torsion [N]-C--CA-[N] |==|  0.13452
USER: genes 4 Torsion [C]-CA--N-[C] |==|  0.77567
USER: genes 5 Torsion [N]-C--CA-[N] |==|  0.91430
USER: genes 6 Torsion [C]-CA--CB-[CG] |==|  0.06252
USER: genes 7 Torsion [CA]-CB--CG-[CD1] |==|  0.20361
USER: genes 8 Torsion [C]-CA--N-[C] |==|  0.79073
USER: genes 9 Torsion [N]-C--CA-[N] |==|  0.23013
USER: genes 10 Torsion [N]-CA--C-[N] |==|  0.98343
USER: genes 11 Torsion [C]-N--CA-[C] |==|  0.67143
USER: genes 12 Torsion [N]-CA--C-[N] |==|  0.34118
USER: genes 13 Torsion [C]-N--CA-[C] |==|  0.56912
USER: genes 14 Torsion [N]-CA--C-[O] |==|  0.00720
USER: genes 15 Torsion [N]-CA--CB-[CG] |==|  0.73369
USER: genes 16 Torsion [CA]-CB--CG-[OD1] |==|  0.86105
USER: genes 17 Torsion [N]-CA--CB-[CG] |==|  0.83479
USER: genes 18 Torsion [CA]-CB--CG-[CD2] |==|  0.37481
USER: genes 19 Torsion [N]-CA--CB-[CG] |==|  0.53262
USER: genes 20 Torsion [CA]-CB--CG-[CD2] |==|  0.71503
ROOT
ATOM      1  CA  LEU C   5     -12.059   9.075  19.772  1.00 25.10 LIG 0.18  C 
ENDROOT
BRANCH 1 2
ATOM      2  N   LEU C   5     -13.086  10.155  19.489  1.00 25.35 LIG-0.35  N 
ATOM      3  C   GLY C   4     -13.179  11.244  20.306  1.00 24.95 LIG 0.24  C 
ATOM      4 O    GLY C   4     -12.446  11.349  21.297  1.00 25.89 LIG-0.27  OA
ATOM      5 H    LEU C   5     -13.579  10.019  18.797  1.00 25.35 LIG 0.16  HD
BRANCH 3 6
ATOM      6  CA  GLY C   4     -14.158  12.324  20.000  1.00 25.42 LIG 0.23  C 
BRANCH 6 7
ATOM      7  N   GLY C   4     -15.534  11.932  19.695  1.00 25.00 LIG-0.35  N 
ATOM      8  C   PHE C   3     -15.921  11.487  18.473  1.00 25.70 LIG 0.24  C 
ATOM      9 O    PHE C   3     -15.122  11.331  17.530  1.00 20.17 LIG-0.27  OA
ATOM     10 H    GLY C   4     -16.072  12.010  20.361  1.00 25.00 LIG 0.16  HD
BRANCH 8 11
ATOM     11  CA  PHE C   3     -17.372  11.027  18.345  1.00 26.56 LIG 0.18  C 
BRANCH 11 12
ATOM     12  CB  PHE C   3     -18.222  12.216  17.943  1.00 27.24 LIG 0.07  C 
BRANCH 12 13
ATOM     13  CG  PHE C   3     -17.461  13.288  17.290  1.00 26.12 LIG-0.06  A 
ATOM     14  CD1 PHE C   3     -17.014  13.110  15.991  1.00 28.42 LIG 0.01  A 
ATOM     15  CE1 PHE C   3     -16.315  14.123  15.321  1.00 27.55 LIG 0.00  A 
ATOM     16  CZ  PHE C   3     -15.957  15.319  16.023  1.00 28.40 LIG 0.00  A 
ATOM     17  CE2 PHE C   3     -16.409  15.507  17.342  1.00 22.84 LIG 0.00  A 
ATOM     18  CD2 PHE C   3     -17.119  14.467  17.991  1.00 25.80 LIG 0.01  A 
ENDBRANCH 12 13
ENDBRANCH 11 12
BRANCH 11 19
ATOM     19  N   PHE C   3     -17.852  10.472  19.618  1.00 29.45 LIG-0.35  N 
ATOM     20 H    PHE C   3     -18.384  10.983  20.062  1.00 29.45 LIG 0.16  HD
ATOM     21  C   GLY C   2     -17.463   9.259  20.010  1.00 31.80 LIG 0.25  C 
ATOM     22 O    GLY C   2     -16.568   8.607  19.411  1.00 33.21 LIG-0.27  OA
BRANCH 21 23
ATOM     23  CA  GLY C   2     -18.093   8.744  21.303  1.00 32.25 LIG 0.47  C 
ATOM     24  N   GLY C   2     -19.445   8.134  21.083  1.00 32.96 LIG 0.61  N 
ENDBRANCH 21 23
ENDBRANCH 11 19
ENDBRANCH 8 11
ENDBRANCH 6 7
ENDBRANCH 3 6
ENDBRANCH 1 2
BRANCH 1 25
ATOM     25  C   LEU C   5     -12.316   8.220  21.020  1.00 23.49 LIG 0.24  C 
ATOM     26  N   PHE C   6     -13.338   8.576  21.804  1.00 22.96 LIG-0.35  N 
ATOM     27 H    PHE C   6     -13.876   9.226  21.634  1.00 22.96 LIG 0.16  HD
ATOM     28 O    LEU C   5     -11.656   7.171  21.203  1.00 25.98 LIG-0.27  OA
BRANCH 26 29
ATOM     29  CA  PHE C   6     -13.622   7.847  23.065  1.00 22.19 LIG 0.18  C 
BRANCH 29 30
ATOM     30  C   PHE C   6     -14.980   7.156  23.145  1.00 17.26 LIG 0.24  C 
ATOM     31 O    PHE C   6     -16.012   7.747  23.027  1.00 22.18 LIG-0.27  OA
ATOM     32  N   ASP C   7     -14.955   5.839  23.382  1.00 22.18 LIG-0.35  N 
ATOM     33 H    ASP C   7     -14.234   5.379  23.472  1.00 22.18 LIG 0.16  HD
BRANCH 32 34
ATOM     34  CA  ASP C   7     -16.196   5.060  23.509  1.00 22.70 LIG 0.17  C 
BRANCH 34 35
ATOM     35  C   ASP C   7     -16.054   3.802  24.324  1.00 27.36 LIG 0.22  C 
ATOM     36 O    ASP C   7     -14.970   3.499  24.876  1.00 28.20 LIG-0.29  OA
ENDBRANCH 34 35
BRANCH 34 37
ATOM     37  CB  ASP C   7     -16.690   4.667  22.110  1.00 23.18 LIG 0.15  C 
BRANCH 37 38
ATOM     38  CG  ASP C   7     -17.732   5.612  21.555  1.00 26.80 LIG 0.17  C 
ATOM     39 OD2  ASP C   7     -17.524   6.094  20.398  1.00 27.82 LIG-0.65  OA
ATOM     40 OD1  ASP C   7     -18.728   5.896  22.308  1.00 32.15 LIG-0.65  OA
ENDBRANCH 37 38
ENDBRANCH 34 37
ENDBRANCH 32 34
ENDBRANCH 29 30
BRANCH 29 41
ATOM     41  CB  PHE C   6     -13.362   8.733  24.308  1.00 21.19 LIG 0.07  C 
BRANCH 41 42
ATOM     42  CG  PHE C   6     -11.961   9.221  24.406  1.00 25.43 LIG-0.06  A 
ATOM     43  CD2 PHE C   6     -11.664  10.555  24.722  1.00 26.31 LIG 0.01  A 
ATOM     44  CE2 PHE C   6     -10.338  10.953  24.868  1.00 29.51 LIG 0.00  A 
ATOM     45  CZ  PHE C   6      -9.286  10.064  24.614  1.00 25.82 LIG 0.00  A 
ATOM     46  CE1 PHE C   6      -9.569   8.768  24.274  1.00 26.71 LIG 0.00  A 
ATOM     47  CD1 PHE C   6     -10.919   8.352  24.150  1.00 21.41 LIG 0.01  A 
ENDBRANCH 41 42
ENDBRANCH 29 41
ENDBRANCH 26 29
ENDBRANCH 1 25
BRANCH 1 48
ATOM     48  CB  LEU C   5     -10.548   9.521  19.790  1.00 26.63 LIG 0.04  C 
BRANCH 48 49
ATOM     49  CG  LEU C   5      -9.513   8.445  19.797  1.00 31.82 LIG-0.02  C 
ATOM     50  CD2 LEU C   5      -8.980   8.342  21.273  1.00 33.90 LIG 0.01  C 
ATOM     51  CD1 LEU C   5      -8.384   8.704  18.792  1.00 30.04 LIG 0.01  C 
ENDBRANCH 48 49
ENDBRANCH 1 48
TORSDOF 19
ENDMDL
MODEL 11
USER: ADFR SOLUTION from run 56
USER: SCORE 14.823404 LL:  -3.849 LR: -12.198 RR:   0.000 FEB:  -6.530
USER: RMSD 4.904592
USER: SEED 55
USER: STATUS no improvement in best in 19 clusters for 5 generations
USER: GENES 21
USER: genes 0 Translation |==|  0.66512 0.55392 0.39161
USER: genes 1 Rotation |==|  0.75686 0.69414 0.41591 0.87318
USER: genes 2 Torsion [C]-CA--N-[C] |==|  0.76650
USER: genes 3 Torsion [N]-C--CA-[N] |==|  0.37533
USER: genes 4 Torsion [C]-CA--N-[C] |==|  0.25472
USER: genes 5 Torsion [N]-C--CA-[N] |==|  0.45366
USER: genes 6 Torsion [C]-CA--CB-[CG] |==|  0.20952
USER: genes 7 Torsion [CA]-CB--CG-[CD1] |==|  0.18286
USER: genes 8 Torsion [C]-CA--N-[C] |==|  0.79745
USER: genes 9 Torsion [N]-C--CA-[N] |==|  0.48667
USER: genes 10 Torsion [N]-CA--C-[N] |==|  0.17241
USER: genes 11 Torsion [C]-N--CA-[C] |==|  0.62003
USER: genes 12 Torsion [N]-CA--C-[N] |==|  0.83460
USER: genes 13 Torsion [C]-N--CA-[C] |==|  0.57501
USER: genes 14 Torsion [N]-CA--C-[O] |==|  0.65336
USER: genes 15 Torsion [N]-CA--CB-[CG] |==|  0.81543
USER: genes 16 Torsion [CA]-CB--CG-[OD1] |==|  0.25402
USER: genes 17 Torsion [N]-CA--CB-[CG] |==|  0.98298
USER: genes 18 Torsion [CA]-CB--CG-[CD2] |==|  0.76023
USER: genes 19 Torsion [N]-CA--CB-[CG] |==|  0.68670
USER: genes 20 Torsion [CA]-CB--CG-[CD2] |==|  0.98221
ROOT
ATOM      1  CA  LEU C   5     -11.844   9.127  20.822  1.00 25.10 LIG 0.18  C 
ENDROOT
BRANCH 1 2
ATOM      2  N   LEU C   5     -13.041   8.249  21.136  1.00 25.35 LIG-0.35  N 
ATOM      3  C   GLY C   4     -13.599   8.272  22.381  1.00 24.95 LIG 0.24  C 
ATOM      4 O    GLY C   4     -13.121   8.985  23.271  1.00 25.89 LIG-0.27  OA
ATOM      5 H    LEU C   5     -13.318   7.762  20.484  1.00 25.35 LIG 0.16  HD
BRANCH 3 6
ATOM      6  CA  GLY C   4     -14.802   7.443  22.673  1.00 25.42 LIG 0.23  C 
BRANCH 6 7
ATOM      7  N   GLY C   4     -14.820   6.682  23.923  1.00 25.00 LIG-0.35  N 
ATOM      8  C   PHE C   3     -15.341   7.171  25.076  1.00 25.70 LIG 0.24  C 
ATOM      9 O    PHE C   3     -15.888   8.288  25.147  1.00 20.17 LIG-0.27  OA
ATOM     10 H    GLY C   4     -14.472   5.899  23.857  1.00 25.00 LIG 0.16  HD
BRANCH 8 11
ATOM     11  CA  PHE C   3     -15.370   6.215  26.268  1.00 26.56 LIG 0.18  C 
BRANCH 11 12
ATOM     12  CB  PHE C   3     -16.497   5.223  26.063  1.00 27.24 LIG 0.07  C 
BRANCH 12 13
ATOM     13  CG  PHE C   3     -16.195   4.187  25.068  1.00 26.12 LIG-0.06  A 
ATOM     14  CD1 PHE C   3     -15.190   3.269  25.327  1.00 28.42 LIG 0.01  A 
ATOM     15  CE1 PHE C   3     -14.895   2.243  24.419  1.00 27.55 LIG 0.00  A 
ATOM     16  CZ  PHE C   3     -15.562   2.207  23.151  1.00 28.40 LIG 0.00  A 
ATOM     17  CE2 PHE C   3     -16.584   3.136  22.883  1.00 22.84 LIG 0.00  A 
ATOM     18  CD2 PHE C   3     -16.864   4.157  23.824  1.00 25.80 LIG 0.01  A 
ENDBRANCH 12 13
ENDBRANCH 11 12
BRANCH 11 19
ATOM     19  N   PHE C   3     -15.573   6.957  27.520  1.00 29.45 LIG-0.35  N 
ATOM     20 H    PHE C   3     -16.354   6.872  27.873  1.00 29.45 LIG 0.16  HD
ATOM     21  C   GLY C   2     -14.587   7.693  28.031  1.00 31.80 LIG 0.25  C 
ATOM     22 O    GLY C   2     -13.514   7.915  27.409  1.00 33.21 LIG-0.27  OA
BRANCH 21 23
ATOM     23  CA  GLY C   2     -14.876   8.348  29.381  1.00 32.25 LIG 0.47  C 
ATOM     24  N   GLY C   2     -13.684   9.062  29.943  1.00 32.96 LIG 0.61  N 
ENDBRANCH 21 23
ENDBRANCH 11 19
ENDBRANCH 8 11
ENDBRANCH 6 7
ENDBRANCH 3 6
ENDBRANCH 1 2
BRANCH 1 25
ATOM     25  C   LEU C   5     -12.164  10.573  20.421  1.00 23.49 LIG 0.24  C 
ATOM     26  N   PHE C   6     -12.783  11.335  21.327  1.00 22.96 LIG-0.35  N 
ATOM     27 H    PHE C   6     -12.979  11.078  22.124  1.00 22.96 LIG 0.16  HD
ATOM     28 O    LEU C   5     -11.743  11.024  19.331  1.00 25.98 LIG-0.27  OA
BRANCH 26 29
ATOM     29  CA  PHE C   6     -13.190  12.726  21.005  1.00 22.19 LIG 0.18  C 
BRANCH 29 30
ATOM     30  C   PHE C   6     -12.918  13.768  22.085  1.00 17.26 LIG 0.24  C 
ATOM     31 O    PHE C   6     -12.204  14.710  21.907  1.00 22.18 LIG-0.27  OA
ATOM     32  N   ASP C   7     -13.511  13.558  23.266  1.00 22.18 LIG-0.35  N 
ATOM     33 H    ASP C   7     -14.031  12.894  23.433  1.00 22.18 LIG 0.16  HD
BRANCH 32 34
ATOM     34  CA  ASP C   7     -13.308  14.473  24.399  1.00 22.70 LIG 0.17  C 
BRANCH 34 35
ATOM     35  C   ASP C   7     -13.471  13.829  25.750  1.00 27.36 LIG 0.22  C 
ATOM     36 O    ASP C   7     -14.275  14.283  26.599  1.00 28.20 LIG-0.29  OA
ENDBRANCH 34 35
BRANCH 34 37
ATOM     37  CB  ASP C   7     -14.314  15.628  24.300  1.00 23.18 LIG 0.15  C 
BRANCH 37 38
ATOM     38  CG  ASP C   7     -14.079  16.526  23.107  1.00 26.80 LIG 0.17  C 
ATOM     39 OD2  ASP C   7     -13.318  17.531  23.274  1.00 27.82 LIG-0.65  OA
ATOM     40 OD1  ASP C   7     -14.697  16.238  22.023  1.00 32.15 LIG-0.65  OA
ENDBRANCH 37 38
ENDBRANCH 34 37
ENDBRANCH 32 34
ENDBRANCH 29 30
BRANCH 29 41
ATOM     41  CB  PHE C   6     -14.655  12.792  20.508  1.00 21.19 LIG 0.07  C 
BRANCH 41 42
ATOM     42  CG  PHE C   6     -15.280  11.455  20.324  1.00 25.43 LIG-0.06  A 
ATOM     43  CD2 PHE C   6     -15.144  10.735  19.128  1.00 26.31 LIG 0.01  A 
ATOM     44  CE2 PHE C   6     -15.690   9.458  19.023  1.00 29.51 LIG 0.00  A 
ATOM     45  CZ  PHE C   6     -16.456   8.915  20.062  1.00 25.82 LIG 0.00  A 
ATOM     46  CE1 PHE C   6     -16.619   9.626  21.221  1.00 26.71 LIG 0.00  A 
ATOM     47  CD1 PHE C   6     -16.042  10.916  21.342  1.00 21.41 LIG 0.01  A 
ENDBRANCH 41 42
ENDBRANCH 29 41
ENDBRANCH 26 29
ENDBRANCH 1 25
BRANCH 1 48
ATOM     48  CB  LEU C   5     -10.798   8.556  19.792  1.00 26.63 LIG 0.04  C 
BRANCH 48 49
ATOM     49  CG  LEU C   5      -9.439   8.215  20.308  1.00 31.82 LIG-0.02  C 
ATOM     50  CD2 LEU C   5      -9.389   8.701  21.802  1.00 33.90 LIG 0.01  C 
ATOM     51  CD1 LEU C   5      -8.315   8.826  19.463  1.00 30.04 LIG 0.01  C 
ENDBRANCH 48 49
ENDBRANCH 1 48
TORSDOF 19
ENDMDL
MODEL 12
USER: ADFR SOLUTION from run 168
USER: SCORE 15.484287 LL:  -4.656 LR: -12.182 RR:   0.000 FEB:  -6.515
USER: RMSD 2.813597
USER: SEED 167
USER: STATUS no improvement in best in 15 clusters for 5 generations
USER: GENES 21
USER: genes 0 Translation |==|  0.63531 0.64750 0.57419
USER: genes 1 Rotation |==|  0.54303 0.65271 0.44545 0.97101
USER: genes 2 Torsion [C]-CA--N-[C] |==|  0.19955
USER: genes 3 Torsion [N]-C--CA-[N] |==|  0.49131
USER: genes 4 Torsion [C]-CA--N-[C] |==|  0.81667
USER: genes 5 Torsion [N]-C--CA-[N] |==|  0.11246
USER: genes 6 Torsion [C]-CA--CB-[CG] |==|  0.41901
USER: genes 7 Torsion [CA]-CB--CG-[CD1] |==|  0.61300
USER: genes 8 Torsion [C]-CA--N-[C] |==|  0.64924
USER: genes 9 Torsion [N]-C--CA-[N] |==|  0.38500
USER: genes 10 Torsion [N]-CA--C-[N] |==|  0.80181
USER: genes 11 Torsion [C]-N--CA-[C] |==|  0.76326
USER: genes 12 Torsion [N]-CA--C-[N] |==|  0.95471
USER: genes 13 Torsion [C]-N--CA-[C] |==|  0.67651
USER: genes 14 Torsion [N]-CA--C-[O] |==|  0.04450
USER: genes 15 Torsion [N]-CA--CB-[CG] |==|  0.78158
USER: genes 16 Torsion [CA]-CB--CG-[OD1] |==|  0.91493
USER: genes 17 Torsion [N]-CA--CB-[CG] |==|  0.95775
USER: genes 18 Torsion [CA]-CB--CG-[CD2] |==|  0.24818
USER: genes 19 Torsion [N]-CA--CB-[CG] |==|  0.95833
USER: genes 20 Torsion [CA]-CB--CG-[CD2] |==|  0.71932
ROOT
ATOM      1  CA  LEU C   5     -12.380  11.162  24.108  1.00 25.10 LIG 0.18  C 
ENDROOT
BRANCH 1 2
ATOM      2  N   LEU C   5     -13.323  10.348  24.975  1.00 25.35 LIG-0.35  N 
ATOM      3  C   GLY C   4     -13.610   9.055  24.649  1.00 24.95 LIG 0.24  C 
ATOM      4 O    GLY C   4     -13.127   8.542  23.633  1.00 25.89 LIG-0.27  OA
ATOM      5 H    LEU C   5     -13.642  10.763  25.658  1.00 25.35 LIG 0.16  HD
BRANCH 3 6
ATOM      6  CA  GLY C   4     -14.500   8.245  25.527  1.00 25.42 LIG 0.23  C 
BRANCH 6 7
ATOM      7  N   GLY C   4     -14.832   6.887  25.096  1.00 25.00 LIG-0.35  N 
ATOM      8  C   PHE C   3     -15.573   6.624  23.992  1.00 25.70 LIG 0.24  C 
ATOM      9 O    PHE C   3     -15.988   7.519  23.230  1.00 20.17 LIG-0.27  OA
ATOM     10 H    GLY C   4     -14.513   6.273  25.607  1.00 25.00 LIG 0.16  HD
BRANCH 8 11
ATOM     11  CA  PHE C   3     -15.749   5.152  23.625  1.00 26.56 LIG 0.18  C 
BRANCH 11 12
ATOM     12  CB  PHE C   3     -16.938   5.025  22.693  1.00 27.24 LIG 0.07  C 
BRANCH 12 13
ATOM     13  CG  PHE C   3     -16.837   3.895  21.761  1.00 26.12 LIG-0.06  A 
ATOM     14  CD1 PHE C   3     -17.240   4.061  20.446  1.00 28.42 LIG 0.01  A 
ATOM     15  CE1 PHE C   3     -17.126   3.018  19.517  1.00 27.55 LIG 0.00  A 
ATOM     16  CZ  PHE C   3     -16.693   1.725  19.955  1.00 28.40 LIG 0.00  A 
ATOM     17  CE2 PHE C   3     -16.280   1.551  21.289  1.00 22.84 LIG 0.00  A 
ATOM     18  CD2 PHE C   3     -16.400   2.626  22.203  1.00 25.80 LIG 0.01  A 
ENDBRANCH 12 13
ENDBRANCH 11 12
BRANCH 11 19
ATOM     19  N   PHE C   3     -15.967   4.341  24.831  1.00 29.45 LIG-0.35  N 
ATOM     20 H    PHE C   3     -16.609   4.605  25.338  1.00 29.45 LIG 0.16  HD
ATOM     21  C   GLY C   2     -15.195   3.281  25.074  1.00 31.80 LIG 0.25  C 
ATOM     22 O    GLY C   2     -14.171   3.017  24.392  1.00 33.21 LIG-0.27  OA
BRANCH 21 23
ATOM     23  CA  GLY C   2     -15.566   2.459  26.307  1.00 32.25 LIG 0.47  C 
ATOM     24  N   GLY C   2     -15.469   0.982  26.066  1.00 32.96 LIG 0.61  N 
ENDBRANCH 21 23
ENDBRANCH 11 19
ENDBRANCH 8 11
ENDBRANCH 6 7
ENDBRANCH 3 6
ENDBRANCH 1 2
BRANCH 1 25
ATOM     25  C   LEU C   5     -12.933  11.590  22.742  1.00 23.49 LIG 0.24  C 
ATOM     26  N   PHE C   6     -13.083  10.637  21.819  1.00 22.96 LIG-0.35  N 
ATOM     27 H    PHE C   6     -12.925   9.802  21.953  1.00 22.96 LIG 0.16  HD
ATOM     28 O    LEU C   5     -13.329  12.766  22.572  1.00 25.98 LIG-0.27  OA
BRANCH 26 29
ATOM     29  CA  PHE C   6     -13.550  10.968  20.449  1.00 22.19 LIG 0.18  C 
BRANCH 29 30
ATOM     30  C   PHE C   6     -15.063  11.045  20.259  1.00 17.26 LIG 0.24  C 
ATOM     31 O    PHE C   6     -15.568  11.586  19.321  1.00 22.18 LIG-0.27  OA
ATOM     32  N   ASP C   7     -15.804  10.489  21.224  1.00 22.18 LIG-0.35  N 
ATOM     33 H    ASP C   7     -15.478  10.091  21.913  1.00 22.18 LIG 0.16  HD
BRANCH 32 34
ATOM     34  CA  ASP C   7     -17.273  10.520  21.175  1.00 22.70 LIG 0.17  C 
BRANCH 34 35
ATOM     35  C   ASP C   7     -17.912  11.292  22.299  1.00 27.36 LIG 0.22  C 
ATOM     36 O    ASP C   7     -17.249  12.087  23.007  1.00 28.20 LIG-0.29  OA
ENDBRANCH 34 35
BRANCH 34 37
ATOM     37  CB  ASP C   7     -17.810   9.083  21.221  1.00 23.18 LIG 0.15  C 
BRANCH 37 38
ATOM     38  CG  ASP C   7     -17.718   8.367  19.893  1.00 26.80 LIG 0.17  C 
ATOM     39 OD2  ASP C   7     -17.509   7.114  19.919  1.00 27.82 LIG-0.65  OA
ATOM     40 OD1  ASP C   7     -17.813   9.079  18.833  1.00 32.15 LIG-0.65  OA
ENDBRANCH 37 38
ENDBRANCH 34 37
ENDBRANCH 32 34
ENDBRANCH 29 30
BRANCH 29 41
ATOM     41  CB  PHE C   6     -12.891  10.057  19.385  1.00 21.19 LIG 0.07  C 
BRANCH 41 42
ATOM     42  CG  PHE C   6     -11.703   9.319  19.890  1.00 25.43 LIG-0.06  A 
ATOM     43  CD2 PHE C   6     -11.818   8.056  20.490  1.00 26.31 LIG 0.01  A 
ATOM     44  CE2 PHE C   6     -10.673   7.372  20.888  1.00 29.51 LIG 0.00  A 
ATOM     45  CZ  PHE C   6      -9.408   7.964  20.785  1.00 25.82 LIG 0.00  A 
ATOM     46  CE1 PHE C   6      -9.291   9.209  20.229  1.00 26.71 LIG 0.00  A 
ATOM     47  CD1 PHE C   6     -10.453   9.898  19.798  1.00 21.41 LIG 0.01  A 
ENDBRANCH 41 42
ENDBRANCH 29 41
ENDBRANCH 26 29
ENDBRANCH 1 25
BRANCH 1 48
ATOM     48  CB  LEU C   5     -10.936  10.575  23.887  1.00 26.63 LIG 0.04  C 
BRANCH 48 49
ATOM     49  CG  LEU C   5     -10.493   9.477  24.797  1.00 31.82 LIG-0.02  C 
ATOM     50  CD2 LEU C   5      -9.555  10.134  25.874  1.00 33.90 LIG 0.01  C 
ATOM     51  CD1 LEU C   5      -9.799   8.332  24.048  1.00 30.04 LIG 0.01  C 
ENDBRANCH 48 49
ENDBRANCH 1 48
TORSDOF 19
ENDMDL
MODEL 13
USER: ADFR SOLUTION from run 145
USER: SCORE 15.302104 LL:  -4.783 LR: -12.136 RR:   0.000 FEB:  -6.469
USER: RMSD 7.126099
USER: SEED 144
USER: STATUS no improvement in best in 3 clusters for 5 generations
USER: GENES 21
USER: genes 0 Translation |==|  0.66307 0.51870 0.34147
USER: genes 1 Rotation |==|  0.03007 0.41081 0.35905 0.53659
USER: genes 2 Torsion [C]-CA--N-[C] |==|  0.22007
USER: genes 3 Torsion [N]-C--CA-[N] |==|  0.28343
USER: genes 4 Torsion [C]-CA--N-[C] |==|  0.22833
USER: genes 5 Torsion [N]-C--CA-[N] |==|  0.36991
USER: genes 6 Torsion [C]-CA--CB-[CG] |==|  0.10461
USER: genes 7 Torsion [CA]-CB--CG-[CD1] |==|  0.20025
USER: genes 8 Torsion [C]-CA--N-[C] |==|  0.82843
USER: genes 9 Torsion [N]-C--CA-[N] |==|  0.58162
USER: genes 10 Torsion [N]-CA--C-[N] |==|  0.93333
USER: genes 11 Torsion [C]-N--CA-[C] |==|  0.66566
USER: genes 12 Torsion [N]-CA--C-[N] |==|  0.98945
USER: genes 13 Torsion [C]-N--CA-[C] |==|  0.71169
USER: genes 14 Torsion [N]-CA--C-[O] |==|  0.85088
USER: genes 15 Torsion [N]-CA--CB-[CG] |==|  0.19060
USER: genes 16 Torsion [CA]-CB--CG-[OD1] |==|  0.25863
USER: genes 17 Torsion [N]-CA--CB-[CG] |==|  0.80848
USER: genes 18 Torsion [CA]-CB--CG-[CD2] |==|  0.40905
USER: genes 19 Torsion [N]-CA--CB-[CG] |==|  0.59391
USER: genes 20 Torsion [CA]-CB--CG-[CD2] |==|  0.72344
ROOT
ATOM      1  CA  LEU C   5     -11.881   8.361  19.919  1.00 25.10 LIG 0.18  C 
ENDROOT
BRANCH 1 2
ATOM      2  N   LEU C   5     -12.940   8.984  19.029  1.00 25.35 LIG-0.35  N 
ATOM      3  C   GLY C   4     -13.273  10.298  19.179  1.00 24.95 LIG 0.24  C 
ATOM      4 O    GLY C   4     -12.737  10.987  20.054  1.00 25.89 LIG-0.27  OA
ATOM      5 H    LEU C   5     -13.290   8.452  18.451  1.00 25.35 LIG 0.16  HD
BRANCH 3 6
ATOM      6  CA  GLY C   4     -14.281  10.918  18.273  1.00 25.42 LIG 0.23  C 
BRANCH 6 7
ATOM      7  N   GLY C   4     -15.636  11.113  18.791  1.00 25.00 LIG-0.35  N 
ATOM      8  C   PHE C   3     -15.986  12.171  19.563  1.00 25.70 LIG 0.24  C 
ATOM      9 O    PHE C   3     -15.191  13.086  19.851  1.00 20.17 LIG-0.27  OA
ATOM     10 H    GLY C   4     -16.188  10.495  18.559  1.00 25.00 LIG 0.16  HD
BRANCH 8 11
ATOM     11  CA  PHE C   3     -17.462  12.278  19.942  1.00 26.56 LIG 0.18  C 
BRANCH 11 12
ATOM     12  CB  PHE C   3     -18.088  13.394  19.130  1.00 27.24 LIG 0.07  C 
BRANCH 12 13
ATOM     13  CG  PHE C   3     -17.585  13.474  17.753  1.00 26.12 LIG-0.06  A 
ATOM     14  CD1 PHE C   3     -17.957  12.505  16.836  1.00 28.42 LIG 0.01  A 
ATOM     15  CE1 PHE C   3     -17.526  12.565  15.504  1.00 27.55 LIG 0.00  A 
ATOM     16  CZ  PHE C   3     -16.594  13.579  15.107  1.00 28.40 LIG 0.00  A 
ATOM     17  CE2 PHE C   3     -16.213  14.567  16.033  1.00 22.84 LIG 0.00  A 
ATOM     18  CD2 PHE C   3     -16.671  14.483  17.371  1.00 25.80 LIG 0.01  A 
ENDBRANCH 12 13
ENDBRANCH 11 12
BRANCH 11 19
ATOM     19  N   PHE C   3     -17.609  12.556  21.377  1.00 29.45 LIG-0.35  N 
ATOM     20 H    PHE C   3     -17.997  13.301  21.567  1.00 29.45 LIG 0.16  HD
ATOM     21  C   GLY C   2     -17.158  11.685  22.278  1.00 31.80 LIG 0.25  C 
ATOM     22 O    GLY C   2     -16.462  10.684  21.964  1.00 33.21 LIG-0.27  OA
BRANCH 21 23
ATOM     23  CA  GLY C   2     -17.443  12.031  23.739  1.00 32.25 LIG 0.47  C 
ATOM     24  N   GLY C   2     -16.402  11.493  24.673  1.00 32.96 LIG 0.61  N 
ENDBRANCH 21 23
ENDBRANCH 11 19
ENDBRANCH 8 11
ENDBRANCH 6 7
ENDBRANCH 3 6
ENDBRANCH 1 2
BRANCH 1 25
ATOM     25  C   LEU C   5     -12.342   7.968  21.330  1.00 23.49 LIG 0.24  C 
ATOM     26  N   PHE C   6     -13.402   8.611  21.827  1.00 22.96 LIG-0.35  N 
ATOM     27 H    PHE C   6     -13.858   9.199  21.396  1.00 22.96 LIG 0.16  HD
ATOM     28 O    LEU C   5     -11.802   7.000  21.913  1.00 25.98 LIG-0.27  OA
BRANCH 26 29
ATOM     29  CA  PHE C   6     -13.879   8.343  23.207  1.00 22.19 LIG 0.18  C 
BRANCH 29 30
ATOM     30  C   PHE C   6     -15.313   7.834  23.330  1.00 17.26 LIG 0.24  C 
ATOM     31 O    PHE C   6     -15.790   7.498  24.373  1.00 22.18 LIG-0.27  OA
ATOM     32  N   ASP C   7     -16.009   7.759  22.190  1.00 22.18 LIG-0.35  N 
ATOM     33 H    ASP C   7     -15.701   7.992  21.421  1.00 22.18 LIG 0.16  HD
BRANCH 32 34
ATOM     34  CA  ASP C   7     -17.392   7.260  22.168  1.00 22.70 LIG 0.17  C 
BRANCH 34 35
ATOM     35  C   ASP C   7     -17.533   5.857  21.641  1.00 27.36 LIG 0.22  C 
ATOM     36 O    ASP C   7     -17.067   5.528  20.523  1.00 28.20 LIG-0.29  OA
ENDBRANCH 34 35
BRANCH 34 37
ATOM     37  CB  ASP C   7     -18.248   8.184  21.293  1.00 23.18 LIG 0.15  C 
BRANCH 37 38
ATOM     38  CG  ASP C   7     -17.899   8.110  19.824  1.00 26.80 LIG 0.17  C 
ATOM     39 OD2  ASP C   7     -16.998   8.899  19.398  1.00 27.82 LIG-0.65  OA
ATOM     40 OD1  ASP C   7     -18.565   7.289  19.101  1.00 32.15 LIG-0.65  OA
ENDBRANCH 37 38
ENDBRANCH 34 37
ENDBRANCH 32 34
ENDBRANCH 29 30
BRANCH 29 41
ATOM     41  CB  PHE C   6     -13.622   9.547  24.144  1.00 21.19 LIG 0.07  C 
BRANCH 41 42
ATOM     42  CG  PHE C   6     -12.181   9.777  24.433  1.00 25.43 LIG-0.06  A 
ATOM     43  CD2 PHE C   6     -11.667  11.065  24.642  1.00 26.31 LIG 0.01  A 
ATOM     44  CE2 PHE C   6     -10.324  11.229  24.975  1.00 29.51 LIG 0.00  A 
ATOM     45  CZ  PHE C   6      -9.453  10.132  25.015  1.00 25.82 LIG 0.00  A 
ATOM     46  CE1 PHE C   6      -9.943   8.875  24.781  1.00 26.71 LIG 0.00  A 
ATOM     47  CD1 PHE C   6     -11.315   8.702  24.468  1.00 21.41 LIG 0.01  A 
ENDBRANCH 41 42
ENDBRANCH 29 41
ENDBRANCH 26 29
ENDBRANCH 1 25
BRANCH 1 48
ATOM     48  CB  LEU C   5     -10.518   9.140  20.052  1.00 26.63 LIG 0.04  C 
BRANCH 48 49
ATOM     49  CG  LEU C   5      -9.274   8.329  20.208  1.00 31.82 LIG-0.02  C 
ATOM     50  CD2 LEU C   5      -8.925   8.328  21.741  1.00 33.90 LIG 0.01  C 
ATOM     51  CD1 LEU C   5      -8.115   8.854  19.352  1.00 30.04 LIG 0.01  C 
ENDBRANCH 48 49
ENDBRANCH 1 48
TORSDOF 19
ENDMDL
MODEL 14
USER: ADFR SOLUTION from run 147
USER: SCORE 15.762221 LL:  -4.155 LR: -12.113 RR:   0.000 FEB:  -6.445
USER: RMSD 2.669837
USER: SEED 146
USER: STATUS no improvement in best in 11 clusters for 5 generations
USER: GENES 21
USER: genes 0 Translation |==|  0.59464 0.63127 0.54791
USER: genes 1 Rotation |==|  0.41938 0.58422 0.51840 0.98587
USER: genes 2 Torsion [C]-CA--N-[C] |==|  0.58140
USER: genes 3 Torsion [N]-C--CA-[N] |==|  0.99107
USER: genes 4 Torsion [C]-CA--N-[C] |==|  0.22879
USER: genes 5 Torsion [N]-C--CA-[N] |==|  0.91251
USER: genes 6 Torsion [C]-CA--CB-[CG] |==|  0.44366
USER: genes 7 Torsion [CA]-CB--CG-[CD1] |==|  0.84953
USER: genes 8 Torsion [C]-CA--N-[C] |==|  0.77826
USER: genes 9 Torsion [N]-C--CA-[N] |==|  0.21971
USER: genes 10 Torsion [N]-CA--C-[N] |==|  0.51111
USER: genes 11 Torsion [C]-N--CA-[C] |==|  0.16932
USER: genes 12 Torsion [N]-CA--C-[N] |==|  0.08357
USER: genes 13 Torsion [C]-N--CA-[C] |==|  0.82681
USER: genes 14 Torsion [N]-CA--C-[O] |==|  0.15940
USER: genes 15 Torsion [N]-CA--CB-[CG] |==|  0.00049
USER: genes 16 Torsion [CA]-CB--CG-[OD1] |==|  0.78467
USER: genes 17 Torsion [N]-CA--CB-[CG] |==|  0.93243
USER: genes 18 Torsion [CA]-CB--CG-[CD2] |==|  0.81384
USER: genes 19 Torsion [N]-CA--CB-[CG] |==|  0.99116
USER: genes 20 Torsion [CA]-CB--CG-[CD2] |==|  0.52191
ROOT
ATOM      1  CA  LEU C   5     -13.112  10.809  23.635  1.00 25.10 LIG 0.18  C 
ENDROOT
BRANCH 1 2
ATOM      2  N   LEU C   5     -13.950  10.014  24.620  1.00 25.35 LIG-0.35  N 
ATOM      3  C   GLY C   4     -14.326  10.571  25.806  1.00 24.95 LIG 0.24  C 
ATOM      4 O    GLY C   4     -13.969  11.717  26.103  1.00 25.89 LIG-0.27  OA
ATOM      5 H    LEU C   5     -14.152   9.217  24.367  1.00 25.35 LIG 0.16  HD
BRANCH 3 6
ATOM      6  CA  GLY C   4     -15.186   9.803  26.751  1.00 25.42 LIG 0.23  C 
BRANCH 6 7
ATOM      7  N   GLY C   4     -15.657   8.485  26.327  1.00 25.00 LIG-0.35  N 
ATOM      8  C   PHE C   3     -14.904   7.363  26.433  1.00 25.70 LIG 0.24  C 
ATOM      9 O    PHE C   3     -13.768   7.360  26.946  1.00 20.17 LIG-0.27  OA
ATOM     10 H    GLY C   4     -16.455   8.489  26.006  1.00 25.00 LIG 0.16  HD
BRANCH 8 11
ATOM     11  CA  PHE C   3     -15.578   6.050  26.035  1.00 26.56 LIG 0.18  C 
BRANCH 11 12
ATOM     12  CB  PHE C   3     -15.352   5.821  24.554  1.00 27.24 LIG 0.07  C 
BRANCH 12 13
ATOM     13  CG  PHE C   3     -15.521   4.422  24.143  1.00 26.12 LIG-0.06  A 
ATOM     14  CD1 PHE C   3     -14.800   3.432  24.791  1.00 28.42 LIG 0.01  A 
ATOM     15  CE1 PHE C   3     -14.960   2.081  24.452  1.00 27.55 LIG 0.00  A 
ATOM     16  CZ  PHE C   3     -15.795   1.724  23.344  1.00 28.40 LIG 0.00  A 
ATOM     17  CE2 PHE C   3     -16.531   2.725  22.683  1.00 22.84 LIG 0.00  A 
ATOM     18  CD2 PHE C   3     -16.353   4.081  23.053  1.00 25.80 LIG 0.01  A 
ENDBRANCH 12 13
ENDBRANCH 11 12
BRANCH 11 19
ATOM     19  N   PHE C   3     -17.018   6.101  26.323  1.00 29.45 LIG-0.35  N 
ATOM     20 H    PHE C   3     -17.521   6.265  25.644  1.00 29.45 LIG 0.16  HD
ATOM     21  C   GLY C   2     -17.461   5.900  27.563  1.00 31.80 LIG 0.25  C 
ATOM     22 O    GLY C   2     -16.689   5.816  28.554  1.00 33.21 LIG-0.27  OA
BRANCH 21 23
ATOM     23  CA  GLY C   2     -18.979   5.885  27.732  1.00 32.25 LIG 0.47  C 
ATOM     24  N   GLY C   2     -19.594   4.582  27.318  1.00 32.96 LIG 0.61  N 
ENDBRANCH 21 23
ENDBRANCH 11 19
ENDBRANCH 8 11
ENDBRANCH 6 7
ENDBRANCH 3 6
ENDBRANCH 1 2
BRANCH 1 25
ATOM     25  C   LEU C   5     -13.311  10.457  22.155  1.00 23.49 LIG 0.24  C 
ATOM     26  N   PHE C   6     -12.530  11.082  21.269  1.00 22.96 LIG-0.35  N 
ATOM     27 H    PHE C   6     -11.905  11.635  21.479  1.00 22.96 LIG 0.16  HD
ATOM     28 O    LEU C   5     -14.094   9.534  21.834  1.00 25.98 LIG-0.27  OA
BRANCH 26 29
ATOM     29  CA  PHE C   6     -12.694  10.853  19.812  1.00 22.19 LIG 0.18  C 
BRANCH 29 30
ATOM     30  C   PHE C   6     -14.051  11.231  19.225  1.00 17.26 LIG 0.24  C 
ATOM     31 O    PHE C   6     -14.515  10.683  18.269  1.00 22.18 LIG-0.27  OA
ATOM     32  N   ASP C   7     -14.692  12.237  19.831  1.00 22.18 LIG-0.35  N 
ATOM     33 H    ASP C   7     -14.392  12.654  20.520  1.00 22.18 LIG 0.16  HD
BRANCH 32 34
ATOM     34  CA  ASP C   7     -15.996  12.716  19.347  1.00 22.70 LIG 0.17  C 
BRANCH 34 35
ATOM     35  C   ASP C   7     -15.967  13.279  17.951  1.00 27.36 LIG 0.22  C 
ATOM     36 O    ASP C   7     -15.566  12.596  16.978  1.00 28.20 LIG-0.29  OA
ENDBRANCH 34 35
BRANCH 34 37
ATOM     37  CB  ASP C   7     -16.511  13.812  20.290  1.00 23.18 LIG 0.15  C 
BRANCH 37 38
ATOM     38  CG  ASP C   7     -15.570  14.107  21.435  1.00 26.80 LIG 0.17  C 
ATOM     39 OD2  ASP C   7     -14.824  15.131  21.328  1.00 27.82 LIG-0.65  OA
ATOM     40 OD1  ASP C   7     -15.556  13.281  22.414  1.00 32.15 LIG-0.65  OA
ENDBRANCH 37 38
ENDBRANCH 34 37
ENDBRANCH 32 34
ENDBRANCH 29 30
BRANCH 29 41
ATOM     41  CB  PHE C   6     -12.282   9.416  19.409  1.00 21.19 LIG 0.07  C 
BRANCH 41 42
ATOM     42  CG  PHE C   6     -11.318   8.789  20.352  1.00 25.43 LIG-0.06  A 
ATOM     43  CD2 PHE C   6     -10.007   9.268  20.495  1.00 26.31 LIG 0.01  A 
ATOM     44  CE2 PHE C   6      -9.159   8.693  21.438  1.00 29.51 LIG 0.00  A 
ATOM     45  CZ  PHE C   6      -9.563   7.579  22.185  1.00 25.82 LIG 0.00  A 
ATOM     46  CE1 PHE C   6     -10.831   7.087  22.029  1.00 26.71 LIG 0.00  A 
ATOM     47  CD1 PHE C   6     -11.706   7.687  21.088  1.00 21.41 LIG 0.01  A 
ENDBRANCH 41 42
ENDBRANCH 29 41
ENDBRANCH 26 29
ENDBRANCH 1 25
BRANCH 1 48
ATOM     48  CB  LEU C   5     -11.564  10.879  23.917  1.00 26.63 LIG 0.04  C 
BRANCH 48 49
ATOM     49  CG  LEU C   5     -11.060  10.224  25.160  1.00 31.82 LIG-0.02  C 
ATOM     50  CD2 LEU C   5      -9.544  10.618  25.295  1.00 33.90 LIG 0.01  C 
ATOM     51  CD1 LEU C   5     -11.264   8.704  25.151  1.00 30.04 LIG 0.01  C 
ENDBRANCH 48 49
ENDBRANCH 1 48
TORSDOF 19
ENDMDL
MODEL 15
USER: ADFR SOLUTION from run 121
USER: SCORE 15.561754 LL:  -4.216 LR: -12.053 RR:   0.000 FEB:  -6.385
USER: RMSD 3.327642
USER: SEED 120
USER: STATUS no improvement in best in 16 clusters for 5 generations
USER: GENES 21
USER: genes 0 Translation |==|  0.59893 0.58205 0.64417
USER: genes 1 Rotation |==|  0.56644 0.54769 0.48580 0.99306
USER: genes 2 Torsion [C]-CA--N-[C] |==|  0.65881
USER: genes 3 Torsion [N]-C--CA-[N] |==|  0.96667
USER: genes 4 Torsion [C]-CA--N-[C] |==|  0.21701
USER: genes 5 Torsion [N]-C--CA-[N] |==|  0.10567
USER: genes 6 Torsion [C]-CA--CB-[CG] |==|  0.43062
USER: genes 7 Torsion [CA]-CB--CG-[CD1] |==|  0.24675
USER: genes 8 Torsion [C]-CA--N-[C] |==|  0.15033
USER: genes 9 Torsion [N]-C--CA-[N] |==|  0.24312
USER: genes 10 Torsion [N]-CA--C-[N] |==|  0.91850
USER: genes 11 Torsion [C]-N--CA-[C] |==|  0.71782
USER: genes 12 Torsion [N]-CA--C-[N] |==|  0.29901
USER: genes 13 Torsion [C]-N--CA-[C] |==|  0.80212
USER: genes 14 Torsion [N]-CA--C-[O] |==|  0.92410
USER: genes 15 Torsion [N]-CA--CB-[CG] |==|  0.87297
USER: genes 16 Torsion [CA]-CB--CG-[OD1] |==|  0.35012
USER: genes 17 Torsion [N]-CA--CB-[CG] |==|  0.77288
USER: genes 18 Torsion [CA]-CB--CG-[CD2] |==|  0.25637
USER: genes 19 Torsion [N]-CA--CB-[CG] |==|  0.39458
USER: genes 20 Torsion [CA]-CB--CG-[CD2] |==|  0.63353
ROOT
ATOM      1  CA  LEU C   5     -13.035   9.739  25.368  1.00 25.10 LIG 0.18  C 
ENDROOT
BRANCH 1 2
ATOM      2  N   LEU C   5     -14.161   8.771  25.683  1.00 25.35 LIG-0.35  N 
ATOM      3  C   GLY C   4     -15.042   9.048  26.686  1.00 24.95 LIG 0.24  C 
ATOM      4 O    GLY C   4     -14.920  10.075  27.364  1.00 25.89 LIG-0.27  OA
ATOM      5 H    LEU C   5     -14.185   8.066  25.191  1.00 25.35 LIG 0.16  HD
BRANCH 3 6
ATOM      6  CA  GLY C   4     -16.172   8.117  26.963  1.00 25.42 LIG 0.23  C 
BRANCH 6 7
ATOM      7  N   GLY C   4     -16.454   7.073  25.978  1.00 25.00 LIG-0.35  N 
ATOM      8  C   PHE C   3     -15.723   5.936  25.879  1.00 25.70 LIG 0.24  C 
ATOM      9 O    PHE C   3     -14.784   5.670  26.653  1.00 20.17 LIG-0.27  OA
ATOM     10 H    GLY C   4     -17.126   7.248  25.470  1.00 25.00 LIG 0.16  HD
BRANCH 8 11
ATOM     11  CA  PHE C   3     -16.206   4.903  24.862  1.00 26.56 LIG 0.18  C 
BRANCH 11 12
ATOM     12  CB  PHE C   3     -15.046   3.992  24.510  1.00 27.24 LIG 0.07  C 
BRANCH 12 13
ATOM     13  CG  PHE C   3     -15.462   2.666  24.037  1.00 26.12 LIG-0.06  A 
ATOM     14  CD1 PHE C   3     -15.700   2.471  22.686  1.00 28.42 LIG 0.01  A 
ATOM     15  CE1 PHE C   3     -16.064   1.212  22.191  1.00 27.55 LIG 0.00  A 
ATOM     16  CZ  PHE C   3     -16.306   0.134  23.104  1.00 28.40 LIG 0.00  A 
ATOM     17  CE2 PHE C   3     -16.065   0.327  24.477  1.00 22.84 LIG 0.00  A 
ATOM     18  CD2 PHE C   3     -15.691   1.610  24.947  1.00 25.80 LIG 0.01  A 
ENDBRANCH 12 13
ENDBRANCH 11 12
BRANCH 11 19
ATOM     19  N   PHE C   3     -16.711   5.565  23.652  1.00 29.45 LIG-0.35  N 
ATOM     20 H    PHE C   3     -17.510   5.344  23.421  1.00 29.45 LIG 0.16  HD
ATOM     21  C   GLY C   2     -15.947   6.438  22.996  1.00 31.80 LIG 0.25  C 
ATOM     22 O    GLY C   2     -14.732   6.618  23.275  1.00 33.21 LIG-0.27  OA
BRANCH 21 23
ATOM     23  CA  GLY C   2     -16.603   7.133  21.805  1.00 32.25 LIG 0.47  C 
ATOM     24  N   GLY C   2     -17.341   8.377  22.199  1.00 32.96 LIG 0.61  N 
ENDBRANCH 21 23
ENDBRANCH 11 19
ENDBRANCH 8 11
ENDBRANCH 6 7
ENDBRANCH 3 6
ENDBRANCH 1 2
BRANCH 1 25
ATOM     25  C   LEU C   5     -12.990  10.262  23.926  1.00 23.49 LIG 0.24  C 
ATOM     26  N   PHE C   6     -13.469   9.461  22.971  1.00 22.96 LIG-0.35  N 
ATOM     27 H    PHE C   6     -13.830   8.694  23.116  1.00 22.96 LIG 0.16  HD
ATOM     28 O    LEU C   5     -12.627  11.440  23.703  1.00 25.98 LIG-0.27  OA
BRANCH 26 29
ATOM     29  CA  PHE C   6     -13.408   9.857  21.541  1.00 22.19 LIG 0.18  C 
BRANCH 29 30
ATOM     30  C   PHE C   6     -14.706  10.386  20.938  1.00 17.26 LIG 0.24  C 
ATOM     31 O    PHE C   6     -15.631   9.675  20.676  1.00 22.18 LIG-0.27  OA
ATOM     32  N   ASP C   7     -14.747  11.701  20.694  1.00 22.18 LIG-0.35  N 
ATOM     33 H    ASP C   7     -14.104  12.244  20.869  1.00 22.18 LIG 0.16  HD
BRANCH 32 34
ATOM     34  CA  ASP C   7     -15.931  12.331  20.089  1.00 22.70 LIG 0.17  C 
BRANCH 34 35
ATOM     35  C   ASP C   7     -16.132  11.998  18.635  1.00 27.36 LIG 0.22  C 
ATOM     36 O    ASP C   7     -15.166  11.700  17.892  1.00 28.20 LIG-0.29  OA
ENDBRANCH 34 35
BRANCH 34 37
ATOM     37  CB  ASP C   7     -15.808  13.856  20.214  1.00 23.18 LIG 0.15  C 
BRANCH 37 38
ATOM     38  CG  ASP C   7     -15.375  14.311  21.589  1.00 26.80 LIG 0.17  C 
ATOM     39 OD2  ASP C   7     -16.084  13.939  22.577  1.00 27.82 LIG-0.65  OA
ATOM     40 OD1  ASP C   7     -14.351  15.076  21.660  1.00 32.15 LIG-0.65  OA
ENDBRANCH 37 38
ENDBRANCH 34 37
ENDBRANCH 32 34
ENDBRANCH 29 30
BRANCH 29 41
ATOM     41  CB  PHE C   6     -12.788   8.741  20.665  1.00 21.19 LIG 0.07  C 
BRANCH 41 42
ATOM     42  CG  PHE C   6     -11.301   8.727  20.686  1.00 25.43 LIG-0.06  A 
ATOM     43  CD2 PHE C   6     -10.584   7.940  21.599  1.00 26.31 LIG 0.01  A 
ATOM     44  CE2 PHE C   6      -9.193   7.906  21.541  1.00 29.51 LIG 0.00  A 
ATOM     45  CZ  PHE C   6      -8.490   8.719  20.642  1.00 25.82 LIG 0.00  A 
ATOM     46  CE1 PHE C   6      -9.184   9.513  19.769  1.00 26.71 LIG 0.00  A 
ATOM     47  CD1 PHE C   6     -10.601   9.530  19.808  1.00 21.41 LIG 0.01  A 
ENDBRANCH 41 42
ENDBRANCH 29 41
ENDBRANCH 26 29
ENDBRANCH 1 25
BRANCH 1 48
ATOM     48  CB  LEU C   5     -11.580   9.288  25.768  1.00 26.63 LIG 0.04  C 
BRANCH 48 49
ATOM     49  CG  LEU C   5     -10.469   9.641  24.835  1.00 31.82 LIG-0.02  C 
ATOM     50  CD2 LEU C   5      -9.624   8.332  24.623  1.00 33.90 LIG 0.01  C 
ATOM     51  CD1 LEU C   5      -9.612  10.804  25.349  1.00 30.04 LIG 0.01  C 
ENDBRANCH 48 49
ENDBRANCH 1 48
TORSDOF 19
ENDMDL
MODEL 16
USER: ADFR SOLUTION from run 87
USER: SCORE 15.488059 LL:  -4.005 LR: -12.055 RR:   0.000 FEB:  -6.387
USER: RMSD 8.147096
USER: SEED 86
USER: STATUS searching
USER: GENES 21
USER: genes 0 Translation |==|  0.67215 0.57451 0.34500
USER: genes 1 Rotation |==|  0.04388 0.52846 0.38832 0.66934
USER: genes 2 Torsion [C]-CA--N-[C] |==|  0.75020
USER: genes 3 Torsion [N]-C--CA-[N] |==|  0.56232
USER: genes 4 Torsion [C]-CA--N-[C] |==|  0.72859
USER: genes 5 Torsion [N]-C--CA-[N] |==|  0.20503
USER: genes 6 Torsion [C]-CA--CB-[CG] |==|  0.74881
USER: genes 7 Torsion [CA]-CB--CG-[CD1] |==|  0.70172
USER: genes 8 Torsion [C]-CA--N-[C] |==|  0.77412
USER: genes 9 Torsion [N]-C--CA-[N] |==|  0.38784
USER: genes 10 Torsion [N]-CA--C-[N] |==|  0.96111
USER: genes 11 Torsion [C]-N--CA-[C] |==|  0.69140
USER: genes 12 Torsion [N]-CA--C-[N] |==|  0.99013
USER: genes 13 Torsion [C]-N--CA-[C] |==|  0.75260
USER: genes 14 Torsion [N]-CA--C-[O] |==|  0.58447
USER: genes 15 Torsion [N]-CA--CB-[CG] |==|  0.21013
USER: genes 16 Torsion [CA]-CB--CG-[OD1] |==|  0.84439
USER: genes 17 Torsion [N]-CA--CB-[CG] |==|  0.87786
USER: genes 18 Torsion [CA]-CB--CG-[CD2] |==|  0.33784
USER: genes 19 Torsion [N]-CA--CB-[CG] |==|  0.53648
USER: genes 20 Torsion [CA]-CB--CG-[CD2] |==|  0.72109
ROOT
ATOM      1  CA  LEU C   5     -11.717   9.575  19.983  1.00 25.10 LIG 0.18  C 
ENDROOT
BRANCH 1 2
ATOM      2  N   LEU C   5     -12.619  10.794  19.933  1.00 25.35 LIG-0.35  N 
ATOM      3  C   GLY C   4     -13.703  10.812  19.106  1.00 24.95 LIG 0.24  C 
ATOM      4 O    GLY C   4     -13.948   9.848  18.371  1.00 25.89 LIG-0.27  OA
ATOM      5 H    LEU C   5     -12.388  11.440  20.453  1.00 25.35 LIG 0.16  HD
BRANCH 3 6
ATOM      6  CA  GLY C   4     -14.611  11.993  19.093  1.00 25.42 LIG 0.23  C 
BRANCH 6 7
ATOM      7  N   GLY C   4     -15.978  11.798  18.610  1.00 25.00 LIG-0.35  N 
ATOM      8  C   PHE C   3     -16.362  12.094  17.343  1.00 25.70 LIG 0.24  C 
ATOM      9 O    PHE C   3     -15.567  12.508  16.478  1.00 20.17 LIG-0.27  OA
ATOM     10 H    GLY C   4     -16.513  11.480  19.203  1.00 25.00 LIG 0.16  HD
BRANCH 8 11
ATOM     11  CA  PHE C   3     -17.801  11.742  16.969  1.00 26.56 LIG 0.18  C 
BRANCH 11 12
ATOM     12  CB  PHE C   3     -17.935  11.800  15.460  1.00 27.24 LIG 0.07  C 
BRANCH 12 13
ATOM     13  CG  PHE C   3     -18.335  13.119  14.956  1.00 26.12 LIG-0.06  A 
ATOM     14  CD1 PHE C   3     -19.620  13.300  14.471  1.00 28.42 LIG 0.01  A 
ATOM     15  CE1 PHE C   3     -20.052  14.552  14.014  1.00 27.55 LIG 0.00  A 
ATOM     16  CZ  PHE C   3     -19.119  15.638  13.938  1.00 28.40 LIG 0.00  A 
ATOM     17  CE2 PHE C   3     -17.813  15.460  14.430  1.00 22.84 LIG 0.00  A 
ATOM     18  CD2 PHE C   3     -17.408  14.184  14.892  1.00 25.80 LIG 0.01  A 
ENDBRANCH 12 13
ENDBRANCH 11 12
BRANCH 11 19
ATOM     19  N   PHE C   3     -18.742  12.681  17.594  1.00 29.45 LIG-0.35  N 
ATOM     20 H    PHE C   3     -19.018  13.316  17.084  1.00 29.45 LIG 0.16  HD
ATOM     21  C   GLY C   2     -19.110  12.515  18.864  1.00 31.80 LIG 0.25  C 
ATOM     22 O    GLY C   2     -18.568  11.668  19.622  1.00 33.21 LIG-0.27  OA
BRANCH 21 23
ATOM     23  CA  GLY C   2     -20.160  13.495  19.386  1.00 32.25 LIG 0.47  C 
ATOM     24  N   GLY C   2     -21.180  12.834  20.263  1.00 32.96 LIG 0.61  N 
ENDBRANCH 21 23
ENDBRANCH 11 19
ENDBRANCH 8 11
ENDBRANCH 6 7
ENDBRANCH 3 6
ENDBRANCH 1 2
BRANCH 1 25
ATOM     25  C   LEU C   5     -12.102   8.503  21.013  1.00 23.49 LIG 0.24  C 
ATOM     26  N   PHE C   6     -12.989   8.848  21.950  1.00 22.96 LIG-0.35  N 
ATOM     27 H    PHE C   6     -13.380   9.612  21.989  1.00 22.96 LIG 0.16  HD
ATOM     28 O    LEU C   5     -11.676   7.333  20.880  1.00 25.98 LIG-0.27  OA
BRANCH 26 29
ATOM     29  CA  PHE C   6     -13.371   7.898  23.025  1.00 22.19 LIG 0.18  C 
BRANCH 29 30
ATOM     30  C   PHE C   6     -14.798   7.360  22.964  1.00 17.26 LIG 0.24  C 
ATOM     31 O    PHE C   6     -15.206   6.528  23.719  1.00 22.18 LIG-0.27  OA
ATOM     32  N   ASP C   7     -15.572   7.859  21.994  1.00 22.18 LIG-0.35  N 
ATOM     33 H    ASP C   7     -15.316   8.458  21.433  1.00 22.18 LIG 0.16  HD
BRANCH 32 34
ATOM     34  CA  ASP C   7     -16.959   7.404  21.810  1.00 22.70 LIG 0.17  C 
BRANCH 34 35
ATOM     35  C   ASP C   7     -17.103   6.216  20.898  1.00 27.36 LIG 0.22  C 
ATOM     36 O    ASP C   7     -18.133   6.047  20.202  1.00 28.20 LIG-0.29  OA
ENDBRANCH 34 35
BRANCH 34 37
ATOM     37  CB  ASP C   7     -17.793   8.554  21.228  1.00 23.18 LIG 0.15  C 
BRANCH 37 38
ATOM     38  CG  ASP C   7     -17.539   8.792  19.757  1.00 26.80 LIG 0.17  C 
ATOM     39 OD2  ASP C   7     -18.536   8.707  18.972  1.00 27.82 LIG-0.65  OA
ATOM     40 OD1  ASP C   7     -16.331   9.017  19.397  1.00 32.15 LIG-0.65  OA
ENDBRANCH 37 38
ENDBRANCH 34 37
ENDBRANCH 32 34
ENDBRANCH 29 30
BRANCH 29 41
ATOM     41  CB  PHE C   6     -13.034   8.457  24.428  1.00 21.19 LIG 0.07  C 
BRANCH 41 42
ATOM     42  CG  PHE C   6     -11.691   9.090  24.508  1.00 25.43 LIG-0.06  A 
ATOM     43  CD2 PHE C   6     -11.527  10.429  24.892  1.00 26.31 LIG 0.01  A 
ATOM     44  CE2 PHE C   6     -10.247  10.962  25.017  1.00 29.51 LIG 0.00  A 
ATOM     45  CZ  PHE C   6      -9.117  10.209  24.676  1.00 25.82 LIG 0.00  A 
ATOM     46  CE1 PHE C   6      -9.271   8.910  24.270  1.00 26.71 LIG 0.00  A 
ATOM     47  CD1 PHE C   6     -10.572   8.356  24.167  1.00 21.41 LIG 0.01  A 
ENDBRANCH 41 42
ENDBRANCH 29 41
ENDBRANCH 26 29
ENDBRANCH 1 25
BRANCH 1 48
ATOM     48  CB  LEU C   5     -10.170   9.841  20.111  1.00 26.63 LIG 0.04  C 
BRANCH 48 49
ATOM     49  CG  LEU C   5      -9.251   8.692  19.862  1.00 31.82 LIG-0.02  C 
ATOM     50  CD2 LEU C   5      -8.816   8.147  21.271  1.00 33.90 LIG 0.01  C 
ATOM     51  CD1 LEU C   5      -8.046   9.076  18.994  1.00 30.04 LIG 0.01  C 
ENDBRANCH 48 49
ENDBRANCH 1 48
TORSDOF 19
ENDMDL
MODEL 17
USER: ADFR SOLUTION from run 143
USER: SCORE 15.025992 LL:  -4.231 LR: -12.035 RR:   0.000 FEB:  -6.368
USER: RMSD 2.933230
USER: SEED 142
USER: STATUS no improvement in best in 17 clusters for 5 generations
USER: GENES 21
USER: genes 0 Translation |==|  0.62025 0.55237 0.57157
USER: genes 1 Rotation |==|  0.72940 0.60482 0.43450 0.92673
USER: genes 2 Torsion [C]-CA--N-[C] |==|  0.20269
USER: genes 3 Torsion [N]-C--CA-[N] |==|  0.91111
USER: genes 4 Torsion [C]-CA--N-[C] |==|  0.75612
USER: genes 5 Torsion [N]-C--CA-[N] |==|  0.95835
USER: genes 6 Torsion [C]-CA--CB-[CG] |==|  0.15604
USER: genes 7 Torsion [CA]-CB--CG-[CD1] |==|  0.73403
USER: genes 8 Torsion [C]-CA--N-[C] |==|  0.79950
USER: genes 9 Torsion [N]-C--CA-[N] |==|  0.53429
USER: genes 10 Torsion [N]-CA--C-[N] |==|  0.85581
USER: genes 11 Torsion [C]-N--CA-[C] |==|  0.67968
USER: genes 12 Torsion [N]-CA--C-[N] |==|  0.87130
USER: genes 13 Torsion [C]-N--CA-[C] |==|  0.50215
USER: genes 14 Torsion [N]-CA--C-[O] |==|  0.94001
USER: genes 15 Torsion [N]-CA--CB-[CG] |==|  0.17407
USER: genes 16 Torsion [CA]-CB--CG-[OD1] |==|  0.34013
USER: genes 17 Torsion [N]-CA--CB-[CG] |==|  0.98654
USER: genes 18 Torsion [CA]-CB--CG-[CD2] |==|  0.18595
USER: genes 19 Torsion [N]-CA--CB-[CG] |==|  0.50091
USER: genes 20 Torsion [CA]-CB--CG-[CD2] |==|  0.48050
ROOT
ATOM      1  CA  LEU C   5     -12.652   9.093  24.061  1.00 25.10 LIG 0.18  C 
ENDROOT
BRANCH 1 2
ATOM      2  N   LEU C   5     -13.956   8.318  24.091  1.00 25.35 LIG-0.35  N 
ATOM      3  C   GLY C   4     -14.390   7.664  22.976  1.00 24.95 LIG 0.24  C 
ATOM      4 O    GLY C   4     -13.740   7.716  21.925  1.00 25.89 LIG-0.27  OA
ATOM      5 H    LEU C   5     -14.372   8.333  24.844  1.00 25.35 LIG 0.16  HD
BRANCH 3 6
ATOM      6  CA  GLY C   4     -15.648   6.867  23.021  1.00 25.42 LIG 0.23  C 
BRANCH 6 7
ATOM      7  N   GLY C   4     -15.999   6.217  24.284  1.00 25.00 LIG-0.35  N 
ATOM      8  C   PHE C   3     -15.563   4.977  24.621  1.00 25.70 LIG 0.24  C 
ATOM      9 O    PHE C   3     -14.790   4.317  23.902  1.00 20.17 LIG-0.27  OA
ATOM     10 H    GLY C   4     -16.505   6.693  24.791  1.00 25.00 LIG 0.16  HD
BRANCH 8 11
ATOM     11  CA  PHE C   3     -15.940   4.480  26.016  1.00 26.56 LIG 0.18  C 
BRANCH 11 12
ATOM     12  CB  PHE C   3     -17.033   3.439  25.878  1.00 27.24 LIG 0.07  C 
BRANCH 12 13
ATOM     13  CG  PHE C   3     -16.671   2.318  25.004  1.00 26.12 LIG-0.06  A 
ATOM     14  CD1 PHE C   3     -17.057   2.341  23.673  1.00 28.42 LIG 0.01  A 
ATOM     15  CE1 PHE C   3     -16.700   1.306  22.798  1.00 27.55 LIG 0.00  A 
ATOM     16  CZ  PHE C   3     -16.023   0.150  23.307  1.00 28.40 LIG 0.00  A 
ATOM     17  CE2 PHE C   3     -15.627   0.122  24.657  1.00 22.84 LIG 0.00  A 
ATOM     18  CD2 PHE C   3     -15.997   1.186  25.516  1.00 25.80 LIG 0.01  A 
ENDBRANCH 12 13
ENDBRANCH 11 12
BRANCH 11 19
ATOM     19  N   PHE C   3     -16.407   5.594  26.853  1.00 29.45 LIG-0.35  N 
ATOM     20 H    PHE C   3     -17.252   5.601  27.013  1.00 29.45 LIG 0.16  HD
ATOM     21  C   GLY C   2     -15.541   6.500  27.307  1.00 31.80 LIG 0.25  C 
ATOM     22 O    GLY C   2     -14.342   6.542  26.926  1.00 33.21 LIG-0.27  OA
BRANCH 21 23
ATOM     23  CA  GLY C   2     -16.119   7.562  28.241  1.00 32.25 LIG 0.47  C 
ATOM     24  N   GLY C   2     -15.174   8.702  28.473  1.00 32.96 LIG 0.61  N 
ENDBRANCH 21 23
ENDBRANCH 11 19
ENDBRANCH 8 11
ENDBRANCH 6 7
ENDBRANCH 3 6
ENDBRANCH 1 2
BRANCH 1 25
ATOM     25  C   LEU C   5     -12.678  10.413  23.278  1.00 23.49 LIG 0.24  C 
ATOM     26  N   PHE C   6     -13.141  10.371  22.027  1.00 22.96 LIG-0.35  N 
ATOM     27 H    PHE C   6     -13.455   9.665  21.649  1.00 22.96 LIG 0.16  HD
ATOM     28 O    LEU C   5     -12.385  11.485  23.857  1.00 25.98 LIG-0.27  OA
BRANCH 26 29
ATOM     29  CA  PHE C   6     -13.143  11.585  21.173  1.00 22.19 LIG 0.18  C 
BRANCH 29 30
ATOM     30  C   PHE C   6     -14.516  12.109  20.760  1.00 17.26 LIG 0.24  C 
ATOM     31 O    PHE C   6     -14.819  13.261  20.846  1.00 22.18 LIG-0.27  OA
ATOM     32  N   ASP C   7     -15.383  11.193  20.311  1.00 22.18 LIG-0.35  N 
ATOM     33 H    ASP C   7     -15.202  10.355  20.234  1.00 22.18 LIG 0.16  HD
BRANCH 32 34
ATOM     34  CA  ASP C   7     -16.747  11.563  19.908  1.00 22.70 LIG 0.17  C 
BRANCH 34 35
ATOM     35  C   ASP C   7     -17.590  10.403  19.447  1.00 27.36 LIG 0.22  C 
ATOM     36 O    ASP C   7     -17.070   9.337  19.040  1.00 28.20 LIG-0.29  OA
ENDBRANCH 34 35
BRANCH 34 37
ATOM     37  CB  ASP C   7     -16.675  12.582  18.762  1.00 23.18 LIG 0.15  C 
BRANCH 37 38
ATOM     38  CG  ASP C   7     -16.017  12.036  17.516  1.00 26.80 LIG 0.17  C 
ATOM     39 OD2  ASP C   7     -14.817  11.631  17.619  1.00 27.82 LIG-0.65  OA
ATOM     40 OD1  ASP C   7     -16.699  12.061  16.432  1.00 32.15 LIG-0.65  OA
ENDBRANCH 37 38
ENDBRANCH 34 37
ENDBRANCH 32 34
ENDBRANCH 29 30
BRANCH 29 41
ATOM     41  CB  PHE C   6     -12.205  11.427  19.951  1.00 21.19 LIG 0.07  C 
BRANCH 41 42
ATOM     42  CG  PHE C   6     -11.429  10.158  19.960  1.00 25.43 LIG-0.06  A 
ATOM     43  CD2 PHE C   6     -12.054   8.911  19.813  1.00 26.31 LIG 0.01  A 
ATOM     44  CE2 PHE C   6     -11.282   7.753  19.760  1.00 29.51 LIG 0.00  A 
ATOM     45  CZ  PHE C   6      -9.895   7.803  19.945  1.00 25.82 LIG 0.00  A 
ATOM     46  CE1 PHE C   6      -9.283   9.015  20.120  1.00 26.71 LIG 0.00  A 
ATOM     47  CD1 PHE C   6     -10.062  10.199  20.148  1.00 21.41 LIG 0.01  A 
ENDBRANCH 41 42
ENDBRANCH 29 41
ENDBRANCH 26 29
ENDBRANCH 1 25
BRANCH 1 48
ATOM     48  CB  LEU C   5     -11.364   8.296  23.629  1.00 26.63 LIG 0.04  C 
BRANCH 48 49
ATOM     49  CG  LEU C   5     -10.070   9.041  23.602  1.00 31.82 LIG-0.02  C 
ATOM     50  CD2 LEU C   5      -8.944   7.980  23.321  1.00 33.90 LIG 0.01  C 
ATOM     51  CD1 LEU C   5      -9.814   9.828  24.893  1.00 30.04 LIG 0.01  C 
ENDBRANCH 48 49
ENDBRANCH 1 48
TORSDOF 19
ENDMDL
MODEL 18
USER: ADFR SOLUTION from run 18
USER: SCORE 15.163271 LL:  -3.901 LR: -12.012 RR:   0.000 FEB:  -6.345
USER: RMSD 5.098840
USER: SEED 17
USER: STATUS no improvement in best in 10 clusters for 5 generations
USER: GENES 21
USER: genes 0 Translation |==|  0.66793 0.53797 0.56988
USER: genes 1 Rotation |==|  0.81562 0.63050 0.41967 0.85623
USER: genes 2 Torsion [C]-CA--N-[C] |==|  0.83623
USER: genes 3 Torsion [N]-C--CA-[N] |==|  0.07596
USER: genes 4 Torsion [C]-CA--N-[C] |==|  0.22729
USER: genes 5 Torsion [N]-C--CA-[N] |==|  0.55737
USER: genes 6 Torsion [C]-CA--CB-[CG] |==|  0.40994
USER: genes 7 Torsion [CA]-CB--CG-[CD1] |==|  0.59051
USER: genes 8 Torsion [C]-CA--N-[C] |==|  0.67130
USER: genes 9 Torsion [N]-C--CA-[N] |==|  0.82393
USER: genes 10 Torsion [N]-CA--C-[N] |==|  0.91334
USER: genes 11 Torsion [C]-N--CA-[C] |==|  0.77757
USER: genes 12 Torsion [N]-CA--C-[N] |==|  0.37649
USER: genes 13 Torsion [C]-N--CA-[C] |==|  0.13734
USER: genes 14 Torsion [N]-CA--C-[O] |==|  0.36448
USER: genes 15 Torsion [N]-CA--CB-[CG] |==|  0.86767
USER: genes 16 Torsion [CA]-CB--CG-[OD1] |==|  0.23278
USER: genes 17 Torsion [N]-CA--CB-[CG] |==|  0.95730
USER: genes 18 Torsion [CA]-CB--CG-[CD2] |==|  0.77929
USER: genes 19 Torsion [N]-CA--CB-[CG] |==|  0.21876
USER: genes 20 Torsion [CA]-CB--CG-[CD2] |==|  0.67846
ROOT
ATOM      1  CA  LEU C   5     -11.793   8.780  24.031  1.00 25.10 LIG 0.18  C 
ENDROOT
BRANCH 1 2
ATOM      2  N   LEU C   5     -13.182   8.175  23.938  1.00 25.35 LIG-0.35  N 
ATOM      3  C   GLY C   4     -14.160   8.569  24.802  1.00 24.95 LIG 0.24  C 
ATOM      4 O    GLY C   4     -13.921   9.403  25.684  1.00 25.89 LIG-0.27  OA
ATOM      5 H    LEU C   5     -13.284   7.588  23.317  1.00 25.35 LIG 0.16  HD
BRANCH 3 6
ATOM      6  CA  GLY C   4     -15.534   8.006  24.679  1.00 25.42 LIG 0.23  C 
BRANCH 6 7
ATOM      7  N   GLY C   4     -15.676   6.672  24.096  1.00 25.00 LIG-0.35  N 
ATOM      8  C   PHE C   3     -15.491   5.533  24.808  1.00 25.70 LIG 0.24  C 
ATOM      9 O    PHE C   3     -15.234   5.535  26.027  1.00 20.17 LIG-0.27  OA
ATOM     10 H    GLY C   4     -15.887   6.678  23.262  1.00 25.00 LIG 0.16  HD
BRANCH 8 11
ATOM     11  CA  PHE C   3     -15.771   4.221  24.076  1.00 26.56 LIG 0.18  C 
BRANCH 11 12
ATOM     12  CB  PHE C   3     -16.985   4.412  23.190  1.00 27.24 LIG 0.07  C 
BRANCH 12 13
ATOM     13  CG  PHE C   3     -16.942   3.620  21.955  1.00 26.12 LIG-0.06  A 
ATOM     14  CD1 PHE C   3     -17.525   4.124  20.803  1.00 28.42 LIG 0.01  A 
ATOM     15  CE1 PHE C   3     -17.475   3.413  19.596  1.00 27.55 LIG 0.00  A 
ATOM     16  CZ  PHE C   3     -16.912   2.096  19.573  1.00 28.40 LIG 0.00  A 
ATOM     17  CE2 PHE C   3     -16.316   1.580  20.739  1.00 22.84 LIG 0.00  A 
ATOM     18  CD2 PHE C   3     -16.378   2.324  21.942  1.00 25.80 LIG 0.01  A 
ENDBRANCH 12 13
ENDBRANCH 11 12
BRANCH 11 19
ATOM     19  N   PHE C   3     -16.014   3.135  25.037  1.00 29.45 LIG-0.35  N 
ATOM     20 H    PHE C   3     -16.696   3.248  25.550  1.00 29.45 LIG 0.16  HD
ATOM     21  C   GLY C   2     -15.208   2.075  25.068  1.00 31.80 LIG 0.25  C 
ATOM     22 O    GLY C   2     -14.136   2.018  24.410  1.00 33.21 LIG-0.27  OA
BRANCH 21 23
ATOM     23  CA  GLY C   2     -15.605   0.966  26.042  1.00 32.25 LIG 0.47  C 
ATOM     24  N   GLY C   2     -15.577   1.417  27.471  1.00 32.96 LIG 0.61  N 
ENDBRANCH 21 23
ENDBRANCH 11 19
ENDBRANCH 8 11
ENDBRANCH 6 7
ENDBRANCH 3 6
ENDBRANCH 1 2
BRANCH 1 25
ATOM     25  C   LEU C   5     -11.717  10.304  23.865  1.00 23.49 LIG 0.24  C 
ATOM     26  N   PHE C   6     -12.624  10.877  23.070  1.00 22.96 LIG-0.35  N 
ATOM     27 H    PHE C   6     -13.263  10.454  22.679  1.00 22.96 LIG 0.16  HD
ATOM     28 O    LEU C   5     -10.906  10.964  24.553  1.00 25.98 LIG-0.27  OA
BRANCH 26 29
ATOM     29  CA  PHE C   6     -12.589  12.337  22.800  1.00 22.19 LIG 0.18  C 
BRANCH 29 30
ATOM     30  C   PHE C   6     -13.181  13.231  23.885  1.00 17.26 LIG 0.24  C 
ATOM     31 O    PHE C   6     -14.228  12.998  24.412  1.00 22.18 LIG-0.27  OA
ATOM     32  N   ASP C   7     -12.469  14.319  24.202  1.00 22.18 LIG-0.35  N 
ATOM     33 H    ASP C   7     -11.713  14.521  23.845  1.00 22.18 LIG 0.16  HD
BRANCH 32 34
ATOM     34  CA  ASP C   7     -12.943  15.277  25.212  1.00 22.70 LIG 0.17  C 
BRANCH 34 35
ATOM     35  C   ASP C   7     -13.380  14.644  26.506  1.00 27.36 LIG 0.22  C 
ATOM     36 O    ASP C   7     -12.978  15.074  27.614  1.00 28.20 LIG-0.29  OA
ENDBRANCH 34 35
BRANCH 34 37
ATOM     37  CB  ASP C   7     -14.132  16.062  24.642  1.00 23.18 LIG 0.15  C 
BRANCH 37 38
ATOM     38  CG  ASP C   7     -13.884  16.598  23.250  1.00 26.80 LIG 0.17  C 
ATOM     39 OD2  ASP C   7     -13.528  17.814  23.148  1.00 27.82 LIG-0.65  OA
ATOM     40 OD1  ASP C   7     -14.094  15.803  22.269  1.00 32.15 LIG-0.65  OA
ENDBRANCH 37 38
ENDBRANCH 34 37
ENDBRANCH 32 34
ENDBRANCH 29 30
BRANCH 29 41
ATOM     41  CB  PHE C   6     -13.171  12.674  21.405  1.00 21.19 LIG 0.07  C 
BRANCH 41 42
ATOM     42  CG  PHE C   6     -13.295  11.491  20.513  1.00 25.43 LIG-0.06  A 
ATOM     43  CD2 PHE C   6     -12.192  10.969  19.821  1.00 26.31 LIG 0.01  A 
ATOM     44  CE2 PHE C   6     -12.340   9.820  19.048  1.00 29.51 LIG 0.00  A 
ATOM     45  CZ  PHE C   6     -13.596   9.226  18.874  1.00 25.82 LIG 0.00  A 
ATOM     46  CE1 PHE C   6     -14.683   9.749  19.521  1.00 26.71 LIG 0.00  A 
ATOM     47  CD1 PHE C   6     -14.532  10.904  20.330  1.00 21.41 LIG 0.01  A 
ENDBRANCH 41 42
ENDBRANCH 29 41
ENDBRANCH 26 29
ENDBRANCH 1 25
BRANCH 1 48
ATOM     48  CB  LEU C   5     -10.677   8.135  23.125  1.00 26.63 LIG 0.04  C 
BRANCH 48 49
ATOM     49  CG  LEU C   5     -10.659   8.514  21.681  1.00 31.82 LIG-0.02  C 
ATOM     50  CD2 LEU C   5     -10.963   7.203  20.867  1.00 33.90 LIG 0.01  C 
ATOM     51  CD1 LEU C   5      -9.336   9.164  21.257  1.00 30.04 LIG 0.01  C 
ENDBRANCH 48 49
ENDBRANCH 1 48
TORSDOF 19
ENDMDL
MODEL 19
USER: ADFR SOLUTION from run 132
USER: SCORE 14.204145 LL:  -3.457 LR: -11.974 RR:   0.000 FEB:  -6.306
USER: RMSD 6.629207
USER: SEED 131
USER: STATUS no improvement in best in 12 clusters for 5 generations
USER: GENES 21
USER: genes 0 Translation |==|  0.65043 0.57754 0.40230
USER: genes 1 Rotation |==|  0.69769 0.78008 0.32836 0.82095
USER: genes 2 Torsion [C]-CA--N-[C] |==|  0.18124
USER: genes 3 Torsion [N]-C--CA-[N] |==|  0.02951
USER: genes 4 Torsion [C]-CA--N-[C] |==|  0.21130
USER: genes 5 Torsion [N]-C--CA-[N] |==|  0.21645
USER: genes 6 Torsion [C]-CA--CB-[CG] |==|  0.42531
USER: genes 7 Torsion [CA]-CB--CG-[CD1] |==|  0.78260
USER: genes 8 Torsion [C]-CA--N-[C] |==|  0.11217
USER: genes 9 Torsion [N]-C--CA-[N] |==|  0.55788
USER: genes 10 Torsion [N]-CA--C-[N] |==|  0.05556
USER: genes 11 Torsion [C]-N--CA-[C] |==|  0.65700
USER: genes 12 Torsion [N]-CA--C-[N] |==|  0.98995
USER: genes 13 Torsion [C]-N--CA-[C] |==|  0.16567
USER: genes 14 Torsion [N]-CA--C-[O] |==|  0.12002
USER: genes 15 Torsion [N]-CA--CB-[CG] |==|  0.34801
USER: genes 16 Torsion [CA]-CB--CG-[OD1] |==|  0.77402
USER: genes 17 Torsion [N]-CA--CB-[CG] |==|  0.69252
USER: genes 18 Torsion [CA]-CB--CG-[CD2] |==|  0.21615
USER: genes 19 Torsion [N]-CA--CB-[CG] |==|  0.77639
USER: genes 20 Torsion [CA]-CB--CG-[CD2] |==|  0.09925
ROOT
ATOM      1  CA  LEU C   5     -12.108   9.640  21.014  1.00 25.10 LIG 0.18  C 
ENDROOT
BRANCH 1 2
ATOM      2  N   LEU C   5     -12.938   8.896  22.044  1.00 25.35 LIG-0.35  N 
ATOM      3  C   GLY C   4     -14.215   8.516  21.750  1.00 24.95 LIG 0.24  C 
ATOM      4 O    GLY C   4     -14.717   8.795  20.655  1.00 25.89 LIG-0.27  OA
ATOM      5 H    LEU C   5     -12.543   8.746  22.793  1.00 25.35 LIG 0.16  HD
BRANCH 3 6
ATOM      6  CA  GLY C   4     -15.011   7.746  22.746  1.00 25.42 LIG 0.23  C 
BRANCH 6 7
ATOM      7  N   GLY C   4     -14.476   7.627  24.103  1.00 25.00 LIG-0.35  N 
ATOM      8  C   PHE C   3     -14.519   8.640  25.004  1.00 25.70 LIG 0.24  C 
ATOM      9 O    PHE C   3     -15.062   9.735  24.761  1.00 20.17 LIG-0.27  OA
ATOM     10 H    GLY C   4     -14.134   6.857  24.274  1.00 25.00 LIG 0.16  HD
BRANCH 8 11
ATOM     11  CA  PHE C   3     -14.005   8.323  26.407  1.00 26.56 LIG 0.18  C 
BRANCH 11 12
ATOM     12  CB  PHE C   3     -14.542   9.368  27.365  1.00 27.24 LIG 0.07  C 
BRANCH 12 13
ATOM     13  CG  PHE C   3     -14.672   8.888  28.746  1.00 26.12 LIG-0.06  A 
ATOM     14  CD1 PHE C   3     -15.750   8.088  29.089  1.00 28.42 LIG 0.01  A 
ATOM     15  CE1 PHE C   3     -15.891   7.581  30.388  1.00 27.55 LIG 0.00  A 
ATOM     16  CZ  PHE C   3     -14.971   7.985  31.409  1.00 28.40 LIG 0.00  A 
ATOM     17  CE2 PHE C   3     -13.873   8.796  31.067  1.00 22.84 LIG 0.00  A 
ATOM     18  CD2 PHE C   3     -13.754   9.288  29.743  1.00 25.80 LIG 0.01  A 
ENDBRANCH 12 13
ENDBRANCH 11 12
BRANCH 11 19
ATOM     19  N   PHE C   3     -12.535   8.325  26.433  1.00 29.45 LIG-0.35  N 
ATOM     20 H    PHE C   3     -12.177   7.702  26.906  1.00 29.45 LIG 0.16  HD
ATOM     21  C   GLY C   2     -11.854   9.248  25.754  1.00 31.80 LIG 0.25  C 
ATOM     22 O    GLY C   2     -12.412  10.233  25.202  1.00 33.21 LIG-0.27  OA
BRANCH 21 23
ATOM     23  CA  GLY C   2     -10.334   9.103  25.777  1.00 32.25 LIG 0.47  C 
ATOM     24  N   GLY C   2      -9.627  10.384  25.449  1.00 32.96 LIG 0.61  N 
ENDBRANCH 21 23
ENDBRANCH 11 19
ENDBRANCH 8 11
ENDBRANCH 6 7
ENDBRANCH 3 6
ENDBRANCH 1 2
BRANCH 1 25
ATOM     25  C   LEU C   5     -12.614  11.039  20.635  1.00 23.49 LIG 0.24  C 
ATOM     26  N   PHE C   6     -13.446  11.640  21.489  1.00 22.96 LIG-0.35  N 
ATOM     27 H    PHE C   6     -13.684  11.310  22.247  1.00 22.96 LIG 0.16  HD
ATOM     28 O    LEU C   5     -12.153  11.613  19.621  1.00 25.98 LIG-0.27  OA
BRANCH 26 29
ATOM     29  CA  PHE C   6     -14.037  12.965  21.175  1.00 22.19 LIG 0.18  C 
BRANCH 29 30
ATOM     30  C   PHE C   6     -13.782  14.069  22.199  1.00 17.26 LIG 0.24  C 
ATOM     31 O    PHE C   6     -14.130  15.199  22.027  1.00 22.18 LIG-0.27  OA
ATOM     32  N   ASP C   7     -13.120  13.704  23.302  1.00 22.18 LIG-0.35  N 
ATOM     33 H    ASP C   7     -12.855  12.902  23.462  1.00 22.18 LIG 0.16  HD
BRANCH 32 34
ATOM     34  CA  ASP C   7     -12.788  14.678  24.353  1.00 22.70 LIG 0.17  C 
BRANCH 34 35
ATOM     35  C   ASP C   7     -13.984  15.356  24.966  1.00 27.36 LIG 0.22  C 
ATOM     36 O    ASP C   7     -15.018  14.713  25.269  1.00 28.20 LIG-0.29  OA
ENDBRANCH 34 35
BRANCH 34 37
ATOM     37  CB  ASP C   7     -11.877  15.763  23.764  1.00 23.18 LIG 0.15  C 
BRANCH 37 38
ATOM     38  CG  ASP C   7     -12.406  17.164  23.968  1.00 26.80 LIG 0.17  C 
ATOM     39 OD2  ASP C   7     -11.959  17.818  24.962  1.00 27.82 LIG-0.65  OA
ATOM     40 OD1  ASP C   7     -13.300  17.580  23.151  1.00 32.15 LIG-0.65  OA
ENDBRANCH 37 38
ENDBRANCH 34 37
ENDBRANCH 32 34
ENDBRANCH 29 30
BRANCH 29 41
ATOM     41  CB  PHE C   6     -15.540  12.852  20.824  1.00 21.19 LIG 0.07  C 
BRANCH 41 42
ATOM     42  CG  PHE C   6     -15.837  13.128  19.393  1.00 25.43 LIG-0.06  A 
ATOM     43  CD2 PHE C   6     -15.597  12.174  18.392  1.00 26.31 LIG 0.01  A 
ATOM     44  CE2 PHE C   6     -15.951  12.450  17.074  1.00 29.51 LIG 0.00  A 
ATOM     45  CZ  PHE C   6     -16.460  13.703  16.712  1.00 25.82 LIG 0.00  A 
ATOM     46  CE1 PHE C   6     -16.669  14.650  17.679  1.00 26.71 LIG 0.00  A 
ATOM     47  CD1 PHE C   6     -16.333  14.363  19.027  1.00 21.41 LIG 0.01  A 
ENDBRANCH 41 42
ENDBRANCH 29 41
ENDBRANCH 26 29
ENDBRANCH 1 25
BRANCH 1 48
ATOM     48  CB  LEU C   5     -11.769   8.867  19.684  1.00 26.63 LIG 0.04  C 
BRANCH 48 49
ATOM     49  CG  LEU C   5     -10.638   7.894  19.724  1.00 31.82 LIG-0.02  C 
ATOM     50  CD2 LEU C   5     -10.670   7.222  21.145  1.00 33.90 LIG 0.01  C 
ATOM     51  CD1 LEU C   5      -9.284   8.548  19.425  1.00 30.04 LIG 0.01  C 
ENDBRANCH 48 49
ENDBRANCH 1 48
TORSDOF 19
ENDMDL
MODEL 20
USER: ADFR SOLUTION from run 97
USER: SCORE 15.265249 LL:  -4.175 LR: -11.971 RR:   0.000 FEB:  -6.303
USER: RMSD 4.644099
USER: SEED 96
USER: STATUS no improvement in best in 19 clusters for 5 generations
USER: GENES 21
USER: genes 0 Translation |==|  0.64496 0.52891 0.53094
USER: genes 1 Rotation |==|  0.82403 0.69011 0.34711 0.79238
USER: genes 2 Torsion [C]-CA--N-[C] |==|  0.21441
USER: genes 3 Torsion [N]-C--CA-[N] |==|  0.97532
USER: genes 4 Torsion [C]-CA--N-[C] |==|  0.80416
USER: genes 5 Torsion [N]-C--CA-[N] |==|  0.96227
USER: genes 6 Torsion [C]-CA--CB-[CG] |==|  0.16500
USER: genes 7 Torsion [CA]-CB--CG-[CD1] |==|  0.71799
USER: genes 8 Torsion [C]-CA--N-[C] |==|  0.79494
USER: genes 9 Torsion [N]-C--CA-[N] |==|  0.41502
USER: genes 10 Torsion [N]-CA--C-[N] |==|  0.86657
USER: genes 11 Torsion [C]-N--CA-[C] |==|  0.71191
USER: genes 12 Torsion [N]-CA--C-[N] |==|  0.35514
USER: genes 13 Torsion [C]-N--CA-[C] |==|  0.14065
USER: genes 14 Torsion [N]-CA--C-[O] |==|  0.16677
USER: genes 15 Torsion [N]-CA--CB-[CG] |==|  0.90724
USER: genes 16 Torsion [CA]-CB--CG-[OD1] |==|  0.28020
USER: genes 17 Torsion [N]-CA--CB-[CG] |==|  0.00058
USER: genes 18 Torsion [CA]-CB--CG-[CD2] |==|  0.79805
USER: genes 19 Torsion [N]-CA--CB-[CG] |==|  0.50299
USER: genes 20 Torsion [CA]-CB--CG-[CD2] |==|  0.52601
ROOT
ATOM      1  CA  LEU C   5     -12.207   8.583  23.330  1.00 25.10 LIG 0.18  C 
ENDROOT
BRANCH 1 2
ATOM      2  N   LEU C   5     -13.586   8.104  23.743  1.00 25.35 LIG-0.35  N 
ATOM      3  C   GLY C   4     -14.630   8.187  22.870  1.00 24.95 LIG 0.24  C 
ATOM      4 O    GLY C   4     -14.471   8.674  21.744  1.00 25.89 LIG-0.27  OA
ATOM      5 H    LEU C   5     -13.640   7.792  24.543  1.00 25.35 LIG 0.16  HD
BRANCH 3 6
ATOM      6  CA  GLY C   4     -15.973   7.675  23.263  1.00 25.42 LIG 0.23  C 
BRANCH 6 7
ATOM      7  N   GLY C   4     -16.076   6.917  24.510  1.00 25.00 LIG-0.35  N 
ATOM      8  C   PHE C   3     -15.566   5.669  24.660  1.00 25.70 LIG 0.24  C 
ATOM      9 O    PHE C   3     -14.926   5.092  23.761  1.00 20.17 LIG-0.27  OA
ATOM     10 H    GLY C   4     -16.489   7.336  25.137  1.00 25.00 LIG 0.16  HD
BRANCH 8 11
ATOM     11  CA  PHE C   3     -15.673   5.053  26.054  1.00 26.56 LIG 0.18  C 
BRANCH 11 12
ATOM     12  CB  PHE C   3     -16.731   3.969  26.022  1.00 27.24 LIG 0.07  C 
BRANCH 12 13
ATOM     13  CG  PHE C   3     -16.443   2.895  25.063  1.00 26.12 LIG-0.06  A 
ATOM     14  CD1 PHE C   3     -17.099   2.880  23.842  1.00 28.42 LIG 0.01  A 
ATOM     15  CE1 PHE C   3     -16.826   1.892  22.887  1.00 27.55 LIG 0.00  A 
ATOM     16  CZ  PHE C   3     -15.941   0.814  23.215  1.00 28.40 LIG 0.00  A 
ATOM     17  CE2 PHE C   3     -15.271   0.825  24.453  1.00 22.84 LIG 0.00  A 
ATOM     18  CD2 PHE C   3     -15.563   1.840  25.396  1.00 25.80 LIG 0.01  A 
ENDBRANCH 12 13
ENDBRANCH 11 12
BRANCH 11 19
ATOM     19  N   PHE C   3     -16.031   6.077  27.045  1.00 29.45 LIG-0.35  N 
ATOM     20 H    PHE C   3     -16.842   6.041  27.331  1.00 29.45 LIG 0.16  HD
ATOM     21  C   GLY C   2     -15.127   6.973  27.440  1.00 31.80 LIG 0.25  C 
ATOM     22 O    GLY C   2     -14.001   7.089  26.888  1.00 33.21 LIG-0.27  OA
BRANCH 21 23
ATOM     23  CA  GLY C   2     -15.579   7.933  28.539  1.00 32.25 LIG 0.47  C 
ATOM     24  N   GLY C   2     -14.449   8.373  29.421  1.00 32.96 LIG 0.61  N 
ENDBRANCH 21 23
ENDBRANCH 11 19
ENDBRANCH 8 11
ENDBRANCH 6 7
ENDBRANCH 3 6
ENDBRANCH 1 2
BRANCH 1 25
ATOM     25  C   LEU C   5     -11.999  10.104  23.335  1.00 23.49 LIG 0.24  C 
ATOM     26  N   PHE C   6     -12.932  10.849  22.737  1.00 22.96 LIG-0.35  N 
ATOM     27 H    PHE C   6     -13.652  10.535  22.386  1.00 22.96 LIG 0.16  HD
ATOM     28 O    LEU C   5     -11.050  10.599  23.984  1.00 25.98 LIG-0.27  OA
BRANCH 26 29
ATOM     29  CA  PHE C   6     -12.783  12.322  22.637  1.00 22.19 LIG 0.18  C 
BRANCH 29 30
ATOM     30  C   PHE C   6     -13.633  13.147  23.600  1.00 17.26 LIG 0.24  C 
ATOM     31 O    PHE C   6     -14.817  13.012  23.692  1.00 22.18 LIG-0.27  OA
ATOM     32  N   ASP C   7     -12.977  14.057  24.329  1.00 22.18 LIG-0.35  N 
ATOM     33 H    ASP C   7     -12.127  14.183  24.291  1.00 22.18 LIG 0.16  HD
BRANCH 32 34
ATOM     34  CA  ASP C   7     -13.684  14.934  25.274  1.00 22.70 LIG 0.17  C 
BRANCH 34 35
ATOM     35  C   ASP C   7     -14.596  14.208  26.227  1.00 27.36 LIG 0.22  C 
ATOM     36 O    ASP C   7     -14.157  13.340  27.019  1.00 28.20 LIG-0.29  OA
ENDBRANCH 34 35
BRANCH 34 37
ATOM     37  CB  ASP C   7     -14.528  15.946  24.488  1.00 23.18 LIG 0.15  C 
BRANCH 37 38
ATOM     38  CG  ASP C   7     -13.899  16.360  23.177  1.00 26.80 LIG 0.17  C 
ATOM     39 OD2  ASP C   7     -13.000  17.258  23.218  1.00 27.82 LIG-0.65  OA
ATOM     40 OD1  ASP C   7     -14.347  15.810  22.110  1.00 32.15 LIG-0.65  OA
ENDBRANCH 37 38
ENDBRANCH 34 37
ENDBRANCH 32 34
ENDBRANCH 29 30
BRANCH 29 41
ATOM     41  CB  PHE C   6     -12.941  12.814  21.177  1.00 21.19 LIG 0.07  C 
BRANCH 41 42
ATOM     42  CG  PHE C   6     -13.209  11.719  20.208  1.00 25.43 LIG-0.06  A 
ATOM     43  CD2 PHE C   6     -12.210  10.811  19.826  1.00 26.31 LIG 0.01  A 
ATOM     44  CE2 PHE C   6     -12.521   9.760  18.967  1.00 29.51 LIG 0.00  A 
ATOM     45  CZ  PHE C   6     -13.797   9.647  18.400  1.00 25.82 LIG 0.00  A 
ATOM     46  CE1 PHE C   6     -14.768  10.549  18.744  1.00 26.71 LIG 0.00  A 
ATOM     47  CD1 PHE C   6     -14.462  11.605  19.640  1.00 21.41 LIG 0.01  A 
ENDBRANCH 41 42
ENDBRANCH 29 41
ENDBRANCH 26 29
ENDBRANCH 1 25
BRANCH 1 48
ATOM     48  CB  LEU C   5     -11.637   8.018  21.974  1.00 26.63 LIG 0.04  C 
BRANCH 48 49
ATOM     49  CG  LEU C   5     -10.271   8.459  21.564  1.00 31.82 LIG-0.02  C 
ATOM     50  CD2 LEU C   5     -10.057   7.954  20.091  1.00 33.90 LIG 0.01  C 
ATOM     51  CD1 LEU C   5      -9.177   7.954  22.513  1.00 30.04 LIG 0.01  C 
ENDBRANCH 48 49
ENDBRANCH 1 48
TORSDOF 19
ENDMDL
MODEL 21
USER: ADFR SOLUTION from run 42
USER: SCORE 15.150830 LL:  -3.835 LR: -11.960 RR:   0.000 FEB:  -6.293
USER: RMSD 4.386905
USER: SEED 41
USER: STATUS no improvement in best in 14 clusters for 5 generations
USER: GENES 21
USER: genes 0 Translation |==|  0.66702 0.56999 0.64530
USER: genes 1 Rotation |==|  0.69085 0.62740 0.42868 0.93847
USER: genes 2 Torsion [C]-CA--N-[C] |==|  0.82994
USER: genes 3 Torsion [N]-C--CA-[N] |==|  0.91330
USER: genes 4 Torsion [C]-CA--N-[C] |==|  0.28633
USER: genes 5 Torsion [N]-C--CA-[N] |==|  0.05341
USER: genes 6 Torsion [C]-CA--CB-[CG] |==|  0.44166
USER: genes 7 Torsion [CA]-CB--CG-[CD1] |==|  0.67849
USER: genes 8 Torsion [C]-CA--N-[C] |==|  0.71018
USER: genes 9 Torsion [N]-C--CA-[N] |==|  0.63716
USER: genes 10 Torsion [N]-CA--C-[N] |==|  0.87643
USER: genes 11 Torsion [C]-N--CA-[C] |==|  0.77292
USER: genes 12 Torsion [N]-CA--C-[N] |==|  0.27871
USER: genes 13 Torsion [C]-N--CA-[C] |==|  0.79092
USER: genes 14 Torsion [N]-CA--C-[O] |==|  0.08876
USER: genes 15 Torsion [N]-CA--CB-[CG] |==|  0.24231
USER: genes 16 Torsion [CA]-CB--CG-[OD1] |==|  0.77757
USER: genes 17 Torsion [N]-CA--CB-[CG] |==|  0.87800
USER: genes 18 Torsion [CA]-CB--CG-[CD2] |==|  0.73891
USER: genes 19 Torsion [N]-CA--CB-[CG] |==|  0.38328
USER: genes 20 Torsion [CA]-CB--CG-[CD2] |==|  0.55919
ROOT
ATOM      1  CA  LEU C   5     -11.810   9.476  25.388  1.00 25.10 LIG 0.18  C 
ENDROOT
BRANCH 1 2
ATOM      2  N   LEU C   5     -13.051   8.647  25.661  1.00 25.35 LIG-0.35  N 
ATOM      3  C   GLY C   4     -14.143   9.220  26.243  1.00 24.95 LIG 0.24  C 
ATOM      4 O    GLY C   4     -14.126  10.411  26.576  1.00 25.89 LIG-0.27  OA
ATOM      5 H    LEU C   5     -12.998   7.822  25.424  1.00 25.35 LIG 0.16  HD
BRANCH 3 6
ATOM      6  CA  GLY C   4     -15.376   8.414  26.468  1.00 25.42 LIG 0.23  C 
BRANCH 6 7
ATOM      7  N   GLY C   4     -15.674   7.342  25.519  1.00 25.00 LIG-0.35  N 
ATOM      8  C   PHE C   3     -15.458   6.031  25.794  1.00 25.70 LIG 0.24  C 
ATOM      9 O    PHE C   3     -15.035   5.636  26.898  1.00 20.17 LIG-0.27  OA
ATOM     10 H    GLY C   4     -15.998   7.619  24.772  1.00 25.00 LIG 0.16  HD
BRANCH 8 11
ATOM     11  CA  PHE C   3     -15.912   5.029  24.734  1.00 26.56 LIG 0.18  C 
BRANCH 11 12
ATOM     12  CB  PHE C   3     -14.869   3.935  24.626  1.00 27.24 LIG 0.07  C 
BRANCH 12 13
ATOM     13  CG  PHE C   3     -15.379   2.693  24.034  1.00 26.12 LIG-0.06  A 
ATOM     14  CD1 PHE C   3     -15.416   1.539  24.801  1.00 28.42 LIG 0.01  A 
ATOM     15  CE1 PHE C   3     -15.928   0.342  24.282  1.00 27.55 LIG 0.00  A 
ATOM     16  CZ  PHE C   3     -16.316   0.276  22.905  1.00 28.40 LIG 0.00  A 
ATOM     17  CE2 PHE C   3     -16.282   1.444  22.122  1.00 22.84 LIG 0.00  A 
ATOM     18  CD2 PHE C   3     -15.765   2.641  22.675  1.00 25.80 LIG 0.01  A 
ENDBRANCH 12 13
ENDBRANCH 11 12
BRANCH 11 19
ATOM     19  N   PHE C   3     -16.081   5.693  23.434  1.00 29.45 LIG-0.35  N 
ATOM     20 H    PHE C   3     -15.350   5.879  23.020  1.00 29.45 LIG 0.16  HD
ATOM     21  C   GLY C   2     -17.302   5.965  22.975  1.00 31.80 LIG 0.25  C 
ATOM     22 O    GLY C   2     -18.339   5.819  23.675  1.00 33.21 LIG-0.27  OA
BRANCH 21 23
ATOM     23  CA  GLY C   2     -17.365   6.574  21.575  1.00 32.25 LIG 0.47  C 
ATOM     24  N   GLY C   2     -18.230   7.798  21.516  1.00 32.96 LIG 0.61  N 
ENDBRANCH 21 23
ENDBRANCH 11 19
ENDBRANCH 8 11
ENDBRANCH 6 7
ENDBRANCH 3 6
ENDBRANCH 1 2
BRANCH 1 25
ATOM     25  C   LEU C   5     -11.997  10.662  24.432  1.00 23.49 LIG 0.24  C 
ATOM     26  N   PHE C   6     -12.705  10.444  23.321  1.00 22.96 LIG-0.35  N 
ATOM     27 H    PHE C   6     -13.088   9.698  23.128  1.00 22.96 LIG 0.16  HD
ATOM     28 O    LEU C   5     -11.595  11.800  24.766  1.00 25.98 LIG-0.27  OA
BRANCH 26 29
ATOM     29  CA  PHE C   6     -12.883  11.514  22.307  1.00 22.19 LIG 0.18  C 
BRANCH 29 30
ATOM     30  C   PHE C   6     -13.982  12.532  22.598  1.00 17.26 LIG 0.24  C 
ATOM     31 O    PHE C   6     -15.136  12.317  22.372  1.00 22.18 LIG-0.27  OA
ATOM     32  N   ASP C   7     -13.579  13.704  23.103  1.00 22.18 LIG-0.35  N 
ATOM     33 H    ASP C   7     -12.759  13.895  23.279  1.00 22.18 LIG 0.16  HD
BRANCH 32 34
ATOM     34  CA  ASP C   7     -14.535  14.780  23.402  1.00 22.70 LIG 0.17  C 
BRANCH 34 35
ATOM     35  C   ASP C   7     -15.045  15.507  22.186  1.00 27.36 LIG 0.22  C 
ATOM     36 O    ASP C   7     -15.186  14.922  21.085  1.00 28.20 LIG-0.29  OA
ENDBRANCH 34 35
BRANCH 34 37
ATOM     37  CB  ASP C   7     -13.865  15.808  24.323  1.00 23.18 LIG 0.15  C 
BRANCH 37 38
ATOM     38  CG  ASP C   7     -13.102  16.876  23.573  1.00 26.80 LIG 0.17  C 
ATOM     39 OD2  ASP C   7     -13.691  17.985  23.378  1.00 27.82 LIG-0.65  OA
ATOM     40 OD1  ASP C   7     -11.933  16.574  23.148  1.00 32.15 LIG-0.65  OA
ENDBRANCH 37 38
ENDBRANCH 34 37
ENDBRANCH 32 34
ENDBRANCH 29 30
BRANCH 29 41
ATOM     41  CB  PHE C   6     -13.012  10.932  20.878  1.00 21.19 LIG 0.07  C 
BRANCH 41 42
ATOM     42  CG  PHE C   6     -12.029   9.856  20.586  1.00 25.43 LIG-0.06  A 
ATOM     43  CD2 PHE C   6     -10.801  10.128  19.963  1.00 26.31 LIG 0.01  A 
ATOM     44  CE2 PHE C   6      -9.882   9.100  19.768  1.00 29.51 LIG 0.00  A 
ATOM     45  CZ  PHE C   6     -10.199   7.777  20.100  1.00 25.82 LIG 0.00  A 
ATOM     46  CE1 PHE C   6     -11.408   7.500  20.679  1.00 26.71 LIG 0.00  A 
ATOM     47  CD1 PHE C   6     -12.337   8.548  20.904  1.00 21.41 LIG 0.01  A 
ENDBRANCH 41 42
ENDBRANCH 29 41
ENDBRANCH 26 29
ENDBRANCH 1 25
BRANCH 1 48
ATOM     48  CB  LEU C   5     -10.517   8.693  24.945  1.00 26.63 LIG 0.04  C 
BRANCH 48 49
ATOM     49  CG  LEU C   5      -9.699   9.281  23.844  1.00 31.82 LIG-0.02  C 
ATOM     50  CD2 LEU C   5      -8.849   8.107  23.236  1.00 33.90 LIG 0.01  C 
ATOM     51  CD1 LEU C   5      -8.821  10.446  24.316  1.00 30.04 LIG 0.01  C 
ENDBRANCH 48 49
ENDBRANCH 1 48
TORSDOF 19
ENDMDL
MODEL 22
USER: ADFR SOLUTION from run 63
USER: SCORE 15.167161 LL:  -4.439 LR: -11.934 RR:   0.000 FEB:  -6.267
USER: RMSD 3.515073
USER: SEED 62
USER: STATUS no improvement in best in 7 clusters for 5 generations
USER: GENES 21
USER: genes 0 Translation |==|  0.67495 0.57857 0.62465
USER: genes 1 Rotation |==|  0.60288 0.74565 0.35888 0.89894
USER: genes 2 Torsion [C]-CA--N-[C] |==|  0.14545
USER: genes 3 Torsion [N]-C--CA-[N] |==|  0.66016
USER: genes 4 Torsion [C]-CA--N-[C] |==|  0.74529
USER: genes 5 Torsion [N]-C--CA-[N] |==|  0.40712
USER: genes 6 Torsion [C]-CA--CB-[CG] |==|  0.53400
USER: genes 7 Torsion [CA]-CB--CG-[CD1] |==|  0.87631
USER: genes 8 Torsion [C]-CA--N-[C] |==|  0.76713
USER: genes 9 Torsion [N]-C--CA-[N] |==|  0.51512
USER: genes 10 Torsion [N]-CA--C-[N] |==|  0.68184
USER: genes 11 Torsion [C]-N--CA-[C] |==|  0.76407
USER: genes 12 Torsion [N]-CA--C-[N] |==|  0.92297
USER: genes 13 Torsion [C]-N--CA-[C] |==|  0.50872
USER: genes 14 Torsion [N]-CA--C-[O] |==|  0.01334
USER: genes 15 Torsion [N]-CA--CB-[CG] |==|  0.17906
USER: genes 16 Torsion [CA]-CB--CG-[OD1] |==|  0.74166
USER: genes 17 Torsion [N]-CA--CB-[CG] |==|  0.02017
USER: genes 18 Torsion [CA]-CB--CG-[CD2] |==|  0.69405
USER: genes 19 Torsion [N]-CA--CB-[CG] |==|  0.60670
USER: genes 20 Torsion [CA]-CB--CG-[CD2] |==|  0.41914
ROOT
ATOM      1  CA  LEU C   5     -11.667   9.663  25.017  1.00 25.10 LIG 0.18  C 
ENDROOT
BRANCH 1 2
ATOM      2  N   LEU C   5     -12.452   9.017  26.143  1.00 25.35 LIG-0.35  N 
ATOM      3  C   GLY C   4     -13.607   8.343  25.875  1.00 24.95 LIG 0.24  C 
ATOM      4 O    GLY C   4     -14.038   8.271  24.718  1.00 25.89 LIG-0.27  OA
ATOM      5 H    LEU C   5     -12.113   9.115  26.928  1.00 25.35 LIG 0.16  HD
BRANCH 3 6
ATOM      6  CA  GLY C   4     -14.351   7.672  26.977  1.00 25.42 LIG 0.23  C 
BRANCH 6 7
ATOM      7  N   GLY C   4     -14.595   6.234  26.861  1.00 25.00 LIG-0.35  N 
ATOM      8  C   PHE C   3     -15.716   5.719  26.296  1.00 25.70 LIG 0.24  C 
ATOM      9 O    PHE C   3     -16.602   6.433  25.789  1.00 20.17 LIG-0.27  OA
ATOM     10 H    GLY C   4     -13.963   5.748  27.182  1.00 25.00 LIG 0.16  HD
BRANCH 8 11
ATOM     11  CA  PHE C   3     -15.775   4.199  26.164  1.00 26.56 LIG 0.18  C 
BRANCH 11 12
ATOM     12  CB  PHE C   3     -15.241   3.812  24.799  1.00 27.24 LIG 0.07  C 
BRANCH 12 13
ATOM     13  CG  PHE C   3     -15.506   2.413  24.439  1.00 26.12 LIG-0.06  A 
ATOM     14  CD1 PHE C   3     -15.292   1.418  25.379  1.00 28.42 LIG 0.01  A 
ATOM     15  CE1 PHE C   3     -15.566   0.075  25.085  1.00 27.55 LIG 0.00  A 
ATOM     16  CZ  PHE C   3     -15.966  -0.292  23.759  1.00 28.40 LIG 0.00  A 
ATOM     17  CE2 PHE C   3     -16.186   0.715  22.801  1.00 22.84 LIG 0.00  A 
ATOM     18  CD2 PHE C   3     -15.907   2.064  23.130  1.00 25.80 LIG 0.01  A 
ENDBRANCH 12 13
ENDBRANCH 11 12
BRANCH 11 19
ATOM     19  N   PHE C   3     -17.155   3.719  26.320  1.00 29.45 LIG-0.35  N 
ATOM     20 H    PHE C   3     -17.582   3.591  25.584  1.00 29.45 LIG 0.16  HD
ATOM     21  C   GLY C   2     -17.660   3.512  27.536  1.00 31.80 LIG 0.25  C 
ATOM     22 O    GLY C   2     -17.058   3.856  28.587  1.00 33.21 LIG-0.27  OA
BRANCH 21 23
ATOM     23  CA  GLY C   2     -19.071   2.928  27.579  1.00 32.25 LIG 0.47  C 
ATOM     24  N   GLY C   2     -19.619   2.846  28.972  1.00 32.96 LIG 0.61  N 
ENDBRANCH 21 23
ENDBRANCH 11 19
ENDBRANCH 8 11
ENDBRANCH 6 7
ENDBRANCH 3 6
ENDBRANCH 1 2
BRANCH 1 25
ATOM     25  C   LEU C   5     -12.466  10.597  24.097  1.00 23.49 LIG 0.24  C 
ATOM     26  N   PHE C   6     -12.612  10.221  22.824  1.00 22.96 LIG-0.35  N 
ATOM     27 H    PHE C   6     -12.321   9.479  22.501  1.00 22.96 LIG 0.16  HD
ATOM     28 O    LEU C   5     -13.043  11.599  24.578  1.00 25.98 LIG-0.27  OA
BRANCH 26 29
ATOM     29  CA  PHE C   6     -13.314  11.092  21.847  1.00 22.19 LIG 0.18  C 
BRANCH 29 30
ATOM     30  C   PHE C   6     -14.834  10.963  21.809  1.00 17.26 LIG 0.24  C 
ATOM     31 O    PHE C   6     -15.550  11.867  21.497  1.00 22.18 LIG-0.27  OA
ATOM     32  N   ASP C   7     -15.331   9.775  22.172  1.00 22.18 LIG-0.35  N 
ATOM     33 H    ASP C   7     -14.850   9.101  22.403  1.00 22.18 LIG 0.16  HD
BRANCH 32 34
ATOM     34  CA  ASP C   7     -16.781   9.530  22.205  1.00 22.70 LIG 0.17  C 
BRANCH 34 35
ATOM     35  C   ASP C   7     -17.164   8.163  22.708  1.00 27.36 LIG 0.22  C 
ATOM     36 O    ASP C   7     -16.304   7.361  23.144  1.00 28.20 LIG-0.29  OA
ENDBRANCH 34 35
BRANCH 34 37
ATOM     37  CB  ASP C   7     -17.352   9.692  20.790  1.00 23.18 LIG 0.15  C 
BRANCH 37 38
ATOM     38  CG  ASP C   7     -16.826   8.666  19.811  1.00 26.80 LIG 0.17  C 
ATOM     39 OD2  ASP C   7     -17.415   7.541  19.773  1.00 27.82 LIG-0.65  OA
ATOM     40 OD1  ASP C   7     -15.796   8.987  19.121  1.00 32.15 LIG-0.65  OA
ENDBRANCH 37 38
ENDBRANCH 34 37
ENDBRANCH 32 34
ENDBRANCH 29 30
BRANCH 29 41
ATOM     41  CB  PHE C   6     -12.699  10.973  20.432  1.00 21.19 LIG 0.07  C 
BRANCH 41 42
ATOM     42  CG  PHE C   6     -11.671   9.905  20.319  1.00 25.43 LIG-0.06  A 
ATOM     43  CD2 PHE C   6     -10.310  10.204  20.151  1.00 26.31 LIG 0.01  A 
ATOM     44  CE2 PHE C   6      -9.374   9.174  20.117  1.00 29.51 LIG 0.00  A 
ATOM     45  CZ  PHE C   6      -9.777   7.833  20.155  1.00 25.82 LIG 0.00  A 
ATOM     46  CE1 PHE C   6     -11.106   7.533  20.287  1.00 26.71 LIG 0.00  A 
ATOM     47  CD1 PHE C   6     -12.060   8.580  20.349  1.00 21.41 LIG 0.01  A 
ENDBRANCH 41 42
ENDBRANCH 29 41
ENDBRANCH 26 29
ENDBRANCH 1 25
BRANCH 1 48
ATOM     48  CB  LEU C   5     -10.809   8.702  24.109  1.00 26.63 LIG 0.04  C 
BRANCH 48 49
ATOM     49  CG  LEU C   5      -9.475   9.194  23.656  1.00 31.82 LIG-0.02  C 
ATOM     50  CD2 LEU C   5      -8.565   7.925  23.470  1.00 33.90 LIG 0.01  C 
ATOM     51  CD1 LEU C   5      -8.858  10.210  24.625  1.00 30.04 LIG 0.01  C 
ENDBRANCH 48 49
ENDBRANCH 1 48
TORSDOF 19
ENDMDL
MODEL 23
USER: ADFR SOLUTION from run 70
USER: SCORE 15.408250 LL:  -4.266 LR: -11.907 RR:   0.000 FEB:  -6.240
USER: RMSD 3.226162
USER: SEED 69
USER: STATUS no improvement in best in 10 clusters for 5 generations
USER: GENES 21
USER: genes 0 Translation |==|  0.59759 0.70169 0.55724
USER: genes 1 Rotation |==|  0.42438 0.53035 0.74866 0.92606
USER: genes 2 Torsion [C]-CA--N-[C] |==|  0.16383
USER: genes 3 Torsion [N]-C--CA-[N] |==|  0.01173
USER: genes 4 Torsion [C]-CA--N-[C] |==|  0.16836
USER: genes 5 Torsion [N]-C--CA-[N] |==|  0.17624
USER: genes 6 Torsion [C]-CA--CB-[CG] |==|  0.22883
USER: genes 7 Torsion [CA]-CB--CG-[CD1] |==|  0.64273
USER: genes 8 Torsion [C]-CA--N-[C] |==|  0.75008
USER: genes 9 Torsion [N]-C--CA-[N] |==|  0.50796
USER: genes 10 Torsion [N]-CA--C-[N] |==|  0.07122
USER: genes 11 Torsion [C]-N--CA-[C] |==|  0.78794
USER: genes 12 Torsion [N]-CA--C-[N] |==|  0.99820
USER: genes 13 Torsion [C]-N--CA-[C] |==|  0.60363
USER: genes 14 Torsion [N]-CA--C-[O] |==|  0.09843
USER: genes 15 Torsion [N]-CA--CB-[CG] |==|  0.97804
USER: genes 16 Torsion [CA]-CB--CG-[OD1] |==|  0.17759
USER: genes 17 Torsion [N]-CA--CB-[CG] |==|  0.86194
USER: genes 18 Torsion [CA]-CB--CG-[CD2] |==|  0.33782
USER: genes 19 Torsion [N]-CA--CB-[CG] |==|  0.54712
USER: genes 20 Torsion [CA]-CB--CG-[CD2] |==|  0.45856
ROOT
ATOM      1  CA  LEU C   5     -13.059  12.341  23.803  1.00 25.10 LIG 0.18  C 
ENDROOT
BRANCH 1 2
ATOM      2  N   LEU C   5     -12.825  11.079  24.613  1.00 25.35 LIG-0.35  N 
ATOM      3  C   GLY C   4     -11.640  10.410  24.511  1.00 24.95 LIG 0.24  C 
ATOM      4 O    GLY C   4     -10.758  10.809  23.742  1.00 25.89 LIG-0.27  OA
ATOM      5 H    LEU C   5     -13.480  10.841  25.116  1.00 25.35 LIG 0.16  HD
BRANCH 3 6
ATOM      6  CA  GLY C   4     -11.396   9.197  25.341  1.00 25.42 LIG 0.23  C 
BRANCH 6 7
ATOM      7  N   GLY C   4     -12.493   8.711  26.178  1.00 25.00 LIG-0.35  N 
ATOM      8  C   PHE C   3     -13.685   8.308  25.672  1.00 25.70 LIG 0.24  C 
ATOM      9 O    PHE C   3     -13.920   8.275  24.449  1.00 20.17 LIG-0.27  OA
ATOM     10 H    GLY C   4     -12.311   8.703  27.019  1.00 25.00 LIG 0.16  HD
BRANCH 8 11
ATOM     11  CA  PHE C   3     -14.690   7.736  26.670  1.00 26.56 LIG 0.18  C 
BRANCH 11 12
ATOM     12  CB  PHE C   3     -15.905   7.250  25.907  1.00 27.24 LIG 0.07  C 
BRANCH 12 13
ATOM     13  CG  PHE C   3     -15.741   5.909  25.333  1.00 26.12 LIG-0.06  A 
ATOM     14  CD1 PHE C   3     -16.016   5.706  23.990  1.00 28.42 LIG 0.01  A 
ATOM     15  CE1 PHE C   3     -15.838   4.449  23.397  1.00 27.55 LIG 0.00  A 
ATOM     16  CZ  PHE C   3     -15.474   3.327  24.211  1.00 28.40 LIG 0.00  A 
ATOM     17  CE2 PHE C   3     -15.191   3.527  25.574  1.00 22.84 LIG 0.00  A 
ATOM     18  CD2 PHE C   3     -15.374   4.811  26.144  1.00 25.80 LIG 0.01  A 
ENDBRANCH 12 13
ENDBRANCH 11 12
BRANCH 11 19
ATOM     19  N   PHE C   3     -15.086   8.759  27.648  1.00 29.45 LIG-0.35  N 
ATOM     20 H    PHE C   3     -15.771   9.231  27.427  1.00 29.45 LIG 0.16  HD
ATOM     21  C   GLY C   2     -14.400   8.904  28.782  1.00 31.80 LIG 0.25  C 
ATOM     22 O    GLY C   2     -13.316   8.303  29.000  1.00 33.21 LIG-0.27  OA
BRANCH 21 23
ATOM     23  CA  GLY C   2     -14.952   9.935  29.765  1.00 32.25 LIG 0.47  C 
ATOM     24  N   GLY C   2     -14.091  10.090  30.983  1.00 32.96 LIG 0.61  N 
ENDBRANCH 21 23
ENDBRANCH 11 19
ENDBRANCH 8 11
ENDBRANCH 6 7
ENDBRANCH 3 6
ENDBRANCH 1 2
BRANCH 1 25
ATOM     25  C   LEU C   5     -12.954  12.185  22.280  1.00 23.49 LIG 0.24  C 
ATOM     26  N   PHE C   6     -13.195  10.974  21.772  1.00 22.96 LIG-0.35  N 
ATOM     27 H    PHE C   6     -13.438  10.292  22.238  1.00 22.96 LIG 0.16  HD
ATOM     28 O    LEU C   5     -12.768  13.195  21.563  1.00 25.98 LIG-0.27  OA
BRANCH 26 29
ATOM     29  CA  PHE C   6     -13.054  10.714  20.317  1.00 22.19 LIG 0.18  C 
BRANCH 29 30
ATOM     30  C   PHE C   6     -14.183  11.237  19.433  1.00 17.26 LIG 0.24  C 
ATOM     31 O    PHE C   6     -14.175  11.122  18.244  1.00 22.18 LIG-0.27  OA
ATOM     32  N   ASP C   7     -15.183  11.860  20.066  1.00 22.18 LIG-0.35  N 
ATOM     33 H    ASP C   7     -15.224  11.962  20.919  1.00 22.18 LIG 0.16  HD
BRANCH 32 34
ATOM     34  CA  ASP C   7     -16.317  12.434  19.327  1.00 22.70 LIG 0.17  C 
BRANCH 34 35
ATOM     35  C   ASP C   7     -16.828  13.733  19.891  1.00 27.36 LIG 0.22  C 
ATOM     36 O    ASP C   7     -16.050  14.576  20.401  1.00 28.20 LIG-0.29  OA
ENDBRANCH 34 35
BRANCH 34 37
ATOM     37  CB  ASP C   7     -17.477  11.429  19.325  1.00 23.18 LIG 0.15  C 
BRANCH 37 38
ATOM     38  CG  ASP C   7     -17.101  10.080  19.894  1.00 26.80 LIG 0.17  C 
ATOM     39 OD2  ASP C   7     -17.188   9.076  19.120  1.00 27.82 LIG-0.65  OA
ATOM     40 OD1  ASP C   7     -16.765  10.035  21.129  1.00 32.15 LIG-0.65  OA
ENDBRANCH 37 38
ENDBRANCH 34 37
ENDBRANCH 32 34
ENDBRANCH 29 30
BRANCH 29 41
ATOM     41  CB  PHE C   6     -12.752   9.223  20.030  1.00 21.19 LIG 0.07  C 
BRANCH 41 42
ATOM     42  CG  PHE C   6     -11.638   8.675  20.849  1.00 25.43 LIG-0.06  A 
ATOM     43  CD2 PHE C   6     -11.819   7.573  21.698  1.00 26.31 LIG 0.01  A 
ATOM     44  CE2 PHE C   6     -10.734   7.051  22.396  1.00 29.51 LIG 0.00  A 
ATOM     45  CZ  PHE C   6      -9.477   7.666  22.338  1.00 25.82 LIG 0.00  A 
ATOM     46  CE1 PHE C   6      -9.300   8.761  21.535  1.00 26.71 LIG 0.00  A 
ATOM     47  CD1 PHE C   6     -10.398   9.280  20.801  1.00 21.41 LIG 0.01  A 
ENDBRANCH 41 42
ENDBRANCH 29 41
ENDBRANCH 26 29
ENDBRANCH 1 25
BRANCH 1 48
ATOM     48  CB  LEU C   5     -12.232  13.615  24.221  1.00 26.63 LIG 0.04  C 
BRANCH 48 49
ATOM     49  CG  LEU C   5     -12.708  14.938  23.720  1.00 31.82 LIG-0.02  C 
ATOM     50  CD2 LEU C   5     -11.971  16.035  24.574  1.00 33.90 LIG 0.01  C 
ATOM     51  CD1 LEU C   5     -14.233  15.083  23.788  1.00 30.04 LIG 0.01  C 
ENDBRANCH 48 49
ENDBRANCH 1 48
TORSDOF 19
ENDMDL
MODEL 24
USER: ADFR SOLUTION from run 187
USER: SCORE 14.386903 LL:  -4.914 LR: -11.896 RR:   0.000 FEB:  -6.228
USER: RMSD 7.345767
USER: SEED 186
USER: STATUS no improvement in best in 14 clusters for 5 generations
USER: GENES 21
USER: genes 0 Translation |==|  0.61980 0.51724 0.40472
USER: genes 1 Rotation |==|  0.96305 0.55694 0.66663 0.56765
USER: genes 2 Torsion [C]-CA--N-[C] |==|  0.18199
USER: genes 3 Torsion [N]-C--CA-[N] |==|  0.30556
USER: genes 4 Torsion [C]-CA--N-[C] |==|  0.80580
USER: genes 5 Torsion [N]-C--CA-[N] |==|  0.84672
USER: genes 6 Torsion [C]-CA--CB-[CG] |==|  0.81591
USER: genes 7 Torsion [CA]-CB--CG-[CD1] |==|  0.79164
USER: genes 8 Torsion [C]-CA--N-[C] |==|  0.76171
USER: genes 9 Torsion [N]-C--CA-[N] |==|  0.49545
USER: genes 10 Torsion [N]-CA--C-[N] |==|  0.79234
USER: genes 11 Torsion [C]-N--CA-[C] |==|  0.58261
USER: genes 12 Torsion [N]-CA--C-[N] |==|  0.89015
USER: genes 13 Torsion [C]-N--CA-[C] |==|  0.71462
USER: genes 14 Torsion [N]-CA--C-[O] |==|  0.03043
USER: genes 15 Torsion [N]-CA--CB-[CG] |==|  0.30366
USER: genes 16 Torsion [CA]-CB--CG-[OD1] |==|  0.32322
USER: genes 17 Torsion [N]-CA--CB-[CG] |==|  0.06861
USER: genes 18 Torsion [CA]-CB--CG-[CD2] |==|  0.23308
USER: genes 19 Torsion [N]-CA--CB-[CG] |==|  0.91019
USER: genes 20 Torsion [CA]-CB--CG-[CD2] |==|  0.79976
ROOT
ATOM      1  CA  LEU C   5     -12.660   8.329  21.058  1.00 25.10 LIG 0.18  C 
ENDROOT
BRANCH 1 2
ATOM      2  N   LEU C   5     -13.397   8.809  19.822  1.00 25.35 LIG-0.35  N 
ATOM      3  C   GLY C   4     -13.629  10.141  19.637  1.00 24.95 LIG 0.24  C 
ATOM      4 O    GLY C   4     -13.264  10.966  20.482  1.00 25.89 LIG-0.27  OA
ATOM      5 H    LEU C   5     -13.642   8.189  19.279  1.00 25.35 LIG 0.16  HD
BRANCH 3 6
ATOM      6  CA  GLY C   4     -14.314  10.613  18.401  1.00 25.42 LIG 0.23  C 
BRANCH 6 7
ATOM      7  N   GLY C   4     -15.673  11.137  18.531  1.00 25.00 LIG-0.35  N 
ATOM      8  C   PHE C   3     -16.741  10.354  18.825  1.00 25.70 LIG 0.24  C 
ATOM      9 O    PHE C   3     -16.637   9.134  19.056  1.00 20.17 LIG-0.27  OA
ATOM     10 H    GLY C   4     -15.731  11.986  18.404  1.00 25.00 LIG 0.16  HD
BRANCH 8 11
ATOM     11  CA  PHE C   3     -18.076  11.070  19.021  1.00 26.56 LIG 0.18  C 
BRANCH 11 12
ATOM     12  CB  PHE C   3     -18.492  11.687  17.700  1.00 27.24 LIG 0.07  C 
BRANCH 12 13
ATOM     13  CG  PHE C   3     -17.605  12.767  17.252  1.00 26.12 LIG-0.06  A 
ATOM     14  CD1 PHE C   3     -17.677  14.006  17.869  1.00 28.42 LIG 0.01  A 
ATOM     15  CE1 PHE C   3     -16.824  15.052  17.493  1.00 27.55 LIG 0.00  A 
ATOM     16  CZ  PHE C   3     -15.940  14.879  16.379  1.00 28.40 LIG 0.00  A 
ATOM     17  CE2 PHE C   3     -15.861  13.624  15.749  1.00 22.84 LIG 0.00  A 
ATOM     18  CD2 PHE C   3     -16.732  12.583  16.156  1.00 25.80 LIG 0.01  A 
ENDBRANCH 12 13
ENDBRANCH 11 12
BRANCH 11 19
ATOM     19  N   PHE C   3     -17.958  12.114  20.049  1.00 29.45 LIG-0.35  N 
ATOM     20 H    PHE C   3     -17.787  12.903  19.751  1.00 29.45 LIG 0.16  HD
ATOM     21  C   GLY C   2     -18.112  11.807  21.337  1.00 31.80 LIG 0.25  C 
ATOM     22 O    GLY C   2     -18.207  10.619  21.744  1.00 33.21 LIG-0.27  OA
BRANCH 21 23
ATOM     23  CA  GLY C   2     -18.058  12.982  22.311  1.00 32.25 LIG 0.47  C 
ATOM     24  N   GLY C   2     -18.278  12.563  23.733  1.00 32.96 LIG 0.61  N 
ENDBRANCH 21 23
ENDBRANCH 11 19
ENDBRANCH 8 11
ENDBRANCH 6 7
ENDBRANCH 3 6
ENDBRANCH 1 2
BRANCH 1 25
ATOM     25  C   LEU C   5     -13.380   8.555  22.395  1.00 23.49 LIG 0.24  C 
ATOM     26  N   PHE C   6     -13.403   9.801  22.873  1.00 22.96 LIG-0.35  N 
ATOM     27 H    PHE C   6     -13.074  10.483  22.465  1.00 22.96 LIG 0.16  HD
ATOM     28 O    LEU C   5     -14.012   7.613  22.927  1.00 25.98 LIG-0.27  OA
BRANCH 26 29
ATOM     29  CA  PHE C   6     -14.020  10.103  24.189  1.00 22.19 LIG 0.18  C 
BRANCH 29 30
ATOM     30  C   PHE C   6     -14.623  11.496  24.340  1.00 17.26 LIG 0.24  C 
ATOM     31 O    PHE C   6     -15.661  11.692  24.901  1.00 22.18 LIG-0.27  OA
ATOM     32  N   ASP C   7     -13.933  12.498  23.784  1.00 22.18 LIG-0.35  N 
ATOM     33 H    ASP C   7     -13.184  12.397  23.373  1.00 22.18 LIG 0.16  HD
BRANCH 32 34
ATOM     34  CA  ASP C   7     -14.419  13.885  23.835  1.00 22.70 LIG 0.17  C 
BRANCH 34 35
ATOM     35  C   ASP C   7     -15.036  14.370  22.550  1.00 27.36 LIG 0.22  C 
ATOM     36 O    ASP C   7     -15.297  13.581  21.610  1.00 28.20 LIG-0.29  OA
ENDBRANCH 34 35
BRANCH 34 37
ATOM     37  CB  ASP C   7     -13.250  14.816  24.182  1.00 23.18 LIG 0.15  C 
BRANCH 37 38
ATOM     38  CG  ASP C   7     -12.810  15.682  23.024  1.00 26.80 LIG 0.17  C 
ATOM     39 OD2  ASP C   7     -12.296  15.096  22.020  1.00 27.82 LIG-0.65  OA
ATOM     40 OD1  ASP C   7     -12.943  16.949  23.152  1.00 32.15 LIG-0.65  OA
ENDBRANCH 37 38
ENDBRANCH 34 37
ENDBRANCH 32 34
ENDBRANCH 29 30
BRANCH 29 41
ATOM     41  CB  PHE C   6     -13.063   9.769  25.359  1.00 21.19 LIG 0.07  C 
BRANCH 41 42
ATOM     42  CG  PHE C   6     -11.626   9.793  24.975  1.00 25.43 LIG-0.06  A 
ATOM     43  CD2 PHE C   6     -10.890  10.986  24.949  1.00 26.31 LIG 0.01  A 
ATOM     44  CE2 PHE C   6      -9.530  10.954  24.648  1.00 29.51 LIG 0.00  A 
ATOM     45  CZ  PHE C   6      -8.902   9.757  24.279  1.00 25.82 LIG 0.00  A 
ATOM     46  CE1 PHE C   6      -9.623   8.594  24.273  1.00 26.71 LIG 0.00  A 
ATOM     47  CD1 PHE C   6     -11.002   8.618  24.604  1.00 21.41 LIG 0.01  A 
ENDBRANCH 41 42
ENDBRANCH 29 41
ENDBRANCH 26 29
ENDBRANCH 1 25
BRANCH 1 48
ATOM     48  CB  LEU C   5     -11.167   8.806  21.222  1.00 26.63 LIG 0.04  C 
BRANCH 48 49
ATOM     49  CG  LEU C   5     -10.369   9.009  19.977  1.00 31.82 LIG-0.02  C 
ATOM     50  CD2 LEU C   5     -10.063   7.580  19.398  1.00 33.90 LIG 0.01  C 
ATOM     51  CD1 LEU C   5      -9.090   9.820  20.221  1.00 30.04 LIG 0.01  C 
ENDBRANCH 48 49
ENDBRANCH 1 48
TORSDOF 19
ENDMDL
MODEL 25
USER: ADFR SOLUTION from run 34
USER: SCORE 14.903070 LL:  -3.626 LR: -11.867 RR:   0.000 FEB:  -6.199
USER: RMSD 7.505436
USER: SEED 33
USER: STATUS no improvement in best in 8 clusters for 5 generations
USER: GENES 21
USER: genes 0 Translation |==|  0.64772 0.49995 0.38933
USER: genes 1 Rotation |==|  0.98469 0.47314 0.56258 0.60219
USER: genes 2 Torsion [C]-CA--N-[C] |==|  0.15531
USER: genes 3 Torsion [N]-C--CA-[N] |==|  0.10135
USER: genes 4 Torsion [C]-CA--N-[C] |==|  0.18628
USER: genes 5 Torsion [N]-C--CA-[N] |==|  0.38988
USER: genes 6 Torsion [C]-CA--CB-[CG] |==|  0.11358
USER: genes 7 Torsion [CA]-CB--CG-[CD1] |==|  0.69526
USER: genes 8 Torsion [C]-CA--N-[C] |==|  0.78983
USER: genes 9 Torsion [N]-C--CA-[N] |==|  0.84891
USER: genes 10 Torsion [N]-CA--C-[N] |==|  0.10671
USER: genes 11 Torsion [C]-N--CA-[C] |==|  0.19856
USER: genes 12 Torsion [N]-CA--C-[N] |==|  0.10782
USER: genes 13 Torsion [C]-N--CA-[C] |==|  0.83421
USER: genes 14 Torsion [N]-CA--C-[O] |==|  0.40068
USER: genes 15 Torsion [N]-CA--CB-[CG] |==|  0.40911
USER: genes 16 Torsion [CA]-CB--CG-[OD1] |==|  0.20258
USER: genes 17 Torsion [N]-CA--CB-[CG] |==|  0.61573
USER: genes 18 Torsion [CA]-CB--CG-[CD2] |==|  0.29276
USER: genes 19 Torsion [N]-CA--CB-[CG] |==|  0.15950
USER: genes 20 Torsion [CA]-CB--CG-[CD2] |==|  0.58857
ROOT
ATOM      1  CA  LEU C   5     -12.157   7.953  20.781  1.00 25.10 LIG 0.18  C 
ENDROOT
BRANCH 1 2
ATOM      2  N   LEU C   5     -13.025   8.727  19.806  1.00 25.35 LIG-0.35  N 
ATOM      3  C   GLY C   4     -12.885  10.078  19.688  1.00 24.95 LIG 0.24  C 
ATOM      4 O    GLY C   4     -12.071  10.689  20.390  1.00 25.89 LIG-0.27  OA
ATOM      5 H    LEU C   5     -13.586   8.251  19.359  1.00 25.35 LIG 0.16  HD
BRANCH 3 6
ATOM      6  CA  GLY C   4     -13.708  10.829  18.698  1.00 25.42 LIG 0.23  C 
BRANCH 6 7
ATOM      7  N   GLY C   4     -15.086  10.388  18.481  1.00 25.00 LIG-0.35  N 
ATOM      8  C   PHE C   3     -16.050  10.487  19.430  1.00 25.70 LIG 0.24  C 
ATOM      9 O    PHE C   3     -15.848  11.008  20.543  1.00 20.17 LIG-0.27  OA
ATOM     10 H    GLY C   4     -15.227  10.061  17.698  1.00 25.00 LIG 0.16  HD
BRANCH 8 11
ATOM     11  CA  PHE C   3     -17.460  10.071  19.013  1.00 26.56 LIG 0.18  C 
BRANCH 11 12
ATOM     12  CB  PHE C   3     -18.249  11.318  18.669  1.00 27.24 LIG 0.07  C 
BRANCH 12 13
ATOM     13  CG  PHE C   3     -17.478  12.313  17.914  1.00 26.12 LIG-0.06  A 
ATOM     14  CD1 PHE C   3     -17.111  13.499  18.530  1.00 28.42 LIG 0.01  A 
ATOM     15  CE1 PHE C   3     -16.345  14.458  17.854  1.00 27.55 LIG 0.00  A 
ATOM     16  CZ  PHE C   3     -16.029  14.265  16.470  1.00 28.40 LIG 0.00  A 
ATOM     17  CE2 PHE C   3     -16.397  13.062  15.840  1.00 22.84 LIG 0.00  A 
ATOM     18  CD2 PHE C   3     -17.166  12.108  16.551  1.00 25.80 LIG 0.01  A 
ENDBRANCH 12 13
ENDBRANCH 11 12
BRANCH 11 19
ATOM     19  N   PHE C   3     -18.125   9.337  20.098  1.00 29.45 LIG-0.35  N 
ATOM     20 H    PHE C   3     -18.720   9.784  20.531  1.00 29.45 LIG 0.16  HD
ATOM     21  C   GLY C   2     -17.794   8.072  20.354  1.00 31.80 LIG 0.25  C 
ATOM     22 O    GLY C   2     -16.814   7.503  19.804  1.00 33.21 LIG-0.27  OA
BRANCH 21 23
ATOM     23  CA  GLY C   2     -18.610   7.378  21.443  1.00 32.25 LIG 0.47  C 
ATOM     24  N   GLY C   2     -18.611   8.138  22.735  1.00 32.96 LIG 0.61  N 
ENDBRANCH 21 23
ENDBRANCH 11 19
ENDBRANCH 8 11
ENDBRANCH 6 7
ENDBRANCH 3 6
ENDBRANCH 1 2
BRANCH 1 25
ATOM     25  C   LEU C   5     -12.210   8.424  22.241  1.00 23.49 LIG 0.24  C 
ATOM     26  N   PHE C   6     -13.397   8.812  22.714  1.00 22.96 LIG-0.35  N 
ATOM     27 H    PHE C   6     -14.132   8.780  22.267  1.00 22.96 LIG 0.16  HD
ATOM     28 O    LEU C   5     -11.193   8.323  22.964  1.00 25.98 LIG-0.27  OA
BRANCH 26 29
ATOM     29  CA  PHE C   6     -13.533   9.344  24.093  1.00 22.19 LIG 0.18  C 
BRANCH 29 30
ATOM     30  C   PHE C   6     -12.948  10.733  24.334  1.00 17.26 LIG 0.24  C 
ATOM     31 O    PHE C   6     -12.391  11.031  25.348  1.00 22.18 LIG-0.27  OA
ATOM     32  N   ASP C   7     -13.116  11.619  23.346  1.00 22.18 LIG-0.35  N 
ATOM     33 H    ASP C   7     -13.511  11.443  22.602  1.00 22.18 LIG 0.16  HD
BRANCH 32 34
ATOM     34  CA  ASP C   7     -12.624  13.000  23.463  1.00 22.70 LIG 0.17  C 
BRANCH 34 35
ATOM     35  C   ASP C   7     -13.212  13.768  24.617  1.00 27.36 LIG 0.22  C 
ATOM     36 O    ASP C   7     -12.530  14.600  25.264  1.00 28.20 LIG-0.29  OA
ENDBRANCH 34 35
BRANCH 34 37
ATOM     37  CB  ASP C   7     -12.950  13.762  22.171  1.00 23.18 LIG 0.15  C 
BRANCH 37 38
ATOM     38  CG  ASP C   7     -13.237  15.229  22.398  1.00 26.80 LIG 0.17  C 
ATOM     39 OD2  ASP C   7     -14.437  15.619  22.247  1.00 27.82 LIG-0.65  OA
ATOM     40 OD1  ASP C   7     -12.243  15.986  22.682  1.00 32.15 LIG-0.65  OA
ENDBRANCH 37 38
ENDBRANCH 34 37
ENDBRANCH 32 34
ENDBRANCH 29 30
BRANCH 29 41
ATOM     41  CB  PHE C   6     -13.033   8.327  25.149  1.00 21.19 LIG 0.07  C 
BRANCH 41 42
ATOM     42  CG  PHE C   6     -13.905   8.243  26.350  1.00 25.43 LIG-0.06  A 
ATOM     43  CD2 PHE C   6     -14.762   7.153  26.565  1.00 26.31 LIG 0.01  A 
ATOM     44  CE2 PHE C   6     -15.512   7.083  27.736  1.00 29.51 LIG 0.00  A 
ATOM     45  CZ  PHE C   6     -15.496   8.131  28.666  1.00 25.82 LIG 0.00  A 
ATOM     46  CE1 PHE C   6     -14.684   9.211  28.448  1.00 26.71 LIG 0.00  A 
ATOM     47  CD1 PHE C   6     -13.899   9.274  27.268  1.00 21.41 LIG 0.01  A 
ENDBRANCH 41 42
ENDBRANCH 29 41
ENDBRANCH 26 29
ENDBRANCH 1 25
BRANCH 1 48
ATOM     48  CB  LEU C   5     -10.644   7.763  20.385  1.00 26.63 LIG 0.04  C 
BRANCH 48 49
ATOM     49  CG  LEU C   5      -9.838   8.994  20.135  1.00 31.82 LIG-0.02  C 
ATOM     50  CD2 LEU C   5      -8.773   8.622  19.040  1.00 33.90 LIG 0.01  C 
ATOM     51  CD1 LEU C   5      -9.188   9.545  21.410  1.00 30.04 LIG 0.01  C 
ENDBRANCH 48 49
ENDBRANCH 1 48
TORSDOF 19
ENDMDL
MODEL 26
USER: ADFR SOLUTION from run 101
USER: SCORE 16.332266 LL:  -4.721 LR: -11.868 RR:   0.000 FEB:  -6.200
USER: RMSD 4.101580
USER: SEED 100
USER: STATUS no improvement in best in 12 clusters for 5 generations
USER: GENES 21
USER: genes 0 Translation |==|  0.59747 0.66344 0.55495
USER: genes 1 Rotation |==|  0.49970 0.52428 0.51515 0.99918
USER: genes 2 Torsion [C]-CA--N-[C] |==|  0.84050
USER: genes 3 Torsion [N]-C--CA-[N] |==|  0.05766
USER: genes 4 Torsion [C]-CA--N-[C] |==|  0.76614
USER: genes 5 Torsion [N]-C--CA-[N] |==|  0.42140
USER: genes 6 Torsion [C]-CA--CB-[CG] |==|  0.27474
USER: genes 7 Torsion [CA]-CB--CG-[CD1] |==|  0.79449
USER: genes 8 Torsion [C]-CA--N-[C] |==|  0.80668
USER: genes 9 Torsion [N]-C--CA-[N] |==|  0.83080
USER: genes 10 Torsion [N]-CA--C-[N] |==|  0.92820
USER: genes 11 Torsion [C]-N--CA-[C] |==|  0.73787
USER: genes 12 Torsion [N]-CA--C-[N] |==|  0.02222
USER: genes 13 Torsion [C]-N--CA-[C] |==|  0.15616
USER: genes 14 Torsion [N]-CA--C-[O] |==|  0.11082
USER: genes 15 Torsion [N]-CA--CB-[CG] |==|  0.33508
USER: genes 16 Torsion [CA]-CB--CG-[OD1] |==|  0.22424
USER: genes 17 Torsion [N]-CA--CB-[CG] |==|  0.88552
USER: genes 18 Torsion [CA]-CB--CG-[CD2] |==|  0.74995
USER: genes 19 Torsion [N]-CA--CB-[CG] |==|  0.15124
USER: genes 20 Torsion [CA]-CB--CG-[CD2] |==|  0.78017
ROOT
ATOM      1  CA  LEU C   5     -13.061  11.509  23.762  1.00 25.10 LIG 0.18  C 
ENDROOT
BRANCH 1 2
ATOM      2  N   LEU C   5     -14.098  10.500  24.223  1.00 25.35 LIG-0.35  N 
ATOM      3  C   GLY C   4     -15.397  10.623  23.826  1.00 24.95 LIG 0.24  C 
ATOM      4 O    GLY C   4     -15.748  11.568  23.109  1.00 25.89 LIG-0.27  OA
ATOM      5 H    LEU C   5     -13.798   9.876  24.733  1.00 25.35 LIG 0.16  HD
BRANCH 3 6
ATOM      6  CA  GLY C   4     -16.402   9.606  24.243  1.00 25.42 LIG 0.23  C 
BRANCH 6 7
ATOM      7  N   GLY C   4     -16.096   8.783  25.413  1.00 25.00 LIG-0.35  N 
ATOM      8  C   PHE C   3     -15.344   7.657  25.347  1.00 25.70 LIG 0.24  C 
ATOM      9 O    PHE C   3     -14.814   7.263  24.290  1.00 20.17 LIG-0.27  OA
ATOM     10 H    GLY C   4     -16.436   9.080  26.145  1.00 25.00 LIG 0.16  HD
BRANCH 8 11
ATOM     11  CA  PHE C   3     -15.036   6.964  26.673  1.00 26.56 LIG 0.18  C 
BRANCH 11 12
ATOM     12  CB  PHE C   3     -13.780   7.578  27.258  1.00 27.24 LIG 0.07  C 
BRANCH 12 13
ATOM     13  CG  PHE C   3     -14.044   8.589  28.289  1.00 26.12 LIG-0.06  A 
ATOM     14  CD1 PHE C   3     -14.518   9.835  27.914  1.00 28.42 LIG 0.01  A 
ATOM     15  CE1 PHE C   3     -14.816  10.815  28.871  1.00 27.55 LIG 0.00  A 
ATOM     16  CZ  PHE C   3     -14.521  10.569  30.251  1.00 28.40 LIG 0.00  A 
ATOM     17  CE2 PHE C   3     -14.041   9.304  30.639  1.00 22.84 LIG 0.00  A 
ATOM     18  CD2 PHE C   3     -13.755   8.332  29.649  1.00 25.80 LIG 0.01  A 
ENDBRANCH 12 13
ENDBRANCH 11 12
BRANCH 11 19
ATOM     19  N   PHE C   3     -14.844   5.521  26.472  1.00 29.45 LIG-0.35  N 
ATOM     20 H    PHE C   3     -14.038   5.241  26.579  1.00 29.45 LIG 0.16  HD
ATOM     21  C   GLY C   2     -15.879   4.747  26.146  1.00 31.80 LIG 0.25  C 
ATOM     22 O    GLY C   2     -17.009   5.215  25.847  1.00 33.21 LIG-0.27  OA
BRANCH 21 23
ATOM     23  CA  GLY C   2     -15.585   3.251  26.050  1.00 32.25 LIG 0.47  C 
ATOM     24  N   GLY C   2     -14.559   2.931  25.003  1.00 32.96 LIG 0.61  N 
ENDBRANCH 21 23
ENDBRANCH 11 19
ENDBRANCH 8 11
ENDBRANCH 6 7
ENDBRANCH 3 6
ENDBRANCH 1 2
BRANCH 1 25
ATOM     25  C   LEU C   5     -12.907  11.659  22.242  1.00 23.49 LIG 0.24  C 
ATOM     26  N   PHE C   6     -13.243  10.609  21.488  1.00 22.96 LIG-0.35  N 
ATOM     27 H    PHE C   6     -13.571   9.876  21.796  1.00 22.96 LIG 0.16  HD
ATOM     28 O    LEU C   5     -12.592  12.770  21.756  1.00 25.98 LIG-0.27  OA
BRANCH 26 29
ATOM     29  CA  PHE C   6     -13.066  10.641  20.014  1.00 22.19 LIG 0.18  C 
BRANCH 29 30
ATOM     30  C   PHE C   6     -14.288  11.064  19.204  1.00 17.26 LIG 0.24  C 
ATOM     31 O    PHE C   6     -14.317  11.016  18.010  1.00 22.18 LIG-0.27  OA
ATOM     32  N   ASP C   7     -15.330  11.518  19.908  1.00 22.18 LIG-0.35  N 
ATOM     33 H    ASP C   7     -15.348  11.567  20.767  1.00 22.18 LIG 0.16  HD
BRANCH 32 34
ATOM     34  CA  ASP C   7     -16.558  11.983  19.246  1.00 22.70 LIG 0.17  C 
BRANCH 34 35
ATOM     35  C   ASP C   7     -17.193  10.964  18.337  1.00 27.36 LIG 0.22  C 
ATOM     36 O    ASP C   7     -17.246   9.750  18.651  1.00 28.20 LIG-0.29  OA
ENDBRANCH 34 35
BRANCH 34 37
ATOM     37  CB  ASP C   7     -16.239  13.230  18.410  1.00 23.18 LIG 0.15  C 
BRANCH 37 38
ATOM     38  CG  ASP C   7     -16.545  13.060  16.939  1.00 26.80 LIG 0.17  C 
ATOM     39 OD2  ASP C   7     -15.566  12.829  16.163  1.00 27.82 LIG-0.65  OA
ATOM     40 OD1  ASP C   7     -17.763  13.205  16.572  1.00 32.15 LIG-0.65  OA
ENDBRANCH 37 38
ENDBRANCH 34 37
ENDBRANCH 32 34
ENDBRANCH 29 30
BRANCH 29 41
ATOM     41  CB  PHE C   6     -12.462   9.318  19.483  1.00 21.19 LIG 0.07  C 
BRANCH 41 42
ATOM     42  CG  PHE C   6     -11.377   8.774  20.342  1.00 25.43 LIG-0.06  A 
ATOM     43  CD2 PHE C   6     -10.033   9.123  20.142  1.00 26.31 LIG 0.01  A 
ATOM     44  CE2 PHE C   6      -9.056   8.642  21.011  1.00 29.51 LIG 0.00  A 
ATOM     45  CZ  PHE C   6      -9.381   7.739  22.031  1.00 25.82 LIG 0.00  A 
ATOM     46  CE1 PHE C   6     -10.687   7.370  22.212  1.00 26.71 LIG 0.00  A 
ATOM     47  CD1 PHE C   6     -11.688   7.878  21.345  1.00 21.41 LIG 0.01  A 
ENDBRANCH 41 42
ENDBRANCH 29 41
ENDBRANCH 26 29
ENDBRANCH 1 25
BRANCH 1 48
ATOM     48  CB  LEU C   5     -11.622  11.382  24.388  1.00 26.63 LIG 0.04  C 
BRANCH 48 49
ATOM     49  CG  LEU C   5     -10.938  10.059  24.278  1.00 31.82 LIG-0.02  C 
ATOM     50  CD2 LEU C   5     -11.553   9.139  25.395  1.00 33.90 LIG 0.01  C 
ATOM     51  CD1 LEU C   5      -9.413  10.170  24.396  1.00 30.04 LIG 0.01  C 
ENDBRANCH 48 49
ENDBRANCH 1 48
TORSDOF 19
ENDMDL
MODEL 27
USER: ADFR SOLUTION from run 156
USER: SCORE 15.831609 LL:  -4.982 LR: -11.844 RR:   0.000 FEB:  -6.177
USER: RMSD 5.317135
USER: SEED 155
USER: STATUS no improvement in best in 14 clusters for 5 generations
USER: GENES 21
USER: genes 0 Translation |==|  0.68261 0.58375 0.44695
USER: genes 1 Rotation |==|  0.58815 0.85404 0.26464 0.74798
USER: genes 2 Torsion [C]-CA--N-[C] |==|  0.72778
USER: genes 3 Torsion [N]-C--CA-[N] |==|  0.92699
USER: genes 4 Torsion [C]-CA--N-[C] |==|  0.86658
USER: genes 5 Torsion [N]-C--CA-[N] |==|  0.28990
USER: genes 6 Torsion [C]-CA--CB-[CG] |==|  0.21478
USER: genes 7 Torsion [CA]-CB--CG-[CD1] |==|  0.19040
USER: genes 8 Torsion [C]-CA--N-[C] |==|  0.69991
USER: genes 9 Torsion [N]-C--CA-[N] |==|  0.66946
USER: genes 10 Torsion [N]-CA--C-[N] |==|  0.99243
USER: genes 11 Torsion [C]-N--CA-[C] |==|  0.17593
USER: genes 12 Torsion [N]-CA--C-[N] |==|  0.01149
USER: genes 13 Torsion [C]-N--CA-[C] |==|  0.47402
USER: genes 14 Torsion [N]-CA--C-[O] |==|  0.38308
USER: genes 15 Torsion [N]-CA--CB-[CG] |==|  0.22525
USER: genes 16 Torsion [CA]-CB--CG-[OD1] |==|  0.40071
USER: genes 17 Torsion [N]-CA--CB-[CG] |==|  0.76361
USER: genes 18 Torsion [CA]-CB--CG-[CD2] |==|  0.06784
USER: genes 19 Torsion [N]-CA--CB-[CG] |==|  0.80088
USER: genes 20 Torsion [CA]-CB--CG-[CD2] |==|  0.17962
ROOT
ATOM      1  CA  LEU C   5     -11.529   9.776  21.818  1.00 25.10 LIG 0.18  C 
ENDROOT
BRANCH 1 2
ATOM      2  N   LEU C   5     -11.509   9.258  23.244  1.00 25.35 LIG-0.35  N 
ATOM      3  C   GLY C   4     -10.469   9.568  24.071  1.00 24.95 LIG 0.24  C 
ATOM      4 O    GLY C   4      -9.522  10.250  23.661  1.00 25.89 LIG-0.27  OA
ATOM      5 H    LEU C   5     -12.184   8.774  23.467  1.00 25.35 LIG 0.16  HD
BRANCH 3 6
ATOM      6  CA  GLY C   4     -10.474   9.095  25.484  1.00 25.42 LIG 0.23  C 
BRANCH 6 7
ATOM      7  N   GLY C   4     -11.770   8.842  26.114  1.00 25.00 LIG-0.35  N 
ATOM      8  C   PHE C   3     -12.802   9.719  26.057  1.00 25.70 LIG 0.24  C 
ATOM      9 O    PHE C   3     -12.742  10.789  25.421  1.00 20.17 LIG-0.27  OA
ATOM     10 H    GLY C   4     -11.815   8.086  26.523  1.00 25.00 LIG 0.16  HD
BRANCH 8 11
ATOM     11  CA  PHE C   3     -14.118   9.263  26.685  1.00 26.56 LIG 0.18  C 
BRANCH 11 12
ATOM     12  CB  PHE C   3     -15.249   9.604  25.735  1.00 27.24 LIG 0.07  C 
BRANCH 12 13
ATOM     13  CG  PHE C   3     -15.363   8.681  24.600  1.00 26.12 LIG-0.06  A 
ATOM     14  CD1 PHE C   3     -15.767   7.375  24.824  1.00 28.42 LIG 0.01  A 
ATOM     15  CE1 PHE C   3     -15.921   6.473  23.762  1.00 27.55 LIG 0.00  A 
ATOM     16  CZ  PHE C   3     -15.548   6.869  22.437  1.00 28.40 LIG 0.00  A 
ATOM     17  CE2 PHE C   3     -15.138   8.194  22.203  1.00 22.84 LIG 0.00  A 
ATOM     18  CD2 PHE C   3     -14.998   9.085  23.295  1.00 25.80 LIG 0.01  A 
ENDBRANCH 12 13
ENDBRANCH 11 12
BRANCH 11 19
ATOM     19  N   PHE C   3     -14.331   9.925  27.979  1.00 29.45 LIG-0.35  N 
ATOM     20 H    PHE C   3     -14.530  10.761  27.934  1.00 29.45 LIG 0.16  HD
ATOM     21  C   GLY C   2     -14.213   9.234  29.113  1.00 31.80 LIG 0.25  C 
ATOM     22 O    GLY C   2     -13.771   8.055  29.145  1.00 33.21 LIG-0.27  OA
BRANCH 21 23
ATOM     23  CA  GLY C   2     -14.543   9.997  30.394  1.00 32.25 LIG 0.47  C 
ATOM     24  N   GLY C   2     -13.376  10.085  31.331  1.00 32.96 LIG 0.61  N 
ENDBRANCH 21 23
ENDBRANCH 11 19
ENDBRANCH 8 11
ENDBRANCH 6 7
ENDBRANCH 3 6
ENDBRANCH 1 2
BRANCH 1 25
ATOM     25  C   LEU C   5     -12.371  11.036  21.578  1.00 23.49 LIG 0.24  C 
ATOM     26  N   PHE C   6     -13.048  11.526  22.621  1.00 22.96 LIG-0.35  N 
ATOM     27 H    PHE C   6     -13.012  11.203  23.417  1.00 22.96 LIG 0.16  HD
ATOM     28 O    LEU C   5     -12.310  11.624  20.474  1.00 25.98 LIG-0.27  OA
BRANCH 26 29
ATOM     29  CA  PHE C   6     -13.939  12.703  22.467  1.00 22.19 LIG 0.18  C 
BRANCH 29 30
ATOM     30  C   PHE C   6     -15.137  12.518  21.540  1.00 17.26 LIG 0.24  C 
ATOM     31 O    PHE C   6     -15.901  13.402  21.289  1.00 22.18 LIG-0.27  OA
ATOM     32  N   ASP C   7     -15.302  11.290  21.034  1.00 22.18 LIG-0.35  N 
ATOM     33 H    ASP C   7     -14.774  10.629  21.190  1.00 22.18 LIG 0.16  HD
BRANCH 32 34
ATOM     34  CA  ASP C   7     -16.433  10.973  20.149  1.00 22.70 LIG 0.17  C 
BRANCH 34 35
ATOM     35  C   ASP C   7     -16.346   9.619  19.497  1.00 27.36 LIG 0.22  C 
ATOM     36 O    ASP C   7     -17.350   8.874  19.398  1.00 28.20 LIG-0.29  OA
ENDBRANCH 34 35
BRANCH 34 37
ATOM     37  CB  ASP C   7     -16.516  12.029  19.038  1.00 23.18 LIG 0.15  C 
BRANCH 37 38
ATOM     38  CG  ASP C   7     -15.549  11.782  17.903  1.00 26.80 LIG 0.17  C 
ATOM     39 OD2  ASP C   7     -14.396  11.338  18.204  1.00 27.82 LIG-0.65  OA
ATOM     40 OD1  ASP C   7     -15.941  12.079  16.721  1.00 32.15 LIG-0.65  OA
ENDBRANCH 37 38
ENDBRANCH 34 37
ENDBRANCH 32 34
ENDBRANCH 29 30
BRANCH 29 41
ATOM     41  CB  PHE C   6     -13.141  13.982  22.114  1.00 21.19 LIG 0.07  C 
BRANCH 41 42
ATOM     42  CG  PHE C   6     -12.596  14.688  23.304  1.00 25.43 LIG-0.06  A 
ATOM     43  CD2 PHE C   6     -12.350  14.018  24.512  1.00 26.31 LIG 0.01  A 
ATOM     44  CE2 PHE C   6     -11.778  14.704  25.580  1.00 29.51 LIG 0.00  A 
ATOM     45  CZ  PHE C   6     -11.528  16.080  25.501  1.00 25.82 LIG 0.00  A 
ATOM     46  CE1 PHE C   6     -11.794  16.746  24.336  1.00 26.71 LIG 0.00  A 
ATOM     47  CD1 PHE C   6     -12.353  16.046  23.236  1.00 21.41 LIG 0.01  A 
ENDBRANCH 41 42
ENDBRANCH 29 41
ENDBRANCH 26 29
ENDBRANCH 1 25
BRANCH 1 48
ATOM     48  CB  LEU C   5     -11.880   8.733  20.691  1.00 26.63 LIG 0.04  C 
BRANCH 48 49
ATOM     49  CG  LEU C   5     -10.854   7.698  20.367  1.00 31.82 LIG-0.02  C 
ATOM     50  CD2 LEU C   5     -10.693   6.805  21.651  1.00 33.90 LIG 0.01  C 
ATOM     51  CD1 LEU C   5      -9.521   8.308  19.916  1.00 30.04 LIG 0.01  C 
ENDBRANCH 48 49
ENDBRANCH 1 48
TORSDOF 19
ENDMDL
MODEL 28
USER: ADFR SOLUTION from run 49
USER: SCORE 16.524202 LL:  -5.201 LR: -11.834 RR:   0.000 FEB:  -6.167
USER: RMSD 1.307266
USER: SEED 48
USER: STATUS no improvement in best in 14 clusters for 5 generations
USER: GENES 21
USER: genes 0 Translation |==|  0.58675 0.66578 0.54288
USER: genes 1 Rotation |==|  0.49530 0.54305 0.47063 0.99725
USER: genes 2 Torsion [C]-CA--N-[C] |==|  0.86111
USER: genes 3 Torsion [N]-C--CA-[N] |==|  0.90304
USER: genes 4 Torsion [C]-CA--N-[C] |==|  0.86036
USER: genes 5 Torsion [N]-C--CA-[N] |==|  0.02472
USER: genes 6 Torsion [C]-CA--CB-[CG] |==|  0.48210
USER: genes 7 Torsion [CA]-CB--CG-[CD1] |==|  0.96269
USER: genes 8 Torsion [C]-CA--N-[C] |==|  0.73809
USER: genes 9 Torsion [N]-C--CA-[N] |==|  0.63145
USER: genes 10 Torsion [N]-CA--C-[N] |==|  0.88709
USER: genes 11 Torsion [C]-N--CA-[C] |==|  0.71277
USER: genes 12 Torsion [N]-CA--C-[N] |==|  0.95140
USER: genes 13 Torsion [C]-N--CA-[C] |==|  0.77432
USER: genes 14 Torsion [N]-CA--C-[O] |==|  0.01115
USER: genes 15 Torsion [N]-CA--CB-[CG] |==|  0.74857
USER: genes 16 Torsion [CA]-CB--CG-[OD1] |==|  0.77085
USER: genes 17 Torsion [N]-CA--CB-[CG] |==|  0.93129
USER: genes 18 Torsion [CA]-CB--CG-[CD2] |==|  0.78401
USER: genes 19 Torsion [N]-CA--CB-[CG] |==|  0.00885
USER: genes 20 Torsion [CA]-CB--CG-[CD2] |==|  0.49943
ROOT
ATOM      1  CA  LEU C   5     -13.255  11.560  23.545  1.00 25.10 LIG 0.18  C 
ENDROOT
BRANCH 1 2
ATOM      2  N   LEU C   5     -14.413  10.761  24.114  1.00 25.35 LIG-0.35  N 
ATOM      3  C   GLY C   4     -15.686  11.004  23.691  1.00 24.95 LIG 0.24  C 
ATOM      4 O    GLY C   4     -15.914  11.892  22.861  1.00 25.89 LIG-0.27  OA
ATOM      5 H    LEU C   5     -14.195  10.170  24.700  1.00 25.35 LIG 0.16  HD
BRANCH 3 6
ATOM      6  CA  GLY C   4     -16.815  10.188  24.218  1.00 25.42 LIG 0.23  C 
BRANCH 6 7
ATOM      7  N   GLY C   4     -16.562   8.775  24.503  1.00 25.00 LIG-0.35  N 
ATOM      8  C   PHE C   3     -15.976   7.936  23.613  1.00 25.70 LIG 0.24  C 
ATOM      9 O    PHE C   3     -15.564   8.317  22.501  1.00 20.17 LIG-0.27  OA
ATOM     10 H    GLY C   4     -16.817   8.528  25.286  1.00 25.00 LIG 0.16  HD
BRANCH 8 11
ATOM     11  CA  PHE C   3     -15.694   6.516  24.101  1.00 26.56 LIG 0.18  C 
BRANCH 11 12
ATOM     12  CB  PHE C   3     -16.244   5.538  23.081  1.00 27.24 LIG 0.07  C 
BRANCH 12 13
ATOM     13  CG  PHE C   3     -15.901   4.139  23.365  1.00 26.12 LIG-0.06  A 
ATOM     14  CD1 PHE C   3     -14.925   3.856  24.306  1.00 28.42 LIG 0.01  A 
ATOM     15  CE1 PHE C   3     -14.595   2.533  24.630  1.00 27.55 LIG 0.00  A 
ATOM     16  CZ  PHE C   3     -15.192   1.455  23.900  1.00 28.40 LIG 0.00  A 
ATOM     17  CE2 PHE C   3     -16.186   1.736  22.944  1.00 22.84 LIG 0.00  A 
ATOM     18  CD2 PHE C   3     -16.503   3.084  22.643  1.00 25.80 LIG 0.01  A 
ENDBRANCH 12 13
ENDBRANCH 11 12
BRANCH 11 19
ATOM     19  N   PHE C   3     -16.321   6.284  25.409  1.00 29.45 LIG-0.35  N 
ATOM     20 H    PHE C   3     -17.144   6.032  25.381  1.00 29.45 LIG 0.16  HD
ATOM     21  C   GLY C   2     -15.623   6.467  26.529  1.00 31.80 LIG 0.25  C 
ATOM     22 O    GLY C   2     -14.474   6.984  26.535  1.00 33.21 LIG-0.27  OA
BRANCH 21 23
ATOM     23  CA  GLY C   2     -16.344   6.111  27.828  1.00 32.25 LIG 0.47  C 
ATOM     24  N   GLY C   2     -16.208   7.177  28.874  1.00 32.96 LIG 0.61  N 
ENDBRANCH 21 23
ENDBRANCH 11 19
ENDBRANCH 8 11
ENDBRANCH 6 7
ENDBRANCH 3 6
ENDBRANCH 1 2
BRANCH 1 25
ATOM     25  C   LEU C   5     -13.193  11.647  22.013  1.00 23.49 LIG 0.24  C 
ATOM     26  N   PHE C   6     -13.483  10.539  21.327  1.00 22.96 LIG-0.35  N 
ATOM     27 H    PHE C   6     -13.733   9.798  21.685  1.00 22.96 LIG 0.16  HD
ATOM     28 O    LEU C   5     -12.996  12.754  21.461  1.00 25.98 LIG-0.27  OA
BRANCH 26 29
ATOM     29  CA  PHE C   6     -13.387  10.512  19.846  1.00 22.19 LIG 0.18  C 
BRANCH 29 30
ATOM     30  C   PHE C   6     -14.711  10.583  19.090  1.00 17.26 LIG 0.24  C 
ATOM     31 O    PHE C   6     -14.779  10.894  17.937  1.00 22.18 LIG-0.27  OA
ATOM     32  N   ASP C   7     -15.808  10.299  19.800  1.00 22.18 LIG-0.35  N 
ATOM     33 H    ASP C   7     -15.800  10.071  20.629  1.00 22.18 LIG 0.16  HD
BRANCH 32 34
ATOM     34  CA  ASP C   7     -17.148  10.358  19.197  1.00 22.70 LIG 0.17  C 
BRANCH 34 35
ATOM     35  C   ASP C   7     -17.730  11.745  19.121  1.00 27.36 LIG 0.22  C 
ATOM     36 O    ASP C   7     -17.071  12.751  19.476  1.00 28.20 LIG-0.29  OA
ENDBRANCH 34 35
BRANCH 34 37
ATOM     37  CB  ASP C   7     -18.108   9.484  20.015  1.00 23.18 LIG 0.15  C 
BRANCH 37 38
ATOM     38  CG  ASP C   7     -18.180   8.055  19.527  1.00 26.80 LIG 0.17  C 
ATOM     39 OD2  ASP C   7     -17.433   7.204  20.104  1.00 27.82 LIG-0.65  OA
ATOM     40 OD1  ASP C   7     -18.955   7.810  18.537  1.00 32.15 LIG-0.65  OA
ENDBRANCH 37 38
ENDBRANCH 34 37
ENDBRANCH 32 34
ENDBRANCH 29 30
BRANCH 29 41
ATOM     41  CB  PHE C   6     -12.513   9.333  19.351  1.00 21.19 LIG 0.07  C 
BRANCH 41 42
ATOM     42  CG  PHE C   6     -11.525   8.864  20.358  1.00 25.43 LIG-0.06  A 
ATOM     43  CD2 PHE C   6     -10.333   9.563  20.602  1.00 26.31 LIG 0.01  A 
ATOM     44  CE2 PHE C   6      -9.466   9.125  21.601  1.00 29.51 LIG 0.00  A 
ATOM     45  CZ  PHE C   6      -9.719   7.942  22.306  1.00 25.82 LIG 0.00  A 
ATOM     46  CE1 PHE C   6     -10.865   7.238  22.050  1.00 26.71 LIG 0.00  A 
ATOM     47  CD1 PHE C   6     -11.763   7.695  21.052  1.00 21.41 LIG 0.01  A 
ENDBRANCH 41 42
ENDBRANCH 29 41
ENDBRANCH 26 29
ENDBRANCH 1 25
BRANCH 1 48
ATOM     48  CB  LEU C   5     -11.815  11.193  24.070  1.00 26.63 LIG 0.04  C 
BRANCH 48 49
ATOM     49  CG  LEU C   5     -11.701  10.049  25.022  1.00 31.82 LIG-0.02  C 
ATOM     50  CD2 LEU C   5     -10.175   9.905  25.373  1.00 33.90 LIG 0.01  C 
ATOM     51  CD1 LEU C   5     -12.290   8.750  24.459  1.00 30.04 LIG 0.01  C 
ENDBRANCH 48 49
ENDBRANCH 1 48
TORSDOF 19
ENDMDL
MODEL 29
USER: ADFR SOLUTION from run 32
USER: SCORE 16.444647 LL:  -6.073 LR: -11.830 RR:   0.000 FEB:  -6.162
USER: RMSD 7.039985
USER: SEED 31
USER: STATUS no improvement in best in 3 clusters for 5 generations
USER: GENES 21
USER: genes 0 Translation |==|  0.66774 0.51323 0.34265
USER: genes 1 Rotation |==|  0.02943 0.39368 0.37289 0.53326
USER: genes 2 Torsion [C]-CA--N-[C] |==|  0.22630
USER: genes 3 Torsion [N]-C--CA-[N] |==|  0.36143
USER: genes 4 Torsion [C]-CA--N-[C] |==|  0.38102
USER: genes 5 Torsion [N]-C--CA-[N] |==|  0.90604
USER: genes 6 Torsion [C]-CA--CB-[CG] |==|  0.85760
USER: genes 7 Torsion [CA]-CB--CG-[CD1] |==|  0.77349
USER: genes 8 Torsion [C]-CA--N-[C] |==|  0.81800
USER: genes 9 Torsion [N]-C--CA-[N] |==|  0.53695
USER: genes 10 Torsion [N]-CA--C-[N] |==|  0.92222
USER: genes 11 Torsion [C]-N--CA-[C] |==|  0.66760
USER: genes 12 Torsion [N]-CA--C-[N] |==|  0.02100
USER: genes 13 Torsion [C]-N--CA-[C] |==|  0.68131
USER: genes 14 Torsion [N]-CA--C-[O] |==|  0.12293
USER: genes 15 Torsion [N]-CA--CB-[CG] |==|  0.20896
USER: genes 16 Torsion [CA]-CB--CG-[OD1] |==|  0.21669
USER: genes 17 Torsion [N]-CA--CB-[CG] |==|  0.79893
USER: genes 18 Torsion [CA]-CB--CG-[CD2] |==|  0.92765
USER: genes 19 Torsion [N]-CA--CB-[CG] |==|  0.59741
USER: genes 20 Torsion [CA]-CB--CG-[CD2] |==|  0.73806
ROOT
ATOM      1  CA  LEU C   5     -11.797   8.242  19.941  1.00 25.10 LIG 0.18  C 
ENDROOT
BRANCH 1 2
ATOM      2  N   LEU C   5     -12.932   8.758  19.076  1.00 25.35 LIG-0.35  N 
ATOM      3  C   GLY C   4     -13.314  10.065  19.155  1.00 24.95 LIG 0.24  C 
ATOM      4 O    GLY C   4     -12.757  10.835  19.947  1.00 25.89 LIG-0.27  OA
ATOM      5 H    LEU C   5     -13.292   8.173  18.559  1.00 25.35 LIG 0.16  HD
BRANCH 3 6
ATOM      6  CA  GLY C   4     -14.399  10.579  18.273  1.00 25.42 LIG 0.23  C 
BRANCH 6 7
ATOM      7  N   GLY C   4     -15.486  11.334  18.897  1.00 25.00 LIG-0.35  N 
ATOM      8  C   PHE C   3     -15.998  12.469  18.360  1.00 25.70 LIG 0.24  C 
ATOM      9 O    PHE C   3     -15.615  12.929  17.268  1.00 20.17 LIG-0.27  OA
ATOM     10 H    GLY C   4     -15.769  10.991  19.633  1.00 25.00 LIG 0.16  HD
BRANCH 8 11
ATOM     11  CA  PHE C   3     -17.195  13.084  19.084  1.00 26.56 LIG 0.18  C 
BRANCH 11 12
ATOM     12  CB  PHE C   3     -16.679  14.007  20.170  1.00 27.24 LIG 0.07  C 
BRANCH 12 13
ATOM     13  CG  PHE C   3     -15.688  13.379  21.053  1.00 26.12 LIG-0.06  A 
ATOM     14  CD1 PHE C   3     -16.119  12.573  22.094  1.00 28.42 LIG 0.01  A 
ATOM     15  CE1 PHE C   3     -15.203  11.929  22.937  1.00 27.55 LIG 0.00  A 
ATOM     16  CZ  PHE C   3     -13.802  12.193  22.794  1.00 28.40 LIG 0.00  A 
ATOM     17  CE2 PHE C   3     -13.358  13.009  21.737  1.00 22.84 LIG 0.00  A 
ATOM     18  CD2 PHE C   3     -14.308  13.642  20.898  1.00 25.80 LIG 0.01  A 
ENDBRANCH 12 13
ENDBRANCH 11 12
BRANCH 11 19
ATOM     19  N   PHE C   3     -18.038  12.035  19.673  1.00 29.45 LIG-0.35  N 
ATOM     20 H    PHE C   3     -18.070  12.031  20.533  1.00 29.45 LIG 0.16  HD
ATOM     21  C   GLY C   2     -18.686  11.176  18.886  1.00 31.80 LIG 0.25  C 
ATOM     22 O    GLY C   2     -18.493  11.116  17.643  1.00 33.21 LIG-0.27  OA
BRANCH 21 23
ATOM     23  CA  GLY C   2     -19.604  10.184  19.599  1.00 32.25 LIG 0.47  C 
ATOM     24  N   GLY C   2     -20.045   9.063  18.708  1.00 32.96 LIG 0.61  N 
ENDBRANCH 21 23
ENDBRANCH 11 19
ENDBRANCH 8 11
ENDBRANCH 6 7
ENDBRANCH 3 6
ENDBRANCH 1 2
BRANCH 1 25
ATOM     25  C   LEU C   5     -12.169   7.882  21.386  1.00 23.49 LIG 0.24  C 
ATOM     26  N   PHE C   6     -13.195   8.538  21.933  1.00 22.96 LIG-0.35  N 
ATOM     27 H    PHE C   6     -13.678   9.116  21.518  1.00 22.96 LIG 0.16  HD
ATOM     28 O    LEU C   5     -11.593   6.927  21.956  1.00 25.98 LIG-0.27  OA
BRANCH 26 29
ATOM     29  CA  PHE C   6     -13.586   8.302  23.346  1.00 22.19 LIG 0.18  C 
BRANCH 29 30
ATOM     30  C   PHE C   6     -15.003   7.782  23.569  1.00 17.26 LIG 0.24  C 
ATOM     31 O    PHE C   6     -15.480   7.657  24.658  1.00 22.18 LIG-0.27  OA
ATOM     32  N   ASP C   7     -15.685   7.447  22.468  1.00 22.18 LIG-0.35  N 
ATOM     33 H    ASP C   7     -15.377   7.523  21.669  1.00 22.18 LIG 0.16  HD
BRANCH 32 34
ATOM     34  CA  ASP C   7     -17.051   6.907  22.548  1.00 22.70 LIG 0.17  C 
BRANCH 34 35
ATOM     35  C   ASP C   7     -17.181   5.484  22.076  1.00 27.36 LIG 0.22  C 
ATOM     36 O    ASP C   7     -16.350   4.605  22.410  1.00 28.20 LIG-0.29  OA
ENDBRANCH 34 35
BRANCH 34 37
ATOM     37  CB  ASP C   7     -17.987   7.777  21.697  1.00 23.18 LIG 0.15  C 
BRANCH 37 38
ATOM     38  CG  ASP C   7     -17.833   7.545  20.211  1.00 26.80 LIG 0.17  C 
ATOM     39 OD2  ASP C   7     -17.206   8.427  19.545  1.00 27.82 LIG-0.65  OA
ATOM     40 OD1  ASP C   7     -18.384   6.498  19.719  1.00 32.15 LIG-0.65  OA
ENDBRANCH 37 38
ENDBRANCH 34 37
ENDBRANCH 32 34
ENDBRANCH 29 30
BRANCH 29 41
ATOM     41  CB  PHE C   6     -13.286   9.534  24.235  1.00 21.19 LIG 0.07  C 
BRANCH 41 42
ATOM     42  CG  PHE C   6     -11.836   9.738  24.496  1.00 25.43 LIG-0.06  A 
ATOM     43  CD2 PHE C   6     -10.924   8.673  24.465  1.00 26.31 LIG 0.01  A 
ATOM     44  CE2 PHE C   6      -9.566   8.919  24.650  1.00 29.51 LIG 0.00  A 
ATOM     45  CZ  PHE C   6      -9.103  10.204  24.960  1.00 25.82 LIG 0.00  A 
ATOM     46  CE1 PHE C   6      -9.992  11.243  25.023  1.00 26.71 LIG 0.00  A 
ATOM     47  CD1 PHE C   6     -11.373  11.000  24.809  1.00 21.41 LIG 0.01  A 
ENDBRANCH 41 42
ENDBRANCH 29 41
ENDBRANCH 26 29
ENDBRANCH 1 25
BRANCH 1 48
ATOM     48  CB  LEU C   5     -10.483   9.110  19.978  1.00 26.63 LIG 0.04  C 
BRANCH 48 49
ATOM     49  CG  LEU C   5      -9.182   8.386  20.079  1.00 31.82 LIG-0.02  C 
ATOM     50  CD2 LEU C   5      -8.816   8.327  21.607  1.00 33.90 LIG 0.01  C 
ATOM     51  CD1 LEU C   5      -8.074   9.041  19.245  1.00 30.04 LIG 0.01  C 
ENDBRANCH 48 49
ENDBRANCH 1 48
TORSDOF 19
ENDMDL
MODEL 30
USER: ADFR SOLUTION from run 145
USER: SCORE 16.038887 LL:  -5.407 LR: -11.811 RR:   0.000 FEB:  -6.143
USER: RMSD 7.774024
USER: SEED 144
USER: STATUS no improvement in best in 3 clusters for 5 generations
USER: GENES 21
USER: genes 0 Translation |==|  0.65649 0.51199 0.36903
USER: genes 1 Rotation |==|  0.03696 0.39254 0.34530 0.51090
USER: genes 2 Torsion [C]-CA--N-[C] |==|  0.22778
USER: genes 3 Torsion [N]-C--CA-[N] |==|  0.49036
USER: genes 4 Torsion [C]-CA--N-[C] |==|  0.57378
USER: genes 5 Torsion [N]-C--CA-[N] |==|  0.42733
USER: genes 6 Torsion [C]-CA--CB-[CG] |==|  0.13581
USER: genes 7 Torsion [CA]-CB--CG-[CD1] |==|  0.20444
USER: genes 8 Torsion [C]-CA--N-[C] |==|  0.80913
USER: genes 9 Torsion [N]-C--CA-[N] |==|  0.20618
USER: genes 10 Torsion [N]-CA--C-[N] |==|  0.87840
USER: genes 11 Torsion [C]-N--CA-[C] |==|  0.67477
USER: genes 12 Torsion [N]-CA--C-[N] |==|  0.04614
USER: genes 13 Torsion [C]-N--CA-[C] |==|  0.71920
USER: genes 14 Torsion [N]-CA--C-[O] |==|  0.27482
USER: genes 15 Torsion [N]-CA--CB-[CG] |==|  0.15979
USER: genes 16 Torsion [CA]-CB--CG-[OD1] |==|  0.19197
USER: genes 17 Torsion [N]-CA--CB-[CG] |==|  0.82903
USER: genes 18 Torsion [CA]-CB--CG-[CD2] |==|  0.33185
USER: genes 19 Torsion [N]-CA--CB-[CG] |==|  0.63605
USER: genes 20 Torsion [CA]-CB--CG-[CD2] |==|  0.72996
ROOT
ATOM      1  CA  LEU C   5     -11.999   8.215  20.416  1.00 25.10 LIG 0.18  C 
ENDROOT
BRANCH 1 2
ATOM      2  N   LEU C   5     -13.001   8.695  19.381  1.00 25.35 LIG-0.35  N 
ATOM      3  C   GLY C   4     -13.350  10.012  19.326  1.00 24.95 LIG 0.24  C 
ATOM      4 O    GLY C   4     -12.876  10.822  20.131  1.00 25.89 LIG-0.27  OA
ATOM      5 H    LEU C   5     -13.309   8.083  18.861  1.00 25.35 LIG 0.16  HD
BRANCH 3 6
ATOM      6  CA  GLY C   4     -14.299  10.487  18.280  1.00 25.42 LIG 0.23  C 
BRANCH 6 7
ATOM      7  N   GLY C   4     -14.702  11.893  18.312  1.00 25.00 LIG-0.35  N 
ATOM      8  C   PHE C   3     -15.882  12.334  17.810  1.00 25.70 LIG 0.24  C 
ATOM      9 O    PHE C   3     -16.737  11.567  17.328  1.00 20.17 LIG-0.27  OA
ATOM     10 H    GLY C   4     -14.121  12.412  18.678  1.00 25.00 LIG 0.16  HD
BRANCH 8 11
ATOM     11  CA  PHE C   3     -16.194  13.817  18.008  1.00 26.56 LIG 0.18  C 
BRANCH 11 12
ATOM     12  CB  PHE C   3     -16.832  13.998  19.371  1.00 27.24 LIG 0.07  C 
BRANCH 12 13
ATOM     13  CG  PHE C   3     -16.098  13.337  20.457  1.00 26.12 LIG-0.06  A 
ATOM     14  CD1 PHE C   3     -14.903  13.881  20.899  1.00 28.42 LIG 0.01  A 
ATOM     15  CE1 PHE C   3     -14.190  13.299  21.956  1.00 27.55 LIG 0.00  A 
ATOM     16  CZ  PHE C   3     -14.641  12.060  22.516  1.00 28.40 LIG 0.00  A 
ATOM     17  CE2 PHE C   3     -15.855  11.504  22.073  1.00 22.84 LIG 0.00  A 
ATOM     18  CD2 PHE C   3     -16.556  12.119  21.006  1.00 25.80 LIG 0.01  A 
ENDBRANCH 12 13
ENDBRANCH 11 12
BRANCH 11 19
ATOM     19  N   PHE C   3     -17.103  14.299  16.959  1.00 29.45 LIG-0.35  N 
ATOM     20 H    PHE C   3     -17.895  14.502  17.226  1.00 29.45 LIG 0.16  HD
ATOM     21  C   GLY C   2     -16.680  14.395  15.698  1.00 31.80 LIG 0.25  C 
ATOM     22 O    GLY C   2     -15.567  13.944  15.320  1.00 33.21 LIG-0.27  OA
BRANCH 21 23
ATOM     23  CA  GLY C   2     -17.677  14.992  14.707  1.00 32.25 LIG 0.47  C 
ATOM     24  N   GLY C   2     -17.829  16.475  14.862  1.00 32.96 LIG 0.61  N 
ENDBRANCH 21 23
ENDBRANCH 11 19
ENDBRANCH 8 11
ENDBRANCH 6 7
ENDBRANCH 3 6
ENDBRANCH 1 2
BRANCH 1 25
ATOM     25  C   LEU C   5     -12.564   7.949  21.818  1.00 23.49 LIG 0.24  C 
ATOM     26  N   PHE C   6     -13.413   8.852  22.315  1.00 22.96 LIG-0.35  N 
ATOM     27 H    PHE C   6     -13.688   9.547  21.887  1.00 22.96 LIG 0.16  HD
ATOM     28 O    LEU C   5     -12.314   6.866  22.394  1.00 25.98 LIG-0.27  OA
BRANCH 26 29
ATOM     29  CA  PHE C   6     -13.960   8.712  23.688  1.00 22.19 LIG 0.18  C 
BRANCH 29 30
ATOM     30  C   PHE C   6     -15.472   8.534  23.790  1.00 17.26 LIG 0.24  C 
ATOM     31 O    PHE C   6     -16.070   8.677  24.815  1.00 22.18 LIG-0.27  OA
ATOM     32  N   ASP C   7     -16.099   8.180  22.662  1.00 22.18 LIG-0.35  N 
ATOM     33 H    ASP C   7     -15.704   8.068  21.906  1.00 22.18 LIG 0.16  HD
BRANCH 32 34
ATOM     34  CA  ASP C   7     -17.551   7.950  22.632  1.00 22.70 LIG 0.17  C 
BRANCH 34 35
ATOM     35  C   ASP C   7     -17.947   6.498  22.658  1.00 27.36 LIG 0.22  C 
ATOM     36 O    ASP C   7     -18.305   5.936  23.722  1.00 28.20 LIG-0.29  OA
ENDBRANCH 34 35
BRANCH 34 37
ATOM     37  CB  ASP C   7     -18.134   8.578  21.359  1.00 23.18 LIG 0.15  C 
BRANCH 37 38
ATOM     38  CG  ASP C   7     -17.510   8.046  20.089  1.00 26.80 LIG 0.17  C 
ATOM     39 OD2  ASP C   7     -16.813   8.855  19.398  1.00 27.82 LIG-0.65  OA
ATOM     40 OD1  ASP C   7     -17.762   6.831  19.774  1.00 32.15 LIG-0.65  OA
ENDBRANCH 37 38
ENDBRANCH 34 37
ENDBRANCH 32 34
ENDBRANCH 29 30
BRANCH 29 41
ATOM     41  CB  PHE C   6     -13.457   9.840  24.621  1.00 21.19 LIG 0.07  C 
BRANCH 41 42
ATOM     42  CG  PHE C   6     -11.980   9.853  24.794  1.00 25.43 LIG-0.06  A 
ATOM     43  CD2 PHE C   6     -11.203  10.959  24.419  1.00 26.31 LIG 0.01  A 
ATOM     44  CE2 PHE C   6      -9.831  10.954  24.659  1.00 29.51 LIG 0.00  A 
ATOM     45  CZ  PHE C   6      -9.196   9.823  25.187  1.00 25.82 LIG 0.00  A 
ATOM     46  CE1 PHE C   6      -9.945   8.728  25.527  1.00 26.71 LIG 0.00  A 
ATOM     47  CD1 PHE C   6     -11.346   8.739  25.307  1.00 21.41 LIG 0.01  A 
ENDBRANCH 41 42
ENDBRANCH 29 41
ENDBRANCH 26 29
ENDBRANCH 1 25
BRANCH 1 48
ATOM     48  CB  LEU C   5     -10.682   9.064  20.574  1.00 26.63 LIG 0.04  C 
BRANCH 48 49
ATOM     49  CG  LEU C   5      -9.384   8.327  20.568  1.00 31.82 LIG-0.02  C 
ATOM     50  CD2 LEU C   5      -8.978   8.115  22.073  1.00 33.90 LIG 0.01  C 
ATOM     51  CD1 LEU C   5      -8.293   9.056  19.774  1.00 30.04 LIG 0.01  C 
ENDBRANCH 48 49
ENDBRANCH 1 48
TORSDOF 19
ENDMDL
MODEL 31
USER: ADFR SOLUTION from run 15
USER: SCORE 15.188225 LL:  -3.879 LR: -11.757 RR:   0.000 FEB:  -6.090
USER: RMSD 4.824723
USER: SEED 211524
USER: STATUS no improvement in best in 9 clusters for 5 generations
USER: GENES 21
USER: genes 0 Translation |==|  0.64600 0.53147 0.54158
USER: genes 1 Rotation |==|  0.81668 0.68619 0.33918 0.79864
USER: genes 2 Torsion [C]-CA--N-[C] |==|  0.84880
USER: genes 3 Torsion [N]-C--CA-[N] |==|  0.11392
USER: genes 4 Torsion [C]-CA--N-[C] |==|  0.18686
USER: genes 5 Torsion [N]-C--CA-[N] |==|  0.99449
USER: genes 6 Torsion [C]-CA--CB-[CG] |==|  0.56043
USER: genes 7 Torsion [CA]-CB--CG-[CD1] |==|  0.74016
USER: genes 8 Torsion [C]-CA--N-[C] |==|  0.70544
USER: genes 9 Torsion [N]-C--CA-[N] |==|  0.23862
USER: genes 10 Torsion [N]-CA--C-[N] |==|  0.87283
USER: genes 11 Torsion [C]-N--CA-[C] |==|  0.70654
USER: genes 12 Torsion [N]-CA--C-[N] |==|  0.35125
USER: genes 13 Torsion [C]-N--CA-[C] |==|  0.16856
USER: genes 14 Torsion [N]-CA--C-[O] |==|  0.05345
USER: genes 15 Torsion [N]-CA--CB-[CG] |==|  0.87377
USER: genes 16 Torsion [CA]-CB--CG-[OD1] |==|  0.81067
USER: genes 17 Torsion [N]-CA--CB-[CG] |==|  0.99369
USER: genes 18 Torsion [CA]-CB--CG-[CD2] |==|  0.77852
USER: genes 19 Torsion [N]-CA--CB-[CG] |==|  0.57604
USER: genes 20 Torsion [CA]-CB--CG-[CD2] |==|  0.05657
ROOT
ATOM      1  CA  LEU C   5     -12.188   8.639  23.521  1.00 25.10 LIG 0.18  C 
ENDROOT
BRANCH 1 2
ATOM      2  N   LEU C   5     -13.567   8.195  23.973  1.00 25.35 LIG-0.35  N 
ATOM      3  C   GLY C   4     -14.082   8.652  25.151  1.00 24.95 LIG 0.24  C 
ATOM      4 O    GLY C   4     -13.423   9.409  25.873  1.00 25.89 LIG-0.27  OA
ATOM      5 H    LEU C   5     -13.970   7.655  23.439  1.00 25.35 LIG 0.16  HD
BRANCH 3 6
ATOM      6  CA  GLY C   4     -15.455   8.250  25.569  1.00 25.42 LIG 0.23  C 
BRANCH 6 7
ATOM      7  N   GLY C   4     -15.857   6.861  25.348  1.00 25.00 LIG-0.35  N 
ATOM      8  C   PHE C   3     -15.301   5.818  26.012  1.00 25.70 LIG 0.24  C 
ATOM      9 O    PHE C   3     -14.438   5.967  26.898  1.00 20.17 LIG-0.27  OA
ATOM     10 H    GLY C   4     -16.477   6.769  24.760  1.00 25.00 LIG 0.16  HD
BRANCH 8 11
ATOM     11  CA  PHE C   3     -15.899   4.439  25.736  1.00 26.56 LIG 0.18  C 
BRANCH 11 12
ATOM     12  CB  PHE C   3     -14.820   3.554  25.146  1.00 27.24 LIG 0.07  C 
BRANCH 12 13
ATOM     13  CG  PHE C   3     -15.346   2.414  24.385  1.00 26.12 LIG-0.06  A 
ATOM     14  CD1 PHE C   3     -15.521   1.195  25.020  1.00 28.42 LIG 0.01  A 
ATOM     15  CE1 PHE C   3     -16.053   0.093  24.337  1.00 27.55 LIG 0.00  A 
ATOM     16  CZ  PHE C   3     -16.315   0.191  22.932  1.00 28.40 LIG 0.00  A 
ATOM     17  CE2 PHE C   3     -16.141   1.427  22.282  1.00 22.84 LIG 0.00  A 
ATOM     18  CD2 PHE C   3     -15.608   2.524  23.001  1.00 25.80 LIG 0.01  A 
ENDBRANCH 12 13
ENDBRANCH 11 12
BRANCH 11 19
ATOM     19  N   PHE C   3     -17.030   4.544  24.804  1.00 29.45 LIG-0.35  N 
ATOM     20 H    PHE C   3     -16.815   4.695  23.984  1.00 29.45 LIG 0.16  HD
ATOM     21  C   GLY C   2     -18.279   4.406  25.247  1.00 31.80 LIG 0.25  C 
ATOM     22 O    GLY C   2     -18.561   4.339  26.472  1.00 33.21 LIG-0.27  OA
BRANCH 21 23
ATOM     23  CA  GLY C   2     -19.371   4.443  24.179  1.00 32.25 LIG 0.47  C 
ATOM     24  N   GLY C   2     -19.616   3.100  23.558  1.00 32.96 LIG 0.61  N 
ENDBRANCH 21 23
ENDBRANCH 11 19
ENDBRANCH 8 11
ENDBRANCH 6 7
ENDBRANCH 3 6
ENDBRANCH 1 2
BRANCH 1 25
ATOM     25  C   LEU C   5     -11.966  10.156  23.448  1.00 23.49 LIG 0.24  C 
ATOM     26  N   PHE C   6     -12.921  10.884  22.864  1.00 22.96 LIG-0.35  N 
ATOM     27 H    PHE C   6     -13.660  10.564  22.563  1.00 22.96 LIG 0.16  HD
ATOM     28 O    LEU C   5     -10.980  10.668  24.026  1.00 25.98 LIG-0.27  OA
BRANCH 26 29
ATOM     29  CA  PHE C   6     -12.763  12.350  22.690  1.00 22.19 LIG 0.18  C 
BRANCH 29 30
ATOM     30  C   PHE C   6     -13.590  13.227  23.626  1.00 17.26 LIG 0.24  C 
ATOM     31 O    PHE C   6     -14.777  13.122  23.725  1.00 22.18 LIG-0.27  OA
ATOM     32  N   ASP C   7     -12.912  14.147  24.321  1.00 22.18 LIG-0.35  N 
ATOM     33 H    ASP C   7     -12.059  14.252  24.277  1.00 22.18 LIG 0.16  HD
BRANCH 32 34
ATOM     34  CA  ASP C   7     -13.595  15.072  25.237  1.00 22.70 LIG 0.17  C 
BRANCH 34 35
ATOM     35  C   ASP C   7     -14.330  14.396  26.363  1.00 27.36 LIG 0.22  C 
ATOM     36 O    ASP C   7     -14.066  13.217  26.703  1.00 28.20 LIG-0.29  OA
ENDBRANCH 34 35
BRANCH 34 37
ATOM     37  CB  ASP C   7     -14.608  15.909  24.444  1.00 23.18 LIG 0.15  C 
BRANCH 37 38
ATOM     38  CG  ASP C   7     -14.052  16.453  23.148  1.00 26.80 LIG 0.17  C 
ATOM     39 OD2  ASP C   7     -14.495  15.952  22.067  1.00 27.82 LIG-0.65  OA
ATOM     40 OD1  ASP C   7     -13.140  17.348  23.229  1.00 32.15 LIG-0.65  OA
ENDBRANCH 37 38
ENDBRANCH 34 37
ENDBRANCH 32 34
ENDBRANCH 29 30
BRANCH 29 41
ATOM     41  CB  PHE C   6     -12.941  12.773  21.211  1.00 21.19 LIG 0.07  C 
BRANCH 41 42
ATOM     42  CG  PHE C   6     -13.175  11.628  20.291  1.00 25.43 LIG-0.06  A 
ATOM     43  CD2 PHE C   6     -12.121  10.824  19.831  1.00 26.31 LIG 0.01  A 
ATOM     44  CE2 PHE C   6     -12.392   9.722  19.024  1.00 29.51 LIG 0.00  A 
ATOM     45  CZ  PHE C   6     -13.695   9.454  18.586  1.00 25.82 LIG 0.00  A 
ATOM     46  CE1 PHE C   6     -14.724  10.253  19.007  1.00 26.71 LIG 0.00  A 
ATOM     47  CD1 PHE C   6     -14.455  11.361  19.850  1.00 21.41 LIG 0.01  A 
ENDBRANCH 41 42
ENDBRANCH 29 41
ENDBRANCH 26 29
ENDBRANCH 1 25
BRANCH 1 48
ATOM     48  CB  LEU C   5     -11.639   8.001  22.190  1.00 26.63 LIG 0.04  C 
BRANCH 48 49
ATOM     49  CG  LEU C   5     -10.158   7.893  22.038  1.00 31.82 LIG-0.02  C 
ATOM     50  CD2 LEU C   5      -9.548   7.978  23.485  1.00 33.90 LIG 0.01  C 
ATOM     51  CD1 LEU C   5      -9.580   8.964  21.104  1.00 30.04 LIG 0.01  C 
ENDBRANCH 48 49
ENDBRANCH 1 48
TORSDOF 19
ENDMDL
MODEL 32
USER: ADFR SOLUTION from run 22
USER: SCORE 15.260144 LL:  -4.958 LR: -11.751 RR:   0.000 FEB:  -6.084
USER: RMSD 6.087578
USER: SEED 21
USER: STATUS no improvement in best in 16 clusters for 5 generations
USER: GENES 21
USER: genes 0 Translation |==|  0.68898 0.57878 0.44457
USER: genes 1 Rotation |==|  0.57891 0.81977 0.22836 0.76025
USER: genes 2 Torsion [C]-CA--N-[C] |==|  0.69119
USER: genes 3 Torsion [N]-C--CA-[N] |==|  0.99844
USER: genes 4 Torsion [C]-CA--N-[C] |==|  0.83333
USER: genes 5 Torsion [N]-C--CA-[N] |==|  0.26766
USER: genes 6 Torsion [C]-CA--CB-[CG] |==|  0.17374
USER: genes 7 Torsion [CA]-CB--CG-[CD1] |==|  0.08409
USER: genes 8 Torsion [C]-CA--N-[C] |==|  0.71974
USER: genes 9 Torsion [N]-C--CA-[N] |==|  0.57750
USER: genes 10 Torsion [N]-CA--C-[N] |==|  0.02668
USER: genes 11 Torsion [C]-N--CA-[C] |==|  0.59058
USER: genes 12 Torsion [N]-CA--C-[N] |==|  0.77617
USER: genes 13 Torsion [C]-N--CA-[C] |==|  0.57049
USER: genes 14 Torsion [N]-CA--C-[O] |==|  0.27476
USER: genes 15 Torsion [N]-CA--CB-[CG] |==|  0.79569
USER: genes 16 Torsion [CA]-CB--CG-[OD1] |==|  0.31045
USER: genes 17 Torsion [N]-CA--CB-[CG] |==|  0.69634
USER: genes 18 Torsion [CA]-CB--CG-[CD2] |==|  0.23054
USER: genes 19 Torsion [N]-CA--CB-[CG] |==|  0.76584
USER: genes 20 Torsion [CA]-CB--CG-[CD2] |==|  0.12106
ROOT
ATOM      1  CA  LEU C   5     -11.414   9.668  21.775  1.00 25.10 LIG 0.18  C 
ENDROOT
BRANCH 1 2
ATOM      2  N   LEU C   5     -11.500   9.437  23.273  1.00 25.35 LIG-0.35  N 
ATOM      3  C   GLY C   4     -10.396   9.608  24.056  1.00 24.95 LIG 0.24  C 
ATOM      4 O    GLY C   4      -9.312   9.927  23.554  1.00 25.89 LIG-0.27  OA
ATOM      5 H    LEU C   5     -12.274   9.200  23.562  1.00 25.35 LIG 0.16  HD
BRANCH 3 6
ATOM      6  CA  GLY C   4     -10.494   9.424  25.531  1.00 25.42 LIG 0.23  C 
BRANCH 6 7
ATOM      7  N   GLY C   4     -11.800   9.073  26.090  1.00 25.00 LIG-0.35  N 
ATOM      8  C   PHE C   3     -12.896   9.860  25.955  1.00 25.70 LIG 0.24  C 
ATOM      9 O    PHE C   3     -12.887  10.920  25.300  1.00 20.17 LIG-0.27  OA
ATOM     10 H    GLY C   4     -11.807   8.323  26.511  1.00 25.00 LIG 0.16  HD
BRANCH 8 11
ATOM     11  CA  PHE C   3     -14.205   9.305  26.514  1.00 26.56 LIG 0.18  C 
BRANCH 11 12
ATOM     12  CB  PHE C   3     -15.335   9.708  25.587  1.00 27.24 LIG 0.07  C 
BRANCH 12 13
ATOM     13  CG  PHE C   3     -15.211   9.155  24.233  1.00 26.12 LIG-0.06  A 
ATOM     14  CD1 PHE C   3     -14.583   7.933  24.053  1.00 28.42 LIG 0.01  A 
ATOM     15  CE1 PHE C   3     -14.475   7.355  22.781  1.00 27.55 LIG 0.00  A 
ATOM     16  CZ  PHE C   3     -14.920   8.086  21.632  1.00 28.40 LIG 0.00  A 
ATOM     17  CE2 PHE C   3     -15.560   9.327  21.808  1.00 22.84 LIG 0.00  A 
ATOM     18  CD2 PHE C   3     -15.659   9.882  23.108  1.00 25.80 LIG 0.01  A 
ENDBRANCH 12 13
ENDBRANCH 11 12
BRANCH 11 19
ATOM     19  N   PHE C   3     -14.453   9.825  27.866  1.00 29.45 LIG-0.35  N 
ATOM     20 H    PHE C   3     -14.768  10.625  27.897  1.00 29.45 LIG 0.16  HD
ATOM     21  C   GLY C   2     -14.190   9.071  28.933  1.00 31.80 LIG 0.25  C 
ATOM     22 O    GLY C   2     -13.587   7.968  28.852  1.00 33.21 LIG-0.27  OA
BRANCH 21 23
ATOM     23  CA  GLY C   2     -14.569   9.676  30.283  1.00 32.25 LIG 0.47  C 
ATOM     24  N   GLY C   2     -13.710   9.170  31.403  1.00 32.96 LIG 0.61  N 
ENDBRANCH 21 23
ENDBRANCH 11 19
ENDBRANCH 8 11
ENDBRANCH 6 7
ENDBRANCH 3 6
ENDBRANCH 1 2
BRANCH 1 25
ATOM     25  C   LEU C   5     -12.175  10.891  21.245  1.00 23.49 LIG 0.24  C 
ATOM     26  N   PHE C   6     -12.669  11.741  22.148  1.00 22.96 LIG-0.35  N 
ATOM     27 H    PHE C   6     -12.557  11.666  22.998  1.00 22.96 LIG 0.16  HD
ATOM     28 O    LEU C   5     -12.209  11.115  20.013  1.00 25.98 LIG-0.27  OA
BRANCH 26 29
ATOM     29  CA  PHE C   6     -13.473  12.917  21.730  1.00 22.19 LIG 0.18  C 
BRANCH 29 30
ATOM     30  C   PHE C   6     -13.342  14.161  22.603  1.00 17.26 LIG 0.24  C 
ATOM     31 O    PHE C   6     -12.623  15.073  22.321  1.00 22.18 LIG-0.27  OA
ATOM     32  N   ASP C   7     -14.065  14.167  23.728  1.00 22.18 LIG-0.35  N 
ATOM     33 H    ASP C   7     -14.594  13.531  23.965  1.00 22.18 LIG 0.16  HD
BRANCH 32 34
ATOM     34  CA  ASP C   7     -14.007  15.295  24.670  1.00 22.70 LIG 0.17  C 
BRANCH 34 35
ATOM     35  C   ASP C   7     -14.356  14.933  26.089  1.00 27.36 LIG 0.22  C 
ATOM     36 O    ASP C   7     -13.466  14.717  26.947  1.00 28.20 LIG-0.29  OA
ENDBRANCH 34 35
BRANCH 34 37
ATOM     37  CB  ASP C   7     -14.979  16.389  24.207  1.00 23.18 LIG 0.15  C 
BRANCH 37 38
ATOM     38  CG  ASP C   7     -14.491  17.149  22.995  1.00 26.80 LIG 0.17  C 
ATOM     39 OD2  ASP C   7     -13.504  17.933  23.156  1.00 27.82 LIG-0.65  OA
ATOM     40 OD1  ASP C   7     -15.134  16.984  21.900  1.00 32.15 LIG-0.65  OA
ENDBRANCH 37 38
ENDBRANCH 34 37
ENDBRANCH 32 34
ENDBRANCH 29 30
BRANCH 29 41
ATOM     41  CB  PHE C   6     -14.957  12.540  21.498  1.00 21.19 LIG 0.07  C 
BRANCH 41 42
ATOM     42  CG  PHE C   6     -15.358  12.562  20.066  1.00 25.43 LIG-0.06  A 
ATOM     43  CD2 PHE C   6     -15.116  11.473  19.215  1.00 26.31 LIG 0.01  A 
ATOM     44  CE2 PHE C   6     -15.567  11.510  17.898  1.00 29.51 LIG 0.00  A 
ATOM     45  CZ  PHE C   6     -16.179  12.658  17.379  1.00 25.82 LIG 0.00  A 
ATOM     46  CE1 PHE C   6     -16.390  13.736  18.195  1.00 26.71 LIG 0.00  A 
ATOM     47  CD1 PHE C   6     -15.956  13.692  19.544  1.00 21.41 LIG 0.01  A 
ENDBRANCH 41 42
ENDBRANCH 29 41
ENDBRANCH 26 29
ENDBRANCH 1 25
BRANCH 1 48
ATOM     48  CB  LEU C   5     -11.757   8.441  20.849  1.00 26.63 LIG 0.04  C 
BRANCH 48 49
ATOM     49  CG  LEU C   5     -10.663   7.465  20.566  1.00 31.82 LIG-0.02  C 
ATOM     50  CD2 LEU C   5      -9.927   7.204  21.931  1.00 33.90 LIG 0.01  C 
ATOM     51  CD1 LEU C   5      -9.702   7.953  19.475  1.00 30.04 LIG 0.01  C 
ENDBRANCH 48 49
ENDBRANCH 1 48
TORSDOF 19
ENDMDL
MODEL 33
USER: ADFR SOLUTION from run 56
USER: SCORE 13.948375 LL:  -4.587 LR: -11.729 RR:   0.000 FEB:  -6.062
USER: RMSD 8.174596
USER: SEED 55
USER: STATUS no improvement in best in 19 clusters for 5 generations
USER: GENES 21
USER: genes 0 Translation |==|  0.67233 0.53085 0.38269
USER: genes 1 Rotation |==|  0.97287 0.62460 0.54570 0.59367
USER: genes 2 Torsion [C]-CA--N-[C] |==|  0.21579
USER: genes 3 Torsion [N]-C--CA-[N] |==|  0.41679
USER: genes 4 Torsion [C]-CA--N-[C] |==|  0.74701
USER: genes 5 Torsion [N]-C--CA-[N] |==|  0.61667
USER: genes 6 Torsion [C]-CA--CB-[CG] |==|  0.28502
USER: genes 7 Torsion [CA]-CB--CG-[CD1] |==|  0.25548
USER: genes 8 Torsion [C]-CA--N-[C] |==|  0.14783
USER: genes 9 Torsion [N]-C--CA-[N] |==|  0.77084
USER: genes 10 Torsion [N]-CA--C-[N] |==|  0.01227
USER: genes 11 Torsion [C]-N--CA-[C] |==|  0.18998
USER: genes 12 Torsion [N]-CA--C-[N] |==|  0.27902
USER: genes 13 Torsion [C]-N--CA-[C] |==|  0.59537
USER: genes 14 Torsion [N]-CA--C-[O] |==|  0.99949
USER: genes 15 Torsion [N]-CA--CB-[CG] |==|  0.34540
USER: genes 16 Torsion [CA]-CB--CG-[OD1] |==|  0.73853
USER: genes 17 Torsion [N]-CA--CB-[CG] |==|  0.60235
USER: genes 18 Torsion [CA]-CB--CG-[CD2] |==|  0.91935
USER: genes 19 Torsion [N]-CA--CB-[CG] |==|  0.65016
USER: genes 20 Torsion [CA]-CB--CG-[CD2] |==|  0.83322
ROOT
ATOM      1  CA  LEU C   5     -11.714   8.625  20.661  1.00 25.10 LIG 0.18  C 
ENDROOT
BRANCH 1 2
ATOM      2  N   LEU C   5     -13.007   8.702  19.871  1.00 25.35 LIG-0.35  N 
ATOM      3  C   GLY C   4     -13.426   9.893  19.356  1.00 24.95 LIG 0.24  C 
ATOM      4 O    GLY C   4     -12.773  10.925  19.549  1.00 25.89 LIG-0.27  OA
ATOM      5 H    LEU C   5     -13.427   7.956  19.785  1.00 25.35 LIG 0.16  HD
BRANCH 3 6
ATOM      6  CA  GLY C   4     -14.672   9.956  18.543  1.00 25.42 LIG 0.23  C 
BRANCH 6 7
ATOM      7  N   GLY C   4     -15.444  11.199  18.570  1.00 25.00 LIG-0.35  N 
ATOM      8  C   PHE C   3     -16.445  11.426  19.457  1.00 25.70 LIG 0.24  C 
ATOM      9 O    PHE C   3     -16.752  10.612  20.348  1.00 20.17 LIG-0.27  OA
ATOM     10 H    GLY C   4     -15.203  11.770  17.974  1.00 25.00 LIG 0.16  HD
BRANCH 8 11
ATOM     11  CA  PHE C   3     -17.088  12.812  19.417  1.00 26.56 LIG 0.18  C 
BRANCH 11 12
ATOM     12  CB  PHE C   3     -16.163  13.751  18.669  1.00 27.24 LIG 0.07  C 
BRANCH 12 13
ATOM     13  CG  PHE C   3     -16.593  14.026  17.292  1.00 26.12 LIG-0.06  A 
ATOM     14  CD1 PHE C   3     -17.402  15.121  17.039  1.00 28.42 LIG 0.01  A 
ATOM     15  CE1 PHE C   3     -17.804  15.437  15.734  1.00 27.55 LIG 0.00  A 
ATOM     16  CZ  PHE C   3     -17.470  14.554  14.657  1.00 28.40 LIG 0.00  A 
ATOM     17  CE2 PHE C   3     -16.646  13.441  14.907  1.00 22.84 LIG 0.00  A 
ATOM     18  CD2 PHE C   3     -16.250  13.151  16.236  1.00 25.80 LIG 0.01  A 
ENDBRANCH 12 13
ENDBRANCH 11 12
BRANCH 11 19
ATOM     19  N   PHE C   3     -17.321  13.313  20.778  1.00 29.45 LIG-0.35  N 
ATOM     20 H    PHE C   3     -18.127  13.567  20.941  1.00 29.45 LIG 0.16  HD
ATOM     21  C   GLY C   2     -16.321  13.350  21.659  1.00 31.80 LIG 0.25  C 
ATOM     22 O    GLY C   2     -15.126  13.116  21.339  1.00 33.21 LIG-0.27  OA
BRANCH 21 23
ATOM     23  CA  GLY C   2     -16.695  13.804  23.069  1.00 32.25 LIG 0.47  C 
ATOM     24  N   GLY C   2     -16.747  15.296  23.200  1.00 32.96 LIG 0.61  N 
ENDBRANCH 21 23
ENDBRANCH 11 19
ENDBRANCH 8 11
ENDBRANCH 6 7
ENDBRANCH 3 6
ENDBRANCH 1 2
BRANCH 1 25
ATOM     25  C   LEU C   5     -11.786   9.133  22.108  1.00 23.49 LIG 0.24  C 
ATOM     26  N   PHE C   6     -12.984   9.506  22.565  1.00 22.96 LIG-0.35  N 
ATOM     27 H    PHE C   6     -13.715   9.445  22.116  1.00 22.96 LIG 0.16  HD
ATOM     28 O    LEU C   5     -10.771   9.074  22.839  1.00 25.98 LIG-0.27  OA
BRANCH 26 29
ATOM     29  CA  PHE C   6     -13.139  10.070  23.930  1.00 22.19 LIG 0.18  C 
BRANCH 29 30
ATOM     30  C   PHE C   6     -12.523  11.448  24.156  1.00 17.26 LIG 0.24  C 
ATOM     31 O    PHE C   6     -11.358  11.606  24.370  1.00 22.18 LIG-0.27  OA
ATOM     32  N   ASP C   7     -13.371  12.482  24.125  1.00 22.18 LIG-0.35  N 
ATOM     33 H    ASP C   7     -14.214  12.410  23.973  1.00 22.18 LIG 0.16  HD
BRANCH 32 34
ATOM     34  CA  ASP C   7     -12.909  13.859  24.355  1.00 22.70 LIG 0.17  C 
BRANCH 34 35
ATOM     35  C   ASP C   7     -13.904  14.733  25.072  1.00 27.36 LIG 0.22  C 
ATOM     36 O    ASP C   7     -15.025  14.294  25.425  1.00 28.20 LIG-0.29  OA
ENDBRANCH 34 35
BRANCH 34 37
ATOM     37  CB  ASP C   7     -12.587  14.515  23.006  1.00 23.18 LIG 0.15  C 
BRANCH 37 38
ATOM     38  CG  ASP C   7     -13.338  15.806  22.773  1.00 26.80 LIG 0.17  C 
ATOM     39 OD2  ASP C   7     -12.846  16.866  23.274  1.00 27.82 LIG-0.65  OA
ATOM     40 OD1  ASP C   7     -14.441  15.736  22.126  1.00 32.15 LIG-0.65  OA
ENDBRANCH 37 38
ENDBRANCH 34 37
ENDBRANCH 32 34
ENDBRANCH 29 30
BRANCH 29 41
ATOM     41  CB  PHE C   6     -12.693   9.063  25.018  1.00 21.19 LIG 0.07  C 
BRANCH 41 42
ATOM     42  CG  PHE C   6     -13.531   9.109  26.246  1.00 25.43 LIG-0.06  A 
ATOM     43  CD2 PHE C   6     -14.176  10.285  26.656  1.00 26.31 LIG 0.01  A 
ATOM     44  CE2 PHE C   6     -15.004  10.266  27.776  1.00 29.51 LIG 0.00  A 
ATOM     45  CZ  PHE C   6     -15.132   9.111  28.557  1.00 25.82 LIG 0.00  A 
ATOM     46  CE1 PHE C   6     -14.480   7.968  28.180  1.00 26.71 LIG 0.00  A 
ATOM     47  CD1 PHE C   6     -13.656   7.976  27.026  1.00 21.41 LIG 0.01  A 
ENDBRANCH 41 42
ENDBRANCH 29 41
ENDBRANCH 26 29
ENDBRANCH 1 25
BRANCH 1 48
ATOM     48  CB  LEU C   5     -10.434   9.250  19.989  1.00 26.63 LIG 0.04  C 
BRANCH 48 49
ATOM     49  CG  LEU C   5      -9.229   8.378  19.861  1.00 31.82 LIG-0.02  C 
ATOM     50  CD2 LEU C   5      -8.821   7.955  21.319  1.00 33.90 LIG 0.01  C 
ATOM     51  CD1 LEU C   5      -8.078   9.066  19.116  1.00 30.04 LIG 0.01  C 
ENDBRANCH 48 49
ENDBRANCH 1 48
TORSDOF 19
ENDMDL
MODEL 34
USER: ADFR SOLUTION from run 156
USER: SCORE 15.382733 LL:  -4.381 LR: -11.720 RR:   0.000 FEB:  -6.052
USER: RMSD 5.739447
USER: SEED 155
USER: STATUS no improvement in best in 14 clusters for 5 generations
USER: GENES 21
USER: genes 0 Translation |==|  0.67856 0.57309 0.44798
USER: genes 1 Rotation |==|  0.51115 0.84121 0.35586 0.83567
USER: genes 2 Torsion [C]-CA--N-[C] |==|  0.68675
USER: genes 3 Torsion [N]-C--CA-[N] |==|  0.88812
USER: genes 4 Torsion [C]-CA--N-[C] |==|  0.87055
USER: genes 5 Torsion [N]-C--CA-[N] |==|  0.25184
USER: genes 6 Torsion [C]-CA--CB-[CG] |==|  0.20875
USER: genes 7 Torsion [CA]-CB--CG-[CD1] |==|  0.04686
USER: genes 8 Torsion [C]-CA--N-[C] |==|  0.75190
USER: genes 9 Torsion [N]-C--CA-[N] |==|  0.82654
USER: genes 10 Torsion [N]-CA--C-[N] |==|  0.43770
USER: genes 11 Torsion [C]-N--CA-[C] |==|  0.15820
USER: genes 12 Torsion [N]-CA--C-[N] |==|  0.10057
USER: genes 13 Torsion [C]-N--CA-[C] |==|  0.84394
USER: genes 14 Torsion [N]-CA--C-[O] |==|  0.93017
USER: genes 15 Torsion [N]-CA--CB-[CG] |==|  0.21134
USER: genes 16 Torsion [CA]-CB--CG-[OD1] |==|  0.30512
USER: genes 17 Torsion [N]-CA--CB-[CG] |==|  0.57175
USER: genes 18 Torsion [CA]-CB--CG-[CD2] |==|  0.08049
USER: genes 19 Torsion [N]-CA--CB-[CG] |==|  0.79313
USER: genes 20 Torsion [CA]-CB--CG-[CD2] |==|  0.14910
ROOT
ATOM      1  CA  LEU C   5     -11.602   9.544  21.837  1.00 25.10 LIG 0.18  C 
ENDROOT
BRANCH 1 2
ATOM      2  N   LEU C   5     -11.565   9.013  23.258  1.00 25.35 LIG-0.35  N 
ATOM      3  C   GLY C   4     -10.767   9.608  24.191  1.00 24.95 LIG 0.24  C 
ATOM      4 O    GLY C   4     -10.048  10.566  23.883  1.00 25.89 LIG-0.27  OA
ATOM      5 H    LEU C   5     -12.072   8.335  23.408  1.00 25.35 LIG 0.16  HD
BRANCH 3 6
ATOM      6  CA  GLY C   4     -10.767   9.113  25.596  1.00 25.42 LIG 0.23  C 
BRANCH 6 7
ATOM      7  N   GLY C   4     -12.051   8.733  26.186  1.00 25.00 LIG-0.35  N 
ATOM      8  C   PHE C   3     -13.164   9.501  26.088  1.00 25.70 LIG 0.24  C 
ATOM      9 O    PHE C   3     -13.191  10.568  25.446  1.00 20.17 LIG-0.27  OA
ATOM     10 H    GLY C   4     -12.033   7.978  26.598  1.00 25.00 LIG 0.16  HD
BRANCH 8 11
ATOM     11  CA  PHE C   3     -14.447   8.917  26.676  1.00 26.56 LIG 0.18  C 
BRANCH 11 12
ATOM     12  CB  PHE C   3     -15.624   9.426  25.867  1.00 27.24 LIG 0.07  C 
BRANCH 12 13
ATOM     13  CG  PHE C   3     -15.762   8.777  24.558  1.00 26.12 LIG-0.06  A 
ATOM     14  CD1 PHE C   3     -15.099   7.584  24.317  1.00 28.42 LIG 0.01  A 
ATOM     15  CE1 PHE C   3     -15.233   6.916  23.093  1.00 27.55 LIG 0.00  A 
ATOM     16  CZ  PHE C   3     -15.974   7.527  22.030  1.00 28.40 LIG 0.00  A 
ATOM     17  CE2 PHE C   3     -16.651   8.738  22.269  1.00 22.84 LIG 0.00  A 
ATOM     18  CD2 PHE C   3     -16.501   9.386  23.519  1.00 25.80 LIG 0.01  A 
ENDBRANCH 12 13
ENDBRANCH 11 12
BRANCH 11 19
ATOM     19  N   PHE C   3     -14.597   9.310  28.084  1.00 29.45 LIG-0.35  N 
ATOM     20 H    PHE C   3     -15.033  10.041  28.215  1.00 29.45 LIG 0.16  HD
ATOM     21  C   GLY C   2     -14.076   8.554  29.050  1.00 31.80 LIG 0.25  C 
ATOM     22 O    GLY C   2     -13.316   7.579  28.812  1.00 33.21 LIG-0.27  OA
BRANCH 21 23
ATOM     23  CA  GLY C   2     -14.368   9.008  30.479  1.00 32.25 LIG 0.47  C 
ATOM     24  N   GLY C   2     -13.799  10.361  30.783  1.00 32.96 LIG 0.61  N 
ENDBRANCH 21 23
ENDBRANCH 11 19
ENDBRANCH 8 11
ENDBRANCH 6 7
ENDBRANCH 3 6
ENDBRANCH 1 2
BRANCH 1 25
ATOM     25  C   LEU C   5     -12.927  10.182  21.397  1.00 23.49 LIG 0.24  C 
ATOM     26  N   PHE C   6     -12.881  11.045  20.379  1.00 22.96 LIG-0.35  N 
ATOM     27 H    PHE C   6     -12.168  11.235  19.936  1.00 22.96 LIG 0.16  HD
ATOM     28 O    LEU C   5     -14.002   9.798  21.912  1.00 25.98 LIG-0.27  OA
BRANCH 26 29
ATOM     29  CA  PHE C   6     -14.101  11.759  19.928  1.00 22.19 LIG 0.18  C 
BRANCH 29 30
ATOM     30  C   PHE C   6     -14.821  12.587  20.989  1.00 17.26 LIG 0.24  C 
ATOM     31 O    PHE C   6     -16.011  12.700  21.021  1.00 22.18 LIG-0.27  OA
ATOM     32  N   ASP C   7     -14.039  13.207  21.880  1.00 22.18 LIG-0.35  N 
ATOM     33 H    ASP C   7     -13.181  13.150  21.890  1.00 22.18 LIG 0.16  HD
BRANCH 32 34
ATOM     34  CA  ASP C   7     -14.607  14.058  22.936  1.00 22.70 LIG 0.17  C 
BRANCH 34 35
ATOM     35  C   ASP C   7     -15.479  15.175  22.428  1.00 27.36 LIG 0.22  C 
ATOM     36 O    ASP C   7     -15.337  15.641  21.272  1.00 28.20 LIG-0.29  OA
ENDBRANCH 34 35
BRANCH 34 37
ATOM     37  CB  ASP C   7     -13.464  14.681  23.749  1.00 23.18 LIG 0.15  C 
BRANCH 37 38
ATOM     38  CG  ASP C   7     -12.774  15.821  23.036  1.00 26.80 LIG 0.17  C 
ATOM     39 OD2  ASP C   7     -12.023  15.526  22.054  1.00 27.82 LIG-0.65  OA
ATOM     40 OD1  ASP C   7     -12.957  17.001  23.499  1.00 32.15 LIG-0.65  OA
ENDBRANCH 37 38
ENDBRANCH 34 37
ENDBRANCH 32 34
ENDBRANCH 29 30
BRANCH 29 41
ATOM     41  CB  PHE C   6     -15.077  10.811  19.189  1.00 21.19 LIG 0.07  C 
BRANCH 41 42
ATOM     42  CG  PHE C   6     -15.964  11.510  18.221  1.00 25.43 LIG-0.06  A 
ATOM     43  CD2 PHE C   6     -15.565  12.689  17.572  1.00 26.31 LIG 0.01  A 
ATOM     44  CE2 PHE C   6     -16.400  13.274  16.624  1.00 29.51 LIG 0.00  A 
ATOM     45  CZ  PHE C   6     -17.678  12.757  16.373  1.00 25.82 LIG 0.00  A 
ATOM     46  CE1 PHE C   6     -18.086  11.625  17.026  1.00 26.71 LIG 0.00  A 
ATOM     47  CD1 PHE C   6     -17.227  11.011  17.973  1.00 21.41 LIG 0.01  A 
ENDBRANCH 41 42
ENDBRANCH 29 41
ENDBRANCH 26 29
ENDBRANCH 1 25
BRANCH 1 48
ATOM     48  CB  LEU C   5     -11.135   8.558  20.700  1.00 26.63 LIG 0.04  C 
BRANCH 48 49
ATOM     49  CG  LEU C   5      -9.671   8.298  20.573  1.00 31.82 LIG-0.02  C 
ATOM     50  CD2 LEU C   5      -9.170   7.835  21.990  1.00 33.90 LIG 0.01  C 
ATOM     51  CD1 LEU C   5      -8.897   9.518  20.057  1.00 30.04 LIG 0.01  C 
ENDBRANCH 48 49
ENDBRANCH 1 48
TORSDOF 19
ENDMDL
MODEL 35
USER: ADFR SOLUTION from run 104
USER: SCORE 16.369190 LL:  -5.374 LR: -11.678 RR:   0.000 FEB:  -6.010
USER: RMSD 6.588011
USER: SEED 103
USER: STATUS no improvement in best in 15 clusters for 5 generations
USER: GENES 21
USER: genes 0 Translation |==|  0.67346 0.59117 0.34848
USER: genes 1 Rotation |==|  0.05881 0.56883 0.38716 0.69462
USER: genes 2 Torsion [C]-CA--N-[C] |==|  0.80440
USER: genes 3 Torsion [N]-C--CA-[N] |==|  0.86047
USER: genes 4 Torsion [C]-CA--N-[C] |==|  0.20238
USER: genes 5 Torsion [N]-C--CA-[N] |==|  0.95282
USER: genes 6 Torsion [C]-CA--CB-[CG] |==|  0.75561
USER: genes 7 Torsion [CA]-CB--CG-[CD1] |==|  0.15500
USER: genes 8 Torsion [C]-CA--N-[C] |==|  0.79698
USER: genes 9 Torsion [N]-C--CA-[N] |==|  0.72359
USER: genes 10 Torsion [N]-CA--C-[N] |==|  0.95443
USER: genes 11 Torsion [C]-N--CA-[C] |==|  0.69452
USER: genes 12 Torsion [N]-CA--C-[N] |==|  0.99444
USER: genes 13 Torsion [C]-N--CA-[C] |==|  0.80587
USER: genes 14 Torsion [N]-CA--C-[O] |==|  0.91021
USER: genes 15 Torsion [N]-CA--CB-[CG] |==|  0.24841
USER: genes 16 Torsion [CA]-CB--CG-[OD1] |==|  0.21885
USER: genes 17 Torsion [N]-CA--CB-[CG] |==|  0.90714
USER: genes 18 Torsion [CA]-CB--CG-[CD2] |==|  0.81718
USER: genes 19 Torsion [N]-CA--CB-[CG] |==|  0.52663
USER: genes 20 Torsion [CA]-CB--CG-[CD2] |==|  0.73669
ROOT
ATOM      1  CA  LEU C   5     -11.694   9.937  20.046  1.00 25.10 LIG 0.18  C 
ENDROOT
BRANCH 1 2
ATOM      2  N   LEU C   5     -12.428  11.255  20.211  1.00 25.35 LIG-0.35  N 
ATOM      3  C   GLY C   4     -13.708  11.387  19.759  1.00 24.95 LIG 0.24  C 
ATOM      4 O    GLY C   4     -14.274  10.447  19.190  1.00 25.89 LIG-0.27  OA
ATOM      5 H    LEU C   5     -11.978  11.877  20.598  1.00 25.35 LIG 0.16  HD
BRANCH 3 6
ATOM      6  CA  GLY C   4     -14.441  12.668  19.963  1.00 25.42 LIG 0.23  C 
BRANCH 6 7
ATOM      7  N   GLY C   4     -14.457  13.238  21.311  1.00 25.00 LIG-0.35  N 
ATOM      8  C   PHE C   3     -13.373  13.824  21.877  1.00 25.70 LIG 0.24  C 
ATOM      9 O    PHE C   3     -12.293  13.966  21.273  1.00 20.17 LIG-0.27  OA
ATOM     10 H    GLY C   4     -15.217  13.168  21.708  1.00 25.00 LIG 0.16  HD
BRANCH 8 11
ATOM     11  CA  PHE C   3     -13.582  14.456  23.252  1.00 26.56 LIG 0.18  C 
BRANCH 11 12
ATOM     12  CB  PHE C   3     -12.981  13.541  24.300  1.00 27.24 LIG 0.07  C 
BRANCH 12 13
ATOM     13  CG  PHE C   3     -13.911  12.515  24.788  1.00 26.12 LIG-0.06  A 
ATOM     14  CD1 PHE C   3     -14.516  11.659  23.882  1.00 28.42 LIG 0.01  A 
ATOM     15  CE1 PHE C   3     -15.382  10.645  24.311  1.00 27.55 LIG 0.00  A 
ATOM     16  CZ  PHE C   3     -15.740  10.559  25.696  1.00 28.40 LIG 0.00  A 
ATOM     17  CE2 PHE C   3     -15.128  11.424  26.622  1.00 22.84 LIG 0.00  A 
ATOM     18  CD2 PHE C   3     -14.251  12.436  26.158  1.00 25.80 LIG 0.01  A 
ENDBRANCH 12 13
ENDBRANCH 11 12
BRANCH 11 19
ATOM     19  N   PHE C   3     -15.013  14.654  23.518  1.00 29.45 LIG-0.35  N 
ATOM     20 H    PHE C   3     -15.357  14.114  24.093  1.00 29.45 LIG 0.16  HD
ATOM     21  C   GLY C   2     -15.685  15.617  22.887  1.00 31.80 LIG 0.25  C 
ATOM     22 O    GLY C   2     -15.187  16.285  21.943  1.00 33.21 LIG-0.27  OA
BRANCH 21 23
ATOM     23  CA  GLY C   2     -17.144  15.793  23.306  1.00 32.25 LIG 0.47  C 
ATOM     24  N   GLY C   2     -18.100  15.136  22.355  1.00 32.96 LIG 0.61  N 
ENDBRANCH 21 23
ENDBRANCH 11 19
ENDBRANCH 8 11
ENDBRANCH 6 7
ENDBRANCH 3 6
ENDBRANCH 1 2
BRANCH 1 25
ATOM     25  C   LEU C   5     -12.193   8.781  20.923  1.00 23.49 LIG 0.24  C 
ATOM     26  N   PHE C   6     -12.967   9.096  21.965  1.00 22.96 LIG-0.35  N 
ATOM     27 H    PHE C   6     -13.229   9.894  22.151  1.00 22.96 LIG 0.16  HD
ATOM     28 O    LEU C   5     -11.967   7.598  20.581  1.00 25.98 LIG-0.27  OA
BRANCH 26 29
ATOM     29  CA  PHE C   6     -13.443   8.051  22.906  1.00 22.19 LIG 0.18  C 
BRANCH 29 30
ATOM     30  C   PHE C   6     -14.934   7.731  22.850  1.00 17.26 LIG 0.24  C 
ATOM     31 O    PHE C   6     -15.435   6.873  23.515  1.00 22.18 LIG-0.27  OA
ATOM     32  N   ASP C   7     -15.658   8.456  21.990  1.00 22.18 LIG-0.35  N 
ATOM     33 H    ASP C   7     -15.334   9.082  21.496  1.00 22.18 LIG 0.16  HD
BRANCH 32 34
ATOM     34  CA  ASP C   7     -17.101   8.229  21.821  1.00 22.70 LIG 0.17  C 
BRANCH 34 35
ATOM     35  C   ASP C   7     -17.445   6.930  21.143  1.00 27.36 LIG 0.22  C 
ATOM     36 O    ASP C   7     -16.697   6.429  20.269  1.00 28.20 LIG-0.29  OA
ENDBRANCH 34 35
BRANCH 34 37
ATOM     37  CB  ASP C   7     -17.696   9.372  20.988  1.00 23.18 LIG 0.15  C 
BRANCH 37 38
ATOM     38  CG  ASP C   7     -17.667   9.107  19.500  1.00 26.80 LIG 0.17  C 
ATOM     39 OD2  ASP C   7     -16.779   9.708  18.817  1.00 27.82 LIG-0.65  OA
ATOM     40 OD1  ASP C   7     -18.567   8.330  19.023  1.00 32.15 LIG-0.65  OA
ENDBRANCH 37 38
ENDBRANCH 34 37
ENDBRANCH 32 34
ENDBRANCH 29 30
BRANCH 29 41
ATOM     41  CB  PHE C   6     -12.976   8.331  24.355  1.00 21.19 LIG 0.07  C 
BRANCH 41 42
ATOM     42  CG  PHE C   6     -11.643   8.985  24.433  1.00 25.43 LIG-0.06  A 
ATOM     43  CD2 PHE C   6     -10.474   8.329  24.018  1.00 26.31 LIG 0.01  A 
ATOM     44  CE2 PHE C   6      -9.255   9.003  24.046  1.00 29.51 LIG 0.00  A 
ATOM     45  CZ  PHE C   6      -9.160  10.299  24.570  1.00 25.82 LIG 0.00  A 
ATOM     46  CE1 PHE C   6     -10.293  10.933  25.005  1.00 26.71 LIG 0.00  A 
ATOM     47  CD1 PHE C   6     -11.540  10.260  24.953  1.00 21.41 LIG 0.01  A 
ENDBRANCH 41 42
ENDBRANCH 29 41
ENDBRANCH 26 29
ENDBRANCH 1 25
BRANCH 1 48
ATOM     48  CB  LEU C   5     -10.123   9.983  20.148  1.00 26.63 LIG 0.04  C 
BRANCH 48 49
ATOM     49  CG  LEU C   5      -9.372   8.748  19.773  1.00 31.82 LIG-0.02  C 
ATOM     50  CD2 LEU C   5      -9.115   7.954  21.106  1.00 33.90 LIG 0.01  C 
ATOM     51  CD1 LEU C   5      -8.070   9.053  19.022  1.00 30.04 LIG 0.01  C 
ENDBRANCH 48 49
ENDBRANCH 1 48
TORSDOF 19
ENDMDL
MODEL 36
USER: ADFR SOLUTION from run 69
USER: SCORE 16.822974 LL:  -6.105 LR: -11.667 RR:   0.000 FEB:  -5.999
USER: RMSD 5.910991
USER: SEED 68
USER: STATUS searching
USER: GENES 21
USER: genes 0 Translation |==|  0.62093 0.66313 0.34573
USER: genes 1 Rotation |==|  0.33355 0.76575 0.39397 0.87473
USER: genes 2 Torsion [C]-CA--N-[C] |==|  0.74966
USER: genes 3 Torsion [N]-C--CA-[N] |==|  0.96167
USER: genes 4 Torsion [C]-CA--N-[C] |==|  0.81065
USER: genes 5 Torsion [N]-C--CA-[N] |==|  0.42864
USER: genes 6 Torsion [C]-CA--CB-[CG] |==|  0.22746
USER: genes 7 Torsion [CA]-CB--CG-[CD1] |==|  0.06653
USER: genes 8 Torsion [C]-CA--N-[C] |==|  0.54974
USER: genes 9 Torsion [N]-C--CA-[N] |==|  0.26051
USER: genes 10 Torsion [N]-CA--C-[N] |==|  0.10556
USER: genes 11 Torsion [C]-N--CA-[C] |==|  0.18045
USER: genes 12 Torsion [N]-CA--C-[N] |==|  0.05422
USER: genes 13 Torsion [C]-N--CA-[C] |==|  0.88268
USER: genes 14 Torsion [N]-CA--C-[O] |==|  0.28024
USER: genes 15 Torsion [N]-CA--CB-[CG] |==|  0.29818
USER: genes 16 Torsion [CA]-CB--CG-[OD1] |==|  0.76871
USER: genes 17 Torsion [N]-CA--CB-[CG] |==|  0.84616
USER: genes 18 Torsion [CA]-CB--CG-[CD2] |==|  0.41849
USER: genes 19 Torsion [N]-CA--CB-[CG] |==|  0.08706
USER: genes 20 Torsion [CA]-CB--CG-[CD2] |==|  0.58798
ROOT
ATOM      1  CA  LEU C   5     -12.639  11.502  19.996  1.00 25.10 LIG 0.18  C 
ENDROOT
BRANCH 1 2
ATOM      2  N   LEU C   5     -12.665  11.712  21.499  1.00 25.35 LIG-0.35  N 
ATOM      3  C   GLY C   4     -13.042  12.917  22.016  1.00 24.95 LIG 0.24  C 
ATOM      4 O    GLY C   4     -13.342  13.855  21.268  1.00 25.89 LIG-0.27  OA
ATOM      5 H    LEU C   5     -12.430  11.030  21.967  1.00 25.35 LIG 0.16  HD
BRANCH 3 6
ATOM      6  CA  GLY C   4     -13.110  13.105  23.492  1.00 25.42 LIG 0.23  C 
BRANCH 6 7
ATOM      7  N   GLY C   4     -13.067  11.911  24.336  1.00 25.00 LIG-0.35  N 
ATOM      8  C   PHE C   3     -14.070  11.000  24.376  1.00 25.70 LIG 0.24  C 
ATOM      9 O    PHE C   3     -15.086  11.085  23.660  1.00 20.17 LIG-0.27  OA
ATOM     10 H    GLY C   4     -12.347  11.841  24.802  1.00 25.00 LIG 0.16  HD
BRANCH 8 11
ATOM     11  CA  PHE C   3     -13.829   9.760  25.235  1.00 26.56 LIG 0.18  C 
BRANCH 11 12
ATOM     12  CB  PHE C   3     -13.071   8.740  24.409  1.00 27.24 LIG 0.07  C 
BRANCH 12 13
ATOM     13  CG  PHE C   3     -11.624   8.980  24.362  1.00 26.12 LIG-0.06  A 
ATOM     14  CD1 PHE C   3     -11.021   9.701  25.380  1.00 28.42 LIG 0.01  A 
ATOM     15  CE1 PHE C   3      -9.637   9.921  25.389  1.00 27.55 LIG 0.00  A 
ATOM     16  CZ  PHE C   3      -8.845   9.494  24.274  1.00 28.40 LIG 0.00  A 
ATOM     17  CE2 PHE C   3      -9.451   8.760  23.238  1.00 22.84 LIG 0.00  A 
ATOM     18  CD2 PHE C   3     -10.852   8.547  23.260  1.00 25.80 LIG 0.01  A 
ENDBRANCH 12 13
ENDBRANCH 11 12
BRANCH 11 19
ATOM     19  N   PHE C   3     -15.105   9.191  25.692  1.00 29.45 LIG-0.35  N 
ATOM     20 H    PHE C   3     -15.798   9.446  25.250  1.00 29.45 LIG 0.16  HD
ATOM     21  C   GLY C   2     -15.131   8.343  26.720  1.00 31.80 LIG 0.25  C 
ATOM     22 O    GLY C   2     -14.121   8.114  27.436  1.00 33.21 LIG-0.27  OA
BRANCH 21 23
ATOM     23  CA  GLY C   2     -16.496   7.743  27.052  1.00 32.25 LIG 0.47  C 
ATOM     24  N   GLY C   2     -16.722   6.419  26.387  1.00 32.96 LIG 0.61  N 
ENDBRANCH 21 23
ENDBRANCH 11 19
ENDBRANCH 8 11
ENDBRANCH 6 7
ENDBRANCH 3 6
ENDBRANCH 1 2
BRANCH 1 25
ATOM     25  C   LEU C   5     -13.941  10.979  19.374  1.00 23.49 LIG 0.24  C 
ATOM     26  N   PHE C   6     -15.088  11.449  19.872  1.00 22.96 LIG-0.35  N 
ATOM     27 H    PHE C   6     -15.140  12.047  20.488  1.00 22.96 LIG 0.16  HD
ATOM     28 O    LEU C   5     -13.894  10.238  18.365  1.00 25.98 LIG-0.27  OA
BRANCH 26 29
ATOM     29  CA  PHE C   6     -16.396  10.952  19.376  1.00 22.19 LIG 0.18  C 
BRANCH 29 30
ATOM     30  C   PHE C   6     -16.699   9.482  19.650  1.00 17.26 LIG 0.24  C 
ATOM     31 O    PHE C   6     -17.536   8.874  19.052  1.00 22.18 LIG-0.27  OA
ATOM     32  N   ASP C   7     -15.985   8.907  20.625  1.00 22.18 LIG-0.35  N 
ATOM     33 H    ASP C   7     -15.374   9.310  21.077  1.00 22.18 LIG 0.16  HD
BRANCH 32 34
ATOM     34  CA  ASP C   7     -16.199   7.503  21.006  1.00 22.70 LIG 0.17  C 
BRANCH 34 35
ATOM     35  C   ASP C   7     -17.647   7.097  21.077  1.00 27.36 LIG 0.22  C 
ATOM     36 O    ASP C   7     -18.193   6.454  20.148  1.00 28.20 LIG-0.29  OA
ENDBRANCH 34 35
BRANCH 34 37
ATOM     37  CB  ASP C   7     -15.568   7.252  22.382  1.00 23.18 LIG 0.15  C 
BRANCH 37 38
ATOM     38  CG  ASP C   7     -16.586   7.092  23.488  1.00 26.80 LIG 0.17  C 
ATOM     39 OD2  ASP C   7     -16.944   5.910  23.784  1.00 27.82 LIG-0.65  OA
ATOM     40 OD1  ASP C   7     -17.050   8.161  24.019  1.00 32.15 LIG-0.65  OA
ENDBRANCH 37 38
ENDBRANCH 34 37
ENDBRANCH 32 34
ENDBRANCH 29 30
BRANCH 29 41
ATOM     41  CB  PHE C   6     -16.615  11.309  17.886  1.00 21.19 LIG 0.07  C 
BRANCH 41 42
ATOM     42  CG  PHE C   6     -16.490  12.763  17.599  1.00 25.43 LIG-0.06  A 
ATOM     43  CD2 PHE C   6     -16.054  13.234  16.352  1.00 26.31 LIG 0.01  A 
ATOM     44  CE2 PHE C   6     -16.015  14.604  16.105  1.00 29.51 LIG 0.00  A 
ATOM     45  CZ  PHE C   6     -16.316  15.527  17.115  1.00 25.82 LIG 0.00  A 
ATOM     46  CE1 PHE C   6     -16.712  15.073  18.344  1.00 26.71 LIG 0.00  A 
ATOM     47  CD1 PHE C   6     -16.778  13.678  18.591  1.00 21.41 LIG 0.01  A 
ENDBRANCH 41 42
ENDBRANCH 29 41
ENDBRANCH 26 29
ENDBRANCH 1 25
BRANCH 1 48
ATOM     48  CB  LEU C   5     -11.447  10.649  19.420  1.00 26.63 LIG 0.04  C 
BRANCH 48 49
ATOM     49  CG  LEU C   5     -10.891   9.569  20.289  1.00 31.82 LIG-0.02  C 
ATOM     50  CD2 LEU C   5      -9.361   9.456  19.944  1.00 33.90 LIG 0.01  C 
ATOM     51  CD1 LEU C   5     -11.623   8.233  20.113  1.00 30.04 LIG 0.01  C 
ENDBRANCH 48 49
ENDBRANCH 1 48
TORSDOF 19
ENDMDL
MODEL 37
USER: ADFR SOLUTION from run 55
USER: SCORE 16.444013 LL:  -5.151 LR: -11.647 RR:   0.000 FEB:  -5.980
USER: RMSD 4.099277
USER: SEED 54
USER: STATUS no improvement in best in 7 clusters for 5 generations
USER: GENES 21
USER: genes 0 Translation |==|  0.56716 0.76755 0.52559
USER: genes 1 Rotation |==|  0.36224 0.56369 0.65346 0.95102
USER: genes 2 Torsion [C]-CA--N-[C] |==|  0.72401
USER: genes 3 Torsion [N]-C--CA-[N] |==|  0.89505
USER: genes 4 Torsion [C]-CA--N-[C] |==|  0.83889
USER: genes 5 Torsion [N]-C--CA-[N] |==|  0.32244
USER: genes 6 Torsion [C]-CA--CB-[CG] |==|  0.26397
USER: genes 7 Torsion [CA]-CB--CG-[CD1] |==|  0.87168
USER: genes 8 Torsion [C]-CA--N-[C] |==|  0.74759
USER: genes 9 Torsion [N]-C--CA-[N] |==|  0.65496
USER: genes 10 Torsion [N]-CA--C-[N] |==|  0.96266
USER: genes 11 Torsion [C]-N--CA-[C] |==|  0.83294
USER: genes 12 Torsion [N]-CA--C-[N] |==|  0.93308
USER: genes 13 Torsion [C]-N--CA-[C] |==|  0.67879
USER: genes 14 Torsion [N]-CA--C-[O] |==|  0.04911
USER: genes 15 Torsion [N]-CA--CB-[CG] |==|  0.79254
USER: genes 16 Torsion [CA]-CB--CG-[OD1] |==|  0.65369
USER: genes 17 Torsion [N]-CA--CB-[CG] |==|  0.70297
USER: genes 18 Torsion [CA]-CB--CG-[CD2] |==|  0.07935
USER: genes 19 Torsion [N]-CA--CB-[CG] |==|  0.68207
USER: genes 20 Torsion [CA]-CB--CG-[CD2] |==|  0.38114
ROOT
ATOM      1  CA  LEU C   5     -13.607  13.773  23.234  1.00 25.10 LIG 0.18  C 
ENDROOT
BRANCH 1 2
ATOM      2  N   LEU C   5     -13.882  12.806  24.370  1.00 25.35 LIG-0.35  N 
ATOM      3  C   GLY C   4     -15.141  12.687  24.879  1.00 24.95 LIG 0.24  C 
ATOM      4 O    GLY C   4     -16.065  13.382  24.440  1.00 25.89 LIG-0.27  OA
ATOM      5 H    LEU C   5     -13.198  12.363  24.646  1.00 25.35 LIG 0.16  HD
BRANCH 3 6
ATOM      6  CA  GLY C   4     -15.416  11.704  25.965  1.00 25.42 LIG 0.23  C 
BRANCH 6 7
ATOM      7  N   GLY C   4     -14.728  10.414  25.908  1.00 25.00 LIG-0.35  N 
ATOM      8  C   PHE C   3     -14.834   9.567  24.854  1.00 25.70 LIG 0.24  C 
ATOM      9 O    PHE C   3     -15.488   9.845  23.831  1.00 20.17 LIG-0.27  OA
ATOM     10 H    GLY C   4     -14.252  10.245  26.603  1.00 25.00 LIG 0.16  HD
BRANCH 8 11
ATOM     11  CA  PHE C   3     -13.977   8.304  24.908  1.00 26.56 LIG 0.18  C 
BRANCH 11 12
ATOM     12  CB  PHE C   3     -13.100   8.263  23.672  1.00 27.24 LIG 0.07  C 
BRANCH 12 13
ATOM     13  CG  PHE C   3     -11.759   8.821  23.884  1.00 26.12 LIG-0.06  A 
ATOM     14  CD1 PHE C   3     -11.623  10.031  24.545  1.00 28.42 LIG 0.01  A 
ATOM     15  CE1 PHE C   3     -10.358  10.579  24.797  1.00 27.55 LIG 0.00  A 
ATOM     16  CZ  PHE C   3      -9.191   9.940  24.267  1.00 28.40 LIG 0.00  A 
ATOM     17  CE2 PHE C   3      -9.323   8.710  23.595  1.00 22.84 LIG 0.00  A 
ATOM     18  CD2 PHE C   3     -10.614   8.178  23.361  1.00 25.80 LIG 0.01  A 
ENDBRANCH 12 13
ENDBRANCH 11 12
BRANCH 11 19
ATOM     19  N   PHE C   3     -14.825   7.105  24.964  1.00 29.45 LIG-0.35  N 
ATOM     20 H    PHE C   3     -15.048   6.779  24.199  1.00 29.45 LIG 0.16  HD
ATOM     21  C   GLY C   2     -15.194   6.599  26.140  1.00 31.80 LIG 0.25  C 
ATOM     22 O    GLY C   2     -14.977   7.191  27.231  1.00 33.21 LIG-0.27  OA
BRANCH 21 23
ATOM     23  CA  GLY C   2     -15.998   5.302  26.083  1.00 32.25 LIG 0.47  C 
ATOM     24  N   GLY C   2     -17.314   5.408  26.794  1.00 32.96 LIG 0.61  N 
ENDBRANCH 21 23
ENDBRANCH 11 19
ENDBRANCH 8 11
ENDBRANCH 6 7
ENDBRANCH 3 6
ENDBRANCH 1 2
BRANCH 1 25
ATOM     25  C   LEU C   5     -13.542  13.153  21.831  1.00 23.49 LIG 0.24  C 
ATOM     26  N   PHE C   6     -13.454  11.823  21.756  1.00 22.96 LIG-0.35  N 
ATOM     27 H    PHE C   6     -13.468  11.296  22.436  1.00 22.96 LIG 0.16  HD
ATOM     28 O    LEU C   5     -13.690  13.880  20.822  1.00 25.98 LIG-0.27  OA
BRANCH 26 29
ATOM     29  CA  PHE C   6     -13.322  11.140  20.444  1.00 22.19 LIG 0.18  C 
BRANCH 29 30
ATOM     30  C   PHE C   6     -14.464  11.364  19.456  1.00 17.26 LIG 0.24  C 
ATOM     31 O    PHE C   6     -14.320  11.271  18.273  1.00 22.18 LIG-0.27  OA
ATOM     32  N   ASP C   7     -15.644  11.697  19.990  1.00 22.18 LIG-0.35  N 
ATOM     33 H    ASP C   7     -15.787  11.773  20.835  1.00 22.18 LIG 0.16  HD
BRANCH 32 34
ATOM     34  CA  ASP C   7     -16.818  11.967  19.146  1.00 22.70 LIG 0.17  C 
BRANCH 34 35
ATOM     35  C   ASP C   7     -17.322  13.383  19.224  1.00 27.36 LIG 0.22  C 
ATOM     36 O    ASP C   7     -16.606  14.309  19.677  1.00 28.20 LIG-0.29  OA
ENDBRANCH 34 35
BRANCH 34 37
ATOM     37  CB  ASP C   7     -17.962  11.032  19.562  1.00 23.18 LIG 0.15  C 
BRANCH 37 38
ATOM     38  CG  ASP C   7     -17.769   9.606  19.099  1.00 26.80 LIG 0.17  C 
ATOM     39 OD2  ASP C   7     -16.672   9.039  19.398  1.00 27.82 LIG-0.65  OA
ATOM     40 OD1  ASP C   7     -18.706   9.083  18.399  1.00 32.15 LIG-0.65  OA
ENDBRANCH 37 38
ENDBRANCH 34 37
ENDBRANCH 32 34
ENDBRANCH 29 30
BRANCH 29 41
ATOM     41  CB  PHE C   6     -13.005   9.634  20.613  1.00 21.19 LIG 0.07  C 
BRANCH 41 42
ATOM     42  CG  PHE C   6     -11.601   9.282  20.273  1.00 25.43 LIG-0.06  A 
ATOM     43  CD2 PHE C   6     -10.553  10.204  20.416  1.00 26.31 LIG 0.01  A 
ATOM     44  CE2 PHE C   6      -9.244   9.811  20.148  1.00 29.51 LIG 0.00  A 
ATOM     45  CZ  PHE C   6      -8.963   8.534  19.648  1.00 25.82 LIG 0.00  A 
ATOM     46  CE1 PHE C   6      -9.985   7.639  19.477  1.00 26.71 LIG 0.00  A 
ATOM     47  CD1 PHE C   6     -11.317   8.026  19.773  1.00 21.41 LIG 0.01  A 
ENDBRANCH 41 42
ENDBRANCH 29 41
ENDBRANCH 26 29
ENDBRANCH 1 25
BRANCH 1 48
ATOM     48  CB  LEU C   5     -12.367  14.730  23.401  1.00 26.63 LIG 0.04  C 
BRANCH 48 49
ATOM     49  CG  LEU C   5     -12.637  16.194  23.514  1.00 31.82 LIG-0.02  C 
ATOM     50  CD2 LEU C   5     -11.701  16.738  24.654  1.00 33.90 LIG 0.01  C 
ATOM     51  CD1 LEU C   5     -14.115  16.503  23.783  1.00 30.04 LIG 0.01  C 
ENDBRANCH 48 49
ENDBRANCH 1 48
TORSDOF 19
ENDMDL
MODEL 38
USER: ADFR SOLUTION from run 57
USER: SCORE 14.376134 LL:  -3.818 LR: -11.642 RR:   0.000 FEB:  -5.974
USER: RMSD 7.591516
USER: SEED 56
USER: STATUS no improvement in best in 9 clusters for 5 generations
USER: GENES 21
USER: genes 0 Translation |==|  0.67043 0.52686 0.33389
USER: genes 1 Rotation |==|  0.02870 0.62433 0.42032 0.57792
USER: genes 2 Torsion [C]-CA--N-[C] |==|  0.78889
USER: genes 3 Torsion [N]-C--CA-[N] |==|  0.55316
USER: genes 4 Torsion [C]-CA--N-[C] |==|  0.74925
USER: genes 5 Torsion [N]-C--CA-[N] |==|  0.09732
USER: genes 6 Torsion [C]-CA--CB-[CG] |==|  0.23567
USER: genes 7 Torsion [CA]-CB--CG-[CD1] |==|  0.11358
USER: genes 8 Torsion [C]-CA--N-[C] |==|  0.16063
USER: genes 9 Torsion [N]-C--CA-[N] |==|  0.68925
USER: genes 10 Torsion [N]-CA--C-[N] |==|  0.06490
USER: genes 11 Torsion [C]-N--CA-[C] |==|  0.68394
USER: genes 12 Torsion [N]-CA--C-[N] |==|  0.95355
USER: genes 13 Torsion [C]-N--CA-[C] |==|  0.75229
USER: genes 14 Torsion [N]-CA--C-[O] |==|  0.25826
USER: genes 15 Torsion [N]-CA--CB-[CG] |==|  0.21573
USER: genes 16 Torsion [CA]-CB--CG-[OD1] |==|  0.71569
USER: genes 17 Torsion [N]-CA--CB-[CG] |==|  0.81290
USER: genes 18 Torsion [CA]-CB--CG-[CD2] |==|  0.40194
USER: genes 19 Torsion [N]-CA--CB-[CG] |==|  0.15621
USER: genes 20 Torsion [CA]-CB--CG-[CD2] |==|  0.58738
ROOT
ATOM      1  CA  LEU C   5     -11.748   8.538  19.783  1.00 25.10 LIG 0.18  C 
ENDROOT
BRANCH 1 2
ATOM      2  N   LEU C   5     -12.156   9.983  19.563  1.00 25.35 LIG-0.35  N 
ATOM      3  C   GLY C   4     -13.458  10.295  19.303  1.00 24.95 LIG 0.24  C 
ATOM      4 O    GLY C   4     -14.313   9.406  19.219  1.00 25.89 LIG-0.27  OA
ATOM      5 H    LEU C   5     -11.516  10.555  19.616  1.00 25.35 LIG 0.16  HD
BRANCH 3 6
ATOM      6  CA  GLY C   4     -13.863  11.719  19.132  1.00 25.42 LIG 0.23  C 
BRANCH 6 7
ATOM      7  N   GLY C   4     -15.281  12.048  19.282  1.00 25.00 LIG-0.35  N 
ATOM      8  C   PHE C   3     -16.154  12.041  18.244  1.00 25.70 LIG 0.24  C 
ATOM      9 O    PHE C   3     -15.825  11.704  17.091  1.00 20.17 LIG-0.27  OA
ATOM     10 H    GLY C   4     -15.507  12.246  20.088  1.00 25.00 LIG 0.16  HD
BRANCH 8 11
ATOM     11  CA  PHE C   3     -17.618  12.314  18.585  1.00 26.56 LIG 0.18  C 
BRANCH 11 12
ATOM     12  CB  PHE C   3     -18.309  12.851  17.347  1.00 27.24 LIG 0.07  C 
BRANCH 12 13
ATOM     13  CG  PHE C   3     -18.791  11.802  16.441  1.00 26.12 LIG-0.06  A 
ATOM     14  CD1 PHE C   3     -19.383  10.667  16.971  1.00 28.42 LIG 0.01  A 
ATOM     15  CE1 PHE C   3     -19.888   9.659  16.138  1.00 27.55 LIG 0.00  A 
ATOM     16  CZ  PHE C   3     -19.690   9.745  14.722  1.00 28.40 LIG 0.00  A 
ATOM     17  CE2 PHE C   3     -19.091  10.897  14.178  1.00 22.84 LIG 0.00  A 
ATOM     18  CD2 PHE C   3     -18.597  11.902  15.045  1.00 25.80 LIG 0.01  A 
ENDBRANCH 12 13
ENDBRANCH 11 12
BRANCH 11 19
ATOM     19  N   PHE C   3     -17.721  13.287  19.681  1.00 29.45 LIG-0.35  N 
ATOM     20 H    PHE C   3     -18.150  13.013  20.375  1.00 29.45 LIG 0.16  HD
ATOM     21  C   GLY C   2     -17.170  14.495  19.560  1.00 31.80 LIG 0.25  C 
ATOM     22 O    GLY C   2     -16.686  14.913  18.475  1.00 33.21 LIG-0.27  OA
BRANCH 21 23
ATOM     23  CA  GLY C   2     -17.260  15.393  20.792  1.00 32.25 LIG 0.47  C 
ATOM     24  N   GLY C   2     -18.162  16.572  20.583  1.00 32.96 LIG 0.61  N 
ENDBRANCH 21 23
ENDBRANCH 11 19
ENDBRANCH 8 11
ENDBRANCH 6 7
ENDBRANCH 3 6
ENDBRANCH 1 2
BRANCH 1 25
ATOM     25  C   LEU C   5     -12.116   7.942  21.149  1.00 23.49 LIG 0.24  C 
ATOM     26  N   PHE C   6     -13.127   8.510  21.810  1.00 22.96 LIG-0.35  N 
ATOM     27 H    PHE C   6     -13.603   9.159  21.505  1.00 22.96 LIG 0.16  HD
ATOM     28 O    LEU C   5     -11.553   6.895  21.542  1.00 25.98 LIG-0.27  OA
BRANCH 26 29
ATOM     29  CA  PHE C   6     -13.511   8.042  23.166  1.00 22.19 LIG 0.18  C 
BRANCH 29 30
ATOM     30  C   PHE C   6     -14.884   7.386  23.282  1.00 17.26 LIG 0.24  C 
ATOM     31 O    PHE C   6     -15.194   6.698  24.209  1.00 22.18 LIG-0.27  OA
ATOM     32  N   ASP C   7     -15.727   7.605  22.266  1.00 22.18 LIG-0.35  N 
ATOM     33 H    ASP C   7     -15.541   8.094  21.583  1.00 22.18 LIG 0.16  HD
BRANCH 32 34
ATOM     34  CA  ASP C   7     -17.070   7.008  22.243  1.00 22.70 LIG 0.17  C 
BRANCH 34 35
ATOM     35  C   ASP C   7     -17.130   5.648  21.598  1.00 27.36 LIG 0.22  C 
ATOM     36 O    ASP C   7     -17.024   4.598  22.276  1.00 28.20 LIG-0.29  OA
ENDBRANCH 34 35
BRANCH 34 37
ATOM     37  CB  ASP C   7     -18.022   7.938  21.478  1.00 23.18 LIG 0.15  C 
BRANCH 37 38
ATOM     38  CG  ASP C   7     -17.866   7.851  19.977  1.00 26.80 LIG 0.17  C 
ATOM     39 OD2  ASP C   7     -18.350   6.829  19.398  1.00 27.82 LIG-0.65  OA
ATOM     40 OD1  ASP C   7     -17.218   8.792  19.398  1.00 32.15 LIG-0.65  OA
ENDBRANCH 37 38
ENDBRANCH 34 37
ENDBRANCH 32 34
ENDBRANCH 29 30
BRANCH 29 41
ATOM     41  CB  PHE C   6     -13.321   9.152  24.229  1.00 21.19 LIG 0.07  C 
BRANCH 41 42
ATOM     42  CG  PHE C   6     -11.897   9.512  24.462  1.00 25.43 LIG-0.06  A 
ATOM     43  CD2 PHE C   6     -11.506  10.829  24.746  1.00 26.31 LIG 0.01  A 
ATOM     44  CE2 PHE C   6     -10.171  11.110  25.023  1.00 29.51 LIG 0.00  A 
ATOM     45  CZ  PHE C   6      -9.191  10.113  24.931  1.00 25.82 LIG 0.00  A 
ATOM     46  CE1 PHE C   6      -9.562   8.832  24.624  1.00 26.71 LIG 0.00  A 
ATOM     47  CD1 PHE C   6     -10.925   8.537  24.367  1.00 21.41 LIG 0.01  A 
ENDBRANCH 41 42
ENDBRANCH 29 41
ENDBRANCH 26 29
ENDBRANCH 1 25
BRANCH 1 48
ATOM     48  CB  LEU C   5     -10.247   8.172  19.480  1.00 26.63 LIG 0.04  C 
BRANCH 48 49
ATOM     49  CG  LEU C   5      -9.191   8.945  20.199  1.00 31.82 LIG-0.02  C 
ATOM     50  CD2 LEU C   5      -7.952   9.024  19.233  1.00 33.90 LIG 0.01  C 
ATOM     51  CD1 LEU C   5      -8.827   8.329  21.556  1.00 30.04 LIG 0.01  C 
ENDBRANCH 48 49
ENDBRANCH 1 48
TORSDOF 19
ENDMDL
MODEL 39
USER: ADFR SOLUTION from run 78
USER: SCORE 15.390936 LL:  -5.359 LR: -11.624 RR:   0.000 FEB:  -5.957
USER: RMSD 5.146358
USER: SEED 77
USER: STATUS no improvement in best in 9 clusters for 5 generations
USER: GENES 21
USER: genes 0 Translation |==|  0.70316 0.58310 0.44191
USER: genes 1 Rotation |==|  0.56625 0.84057 0.29446 0.79560
USER: genes 2 Torsion [C]-CA--N-[C] |==|  0.68889
USER: genes 3 Torsion [N]-C--CA-[N] |==|  0.91469
USER: genes 4 Torsion [C]-CA--N-[C] |==|  0.88276
USER: genes 5 Torsion [N]-C--CA-[N] |==|  0.54200
USER: genes 6 Torsion [C]-CA--CB-[CG] |==|  0.77817
USER: genes 7 Torsion [CA]-CB--CG-[CD1] |==|  0.19788
USER: genes 8 Torsion [C]-CA--N-[C] |==|  0.78103
USER: genes 9 Torsion [N]-C--CA-[N] |==|  0.93899
USER: genes 10 Torsion [N]-CA--C-[N] |==|  0.00144
USER: genes 11 Torsion [C]-N--CA-[C] |==|  0.16812
USER: genes 12 Torsion [N]-CA--C-[N] |==|  0.00728
USER: genes 13 Torsion [C]-N--CA-[C] |==|  0.13972
USER: genes 14 Torsion [N]-CA--C-[O] |==|  0.09844
USER: genes 15 Torsion [N]-CA--CB-[CG] |==|  0.59731
USER: genes 16 Torsion [CA]-CB--CG-[OD1] |==|  0.71020
USER: genes 17 Torsion [N]-CA--CB-[CG] |==|  0.80822
USER: genes 18 Torsion [CA]-CB--CG-[CD2] |==|  0.00140
USER: genes 19 Torsion [N]-CA--CB-[CG] |==|  0.78150
USER: genes 20 Torsion [CA]-CB--CG-[CD2] |==|  0.12616
ROOT
ATOM      1  CA  LEU C   5     -11.159   9.761  21.727  1.00 25.10 LIG 0.18  C 
ENDROOT
BRANCH 1 2
ATOM      2  N   LEU C   5     -11.239   9.263  23.159  1.00 25.35 LIG-0.35  N 
ATOM      3  C   GLY C   4     -10.242   9.555  24.042  1.00 24.95 LIG 0.24  C 
ATOM      4 O    GLY C   4      -9.254  10.205  23.682  1.00 25.89 LIG-0.27  OA
ATOM      5 H    LEU C   5     -11.941   8.802  23.346  1.00 25.35 LIG 0.16  HD
BRANCH 3 6
ATOM      6  CA  GLY C   4     -10.346   9.103  25.458  1.00 25.42 LIG 0.23  C 
BRANCH 6 7
ATOM      7  N   GLY C   4     -11.682   8.990  26.043  1.00 25.00 LIG-0.35  N 
ATOM      8  C   PHE C   3     -12.655   9.915  25.845  1.00 25.70 LIG 0.24  C 
ATOM      9 O    PHE C   3     -12.500  10.907  25.108  1.00 20.17 LIG-0.27  OA
ATOM     10 H    GLY C   4     -11.793   8.285  26.522  1.00 25.00 LIG 0.16  HD
BRANCH 8 11
ATOM     11  CA  PHE C   3     -14.024   9.601  26.446  1.00 26.56 LIG 0.18  C 
BRANCH 11 12
ATOM     12  CB  PHE C   3     -14.356   8.150  26.160  1.00 27.24 LIG 0.07  C 
BRANCH 12 13
ATOM     13  CG  PHE C   3     -14.858   7.918  24.800  1.00 26.12 LIG-0.06  A 
ATOM     14  CD1 PHE C   3     -13.986   8.018  23.728  1.00 28.42 LIG 0.01  A 
ATOM     15  CE1 PHE C   3     -14.418   7.770  22.418  1.00 27.55 LIG 0.00  A 
ATOM     16  CZ  PHE C   3     -15.807   7.520  22.166  1.00 28.40 LIG 0.00  A 
ATOM     17  CE2 PHE C   3     -16.696   7.416  23.252  1.00 22.84 LIG 0.00  A 
ATOM     18  CD2 PHE C   3     -16.228   7.666  24.565  1.00 25.80 LIG 0.01  A 
ENDBRANCH 12 13
ENDBRANCH 11 12
BRANCH 11 19
ATOM     19  N   PHE C   3     -15.054  10.476  25.869  1.00 29.45 LIG-0.35  N 
ATOM     20 H    PHE C   3     -15.541  10.114  25.258  1.00 29.45 LIG 0.16  HD
ATOM     21  C   GLY C   2     -15.184  11.731  26.297  1.00 31.80 LIG 0.25  C 
ATOM     22 O    GLY C   2     -14.357  12.270  27.079  1.00 33.21 LIG-0.27  OA
BRANCH 21 23
ATOM     23  CA  GLY C   2     -16.344  12.523  25.694  1.00 32.25 LIG 0.47  C 
ATOM     24  N   GLY C   2     -16.804  11.962  24.382  1.00 32.96 LIG 0.61  N 
ENDBRANCH 21 23
ENDBRANCH 11 19
ENDBRANCH 8 11
ENDBRANCH 6 7
ENDBRANCH 3 6
ENDBRANCH 1 2
BRANCH 1 25
ATOM     25  C   LEU C   5     -12.192  10.826  21.333  1.00 23.49 LIG 0.24  C 
ATOM     26  N   PHE C   6     -13.051  11.222  22.276  1.00 22.96 LIG-0.35  N 
ATOM     27 H    PHE C   6     -13.038  10.946  23.091  1.00 22.96 LIG 0.16  HD
ATOM     28 O    LEU C   5     -12.128  11.367  20.205  1.00 25.98 LIG-0.27  OA
BRANCH 26 29
ATOM     29  CA  PHE C   6     -14.126  12.199  21.968  1.00 22.19 LIG 0.18  C 
BRANCH 29 30
ATOM     30  C   PHE C   6     -15.128  11.775  20.898  1.00 17.26 LIG 0.24  C 
ATOM     31 O    PHE C   6     -16.024  12.479  20.539  1.00 22.18 LIG-0.27  OA
ATOM     32  N   ASP C   7     -14.962  10.547  20.393  1.00 22.18 LIG-0.35  N 
ATOM     33 H    ASP C   7     -14.330  10.012  20.625  1.00 22.18 LIG 0.16  HD
BRANCH 32 34
ATOM     34  CA  ASP C   7     -15.877  10.007  19.376  1.00 22.70 LIG 0.17  C 
BRANCH 34 35
ATOM     35  C   ASP C   7     -16.106  10.924  18.204  1.00 27.36 LIG 0.22  C 
ATOM     36 O    ASP C   7     -15.190  11.654  17.755  1.00 28.20 LIG-0.29  OA
ENDBRANCH 34 35
BRANCH 34 37
ATOM     37  CB  ASP C   7     -17.237   9.717  20.024  1.00 23.18 LIG 0.15  C 
BRANCH 37 38
ATOM     38  CG  ASP C   7     -17.925   8.498  19.453  1.00 26.80 LIG 0.17  C 
ATOM     39 OD2  ASP C   7     -17.456   7.360  19.772  1.00 27.82 LIG-0.65  OA
ATOM     40 OD1  ASP C   7     -18.904   8.696  18.652  1.00 32.15 LIG-0.65  OA
ENDBRANCH 37 38
ENDBRANCH 34 37
ENDBRANCH 32 34
ENDBRANCH 29 30
BRANCH 29 41
ATOM     41  CB  PHE C   6     -13.551  13.608  21.680  1.00 21.19 LIG 0.07  C 
BRANCH 41 42
ATOM     42  CG  PHE C   6     -12.971  14.267  22.880  1.00 25.43 LIG-0.06  A 
ATOM     43  CD2 PHE C   6     -12.953  13.637  24.133  1.00 26.31 LIG 0.01  A 
ATOM     44  CE2 PHE C   6     -12.341  14.264  25.215  1.00 29.51 LIG 0.00  A 
ATOM     45  CZ  PHE C   6     -11.820  15.559  25.097  1.00 25.82 LIG 0.00  A 
ATOM     46  CE1 PHE C   6     -11.861  16.192  23.884  1.00 26.71 LIG 0.00  A 
ATOM     47  CD1 PHE C   6     -12.461  15.546  22.773  1.00 21.41 LIG 0.01  A 
ENDBRANCH 41 42
ENDBRANCH 29 41
ENDBRANCH 26 29
ENDBRANCH 1 25
BRANCH 1 48
ATOM     48  CB  LEU C   5     -11.133   8.666  20.596  1.00 26.63 LIG 0.04  C 
BRANCH 48 49
ATOM     49  CG  LEU C   5      -9.837   7.968  20.345  1.00 31.82 LIG-0.02  C 
ATOM     50  CD2 LEU C   5      -9.253   7.579  21.752  1.00 33.90 LIG 0.01  C 
ATOM     51  CD1 LEU C   5      -8.856   8.818  19.527  1.00 30.04 LIG 0.01  C 
ENDBRANCH 48 49
ENDBRANCH 1 48
TORSDOF 19
ENDMDL
MODEL 40
USER: ADFR SOLUTION from run 151
USER: SCORE 14.227986 LL:  -4.398 LR: -11.605 RR:   0.000 FEB:  -5.938
USER: RMSD 2.548198
USER: SEED 150
USER: STATUS no improvement in best in 13 clusters for 5 generations
USER: GENES 21
USER: genes 0 Translation |==|  0.59795 0.59520 0.54559
USER: genes 1 Rotation |==|  0.60690 0.57429 0.41326 0.97490
USER: genes 2 Torsion [C]-CA--N-[C] |==|  0.20555
USER: genes 3 Torsion [N]-C--CA-[N] |==|  0.72975
USER: genes 4 Torsion [C]-CA--N-[C] |==|  0.75702
USER: genes 5 Torsion [N]-C--CA-[N] |==|  0.26235
USER: genes 6 Torsion [C]-CA--CB-[CG] |==|  0.68721
USER: genes 7 Torsion [CA]-CB--CG-[CD1] |==|  0.25597
USER: genes 8 Torsion [C]-CA--N-[C] |==|  0.74736
USER: genes 9 Torsion [N]-C--CA-[N] |==|  0.64799
USER: genes 10 Torsion [N]-CA--C-[N] |==|  0.88080
USER: genes 11 Torsion [C]-N--CA-[C] |==|  0.64550
USER: genes 12 Torsion [N]-CA--C-[N] |==|  0.03302
USER: genes 13 Torsion [C]-N--CA-[C] |==|  0.63229
USER: genes 14 Torsion [N]-CA--C-[O] |==|  0.26454
USER: genes 15 Torsion [N]-CA--CB-[CG] |==|  0.08751
USER: genes 16 Torsion [CA]-CB--CG-[OD1] |==|  0.61937
USER: genes 17 Torsion [N]-CA--CB-[CG] |==|  0.94127
USER: genes 18 Torsion [CA]-CB--CG-[CD2] |==|  0.22012
USER: genes 19 Torsion [N]-CA--CB-[CG] |==|  0.57186
USER: genes 20 Torsion [CA]-CB--CG-[CD2] |==|  0.46808
ROOT
ATOM      1  CA  LEU C   5     -13.053  10.025  23.594  1.00 25.10 LIG 0.18  C 
ENDROOT
BRANCH 1 2
ATOM      2  N   LEU C   5     -14.366   9.364  23.970  1.00 25.35 LIG-0.35  N 
ATOM      3  C   GLY C   4     -14.753   8.209  23.356  1.00 24.95 LIG 0.24  C 
ATOM      4 O    GLY C   4     -14.053   7.703  22.472  1.00 25.89 LIG-0.27  OA
ATOM      5 H    LEU C   5     -14.819   9.771  24.578  1.00 25.35 LIG 0.16  HD
BRANCH 3 6
ATOM      6  CA  GLY C   4     -16.021   7.540  23.760  1.00 25.42 LIG 0.23  C 
BRANCH 6 7
ATOM      7  N   GLY C   4     -15.936   6.434  24.713  1.00 25.00 LIG-0.35  N 
ATOM      8  C   PHE C   3     -15.730   5.148  24.335  1.00 25.70 LIG 0.24  C 
ATOM      9 O    PHE C   3     -15.548   4.816  23.148  1.00 20.17 LIG-0.27  OA
ATOM     10 H    GLY C   4     -16.028   6.675  25.534  1.00 25.00 LIG 0.16  HD
BRANCH 8 11
ATOM     11  CA  PHE C   3     -15.570   4.125  25.459  1.00 26.56 LIG 0.18  C 
BRANCH 11 12
ATOM     12  CB  PHE C   3     -14.562   3.081  25.021  1.00 27.24 LIG 0.07  C 
BRANCH 12 13
ATOM     13  CG  PHE C   3     -15.147   1.750  24.814  1.00 26.12 LIG-0.06  A 
ATOM     14  CD1 PHE C   3     -15.593   1.393  23.553  1.00 28.42 LIG 0.01  A 
ATOM     15  CE1 PHE C   3     -16.125   0.120  23.307  1.00 27.55 LIG 0.00  A 
ATOM     16  CZ  PHE C   3     -16.316  -0.790  24.397  1.00 28.40 LIG 0.00  A 
ATOM     17  CE2 PHE C   3     -15.863  -0.433  25.681  1.00 22.84 LIG 0.00  A 
ATOM     18  CD2 PHE C   3     -15.324   0.859  25.896  1.00 25.80 LIG 0.01  A 
ENDBRANCH 12 13
ENDBRANCH 11 12
BRANCH 11 19
ATOM     19  N   PHE C   3     -16.858   3.486  25.764  1.00 29.45 LIG-0.35  N 
ATOM     20 H    PHE C   3     -17.033   2.779  25.304  1.00 29.45 LIG 0.16  HD
ATOM     21  C   GLY C   2     -17.659   4.003  26.694  1.00 31.80 LIG 0.25  C 
ATOM     22 O    GLY C   2     -17.440   5.120  27.233  1.00 33.21 LIG-0.27  OA
BRANCH 21 23
ATOM     23  CA  GLY C   2     -18.930   3.209  26.993  1.00 32.25 LIG 0.47  C 
ATOM     24  N   GLY C   2     -20.171   4.043  26.886  1.00 32.96 LIG 0.61  N 
ENDBRANCH 21 23
ENDBRANCH 11 19
ENDBRANCH 8 11
ENDBRANCH 6 7
ENDBRANCH 3 6
ENDBRANCH 1 2
BRANCH 1 25
ATOM     25  C   LEU C   5     -13.032  10.744  22.238  1.00 23.49 LIG 0.24  C 
ATOM     26  N   PHE C   6     -13.614  10.124  21.209  1.00 22.96 LIG-0.35  N 
ATOM     27 H    PHE C   6     -14.027   9.371  21.266  1.00 22.96 LIG 0.16  HD
ATOM     28 O    LEU C   5     -12.589  11.913  22.161  1.00 25.98 LIG-0.27  OA
BRANCH 26 29
ATOM     29  CA  PHE C   6     -13.587  10.714  19.847  1.00 22.19 LIG 0.18  C 
BRANCH 29 30
ATOM     30  C   PHE C   6     -14.938  10.851  19.151  1.00 17.26 LIG 0.24  C 
ATOM     31 O    PHE C   6     -15.042  11.132  17.994  1.00 22.18 LIG-0.27  OA
ATOM     32  N   ASP C   7     -16.016  10.660  19.920  1.00 22.18 LIG-0.35  N 
ATOM     33 H    ASP C   7     -15.983  10.456  20.755  1.00 22.18 LIG 0.16  HD
BRANCH 32 34
ATOM     34  CA  ASP C   7     -17.377  10.789  19.377  1.00 22.70 LIG 0.17  C 
BRANCH 34 35
ATOM     35  C   ASP C   7     -18.301  11.625  20.222  1.00 27.36 LIG 0.22  C 
ATOM     36 O    ASP C   7     -18.478  12.845  19.989  1.00 28.20 LIG-0.29  OA
ENDBRANCH 34 35
BRANCH 34 37
ATOM     37  CB  ASP C   7     -17.997   9.393  19.234  1.00 23.18 LIG 0.15  C 
BRANCH 37 38
ATOM     38  CG  ASP C   7     -17.510   8.411  20.275  1.00 26.80 LIG 0.17  C 
ATOM     39 OD2  ASP C   7     -17.377   8.841  21.464  1.00 27.82 LIG-0.65  OA
ATOM     40 OD1  ASP C   7     -17.221   7.228  19.879  1.00 32.15 LIG-0.65  OA
ENDBRANCH 37 38
ENDBRANCH 34 37
ENDBRANCH 32 34
ENDBRANCH 29 30
BRANCH 29 41
ATOM     41  CB  PHE C   6     -12.549  10.009  18.939  1.00 21.19 LIG 0.07  C 
BRANCH 41 42
ATOM     42  CG  PHE C   6     -11.494   9.284  19.696  1.00 25.43 LIG-0.06  A 
ATOM     43  CD2 PHE C   6     -11.727   8.020  20.259  1.00 26.31 LIG 0.01  A 
ATOM     44  CE2 PHE C   6     -10.691   7.349  20.903  1.00 29.51 LIG 0.00  A 
ATOM     45  CZ  PHE C   6      -9.440   7.954  21.080  1.00 25.82 LIG 0.00  A 
ATOM     46  CE1 PHE C   6      -9.216   9.201  20.560  1.00 26.71 LIG 0.00  A 
ATOM     47  CD1 PHE C   6     -10.261   9.877  19.881  1.00 21.41 LIG 0.01  A 
ENDBRANCH 41 42
ENDBRANCH 29 41
ENDBRANCH 26 29
ENDBRANCH 1 25
BRANCH 1 48
ATOM     48  CB  LEU C   5     -11.758   9.133  23.691  1.00 26.63 LIG 0.04  C 
BRANCH 48 49
ATOM     49  CG  LEU C   5     -10.457   9.831  23.914  1.00 31.82 LIG-0.02  C 
ATOM     50  CD2 LEU C   5      -9.403   8.718  24.267  1.00 33.90 LIG 0.01  C 
ATOM     51  CD1 LEU C   5     -10.544  10.910  25.001  1.00 30.04 LIG 0.01  C 
ENDBRANCH 48 49
ENDBRANCH 1 48
TORSDOF 19
ENDMDL
MODEL 41
USER: ADFR SOLUTION from run 37
USER: SCORE 15.797654 LL:  -5.200 LR: -11.597 RR:   0.000 FEB:  -5.929
USER: RMSD 3.252400
USER: SEED 36
USER: STATUS no improvement in best in 8 clusters for 5 generations
USER: GENES 21
USER: genes 0 Translation |==|  0.63166 0.56626 0.56223
USER: genes 1 Rotation |==|  0.57652 0.68987 0.45416 0.95387
USER: genes 2 Torsion [C]-CA--N-[C] |==|  0.69011
USER: genes 3 Torsion [N]-C--CA-[N] |==|  0.95912
USER: genes 4 Torsion [C]-CA--N-[C] |==|  0.84442
USER: genes 5 Torsion [N]-C--CA-[N] |==|  0.45894
USER: genes 6 Torsion [C]-CA--CB-[CG] |==|  0.39394
USER: genes 7 Torsion [CA]-CB--CG-[CD1] |==|  0.74880
USER: genes 8 Torsion [C]-CA--N-[C] |==|  0.77968
USER: genes 9 Torsion [N]-C--CA-[N] |==|  0.70884
USER: genes 10 Torsion [N]-CA--C-[N] |==|  0.82854
USER: genes 11 Torsion [C]-N--CA-[C] |==|  0.65066
USER: genes 12 Torsion [N]-CA--C-[N] |==|  0.08054
USER: genes 13 Torsion [C]-N--CA-[C] |==|  0.16880
USER: genes 14 Torsion [N]-CA--C-[O] |==|  0.12792
USER: genes 15 Torsion [N]-CA--CB-[CG] |==|  0.36493
USER: genes 16 Torsion [CA]-CB--CG-[OD1] |==|  0.76394
USER: genes 17 Torsion [N]-CA--CB-[CG] |==|  0.97002
USER: genes 18 Torsion [CA]-CB--CG-[CD2] |==|  0.73302
USER: genes 19 Torsion [N]-CA--CB-[CG] |==|  0.80134
USER: genes 20 Torsion [CA]-CB--CG-[CD2] |==|  0.81280
ROOT
ATOM      1  CA  LEU C   5     -12.446   9.395  23.893  1.00 25.10 LIG 0.18  C 
ENDROOT
BRANCH 1 2
ATOM      2  N   LEU C   5     -13.267   8.446  24.746  1.00 25.35 LIG-0.35  N 
ATOM      3  C   GLY C   4     -13.601   8.788  26.024  1.00 24.95 LIG 0.24  C 
ATOM      4 O    GLY C   4     -13.219   9.860  26.508  1.00 25.89 LIG-0.27  OA
ATOM      5 H    LEU C   5     -13.489   7.709  24.363  1.00 25.35 LIG 0.16  HD
BRANCH 3 6
ATOM      6  CA  GLY C   4     -14.445   7.874  26.843  1.00 25.42 LIG 0.23  C 
BRANCH 6 7
ATOM      7  N   GLY C   4     -15.158   6.800  26.152  1.00 25.00 LIG-0.35  N 
ATOM      8  C   PHE C   3     -16.014   7.024  25.124  1.00 25.70 LIG 0.24  C 
ATOM      9 O    PHE C   3     -16.221   8.160  24.657  1.00 20.17 LIG-0.27  OA
ATOM     10 H    GLY C   4     -14.983   6.015  26.458  1.00 25.00 LIG 0.16  HD
BRANCH 8 11
ATOM     11  CA  PHE C   3     -16.603   5.788  24.447  1.00 26.56 LIG 0.18  C 
BRANCH 11 12
ATOM     12  CB  PHE C   3     -15.527   5.144  23.596  1.00 27.24 LIG 0.07  C 
BRANCH 12 13
ATOM     13  CG  PHE C   3     -15.558   3.677  23.619  1.00 26.12 LIG-0.06  A 
ATOM     14  CD1 PHE C   3     -14.817   2.996  24.571  1.00 28.42 LIG 0.01  A 
ATOM     15  CE1 PHE C   3     -14.848   1.597  24.648  1.00 27.55 LIG 0.00  A 
ATOM     16  CZ  PHE C   3     -15.566   0.849  23.659  1.00 28.40 LIG 0.00  A 
ATOM     17  CE2 PHE C   3     -16.322   1.535  22.690  1.00 22.84 LIG 0.00  A 
ATOM     18  CD2 PHE C   3     -16.275   2.950  22.642  1.00 25.80 LIG 0.01  A 
ENDBRANCH 12 13
ENDBRANCH 11 12
BRANCH 11 19
ATOM     19  N   PHE C   3     -17.754   6.155  23.611  1.00 29.45 LIG-0.35  N 
ATOM     20 H    PHE C   3     -17.589   6.212  22.768  1.00 29.45 LIG 0.16  HD
ATOM     21  C   GLY C   2     -18.945   6.374  24.167  1.00 31.80 LIG 0.25  C 
ATOM     22 O    GLY C   2     -19.110   6.432  25.414  1.00 33.21 LIG-0.27  OA
BRANCH 21 23
ATOM     23  CA  GLY C   2     -20.089   6.661  23.197  1.00 32.25 LIG 0.47  C 
ATOM     24  N   GLY C   2     -20.473   8.110  23.171  1.00 32.96 LIG 0.61  N 
ENDBRANCH 21 23
ENDBRANCH 11 19
ENDBRANCH 8 11
ENDBRANCH 6 7
ENDBRANCH 3 6
ENDBRANCH 1 2
BRANCH 1 25
ATOM     25  C   LEU C   5     -13.182  10.029  22.704  1.00 23.49 LIG 0.24  C 
ATOM     26  N   PHE C   6     -13.649   9.203  21.765  1.00 22.96 LIG-0.35  N 
ATOM     27 H    PHE C   6     -13.596   8.345  21.804  1.00 22.96 LIG 0.16  HD
ATOM     28 O    LEU C   5     -13.421  11.258  22.705  1.00 25.98 LIG-0.27  OA
BRANCH 26 29
ATOM     29  CA  PHE C   6     -14.317   9.730  20.548  1.00 22.19 LIG 0.18  C 
BRANCH 29 30
ATOM     30  C   PHE C   6     -15.711   9.180  20.260  1.00 17.26 LIG 0.24  C 
ATOM     31 O    PHE C   6     -16.160   9.108  19.155  1.00 22.18 LIG-0.27  OA
ATOM     32  N   ASP C   7     -16.423   8.799  21.326  1.00 22.18 LIG-0.35  N 
ATOM     33 H    ASP C   7     -16.136   8.834  22.136  1.00 22.18 LIG 0.16  HD
BRANCH 32 34
ATOM     34  CA  ASP C   7     -17.791   8.277  21.187  1.00 22.70 LIG 0.17  C 
BRANCH 34 35
ATOM     35  C   ASP C   7     -17.893   7.025  20.357  1.00 27.36 LIG 0.22  C 
ATOM     36 O    ASP C   7     -17.103   6.064  20.523  1.00 28.20 LIG-0.29  OA
ENDBRANCH 34 35
BRANCH 34 37
ATOM     37  CB  ASP C   7     -18.676   9.350  20.538  1.00 23.18 LIG 0.15  C 
BRANCH 37 38
ATOM     38  CG  ASP C   7     -19.502   8.827  19.385  1.00 26.80 LIG 0.17  C 
ATOM     39 OD2  ASP C   7     -20.677   8.418  19.647  1.00 27.82 LIG-0.65  OA
ATOM     40 OD1  ASP C   7     -18.946   8.790  18.232  1.00 32.15 LIG-0.65  OA
ENDBRANCH 37 38
ENDBRANCH 34 37
ENDBRANCH 32 34
ENDBRANCH 29 30
BRANCH 29 41
ATOM     41  CB  PHE C   6     -13.399   9.631  19.305  1.00 21.19 LIG 0.07  C 
BRANCH 41 42
ATOM     42  CG  PHE C   6     -11.992   9.280  19.633  1.00 25.43 LIG-0.06  A 
ATOM     43  CD2 PHE C   6     -11.001  10.263  19.775  1.00 26.31 LIG 0.01  A 
ATOM     44  CE2 PHE C   6      -9.710   9.895  20.148  1.00 29.51 LIG 0.00  A 
ATOM     45  CZ  PHE C   6      -9.360   8.547  20.294  1.00 25.82 LIG 0.00  A 
ATOM     46  CE1 PHE C   6     -10.315   7.581  20.127  1.00 26.71 LIG 0.00  A 
ATOM     47  CD1 PHE C   6     -11.637   7.953  19.773  1.00 21.41 LIG 0.01  A 
ENDBRANCH 41 42
ENDBRANCH 29 41
ENDBRANCH 26 29
ENDBRANCH 1 25
BRANCH 1 48
ATOM     48  CB  LEU C   5     -11.056   8.862  23.378  1.00 26.63 LIG 0.04  C 
BRANCH 48 49
ATOM     49  CG  LEU C   5      -9.961   8.713  24.382  1.00 31.82 LIG-0.02  C 
ATOM     50  CD2 LEU C   5      -9.578  10.165  24.851  1.00 33.90 LIG 0.01  C 
ATOM     51  CD1 LEU C   5      -8.753   7.947  23.831  1.00 30.04 LIG 0.01  C 
ENDBRANCH 48 49
ENDBRANCH 1 48
TORSDOF 19
ENDMDL
MODEL 42
USER: ADFR SOLUTION from run 3
USER: SCORE 15.648059 LL:  -5.008 LR: -11.588 RR:   0.000 FEB:  -5.920
USER: RMSD 7.097941
USER: SEED 228096
USER: STATUS searching
USER: GENES 21
USER: genes 0 Translation |==|  0.67579 0.56190 0.33350
USER: genes 1 Rotation |==|  0.03586 0.50609 0.37216 0.63487
USER: genes 2 Torsion [C]-CA--N-[C] |==|  0.78955
USER: genes 3 Torsion [N]-C--CA-[N] |==|  0.80920
USER: genes 4 Torsion [C]-CA--N-[C] |==|  0.17778
USER: genes 5 Torsion [N]-C--CA-[N] |==|  0.33926
USER: genes 6 Torsion [C]-CA--CB-[CG] |==|  0.71663
USER: genes 7 Torsion [CA]-CB--CG-[CD1] |==|  0.68491
USER: genes 8 Torsion [C]-CA--N-[C] |==|  0.80544
USER: genes 9 Torsion [N]-C--CA-[N] |==|  0.41090
USER: genes 10 Torsion [N]-CA--C-[N] |==|  0.94281
USER: genes 11 Torsion [C]-N--CA-[C] |==|  0.70020
USER: genes 12 Torsion [N]-CA--C-[N] |==|  0.98925
USER: genes 13 Torsion [C]-N--CA-[C] |==|  0.73533
USER: genes 14 Torsion [N]-CA--C-[O] |==|  0.24759
USER: genes 15 Torsion [N]-CA--CB-[CG] |==|  0.24259
USER: genes 16 Torsion [CA]-CB--CG-[OD1] |==|  0.74535
USER: genes 17 Torsion [N]-CA--CB-[CG] |==|  0.85095
USER: genes 18 Torsion [CA]-CB--CG-[CD2] |==|  0.87033
USER: genes 19 Torsion [N]-CA--CB-[CG] |==|  0.54770
USER: genes 20 Torsion [CA]-CB--CG-[CD2] |==|  0.72498
ROOT
ATOM      1  CA  LEU C   5     -11.652   9.300  19.776  1.00 25.10 LIG 0.18  C 
ENDROOT
BRANCH 1 2
ATOM      2  N   LEU C   5     -12.576  10.463  19.467  1.00 25.35 LIG-0.35  N 
ATOM      3  C   GLY C   4     -13.751  10.248  18.808  1.00 24.95 LIG 0.24  C 
ATOM      4 O    GLY C   4     -14.063   9.111  18.435  1.00 25.89 LIG-0.27  OA
ATOM      5 H    LEU C   5     -12.299  11.232  19.734  1.00 25.35 LIG 0.16  HD
BRANCH 3 6
ATOM      6  CA  GLY C   4     -14.678  11.385  18.546  1.00 25.42 LIG 0.23  C 
BRANCH 6 7
ATOM      7  N   GLY C   4     -15.355  11.992  19.692  1.00 25.00 LIG-0.35  N 
ATOM      8  C   PHE C   3     -14.691  12.635  20.685  1.00 25.70 LIG 0.24  C 
ATOM      9 O    PHE C   3     -13.457  12.800  20.672  1.00 20.17 LIG-0.27  OA
ATOM     10 H    GLY C   4     -16.210  11.904  19.676  1.00 25.00 LIG 0.16  HD
BRANCH 8 11
ATOM     11  CA  PHE C   3     -15.551  13.297  21.760  1.00 26.56 LIG 0.18  C 
BRANCH 11 12
ATOM     12  CB  PHE C   3     -15.306  14.792  21.720  1.00 27.24 LIG 0.07  C 
BRANCH 12 13
ATOM     13  CG  PHE C   3     -14.413  15.270  22.784  1.00 26.12 LIG-0.06  A 
ATOM     14  CD1 PHE C   3     -14.917  16.100  23.772  1.00 28.42 LIG 0.01  A 
ATOM     15  CE1 PHE C   3     -14.106  16.549  24.823  1.00 27.55 LIG 0.00  A 
ATOM     16  CZ  PHE C   3     -12.707  16.239  24.819  1.00 28.40 LIG 0.00  A 
ATOM     17  CE2 PHE C   3     -12.190  15.394  23.820  1.00 22.84 LIG 0.00  A 
ATOM     18  CD2 PHE C   3     -13.036  14.952  22.773  1.00 25.80 LIG 0.01  A 
ENDBRANCH 12 13
ENDBRANCH 11 12
BRANCH 11 19
ATOM     19  N   PHE C   3     -15.218  12.767  23.089  1.00 29.45 LIG-0.35  N 
ATOM     20 H    PHE C   3     -14.812  13.318  23.611  1.00 29.45 LIG 0.16  HD
ATOM     21  C   GLY C   2     -15.543  11.516  23.412  1.00 31.80 LIG 0.25  C 
ATOM     22 O    GLY C   2     -15.996  10.694  22.572  1.00 33.21 LIG-0.27  OA
BRANCH 21 23
ATOM     23  CA  GLY C   2     -15.230  11.098  24.848  1.00 32.25 LIG 0.47  C 
ATOM     24  N   GLY C   2     -16.211  10.100  25.385  1.00 32.96 LIG 0.61  N 
ENDBRANCH 21 23
ENDBRANCH 11 19
ENDBRANCH 8 11
ENDBRANCH 6 7
ENDBRANCH 3 6
ENDBRANCH 1 2
BRANCH 1 25
ATOM     25  C   LEU C   5     -12.087   8.392  20.935  1.00 23.49 LIG 0.24  C 
ATOM     26  N   PHE C   6     -12.952   8.900  21.816  1.00 22.96 LIG-0.35  N 
ATOM     27 H    PHE C   6     -13.304   9.683  21.755  1.00 22.96 LIG 0.16  HD
ATOM     28 O    LEU C   5     -11.722   7.194  20.956  1.00 25.98 LIG-0.27  OA
BRANCH 26 29
ATOM     29  CA  PHE C   6     -13.379   8.118  23.004  1.00 22.19 LIG 0.18  C 
BRANCH 29 30
ATOM     30  C   PHE C   6     -14.810   7.587  22.975  1.00 17.26 LIG 0.24  C 
ATOM     31 O    PHE C   6     -15.249   6.872  23.825  1.00 22.18 LIG-0.27  OA
ATOM     32  N   ASP C   7     -15.549   7.951  21.921  1.00 22.18 LIG-0.35  N 
ATOM     33 H    ASP C   7     -15.269   8.465  21.290  1.00 22.18 LIG 0.16  HD
BRANCH 32 34
ATOM     34  CA  ASP C   7     -16.934   7.485  21.759  1.00 22.70 LIG 0.17  C 
BRANCH 34 35
ATOM     35  C   ASP C   7     -17.078   6.263  20.893  1.00 27.36 LIG 0.22  C 
ATOM     36 O    ASP C   7     -17.014   5.107  21.376  1.00 28.20 LIG-0.29  OA
ENDBRANCH 34 35
BRANCH 34 37
ATOM     37  CB  ASP C   7     -17.775   8.609  21.137  1.00 23.18 LIG 0.15  C 
BRANCH 37 38
ATOM     38  CG  ASP C   7     -17.744   8.613  19.626  1.00 26.80 LIG 0.17  C 
ATOM     39 OD2  ASP C   7     -18.581   7.871  19.023  1.00 27.82 LIG-0.65  OA
ATOM     40 OD1  ASP C   7     -16.847   9.329  19.058  1.00 32.15 LIG-0.65  OA
ENDBRANCH 37 38
ENDBRANCH 34 37
ENDBRANCH 32 34
ENDBRANCH 29 30
BRANCH 29 41
ATOM     41  CB  PHE C   6     -13.080   8.872  24.322  1.00 21.19 LIG 0.07  C 
BRANCH 41 42
ATOM     42  CG  PHE C   6     -11.663   9.304  24.451  1.00 25.43 LIG-0.06  A 
ATOM     43  CD2 PHE C   6     -10.598   8.433  24.171  1.00 26.31 LIG 0.01  A 
ATOM     44  CE2 PHE C   6      -9.288   8.898  24.240  1.00 29.51 LIG 0.00  A 
ATOM     45  CZ  PHE C   6      -9.007  10.200  24.675  1.00 25.82 LIG 0.00  A 
ATOM     46  CE1 PHE C   6     -10.041  11.045  24.979  1.00 26.71 LIG 0.00  A 
ATOM     47  CD1 PHE C   6     -11.378  10.583  24.885  1.00 21.41 LIG 0.01  A 
ENDBRANCH 41 42
ENDBRANCH 29 41
ENDBRANCH 26 29
ENDBRANCH 1 25
BRANCH 1 48
ATOM     48  CB  LEU C   5     -10.126   9.640  19.970  1.00 26.63 LIG 0.04  C 
BRANCH 48 49
ATOM     49  CG  LEU C   5      -9.153   8.512  19.883  1.00 31.82 LIG-0.02  C 
ATOM     50  CD2 LEU C   5      -8.816   8.090  21.360  1.00 33.90 LIG 0.01  C 
ATOM     51  CD1 LEU C   5      -7.895   8.876  19.085  1.00 30.04 LIG 0.01  C 
ENDBRANCH 48 49
ENDBRANCH 1 48
TORSDOF 19
ENDMDL
MODEL 43
USER: ADFR SOLUTION from run 21
USER: SCORE 15.307006 LL:  -4.659 LR: -11.540 RR:   0.000 FEB:  -5.872
USER: RMSD 4.681254
USER: SEED 20
USER: STATUS no improvement in best in 16 clusters for 5 generations
USER: GENES 21
USER: genes 0 Translation |==|  0.66751 0.53937 0.45488
USER: genes 1 Rotation |==|  0.41053 0.78970 0.40248 0.88543
USER: genes 2 Torsion [C]-CA--N-[C] |==|  0.68452
USER: genes 3 Torsion [N]-C--CA-[N] |==|  0.91802
USER: genes 4 Torsion [C]-CA--N-[C] |==|  0.87180
USER: genes 5 Torsion [N]-C--CA-[N] |==|  0.26740
USER: genes 6 Torsion [C]-CA--CB-[CG] |==|  0.36252
USER: genes 7 Torsion [CA]-CB--CG-[CD1] |==|  0.15285
USER: genes 8 Torsion [C]-CA--N-[C] |==|  0.80000
USER: genes 9 Torsion [N]-C--CA-[N] |==|  0.29970
USER: genes 10 Torsion [N]-CA--C-[N] |==|  0.01566
USER: genes 11 Torsion [C]-N--CA-[C] |==|  0.84454
USER: genes 12 Torsion [N]-CA--C-[N] |==|  0.90253
USER: genes 13 Torsion [C]-N--CA-[C] |==|  0.76900
USER: genes 14 Torsion [N]-CA--C-[O] |==|  0.22192
USER: genes 15 Torsion [N]-CA--CB-[CG] |==|  0.18890
USER: genes 16 Torsion [CA]-CB--CG-[OD1] |==|  0.95768
USER: genes 17 Torsion [N]-CA--CB-[CG] |==|  0.67175
USER: genes 18 Torsion [CA]-CB--CG-[CD2] |==|  0.98251
USER: genes 19 Torsion [N]-CA--CB-[CG] |==|  0.60730
USER: genes 20 Torsion [CA]-CB--CG-[CD2] |==|  0.33268
ROOT
ATOM      1  CA  LEU C   5     -11.801   8.810  21.961  1.00 25.10 LIG 0.18  C 
ENDROOT
BRANCH 1 2
ATOM      2  N   LEU C   5     -11.835   8.594  23.462  1.00 25.35 LIG-0.35  N 
ATOM      3  C   GLY C   4     -11.552   9.625  24.310  1.00 24.95 LIG 0.24  C 
ATOM      4 O    GLY C   4     -11.242  10.736  23.865  1.00 25.89 LIG-0.27  OA
ATOM      5 H    LEU C   5     -12.039   7.796  23.712  1.00 25.35 LIG 0.16  HD
BRANCH 3 6
ATOM      6  CA  GLY C   4     -11.630   9.420  25.783  1.00 25.42 LIG 0.23  C 
BRANCH 6 7
ATOM      7  N   GLY C   4     -12.582   8.429  26.286  1.00 25.00 LIG-0.35  N 
ATOM      8  C   PHE C   3     -13.864   8.351  25.851  1.00 25.70 LIG 0.24  C 
ATOM      9 O    PHE C   3     -14.315   9.086  24.952  1.00 20.17 LIG-0.27  OA
ATOM     10 H    GLY C   4     -12.253   7.903  26.881  1.00 25.00 LIG 0.16  HD
BRANCH 8 11
ATOM     11  CA  PHE C   3     -14.701   7.199  26.405  1.00 26.56 LIG 0.18  C 
BRANCH 11 12
ATOM     12  CB  PHE C   3     -15.609   6.689  25.303  1.00 27.24 LIG 0.07  C 
BRANCH 12 13
ATOM     13  CG  PHE C   3     -15.567   5.231  25.136  1.00 26.12 LIG-0.06  A 
ATOM     14  CD1 PHE C   3     -15.825   4.414  26.225  1.00 28.42 LIG 0.01  A 
ATOM     15  CE1 PHE C   3     -15.830   3.019  26.097  1.00 27.55 LIG 0.00  A 
ATOM     16  CZ  PHE C   3     -15.452   2.420  24.851  1.00 28.40 LIG 0.00  A 
ATOM     17  CE2 PHE C   3     -15.191   3.245  23.741  1.00 22.84 LIG 0.00  A 
ATOM     18  CD2 PHE C   3     -15.200   4.652  23.900  1.00 25.80 LIG 0.01  A 
ENDBRANCH 12 13
ENDBRANCH 11 12
BRANCH 11 19
ATOM     19  N   PHE C   3     -15.504   7.648  27.551  1.00 29.45 LIG-0.35  N 
ATOM     20 H    PHE C   3     -16.348   7.720  27.400  1.00 29.45 LIG 0.16  HD
ATOM     21  C   GLY C   2     -14.917   7.912  28.718  1.00 31.80 LIG 0.25  C 
ATOM     22 O    GLY C   2     -13.665   7.944  28.856  1.00 33.21 LIG-0.27  OA
BRANCH 21 23
ATOM     23  CA  GLY C   2     -15.855   8.284  29.865  1.00 32.25 LIG 0.47  C 
ATOM     24  N   GLY C   2     -15.970   7.197  30.892  1.00 32.96 LIG 0.61  N 
ENDBRANCH 21 23
ENDBRANCH 11 19
ENDBRANCH 8 11
ENDBRANCH 6 7
ENDBRANCH 3 6
ENDBRANCH 1 2
BRANCH 1 25
ATOM     25  C   LEU C   5     -13.151   8.697  21.240  1.00 23.49 LIG 0.24  C 
ATOM     26  N   PHE C   6     -14.237   8.536  22.001  1.00 22.96 LIG-0.35  N 
ATOM     27 H    PHE C   6     -14.230   8.529  22.861  1.00 22.96 LIG 0.16  HD
ATOM     28 O    LEU C   5     -13.212   8.872  20.002  1.00 25.98 LIG-0.27  OA
BRANCH 26 29
ATOM     29  CA  PHE C   6     -15.577   8.353  21.389  1.00 22.19 LIG 0.18  C 
BRANCH 29 30
ATOM     30  C   PHE C   6     -16.026   9.447  20.425  1.00 17.26 LIG 0.24  C 
ATOM     31 O    PHE C   6     -16.668   9.217  19.442  1.00 22.18 LIG-0.27  OA
ATOM     32  N   ASP C   7     -15.639  10.691  20.728  1.00 22.18 LIG-0.35  N 
ATOM     33 H    ASP C   7     -15.179  10.897  21.425  1.00 22.18 LIG 0.16  HD
BRANCH 32 34
ATOM     34  CA  ASP C   7     -15.983  11.832  19.866  1.00 22.70 LIG 0.17  C 
BRANCH 34 35
ATOM     35  C   ASP C   7     -15.054  12.024  18.696  1.00 27.36 LIG 0.22  C 
ATOM     36 O    ASP C   7     -15.160  11.331  17.656  1.00 28.20 LIG-0.29  OA
ENDBRANCH 34 35
BRANCH 34 37
ATOM     37  CB  ASP C   7     -15.965  13.119  20.702  1.00 23.18 LIG 0.15  C 
BRANCH 37 38
ATOM     38  CG  ASP C   7     -14.582  13.510  21.170  1.00 26.80 LIG 0.17  C 
ATOM     39 OD2  ASP C   7     -14.415  14.707  21.563  1.00 27.82 LIG-0.65  OA
ATOM     40 OD1  ASP C   7     -13.663  12.621  21.096  1.00 32.15 LIG-0.65  OA
ENDBRANCH 37 38
ENDBRANCH 34 37
ENDBRANCH 32 34
ENDBRANCH 29 30
BRANCH 29 41
ATOM     41  CB  PHE C   6     -16.658   8.060  22.458  1.00 21.19 LIG 0.07  C 
BRANCH 41 42
ATOM     42  CG  PHE C   6     -17.308   6.732  22.296  1.00 25.43 LIG-0.06  A 
ATOM     43  CD2 PHE C   6     -17.043   5.911  21.189  1.00 26.31 LIG 0.01  A 
ATOM     44  CE2 PHE C   6     -17.623   4.647  21.110  1.00 29.51 LIG 0.00  A 
ATOM     45  CZ  PHE C   6     -18.542   4.215  22.074  1.00 25.82 LIG 0.00  A 
ATOM     46  CE1 PHE C   6     -18.828   5.024  23.141  1.00 26.71 LIG 0.00  A 
ATOM     47  CD1 PHE C   6     -18.220   6.301  23.239  1.00 21.41 LIG 0.01  A 
ENDBRANCH 41 42
ENDBRANCH 29 41
ENDBRANCH 26 29
ENDBRANCH 1 25
BRANCH 1 48
ATOM     48  CB  LEU C   5     -10.743   7.973  21.148  1.00 26.63 LIG 0.04  C 
BRANCH 48 49
ATOM     49  CG  LEU C   5     -10.050   8.655  20.015  1.00 31.82 LIG-0.02  C 
ATOM     50  CD2 LEU C   5      -8.513   8.634  20.347  1.00 33.90 LIG 0.01  C 
ATOM     51  CD1 LEU C   5     -10.569  10.078  19.774  1.00 30.04 LIG 0.01  C 
ENDBRANCH 48 49
ENDBRANCH 1 48
TORSDOF 19
ENDMDL
MODEL 44
USER: ADFR SOLUTION from run 134
USER: SCORE 16.065287 LL:  -5.106 LR: -11.528 RR:   0.000 FEB:  -5.860
USER: RMSD 8.961748
USER: SEED 133
USER: STATUS no improvement in best in 8 clusters for 5 generations
USER: GENES 21
USER: genes 0 Translation |==|  0.53027 0.68649 0.41248
USER: genes 1 Rotation |==|  0.15723 0.82765 0.64725 0.55891
USER: genes 2 Torsion [C]-CA--N-[C] |==|  0.83856
USER: genes 3 Torsion [N]-C--CA-[N] |==|  0.60553
USER: genes 4 Torsion [C]-CA--N-[C] |==|  0.60708
USER: genes 5 Torsion [N]-C--CA-[N] |==|  0.88101
USER: genes 6 Torsion [C]-CA--CB-[CG] |==|  0.55957
USER: genes 7 Torsion [CA]-CB--CG-[CD1] |==|  0.28965
USER: genes 8 Torsion [C]-CA--N-[C] |==|  0.81120
USER: genes 9 Torsion [N]-C--CA-[N] |==|  0.69136
USER: genes 10 Torsion [N]-CA--C-[N] |==|  0.89317
USER: genes 11 Torsion [C]-N--CA-[C] |==|  0.80049
USER: genes 12 Torsion [N]-CA--C-[N] |==|  0.40000
USER: genes 13 Torsion [C]-N--CA-[C] |==|  0.55739
USER: genes 14 Torsion [N]-CA--C-[O] |==|  0.94614
USER: genes 15 Torsion [N]-CA--CB-[CG] |==|  0.71888
USER: genes 16 Torsion [CA]-CB--CG-[OD1] |==|  0.38433
USER: genes 17 Torsion [N]-CA--CB-[CG] |==|  0.85024
USER: genes 18 Torsion [CA]-CB--CG-[CD2] |==|  0.84814
USER: genes 19 Torsion [N]-CA--CB-[CG] |==|  0.26607
USER: genes 20 Torsion [CA]-CB--CG-[CD2] |==|  0.80781
ROOT
ATOM      1  CA  LEU C   5     -14.271  12.010  21.198  1.00 25.10 LIG 0.18  C 
ENDROOT
BRANCH 1 2
ATOM      2  N   LEU C   5     -13.410  13.252  21.337  1.00 25.35 LIG-0.35  N 
ATOM      3  C   GLY C   4     -13.445  13.984  22.487  1.00 24.95 LIG 0.24  C 
ATOM      4 O    GLY C   4     -14.194  13.660  23.416  1.00 25.89 LIG-0.27  OA
ATOM      5 H    LEU C   5     -12.924  13.437  20.652  1.00 25.35 LIG 0.16  HD
BRANCH 3 6
ATOM      6  CA  GLY C   4     -12.565  15.177  22.638  1.00 25.42 LIG 0.23  C 
BRANCH 6 7
ATOM      7  N   GLY C   4     -11.968  15.424  23.950  1.00 25.00 LIG-0.35  N 
ATOM      8  C   PHE C   3     -11.826  16.667  24.474  1.00 25.70 LIG 0.24  C 
ATOM      9 O    PHE C   3     -12.240  17.691  23.898  1.00 20.17 LIG-0.27  OA
ATOM     10 H    GLY C   4     -11.716  14.709  24.357  1.00 25.00 LIG 0.16  HD
BRANCH 8 11
ATOM     11  CA  PHE C   3     -11.272  16.747  25.896  1.00 26.56 LIG 0.18  C 
BRANCH 11 12
ATOM     12  CB  PHE C   3      -9.771  16.541  25.841  1.00 27.24 LIG 0.07  C 
BRANCH 12 13
ATOM     13  CG  PHE C   3      -9.191  16.103  27.116  1.00 26.12 LIG-0.06  A 
ATOM     14  CD1 PHE C   3      -8.816  14.778  27.273  1.00 28.42 LIG 0.01  A 
ATOM     15  CE1 PHE C   3      -8.227  14.329  28.462  1.00 27.55 LIG 0.00  A 
ATOM     16  CZ  PHE C   3      -8.111  15.222  29.576  1.00 28.40 LIG 0.00  A 
ATOM     17  CE2 PHE C   3      -8.488  16.569  29.423  1.00 22.84 LIG 0.00  A 
ATOM     18  CD2 PHE C   3      -9.075  16.995  28.206  1.00 25.80 LIG 0.01  A 
ENDBRANCH 12 13
ENDBRANCH 11 12
BRANCH 11 19
ATOM     19  N   PHE C   3     -11.889  15.723  26.750  1.00 29.45 LIG-0.35  N 
ATOM     20 H    PHE C   3     -11.360  15.097  27.011  1.00 29.45 LIG 0.16  HD
ATOM     21  C   GLY C   2     -13.181  15.805  27.068  1.00 31.80 LIG 0.25  C 
ATOM     22 O    GLY C   2     -13.956  16.647  26.543  1.00 33.21 LIG-0.27  OA
BRANCH 21 23
ATOM     23  CA  GLY C   2     -13.697  14.739  28.032  1.00 32.25 LIG 0.47  C 
ATOM     24  N   GLY C   2     -14.641  13.776  27.377  1.00 32.96 LIG 0.61  N 
ENDBRANCH 21 23
ENDBRANCH 11 19
ENDBRANCH 8 11
ENDBRANCH 6 7
ENDBRANCH 3 6
ENDBRANCH 1 2
BRANCH 1 25
ATOM     25  C   LEU C   5     -14.041  10.918  22.251  1.00 23.49 LIG 0.24  C 
ATOM     26  N   PHE C   6     -12.783  10.701  22.641  1.00 22.96 LIG-0.35  N 
ATOM     27 H    PHE C   6     -12.105  11.156  22.368  1.00 22.96 LIG 0.16  HD
ATOM     28 O    LEU C   5     -15.023  10.357  22.789  1.00 25.98 LIG-0.27  OA
BRANCH 26 29
ATOM     29  CA  PHE C   6     -12.458   9.622  23.608  1.00 22.19 LIG 0.18  C 
BRANCH 29 30
ATOM     30  C   PHE C   6     -12.889   9.867  25.051  1.00 17.26 LIG 0.24  C 
ATOM     31 O    PHE C   6     -12.840  10.945  25.564  1.00 22.18 LIG-0.27  OA
ATOM     32  N   ASP C   7     -13.307   8.792  25.729  1.00 22.18 LIG-0.35  N 
ATOM     33 H    ASP C   7     -13.356   8.000  25.395  1.00 22.18 LIG 0.16  HD
BRANCH 32 34
ATOM     34  CA  ASP C   7     -13.723   8.887  27.136  1.00 22.70 LIG 0.17  C 
BRANCH 34 35
ATOM     35  C   ASP C   7     -13.691   7.579  27.880  1.00 27.36 LIG 0.22  C 
ATOM     36 O    ASP C   7     -13.691   6.481  27.273  1.00 28.20 LIG-0.29  OA
ENDBRANCH 34 35
BRANCH 34 37
ATOM     37  CB  ASP C   7     -15.155   9.436  27.202  1.00 23.18 LIG 0.15  C 
BRANCH 37 38
ATOM     38  CG  ASP C   7     -15.219  10.904  27.554  1.00 26.80 LIG 0.17  C 
ATOM     39 OD2  ASP C   7     -14.467  11.311  28.495  1.00 27.82 LIG-0.65  OA
ATOM     40 OD1  ASP C   7     -16.057  11.628  26.912  1.00 32.15 LIG-0.65  OA
ENDBRANCH 37 38
ENDBRANCH 34 37
ENDBRANCH 32 34
ENDBRANCH 29 30
BRANCH 29 41
ATOM     41  CB  PHE C   6     -10.969   9.207  23.522  1.00 21.19 LIG 0.07  C 
BRANCH 41 42
ATOM     42  CG  PHE C   6     -10.535   8.834  22.149  1.00 25.43 LIG-0.06  A 
ATOM     43  CD2 PHE C   6     -11.205   7.850  21.406  1.00 26.31 LIG 0.01  A 
ATOM     44  CE2 PHE C   6     -10.806   7.579  20.100  1.00 29.51 LIG 0.00  A 
ATOM     45  CZ  PHE C   6      -9.685   8.209  19.543  1.00 25.82 LIG 0.00  A 
ATOM     46  CE1 PHE C   6      -9.009   9.148  20.275  1.00 26.71 LIG 0.00  A 
ATOM     47  CD1 PHE C   6      -9.428   9.445  21.597  1.00 21.41 LIG 0.01  A 
ENDBRANCH 41 42
ENDBRANCH 29 41
ENDBRANCH 26 29
ENDBRANCH 1 25
BRANCH 1 48
ATOM     48  CB  LEU C   5     -14.299  11.322  19.781  1.00 26.63 LIG 0.04  C 
BRANCH 48 49
ATOM     49  CG  LEU C   5     -13.368  10.178  19.553  1.00 31.82 LIG-0.02  C 
ATOM     50  CD2 LEU C   5     -11.914  10.777  19.531  1.00 33.90 LIG 0.01  C 
ATOM     51  CD1 LEU C   5     -13.691   9.398  18.273  1.00 30.04 LIG 0.01  C 
ENDBRANCH 48 49
ENDBRANCH 1 48
TORSDOF 19
ENDMDL
MODEL 45
USER: ADFR SOLUTION from run 160
USER: SCORE 14.421638 LL:  -3.801 LR: -11.519 RR:   0.000 FEB:  -5.851
USER: RMSD 5.751001
USER: SEED 159
USER: STATUS no improvement in best in 18 clusters for 5 generations
USER: GENES 21
USER: genes 0 Translation |==|  0.70182 0.58049 0.45025
USER: genes 1 Rotation |==|  0.57132 0.83834 0.29834 0.79962
USER: genes 2 Torsion [C]-CA--N-[C] |==|  0.70451
USER: genes 3 Torsion [N]-C--CA-[N] |==|  0.90444
USER: genes 4 Torsion [C]-CA--N-[C] |==|  0.88329
USER: genes 5 Torsion [N]-C--CA-[N] |==|  0.94753
USER: genes 6 Torsion [C]-CA--CB-[CG] |==|  0.66554
USER: genes 7 Torsion [CA]-CB--CG-[CD1] |==|  0.27158
USER: genes 8 Torsion [C]-CA--N-[C] |==|  0.69444
USER: genes 9 Torsion [N]-C--CA-[N] |==|  0.55288
USER: genes 10 Torsion [N]-CA--C-[N] |==|  0.01709
USER: genes 11 Torsion [C]-N--CA-[C] |==|  0.16636
USER: genes 12 Torsion [N]-CA--C-[N] |==|  0.05891
USER: genes 13 Torsion [C]-N--CA-[C] |==|  0.61892
USER: genes 14 Torsion [N]-CA--C-[O] |==|  0.68175
USER: genes 15 Torsion [N]-CA--CB-[CG] |==|  0.89163
USER: genes 16 Torsion [CA]-CB--CG-[OD1] |==|  0.32046
USER: genes 17 Torsion [N]-CA--CB-[CG] |==|  0.80197
USER: genes 18 Torsion [CA]-CB--CG-[CD2] |==|  0.49866
USER: genes 19 Torsion [N]-CA--CB-[CG] |==|  0.77092
USER: genes 20 Torsion [CA]-CB--CG-[CD2] |==|  0.08692
ROOT
ATOM      1  CA  LEU C   5     -11.183   9.705  21.878  1.00 25.10 LIG 0.18  C 
ENDROOT
BRANCH 1 2
ATOM      2  N   LEU C   5     -11.301   9.183  23.298  1.00 25.35 LIG-0.35  N 
ATOM      3  C   GLY C   4     -10.390   9.554  24.242  1.00 24.95 LIG 0.24  C 
ATOM      4 O    GLY C   4      -9.446  10.297  23.946  1.00 25.89 LIG-0.27  OA
ATOM      5 H    LEU C   5     -11.966   8.656  23.439  1.00 25.35 LIG 0.16  HD
BRANCH 3 6
ATOM      6  CA  GLY C   4     -10.534   9.076  25.645  1.00 25.42 LIG 0.23  C 
BRANCH 6 7
ATOM      7  N   GLY C   4     -11.888   8.911  26.175  1.00 25.00 LIG-0.35  N 
ATOM      8  C   PHE C   3     -12.882   9.805  25.949  1.00 25.70 LIG 0.24  C 
ATOM      9 O    PHE C   3     -12.731  10.812  25.231  1.00 20.17 LIG-0.27  OA
ATOM     10 H    GLY C   4     -11.994   8.196  26.641  1.00 25.00 LIG 0.16  HD
BRANCH 8 11
ATOM     11  CA  PHE C   3     -14.263   9.438  26.491  1.00 26.56 LIG 0.18  C 
BRANCH 11 12
ATOM     12  CB  PHE C   3     -14.504  10.221  27.766  1.00 27.24 LIG 0.07  C 
BRANCH 12 13
ATOM     13  CG  PHE C   3     -14.740   9.373  28.941  1.00 26.12 LIG-0.06  A 
ATOM     14  CD1 PHE C   3     -13.691   9.104  29.806  1.00 28.42 LIG 0.01  A 
ATOM     15  CE1 PHE C   3     -13.883   8.328  30.956  1.00 27.55 LIG 0.00  A 
ATOM     16  CZ  PHE C   3     -15.154   7.707  31.188  1.00 28.40 LIG 0.00  A 
ATOM     17  CE2 PHE C   3     -16.223   7.978  30.314  1.00 22.84 LIG 0.00  A 
ATOM     18  CD2 PHE C   3     -15.999   8.771  29.162  1.00 25.80 LIG 0.01  A 
ENDBRANCH 12 13
ENDBRANCH 11 12
BRANCH 11 19
ATOM     19  N   PHE C   3     -14.346   7.996  26.762  1.00 29.45 LIG-0.35  N 
ATOM     20 H    PHE C   3     -13.878   7.722  27.429  1.00 29.45 LIG 0.16  HD
ATOM     21  C   GLY C   2     -15.107   7.214  25.997  1.00 31.80 LIG 0.25  C 
ATOM     22 O    GLY C   2     -15.653   7.623  24.939  1.00 33.21 LIG-0.27  OA
BRANCH 21 23
ATOM     23  CA  GLY C   2     -15.191   5.749  26.422  1.00 32.25 LIG 0.47  C 
ATOM     24  N   GLY C   2     -15.660   4.853  25.315  1.00 32.96 LIG 0.61  N 
ENDBRANCH 21 23
ENDBRANCH 11 19
ENDBRANCH 8 11
ENDBRANCH 6 7
ENDBRANCH 3 6
ENDBRANCH 1 2
BRANCH 1 25
ATOM     25  C   LEU C   5     -12.207  10.775  21.474  1.00 23.49 LIG 0.24  C 
ATOM     26  N   PHE C   6     -13.015  11.238  22.430  1.00 22.96 LIG-0.35  N 
ATOM     27 H    PHE C   6     -12.974  11.002  23.256  1.00 22.96 LIG 0.16  HD
ATOM     28 O    LEU C   5     -12.177  11.258  20.319  1.00 25.98 LIG-0.27  OA
BRANCH 26 29
ATOM     29  CA  PHE C   6     -14.078  12.227  22.119  1.00 22.19 LIG 0.18  C 
BRANCH 29 30
ATOM     30  C   PHE C   6     -15.126  11.782  21.102  1.00 17.26 LIG 0.24  C 
ATOM     31 O    PHE C   6     -15.812  12.557  20.503  1.00 22.18 LIG-0.27  OA
ATOM     32  N   ASP C   7     -15.255  10.462  20.932  1.00 22.18 LIG-0.35  N 
ATOM     33 H    ASP C   7     -14.781   9.874  21.343  1.00 22.18 LIG 0.16  HD
BRANCH 32 34
ATOM     34  CA  ASP C   7     -16.248   9.903  20.002  1.00 22.70 LIG 0.17  C 
BRANCH 34 35
ATOM     35  C   ASP C   7     -16.993   8.710  20.538  1.00 27.36 LIG 0.22  C 
ATOM     36 O    ASP C   7     -16.868   7.573  20.021  1.00 28.20 LIG-0.29  OA
ENDBRANCH 34 35
BRANCH 34 37
ATOM     37  CB  ASP C   7     -15.542   9.478  18.706  1.00 23.18 LIG 0.15  C 
BRANCH 37 38
ATOM     38  CG  ASP C   7     -14.458  10.439  18.273  1.00 26.80 LIG 0.17  C 
ATOM     39 OD2  ASP C   7     -14.822  11.600  17.902  1.00 27.82 LIG-0.65  OA
ATOM     40 OD1  ASP C   7     -13.254  10.004  18.266  1.00 32.15 LIG-0.65  OA
ENDBRANCH 37 38
ENDBRANCH 34 37
ENDBRANCH 32 34
ENDBRANCH 29 30
BRANCH 29 41
ATOM     41  CB  PHE C   6     -13.484  13.609  21.754  1.00 21.19 LIG 0.07  C 
BRANCH 41 42
ATOM     42  CG  PHE C   6     -12.895  14.326  22.915  1.00 25.43 LIG-0.06  A 
ATOM     43  CD2 PHE C   6     -12.299  15.589  22.778  1.00 26.31 LIG 0.01  A 
ATOM     44  CE2 PHE C   6     -11.819  16.254  23.903  1.00 29.51 LIG 0.00  A 
ATOM     45  CZ  PHE C   6     -11.837  15.643  25.163  1.00 25.82 LIG 0.00  A 
ATOM     46  CE1 PHE C   6     -12.388  14.397  25.299  1.00 26.71 LIG 0.00  A 
ATOM     47  CD1 PHE C   6     -12.902  13.727  24.159  1.00 21.41 LIG 0.01  A 
ENDBRANCH 41 42
ENDBRANCH 29 41
ENDBRANCH 26 29
ENDBRANCH 1 25
BRANCH 1 48
ATOM     48  CB  LEU C   5     -11.125   8.628  20.729  1.00 26.63 LIG 0.04  C 
BRANCH 48 49
ATOM     49  CG  LEU C   5      -9.803   7.998  20.442  1.00 31.82 LIG-0.02  C 
ATOM     50  CD2 LEU C   5      -9.019   7.954  21.805  1.00 33.90 LIG 0.01  C 
ATOM     51  CD1 LEU C   5      -9.020   8.737  19.350  1.00 30.04 LIG 0.01  C 
ENDBRANCH 48 49
ENDBRANCH 1 48
TORSDOF 19
ENDMDL
MODEL 46
USER: ADFR SOLUTION from run 98
USER: SCORE 16.020576 LL:  -4.922 LR: -11.513 RR:   0.000 FEB:  -5.845
USER: RMSD 2.964551
USER: SEED 97
USER: STATUS searching
USER: GENES 21
USER: genes 0 Translation |==|  0.58486 0.62965 0.53695
USER: genes 1 Rotation |==|  0.41030 0.56303 0.50409 0.98782
USER: genes 2 Torsion [C]-CA--N-[C] |==|  0.58277
USER: genes 3 Torsion [N]-C--CA-[N] |==|  0.98983
USER: genes 4 Torsion [C]-CA--N-[C] |==|  0.23699
USER: genes 5 Torsion [N]-C--CA-[N] |==|  0.13771
USER: genes 6 Torsion [C]-CA--CB-[CG] |==|  0.53466
USER: genes 7 Torsion [CA]-CB--CG-[CD1] |==|  0.36411
USER: genes 8 Torsion [C]-CA--N-[C] |==|  0.13624
USER: genes 9 Torsion [N]-C--CA-[N] |==|  0.30662
USER: genes 10 Torsion [N]-CA--C-[N] |==|  0.49330
USER: genes 11 Torsion [C]-N--CA-[C] |==|  0.14702
USER: genes 12 Torsion [N]-CA--C-[N] |==|  0.12509
USER: genes 13 Torsion [C]-N--CA-[C] |==|  0.17697
USER: genes 14 Torsion [N]-CA--C-[O] |==|  0.81239
USER: genes 15 Torsion [N]-CA--CB-[CG] |==|  0.73214
USER: genes 16 Torsion [CA]-CB--CG-[OD1] |==|  0.91378
USER: genes 17 Torsion [N]-CA--CB-[CG] |==|  0.96850
USER: genes 18 Torsion [CA]-CB--CG-[CD2] |==|  0.79368
USER: genes 19 Torsion [N]-CA--CB-[CG] |==|  0.99169
USER: genes 20 Torsion [CA]-CB--CG-[CD2] |==|  0.50325
ROOT
ATOM      1  CA  LEU C   5     -13.289  10.774  23.438  1.00 25.10 LIG 0.18  C 
ENDROOT
BRANCH 1 2
ATOM      2  N   LEU C   5     -14.244  10.050  24.369  1.00 25.35 LIG-0.35  N 
ATOM      3  C   GLY C   4     -14.716  10.673  25.486  1.00 24.95 LIG 0.24  C 
ATOM      4 O    GLY C   4     -14.352  11.821  25.766  1.00 25.89 LIG-0.27  OA
ATOM      5 H    LEU C   5     -14.446   9.248  24.132  1.00 25.35 LIG 0.16  HD
BRANCH 3 6
ATOM      6  CA  GLY C   4     -15.688   9.975  26.374  1.00 25.42 LIG 0.23  C 
BRANCH 6 7
ATOM      7  N   GLY C   4     -16.167   8.657  25.959  1.00 25.00 LIG-0.35  N 
ATOM      8  C   PHE C   3     -15.497   7.509  26.231  1.00 25.70 LIG 0.24  C 
ATOM      9 O    PHE C   3     -14.446   7.486  26.899  1.00 20.17 LIG-0.27  OA
ATOM     10 H    GLY C   4     -16.911   8.677  25.528  1.00 25.00 LIG 0.16  HD
BRANCH 8 11
ATOM     11  CA  PHE C   3     -16.179   6.208  25.813  1.00 26.56 LIG 0.18  C 
BRANCH 11 12
ATOM     12  CB  PHE C   3     -15.191   5.070  25.977  1.00 27.24 LIG 0.07  C 
BRANCH 12 13
ATOM     13  CG  PHE C   3     -15.623   3.820  25.341  1.00 26.12 LIG-0.06  A 
ATOM     14  CD1 PHE C   3     -14.741   3.136  24.520  1.00 28.42 LIG 0.01  A 
ATOM     15  CE1 PHE C   3     -15.103   1.921  23.922  1.00 27.55 LIG 0.00  A 
ATOM     16  CZ  PHE C   3     -16.442   1.431  24.068  1.00 28.40 LIG 0.00  A 
ATOM     17  CE2 PHE C   3     -17.341   2.121  24.902  1.00 22.84 LIG 0.00  A 
ATOM     18  CD2 PHE C   3     -16.944   3.343  25.498  1.00 25.80 LIG 0.01  A 
ENDBRANCH 12 13
ENDBRANCH 11 12
BRANCH 11 19
ATOM     19  N   PHE C   3     -16.630   6.285  24.416  1.00 29.45 LIG-0.35  N 
ATOM     20 H    PHE C   3     -17.444   6.044  24.281  1.00 29.45 LIG 0.16  HD
ATOM     21  C   GLY C   2     -15.796   6.706  23.465  1.00 31.80 LIG 0.25  C 
ATOM     22 O    GLY C   2     -14.570   6.903  23.677  1.00 33.21 LIG-0.27  OA
BRANCH 21 23
ATOM     23  CA  GLY C   2     -16.394   6.833  22.065  1.00 32.25 LIG 0.47  C 
ATOM     24  N   GLY C   2     -16.526   8.259  21.622  1.00 32.96 LIG 0.61  N 
ENDBRANCH 21 23
ENDBRANCH 11 19
ENDBRANCH 8 11
ENDBRANCH 6 7
ENDBRANCH 3 6
ENDBRANCH 1 2
BRANCH 1 25
ATOM     25  C   LEU C   5     -13.361  10.367  21.960  1.00 23.49 LIG 0.24  C 
ATOM     26  N   PHE C   6     -12.568  11.021  21.107  1.00 22.96 LIG-0.35  N 
ATOM     27 H    PHE C   6     -12.000  11.624  21.339  1.00 22.96 LIG 0.16  HD
ATOM     28 O    LEU C   5     -14.053   9.380  21.620  1.00 25.98 LIG-0.27  OA
BRANCH 26 29
ATOM     29  CA  PHE C   6     -12.617  10.739  19.650  1.00 22.19 LIG 0.18  C 
BRANCH 29 30
ATOM     30  C   PHE C   6     -13.996  10.817  19.001  1.00 17.26 LIG 0.24  C 
ATOM     31 O    PHE C   6     -14.387  10.002  18.220  1.00 22.18 LIG-0.27  OA
ATOM     32  N   ASP C   7     -14.745  11.873  19.340  1.00 22.18 LIG-0.35  N 
ATOM     33 H    ASP C   7     -14.499  12.479  19.898  1.00 22.18 LIG 0.16  HD
BRANCH 32 34
ATOM     34  CA  ASP C   7     -16.082  12.079  18.764  1.00 22.70 LIG 0.17  C 
BRANCH 34 35
ATOM     35  C   ASP C   7     -17.079  11.008  19.117  1.00 27.36 LIG 0.22  C 
ATOM     36 O    ASP C   7     -16.959   9.835  18.688  1.00 28.20 LIG-0.29  OA
ENDBRANCH 34 35
BRANCH 34 37
ATOM     37  CB  ASP C   7     -15.968  12.135  17.234  1.00 23.18 LIG 0.15  C 
BRANCH 37 38
ATOM     38  CG  ASP C   7     -15.894  13.543  16.690  1.00 26.80 LIG 0.17  C 
ATOM     39 OD2  ASP C   7     -15.191  13.730  15.648  1.00 27.82 LIG-0.65  OA
ATOM     40 OD1  ASP C   7     -16.508  14.459  17.342  1.00 32.15 LIG-0.65  OA
ENDBRANCH 37 38
ENDBRANCH 34 37
ENDBRANCH 32 34
ENDBRANCH 29 30
BRANCH 29 41
ATOM     41  CB  PHE C   6     -11.898   9.414  19.300  1.00 21.19 LIG 0.07  C 
BRANCH 41 42
ATOM     42  CG  PHE C   6     -11.099   8.857  20.424  1.00 25.43 LIG-0.06  A 
ATOM     43  CD2 PHE C   6      -9.874   9.422  20.809  1.00 26.31 LIG 0.01  A 
ATOM     44  CE2 PHE C   6      -9.191   8.910  21.909  1.00 29.51 LIG 0.00  A 
ATOM     45  CZ  PHE C   6      -9.661   7.777  22.586  1.00 25.82 LIG 0.00  A 
ATOM     46  CE1 PHE C   6     -10.841   7.202  22.196  1.00 26.71 LIG 0.00  A 
ATOM     47  CD1 PHE C   6     -11.553   7.737  21.092  1.00 21.41 LIG 0.01  A 
ENDBRANCH 41 42
ENDBRANCH 29 41
ENDBRANCH 26 29
ENDBRANCH 1 25
BRANCH 1 48
ATOM     48  CB  LEU C   5     -11.772  10.803  23.862  1.00 26.63 LIG 0.04  C 
BRANCH 48 49
ATOM     49  CG  LEU C   5     -11.411  10.180  25.170  1.00 31.82 LIG-0.02  C 
ATOM     50  CD2 LEU C   5      -9.861  10.376  25.351  1.00 33.90 LIG 0.01  C 
ATOM     51  CD1 LEU C   5     -11.820   8.704  25.254  1.00 30.04 LIG 0.01  C 
ENDBRANCH 48 49
ENDBRANCH 1 48
TORSDOF 19
ENDMDL
MODEL 47
USER: ADFR SOLUTION from run 56
USER: SCORE 15.600270 LL:  -4.853 LR: -11.502 RR:   0.000 FEB:  -5.834
USER: RMSD 6.055831
USER: SEED 55
USER: STATUS no improvement in best in 19 clusters for 5 generations
USER: GENES 21
USER: genes 0 Translation |==|  0.66515 0.55838 0.42057
USER: genes 1 Rotation |==|  0.70902 0.75737 0.35510 0.84507
USER: genes 2 Torsion [C]-CA--N-[C] |==|  0.15486
USER: genes 3 Torsion [N]-C--CA-[N] |==|  0.08117
USER: genes 4 Torsion [C]-CA--N-[C] |==|  0.17505
USER: genes 5 Torsion [N]-C--CA-[N] |==|  0.88889
USER: genes 6 Torsion [C]-CA--CB-[CG] |==|  0.09952
USER: genes 7 Torsion [CA]-CB--CG-[CD1] |==|  0.62486
USER: genes 8 Torsion [C]-CA--N-[C] |==|  0.81591
USER: genes 9 Torsion [N]-C--CA-[N] |==|  0.43933
USER: genes 10 Torsion [N]-CA--C-[N] |==|  0.09892
USER: genes 11 Torsion [C]-N--CA-[C] |==|  0.65558
USER: genes 12 Torsion [N]-CA--C-[N] |==|  0.80507
USER: genes 13 Torsion [C]-N--CA-[C] |==|  0.57375
USER: genes 14 Torsion [N]-CA--C-[O] |==|  0.39637
USER: genes 15 Torsion [N]-CA--CB-[CG] |==|  0.79825
USER: genes 16 Torsion [CA]-CB--CG-[OD1] |==|  0.26063
USER: genes 17 Torsion [N]-CA--CB-[CG] |==|  0.70224
USER: genes 18 Torsion [CA]-CB--CG-[CD2] |==|  0.20694
USER: genes 19 Torsion [N]-CA--CB-[CG] |==|  0.71967
USER: genes 20 Torsion [CA]-CB--CG-[CD2] |==|  0.03940
ROOT
ATOM      1  CA  LEU C   5     -11.843   9.224  21.343  1.00 25.10 LIG 0.18  C 
ENDROOT
BRANCH 1 2
ATOM      2  N   LEU C   5     -12.804   8.424  22.205  1.00 25.35 LIG-0.35  N 
ATOM      3  C   GLY C   4     -14.069   8.168  21.764  1.00 24.95 LIG 0.24  C 
ATOM      4 O    GLY C   4     -14.454   8.604  20.672  1.00 25.89 LIG-0.27  OA
ATOM      5 H    LEU C   5     -12.486   8.163  22.960  1.00 25.35 LIG 0.16  HD
BRANCH 3 6
ATOM      6  CA  GLY C   4     -14.994   7.345  22.592  1.00 25.42 LIG 0.23  C 
BRANCH 6 7
ATOM      7  N   GLY C   4     -14.820   7.375  24.044  1.00 25.00 LIG-0.35  N 
ATOM      8  C   PHE C   3     -14.979   8.501  24.783  1.00 25.70 LIG 0.24  C 
ATOM      9 O    PHE C   3     -15.335   9.587  24.287  1.00 20.17 LIG-0.27  OA
ATOM     10 H    GLY C   4     -14.608   6.614  24.384  1.00 25.00 LIG 0.16  HD
BRANCH 8 11
ATOM     11  CA  PHE C   3     -14.857   8.344  26.298  1.00 26.56 LIG 0.18  C 
BRANCH 11 12
ATOM     12  CB  PHE C   3     -13.386   8.323  26.664  1.00 27.24 LIG 0.07  C 
BRANCH 12 13
ATOM     13  CG  PHE C   3     -12.562   9.212  25.835  1.00 26.12 LIG-0.06  A 
ATOM     14  CD1 PHE C   3     -11.356   8.749  25.334  1.00 28.42 LIG 0.01  A 
ATOM     15  CE1 PHE C   3     -10.558   9.555  24.510  1.00 27.55 LIG 0.00  A 
ATOM     16  CZ  PHE C   3     -10.935  10.917  24.273  1.00 28.40 LIG 0.00  A 
ATOM     17  CE2 PHE C   3     -12.159  11.392  24.778  1.00 22.84 LIG 0.00  A 
ATOM     18  CD2 PHE C   3     -12.947  10.552  25.602  1.00 25.80 LIG 0.01  A 
ENDBRANCH 12 13
ENDBRANCH 11 12
BRANCH 11 19
ATOM     19  N   PHE C   3     -15.503   7.101  26.743  1.00 29.45 LIG-0.35  N 
ATOM     20 H    PHE C   3     -14.970   6.506  27.064  1.00 29.45 LIG 0.16  HD
ATOM     21  C   GLY C   2     -16.824   6.957  26.635  1.00 31.80 LIG 0.25  C 
ATOM     22 O    GLY C   2     -17.548   7.783  26.021  1.00 33.21 LIG-0.27  OA
BRANCH 21 23
ATOM     23  CA  GLY C   2     -17.400   5.664  27.210  1.00 32.25 LIG 0.47  C 
ATOM     24  N   GLY C   2     -18.859   5.777  27.534  1.00 32.96 LIG 0.61  N 
ENDBRANCH 21 23
ENDBRANCH 11 19
ENDBRANCH 8 11
ENDBRANCH 6 7
ENDBRANCH 3 6
ENDBRANCH 1 2
BRANCH 1 25
ATOM     25  C   LEU C   5     -12.336  10.610  20.906  1.00 23.49 LIG 0.24  C 
ATOM     26  N   PHE C   6     -13.081  11.296  21.776  1.00 22.96 LIG-0.35  N 
ATOM     27 H    PHE C   6     -13.269  11.026  22.572  1.00 22.96 LIG 0.16  HD
ATOM     28 O    LEU C   5     -11.939  11.098  19.823  1.00 25.98 LIG-0.27  OA
BRANCH 26 29
ATOM     29  CA  PHE C   6     -13.655  12.617  21.416  1.00 22.19 LIG 0.18  C 
BRANCH 29 30
ATOM     30  C   PHE C   6     -13.300  13.775  22.344  1.00 17.26 LIG 0.24  C 
ATOM     31 O    PHE C   6     -12.555  14.653  22.023  1.00 22.18 LIG-0.27  OA
ATOM     32  N   ASP C   7     -13.854  13.743  23.561  1.00 22.18 LIG-0.35  N 
ATOM     33 H    ASP C   7     -14.395  13.129  23.829  1.00 22.18 LIG 0.16  HD
BRANCH 32 34
ATOM     34  CA  ASP C   7     -13.572  14.784  24.560  1.00 22.70 LIG 0.17  C 
BRANCH 34 35
ATOM     35  C   ASP C   7     -13.718  14.328  25.987  1.00 27.36 LIG 0.22  C 
ATOM     36 O    ASP C   7     -12.941  14.731  26.885  1.00 28.20 LIG-0.29  OA
ENDBRANCH 34 35
BRANCH 34 37
ATOM     37  CB  ASP C   7     -14.526  15.966  24.339  1.00 23.18 LIG 0.15  C 
BRANCH 37 38
ATOM     38  CG  ASP C   7     -14.196  16.780  23.108  1.00 26.80 LIG 0.17  C 
ATOM     39 OD2  ASP C   7     -13.370  17.737  23.246  1.00 27.82 LIG-0.65  OA
ATOM     40 OD1  ASP C   7     -14.805  16.479  22.023  1.00 32.15 LIG-0.65  OA
ENDBRANCH 37 38
ENDBRANCH 34 37
ENDBRANCH 32 34
ENDBRANCH 29 30
BRANCH 29 41
ATOM     41  CB  PHE C   6     -15.182  12.530  21.175  1.00 21.19 LIG 0.07  C 
BRANCH 41 42
ATOM     42  CG  PHE C   6     -15.564  12.640  19.742  1.00 25.43 LIG-0.06  A 
ATOM     43  CD2 PHE C   6     -15.364  11.582  18.842  1.00 26.31 LIG 0.01  A 
ATOM     44  CE2 PHE C   6     -15.796  11.704  17.524  1.00 29.51 LIG 0.00  A 
ATOM     45  CZ  PHE C   6     -16.347  12.903  17.055  1.00 25.82 LIG 0.00  A 
ATOM     46  CE1 PHE C   6     -16.517  13.950  17.921  1.00 26.71 LIG 0.00  A 
ATOM     47  CD1 PHE C   6     -16.101  13.821  19.271  1.00 21.41 LIG 0.01  A 
ENDBRANCH 41 42
ENDBRANCH 29 41
ENDBRANCH 26 29
ENDBRANCH 1 25
BRANCH 1 48
ATOM     48  CB  LEU C   5     -11.252   8.495  20.078  1.00 26.63 LIG 0.04  C 
BRANCH 48 49
ATOM     49  CG  LEU C   5      -9.865   7.954  20.182  1.00 31.82 LIG-0.02  C 
ATOM     50  CD2 LEU C   5      -9.493   7.954  21.710  1.00 33.90 LIG 0.01  C 
ATOM     51  CD1 LEU C   5      -8.856   8.746  19.341  1.00 30.04 LIG 0.01  C 
ENDBRANCH 48 49
ENDBRANCH 1 48
TORSDOF 19
ENDMDL
MODEL 48
USER: ADFR SOLUTION from run 193
USER: SCORE 15.992221 LL:  -4.822 LR: -11.484 RR:   0.000 FEB:  -5.816
USER: RMSD 5.464998
USER: SEED 192
USER: STATUS no improvement in best in 12 clusters for 5 generations
USER: GENES 21
USER: genes 0 Translation |==|  0.63972 0.59853 0.34387
USER: genes 1 Rotation |==|  0.24309 0.74456 0.32513 0.80596
USER: genes 2 Torsion [C]-CA--N-[C] |==|  0.82861
USER: genes 3 Torsion [N]-C--CA-[N] |==|  0.86667
USER: genes 4 Torsion [C]-CA--N-[C] |==|  0.84377
USER: genes 5 Torsion [N]-C--CA-[N] |==|  0.35004
USER: genes 6 Torsion [C]-CA--CB-[CG] |==|  0.20047
USER: genes 7 Torsion [CA]-CB--CG-[CD1] |==|  0.65464
USER: genes 8 Torsion [C]-CA--N-[C] |==|  0.76579
USER: genes 9 Torsion [N]-C--CA-[N] |==|  0.23781
USER: genes 10 Torsion [N]-CA--C-[N] |==|  0.93096
USER: genes 11 Torsion [C]-N--CA-[C] |==|  0.81793
USER: genes 12 Torsion [N]-CA--C-[N] |==|  0.93603
USER: genes 13 Torsion [C]-N--CA-[C] |==|  0.89010
USER: genes 14 Torsion [N]-CA--C-[O] |==|  0.29377
USER: genes 15 Torsion [N]-CA--CB-[CG] |==|  0.20304
USER: genes 16 Torsion [CA]-CB--CG-[OD1] |==|  0.32509
USER: genes 17 Torsion [N]-CA--CB-[CG] |==|  0.69191
USER: genes 18 Torsion [CA]-CB--CG-[CD2] |==|  0.32134
USER: genes 19 Torsion [N]-CA--CB-[CG] |==|  0.84071
USER: genes 20 Torsion [CA]-CB--CG-[CD2] |==|  0.56517
ROOT
ATOM      1  CA  LEU C   5     -12.301  10.097  19.963  1.00 25.10 LIG 0.18  C 
ENDROOT
BRANCH 1 2
ATOM      2  N   LEU C   5     -12.206  11.040  21.147  1.00 25.35 LIG-0.35  N 
ATOM      3  C   GLY C   4     -13.005  12.144  21.211  1.00 24.95 LIG 0.24  C 
ATOM      4 O    GLY C   4     -13.795  12.400  20.295  1.00 25.89 LIG-0.27  OA
ATOM      5 H    LEU C   5     -11.627  10.820  21.744  1.00 25.35 LIG 0.16  HD
BRANCH 3 6
ATOM      6  CA  GLY C   4     -12.941  13.043  22.397  1.00 25.42 LIG 0.23  C 
BRANCH 6 7
ATOM      7  N   GLY C   4     -12.988  12.429  23.723  1.00 25.00 LIG-0.35  N 
ATOM      8  C   PHE C   3     -13.997  11.616  24.124  1.00 25.70 LIG 0.24  C 
ATOM      9 O    PHE C   3     -14.937  11.290  23.375  1.00 20.17 LIG-0.27  OA
ATOM     10 H    GLY C   4     -12.318  12.630  24.223  1.00 25.00 LIG 0.16  HD
BRANCH 8 11
ATOM     11  CA  PHE C   3     -13.848  10.977  25.504  1.00 26.56 LIG 0.18  C 
BRANCH 11 12
ATOM     12  CB  PHE C   3     -13.682   9.481  25.329  1.00 27.24 LIG 0.07  C 
BRANCH 12 13
ATOM     13  CG  PHE C   3     -12.374   9.095  24.784  1.00 26.12 LIG-0.06  A 
ATOM     14  CD1 PHE C   3     -12.318   8.329  23.631  1.00 28.42 LIG 0.01  A 
ATOM     15  CE1 PHE C   3     -11.089   7.970  23.061  1.00 27.55 LIG 0.00  A 
ATOM     16  CZ  PHE C   3      -9.871   8.300  23.738  1.00 28.40 LIG 0.00  A 
ATOM     17  CE2 PHE C   3      -9.922   9.080  24.908  1.00 22.84 LIG 0.00  A 
ATOM     18  CD2 PHE C   3     -11.179   9.433  25.457  1.00 25.80 LIG 0.01  A 
ENDBRANCH 12 13
ENDBRANCH 11 12
BRANCH 11 19
ATOM     19  N   PHE C   3     -15.028  11.259  26.334  1.00 29.45 LIG-0.35  N 
ATOM     20 H    PHE C   3     -15.629  10.643  26.336  1.00 29.45 LIG 0.16  HD
ATOM     21  C   GLY C   2     -15.112  12.401  27.015  1.00 31.80 LIG 0.25  C 
ATOM     22 O    GLY C   2     -14.288  13.342  26.865  1.00 33.21 LIG-0.27  OA
BRANCH 21 23
ATOM     23  CA  GLY C   2     -16.338  12.551  27.914  1.00 32.25 LIG 0.47  C 
ATOM     24  N   GLY C   2     -16.137  11.940  29.269  1.00 32.96 LIG 0.61  N 
ENDBRANCH 21 23
ENDBRANCH 11 19
ENDBRANCH 8 11
ENDBRANCH 6 7
ENDBRANCH 3 6
ENDBRANCH 1 2
BRANCH 1 25
ATOM     25  C   LEU C   5     -13.660   9.411  19.764  1.00 23.49 LIG 0.24  C 
ATOM     26  N   PHE C   6     -14.436   9.271  20.842  1.00 22.96 LIG-0.35  N 
ATOM     27 H    PHE C   6     -14.239   9.571  21.624  1.00 22.96 LIG 0.16  HD
ATOM     28 O    LEU C   5     -14.044   9.115  18.609  1.00 25.98 LIG-0.27  OA
BRANCH 26 29
ATOM     29  CA  PHE C   6     -15.738   8.562  20.758  1.00 22.19 LIG 0.18  C 
BRANCH 29 30
ATOM     30  C   PHE C   6     -16.807   9.229  19.896  1.00 17.26 LIG 0.24  C 
ATOM     31 O    PHE C   6     -17.706   8.620  19.398  1.00 22.18 LIG-0.27  OA
ATOM     32  N   ASP C   7     -16.669  10.546  19.706  1.00 22.18 LIG-0.35  N 
ATOM     33 H    ASP C   7     -16.037  11.020  20.048  1.00 22.18 LIG 0.16  HD
BRANCH 32 34
ATOM     34  CA  ASP C   7     -17.616  11.303  18.873  1.00 22.70 LIG 0.17  C 
BRANCH 34 35
ATOM     35  C   ASP C   7     -18.061  10.579  17.631  1.00 27.36 LIG 0.22  C 
ATOM     36 O    ASP C   7     -19.208  10.080  17.540  1.00 28.20 LIG-0.29  OA
ENDBRANCH 34 35
BRANCH 34 37
ATOM     37  CB  ASP C   7     -16.965  12.625  18.445  1.00 23.18 LIG 0.15  C 
BRANCH 37 38
ATOM     38  CG  ASP C   7     -15.892  12.451  17.393  1.00 26.80 LIG 0.17  C 
ATOM     39 OD2  ASP C   7     -14.848  11.809  17.727  1.00 27.82 LIG-0.65  OA
ATOM     40 OD1  ASP C   7     -16.091  13.001  16.254  1.00 32.15 LIG-0.65  OA
ENDBRANCH 37 38
ENDBRANCH 34 37
ENDBRANCH 32 34
ENDBRANCH 29 30
BRANCH 29 41
ATOM     41  CB  PHE C   6     -16.284   8.202  22.161  1.00 21.19 LIG 0.07  C 
BRANCH 41 42
ATOM     42  CG  PHE C   6     -16.273   6.742  22.444  1.00 25.43 LIG-0.06  A 
ATOM     43  CD2 PHE C   6     -15.477   6.193  23.461  1.00 26.31 LIG 0.01  A 
ATOM     44  CE2 PHE C   6     -15.548   4.830  23.735  1.00 29.51 LIG 0.00  A 
ATOM     45  CZ  PHE C   6     -16.334   3.977  22.950  1.00 25.82 LIG 0.00  A 
ATOM     46  CE1 PHE C   6     -17.090   4.502  21.937  1.00 26.71 LIG 0.00  A 
ATOM     47  CD1 PHE C   6     -17.041   5.894  21.671  1.00 21.41 LIG 0.01  A 
ENDBRANCH 41 42
ENDBRANCH 29 41
ENDBRANCH 26 29
ENDBRANCH 1 25
BRANCH 1 48
ATOM     48  CB  LEU C   5     -11.178   9.000  19.839  1.00 26.63 LIG 0.04  C 
BRANCH 48 49
ATOM     49  CG  LEU C   5      -9.762   9.468  19.773  1.00 31.82 LIG-0.02  C 
ATOM     50  CD2 LEU C   5      -8.942   8.329  19.064  1.00 33.90 LIG 0.01  C 
ATOM     51  CD1 LEU C   5      -9.191   9.819  21.152  1.00 30.04 LIG 0.01  C 
ENDBRANCH 48 49
ENDBRANCH 1 48
TORSDOF 19
ENDMDL
MODEL 49
USER: ADFR SOLUTION from run 135
USER: SCORE 15.131776 LL:  -4.796 LR: -11.471 RR:   0.000 FEB:  -5.803
USER: RMSD 3.068207
USER: SEED 134
USER: STATUS no improvement in best in 9 clusters for 5 generations
USER: GENES 21
USER: genes 0 Translation |==|  0.65216 0.58501 0.64653
USER: genes 1 Rotation |==|  0.60652 0.65499 0.36204 0.94227
USER: genes 2 Torsion [C]-CA--N-[C] |==|  0.18991
USER: genes 3 Torsion [N]-C--CA-[N] |==|  0.45223
USER: genes 4 Torsion [C]-CA--N-[C] |==|  0.23341
USER: genes 5 Torsion [N]-C--CA-[N] |==|  0.06603
USER: genes 6 Torsion [C]-CA--CB-[CG] |==|  0.19521
USER: genes 7 Torsion [CA]-CB--CG-[CD1] |==|  0.12407
USER: genes 8 Torsion [C]-CA--N-[C] |==|  0.16906
USER: genes 9 Torsion [N]-C--CA-[N] |==|  0.75782
USER: genes 10 Torsion [N]-CA--C-[N] |==|  0.82681
USER: genes 11 Torsion [C]-N--CA-[C] |==|  0.53949
USER: genes 12 Torsion [N]-CA--C-[N] |==|  0.46982
USER: genes 13 Torsion [C]-N--CA-[C] |==|  0.49903
USER: genes 14 Torsion [N]-CA--C-[O] |==|  0.12387
USER: genes 15 Torsion [N]-CA--CB-[CG] |==|  0.60255
USER: genes 16 Torsion [CA]-CB--CG-[OD1] |==|  0.23049
USER: genes 17 Torsion [N]-CA--CB-[CG] |==|  0.17212
USER: genes 18 Torsion [CA]-CB--CG-[CD2] |==|  0.01426
USER: genes 19 Torsion [N]-CA--CB-[CG] |==|  0.57291
USER: genes 20 Torsion [CA]-CB--CG-[CD2] |==|  0.06685
ROOT
ATOM      1  CA  LEU C   5     -12.077   9.803  25.410  1.00 25.10 LIG 0.18  C 
ENDROOT
BRANCH 1 2
ATOM      2  N   LEU C   5     -13.254   9.299  26.226  1.00 25.35 LIG-0.35  N 
ATOM      3  C   GLY C   4     -14.077   8.337  25.719  1.00 24.95 LIG 0.24  C 
ATOM      4 O    GLY C   4     -13.890   7.885  24.583  1.00 25.89 LIG-0.27  OA
ATOM      5 H    LEU C   5     -13.344   9.663  27.000  1.00 25.35 LIG 0.16  HD
BRANCH 3 6
ATOM      6  CA  GLY C   4     -15.204   7.813  26.540  1.00 25.42 LIG 0.23  C 
BRANCH 6 7
ATOM      7  N   GLY C   4     -16.272   7.088  25.851  1.00 25.00 LIG-0.35  N 
ATOM      8  C   PHE C   3     -16.193   5.768  25.551  1.00 25.70 LIG 0.24  C 
ATOM      9 O    PHE C   3     -15.224   5.059  25.884  1.00 20.17 LIG-0.27  OA
ATOM     10 H    GLY C   4     -16.952   7.577  25.655  1.00 25.00 LIG 0.16  HD
BRANCH 8 11
ATOM     11  CA  PHE C   3     -17.432   5.139  24.916  1.00 26.56 LIG 0.18  C 
BRANCH 11 12
ATOM     12  CB  PHE C   3     -16.984   4.096  23.912  1.00 27.24 LIG 0.07  C 
BRANCH 12 13
ATOM     13  CG  PHE C   3     -16.394   2.902  24.529  1.00 26.12 LIG-0.06  A 
ATOM     14  CD1 PHE C   3     -17.015   2.327  25.626  1.00 28.42 LIG 0.01  A 
ATOM     15  CE1 PHE C   3     -16.502   1.166  26.221  1.00 27.55 LIG 0.00  A 
ATOM     16  CZ  PHE C   3     -15.257   0.626  25.763  1.00 28.40 LIG 0.00  A 
ATOM     17  CE2 PHE C   3     -14.623   1.205  24.648  1.00 22.84 LIG 0.00  A 
ATOM     18  CD2 PHE C   3     -15.168   2.374  24.064  1.00 25.80 LIG 0.01  A 
ENDBRANCH 12 13
ENDBRANCH 11 12
BRANCH 11 19
ATOM     19  N   PHE C   3     -18.247   6.164  24.248  1.00 29.45 LIG-0.35  N 
ATOM     20 H    PHE C   3     -19.046   6.253  24.556  1.00 29.45 LIG 0.16  HD
ATOM     21  C   GLY C   2     -17.738   6.876  23.244  1.00 31.80 LIG 0.25  C 
ATOM     22 O    GLY C   2     -16.622   6.611  22.723  1.00 33.21 LIG-0.27  OA
BRANCH 21 23
ATOM     23  CA  GLY C   2     -18.640   7.973  22.682  1.00 32.25 LIG 0.47  C 
ATOM     24  N   GLY C   2     -19.559   7.472  21.609  1.00 32.96 LIG 0.61  N 
ENDBRANCH 21 23
ENDBRANCH 11 19
ENDBRANCH 8 11
ENDBRANCH 6 7
ENDBRANCH 3 6
ENDBRANCH 1 2
BRANCH 1 25
ATOM     25  C   LEU C   5     -12.433  10.617  24.159  1.00 23.49 LIG 0.24  C 
ATOM     26  N   PHE C   6     -13.128   9.995  23.203  1.00 22.96 LIG-0.35  N 
ATOM     27 H    PHE C   6     -13.416   9.186  23.261  1.00 22.96 LIG 0.16  HD
ATOM     28 O    LEU C   5     -12.174  11.842  24.120  1.00 25.98 LIG-0.27  OA
BRANCH 26 29
ATOM     29  CA  PHE C   6     -13.461  10.683  21.931  1.00 22.19 LIG 0.18  C 
BRANCH 29 30
ATOM     30  C   PHE C   6     -14.526  10.013  21.068  1.00 17.26 LIG 0.24  C 
ATOM     31 O    PHE C   6     -14.916   8.901  21.272  1.00 22.18 LIG-0.27  OA
ATOM     32  N   ASP C   7     -14.991  10.735  20.042  1.00 22.18 LIG-0.35  N 
ATOM     33 H    ASP C   7     -14.737  11.537  19.863  1.00 22.18 LIG 0.16  HD
BRANCH 32 34
ATOM     34  CA  ASP C   7     -15.999  10.194  19.118  1.00 22.70 LIG 0.17  C 
BRANCH 34 35
ATOM     35  C   ASP C   7     -16.412  11.146  18.028  1.00 27.36 LIG 0.22  C 
ATOM     36 O    ASP C   7     -15.566  11.818  17.391  1.00 28.20 LIG-0.29  OA
ENDBRANCH 34 35
BRANCH 34 37
ATOM     37  CB  ASP C   7     -17.254   9.808  19.913  1.00 23.18 LIG 0.15  C 
BRANCH 37 38
ATOM     38  CG  ASP C   7     -17.927   8.555  19.399  1.00 26.80 LIG 0.17  C 
ATOM     39 OD2  ASP C   7     -18.938   8.704  18.644  1.00 27.82 LIG-0.65  OA
ATOM     40 OD1  ASP C   7     -17.459   7.432  19.796  1.00 32.15 LIG-0.65  OA
ENDBRANCH 37 38
ENDBRANCH 34 37
ENDBRANCH 32 34
ENDBRANCH 29 30
BRANCH 29 41
ATOM     41  CB  PHE C   6     -12.191  11.014  21.110  1.00 21.19 LIG 0.07  C 
BRANCH 41 42
ATOM     42  CG  PHE C   6     -11.422   9.810  20.697  1.00 25.43 LIG-0.06  A 
ATOM     43  CD2 PHE C   6     -11.894   8.512  20.945  1.00 26.31 LIG 0.01  A 
ATOM     44  CE2 PHE C   6     -11.174   7.414  20.482  1.00 29.51 LIG 0.00  A 
ATOM     45  CZ  PHE C   6      -9.934   7.579  19.851  1.00 25.82 LIG 0.00  A 
ATOM     46  CE1 PHE C   6      -9.454   8.842  19.633  1.00 26.71 LIG 0.00  A 
ATOM     47  CD1 PHE C   6     -10.197   9.964  20.080  1.00 21.41 LIG 0.01  A 
ENDBRANCH 41 42
ENDBRANCH 29 41
ENDBRANCH 26 29
ENDBRANCH 1 25
BRANCH 1 48
ATOM     48  CB  LEU C   5     -10.988   8.739  25.006  1.00 26.63 LIG 0.04  C 
BRANCH 48 49
ATOM     49  CG  LEU C   5      -9.601   9.234  24.762  1.00 31.82 LIG-0.02  C 
ATOM     50  CD2 LEU C   5      -9.454  10.579  25.562  1.00 33.90 LIG 0.01  C 
ATOM     51  CD1 LEU C   5      -9.290   9.412  23.271  1.00 30.04 LIG 0.01  C 
ENDBRANCH 48 49
ENDBRANCH 1 48
TORSDOF 19
ENDMDL
MODEL 50
USER: ADFR SOLUTION from run 102
USER: SCORE 15.273075 LL:  -4.769 LR: -11.451 RR:   0.000 FEB:  -5.783
USER: RMSD 3.045027
USER: SEED 101
USER: STATUS no improvement in best in 8 clusters for 5 generations
USER: GENES 21
USER: genes 0 Translation |==|  0.64457 0.62475 0.56503
USER: genes 1 Rotation |==|  0.48536 0.66969 0.45227 0.96767
USER: genes 2 Torsion [C]-CA--N-[C] |==|  0.82825
USER: genes 3 Torsion [N]-C--CA-[N] |==|  0.80796
USER: genes 4 Torsion [C]-CA--N-[C] |==|  0.24413
USER: genes 5 Torsion [N]-C--CA-[N] |==|  0.91111
USER: genes 6 Torsion [C]-CA--CB-[CG] |==|  0.40932
USER: genes 7 Torsion [CA]-CB--CG-[CD1] |==|  0.87210
USER: genes 8 Torsion [C]-CA--N-[C] |==|  0.80255
USER: genes 9 Torsion [N]-C--CA-[N] |==|  0.02200
USER: genes 10 Torsion [N]-CA--C-[N] |==|  0.88647
USER: genes 11 Torsion [C]-N--CA-[C] |==|  0.64057
USER: genes 12 Torsion [N]-CA--C-[N] |==|  0.99166
USER: genes 13 Torsion [C]-N--CA-[C] |==|  0.60538
USER: genes 14 Torsion [N]-CA--C-[O] |==|  0.01556
USER: genes 15 Torsion [N]-CA--CB-[CG] |==|  0.77517
USER: genes 16 Torsion [CA]-CB--CG-[OD1] |==|  0.91126
USER: genes 17 Torsion [N]-CA--CB-[CG] |==|  0.93533
USER: genes 18 Torsion [CA]-CB--CG-[CD2] |==|  0.27371
USER: genes 19 Torsion [N]-CA--CB-[CG] |==|  0.96676
USER: genes 20 Torsion [CA]-CB--CG-[CD2] |==|  0.74531
ROOT
ATOM      1  CA  LEU C   5     -12.214  10.667  23.943  1.00 25.10 LIG 0.18  C 
ENDROOT
BRANCH 1 2
ATOM      2  N   LEU C   5     -12.990   9.965  25.042  1.00 25.35 LIG-0.35  N 
ATOM      3  C   GLY C   4     -14.186  10.466  25.464  1.00 24.95 LIG 0.24  C 
ATOM      4 O    GLY C   4     -14.638  11.508  24.975  1.00 25.89 LIG-0.27  OA
ATOM      5 H    LEU C   5     -12.617   9.256  25.356  1.00 25.35 LIG 0.16  HD
BRANCH 3 6
ATOM      6  CA  GLY C   4     -14.966   9.749  26.511  1.00 25.42 LIG 0.23  C 
BRANCH 6 7
ATOM      7  N   GLY C   4     -15.564   8.462  26.156  1.00 25.00 LIG-0.35  N 
ATOM      8  C   PHE C   3     -14.905   7.283  26.277  1.00 25.70 LIG 0.24  C 
ATOM      9 O    PHE C   3     -13.754   7.201  26.748  1.00 20.17 LIG-0.27  OA
ATOM     10 H    GLY C   4     -16.371   8.523  25.864  1.00 25.00 LIG 0.16  HD
BRANCH 8 11
ATOM     11  CA  PHE C   3     -15.703   6.020  25.956  1.00 26.56 LIG 0.18  C 
BRANCH 11 12
ATOM     12  CB  PHE C   3     -15.566   5.727  24.475  1.00 27.24 LIG 0.07  C 
BRANCH 12 13
ATOM     13  CG  PHE C   3     -15.584   4.295  24.155  1.00 26.12 LIG-0.06  A 
ATOM     14  CD1 PHE C   3     -14.816   3.421  24.906  1.00 28.42 LIG 0.01  A 
ATOM     15  CE1 PHE C   3     -14.833   2.042  24.655  1.00 27.55 LIG 0.00  A 
ATOM     16  CZ  PHE C   3     -15.567   1.537  23.533  1.00 28.40 LIG 0.00  A 
ATOM     17  CE2 PHE C   3     -16.351   2.419  22.767  1.00 22.84 LIG 0.00  A 
ATOM     18  CD2 PHE C   3     -16.318   3.807  23.050  1.00 25.80 LIG 0.01  A 
ENDBRANCH 12 13
ENDBRANCH 11 12
BRANCH 11 19
ATOM     19  N   PHE C   3     -17.119   6.201  26.304  1.00 29.45 LIG-0.35  N 
ATOM     20 H    PHE C   3     -17.655   6.268  25.634  1.00 29.45 LIG 0.16  HD
ATOM     21  C   GLY C   2     -17.493   6.249  27.582  1.00 31.80 LIG 0.25  C 
ATOM     22 O    GLY C   2     -16.666   6.302  28.530  1.00 33.21 LIG-0.27  OA
BRANCH 21 23
ATOM     23  CA  GLY C   2     -18.998   6.349  27.831  1.00 32.25 LIG 0.47  C 
ATOM     24  N   GLY C   2     -19.802   6.184  26.576  1.00 32.96 LIG 0.61  N 
ENDBRANCH 21 23
ENDBRANCH 11 19
ENDBRANCH 8 11
ENDBRANCH 6 7
ENDBRANCH 3 6
ENDBRANCH 1 2
BRANCH 1 25
ATOM     25  C   LEU C   5     -12.918  10.756  22.582  1.00 23.49 LIG 0.24  C 
ATOM     26  N   PHE C   6     -13.588   9.677  22.170  1.00 22.96 LIG-0.35  N 
ATOM     27 H    PHE C   6     -13.679   8.957  22.632  1.00 22.96 LIG 0.16  HD
ATOM     28 O    LEU C   5     -12.944  11.846  21.966  1.00 25.98 LIG-0.27  OA
BRANCH 26 29
ATOM     29  CA  PHE C   6     -14.245   9.649  20.839  1.00 22.19 LIG 0.18  C 
BRANCH 29 30
ATOM     30  C   PHE C   6     -15.708   9.213  20.826  1.00 17.26 LIG 0.24  C 
ATOM     31 O    PHE C   6     -16.372   9.216  19.833  1.00 22.18 LIG-0.27  OA
ATOM     32  N   ASP C   7     -16.221   8.844  22.005  1.00 22.18 LIG-0.35  N 
ATOM     33 H    ASP C   7     -15.775   8.827  22.741  1.00 22.18 LIG 0.16  HD
BRANCH 32 34
ATOM     34  CA  ASP C   7     -17.626   8.429  22.133  1.00 22.70 LIG 0.17  C 
BRANCH 34 35
ATOM     35  C   ASP C   7     -18.293   8.891  23.401  1.00 27.36 LIG 0.22  C 
ATOM     36 O    ASP C   7     -17.710   9.656  24.206  1.00 28.20 LIG-0.29  OA
ENDBRANCH 34 35
BRANCH 34 37
ATOM     37  CB  ASP C   7     -17.704   6.896  22.087  1.00 23.18 LIG 0.15  C 
BRANCH 37 38
ATOM     38  CG  ASP C   7     -17.656   6.337  20.683  1.00 26.80 LIG 0.17  C 
ATOM     39 OD2  ASP C   7     -17.069   5.221  20.520  1.00 27.82 LIG-0.65  OA
ATOM     40 OD1  ASP C   7     -18.170   7.046  19.749  1.00 32.15 LIG-0.65  OA
ENDBRANCH 37 38
ENDBRANCH 34 37
ENDBRANCH 32 34
ENDBRANCH 29 30
BRANCH 29 41
ATOM     41  CB  PHE C   6     -13.408   8.857  19.805  1.00 21.19 LIG 0.07  C 
BRANCH 41 42
ATOM     42  CG  PHE C   6     -11.963   8.779  20.148  1.00 25.43 LIG-0.06  A 
ATOM     43  CD2 PHE C   6     -11.413   7.649  20.773  1.00 26.31 LIG 0.01  A 
ATOM     44  CE2 PHE C   6     -10.043   7.590  21.016  1.00 29.51 LIG 0.00  A 
ATOM     45  CZ  PHE C   6      -9.214   8.682  20.730  1.00 25.82 LIG 0.00  A 
ATOM     46  CE1 PHE C   6      -9.749   9.800  20.148  1.00 26.71 LIG 0.00  A 
ATOM     47  CD1 PHE C   6     -11.140   9.853  19.875  1.00 21.41 LIG 0.01  A 
ENDBRANCH 41 42
ENDBRANCH 29 41
ENDBRANCH 26 29
ENDBRANCH 1 25
BRANCH 1 48
ATOM     48  CB  LEU C   5     -10.736  10.181  23.697  1.00 26.63 LIG 0.04  C 
BRANCH 48 49
ATOM     49  CG  LEU C   5     -10.129   9.279  24.720  1.00 31.82 LIG-0.02  C 
ATOM     50  CD2 LEU C   5      -9.388  10.203  25.754  1.00 33.90 LIG 0.01  C 
ATOM     51  CD1 LEU C   5      -9.191   8.233  24.105  1.00 30.04 LIG 0.01  C 
ENDBRANCH 48 49
ENDBRANCH 1 48
TORSDOF 19
ENDMDL
MODEL 51
USER: ADFR SOLUTION from run 193
USER: SCORE 16.094073 LL:  -5.214 LR: -11.436 RR:   0.000 FEB:  -5.769
USER: RMSD 5.191300
USER: SEED 192
USER: STATUS no improvement in best in 12 clusters for 5 generations
USER: GENES 21
USER: genes 0 Translation |==|  0.64581 0.60448 0.32881
USER: genes 1 Rotation |==|  0.27890 0.72170 0.30276 0.83624
USER: genes 2 Torsion [C]-CA--N-[C] |==|  0.84748
USER: genes 3 Torsion [N]-C--CA-[N] |==|  0.95553
USER: genes 4 Torsion [C]-CA--N-[C] |==|  0.82310
USER: genes 5 Torsion [N]-C--CA-[N] |==|  0.50279
USER: genes 6 Torsion [C]-CA--CB-[CG] |==|  0.80129
USER: genes 7 Torsion [CA]-CB--CG-[CD1] |==|  0.55812
USER: genes 8 Torsion [C]-CA--N-[C] |==|  0.67777
USER: genes 9 Torsion [N]-C--CA-[N] |==|  0.18901
USER: genes 10 Torsion [N]-CA--C-[N] |==|  0.91029
USER: genes 11 Torsion [C]-N--CA-[C] |==|  0.75502
USER: genes 12 Torsion [N]-CA--C-[N] |==|  0.02289
USER: genes 13 Torsion [C]-N--CA-[C] |==|  0.86608
USER: genes 14 Torsion [N]-CA--C-[O] |==|  0.50927
USER: genes 15 Torsion [N]-CA--CB-[CG] |==|  0.17749
USER: genes 16 Torsion [CA]-CB--CG-[OD1] |==|  0.40514
USER: genes 17 Torsion [N]-CA--CB-[CG] |==|  0.14586
USER: genes 18 Torsion [CA]-CB--CG-[CD2] |==|  0.13981
USER: genes 19 Torsion [N]-CA--CB-[CG] |==|  0.81447
USER: genes 20 Torsion [CA]-CB--CG-[CD2] |==|  0.57494
ROOT
ATOM      1  CA  LEU C   5     -12.191  10.226  19.692  1.00 25.10 LIG 0.18  C 
ENDROOT
BRANCH 1 2
ATOM      2  N   LEU C   5     -12.323  11.080  20.940  1.00 25.35 LIG-0.35  N 
ATOM      3  C   GLY C   4     -13.193  12.130  20.963  1.00 24.95 LIG 0.24  C 
ATOM      4 O    GLY C   4     -13.864  12.412  19.963  1.00 25.89 LIG-0.27  OA
ATOM      5 H    LEU C   5     -11.819  10.846  21.596  1.00 25.35 LIG 0.16  HD
BRANCH 3 6
ATOM      6  CA  GLY C   4     -13.352  12.937  22.205  1.00 25.42 LIG 0.23  C 
BRANCH 6 7
ATOM      7  N   GLY C   4     -12.846  12.373  23.456  1.00 25.00 LIG-0.35  N 
ATOM      8  C   PHE C   3     -13.344  11.239  24.008  1.00 25.70 LIG 0.24  C 
ATOM      9 O    PHE C   3     -14.238  10.562  23.465  1.00 20.17 LIG-0.27  OA
ATOM     10 H    GLY C   4     -12.206  12.827  23.807  1.00 25.00 LIG 0.16  HD
BRANCH 8 11
ATOM     11  CA  PHE C   3     -12.641  10.729  25.266  1.00 26.56 LIG 0.18  C 
BRANCH 11 12
ATOM     12  CB  PHE C   3     -11.182  10.484  24.938  1.00 27.24 LIG 0.07  C 
BRANCH 12 13
ATOM     13  CG  PHE C   3     -10.961   9.315  24.078  1.00 26.12 LIG-0.06  A 
ATOM     14  CD1 PHE C   3      -9.711   8.717  24.051  1.00 28.42 LIG 0.01  A 
ATOM     15  CE1 PHE C   3      -9.470   7.579  23.270  1.00 27.55 LIG 0.00  A 
ATOM     16  CZ  PHE C   3     -10.496   7.089  22.398  1.00 28.40 LIG 0.00  A 
ATOM     17  CE2 PHE C   3     -11.767   7.691  22.422  1.00 22.84 LIG 0.00  A 
ATOM     18  CD2 PHE C   3     -11.982   8.836  23.226  1.00 25.80 LIG 0.01  A 
ENDBRANCH 12 13
ENDBRANCH 11 12
BRANCH 11 19
ATOM     19  N   PHE C   3     -13.266   9.487  25.740  1.00 29.45 LIG-0.35  N 
ATOM     20 H    PHE C   3     -13.204   8.818  25.202  1.00 29.45 LIG 0.16  HD
ATOM     21  C   GLY C   2     -13.873   9.452  26.926  1.00 31.80 LIG 0.25  C 
ATOM     22 O    GLY C   2     -14.078  10.487  27.614  1.00 33.21 LIG-0.27  OA
BRANCH 21 23
ATOM     23  CA  GLY C   2     -14.409   8.089  27.359  1.00 32.25 LIG 0.47  C 
ATOM     24  N   GLY C   2     -13.316   7.104  27.648  1.00 32.96 LIG 0.61  N 
ENDBRANCH 21 23
ENDBRANCH 11 19
ENDBRANCH 8 11
ENDBRANCH 6 7
ENDBRANCH 3 6
ENDBRANCH 1 2
BRANCH 1 25
ATOM     25  C   LEU C   5     -13.496   9.615  19.162  1.00 23.49 LIG 0.24  C 
ATOM     26  N   PHE C   6     -14.428   9.292  20.061  1.00 22.96 LIG-0.35  N 
ATOM     27 H    PHE C   6     -14.358   9.438  20.906  1.00 22.96 LIG 0.16  HD
ATOM     28 O    LEU C   5     -13.693   9.546  17.927  1.00 25.98 LIG-0.27  OA
BRANCH 26 29
ATOM     29  CA  PHE C   6     -15.694   8.636  19.647  1.00 22.19 LIG 0.18  C 
BRANCH 29 30
ATOM     30  C   PHE C   6     -16.834   9.573  19.256  1.00 17.26 LIG 0.24  C 
ATOM     31 O    PHE C   6     -17.939   9.181  19.023  1.00 22.18 LIG-0.27  OA
ATOM     32  N   ASP C   7     -16.522  10.870  19.163  1.00 22.18 LIG-0.35  N 
ATOM     33 H    ASP C   7     -15.740  11.191  19.323  1.00 22.18 LIG 0.16  HD
BRANCH 32 34
ATOM     34  CA  ASP C   7     -17.523  11.873  18.768  1.00 22.70 LIG 0.17  C 
BRANCH 34 35
ATOM     35  C   ASP C   7     -18.317  11.503  17.544  1.00 27.36 LIG 0.22  C 
ATOM     36 O    ASP C   7     -19.164  12.287  17.052  1.00 28.20 LIG-0.29  OA
ENDBRANCH 34 35
BRANCH 34 37
ATOM     37  CB  ASP C   7     -16.817  13.207  18.490  1.00 23.18 LIG 0.15  C 
BRANCH 37 38
ATOM     38  CG  ASP C   7     -15.859  13.145  17.322  1.00 26.80 LIG 0.17  C 
ATOM     39 OD2  ASP C   7     -15.200  12.070  17.164  1.00 27.82 LIG-0.65  OA
ATOM     40 OD1  ASP C   7     -15.744  14.196  16.600  1.00 32.15 LIG-0.65  OA
ENDBRANCH 37 38
ENDBRANCH 34 37
ENDBRANCH 32 34
ENDBRANCH 29 30
BRANCH 29 41
ATOM     41  CB  PHE C   6     -16.156   7.581  20.681  1.00 21.19 LIG 0.07  C 
BRANCH 41 42
ATOM     42  CG  PHE C   6     -16.235   8.106  22.070  1.00 25.43 LIG-0.06  A 
ATOM     43  CD2 PHE C   6     -16.918   9.294  22.372  1.00 26.31 LIG 0.01  A 
ATOM     44  CE2 PHE C   6     -17.023   9.714  23.695  1.00 29.51 LIG 0.00  A 
ATOM     45  CZ  PHE C   6     -16.377   9.019  24.726  1.00 25.82 LIG 0.00  A 
ATOM     46  CE1 PHE C   6     -15.683   7.876  24.433  1.00 26.71 LIG 0.00  A 
ATOM     47  CD1 PHE C   6     -15.596   7.430  23.090  1.00 21.41 LIG 0.01  A 
ENDBRANCH 41 42
ENDBRANCH 29 41
ENDBRANCH 26 29
ENDBRANCH 1 25
BRANCH 1 48
ATOM     48  CB  LEU C   5     -11.098   9.093  19.720  1.00 26.63 LIG 0.04  C 
BRANCH 48 49
ATOM     49  CG  LEU C   5      -9.668   9.518  19.771  1.00 31.82 LIG-0.02  C 
ATOM     50  CD2 LEU C   5      -8.830   8.364  19.107  1.00 33.90 LIG 0.01  C 
ATOM     51  CD1 LEU C   5      -9.193   9.829  21.196  1.00 30.04 LIG 0.01  C 
ENDBRANCH 48 49
ENDBRANCH 1 48
TORSDOF 19
ENDMDL
MODEL 52
USER: ADFR SOLUTION from run 71
USER: SCORE 14.770310 LL:  -4.313 LR: -11.417 RR:   0.000 FEB:  -5.749
USER: RMSD 6.267918
USER: SEED 70
USER: STATUS no improvement in best in 2 clusters for 5 generations
USER: GENES 21
USER: genes 0 Translation |==|  0.51773 0.51681 0.49512
USER: genes 1 Rotation |==|  0.90963 0.74990 0.45219 0.63214
USER: genes 2 Torsion [C]-CA--N-[C] |==|  0.76113
USER: genes 3 Torsion [N]-C--CA-[N] |==|  0.30800
USER: genes 4 Torsion [C]-CA--N-[C] |==|  0.80135
USER: genes 5 Torsion [N]-C--CA-[N] |==|  0.46069
USER: genes 6 Torsion [C]-CA--CB-[CG] |==|  0.20889
USER: genes 7 Torsion [CA]-CB--CG-[CD1] |==|  0.21949
USER: genes 8 Torsion [C]-CA--N-[C] |==|  0.74863
USER: genes 9 Torsion [N]-C--CA-[N] |==|  0.18439
USER: genes 10 Torsion [N]-CA--C-[N] |==|  0.93189
USER: genes 11 Torsion [C]-N--CA-[C] |==|  0.15005
USER: genes 12 Torsion [N]-CA--C-[N] |==|  0.05078
USER: genes 13 Torsion [C]-N--CA-[C] |==|  0.14559
USER: genes 14 Torsion [N]-CA--C-[O] |==|  0.10833
USER: genes 15 Torsion [N]-CA--CB-[CG] |==|  0.59134
USER: genes 16 Torsion [CA]-CB--CG-[OD1] |==|  0.29127
USER: genes 17 Torsion [N]-CA--CB-[CG] |==|  0.95865
USER: genes 18 Torsion [CA]-CB--CG-[CD2] |==|  0.30062
USER: genes 19 Torsion [N]-CA--CB-[CG] |==|  0.69965
USER: genes 20 Torsion [CA]-CB--CG-[CD2] |==|  0.87673
ROOT
ATOM      1  CA  LEU C   5     -14.497   8.320  22.685  1.00 25.10 LIG 0.18  C 
ENDROOT
BRANCH 1 2
ATOM      2  N   LEU C   5     -15.826   7.600  22.547  1.00 25.35 LIG-0.35  N 
ATOM      3  C   GLY C   4     -16.056   6.447  23.237  1.00 24.95 LIG 0.24  C 
ATOM      4 O    GLY C   4     -15.178   5.962  23.961  1.00 25.89 LIG-0.27  OA
ATOM      5 H    LEU C   5     -16.390   7.975  22.016  1.00 25.35 LIG 0.16  HD
BRANCH 3 6
ATOM      6  CA  GLY C   4     -17.378   5.768  23.134  1.00 25.42 LIG 0.23  C 
BRANCH 6 7
ATOM      7  N   GLY C   4     -17.433   4.484  22.434  1.00 25.00 LIG-0.35  N 
ATOM      8  C   PHE C   3     -17.298   4.371  21.089  1.00 25.70 LIG 0.24  C 
ATOM      9 O    PHE C   3     -17.067   5.347  20.351  1.00 20.17 LIG-0.27  OA
ATOM     10 H    GLY C   4     -17.559   3.811  22.954  1.00 25.00 LIG 0.16  HD
BRANCH 8 11
ATOM     11  CA  PHE C   3     -17.283   2.951  20.524  1.00 26.56 LIG 0.18  C 
BRANCH 11 12
ATOM     12  CB  PHE C   3     -15.954   2.309  20.868  1.00 27.24 LIG 0.07  C 
BRANCH 12 13
ATOM     13  CG  PHE C   3     -15.845   1.900  22.273  1.00 26.12 LIG-0.06  A 
ATOM     14  CD1 PHE C   3     -16.450   0.724  22.688  1.00 28.42 LIG 0.01  A 
ATOM     15  CE1 PHE C   3     -16.338   0.282  24.013  1.00 27.55 LIG 0.00  A 
ATOM     16  CZ  PHE C   3     -15.686   1.110  24.984  1.00 28.40 LIG 0.00  A 
ATOM     17  CE2 PHE C   3     -15.068   2.304  24.568  1.00 22.84 LIG 0.00  A 
ATOM     18  CD2 PHE C   3     -15.193   2.721  23.220  1.00 25.80 LIG 0.01  A 
ENDBRANCH 12 13
ENDBRANCH 11 12
BRANCH 11 19
ATOM     19  N   PHE C   3     -17.471   2.972  19.067  1.00 29.45 LIG-0.35  N 
ATOM     20 H    PHE C   3     -16.746   3.031  18.606  1.00 29.45 LIG 0.16  HD
ATOM     21  C   GLY C   2     -18.696   2.902  18.548  1.00 31.80 LIG 0.25  C 
ATOM     22 O    GLY C   2     -19.737   2.973  19.253  1.00 33.21 LIG-0.27  OA
BRANCH 21 23
ATOM     23  CA  GLY C   2     -18.769   2.842  17.023  1.00 32.25 LIG 0.47  C 
ATOM     24  N   GLY C   2     -18.191   1.574  16.468  1.00 32.96 LIG 0.61  N 
ENDBRANCH 21 23
ENDBRANCH 11 19
ENDBRANCH 8 11
ENDBRANCH 6 7
ENDBRANCH 3 6
ENDBRANCH 1 2
BRANCH 1 25
ATOM     25  C   LEU C   5     -14.388   9.299  23.862  1.00 23.49 LIG 0.24  C 
ATOM     26  N   PHE C   6     -15.526   9.817  24.332  1.00 22.96 LIG-0.35  N 
ATOM     27 H    PHE C   6     -16.309   9.609  24.043  1.00 22.96 LIG 0.16  HD
ATOM     28 O    LEU C   5     -13.279   9.491  24.411  1.00 25.98 LIG-0.27  OA
BRANCH 26 29
ATOM     29  CA  PHE C   6     -15.513  10.822  25.425  1.00 22.19 LIG 0.18  C 
BRANCH 29 30
ATOM     30  C   PHE C   6     -14.641  12.052  25.190  1.00 17.26 LIG 0.24  C 
ATOM     31 O    PHE C   6     -14.301  12.779  26.076  1.00 22.18 LIG-0.27  OA
ATOM     32  N   ASP C   7     -14.293  12.291  23.921  1.00 22.18 LIG-0.35  N 
ATOM     33 H    ASP C   7     -14.517  11.791  23.258  1.00 22.18 LIG 0.16  HD
BRANCH 32 34
ATOM     34  CA  ASP C   7     -13.477  13.459  23.558  1.00 22.70 LIG 0.17  C 
BRANCH 34 35
ATOM     35  C   ASP C   7     -12.203  13.593  24.348  1.00 27.36 LIG 0.22  C 
ATOM     36 O    ASP C   7     -11.514  12.590  24.652  1.00 28.20 LIG-0.29  OA
ENDBRANCH 34 35
BRANCH 34 37
ATOM     37  CB  ASP C   7     -14.303  14.736  23.770  1.00 23.18 LIG 0.15  C 
BRANCH 37 38
ATOM     38  CG  ASP C   7     -13.975  15.832  22.783  1.00 26.80 LIG 0.17  C 
ATOM     39 OD2  ASP C   7     -12.909  16.496  22.981  1.00 27.82 LIG-0.65  OA
ATOM     40 OD1  ASP C   7     -14.816  16.047  21.841  1.00 32.15 LIG-0.65  OA
ENDBRANCH 37 38
ENDBRANCH 34 37
ENDBRANCH 32 34
ENDBRANCH 29 30
BRANCH 29 41
ATOM     41  CB  PHE C   6     -15.217  10.169  26.797  1.00 21.19 LIG 0.07  C 
BRANCH 41 42
ATOM     42  CG  PHE C   6     -15.359   8.689  26.793  1.00 25.43 LIG-0.06  A 
ATOM     43  CD2 PHE C   6     -14.244   7.841  26.867  1.00 26.31 LIG 0.01  A 
ATOM     44  CE2 PHE C   6     -14.426   6.462  26.927  1.00 29.51 LIG 0.00  A 
ATOM     45  CZ  PHE C   6     -15.704   5.899  26.822  1.00 25.82 LIG 0.00  A 
ATOM     46  CE1 PHE C   6     -16.795   6.720  26.718  1.00 26.71 LIG 0.00  A 
ATOM     47  CD1 PHE C   6     -16.615   8.127  26.683  1.00 21.41 LIG 0.01  A 
ENDBRANCH 41 42
ENDBRANCH 29 41
ENDBRANCH 26 29
ENDBRANCH 1 25
BRANCH 1 48
ATOM     48  CB  LEU C   5     -13.943   9.040  21.398  1.00 26.63 LIG 0.04  C 
BRANCH 48 49
ATOM     49  CG  LEU C   5     -12.766   8.425  20.718  1.00 31.82 LIG-0.02  C 
ATOM     50  CD2 LEU C   5     -11.747   8.028  21.849  1.00 33.90 LIG 0.01  C 
ATOM     51  CD1 LEU C   5     -12.135   9.353  19.672  1.00 30.04 LIG 0.01  C 
ENDBRANCH 48 49
ENDBRANCH 1 48
TORSDOF 19
ENDMDL
MODEL 53
USER: ADFR SOLUTION from run 72
USER: SCORE 15.457150 LL:  -5.286 LR: -11.406 RR:   0.000 FEB:  -5.738
USER: RMSD 8.027555
USER: SEED 71
USER: STATUS no improvement in best in 9 clusters for 5 generations
USER: GENES 21
USER: genes 0 Translation |==|  0.66852 0.52227 0.37348
USER: genes 1 Rotation |==|  0.06346 0.34078 0.31944 0.53848
USER: genes 2 Torsion [C]-CA--N-[C] |==|  0.21183
USER: genes 3 Torsion [N]-C--CA-[N] |==|  0.42271
USER: genes 4 Torsion [C]-CA--N-[C] |==|  0.36314
USER: genes 5 Torsion [N]-C--CA-[N] |==|  0.90116
USER: genes 6 Torsion [C]-CA--CB-[CG] |==|  0.26086
USER: genes 7 Torsion [CA]-CB--CG-[CD1] |==|  0.46891
USER: genes 8 Torsion [C]-CA--N-[C] |==|  0.79152
USER: genes 9 Torsion [N]-C--CA-[N] |==|  0.60592
USER: genes 10 Torsion [N]-CA--C-[N] |==|  0.86667
USER: genes 11 Torsion [C]-N--CA-[C] |==|  0.66842
USER: genes 12 Torsion [N]-CA--C-[N] |==|  0.04913
USER: genes 13 Torsion [C]-N--CA-[C] |==|  0.64262
USER: genes 14 Torsion [N]-CA--C-[O] |==|  0.92619
USER: genes 15 Torsion [N]-CA--CB-[CG] |==|  0.22572
USER: genes 16 Torsion [CA]-CB--CG-[OD1] |==|  0.20994
USER: genes 17 Torsion [N]-CA--CB-[CG] |==|  0.84042
USER: genes 18 Torsion [CA]-CB--CG-[CD2] |==|  0.79111
USER: genes 19 Torsion [N]-CA--CB-[CG] |==|  0.62256
USER: genes 20 Torsion [CA]-CB--CG-[CD2] |==|  0.19481
ROOT
ATOM      1  CA  LEU C   5     -11.783   8.438  20.496  1.00 25.10 LIG 0.18  C 
ENDROOT
BRANCH 1 2
ATOM      2  N   LEU C   5     -12.762   8.740  19.377  1.00 25.35 LIG-0.35  N 
ATOM      3  C   GLY C   4     -13.506   9.883  19.407  1.00 24.95 LIG 0.24  C 
ATOM      4 O    GLY C   4     -13.409  10.671  20.355  1.00 25.89 LIG-0.27  OA
ATOM      5 H    LEU C   5     -12.799   8.148  18.754  1.00 25.35 LIG 0.16  HD
BRANCH 3 6
ATOM      6  CA  GLY C   4     -14.434  10.198  18.284  1.00 25.42 LIG 0.23  C 
BRANCH 6 7
ATOM      7  N   GLY C   4     -15.611  11.014  18.580  1.00 25.00 LIG-0.35  N 
ATOM      8  C   PHE C   3     -15.961  12.098  17.845  1.00 25.70 LIG 0.24  C 
ATOM      9 O    PHE C   3     -15.333  12.454  16.829  1.00 20.17 LIG-0.27  OA
ATOM     10 H    GLY C   4     -16.060  10.741  19.262  1.00 25.00 LIG 0.16  HD
BRANCH 8 11
ATOM     11  CA  PHE C   3     -17.272  12.785  18.226  1.00 26.56 LIG 0.18  C 
BRANCH 11 12
ATOM     12  CB  PHE C   3     -16.993  13.769  19.345  1.00 27.24 LIG 0.07  C 
BRANCH 12 13
ATOM     13  CG  PHE C   3     -16.734  15.135  18.875  1.00 26.12 LIG-0.06  A 
ATOM     14  CD1 PHE C   3     -16.697  16.173  19.792  1.00 28.42 LIG 0.01  A 
ATOM     15  CE1 PHE C   3     -16.417  17.486  19.387  1.00 27.55 LIG 0.00  A 
ATOM     16  CZ  PHE C   3     -16.279  17.782  17.993  1.00 28.40 LIG 0.00  A 
ATOM     17  CE2 PHE C   3     -16.314  16.732  17.057  1.00 22.84 LIG 0.00  A 
ATOM     18  CD2 PHE C   3     -16.592  15.414  17.497  1.00 25.80 LIG 0.01  A 
ENDBRANCH 12 13
ENDBRANCH 11 12
BRANCH 11 19
ATOM     19  N   PHE C   3     -18.267  11.795  18.662  1.00 29.45 LIG-0.35  N 
ATOM     20 H    PHE C   3     -18.405  11.765  19.511  1.00 29.45 LIG 0.16  HD
ATOM     21  C   GLY C   2     -18.882  11.024  17.766  1.00 31.80 LIG 0.25  C 
ATOM     22 O    GLY C   2     -18.543  10.989  16.554  1.00 33.21 LIG-0.27  OA
BRANCH 21 23
ATOM     23  CA  GLY C   2     -19.961  10.094  18.319  1.00 32.25 LIG 0.47  C 
ATOM     24  N   GLY C   2     -19.968   8.754  17.646  1.00 32.96 LIG 0.61  N 
ENDBRANCH 21 23
ENDBRANCH 11 19
ENDBRANCH 8 11
ENDBRANCH 6 7
ENDBRANCH 3 6
ENDBRANCH 1 2
BRANCH 1 25
ATOM     25  C   LEU C   5     -12.403   7.940  21.808  1.00 23.49 LIG 0.24  C 
ATOM     26  N   PHE C   6     -13.442   8.625  22.291  1.00 22.96 LIG-0.35  N 
ATOM     27 H    PHE C   6     -13.804   9.299  21.898  1.00 22.96 LIG 0.16  HD
ATOM     28 O    LEU C   5     -12.005   6.865  22.315  1.00 25.98 LIG-0.27  OA
BRANCH 26 29
ATOM     29  CA  PHE C   6     -14.064   8.255  23.588  1.00 22.19 LIG 0.18  C 
BRANCH 29 30
ATOM     30  C   PHE C   6     -15.536   7.856  23.532  1.00 17.26 LIG 0.24  C 
ATOM     31 O    PHE C   6     -16.230   7.816  24.504  1.00 22.18 LIG-0.27  OA
ATOM     32  N   ASP C   7     -16.009   7.526  22.325  1.00 22.18 LIG-0.35  N 
ATOM     33 H    ASP C   7     -15.542   7.544  21.602  1.00 22.18 LIG 0.16  HD
BRANCH 32 34
ATOM     34  CA  ASP C   7     -17.404   7.097  22.139  1.00 22.70 LIG 0.17  C 
BRANCH 34 35
ATOM     35  C   ASP C   7     -17.556   5.804  21.385  1.00 27.36 LIG 0.22  C 
ATOM     36 O    ASP C   7     -16.691   5.420  20.561  1.00 28.20 LIG-0.29  OA
ENDBRANCH 34 35
BRANCH 34 37
ATOM     37  CB  ASP C   7     -18.168   8.186  21.374  1.00 23.18 LIG 0.15  C 
BRANCH 37 38
ATOM     38  CG  ASP C   7     -17.950   8.133  19.879  1.00 26.80 LIG 0.17  C 
ATOM     39 OD2  ASP C   7     -17.215   9.033  19.364  1.00 27.82 LIG-0.65  OA
ATOM     40 OD1  ASP C   7     -18.557   7.211  19.229  1.00 32.15 LIG-0.65  OA
ENDBRANCH 37 38
ENDBRANCH 34 37
ENDBRANCH 32 34
ENDBRANCH 29 30
BRANCH 29 41
ATOM     41  CB  PHE C   6     -13.808   9.330  24.672  1.00 21.19 LIG 0.07  C 
BRANCH 41 42
ATOM     42  CG  PHE C   6     -12.365   9.599  24.911  1.00 25.43 LIG-0.06  A 
ATOM     43  CD2 PHE C   6     -11.557   8.704  25.628  1.00 26.31 LIG 0.01  A 
ATOM     44  CE2 PHE C   6     -10.196   8.963  25.772  1.00 29.51 LIG 0.00  A 
ATOM     45  CZ  PHE C   6      -9.635  10.153  25.290  1.00 25.82 LIG 0.00  A 
ATOM     46  CE1 PHE C   6     -10.425  11.045  24.617  1.00 26.71 LIG 0.00  A 
ATOM     47  CD1 PHE C   6     -11.806  10.772  24.445  1.00 21.41 LIG 0.01  A 
ENDBRANCH 41 42
ENDBRANCH 29 41
ENDBRANCH 26 29
ENDBRANCH 1 25
BRANCH 1 48
ATOM     48  CB  LEU C   5     -10.739   9.565  20.847  1.00 26.63 LIG 0.04  C 
BRANCH 48 49
ATOM     49  CG  LEU C   5      -9.323   9.147  21.066  1.00 31.82 LIG-0.02  C 
ATOM     50  CD2 LEU C   5      -8.757   8.716  19.663  1.00 33.90 LIG 0.01  C 
ATOM     51  CD1 LEU C   5      -9.190   8.031  22.109  1.00 30.04 LIG 0.01  C 
ENDBRANCH 48 49
ENDBRANCH 1 48
TORSDOF 19
ENDMDL
MODEL 54
USER: ADFR SOLUTION from run 35
USER: SCORE 15.840340 LL:  -5.171 LR: -11.398 RR:   0.000 FEB:  -5.730
USER: RMSD 5.196889
USER: SEED 34
USER: STATUS no improvement in best in 14 clusters for 5 generations
USER: GENES 21
USER: genes 0 Translation |==|  0.63344 0.62726 0.34594
USER: genes 1 Rotation |==|  0.28391 0.77668 0.39751 0.84095
USER: genes 2 Torsion [C]-CA--N-[C] |==|  0.79813
USER: genes 3 Torsion [N]-C--CA-[N] |==|  0.86895
USER: genes 4 Torsion [C]-CA--N-[C] |==|  0.85812
USER: genes 5 Torsion [N]-C--CA-[N] |==|  0.44028
USER: genes 6 Torsion [C]-CA--CB-[CG] |==|  0.17507
USER: genes 7 Torsion [CA]-CB--CG-[CD1] |==|  0.14434
USER: genes 8 Torsion [C]-CA--N-[C] |==|  0.52270
USER: genes 9 Torsion [N]-C--CA-[N] |==|  0.69973
USER: genes 10 Torsion [N]-CA--C-[N] |==|  0.98594
USER: genes 11 Torsion [C]-N--CA-[C] |==|  0.83244
USER: genes 12 Torsion [N]-CA--C-[N] |==|  0.94814
USER: genes 13 Torsion [C]-N--CA-[C] |==|  0.68613
USER: genes 14 Torsion [N]-CA--C-[O] |==|  0.97098
USER: genes 15 Torsion [N]-CA--CB-[CG] |==|  0.18804
USER: genes 16 Torsion [CA]-CB--CG-[OD1] |==|  0.80706
USER: genes 17 Torsion [N]-CA--CB-[CG] |==|  0.69772
USER: genes 18 Torsion [CA]-CB--CG-[CD2] |==|  0.81850
USER: genes 19 Torsion [N]-CA--CB-[CG] |==|  0.08818
USER: genes 20 Torsion [CA]-CB--CG-[CD2] |==|  0.60041
ROOT
ATOM      1  CA  LEU C   5     -12.414  10.722  20.000  1.00 25.10 LIG 0.18  C 
ENDROOT
BRANCH 1 2
ATOM      2  N   LEU C   5     -12.241  11.199  21.430  1.00 25.35 LIG-0.35  N 
ATOM      3  C   GLY C   4     -12.941  12.280  21.881  1.00 24.95 LIG 0.24  C 
ATOM      4 O    GLY C   4     -13.702  12.896  21.125  1.00 25.89 LIG-0.27  OA
ATOM      5 H    LEU C   5     -11.686  10.743  21.903  1.00 25.35 LIG 0.16  HD
BRANCH 3 6
ATOM      6  CA  GLY C   4     -12.803  12.718  23.298  1.00 25.42 LIG 0.23  C 
BRANCH 6 7
ATOM      7  N   GLY C   4     -12.891  11.695  24.341  1.00 25.00 LIG-0.35  N 
ATOM      8  C   PHE C   3     -13.908  10.801  24.414  1.00 25.70 LIG 0.24  C 
ATOM      9 O    PHE C   3     -14.822  10.751  23.568  1.00 20.17 LIG-0.27  OA
ATOM     10 H    GLY C   4     -12.239  11.714  24.901  1.00 25.00 LIG 0.16  HD
BRANCH 8 11
ATOM     11  CA  PHE C   3     -13.803   9.737  25.505  1.00 26.56 LIG 0.18  C 
BRANCH 11 12
ATOM     12  CB  PHE C   3     -12.880   8.638  25.019  1.00 27.24 LIG 0.07  C 
BRANCH 12 13
ATOM     13  CG  PHE C   3     -11.504   9.088  24.778  1.00 26.12 LIG-0.06  A 
ATOM     14  CD1 PHE C   3     -10.831   9.778  25.773  1.00 28.42 LIG 0.01  A 
ATOM     15  CE1 PHE C   3      -9.505  10.194  25.594  1.00 27.55 LIG 0.00  A 
ATOM     16  CZ  PHE C   3      -8.868  10.006  24.324  1.00 28.40 LIG 0.00  A 
ATOM     17  CE2 PHE C   3      -9.547   9.305  23.311  1.00 22.84 LIG 0.00  A 
ATOM     18  CD2 PHE C   3     -10.885   8.891  23.523  1.00 25.80 LIG 0.01  A 
ENDBRANCH 12 13
ENDBRANCH 11 12
BRANCH 11 19
ATOM     19  N   PHE C   3     -15.128   9.182  25.816  1.00 29.45 LIG-0.35  N 
ATOM     20 H    PHE C   3     -15.761   9.431  25.289  1.00 29.45 LIG 0.16  HD
ATOM     21  C   GLY C   2     -15.282   8.358  26.852  1.00 31.80 LIG 0.25  C 
ATOM     22 O    GLY C   2     -14.367   8.141  27.689  1.00 33.21 LIG-0.27  OA
BRANCH 21 23
ATOM     23  CA  GLY C   2     -16.681   7.770  27.030  1.00 32.25 LIG 0.47  C 
ATOM     24  N   GLY C   2     -17.406   8.352  28.206  1.00 32.96 LIG 0.61  N 
ENDBRANCH 21 23
ENDBRANCH 11 19
ENDBRANCH 8 11
ENDBRANCH 6 7
ENDBRANCH 3 6
ENDBRANCH 1 2
BRANCH 1 25
ATOM     25  C   LEU C   5     -13.742  10.019  19.687  1.00 23.49 LIG 0.24  C 
ATOM     26  N   PHE C   6     -14.572   9.799  20.710  1.00 22.96 LIG-0.35  N 
ATOM     27 H    PHE C   6     -14.425  10.057  21.518  1.00 22.96 LIG 0.16  HD
ATOM     28 O    LEU C   5     -14.056   9.784  18.498  1.00 25.98 LIG-0.27  OA
BRANCH 26 29
ATOM     29  CA  PHE C   6     -15.850   9.069  20.514  1.00 22.19 LIG 0.18  C 
BRANCH 29 30
ATOM     30  C   PHE C   6     -16.837   9.701  19.536  1.00 17.26 LIG 0.24  C 
ATOM     31 O    PHE C   6     -17.721   9.083  19.023  1.00 22.18 LIG-0.27  OA
ATOM     32  N   ASP C   7     -16.643  10.996  19.263  1.00 22.18 LIG-0.35  N 
ATOM     33 H    ASP C   7     -16.019  11.475  19.612  1.00 22.18 LIG 0.16  HD
BRANCH 32 34
ATOM     34  CA  ASP C   7     -17.507  11.717  18.316  1.00 22.70 LIG 0.17  C 
BRANCH 34 35
ATOM     35  C   ASP C   7     -16.813  12.151  17.053  1.00 27.36 LIG 0.22  C 
ATOM     36 O    ASP C   7     -15.566  12.079  16.934  1.00 28.20 LIG-0.29  OA
ENDBRANCH 34 35
BRANCH 34 37
ATOM     37  CB  ASP C   7     -18.072  12.969  19.002  1.00 23.18 LIG 0.15  C 
BRANCH 37 38
ATOM     38  CG  ASP C   7     -17.019  14.012  19.303  1.00 26.80 LIG 0.17  C 
ATOM     39 OD2  ASP C   7     -17.031  15.072  18.602  1.00 27.82 LIG-0.65  OA
ATOM     40 OD1  ASP C   7     -16.162  13.736  20.213  1.00 32.15 LIG-0.65  OA
ENDBRANCH 37 38
ENDBRANCH 34 37
ENDBRANCH 32 34
ENDBRANCH 29 30
BRANCH 29 41
ATOM     41  CB  PHE C   6     -16.527   8.728  21.863  1.00 21.19 LIG 0.07  C 
BRANCH 41 42
ATOM     42  CG  PHE C   6     -16.481   7.280  22.201  1.00 25.43 LIG-0.06  A 
ATOM     43  CD2 PHE C   6     -17.158   6.322  21.433  1.00 26.31 LIG 0.01  A 
ATOM     44  CE2 PHE C   6     -17.034   4.970  21.746  1.00 29.51 LIG 0.00  A 
ATOM     45  CZ  PHE C   6     -16.316   4.556  22.875  1.00 25.82 LIG 0.00  A 
ATOM     46  CE1 PHE C   6     -15.678   5.489  23.647  1.00 26.71 LIG 0.00  A 
ATOM     47  CD1 PHE C   6     -15.780   6.864  23.316  1.00 21.41 LIG 0.01  A 
ENDBRANCH 41 42
ENDBRANCH 29 41
ENDBRANCH 26 29
ENDBRANCH 1 25
BRANCH 1 48
ATOM     48  CB  LEU C   5     -11.248   9.850  19.398  1.00 26.63 LIG 0.04  C 
BRANCH 48 49
ATOM     49  CG  LEU C   5     -10.489   8.974  20.338  1.00 31.82 LIG-0.02  C 
ATOM     50  CD2 LEU C   5      -8.992   8.983  19.854  1.00 33.90 LIG 0.01  C 
ATOM     51  CD1 LEU C   5     -11.062   7.554  20.416  1.00 30.04 LIG 0.01  C 
ENDBRANCH 48 49
ENDBRANCH 1 48
TORSDOF 19
ENDMDL
MODEL 55
USER: ADFR SOLUTION from run 84
USER: SCORE 16.514256 LL:  -6.188 LR: -11.382 RR:   0.000 FEB:  -5.714
USER: RMSD 7.040483
USER: SEED 83
USER: STATUS no improvement in best in 3 clusters for 5 generations
USER: GENES 21
USER: genes 0 Translation |==|  0.65937 0.51699 0.54967
USER: genes 1 Rotation |==|  0.81191 0.61206 0.87265 0.53593
USER: genes 2 Torsion [C]-CA--N-[C] |==|  0.75000
USER: genes 3 Torsion [N]-C--CA-[N] |==|  0.90490
USER: genes 4 Torsion [C]-CA--N-[C] |==|  0.88418
USER: genes 5 Torsion [N]-C--CA-[N] |==|  0.48828
USER: genes 6 Torsion [C]-CA--CB-[CG] |==|  0.78941
USER: genes 7 Torsion [CA]-CB--CG-[CD1] |==|  0.70717
USER: genes 8 Torsion [C]-CA--N-[C] |==|  0.55557
USER: genes 9 Torsion [N]-C--CA-[N] |==|  0.64379
USER: genes 10 Torsion [N]-CA--C-[N] |==|  0.16472
USER: genes 11 Torsion [C]-N--CA-[C] |==|  0.14754
USER: genes 12 Torsion [N]-CA--C-[N] |==|  0.11790
USER: genes 13 Torsion [C]-N--CA-[C] |==|  0.14572
USER: genes 14 Torsion [N]-CA--C-[O] |==|  0.61476
USER: genes 15 Torsion [N]-CA--CB-[CG] |==|  0.84783
USER: genes 16 Torsion [CA]-CB--CG-[OD1] |==|  0.21959
USER: genes 17 Torsion [N]-CA--CB-[CG] |==|  0.74034
USER: genes 18 Torsion [CA]-CB--CG-[CD2] |==|  0.35400
USER: genes 19 Torsion [N]-CA--CB-[CG] |==|  0.82455
USER: genes 20 Torsion [CA]-CB--CG-[CD2] |==|  0.33243
ROOT
ATOM      1  CA  LEU C   5     -11.947   8.324  23.667  1.00 25.10 LIG 0.18  C 
ENDROOT
BRANCH 1 2
ATOM      2  N   LEU C   5     -11.529   8.810  22.292  1.00 25.35 LIG-0.35  N 
ATOM      3  C   GLY C   4     -11.098   7.920  21.352  1.00 24.95 LIG 0.24  C 
ATOM      4 O    GLY C   4     -11.019   6.715  21.618  1.00 25.89 LIG-0.27  OA
ATOM      5 H    LEU C   5     -11.589   9.659  22.171  1.00 25.35 LIG 0.16  HD
BRANCH 3 6
ATOM      6  CA  GLY C   4     -10.732   8.395  19.989  1.00 25.42 LIG 0.23  C 
BRANCH 6 7
ATOM      7  N   GLY C   4     -11.489   9.515  19.429  1.00 25.00 LIG-0.35  N 
ATOM      8  C   PHE C   3     -12.834   9.630  19.553  1.00 25.70 LIG 0.24  C 
ATOM      9 O    PHE C   3     -13.524   8.816  20.196  1.00 20.17 LIG-0.27  OA
ATOM     10 H    GLY C   4     -11.002  10.091  19.017  1.00 25.00 LIG 0.16  HD
BRANCH 8 11
ATOM     11  CA  PHE C   3     -13.461  10.907  18.996  1.00 26.56 LIG 0.18  C 
BRANCH 11 12
ATOM     12  CB  PHE C   3     -12.924  12.089  19.778  1.00 27.24 LIG 0.07  C 
BRANCH 12 13
ATOM     13  CG  PHE C   3     -13.518  12.230  21.113  1.00 26.12 LIG-0.06  A 
ATOM     14  CD1 PHE C   3     -14.450  13.230  21.340  1.00 28.42 LIG 0.01  A 
ATOM     15  CE1 PHE C   3     -15.066  13.374  22.591  1.00 27.55 LIG 0.00  A 
ATOM     16  CZ  PHE C   3     -14.646  12.551  23.686  1.00 28.40 LIG 0.00  A 
ATOM     17  CE2 PHE C   3     -13.701  11.533  23.461  1.00 22.84 LIG 0.00  A 
ATOM     18  CD2 PHE C   3     -13.101  11.408  22.183  1.00 25.80 LIG 0.01  A 
ENDBRANCH 12 13
ENDBRANCH 11 12
BRANCH 11 19
ATOM     19  N   PHE C   3     -14.926  10.855  19.106  1.00 29.45 LIG-0.35  N 
ATOM     20 H    PHE C   3     -15.229  10.290  19.680  1.00 29.45 LIG 0.16  HD
ATOM     21  C   GLY C   2     -15.684  11.646  18.347  1.00 31.80 LIG 0.25  C 
ATOM     22 O    GLY C   2     -15.211  12.345  17.412  1.00 33.21 LIG-0.27  OA
BRANCH 21 23
ATOM     23  CA  GLY C   2     -17.188  11.574  18.606  1.00 32.25 LIG 0.47  C 
ATOM     24  N   GLY C   2     -17.978  11.338  17.354  1.00 32.96 LIG 0.61  N 
ENDBRANCH 21 23
ENDBRANCH 11 19
ENDBRANCH 8 11
ENDBRANCH 6 7
ENDBRANCH 3 6
ENDBRANCH 1 2
BRANCH 1 25
ATOM     25  C   LEU C   5     -13.429   7.955  23.822  1.00 23.49 LIG 0.24  C 
ATOM     26  N   PHE C   6     -13.905   6.993  23.028  1.00 22.96 LIG-0.35  N 
ATOM     27 H    PHE C   6     -13.429   6.548  22.466  1.00 22.96 LIG 0.16  HD
ATOM     28 O    LEU C   5     -14.104   8.467  24.745  1.00 25.98 LIG-0.27  OA
BRANCH 26 29
ATOM     29  CA  PHE C   6     -15.340   6.615  23.062  1.00 22.19 LIG 0.18  C 
BRANCH 29 30
ATOM     30  C   PHE C   6     -16.336   7.758  22.886  1.00 17.26 LIG 0.24  C 
ATOM     31 O    PHE C   6     -17.339   7.845  23.531  1.00 22.18 LIG-0.27  OA
ATOM     32  N   ASP C   7     -16.036   8.657  21.942  1.00 22.18 LIG-0.35  N 
ATOM     33 H    ASP C   7     -15.325   8.630  21.458  1.00 22.18 LIG 0.16  HD
BRANCH 32 34
ATOM     34  CA  ASP C   7     -16.927   9.791  21.654  1.00 22.70 LIG 0.17  C 
BRANCH 34 35
ATOM     35  C   ASP C   7     -17.303  10.604  22.864  1.00 27.36 LIG 0.22  C 
ATOM     36 O    ASP C   7     -18.473  11.026  23.030  1.00 28.20 LIG-0.29  OA
ENDBRANCH 34 35
BRANCH 34 37
ATOM     37  CB  ASP C   7     -18.219   9.267  21.013  1.00 23.18 LIG 0.15  C 
BRANCH 37 38
ATOM     38  CG  ASP C   7     -17.977   8.419  19.785  1.00 26.80 LIG 0.17  C 
ATOM     39 OD2  ASP C   7     -18.191   8.957  18.654  1.00 27.82 LIG-0.65  OA
ATOM     40 OD1  ASP C   7     -17.617   7.204  19.971  1.00 32.15 LIG-0.65  OA
ENDBRANCH 37 38
ENDBRANCH 34 37
ENDBRANCH 32 34
ENDBRANCH 29 30
BRANCH 29 41
ATOM     41  CB  PHE C   6     -15.675   5.757  24.307  1.00 21.19 LIG 0.07  C 
BRANCH 41 42
ATOM     42  CG  PHE C   6     -15.602   4.293  24.055  1.00 25.43 LIG-0.06  A 
ATOM     43  CD2 PHE C   6     -14.838   3.442  24.868  1.00 26.31 LIG 0.01  A 
ATOM     44  CE2 PHE C   6     -14.850   2.069  24.637  1.00 29.51 LIG 0.00  A 
ATOM     45  CZ  PHE C   6     -15.542   1.529  23.545  1.00 25.82 LIG 0.00  A 
ATOM     46  CE1 PHE C   6     -16.265   2.358  22.729  1.00 26.71 LIG 0.00  A 
ATOM     47  CD1 PHE C   6     -16.276   3.754  22.977  1.00 21.41 LIG 0.01  A 
ENDBRANCH 41 42
ENDBRANCH 29 41
ENDBRANCH 26 29
ENDBRANCH 1 25
BRANCH 1 48
ATOM     48  CB  LEU C   5     -11.539   9.226  24.892  1.00 26.63 LIG 0.04  C 
BRANCH 48 49
ATOM     49  CG  LEU C   5     -10.081   9.413  25.153  1.00 31.82 LIG-0.02  C 
ATOM     50  CD2 LEU C   5      -9.796  10.955  25.040  1.00 33.90 LIG 0.01  C 
ATOM     51  CD1 LEU C   5      -9.200   8.592  24.203  1.00 30.04 LIG 0.01  C 
ENDBRANCH 48 49
ENDBRANCH 1 48
TORSDOF 19
ENDMDL
MODEL 56
USER: ADFR SOLUTION from run 76
USER: SCORE 14.537840 LL:  -4.300 LR: -11.368 RR:   0.000 FEB:  -5.700
USER: RMSD 7.407550
USER: SEED 75
USER: STATUS no improvement in best in 15 clusters for 5 generations
USER: GENES 21
USER: genes 0 Translation |==|  0.67446 0.52549 0.33795
USER: genes 1 Rotation |==|  0.02769 0.61840 0.42256 0.58308
USER: genes 2 Torsion [C]-CA--N-[C] |==|  0.80552
USER: genes 3 Torsion [N]-C--CA-[N] |==|  0.51724
USER: genes 4 Torsion [C]-CA--N-[C] |==|  0.73513
USER: genes 5 Torsion [N]-C--CA-[N] |==|  0.39232
USER: genes 6 Torsion [C]-CA--CB-[CG] |==|  0.37793
USER: genes 7 Torsion [CA]-CB--CG-[CD1] |==|  0.37021
USER: genes 8 Torsion [C]-CA--N-[C] |==|  0.81730
USER: genes 9 Torsion [N]-C--CA-[N] |==|  0.89732
USER: genes 10 Torsion [N]-CA--C-[N] |==|  0.05758
USER: genes 11 Torsion [C]-N--CA-[C] |==|  0.67418
USER: genes 12 Torsion [N]-CA--C-[N] |==|  0.99667
USER: genes 13 Torsion [C]-N--CA-[C] |==|  0.71662
USER: genes 14 Torsion [N]-CA--C-[O] |==|  0.20962
USER: genes 15 Torsion [N]-CA--CB-[CG] |==|  0.22877
USER: genes 16 Torsion [CA]-CB--CG-[OD1] |==|  0.23535
USER: genes 17 Torsion [N]-CA--CB-[CG] |==|  0.82934
USER: genes 18 Torsion [CA]-CB--CG-[CD2] |==|  0.41786
USER: genes 19 Torsion [N]-CA--CB-[CG] |==|  0.08290
USER: genes 20 Torsion [CA]-CB--CG-[CD2] |==|  0.50177
ROOT
ATOM      1  CA  LEU C   5     -11.676   8.508  19.856  1.00 25.10 LIG 0.18  C 
ENDROOT
BRANCH 1 2
ATOM      2  N   LEU C   5     -12.124   9.945  19.661  1.00 25.35 LIG-0.35  N 
ATOM      3  C   GLY C   4     -13.450  10.237  19.528  1.00 24.95 LIG 0.24  C 
ATOM      4 O    GLY C   4     -14.296   9.335  19.540  1.00 25.89 LIG-0.27  OA
ATOM      5 H    LEU C   5     -11.490  10.526  19.644  1.00 25.35 LIG 0.16  HD
BRANCH 3 6
ATOM      6  CA  GLY C   4     -13.890  11.653  19.382  1.00 25.42 LIG 0.23  C 
BRANCH 6 7
ATOM      7  N   GLY C   4     -15.327  11.924  19.383  1.00 25.00 LIG-0.35  N 
ATOM      8  C   PHE C   3     -16.056  12.041  18.245  1.00 25.70 LIG 0.24  C 
ATOM      9 O    PHE C   3     -15.566  11.877  17.112  1.00 20.17 LIG-0.27  OA
ATOM     10 H    GLY C   4     -15.666  12.002  20.169  1.00 25.00 LIG 0.16  HD
BRANCH 8 11
ATOM     11  CA  PHE C   3     -17.563  12.230  18.418  1.00 26.56 LIG 0.18  C 
BRANCH 11 12
ATOM     12  CB  PHE C   3     -18.240  10.885  18.246  1.00 27.24 LIG 0.07  C 
BRANCH 12 13
ATOM     13  CG  PHE C   3     -19.279  10.618  19.248  1.00 26.12 LIG-0.06  A 
ATOM     14  CD1 PHE C   3     -20.509  10.128  18.838  1.00 28.42 LIG 0.01  A 
ATOM     15  CE1 PHE C   3     -21.514   9.828  19.766  1.00 27.55 LIG 0.00  A 
ATOM     16  CZ  PHE C   3     -21.314  10.135  21.151  1.00 28.40 LIG 0.00  A 
ATOM     17  CE2 PHE C   3     -20.067  10.630  21.574  1.00 22.84 LIG 0.00  A 
ATOM     18  CD2 PHE C   3     -19.067  10.919  20.612  1.00 25.80 LIG 0.01  A 
ENDBRANCH 12 13
ENDBRANCH 11 12
BRANCH 11 19
ATOM     19  N   PHE C   3     -18.081  13.185  17.430  1.00 29.45 LIG-0.35  N 
ATOM     20 H    PHE C   3     -18.624  12.853  16.850  1.00 29.45 LIG 0.16  HD
ATOM     21  C   GLY C   2     -17.707  14.464  17.472  1.00 31.80 LIG 0.25  C 
ATOM     22 O    GLY C   2     -16.796  14.878  18.237  1.00 33.21 LIG-0.27  OA
BRANCH 21 23
ATOM     23  CA  GLY C   2     -18.376  15.386  16.455  1.00 32.25 LIG 0.47  C 
ATOM     24  N   GLY C   2     -18.598  14.720  15.131  1.00 32.96 LIG 0.61  N 
ENDBRANCH 21 23
ENDBRANCH 11 19
ENDBRANCH 8 11
ENDBRANCH 6 7
ENDBRANCH 3 6
ENDBRANCH 1 2
BRANCH 1 25
ATOM     25  C   LEU C   5     -12.026   7.879  21.212  1.00 23.49 LIG 0.24  C 
ATOM     26  N   PHE C   6     -13.017   8.441  21.908  1.00 22.96 LIG-0.35  N 
ATOM     27 H    PHE C   6     -13.490   9.103  21.630  1.00 22.96 LIG 0.16  HD
ATOM     28 O    LEU C   5     -11.469   6.814  21.565  1.00 25.98 LIG-0.27  OA
BRANCH 26 29
ATOM     29  CA  PHE C   6     -13.382   7.939  23.257  1.00 22.19 LIG 0.18  C 
BRANCH 29 30
ATOM     30  C   PHE C   6     -14.792   7.373  23.400  1.00 17.26 LIG 0.24  C 
ATOM     31 O    PHE C   6     -15.196   6.901  24.420  1.00 22.18 LIG-0.27  OA
ATOM     32  N   ASP C   7     -15.555   7.413  22.301  1.00 22.18 LIG-0.35  N 
ATOM     33 H    ASP C   7     -15.300   7.745  21.549  1.00 22.18 LIG 0.16  HD
BRANCH 32 34
ATOM     34  CA  ASP C   7     -16.923   6.874  22.298  1.00 22.70 LIG 0.17  C 
BRANCH 34 35
ATOM     35  C   ASP C   7     -17.053   5.521  21.651  1.00 27.36 LIG 0.22  C 
ATOM     36 O    ASP C   7     -16.669   4.478  22.233  1.00 28.20 LIG-0.29  OA
ENDBRANCH 34 35
BRANCH 34 37
ATOM     37  CB  ASP C   7     -17.846   7.848  21.552  1.00 23.18 LIG 0.15  C 
BRANCH 37 38
ATOM     38  CG  ASP C   7     -17.802   7.682  20.050  1.00 26.80 LIG 0.17  C 
ATOM     39 OD2  ASP C   7     -17.051   8.474  19.398  1.00 27.82 LIG-0.65  OA
ATOM     40 OD1  ASP C   7     -18.558   6.786  19.535  1.00 32.15 LIG-0.65  OA
ENDBRANCH 37 38
ENDBRANCH 34 37
ENDBRANCH 32 34
ENDBRANCH 29 30
BRANCH 29 41
ATOM     41  CB  PHE C   6     -13.076   8.985  24.357  1.00 21.19 LIG 0.07  C 
BRANCH 41 42
ATOM     42  CG  PHE C   6     -11.635   9.341  24.452  1.00 25.43 LIG-0.06  A 
ATOM     43  CD2 PHE C   6     -11.215  10.607  24.885  1.00 26.31 LIG 0.01  A 
ATOM     44  CE2 PHE C   6      -9.856  10.876  25.023  1.00 29.51 LIG 0.00  A 
ATOM     45  CZ  PHE C   6      -8.893   9.930  24.648  1.00 25.82 LIG 0.00  A 
ATOM     46  CE1 PHE C   6      -9.297   8.702  24.195  1.00 26.71 LIG 0.00  A 
ATOM     47  CD1 PHE C   6     -10.681   8.416  24.078  1.00 21.41 LIG 0.01  A 
ENDBRANCH 41 42
ENDBRANCH 29 41
ENDBRANCH 26 29
ENDBRANCH 1 25
BRANCH 1 48
ATOM     48  CB  LEU C   5     -10.164   8.190  19.547  1.00 26.63 LIG 0.04  C 
BRANCH 48 49
ATOM     49  CG  LEU C   5      -9.173   9.285  19.759  1.00 31.82 LIG-0.02  C 
ATOM     50  CD2 LEU C   5      -7.766   8.704  19.362  1.00 33.90 LIG 0.01  C 
ATOM     51  CD1 LEU C   5      -9.190   9.829  21.193  1.00 30.04 LIG 0.01  C 
ENDBRANCH 48 49
ENDBRANCH 1 48
TORSDOF 19
ENDMDL
MODEL 57
USER: ADFR SOLUTION from run 184
USER: SCORE 14.937620 LL:  -4.045 LR: -11.345 RR:   0.000 FEB:  -5.678
USER: RMSD 5.476442
USER: SEED 183
USER: STATUS no improvement in best in 10 clusters for 5 generations
USER: GENES 21
USER: genes 0 Translation |==|  0.60717 0.56118 0.58376
USER: genes 1 Rotation |==|  0.50907 0.59297 0.42125 0.98484
USER: genes 2 Torsion [C]-CA--N-[C] |==|  0.64092
USER: genes 3 Torsion [N]-C--CA-[N] |==|  0.04837
USER: genes 4 Torsion [C]-CA--N-[C] |==|  0.15212
USER: genes 5 Torsion [N]-C--CA-[N] |==|  0.92483
USER: genes 6 Torsion [C]-CA--CB-[CG] |==|  0.43970
USER: genes 7 Torsion [CA]-CB--CG-[CD1] |==|  0.45432
USER: genes 8 Torsion [C]-CA--N-[C] |==|  0.81116
USER: genes 9 Torsion [N]-C--CA-[N] |==|  0.46453
USER: genes 10 Torsion [N]-CA--C-[N] |==|  0.36520
USER: genes 11 Torsion [C]-N--CA-[C] |==|  0.80649
USER: genes 12 Torsion [N]-CA--C-[N] |==|  0.92187
USER: genes 13 Torsion [C]-N--CA-[C] |==|  0.75315
USER: genes 14 Torsion [N]-CA--C-[O] |==|  0.97174
USER: genes 15 Torsion [N]-CA--CB-[CG] |==|  0.54480
USER: genes 16 Torsion [CA]-CB--CG-[OD1] |==|  0.65348
USER: genes 17 Torsion [N]-CA--CB-[CG] |==|  0.93001
USER: genes 18 Torsion [CA]-CB--CG-[CD2] |==|  0.85185
USER: genes 19 Torsion [N]-CA--CB-[CG] |==|  0.59272
USER: genes 20 Torsion [CA]-CB--CG-[CD2] |==|  0.04932
ROOT
ATOM      1  CA  LEU C   5     -12.887   9.285  24.281  1.00 25.10 LIG 0.18  C 
ENDROOT
BRANCH 1 2
ATOM      2  N   LEU C   5     -14.056   8.695  25.048  1.00 25.35 LIG-0.35  N 
ATOM      3  C   GLY C   4     -14.518   9.312  26.173  1.00 24.95 LIG 0.24  C 
ATOM      4 O    GLY C   4     -13.975  10.340  26.594  1.00 25.89 LIG-0.27  OA
ATOM      5 H    LEU C   5     -14.381   7.970  24.718  1.00 25.35 LIG 0.16  HD
BRANCH 3 6
ATOM      6  CA  GLY C   4     -15.694   8.755  26.898  1.00 25.42 LIG 0.23  C 
BRANCH 6 7
ATOM      7  N   GLY C   4     -16.077   7.371  26.618  1.00 25.00 LIG-0.35  N 
ATOM      8  C   PHE C   3     -15.215   6.330  26.731  1.00 25.70 LIG 0.24  C 
ATOM      9 O    PHE C   3     -14.043   6.467  27.130  1.00 20.17 LIG-0.27  OA
ATOM     10 H    GLY C   4     -16.897   7.280  26.376  1.00 25.00 LIG 0.16  HD
BRANCH 8 11
ATOM     11  CA  PHE C   3     -15.796   4.937  26.495  1.00 26.56 LIG 0.18  C 
BRANCH 11 12
ATOM     12  CB  PHE C   3     -15.584   4.565  25.041  1.00 27.24 LIG 0.07  C 
BRANCH 12 13
ATOM     13  CG  PHE C   3     -15.623   3.119  24.793  1.00 26.12 LIG-0.06  A 
ATOM     14  CD1 PHE C   3     -15.788   2.656  23.497  1.00 28.42 LIG 0.01  A 
ATOM     15  CE1 PHE C   3     -15.796   1.283  23.214  1.00 27.55 LIG 0.00  A 
ATOM     16  CZ  PHE C   3     -15.745   0.339  24.290  1.00 28.40 LIG 0.00  A 
ATOM     17  CE2 PHE C   3     -15.576   0.802  25.608  1.00 22.84 LIG 0.00  A 
ATOM     18  CD2 PHE C   3     -15.566   2.196  25.862  1.00 25.80 LIG 0.01  A 
ENDBRANCH 12 13
ENDBRANCH 11 12
BRANCH 11 19
ATOM     19  N   PHE C   3     -17.230   4.914  26.817  1.00 29.45 LIG-0.35  N 
ATOM     20 H    PHE C   3     -17.754   4.805  26.143  1.00 29.45 LIG 0.16  HD
ATOM     21  C   GLY C   2     -17.636   5.054  28.078  1.00 31.80 LIG 0.25  C 
ATOM     22 O    GLY C   2     -16.851   5.364  29.013  1.00 33.21 LIG-0.27  OA
BRANCH 21 23
ATOM     23  CA  GLY C   2     -19.141   4.925  28.311  1.00 32.25 LIG 0.47  C 
ATOM     24  N   GLY C   2     -19.491   4.789  29.762  1.00 32.96 LIG 0.61  N 
ENDBRANCH 21 23
ENDBRANCH 11 19
ENDBRANCH 8 11
ENDBRANCH 6 7
ENDBRANCH 3 6
ENDBRANCH 1 2
BRANCH 1 25
ATOM     25  C   LEU C   5     -13.102   9.464  22.771  1.00 23.49 LIG 0.24  C 
ATOM     26  N   PHE C   6     -12.781  10.648  22.246  1.00 22.96 LIG-0.35  N 
ATOM     27 H    PHE C   6     -12.431  11.297  22.689  1.00 22.96 LIG 0.16  HD
ATOM     28 O    LEU C   5     -13.450   8.484  22.073  1.00 25.98 LIG-0.27  OA
BRANCH 26 29
ATOM     29  CA  PHE C   6     -13.015  10.934  20.807  1.00 22.19 LIG 0.18  C 
BRANCH 29 30
ATOM     30  C   PHE C   6     -12.124  10.181  19.824  1.00 17.26 LIG 0.24  C 
ATOM     31 O    PHE C   6     -12.480   9.896  18.719  1.00 22.18 LIG-0.27  OA
ATOM     32  N   ASP C   7     -10.914   9.831  20.277  1.00 22.18 LIG-0.35  N 
ATOM     33 H    ASP C   7     -10.622  10.019  21.064  1.00 22.18 LIG 0.16  HD
BRANCH 32 34
ATOM     34  CA  ASP C   7      -9.970   9.079  19.438  1.00 22.70 LIG 0.17  C 
BRANCH 34 35
ATOM     35  C   ASP C   7     -10.110   7.584  19.539  1.00 27.36 LIG 0.22  C 
ATOM     36 O    ASP C   7     -10.832   7.052  20.417  1.00 28.20 LIG-0.29  OA
ENDBRANCH 34 35
BRANCH 34 37
ATOM     37  CB  ASP C   7      -8.535   9.449  19.837  1.00 23.18 LIG 0.15  C 
BRANCH 37 38
ATOM     38  CG  ASP C   7      -7.504   9.046  18.808  1.00 26.80 LIG 0.17  C 
ATOM     39 OD2  ASP C   7      -7.691   9.432  17.612  1.00 27.82 LIG-0.65  OA
ATOM     40 OD1  ASP C   7      -6.537   8.305  19.204  1.00 32.15 LIG-0.65  OA
ENDBRANCH 37 38
ENDBRANCH 34 37
ENDBRANCH 32 34
ENDBRANCH 29 30
BRANCH 29 41
ATOM     41  CB  PHE C   6     -13.020  12.455  20.520  1.00 21.19 LIG 0.07  C 
BRANCH 41 42
ATOM     42  CG  PHE C   6     -13.386  13.280  21.701  1.00 25.43 LIG-0.06  A 
ATOM     43  CD2 PHE C   6     -14.564  13.048  22.427  1.00 26.31 LIG 0.01  A 
ATOM     44  CE2 PHE C   6     -14.835  13.802  23.566  1.00 29.51 LIG 0.00  A 
ATOM     45  CZ  PHE C   6     -13.994  14.855  23.950  1.00 25.82 LIG 0.00  A 
ATOM     46  CE1 PHE C   6     -12.859  15.107  23.228  1.00 26.71 LIG 0.00  A 
ATOM     47  CD1 PHE C   6     -12.566  14.324  22.082  1.00 21.41 LIG 0.01  A 
ENDBRANCH 41 42
ENDBRANCH 29 41
ENDBRANCH 26 29
ENDBRANCH 1 25
BRANCH 1 48
ATOM     48  CB  LEU C   5     -11.483   8.604  24.496  1.00 26.63 LIG 0.04  C 
BRANCH 48 49
ATOM     49  CG  LEU C   5     -10.277   9.483  24.442  1.00 31.82 LIG-0.02  C 
ATOM     50  CD2 LEU C   5     -10.785  10.959  24.630  1.00 33.90 LIG 0.01  C 
ATOM     51  CD1 LEU C   5      -9.476   9.309  23.145  1.00 30.04 LIG 0.01  C 
ENDBRANCH 48 49
ENDBRANCH 1 48
TORSDOF 19
ENDMDL
MODEL 58
USER: ADFR SOLUTION from run 175
USER: SCORE 15.072120 LL:  -5.446 LR: -11.336 RR:   0.000 FEB:  -5.668
USER: RMSD 4.797155
USER: SEED 174
USER: STATUS no improvement in best in 10 clusters for 5 generations
USER: GENES 21
USER: genes 0 Translation |==|  0.68814 0.59018 0.40590
USER: genes 1 Rotation |==|  0.54666 0.82044 0.26411 0.79916
USER: genes 2 Torsion [C]-CA--N-[C] |==|  0.62910
USER: genes 3 Torsion [N]-C--CA-[N] |==|  0.04088
USER: genes 4 Torsion [C]-CA--N-[C] |==|  0.76070
USER: genes 5 Torsion [N]-C--CA-[N] |==|  0.29785
USER: genes 6 Torsion [C]-CA--CB-[CG] |==|  0.20629
USER: genes 7 Torsion [CA]-CB--CG-[CD1] |==|  0.48750
USER: genes 8 Torsion [C]-CA--N-[C] |==|  0.72310
USER: genes 9 Torsion [N]-C--CA-[N] |==|  0.20588
USER: genes 10 Torsion [N]-CA--C-[N] |==|  0.87838
USER: genes 11 Torsion [C]-N--CA-[C] |==|  0.17778
USER: genes 12 Torsion [N]-CA--C-[N] |==|  0.49355
USER: genes 13 Torsion [C]-N--CA-[C] |==|  0.66354
USER: genes 14 Torsion [N]-CA--C-[O] |==|  0.26156
USER: genes 15 Torsion [N]-CA--CB-[CG] |==|  0.94138
USER: genes 16 Torsion [CA]-CB--CG-[OD1] |==|  0.79757
USER: genes 17 Torsion [N]-CA--CB-[CG] |==|  0.87612
USER: genes 18 Torsion [CA]-CB--CG-[CD2] |==|  0.83680
USER: genes 19 Torsion [N]-CA--CB-[CG] |==|  0.83111
USER: genes 20 Torsion [CA]-CB--CG-[CD2] |==|  0.20500
ROOT
ATOM      1  CA  LEU C   5     -11.430   9.915  21.079  1.00 25.10 LIG 0.18  C 
ENDROOT
BRANCH 1 2
ATOM      2  N   LEU C   5     -11.532   9.660  22.572  1.00 25.35 LIG-0.35  N 
ATOM      3  C   GLY C   4     -10.408   9.653  23.344  1.00 24.95 LIG 0.24  C 
ATOM      4 O    GLY C   4      -9.294   9.829  22.835  1.00 25.89 LIG-0.27  OA
ATOM      5 H    LEU C   5     -12.329   9.527  22.866  1.00 25.35 LIG 0.16  HD
BRANCH 3 6
ATOM      6  CA  GLY C   4     -10.516   9.447  24.816  1.00 25.42 LIG 0.23  C 
BRANCH 6 7
ATOM      7  N   GLY C   4     -11.782   8.935  25.342  1.00 25.00 LIG-0.35  N 
ATOM      8  C   PHE C   3     -12.828   9.738  25.657  1.00 25.70 LIG 0.24  C 
ATOM      9 O    PHE C   3     -12.809  10.970  25.476  1.00 20.17 LIG-0.27  OA
ATOM     10 H    GLY C   4     -11.800   8.080  25.432  1.00 25.00 LIG 0.16  HD
BRANCH 8 11
ATOM     11  CA  PHE C   3     -14.111   9.039  26.104  1.00 26.56 LIG 0.18  C 
BRANCH 11 12
ATOM     12  CB  PHE C   3     -15.277   9.636  25.340  1.00 27.24 LIG 0.07  C 
BRANCH 12 13
ATOM     13  CG  PHE C   3     -15.342   9.207  23.938  1.00 26.12 LIG-0.06  A 
ATOM     14  CD1 PHE C   3     -16.413   9.607  23.154  1.00 28.42 LIG 0.01  A 
ATOM     15  CE1 PHE C   3     -16.494   9.247  21.802  1.00 27.55 LIG 0.00  A 
ATOM     16  CZ  PHE C   3     -15.516   8.361  21.245  1.00 28.40 LIG 0.00  A 
ATOM     17  CE2 PHE C   3     -14.425   7.953  22.036  1.00 22.84 LIG 0.00  A 
ATOM     18  CD2 PHE C   3     -14.367   8.338  23.398  1.00 25.80 LIG 0.01  A 
ENDBRANCH 12 13
ENDBRANCH 11 12
BRANCH 11 19
ATOM     19  N   PHE C   3     -14.317   9.209  27.549  1.00 29.45 LIG-0.35  N 
ATOM     20 H    PHE C   3     -14.654   9.965  27.784  1.00 29.45 LIG 0.16  HD
ATOM     21  C   GLY C   2     -13.988   8.230  28.392  1.00 31.80 LIG 0.25  C 
ATOM     22 O    GLY C   2     -13.357   7.204  28.026  1.00 33.21 LIG-0.27  OA
BRANCH 21 23
ATOM     23  CA  GLY C   2     -14.327   8.477  29.861  1.00 32.25 LIG 0.47  C 
ATOM     24  N   GLY C   2     -15.793   8.350  30.144  1.00 32.96 LIG 0.61  N 
ENDBRANCH 21 23
ENDBRANCH 11 19
ENDBRANCH 8 11
ENDBRANCH 6 7
ENDBRANCH 3 6
ENDBRANCH 1 2
BRANCH 1 25
ATOM     25  C   LEU C   5     -12.434  10.924  20.505  1.00 23.49 LIG 0.24  C 
ATOM     26  N   PHE C   6     -13.700  10.826  20.917  1.00 22.96 LIG-0.35  N 
ATOM     27 H    PHE C   6     -13.977  10.263  21.506  1.00 22.96 LIG 0.16  HD
ATOM     28 O    LEU C   5     -12.029  11.859  19.777  1.00 25.98 LIG-0.27  OA
BRANCH 26 29
ATOM     29  CA  PHE C   6     -14.753  11.717  20.367  1.00 22.19 LIG 0.18  C 
BRANCH 29 30
ATOM     30  C   PHE C   6     -15.044  11.565  18.877  1.00 17.26 LIG 0.24  C 
ATOM     31 O    PHE C   6     -14.426  10.824  18.172  1.00 22.18 LIG-0.27  OA
ATOM     32  N   ASP C   7     -16.026  12.333  18.390  1.00 22.18 LIG-0.35  N 
ATOM     33 H    ASP C   7     -16.493  12.877  18.865  1.00 22.18 LIG 0.16  HD
BRANCH 32 34
ATOM     34  CA  ASP C   7     -16.387  12.302  16.965  1.00 22.70 LIG 0.17  C 
BRANCH 34 35
ATOM     35  C   ASP C   7     -16.266  13.631  16.268  1.00 27.36 LIG 0.22  C 
ATOM     36 O    ASP C   7     -15.224  13.952  15.647  1.00 28.20 LIG-0.29  OA
ENDBRANCH 34 35
BRANCH 34 37
ATOM     37  CB  ASP C   7     -17.838  11.823  16.823  1.00 23.18 LIG 0.15  C 
BRANCH 37 38
ATOM     38  CG  ASP C   7     -18.334  11.051  18.025  1.00 26.80 LIG 0.17  C 
ATOM     39 OD2  ASP C   7     -19.133  11.648  18.813  1.00 27.82 LIG-0.65  OA
ATOM     40 OD1  ASP C   7     -17.879   9.866  18.191  1.00 32.15 LIG-0.65  OA
ENDBRANCH 37 38
ENDBRANCH 34 37
ENDBRANCH 32 34
ENDBRANCH 29 30
BRANCH 29 41
ATOM     41  CB  PHE C   6     -14.506  13.197  20.750  1.00 21.19 LIG 0.07  C 
BRANCH 41 42
ATOM     42  CG  PHE C   6     -14.127  13.386  22.175  1.00 25.43 LIG-0.06  A 
ATOM     43  CD2 PHE C   6     -14.962  12.969  23.222  1.00 26.31 LIG 0.01  A 
ATOM     44  CE2 PHE C   6     -14.538  13.105  24.542  1.00 29.51 LIG 0.00  A 
ATOM     45  CZ  PHE C   6     -13.327  13.738  24.848  1.00 25.82 LIG 0.00  A 
ATOM     46  CE1 PHE C   6     -12.522  14.176  23.831  1.00 26.71 LIG 0.00  A 
ATOM     47  CD1 PHE C   6     -12.938  14.015  22.485  1.00 21.41 LIG 0.01  A 
ENDBRANCH 41 42
ENDBRANCH 29 41
ENDBRANCH 26 29
ENDBRANCH 1 25
BRANCH 1 48
ATOM     48  CB  LEU C   5     -11.421   8.649  20.143  1.00 26.63 LIG 0.04  C 
BRANCH 48 49
ATOM     49  CG  LEU C   5     -10.311   7.667  20.323  1.00 31.82 LIG-0.02  C 
ATOM     50  CD2 LEU C   5     -10.611   6.886  21.654  1.00 33.90 LIG 0.01  C 
ATOM     51  CD1 LEU C   5      -8.930   8.333  20.343  1.00 30.04 LIG 0.01  C 
ENDBRANCH 48 49
ENDBRANCH 1 48
TORSDOF 19
ENDMDL
MODEL 59
USER: ADFR SOLUTION from run 126
USER: SCORE 14.844021 LL:  -5.234 LR: -11.329 RR:   0.000 FEB:  -5.661
USER: RMSD 5.789631
USER: SEED 125
USER: STATUS no improvement in best in 16 clusters for 5 generations
USER: GENES 21
USER: genes 0 Translation |==|  0.67550 0.58053 0.38121
USER: genes 1 Rotation |==|  0.34107 0.81174 0.44329 0.85262
USER: genes 2 Torsion [C]-CA--N-[C] |==|  0.16701
USER: genes 3 Torsion [N]-C--CA-[N] |==|  0.19662
USER: genes 4 Torsion [C]-CA--N-[C] |==|  0.14586
USER: genes 5 Torsion [N]-C--CA-[N] |==|  0.81887
USER: genes 6 Torsion [C]-CA--CB-[CG] |==|  0.11213
USER: genes 7 Torsion [CA]-CB--CG-[CD1] |==|  0.66665
USER: genes 8 Torsion [C]-CA--N-[C] |==|  0.62778
USER: genes 9 Torsion [N]-C--CA-[N] |==|  0.46094
USER: genes 10 Torsion [N]-CA--C-[N] |==|  0.02427
USER: genes 11 Torsion [C]-N--CA-[C] |==|  0.83631
USER: genes 12 Torsion [N]-CA--C-[N] |==|  0.91800
USER: genes 13 Torsion [C]-N--CA-[C] |==|  0.71051
USER: genes 14 Torsion [N]-CA--C-[O] |==|  0.00855
USER: genes 15 Torsion [N]-CA--CB-[CG] |==|  0.29886
USER: genes 16 Torsion [CA]-CB--CG-[OD1] |==|  0.77278
USER: genes 17 Torsion [N]-CA--CB-[CG] |==|  0.68601
USER: genes 18 Torsion [CA]-CB--CG-[CD2] |==|  0.81680
USER: genes 19 Torsion [N]-CA--CB-[CG] |==|  0.90370
USER: genes 20 Torsion [CA]-CB--CG-[CD2] |==|  0.53897
ROOT
ATOM      1  CA  LEU C   5     -11.657   9.706  20.635  1.00 25.10 LIG 0.18  C 
ENDROOT
BRANCH 1 2
ATOM      2  N   LEU C   5     -11.321   9.718  22.114  1.00 25.35 LIG-0.35  N 
ATOM      3  C   GLY C   4     -11.322   8.554  22.827  1.00 24.95 LIG 0.24  C 
ATOM      4 O    GLY C   4     -11.622   7.485  22.283  1.00 25.89 LIG-0.27  OA
ATOM      5 H    LEU C   5     -11.138  10.492  22.441  1.00 25.35 LIG 0.16  HD
BRANCH 3 6
ATOM      6  CA  GLY C   4     -10.948   8.563  24.269  1.00 25.42 LIG 0.23  C 
BRANCH 6 7
ATOM      7  N   GLY C   4     -11.883   9.175  25.213  1.00 25.00 LIG-0.35  N 
ATOM      8  C   PHE C   3     -13.194   8.835  25.279  1.00 25.70 LIG 0.24  C 
ATOM      9 O    PHE C   3     -13.692   7.938  24.572  1.00 20.17 LIG-0.27  OA
ATOM     10 H    GLY C   4     -11.524   9.769  25.721  1.00 25.00 LIG 0.16  HD
BRANCH 8 11
ATOM     11  CA  PHE C   3     -14.014   9.497  26.384  1.00 26.56 LIG 0.18  C 
BRANCH 11 12
ATOM     12  CB  PHE C   3     -13.882  11.001  26.248  1.00 27.24 LIG 0.07  C 
BRANCH 12 13
ATOM     13  CG  PHE C   3     -13.916  11.471  24.858  1.00 26.12 LIG-0.06  A 
ATOM     14  CD1 PHE C   3     -12.829  12.161  24.347  1.00 28.42 LIG 0.01  A 
ATOM     15  CE1 PHE C   3     -12.809  12.595  23.015  1.00 27.55 LIG 0.00  A 
ATOM     16  CZ  PHE C   3     -13.973  12.425  22.197  1.00 28.40 LIG 0.00  A 
ATOM     17  CE2 PHE C   3     -15.079  11.723  22.710  1.00 22.84 LIG 0.00  A 
ATOM     18  CD2 PHE C   3     -15.068  11.290  24.059  1.00 25.80 LIG 0.01  A 
ENDBRANCH 12 13
ENDBRANCH 11 12
BRANCH 11 19
ATOM     19  N   PHE C   3     -13.541   9.068  27.708  1.00 29.45 LIG-0.35  N 
ATOM     20 H    PHE C   3     -12.686   9.080  27.812  1.00 29.45 LIG 0.16  HD
ATOM     21  C   GLY C   2     -14.413   8.696  28.644  1.00 31.80 LIG 0.25  C 
ATOM     22 O    GLY C   2     -15.640   8.544  28.405  1.00 33.21 LIG-0.27  OA
BRANCH 21 23
ATOM     23  CA  GLY C   2     -13.818   8.356  30.009  1.00 32.25 LIG 0.47  C 
ATOM     24  N   GLY C   2     -14.857   8.276  31.087  1.00 32.96 LIG 0.61  N 
ENDBRANCH 21 23
ENDBRANCH 11 19
ENDBRANCH 8 11
ENDBRANCH 6 7
ENDBRANCH 3 6
ENDBRANCH 1 2
BRANCH 1 25
ATOM     25  C   LEU C   5     -13.053   9.180  20.272  1.00 23.49 LIG 0.24  C 
ATOM     26  N   PHE C   6     -13.901   8.955  21.280  1.00 22.96 LIG-0.35  N 
ATOM     27 H    PHE C   6     -13.727   9.119  22.106  1.00 22.96 LIG 0.16  HD
ATOM     28 O    LEU C   5     -13.391   9.092  19.070  1.00 25.98 LIG-0.27  OA
BRANCH 26 29
ATOM     29  CA  PHE C   6     -15.249   8.386  21.030  1.00 22.19 LIG 0.18  C 
BRANCH 29 30
ATOM     30  C   PHE C   6     -16.152   9.192  20.100  1.00 17.26 LIG 0.24  C 
ATOM     31 O    PHE C   6     -16.974   8.682  19.398  1.00 22.18 LIG-0.27  OA
ATOM     32  N   ASP C   7     -15.956  10.515  20.093  1.00 22.18 LIG-0.35  N 
ATOM     33 H    ASP C   7     -15.375  10.919  20.583  1.00 22.18 LIG 0.16  HD
BRANCH 32 34
ATOM     34  CA  ASP C   7     -16.741  11.402  19.221  1.00 22.70 LIG 0.17  C 
BRANCH 34 35
ATOM     35  C   ASP C   7     -15.993  11.901  18.014  1.00 27.36 LIG 0.22  C 
ATOM     36 O    ASP C   7     -14.821  11.525  17.768  1.00 28.20 LIG-0.29  OA
ENDBRANCH 34 35
BRANCH 34 37
ATOM     37  CB  ASP C   7     -17.205  12.621  20.029  1.00 23.18 LIG 0.15  C 
BRANCH 37 38
ATOM     38  CG  ASP C   7     -16.475  13.894  19.666  1.00 26.80 LIG 0.17  C 
ATOM     39 OD2  ASP C   7     -17.031  14.665  18.823  1.00 27.82 LIG-0.65  OA
ATOM     40 OD1  ASP C   7     -15.325  14.085  20.197  1.00 32.15 LIG-0.65  OA
ENDBRANCH 37 38
ENDBRANCH 34 37
ENDBRANCH 32 34
ENDBRANCH 29 30
BRANCH 29 41
ATOM     41  CB  PHE C   6     -15.971   8.027  22.351  1.00 21.19 LIG 0.07  C 
BRANCH 41 42
ATOM     42  CG  PHE C   6     -16.176   6.565  22.536  1.00 25.43 LIG-0.06  A 
ATOM     43  CD2 PHE C   6     -17.022   5.826  21.695  1.00 26.31 LIG 0.01  A 
ATOM     44  CE2 PHE C   6     -17.133   4.448  21.863  1.00 29.51 LIG 0.00  A 
ATOM     45  CZ  PHE C   6     -16.485   3.797  22.920  1.00 25.82 LIG 0.00  A 
ATOM     46  CE1 PHE C   6     -15.682   4.518  23.763  1.00 26.71 LIG 0.00  A 
ATOM     47  CD1 PHE C   6     -15.546   5.917  23.579  1.00 21.41 LIG 0.01  A 
ENDBRANCH 41 42
ENDBRANCH 29 41
ENDBRANCH 26 29
ENDBRANCH 1 25
BRANCH 1 48
ATOM     48  CB  LEU C   5     -10.614   9.017  19.676  1.00 26.63 LIG 0.04  C 
BRANCH 48 49
ATOM     49  CG  LEU C   5      -9.168   9.145  20.027  1.00 31.82 LIG-0.02  C 
ATOM     50  CD2 LEU C   5      -8.354   8.706  18.756  1.00 33.90 LIG 0.01  C 
ATOM     51  CD1 LEU C   5      -8.786   8.329  21.268  1.00 30.04 LIG 0.01  C 
ENDBRANCH 48 49
ENDBRANCH 1 48
TORSDOF 19
ENDMDL
MODEL 60
USER: ADFR SOLUTION from run 122
USER: SCORE 14.849624 LL:  -4.269 LR: -11.272 RR:   0.000 FEB:  -5.604
USER: RMSD 6.539031
USER: SEED 121
USER: STATUS no improvement in best in 16 clusters for 5 generations
USER: GENES 21
USER: genes 0 Translation |==|  0.68032 0.58074 0.43629
USER: genes 1 Rotation |==|  0.60755 0.81268 0.22490 0.75492
USER: genes 2 Torsion [C]-CA--N-[C] |==|  0.70462
USER: genes 3 Torsion [N]-C--CA-[N] |==|  0.03474
USER: genes 4 Torsion [C]-CA--N-[C] |==|  0.74300
USER: genes 5 Torsion [N]-C--CA-[N] |==|  0.87252
USER: genes 6 Torsion [C]-CA--CB-[CG] |==|  0.18803
USER: genes 7 Torsion [CA]-CB--CG-[CD1] |==|  0.06511
USER: genes 8 Torsion [C]-CA--N-[C] |==|  0.84386
USER: genes 9 Torsion [N]-C--CA-[N] |==|  0.25437
USER: genes 10 Torsion [N]-CA--C-[N] |==|  0.00053
USER: genes 11 Torsion [C]-N--CA-[C] |==|  0.60137
USER: genes 12 Torsion [N]-CA--C-[N] |==|  0.01111
USER: genes 13 Torsion [C]-N--CA-[C] |==|  0.16916
USER: genes 14 Torsion [N]-CA--C-[O] |==|  0.17431
USER: genes 15 Torsion [N]-CA--CB-[CG] |==|  0.33442
USER: genes 16 Torsion [CA]-CB--CG-[OD1] |==|  0.75706
USER: genes 17 Torsion [N]-CA--CB-[CG] |==|  0.92659
USER: genes 18 Torsion [CA]-CB--CG-[CD2] |==|  0.78971
USER: genes 19 Torsion [N]-CA--CB-[CG] |==|  0.76641
USER: genes 20 Torsion [CA]-CB--CG-[CD2] |==|  0.16453
ROOT
ATOM      1  CA  LEU C   5     -11.570   9.710  21.626  1.00 25.10 LIG 0.18  C 
ENDROOT
BRANCH 1 2
ATOM      2  N   LEU C   5     -11.771   9.435  23.105  1.00 25.35 LIG-0.35  N 
ATOM      3  C   GLY C   4     -10.728   9.566  23.974  1.00 24.95 LIG 0.24  C 
ATOM      4 O    GLY C   4      -9.605   9.884  23.565  1.00 25.89 LIG-0.27  OA
ATOM      5 H    LEU C   5     -12.568   9.201  23.328  1.00 25.35 LIG 0.16  HD
BRANCH 3 6
ATOM      6  CA  GLY C   4     -10.939   9.339  25.431  1.00 25.42 LIG 0.23  C 
BRANCH 6 7
ATOM      7  N   GLY C   4     -12.194   8.714  25.850  1.00 25.00 LIG-0.35  N 
ATOM      8  C   PHE C   3     -13.294   9.426  26.199  1.00 25.70 LIG 0.24  C 
ATOM      9 O    PHE C   3     -13.335  10.670  26.141  1.00 20.17 LIG-0.27  OA
ATOM     10 H    GLY C   4     -12.168   7.854  25.854  1.00 25.00 LIG 0.16  HD
BRANCH 8 11
ATOM     11  CA  PHE C   3     -14.552   8.622  26.519  1.00 26.56 LIG 0.18  C 
BRANCH 11 12
ATOM     12  CB  PHE C   3     -14.385   7.986  27.884  1.00 27.24 LIG 0.07  C 
BRANCH 12 13
ATOM     13  CG  PHE C   3     -14.364   8.956  28.986  1.00 26.12 LIG-0.06  A 
ATOM     14  CD1 PHE C   3     -14.959  10.195  28.812  1.00 28.42 LIG 0.01  A 
ATOM     15  CE1 PHE C   3     -14.990  11.135  29.851  1.00 27.55 LIG 0.00  A 
ATOM     16  CZ  PHE C   3     -14.301  10.859  31.076  1.00 28.40 LIG 0.00  A 
ATOM     17  CE2 PHE C   3     -13.697   9.602  31.260  1.00 22.84 LIG 0.00  A 
ATOM     18  CD2 PHE C   3     -13.687   8.670  30.193  1.00 25.80 LIG 0.01  A 
ENDBRANCH 12 13
ENDBRANCH 11 12
BRANCH 11 19
ATOM     19  N   PHE C   3     -14.774   7.583  25.503  1.00 29.45 LIG-0.35  N 
ATOM     20 H    PHE C   3     -14.832   6.781  25.808  1.00 29.45 LIG 0.16  HD
ATOM     21  C   GLY C   2     -14.872   7.914  24.216  1.00 31.80 LIG 0.25  C 
ATOM     22 O    GLY C   2     -14.628   9.075  23.794  1.00 33.21 LIG-0.27  OA
BRANCH 21 23
ATOM     23  CA  GLY C   2     -15.192   6.768  23.258  1.00 32.25 LIG 0.47  C 
ATOM     24  N   GLY C   2     -16.664   6.600  23.031  1.00 32.96 LIG 0.61  N 
ENDBRANCH 21 23
ENDBRANCH 11 19
ENDBRANCH 8 11
ENDBRANCH 6 7
ENDBRANCH 3 6
ENDBRANCH 1 2
BRANCH 1 25
ATOM     25  C   LEU C   5     -12.176  11.020  21.103  1.00 23.49 LIG 0.24  C 
ATOM     26  N   PHE C   6     -12.814  11.792  21.986  1.00 22.96 LIG-0.35  N 
ATOM     27 H    PHE C   6     -12.874  11.621  22.826  1.00 22.96 LIG 0.16  HD
ATOM     28 O    LEU C   5     -11.960  11.376  19.922  1.00 25.98 LIG-0.27  OA
BRANCH 26 29
ATOM     29  CA  PHE C   6     -13.487  13.045  21.558  1.00 22.19 LIG 0.18  C 
BRANCH 29 30
ATOM     30  C   PHE C   6     -13.415  14.211  22.540  1.00 17.26 LIG 0.24  C 
ATOM     31 O    PHE C   6     -13.957  15.257  22.339  1.00 22.18 LIG-0.27  OA
ATOM     32  N   ASP C   7     -12.685  14.005  23.642  1.00 22.18 LIG-0.35  N 
ATOM     33 H    ASP C   7     -12.281  13.267  23.822  1.00 22.18 LIG 0.16  HD
BRANCH 32 34
ATOM     34  CA  ASP C   7     -12.513  15.057  24.655  1.00 22.70 LIG 0.17  C 
BRANCH 34 35
ATOM     35  C   ASP C   7     -13.798  15.518  25.290  1.00 27.36 LIG 0.22  C 
ATOM     36 O    ASP C   7     -14.512  14.736  25.964  1.00 28.20 LIG-0.29  OA
ENDBRANCH 34 35
BRANCH 34 37
ATOM     37  CB  ASP C   7     -11.841  16.275  24.006  1.00 23.18 LIG 0.15  C 
BRANCH 37 38
ATOM     38  CG  ASP C   7     -12.675  17.534  24.089  1.00 26.80 LIG 0.17  C 
ATOM     39 OD2  ASP C   7     -12.508  18.279  25.105  1.00 27.82 LIG-0.65  OA
ATOM     40 OD1  ASP C   7     -13.524  17.739  23.152  1.00 32.15 LIG-0.65  OA
ENDBRANCH 37 38
ENDBRANCH 34 37
ENDBRANCH 32 34
ENDBRANCH 29 30
BRANCH 29 41
ATOM     41  CB  PHE C   6     -14.940  12.783  21.093  1.00 21.19 LIG 0.07  C 
BRANCH 41 42
ATOM     42  CG  PHE C   6     -15.159  11.404  20.580  1.00 25.43 LIG-0.06  A 
ATOM     43  CD2 PHE C   6     -14.708  11.008  19.313  1.00 26.31 LIG 0.01  A 
ATOM     44  CE2 PHE C   6     -14.876   9.689  18.899  1.00 29.51 LIG 0.00  A 
ATOM     45  CZ  PHE C   6     -15.574   8.769  19.693  1.00 25.82 LIG 0.00  A 
ATOM     46  CE1 PHE C   6     -16.044   9.158  20.918  1.00 26.71 LIG 0.00  A 
ATOM     47  CD1 PHE C   6     -15.852  10.494  21.354  1.00 21.41 LIG 0.01  A 
ENDBRANCH 41 42
ENDBRANCH 29 41
ENDBRANCH 26 29
ENDBRANCH 1 25
BRANCH 1 48
ATOM     48  CB  LEU C   5     -11.969   8.557  20.631  1.00 26.63 LIG 0.04  C 
BRANCH 48 49
ATOM     49  CG  LEU C   5     -10.960   7.487  20.377  1.00 31.82 LIG-0.02  C 
ATOM     50  CD2 LEU C   5     -10.642   6.826  21.768  1.00 33.90 LIG 0.01  C 
ATOM     51  CD1 LEU C   5      -9.696   8.018  19.688  1.00 30.04 LIG 0.01  C 
ENDBRANCH 48 49
ENDBRANCH 1 48
TORSDOF 19
ENDMDL
MODEL 61
USER: ADFR SOLUTION from run 87
USER: SCORE 15.010798 LL:  -4.377 LR: -11.272 RR:   0.000 FEB:  -5.604
USER: RMSD 8.277914
USER: SEED 86
USER: STATUS searching
USER: GENES 21
USER: genes 0 Translation |==|  0.67624 0.56751 0.33186
USER: genes 1 Rotation |==|  0.03876 0.52841 0.38752 0.65427
USER: genes 2 Torsion [C]-CA--N-[C] |==|  0.80537
USER: genes 3 Torsion [N]-C--CA-[N] |==|  0.92714
USER: genes 4 Torsion [C]-CA--N-[C] |==|  0.83794
USER: genes 5 Torsion [N]-C--CA-[N] |==|  0.30270
USER: genes 6 Torsion [C]-CA--CB-[CG] |==|  0.46133
USER: genes 7 Torsion [CA]-CB--CG-[CD1] |==|  0.41817
USER: genes 8 Torsion [C]-CA--N-[C] |==|  0.63735
USER: genes 9 Torsion [N]-C--CA-[N] |==|  0.34775
USER: genes 10 Torsion [N]-CA--C-[N] |==|  0.96662
USER: genes 11 Torsion [C]-N--CA-[C] |==|  0.70312
USER: genes 12 Torsion [N]-CA--C-[N] |==|  0.47745
USER: genes 13 Torsion [C]-N--CA-[C] |==|  0.57660
USER: genes 14 Torsion [N]-CA--C-[O] |==|  0.98092
USER: genes 15 Torsion [N]-CA--CB-[CG] |==|  0.24070
USER: genes 16 Torsion [CA]-CB--CG-[OD1] |==|  0.82455
USER: genes 17 Torsion [N]-CA--CB-[CG] |==|  0.85932
USER: genes 18 Torsion [CA]-CB--CG-[CD2] |==|  0.36159
USER: genes 19 Torsion [N]-CA--CB-[CG] |==|  0.51943
USER: genes 20 Torsion [CA]-CB--CG-[CD2] |==|  0.72469
ROOT
ATOM      1  CA  LEU C   5     -11.644   9.422  19.747  1.00 25.10 LIG 0.18  C 
ENDROOT
BRANCH 1 2
ATOM      2  N   LEU C   5     -12.529  10.649  19.625  1.00 25.35 LIG-0.35  N 
ATOM      3  C   GLY C   4     -13.803  10.530  19.152  1.00 24.95 LIG 0.24  C 
ATOM      4 O    GLY C   4     -14.240   9.430  18.793  1.00 25.89 LIG-0.27  OA
ATOM      5 H    LEU C   5     -12.165  11.388  19.873  1.00 25.35 LIG 0.16  HD
BRANCH 3 6
ATOM      6  CA  GLY C   4     -14.684  11.729  19.076  1.00 25.42 LIG 0.23  C 
BRANCH 6 7
ATOM      7  N   GLY C   4     -14.421  12.829  20.003  1.00 25.00 LIG-0.35  N 
ATOM      8  C   PHE C   3     -14.432  12.677  21.351  1.00 25.70 LIG 0.24  C 
ATOM      9 O    PHE C   3     -14.619  11.576  21.903  1.00 20.17 LIG-0.27  OA
ATOM     10 H    GLY C   4     -14.259  13.579  19.615  1.00 25.00 LIG 0.16  HD
BRANCH 8 11
ATOM     11  CA  PHE C   3     -14.042  13.902  22.177  1.00 26.56 LIG 0.18  C 
BRANCH 11 12
ATOM     12  CB  PHE C   3     -12.995  13.487  23.191  1.00 27.24 LIG 0.07  C 
BRANCH 12 13
ATOM     13  CG  PHE C   3     -12.307  14.619  23.823  1.00 26.12 LIG-0.06  A 
ATOM     14  CD1 PHE C   3     -11.821  14.485  25.113  1.00 28.42 LIG 0.01  A 
ATOM     15  CE1 PHE C   3     -11.128  15.531  25.738  1.00 27.55 LIG 0.00  A 
ATOM     16  CZ  PHE C   3     -11.015  16.798  25.079  1.00 28.40 LIG 0.00  A 
ATOM     17  CE2 PHE C   3     -11.505  16.940  23.768  1.00 22.84 LIG 0.00  A 
ATOM     18  CD2 PHE C   3     -12.195  15.863  23.160  1.00 25.80 LIG 0.01  A 
ENDBRANCH 12 13
ENDBRANCH 11 12
BRANCH 11 19
ATOM     19  N   PHE C   3     -15.216  14.457  22.865  1.00 29.45 LIG-0.35  N 
ATOM     20 H    PHE C   3     -15.690  13.884  23.298  1.00 29.45 LIG 0.16  HD
ATOM     21  C   GLY C   2     -15.483  15.761  22.791  1.00 31.80 LIG 0.25  C 
ATOM     22 O    GLY C   2     -14.856  16.538  22.023  1.00 33.21 LIG-0.27  OA
BRANCH 21 23
ATOM     23  CA  GLY C   2     -16.674  16.244  23.616  1.00 32.25 LIG 0.47  C 
ATOM     24  N   GLY C   2     -16.315  17.361  24.549  1.00 32.96 LIG 0.61  N 
ENDBRANCH 21 23
ENDBRANCH 11 19
ENDBRANCH 8 11
ENDBRANCH 6 7
ENDBRANCH 3 6
ENDBRANCH 1 2
BRANCH 1 25
ATOM     25  C   LEU C   5     -12.036   8.422  20.843  1.00 23.49 LIG 0.24  C 
ATOM     26  N   PHE C   6     -12.944   8.822  21.737  1.00 22.96 LIG-0.35  N 
ATOM     27 H    PHE C   6     -13.344   9.583  21.715  1.00 22.96 LIG 0.16  HD
ATOM     28 O    LEU C   5     -11.596   7.250  20.801  1.00 25.98 LIG-0.27  OA
BRANCH 26 29
ATOM     29  CA  PHE C   6     -13.337   7.946  22.869  1.00 22.19 LIG 0.18  C 
BRANCH 29 30
ATOM     30  C   PHE C   6     -14.720   7.309  22.772  1.00 17.26 LIG 0.24  C 
ATOM     31 O    PHE C   6     -15.515   7.618  21.934  1.00 22.18 LIG-0.27  OA
ATOM     32  N   ASP C   7     -15.010   6.391  23.701  1.00 22.18 LIG-0.35  N 
ATOM     33 H    ASP C   7     -14.466   6.142  24.319  1.00 22.18 LIG 0.16  HD
BRANCH 32 34
ATOM     34  CA  ASP C   7     -16.320   5.723  23.735  1.00 22.70 LIG 0.17  C 
BRANCH 34 35
ATOM     35  C   ASP C   7     -16.740   5.258  25.104  1.00 27.36 LIG 0.22  C 
ATOM     36 O    ASP C   7     -15.962   5.326  26.086  1.00 28.20 LIG-0.29  OA
ENDBRANCH 34 35
BRANCH 34 37
ATOM     37  CB  ASP C   7     -16.285   4.499  22.809  1.00 23.18 LIG 0.15  C 
BRANCH 37 38
ATOM     38  CG  ASP C   7     -15.765   3.251  23.485  1.00 26.80 LIG 0.17  C 
ATOM     39 OD2  ASP C   7     -16.578   2.286  23.633  1.00 27.82 LIG-0.65  OA
ATOM     40 OD1  ASP C   7     -14.554   3.269  23.902  1.00 32.15 LIG-0.65  OA
ENDBRANCH 37 38
ENDBRANCH 34 37
ENDBRANCH 32 34
ENDBRANCH 29 30
BRANCH 29 41
ATOM     41  CB  PHE C   6     -13.130   8.648  24.233  1.00 21.19 LIG 0.07  C 
BRANCH 41 42
ATOM     42  CG  PHE C   6     -11.776   9.242  24.395  1.00 25.43 LIG-0.06  A 
ATOM     43  CD2 PHE C   6     -11.597  10.566  24.821  1.00 26.31 LIG 0.01  A 
ATOM     44  CE2 PHE C   6     -10.311  11.061  25.023  1.00 29.51 LIG 0.00  A 
ATOM     45  CZ  PHE C   6      -9.185  10.285  24.719  1.00 25.82 LIG 0.00  A 
ATOM     46  CE1 PHE C   6      -9.353   9.001  24.273  1.00 26.71 LIG 0.00  A 
ATOM     47  CD1 PHE C   6     -10.661   8.485  24.091  1.00 21.41 LIG 0.01  A 
ENDBRANCH 41 42
ENDBRANCH 29 41
ENDBRANCH 26 29
ENDBRANCH 1 25
BRANCH 1 48
ATOM     48  CB  LEU C   5     -10.093   9.676  19.851  1.00 26.63 LIG 0.04  C 
BRANCH 48 49
ATOM     49  CG  LEU C   5      -9.196   8.483  19.809  1.00 31.82 LIG-0.02  C 
ATOM     50  CD2 LEU C   5      -8.816   8.152  21.299  1.00 33.90 LIG 0.01  C 
ATOM     51  CD1 LEU C   5      -7.957   8.704  18.933  1.00 30.04 LIG 0.01  C 
ENDBRANCH 48 49
ENDBRANCH 1 48
TORSDOF 19
ENDMDL
MODEL 62
USER: ADFR SOLUTION from run 151
USER: SCORE 15.219299 LL:  -5.875 LR: -11.253 RR:   0.000 FEB:  -5.585
USER: RMSD 7.414410
USER: SEED 150
USER: STATUS no improvement in best in 13 clusters for 5 generations
USER: GENES 21
USER: genes 0 Translation |==|  0.65746 0.53327 0.55650
USER: genes 1 Rotation |==|  0.83825 0.58262 0.84995 0.57935
USER: genes 2 Torsion [C]-CA--N-[C] |==|  0.72316
USER: genes 3 Torsion [N]-C--CA-[N] |==|  0.88181
USER: genes 4 Torsion [C]-CA--N-[C] |==|  0.89241
USER: genes 5 Torsion [N]-C--CA-[N] |==|  0.46240
USER: genes 6 Torsion [C]-CA--CB-[CG] |==|  0.83466
USER: genes 7 Torsion [CA]-CB--CG-[CD1] |==|  0.81561
USER: genes 8 Torsion [C]-CA--N-[C] |==|  0.52548
USER: genes 9 Torsion [N]-C--CA-[N] |==|  0.14815
USER: genes 10 Torsion [N]-CA--C-[N] |==|  0.48318
USER: genes 11 Torsion [C]-N--CA-[C] |==|  0.07222
USER: genes 12 Torsion [N]-CA--C-[N] |==|  0.14058
USER: genes 13 Torsion [C]-N--CA-[C] |==|  0.58792
USER: genes 14 Torsion [N]-CA--C-[O] |==|  0.01497
USER: genes 15 Torsion [N]-CA--CB-[CG] |==|  0.54409
USER: genes 16 Torsion [CA]-CB--CG-[OD1] |==|  0.92280
USER: genes 17 Torsion [N]-CA--CB-[CG] |==|  0.81361
USER: genes 18 Torsion [CA]-CB--CG-[CD2] |==|  0.99186
USER: genes 19 Torsion [N]-CA--CB-[CG] |==|  0.80438
USER: genes 20 Torsion [CA]-CB--CG-[CD2] |==|  0.41741
ROOT
ATOM      1  CA  LEU C   5     -11.982   8.678  23.790  1.00 25.10 LIG 0.18  C 
ENDROOT
BRANCH 1 2
ATOM      2  N   LEU C   5     -11.590   9.022  22.365  1.00 25.35 LIG-0.35  N 
ATOM      3  C   GLY C   4     -11.271   8.031  21.484  1.00 24.95 LIG 0.24  C 
ATOM      4 O    GLY C   4     -11.271   6.847  21.842  1.00 25.89 LIG-0.27  OA
ATOM      5 H    LEU C   5     -11.591   9.861  22.178  1.00 25.35 LIG 0.16  HD
BRANCH 3 6
ATOM      6  CA  GLY C   4     -10.931   8.369  20.073  1.00 25.42 LIG 0.23  C 
BRANCH 6 7
ATOM      7  N   GLY C   4     -11.750   9.373  19.395  1.00 25.00 LIG-0.35  N 
ATOM      8  C   PHE C   3     -13.094   9.461  19.558  1.00 25.70 LIG 0.24  C 
ATOM      9 O    PHE C   3     -13.727   8.724  20.337  1.00 20.17 LIG-0.27  OA
ATOM     10 H    GLY C   4     -11.301   9.901  18.886  1.00 25.00 LIG 0.16  HD
BRANCH 8 11
ATOM     11  CA  PHE C   3     -13.789  10.626  18.855  1.00 26.56 LIG 0.18  C 
BRANCH 11 12
ATOM     12  CB  PHE C   3     -13.447  11.906  19.589  1.00 27.24 LIG 0.07  C 
BRANCH 12 13
ATOM     13  CG  PHE C   3     -13.863  11.906  20.997  1.00 26.12 LIG-0.06  A 
ATOM     14  CD1 PHE C   3     -15.213  11.886  21.307  1.00 28.42 LIG 0.01  A 
ATOM     15  CE1 PHE C   3     -15.649  11.849  22.639  1.00 27.55 LIG 0.00  A 
ATOM     16  CZ  PHE C   3     -14.692  11.947  23.700  1.00 28.40 LIG 0.00  A 
ATOM     17  CE2 PHE C   3     -13.319  11.966  23.392  1.00 22.84 LIG 0.00  A 
ATOM     18  CD2 PHE C   3     -12.909  11.996  22.036  1.00 25.80 LIG 0.01  A 
ENDBRANCH 12 13
ENDBRANCH 11 12
BRANCH 11 19
ATOM     19  N   PHE C   3     -15.245  10.426  18.841  1.00 29.45 LIG-0.35  N 
ATOM     20 H    PHE C   3     -15.529   9.771  19.322  1.00 29.45 LIG 0.16  HD
ATOM     21  C   GLY C   2     -16.025  11.230  18.120  1.00 31.80 LIG 0.25  C 
ATOM     22 O    GLY C   2     -15.562  12.077  17.311  1.00 33.21 LIG-0.27  OA
BRANCH 21 23
ATOM     23  CA  GLY C   2     -17.528  10.990  18.249  1.00 32.25 LIG 0.47  C 
ATOM     24  N   GLY C   2     -17.994  11.000  19.674  1.00 32.96 LIG 0.61  N 
ENDBRANCH 21 23
ENDBRANCH 11 19
ENDBRANCH 8 11
ENDBRANCH 6 7
ENDBRANCH 3 6
ENDBRANCH 1 2
BRANCH 1 25
ATOM     25  C   LEU C   5     -13.488   8.667  24.084  1.00 23.49 LIG 0.24  C 
ATOM     26  N   PHE C   6     -13.871   8.249  25.293  1.00 22.96 LIG-0.35  N 
ATOM     27 H    PHE C   6     -13.330   8.021  25.921  1.00 22.96 LIG 0.16  HD
ATOM     28 O    LEU C   5     -14.288   9.150  23.249  1.00 25.98 LIG-0.27  OA
BRANCH 26 29
ATOM     29  CA  PHE C   6     -15.310   8.144  25.643  1.00 22.19 LIG 0.18  C 
BRANCH 29 30
ATOM     30  C   PHE C   6     -16.268   7.928  24.475  1.00 17.26 LIG 0.24  C 
ATOM     31 O    PHE C   6     -17.253   8.588  24.318  1.00 22.18 LIG-0.27  OA
ATOM     32  N   ASP C   7     -15.957   6.933  23.637  1.00 22.18 LIG-0.35  N 
ATOM     33 H    ASP C   7     -15.258   6.437  23.716  1.00 22.18 LIG 0.16  HD
BRANCH 32 34
ATOM     34  CA  ASP C   7     -16.812   6.603  22.487  1.00 22.70 LIG 0.17  C 
BRANCH 34 35
ATOM     35  C   ASP C   7     -16.811   5.145  22.114  1.00 27.36 LIG 0.22  C 
ATOM     36 O    ASP C   7     -16.207   4.292  22.809  1.00 28.20 LIG-0.29  OA
ENDBRANCH 34 35
BRANCH 34 37
ATOM     37  CB  ASP C   7     -16.345   7.406  21.266  1.00 23.18 LIG 0.15  C 
BRANCH 37 38
ATOM     38  CG  ASP C   7     -17.363   7.442  20.148  1.00 26.80 LIG 0.17  C 
ATOM     39 OD2  ASP C   7     -17.374   8.472  19.403  1.00 27.82 LIG-0.65  OA
ATOM     40 OD1  ASP C   7     -18.171   6.454  20.057  1.00 32.15 LIG-0.65  OA
ENDBRANCH 37 38
ENDBRANCH 34 37
ENDBRANCH 32 34
ENDBRANCH 29 30
BRANCH 29 41
ATOM     41  CB  PHE C   6     -15.766   9.319  26.542  1.00 21.19 LIG 0.07  C 
BRANCH 41 42
ATOM     42  CG  PHE C   6     -15.152   9.304  27.896  1.00 25.43 LIG-0.06  A 
ATOM     43  CD2 PHE C   6     -14.297   8.270  28.306  1.00 26.31 LIG 0.01  A 
ATOM     44  CE2 PHE C   6     -13.691   8.329  29.559  1.00 29.51 LIG 0.00  A 
ATOM     45  CZ  PHE C   6     -13.994   9.360  30.457  1.00 25.82 LIG 0.00  A 
ATOM     46  CE1 PHE C   6     -14.852  10.356  30.074  1.00 26.71 LIG 0.00  A 
ATOM     47  CD1 PHE C   6     -15.451  10.313  28.789  1.00 21.41 LIG 0.01  A 
ENDBRANCH 41 42
ENDBRANCH 29 41
ENDBRANCH 26 29
ENDBRANCH 1 25
BRANCH 1 48
ATOM     48  CB  LEU C   5     -11.267   9.488  24.936  1.00 26.63 LIG 0.04  C 
BRANCH 48 49
ATOM     49  CG  LEU C   5      -9.819   9.212  25.175  1.00 31.82 LIG-0.02  C 
ATOM     50  CD2 LEU C   5      -9.189  10.545  25.720  1.00 33.90 LIG 0.01  C 
ATOM     51  CD1 LEU C   5      -9.100   8.704  23.919  1.00 30.04 LIG 0.01  C 
ENDBRANCH 48 49
ENDBRANCH 1 48
TORSDOF 19
ENDMDL
MODEL 63
USER: ADFR SOLUTION from run 129
USER: SCORE 14.290895 LL:  -4.241 LR: -11.212 RR:   0.000 FEB:  -5.544
USER: RMSD 6.250648
USER: SEED 128
USER: STATUS no improvement in best in 13 clusters for 5 generations
USER: GENES 21
USER: genes 0 Translation |==|  0.48605 0.56363 0.38177
USER: genes 1 Rotation |==|  0.19945 0.77698 0.57937 0.77686
USER: genes 2 Torsion [C]-CA--N-[C] |==|  0.70755
USER: genes 3 Torsion [N]-C--CA-[N] |==|  0.93345
USER: genes 4 Torsion [C]-CA--N-[C] |==|  0.23452
USER: genes 5 Torsion [N]-C--CA-[N] |==|  0.11034
USER: genes 6 Torsion [C]-CA--CB-[CG] |==|  0.86474
USER: genes 7 Torsion [CA]-CB--CG-[CD1] |==|  0.38098
USER: genes 8 Torsion [C]-CA--N-[C] |==|  0.76583
USER: genes 9 Torsion [N]-C--CA-[N] |==|  0.72482
USER: genes 10 Torsion [N]-CA--C-[N] |==|  0.00824
USER: genes 11 Torsion [C]-N--CA-[C] |==|  0.78625
USER: genes 12 Torsion [N]-CA--C-[N] |==|  0.18804
USER: genes 13 Torsion [C]-N--CA-[C] |==|  0.73127
USER: genes 14 Torsion [N]-CA--C-[O] |==|  0.96583
USER: genes 15 Torsion [N]-CA--CB-[CG] |==|  0.09200
USER: genes 16 Torsion [CA]-CB--CG-[OD1] |==|  0.24851
USER: genes 17 Torsion [N]-CA--CB-[CG] |==|  0.58299
USER: genes 18 Torsion [CA]-CB--CG-[CD2] |==|  0.48091
USER: genes 19 Torsion [N]-CA--CB-[CG] |==|  0.84900
USER: genes 20 Torsion [CA]-CB--CG-[CD2] |==|  0.24022
ROOT
ATOM      1  CA  LEU C   5     -15.067   9.338  20.645  1.00 25.10 LIG 0.18  C 
ENDROOT
BRANCH 1 2
ATOM      2  N   LEU C   5     -14.505   9.978  21.901  1.00 25.35 LIG-0.35  N 
ATOM      3  C   GLY C   4     -15.166  11.010  22.498  1.00 24.95 LIG 0.24  C 
ATOM      4 O    GLY C   4     -16.214  11.451  22.012  1.00 25.89 LIG-0.27  OA
ATOM      5 H    LEU C   5     -13.765   9.642  22.182  1.00 25.35 LIG 0.16  HD
BRANCH 3 6
ATOM      6  CA  GLY C   4     -14.635  11.607  23.756  1.00 25.42 LIG 0.23  C 
BRANCH 6 7
ATOM      7  N   GLY C   4     -13.767  10.777  24.592  1.00 25.00 LIG-0.35  N 
ATOM      8  C   PHE C   3     -12.433  10.656  24.378  1.00 25.70 LIG 0.24  C 
ATOM      9 O    PHE C   3     -11.836  11.282  23.482  1.00 20.17 LIG-0.27  OA
ATOM     10 H    GLY C   4     -14.181  10.375  25.230  1.00 25.00 LIG 0.16  HD
BRANCH 8 11
ATOM     11  CA  PHE C   3     -11.653   9.828  25.398  1.00 26.56 LIG 0.18  C 
BRANCH 11 12
ATOM     12  CB  PHE C   3     -10.340   9.403  24.771  1.00 27.24 LIG 0.07  C 
BRANCH 12 13
ATOM     13  CG  PHE C   3     -10.489   8.820  23.432  1.00 26.12 LIG-0.06  A 
ATOM     14  CD1 PHE C   3      -9.600   9.179  22.432  1.00 28.42 LIG 0.01  A 
ATOM     15  CE1 PHE C   3      -9.688   8.618  21.151  1.00 27.55 LIG 0.00  A 
ATOM     16  CZ  PHE C   3     -10.779   7.747  20.832  1.00 28.40 LIG 0.00  A 
ATOM     17  CE2 PHE C   3     -11.685   7.378  21.844  1.00 22.84 LIG 0.00  A 
ATOM     18  CD2 PHE C   3     -11.566   7.956  23.132  1.00 25.80 LIG 0.01  A 
ENDBRANCH 12 13
ENDBRANCH 11 12
BRANCH 11 19
ATOM     19  N   PHE C   3     -12.424   8.645  25.802  1.00 29.45 LIG-0.35  N 
ATOM     20 H    PHE C   3     -12.237   7.922  25.374  1.00 29.45 LIG 0.16  HD
ATOM     21  C   GLY C   2     -13.337   8.738  26.769  1.00 31.80 LIG 0.25  C 
ATOM     22 O    GLY C   2     -13.691   9.841  27.264  1.00 33.21 LIG-0.27  OA
BRANCH 21 23
ATOM     23  CA  GLY C   2     -14.015   7.429  27.171  1.00 32.25 LIG 0.47  C 
ATOM     24  N   GLY C   2     -15.361   7.258  26.533  1.00 32.96 LIG 0.61  N 
ENDBRANCH 21 23
ENDBRANCH 11 19
ENDBRANCH 8 11
ENDBRANCH 6 7
ENDBRANCH 3 6
ENDBRANCH 1 2
BRANCH 1 25
ATOM     25  C   LEU C   5     -15.712   7.957  20.831  1.00 23.49 LIG 0.24  C 
ATOM     26  N   PHE C   6     -15.775   7.477  22.076  1.00 22.96 LIG-0.35  N 
ATOM     27 H    PHE C   6     -15.512   7.904  22.775  1.00 22.96 LIG 0.16  HD
ATOM     28 O    LEU C   5     -16.253   7.387  19.857  1.00 25.98 LIG-0.27  OA
BRANCH 26 29
ATOM     29  CA  PHE C   6     -16.323   6.123  22.344  1.00 22.19 LIG 0.18  C 
BRANCH 29 30
ATOM     30  C   PHE C   6     -17.843   5.998  22.302  1.00 17.26 LIG 0.24  C 
ATOM     31 O    PHE C   6     -18.496   5.750  23.271  1.00 22.18 LIG-0.27  OA
ATOM     32  N   ASP C   7     -18.412   6.159  21.101  1.00 22.18 LIG-0.35  N 
ATOM     33 H    ASP C   7     -17.976   6.338  20.382  1.00 22.18 LIG 0.16  HD
BRANCH 32 34
ATOM     34  CA  ASP C   7     -19.866   6.035  20.920  1.00 22.70 LIG 0.17  C 
BRANCH 34 35
ATOM     35  C   ASP C   7     -20.316   4.681  20.440  1.00 27.36 LIG 0.22  C 
ATOM     36 O    ASP C   7     -19.497   3.836  20.006  1.00 28.20 LIG-0.29  OA
ENDBRANCH 34 35
BRANCH 34 37
ATOM     37  CB  ASP C   7     -20.337   7.081  19.900  1.00 23.18 LIG 0.15  C 
BRANCH 37 38
ATOM     38  CG  ASP C   7     -19.315   7.370  18.824  1.00 26.80 LIG 0.17  C 
ATOM     39 OD2  ASP C   7     -18.516   8.338  19.023  1.00 27.82 LIG-0.65  OA
ATOM     40 OD1  ASP C   7     -19.355   6.649  17.767  1.00 32.15 LIG-0.65  OA
ENDBRANCH 37 38
ENDBRANCH 34 37
ENDBRANCH 32 34
ENDBRANCH 29 30
BRANCH 29 41
ATOM     41  CB  PHE C   6     -15.739   5.518  23.644  1.00 21.19 LIG 0.07  C 
BRANCH 41 42
ATOM     42  CG  PHE C   6     -15.654   4.033  23.621  1.00 25.43 LIG-0.06  A 
ATOM     43  CD2 PHE C   6     -15.023   3.314  24.647  1.00 26.31 LIG 0.01  A 
ATOM     44  CE2 PHE C   6     -15.024   1.922  24.619  1.00 29.51 LIG 0.00  A 
ATOM     45  CZ  PHE C   6     -15.566   1.224  23.532  1.00 25.82 LIG 0.00  A 
ATOM     46  CE1 PHE C   6     -16.156   1.921  22.512  1.00 26.71 LIG 0.00  A 
ATOM     47  CD1 PHE C   6     -16.180   3.339  22.550  1.00 21.41 LIG 0.01  A 
ENDBRANCH 41 42
ENDBRANCH 29 41
ENDBRANCH 26 29
ENDBRANCH 1 25
BRANCH 1 48
ATOM     48  CB  LEU C   5     -14.108   9.263  19.397  1.00 26.63 LIG 0.04  C 
BRANCH 48 49
ATOM     49  CG  LEU C   5     -13.488  10.538  18.929  1.00 31.82 LIG-0.02  C 
ATOM     50  CD2 LEU C   5     -12.173  10.735  19.768  1.00 33.90 LIG 0.01  C 
ATOM     51  CD1 LEU C   5     -14.437  11.737  19.051  1.00 30.04 LIG 0.01  C 
ENDBRANCH 48 49
ENDBRANCH 1 48
TORSDOF 19
ENDMDL
MODEL 64
USER: ADFR SOLUTION from run 138
USER: SCORE 14.871158 LL:  -4.765 LR: -11.204 RR:   0.000 FEB:  -5.537
USER: RMSD 7.297730
USER: SEED 137
USER: STATUS no improvement in best in 11 clusters for 5 generations
USER: GENES 21
USER: genes 0 Translation |==|  0.50181 0.51708 0.38678
USER: genes 1 Rotation |==|  0.99277 0.56392 0.44639 0.51485
USER: genes 2 Torsion [C]-CA--N-[C] |==|  0.68680
USER: genes 3 Torsion [N]-C--CA-[N] |==|  0.03580
USER: genes 4 Torsion [C]-CA--N-[C] |==|  0.15000
USER: genes 5 Torsion [N]-C--CA-[N] |==|  0.10991
USER: genes 6 Torsion [C]-CA--CB-[CG] |==|  0.22764
USER: genes 7 Torsion [CA]-CB--CG-[CD1] |==|  0.50749
USER: genes 8 Torsion [C]-CA--N-[C] |==|  0.14995
USER: genes 9 Torsion [N]-C--CA-[N] |==|  0.27231
USER: genes 10 Torsion [N]-CA--C-[N] |==|  0.65495
USER: genes 11 Torsion [C]-N--CA-[C] |==|  0.71869
USER: genes 12 Torsion [N]-CA--C-[N] |==|  0.02614
USER: genes 13 Torsion [C]-N--CA-[C] |==|  0.81038
USER: genes 14 Torsion [N]-CA--C-[O] |==|  0.52623
USER: genes 15 Torsion [N]-CA--CB-[CG] |==|  0.79379
USER: genes 16 Torsion [CA]-CB--CG-[OD1] |==|  0.18078
USER: genes 17 Torsion [N]-CA--CB-[CG] |==|  0.04900
USER: genes 18 Torsion [CA]-CB--CG-[CD2] |==|  0.30079
USER: genes 19 Torsion [N]-CA--CB-[CG] |==|  0.15808
USER: genes 20 Torsion [CA]-CB--CG-[CD2] |==|  0.74005
ROOT
ATOM      1  CA  LEU C   5     -14.783   8.326  20.735  1.00 25.10 LIG 0.18  C 
ENDROOT
BRANCH 1 2
ATOM      2  N   LEU C   5     -16.171   8.927  20.609  1.00 25.35 LIG-0.35  N 
ATOM      3  C   GLY C   4     -17.245   8.124  20.359  1.00 24.95 LIG 0.24  C 
ATOM      4 O    GLY C   4     -17.097   6.906  20.207  1.00 25.89 LIG-0.27  OA
ATOM      5 H    LEU C   5     -16.209   9.781  20.706  1.00 25.35 LIG 0.16  HD
BRANCH 3 6
ATOM      6  CA  GLY C   4     -18.612   8.712  20.280  1.00 25.42 LIG 0.23  C 
BRANCH 6 7
ATOM      7  N   GLY C   4     -18.725  10.168  20.190  1.00 25.00 LIG-0.35  N 
ATOM      8  C   PHE C   3     -18.086  10.900  19.244  1.00 25.70 LIG 0.24  C 
ATOM      9 O    PHE C   3     -17.392  10.383  18.347  1.00 20.17 LIG-0.27  OA
ATOM     10 H    GLY C   4     -19.233  10.515  20.791  1.00 25.00 LIG 0.16  HD
BRANCH 8 11
ATOM     11  CA  PHE C   3     -18.385  12.399  19.226  1.00 26.56 LIG 0.18  C 
BRANCH 11 12
ATOM     12  CB  PHE C   3     -17.271  13.104  18.480  1.00 27.24 LIG 0.07  C 
BRANCH 12 13
ATOM     13  CG  PHE C   3     -17.424  13.066  17.020  1.00 26.12 LIG-0.06  A 
ATOM     14  CD1 PHE C   3     -16.443  13.626  16.219  1.00 28.42 LIG 0.01  A 
ATOM     15  CE1 PHE C   3     -16.536  13.578  14.821  1.00 27.55 LIG 0.00  A 
ATOM     16  CZ  PHE C   3     -17.715  13.043  14.208  1.00 28.40 LIG 0.00  A 
ATOM     17  CE2 PHE C   3     -18.715  12.471  15.017  1.00 22.84 LIG 0.00  A 
ATOM     18  CD2 PHE C   3     -18.589  12.529  16.427  1.00 25.80 LIG 0.01  A 
ENDBRANCH 12 13
ENDBRANCH 11 12
BRANCH 11 19
ATOM     19  N   PHE C   3     -18.483  12.922  20.596  1.00 29.45 LIG-0.35  N 
ATOM     20 H    PHE C   3     -19.210  13.348  20.773  1.00 29.45 LIG 0.16  HD
ATOM     21  C   GLY C   2     -17.490  12.724  21.462  1.00 31.80 LIG 0.25  C 
ATOM     22 O    GLY C   2     -16.382  12.233  21.123  1.00 33.21 LIG-0.27  OA
BRANCH 21 23
ATOM     23  CA  GLY C   2     -17.736  13.232  22.882  1.00 32.25 LIG 0.47  C 
ATOM     24  N   GLY C   2     -18.193  12.148  23.812  1.00 32.96 LIG 0.61  N 
ENDBRANCH 21 23
ENDBRANCH 11 19
ENDBRANCH 8 11
ENDBRANCH 6 7
ENDBRANCH 3 6
ENDBRANCH 1 2
BRANCH 1 25
ATOM     25  C   LEU C   5     -14.150   8.397  22.131  1.00 23.49 LIG 0.24  C 
ATOM     26  N   PHE C   6     -12.956   8.986  22.230  1.00 22.96 LIG-0.35  N 
ATOM     27 H    PHE C   6     -12.541   9.356  21.573  1.00 22.96 LIG 0.16  HD
ATOM     28 O    LEU C   5     -14.803   8.019  23.131  1.00 25.98 LIG-0.27  OA
BRANCH 26 29
ATOM     29  CA  PHE C   6     -12.238   9.044  23.529  1.00 22.19 LIG 0.18  C 
BRANCH 29 30
ATOM     30  C   PHE C   6     -12.315  10.373  24.275  1.00 17.26 LIG 0.24  C 
ATOM     31 O    PHE C   6     -11.668  10.601  25.254  1.00 22.18 LIG-0.27  OA
ATOM     32  N   ASP C   7     -13.173  11.274  23.783  1.00 22.18 LIG-0.35  N 
ATOM     33 H    ASP C   7     -13.654  11.148  23.081  1.00 22.18 LIG 0.16  HD
BRANCH 32 34
ATOM     34  CA  ASP C   7     -13.361  12.584  24.425  1.00 22.70 LIG 0.17  C 
BRANCH 34 35
ATOM     35  C   ASP C   7     -14.027  12.520  25.774  1.00 27.36 LIG 0.22  C 
ATOM     36 O    ASP C   7     -14.412  13.558  26.364  1.00 28.20 LIG-0.29  OA
ENDBRANCH 34 35
BRANCH 34 37
ATOM     37  CB  ASP C   7     -14.219  13.473  23.514  1.00 23.18 LIG 0.15  C 
BRANCH 37 38
ATOM     38  CG  ASP C   7     -13.470  13.993  22.308  1.00 26.80 LIG 0.17  C 
ATOM     39 OD2  ASP C   7     -13.324  15.251  22.211  1.00 27.82 LIG-0.65  OA
ATOM     40 OD1  ASP C   7     -13.075  13.132  21.446  1.00 32.15 LIG-0.65  OA
ENDBRANCH 37 38
ENDBRANCH 34 37
ENDBRANCH 32 34
ENDBRANCH 29 30
BRANCH 29 41
ATOM     41  CB  PHE C   6     -10.777   8.551  23.397  1.00 21.19 LIG 0.07  C 
BRANCH 41 42
ATOM     42  CG  PHE C   6     -10.283   8.528  21.994  1.00 25.43 LIG-0.06  A 
ATOM     43  CD2 PHE C   6      -9.337   9.454  21.530  1.00 26.31 LIG 0.01  A 
ATOM     44  CE2 PHE C   6      -8.853   9.355  20.228  1.00 29.51 LIG 0.00  A 
ATOM     45  CZ  PHE C   6      -9.364   8.400  19.340  1.00 25.82 LIG 0.00  A 
ATOM     46  CE1 PHE C   6     -10.310   7.513  19.778  1.00 26.71 LIG 0.00  A 
ATOM     47  CD1 PHE C   6     -10.787   7.594  21.111  1.00 21.41 LIG 0.01  A 
ENDBRANCH 41 42
ENDBRANCH 29 41
ENDBRANCH 26 29
ENDBRANCH 1 25
BRANCH 1 48
ATOM     48  CB  LEU C   5     -13.708   8.800  19.687  1.00 26.63 LIG 0.04  C 
BRANCH 48 49
ATOM     49  CG  LEU C   5     -13.433  10.265  19.599  1.00 31.82 LIG-0.02  C 
ATOM     50  CD2 LEU C   5     -14.362  10.831  18.463  1.00 33.90 LIG 0.01  C 
ATOM     51  CD1 LEU C   5     -11.953  10.575  19.342  1.00 30.04 LIG 0.01  C 
ENDBRANCH 48 49
ENDBRANCH 1 48
TORSDOF 19
ENDMDL
MODEL 65
USER: ADFR SOLUTION from run 178
USER: SCORE 15.680294 LL:  -4.944 LR: -11.188 RR:   0.000 FEB:  -5.520
USER: RMSD 7.620737
USER: SEED 177
USER: STATUS no improvement in best in 10 clusters for 5 generations
USER: GENES 21
USER: genes 0 Translation |==|  0.69725 0.50773 0.33292
USER: genes 1 Rotation |==|  0.00987 0.57201 0.43270 0.50737
USER: genes 2 Torsion [C]-CA--N-[C] |==|  0.83166
USER: genes 3 Torsion [N]-C--CA-[N] |==|  0.44617
USER: genes 4 Torsion [C]-CA--N-[C] |==|  0.27920
USER: genes 5 Torsion [N]-C--CA-[N] |==|  0.35565
USER: genes 6 Torsion [C]-CA--CB-[CG] |==|  0.16337
USER: genes 7 Torsion [CA]-CB--CG-[CD1] |==|  0.11729
USER: genes 8 Torsion [C]-CA--N-[C] |==|  0.71830
USER: genes 9 Torsion [N]-C--CA-[N] |==|  0.78444
USER: genes 10 Torsion [N]-CA--C-[N] |==|  0.95874
USER: genes 11 Torsion [C]-N--CA-[C] |==|  0.74356
USER: genes 12 Torsion [N]-CA--C-[N] |==|  0.04444
USER: genes 13 Torsion [C]-N--CA-[C] |==|  0.87382
USER: genes 14 Torsion [N]-CA--C-[O] |==|  0.76868
USER: genes 15 Torsion [N]-CA--CB-[CG] |==|  0.76968
USER: genes 16 Torsion [CA]-CB--CG-[OD1] |==|  0.01958
USER: genes 17 Torsion [N]-CA--CB-[CG] |==|  0.16549
USER: genes 18 Torsion [CA]-CB--CG-[CD2] |==|  0.95149
USER: genes 19 Torsion [N]-CA--CB-[CG] |==|  0.11665
USER: genes 20 Torsion [CA]-CB--CG-[CD2] |==|  0.50781
ROOT
ATOM      1  CA  LEU C   5     -11.265   8.122  19.765  1.00 25.10 LIG 0.18  C 
ENDROOT
BRANCH 1 2
ATOM      2  N   LEU C   5     -11.955   9.347  19.194  1.00 25.35 LIG-0.35  N 
ATOM      3  C   GLY C   4     -13.307   9.485  19.302  1.00 24.95 LIG 0.24  C 
ATOM      4 O    GLY C   4     -13.987   8.605  19.843  1.00 25.89 LIG-0.27  OA
ATOM      5 H    LEU C   5     -11.433   9.916  18.814  1.00 25.35 LIG 0.16  HD
BRANCH 3 6
ATOM      6  CA  GLY C   4     -13.975  10.710  18.779  1.00 25.42 LIG 0.23  C 
BRANCH 6 7
ATOM      7  N   GLY C   4     -15.413  10.645  18.517  1.00 25.00 LIG-0.35  N 
ATOM      8  C   PHE C   3     -16.342  11.144  19.370  1.00 25.70 LIG 0.24  C 
ATOM      9 O    PHE C   3     -16.039  11.742  20.420  1.00 20.17 LIG-0.27  OA
ATOM     10 H    GLY C   4     -15.613  10.261  17.774  1.00 25.00 LIG 0.16  HD
BRANCH 8 11
ATOM     11  CA  PHE C   3     -17.796  11.083  18.905  1.00 26.56 LIG 0.18  C 
BRANCH 11 12
ATOM     12  CB  PHE C   3     -18.276  12.495  18.634  1.00 27.24 LIG 0.07  C 
BRANCH 12 13
ATOM     13  CG  PHE C   3     -17.484  13.201  17.620  1.00 26.12 LIG-0.06  A 
ATOM     14  CD1 PHE C   3     -17.091  12.527  16.474  1.00 28.42 LIG 0.01  A 
ATOM     15  CE1 PHE C   3     -16.365  13.176  15.467  1.00 27.55 LIG 0.00  A 
ATOM     16  CZ  PHE C   3     -15.921  14.524  15.670  1.00 28.40 LIG 0.00  A 
ATOM     17  CE2 PHE C   3     -16.319  15.213  16.830  1.00 22.84 LIG 0.00  A 
ATOM     18  CD2 PHE C   3     -17.059  14.532  17.828  1.00 25.80 LIG 0.01  A 
ENDBRANCH 12 13
ENDBRANCH 11 12
BRANCH 11 19
ATOM     19  N   PHE C   3     -18.640  10.451  19.928  1.00 29.45 LIG-0.35  N 
ATOM     20 H    PHE C   3     -18.857  10.959  20.588  1.00 29.45 LIG 0.16  HD
ATOM     21  C   GLY C   2     -19.016   9.179  19.796  1.00 31.80 LIG 0.25  C 
ATOM     22 O    GLY C   2     -18.554   8.426  18.899  1.00 33.21 LIG-0.27  OA
BRANCH 21 23
ATOM     23  CA  GLY C   2     -19.965   8.651  20.870  1.00 32.25 LIG 0.47  C 
ATOM     24  N   GLY C   2     -19.261   8.327  22.153  1.00 32.96 LIG 0.61  N 
ENDBRANCH 21 23
ENDBRANCH 11 19
ENDBRANCH 8 11
ENDBRANCH 6 7
ENDBRANCH 3 6
ENDBRANCH 1 2
BRANCH 1 25
ATOM     25  C   LEU C   5     -11.419   7.916  21.279  1.00 23.49 LIG 0.24  C 
ATOM     26  N   PHE C   6     -11.863   8.953  21.994  1.00 22.96 LIG-0.35  N 
ATOM     27 H    PHE C   6     -12.100   9.708  21.657  1.00 22.96 LIG 0.16  HD
ATOM     28 O    LEU C   5     -11.243   6.778  21.772  1.00 25.98 LIG-0.27  OA
BRANCH 26 29
ATOM     29  CA  PHE C   6     -11.982   8.866  23.471  1.00 22.19 LIG 0.18  C 
BRANCH 29 30
ATOM     30  C   PHE C   6     -13.339   8.419  24.007  1.00 17.26 LIG 0.24  C 
ATOM     31 O    PHE C   6     -13.656   8.551  25.152  1.00 22.18 LIG-0.27  OA
ATOM     32  N   ASP C   7     -14.159   7.841  23.121  1.00 22.18 LIG-0.35  N 
ATOM     33 H    ASP C   7     -13.967   7.729  22.289  1.00 22.18 LIG 0.16  HD
BRANCH 32 34
ATOM     34  CA  ASP C   7     -15.484   7.342  23.515  1.00 22.70 LIG 0.17  C 
BRANCH 34 35
ATOM     35  C   ASP C   7     -15.489   6.547  24.794  1.00 27.36 LIG 0.22  C 
ATOM     36 O    ASP C   7     -15.196   5.327  24.806  1.00 28.20 LIG-0.29  OA
ENDBRANCH 34 35
BRANCH 34 37
ATOM     37  CB  ASP C   7     -16.038   6.447  22.398  1.00 23.18 LIG 0.15  C 
BRANCH 37 38
ATOM     38  CG  ASP C   7     -16.701   7.223  21.283  1.00 26.80 LIG 0.17  C 
ATOM     39 OD2  ASP C   7     -17.268   6.554  20.363  1.00 27.82 LIG-0.65  OA
ATOM     40 OD1  ASP C   7     -16.607   8.500  21.318  1.00 32.15 LIG-0.65  OA
ENDBRANCH 37 38
ENDBRANCH 34 37
ENDBRANCH 32 34
ENDBRANCH 29 30
BRANCH 29 41
ATOM     41  CB  PHE C   6     -11.500  10.165  24.161  1.00 21.19 LIG 0.07  C 
BRANCH 41 42
ATOM     42  CG  PHE C   6     -12.260  11.374  23.745  1.00 25.43 LIG-0.06  A 
ATOM     43  CD2 PHE C   6     -13.044  11.389  22.582  1.00 26.31 LIG 0.01  A 
ATOM     44  CE2 PHE C   6     -13.792  12.520  22.266  1.00 29.51 LIG 0.00  A 
ATOM     45  CZ  PHE C   6     -13.704  13.682  23.043  1.00 25.82 LIG 0.00  A 
ATOM     46  CE1 PHE C   6     -12.916  13.685  24.163  1.00 26.71 LIG 0.00  A 
ATOM     47  CD1 PHE C   6     -12.173  12.525  24.503  1.00 21.41 LIG 0.01  A 
ENDBRANCH 41 42
ENDBRANCH 29 41
ENDBRANCH 26 29
ENDBRANCH 1 25
BRANCH 1 48
ATOM     48  CB  LEU C   5      -9.746   7.929  19.399  1.00 26.63 LIG 0.04  C 
BRANCH 48 49
ATOM     49  CG  LEU C   5      -8.872   9.139  19.426  1.00 31.82 LIG-0.02  C 
ATOM     50  CD2 LEU C   5      -7.445   8.676  18.955  1.00 33.90 LIG 0.01  C 
ATOM     51  CD1 LEU C   5      -8.835   9.811  20.804  1.00 30.04 LIG 0.01  C 
ENDBRANCH 48 49
ENDBRANCH 1 48
TORSDOF 19
ENDMDL
MODEL 66
USER: ADFR SOLUTION from run 188
USER: SCORE 14.557152 LL:  -4.441 LR: -11.188 RR:   0.000 FEB:  -5.520
USER: RMSD 8.131797
USER: SEED 187
USER: STATUS no improvement in best in 8 clusters for 5 generations
USER: GENES 21
USER: genes 0 Translation |==|  0.52998 0.61633 0.40161
USER: genes 1 Rotation |==|  0.99416 0.49869 0.57218 0.52432
USER: genes 2 Torsion [C]-CA--N-[C] |==|  0.18243
USER: genes 3 Torsion [N]-C--CA-[N] |==|  0.97655
USER: genes 4 Torsion [C]-CA--N-[C] |==|  0.83821
USER: genes 5 Torsion [N]-C--CA-[N] |==|  0.91667
USER: genes 6 Torsion [C]-CA--CB-[CG] |==|  0.92251
USER: genes 7 Torsion [CA]-CB--CG-[CD1] |==|  0.24740
USER: genes 8 Torsion [C]-CA--N-[C] |==|  0.81201
USER: genes 9 Torsion [N]-C--CA-[N] |==|  0.73340
USER: genes 10 Torsion [N]-CA--C-[N] |==|  0.66230
USER: genes 11 Torsion [C]-N--CA-[C] |==|  0.72565
USER: genes 12 Torsion [N]-CA--C-[N] |==|  0.94075
USER: genes 13 Torsion [C]-N--CA-[C] |==|  0.75009
USER: genes 14 Torsion [N]-CA--C-[O] |==|  0.95533
USER: genes 15 Torsion [N]-CA--CB-[CG] |==|  0.23336
USER: genes 16 Torsion [CA]-CB--CG-[OD1] |==|  0.30020
USER: genes 17 Torsion [N]-CA--CB-[CG] |==|  0.96484
USER: genes 18 Torsion [CA]-CB--CG-[CD2] |==|  0.83453
USER: genes 19 Torsion [N]-CA--CB-[CG] |==|  0.80113
USER: genes 20 Torsion [CA]-CB--CG-[CD2] |==|  0.99141
ROOT
ATOM      1  CA  LEU C   5     -14.276  10.484  21.002  1.00 25.10 LIG 0.18  C 
ENDROOT
BRANCH 1 2
ATOM      2  N   LEU C   5     -15.245  11.378  20.250  1.00 25.35 LIG-0.35  N 
ATOM      3  C   GLY C   4     -15.174  12.733  20.388  1.00 24.95 LIG 0.24  C 
ATOM      4 O    GLY C   4     -14.339  13.245  21.143  1.00 25.89 LIG-0.27  OA
ATOM      5 H    LEU C   5     -15.814  10.965  19.755  1.00 25.35 LIG 0.16  HD
BRANCH 3 6
ATOM      6  CA  GLY C   4     -16.097  13.610  19.614  1.00 25.42 LIG 0.23  C 
BRANCH 6 7
ATOM      7  N   GLY C   4     -16.928  12.986  18.584  1.00 25.00 LIG-0.35  N 
ATOM      8  C   PHE C   3     -16.413  12.292  17.540  1.00 25.70 LIG 0.24  C 
ATOM      9 O    PHE C   3     -15.191  12.090  17.404  1.00 20.17 LIG-0.27  OA
ATOM     10 H    GLY C   4     -17.772  13.100  18.704  1.00 25.00 LIG 0.16  HD
BRANCH 8 11
ATOM     11  CA  PHE C   3     -17.418  11.621  16.606  1.00 26.56 LIG 0.18  C 
BRANCH 11 12
ATOM     12  CB  PHE C   3     -17.761  12.588  15.491  1.00 27.24 LIG 0.07  C 
BRANCH 12 13
ATOM     13  CG  PHE C   3     -17.633  13.999  15.876  1.00 26.12 LIG-0.06  A 
ATOM     14  CD1 PHE C   3     -16.416  14.640  15.712  1.00 28.42 LIG 0.01  A 
ATOM     15  CE1 PHE C   3     -16.262  15.995  16.035  1.00 27.55 LIG 0.00  A 
ATOM     16  CZ  PHE C   3     -17.345  16.703  16.649  1.00 28.40 LIG 0.00  A 
ATOM     17  CE2 PHE C   3     -18.585  16.058  16.816  1.00 22.84 LIG 0.00  A 
ATOM     18  CD2 PHE C   3     -18.711  14.689  16.475  1.00 25.80 LIG 0.01  A 
ENDBRANCH 12 13
ENDBRANCH 11 12
BRANCH 11 19
ATOM     19  N   PHE C   3     -18.635  11.246  17.339  1.00 29.45 LIG-0.35  N 
ATOM     20 H    PHE C   3     -19.343  11.685  17.122  1.00 29.45 LIG 0.16  HD
ATOM     21  C   GLY C   2     -18.592  10.288  18.265  1.00 31.80 LIG 0.25  C 
ATOM     22 O    GLY C   2     -17.511   9.778  18.663  1.00 33.21 LIG-0.27  OA
BRANCH 21 23
ATOM     23  CA  GLY C   2     -19.930   9.918  18.901  1.00 32.25 LIG 0.47  C 
ATOM     24  N   GLY C   2     -20.170  10.630  20.198  1.00 32.96 LIG 0.61  N 
ENDBRANCH 21 23
ENDBRANCH 11 19
ENDBRANCH 8 11
ENDBRANCH 6 7
ENDBRANCH 3 6
ENDBRANCH 1 2
BRANCH 1 25
ATOM     25  C   LEU C   5     -14.409  10.495  22.531  1.00 23.49 LIG 0.24  C 
ATOM     26  N   PHE C   6     -13.331  10.852  23.234  1.00 22.96 LIG-0.35  N 
ATOM     27 H    PHE C   6     -12.588  11.109  22.886  1.00 22.96 LIG 0.16  HD
ATOM     28 O    LEU C   5     -15.525  10.288  23.060  1.00 25.98 LIG-0.27  OA
BRANCH 26 29
ATOM     29  CA  PHE C   6     -13.347  10.830  24.719  1.00 22.19 LIG 0.18  C 
BRANCH 29 30
ATOM     30  C   PHE C   6     -13.592  12.171  25.405  1.00 17.26 LIG 0.24  C 
ATOM     31 O    PHE C   6     -14.013  12.257  26.520  1.00 22.18 LIG-0.27  OA
ATOM     32  N   ASP C   7     -13.330  13.260  24.674  1.00 22.18 LIG-0.35  N 
ATOM     33 H    ASP C   7     -13.027  13.239  23.869  1.00 22.18 LIG 0.16  HD
BRANCH 32 34
ATOM     34  CA  ASP C   7     -13.551  14.612  25.208  1.00 22.70 LIG 0.17  C 
BRANCH 34 35
ATOM     35  C   ASP C   7     -14.928  15.162  24.948  1.00 27.36 LIG 0.22  C 
ATOM     36 O    ASP C   7     -15.685  14.650  24.089  1.00 28.20 LIG-0.29  OA
ENDBRANCH 34 35
BRANCH 34 37
ATOM     37  CB  ASP C   7     -12.530  15.573  24.583  1.00 23.18 LIG 0.15  C 
BRANCH 37 38
ATOM     38  CG  ASP C   7     -12.955  16.103  23.233  1.00 26.80 LIG 0.17  C 
ATOM     39 OD2  ASP C   7     -12.885  15.305  22.245  1.00 27.82 LIG-0.65  OA
ATOM     40 OD1  ASP C   7     -13.312  17.331  23.168  1.00 32.15 LIG-0.65  OA
ENDBRANCH 37 38
ENDBRANCH 34 37
ENDBRANCH 32 34
ENDBRANCH 29 30
BRANCH 29 41
ATOM     41  CB  PHE C   6     -12.097  10.119  25.292  1.00 21.19 LIG 0.07  C 
BRANCH 41 42
ATOM     42  CG  PHE C   6     -11.322   9.365  24.271  1.00 25.43 LIG-0.06  A 
ATOM     43  CD2 PHE C   6     -11.897   8.322  23.530  1.00 26.31 LIG 0.01  A 
ATOM     44  CE2 PHE C   6     -11.155   7.687  22.537  1.00 29.51 LIG 0.00  A 
ATOM     45  CZ  PHE C   6      -9.809   8.011  22.327  1.00 25.82 LIG 0.00  A 
ATOM     46  CE1 PHE C   6      -9.232   9.007  23.068  1.00 26.71 LIG 0.00  A 
ATOM     47  CD1 PHE C   6      -9.993   9.674  24.062  1.00 21.41 LIG 0.01  A 
ENDBRANCH 41 42
ENDBRANCH 29 41
ENDBRANCH 26 29
ENDBRANCH 1 25
BRANCH 1 48
ATOM     48  CB  LEU C   5     -12.750  10.634  20.644  1.00 26.63 LIG 0.04  C 
BRANCH 48 49
ATOM     49  CG  LEU C   5     -12.300  10.116  19.318  1.00 31.82 LIG-0.02  C 
ATOM     50  CD2 LEU C   5     -13.556   9.454  18.642  1.00 33.90 LIG 0.01  C 
ATOM     51  CD1 LEU C   5     -11.123   9.139  19.433  1.00 30.04 LIG 0.01  C 
ENDBRANCH 48 49
ENDBRANCH 1 48
TORSDOF 19
ENDMDL
MODEL 67
USER: ADFR SOLUTION from run 132
USER: SCORE 14.143714 LL:  -4.374 LR: -11.182 RR:   0.000 FEB:  -5.515
USER: RMSD 6.522782
USER: SEED 131
USER: STATUS no improvement in best in 12 clusters for 5 generations
USER: GENES 21
USER: genes 0 Translation |==|  0.67114 0.57177 0.39963
USER: genes 1 Rotation |==|  0.70671 0.76331 0.33478 0.83263
USER: genes 2 Torsion [C]-CA--N-[C] |==|  0.16774
USER: genes 3 Torsion [N]-C--CA-[N] |==|  0.03958
USER: genes 4 Torsion [C]-CA--N-[C] |==|  0.15031
USER: genes 5 Torsion [N]-C--CA-[N] |==|  0.35378
USER: genes 6 Torsion [C]-CA--CB-[CG] |==|  0.56403
USER: genes 7 Torsion [CA]-CB--CG-[CD1] |==|  0.83339
USER: genes 8 Torsion [C]-CA--N-[C] |==|  0.89346
USER: genes 9 Torsion [N]-C--CA-[N] |==|  0.58801
USER: genes 10 Torsion [N]-CA--C-[N] |==|  0.10572
USER: genes 11 Torsion [C]-N--CA-[C] |==|  0.60418
USER: genes 12 Torsion [N]-CA--C-[N] |==|  0.83045
USER: genes 13 Torsion [C]-N--CA-[C] |==|  0.56566
USER: genes 14 Torsion [N]-CA--C-[O] |==|  0.93606
USER: genes 15 Torsion [N]-CA--CB-[CG] |==|  0.79734
USER: genes 16 Torsion [CA]-CB--CG-[OD1] |==|  0.77768
USER: genes 17 Torsion [N]-CA--CB-[CG] |==|  0.19714
USER: genes 18 Torsion [CA]-CB--CG-[CD2] |==|  0.81366
USER: genes 19 Torsion [N]-CA--CB-[CG] |==|  0.74403
USER: genes 20 Torsion [CA]-CB--CG-[CD2] |==|  0.07115
ROOT
ATOM      1  CA  LEU C   5     -11.735   9.515  20.966  1.00 25.10 LIG 0.18  C 
ENDROOT
BRANCH 1 2
ATOM      2  N   LEU C   5     -12.667   8.787  21.918  1.00 25.35 LIG-0.35  N 
ATOM      3  C   GLY C   4     -13.949   8.511  21.544  1.00 24.95 LIG 0.24  C 
ATOM      4 O    GLY C   4     -14.373   8.873  20.440  1.00 25.89 LIG-0.27  OA
ATOM      5 H    LEU C   5     -12.322   8.577  22.677  1.00 25.35 LIG 0.16  HD
BRANCH 3 6
ATOM      6  CA  GLY C   4     -14.847   7.757  22.463  1.00 25.42 LIG 0.23  C 
BRANCH 6 7
ATOM      7  N   GLY C   4     -14.431   7.612  23.858  1.00 25.00 LIG-0.35  N 
ATOM      8  C   PHE C   3     -14.105   8.667  24.645  1.00 25.70 LIG 0.24  C 
ATOM      9 O    PHE C   3     -14.183   9.847  24.253  1.00 20.17 LIG-0.27  OA
ATOM     10 H    GLY C   4     -14.412   6.796  24.131  1.00 25.00 LIG 0.16  HD
BRANCH 8 11
ATOM     11  CA  PHE C   3     -13.784   8.354  26.105  1.00 26.56 LIG 0.18  C 
BRANCH 11 12
ATOM     12  CB  PHE C   3     -14.881   8.934  26.975  1.00 27.24 LIG 0.07  C 
BRANCH 12 13
ATOM     13  CG  PHE C   3     -14.462   9.184  28.360  1.00 26.12 LIG-0.06  A 
ATOM     14  CD1 PHE C   3     -14.017   8.126  29.136  1.00 28.42 LIG 0.01  A 
ATOM     15  CE1 PHE C   3     -13.576   8.329  30.451  1.00 27.55 LIG 0.00  A 
ATOM     16  CZ  PHE C   3     -13.691   9.628  31.044  1.00 28.40 LIG 0.00  A 
ATOM     17  CE2 PHE C   3     -14.141  10.707  30.260  1.00 22.84 LIG 0.00  A 
ATOM     18  CD2 PHE C   3     -14.574  10.471  28.932  1.00 25.80 LIG 0.01  A 
ENDBRANCH 12 13
ENDBRANCH 11 12
BRANCH 11 19
ATOM     19  N   PHE C   3     -12.485   8.927  26.483  1.00 29.45 LIG-0.35  N 
ATOM     20 H    PHE C   3     -12.447   9.255  27.278  1.00 29.45 LIG 0.16  HD
ATOM     21  C   GLY C   2     -11.470   8.914  25.620  1.00 31.80 LIG 0.25  C 
ATOM     22 O    GLY C   2     -11.606   8.568  24.417  1.00 33.21 LIG-0.27  OA
BRANCH 21 23
ATOM     23  CA  GLY C   2     -10.141   9.454  26.148  1.00 32.25 LIG 0.47  C 
ATOM     24  N   GLY C   2      -9.320  10.112  25.080  1.00 32.96 LIG 0.61  N 
ENDBRANCH 21 23
ENDBRANCH 11 19
ENDBRANCH 8 11
ENDBRANCH 6 7
ENDBRANCH 3 6
ENDBRANCH 1 2
BRANCH 1 25
ATOM     25  C   LEU C   5     -12.184  10.919  20.537  1.00 23.49 LIG 0.24  C 
ATOM     26  N   PHE C   6     -12.775  11.680  21.462  1.00 22.96 LIG-0.35  N 
ATOM     27 H    PHE C   6     -12.885  11.448  22.283  1.00 22.96 LIG 0.16  HD
ATOM     28 O    LEU C   5     -11.887  11.345  19.398  1.00 25.98 LIG-0.27  OA
BRANCH 26 29
ATOM     29  CA  PHE C   6     -13.299  13.026  21.121  1.00 22.19 LIG 0.18  C 
BRANCH 29 30
ATOM     30  C   PHE C   6     -13.126  14.101  22.191  1.00 17.26 LIG 0.24  C 
ATOM     31 O    PHE C   6     -12.474  15.087  22.015  1.00 22.18 LIG-0.27  OA
ATOM     32  N   ASP C   7     -13.732  13.867  23.361  1.00 22.18 LIG-0.35  N 
ATOM     33 H    ASP C   7     -14.210  13.171  23.526  1.00 22.18 LIG 0.16  HD
BRANCH 32 34
ATOM     34  CA  ASP C   7     -13.621  14.810  24.483  1.00 22.70 LIG 0.17  C 
BRANCH 34 35
ATOM     35  C   ASP C   7     -13.852  14.191  25.836  1.00 27.36 LIG 0.22  C 
ATOM     36 O    ASP C   7     -14.510  13.131  25.966  1.00 28.20 LIG-0.29  OA
ENDBRANCH 34 35
BRANCH 34 37
ATOM     37  CB  ASP C   7     -14.646  15.938  24.297  1.00 23.18 LIG 0.15  C 
BRANCH 37 38
ATOM     38  CG  ASP C   7     -14.275  16.908  23.198  1.00 26.80 LIG 0.17  C 
ATOM     39 OD2  ASP C   7     -14.813  16.734  22.060  1.00 27.82 LIG-0.65  OA
ATOM     40 OD1  ASP C   7     -13.411  17.811  23.478  1.00 32.15 LIG-0.65  OA
ENDBRANCH 37 38
ENDBRANCH 34 37
ENDBRANCH 32 34
ENDBRANCH 29 30
BRANCH 29 41
ATOM     41  CB  PHE C   6     -14.761  12.959  20.615  1.00 21.19 LIG 0.07  C 
BRANCH 41 42
ATOM     42  CG  PHE C   6     -15.743  12.632  21.683  1.00 25.43 LIG-0.06  A 
ATOM     43  CD2 PHE C   6     -15.763  11.377  22.309  1.00 26.31 LIG 0.01  A 
ATOM     44  CE2 PHE C   6     -16.656  11.136  23.349  1.00 29.51 LIG 0.00  A 
ATOM     45  CZ  PHE C   6     -17.604  12.097  23.722  1.00 25.82 LIG 0.00  A 
ATOM     46  CE1 PHE C   6     -17.611  13.314  23.094  1.00 26.71 LIG 0.00  A 
ATOM     47  CD1 PHE C   6     -16.684  13.573  22.051  1.00 21.41 LIG 0.01  A 
ENDBRANCH 41 42
ENDBRANCH 29 41
ENDBRANCH 26 29
ENDBRANCH 1 25
BRANCH 1 48
ATOM     48  CB  LEU C   5     -11.287   8.731  19.676  1.00 26.63 LIG 0.04  C 
BRANCH 48 49
ATOM     49  CG  LEU C   5     -10.019   7.947  19.753  1.00 31.82 LIG-0.02  C 
ATOM     50  CD2 LEU C   5      -9.807   7.579  21.267  1.00 33.90 LIG 0.01  C 
ATOM     51  CD1 LEU C   5      -8.819   8.703  19.169  1.00 30.04 LIG 0.01  C 
ENDBRANCH 48 49
ENDBRANCH 1 48
TORSDOF 19
ENDMDL
MODEL 68
USER: ADFR SOLUTION from run 6
USER: SCORE 15.370606 LL:  -5.159 LR: -11.169 RR:   0.000 FEB:  -5.501
USER: RMSD 8.413708
USER: SEED 704185
USER: STATUS no improvement in best in 3 clusters for 5 generations
USER: GENES 21
USER: genes 0 Translation |==|  0.60756 0.60810 0.32597
USER: genes 1 Rotation |==|  0.06734 0.55759 0.33648 0.68098
USER: genes 2 Torsion [C]-CA--N-[C] |==|  0.77478
USER: genes 3 Torsion [N]-C--CA-[N] |==|  0.51111
USER: genes 4 Torsion [C]-CA--N-[C] |==|  0.78079
USER: genes 5 Torsion [N]-C--CA-[N] |==|  0.95789
USER: genes 6 Torsion [C]-CA--CB-[CG] |==|  0.89935
USER: genes 7 Torsion [CA]-CB--CG-[CD1] |==|  0.28260
USER: genes 8 Torsion [C]-CA--N-[C] |==|  0.80567
USER: genes 9 Torsion [N]-C--CA-[N] |==|  0.48926
USER: genes 10 Torsion [N]-CA--C-[N] |==|  0.80865
USER: genes 11 Torsion [C]-N--CA-[C] |==|  0.77005
USER: genes 12 Torsion [N]-CA--C-[N] |==|  0.19174
USER: genes 13 Torsion [C]-N--CA-[C] |==|  0.59956
USER: genes 14 Torsion [N]-CA--C-[O] |==|  0.96721
USER: genes 15 Torsion [N]-CA--CB-[CG] |==|  0.14243
USER: genes 16 Torsion [CA]-CB--CG-[OD1] |==|  0.11693
USER: genes 17 Torsion [N]-CA--CB-[CG] |==|  0.91193
USER: genes 18 Torsion [CA]-CB--CG-[CD2] |==|  0.85277
USER: genes 19 Torsion [N]-CA--CB-[CG] |==|  0.59827
USER: genes 20 Torsion [CA]-CB--CG-[CD2] |==|  0.82764
ROOT
ATOM      1  CA  LEU C   5     -12.880  10.305  19.640  1.00 25.10 LIG 0.18  C 
ENDROOT
BRANCH 1 2
ATOM      2  N   LEU C   5     -13.547  11.666  19.569  1.00 25.35 LIG-0.35  N 
ATOM      3  C   GLY C   4     -14.575  11.880  18.698  1.00 24.95 LIG 0.24  C 
ATOM      4 O    GLY C   4     -14.956  10.979  17.942  1.00 25.89 LIG-0.27  OA
ATOM      5 H    LEU C   5     -13.228  12.258  20.105  1.00 25.35 LIG 0.16  HD
BRANCH 3 6
ATOM      6  CA  GLY C   4     -15.258  13.204  18.662  1.00 25.42 LIG 0.23  C 
BRANCH 6 7
ATOM      7  N   GLY C   4     -16.411  13.354  17.775  1.00 25.00 LIG-0.35  N 
ATOM      8  C   PHE C   3     -16.292  13.549  16.438  1.00 25.70 LIG 0.24  C 
ATOM      9 O    PHE C   3     -15.191  13.565  15.855  1.00 20.17 LIG-0.27  OA
ATOM     10 H    GLY C   4     -17.168  13.307  18.179  1.00 25.00 LIG 0.16  HD
BRANCH 8 11
ATOM     11  CA  PHE C   3     -17.593  13.590  15.638  1.00 26.56 LIG 0.18  C 
BRANCH 11 12
ATOM     12  CB  PHE C   3     -17.878  15.027  15.252  1.00 27.24 LIG 0.07  C 
BRANCH 12 13
ATOM     13  CG  PHE C   3     -17.492  16.000  16.282  1.00 26.12 LIG-0.06  A 
ATOM     14  CD1 PHE C   3     -16.316  16.717  16.133  1.00 28.42 LIG 0.01  A 
ATOM     15  CE1 PHE C   3     -15.931  17.679  17.077  1.00 27.55 LIG 0.00  A 
ATOM     16  CZ  PHE C   3     -16.704  17.848  18.271  1.00 28.40 LIG 0.00  A 
ATOM     17  CE2 PHE C   3     -17.901  17.124  18.427  1.00 22.84 LIG 0.00  A 
ATOM     18  CD2 PHE C   3     -18.266  16.163  17.453  1.00 25.80 LIG 0.01  A 
ENDBRANCH 12 13
ENDBRANCH 11 12
BRANCH 11 19
ATOM     19  N   PHE C   3     -18.706  13.052  16.433  1.00 29.45 LIG-0.35  N 
ATOM     20 H    PHE C   3     -19.288  13.633  16.687  1.00 29.45 LIG 0.16  HD
ATOM     21  C   GLY C   2     -18.762  11.751  16.714  1.00 31.80 LIG 0.25  C 
ATOM     22 O    GLY C   2     -17.816  10.960  16.458  1.00 33.21 LIG-0.27  OA
BRANCH 21 23
ATOM     23  CA  GLY C   2     -20.007  11.287  17.469  1.00 32.25 LIG 0.47  C 
ATOM     24  N   GLY C   2     -20.042   9.801  17.666  1.00 32.96 LIG 0.61  N 
ENDBRANCH 21 23
ENDBRANCH 11 19
ENDBRANCH 8 11
ENDBRANCH 6 7
ENDBRANCH 3 6
ENDBRANCH 1 2
BRANCH 1 25
ATOM     25  C   LEU C   5     -13.611   9.247  20.478  1.00 23.49 LIG 0.24  C 
ATOM     26  N   PHE C   6     -13.648   9.433  21.800  1.00 22.96 LIG-0.35  N 
ATOM     27 H    PHE C   6     -13.322  10.120  22.202  1.00 22.96 LIG 0.16  HD
ATOM     28 O    LEU C   5     -14.239   8.326  19.906  1.00 25.98 LIG-0.27  OA
BRANCH 26 29
ATOM     29  CA  PHE C   6     -14.277   8.429  22.694  1.00 22.19 LIG 0.18  C 
BRANCH 29 30
ATOM     30  C   PHE C   6     -15.793   8.519  22.837  1.00 17.26 LIG 0.24  C 
ATOM     31 O    PHE C   6     -16.327   8.841  23.858  1.00 22.18 LIG-0.27  OA
ATOM     32  N   ASP C   7     -16.505   8.192  21.753  1.00 22.18 LIG-0.35  N 
ATOM     33 H    ASP C   7     -16.159   7.956  21.002  1.00 22.18 LIG 0.16  HD
BRANCH 32 34
ATOM     34  CA  ASP C   7     -17.976   8.211  21.768  1.00 22.70 LIG 0.17  C 
BRANCH 34 35
ATOM     35  C   ASP C   7     -18.616   7.122  20.948  1.00 27.36 LIG 0.22  C 
ATOM     36 O    ASP C   7     -17.945   6.426  20.148  1.00 28.20 LIG-0.29  OA
ENDBRANCH 34 35
BRANCH 34 37
ATOM     37  CB  ASP C   7     -18.467   9.562  21.230  1.00 23.18 LIG 0.15  C 
BRANCH 37 38
ATOM     38  CG  ASP C   7     -17.852   9.937  19.901  1.00 26.80 LIG 0.17  C 
ATOM     39 OD2  ASP C   7     -17.529  11.154  19.731  1.00 27.82 LIG-0.65  OA
ATOM     40 OD1  ASP C   7     -17.740   9.012  19.023  1.00 32.15 LIG-0.65  OA
ENDBRANCH 37 38
ENDBRANCH 34 37
ENDBRANCH 32 34
ENDBRANCH 29 30
BRANCH 29 41
ATOM     41  CB  PHE C   6     -13.578   8.377  24.075  1.00 21.19 LIG 0.07  C 
BRANCH 41 42
ATOM     42  CG  PHE C   6     -12.125   8.685  24.017  1.00 25.43 LIG-0.06  A 
ATOM     43  CD2 PHE C   6     -11.261   8.004  23.146  1.00 26.31 LIG 0.01  A 
ATOM     44  CE2 PHE C   6      -9.919   8.370  23.076  1.00 29.51 LIG 0.00  A 
ATOM     45  CZ  PHE C   6      -9.394   9.348  23.930  1.00 25.82 LIG 0.00  A 
ATOM     46  CE1 PHE C   6     -10.225   9.995  24.804  1.00 26.71 LIG 0.00  A 
ATOM     47  CD1 PHE C   6     -11.598   9.643  24.860  1.00 21.41 LIG 0.01  A 
ENDBRANCH 41 42
ENDBRANCH 29 41
ENDBRANCH 26 29
ENDBRANCH 1 25
BRANCH 1 48
ATOM     48  CB  LEU C   5     -11.359  10.283  20.048  1.00 26.63 LIG 0.04  C 
BRANCH 48 49
ATOM     49  CG  LEU C   5     -10.489   9.254  19.403  1.00 31.82 LIG-0.02  C 
ATOM     50  CD2 LEU C   5     -11.057   7.851  19.830  1.00 33.90 LIG 0.01  C 
ATOM     51  CD1 LEU C   5      -9.009   9.415  19.774  1.00 30.04 LIG 0.01  C 
ENDBRANCH 48 49
ENDBRANCH 1 48
TORSDOF 19
ENDMDL
MODEL 69
USER: ADFR SOLUTION from run 78
USER: SCORE 15.940825 LL:  -6.029 LR: -11.158 RR:   0.000 FEB:  -5.491
USER: RMSD 5.595941
USER: SEED 77
USER: STATUS no improvement in best in 9 clusters for 5 generations
USER: GENES 21
USER: genes 0 Translation |==|  0.69412 0.58391 0.44320
USER: genes 1 Rotation |==|  0.57040 0.82181 0.25180 0.78262
USER: genes 2 Torsion [C]-CA--N-[C] |==|  0.68118
USER: genes 3 Torsion [N]-C--CA-[N] |==|  0.98225
USER: genes 4 Torsion [C]-CA--N-[C] |==|  0.85546
USER: genes 5 Torsion [N]-C--CA-[N] |==|  0.36542
USER: genes 6 Torsion [C]-CA--CB-[CG] |==|  0.30992
USER: genes 7 Torsion [CA]-CB--CG-[CD1] |==|  0.08678
USER: genes 8 Torsion [C]-CA--N-[C] |==|  0.73889
USER: genes 9 Torsion [N]-C--CA-[N] |==|  0.67657
USER: genes 10 Torsion [N]-CA--C-[N] |==|  0.02706
USER: genes 11 Torsion [C]-N--CA-[C] |==|  0.61019
USER: genes 12 Torsion [N]-CA--C-[N] |==|  0.90678
USER: genes 13 Torsion [C]-N--CA-[C] |==|  0.82824
USER: genes 14 Torsion [N]-CA--C-[O] |==|  0.24030
USER: genes 15 Torsion [N]-CA--CB-[CG] |==|  0.78458
USER: genes 16 Torsion [CA]-CB--CG-[OD1] |==|  0.17418
USER: genes 17 Torsion [N]-CA--CB-[CG] |==|  0.89231
USER: genes 18 Torsion [CA]-CB--CG-[CD2] |==|  0.27718
USER: genes 19 Torsion [N]-CA--CB-[CG] |==|  0.75841
USER: genes 20 Torsion [CA]-CB--CG-[CD2] |==|  0.11860
ROOT
ATOM      1  CA  LEU C   5     -11.322   9.779  21.751  1.00 25.10 LIG 0.18  C 
ENDROOT
BRANCH 1 2
ATOM      2  N   LEU C   5     -11.449   9.487  23.234  1.00 25.35 LIG-0.35  N 
ATOM      3  C   GLY C   4     -10.388   9.692  24.066  1.00 24.95 LIG 0.24  C 
ATOM      4 O    GLY C   4      -9.307  10.092  23.619  1.00 25.89 LIG-0.27  OA
ATOM      5 H    LEU C   5     -12.218   9.194  23.484  1.00 25.35 LIG 0.16  HD
BRANCH 3 6
ATOM      6  CA  GLY C   4     -10.530   9.447  25.529  1.00 25.42 LIG 0.23  C 
BRANCH 6 7
ATOM      7  N   GLY C   4     -11.862   9.126  26.041  1.00 25.00 LIG-0.35  N 
ATOM      8  C   PHE C   3     -12.955   9.887  25.783  1.00 25.70 LIG 0.24  C 
ATOM      9 O    PHE C   3     -12.917  10.891  25.047  1.00 20.17 LIG-0.27  OA
ATOM     10 H    GLY C   4     -11.887   8.412  26.520  1.00 25.00 LIG 0.16  HD
BRANCH 8 11
ATOM     11  CA  PHE C   3     -14.289   9.363  26.311  1.00 26.56 LIG 0.18  C 
BRANCH 11 12
ATOM     12  CB  PHE C   3     -15.110   8.863  25.139  1.00 27.24 LIG 0.07  C 
BRANCH 12 13
ATOM     13  CG  PHE C   3     -15.293   7.407  25.128  1.00 26.12 LIG-0.06  A 
ATOM     14  CD1 PHE C   3     -15.348   6.720  26.330  1.00 28.42 LIG 0.01  A 
ATOM     15  CE1 PHE C   3     -15.557   5.334  26.362  1.00 27.55 LIG 0.00  A 
ATOM     16  CZ  PHE C   3     -15.603   4.596  25.135  1.00 28.40 LIG 0.00  A 
ATOM     17  CE2 PHE C   3     -15.550   5.289  23.912  1.00 22.84 LIG 0.00  A 
ATOM     18  CD2 PHE C   3     -15.345   6.690  23.911  1.00 25.80 LIG 0.01  A 
ENDBRANCH 12 13
ENDBRANCH 11 12
BRANCH 11 19
ATOM     19  N   PHE C   3     -15.018  10.424  27.019  1.00 29.45 LIG-0.35  N 
ATOM     20 H    PHE C   3     -15.503  10.930  26.520  1.00 29.45 LIG 0.16  HD
ATOM     21  C   GLY C   2     -14.901  10.551  28.341  1.00 31.80 LIG 0.25  C 
ATOM     22 O    GLY C   2     -14.064   9.892  29.014  1.00 33.21 LIG-0.27  OA
BRANCH 21 23
ATOM     23  CA  GLY C   2     -15.770  11.629  28.985  1.00 32.25 LIG 0.47  C 
ATOM     24  N   GLY C   2     -14.961  12.719  29.622  1.00 32.96 LIG 0.61  N 
ENDBRANCH 21 23
ENDBRANCH 11 19
ENDBRANCH 8 11
ENDBRANCH 6 7
ENDBRANCH 3 6
ENDBRANCH 1 2
BRANCH 1 25
ATOM     25  C   LEU C   5     -12.199  10.921  21.218  1.00 23.49 LIG 0.24  C 
ATOM     26  N   PHE C   6     -12.832  11.675  22.120  1.00 22.96 LIG-0.35  N 
ATOM     27 H    PHE C   6     -12.750  11.585  22.971  1.00 22.96 LIG 0.16  HD
ATOM     28 O    LEU C   5     -12.204  11.182  19.993  1.00 25.98 LIG-0.27  OA
BRANCH 26 29
ATOM     29  CA  PHE C   6     -13.752  12.761  21.696  1.00 22.19 LIG 0.18  C 
BRANCH 29 30
ATOM     30  C   PHE C   6     -13.689  14.048  22.514  1.00 17.26 LIG 0.24  C 
ATOM     31 O    PHE C   6     -13.845  15.128  22.028  1.00 22.18 LIG-0.27  OA
ATOM     32  N   ASP C   7     -13.421  13.902  23.816  1.00 22.18 LIG-0.35  N 
ATOM     33 H    ASP C   7     -13.303  13.143  24.202  1.00 22.18 LIG 0.16  HD
BRANCH 32 34
ATOM     34  CA  ASP C   7     -13.305  15.065  24.709  1.00 22.70 LIG 0.17  C 
BRANCH 34 35
ATOM     35  C   ASP C   7     -12.192  16.012  24.348  1.00 27.36 LIG 0.22  C 
ATOM     36 O    ASP C   7     -12.362  16.934  23.514  1.00 28.20 LIG-0.29  OA
ENDBRANCH 34 35
BRANCH 34 37
ATOM     37  CB  ASP C   7     -13.066  14.577  26.144  1.00 23.18 LIG 0.15  C 
BRANCH 37 38
ATOM     38  CG  ASP C   7     -14.319  14.072  26.822  1.00 26.80 LIG 0.17  C 
ATOM     39 OD2  ASP C   7     -14.690  14.669  27.881  1.00 27.82 LIG-0.65  OA
ATOM     40 OD1  ASP C   7     -14.896  13.051  26.307  1.00 32.15 LIG-0.65  OA
ENDBRANCH 37 38
ENDBRANCH 34 37
ENDBRANCH 32 34
ENDBRANCH 29 30
BRANCH 29 41
ATOM     41  CB  PHE C   6     -15.207  12.252  21.550  1.00 21.19 LIG 0.07  C 
BRANCH 41 42
ATOM     42  CG  PHE C   6     -15.303  10.889  20.963  1.00 25.43 LIG-0.06  A 
ATOM     43  CD2 PHE C   6     -15.497   9.753  21.763  1.00 26.31 LIG 0.01  A 
ATOM     44  CE2 PHE C   6     -15.647   8.504  21.167  1.00 29.51 LIG 0.00  A 
ATOM     45  CZ  PHE C   6     -15.515   8.347  19.781  1.00 25.82 LIG 0.00  A 
ATOM     46  CE1 PHE C   6     -15.295   9.447  18.997  1.00 26.71 LIG 0.00  A 
ATOM     47  CD1 PHE C   6     -15.168  10.725  19.599  1.00 21.41 LIG 0.01  A 
ENDBRANCH 41 42
ENDBRANCH 29 41
ENDBRANCH 26 29
ENDBRANCH 1 25
BRANCH 1 48
ATOM     48  CB  LEU C   5     -11.470   8.554  20.772  1.00 26.63 LIG 0.04  C 
BRANCH 48 49
ATOM     49  CG  LEU C   5     -10.240   7.763  20.469  1.00 31.82 LIG-0.02  C 
ATOM     50  CD2 LEU C   5      -9.475   7.579  21.830  1.00 33.90 LIG 0.01  C 
ATOM     51  CD1 LEU C   5      -9.362   8.421  19.397  1.00 30.04 LIG 0.01  C 
ENDBRANCH 48 49
ENDBRANCH 1 48
TORSDOF 19
ENDMDL
MODEL 70
USER: ADFR SOLUTION from run 152
USER: SCORE 15.116148 LL:  -4.700 LR: -11.151 RR:   0.000 FEB:  -5.483
USER: RMSD 4.392442
USER: SEED 151
USER: STATUS no improvement in best in 12 clusters for 5 generations
USER: GENES 21
USER: genes 0 Translation |==|  0.62626 0.64024 0.54731
USER: genes 1 Rotation |==|  0.42740 0.59253 0.24742 0.91517
USER: genes 2 Torsion [C]-CA--N-[C] |==|  0.79383
USER: genes 3 Torsion [N]-C--CA-[N] |==|  0.01483
USER: genes 4 Torsion [C]-CA--N-[C] |==|  0.24403
USER: genes 5 Torsion [N]-C--CA-[N] |==|  0.01607
USER: genes 6 Torsion [C]-CA--CB-[CG] |==|  0.76435
USER: genes 7 Torsion [CA]-CB--CG-[CD1] |==|  0.71382
USER: genes 8 Torsion [C]-CA--N-[C] |==|  0.70088
USER: genes 9 Torsion [N]-C--CA-[N] |==|  0.56276
USER: genes 10 Torsion [N]-CA--C-[N] |==|  0.34731
USER: genes 11 Torsion [C]-N--CA-[C] |==|  0.13885
USER: genes 12 Torsion [N]-CA--C-[N] |==|  0.64742
USER: genes 13 Torsion [C]-N--CA-[C] |==|  0.14919
USER: genes 14 Torsion [N]-CA--C-[O] |==|  0.05846
USER: genes 15 Torsion [N]-CA--CB-[CG] |==|  0.70067
USER: genes 16 Torsion [CA]-CB--CG-[OD1] |==|  0.99261
USER: genes 17 Torsion [N]-CA--CB-[CG] |==|  0.96255
USER: genes 18 Torsion [CA]-CB--CG-[CD2] |==|  0.78540
USER: genes 19 Torsion [N]-CA--CB-[CG] |==|  0.68086
USER: genes 20 Torsion [CA]-CB--CG-[CD2] |==|  0.44739
ROOT
ATOM      1  CA  LEU C   5     -12.543  11.004  23.625  1.00 25.10 LIG 0.18  C 
ENDROOT
BRANCH 1 2
ATOM      2  N   LEU C   5     -13.601  11.615  24.525  1.00 25.35 LIG-0.35  N 
ATOM      3  C   GLY C   4     -13.957  12.923  24.375  1.00 24.95 LIG 0.24  C 
ATOM      4 O    GLY C   4     -13.406  13.630  23.523  1.00 25.89 LIG-0.27  OA
ATOM      5 H    LEU C   5     -13.935  11.080  25.110  1.00 25.35 LIG 0.16  HD
BRANCH 3 6
ATOM      6  CA  GLY C   4     -15.028  13.506  25.231  1.00 25.42 LIG 0.23  C 
BRANCH 6 7
ATOM      7  N   GLY C   4     -15.582  12.671  26.296  1.00 25.00 LIG-0.35  N 
ATOM      8  C   PHE C   3     -15.046  12.611  27.541  1.00 25.70 LIG 0.24  C 
ATOM      9 O    PHE C   3     -14.069  13.302  27.887  1.00 20.17 LIG-0.27  OA
ATOM     10 H    GLY C   4     -16.277  12.223  26.060  1.00 25.00 LIG 0.16  HD
BRANCH 8 11
ATOM     11  CA  PHE C   3     -15.800  11.765  28.566  1.00 26.56 LIG 0.18  C 
BRANCH 11 12
ATOM     12  CB  PHE C   3     -14.833  10.767  29.172  1.00 27.24 LIG 0.07  C 
BRANCH 12 13
ATOM     13  CG  PHE C   3     -14.681   9.541  28.380  1.00 26.12 LIG-0.06  A 
ATOM     14  CD1 PHE C   3     -15.319   8.382  28.793  1.00 28.42 LIG 0.01  A 
ATOM     15  CE1 PHE C   3     -15.227   7.200  28.045  1.00 27.55 LIG 0.00  A 
ATOM     16  CZ  PHE C   3     -14.370   7.153  26.898  1.00 28.40 LIG 0.00  A 
ATOM     17  CE2 PHE C   3     -13.722   8.327  26.473  1.00 22.84 LIG 0.00  A 
ATOM     18  CD2 PHE C   3     -13.839   9.508  27.246  1.00 25.80 LIG 0.01  A 
ENDBRANCH 12 13
ENDBRANCH 11 12
BRANCH 11 19
ATOM     19  N   PHE C   3     -16.920  11.059  27.930  1.00 29.45 LIG-0.35  N 
ATOM     20 H    PHE C   3     -16.696  10.405  27.417  1.00 29.45 LIG 0.16  HD
ATOM     21  C   GLY C   2     -18.175  11.443  28.164  1.00 31.80 LIG 0.25  C 
ATOM     22 O    GLY C   2     -18.455  12.496  28.795  1.00 33.21 LIG-0.27  OA
BRANCH 21 23
ATOM     23  CA  GLY C   2     -19.264  10.583  27.524  1.00 32.25 LIG 0.47  C 
ATOM     24  N   GLY C   2     -20.557  11.322  27.357  1.00 32.96 LIG 0.61  N 
ENDBRANCH 21 23
ENDBRANCH 11 19
ENDBRANCH 8 11
ENDBRANCH 6 7
ENDBRANCH 3 6
ENDBRANCH 1 2
BRANCH 1 25
ATOM     25  C   LEU C   5     -12.984  10.708  22.184  1.00 23.49 LIG 0.24  C 
ATOM     26  N   PHE C   6     -12.253  11.240  21.201  1.00 22.96 LIG-0.35  N 
ATOM     27 H    PHE C   6     -11.538  11.702  21.324  1.00 22.96 LIG 0.16  HD
ATOM     28 O    LEU C   5     -13.919   9.902  21.974  1.00 25.98 LIG-0.27  OA
BRANCH 26 29
ATOM     29  CA  PHE C   6     -12.641  11.061  19.779  1.00 22.19 LIG 0.18  C 
BRANCH 29 30
ATOM     30  C   PHE C   6     -14.093  11.385  19.437  1.00 17.26 LIG 0.24  C 
ATOM     31 O    PHE C   6     -14.610  12.420  19.737  1.00 22.18 LIG-0.27  OA
ATOM     32  N   ASP C   7     -14.773  10.427  18.798  1.00 22.18 LIG-0.35  N 
ATOM     33 H    ASP C   7     -14.437   9.670  18.565  1.00 22.18 LIG 0.16  HD
BRANCH 32 34
ATOM     34  CA  ASP C   7     -16.187  10.603  18.435  1.00 22.70 LIG 0.17  C 
BRANCH 34 35
ATOM     35  C   ASP C   7     -16.471  11.852  17.645  1.00 27.36 LIG 0.22  C 
ATOM     36 O    ASP C   7     -15.566  12.444  17.008  1.00 28.20 LIG-0.29  OA
ENDBRANCH 34 35
BRANCH 34 37
ATOM     37  CB  ASP C   7     -17.033  10.649  19.715  1.00 23.18 LIG 0.15  C 
BRANCH 37 38
ATOM     38  CG  ASP C   7     -17.863   9.404  19.929  1.00 26.80 LIG 0.17  C 
ATOM     39 OD2  ASP C   7     -18.519   9.319  21.015  1.00 27.82 LIG-0.65  OA
ATOM     40 OD1  ASP C   7     -17.813   8.501  19.023  1.00 32.15 LIG-0.65  OA
ENDBRANCH 37 38
ENDBRANCH 34 37
ENDBRANCH 32 34
ENDBRANCH 29 30
BRANCH 29 41
ATOM     41  CB  PHE C   6     -12.230   9.666  19.246  1.00 21.19 LIG 0.07  C 
BRANCH 41 42
ATOM     42  CG  PHE C   6     -11.279   8.948  20.136  1.00 25.43 LIG-0.06  A 
ATOM     43  CD2 PHE C   6      -9.916   9.276  20.176  1.00 26.31 LIG 0.01  A 
ATOM     44  CE2 PHE C   6      -9.073   8.622  21.072  1.00 29.51 LIG 0.00  A 
ATOM     45  CZ  PHE C   6      -9.546   7.575  21.872  1.00 25.82 LIG 0.00  A 
ATOM     46  CE1 PHE C   6     -10.870   7.229  21.815  1.00 26.71 LIG 0.00  A 
ATOM     47  CD1 PHE C   6     -11.737   7.910  20.923  1.00 21.41 LIG 0.01  A 
ENDBRANCH 41 42
ENDBRANCH 29 41
ENDBRANCH 26 29
ENDBRANCH 1 25
BRANCH 1 48
ATOM     48  CB  LEU C   5     -11.791   9.734  24.175  1.00 26.63 LIG 0.04  C 
BRANCH 48 49
ATOM     49  CG  LEU C   5     -10.328   9.864  24.444  1.00 31.82 LIG-0.02  C 
ATOM     50  CD2 LEU C   5      -9.941   8.686  25.411  1.00 33.90 LIG 0.01  C 
ATOM     51  CD1 LEU C   5      -9.953  11.234  25.023  1.00 30.04 LIG 0.01  C 
ENDBRANCH 48 49
ENDBRANCH 1 48
TORSDOF 19
ENDMDL
MODEL 71
USER: ADFR SOLUTION from run 102
USER: SCORE 15.890488 LL:  -5.597 LR: -11.117 RR:   0.000 FEB:  -5.450
USER: RMSD 2.883524
USER: SEED 101
USER: STATUS no improvement in best in 8 clusters for 5 generations
USER: GENES 21
USER: genes 0 Translation |==|  0.63557 0.63128 0.60886
USER: genes 1 Rotation |==|  0.58842 0.60492 0.46561 0.97957
USER: genes 2 Torsion [C]-CA--N-[C] |==|  0.75064
USER: genes 3 Torsion [N]-C--CA-[N] |==|  0.88680
USER: genes 4 Torsion [C]-CA--N-[C] |==|  0.24095
USER: genes 5 Torsion [N]-C--CA-[N] |==|  0.10556
USER: genes 6 Torsion [C]-CA--CB-[CG] |==|  0.27809
USER: genes 7 Torsion [CA]-CB--CG-[CD1] |==|  0.43608
USER: genes 8 Torsion [C]-CA--N-[C] |==|  0.15869
USER: genes 9 Torsion [N]-C--CA-[N] |==|  0.60043
USER: genes 10 Torsion [N]-CA--C-[N] |==|  0.86888
USER: genes 11 Torsion [C]-N--CA-[C] |==|  0.77813
USER: genes 12 Torsion [N]-CA--C-[N] |==|  0.45952
USER: genes 13 Torsion [C]-N--CA-[C] |==|  0.15808
USER: genes 14 Torsion [N]-CA--C-[O] |==|  0.11913
USER: genes 15 Torsion [N]-CA--CB-[CG] |==|  0.89054
USER: genes 16 Torsion [CA]-CB--CG-[OD1] |==|  0.91962
USER: genes 17 Torsion [N]-CA--CB-[CG] |==|  0.85379
USER: genes 18 Torsion [CA]-CB--CG-[CD2] |==|  0.35097
USER: genes 19 Torsion [N]-CA--CB-[CG] |==|  0.21784
USER: genes 20 Torsion [CA]-CB--CG-[CD2] |==|  0.86878
ROOT
ATOM      1  CA  LEU C   5     -12.376  10.809  24.733  1.00 25.10 LIG 0.18  C 
ENDROOT
BRANCH 1 2
ATOM      2  N   LEU C   5     -13.461   9.870  25.225  1.00 25.35 LIG-0.35  N 
ATOM      3  C   GLY C   4     -14.489  10.348  25.983  1.00 24.95 LIG 0.24  C 
ATOM      4 O    GLY C   4     -14.535  11.543  26.297  1.00 25.89 LIG-0.27  OA
ATOM      5 H    LEU C   5     -13.366   9.048  24.990  1.00 25.35 LIG 0.16  HD
BRANCH 3 6
ATOM      6  CA  GLY C   4     -15.576   9.431  26.427  1.00 25.42 LIG 0.23  C 
BRANCH 6 7
ATOM      7  N   GLY C   4     -16.069   8.442  25.468  1.00 25.00 LIG-0.35  N 
ATOM      8  C   PHE C   3     -15.499   7.222  25.308  1.00 25.70 LIG 0.24  C 
ATOM      9 O    PHE C   3     -14.541   6.830  26.000  1.00 20.17 LIG-0.27  OA
ATOM     10 H    GLY C   4     -16.753   8.706  25.018  1.00 25.00 LIG 0.16  HD
BRANCH 8 11
ATOM     11  CA  PHE C   3     -16.193   6.269  24.335  1.00 26.56 LIG 0.18  C 
BRANCH 11 12
ATOM     12  CB  PHE C   3     -15.191   5.224  23.886  1.00 27.24 LIG 0.07  C 
BRANCH 12 13
ATOM     13  CG  PHE C   3     -15.324   3.943  24.589  1.00 26.12 LIG-0.06  A 
ATOM     14  CD1 PHE C   3     -14.843   2.788  23.994  1.00 28.42 LIG 0.01  A 
ATOM     15  CE1 PHE C   3     -14.919   1.551  24.648  1.00 27.55 LIG 0.00  A 
ATOM     16  CZ  PHE C   3     -15.605   1.454  25.902  1.00 28.40 LIG 0.00  A 
ATOM     17  CE2 PHE C   3     -16.094   2.624  26.513  1.00 22.84 LIG 0.00  A 
ATOM     18  CD2 PHE C   3     -15.996   3.861  25.830  1.00 25.80 LIG 0.01  A 
ENDBRANCH 12 13
ENDBRANCH 11 12
BRANCH 11 19
ATOM     19  N   PHE C   3     -16.709   7.004  23.171  1.00 29.45 LIG-0.35  N 
ATOM     20 H    PHE C   3     -17.554   6.921  23.032  1.00 29.45 LIG 0.16  HD
ATOM     21  C   GLY C   2     -15.885   7.733  22.419  1.00 31.80 LIG 0.25  C 
ATOM     22 O    GLY C   2     -14.634   7.707  22.563  1.00 33.21 LIG-0.27  OA
BRANCH 21 23
ATOM     23  CA  GLY C   2     -16.541   8.526  21.291  1.00 32.25 LIG 0.47  C 
ATOM     24  N   GLY C   2     -15.689   8.590  20.059  1.00 32.96 LIG 0.61  N 
ENDBRANCH 21 23
ENDBRANCH 11 19
ENDBRANCH 8 11
ENDBRANCH 6 7
ENDBRANCH 3 6
ENDBRANCH 1 2
BRANCH 1 25
ATOM     25  C   LEU C   5     -12.634  11.471  23.371  1.00 23.49 LIG 0.24  C 
ATOM     26  N   PHE C   6     -13.046  10.680  22.377  1.00 22.96 LIG-0.35  N 
ATOM     27 H    PHE C   6     -13.209   9.840  22.462  1.00 22.96 LIG 0.16  HD
ATOM     28 O    LEU C   5     -12.567  12.717  23.263  1.00 25.98 LIG-0.27  OA
BRANCH 26 29
ATOM     29  CA  PHE C   6     -13.259  11.220  21.011  1.00 22.19 LIG 0.18  C 
BRANCH 29 30
ATOM     30  C   PHE C   6     -14.573  11.962  20.783  1.00 17.26 LIG 0.24  C 
ATOM     31 O    PHE C   6     -15.499  11.878  21.534  1.00 22.18 LIG-0.27  OA
ATOM     32  N   ASP C   7     -14.643  12.702  19.671  1.00 22.18 LIG-0.35  N 
ATOM     33 H    ASP C   7     -13.999  12.788  19.107  1.00 22.18 LIG 0.16  HD
BRANCH 32 34
ATOM     34  CA  ASP C   7     -15.864  13.444  19.321  1.00 22.70 LIG 0.17  C 
BRANCH 34 35
ATOM     35  C   ASP C   7     -16.321  14.414  20.378  1.00 27.36 LIG 0.22  C 
ATOM     36 O    ASP C   7     -15.508  15.151  20.985  1.00 28.20 LIG-0.29  OA
ENDBRANCH 34 35
BRANCH 34 37
ATOM     37  CB  ASP C   7     -17.003  12.448  19.065  1.00 23.18 LIG 0.15  C 
BRANCH 37 38
ATOM     38  CG  ASP C   7     -16.560  11.209  18.322  1.00 26.80 LIG 0.17  C 
ATOM     39 OD2  ASP C   7     -17.175  10.126  18.574  1.00 27.82 LIG-0.65  OA
ATOM     40 OD1  ASP C   7     -15.566  11.327  17.523  1.00 32.15 LIG-0.65  OA
ENDBRANCH 37 38
ENDBRANCH 34 37
ENDBRANCH 32 34
ENDBRANCH 29 30
BRANCH 29 41
ATOM     41  CB  PHE C   6     -13.021  10.141  19.927  1.00 21.19 LIG 0.07  C 
BRANCH 41 42
ATOM     42  CG  PHE C   6     -11.706   9.457  20.050  1.00 25.43 LIG-0.06  A 
ATOM     43  CD2 PHE C   6     -11.605   8.059  20.117  1.00 26.31 LIG 0.01  A 
ATOM     44  CE2 PHE C   6     -10.351   7.457  20.165  1.00 29.51 LIG 0.00  A 
ATOM     45  CZ  PHE C   6      -9.184   8.228  20.241  1.00 25.82 LIG 0.00  A 
ATOM     46  CE1 PHE C   6      -9.277   9.594  20.207  1.00 26.71 LIG 0.00  A 
ATOM     47  CD1 PHE C   6     -10.552  10.210  20.132  1.00 21.41 LIG 0.01  A 
ENDBRANCH 41 42
ENDBRANCH 29 41
ENDBRANCH 26 29
ENDBRANCH 1 25
BRANCH 1 48
ATOM     48  CB  LEU C   5     -10.902  10.253  24.732  1.00 26.63 LIG 0.04  C 
BRANCH 48 49
ATOM     49  CG  LEU C   5     -10.513   9.337  23.619  1.00 31.82 LIG-0.02  C 
ATOM     50  CD2 LEU C   5     -11.663   8.272  23.488  1.00 33.90 LIG 0.01  C 
ATOM     51  CD1 LEU C   5      -9.144   8.683  23.843  1.00 30.04 LIG 0.01  C 
ENDBRANCH 48 49
ENDBRANCH 1 48
TORSDOF 19
ENDMDL
MODEL 72
USER: ADFR SOLUTION from run 200
USER: SCORE 15.888927 LL:  -5.658 LR: -11.115 RR:   0.000 FEB:  -5.447
USER: RMSD 3.079788
USER: SEED 199
USER: STATUS no improvement in best in 14 clusters for 5 generations
USER: GENES 21
USER: genes 0 Translation |==|  0.62312 0.57119 0.61283
USER: genes 1 Rotation |==|  0.62317 0.59632 0.43329 0.97022
USER: genes 2 Torsion [C]-CA--N-[C] |==|  0.71799
USER: genes 3 Torsion [N]-C--CA-[N] |==|  0.97448
USER: genes 4 Torsion [C]-CA--N-[C] |==|  0.21812
USER: genes 5 Torsion [N]-C--CA-[N] |==|  0.07023
USER: genes 6 Torsion [C]-CA--CB-[CG] |==|  0.45476
USER: genes 7 Torsion [CA]-CB--CG-[CD1] |==|  0.72482
USER: genes 8 Torsion [C]-CA--N-[C] |==|  0.15556
USER: genes 9 Torsion [N]-C--CA-[N] |==|  0.60797
USER: genes 10 Torsion [N]-CA--C-[N] |==|  0.90253
USER: genes 11 Torsion [C]-N--CA-[C] |==|  0.70775
USER: genes 12 Torsion [N]-CA--C-[N] |==|  0.89521
USER: genes 13 Torsion [C]-N--CA-[C] |==|  0.55362
USER: genes 14 Torsion [N]-CA--C-[O] |==|  0.02303
USER: genes 15 Torsion [N]-CA--CB-[CG] |==|  0.09948
USER: genes 16 Torsion [CA]-CB--CG-[OD1] |==|  0.76327
USER: genes 17 Torsion [N]-CA--CB-[CG] |==|  0.81897
USER: genes 18 Torsion [CA]-CB--CG-[CD2] |==|  0.35491
USER: genes 19 Torsion [N]-CA--CB-[CG] |==|  0.47194
USER: genes 20 Torsion [CA]-CB--CG-[CD2] |==|  0.58684
ROOT
ATOM      1  CA  LEU C   5     -12.600   9.502  24.804  1.00 25.10 LIG 0.18  C 
ENDROOT
BRANCH 1 2
ATOM      2  N   LEU C   5     -13.831   8.702  25.186  1.00 25.35 LIG-0.35  N 
ATOM      3  C   GLY C   4     -14.662   9.152  26.170  1.00 24.95 LIG 0.24  C 
ATOM      4 O    GLY C   4     -14.409  10.199  26.777  1.00 25.89 LIG-0.27  OA
ATOM      5 H    LEU C   5     -13.946   7.974  24.742  1.00 25.35 LIG 0.16  HD
BRANCH 3 6
ATOM      6  CA  GLY C   4     -15.894   8.387  26.512  1.00 25.42 LIG 0.23  C 
BRANCH 6 7
ATOM      7  N   GLY C   4     -16.277   7.281  25.634  1.00 25.00 LIG-0.35  N 
ATOM      8  C   PHE C   3     -15.682   6.063  25.680  1.00 25.70 LIG 0.24  C 
ATOM      9 O    PHE C   3     -14.797   5.777  26.509  1.00 20.17 LIG-0.27  OA
ATOM     10 H    GLY C   4     -16.912   7.475  25.088  1.00 25.00 LIG 0.16  HD
BRANCH 8 11
ATOM     11  CA  PHE C   3     -16.263   4.987  24.763  1.00 26.56 LIG 0.18  C 
BRANCH 11 12
ATOM     12  CB  PHE C   3     -15.133   4.093  24.294  1.00 27.24 LIG 0.07  C 
BRANCH 12 13
ATOM     13  CG  PHE C   3     -15.589   2.818  23.727  1.00 26.12 LIG-0.06  A 
ATOM     14  CD1 PHE C   3     -15.566   1.677  24.513  1.00 28.42 LIG 0.01  A 
ATOM     15  CE1 PHE C   3     -16.027   0.449  24.020  1.00 27.55 LIG 0.00  A 
ATOM     16  CZ  PHE C   3     -16.422   0.341  22.647  1.00 28.40 LIG 0.00  A 
ATOM     17  CE2 PHE C   3     -16.450   1.496  21.844  1.00 22.84 LIG 0.00  A 
ATOM     18  CD2 PHE C   3     -15.984   2.725  22.373  1.00 25.80 LIG 0.01  A 
ENDBRANCH 12 13
ENDBRANCH 11 12
BRANCH 11 19
ATOM     19  N   PHE C   3     -16.934   5.599  23.608  1.00 29.45 LIG-0.35  N 
ATOM     20 H    PHE C   3     -17.757   5.372  23.502  1.00 29.45 LIG 0.16  HD
ATOM     21  C   GLY C   2     -16.270   6.439  22.814  1.00 31.80 LIG 0.25  C 
ATOM     22 O    GLY C   2     -15.028   6.625  22.912  1.00 33.21 LIG-0.27  OA
BRANCH 21 23
ATOM     23  CA  GLY C   2     -17.088   7.085  21.698  1.00 32.25 LIG 0.47  C 
ATOM     24  N   GLY C   2     -16.322   7.204  20.415  1.00 32.96 LIG 0.61  N 
ENDBRANCH 21 23
ENDBRANCH 11 19
ENDBRANCH 8 11
ENDBRANCH 6 7
ENDBRANCH 3 6
ENDBRANCH 1 2
BRANCH 1 25
ATOM     25  C   LEU C   5     -12.720  10.341  23.524  1.00 23.49 LIG 0.24  C 
ATOM     26  N   PHE C   6     -13.451   9.833  22.528  1.00 22.96 LIG-0.35  N 
ATOM     27 H    PHE C   6     -13.884   9.091  22.574  1.00 22.96 LIG 0.16  HD
ATOM     28 O    LEU C   5     -12.242  11.498  23.491  1.00 25.98 LIG-0.27  OA
BRANCH 26 29
ATOM     29  CA  PHE C   6     -13.571  10.544  21.230  1.00 22.19 LIG 0.18  C 
BRANCH 29 30
ATOM     30  C   PHE C   6     -14.901  11.247  20.974  1.00 17.26 LIG 0.24  C 
ATOM     31 O    PHE C   6     -14.973  12.311  20.434  1.00 22.18 LIG-0.27  OA
ATOM     32  N   ASP C   7     -15.994  10.612  21.411  1.00 22.18 LIG-0.35  N 
ATOM     33 H    ASP C   7     -15.983   9.846  21.803  1.00 22.18 LIG 0.16  HD
BRANCH 32 34
ATOM     34  CA  ASP C   7     -17.334  11.196  21.251  1.00 22.70 LIG 0.17  C 
BRANCH 34 35
ATOM     35  C   ASP C   7     -18.375  10.613  22.169  1.00 27.36 LIG 0.22  C 
ATOM     36 O    ASP C   7     -18.065   9.821  23.091  1.00 28.20 LIG-0.29  OA
ENDBRANCH 34 35
BRANCH 34 37
ATOM     37  CB  ASP C   7     -17.805  10.986  19.805  1.00 23.18 LIG 0.15  C 
BRANCH 37 38
ATOM     38  CG  ASP C   7     -17.357   9.669  19.215  1.00 26.80 LIG 0.17  C 
ATOM     39 OD2  ASP C   7     -18.150   8.681  19.323  1.00 27.82 LIG-0.65  OA
ATOM     40 OD1  ASP C   7     -16.192   9.628  18.686  1.00 32.15 LIG-0.65  OA
ENDBRANCH 37 38
ENDBRANCH 34 37
ENDBRANCH 32 34
ENDBRANCH 29 30
BRANCH 29 41
ATOM     41  CB  PHE C   6     -13.171   9.634  20.042  1.00 21.19 LIG 0.07  C 
BRANCH 41 42
ATOM     42  CG  PHE C   6     -11.737   9.240  20.053  1.00 25.43 LIG-0.06  A 
ATOM     43  CD2 PHE C   6     -11.340   7.898  19.957  1.00 26.31 LIG 0.01  A 
ATOM     44  CE2 PHE C   6      -9.986   7.579  19.905  1.00 29.51 LIG 0.00  A 
ATOM     45  CZ  PHE C   6      -9.007   8.571  20.040  1.00 25.82 LIG 0.00  A 
ATOM     46  CE1 PHE C   6      -9.388   9.880  20.165  1.00 26.71 LIG 0.00  A 
ATOM     47  CD1 PHE C   6     -10.766  10.212  20.192  1.00 21.41 LIG 0.01  A 
ENDBRANCH 41 42
ENDBRANCH 29 41
ENDBRANCH 26 29
ENDBRANCH 1 25
BRANCH 1 48
ATOM     48  CB  LEU C   5     -11.235   8.718  24.746  1.00 26.63 LIG 0.04  C 
BRANCH 48 49
ATOM     49  CG  LEU C   5     -10.061   9.424  24.153  1.00 31.82 LIG-0.02  C 
ATOM     50  CD2 LEU C   5      -9.164   8.321  23.481  1.00 33.90 LIG 0.01  C 
ATOM     51  CD1 LEU C   5      -9.283  10.249  25.186  1.00 30.04 LIG 0.01  C 
ENDBRANCH 48 49
ENDBRANCH 1 48
TORSDOF 19
ENDMDL
MODEL 73
USER: ADFR SOLUTION from run 184
USER: SCORE 14.914689 LL:  -4.969 LR: -11.103 RR:   0.000 FEB:  -5.436
USER: RMSD 6.469055
USER: SEED 183
USER: STATUS no improvement in best in 10 clusters for 5 generations
USER: GENES 21
USER: genes 0 Translation |==|  0.69519 0.57648 0.42353
USER: genes 1 Rotation |==|  0.56556 0.80328 0.31265 0.84442
USER: genes 2 Torsion [C]-CA--N-[C] |==|  0.67067
USER: genes 3 Torsion [N]-C--CA-[N] |==|  0.83375
USER: genes 4 Torsion [C]-CA--N-[C] |==|  0.20000
USER: genes 5 Torsion [N]-C--CA-[N] |==|  0.92402
USER: genes 6 Torsion [C]-CA--CB-[CG] |==|  0.83112
USER: genes 7 Torsion [CA]-CB--CG-[CD1] |==|  0.22981
USER: genes 8 Torsion [C]-CA--N-[C] |==|  0.80250
USER: genes 9 Torsion [N]-C--CA-[N] |==|  0.51967
USER: genes 10 Torsion [N]-CA--C-[N] |==|  0.95965
USER: genes 11 Torsion [C]-N--CA-[C] |==|  0.62302
USER: genes 12 Torsion [N]-CA--C-[N] |==|  0.31537
USER: genes 13 Torsion [C]-N--CA-[C] |==|  0.62794
USER: genes 14 Torsion [N]-CA--C-[O] |==|  0.95644
USER: genes 15 Torsion [N]-CA--CB-[CG] |==|  0.15822
USER: genes 16 Torsion [CA]-CB--CG-[OD1] |==|  0.83783
USER: genes 17 Torsion [N]-CA--CB-[CG] |==|  0.57746
USER: genes 18 Torsion [CA]-CB--CG-[CD2] |==|  0.61084
USER: genes 19 Torsion [N]-CA--CB-[CG] |==|  0.75562
USER: genes 20 Torsion [CA]-CB--CG-[CD2] |==|  0.12102
ROOT
ATOM      1  CA  LEU C   5     -11.303   9.617  21.397  1.00 25.10 LIG 0.18  C 
ENDROOT
BRANCH 1 2
ATOM      2  N   LEU C   5     -11.660   9.152  22.796  1.00 25.35 LIG-0.35  N 
ATOM      3  C   GLY C   4     -10.851   9.465  23.849  1.00 24.95 LIG 0.24  C 
ATOM      4 O    GLY C   4      -9.808  10.106  23.672  1.00 25.89 LIG-0.27  OA
ATOM      5 H    LEU C   5     -12.386   8.695  22.855  1.00 25.35 LIG 0.16  HD
BRANCH 3 6
ATOM      6  CA  GLY C   4     -11.227   9.045  25.228  1.00 25.42 LIG 0.23  C 
BRANCH 6 7
ATOM      7  N   GLY C   4     -12.495   9.536  25.769  1.00 25.00 LIG-0.35  N 
ATOM      8  C   PHE C   3     -13.702   9.091  25.340  1.00 25.70 LIG 0.24  C 
ATOM      9 O    PHE C   3     -13.823   8.193  24.485  1.00 20.17 LIG-0.27  OA
ATOM     10 H    GLY C   4     -12.402  10.131  26.383  1.00 25.00 LIG 0.16  HD
BRANCH 8 11
ATOM     11  CA  PHE C   3     -14.927   9.634  26.074  1.00 26.56 LIG 0.18  C 
BRANCH 11 12
ATOM     12  CB  PHE C   3     -15.438  10.849  25.327  1.00 27.24 LIG 0.07  C 
BRANCH 12 13
ATOM     13  CG  PHE C   3     -14.462  11.942  25.244  1.00 26.12 LIG-0.06  A 
ATOM     14  CD1 PHE C   3     -13.488  11.910  24.258  1.00 28.42 LIG 0.01  A 
ATOM     15  CE1 PHE C   3     -12.560  12.952  24.124  1.00 27.55 LIG 0.00  A 
ATOM     16  CZ  PHE C   3     -12.542  14.012  25.088  1.00 28.40 LIG 0.00  A 
ATOM     17  CE2 PHE C   3     -13.529  14.050  26.090  1.00 22.84 LIG 0.00  A 
ATOM     18  CD2 PHE C   3     -14.458  12.986  26.196  1.00 25.80 LIG 0.01  A 
ENDBRANCH 12 13
ENDBRANCH 11 12
BRANCH 11 19
ATOM     19  N   PHE C   3     -14.583  10.000  27.455  1.00 29.45 LIG-0.35  N 
ATOM     20 H    PHE C   3     -14.567  10.845  27.616  1.00 29.45 LIG 0.16  HD
ATOM     21  C   GLY C   2     -14.322   9.052  28.354  1.00 31.80 LIG 0.25  C 
ATOM     22 O    GLY C   2     -14.204   7.837  28.045  1.00 33.21 LIG-0.27  OA
BRANCH 21 23
ATOM     23  CA  GLY C   2     -14.064   9.540  29.779  1.00 32.25 LIG 0.47  C 
ATOM     24  N   GLY C   2     -13.614   8.440  30.693  1.00 32.96 LIG 0.61  N 
ENDBRANCH 21 23
ENDBRANCH 11 19
ENDBRANCH 8 11
ENDBRANCH 6 7
ENDBRANCH 3 6
ENDBRANCH 1 2
BRANCH 1 25
ATOM     25  C   LEU C   5     -12.318  10.552  20.725  1.00 23.49 LIG 0.24  C 
ATOM     26  N   PHE C   6     -13.531  10.634  21.279  1.00 22.96 LIG-0.35  N 
ATOM     27 H    PHE C   6     -13.763  10.228  22.001  1.00 22.96 LIG 0.16  HD
ATOM     28 O    LEU C   5     -11.957  11.282  19.774  1.00 25.98 LIG-0.27  OA
BRANCH 26 29
ATOM     29  CA  PHE C   6     -14.597  11.462  20.662  1.00 22.19 LIG 0.18  C 
BRANCH 29 30
ATOM     30  C   PHE C   6     -15.407  12.331  21.620  1.00 17.26 LIG 0.24  C 
ATOM     31 O    PHE C   6     -16.150  11.871  22.436  1.00 22.18 LIG-0.27  OA
ATOM     32  N   ASP C   7     -15.258  13.653  21.482  1.00 22.18 LIG-0.35  N 
ATOM     33 H    ASP C   7     -14.734  14.022  20.908  1.00 22.18 LIG 0.16  HD
BRANCH 32 34
ATOM     34  CA  ASP C   7     -16.003  14.600  22.325  1.00 22.70 LIG 0.17  C 
BRANCH 34 35
ATOM     35  C   ASP C   7     -16.630  15.740  21.568  1.00 27.36 LIG 0.22  C 
ATOM     36 O    ASP C   7     -16.284  16.015  20.394  1.00 28.20 LIG-0.29  OA
ENDBRANCH 34 35
BRANCH 34 37
ATOM     37  CB  ASP C   7     -15.053  15.194  23.375  1.00 23.18 LIG 0.15  C 
BRANCH 37 38
ATOM     38  CG  ASP C   7     -13.845  15.875  22.773  1.00 26.80 LIG 0.17  C 
ATOM     39 OD2  ASP C   7     -13.693  17.113  23.015  1.00 27.82 LIG-0.65  OA
ATOM     40 OD1  ASP C   7     -13.084  15.168  22.024  1.00 32.15 LIG-0.65  OA
ENDBRANCH 37 38
ENDBRANCH 34 37
ENDBRANCH 32 34
ENDBRANCH 29 30
BRANCH 29 41
ATOM     41  CB  PHE C   6     -15.517  10.619  19.745  1.00 21.19 LIG 0.07  C 
BRANCH 41 42
ATOM     42  CG  PHE C   6     -16.134  11.403  18.642  1.00 25.43 LIG-0.06  A 
ATOM     43  CD2 PHE C   6     -17.466  11.201  18.249  1.00 26.31 LIG 0.01  A 
ATOM     44  CE2 PHE C   6     -18.024  12.003  17.256  1.00 29.51 LIG 0.00  A 
ATOM     45  CZ  PHE C   6     -17.249  12.950  16.576  1.00 25.82 LIG 0.00  A 
ATOM     46  CE1 PHE C   6     -15.939  13.131  16.933  1.00 26.71 LIG 0.00  A 
ATOM     47  CD1 PHE C   6     -15.375  12.334  17.962  1.00 21.41 LIG 0.01  A 
ENDBRANCH 41 42
ENDBRANCH 29 41
ENDBRANCH 26 29
ENDBRANCH 1 25
BRANCH 1 48
ATOM     48  CB  LEU C   5     -10.907   8.501  20.358  1.00 26.63 LIG 0.04  C 
BRANCH 48 49
ATOM     49  CG  LEU C   5      -9.472   8.094  20.298  1.00 31.82 LIG-0.02  C 
ATOM     50  CD2 LEU C   5      -8.979   7.958  21.785  1.00 33.90 LIG 0.01  C 
ATOM     51  CD1 LEU C   5      -8.612   9.075  19.492  1.00 30.04 LIG 0.01  C 
ENDBRANCH 48 49
ENDBRANCH 1 48
TORSDOF 19
ENDMDL
MODEL 74
USER: ADFR SOLUTION from run 117
USER: SCORE 15.739798 LL:  -5.338 LR: -11.092 RR:   0.000 FEB:  -5.424
USER: RMSD 3.331625
USER: SEED 116
USER: STATUS no improvement in best in 11 clusters for 5 generations
USER: GENES 21
USER: genes 0 Translation |==|  0.49709 0.57589 0.55198
USER: genes 1 Rotation |==|  0.50483 0.39088 0.60563 0.97635
USER: genes 2 Torsion [C]-CA--N-[C] |==|  0.13333
USER: genes 3 Torsion [N]-C--CA-[N] |==|  0.09549
USER: genes 4 Torsion [C]-CA--N-[C] |==|  0.18478
USER: genes 5 Torsion [N]-C--CA-[N] |==|  0.35837
USER: genes 6 Torsion [C]-CA--CB-[CG] |==|  0.10090
USER: genes 7 Torsion [CA]-CB--CG-[CD1] |==|  0.67845
USER: genes 8 Torsion [C]-CA--N-[C] |==|  0.78859
USER: genes 9 Torsion [N]-C--CA-[N] |==|  0.09997
USER: genes 10 Torsion [N]-CA--C-[N] |==|  0.10027
USER: genes 11 Torsion [C]-N--CA-[C] |==|  0.62906
USER: genes 12 Torsion [N]-CA--C-[N] |==|  0.97969
USER: genes 13 Torsion [C]-N--CA-[C] |==|  0.81487
USER: genes 14 Torsion [N]-CA--C-[O] |==|  0.01588
USER: genes 15 Torsion [N]-CA--CB-[CG] |==|  0.82555
USER: genes 16 Torsion [CA]-CB--CG-[OD1] |==|  0.12252
USER: genes 17 Torsion [N]-CA--CB-[CG] |==|  0.76531
USER: genes 18 Torsion [CA]-CB--CG-[CD2] |==|  0.29128
USER: genes 19 Torsion [N]-CA--CB-[CG] |==|  0.13667
USER: genes 20 Torsion [CA]-CB--CG-[CD2] |==|  0.65584
ROOT
ATOM      1  CA  LEU C   5     -14.868   9.605  23.709  1.00 25.10 LIG 0.18  C 
ENDROOT
BRANCH 1 2
ATOM      2  N   LEU C   5     -15.556   8.255  23.622  1.00 25.35 LIG-0.35  N 
ATOM      3  C   GLY C   4     -14.864   7.159  23.196  1.00 24.95 LIG 0.24  C 
ATOM      4 O    GLY C   4     -13.680   7.258  22.853  1.00 25.89 LIG-0.27  OA
ATOM      5 H    LEU C   5     -16.384   8.251  23.856  1.00 25.35 LIG 0.16  HD
BRANCH 3 6
ATOM      6  CA  GLY C   4     -15.530   5.827  23.155  1.00 25.42 LIG 0.23  C 
BRANCH 6 7
ATOM      7  N   GLY C   4     -16.953   5.785  22.819  1.00 25.00 LIG-0.35  N 
ATOM      8  C   PHE C   3     -17.433   6.126  21.597  1.00 25.70 LIG 0.24  C 
ATOM      9 O    PHE C   3     -16.692   6.454  20.650  1.00 20.17 LIG-0.27  OA
ATOM     10 H    GLY C   4     -17.455   5.524  23.466  1.00 25.00 LIG 0.16  HD
BRANCH 8 11
ATOM     11  CA  PHE C   3     -18.933   5.935  21.377  1.00 26.56 LIG 0.18  C 
BRANCH 11 12
ATOM     12  CB  PHE C   3     -19.137   4.789  20.407  1.00 27.24 LIG 0.07  C 
BRANCH 12 13
ATOM     13  CG  PHE C   3     -18.166   3.699  20.572  1.00 26.12 LIG-0.06  A 
ATOM     14  CD1 PHE C   3     -17.281   3.417  19.544  1.00 28.42 LIG 0.01  A 
ATOM     15  CE1 PHE C   3     -16.317   2.408  19.676  1.00 27.55 LIG 0.00  A 
ATOM     16  CZ  PHE C   3     -16.316   1.579  20.845  1.00 28.40 LIG 0.00  A 
ATOM     17  CE2 PHE C   3     -17.211   1.863  21.892  1.00 22.84 LIG 0.00  A 
ATOM     18  CD2 PHE C   3     -18.170   2.893  21.732  1.00 25.80 LIG 0.01  A 
ENDBRANCH 12 13
ENDBRANCH 11 12
BRANCH 11 19
ATOM     19  N   PHE C   3     -19.537   7.162  20.841  1.00 29.45 LIG-0.35  N 
ATOM     20 H    PHE C   3     -19.721   7.142  20.000  1.00 29.45 LIG 0.16  HD
ATOM     21  C   GLY C   2     -19.763   8.204  21.641  1.00 31.80 LIG 0.25  C 
ATOM     22 O    GLY C   2     -19.341   8.252  22.827  1.00 33.21 LIG-0.27  OA
BRANCH 21 23
ATOM     23  CA  GLY C   2     -20.476   9.393  21.000  1.00 32.25 LIG 0.47  C 
ATOM     24  N   GLY C   2     -21.506   8.974  19.994  1.00 32.96 LIG 0.61  N 
ENDBRANCH 21 23
ENDBRANCH 11 19
ENDBRANCH 8 11
ENDBRANCH 6 7
ENDBRANCH 3 6
ENDBRANCH 1 2
BRANCH 1 25
ATOM     25  C   LEU C   5     -14.055  10.019  22.475  1.00 23.49 LIG 0.24  C 
ATOM     26  N   PHE C   6     -14.538   9.668  21.280  1.00 22.96 LIG-0.35  N 
ATOM     27 H    PHE C   6     -15.285   9.260  21.159  1.00 22.96 LIG 0.16  HD
ATOM     28 O    LEU C   5     -13.053  10.757  22.610  1.00 25.98 LIG-0.27  OA
BRANCH 26 29
ATOM     29  CA  PHE C   6     -13.787   9.969  20.035  1.00 22.19 LIG 0.18  C 
BRANCH 29 30
ATOM     30  C   PHE C   6     -14.600  10.576  18.895  1.00 17.26 LIG 0.24  C 
ATOM     31 O    PHE C   6     -14.096  11.000  17.898  1.00 22.18 LIG-0.27  OA
ATOM     32  N   ASP C   7     -15.924  10.630  19.083  1.00 22.18 LIG-0.35  N 
ATOM     33 H    ASP C   7     -16.324  10.335  19.785  1.00 22.18 LIG 0.16  HD
BRANCH 32 34
ATOM     34  CA  ASP C   7     -16.817  11.216  18.072  1.00 22.70 LIG 0.17  C 
BRANCH 34 35
ATOM     35  C   ASP C   7     -16.640  12.698  17.876  1.00 27.36 LIG 0.22  C 
ATOM     36 O    ASP C   7     -15.724  13.330  18.456  1.00 28.20 LIG-0.29  OA
ENDBRANCH 34 35
BRANCH 34 37
ATOM     37  CB  ASP C   7     -18.275  10.962  18.481  1.00 23.18 LIG 0.15  C 
BRANCH 37 38
ATOM     38  CG  ASP C   7     -18.635   9.495  18.535  1.00 26.80 LIG 0.17  C 
ATOM     39 OD2  ASP C   7     -19.765   9.153  18.064  1.00 27.82 LIG-0.65  OA
ATOM     40 OD1  ASP C   7     -17.796   8.704  19.092  1.00 32.15 LIG-0.65  OA
ENDBRANCH 37 38
ENDBRANCH 34 37
ENDBRANCH 32 34
ENDBRANCH 29 30
BRANCH 29 41
ATOM     41  CB  PHE C   6     -12.960   8.751  19.557  1.00 21.19 LIG 0.07  C 
BRANCH 41 42
ATOM     42  CG  PHE C   6     -11.632   8.640  20.216  1.00 25.43 LIG-0.06  A 
ATOM     43  CD2 PHE C   6     -11.380   7.688  21.215  1.00 26.31 LIG 0.01  A 
ATOM     44  CE2 PHE C   6     -10.103   7.575  21.758  1.00 29.51 LIG 0.00  A 
ATOM     45  CZ  PHE C   6      -9.083   8.461  21.389  1.00 25.82 LIG 0.00  A 
ATOM     46  CE1 PHE C   6      -9.330   9.413  20.437  1.00 26.71 LIG 0.00  A 
ATOM     47  CD1 PHE C   6     -10.623   9.514  19.862  1.00 21.41 LIG 0.01  A 
ENDBRANCH 41 42
ENDBRANCH 29 41
ENDBRANCH 26 29
ENDBRANCH 1 25
BRANCH 1 48
ATOM     48  CB  LEU C   5     -13.985   9.869  24.986  1.00 26.63 LIG 0.04  C 
BRANCH 48 49
ATOM     49  CG  LEU C   5     -12.995   8.819  25.366  1.00 31.82 LIG-0.02  C 
ATOM     50  CD2 LEU C   5     -13.317   8.411  26.850  1.00 33.90 LIG 0.01  C 
ATOM     51  CD1 LEU C   5     -11.543   9.285  25.198  1.00 30.04 LIG 0.01  C 
ENDBRANCH 48 49
ENDBRANCH 1 48
TORSDOF 19
ENDMDL
MODEL 75
USER: ADFR SOLUTION from run 132
USER: SCORE 15.176110 LL:  -4.536 LR: -11.078 RR:   0.000 FEB:  -5.411
USER: RMSD 5.110245
USER: SEED 131
USER: STATUS no improvement in best in 12 clusters for 5 generations
USER: GENES 21
USER: genes 0 Translation |==|  0.63358 0.57558 0.39949
USER: genes 1 Rotation |==|  0.72078 0.74338 0.37449 0.85535
USER: genes 2 Torsion [C]-CA--N-[C] |==|  0.16206
USER: genes 3 Torsion [N]-C--CA-[N] |==|  0.98831
USER: genes 4 Torsion [C]-CA--N-[C] |==|  0.27207
USER: genes 5 Torsion [N]-C--CA-[N] |==|  0.43619
USER: genes 6 Torsion [C]-CA--CB-[CG] |==|  0.23109
USER: genes 7 Torsion [CA]-CB--CG-[CD1] |==|  0.72535
USER: genes 8 Torsion [C]-CA--N-[C] |==|  0.77005
USER: genes 9 Torsion [N]-C--CA-[N] |==|  0.74366
USER: genes 10 Torsion [N]-CA--C-[N] |==|  0.07895
USER: genes 11 Torsion [C]-N--CA-[C] |==|  0.65973
USER: genes 12 Torsion [N]-CA--C-[N] |==|  0.98944
USER: genes 13 Torsion [C]-N--CA-[C] |==|  0.80271
USER: genes 14 Torsion [N]-CA--C-[O] |==|  0.18424
USER: genes 15 Torsion [N]-CA--CB-[CG] |==|  0.89070
USER: genes 16 Torsion [CA]-CB--CG-[OD1] |==|  0.73856
USER: genes 17 Torsion [N]-CA--CB-[CG] |==|  0.67005
USER: genes 18 Torsion [CA]-CB--CG-[CD2] |==|  0.23547
USER: genes 19 Torsion [N]-CA--CB-[CG] |==|  0.75308
USER: genes 20 Torsion [CA]-CB--CG-[CD2] |==|  0.07199
ROOT
ATOM      1  CA  LEU C   5     -12.412   9.598  20.964  1.00 25.10 LIG 0.18  C 
ENDROOT
BRANCH 1 2
ATOM      2  N   LEU C   5     -13.441   8.750  21.688  1.00 25.35 LIG-0.35  N 
ATOM      3  C   GLY C   4     -14.626   8.447  21.084  1.00 24.95 LIG 0.24  C 
ATOM      4 O    GLY C   4     -14.885   8.880  19.955  1.00 25.89 LIG-0.27  OA
ATOM      5 H    LEU C   5     -13.213   8.493  22.476  1.00 25.35 LIG 0.16  HD
BRANCH 3 6
ATOM      6  CA  GLY C   4     -15.616   7.577  21.779  1.00 25.42 LIG 0.23  C 
BRANCH 6 7
ATOM      7  N   GLY C   4     -15.230   6.997  23.065  1.00 25.00 LIG-0.35  N 
ATOM      8  C   PHE C   3     -15.594   7.535  24.256  1.00 25.70 LIG 0.24  C 
ATOM      9 O    PHE C   3     -16.327   8.538  24.346  1.00 20.17 LIG-0.27  OA
ATOM     10 H    GLY C   4     -14.752   6.285  22.996  1.00 25.00 LIG 0.16  HD
BRANCH 8 11
ATOM     11  CA  PHE C   3     -15.191   6.754  25.506  1.00 26.56 LIG 0.18  C 
BRANCH 11 12
ATOM     12  CB  PHE C   3     -16.208   5.654  25.737  1.00 27.24 LIG 0.07  C 
BRANCH 12 13
ATOM     13  CG  PHE C   3     -15.955   4.445  24.945  1.00 26.12 LIG-0.06  A 
ATOM     14  CD1 PHE C   3     -16.662   4.242  23.770  1.00 28.42 LIG 0.01  A 
ATOM     15  CE1 PHE C   3     -16.424   3.117  22.968  1.00 27.55 LIG 0.00  A 
ATOM     16  CZ  PHE C   3     -15.520   2.103  23.421  1.00 28.40 LIG 0.00  A 
ATOM     17  CE2 PHE C   3     -14.798   2.304  24.612  1.00 22.84 LIG 0.00  A 
ATOM     18  CD2 PHE C   3     -15.055   3.454  25.398  1.00 25.80 LIG 0.01  A 
ENDBRANCH 12 13
ENDBRANCH 11 12
BRANCH 11 19
ATOM     19  N   PHE C   3     -15.137   7.643  26.676  1.00 29.45 LIG-0.35  N 
ATOM     20 H    PHE C   3     -15.841   7.640  27.170  1.00 29.45 LIG 0.16  HD
ATOM     21  C   GLY C   2     -14.050   8.379  26.908  1.00 31.80 LIG 0.25  C 
ATOM     22 O    GLY C   2     -13.105   8.473  26.082  1.00 33.21 LIG-0.27  OA
BRANCH 21 23
ATOM     23  CA  GLY C   2     -14.066   9.198  28.198  1.00 32.25 LIG 0.47  C 
ATOM     24  N   GLY C   2     -14.594  10.586  27.994  1.00 32.96 LIG 0.61  N 
ENDBRANCH 21 23
ENDBRANCH 11 19
ENDBRANCH 8 11
ENDBRANCH 6 7
ENDBRANCH 3 6
ENDBRANCH 1 2
BRANCH 1 25
ATOM     25  C   LEU C   5     -12.883  10.993  20.530  1.00 23.49 LIG 0.24  C 
ATOM     26  N   PHE C   6     -13.839  11.569  21.262  1.00 22.96 LIG-0.35  N 
ATOM     27 H    PHE C   6     -14.177  11.226  21.975  1.00 22.96 LIG 0.16  HD
ATOM     28 O    LEU C   5     -12.293  11.586  19.598  1.00 25.98 LIG-0.27  OA
BRANCH 26 29
ATOM     29  CA  PHE C   6     -14.402  12.889  20.880  1.00 22.19 LIG 0.18  C 
BRANCH 29 30
ATOM     30  C   PHE C   6     -14.295  13.990  21.932  1.00 17.26 LIG 0.24  C 
ATOM     31 O    PHE C   6     -14.630  15.118  21.720  1.00 22.18 LIG-0.27  OA
ATOM     32  N   ASP C   7     -13.778  13.627  23.111  1.00 22.18 LIG-0.35  N 
ATOM     33 H    ASP C   7     -13.527  12.827  23.301  1.00 22.18 LIG 0.16  HD
BRANCH 32 34
ATOM     34  CA  ASP C   7     -13.596  14.599  24.199  1.00 22.70 LIG 0.17  C 
BRANCH 34 35
ATOM     35  C   ASP C   7     -12.496  15.598  23.957  1.00 27.36 LIG 0.22  C 
ATOM     36 O    ASP C   7     -12.577  16.452  23.041  1.00 28.20 LIG-0.29  OA
ENDBRANCH 34 35
BRANCH 34 37
ATOM     37  CB  ASP C   7     -13.276  13.847  25.498  1.00 23.18 LIG 0.15  C 
BRANCH 37 38
ATOM     38  CG  ASP C   7     -14.074  12.573  25.665  1.00 26.80 LIG 0.17  C 
ATOM     39 OD2  ASP C   7     -13.633  11.530  25.088  1.00 27.82 LIG-0.65  OA
ATOM     40 OD1  ASP C   7     -15.161  12.644  26.337  1.00 32.15 LIG-0.65  OA
ENDBRANCH 37 38
ENDBRANCH 34 37
ENDBRANCH 32 34
ENDBRANCH 29 30
BRANCH 29 41
ATOM     41  CB  PHE C   6     -15.847  12.759  20.339  1.00 21.19 LIG 0.07  C 
BRANCH 41 42
ATOM     42  CG  PHE C   6     -15.997  13.220  18.934  1.00 25.43 LIG-0.06  A 
ATOM     43  CD2 PHE C   6     -15.723  12.377  17.847  1.00 26.31 LIG 0.01  A 
ATOM     44  CE2 PHE C   6     -15.941  12.829  16.548  1.00 29.51 LIG 0.00  A 
ATOM     45  CZ  PHE C   6     -16.344  14.148  16.302  1.00 25.82 LIG 0.00  A 
ATOM     46  CE1 PHE C   6     -16.584  14.986  17.358  1.00 26.71 LIG 0.00  A 
ATOM     47  CD1 PHE C   6     -16.388  14.521  18.684  1.00 21.41 LIG 0.01  A 
ENDBRANCH 41 42
ENDBRANCH 29 41
ENDBRANCH 26 29
ENDBRANCH 1 25
BRANCH 1 48
ATOM     48  CB  LEU C   5     -11.676   8.930  19.742  1.00 26.63 LIG 0.04  C 
BRANCH 48 49
ATOM     49  CG  LEU C   5     -10.425   8.166  20.025  1.00 31.82 LIG-0.02  C 
ATOM     50  CD2 LEU C   5     -10.524   7.675  21.516  1.00 33.90 LIG 0.01  C 
ATOM     51  CD1 LEU C   5      -9.157   8.992  19.773  1.00 30.04 LIG 0.01  C 
ENDBRANCH 48 49
ENDBRANCH 1 48
TORSDOF 19
ENDMDL
MODEL 76
USER: ADFR SOLUTION from run 187
USER: SCORE 14.323495 LL:  -5.760 LR: -11.071 RR:   0.000 FEB:  -5.403
USER: RMSD 7.066505
USER: SEED 186
USER: STATUS no improvement in best in 14 clusters for 5 generations
USER: GENES 21
USER: genes 0 Translation |==|  0.62614 0.50394 0.40634
USER: genes 1 Rotation |==|  0.95896 0.54684 0.67980 0.56950
USER: genes 2 Torsion [C]-CA--N-[C] |==|  0.20731
USER: genes 3 Torsion [N]-C--CA-[N] |==|  0.28067
USER: genes 4 Torsion [C]-CA--N-[C] |==|  0.19103
USER: genes 5 Torsion [N]-C--CA-[N] |==|  0.91774
USER: genes 6 Torsion [C]-CA--CB-[CG] |==|  0.88264
USER: genes 7 Torsion [CA]-CB--CG-[CD1] |==|  0.78946
USER: genes 8 Torsion [C]-CA--N-[C] |==|  0.81379
USER: genes 9 Torsion [N]-C--CA-[N] |==|  0.48452
USER: genes 10 Torsion [N]-CA--C-[N] |==|  0.79715
USER: genes 11 Torsion [C]-N--CA-[C] |==|  0.58611
USER: genes 12 Torsion [N]-CA--C-[N] |==|  0.86410
USER: genes 13 Torsion [C]-N--CA-[C] |==|  0.77246
USER: genes 14 Torsion [N]-CA--C-[O] |==|  0.04569
USER: genes 15 Torsion [N]-CA--CB-[CG] |==|  0.31349
USER: genes 16 Torsion [CA]-CB--CG-[OD1] |==|  0.29856
USER: genes 17 Torsion [N]-CA--CB-[CG] |==|  0.08340
USER: genes 18 Torsion [CA]-CB--CG-[CD2] |==|  0.21613
USER: genes 19 Torsion [N]-CA--CB-[CG] |==|  0.93635
USER: genes 20 Torsion [CA]-CB--CG-[CD2] |==|  0.81039
ROOT
ATOM      1  CA  LEU C   5     -12.545   8.040  21.087  1.00 25.10 LIG 0.18  C 
ENDROOT
BRANCH 1 2
ATOM      2  N   LEU C   5     -13.192   8.555  19.814  1.00 25.35 LIG-0.35  N 
ATOM      3  C   GLY C   4     -13.204   9.892  19.545  1.00 24.95 LIG 0.24  C 
ATOM      4 O    GLY C   4     -12.713  10.698  20.343  1.00 25.89 LIG-0.27  OA
ATOM      5 H    LEU C   5     -13.532   7.949  19.307  1.00 25.35 LIG 0.16  HD
BRANCH 3 6
ATOM      6  CA  GLY C   4     -13.800  10.389  18.273  1.00 25.42 LIG 0.23  C 
BRANCH 6 7
ATOM      7  N   GLY C   4     -15.148  10.955  18.326  1.00 25.00 LIG-0.35  N 
ATOM      8  C   PHE C   3     -15.432  12.129  18.942  1.00 25.70 LIG 0.24  C 
ATOM      9 O    PHE C   3     -14.556  12.842  19.468  1.00 20.17 LIG-0.27  OA
ATOM     10 H    GLY C   4     -15.741  10.475  17.930  1.00 25.00 LIG 0.16  HD
BRANCH 8 11
ATOM     11  CA  PHE C   3     -16.871  12.629  18.824  1.00 26.56 LIG 0.18  C 
BRANCH 11 12
ATOM     12  CB  PHE C   3     -17.663  12.099  20.002  1.00 27.24 LIG 0.07  C 
BRANCH 12 13
ATOM     13  CG  PHE C   3     -17.373  10.696  20.323  1.00 26.12 LIG-0.06  A 
ATOM     14  CD1 PHE C   3     -17.896   9.694  19.521  1.00 28.42 LIG 0.01  A 
ATOM     15  CE1 PHE C   3     -17.613   8.345  19.773  1.00 27.55 LIG 0.00  A 
ATOM     16  CZ  PHE C   3     -16.867   7.984  20.941  1.00 28.40 LIG 0.00  A 
ATOM     17  CE2 PHE C   3     -16.332   8.997  21.758  1.00 22.84 LIG 0.00  A 
ATOM     18  CD2 PHE C   3     -16.630  10.353  21.474  1.00 25.80 LIG 0.01  A 
ENDBRANCH 12 13
ENDBRANCH 11 12
BRANCH 11 19
ATOM     19  N   PHE C   3     -17.475  12.174  17.565  1.00 29.45 LIG-0.35  N 
ATOM     20 H    PHE C   3     -18.117  11.607  17.651  1.00 29.45 LIG 0.16  HD
ATOM     21  C   GLY C   2     -17.023  12.635  16.399  1.00 31.80 LIG 0.25  C 
ATOM     22 O    GLY C   2     -15.985  13.341  16.306  1.00 33.21 LIG-0.27  OA
BRANCH 21 23
ATOM     23  CA  GLY C   2     -17.782  12.165  15.159  1.00 32.25 LIG 0.47  C 
ATOM     24  N   GLY C   2     -17.301  12.828  13.903  1.00 32.96 LIG 0.61  N 
ENDBRANCH 21 23
ENDBRANCH 11 19
ENDBRANCH 8 11
ENDBRANCH 6 7
ENDBRANCH 3 6
ENDBRANCH 1 2
BRANCH 1 25
ATOM     25  C   LEU C   5     -13.338   8.275  22.380  1.00 23.49 LIG 0.24  C 
ATOM     26  N   PHE C   6     -13.381   9.524  22.851  1.00 22.96 LIG-0.35  N 
ATOM     27 H    PHE C   6     -13.027  10.203  22.459  1.00 22.96 LIG 0.16  HD
ATOM     28 O    LEU C   5     -14.004   7.339  22.881  1.00 25.98 LIG-0.27  OA
BRANCH 26 29
ATOM     29  CA  PHE C   6     -14.070   9.834  24.129  1.00 22.19 LIG 0.18  C 
BRANCH 29 30
ATOM     30  C   PHE C   6     -14.700  11.221  24.229  1.00 17.26 LIG 0.24  C 
ATOM     31 O    PHE C   6     -15.829  11.393  24.581  1.00 22.18 LIG-0.27  OA
ATOM     32  N   ASP C   7     -13.918  12.247  23.873  1.00 22.18 LIG-0.35  N 
ATOM     33 H    ASP C   7     -13.102  12.165  23.616  1.00 22.18 LIG 0.16  HD
BRANCH 32 34
ATOM     34  CA  ASP C   7     -14.413  13.632  23.898  1.00 22.70 LIG 0.17  C 
BRANCH 34 35
ATOM     35  C   ASP C   7     -15.211  14.023  22.683  1.00 27.36 LIG 0.22  C 
ATOM     36 O    ASP C   7     -15.678  13.161  21.900  1.00 28.20 LIG-0.29  OA
ENDBRANCH 34 35
BRANCH 34 37
ATOM     37  CB  ASP C   7     -13.221  14.591  24.012  1.00 23.18 LIG 0.15  C 
BRANCH 37 38
ATOM     38  CG  ASP C   7     -13.013  15.437  22.776  1.00 26.80 LIG 0.17  C 
ATOM     39 OD2  ASP C   7     -12.510  14.868  21.758  1.00 27.82 LIG-0.65  OA
ATOM     40 OD1  ASP C   7     -13.316  16.679  22.856  1.00 32.15 LIG-0.65  OA
ENDBRANCH 37 38
ENDBRANCH 34 37
ENDBRANCH 32 34
ENDBRANCH 29 30
BRANCH 29 41
ATOM     41  CB  PHE C   6     -13.170   9.531  25.352  1.00 21.19 LIG 0.07  C 
BRANCH 41 42
ATOM     42  CG  PHE C   6     -11.718   9.693  25.074  1.00 25.43 LIG-0.06  A 
ATOM     43  CD2 PHE C   6     -11.113  10.958  25.023  1.00 26.31 LIG 0.01  A 
ATOM     44  CE2 PHE C   6      -9.739  11.061  24.826  1.00 29.51 LIG 0.00  A 
ATOM     45  CZ  PHE C   6      -8.959   9.922  24.584  1.00 25.82 LIG 0.00  A 
ATOM     46  CE1 PHE C   6      -9.548   8.687  24.602  1.00 26.71 LIG 0.00  A 
ATOM     47  CD1 PHE C   6     -10.944   8.576  24.828  1.00 21.41 LIG 0.01  A 
ENDBRANCH 41 42
ENDBRANCH 29 41
ENDBRANCH 26 29
ENDBRANCH 1 25
BRANCH 1 48
ATOM     48  CB  LEU C   5     -11.052   8.468  21.347  1.00 26.63 LIG 0.04  C 
BRANCH 48 49
ATOM     49  CG  LEU C   5     -10.235   8.867  20.163  1.00 31.82 LIG-0.02  C 
ATOM     50  CD2 LEU C   5     -10.016   7.567  19.306  1.00 33.90 LIG 0.01  C 
ATOM     51  CD1 LEU C   5      -8.909   9.530  20.555  1.00 30.04 LIG 0.01  C 
ENDBRANCH 48 49
ENDBRANCH 1 48
TORSDOF 19
ENDMDL
MODEL 77
USER: ADFR SOLUTION from run 132
USER: SCORE 15.386299 LL:  -5.682 LR: -11.065 RR:   0.000 FEB:  -5.397
USER: RMSD 7.688316
USER: SEED 131
USER: STATUS no improvement in best in 12 clusters for 5 generations
USER: GENES 21
USER: genes 0 Translation |==|  0.66103 0.59264 0.34275
USER: genes 1 Rotation |==|  0.29628 0.75526 0.34303 0.84453
USER: genes 2 Torsion [C]-CA--N-[C] |==|  0.19879
USER: genes 3 Torsion [N]-C--CA-[N] |==|  0.02597
USER: genes 4 Torsion [C]-CA--N-[C] |==|  0.17778
USER: genes 5 Torsion [N]-C--CA-[N] |==|  0.58245
USER: genes 6 Torsion [C]-CA--CB-[CG] |==|  0.40657
USER: genes 7 Torsion [CA]-CB--CG-[CD1] |==|  0.03678
USER: genes 8 Torsion [C]-CA--N-[C] |==|  0.68757
USER: genes 9 Torsion [N]-C--CA-[N] |==|  0.76772
USER: genes 10 Torsion [N]-CA--C-[N] |==|  0.97144
USER: genes 11 Torsion [C]-N--CA-[C] |==|  0.75893
USER: genes 12 Torsion [N]-CA--C-[N] |==|  0.99161
USER: genes 13 Torsion [C]-N--CA-[C] |==|  0.67987
USER: genes 14 Torsion [N]-CA--C-[O] |==|  0.03061
USER: genes 15 Torsion [N]-CA--CB-[CG] |==|  0.06340
USER: genes 16 Torsion [CA]-CB--CG-[OD1] |==|  0.17818
USER: genes 17 Torsion [N]-CA--CB-[CG] |==|  0.07785
USER: genes 18 Torsion [CA]-CB--CG-[CD2] |==|  0.18552
USER: genes 19 Torsion [N]-CA--CB-[CG] |==|  0.89086
USER: genes 20 Torsion [CA]-CB--CG-[CD2] |==|  0.61552
ROOT
ATOM      1  CA  LEU C   5     -11.917   9.969  19.942  1.00 25.10 LIG 0.18  C 
ENDROOT
BRANCH 1 2
ATOM      2  N   LEU C   5     -11.913  10.573  21.334  1.00 25.35 LIG-0.35  N 
ATOM      3  C   GLY C   4     -12.014   9.769  22.431  1.00 24.95 LIG 0.24  C 
ATOM      4 O    GLY C   4     -12.135   8.545  22.303  1.00 25.89 LIG-0.27  OA
ATOM      5 H    LEU C   5     -11.844  11.430  21.360  1.00 25.35 LIG 0.16  HD
BRANCH 3 6
ATOM      6  CA  GLY C   4     -11.964  10.361  23.797  1.00 25.42 LIG 0.23  C 
BRANCH 6 7
ATOM      7  N   GLY C   4     -12.017  11.819  23.911  1.00 25.00 LIG-0.35  N 
ATOM      8  C   PHE C   3     -13.092  12.551  23.527  1.00 25.70 LIG 0.24  C 
ATOM      9 O    PHE C   3     -14.138  12.033  23.093  1.00 20.17 LIG-0.27  OA
ATOM     10 H    GLY C   4     -11.304  12.167  24.244  1.00 25.00 LIG 0.16  HD
BRANCH 8 11
ATOM     11  CA  PHE C   3     -13.026  14.052  23.802  1.00 26.56 LIG 0.18  C 
BRANCH 11 12
ATOM     12  CB  PHE C   3     -12.168  14.281  25.030  1.00 27.24 LIG 0.07  C 
BRANCH 12 13
ATOM     13  CG  PHE C   3     -11.392  15.527  24.981  1.00 26.12 LIG-0.06  A 
ATOM     14  CD1 PHE C   3     -11.698  16.480  24.023  1.00 28.42 LIG 0.01  A 
ATOM     15  CE1 PHE C   3     -11.004  17.697  23.967  1.00 27.55 LIG 0.00  A 
ATOM     16  CZ  PHE C   3      -9.887  17.916  24.837  1.00 28.40 LIG 0.00  A 
ATOM     17  CE2 PHE C   3      -9.574  16.952  25.813  1.00 22.84 LIG 0.00  A 
ATOM     18  CD2 PHE C   3     -10.297  15.735  25.849  1.00 25.80 LIG 0.01  A 
ENDBRANCH 12 13
ENDBRANCH 11 12
BRANCH 11 19
ATOM     19  N   PHE C   3     -14.373  14.598  24.020  1.00 29.45 LIG-0.35  N 
ATOM     20 H    PHE C   3     -14.763  14.330  24.739  1.00 29.45 LIG 0.16  HD
ATOM     21  C   GLY C   2     -14.906  15.442  23.137  1.00 31.80 LIG 0.25  C 
ATOM     22 O    GLY C   2     -14.370  15.687  22.025  1.00 33.21 LIG-0.27  OA
BRANCH 21 23
ATOM     23  CA  GLY C   2     -16.272  16.016  23.508  1.00 32.25 LIG 0.47  C 
ATOM     24  N   GLY C   2     -17.401  15.100  23.144  1.00 32.96 LIG 0.61  N 
ENDBRANCH 21 23
ENDBRANCH 11 19
ENDBRANCH 8 11
ENDBRANCH 6 7
ENDBRANCH 3 6
ENDBRANCH 1 2
BRANCH 1 25
ATOM     25  C   LEU C   5     -13.264   9.410  19.462  1.00 23.49 LIG 0.24  C 
ATOM     26  N   PHE C   6     -14.241   9.310  20.367  1.00 22.96 LIG-0.35  N 
ATOM     27 H    PHE C   6     -14.174   9.571  21.184  1.00 22.96 LIG 0.16  HD
ATOM     28 O    LEU C   5     -13.443   9.180  18.244  1.00 25.98 LIG-0.27  OA
BRANCH 26 29
ATOM     29  CA  PHE C   6     -15.556   8.721  20.009  1.00 22.19 LIG 0.18  C 
BRANCH 29 30
ATOM     30  C   PHE C   6     -16.581   9.686  19.418  1.00 17.26 LIG 0.24  C 
ATOM     31 O    PHE C   6     -17.649   9.327  19.021  1.00 22.18 LIG-0.27  OA
ATOM     32  N   ASP C   7     -16.206  10.968  19.345  1.00 22.18 LIG-0.35  N 
ATOM     33 H    ASP C   7     -15.447  11.265  19.621  1.00 22.18 LIG 0.16  HD
BRANCH 32 34
ATOM     34  CA  ASP C   7     -17.090  11.993  18.771  1.00 22.70 LIG 0.17  C 
BRANCH 34 35
ATOM     35  C   ASP C   7     -16.565  12.625  17.510  1.00 27.36 LIG 0.22  C 
ATOM     36 O    ASP C   7     -15.574  12.151  16.904  1.00 28.20 LIG-0.29  OA
ENDBRANCH 34 35
BRANCH 34 37
ATOM     37  CB  ASP C   7     -17.308  13.107  19.805  1.00 23.18 LIG 0.15  C 
BRANCH 37 38
ATOM     38  CG  ASP C   7     -16.212  13.182  20.844  1.00 26.80 LIG 0.17  C 
ATOM     39 OD2  ASP C   7     -16.542  12.985  22.055  1.00 27.82 LIG-0.65  OA
ATOM     40 OD1  ASP C   7     -15.035  13.482  20.437  1.00 32.15 LIG-0.65  OA
ENDBRANCH 37 38
ENDBRANCH 34 37
ENDBRANCH 32 34
ENDBRANCH 29 30
BRANCH 29 41
ATOM     41  CB  PHE C   6     -16.154   7.905  21.180  1.00 21.19 LIG 0.07  C 
BRANCH 41 42
ATOM     42  CG  PHE C   6     -15.716   8.380  22.519  1.00 25.43 LIG-0.06  A 
ATOM     43  CD2 PHE C   6     -16.097   9.635  23.019  1.00 26.31 LIG 0.01  A 
ATOM     44  CE2 PHE C   6     -15.718  10.012  24.304  1.00 29.51 LIG 0.00  A 
ATOM     45  CZ  PHE C   6     -14.882   9.196  25.078  1.00 25.82 LIG 0.00  A 
ATOM     46  CE1 PHE C   6     -14.482   7.984  24.584  1.00 26.71 LIG 0.00  A 
ATOM     47  CD1 PHE C   6     -14.887   7.584  23.285  1.00 21.41 LIG 0.01  A 
ENDBRANCH 41 42
ENDBRANCH 29 41
ENDBRANCH 26 29
ENDBRANCH 1 25
BRANCH 1 48
ATOM     48  CB  LEU C   5     -10.806   8.896  19.632  1.00 26.63 LIG 0.04  C 
BRANCH 48 49
ATOM     49  CG  LEU C   5      -9.440   9.142  20.183  1.00 31.82 LIG-0.02  C 
ATOM     50  CD2 LEU C   5      -8.421   8.751  19.051  1.00 33.90 LIG 0.01  C 
ATOM     51  CD1 LEU C   5      -9.180   8.374  21.484  1.00 30.04 LIG 0.01  C 
ENDBRANCH 48 49
ENDBRANCH 1 48
TORSDOF 19
ENDMDL
MODEL 78
USER: ADFR SOLUTION from run 151
USER: SCORE 14.865520 LL:  -4.625 LR: -11.060 RR:   0.000 FEB:  -5.392
USER: RMSD 8.181000
USER: SEED 150
USER: STATUS no improvement in best in 13 clusters for 5 generations
USER: GENES 21
USER: genes 0 Translation |==|  0.63355 0.53529 0.54194
USER: genes 1 Rotation |==|  0.89341 0.63652 0.77154 0.55345
USER: genes 2 Torsion [C]-CA--N-[C] |==|  0.60335
USER: genes 3 Torsion [N]-C--CA-[N] |==|  0.96065
USER: genes 4 Torsion [C]-CA--N-[C] |==|  0.22806
USER: genes 5 Torsion [N]-C--CA-[N] |==|  0.22073
USER: genes 6 Torsion [C]-CA--CB-[CG] |==|  0.40604
USER: genes 7 Torsion [CA]-CB--CG-[CD1] |==|  0.59110
USER: genes 8 Torsion [C]-CA--N-[C] |==|  0.76567
USER: genes 9 Torsion [N]-C--CA-[N] |==|  0.36825
USER: genes 10 Torsion [N]-CA--C-[N] |==|  0.43675
USER: genes 11 Torsion [C]-N--CA-[C] |==|  0.16667
USER: genes 12 Torsion [N]-CA--C-[N] |==|  0.02463
USER: genes 13 Torsion [C]-N--CA-[C] |==|  0.75968
USER: genes 14 Torsion [N]-CA--C-[O] |==|  0.82283
USER: genes 15 Torsion [N]-CA--CB-[CG] |==|  0.68514
USER: genes 16 Torsion [CA]-CB--CG-[OD1] |==|  0.52695
USER: genes 17 Torsion [N]-CA--CB-[CG] |==|  0.72371
USER: genes 18 Torsion [CA]-CB--CG-[CD2] |==|  0.47275
USER: genes 19 Torsion [N]-CA--CB-[CG] |==|  0.65765
USER: genes 20 Torsion [CA]-CB--CG-[CD2] |==|  0.52351
ROOT
ATOM      1  CA  LEU C   5     -12.412   8.722  23.528  1.00 25.10 LIG 0.18  C 
ENDROOT
BRANCH 1 2
ATOM      2  N   LEU C   5     -12.681   8.928  22.049  1.00 25.35 LIG-0.35  N 
ATOM      3  C   GLY C   4     -11.871   8.347  21.118  1.00 24.95 LIG 0.24  C 
ATOM      4 O    GLY C   4     -10.898   7.669  21.467  1.00 25.89 LIG-0.27  OA
ATOM      5 H    LEU C   5     -13.360   9.424  21.867  1.00 25.35 LIG 0.16  HD
BRANCH 3 6
ATOM      6  CA  GLY C   4     -12.165   8.515  19.667  1.00 25.42 LIG 0.23  C 
BRANCH 6 7
ATOM      7  N   GLY C   4     -13.481   9.031  19.291  1.00 25.00 LIG-0.35  N 
ATOM      8  C   PHE C   3     -13.784  10.353  19.294  1.00 25.70 LIG 0.24  C 
ATOM      9 O    PHE C   3     -12.948  11.234  19.570  1.00 20.17 LIG-0.27  OA
ATOM     10 H    GLY C   4     -14.043   8.419  19.069  1.00 25.00 LIG 0.16  HD
BRANCH 8 11
ATOM     11  CA  PHE C   3     -15.173  10.734  18.784  1.00 26.56 LIG 0.18  C 
BRANCH 11 12
ATOM     12  CB  PHE C   3     -15.157  12.197  18.388  1.00 27.24 LIG 0.07  C 
BRANCH 12 13
ATOM     13  CG  PHE C   3     -16.022  12.505  17.243  1.00 26.12 LIG-0.06  A 
ATOM     14  CD1 PHE C   3     -15.652  13.508  16.362  1.00 28.42 LIG 0.01  A 
ATOM     15  CE1 PHE C   3     -16.433  13.809  15.238  1.00 27.55 LIG 0.00  A 
ATOM     16  CZ  PHE C   3     -17.692  13.150  15.054  1.00 28.40 LIG 0.00  A 
ATOM     17  CE2 PHE C   3     -18.073  12.130  15.945  1.00 22.84 LIG 0.00  A 
ATOM     18  CD2 PHE C   3     -17.259  11.844  17.069  1.00 25.80 LIG 0.01  A 
ENDBRANCH 12 13
ENDBRANCH 11 12
BRANCH 11 19
ATOM     19  N   PHE C   3     -16.186  10.505  19.822  1.00 29.45 LIG-0.35  N 
ATOM     20 H    PHE C   3     -16.390  11.196  20.293  1.00 29.45 LIG 0.16  HD
ATOM     21  C   GLY C   2     -16.720   9.294  19.982  1.00 31.80 LIG 0.25  C 
ATOM     22 O    GLY C   2     -16.287   8.277  19.381  1.00 33.21 LIG-0.27  OA
BRANCH 21 23
ATOM     23  CA  GLY C   2     -17.828   9.189  21.030  1.00 32.25 LIG 0.47  C 
ATOM     24  N   GLY C   2     -19.030   8.449  20.526  1.00 32.96 LIG 0.61  N 
ENDBRANCH 21 23
ENDBRANCH 11 19
ENDBRANCH 8 11
ENDBRANCH 6 7
ENDBRANCH 3 6
ENDBRANCH 1 2
BRANCH 1 25
ATOM     25  C   LEU C   5     -13.655   8.584  24.419  1.00 23.49 LIG 0.24  C 
ATOM     26  N   PHE C   6     -13.501   7.956  25.587  1.00 22.96 LIG-0.35  N 
ATOM     27 H    PHE C   6     -12.750   7.660  25.884  1.00 22.96 LIG 0.16  HD
ATOM     28 O    LEU C   5     -14.721   9.153  24.090  1.00 25.98 LIG-0.27  OA
BRANCH 26 29
ATOM     29  CA  PHE C   6     -14.661   7.720  26.484  1.00 22.19 LIG 0.18  C 
BRANCH 29 30
ATOM     30  C   PHE C   6     -15.796   6.882  25.902  1.00 17.26 LIG 0.24  C 
ATOM     31 O    PHE C   6     -16.839   6.731  26.465  1.00 22.18 LIG-0.27  OA
ATOM     32  N   ASP C   7     -15.550   6.299  24.724  1.00 22.18 LIG-0.35  N 
ATOM     33 H    ASP C   7     -14.813   6.385  24.288  1.00 22.18 LIG 0.16  HD
BRANCH 32 34
ATOM     34  CA  ASP C   7     -16.551   5.444  24.069  1.00 22.70 LIG 0.17  C 
BRANCH 34 35
ATOM     35  C   ASP C   7     -16.512   4.003  24.505  1.00 27.36 LIG 0.22  C 
ATOM     36 O    ASP C   7     -15.511   3.280  24.287  1.00 28.20 LIG-0.29  OA
ENDBRANCH 34 35
BRANCH 34 37
ATOM     37  CB  ASP C   7     -16.332   5.485  22.550  1.00 23.18 LIG 0.15  C 
BRANCH 37 38
ATOM     38  CG  ASP C   7     -17.464   6.151  21.801  1.00 26.80 LIG 0.17  C 
ATOM     39 OD2  ASP C   7     -18.368   6.717  22.492  1.00 27.82 LIG-0.65  OA
ATOM     40 OD1  ASP C   7     -17.457   6.061  20.523  1.00 32.15 LIG-0.65  OA
ENDBRANCH 37 38
ENDBRANCH 34 37
ENDBRANCH 32 34
ENDBRANCH 29 30
BRANCH 29 41
ATOM     41  CB  PHE C   6     -15.186   9.041  27.098  1.00 21.19 LIG 0.07  C 
BRANCH 41 42
ATOM     42  CG  PHE C   6     -14.709   9.282  28.485  1.00 25.43 LIG-0.06  A 
ATOM     43  CD2 PHE C   6     -14.909  10.510  29.132  1.00 26.31 LIG 0.01  A 
ATOM     44  CE2 PHE C   6     -14.504  10.671  30.455  1.00 29.51 LIG 0.00  A 
ATOM     45  CZ  PHE C   6     -13.814   9.653  31.125  1.00 25.82 LIG 0.00  A 
ATOM     46  CE1 PHE C   6     -13.588   8.462  30.489  1.00 26.71 LIG 0.00  A 
ATOM     47  CD1 PHE C   6     -14.022   8.285  29.151  1.00 21.41 LIG 0.01  A 
ENDBRANCH 41 42
ENDBRANCH 29 41
ENDBRANCH 26 29
ENDBRANCH 1 25
BRANCH 1 48
ATOM     48  CB  LEU C   5     -11.428   9.739  24.218  1.00 26.63 LIG 0.04  C 
BRANCH 48 49
ATOM     49  CG  LEU C   5     -10.227   9.177  24.905  1.00 31.82 LIG-0.02  C 
ATOM     50  CD2 LEU C   5      -9.552  10.366  25.681  1.00 33.90 LIG 0.01  C 
ATOM     51  CD1 LEU C   5      -9.255   8.496  23.933  1.00 30.04 LIG 0.01  C 
ENDBRANCH 48 49
ENDBRANCH 1 48
TORSDOF 19
ENDMDL
MODEL 79
USER: ADFR SOLUTION from run 63
USER: SCORE 15.339983 LL:  -5.147 LR: -11.040 RR:   0.000 FEB:  -5.372
USER: RMSD 4.365470
USER: SEED 62
USER: STATUS no improvement in best in 7 clusters for 5 generations
USER: GENES 21
USER: genes 0 Translation |==|  0.68062 0.58308 0.64782
USER: genes 1 Rotation |==|  0.62359 0.72741 0.33261 0.89369
USER: genes 2 Torsion [C]-CA--N-[C] |==|  0.14587
USER: genes 3 Torsion [N]-C--CA-[N] |==|  0.52347
USER: genes 4 Torsion [C]-CA--N-[C] |==|  0.23244
USER: genes 5 Torsion [N]-C--CA-[N] |==|  0.95712
USER: genes 6 Torsion [C]-CA--CB-[CG] |==|  0.90613
USER: genes 7 Torsion [CA]-CB--CG-[CD1] |==|  0.77450
USER: genes 8 Torsion [C]-CA--N-[C] |==|  0.78555
USER: genes 9 Torsion [N]-C--CA-[N] |==|  0.10733
USER: genes 10 Torsion [N]-CA--C-[N] |==|  0.69352
USER: genes 11 Torsion [C]-N--CA-[C] |==|  0.85209
USER: genes 12 Torsion [N]-CA--C-[N] |==|  0.35556
USER: genes 13 Torsion [C]-N--CA-[C] |==|  0.70459
USER: genes 14 Torsion [N]-CA--C-[O] |==|  0.02308
USER: genes 15 Torsion [N]-CA--CB-[CG] |==|  0.16499
USER: genes 16 Torsion [CA]-CB--CG-[OD1] |==|  0.88411
USER: genes 17 Torsion [N]-CA--CB-[CG] |==|  0.89726
USER: genes 18 Torsion [CA]-CB--CG-[CD2] |==|  0.77089
USER: genes 19 Torsion [N]-CA--CB-[CG] |==|  0.54084
USER: genes 20 Torsion [CA]-CB--CG-[CD2] |==|  0.44886
ROOT
ATOM      1  CA  LEU C   5     -11.565   9.761  25.434  1.00 25.10 LIG 0.18  C 
ENDROOT
BRANCH 1 2
ATOM      2  N   LEU C   5     -12.490   9.242  26.519  1.00 25.35 LIG-0.35  N 
ATOM      3  C   GLY C   4     -13.714   8.738  26.192  1.00 24.95 LIG 0.24  C 
ATOM      4 O    GLY C   4     -14.093   8.721  25.015  1.00 25.89 LIG-0.27  OA
ATOM      5 H    LEU C   5     -12.180   9.296  27.320  1.00 25.35 LIG 0.16  HD
BRANCH 3 6
ATOM      6  CA  GLY C   4     -14.602   8.188  27.255  1.00 25.42 LIG 0.23  C 
BRANCH 6 7
ATOM      7  N   GLY C   4     -15.817   7.490  26.836  1.00 25.00 LIG-0.35  N 
ATOM      8  C   PHE C   3     -15.831   6.183  26.477  1.00 25.70 LIG 0.24  C 
ATOM      9 O    PHE C   3     -14.816   5.462  26.522  1.00 20.17 LIG-0.27  OA
ATOM     10 H    GLY C   4     -16.521   7.985  26.841  1.00 25.00 LIG 0.16  HD
BRANCH 8 11
ATOM     11  CA  PHE C   3     -17.197   5.578  26.158  1.00 26.56 LIG 0.18  C 
BRANCH 11 12
ATOM     12  CB  PHE C   3     -17.315   5.416  24.656  1.00 27.24 LIG 0.07  C 
BRANCH 12 13
ATOM     13  CG  PHE C   3     -16.627   6.466  23.895  1.00 26.12 LIG-0.06  A 
ATOM     14  CD1 PHE C   3     -17.251   7.690  23.709  1.00 28.42 LIG 0.01  A 
ATOM     15  CE1 PHE C   3     -16.612   8.729  23.019  1.00 27.55 LIG 0.00  A 
ATOM     16  CZ  PHE C   3     -15.343   8.492  22.398  1.00 28.40 LIG 0.00  A 
ATOM     17  CE2 PHE C   3     -14.704   7.252  22.585  1.00 22.84 LIG 0.00  A 
ATOM     18  CD2 PHE C   3     -15.372   6.223  23.293  1.00 25.80 LIG 0.01  A 
ENDBRANCH 12 13
ENDBRANCH 11 12
BRANCH 11 19
ATOM     19  N   PHE C   3     -18.275   6.445  26.657  1.00 29.45 LIG-0.35  N 
ATOM     20 H    PHE C   3     -18.669   6.919  26.058  1.00 29.45 LIG 0.16  HD
ATOM     21  C   GLY C   2     -18.579   6.456  27.955  1.00 31.80 LIG 0.25  C 
ATOM     22 O    GLY C   2     -17.880   5.866  28.820  1.00 33.21 LIG-0.27  OA
BRANCH 21 23
ATOM     23  CA  GLY C   2     -19.772   7.324  28.350  1.00 32.25 LIG 0.47  C 
ATOM     24  N   GLY C   2     -20.886   7.264  27.348  1.00 32.96 LIG 0.61  N 
ENDBRANCH 21 23
ENDBRANCH 11 19
ENDBRANCH 8 11
ENDBRANCH 6 7
ENDBRANCH 3 6
ENDBRANCH 1 2
BRANCH 1 25
ATOM     25  C   LEU C   5     -12.173  10.796  24.477  1.00 23.49 LIG 0.24  C 
ATOM     26  N   PHE C   6     -12.390  10.410  23.218  1.00 22.96 LIG-0.35  N 
ATOM     27 H    PHE C   6     -12.245   9.615  22.922  1.00 22.96 LIG 0.16  HD
ATOM     28 O    LEU C   5     -12.550  11.905  24.920  1.00 25.98 LIG-0.27  OA
BRANCH 26 29
ATOM     29  CA  PHE C   6     -12.915  11.362  22.207  1.00 22.19 LIG 0.18  C 
BRANCH 29 30
ATOM     30  C   PHE C   6     -14.198  12.097  22.585  1.00 17.26 LIG 0.24  C 
ATOM     31 O    PHE C   6     -15.185  11.526  22.943  1.00 22.18 LIG-0.27  OA
ATOM     32  N   ASP C   7     -14.167  13.429  22.469  1.00 22.18 LIG-0.35  N 
ATOM     33 H    ASP C   7     -13.476  13.875  22.216  1.00 22.18 LIG 0.16  HD
BRANCH 32 34
ATOM     34  CA  ASP C   7     -15.346  14.252  22.776  1.00 22.70 LIG 0.17  C 
BRANCH 34 35
ATOM     35  C   ASP C   7     -16.037  14.817  21.564  1.00 27.36 LIG 0.22  C 
ATOM     36 O    ASP C   7     -15.714  14.466  20.403  1.00 28.20 LIG-0.29  OA
ENDBRANCH 34 35
BRANCH 34 37
ATOM     37  CB  ASP C   7     -14.923  15.425  23.671  1.00 23.18 LIG 0.15  C 
BRANCH 37 38
ATOM     38  CG  ASP C   7     -13.879  16.316  23.036  1.00 26.80 LIG 0.17  C 
ATOM     39 OD2  ASP C   7     -14.041  17.572  23.142  1.00 27.82 LIG-0.65  OA
ATOM     40 OD1  ASP C   7     -12.927  15.744  22.398  1.00 32.15 LIG-0.65  OA
ENDBRANCH 37 38
ENDBRANCH 34 37
ENDBRANCH 32 34
ENDBRANCH 29 30
BRANCH 29 41
ATOM     41  CB  PHE C   6     -13.026  10.707  20.808  1.00 21.19 LIG 0.07  C 
BRANCH 41 42
ATOM     42  CG  PHE C   6     -11.920   9.760  20.507  1.00 25.43 LIG-0.06  A 
ATOM     43  CD2 PHE C   6     -10.677  10.204  20.032  1.00 26.31 LIG 0.01  A 
ATOM     44  CE2 PHE C   6      -9.648   9.289  19.826  1.00 29.51 LIG 0.00  A 
ATOM     45  CZ  PHE C   6      -9.860   7.915  19.997  1.00 25.82 LIG 0.00  A 
ATOM     46  CE1 PHE C   6     -11.081   7.472  20.431  1.00 26.71 LIG 0.00  A 
ATOM     47  CD1 PHE C   6     -12.124   8.404  20.667  1.00 21.41 LIG 0.01  A 
ENDBRANCH 41 42
ENDBRANCH 29 41
ENDBRANCH 26 29
ENDBRANCH 1 25
BRANCH 1 48
ATOM     48  CB  LEU C   5     -10.812   8.681  24.568  1.00 26.63 LIG 0.04  C 
BRANCH 48 49
ATOM     49  CG  LEU C   5      -9.662   9.145  23.738  1.00 31.82 LIG-0.02  C 
ATOM     50  CD2 LEU C   5      -8.820   7.866  23.378  1.00 33.90 LIG 0.01  C 
ATOM     51  CD1 LEU C   5      -8.816  10.213  24.442  1.00 30.04 LIG 0.01  C 
ENDBRANCH 48 49
ENDBRANCH 1 48
TORSDOF 19
ENDMDL
MODEL 80
USER: ADFR SOLUTION from run 54
USER: SCORE 15.316829 LL:  -4.888 LR: -11.019 RR:   0.000 FEB:  -5.352
USER: RMSD 6.900645
USER: SEED 53
USER: STATUS no improvement in best in 6 clusters for 5 generations
USER: GENES 21
USER: genes 0 Translation |==|  0.66974 0.56965 0.33838
USER: genes 1 Rotation |==|  0.03739 0.51152 0.38815 0.65282
USER: genes 2 Torsion [C]-CA--N-[C] |==|  0.73403
USER: genes 3 Torsion [N]-C--CA-[N] |==|  0.90163
USER: genes 4 Torsion [C]-CA--N-[C] |==|  0.86649
USER: genes 5 Torsion [N]-C--CA-[N] |==|  0.89030
USER: genes 6 Torsion [C]-CA--CB-[CG] |==|  0.96669
USER: genes 7 Torsion [CA]-CB--CG-[CD1] |==|  0.74916
USER: genes 8 Torsion [C]-CA--N-[C] |==|  0.80169
USER: genes 9 Torsion [N]-C--CA-[N] |==|  0.32240
USER: genes 10 Torsion [N]-CA--C-[N] |==|  0.96417
USER: genes 11 Torsion [C]-N--CA-[C] |==|  0.68929
USER: genes 12 Torsion [N]-CA--C-[N] |==|  0.97247
USER: genes 13 Torsion [C]-N--CA-[C] |==|  0.76670
USER: genes 14 Torsion [N]-CA--C-[O] |==|  0.62334
USER: genes 15 Torsion [N]-CA--CB-[CG] |==|  0.19594
USER: genes 16 Torsion [CA]-CB--CG-[OD1] |==|  0.88523
USER: genes 17 Torsion [N]-CA--CB-[CG] |==|  0.85801
USER: genes 18 Torsion [CA]-CB--CG-[CD2] |==|  0.35951
USER: genes 19 Torsion [N]-CA--CB-[CG] |==|  0.53758
USER: genes 20 Torsion [CA]-CB--CG-[CD2] |==|  0.72153
ROOT
ATOM      1  CA  LEU C   5     -11.761   9.469  19.864  1.00 25.10 LIG 0.18  C 
ENDROOT
BRANCH 1 2
ATOM      2  N   LEU C   5     -12.718  10.635  19.701  1.00 25.35 LIG-0.35  N 
ATOM      3  C   GLY C   4     -13.719  10.575  18.775  1.00 24.95 LIG 0.24  C 
ATOM      4 O    GLY C   4     -13.840   9.585  18.045  1.00 25.89 LIG-0.27  OA
ATOM      5 H    LEU C   5     -12.573  11.302  20.223  1.00 25.35 LIG 0.16  HD
BRANCH 3 6
ATOM      6  CA  GLY C   4     -14.684  11.703  18.649  1.00 25.42 LIG 0.23  C 
BRANCH 6 7
ATOM      7  N   GLY C   4     -15.076  12.407  19.870  1.00 25.00 LIG-0.35  N 
ATOM      8  C   PHE C   3     -15.467  11.765  20.999  1.00 25.70 LIG 0.24  C 
ATOM      9 O    PHE C   3     -15.476  10.523  21.097  1.00 20.17 LIG-0.27  OA
ATOM     10 H    GLY C   4     -15.034  13.264  19.805  1.00 25.00 LIG 0.16  HD
BRANCH 8 11
ATOM     11  CA  PHE C   3     -15.751  12.642  22.217  1.00 26.56 LIG 0.18  C 
BRANCH 11 12
ATOM     12  CB  PHE C   3     -17.148  13.215  22.084  1.00 27.24 LIG 0.07  C 
BRANCH 12 13
ATOM     13  CG  PHE C   3     -17.735  13.030  20.752  1.00 26.12 LIG-0.06  A 
ATOM     14  CD1 PHE C   3     -17.545  14.002  19.784  1.00 28.42 LIG 0.01  A 
ATOM     15  CE1 PHE C   3     -18.060  13.846  18.490  1.00 27.55 LIG 0.00  A 
ATOM     16  CZ  PHE C   3     -18.891  12.718  18.190  1.00 28.40 LIG 0.00  A 
ATOM     17  CE2 PHE C   3     -19.086  11.726  19.169  1.00 22.84 LIG 0.00  A 
ATOM     18  CD2 PHE C   3     -18.548  11.909  20.466  1.00 25.80 LIG 0.01  A 
ENDBRANCH 12 13
ENDBRANCH 11 12
BRANCH 11 19
ATOM     19  N   PHE C   3     -14.767  13.729  22.312  1.00 29.45 LIG-0.35  N 
ATOM     20 H    PHE C   3     -15.071  14.513  22.130  1.00 29.45 LIG 0.16  HD
ATOM     21  C   GLY C   2     -13.508  13.465  22.659  1.00 31.80 LIG 0.25  C 
ATOM     22 O    GLY C   2     -13.066  12.291  22.767  1.00 33.21 LIG-0.27  OA
BRANCH 21 23
ATOM     23  CA  GLY C   2     -12.593  14.679  22.814  1.00 32.25 LIG 0.47  C 
ATOM     24  N   GLY C   2     -12.099  14.853  24.219  1.00 32.96 LIG 0.61  N 
ENDBRANCH 21 23
ENDBRANCH 11 19
ENDBRANCH 8 11
ENDBRANCH 6 7
ENDBRANCH 3 6
ENDBRANCH 1 2
BRANCH 1 25
ATOM     25  C   LEU C   5     -12.110   8.470  20.976  1.00 23.49 LIG 0.24  C 
ATOM     26  N   PHE C   6     -13.043   8.839  21.856  1.00 22.96 LIG-0.35  N 
ATOM     27 H    PHE C   6     -13.482   9.578  21.818  1.00 22.96 LIG 0.16  HD
ATOM     28 O    LEU C   5     -11.610   7.322  20.959  1.00 25.98 LIG-0.27  OA
BRANCH 26 29
ATOM     29  CA  PHE C   6     -13.399   7.965  23.002  1.00 22.19 LIG 0.18  C 
BRANCH 29 30
ATOM     30  C   PHE C   6     -14.796   7.350  22.965  1.00 17.26 LIG 0.24  C 
ATOM     31 O    PHE C   6     -15.139   6.484  23.714  1.00 22.18 LIG-0.27  OA
ATOM     32  N   ASP C   7     -15.619   7.821  22.021  1.00 22.18 LIG-0.35  N 
ATOM     33 H    ASP C   7     -15.409   8.443  21.465  1.00 22.18 LIG 0.16  HD
BRANCH 32 34
ATOM     34  CA  ASP C   7     -16.982   7.293  21.861  1.00 22.70 LIG 0.17  C 
BRANCH 34 35
ATOM     35  C   ASP C   7     -17.066   6.042  21.028  1.00 27.36 LIG 0.22  C 
ATOM     36 O    ASP C   7     -17.949   5.899  20.148  1.00 28.20 LIG-0.29  OA
ENDBRANCH 34 35
BRANCH 34 37
ATOM     37  CB  ASP C   7     -17.862   8.363  21.200  1.00 23.18 LIG 0.15  C 
BRANCH 37 38
ATOM     38  CG  ASP C   7     -17.524   8.602  19.746  1.00 26.80 LIG 0.17  C 
ATOM     39 OD2  ASP C   7     -18.494   8.709  18.932  1.00 27.82 LIG-0.65  OA
ATOM     40 OD1  ASP C   7     -16.284   8.634  19.428  1.00 32.15 LIG-0.65  OA
ENDBRANCH 37 38
ENDBRANCH 34 37
ENDBRANCH 32 34
ENDBRANCH 29 30
BRANCH 29 41
ATOM     41  CB  PHE C   6     -13.121   8.659  24.358  1.00 21.19 LIG 0.07  C 
BRANCH 41 42
ATOM     42  CG  PHE C   6     -11.749   9.221  24.466  1.00 25.43 LIG-0.06  A 
ATOM     43  CD2 PHE C   6     -11.523  10.545  24.872  1.00 26.31 LIG 0.01  A 
ATOM     44  CE2 PHE C   6     -10.219  11.010  25.023  1.00 29.51 LIG 0.00  A 
ATOM     45  CZ  PHE C   6      -9.124  10.204  24.687  1.00 25.82 LIG 0.00  A 
ATOM     46  CE1 PHE C   6      -9.338   8.921  24.260  1.00 26.71 LIG 0.00  A 
ATOM     47  CD1 PHE C   6     -10.664   8.435  24.130  1.00 21.41 LIG 0.01  A 
ENDBRANCH 41 42
ENDBRANCH 29 41
ENDBRANCH 26 29
ENDBRANCH 1 25
BRANCH 1 48
ATOM     48  CB  LEU C   5     -10.230   9.821  19.988  1.00 26.63 LIG 0.04  C 
BRANCH 48 49
ATOM     49  CG  LEU C   5      -9.253   8.702  19.838  1.00 31.82 LIG-0.02  C 
ATOM     50  CD2 LEU C   5      -8.816   8.287  21.290  1.00 33.90 LIG 0.01  C 
ATOM     51  CD1 LEU C   5      -8.053   9.079  18.959  1.00 30.04 LIG 0.01  C 
ENDBRANCH 48 49
ENDBRANCH 1 48
TORSDOF 19
ENDMDL
MODEL 81
USER: ADFR SOLUTION from run 154
USER: SCORE 14.601413 LL:  -4.781 LR: -11.015 RR:   0.000 FEB:  -5.347
USER: RMSD 6.893991
USER: SEED 153
USER: STATUS no improvement in best in 18 clusters for 5 generations
USER: GENES 21
USER: genes 0 Translation |==|  0.69603 0.57741 0.44744
USER: genes 1 Rotation |==|  0.57432 0.83182 0.26216 0.77893
USER: genes 2 Torsion [C]-CA--N-[C] |==|  0.70849
USER: genes 3 Torsion [N]-C--CA-[N] |==|  0.93739
USER: genes 4 Torsion [C]-CA--N-[C] |==|  0.87590
USER: genes 5 Torsion [N]-C--CA-[N] |==|  0.17073
USER: genes 6 Torsion [C]-CA--CB-[CG] |==|  0.78640
USER: genes 7 Torsion [CA]-CB--CG-[CD1] |==|  0.76301
USER: genes 8 Torsion [C]-CA--N-[C] |==|  0.74903
USER: genes 9 Torsion [N]-C--CA-[N] |==|  0.91580
USER: genes 10 Torsion [N]-CA--C-[N] |==|  0.03236
USER: genes 11 Torsion [C]-N--CA-[C] |==|  0.65739
USER: genes 12 Torsion [N]-CA--C-[N] |==|  0.91288
USER: genes 13 Torsion [C]-N--CA-[C] |==|  0.48943
USER: genes 14 Torsion [N]-CA--C-[O] |==|  0.60596
USER: genes 15 Torsion [N]-CA--CB-[CG] |==|  0.69307
USER: genes 16 Torsion [CA]-CB--CG-[OD1] |==|  0.83990
USER: genes 17 Torsion [N]-CA--CB-[CG] |==|  0.88467
USER: genes 18 Torsion [CA]-CB--CG-[CD2] |==|  0.73622
USER: genes 19 Torsion [N]-CA--CB-[CG] |==|  0.76634
USER: genes 20 Torsion [CA]-CB--CG-[CD2] |==|  0.11216
ROOT
ATOM      1  CA  LEU C   5     -11.287   9.638  21.827  1.00 25.10 LIG 0.18  C 
ENDROOT
BRANCH 1 2
ATOM      2  N   LEU C   5     -11.384   9.259  23.293  1.00 25.35 LIG-0.35  N 
ATOM      3  C   GLY C   4     -10.389   9.610  24.158  1.00 24.95 LIG 0.24  C 
ATOM      4 O    GLY C   4      -9.389  10.216  23.753  1.00 25.89 LIG-0.27  OA
ATOM      5 H    LEU C   5     -12.092   8.824  23.512  1.00 25.35 LIG 0.16  HD
BRANCH 3 6
ATOM      6  CA  GLY C   4     -10.507   9.276  25.605  1.00 25.42 LIG 0.23  C 
BRANCH 6 7
ATOM      7  N   GLY C   4     -11.848   9.049  26.146  1.00 25.00 LIG-0.35  N 
ATOM      8  C   PHE C   3     -12.904   9.851  25.862  1.00 25.70 LIG 0.24  C 
ATOM      9 O    PHE C   3     -12.824  10.816  25.078  1.00 20.17 LIG-0.27  OA
ATOM     10 H    GLY C   4     -11.903   8.360  26.658  1.00 25.00 LIG 0.16  HD
BRANCH 8 11
ATOM     11  CA  PHE C   3     -14.256   9.421  26.428  1.00 26.56 LIG 0.18  C 
BRANCH 11 12
ATOM     12  CB  PHE C   3     -15.310  10.404  25.959  1.00 27.24 LIG 0.07  C 
BRANCH 12 13
ATOM     13  CG  PHE C   3     -15.293  11.678  26.690  1.00 26.12 LIG-0.06  A 
ATOM     14  CD1 PHE C   3     -15.987  11.784  27.884  1.00 28.42 LIG 0.01  A 
ATOM     15  CE1 PHE C   3     -15.966  12.972  28.629  1.00 27.55 LIG 0.00  A 
ATOM     16  CZ  PHE C   3     -15.313  14.130  28.096  1.00 28.40 LIG 0.00  A 
ATOM     17  CE2 PHE C   3     -14.606  14.027  26.884  1.00 22.84 LIG 0.00  A 
ATOM     18  CD2 PHE C   3     -14.640  12.812  26.157  1.00 25.80 LIG 0.01  A 
ENDBRANCH 12 13
ENDBRANCH 11 12
BRANCH 11 19
ATOM     19  N   PHE C   3     -14.215   9.390  27.897  1.00 29.45 LIG-0.35  N 
ATOM     20 H    PHE C   3     -14.428  10.128  28.284  1.00 29.45 LIG 0.16  HD
ATOM     21  C   GLY C   2     -13.867   8.272  28.533  1.00 31.80 LIG 0.25  C 
ATOM     22 O    GLY C   2     -13.415   7.262  27.933  1.00 33.21 LIG-0.27  OA
BRANCH 21 23
ATOM     23  CA  GLY C   2     -13.945   8.324  30.058  1.00 32.25 LIG 0.47  C 
ATOM     24  N   GLY C   2     -13.689   9.697  30.603  1.00 32.96 LIG 0.61  N 
ENDBRANCH 21 23
ENDBRANCH 11 19
ENDBRANCH 8 11
ENDBRANCH 6 7
ENDBRANCH 3 6
ENDBRANCH 1 2
BRANCH 1 25
ATOM     25  C   LEU C   5     -12.187  10.797  21.377  1.00 23.49 LIG 0.24  C 
ATOM     26  N   PHE C   6     -12.780  11.516  22.334  1.00 22.96 LIG-0.35  N 
ATOM     27 H    PHE C   6     -12.662  11.393  23.177  1.00 22.96 LIG 0.16  HD
ATOM     28 O    LEU C   5     -12.245  11.104  20.164  1.00 25.98 LIG-0.27  OA
BRANCH 26 29
ATOM     29  CA  PHE C   6     -13.718  12.615  21.992  1.00 22.19 LIG 0.18  C 
BRANCH 29 30
ATOM     30  C   PHE C   6     -13.371  13.989  22.557  1.00 17.26 LIG 0.24  C 
ATOM     31 O    PHE C   6     -13.625  15.005  21.982  1.00 22.18 LIG-0.27  OA
ATOM     32  N   ASP C   7     -12.738  13.995  23.736  1.00 22.18 LIG-0.35  N 
ATOM     33 H    ASP C   7     -12.539  13.286  24.180  1.00 22.18 LIG 0.16  HD
BRANCH 32 34
ATOM     34  CA  ASP C   7     -12.323  15.253  24.376  1.00 22.70 LIG 0.17  C 
BRANCH 34 35
ATOM     35  C   ASP C   7     -11.705  15.078  25.737  1.00 27.36 LIG 0.22  C 
ATOM     36 O    ASP C   7     -11.929  15.891  26.666  1.00 28.20 LIG-0.29  OA
ENDBRANCH 34 35
BRANCH 34 37
ATOM     37  CB  ASP C   7     -13.545  16.170  24.523  1.00 23.18 LIG 0.15  C 
BRANCH 37 38
ATOM     38  CG  ASP C   7     -13.497  17.381  23.619  1.00 26.80 LIG 0.17  C 
ATOM     39 OD2  ASP C   7     -14.439  17.517  22.776  1.00 27.82 LIG-0.65  OA
ATOM     40 OD1  ASP C   7     -12.488  18.161  23.734  1.00 32.15 LIG-0.65  OA
ENDBRANCH 37 38
ENDBRANCH 34 37
ENDBRANCH 32 34
ENDBRANCH 29 30
BRANCH 29 41
ATOM     41  CB  PHE C   6     -15.186  12.229  22.298  1.00 21.19 LIG 0.07  C 
BRANCH 41 42
ATOM     42  CG  PHE C   6     -15.525  10.833  21.913  1.00 25.43 LIG-0.06  A 
ATOM     43  CD2 PHE C   6     -16.115  10.532  20.676  1.00 26.31 LIG 0.01  A 
ATOM     44  CE2 PHE C   6     -16.355   9.205  20.329  1.00 29.51 LIG 0.00  A 
ATOM     45  CZ  PHE C   6     -16.103   8.167  21.235  1.00 25.82 LIG 0.00  A 
ATOM     46  CE1 PHE C   6     -15.557   8.457  22.456  1.00 26.71 LIG 0.00  A 
ATOM     47  CD1 PHE C   6     -15.286   9.805  22.803  1.00 21.41 LIG 0.01  A 
ENDBRANCH 41 42
ENDBRANCH 29 41
ENDBRANCH 26 29
ENDBRANCH 1 25
BRANCH 1 48
ATOM     48  CB  LEU C   5     -11.440   8.469  20.782  1.00 26.63 LIG 0.04  C 
BRANCH 48 49
ATOM     49  CG  LEU C   5     -10.221   7.669  20.461  1.00 31.82 LIG-0.02  C 
ATOM     50  CD2 LEU C   5      -9.455   7.449  21.817  1.00 33.90 LIG 0.01  C 
ATOM     51  CD1 LEU C   5      -9.337   8.338  19.401  1.00 30.04 LIG 0.01  C 
ENDBRANCH 48 49
ENDBRANCH 1 48
TORSDOF 19
ENDMDL
MODEL 82
USER: ADFR SOLUTION from run 122
USER: SCORE 14.684990 LL:  -5.336 LR: -10.998 RR:   0.000 FEB:  -5.330
USER: RMSD 5.324864
USER: SEED 121
USER: STATUS no improvement in best in 16 clusters for 5 generations
USER: GENES 21
USER: genes 0 Translation |==|  0.69779 0.58032 0.41619
USER: genes 1 Rotation |==|  0.58762 0.79538 0.32342 0.85199
USER: genes 2 Torsion [C]-CA--N-[C] |==|  0.68754
USER: genes 3 Torsion [N]-C--CA-[N] |==|  0.91937
USER: genes 4 Torsion [C]-CA--N-[C] |==|  0.75154
USER: genes 5 Torsion [N]-C--CA-[N] |==|  0.86265
USER: genes 6 Torsion [C]-CA--CB-[CG] |==|  0.14406
USER: genes 7 Torsion [CA]-CB--CG-[CD1] |==|  0.15255
USER: genes 8 Torsion [C]-CA--N-[C] |==|  0.77824
USER: genes 9 Torsion [N]-C--CA-[N] |==|  0.37320
USER: genes 10 Torsion [N]-CA--C-[N] |==|  0.98370
USER: genes 11 Torsion [C]-N--CA-[C] |==|  0.15556
USER: genes 12 Torsion [N]-CA--C-[N] |==|  0.47935
USER: genes 13 Torsion [C]-N--CA-[C] |==|  0.64583
USER: genes 14 Torsion [N]-CA--C-[O] |==|  0.26315
USER: genes 15 Torsion [N]-CA--CB-[CG] |==|  0.94715
USER: genes 16 Torsion [CA]-CB--CG-[OD1] |==|  0.25506
USER: genes 17 Torsion [N]-CA--CB-[CG] |==|  0.87270
USER: genes 18 Torsion [CA]-CB--CG-[CD2] |==|  0.91886
USER: genes 19 Torsion [N]-CA--CB-[CG] |==|  0.76002
USER: genes 20 Torsion [CA]-CB--CG-[CD2] |==|  0.09447
ROOT
ATOM      1  CA  LEU C   5     -11.256   9.701  21.264  1.00 25.10 LIG 0.18  C 
ENDROOT
BRANCH 1 2
ATOM      2  N   LEU C   5     -11.729   9.145  22.595  1.00 25.35 LIG-0.35  N 
ATOM      3  C   GLY C   4     -11.072   9.469  23.745  1.00 24.95 LIG 0.24  C 
ATOM      4 O    GLY C   4     -10.072  10.196  23.714  1.00 25.89 LIG-0.27  OA
ATOM      5 H    LEU C   5     -12.418   8.632  22.552  1.00 25.35 LIG 0.16  HD
BRANCH 3 6
ATOM      6  CA  GLY C   4     -11.566   8.959  25.055  1.00 25.42 LIG 0.23  C 
BRANCH 6 7
ATOM      7  N   GLY C   4     -12.999   8.700  25.190  1.00 25.00 LIG-0.35  N 
ATOM      8  C   PHE C   3     -13.883   9.642  25.604  1.00 25.70 LIG 0.24  C 
ATOM      9 O    PHE C   3     -13.548  10.815  25.855  1.00 20.17 LIG-0.27  OA
ATOM     10 H    GLY C   4     -13.228   7.897  24.982  1.00 25.00 LIG 0.16  HD
BRANCH 8 11
ATOM     11  CA  PHE C   3     -15.357   9.240  25.599  1.00 26.56 LIG 0.18  C 
BRANCH 11 12
ATOM     12  CB  PHE C   3     -15.591   8.246  26.719  1.00 27.24 LIG 0.07  C 
BRANCH 12 13
ATOM     13  CG  PHE C   3     -15.097   8.704  28.024  1.00 26.12 LIG-0.06  A 
ATOM     14  CD1 PHE C   3     -15.528   9.922  28.524  1.00 28.42 LIG 0.01  A 
ATOM     15  CE1 PHE C   3     -15.108  10.378  29.780  1.00 27.55 LIG 0.00  A 
ATOM     16  CZ  PHE C   3     -14.130   9.630  30.514  1.00 28.40 LIG 0.00  A 
ATOM     17  CE2 PHE C   3     -13.691   8.391  30.013  1.00 22.84 LIG 0.00  A 
ATOM     18  CD2 PHE C   3     -14.139   7.954  28.742  1.00 25.80 LIG 0.01  A 
ENDBRANCH 12 13
ENDBRANCH 11 12
BRANCH 11 19
ATOM     19  N   PHE C   3     -15.726   8.641  24.309  1.00 29.45 LIG-0.35  N 
ATOM     20 H    PHE C   3     -15.758   7.781  24.302  1.00 29.45 LIG 0.16  HD
ATOM     21  C   GLY C   2     -15.981   9.419  23.257  1.00 31.80 LIG 0.25  C 
ATOM     22 O    GLY C   2     -15.773  10.660  23.266  1.00 33.21 LIG-0.27  OA
BRANCH 21 23
ATOM     23  CA  GLY C   2     -16.441   8.696  21.993  1.00 32.25 LIG 0.47  C 
ATOM     24  N   GLY C   2     -17.622   9.358  21.347  1.00 32.96 LIG 0.61  N 
ENDBRANCH 21 23
ENDBRANCH 11 19
ENDBRANCH 8 11
ENDBRANCH 6 7
ENDBRANCH 3 6
ENDBRANCH 1 2
BRANCH 1 25
ATOM     25  C   LEU C   5     -12.202  10.700  20.584  1.00 23.49 LIG 0.24  C 
ATOM     26  N   PHE C   6     -13.394  10.896  21.154  1.00 22.96 LIG-0.35  N 
ATOM     27 H    PHE C   6     -13.646  10.529  21.890  1.00 22.96 LIG 0.16  HD
ATOM     28 O    LEU C   5     -11.798  11.374  19.609  1.00 25.98 LIG-0.27  OA
BRANCH 26 29
ATOM     29  CA  PHE C   6     -14.398  11.795  20.532  1.00 22.19 LIG 0.18  C 
BRANCH 29 30
ATOM     30  C   PHE C   6     -14.787  11.467  19.093  1.00 17.26 LIG 0.24  C 
ATOM     31 O    PHE C   6     -14.215  10.644  18.443  1.00 22.18 LIG-0.27  OA
ATOM     32  N   ASP C   7     -15.800  12.177  18.583  1.00 22.18 LIG-0.35  N 
ATOM     33 H    ASP C   7     -16.236  12.777  19.019  1.00 22.18 LIG 0.16  HD
BRANCH 32 34
ATOM     34  CA  ASP C   7     -16.255  11.977  17.198  1.00 22.70 LIG 0.17  C 
BRANCH 34 35
ATOM     35  C   ASP C   7     -16.326  13.241  16.384  1.00 27.36 LIG 0.22  C 
ATOM     36 O    ASP C   7     -15.375  13.600  15.649  1.00 28.20 LIG-0.29  OA
ENDBRANCH 34 35
BRANCH 34 37
ATOM     37  CB  ASP C   7     -17.652  11.342  17.214  1.00 23.18 LIG 0.15  C 
BRANCH 37 38
ATOM     38  CG  ASP C   7     -17.996  10.683  18.530  1.00 26.80 LIG 0.17  C 
ATOM     39 OD2  ASP C   7     -17.699   9.454  18.662  1.00 27.82 LIG-0.65  OA
ATOM     40 OD1  ASP C   7     -18.602  11.396  19.404  1.00 32.15 LIG-0.65  OA
ENDBRANCH 37 38
ENDBRANCH 34 37
ENDBRANCH 32 34
ENDBRANCH 29 30
BRANCH 29 41
ATOM     41  CB  PHE C   6     -14.007  13.285  20.689  1.00 21.19 LIG 0.07  C 
BRANCH 41 42
ATOM     42  CG  PHE C   6     -13.559  13.639  22.062  1.00 25.43 LIG-0.06  A 
ATOM     43  CD2 PHE C   6     -14.036  12.959  23.192  1.00 26.31 LIG 0.01  A 
ATOM     44  CE2 PHE C   6     -13.540  13.279  24.453  1.00 29.51 LIG 0.00  A 
ATOM     45  CZ  PHE C   6     -12.637  14.336  24.625  1.00 25.82 LIG 0.00  A 
ATOM     46  CE1 PHE C   6     -12.191  15.024  23.529  1.00 26.71 LIG 0.00  A 
ATOM     47  CD1 PHE C   6     -12.674  14.684  22.240  1.00 21.41 LIG 0.01  A 
ENDBRANCH 41 42
ENDBRANCH 29 41
ENDBRANCH 26 29
ENDBRANCH 1 25
BRANCH 1 48
ATOM     48  CB  LEU C   5     -10.795   8.653  20.183  1.00 26.63 LIG 0.04  C 
BRANCH 48 49
ATOM     49  CG  LEU C   5      -9.374   8.196  20.229  1.00 31.82 LIG-0.02  C 
ATOM     50  CD2 LEU C   5      -8.959   8.166  21.745  1.00 33.90 LIG 0.01  C 
ATOM     51  CD1 LEU C   5      -8.441   9.079  19.391  1.00 30.04 LIG 0.01  C 
ENDBRANCH 48 49
ENDBRANCH 1 48
TORSDOF 19
ENDMDL
MODEL 83
USER: ADFR SOLUTION from run 75
USER: SCORE 14.731764 LL:  -4.053 LR: -10.990 RR:   0.000 FEB:  -5.322
USER: RMSD 7.874894
USER: SEED 74
USER: STATUS no improvement in best in 7 clusters for 5 generations
USER: GENES 21
USER: genes 0 Translation |==|  0.66734 0.61640 0.49499
USER: genes 1 Rotation |==|  0.20583 0.59179 0.25250 0.80624
USER: genes 2 Torsion [C]-CA--N-[C] |==|  0.84316
USER: genes 3 Torsion [N]-C--CA-[N] |==|  0.05000
USER: genes 4 Torsion [C]-CA--N-[C] |==|  0.30540
USER: genes 5 Torsion [N]-C--CA-[N] |==|  0.99711
USER: genes 6 Torsion [C]-CA--CB-[CG] |==|  0.61398
USER: genes 7 Torsion [CA]-CB--CG-[CD1] |==|  0.27033
USER: genes 8 Torsion [C]-CA--N-[C] |==|  0.73358
USER: genes 9 Torsion [N]-C--CA-[N] |==|  0.42709
USER: genes 10 Torsion [N]-CA--C-[N] |==|  0.91833
USER: genes 11 Torsion [C]-N--CA-[C] |==|  0.79908
USER: genes 12 Torsion [N]-CA--C-[N] |==|  0.94719
USER: genes 13 Torsion [C]-N--CA-[C] |==|  0.55513
USER: genes 14 Torsion [N]-CA--C-[O] |==|  0.26200
USER: genes 15 Torsion [N]-CA--CB-[CG] |==|  0.66098
USER: genes 16 Torsion [CA]-CB--CG-[OD1] |==|  0.62866
USER: genes 17 Torsion [N]-CA--CB-[CG] |==|  0.89289
USER: genes 18 Torsion [CA]-CB--CG-[CD2] |==|  0.73904
USER: genes 19 Torsion [N]-CA--CB-[CG] |==|  0.07963
USER: genes 20 Torsion [CA]-CB--CG-[CD2] |==|  0.60676
ROOT
ATOM      1  CA  LEU C   5     -11.804  10.486  22.683  1.00 25.10 LIG 0.18  C 
ENDROOT
BRANCH 1 2
ATOM      2  N   LEU C   5     -12.388  11.782  23.213  1.00 25.35 LIG-0.35  N 
ATOM      3  C   GLY C   4     -13.296  12.478  22.471  1.00 24.95 LIG 0.24  C 
ATOM      4 O    GLY C   4     -13.633  12.076  21.351  1.00 25.89 LIG-0.27  OA
ATOM      5 H    LEU C   5     -12.104  12.020  23.989  1.00 25.35 LIG 0.16  HD
BRANCH 3 6
ATOM      6  CA  GLY C   4     -13.902  13.727  23.013  1.00 25.42 LIG 0.23  C 
BRANCH 6 7
ATOM      7  N   GLY C   4     -13.226  14.383  24.133  1.00 25.00 LIG-0.35  N 
ATOM      8  C   PHE C   3     -12.580  15.569  24.012  1.00 25.70 LIG 0.24  C 
ATOM      9 O    PHE C   3     -12.556  16.216  22.948  1.00 20.17 LIG-0.27  OA
ATOM     10 H    GLY C   4     -13.277  13.947  24.872  1.00 25.00 LIG 0.16  HD
BRANCH 8 11
ATOM     11  CA  PHE C   3     -12.009  16.167  25.296  1.00 26.56 LIG 0.18  C 
BRANCH 11 12
ATOM     12  CB  PHE C   3     -10.509  16.310  25.136  1.00 27.24 LIG 0.07  C 
BRANCH 12 13
ATOM     13  CG  PHE C   3      -9.751  15.940  26.338  1.00 26.12 LIG-0.06  A 
ATOM     14  CD1 PHE C   3      -9.203  14.671  26.432  1.00 28.42 LIG 0.01  A 
ATOM     15  CE1 PHE C   3      -8.444  14.292  27.547  1.00 27.55 LIG 0.00  A 
ATOM     16  CZ  PHE C   3      -8.325  15.186  28.660  1.00 28.40 LIG 0.00  A 
ATOM     17  CE2 PHE C   3      -8.878  16.477  28.570  1.00 22.84 LIG 0.00  A 
ATOM     18  CD2 PHE C   3      -9.635  16.834  27.427  1.00 25.80 LIG 0.01  A 
ENDBRANCH 12 13
ENDBRANCH 11 12
BRANCH 11 19
ATOM     19  N   PHE C   3     -12.313  15.305  26.447  1.00 29.45 LIG-0.35  N 
ATOM     20 H    PHE C   3     -11.764  14.653  26.571  1.00 29.45 LIG 0.16  HD
ATOM     21  C   GLY C   2     -13.373  15.559  27.214  1.00 31.80 LIG 0.25  C 
ATOM     22 O    GLY C   2     -14.236  16.426  26.912  1.00 33.21 LIG-0.27  OA
BRANCH 21 23
ATOM     23  CA  GLY C   2     -13.543  14.656  28.434  1.00 32.25 LIG 0.47  C 
ATOM     24  N   GLY C   2     -14.303  15.320  29.542  1.00 32.96 LIG 0.61  N 
ENDBRANCH 21 23
ENDBRANCH 11 19
ENDBRANCH 8 11
ENDBRANCH 6 7
ENDBRANCH 3 6
ENDBRANCH 1 2
BRANCH 1 25
ATOM     25  C   LEU C   5     -12.821   9.399  22.309  1.00 23.49 LIG 0.24  C 
ATOM     26  N   PHE C   6     -13.974   9.384  22.984  1.00 22.96 LIG-0.35  N 
ATOM     27 H    PHE C   6     -14.193   9.962  23.583  1.00 22.96 LIG 0.16  HD
ATOM     28 O    LEU C   5     -12.600   8.650  21.330  1.00 25.98 LIG-0.27  OA
BRANCH 26 29
ATOM     29  CA  PHE C   6     -14.990   8.331  22.736  1.00 22.19 LIG 0.18  C 
BRANCH 29 30
ATOM     30  C   PHE C   6     -15.748   8.432  21.415  1.00 17.26 LIG 0.24  C 
ATOM     31 O    PHE C   6     -16.318   7.503  20.926  1.00 22.18 LIG-0.27  OA
ATOM     32  N   ASP C   7     -15.721   9.627  20.814  1.00 22.18 LIG-0.35  N 
ATOM     33 H    ASP C   7     -15.324  10.319  21.134  1.00 22.18 LIG 0.16  HD
BRANCH 32 34
ATOM     34  CA  ASP C   7     -16.390   9.850  19.523  1.00 22.70 LIG 0.17  C 
BRANCH 34 35
ATOM     35  C   ASP C   7     -15.891  11.054  18.770  1.00 27.36 LIG 0.22  C 
ATOM     36 O    ASP C   7     -14.993  10.956  17.899  1.00 28.20 LIG-0.29  OA
ENDBRANCH 34 35
BRANCH 34 37
ATOM     37  CB  ASP C   7     -17.896  10.029  19.760  1.00 23.18 LIG 0.15  C 
BRANCH 37 38
ATOM     38  CG  ASP C   7     -18.742   9.027  19.008  1.00 26.80 LIG 0.17  C 
ATOM     39 OD2  ASP C   7     -18.360   7.815  19.020  1.00 27.82 LIG-0.65  OA
ATOM     40 OD1  ASP C   7     -19.761   9.475  18.375  1.00 32.15 LIG-0.65  OA
ENDBRANCH 37 38
ENDBRANCH 34 37
ENDBRANCH 32 34
ENDBRANCH 29 30
BRANCH 29 41
ATOM     41  CB  PHE C   6     -15.957   8.175  23.935  1.00 21.19 LIG 0.07  C 
BRANCH 41 42
ATOM     42  CG  PHE C   6     -15.288   8.307  25.257  1.00 25.43 LIG-0.06  A 
ATOM     43  CD2 PHE C   6     -14.824   7.188  25.964  1.00 26.31 LIG 0.01  A 
ATOM     44  CE2 PHE C   6     -14.144   7.362  27.167  1.00 29.51 LIG 0.00  A 
ATOM     45  CZ  PHE C   6     -13.996   8.634  27.733  1.00 25.82 LIG 0.00  A 
ATOM     46  CE1 PHE C   6     -14.475   9.728  27.063  1.00 26.71 LIG 0.00  A 
ATOM     47  CD1 PHE C   6     -15.144   9.557  25.824  1.00 21.41 LIG 0.01  A 
ENDBRANCH 41 42
ENDBRANCH 29 41
ENDBRANCH 26 29
ENDBRANCH 1 25
BRANCH 1 48
ATOM     48  CB  LEU C   5     -10.669   9.815  23.545  1.00 26.63 LIG 0.04  C 
BRANCH 48 49
ATOM     49  CG  LEU C   5     -10.692  10.056  25.019  1.00 31.82 LIG-0.02  C 
ATOM     50  CD2 LEU C   5      -9.195  10.222  25.472  1.00 33.90 LIG 0.01  C 
ATOM     51  CD1 LEU C   5     -11.407   8.939  25.789  1.00 30.04 LIG 0.01  C 
ENDBRANCH 48 49
ENDBRANCH 1 48
TORSDOF 19
ENDMDL
MODEL 84
USER: ADFR SOLUTION from run 129
USER: SCORE 14.367384 LL:  -4.769 LR: -10.987 RR:   0.000 FEB:  -5.319
USER: RMSD 5.891035
USER: SEED 128
USER: STATUS no improvement in best in 13 clusters for 5 generations
USER: GENES 21
USER: genes 0 Translation |==|  0.56697 0.67762 0.34092
USER: genes 1 Rotation |==|  0.37110 0.75126 0.37694 0.89384
USER: genes 2 Torsion [C]-CA--N-[C] |==|  0.71363
USER: genes 3 Torsion [N]-C--CA-[N] |==|  0.00380
USER: genes 4 Torsion [C]-CA--N-[C] |==|  0.20679
USER: genes 5 Torsion [N]-C--CA-[N] |==|  0.21558
USER: genes 6 Torsion [C]-CA--CB-[CG] |==|  0.84249
USER: genes 7 Torsion [CA]-CB--CG-[CD1] |==|  0.36186
USER: genes 8 Torsion [C]-CA--N-[C] |==|  0.78185
USER: genes 9 Torsion [N]-C--CA-[N] |==|  0.36025
USER: genes 10 Torsion [N]-CA--C-[N] |==|  0.06667
USER: genes 11 Torsion [C]-N--CA-[C] |==|  0.20292
USER: genes 12 Torsion [N]-CA--C-[N] |==|  0.44921
USER: genes 13 Torsion [C]-N--CA-[C] |==|  0.56843
USER: genes 14 Torsion [N]-CA--C-[O] |==|  0.84001
USER: genes 15 Torsion [N]-CA--CB-[CG] |==|  0.77183
USER: genes 16 Torsion [CA]-CB--CG-[OD1] |==|  0.35979
USER: genes 17 Torsion [N]-CA--CB-[CG] |==|  0.86640
USER: genes 18 Torsion [CA]-CB--CG-[CD2] |==|  0.39029
USER: genes 19 Torsion [N]-CA--CB-[CG] |==|  0.05642
USER: genes 20 Torsion [CA]-CB--CG-[CD2] |==|  0.53505
ROOT
ATOM      1  CA  LEU C   5     -13.610  11.817  19.910  1.00 25.10 LIG 0.18  C 
ENDROOT
BRANCH 1 2
ATOM      2  N   LEU C   5     -13.831  11.904  21.409  1.00 25.35 LIG-0.35  N 
ATOM      3  C   GLY C   4     -13.907  13.121  22.020  1.00 24.95 LIG 0.24  C 
ATOM      4 O    GLY C   4     -13.772  14.162  21.367  1.00 25.89 LIG-0.27  OA
ATOM      5 H    LEU C   5     -13.899  11.148  21.812  1.00 25.35 LIG 0.16  HD
BRANCH 3 6
ATOM      6  CA  GLY C   4     -14.168  13.203  23.485  1.00 25.42 LIG 0.23  C 
BRANCH 6 7
ATOM      7  N   GLY C   4     -14.305  11.949  24.225  1.00 25.00 LIG-0.35  N 
ATOM      8  C   PHE C   3     -13.250  11.156  24.534  1.00 25.70 LIG 0.24  C 
ATOM      9 O    PHE C   3     -12.075  11.459  24.253  1.00 20.17 LIG-0.27  OA
ATOM     10 H    GLY C   4     -15.116  11.763  24.446  1.00 25.00 LIG 0.16  HD
BRANCH 8 11
ATOM     11  CA  PHE C   3     -13.549   9.930  25.395  1.00 26.56 LIG 0.18  C 
BRANCH 11 12
ATOM     12  CB  PHE C   3     -12.251   9.441  26.007  1.00 27.24 LIG 0.07  C 
BRANCH 12 13
ATOM     13  CG  PHE C   3     -11.215   9.130  25.015  1.00 26.12 LIG-0.06  A 
ATOM     14  CD1 PHE C   3      -9.941   9.652  25.177  1.00 28.42 LIG 0.01  A 
ATOM     15  CE1 PHE C   3      -8.915   9.350  24.272  1.00 27.55 LIG 0.00  A 
ATOM     16  CZ  PHE C   3      -9.210   8.584  23.098  1.00 28.40 LIG 0.00  A 
ATOM     17  CE2 PHE C   3     -10.500   8.050  22.929  1.00 22.84 LIG 0.00  A 
ATOM     18  CD2 PHE C   3     -11.515   8.367  23.865  1.00 25.80 LIG 0.01  A 
ENDBRANCH 12 13
ENDBRANCH 11 12
BRANCH 11 19
ATOM     19  N   PHE C   3     -14.157   8.865  24.585  1.00 29.45 LIG-0.35  N 
ATOM     20 H    PHE C   3     -13.622   8.231  24.354  1.00 29.45 LIG 0.16  HD
ATOM     21  C   GLY C   2     -15.447   8.924  24.259  1.00 31.80 LIG 0.25  C 
ATOM     22 O    GLY C   2     -16.158   9.939  24.483  1.00 33.21 LIG-0.27  OA
BRANCH 21 23
ATOM     23  CA  GLY C   2     -15.995   7.721  23.492  1.00 32.25 LIG 0.47  C 
ATOM     24  N   GLY C   2     -17.254   7.176  24.097  1.00 32.96 LIG 0.61  N 
ENDBRANCH 21 23
ENDBRANCH 11 19
ENDBRANCH 8 11
ENDBRANCH 6 7
ENDBRANCH 3 6
ENDBRANCH 1 2
BRANCH 1 25
ATOM     25  C   LEU C   5     -14.852  11.482  19.071  1.00 23.49 LIG 0.24  C 
ATOM     26  N   PHE C   6     -16.043  11.774  19.601  1.00 22.96 LIG-0.35  N 
ATOM     27 H    PHE C   6     -16.154  12.168  20.357  1.00 22.96 LIG 0.16  HD
ATOM     28 O    LEU C   5     -14.716  11.065  17.898  1.00 25.98 LIG-0.27  OA
BRANCH 26 29
ATOM     29  CA  PHE C   6     -17.299  11.427  18.890  1.00 22.19 LIG 0.18  C 
BRANCH 29 30
ATOM     30  C   PHE C   6     -17.670   9.947  18.874  1.00 17.26 LIG 0.24  C 
ATOM     31 O    PHE C   6     -16.873   9.081  19.083  1.00 22.18 LIG-0.27  OA
ATOM     32  N   ASP C   7     -18.946   9.665  18.587  1.00 22.18 LIG-0.35  N 
ATOM     33 H    ASP C   7     -19.548  10.259  18.432  1.00 22.18 LIG 0.16  HD
BRANCH 32 34
ATOM     34  CA  ASP C   7     -19.425   8.276  18.513  1.00 22.70 LIG 0.17  C 
BRANCH 34 35
ATOM     35  C   ASP C   7     -20.644   8.089  17.649  1.00 27.36 LIG 0.22  C 
ATOM     36 O    ASP C   7     -21.708   8.715  17.875  1.00 28.20 LIG-0.29  OA
ENDBRANCH 34 35
BRANCH 34 37
ATOM     37  CB  ASP C   7     -19.766   7.785  19.927  1.00 23.18 LIG 0.15  C 
BRANCH 37 38
ATOM     38  CG  ASP C   7     -18.558   7.308  20.702  1.00 26.80 LIG 0.17  C 
ATOM     39 OD2  ASP C   7     -17.816   6.438  20.148  1.00 27.82 LIG-0.65  OA
ATOM     40 OD1  ASP C   7     -18.393   7.780  21.881  1.00 32.15 LIG-0.65  OA
ENDBRANCH 37 38
ENDBRANCH 34 37
ENDBRANCH 32 34
ENDBRANCH 29 30
BRANCH 29 41
ATOM     41  CB  PHE C   6     -17.339  12.038  17.468  1.00 21.19 LIG 0.07  C 
BRANCH 41 42
ATOM     42  CG  PHE C   6     -16.975  13.479  17.431  1.00 25.43 LIG-0.06  A 
ATOM     43  CD2 PHE C   6     -16.190  14.016  16.400  1.00 26.31 LIG 0.01  A 
ATOM     44  CE2 PHE C   6     -15.928  15.383  16.369  1.00 29.51 LIG 0.00  A 
ATOM     45  CZ  PHE C   6     -16.359  16.222  17.404  1.00 25.82 LIG 0.00  A 
ATOM     46  CE1 PHE C   6     -17.100  15.700  18.430  1.00 26.71 LIG 0.00  A 
ATOM     47  CD1 PHE C   6     -17.391  14.312  18.451  1.00 21.41 LIG 0.01  A 
ENDBRANCH 41 42
ENDBRANCH 29 41
ENDBRANCH 26 29
ENDBRANCH 1 25
BRANCH 1 48
ATOM     48  CB  LEU C   5     -12.429  10.898  19.419  1.00 26.63 LIG 0.04  C 
BRANCH 48 49
ATOM     49  CG  LEU C   5     -11.933   9.853  20.363  1.00 31.82 LIG-0.02  C 
ATOM     50  CD2 LEU C   5     -10.576   9.320  19.773  1.00 33.90 LIG 0.01  C 
ATOM     51  CD1 LEU C   5     -12.949   8.726  20.585  1.00 30.04 LIG 0.01  C 
ENDBRANCH 48 49
ENDBRANCH 1 48
TORSDOF 19
ENDMDL
MODEL 85
USER: ADFR SOLUTION from run 22
USER: SCORE 15.715291 LL:  -5.682 LR: -10.990 RR:   0.000 FEB:  -5.322
USER: RMSD 6.641823
USER: SEED 21
USER: STATUS no improvement in best in 16 clusters for 5 generations
USER: GENES 21
USER: genes 0 Translation |==|  0.67933 0.57920 0.44634
USER: genes 1 Rotation |==|  0.58890 0.84533 0.24836 0.74397
USER: genes 2 Torsion [C]-CA--N-[C] |==|  0.72649
USER: genes 3 Torsion [N]-C--CA-[N] |==|  0.94872
USER: genes 4 Torsion [C]-CA--N-[C] |==|  0.85910
USER: genes 5 Torsion [N]-C--CA-[N] |==|  0.27059
USER: genes 6 Torsion [C]-CA--CB-[CG] |==|  0.16921
USER: genes 7 Torsion [CA]-CB--CG-[CD1] |==|  0.07971
USER: genes 8 Torsion [C]-CA--N-[C] |==|  0.73889
USER: genes 9 Torsion [N]-C--CA-[N] |==|  0.56405
USER: genes 10 Torsion [N]-CA--C-[N] |==|  0.02420
USER: genes 11 Torsion [C]-N--CA-[C] |==|  0.67804
USER: genes 12 Torsion [N]-CA--C-[N] |==|  0.87099
USER: genes 13 Torsion [C]-N--CA-[C] |==|  0.53424
USER: genes 14 Torsion [N]-CA--C-[O] |==|  0.29512
USER: genes 15 Torsion [N]-CA--CB-[CG] |==|  0.72446
USER: genes 16 Torsion [CA]-CB--CG-[OD1] |==|  0.29389
USER: genes 17 Torsion [N]-CA--CB-[CG] |==|  0.28693
USER: genes 18 Torsion [CA]-CB--CG-[CD2] |==|  0.26749
USER: genes 19 Torsion [N]-CA--CB-[CG] |==|  0.78703
USER: genes 20 Torsion [CA]-CB--CG-[CD2] |==|  0.16810
ROOT
ATOM      1  CA  LEU C   5     -11.588   9.677  21.807  1.00 25.10 LIG 0.18  C 
ENDROOT
BRANCH 1 2
ATOM      2  N   LEU C   5     -11.585   9.242  23.261  1.00 25.35 LIG-0.35  N 
ATOM      3  C   GLY C   4     -10.523   9.540  24.063  1.00 24.95 LIG 0.24  C 
ATOM      4 O    GLY C   4      -9.543  10.144  23.609  1.00 25.89 LIG-0.27  OA
ATOM      5 H    LEU C   5     -12.284   8.811  23.515  1.00 25.35 LIG 0.16  HD
BRANCH 3 6
ATOM      6  CA  GLY C   4     -10.542   9.152  25.501  1.00 25.42 LIG 0.23  C 
BRANCH 6 7
ATOM      7  N   GLY C   4     -11.837   8.838  26.106  1.00 25.00 LIG-0.35  N 
ATOM      8  C   PHE C   3     -12.914   9.656  26.009  1.00 25.70 LIG 0.24  C 
ATOM      9 O    PHE C   3     -12.898  10.716  25.354  1.00 20.17 LIG-0.27  OA
ATOM     10 H    GLY C   4     -11.851   8.088  26.527  1.00 25.00 LIG 0.16  HD
BRANCH 8 11
ATOM     11  CA  PHE C   3     -14.218   9.139  26.613  1.00 26.56 LIG 0.18  C 
BRANCH 11 12
ATOM     12  CB  PHE C   3     -15.365   9.553  25.713  1.00 27.24 LIG 0.07  C 
BRANCH 12 13
ATOM     13  CG  PHE C   3     -15.273   9.007  24.354  1.00 26.12 LIG-0.06  A 
ATOM     14  CD1 PHE C   3     -14.625   7.799  24.149  1.00 28.42 LIG 0.01  A 
ATOM     15  CE1 PHE C   3     -14.546   7.228  22.872  1.00 27.55 LIG 0.00  A 
ATOM     16  CZ  PHE C   3     -15.041   7.954  21.740  1.00 28.40 LIG 0.00  A 
ATOM     17  CE2 PHE C   3     -15.701   9.180  21.942  1.00 22.84 LIG 0.00  A 
ATOM     18  CD2 PHE C   3     -15.771   9.729  23.246  1.00 25.80 LIG 0.01  A 
ENDBRANCH 12 13
ENDBRANCH 11 12
BRANCH 11 19
ATOM     19  N   PHE C   3     -14.415   9.685  27.963  1.00 29.45 LIG-0.35  N 
ATOM     20 H    PHE C   3     -14.798  10.455  27.994  1.00 29.45 LIG 0.16  HD
ATOM     21  C   GLY C   2     -14.011   8.997  29.031  1.00 31.80 LIG 0.25  C 
ATOM     22 O    GLY C   2     -13.319   7.949  28.939  1.00 33.21 LIG-0.27  OA
BRANCH 21 23
ATOM     23  CA  GLY C   2     -14.346   9.616  30.387  1.00 32.25 LIG 0.47  C 
ATOM     24  N   GLY C   2     -13.438   9.137  31.479  1.00 32.96 LIG 0.61  N 
ENDBRANCH 21 23
ENDBRANCH 11 19
ENDBRANCH 8 11
ENDBRANCH 6 7
ENDBRANCH 3 6
ENDBRANCH 1 2
BRANCH 1 25
ATOM     25  C   LEU C   5     -12.370  10.960  21.496  1.00 23.49 LIG 0.24  C 
ATOM     26  N   PHE C   6     -12.819  11.668  22.536  1.00 22.96 LIG-0.35  N 
ATOM     27 H    PHE C   6     -12.666  11.471  23.359  1.00 22.96 LIG 0.16  HD
ATOM     28 O    LEU C   5     -12.463  11.361  20.314  1.00 25.98 LIG-0.27  OA
BRANCH 26 29
ATOM     29  CA  PHE C   6     -13.639  12.888  22.332  1.00 22.19 LIG 0.18  C 
BRANCH 29 30
ATOM     30  C   PHE C   6     -13.018  14.199  22.808  1.00 17.26 LIG 0.24  C 
ATOM     31 O    PHE C   6     -12.998  15.185  22.134  1.00 22.18 LIG-0.27  OA
ATOM     32  N   ASP C   7     -12.470  14.178  24.028  1.00 22.18 LIG-0.35  N 
ATOM     33 H    ASP C   7     -12.465  13.489  24.543  1.00 22.18 LIG 0.16  HD
BRANCH 32 34
ATOM     34  CA  ASP C   7     -11.815  15.367  24.594  1.00 22.70 LIG 0.17  C 
BRANCH 34 35
ATOM     35  C   ASP C   7     -11.005  15.095  25.833  1.00 27.36 LIG 0.22  C 
ATOM     36 O    ASP C   7      -9.750  15.086  25.806  1.00 28.20 LIG-0.29  OA
ENDBRANCH 34 35
BRANCH 34 37
ATOM     37  CB  ASP C   7     -12.883  16.412  24.945  1.00 23.18 LIG 0.15  C 
BRANCH 37 38
ATOM     38  CG  ASP C   7     -13.030  17.493  23.898  1.00 26.80 LIG 0.17  C 
ATOM     39 OD2  ASP C   7     -12.139  18.398  23.866  1.00 27.82 LIG-0.65  OA
ATOM     40 OD1  ASP C   7     -14.066  17.446  23.146  1.00 32.15 LIG-0.65  OA
ENDBRANCH 37 38
ENDBRANCH 34 37
ENDBRANCH 32 34
ENDBRANCH 29 30
BRANCH 29 41
ATOM     41  CB  PHE C   6     -15.076  12.709  22.879  1.00 21.19 LIG 0.07  C 
BRANCH 41 42
ATOM     42  CG  PHE C   6     -15.305  13.394  24.179  1.00 25.43 LIG-0.06  A 
ATOM     43  CD2 PHE C   6     -15.885  14.670  24.249  1.00 26.31 LIG 0.01  A 
ATOM     44  CE2 PHE C   6     -16.142  15.246  25.490  1.00 29.51 LIG 0.00  A 
ATOM     45  CZ  PHE C   6     -15.746  14.612  26.675  1.00 25.82 LIG 0.00  A 
ATOM     46  CE1 PHE C   6     -15.152  13.380  26.612  1.00 26.71 LIG 0.00  A 
ATOM     47  CD1 PHE C   6     -14.913  12.778  25.351  1.00 21.41 LIG 0.01  A 
ENDBRANCH 41 42
ENDBRANCH 29 41
ENDBRANCH 26 29
ENDBRANCH 1 25
BRANCH 1 48
ATOM     48  CB  LEU C   5     -11.995   8.589  20.743  1.00 26.63 LIG 0.04  C 
BRANCH 48 49
ATOM     49  CG  LEU C   5     -10.978   7.554  20.394  1.00 31.82 LIG-0.02  C 
ATOM     50  CD2 LEU C   5     -10.644   6.781  21.722  1.00 33.90 LIG 0.01  C 
ATOM     51  CD1 LEU C   5      -9.724   8.153  19.744  1.00 30.04 LIG 0.01  C 
ENDBRANCH 48 49
ENDBRANCH 1 48
TORSDOF 19
ENDMDL
MODEL 86
USER: ADFR SOLUTION from run 152
USER: SCORE 16.088706 LL:  -5.349 LR: -10.982 RR:   0.000 FEB:  -5.314
USER: RMSD 3.444226
USER: SEED 151
USER: STATUS no improvement in best in 12 clusters for 5 generations
USER: GENES 21
USER: genes 0 Translation |==|  0.61728 0.64958 0.53665
USER: genes 1 Rotation |==|  0.40809 0.59863 0.39205 0.96923
USER: genes 2 Torsion [C]-CA--N-[C] |==|  0.62119
USER: genes 3 Torsion [N]-C--CA-[N] |==|  0.05361
USER: genes 4 Torsion [C]-CA--N-[C] |==|  0.18889
USER: genes 5 Torsion [N]-C--CA-[N] |==|  0.01236
USER: genes 6 Torsion [C]-CA--CB-[CG] |==|  0.75867
USER: genes 7 Torsion [CA]-CB--CG-[CD1] |==|  0.19003
USER: genes 8 Torsion [C]-CA--N-[C] |==|  0.73512
USER: genes 9 Torsion [N]-C--CA-[N] |==|  0.69715
USER: genes 10 Torsion [N]-CA--C-[N] |==|  0.45199
USER: genes 11 Torsion [C]-N--CA-[C] |==|  0.15085
USER: genes 12 Torsion [N]-CA--C-[N] |==|  0.08911
USER: genes 13 Torsion [C]-N--CA-[C] |==|  0.82009
USER: genes 14 Torsion [N]-CA--C-[O] |==|  0.10039
USER: genes 15 Torsion [N]-CA--CB-[CG] |==|  0.94185
USER: genes 16 Torsion [CA]-CB--CG-[OD1] |==|  0.26924
USER: genes 17 Torsion [N]-CA--CB-[CG] |==|  0.94741
USER: genes 18 Torsion [CA]-CB--CG-[CD2] |==|  0.79479
USER: genes 19 Torsion [N]-CA--CB-[CG] |==|  0.96247
USER: genes 20 Torsion [CA]-CB--CG-[CD2] |==|  0.56000
ROOT
ATOM      1  CA  LEU C   5     -12.705  11.207  23.433  1.00 25.10 LIG 0.18  C 
ENDROOT
BRANCH 1 2
ATOM      2  N   LEU C   5     -13.800  11.050  24.471  1.00 25.35 LIG-0.35  N 
ATOM      3  C   GLY C   4     -14.026  12.038  25.384  1.00 24.95 LIG 0.24  C 
ATOM      4 O    GLY C   4     -13.326  13.058  25.392  1.00 25.89 LIG-0.27  OA
ATOM      5 H    LEU C   5     -14.242  10.313  24.428  1.00 25.35 LIG 0.16  HD
BRANCH 3 6
ATOM      6  CA  GLY C   4     -15.131  11.900  26.373  1.00 25.42 LIG 0.23  C 
BRANCH 6 7
ATOM      7  N   GLY C   4     -15.660  10.560  26.624  1.00 25.00 LIG-0.35  N 
ATOM      8  C   PHE C   3     -14.943   9.587  27.240  1.00 25.70 LIG 0.24  C 
ATOM      9 O    PHE C   3     -13.795   9.777  27.685  1.00 20.17 LIG-0.27  OA
ATOM     10 H    GLY C   4     -16.466  10.446  26.345  1.00 25.00 LIG 0.16  HD
BRANCH 8 11
ATOM     11  CA  PHE C   3     -15.673   8.273  27.513  1.00 26.56 LIG 0.18  C 
BRANCH 11 12
ATOM     12  CB  PHE C   3     -14.872   7.140  26.902  1.00 27.24 LIG 0.07  C 
BRANCH 12 13
ATOM     13  CG  PHE C   3     -15.191   6.888  25.492  1.00 26.12 LIG-0.06  A 
ATOM     14  CD1 PHE C   3     -14.842   7.830  24.537  1.00 28.42 LIG 0.01  A 
ATOM     15  CE1 PHE C   3     -15.098   7.611  23.177  1.00 27.55 LIG 0.00  A 
ATOM     16  CZ  PHE C   3     -15.832   6.448  22.773  1.00 28.40 LIG 0.00  A 
ATOM     17  CE2 PHE C   3     -16.187   5.487  23.738  1.00 22.84 LIG 0.00  A 
ATOM     18  CD2 PHE C   3     -15.909   5.735  25.105  1.00 25.80 LIG 0.01  A 
ENDBRANCH 12 13
ENDBRANCH 11 12
BRANCH 11 19
ATOM     19  N   PHE C   3     -17.024   8.302  26.935  1.00 29.45 LIG-0.35  N 
ATOM     20 H    PHE C   3     -17.071   8.085  26.104  1.00 29.45 LIG 0.16  HD
ATOM     21  C   GLY C   2     -18.068   8.647  27.689  1.00 31.80 LIG 0.25  C 
ATOM     22 O    GLY C   2     -17.940   9.105  28.855  1.00 33.21 LIG-0.27  OA
BRANCH 21 23
ATOM     23  CA  GLY C   2     -19.434   8.556  27.013  1.00 32.25 LIG 0.47  C 
ATOM     24  N   GLY C   2     -20.030   9.904  26.734  1.00 32.96 LIG 0.61  N 
ENDBRANCH 21 23
ENDBRANCH 11 19
ENDBRANCH 8 11
ENDBRANCH 6 7
ENDBRANCH 3 6
ENDBRANCH 1 2
BRANCH 1 25
ATOM     25  C   LEU C   5     -13.075  10.786  22.004  1.00 23.49 LIG 0.24  C 
ATOM     26  N   PHE C   6     -12.293  11.227  21.016  1.00 22.96 LIG-0.35  N 
ATOM     27 H    PHE C   6     -11.582  11.697  21.133  1.00 22.96 LIG 0.16  HD
ATOM     28 O    LEU C   5     -14.004   9.967  21.818  1.00 25.98 LIG-0.27  OA
BRANCH 26 29
ATOM     29  CA  PHE C   6     -12.610  10.924  19.597  1.00 22.19 LIG 0.18  C 
BRANCH 29 30
ATOM     30  C   PHE C   6     -14.009  11.314  19.128  1.00 17.26 LIG 0.24  C 
ATOM     31 O    PHE C   6     -14.597  10.710  18.281  1.00 22.18 LIG-0.27  OA
ATOM     32  N   ASP C   7     -14.541  12.397  19.706  1.00 22.18 LIG-0.35  N 
ATOM     33 H    ASP C   7     -14.150  12.858  20.319  1.00 22.18 LIG 0.16  HD
BRANCH 32 34
ATOM     34  CA  ASP C   7     -15.871  12.895  19.324  1.00 22.70 LIG 0.17  C 
BRANCH 34 35
ATOM     35  C   ASP C   7     -15.961  13.388  17.904  1.00 27.36 LIG 0.22  C 
ATOM     36 O    ASP C   7     -15.328  12.829  16.976  1.00 28.20 LIG-0.29  OA
ENDBRANCH 34 35
BRANCH 34 37
ATOM     37  CB  ASP C   7     -16.263  14.051  20.254  1.00 23.18 LIG 0.15  C 
BRANCH 37 38
ATOM     38  CG  ASP C   7     -15.500  14.055  21.559  1.00 26.80 LIG 0.17  C 
ATOM     39 OD2  ASP C   7     -15.955  13.337  22.503  1.00 27.82 LIG-0.65  OA
ATOM     40 OD1  ASP C   7     -14.473  14.816  21.637  1.00 32.15 LIG-0.65  OA
ENDBRANCH 37 38
ENDBRANCH 34 37
ENDBRANCH 32 34
ENDBRANCH 29 30
BRANCH 29 41
ATOM     41  CB  PHE C   6     -12.281   9.454  19.240  1.00 21.19 LIG 0.07  C 
BRANCH 41 42
ATOM     42  CG  PHE C   6     -11.340   8.808  20.193  1.00 25.43 LIG-0.06  A 
ATOM     43  CD2 PHE C   6      -9.973   9.122  20.206  1.00 26.31 LIG 0.01  A 
ATOM     44  CE2 PHE C   6      -9.139   8.542  21.159  1.00 29.51 LIG 0.00  A 
ATOM     45  CZ  PHE C   6      -9.625   7.578  22.051  1.00 25.82 LIG 0.00  A 
ATOM     46  CE1 PHE C   6     -10.953   7.245  22.023  1.00 26.71 LIG 0.00  A 
ATOM     47  CD1 PHE C   6     -11.811   7.852  21.071  1.00 21.41 LIG 0.01  A 
ENDBRANCH 41 42
ENDBRANCH 29 41
ENDBRANCH 26 29
ENDBRANCH 1 25
BRANCH 1 48
ATOM     48  CB  LEU C   5     -11.304  10.576  23.779  1.00 26.63 LIG 0.04  C 
BRANCH 48 49
ATOM     49  CG  LEU C   5     -11.069  10.157  25.193  1.00 31.82 LIG-0.02  C 
ATOM     50  CD2 LEU C   5      -9.511  10.106  25.396  1.00 33.90 LIG 0.01  C 
ATOM     51  CD1 LEU C   5     -11.740   8.820  25.532  1.00 30.04 LIG 0.01  C 
ENDBRANCH 48 49
ENDBRANCH 1 48
TORSDOF 19
ENDMDL
MODEL 87
USER: ADFR SOLUTION from run 3
USER: SCORE 15.847763 LL:  -5.497 LR: -10.984 RR:   0.000 FEB:  -5.317
USER: RMSD 7.395003
USER: SEED 228096
USER: STATUS searching
USER: GENES 21
USER: genes 0 Translation |==|  0.67293 0.56635 0.32829
USER: genes 1 Rotation |==|  0.03413 0.50016 0.38394 0.63963
USER: genes 2 Torsion [C]-CA--N-[C] |==|  0.81113
USER: genes 3 Torsion [N]-C--CA-[N] |==|  0.48179
USER: genes 4 Torsion [C]-CA--N-[C] |==|  0.32329
USER: genes 5 Torsion [N]-C--CA-[N] |==|  0.40632
USER: genes 6 Torsion [C]-CA--CB-[CG] |==|  0.10620
USER: genes 7 Torsion [CA]-CB--CG-[CD1] |==|  0.20675
USER: genes 8 Torsion [C]-CA--N-[C] |==|  0.73952
USER: genes 9 Torsion [N]-C--CA-[N] |==|  0.56053
USER: genes 10 Torsion [N]-CA--C-[N] |==|  0.94178
USER: genes 11 Torsion [C]-N--CA-[C] |==|  0.70762
USER: genes 12 Torsion [N]-CA--C-[N] |==|  0.91798
USER: genes 13 Torsion [C]-N--CA-[C] |==|  0.64007
USER: genes 14 Torsion [N]-CA--C-[O] |==|  0.29140
USER: genes 15 Torsion [N]-CA--CB-[CG] |==|  0.38514
USER: genes 16 Torsion [CA]-CB--CG-[OD1] |==|  0.74293
USER: genes 17 Torsion [N]-CA--CB-[CG] |==|  0.83609
USER: genes 18 Torsion [CA]-CB--CG-[CD2] |==|  0.87547
USER: genes 19 Torsion [N]-CA--CB-[CG] |==|  0.53871
USER: genes 20 Torsion [CA]-CB--CG-[CD2] |==|  0.72858
ROOT
ATOM      1  CA  LEU C   5     -11.703   9.397  19.682  1.00 25.10 LIG 0.18  C 
ENDROOT
BRANCH 1 2
ATOM      2  N   LEU C   5     -12.684  10.525  19.422  1.00 25.35 LIG-0.35  N 
ATOM      3  C   GLY C   4     -13.936  10.250  18.954  1.00 24.95 LIG 0.24  C 
ATOM      4 O    GLY C   4     -14.275   9.085  18.713  1.00 25.89 LIG-0.27  OA
ATOM      5 H    LEU C   5     -12.387  11.314  19.590  1.00 25.35 LIG 0.16  HD
BRANCH 3 6
ATOM      6  CA  GLY C   4     -14.911  11.356  18.742  1.00 25.42 LIG 0.23  C 
BRANCH 6 7
ATOM      7  N   GLY C   4     -16.186  11.029  18.102  1.00 25.00 LIG-0.35  N 
ATOM      8  C   PHE C   3     -17.381  11.161  18.729  1.00 25.70 LIG 0.24  C 
ATOM      9 O    PHE C   3     -17.489  11.618  19.882  1.00 20.17 LIG-0.27  OA
ATOM     10 H    GLY C   4     -16.106  10.746  17.294  1.00 25.00 LIG 0.16  HD
BRANCH 8 11
ATOM     11  CA  PHE C   3     -18.625  10.869  17.890  1.00 26.56 LIG 0.18  C 
BRANCH 11 12
ATOM     12  CB  PHE C   3     -19.116  12.170  17.287  1.00 27.24 LIG 0.07  C 
BRANCH 12 13
ATOM     13  CG  PHE C   3     -18.033  13.063  16.855  1.00 26.12 LIG-0.06  A 
ATOM     14  CD1 PHE C   3     -17.326  12.765  15.701  1.00 28.42 LIG 0.01  A 
ATOM     15  CE1 PHE C   3     -16.310  13.611  15.237  1.00 27.55 LIG 0.00  A 
ATOM     16  CZ  PHE C   3     -15.916  14.742  16.024  1.00 28.40 LIG 0.00  A 
ATOM     17  CE2 PHE C   3     -16.631  15.050  17.195  1.00 22.84 LIG 0.00  A 
ATOM     18  CD2 PHE C   3     -17.658  14.180  17.636  1.00 25.80 LIG 0.01  A 
ENDBRANCH 12 13
ENDBRANCH 11 12
BRANCH 11 19
ATOM     19  N   PHE C   3     -19.679  10.270  18.720  1.00 29.45 LIG-0.35  N 
ATOM     20 H    PHE C   3     -20.186  10.832  19.130  1.00 29.45 LIG 0.16  HD
ATOM     21  C   GLY C   2     -19.798   8.945  18.799  1.00 31.80 LIG 0.25  C 
ATOM     22 O    GLY C   2     -18.946   8.157  18.311  1.00 33.21 LIG-0.27  OA
BRANCH 21 23
ATOM     23  CA  GLY C   2     -20.982   8.432  19.617  1.00 32.25 LIG 0.47  C 
ATOM     24  N   GLY C   2     -20.784   7.026  20.100  1.00 32.96 LIG 0.61  N 
ENDBRANCH 21 23
ENDBRANCH 11 19
ENDBRANCH 8 11
ENDBRANCH 6 7
ENDBRANCH 3 6
ENDBRANCH 1 2
BRANCH 1 25
ATOM     25  C   LEU C   5     -12.057   8.461  20.847  1.00 23.49 LIG 0.24  C 
ATOM     26  N   PHE C   6     -12.900   8.929  21.771  1.00 22.96 LIG-0.35  N 
ATOM     27 H    PHE C   6     -13.281   9.699  21.734  1.00 22.96 LIG 0.16  HD
ATOM     28 O    LEU C   5     -11.650   7.277  20.838  1.00 25.98 LIG-0.27  OA
BRANCH 26 29
ATOM     29  CA  PHE C   6     -13.248   8.119  22.965  1.00 22.19 LIG 0.18  C 
BRANCH 29 30
ATOM     30  C   PHE C   6     -14.637   7.486  22.961  1.00 17.26 LIG 0.24  C 
ATOM     31 O    PHE C   6     -14.875   6.450  23.507  1.00 22.18 LIG-0.27  OA
ATOM     32  N   ASP C   7     -15.582   8.150  22.285  1.00 22.18 LIG-0.35  N 
ATOM     33 H    ASP C   7     -15.450   8.897  21.881  1.00 22.18 LIG 0.16  HD
BRANCH 32 34
ATOM     34  CA  ASP C   7     -16.955   7.633  22.181  1.00 22.70 LIG 0.17  C 
BRANCH 34 35
ATOM     35  C   ASP C   7     -17.493   7.589  20.776  1.00 27.36 LIG 0.22  C 
ATOM     36 O    ASP C   7     -17.595   6.507  20.148  1.00 28.20 LIG-0.29  OA
ENDBRANCH 34 35
BRANCH 34 37
ATOM     37  CB  ASP C   7     -17.890   8.515  23.020  1.00 23.18 LIG 0.15  C 
BRANCH 37 38
ATOM     38  CG  ASP C   7     -19.211   8.801  22.343  1.00 26.80 LIG 0.17  C 
ATOM     39 OD2  ASP C   7     -20.135   7.939  22.480  1.00 27.82 LIG-0.65  OA
ATOM     40 OD1  ASP C   7     -19.293   9.868  21.640  1.00 32.15 LIG-0.65  OA
ENDBRANCH 37 38
ENDBRANCH 34 37
ENDBRANCH 32 34
ENDBRANCH 29 30
BRANCH 29 41
ATOM     41  CB  PHE C   6     -12.981   8.894  24.279  1.00 21.19 LIG 0.07  C 
BRANCH 41 42
ATOM     42  CG  PHE C   6     -11.565   9.318  24.440  1.00 25.43 LIG-0.06  A 
ATOM     43  CD2 PHE C   6     -10.499   8.447  24.169  1.00 26.31 LIG 0.01  A 
ATOM     44  CE2 PHE C   6      -9.188   8.906  24.270  1.00 29.51 LIG 0.00  A 
ATOM     45  CZ  PHE C   6      -8.911  10.200  24.727  1.00 25.82 LIG 0.00  A 
ATOM     46  CE1 PHE C   6      -9.947  11.045  25.023  1.00 26.71 LIG 0.00  A 
ATOM     47  CD1 PHE C   6     -11.284  10.590  24.897  1.00 21.41 LIG 0.01  A 
ENDBRANCH 41 42
ENDBRANCH 29 41
ENDBRANCH 26 29
ENDBRANCH 1 25
BRANCH 1 48
ATOM     48  CB  LEU C   5     -10.186   9.796  19.821  1.00 26.63 LIG 0.04  C 
BRANCH 48 49
ATOM     49  CG  LEU C   5      -9.177   8.697  19.757  1.00 31.82 LIG-0.02  C 
ATOM     50  CD2 LEU C   5      -8.814   8.331  21.243  1.00 33.90 LIG 0.01  C 
ATOM     51  CD1 LEU C   5      -7.938   9.079  18.938  1.00 30.04 LIG 0.01  C 
ENDBRANCH 48 49
ENDBRANCH 1 48
TORSDOF 19
ENDMDL
MODEL 88
USER: ADFR SOLUTION from run 27
USER: SCORE 15.600311 LL:  -5.208 LR: -10.972 RR:   0.000 FEB:  -5.304
USER: RMSD 7.604423
USER: SEED 26
USER: STATUS no improvement in best in 4 clusters for 5 generations
USER: GENES 21
USER: genes 0 Translation |==|  0.64203 0.49985 0.41883
USER: genes 1 Rotation |==|  0.94019 0.39844 0.66552 0.63609
USER: genes 2 Torsion [C]-CA--N-[C] |==|  0.84871
USER: genes 3 Torsion [N]-C--CA-[N] |==|  0.59378
USER: genes 4 Torsion [C]-CA--N-[C] |==|  0.18059
USER: genes 5 Torsion [N]-C--CA-[N] |==|  0.97892
USER: genes 6 Torsion [C]-CA--CB-[CG] |==|  0.91930
USER: genes 7 Torsion [CA]-CB--CG-[CD1] |==|  0.79734
USER: genes 8 Torsion [C]-CA--N-[C] |==|  0.72996
USER: genes 9 Torsion [N]-C--CA-[N] |==|  0.33387
USER: genes 10 Torsion [N]-CA--C-[N] |==|  0.90604
USER: genes 11 Torsion [C]-N--CA-[C] |==|  0.53333
USER: genes 12 Torsion [N]-CA--C-[N] |==|  0.42050
USER: genes 13 Torsion [C]-N--CA-[C] |==|  0.17919
USER: genes 14 Torsion [N]-CA--C-[O] |==|  0.84039
USER: genes 15 Torsion [N]-CA--CB-[CG] |==|  0.40012
USER: genes 16 Torsion [CA]-CB--CG-[OD1] |==|  0.65859
USER: genes 17 Torsion [N]-CA--CB-[CG] |==|  0.69536
USER: genes 18 Torsion [CA]-CB--CG-[CD2] |==|  0.30179
USER: genes 19 Torsion [N]-CA--CB-[CG] |==|  0.17307
USER: genes 20 Torsion [CA]-CB--CG-[CD2] |==|  0.25070
ROOT
ATOM      1  CA  LEU C   5     -12.259   7.951  21.312  1.00 25.10 LIG 0.18  C 
ENDROOT
BRANCH 1 2
ATOM      2  N   LEU C   5     -12.378   8.660  19.976  1.00 25.35 LIG-0.35  N 
ATOM      3  C   GLY C   4     -13.592   9.100  19.539  1.00 24.95 LIG 0.24  C 
ATOM      4 O    GLY C   4     -14.611   8.904  20.212  1.00 25.89 LIG-0.27  OA
ATOM      5 H    LEU C   5     -11.639   8.752  19.544  1.00 25.35 LIG 0.16  HD
BRANCH 3 6
ATOM      6  CA  GLY C   4     -13.698   9.836  18.248  1.00 25.42 LIG 0.23  C 
BRANCH 6 7
ATOM      7  N   GLY C   4     -14.708  10.889  18.142  1.00 25.00 LIG-0.35  N 
ATOM      8  C   PHE C   3     -14.668  12.026  18.880  1.00 25.70 LIG 0.24  C 
ATOM      9 O    PHE C   3     -13.739  12.284  19.670  1.00 20.17 LIG-0.27  OA
ATOM     10 H    GLY C   4     -15.327  10.720  17.570  1.00 25.00 LIG 0.16  HD
BRANCH 8 11
ATOM     11  CA  PHE C   3     -15.743  13.069  18.582  1.00 26.56 LIG 0.18  C 
BRANCH 11 12
ATOM     12  CB  PHE C   3     -16.655  13.181  19.788  1.00 27.24 LIG 0.07  C 
BRANCH 12 13
ATOM     13  CG  PHE C   3     -16.757  11.939  20.565  1.00 26.12 LIG-0.06  A 
ATOM     14  CD1 PHE C   3     -17.479  10.874  20.052  1.00 28.42 LIG 0.01  A 
ATOM     15  CE1 PHE C   3     -17.570   9.660  20.747  1.00 27.55 LIG 0.00  A 
ATOM     16  CZ  PHE C   3     -17.005   9.551  22.059  1.00 28.40 LIG 0.00  A 
ATOM     17  CE2 PHE C   3     -16.269  10.629  22.584  1.00 22.84 LIG 0.00  A 
ATOM     18  CD2 PHE C   3     -16.189  11.841  21.855  1.00 25.80 LIG 0.01  A 
ENDBRANCH 12 13
ENDBRANCH 11 12
BRANCH 11 19
ATOM     19  N   PHE C   3     -16.522  12.685  17.397  1.00 29.45 LIG-0.35  N 
ATOM     20 H    PHE C   3     -17.158  12.125  17.543  1.00 29.45 LIG 0.16  HD
ATOM     21  C   GLY C   2     -16.222  13.197  16.203  1.00 31.80 LIG 0.25  C 
ATOM     22 O    GLY C   2     -15.191  13.892  16.003  1.00 33.21 LIG-0.27  OA
BRANCH 21 23
ATOM     23  CA  GLY C   2     -17.151  12.800  15.057  1.00 32.25 LIG 0.47  C 
ATOM     24  N   GLY C   2     -17.816  13.981  14.417  1.00 32.96 LIG 0.61  N 
ENDBRANCH 21 23
ENDBRANCH 11 19
ENDBRANCH 8 11
ENDBRANCH 6 7
ENDBRANCH 3 6
ENDBRANCH 1 2
BRANCH 1 25
ATOM     25  C   LEU C   5     -12.824   8.708  22.522  1.00 23.49 LIG 0.24  C 
ATOM     26  N   PHE C   6     -12.720  10.040  22.511  1.00 22.96 LIG-0.35  N 
ATOM     27 H    PHE C   6     -12.392  10.495  21.859  1.00 22.96 LIG 0.16  HD
ATOM     28 O    LEU C   5     -13.456   8.085  23.405  1.00 25.98 LIG-0.27  OA
BRANCH 26 29
ATOM     29  CA  PHE C   6     -13.180  10.850  23.666  1.00 22.19 LIG 0.18  C 
BRANCH 29 30
ATOM     30  C   PHE C   6     -13.274  12.355  23.431  1.00 17.26 LIG 0.24  C 
ATOM     31 O    PHE C   6     -12.566  12.933  22.660  1.00 22.18 LIG-0.27  OA
ATOM     32  N   ASP C   7     -14.188  13.007  24.159  1.00 22.18 LIG-0.35  N 
ATOM     33 H    ASP C   7     -14.716  12.627  24.722  1.00 22.18 LIG 0.16  HD
BRANCH 32 34
ATOM     34  CA  ASP C   7     -14.361  14.463  24.046  1.00 22.70 LIG 0.17  C 
BRANCH 34 35
ATOM     35  C   ASP C   7     -14.839  14.925  22.696  1.00 27.36 LIG 0.22  C 
ATOM     36 O    ASP C   7     -14.200  14.661  21.649  1.00 28.20 LIG-0.29  OA
ENDBRANCH 34 35
BRANCH 34 37
ATOM     37  CB  ASP C   7     -13.021  15.153  24.336  1.00 23.18 LIG 0.15  C 
BRANCH 37 38
ATOM     38  CG  ASP C   7     -12.788  16.386  23.493  1.00 26.80 LIG 0.17  C 
ATOM     39 OD2  ASP C   7     -13.680  17.291  23.523  1.00 27.82 LIG-0.65  OA
ATOM     40 OD1  ASP C   7     -11.729  16.414  22.773  1.00 32.15 LIG-0.65  OA
ENDBRANCH 37 38
ENDBRANCH 34 37
ENDBRANCH 32 34
ENDBRANCH 29 30
BRANCH 29 41
ATOM     41  CB  PHE C   6     -12.374  10.526  24.948  1.00 21.19 LIG 0.07  C 
BRANCH 41 42
ATOM     42  CG  PHE C   6     -13.164   9.796  25.976  1.00 25.43 LIG-0.06  A 
ATOM     43  CD2 PHE C   6     -12.928   8.444  26.264  1.00 26.31 LIG 0.01  A 
ATOM     44  CE2 PHE C   6     -13.646   7.817  27.279  1.00 29.51 LIG 0.00  A 
ATOM     45  CZ  PHE C   6     -14.668   8.491  27.960  1.00 25.82 LIG 0.00  A 
ATOM     46  CE1 PHE C   6     -14.924   9.802  27.662  1.00 26.71 LIG 0.00  A 
ATOM     47  CD1 PHE C   6     -14.177  10.452  26.647  1.00 21.41 LIG 0.01  A 
ENDBRANCH 41 42
ENDBRANCH 29 41
ENDBRANCH 26 29
ENDBRANCH 1 25
BRANCH 1 48
ATOM     48  CB  LEU C   5     -10.834   7.405  21.701  1.00 26.63 LIG 0.04  C 
BRANCH 48 49
ATOM     49  CG  LEU C   5      -9.735   8.403  21.861  1.00 31.82 LIG-0.02  C 
ATOM     50  CD2 LEU C   5      -9.742   8.844  23.370  1.00 33.90 LIG 0.01  C 
ATOM     51  CD1 LEU C   5      -9.878   9.598  20.910  1.00 30.04 LIG 0.01  C 
ENDBRANCH 48 49
ENDBRANCH 1 48
TORSDOF 19
ENDMDL
MODEL 89
USER: ADFR SOLUTION from run 37
USER: SCORE 14.971056 LL:  -5.618 LR: -10.936 RR:   0.000 FEB:  -5.268
USER: RMSD 3.901560
USER: SEED 36
USER: STATUS no improvement in best in 8 clusters for 5 generations
USER: GENES 21
USER: genes 0 Translation |==|  0.65843 0.58746 0.64731
USER: genes 1 Rotation |==|  0.63669 0.78920 0.38645 0.86713
USER: genes 2 Torsion [C]-CA--N-[C] |==|  0.16451
USER: genes 3 Torsion [N]-C--CA-[N] |==|  0.59893
USER: genes 4 Torsion [C]-CA--N-[C] |==|  0.76026
USER: genes 5 Torsion [N]-C--CA-[N] |==|  0.61975
USER: genes 6 Torsion [C]-CA--CB-[CG] |==|  0.49052
USER: genes 7 Torsion [CA]-CB--CG-[CD1] |==|  0.74463
USER: genes 8 Torsion [C]-CA--N-[C] |==|  0.16463
USER: genes 9 Torsion [N]-C--CA-[N] |==|  0.52462
USER: genes 10 Torsion [N]-CA--C-[N] |==|  0.62011
USER: genes 11 Torsion [C]-N--CA-[C] |==|  0.78889
USER: genes 12 Torsion [N]-CA--C-[N] |==|  0.90022
USER: genes 13 Torsion [C]-N--CA-[C] |==|  0.61862
USER: genes 14 Torsion [N]-CA--C-[O] |==|  0.07048
USER: genes 15 Torsion [N]-CA--CB-[CG] |==|  0.22058
USER: genes 16 Torsion [CA]-CB--CG-[OD1] |==|  0.89983
USER: genes 17 Torsion [N]-CA--CB-[CG] |==|  0.18882
USER: genes 18 Torsion [CA]-CB--CG-[CD2] |==|  0.75737
USER: genes 19 Torsion [N]-CA--CB-[CG] |==|  0.65799
USER: genes 20 Torsion [CA]-CB--CG-[CD2] |==|  0.38725
ROOT
ATOM      1  CA  LEU C   5     -11.964   9.856  25.425  1.00 25.10 LIG 0.18  C 
ENDROOT
BRANCH 1 2
ATOM      2  N   LEU C   5     -12.579   8.936  26.463  1.00 25.35 LIG-0.35  N 
ATOM      3  C   GLY C   4     -13.679   8.192  26.153  1.00 24.95 LIG 0.24  C 
ATOM      4 O    GLY C   4     -14.202   8.278  25.036  1.00 25.89 LIG-0.27  OA
ATOM      5 H    LEU C   5     -12.183   8.931  27.227  1.00 25.35 LIG 0.16  HD
BRANCH 3 6
ATOM      6  CA  GLY C   4     -14.253   7.256  27.161  1.00 25.42 LIG 0.23  C 
BRANCH 6 7
ATOM      7  N   GLY C   4     -14.817   5.995  26.678  1.00 25.00 LIG-0.35  N 
ATOM      8  C   PHE C   3     -16.099   5.876  26.251  1.00 25.70 LIG 0.24  C 
ATOM      9 O    PHE C   3     -16.881   6.845  26.190  1.00 20.17 LIG-0.27  OA
ATOM     10 H    GLY C   4     -14.261   5.339  26.690  1.00 25.00 LIG 0.16  HD
BRANCH 8 11
ATOM     11  CA  PHE C   3     -16.505   4.515  25.688  1.00 26.56 LIG 0.18  C 
BRANCH 11 12
ATOM     12  CB  PHE C   3     -15.248   3.727  25.379  1.00 27.24 LIG 0.07  C 
BRANCH 12 13
ATOM     13  CG  PHE C   3     -15.512   2.363  24.903  1.00 26.12 LIG-0.06  A 
ATOM     14  CD1 PHE C   3     -15.567   1.323  25.817  1.00 28.42 LIG 0.01  A 
ATOM     15  CE1 PHE C   3     -15.851   0.014  25.406  1.00 27.55 LIG 0.00  A 
ATOM     16  CZ  PHE C   3     -15.975  -0.279  24.009  1.00 28.40 LIG 0.00  A 
ATOM     17  CE2 PHE C   3     -15.922   0.773  23.077  1.00 22.84 LIG 0.00  A 
ATOM     18  CD2 PHE C   3     -15.640   2.088  23.523  1.00 25.80 LIG 0.01  A 
ENDBRANCH 12 13
ENDBRANCH 11 12
BRANCH 11 19
ATOM     19  N   PHE C   3     -17.309   4.679  24.469  1.00 29.45 LIG-0.35  N 
ATOM     20 H    PHE C   3     -18.098   4.338  24.503  1.00 29.45 LIG 0.16  HD
ATOM     21  C   GLY C   2     -16.805   5.319  23.414  1.00 31.80 LIG 0.25  C 
ATOM     22 O    GLY C   2     -15.597   5.668  23.346  1.00 33.21 LIG-0.27  OA
BRANCH 21 23
ATOM     23  CA  GLY C   2     -17.757   5.510  22.235  1.00 32.25 LIG 0.47  C 
ATOM     24  N   GLY C   2     -17.066   6.043  21.016  1.00 32.96 LIG 0.61  N 
ENDBRANCH 21 23
ENDBRANCH 11 19
ENDBRANCH 8 11
ENDBRANCH 6 7
ENDBRANCH 3 6
ENDBRANCH 1 2
BRANCH 1 25
ATOM     25  C   LEU C   5     -12.890  10.948  24.870  1.00 23.49 LIG 0.24  C 
ATOM     26  N   PHE C   6     -12.859  11.163  23.553  1.00 22.96 LIG-0.35  N 
ATOM     27 H    PHE C   6     -12.385  10.708  22.998  1.00 22.96 LIG 0.16  HD
ATOM     28 O    LEU C   5     -13.712  11.511  25.629  1.00 25.98 LIG-0.27  OA
BRANCH 26 29
ATOM     29  CA  PHE C   6     -13.671  12.242  22.936  1.00 22.19 LIG 0.18  C 
BRANCH 29 30
ATOM     30  C   PHE C   6     -15.164  11.957  22.796  1.00 17.26 LIG 0.24  C 
ATOM     31 O    PHE C   6     -15.999  12.798  22.950  1.00 22.18 LIG-0.27  OA
ATOM     32  N   ASP C   7     -15.495  10.692  22.509  1.00 22.18 LIG-0.35  N 
ATOM     33 H    ASP C   7     -14.924  10.060  22.390  1.00 22.18 LIG 0.16  HD
BRANCH 32 34
ATOM     34  CA  ASP C   7     -16.900  10.280  22.375  1.00 22.70 LIG 0.17  C 
BRANCH 34 35
ATOM     35  C   ASP C   7     -17.223   8.965  23.031  1.00 27.36 LIG 0.22  C 
ATOM     36 O    ASP C   7     -16.546   8.529  23.993  1.00 28.20 LIG-0.29  OA
ENDBRANCH 34 35
BRANCH 34 37
ATOM     37  CB  ASP C   7     -17.251  10.166  20.885  1.00 23.18 LIG 0.15  C 
BRANCH 37 38
ATOM     38  CG  ASP C   7     -16.767   8.881  20.253  1.00 26.80 LIG 0.17  C 
ATOM     39 OD2  ASP C   7     -17.528   8.328  19.399  1.00 27.82 LIG-0.65  OA
ATOM     40 OD1  ASP C   7     -15.643   8.415  20.654  1.00 32.15 LIG-0.65  OA
ENDBRANCH 37 38
ENDBRANCH 34 37
ENDBRANCH 32 34
ENDBRANCH 29 30
BRANCH 29 41
ATOM     41  CB  PHE C   6     -13.058  12.727  21.600  1.00 21.19 LIG 0.07  C 
BRANCH 41 42
ATOM     42  CG  PHE C   6     -13.117  11.711  20.517  1.00 25.43 LIG-0.06  A 
ATOM     43  CD2 PHE C   6     -12.108  10.750  20.349  1.00 26.31 LIG 0.01  A 
ATOM     44  CE2 PHE C   6     -12.237   9.776  19.363  1.00 29.51 LIG 0.00  A 
ATOM     45  CZ  PHE C   6     -13.316   9.792  18.470  1.00 25.82 LIG 0.00  A 
ATOM     46  CE1 PHE C   6     -14.289  10.746  18.609  1.00 26.71 LIG 0.00  A 
ATOM     47  CD1 PHE C   6     -14.175  11.724  19.629  1.00 21.41 LIG 0.01  A 
ENDBRANCH 41 42
ENDBRANCH 29 41
ENDBRANCH 26 29
ENDBRANCH 1 25
BRANCH 1 48
ATOM     48  CB  LEU C   5     -11.240   9.167  24.207  1.00 26.63 LIG 0.04  C 
BRANCH 48 49
ATOM     49  CG  LEU C   5      -9.809   9.520  23.969  1.00 31.82 LIG-0.02  C 
ATOM     50  CD2 LEU C   5      -9.074   8.185  23.579  1.00 33.90 LIG 0.01  C 
ATOM     51  CD1 LEU C   5      -9.159  10.204  25.178  1.00 30.04 LIG 0.01  C 
ENDBRANCH 48 49
ENDBRANCH 1 48
TORSDOF 19
ENDMDL
