MODEL 1
USER: ADFR SOLUTION from run 18
USER: SCORE 19.504890 LL:  -2.724 LR: -19.067 RR:   0.000 FEB: -11.907
USER: RMSD 11.203861
USER: SEED 17
USER: STATUS no improvement in best in 2 clusters for 5 generations
USER: GENES 26
USER: genes 0 Translation |==|  0.54680 0.56664 0.49411
USER: genes 1 Rotation |==|  0.99062 0.41507 0.46564 0.52993
USER: genes 2 Torsion [C]-CA--CB-[CG] |==|  0.86991
USER: genes 3 Torsion [CA]-CB--CG-[CD] |==|  0.31785
USER: genes 4 Torsion [CB]-CG--CD-[CE] |==|  0.25160
USER: genes 5 Torsion [CG]-CD--CE-[NZ] |==|  0.57800
USER: genes 6 Torsion [CD]-CE--NZ-[HZ1] |==|  0.26698
USER: genes 7 Torsion [N]-CA--C-[N] |==|  0.93728
USER: genes 8 Torsion [C]-N--CA-[CB] |==|  0.18465
USER: genes 9 Torsion [N]-CA--CB-[CG] |==|  0.71118
USER: genes 10 Torsion [CA]-CB--CG-[CD] |==|  0.34983
USER: genes 11 Torsion [CB]-CG--CD-[NE] |==|  0.15622
USER: genes 12 Torsion [CG]-CD--NE-[CZ] |==|  0.51723
USER: genes 13 Torsion [N]-CA--C-[N] |==|  0.53323
USER: genes 14 Torsion [C]-N--CA-[C] |==|  0.61875
USER: genes 15 Torsion [N]-CA--C-[O] |==|  0.64468
USER: genes 16 Torsion [CB]-CA--N-[C] |==|  0.36781
USER: genes 17 Torsion [N]-C--CA-[N] |==|  0.42720
USER: genes 18 Torsion [C]-CA--CB-[CG] |==|  0.30483
USER: genes 19 Torsion [CA]-CB--CG-[CD] |==|  0.36353
USER: genes 20 Torsion [CB]-CG--CD-[CE] |==|  0.77470
USER: genes 21 Torsion [CG]-CD--CE-[NZ] |==|  0.68685
USER: genes 22 Torsion [CD]-CE--NZ-[HZ3] |==|  0.45999
USER: genes 23 Torsion [C]-CA--N-[C] |==|  0.69310
USER: genes 24 Torsion [N]-C--CA-[N] |==|  0.72314
USER: genes 25 Torsion [N]-C--CA-[CB] |==|  0.83037
ROOT
ATOM      1  CA  LYS B 185       3.166  36.524   6.677  1.00 91.41 LIG 0.18  C 
ENDROOT
BRANCH 1 2
ATOM      2  CB  LYS B 185       2.396  37.085   5.475  1.00 90.53 LIG 0.04  C 
BRANCH 2 3
ATOM      3  CG  LYS B 185       1.207  37.987   5.795  1.00 86.81 LIG 0.00  C 
BRANCH 3 4
ATOM      4  CD  LYS B 185       1.457  39.422   5.315  1.00 79.71 LIG 0.03  C 
BRANCH 4 5
ATOM      5  CE  LYS B 185       0.964  39.662   3.886  1.00 72.24 LIG 0.23  C 
BRANCH 5 6
ATOM      6  NZ  LYS B 185       1.726  40.725   3.168  1.00 67.20 LIG-0.08  N 
ATOM      7 HZ1  LYS B 185       2.363  40.350   2.671  1.00 67.20 LIG 0.27  HD
ATOM      8 HZ3  LYS B 185       2.098  41.275   3.760  1.00 67.20 LIG 0.27  HD
ATOM      9 HZ2  LYS B 185       1.173  41.184   2.643  1.00 67.20 LIG 0.27  HD
ENDBRANCH 5 6
ENDBRANCH 4 5
ENDBRANCH 3 4
ENDBRANCH 2 3
ENDBRANCH 1 2
BRANCH 1 10
ATOM     10  C   LYS B 185       3.445  37.643   7.676  1.00 87.67 LIG 0.24  C 
ATOM     11 O    LYS B 185       4.383  38.426   7.493  1.00 75.85 LIG-0.27  OA
ATOM     12  N   ARG B 186       2.640  37.693   8.734  1.00 93.18 LIG-0.35  N 
ATOM     13 H    ARG B 186       1.957  37.178   8.823  1.00 93.18 LIG 0.16  HD
BRANCH 12 14
ATOM     14  CA  ARG B 186       2.816  38.615   9.854  1.00 93.88 LIG 0.18  C 
BRANCH 14 15
ATOM     15  CB  ARG B 186       2.586  40.050   9.354  1.00 94.11 LIG 0.04  C 
BRANCH 15 16
ATOM     16  CG  ARG B 186       3.879  40.834   9.173  1.00 91.13 LIG 0.02  C 
BRANCH 16 17
ATOM     17  CD  ARG B 186       4.018  41.429   7.782  1.00 90.43 LIG 0.14  C 
BRANCH 17 18
ATOM     18  NE  ARG B 186       2.875  42.280   7.456  1.00 88.65 LIG-0.23  N 
ATOM     19 HE   ARG B 186       2.296  42.433   8.073  1.00 88.65 LIG 0.18  HD
ATOM     20  CZ  ARG B 186       2.675  42.832   6.261  1.00 77.61 LIG 0.67  C 
ATOM     21  NH2 ARG B 186       1.609  43.590   6.041  1.00 64.46 LIG-0.23  N 
ATOM     22  NH1 ARG B 186       3.548  42.628   5.285  1.00 71.89 LIG-0.23  N 
ATOM     23 2HH2 ARG B 186       1.485  43.944   5.268  1.00 64.46 LIG 0.17  HD
ATOM     24 1HH2 ARG B 186       1.041  43.727   6.673  1.00 64.46 LIG 0.17  HD
ATOM     25 1HH1 ARG B 186       4.242  42.140   5.424  1.00 71.89 LIG 0.17  HD
ATOM     26 2HH1 ARG B 186       3.420  42.985   4.512  1.00 71.89 LIG 0.17  HD
ENDBRANCH 17 18
ENDBRANCH 16 17
ENDBRANCH 15 16
ENDBRANCH 14 15
BRANCH 14 27
ATOM     27  C   ARG B 186       1.835  38.200  10.972  1.00100.48 LIG 0.24  C 
ATOM     28  N   ALA B 187       1.609  39.007  12.018  1.00104.89 LIG-0.35  N 
ATOM     29 H    ALA B 187       1.069  38.782  12.648  1.00104.89 LIG 0.16  HD
ATOM     30 O    ARG B 186       1.280  37.102  10.888  1.00101.56 LIG-0.27  OA
BRANCH 28 31
ATOM     31  CA  ALA B 187       2.206  40.323  12.250  1.00100.92 LIG 0.16  C 
ATOM     32  CB  ALA B 187       1.222  41.434  11.855  1.00 98.55 LIG 0.04  C 
BRANCH 31 33
ATOM     33  C   ALA B 187       2.627  40.494  13.708  1.00 96.24 LIG 0.22  C 
ATOM     34 O    ALA B 187       2.260  41.475  14.357  1.00 95.92 LIG-0.29  OA
ENDBRANCH 31 33
ENDBRANCH 28 31
ENDBRANCH 14 27
ENDBRANCH 12 14
ENDBRANCH 1 10
BRANCH 1 35
ATOM     35  N   LYS B 185       2.436  35.442   7.334  1.00 94.70 LIG-0.35  N 
ATOM     36 H    LYS B 185       1.609  35.625   7.483  1.00 94.70 LIG 0.16  HD
ATOM     37  C   LYS B 184       2.998  34.276   7.671  1.00 95.69 LIG 0.24  C 
ATOM     38 O    LYS B 184       4.200  34.039   7.519  1.00 96.36 LIG-0.27  OA
BRANCH 37 39
ATOM     39  CA  LYS B 184       2.059  33.225   8.258  1.00 89.09 LIG 0.18  C 
BRANCH 39 40
ATOM     40  CB  LYS B 184       1.863  33.456   9.760  1.00 73.03 LIG 0.04  C 
BRANCH 40 41
ATOM     41  CG  LYS B 184       0.461  33.955  10.134  1.00 60.77 LIG 0.00  C 
BRANCH 41 42
ATOM     42  CD  LYS B 184      -0.138  33.148  11.274  1.00 63.88 LIG 0.03  C 
BRANCH 42 43
ATOM     43  CE  LYS B 184      -0.749  31.830  10.803  1.00 60.38 LIG 0.23  C 
BRANCH 43 44
ATOM     44  NZ  LYS B 184      -2.246  31.725  10.923  1.00 53.06 LIG-0.08  N 
ATOM     45 HZ3  LYS B 184      -2.534  31.031  10.445  1.00 53.06 LIG 0.27  HD
ATOM     46 HZ2  LYS B 184      -2.622  32.471  10.616  1.00 53.06 LIG 0.27  HD
ATOM     47 HZ1  LYS B 184      -2.469  31.610  11.777  1.00 53.06 LIG 0.27  HD
ENDBRANCH 43 44
ENDBRANCH 42 43
ENDBRANCH 41 42
ENDBRANCH 40 41
ENDBRANCH 39 40
BRANCH 39 48
ATOM     48  N   LYS B 184       2.573  31.883   8.017  1.00 95.16 LIG-0.35  N 
ATOM     49 H    LYS B 184       3.283  31.689   8.464  1.00 95.16 LIG 0.16  HD
ATOM     50  C   PRO B 183       1.977  31.045   7.171  1.00102.83 LIG 0.24  C 
ATOM     51 O    PRO B 183       0.957  31.350   6.542  1.00 96.65 LIG-0.27  OA
BRANCH 50 52
ATOM     52  CA  PRO B 183       2.627  29.674   7.000  1.00119.60 LIG 0.18  C 
ATOM     53  N   PRO B 183       3.461  29.554   5.795  1.00125.08 LIG-0.34  N 
ATOM     54  CD  PRO B 183       4.876  29.863   6.076  1.00128.64 LIG 0.13  C 
ATOM     55  C   PRO B 182       2.989  28.915   4.710  1.00122.07 LIG 0.26  C 
ATOM     56  CG  PRO B 183       4.930  29.939   7.597  1.00127.59 LIG 0.02  C 
ATOM     57  CB  PRO B 183       3.626  29.384   8.126  1.00124.68 LIG 0.04  C 
ATOM     58 O    PRO B 182       1.872  28.395   4.664  1.00123.88 LIG-0.27  OA
BRANCH 55 59
ATOM     59  CA  PRO B 182       3.908  28.824   3.490  1.00115.83 LIG 0.35  C 
ATOM     60  CB  PRO B 182       4.259  30.225   2.966  1.00111.53 LIG 0.05  C 
ATOM     61  CG  PRO B 182       4.241  30.103   1.472  1.00111.42 LIG 0.04  C 
ATOM     62  CD  PRO B 182       3.190  29.082   1.171  1.00113.66 LIG 0.32  C 
ATOM     63  N   PRO B 182       3.253  28.187   2.340  1.00115.25 LIG 0.32  N 
ENDBRANCH 55 59
ENDBRANCH 50 52
ENDBRANCH 39 48
ENDBRANCH 37 39
ENDBRANCH 1 35
TORSDOF 24
ENDMDL
MODEL 2
USER: ADFR SOLUTION from run 43
USER: SCORE 19.933995 LL:  -3.043 LR: -19.020 RR:   0.000 FEB: -11.861
USER: RMSD 10.912004
USER: SEED 42
USER: STATUS searching
USER: GENES 26
USER: genes 0 Translation |==|  0.48887 0.42945 0.51466
USER: genes 1 Rotation |==|  0.40234 0.42980 0.98503 0.51665
USER: genes 2 Torsion [C]-CA--CB-[CG] |==|  0.27737
USER: genes 3 Torsion [CA]-CB--CG-[CD] |==|  0.18673
USER: genes 4 Torsion [CB]-CG--CD-[CE] |==|  0.39153
USER: genes 5 Torsion [CG]-CD--CE-[NZ] |==|  0.40045
USER: genes 6 Torsion [CD]-CE--NZ-[HZ1] |==|  0.33738
USER: genes 7 Torsion [N]-CA--C-[N] |==|  0.48222
USER: genes 8 Torsion [C]-N--CA-[CB] |==|  0.50577
USER: genes 9 Torsion [N]-CA--CB-[CG] |==|  0.71890
USER: genes 10 Torsion [CA]-CB--CG-[CD] |==|  0.95624
USER: genes 11 Torsion [CB]-CG--CD-[NE] |==|  0.52900
USER: genes 12 Torsion [CG]-CD--NE-[CZ] |==|  0.19024
USER: genes 13 Torsion [N]-CA--C-[N] |==|  0.39444
USER: genes 14 Torsion [C]-N--CA-[C] |==|  0.55781
USER: genes 15 Torsion [N]-CA--C-[O] |==|  0.41020
USER: genes 16 Torsion [CB]-CA--N-[C] |==|  0.17342
USER: genes 17 Torsion [N]-C--CA-[N] |==|  0.54656
USER: genes 18 Torsion [C]-CA--CB-[CG] |==|  0.70005
USER: genes 19 Torsion [CA]-CB--CG-[CD] |==|  0.44648
USER: genes 20 Torsion [CB]-CG--CD-[CE] |==|  0.19727
USER: genes 21 Torsion [CG]-CD--CE-[NZ] |==|  0.57061
USER: genes 22 Torsion [CD]-CE--NZ-[HZ3] |==|  0.10339
USER: genes 23 Torsion [C]-CA--N-[C] |==|  0.68122
USER: genes 24 Torsion [N]-C--CA-[N] |==|  0.91333
USER: genes 25 Torsion [N]-C--CA-[CB] |==|  0.53539
ROOT
ATOM      1  CA  LYS B 185       2.167  32.820   7.093  1.00 91.41 LIG 0.18  C 
ENDROOT
BRANCH 1 2
ATOM      2  CB  LYS B 185       2.398  32.829   8.608  1.00 90.53 LIG 0.04  C 
BRANCH 2 3
ATOM      3  CG  LYS B 185       1.243  33.341   9.466  1.00 86.81 LIG 0.00  C 
BRANCH 3 4
ATOM      4  CD  LYS B 185       0.042  32.390   9.400  1.00 79.71 LIG 0.03  C 
BRANCH 4 5
ATOM      5  CE  LYS B 185      -0.660  32.230  10.752  1.00 72.24 LIG 0.23  C 
BRANCH 5 6
ATOM      6  NZ  LYS B 185      -2.141  32.088  10.636  1.00 67.20 LIG-0.08  N 
ATOM      7 HZ1  LYS B 185      -2.396  31.317  11.001  1.00 67.20 LIG 0.27  HD
ATOM      8 HZ3  LYS B 185      -2.374  32.100   9.777  1.00 67.20 LIG 0.27  HD
ATOM      9 HZ2  LYS B 185      -2.538  32.763  11.060  1.00 67.20 LIG 0.27  HD
ENDBRANCH 5 6
ENDBRANCH 4 5
ENDBRANCH 3 4
ENDBRANCH 2 3
ENDBRANCH 1 2
BRANCH 1 10
ATOM     10  C   LYS B 185       2.833  34.040   6.464  1.00 87.67 LIG 0.24  C 
ATOM     11 O    LYS B 185       3.766  33.902   5.666  1.00 75.85 LIG-0.27  OA
ATOM     12  N   ARG B 186       2.361  35.224   6.847  1.00 93.18 LIG-0.35  N 
ATOM     13 H    ARG B 186       1.676  35.307   7.360  1.00 93.18 LIG 0.16  HD
BRANCH 12 14
ATOM     14  CA  ARG B 186       2.940  36.504   6.448  1.00 93.88 LIG 0.18  C 
BRANCH 14 15
ATOM     15  CB  ARG B 186       2.155  37.636   7.129  1.00 94.11 LIG 0.04  C 
BRANCH 15 16
ATOM     16  CG  ARG B 186       1.155  38.312   6.200  1.00 91.13 LIG 0.02  C 
BRANCH 16 17
ATOM     17  CD  ARG B 186       1.407  37.997   4.734  1.00 90.43 LIG 0.14  C 
BRANCH 17 18
ATOM     18  NE  ARG B 186       0.594  38.847   3.865  1.00 88.65 LIG-0.23  N 
ATOM     19 HE   ARG B 186      -0.039  38.476   3.415  1.00 88.65 LIG 0.18  HD
ATOM     20  CZ  ARG B 186       0.774  40.159   3.727  1.00 77.61 LIG 0.67  C 
ATOM     21  NH2 ARG B 186      -0.004  40.860   2.914  1.00 64.46 LIG-0.23  N 
ATOM     22  NH1 ARG B 186       1.732  40.769   4.409  1.00 71.89 LIG-0.23  N 
ATOM     23 2HH2 ARG B 186       0.117  41.708   2.829  1.00 64.46 LIG 0.17  HD
ATOM     24 1HH2 ARG B 186      -0.629  40.468   2.471  1.00 64.46 LIG 0.17  HD
ATOM     25 1HH1 ARG B 186       2.237  40.318   4.939  1.00 71.89 LIG 0.17  HD
ATOM     26 2HH1 ARG B 186       1.849  41.617   4.320  1.00 71.89 LIG 0.17  HD
ENDBRANCH 17 18
ENDBRANCH 16 17
ENDBRANCH 15 16
ENDBRANCH 14 15
BRANCH 14 27
ATOM     27  C   ARG B 186       4.436  36.491   6.831  1.00100.48 LIG 0.24  C 
ATOM     28  N   ALA B 187       5.353  37.054   6.031  1.00104.89 LIG-0.35  N 
ATOM     29 H    ALA B 187       6.188  37.047   6.234  1.00104.89 LIG 0.16  HD
ATOM     30 O    ARG B 186       4.768  35.935   7.881  1.00101.56 LIG-0.27  OA
BRANCH 28 31
ATOM     31  CA  ALA B 187       5.101  37.732   4.758  1.00100.92 LIG 0.16  C 
ATOM     32  CB  ALA B 187       4.571  39.153   5.006  1.00 98.55 LIG 0.04  C 
BRANCH 31 33
ATOM     33  C   ALA B 187       6.363  37.789   3.900  1.00 96.24 LIG 0.22  C 
ATOM     34 O    ALA B 187       6.289  37.749   2.671  1.00 95.92 LIG-0.29  OA
ENDBRANCH 31 33
ENDBRANCH 28 31
ENDBRANCH 14 27
ENDBRANCH 12 14
ENDBRANCH 1 10
BRANCH 1 35
ATOM     35  N   LYS B 185       2.678  31.600   6.472  1.00 94.70 LIG-0.35  N 
ATOM     36 H    LYS B 185       3.307  31.740   5.903  1.00 94.70 LIG 0.16  HD
ATOM     37  C   LYS B 184       2.212  30.379   6.759  1.00 95.69 LIG 0.24  C 
ATOM     38 O    LYS B 184       1.263  30.184   7.524  1.00 96.36 LIG-0.27  OA
BRANCH 37 39
ATOM     39  CA  LYS B 184       2.933  29.212   6.090  1.00 89.09 LIG 0.18  C 
BRANCH 39 40
ATOM     40  CB  LYS B 184       3.271  29.551   4.634  1.00 73.03 LIG 0.04  C 
BRANCH 40 41
ATOM     41  CG  LYS B 184       2.417  28.797   3.606  1.00 60.77 LIG 0.00  C 
BRANCH 41 42
ATOM     42  CD  LYS B 184       2.440  29.477   2.248  1.00 63.88 LIG 0.03  C 
BRANCH 42 43
ATOM     43  CE  LYS B 184       3.787  29.336   1.542  1.00 60.38 LIG 0.23  C 
BRANCH 43 44
ATOM     44  NZ  LYS B 184       4.115  30.411   0.540  1.00 53.06 LIG-0.08  N 
ATOM     45 HZ3  LYS B 184       3.816  31.195   0.837  1.00 53.06 LIG 0.27  HD
ATOM     46 HZ2  LYS B 184       3.726  30.221  -0.237  1.00 53.06 LIG 0.27  HD
ATOM     47 HZ1  LYS B 184       4.997  30.453   0.428  1.00 53.06 LIG 0.27  HD
ENDBRANCH 43 44
ENDBRANCH 42 43
ENDBRANCH 41 42
ENDBRANCH 40 41
ENDBRANCH 39 40
BRANCH 39 48
ATOM     48  N   LYS B 184       2.123  28.002   6.151  1.00 95.16 LIG-0.35  N 
ATOM     49 H    LYS B 184       1.389  28.043   5.703  1.00 95.16 LIG 0.16  HD
ATOM     50  C   PRO B 183       2.508  26.935   6.849  1.00102.83 LIG 0.24  C 
ATOM     51 O    PRO B 183       3.568  26.903   7.482  1.00 96.65 LIG-0.27  OA
BRANCH 50 52
ATOM     52  CA  PRO B 183       1.559  25.739   6.840  1.00119.60 LIG 0.18  C 
ATOM     53  N   PRO B 183       0.139  26.104   6.724  1.00125.08 LIG-0.34  N 
ATOM     54  CD  PRO B 183      -0.314  26.099   5.320  1.00128.64 LIG 0.13  C 
ATOM     55  C   PRO B 182      -0.651  26.093   7.812  1.00122.07 LIG 0.26  C 
ATOM     56  CG  PRO B 183       0.848  25.455   4.572  1.00127.59 LIG 0.02  C 
ATOM     57  CB  PRO B 183       1.778  24.858   5.604  1.00124.68 LIG 0.04  C 
ATOM     58 O    PRO B 182      -0.252  25.773   8.934  1.00123.88 LIG-0.27  OA
BRANCH 55 59
ATOM     59  CA  PRO B 182      -2.119  26.481   7.622  1.00115.83 LIG 0.35  C 
ATOM     60  CB  PRO B 182      -2.797  26.725   8.979  1.00111.53 LIG 0.05  C 
ATOM     61  CG  PRO B 182      -4.171  26.142   8.844  1.00111.42 LIG 0.04  C 
ATOM     62  CD  PRO B 182      -4.017  24.975   7.921  1.00113.66 LIG 0.32  C 
ATOM     63  N   PRO B 182      -2.916  25.396   7.036  1.00115.25 LIG 0.32  N 
ENDBRANCH 55 59
ENDBRANCH 50 52
ENDBRANCH 39 48
ENDBRANCH 37 39
ENDBRANCH 1 35
TORSDOF 24
ENDMDL
MODEL 3
USER: ADFR SOLUTION from run 192
USER: SCORE 21.229710 LL:  -3.489 LR: -18.989 RR:   0.000 FEB: -11.829
USER: RMSD 9.131735
USER: SEED 191
USER: STATUS 1 or 2 clusters left
USER: GENES 26
USER: genes 0 Translation |==|  0.48729 0.60836 0.42333
USER: genes 1 Rotation |==|  0.89502 0.40508 0.21479 0.56001
USER: genes 2 Torsion [C]-CA--CB-[CG] |==|  0.09948
USER: genes 3 Torsion [CA]-CB--CG-[CD] |==|  0.30296
USER: genes 4 Torsion [CB]-CG--CD-[CE] |==|  0.35196
USER: genes 5 Torsion [CG]-CD--CE-[NZ] |==|  0.25947
USER: genes 6 Torsion [CD]-CE--NZ-[HZ1] |==|  0.99951
USER: genes 7 Torsion [N]-CA--C-[N] |==|  0.33484
USER: genes 8 Torsion [C]-N--CA-[CB] |==|  0.82763
USER: genes 9 Torsion [N]-CA--CB-[CG] |==|  0.70319
USER: genes 10 Torsion [CA]-CB--CG-[CD] |==|  0.68997
USER: genes 11 Torsion [CB]-CG--CD-[NE] |==|  0.65802
USER: genes 12 Torsion [CG]-CD--NE-[CZ] |==|  0.73878
USER: genes 13 Torsion [N]-CA--C-[N] |==|  0.28105
USER: genes 14 Torsion [C]-N--CA-[C] |==|  0.82019
USER: genes 15 Torsion [N]-CA--C-[O] |==|  0.30254
USER: genes 16 Torsion [CB]-CA--N-[C] |==|  0.52229
USER: genes 17 Torsion [N]-C--CA-[N] |==|  0.89795
USER: genes 18 Torsion [C]-CA--CB-[CG] |==|  0.23625
USER: genes 19 Torsion [CA]-CB--CG-[CD] |==|  0.00991
USER: genes 20 Torsion [CB]-CG--CD-[CE] |==|  0.64719
USER: genes 21 Torsion [CG]-CD--CE-[NZ] |==|  0.16774
USER: genes 22 Torsion [CD]-CE--NZ-[HZ3] |==|  0.78906
USER: genes 23 Torsion [C]-CA--N-[C] |==|  0.82531
USER: genes 24 Torsion [N]-C--CA-[N] |==|  0.13720
USER: genes 25 Torsion [N]-C--CA-[CB] |==|  0.80543
ROOT
ATOM      1  CA  LYS B 185       2.140  37.651   5.243  1.00 91.41 LIG 0.18  C 
ENDROOT
BRANCH 1 2
ATOM      2  CB  LYS B 185       0.816  38.420   5.324  1.00 90.53 LIG 0.04  C 
BRANCH 2 3
ATOM      3  CG  LYS B 185       0.808  39.818   4.711  1.00 86.81 LIG 0.00  C 
BRANCH 3 4
ATOM      4  CD  LYS B 185      -0.020  39.852   3.421  1.00 79.71 LIG 0.03  C 
BRANCH 4 5
ATOM      5  CE  LYS B 185      -1.093  40.944   3.435  1.00 72.24 LIG 0.23  C 
BRANCH 5 6
ATOM      6  NZ  LYS B 185      -0.641  42.225   2.817  1.00 67.20 LIG-0.08  N 
ATOM      7 HZ1  LYS B 185       0.200  42.140   2.538  1.00 67.20 LIG 0.27  HD
ATOM      8 HZ3  LYS B 185      -0.688  42.878   3.420  1.00 67.20 LIG 0.27  HD
ATOM      9 HZ2  LYS B 185      -1.165  42.422   2.125  1.00 67.20 LIG 0.27  HD
ENDBRANCH 5 6
ENDBRANCH 4 5
ENDBRANCH 3 4
ENDBRANCH 2 3
ENDBRANCH 1 2
BRANCH 1 10
ATOM     10  C   LYS B 185       3.308  38.619   5.403  1.00 87.67 LIG 0.24  C 
ATOM     11 O    LYS B 185       3.455  39.254   6.452  1.00 75.85 LIG-0.27  OA
ATOM     12  N   ARG B 186       4.114  38.737   4.351  1.00 93.18 LIG-0.35  N 
ATOM     13 H    ARG B 186       4.034  38.250   3.647  1.00 93.18 LIG 0.16  HD
BRANCH 12 14
ATOM     14  CA  ARG B 186       5.216  39.694   4.268  1.00 93.88 LIG 0.18  C 
BRANCH 14 15
ATOM     15  CB  ARG B 186       4.642  41.117   4.352  1.00 94.11 LIG 0.04  C 
BRANCH 15 16
ATOM     16  CG  ARG B 186       4.668  41.851   3.018  1.00 91.13 LIG 0.02  C 
BRANCH 16 17
ATOM     17  CD  ARG B 186       5.651  43.010   3.003  1.00 90.43 LIG 0.14  C 
BRANCH 17 18
ATOM     18  NE  ARG B 186       4.982  44.265   2.662  1.00 88.65 LIG-0.23  N 
ATOM     19 HE   ARG B 186       4.614  44.712   3.298  1.00 88.65 LIG 0.18  HD
ATOM     20  CZ  ARG B 186       4.908  44.758   1.428  1.00 77.61 LIG 0.67  C 
ATOM     21  NH2 ARG B 186       4.279  45.903   1.199  1.00 64.46 LIG-0.23  N 
ATOM     22  NH1 ARG B 186       5.470  44.106   0.421  1.00 71.89 LIG-0.23  N 
ATOM     23 2HH2 ARG B 186       4.234  46.217   0.400  1.00 64.46 LIG 0.17  HD
ATOM     24 1HH2 ARG B 186       3.915  46.331   1.850  1.00 64.46 LIG 0.17  HD
ATOM     25 1HH1 ARG B 186       5.881  43.364   0.566  1.00 71.89 LIG 0.17  HD
ATOM     26 2HH1 ARG B 186       5.422  44.423  -0.377  1.00 71.89 LIG 0.17  HD
ENDBRANCH 17 18
ENDBRANCH 16 17
ENDBRANCH 15 16
ENDBRANCH 14 15
BRANCH 14 27
ATOM     27  C   ARG B 186       6.210  39.375   5.404  1.00100.48 LIG 0.24  C 
ATOM     28  N   ALA B 187       7.341  38.699   5.156  1.00104.89 LIG-0.35  N 
ATOM     29 H    ALA B 187       7.899  38.513   5.783  1.00104.89 LIG 0.16  HD
ATOM     30 O    ARG B 186       5.931  39.741   6.549  1.00101.56 LIG-0.27  OA
BRANCH 28 31
ATOM     31  CA  ALA B 187       7.789  38.197   3.855  1.00100.92 LIG 0.16  C 
ATOM     32  CB  ALA B 187       9.214  37.634   3.961  1.00 98.55 LIG 0.04  C 
BRANCH 31 33
ATOM     33  C   ALA B 187       6.844  37.125   3.319  1.00 96.24 LIG 0.22  C 
ATOM     34 O    ALA B 187       6.109  37.359   2.358  1.00 95.92 LIG-0.29  OA
ENDBRANCH 31 33
ENDBRANCH 28 31
ENDBRANCH 14 27
ENDBRANCH 12 14
ENDBRANCH 1 10
BRANCH 1 35
ATOM     35  N   LYS B 185       2.222  36.602   6.258  1.00 94.70 LIG-0.35  N 
ATOM     36 H    LYS B 185       1.487  36.480   6.688  1.00 94.70 LIG 0.16  HD
ATOM     37  C   LYS B 184       3.333  35.896   6.496  1.00 95.69 LIG 0.24  C 
ATOM     38 O    LYS B 184       4.406  36.117   5.926  1.00 96.36 LIG-0.27  OA
BRANCH 37 39
ATOM     39  CA  LYS B 184       3.206  34.772   7.521  1.00 89.09 LIG 0.18  C 
BRANCH 39 40
ATOM     40  CB  LYS B 184       2.703  33.488   6.853  1.00 73.03 LIG 0.04  C 
BRANCH 40 41
ATOM     41  CG  LYS B 184       3.814  32.641   6.219  1.00 60.77 LIG 0.00  C 
BRANCH 41 42
ATOM     42  CD  LYS B 184       5.189  33.234   6.476  1.00 63.88 LIG 0.03  C 
BRANCH 42 43
ATOM     43  CE  LYS B 184       5.995  33.429   5.193  1.00 60.38 LIG 0.23  C 
BRANCH 43 44
ATOM     44  NZ  LYS B 184       5.383  34.350   4.171  1.00 53.06 LIG-0.08  N 
ATOM     45 HZ3  LYS B 184       4.717  33.931   3.755  1.00 53.06 LIG 0.27  HD
ATOM     46 HZ2  LYS B 184       6.001  34.587   3.576  1.00 53.06 LIG 0.27  HD
ATOM     47 HZ1  LYS B 184       5.068  35.077   4.577  1.00 53.06 LIG 0.27  HD
ENDBRANCH 43 44
ENDBRANCH 42 43
ENDBRANCH 41 42
ENDBRANCH 40 41
ENDBRANCH 39 40
BRANCH 39 48
ATOM     48  N   LYS B 184       2.312  35.160   8.604  1.00 95.16 LIG-0.35  N 
ATOM     49 H    LYS B 184       1.604  34.676   8.671  1.00 95.16 LIG 0.16  HD
ATOM     50  C   PRO B 183       2.591  36.184   9.411  1.00102.83 LIG 0.24  C 
ATOM     51 O    PRO B 183       3.617  36.861   9.293  1.00 96.65 LIG-0.27  OA
BRANCH 50 52
ATOM     52  CA  PRO B 183       1.562  36.493  10.495  1.00119.60 LIG 0.18  C 
ATOM     53  N   PRO B 183       1.144  35.319  11.275  1.00125.08 LIG-0.34  N 
ATOM     54  CD  PRO B 183       1.951  35.160  12.500  1.00128.64 LIG 0.13  C 
ATOM     55  C   PRO B 182      -0.035  34.725  11.020  1.00122.07 LIG 0.26  C 
ATOM     56  CG  PRO B 183       2.742  36.461  12.578  1.00127.59 LIG 0.02  C 
ATOM     57  CB  PRO B 183       2.143  37.418  11.572  1.00124.68 LIG 0.04  C 
ATOM     58 O    PRO B 182      -0.820  35.124  10.157  1.00123.88 LIG-0.27  OA
BRANCH 55 59
ATOM     59  CA  PRO B 182      -0.411  33.509  11.869  1.00115.83 LIG 0.35  C 
ATOM     60  CB  PRO B 182       0.479  32.306  11.522  1.00111.53 LIG 0.05  C 
ATOM     61  CG  PRO B 182      -0.433  31.117  11.555  1.00111.42 LIG 0.04  C 
ATOM     62  CD  PRO B 182      -1.764  31.627  11.102  1.00113.66 LIG 0.32  C 
ATOM     63  N   PRO B 182      -1.766  33.021  11.583  1.00115.25 LIG 0.32  N 
ENDBRANCH 55 59
ENDBRANCH 50 52
ENDBRANCH 39 48
ENDBRANCH 37 39
ENDBRANCH 1 35
TORSDOF 24
ENDMDL
MODEL 4
USER: ADFR SOLUTION from run 169
USER: SCORE 21.319738 LL:  -3.412 LR: -18.982 RR:   0.000 FEB: -11.822
USER: RMSD 10.003287
USER: SEED 168
USER: STATUS no improvement in best in 3 clusters for 5 generations
USER: GENES 26
USER: genes 0 Translation |==|  0.55850 0.62019 0.39354
USER: genes 1 Rotation |==|  0.83572 0.37135 0.16049 0.57398
USER: genes 2 Torsion [C]-CA--CB-[CG] |==|  0.33664
USER: genes 3 Torsion [CA]-CB--CG-[CD] |==|  0.68864
USER: genes 4 Torsion [CB]-CG--CD-[CE] |==|  0.64380
USER: genes 5 Torsion [CG]-CD--CE-[NZ] |==|  0.47606
USER: genes 6 Torsion [CD]-CE--NZ-[HZ1] |==|  0.01801
USER: genes 7 Torsion [N]-CA--C-[N] |==|  0.56694
USER: genes 8 Torsion [C]-N--CA-[CB] |==|  0.84444
USER: genes 9 Torsion [N]-CA--CB-[CG] |==|  0.83002
USER: genes 10 Torsion [CA]-CB--CG-[CD] |==|  0.78315
USER: genes 11 Torsion [CB]-CG--CD-[NE] |==|  0.31192
USER: genes 12 Torsion [CG]-CD--NE-[CZ] |==|  0.16800
USER: genes 13 Torsion [N]-CA--C-[N] |==|  0.42758
USER: genes 14 Torsion [C]-N--CA-[C] |==|  0.80095
USER: genes 15 Torsion [N]-CA--C-[O] |==|  0.22676
USER: genes 16 Torsion [CB]-CA--N-[C] |==|  0.16965
USER: genes 17 Torsion [N]-C--CA-[N] |==|  0.33430
USER: genes 18 Torsion [C]-CA--CB-[CG] |==|  0.28107
USER: genes 19 Torsion [CA]-CB--CG-[CD] |==|  0.77451
USER: genes 20 Torsion [CB]-CG--CD-[CE] |==|  0.26759
USER: genes 21 Torsion [CG]-CD--CE-[NZ] |==|  0.54080
USER: genes 22 Torsion [CD]-CE--NZ-[HZ3] |==|  0.31731
USER: genes 23 Torsion [C]-CA--N-[C] |==|  0.77805
USER: genes 24 Torsion [N]-C--CA-[N] |==|  0.12059
USER: genes 25 Torsion [N]-C--CA-[CB] |==|  0.77400
ROOT
ATOM      1  CA  LYS B 185       3.368  37.970   4.640  1.00 91.41 LIG 0.18  C 
ENDROOT
BRANCH 1 2
ATOM      2  CB  LYS B 185       2.241  38.945   5.000  1.00 90.53 LIG 0.04  C 
BRANCH 2 3
ATOM      3  CG  LYS B 185       0.991  38.887   4.125  1.00 86.81 LIG 0.00  C 
BRANCH 3 4
ATOM      4  CD  LYS B 185       0.841  40.165   3.290  1.00 79.71 LIG 0.03  C 
BRANCH 4 5
ATOM      5  CE  LYS B 185      -0.543  40.804   3.431  1.00 72.24 LIG 0.23  C 
BRANCH 5 6
ATOM      6  NZ  LYS B 185      -0.641  42.149   2.793  1.00 67.20 LIG-0.08  N 
ATOM      7 HZ1  LYS B 185       0.110  42.323   2.347  1.00 67.20 LIG 0.27  HD
ATOM      8 HZ3  LYS B 185      -0.762  42.768   3.421  1.00 67.20 LIG 0.27  HD
ATOM      9 HZ2  LYS B 185      -1.330  42.161   2.229  1.00 67.20 LIG 0.27  HD
ENDBRANCH 5 6
ENDBRANCH 4 5
ENDBRANCH 3 4
ENDBRANCH 2 3
ENDBRANCH 1 2
BRANCH 1 10
ATOM     10  C   LYS B 185       4.642  38.749   4.330  1.00 87.67 LIG 0.24  C 
ATOM     11 O    LYS B 185       5.749  38.278   4.614  1.00 75.85 LIG-0.27  OA
ATOM     12  N   ARG B 186       4.473  39.944   3.769  1.00 93.18 LIG-0.35  N 
ATOM     13 H    ARG B 186       3.702  40.238   3.526  1.00 93.18 LIG 0.16  HD
BRANCH 12 14
ATOM     14  CA  ARG B 186       5.558  40.885   3.503  1.00 93.88 LIG 0.18  C 
BRANCH 14 15
ATOM     15  CB  ARG B 186       6.303  41.166   4.818  1.00 94.11 LIG 0.04  C 
BRANCH 15 16
ATOM     16  CG  ARG B 186       5.416  41.796   5.883  1.00 91.13 LIG 0.02  C 
BRANCH 16 17
ATOM     17  CD  ARG B 186       5.185  43.281   5.655  1.00 90.43 LIG 0.14  C 
BRANCH 17 18
ATOM     18  NE  ARG B 186       3.791  43.551   5.308  1.00 88.65 LIG-0.23  N 
ATOM     19 HE   ARG B 186       3.627  43.914   4.546  1.00 88.65 LIG 0.18  HD
ATOM     20  CZ  ARG B 186       2.758  43.268   6.099  1.00 77.61 LIG 0.67  C 
ATOM     21  NH2 ARG B 186       1.521  43.549   5.714  1.00 64.46 LIG-0.23  N 
ATOM     22  NH1 ARG B 186       2.966  42.700   7.278  1.00 71.89 LIG-0.23  N 
ATOM     23 2HH2 ARG B 186       0.858  43.364   6.229  1.00 64.46 LIG 0.17  HD
ATOM     24 1HH2 ARG B 186       1.381  43.915   4.948  1.00 64.46 LIG 0.17  HD
ATOM     25 1HH1 ARG B 186       3.767  42.514   7.530  1.00 71.89 LIG 0.17  HD
ATOM     26 2HH1 ARG B 186       2.299  42.517   7.790  1.00 71.89 LIG 0.17  HD
ENDBRANCH 17 18
ENDBRANCH 16 17
ENDBRANCH 15 16
ENDBRANCH 14 15
BRANCH 14 27
ATOM     27  C   ARG B 186       6.465  40.271   2.415  1.00100.48 LIG 0.24  C 
ATOM     28  N   ALA B 187       7.199  41.055   1.612  1.00104.89 LIG-0.35  N 
ATOM     29 H    ALA B 187       7.702  40.722   1.000  1.00104.89 LIG 0.16  HD
ATOM     30 O    ARG B 186       6.484  39.044   2.290  1.00101.56 LIG-0.27  OA
BRANCH 28 31
ATOM     31  CA  ALA B 187       7.261  42.518   1.641  1.00100.92 LIG 0.16  C 
ATOM     32  CB  ALA B 187       8.457  43.018   0.816  1.00 98.55 LIG 0.04  C 
BRANCH 31 33
ATOM     33  C   ALA B 187       5.969  43.139   1.116  1.00 96.24 LIG 0.22  C 
ATOM     34 O    ALA B 187       4.984  43.252   1.848  1.00 95.92 LIG-0.29  OA
ENDBRANCH 31 33
ENDBRANCH 28 31
ENDBRANCH 14 27
ENDBRANCH 12 14
ENDBRANCH 1 10
BRANCH 1 35
ATOM     35  N   LYS B 185       3.621  37.011   5.714  1.00 94.70 LIG-0.35  N 
ATOM     36 H    LYS B 185       4.417  37.055   6.035  1.00 94.70 LIG 0.16  HD
ATOM     37  C   LYS B 184       2.702  36.145   6.157  1.00 95.69 LIG 0.24  C 
ATOM     38 O    LYS B 184       1.582  36.035   5.649  1.00 96.36 LIG-0.27  OA
BRANCH 37 39
ATOM     39  CA  LYS B 184       3.110  35.288   7.352  1.00 89.09 LIG 0.18  C 
BRANCH 39 40
ATOM     40  CB  LYS B 184       3.124  33.804   6.971  1.00 73.03 LIG 0.04  C 
BRANCH 40 41
ATOM     41  CG  LYS B 184       4.526  33.246   6.696  1.00 60.77 LIG 0.00  C 
BRANCH 41 42
ATOM     42  CD  LYS B 184       5.000  33.580   5.292  1.00 63.88 LIG 0.03  C 
BRANCH 42 43
ATOM     43  CE  LYS B 184       5.883  34.825   5.250  1.00 60.38 LIG 0.23  C 
BRANCH 43 44
ATOM     44  NZ  LYS B 184       6.109  35.420   3.885  1.00 53.06 LIG-0.08  N 
ATOM     45 HZ3  LYS B 184       5.731  36.225   3.846  1.00 53.06 LIG 0.27  HD
ATOM     46 HZ2  LYS B 184       5.746  34.893   3.267  1.00 53.06 LIG 0.27  HD
ATOM     47 HZ1  LYS B 184       6.983  35.495   3.735  1.00 53.06 LIG 0.27  HD
ENDBRANCH 43 44
ENDBRANCH 42 43
ENDBRANCH 41 42
ENDBRANCH 40 41
ENDBRANCH 39 40
BRANCH 39 48
ATOM     48  N   LYS B 184       2.212  35.512   8.477  1.00 95.16 LIG-0.35  N 
ATOM     49 H    LYS B 184       1.607  34.907   8.575  1.00 95.16 LIG 0.16  HD
ATOM     50  C   PRO B 183       2.336  36.572   9.274  1.00102.83 LIG 0.24  C 
ATOM     51 O    PRO B 183       3.216  37.425   9.112  1.00 96.65 LIG-0.27  OA
BRANCH 50 52
ATOM     52  CA  PRO B 183       1.320  36.693  10.407  1.00119.60 LIG 0.18  C 
ATOM     53  N   PRO B 183       1.057  35.429  11.112  1.00125.08 LIG-0.34  N 
ATOM     54  CD  PRO B 183       1.920  35.275  12.299  1.00128.64 LIG 0.13  C 
ATOM     55  C   PRO B 182      -0.060  34.730  10.849  1.00122.07 LIG 0.26  C 
ATOM     56  CG  PRO B 183       2.571  36.646  12.448  1.00127.59 LIG 0.02  C 
ATOM     57  CB  PRO B 183       1.838  37.599  11.530  1.00124.68 LIG 0.04  C 
ATOM     58 O    PRO B 182      -0.914  35.100  10.038  1.00123.88 LIG-0.27  OA
BRANCH 55 59
ATOM     59  CA  PRO B 182      -0.275  33.425  11.618  1.00115.83 LIG 0.35  C 
ATOM     60  CB  PRO B 182       0.522  32.279  10.977  1.00111.53 LIG 0.05  C 
ATOM     61  CG  PRO B 182      -0.376  31.081  11.058  1.00111.42 LIG 0.04  C 
ATOM     62  CD  PRO B 182      -1.766  31.619  10.929  1.00113.66 LIG 0.32  C 
ATOM     63  N   PRO B 182      -1.664  32.953  11.548  1.00115.25 LIG 0.32  N 
ENDBRANCH 55 59
ENDBRANCH 50 52
ENDBRANCH 39 48
ENDBRANCH 37 39
ENDBRANCH 1 35
TORSDOF 24
ENDMDL
MODEL 5
USER: ADFR SOLUTION from run 184
USER: SCORE 19.782130 LL:  -3.284 LR: -18.787 RR:   0.000 FEB: -11.627
USER: RMSD 10.538156
USER: SEED 183
USER: STATUS no improvement in best in 5 clusters for 5 generations
USER: GENES 26
USER: genes 0 Translation |==|  0.49999 0.57924 0.42414
USER: genes 1 Rotation |==|  0.88959 0.35602 0.22178 0.50895
USER: genes 2 Torsion [C]-CA--CB-[CG] |==|  0.08628
USER: genes 3 Torsion [CA]-CB--CG-[CD] |==|  0.71774
USER: genes 4 Torsion [CB]-CG--CD-[CE] |==|  0.46015
USER: genes 5 Torsion [CG]-CD--CE-[NZ] |==|  0.29107
USER: genes 6 Torsion [CD]-CE--NZ-[HZ1] |==|  0.18986
USER: genes 7 Torsion [N]-CA--C-[N] |==|  0.41407
USER: genes 8 Torsion [C]-N--CA-[CB] |==|  0.16715
USER: genes 9 Torsion [N]-CA--CB-[CG] |==|  0.22867
USER: genes 10 Torsion [CA]-CB--CG-[CD] |==|  0.78032
USER: genes 11 Torsion [CB]-CG--CD-[NE] |==|  0.42032
USER: genes 12 Torsion [CG]-CD--NE-[CZ] |==|  0.48077
USER: genes 13 Torsion [N]-CA--C-[N] |==|  0.31752
USER: genes 14 Torsion [C]-N--CA-[C] |==|  0.53191
USER: genes 15 Torsion [N]-CA--C-[O] |==|  0.13624
USER: genes 16 Torsion [CB]-CA--N-[C] |==|  0.47778
USER: genes 17 Torsion [N]-C--CA-[N] |==|  0.48714
USER: genes 18 Torsion [C]-CA--CB-[CG] |==|  0.48506
USER: genes 19 Torsion [CA]-CB--CG-[CD] |==|  0.84343
USER: genes 20 Torsion [CB]-CG--CD-[CE] |==|  0.53004
USER: genes 21 Torsion [CG]-CD--CE-[NZ] |==|  0.46258
USER: genes 22 Torsion [CD]-CE--NZ-[HZ3] |==|  0.07581
USER: genes 23 Torsion [C]-CA--N-[C] |==|  0.64244
USER: genes 24 Torsion [N]-C--CA-[N] |==|  0.78780
USER: genes 25 Torsion [N]-C--CA-[CB] |==|  0.84718
ROOT
ATOM      1  CA  LYS B 185       2.359  36.865   5.260  1.00 91.41 LIG 0.18  C 
ENDROOT
BRANCH 1 2
ATOM      2  CB  LYS B 185       1.288  37.961   5.293  1.00 90.53 LIG 0.04  C 
BRANCH 2 3
ATOM      3  CG  LYS B 185       1.733  39.355   4.858  1.00 86.81 LIG 0.00  C 
BRANCH 3 4
ATOM      4  CD  LYS B 185       1.977  40.261   6.071  1.00 79.71 LIG 0.03  C 
BRANCH 4 5
ATOM      5  CE  LYS B 185       2.749  41.534   5.713  1.00 72.24 LIG 0.23  C 
BRANCH 5 6
ATOM      6  NZ  LYS B 185       1.891  42.754   5.671  1.00 67.20 LIG-0.08  N 
ATOM      7 HZ1  LYS B 185       1.615  42.952   6.494  1.00 67.20 LIG 0.27  HD
ATOM      8 HZ3  LYS B 185       1.184  42.602   5.151  1.00 67.20 LIG 0.27  HD
ATOM      9 HZ2  LYS B 185       2.359  43.435   5.343  1.00 67.20 LIG 0.27  HD
ENDBRANCH 5 6
ENDBRANCH 4 5
ENDBRANCH 3 4
ENDBRANCH 2 3
ENDBRANCH 1 2
BRANCH 1 10
ATOM     10  C   LYS B 185       3.728  37.474   5.545  1.00 87.67 LIG 0.24  C 
ATOM     11 O    LYS B 185       4.159  37.533   6.701  1.00 75.85 LIG-0.27  OA
ATOM     12  N   ARG B 186       4.388  37.943   4.489  1.00 93.18 LIG-0.35  N 
ATOM     13 H    ARG B 186       4.103  37.847   3.683  1.00 93.18 LIG 0.16  HD
BRANCH 12 14
ATOM     14  CA  ARG B 186       5.657  38.663   4.570  1.00 93.88 LIG 0.18  C 
BRANCH 14 15
ATOM     15  CB  ARG B 186       6.704  37.748   5.225  1.00 94.11 LIG 0.04  C 
BRANCH 15 16
ATOM     16  CG  ARG B 186       7.338  36.770   4.245  1.00 91.13 LIG 0.02  C 
BRANCH 16 17
ATOM     17  CD  ARG B 186       6.453  35.571   3.954  1.00 90.43 LIG 0.14  C 
BRANCH 17 18
ATOM     18  NE  ARG B 186       6.706  35.041   2.615  1.00 88.65 LIG-0.23  N 
ATOM     19 HE   ARG B 186       7.234  35.483   2.098  1.00 88.65 LIG 0.18  HD
ATOM     20  CZ  ARG B 186       6.170  33.916   2.145  1.00 77.61 LIG 0.67  C 
ATOM     21  NH2 ARG B 186       6.446  33.504   0.915  1.00 64.46 LIG-0.23  N 
ATOM     22  NH1 ARG B 186       5.359  33.201   2.911  1.00 71.89 LIG-0.23  N 
ATOM     23 2HH2 ARG B 186       6.097  32.776   0.618  1.00 64.46 LIG 0.17  HD
ATOM     24 1HH2 ARG B 186       6.974  33.963   0.416  1.00 64.46 LIG 0.17  HD
ATOM     25 1HH1 ARG B 186       5.180  33.464   3.710  1.00 71.89 LIG 0.17  HD
ATOM     26 2HH1 ARG B 186       5.012  32.474   2.608  1.00 71.89 LIG 0.17  HD
ENDBRANCH 17 18
ENDBRANCH 16 17
ENDBRANCH 15 16
ENDBRANCH 14 15
BRANCH 14 27
ATOM     27  C   ARG B 186       6.048  39.102   3.142  1.00100.48 LIG 0.24  C 
ATOM     28  N   ALA B 187       6.094  40.401   2.814  1.00104.89 LIG-0.35  N 
ATOM     29 H    ALA B 187       6.306  40.655   2.020  1.00104.89 LIG 0.16  HD
ATOM     30 O    ARG B 186       6.297  38.229   2.308  1.00101.56 LIG-0.27  OA
BRANCH 28 31
ATOM     31  CA  ALA B 187       5.811  41.535   3.697  1.00100.92 LIG 0.16  C 
ATOM     32  CB  ALA B 187       6.908  41.668   4.764  1.00 98.55 LIG 0.04  C 
BRANCH 31 33
ATOM     33  C   ALA B 187       5.691  42.836   2.908  1.00 96.24 LIG 0.22  C 
ATOM     34 O    ALA B 187       4.979  42.900   1.904  1.00 95.92 LIG-0.29  OA
ENDBRANCH 31 33
ENDBRANCH 28 31
ENDBRANCH 14 27
ENDBRANCH 12 14
ENDBRANCH 1 10
BRANCH 1 35
ATOM     35  N   LYS B 185       2.078  35.801   6.223  1.00 94.70 LIG-0.35  N 
ATOM     36 H    LYS B 185       1.422  35.978   6.750  1.00 94.70 LIG 0.16  HD
ATOM     37  C   LYS B 184       2.774  34.660   6.280  1.00 95.69 LIG 0.24  C 
ATOM     38 O    LYS B 184       3.759  34.436   5.570  1.00 96.36 LIG-0.27  OA
BRANCH 37 39
ATOM     39  CA  LYS B 184       2.277  33.622   7.282  1.00 89.09 LIG 0.18  C 
BRANCH 39 40
ATOM     40  CB  LYS B 184       2.355  34.170   8.711  1.00 73.03 LIG 0.04  C 
BRANCH 40 41
ATOM     41  CG  LYS B 184       1.751  33.237   9.768  1.00 60.77 LIG 0.00  C 
BRANCH 41 42
ATOM     42  CD  LYS B 184       0.304  32.894   9.457  1.00 63.88 LIG 0.03  C 
BRANCH 42 43
ATOM     43  CE  LYS B 184      -0.396  32.189  10.616  1.00 60.38 LIG 0.23  C 
BRANCH 43 44
ATOM     44  NZ  LYS B 184      -1.896  32.099  10.516  1.00 53.06 LIG-0.08  N 
ATOM     45 HZ3  LYS B 184      -2.137  32.106   9.659  1.00 53.06 LIG 0.27  HD
ATOM     46 HZ2  LYS B 184      -2.264  32.794  10.932  1.00 53.06 LIG 0.27  HD
ATOM     47 HZ1  LYS B 184      -2.174  31.344  10.896  1.00 53.06 LIG 0.27  HD
ENDBRANCH 43 44
ENDBRANCH 42 43
ENDBRANCH 41 42
ENDBRANCH 40 41
ENDBRANCH 39 40
BRANCH 39 48
ATOM     48  N   LYS B 184       3.047  32.389   7.172  1.00 95.16 LIG-0.35  N 
ATOM     49 H    LYS B 184       3.900  32.500   7.204  1.00 95.16 LIG 0.16  HD
ATOM     50  C   PRO B 183       2.456  31.203   7.037  1.00102.83 LIG 0.24  C 
ATOM     51 O    PRO B 183       1.228  31.074   6.996  1.00 96.65 LIG-0.27  OA
BRANCH 50 52
ATOM     52  CA  PRO B 183       3.380  29.994   6.918  1.00119.60 LIG 0.18  C 
ATOM     53  N   PRO B 183       4.011  29.851   5.598  1.00125.08 LIG-0.34  N 
ATOM     54  CD  PRO B 183       5.336  30.497   5.551  1.00128.64 LIG 0.13  C 
ATOM     55  C   PRO B 182       3.537  28.951   4.718  1.00122.07 LIG 0.26  C 
ATOM     56  CG  PRO B 183       5.618  30.840   7.010  1.00127.59 LIG 0.02  C 
ATOM     57  CB  PRO B 183       4.590  30.119   7.853  1.00124.68 LIG 0.04  C 
ATOM     58 O    PRO B 182       2.585  28.205   4.961  1.00123.88 LIG-0.27  OA
BRANCH 55 59
ATOM     59  CA  PRO B 182       4.239  28.851   3.363  1.00115.83 LIG 0.35  C 
ATOM     60  CB  PRO B 182       4.284  30.221   2.671  1.00111.53 LIG 0.05  C 
ATOM     61  CG  PRO B 182       4.033  29.939   1.220  1.00111.42 LIG 0.04  C 
ATOM     62  CD  PRO B 182       3.109  28.762   1.201  1.00113.66 LIG 0.32  C 
ATOM     63  N   PRO B 182       3.502  28.013   2.408  1.00115.25 LIG 0.32  N 
ENDBRANCH 55 59
ENDBRANCH 50 52
ENDBRANCH 39 48
ENDBRANCH 37 39
ENDBRANCH 1 35
TORSDOF 24
ENDMDL
MODEL 6
USER: ADFR SOLUTION from run 109
USER: SCORE 21.227315 LL:  -3.235 LR: -18.732 RR:   0.000 FEB: -11.573
USER: RMSD 7.045035
USER: SEED 108
USER: STATUS no improvement in best in 5 clusters for 5 generations
USER: GENES 26
USER: genes 0 Translation |==|  0.50679 0.55683 0.47694
USER: genes 1 Rotation |==|  0.58647 0.05095 0.30831 0.56427
USER: genes 2 Torsion [C]-CA--CB-[CG] |==|  0.39092
USER: genes 3 Torsion [CA]-CB--CG-[CD] |==|  0.35917
USER: genes 4 Torsion [CB]-CG--CD-[CE] |==|  0.49331
USER: genes 5 Torsion [CG]-CD--CE-[NZ] |==|  0.04622
USER: genes 6 Torsion [CD]-CE--NZ-[HZ1] |==|  0.92115
USER: genes 7 Torsion [N]-CA--C-[N] |==|  0.66593
USER: genes 8 Torsion [C]-N--CA-[CB] |==|  0.15556
USER: genes 9 Torsion [N]-CA--CB-[CG] |==|  0.49299
USER: genes 10 Torsion [CA]-CB--CG-[CD] |==|  0.59908
USER: genes 11 Torsion [CB]-CG--CD-[NE] |==|  0.16827
USER: genes 12 Torsion [CG]-CD--NE-[CZ] |==|  0.42787
USER: genes 13 Torsion [N]-CA--C-[N] |==|  0.14111
USER: genes 14 Torsion [C]-N--CA-[C] |==|  0.65094
USER: genes 15 Torsion [N]-CA--C-[O] |==|  0.85680
USER: genes 16 Torsion [CB]-CA--N-[C] |==|  0.13952
USER: genes 17 Torsion [N]-C--CA-[N] |==|  0.89547
USER: genes 18 Torsion [C]-CA--CB-[CG] |==|  0.10175
USER: genes 19 Torsion [CA]-CB--CG-[CD] |==|  0.20390
USER: genes 20 Torsion [CB]-CG--CD-[CE] |==|  0.55872
USER: genes 21 Torsion [CG]-CD--CE-[NZ] |==|  0.44609
USER: genes 22 Torsion [CD]-CE--NZ-[HZ3] |==|  0.65226
USER: genes 23 Torsion [C]-CA--N-[C] |==|  0.83547
USER: genes 24 Torsion [N]-C--CA-[N] |==|  0.67955
USER: genes 25 Torsion [N]-C--CA-[CB] |==|  0.61829
ROOT
ATOM      1  CA  LYS B 185       2.476  36.259   6.329  1.00 91.41 LIG 0.18  C 
ENDROOT
BRANCH 1 2
ATOM      2  CB  LYS B 185       2.817  37.093   5.088  1.00 90.53 LIG 0.04  C 
BRANCH 2 3
ATOM      3  CG  LYS B 185       1.645  37.786   4.397  1.00 86.81 LIG 0.00  C 
BRANCH 3 4
ATOM      4  CD  LYS B 185       1.939  39.275   4.171  1.00 79.71 LIG 0.03  C 
BRANCH 4 5
ATOM      5  CE  LYS B 185       0.811  39.993   3.426  1.00 72.24 LIG 0.23  C 
BRANCH 5 6
ATOM      6  NZ  LYS B 185      -0.473  39.234   3.422  1.00 67.20 LIG-0.08  N 
ATOM      7 HZ1  LYS B 185      -0.303  38.361   3.474  1.00 67.20 LIG 0.27  HD
ATOM      8 HZ3  LYS B 185      -0.918  39.405   2.671  1.00 67.20 LIG 0.27  HD
ATOM      9 HZ2  LYS B 185      -0.966  39.481   4.121  1.00 67.20 LIG 0.27  HD
ENDBRANCH 5 6
ENDBRANCH 4 5
ENDBRANCH 3 4
ENDBRANCH 2 3
ENDBRANCH 1 2
BRANCH 1 10
ATOM     10  C   LYS B 185       3.312  34.984   6.337  1.00 87.67 LIG 0.24  C 
ATOM     11 O    LYS B 185       3.169  34.146   7.233  1.00 75.85 LIG-0.27  OA
ATOM     12  N   ARG B 186       4.194  34.859   5.348  1.00 93.18 LIG-0.35  N 
ATOM     13 H    ARG B 186       4.247  35.421   4.699  1.00 93.18 LIG 0.16  HD
BRANCH 12 14
ATOM     14  CA  ARG B 186       5.162  33.769   5.246  1.00 93.88 LIG 0.18  C 
BRANCH 14 15
ATOM     15  CB  ARG B 186       4.406  32.432   5.274  1.00 94.11 LIG 0.04  C 
BRANCH 15 16
ATOM     16  CG  ARG B 186       5.321  31.225   5.112  1.00 91.13 LIG 0.02  C 
BRANCH 16 17
ATOM     17  CD  ARG B 186       4.680  30.103   4.313  1.00 90.43 LIG 0.14  C 
BRANCH 17 18
ATOM     18  NE  ARG B 186       4.338  30.546   2.963  1.00 88.65 LIG-0.23  N 
ATOM     19 HE   ARG B 186       4.190  31.384   2.837  1.00 88.65 LIG 0.18  HD
ATOM     20  CZ  ARG B 186       4.241  29.731   1.914  1.00 77.61 LIG 0.67  C 
ATOM     21  NH2 ARG B 186       3.921  30.210   0.720  1.00 64.46 LIG-0.23  N 
ATOM     22  NH1 ARG B 186       4.469  28.434   2.062  1.00 71.89 LIG-0.23  N 
ATOM     23 2HH2 ARG B 186       3.859  29.679   0.046  1.00 64.46 LIG 0.17  HD
ATOM     24 1HH2 ARG B 186       3.774  31.051   0.618  1.00 64.46 LIG 0.17  HD
ATOM     25 1HH1 ARG B 186       4.679  28.120   2.835  1.00 71.89 LIG 0.17  HD
ATOM     26 2HH1 ARG B 186       4.406  27.907   1.385  1.00 71.89 LIG 0.17  HD
ENDBRANCH 17 18
ENDBRANCH 16 17
ENDBRANCH 15 16
ENDBRANCH 14 15
BRANCH 14 27
ATOM     27  C   ARG B 186       5.977  33.975   3.951  1.00100.48 LIG 0.24  C 
ATOM     28  N   ALA B 187       6.553  35.157   3.684  1.00104.89 LIG-0.35  N 
ATOM     29 H    ALA B 187       7.004  35.282   2.963  1.00104.89 LIG 0.16  HD
ATOM     30 O    ARG B 186       6.070  33.033   3.161  1.00101.56 LIG-0.27  OA
BRANCH 28 31
ATOM     31  CA  ALA B 187       6.512  36.356   4.523  1.00100.92 LIG 0.16  C 
ATOM     32  CB  ALA B 187       7.906  36.657   5.093  1.00 98.55 LIG 0.04  C 
BRANCH 31 33
ATOM     33  C   ALA B 187       5.995  37.562   3.743  1.00 96.24 LIG 0.22  C 
ATOM     34 O    ALA B 187       6.492  37.868   2.658  1.00 95.92 LIG-0.29  OA
ENDBRANCH 31 33
ENDBRANCH 28 31
ENDBRANCH 14 27
ENDBRANCH 12 14
ENDBRANCH 1 10
BRANCH 1 35
ATOM     35  N   LYS B 185       2.699  37.007   7.565  1.00 94.70 LIG-0.35  N 
ATOM     36 H    LYS B 185       3.171  36.582   8.145  1.00 94.70 LIG 0.16  HD
ATOM     37  C   LYS B 184       2.217  38.237   7.776  1.00 95.69 LIG 0.24  C 
ATOM     38 O    LYS B 184       1.484  38.820   6.971  1.00 96.36 LIG-0.27  OA
BRANCH 37 39
ATOM     39  CA  LYS B 184       2.635  38.905   9.083  1.00 89.09 LIG 0.18  C 
BRANCH 39 40
ATOM     40  CB  LYS B 184       3.993  39.596   8.925  1.00 73.03 LIG 0.04  C 
BRANCH 40 41
ATOM     41  CG  LYS B 184       4.204  40.245   7.551  1.00 60.77 LIG 0.00  C 
BRANCH 41 42
ATOM     42  CD  LYS B 184       3.382  41.513   7.395  1.00 63.88 LIG 0.03  C 
BRANCH 42 43
ATOM     43  CE  LYS B 184       3.157  41.892   5.933  1.00 60.38 LIG 0.23  C 
BRANCH 43 44
ATOM     44  NZ  LYS B 184       2.011  42.833   5.671  1.00 53.06 LIG-0.08  N 
ATOM     45 HZ3  LYS B 184       1.460  42.471   5.073  1.00 53.06 LIG 0.27  HD
ATOM     46 HZ2  LYS B 184       2.325  43.603   5.356  1.00 53.06 LIG 0.27  HD
ATOM     47 HZ1  LYS B 184       1.569  42.981   6.429  1.00 53.06 LIG 0.27  HD
ENDBRANCH 43 44
ENDBRANCH 42 43
ENDBRANCH 41 42
ENDBRANCH 40 41
ENDBRANCH 39 40
BRANCH 39 48
ATOM     48  N   LYS B 184       2.687  37.932  10.166  1.00 95.16 LIG-0.35  N 
ATOM     49 H    LYS B 184       3.458  37.859  10.542  1.00 95.16 LIG 0.16  HD
ATOM     50  C   PRO B 183       1.617  37.225  10.526  1.00102.83 LIG 0.24  C 
ATOM     51 O    PRO B 183       0.521  37.350   9.970  1.00 96.65 LIG-0.27  OA
BRANCH 50 52
ATOM     52  CA  PRO B 183       1.813  36.229  11.666  1.00119.60 LIG 0.18  C 
ATOM     53  N   PRO B 183       1.636  34.824  11.270  1.00125.08 LIG-0.34  N 
ATOM     54  CD  PRO B 183       2.916  34.195  10.894  1.00128.64 LIG 0.13  C 
ATOM     55  C   PRO B 182       0.493  34.180  11.564  1.00122.07 LIG 0.26  C 
ATOM     56  CG  PRO B 183       3.958  35.222  11.324  1.00127.59 LIG 0.02  C 
ATOM     57  CB  PRO B 183       3.256  36.248  12.185  1.00124.68 LIG 0.04  C 
ATOM     58 O    PRO B 182      -0.440  34.704  12.178  1.00123.88 LIG-0.27  OA
BRANCH 55 59
ATOM     59  CA  PRO B 182       0.373  32.719  11.126  1.00115.83 LIG 0.35  C 
ATOM     60  CB  PRO B 182      -1.020  32.439  10.541  1.00111.53 LIG 0.05  C 
ATOM     61  CG  PRO B 182      -1.391  31.075  11.040  1.00111.42 LIG 0.04  C 
ATOM     62  CD  PRO B 182      -0.757  30.963  12.391  1.00113.66 LIG 0.32  C 
ATOM     63  N   PRO B 182       0.459  31.784  12.255  1.00115.25 LIG 0.32  N 
ENDBRANCH 55 59
ENDBRANCH 50 52
ENDBRANCH 39 48
ENDBRANCH 37 39
ENDBRANCH 1 35
TORSDOF 24
ENDMDL
MODEL 7
USER: ADFR SOLUTION from run 190
USER: SCORE 19.437313 LL:  -3.017 LR: -18.639 RR:   0.000 FEB: -11.480
USER: RMSD 11.233075
USER: SEED 189
USER: STATUS 1 or 2 clusters left
USER: GENES 26
USER: genes 0 Translation |==|  0.52336 0.60103 0.51853
USER: genes 1 Rotation |==|  0.02375 0.56187 0.63163 0.54504
USER: genes 2 Torsion [C]-CA--CB-[CG] |==|  0.47953
USER: genes 3 Torsion [CA]-CB--CG-[CD] |==|  0.67177
USER: genes 4 Torsion [CB]-CG--CD-[CE] |==|  0.82376
USER: genes 5 Torsion [CG]-CD--CE-[NZ] |==|  0.54882
USER: genes 6 Torsion [CD]-CE--NZ-[HZ1] |==|  0.84805
USER: genes 7 Torsion [N]-CA--C-[N] |==|  0.84653
USER: genes 8 Torsion [C]-N--CA-[CB] |==|  0.16915
USER: genes 9 Torsion [N]-CA--CB-[CG] |==|  0.15737
USER: genes 10 Torsion [CA]-CB--CG-[CD] |==|  0.32371
USER: genes 11 Torsion [CB]-CG--CD-[NE] |==|  0.51699
USER: genes 12 Torsion [CG]-CD--NE-[CZ] |==|  0.35428
USER: genes 13 Torsion [N]-CA--C-[N] |==|  0.21667
USER: genes 14 Torsion [C]-N--CA-[C] |==|  0.61309
USER: genes 15 Torsion [N]-CA--C-[O] |==|  0.01730
USER: genes 16 Torsion [CB]-CA--N-[C] |==|  0.40634
USER: genes 17 Torsion [N]-C--CA-[N] |==|  0.46000
USER: genes 18 Torsion [C]-CA--CB-[CG] |==|  0.46515
USER: genes 19 Torsion [CA]-CB--CG-[CD] |==|  0.73276
USER: genes 20 Torsion [CB]-CG--CD-[CE] |==|  0.60101
USER: genes 21 Torsion [CG]-CD--CE-[NZ] |==|  0.66556
USER: genes 22 Torsion [CD]-CE--NZ-[HZ3] |==|  0.89484
USER: genes 23 Torsion [C]-CA--N-[C] |==|  0.60233
USER: genes 24 Torsion [N]-C--CA-[N] |==|  0.65899
USER: genes 25 Torsion [N]-C--CA-[CB] |==|  0.17385
ROOT
ATOM      1  CA  LYS B 185       2.762  37.453   7.171  1.00 91.41 LIG 0.18  C 
ENDROOT
BRANCH 1 2
ATOM      2  CB  LYS B 185       1.648  38.316   6.568  1.00 90.53 LIG 0.04  C 
BRANCH 2 3
ATOM      3  CG  LYS B 185       1.032  37.812   5.265  1.00 86.81 LIG 0.00  C 
BRANCH 3 4
ATOM      4  CD  LYS B 185       1.255  38.813   4.125  1.00 79.71 LIG 0.03  C 
BRANCH 4 5
ATOM      5  CE  LYS B 185       0.563  40.156   4.373  1.00 72.24 LIG 0.23  C 
BRANCH 5 6
ATOM      6  NZ  LYS B 185       0.409  40.979   3.138  1.00 67.20 LIG-0.08  N 
ATOM      7 HZ1  LYS B 185       1.203  41.087   2.751  1.00 67.20 LIG 0.27  HD
ATOM      8 HZ3  LYS B 185       0.073  41.775   3.351  1.00 67.20 LIG 0.27  HD
ATOM      9 HZ2  LYS B 185      -0.142  40.567   2.573  1.00 67.20 LIG 0.27  HD
ENDBRANCH 5 6
ENDBRANCH 4 5
ENDBRANCH 3 4
ENDBRANCH 2 3
ENDBRANCH 1 2
BRANCH 1 10
ATOM     10  C   LYS B 185       3.390  38.179   8.357  1.00 87.67 LIG 0.24  C 
ATOM     11 O    LYS B 185       4.558  38.577   8.300  1.00 75.85 LIG-0.27  OA
ATOM     12  N   ARG B 186       2.614  38.324   9.428  1.00 93.18 LIG-0.35  N 
ATOM     13 H    ARG B 186       1.786  38.093   9.437  1.00 93.18 LIG 0.16  HD
BRANCH 12 14
ATOM     14  CA  ARG B 186       3.068  38.887  10.698  1.00 93.88 LIG 0.18  C 
BRANCH 14 15
ATOM     15  CB  ARG B 186       3.539  40.331  10.458  1.00 94.11 LIG 0.04  C 
BRANCH 15 16
ATOM     16  CG  ARG B 186       2.466  41.212   9.833  1.00 91.13 LIG 0.02  C 
BRANCH 16 17
ATOM     17  CD  ARG B 186       2.044  42.358  10.738  1.00 90.43 LIG 0.14  C 
BRANCH 17 18
ATOM     18  NE  ARG B 186       0.916  43.093  10.167  1.00 88.65 LIG-0.23  N 
ATOM     19 HE   ARG B 186       0.987  43.378   9.359  1.00 88.65 LIG 0.18  HD
ATOM     20  CZ  ARG B 186      -0.214  43.348  10.823  1.00 77.61 LIG 0.67  C 
ATOM     21  NH2 ARG B 186      -1.192  44.026  10.236  1.00 64.46 LIG-0.23  N 
ATOM     22  NH1 ARG B 186      -0.368  42.919  12.067  1.00 71.89 LIG-0.23  N 
ATOM     23 2HH2 ARG B 186      -1.920  44.188  10.665  1.00 64.46 LIG 0.17  HD
ATOM     24 1HH2 ARG B 186      -1.097  44.305   9.428  1.00 64.46 LIG 0.17  HD
ATOM     25 1HH1 ARG B 186       0.263  42.477  12.450  1.00 71.89 LIG 0.17  HD
ATOM     26 2HH1 ARG B 186      -1.098  43.084  12.492  1.00 71.89 LIG 0.17  HD
ENDBRANCH 17 18
ENDBRANCH 16 17
ENDBRANCH 15 16
ENDBRANCH 14 15
BRANCH 14 27
ATOM     27  C   ARG B 186       1.903  38.791  11.706  1.00100.48 LIG 0.24  C 
ATOM     28  N   ALA B 187       1.611  37.629  12.307  1.00104.89 LIG-0.35  N 
ATOM     29 H    ALA B 187       0.960  37.565  12.865  1.00104.89 LIG 0.16  HD
ATOM     30 O    ARG B 186       1.236  39.804  11.930  1.00101.56 LIG-0.27  OA
BRANCH 28 31
ATOM     31  CA  ALA B 187       2.307  36.354  12.124  1.00100.92 LIG 0.16  C 
ATOM     32  CB  ALA B 187       3.316  36.128  13.261  1.00 98.55 LIG 0.04  C 
BRANCH 31 33
ATOM     33  C   ALA B 187       1.323  35.188  12.061  1.00 96.24 LIG 0.22  C 
ATOM     34 O    ALA B 187       0.108  35.392  12.045  1.00 95.92 LIG-0.29  OA
ENDBRANCH 31 33
ENDBRANCH 28 31
ENDBRANCH 14 27
ENDBRANCH 12 14
ENDBRANCH 1 10
BRANCH 1 35
ATOM     35  N   LYS B 185       2.267  36.145   7.595  1.00 94.70 LIG-0.35  N 
ATOM     36 H    LYS B 185       1.459  36.161   7.890  1.00 94.70 LIG 0.16  HD
ATOM     37  C   LYS B 184       2.999  35.027   7.532  1.00 95.69 LIG 0.24  C 
ATOM     38 O    LYS B 184       4.181  35.016   7.174  1.00 96.36 LIG-0.27  OA
BRANCH 37 39
ATOM     39  CA  LYS B 184       2.285  33.735   7.923  1.00 89.09 LIG 0.18  C 
BRANCH 39 40
ATOM     40  CB  LYS B 184       2.046  33.689   9.436  1.00 73.03 LIG 0.04  C 
BRANCH 40 41
ATOM     41  CG  LYS B 184       1.076  32.585   9.877  1.00 60.77 LIG 0.00  C 
BRANCH 41 42
ATOM     42  CD  LYS B 184      -0.339  33.112  10.042  1.00 63.88 LIG 0.03  C 
BRANCH 42 43
ATOM     43  CE  LYS B 184      -1.079  32.460  11.208  1.00 60.38 LIG 0.23  C 
BRANCH 43 44
ATOM     44  NZ  LYS B 184      -2.344  31.726  10.852  1.00 53.06 LIG-0.08  N 
ATOM     45 HZ3  LYS B 184      -2.776  32.172  10.214  1.00 53.06 LIG 0.27  HD
ATOM     46 HZ2  LYS B 184      -2.863  31.661  11.571  1.00 53.06 LIG 0.27  HD
ATOM     47 HZ1  LYS B 184      -2.141  30.910  10.558  1.00 53.06 LIG 0.27  HD
ENDBRANCH 43 44
ENDBRANCH 42 43
ENDBRANCH 41 42
ENDBRANCH 40 41
ENDBRANCH 39 40
BRANCH 39 48
ATOM     48  N   LYS B 184       3.054  32.572   7.498  1.00 95.16 LIG-0.35  N 
ATOM     49 H    LYS B 184       3.907  32.666   7.566  1.00 95.16 LIG 0.16  HD
ATOM     50  C   PRO B 183       2.462  31.467   7.047  1.00102.83 LIG 0.24  C 
ATOM     51 O    PRO B 183       1.234  31.360   6.962  1.00 96.65 LIG-0.27  OA
BRANCH 50 52
ATOM     52  CA  PRO B 183       3.385  30.329   6.621  1.00119.60 LIG 0.18  C 
ATOM     53  N   PRO B 183       3.195  29.893   5.230  1.00125.08 LIG-0.34  N 
ATOM     54  CD  PRO B 183       4.114  30.588   4.309  1.00128.64 LIG 0.13  C 
ATOM     55  C   PRO B 182       2.504  28.771   4.963  1.00122.07 LIG 0.26  C 
ATOM     56  CG  PRO B 183       5.080  31.309   5.243  1.00127.59 LIG 0.02  C 
ATOM     57  CB  PRO B 183       4.855  30.763   6.636  1.00124.68 LIG 0.04  C 
ATOM     58 O    PRO B 182       2.016  28.054   5.839  1.00123.88 LIG-0.27  OA
BRANCH 55 59
ATOM     59  CA  PRO B 182       2.344  28.373   3.494  1.00115.83 LIG 0.35  C 
ATOM     60  CB  PRO B 182       3.712  28.084   2.857  1.00111.53 LIG 0.05  C 
ATOM     61  CG  PRO B 182       3.632  28.656   1.473  1.00111.42 LIG 0.04  C 
ATOM     62  CD  PRO B 182       2.738  29.850   1.590  1.00113.66 LIG 0.32  C 
ATOM     63  N   PRO B 182       1.811  29.466   2.670  1.00115.25 LIG 0.32  N 
ENDBRANCH 55 59
ENDBRANCH 50 52
ENDBRANCH 39 48
ENDBRANCH 37 39
ENDBRANCH 1 35
TORSDOF 24
ENDMDL
MODEL 8
USER: ADFR SOLUTION from run 23
USER: SCORE 20.678524 LL:  -3.393 LR: -18.596 RR:   0.000 FEB: -11.436
USER: RMSD 9.416125
USER: SEED 22
USER: STATUS no improvement in best in 3 clusters for 5 generations
USER: GENES 26
USER: genes 0 Translation |==|  0.54017 0.50481 0.47359
USER: genes 1 Rotation |==|  0.23695 0.76329 0.81870 0.59957
USER: genes 2 Torsion [C]-CA--CB-[CG] |==|  0.27139
USER: genes 3 Torsion [CA]-CB--CG-[CD] |==|  0.22693
USER: genes 4 Torsion [CB]-CG--CD-[CE] |==|  0.44179
USER: genes 5 Torsion [CG]-CD--CE-[NZ] |==|  0.47008
USER: genes 6 Torsion [CD]-CE--NZ-[HZ1] |==|  0.27775
USER: genes 7 Torsion [N]-CA--C-[N] |==|  0.36316
USER: genes 8 Torsion [C]-N--CA-[CB] |==|  0.21645
USER: genes 9 Torsion [N]-CA--CB-[CG] |==|  0.08246
USER: genes 10 Torsion [CA]-CB--CG-[CD] |==|  0.34120
USER: genes 11 Torsion [CB]-CG--CD-[NE] |==|  0.71769
USER: genes 12 Torsion [CG]-CD--NE-[CZ] |==|  0.54246
USER: genes 13 Torsion [N]-CA--C-[N] |==|  0.24690
USER: genes 14 Torsion [C]-N--CA-[C] |==|  0.70212
USER: genes 15 Torsion [N]-CA--C-[O] |==|  0.74510
USER: genes 16 Torsion [CB]-CA--N-[C] |==|  0.85000
USER: genes 17 Torsion [N]-C--CA-[N] |==|  0.22437
USER: genes 18 Torsion [C]-CA--CB-[CG] |==|  0.30437
USER: genes 19 Torsion [CA]-CB--CG-[CD] |==|  0.07542
USER: genes 20 Torsion [CB]-CG--CD-[CE] |==|  0.20742
USER: genes 21 Torsion [CG]-CD--CE-[NZ] |==|  0.41971
USER: genes 22 Torsion [CD]-CE--NZ-[HZ3] |==|  0.36916
USER: genes 23 Torsion [C]-CA--N-[C] |==|  0.76895
USER: genes 24 Torsion [N]-C--CA-[N] |==|  0.37017
USER: genes 25 Torsion [N]-C--CA-[CB] |==|  0.81596
ROOT
ATOM      1  CA  LYS B 185       3.052  34.855   6.261  1.00 91.41 LIG 0.18  C 
ENDROOT
BRANCH 1 2
ATOM      2  CB  LYS B 185       3.118  36.348   6.601  1.00 90.53 LIG 0.04  C 
BRANCH 2 3
ATOM      3  CG  LYS B 185       2.962  37.316   5.431  1.00 86.81 LIG 0.00  C 
BRANCH 3 4
ATOM      4  CD  LYS B 185       1.484  37.523   5.078  1.00 79.71 LIG 0.03  C 
BRANCH 4 5
ATOM      5  CE  LYS B 185       1.238  38.818   4.299  1.00 72.24 LIG 0.23  C 
BRANCH 5 6
ATOM      6  NZ  LYS B 185      -0.137  38.913   3.728  1.00 67.20 LIG-0.08  N 
ATOM      7 HZ1  LYS B 185      -0.641  39.429   4.251  1.00 67.20 LIG 0.27  HD
ATOM      8 HZ3  LYS B 185      -0.496  38.100   3.681  1.00 67.20 LIG 0.27  HD
ATOM      9 HZ2  LYS B 185      -0.097  39.267   2.913  1.00 67.20 LIG 0.27  HD
ENDBRANCH 5 6
ENDBRANCH 4 5
ENDBRANCH 3 4
ENDBRANCH 2 3
ENDBRANCH 1 2
BRANCH 1 10
ATOM     10  C   LYS B 185       4.465  34.294   6.131  1.00 87.67 LIG 0.24  C 
ATOM     11 O    LYS B 185       5.163  34.118   7.135  1.00 75.85 LIG-0.27  OA
ATOM     12  N   ARG B 186       4.879  34.039   4.892  1.00 93.18 LIG-0.35  N 
ATOM     13 H    ARG B 186       4.365  34.113   4.207  1.00 93.18 LIG 0.16  HD
BRANCH 12 14
ATOM     14  CA  ARG B 186       6.233  33.609   4.554  1.00 93.88 LIG 0.18  C 
BRANCH 14 15
ATOM     15  CB  ARG B 186       6.374  32.114   4.882  1.00 94.11 LIG 0.04  C 
BRANCH 15 16
ATOM     16  CG  ARG B 186       5.063  31.349   4.754  1.00 91.13 LIG 0.02  C 
BRANCH 16 17
ATOM     17  CD  ARG B 186       5.151  30.188   3.778  1.00 90.43 LIG 0.14  C 
BRANCH 17 18
ATOM     18  NE  ARG B 186       4.545  30.532   2.493  1.00 88.65 LIG-0.23  N 
ATOM     19 HE   ARG B 186       4.391  31.361   2.327  1.00 88.65 LIG 0.18  HD
ATOM     20  CZ  ARG B 186       4.217  29.638   1.562  1.00 77.61 LIG 0.67  C 
ATOM     21  NH2 ARG B 186       3.665  30.029   0.421  1.00 64.46 LIG-0.23  N 
ATOM     22  NH1 ARG B 186       4.445  28.350   1.773  1.00 71.89 LIG-0.23  N 
ATOM     23 2HH2 ARG B 186       3.455  29.447  -0.177  1.00 64.46 LIG 0.17  HD
ATOM     24 1HH2 ARG B 186       3.517  30.864   0.279  1.00 64.46 LIG 0.17  HD
ATOM     25 1HH1 ARG B 186       4.806  28.093   2.510  1.00 71.89 LIG 0.17  HD
ATOM     26 2HH1 ARG B 186       4.233  27.772   1.172  1.00 71.89 LIG 0.17  HD
ENDBRANCH 17 18
ENDBRANCH 16 17
ENDBRANCH 15 16
ENDBRANCH 14 15
BRANCH 14 27
ATOM     27  C   ARG B 186       6.475  33.925   3.062  1.00100.48 LIG 0.24  C 
ATOM     28  N   ALA B 187       6.964  35.115   2.685  1.00104.89 LIG-0.35  N 
ATOM     29 H    ALA B 187       7.097  35.302   1.857  1.00104.89 LIG 0.16  HD
ATOM     30 O    ARG B 186       6.190  33.064   2.227  1.00101.56 LIG-0.27  OA
BRANCH 28 31
ATOM     31  CA  ALA B 187       7.331  36.226   3.565  1.00100.92 LIG 0.16  C 
ATOM     32  CB  ALA B 187       8.736  36.742   3.218  1.00 98.55 LIG 0.04  C 
BRANCH 31 33
ATOM     33  C   ALA B 187       6.319  37.366   3.472  1.00 96.24 LIG 0.22  C 
ATOM     34 O    ALA B 187       6.484  38.288   2.671  1.00 95.92 LIG-0.29  OA
ENDBRANCH 31 33
ENDBRANCH 28 31
ENDBRANCH 14 27
ENDBRANCH 12 14
ENDBRANCH 1 10
BRANCH 1 35
ATOM     35  N   LYS B 185       2.308  34.100   7.268  1.00 94.70 LIG-0.35  N 
ATOM     36 H    LYS B 185       1.667  33.630   6.942  1.00 94.70 LIG 0.16  HD
ATOM     37  C   LYS B 184       2.597  34.136   8.574  1.00 95.69 LIG 0.24  C 
ATOM     38 O    LYS B 184       3.474  34.863   9.049  1.00 96.36 LIG-0.27  OA
BRANCH 37 39
ATOM     39  CA  LYS B 184       1.780  33.205   9.467  1.00 89.09 LIG 0.18  C 
BRANCH 39 40
ATOM     40  CB  LYS B 184       1.768  33.718  10.911  1.00 73.03 LIG 0.04  C 
BRANCH 40 41
ATOM     41  CG  LYS B 184       0.409  34.267  11.364  1.00 60.77 LIG 0.00  C 
BRANCH 41 42
ATOM     42  CD  LYS B 184      -0.739  33.622  10.607  1.00 63.88 LIG 0.03  C 
BRANCH 42 43
ATOM     43  CE  LYS B 184      -1.018  32.192  11.068  1.00 60.38 LIG 0.23  C 
BRANCH 43 44
ATOM     44  NZ  LYS B 184      -2.442  31.725  10.922  1.00 53.06 LIG-0.08  N 
ATOM     45 HZ3  LYS B 184      -2.452  30.918  10.546  1.00 53.06 LIG 0.27  HD
ATOM     46 HZ2  LYS B 184      -2.891  32.296  10.409  1.00 53.06 LIG 0.27  HD
ATOM     47 HZ1  LYS B 184      -2.824  31.683  11.724  1.00 53.06 LIG 0.27  HD
ENDBRANCH 43 44
ENDBRANCH 42 43
ENDBRANCH 41 42
ENDBRANCH 40 41
ENDBRANCH 39 40
BRANCH 39 48
ATOM     48  N   LYS B 184       2.308  31.848   9.418  1.00 95.16 LIG-0.35  N 
ATOM     49 H    LYS B 184       2.841  31.651  10.064  1.00 95.16 LIG 0.16  HD
ATOM     50  C   PRO B 183       1.978  31.002   8.443  1.00102.83 LIG 0.24  C 
ATOM     51 O    PRO B 183       1.208  31.312   7.527  1.00 96.65 LIG-0.27  OA
BRANCH 50 52
ATOM     52  CA  PRO B 183       2.613  29.616   8.503  1.00119.60 LIG 0.18  C 
ATOM     53  N   PRO B 183       1.664  28.513   8.292  1.00125.08 LIG-0.34  N 
ATOM     54  CD  PRO B 183       1.609  28.103   6.876  1.00128.64 LIG 0.13  C 
ATOM     55  C   PRO B 182       1.207  27.806   9.340  1.00122.07 LIG 0.26  C 
ATOM     56  CG  PRO B 183       2.779  28.847   6.242  1.00127.59 LIG 0.02  C 
ATOM     57  CB  PRO B 183       3.620  29.410   7.366  1.00124.68 LIG 0.04  C 
ATOM     58 O    PRO B 182       1.555  28.021  10.503  1.00123.88 LIG-0.27  OA
BRANCH 55 59
ATOM     59  CA  PRO B 182       0.223  26.671   9.051  1.00115.83 LIG 0.35  C 
ATOM     60  CB  PRO B 182      -1.104  27.225   8.510  1.00111.53 LIG 0.05  C 
ATOM     61  CG  PRO B 182      -2.171  26.387   9.147  1.00111.42 LIG 0.04  C 
ATOM     62  CD  PRO B 182      -1.635  26.023  10.496  1.00113.66 LIG 0.32  C 
ATOM     63  N   PRO B 182      -0.181  25.953  10.267  1.00115.25 LIG 0.32  N 
ENDBRANCH 55 59
ENDBRANCH 50 52
ENDBRANCH 39 48
ENDBRANCH 37 39
ENDBRANCH 1 35
TORSDOF 24
ENDMDL
MODEL 9
USER: ADFR SOLUTION from run 138
USER: SCORE 21.145562 LL:  -3.516 LR: -18.467 RR:   0.000 FEB: -11.308
USER: RMSD 6.343167
USER: SEED 137
USER: STATUS no improvement in best in 3 clusters for 5 generations
USER: GENES 26
USER: genes 0 Translation |==|  0.47487 0.57922 0.45850
USER: genes 1 Rotation |==|  0.64455 0.05289 0.33252 0.53385
USER: genes 2 Torsion [C]-CA--CB-[CG] |==|  0.44409
USER: genes 3 Torsion [CA]-CB--CG-[CD] |==|  0.19588
USER: genes 4 Torsion [CB]-CG--CD-[CE] |==|  0.48151
USER: genes 5 Torsion [CG]-CD--CE-[NZ] |==|  0.87215
USER: genes 6 Torsion [CD]-CE--NZ-[HZ1] |==|  0.57204
USER: genes 7 Torsion [N]-CA--C-[N] |==|  0.30041
USER: genes 8 Torsion [C]-N--CA-[CB] |==|  0.86663
USER: genes 9 Torsion [N]-CA--CB-[CG] |==|  0.52537
USER: genes 10 Torsion [CA]-CB--CG-[CD] |==|  0.46765
USER: genes 11 Torsion [CB]-CG--CD-[NE] |==|  0.86982
USER: genes 12 Torsion [CG]-CD--NE-[CZ] |==|  0.36685
USER: genes 13 Torsion [N]-CA--C-[N] |==|  0.36179
USER: genes 14 Torsion [C]-N--CA-[C] |==|  0.75160
USER: genes 15 Torsion [N]-CA--C-[O] |==|  0.14951
USER: genes 16 Torsion [CB]-CA--N-[C] |==|  0.83881
USER: genes 17 Torsion [N]-C--CA-[N] |==|  0.21667
USER: genes 18 Torsion [C]-CA--CB-[CG] |==|  0.23064
USER: genes 19 Torsion [CA]-CB--CG-[CD] |==|  0.79690
USER: genes 20 Torsion [CB]-CG--CD-[CE] |==|  0.54144
USER: genes 21 Torsion [CG]-CD--CE-[NZ] |==|  0.72276
USER: genes 22 Torsion [CD]-CE--NZ-[HZ3] |==|  0.20606
USER: genes 23 Torsion [C]-CA--N-[C] |==|  0.78319
USER: genes 24 Torsion [N]-C--CA-[N] |==|  0.65273
USER: genes 25 Torsion [N]-C--CA-[CB] |==|  0.62417
ROOT
ATOM      1  CA  LYS B 185       1.925  36.864   5.956  1.00 91.41 LIG 0.18  C 
ENDROOT
BRANCH 1 2
ATOM      2  CB  LYS B 185       2.378  37.727   4.772  1.00 90.53 LIG 0.04  C 
BRANCH 2 3
ATOM      3  CG  LYS B 185       1.294  38.557   4.088  1.00 86.81 LIG 0.00  C 
BRANCH 3 4
ATOM      4  CD  LYS B 185       0.829  39.709   4.987  1.00 79.71 LIG 0.03  C 
BRANCH 4 5
ATOM      5  CE  LYS B 185      -0.138  40.660   4.276  1.00 72.24 LIG 0.23  C 
BRANCH 5 6
ATOM      6  NZ  LYS B 185       0.312  41.047   2.907  1.00 67.20 LIG-0.08  N 
ATOM      7 HZ1  LYS B 185      -0.036  41.837   2.692  1.00 67.20 LIG 0.27  HD
ATOM      8 HZ3  LYS B 185       0.040  40.434   2.321  1.00 67.20 LIG 0.27  HD
ATOM      9 HZ2  LYS B 185       1.200  41.099   2.890  1.00 67.20 LIG 0.27  HD
ENDBRANCH 5 6
ENDBRANCH 4 5
ENDBRANCH 3 4
ENDBRANCH 2 3
ENDBRANCH 1 2
BRANCH 1 10
ATOM     10  C   LYS B 185       2.946  35.757   6.204  1.00 87.67 LIG 0.24  C 
ATOM     11 O    LYS B 185       4.147  36.025   6.305  1.00 75.85 LIG-0.27  OA
ATOM     12  N   ARG B 186       2.458  34.521   6.279  1.00 93.18 LIG-0.35  N 
ATOM     13 H    ARG B 186       1.615  34.353   6.263  1.00 93.18 LIG 0.16  HD
BRANCH 12 14
ATOM     14  CA  ARG B 186       3.283  33.321   6.397  1.00 93.88 LIG 0.18  C 
BRANCH 14 15
ATOM     15  CB  ARG B 186       4.402  33.386   5.346  1.00 94.11 LIG 0.04  C 
BRANCH 15 16
ATOM     16  CG  ARG B 186       5.189  32.086   5.231  1.00 91.13 LIG 0.02  C 
BRANCH 16 17
ATOM     17  CD  ARG B 186       6.097  32.053   4.014  1.00 90.43 LIG 0.14  C 
BRANCH 17 18
ATOM     18  NE  ARG B 186       5.388  32.497   2.814  1.00 88.65 LIG-0.23  N 
ATOM     19 HE   ARG B 186       4.612  32.161   2.655  1.00 88.65 LIG 0.18  HD
ATOM     20  CZ  ARG B 186       5.870  33.391   1.954  1.00 77.61 LIG 0.67  C 
ATOM     21  NH2 ARG B 186       5.167  33.740   0.884  1.00 64.46 LIG-0.23  N 
ATOM     22  NH1 ARG B 186       7.057  33.940   2.166  1.00 71.89 LIG-0.23  N 
ATOM     23 2HH2 ARG B 186       5.483  34.318   0.332  1.00 64.46 LIG 0.17  HD
ATOM     24 1HH2 ARG B 186       4.395  33.389   0.744  1.00 64.46 LIG 0.17  HD
ATOM     25 1HH1 ARG B 186       7.515  33.718   2.860  1.00 71.89 LIG 0.17  HD
ATOM     26 2HH1 ARG B 186       7.370  34.517   1.610  1.00 71.89 LIG 0.17  HD
ENDBRANCH 17 18
ENDBRANCH 16 17
ENDBRANCH 15 16
ENDBRANCH 14 15
BRANCH 14 27
ATOM     27  C   ARG B 186       3.817  33.250   7.844  1.00100.48 LIG 0.24  C 
ATOM     28  N   ALA B 187       3.704  32.123   8.561  1.00104.89 LIG-0.35  N 
ATOM     29 H    ALA B 187       3.993  32.076   9.370  1.00104.89 LIG 0.16  HD
ATOM     30 O    ARG B 186       4.332  34.260   8.329  1.00101.56 LIG-0.27  OA
BRANCH 28 31
ATOM     31  CA  ALA B 187       3.106  30.863   8.117  1.00100.92 LIG 0.16  C 
ATOM     32  CB  ALA B 187       3.807  29.672   8.789  1.00 98.55 LIG 0.04  C 
BRANCH 31 33
ATOM     33  C   ALA B 187       1.609  30.822   8.414  1.00 96.24 LIG 0.22  C 
ATOM     34 O    ALA B 187       0.866  31.724   8.022  1.00 95.92 LIG-0.29  OA
ENDBRANCH 31 33
ENDBRANCH 28 31
ENDBRANCH 14 27
ENDBRANCH 12 14
ENDBRANCH 1 10
BRANCH 1 35
ATOM     35  N   LYS B 185       1.747  37.657   7.171  1.00 94.70 LIG-0.35  N 
ATOM     36 H    LYS B 185       0.954  37.608   7.500  1.00 94.70 LIG 0.16  HD
ATOM     37  C   LYS B 184       2.723  38.389   7.720  1.00 95.69 LIG 0.24  C 
ATOM     38 O    LYS B 184       3.840  38.513   7.208  1.00 96.36 LIG-0.27  OA
BRANCH 37 39
ATOM     39  CA  LYS B 184       2.385  39.071   9.043  1.00 89.09 LIG 0.18  C 
BRANCH 39 40
ATOM     40  CB  LYS B 184       3.340  40.241   9.304  1.00 73.03 LIG 0.04  C 
BRANCH 40 41
ATOM     41  CG  LYS B 184       2.935  41.542   8.598  1.00 60.77 LIG 0.00  C 
BRANCH 41 42
ATOM     42  CD  LYS B 184       3.193  41.474   7.103  1.00 63.88 LIG 0.03  C 
BRANCH 42 43
ATOM     43  CE  LYS B 184       3.148  42.847   6.435  1.00 60.38 LIG 0.23  C 
BRANCH 43 44
ATOM     44  NZ  LYS B 184       1.864  43.188   5.727  1.00 53.06 LIG-0.08  N 
ATOM     45 HZ3  LYS B 184       1.234  43.374   6.327  1.00 53.06 LIG 0.27  HD
ATOM     46 HZ2  LYS B 184       1.606  42.496   5.231  1.00 53.06 LIG 0.27  HD
ATOM     47 HZ1  LYS B 184       1.993  43.896   5.203  1.00 53.06 LIG 0.27  HD
ENDBRANCH 43 44
ENDBRANCH 42 43
ENDBRANCH 41 42
ENDBRANCH 40 41
ENDBRANCH 39 40
BRANCH 39 48
ATOM     48  N   LYS B 184       2.442  38.118  10.144  1.00 95.16 LIG-0.35  N 
ATOM     49 H    LYS B 184       3.157  38.169  10.620  1.00 95.16 LIG 0.16  HD
ATOM     50  C   PRO B 183       1.457  37.251  10.372  1.00102.83 LIG 0.24  C 
ATOM     51 O    PRO B 183       0.440  37.202   9.672  1.00 96.65 LIG-0.27  OA
BRANCH 50 52
ATOM     52  CA  PRO B 183       1.650  36.299  11.549  1.00119.60 LIG 0.18  C 
ATOM     53  N   PRO B 183       1.525  34.878  11.195  1.00125.08 LIG-0.34  N 
ATOM     54  CD  PRO B 183       2.834  34.277  10.875  1.00128.64 LIG 0.13  C 
ATOM     55  C   PRO B 182       0.394  34.208  11.479  1.00122.07 LIG 0.26  C 
ATOM     56  CG  PRO B 183       3.832  35.348  11.300  1.00127.59 LIG 0.02  C 
ATOM     57  CB  PRO B 183       3.076  36.379  12.107  1.00124.68 LIG 0.04  C 
ATOM     58 O    PRO B 182      -0.570  34.723  12.050  1.00123.88 LIG-0.27  OA
BRANCH 55 59
ATOM     59  CA  PRO B 182       0.330  32.731  11.086  1.00115.83 LIG 0.35  C 
ATOM     60  CB  PRO B 182      -1.017  32.402  10.425  1.00111.53 LIG 0.05  C 
ATOM     61  CG  PRO B 182      -1.393  31.049  10.948  1.00111.42 LIG 0.04  C 
ATOM     62  CD  PRO B 182      -0.845  30.996  12.339  1.00113.66 LIG 0.32  C 
ATOM     63  N   PRO B 182       0.362  31.838  12.251  1.00115.25 LIG 0.32  N 
ENDBRANCH 55 59
ENDBRANCH 50 52
ENDBRANCH 39 48
ENDBRANCH 37 39
ENDBRANCH 1 35
TORSDOF 24
ENDMDL
MODEL 10
USER: ADFR SOLUTION from run 29
USER: SCORE 20.249599 LL:  -3.103 LR: -18.390 RR:   0.000 FEB: -11.231
USER: RMSD 9.893302
USER: SEED 28
USER: STATUS no improvement in best in 5 clusters for 5 generations
USER: GENES 26
USER: genes 0 Translation |==|  0.48940 0.60372 0.45414
USER: genes 1 Rotation |==|  0.89695 0.31954 0.30666 0.64993
USER: genes 2 Torsion [C]-CA--CB-[CG] |==|  0.14673
USER: genes 3 Torsion [CA]-CB--CG-[CD] |==|  0.65676
USER: genes 4 Torsion [CB]-CG--CD-[CE] |==|  0.02271
USER: genes 5 Torsion [CG]-CD--CE-[NZ] |==|  0.34601
USER: genes 6 Torsion [CD]-CE--NZ-[HZ1] |==|  0.24054
USER: genes 7 Torsion [N]-CA--C-[N] |==|  0.44988
USER: genes 8 Torsion [C]-N--CA-[CB] |==|  0.77078
USER: genes 9 Torsion [N]-CA--CB-[CG] |==|  0.62689
USER: genes 10 Torsion [CA]-CB--CG-[CD] |==|  0.68243
USER: genes 11 Torsion [CB]-CG--CD-[NE] |==|  0.69590
USER: genes 12 Torsion [CG]-CD--NE-[CZ] |==|  0.78267
USER: genes 13 Torsion [N]-CA--C-[N] |==|  0.21823
USER: genes 14 Torsion [C]-N--CA-[C] |==|  0.15335
USER: genes 15 Torsion [N]-CA--C-[O] |==|  0.73546
USER: genes 16 Torsion [CB]-CA--N-[C] |==|  0.51667
USER: genes 17 Torsion [N]-C--CA-[N] |==|  0.18677
USER: genes 18 Torsion [C]-CA--CB-[CG] |==|  0.24676
USER: genes 19 Torsion [CA]-CB--CG-[CD] |==|  0.11237
USER: genes 20 Torsion [CB]-CG--CD-[CE] |==|  0.26204
USER: genes 21 Torsion [CG]-CD--CE-[NZ] |==|  0.71550
USER: genes 22 Torsion [CD]-CE--NZ-[HZ3] |==|  0.94431
USER: genes 23 Torsion [C]-CA--N-[C] |==|  0.56144
USER: genes 24 Torsion [N]-C--CA-[N] |==|  0.18710
USER: genes 25 Torsion [N]-C--CA-[CB] |==|  0.52627
ROOT
ATOM      1  CA  LYS B 185       2.176  37.525   5.867  1.00 91.41 LIG 0.18  C 
ENDROOT
BRANCH 1 2
ATOM      2  CB  LYS B 185       0.951  38.149   5.189  1.00 90.53 LIG 0.04  C 
BRANCH 2 3
ATOM      3  CG  LYS B 185       1.155  38.667   3.767  1.00 86.81 LIG 0.00  C 
BRANCH 3 4
ATOM      4  CD  LYS B 185       0.775  40.149   3.659  1.00 79.71 LIG 0.03  C 
BRANCH 4 5
ATOM      5  CE  LYS B 185       0.484  40.786   5.020  1.00 72.24 LIG 0.23  C 
BRANCH 5 6
ATOM      6  NZ  LYS B 185       1.312  41.996   5.296  1.00 67.20 LIG-0.08  N 
ATOM      7 HZ1  LYS B 185       0.912  42.715   4.955  1.00 67.20 LIG 0.27  HD
ATOM      8 HZ3  LYS B 185       2.114  41.899   4.922  1.00 67.20 LIG 0.27  HD
ATOM      9 HZ2  LYS B 185       1.405  42.098   6.175  1.00 67.20 LIG 0.27  HD
ENDBRANCH 5 6
ENDBRANCH 4 5
ENDBRANCH 3 4
ENDBRANCH 2 3
ENDBRANCH 1 2
BRANCH 1 10
ATOM     10  C   LYS B 185       3.351  38.496   5.798  1.00 87.67 LIG 0.24  C 
ATOM     11 O    LYS B 185       3.696  39.134   6.798  1.00 75.85 LIG-0.27  OA
ATOM     12  N   ARG B 186       3.941  38.612   4.611  1.00 93.18 LIG-0.35  N 
ATOM     13 H    ARG B 186       3.729  38.123   3.937  1.00 93.18 LIG 0.16  HD
BRANCH 12 14
ATOM     14  CA  ARG B 186       5.005  39.570   4.316  1.00 93.88 LIG 0.18  C 
BRANCH 14 15
ATOM     15  CB  ARG B 186       4.369  40.933   3.999  1.00 94.11 LIG 0.04  C 
BRANCH 15 16
ATOM     16  CG  ARG B 186       4.965  41.597   2.765  1.00 91.13 LIG 0.02  C 
BRANCH 16 17
ATOM     17  CD  ARG B 186       5.712  42.880   3.090  1.00 90.43 LIG 0.14  C 
BRANCH 17 18
ATOM     18  NE  ARG B 186       4.987  44.051   2.600  1.00 88.65 LIG-0.23  N 
ATOM     19 HE   ARG B 186       4.536  44.514   3.168  1.00 88.65 LIG 0.18  HD
ATOM     20  CZ  ARG B 186       4.982  44.446   1.329  1.00 77.61 LIG 0.67  C 
ATOM     21  NH2 ARG B 186       4.294  45.519   0.961  1.00 64.46 LIG-0.23  N 
ATOM     22  NH1 ARG B 186       5.671  43.766   0.424  1.00 71.89 LIG-0.23  N 
ATOM     23 2HH2 ARG B 186       4.295  45.769   0.139  1.00 64.46 LIG 0.17  HD
ATOM     24 1HH2 ARG B 186       3.848  45.964   1.546  1.00 64.46 LIG 0.17  HD
ATOM     25 1HH1 ARG B 186       6.121  43.071   0.659  1.00 71.89 LIG 0.17  HD
ATOM     26 2HH1 ARG B 186       5.669  44.020  -0.398  1.00 71.89 LIG 0.17  HD
ENDBRANCH 17 18
ENDBRANCH 16 17
ENDBRANCH 15 16
ENDBRANCH 14 15
BRANCH 14 27
ATOM     27  C   ARG B 186       5.956  39.616   5.531  1.00100.48 LIG 0.24  C 
ATOM     28  N   ALA B 187       6.868  38.652   5.724  1.00104.89 LIG-0.35  N 
ATOM     29 H    ALA B 187       7.398  38.667   6.400  1.00104.89 LIG 0.16  HD
ATOM     30 O    ARG B 186       5.842  40.548   6.331  1.00101.56 LIG-0.27  OA
BRANCH 28 31
ATOM     31  CA  ALA B 187       7.101  37.488   4.867  1.00100.92 LIG 0.16  C 
ATOM     32  CB  ALA B 187       5.895  36.537   4.918  1.00 98.55 LIG 0.04  C 
BRANCH 31 33
ATOM     33  C   ALA B 187       7.374  37.906   3.424  1.00 96.24 LIG 0.22  C 
ATOM     34 O    ALA B 187       6.463  37.933   2.595  1.00 95.92 LIG-0.29  OA
ENDBRANCH 31 33
ENDBRANCH 28 31
ENDBRANCH 14 27
ENDBRANCH 12 14
ENDBRANCH 1 10
BRANCH 1 35
ATOM     35  N   LYS B 185       1.906  37.171   7.259  1.00 94.70 LIG-0.35  N 
ATOM     36 H    LYS B 185       1.084  37.280   7.490  1.00 94.70 LIG 0.16  HD
ATOM     37  C   LYS B 184       2.845  36.720   8.098  1.00 95.69 LIG 0.24  C 
ATOM     38 O    LYS B 184       4.037  36.629   7.787  1.00 96.36 LIG-0.27  OA
BRANCH 37 39
ATOM     39  CA  LYS B 184       2.362  36.303   9.485  1.00 89.09 LIG 0.18  C 
BRANCH 39 40
ATOM     40  CB  LYS B 184       3.552  36.040  10.413  1.00 73.03 LIG 0.04  C 
BRANCH 40 41
ATOM     41  CG  LYS B 184       4.039  37.284  11.168  1.00 60.77 LIG 0.00  C 
BRANCH 41 42
ATOM     42  CD  LYS B 184       2.880  38.138  11.652  1.00 63.88 LIG 0.03  C 
BRANCH 42 43
ATOM     43  CE  LYS B 184       2.472  37.817  13.088  1.00 60.38 LIG 0.23  C 
BRANCH 43 44
ATOM     44  NZ  LYS B 184       1.234  36.975  13.244  1.00 53.06 LIG-0.08  N 
ATOM     45 HZ3  LYS B 184       0.750  37.018  12.498  1.00 53.06 LIG 0.27  HD
ATOM     46 HZ2  LYS B 184       0.752  37.278  13.927  1.00 53.06 LIG 0.27  HD
ATOM     47 HZ1  LYS B 184       1.467  36.130  13.397  1.00 53.06 LIG 0.27  HD
ENDBRANCH 43 44
ENDBRANCH 42 43
ENDBRANCH 41 42
ENDBRANCH 40 41
ENDBRANCH 39 40
BRANCH 39 48
ATOM     48  N   LYS B 184       1.515  35.120   9.402  1.00 95.16 LIG-0.35  N 
ATOM     49 H    LYS B 184       1.633  34.648   8.692  1.00 95.16 LIG 0.16  HD
ATOM     50  C   PRO B 183       0.640  34.816  10.359  1.00102.83 LIG 0.24  C 
ATOM     51 O    PRO B 183       0.493  35.512  11.370  1.00 96.65 LIG-0.27  OA
BRANCH 50 52
ATOM     52  CA  PRO B 183      -0.195  33.557  10.141  1.00119.60 LIG 0.18  C 
ATOM     53  N   PRO B 183       0.583  32.310  10.181  1.00125.08 LIG-0.34  N 
ATOM     54  CD  PRO B 183       0.591  31.714  11.531  1.00128.64 LIG 0.13  C 
ATOM     55  C   PRO B 182       0.919  31.687   9.038  1.00122.07 LIG 0.26  C 
ATOM     56  CG  PRO B 183      -0.449  32.531  12.289  1.00127.59 LIG 0.02  C 
ATOM     57  CB  PRO B 183      -1.209  33.353  11.272  1.00124.68 LIG 0.04  C 
ATOM     58 O    PRO B 182       0.594  32.101   7.923  1.00123.88 LIG-0.27  OA
BRANCH 55 59
ATOM     59  CA  PRO B 182       1.727  30.393   9.150  1.00115.83 LIG 0.35  C 
ATOM     60  CB  PRO B 182       2.225  29.941   7.769  1.00111.53 LIG 0.05  C 
ATOM     61  CG  PRO B 182       2.084  28.448   7.768  1.00111.42 LIG 0.04  C 
ATOM     62  CD  PRO B 182       0.885  28.164   8.617  1.00113.66 LIG 0.32  C 
ATOM     63  N   PRO B 182       0.912  29.259   9.604  1.00115.25 LIG 0.32  N 
ENDBRANCH 55 59
ENDBRANCH 50 52
ENDBRANCH 39 48
ENDBRANCH 37 39
ENDBRANCH 1 35
TORSDOF 24
ENDMDL
MODEL 11
USER: ADFR SOLUTION from run 154
USER: SCORE 18.776541 LL:  -2.705 LR: -18.320 RR:   0.000 FEB: -11.161
USER: RMSD 11.284626
USER: SEED 153
USER: STATUS searching
USER: GENES 26
USER: genes 0 Translation |==|  0.54328 0.57938 0.50414
USER: genes 1 Rotation |==|  0.98955 0.41154 0.46999 0.54013
USER: genes 2 Torsion [C]-CA--CB-[CG] |==|  0.85184
USER: genes 3 Torsion [CA]-CB--CG-[CD] |==|  0.33482
USER: genes 4 Torsion [CB]-CG--CD-[CE] |==|  0.21066
USER: genes 5 Torsion [CG]-CD--CE-[NZ] |==|  0.58655
USER: genes 6 Torsion [CD]-CE--NZ-[HZ1] |==|  0.98287
USER: genes 7 Torsion [N]-CA--C-[N] |==|  0.94497
USER: genes 8 Torsion [C]-N--CA-[CB] |==|  0.18251
USER: genes 9 Torsion [N]-CA--CB-[CG] |==|  0.70849
USER: genes 10 Torsion [CA]-CB--CG-[CD] |==|  0.34471
USER: genes 11 Torsion [CB]-CG--CD-[NE] |==|  0.14320
USER: genes 12 Torsion [CG]-CD--NE-[CZ] |==|  0.50165
USER: genes 13 Torsion [N]-CA--C-[N] |==|  0.52269
USER: genes 14 Torsion [C]-N--CA-[C] |==|  0.63542
USER: genes 15 Torsion [N]-CA--C-[O] |==|  0.72101
USER: genes 16 Torsion [CB]-CA--N-[C] |==|  0.39132
USER: genes 17 Torsion [N]-C--CA-[N] |==|  0.43326
USER: genes 18 Torsion [C]-CA--CB-[CG] |==|  0.32190
USER: genes 19 Torsion [CA]-CB--CG-[CD] |==|  0.37420
USER: genes 20 Torsion [CB]-CG--CD-[CE] |==|  0.76137
USER: genes 21 Torsion [CG]-CD--CE-[NZ] |==|  0.72856
USER: genes 22 Torsion [CD]-CE--NZ-[HZ3] |==|  0.93764
USER: genes 23 Torsion [C]-CA--N-[C] |==|  0.63854
USER: genes 24 Torsion [N]-C--CA-[N] |==|  0.45284
USER: genes 25 Torsion [N]-C--CA-[CB] |==|  0.84031
ROOT
ATOM      1  CA  LYS B 185       3.106  36.868   6.880  1.00 91.41 LIG 0.18  C 
ENDROOT
BRANCH 1 2
ATOM      2  CB  LYS B 185       2.354  37.383   5.647  1.00 90.53 LIG 0.04  C 
BRANCH 2 3
ATOM      3  CG  LYS B 185       1.083  38.184   5.915  1.00 86.81 LIG 0.00  C 
BRANCH 3 4
ATOM      4  CD  LYS B 185       1.185  39.597   5.328  1.00 79.71 LIG 0.03  C 
BRANCH 4 5
ATOM      5  CE  LYS B 185       1.010  39.620   3.807  1.00 72.24 LIG 0.23  C 
BRANCH 5 6
ATOM      6  NZ  LYS B 185       1.782  40.708   3.139  1.00 67.20 LIG-0.08  N 
ATOM      7 HZ1  LYS B 185       2.156  41.230   3.756  1.00 67.20 LIG 0.27  HD
ATOM      8 HZ3  LYS B 185       1.235  41.194   2.634  1.00 67.20 LIG 0.27  HD
ATOM      9 HZ2  LYS B 185       2.418  40.351   2.629  1.00 67.20 LIG 0.27  HD
ENDBRANCH 5 6
ENDBRANCH 4 5
ENDBRANCH 3 4
ENDBRANCH 2 3
ENDBRANCH 1 2
BRANCH 1 10
ATOM     10  C   LYS B 185       3.387  38.027   7.832  1.00 87.67 LIG 0.24  C 
ATOM     11 O    LYS B 185       4.303  38.821   7.598  1.00 75.85 LIG-0.27  OA
ATOM     12  N   ARG B 186       2.607  38.099   8.908  1.00 93.18 LIG-0.35  N 
ATOM     13 H    ARG B 186       1.937  37.574   9.032  1.00 93.18 LIG 0.16  HD
BRANCH 12 14
ATOM     14  CA  ARG B 186       2.792  39.063   9.990  1.00 93.88 LIG 0.18  C 
BRANCH 14 15
ATOM     15  CB  ARG B 186       2.539  40.477   9.441  1.00 94.11 LIG 0.04  C 
BRANCH 15 16
ATOM     16  CG  ARG B 186       3.819  41.274   9.232  1.00 91.13 LIG 0.02  C 
BRANCH 16 17
ATOM     17  CD  ARG B 186       3.969  41.785   7.809  1.00 90.43 LIG 0.14  C 
BRANCH 17 18
ATOM     18  NE  ARG B 186       2.769  42.497   7.375  1.00 88.65 LIG-0.23  N 
ATOM     19 HE   ARG B 186       2.118  42.571   7.933  1.00 88.65 LIG 0.18  HD
ATOM     20  CZ  ARG B 186       2.621  43.040   6.168  1.00 77.61 LIG 0.67  C 
ATOM     21  NH2 ARG B 186       1.497  43.668   5.848  1.00 64.46 LIG-0.23  N 
ATOM     22  NH1 ARG B 186       3.602  42.958   5.282  1.00 71.89 LIG-0.23  N 
ATOM     23 2HH2 ARG B 186       1.407  44.016   5.067  1.00 64.46 LIG 0.17  HD
ATOM     24 1HH2 ARG B 186       0.858  43.726   6.421  1.00 64.46 LIG 0.17  HD
ATOM     25 1HH1 ARG B 186       4.333  42.554   5.487  1.00 71.89 LIG 0.17  HD
ATOM     26 2HH1 ARG B 186       3.507  43.308   4.501  1.00 71.89 LIG 0.17  HD
ENDBRANCH 17 18
ENDBRANCH 16 17
ENDBRANCH 15 16
ENDBRANCH 14 15
BRANCH 14 27
ATOM     27  C   ARG B 186       1.834  38.681  11.138  1.00100.48 LIG 0.24  C 
ATOM     28  N   ALA B 187       1.674  39.490  12.195  1.00104.89 LIG-0.35  N 
ATOM     29 H    ALA B 187       1.147  39.283  12.842  1.00104.89 LIG 0.16  HD
ATOM     30 O    ARG B 186       1.235  37.606  11.069  1.00101.56 LIG-0.27  OA
BRANCH 28 31
ATOM     31  CA  ALA B 187       2.330  40.782  12.412  1.00100.92 LIG 0.16  C 
ATOM     32  CB  ALA B 187       1.332  41.930  12.199  1.00 98.55 LIG 0.04  C 
BRANCH 31 33
ATOM     33  C   ALA B 187       2.935  40.870  13.811  1.00 96.24 LIG 0.22  C 
ATOM     34 O    ALA B 187       2.352  41.477  14.710  1.00 95.92 LIG-0.29  OA
ENDBRANCH 31 33
ENDBRANCH 28 31
ENDBRANCH 14 27
ENDBRANCH 12 14
ENDBRANCH 1 10
BRANCH 1 35
ATOM     35  N   LYS B 185       2.356  35.824   7.576  1.00 94.70 LIG-0.35  N 
ATOM     36 H    LYS B 185       1.509  35.970   7.607  1.00 94.70 LIG 0.16  HD
ATOM     37  C   LYS B 184       2.931  34.743   8.115  1.00 95.69 LIG 0.24  C 
ATOM     38 O    LYS B 184       4.154  34.569   8.131  1.00 96.36 LIG-0.27  OA
BRANCH 37 39
ATOM     39  CA  LYS B 184       1.983  33.708   8.714  1.00 89.09 LIG 0.18  C 
BRANCH 39 40
ATOM     40  CB  LYS B 184       1.552  34.124  10.125  1.00 73.03 LIG 0.04  C 
BRANCH 40 41
ATOM     41  CG  LYS B 184       0.051  34.409  10.257  1.00 60.77 LIG 0.00  C 
BRANCH 41 42
ATOM     42  CD  LYS B 184      -0.537  33.766  11.502  1.00 63.88 LIG 0.03  C 
BRANCH 42 43
ATOM     43  CE  LYS B 184      -0.959  32.316  11.271  1.00 60.38 LIG 0.23  C 
BRANCH 43 44
ATOM     44  NZ  LYS B 184      -2.421  32.100  10.981  1.00 53.06 LIG-0.08  N 
ATOM     45 HZ3  LYS B 184      -2.891  32.787  11.296  1.00 53.06 LIG 0.27  HD
ATOM     46 HZ2  LYS B 184      -2.694  31.350  11.375  1.00 53.06 LIG 0.27  HD
ATOM     47 HZ1  LYS B 184      -2.543  32.035  10.102  1.00 53.06 LIG 0.27  HD
ENDBRANCH 43 44
ENDBRANCH 42 43
ENDBRANCH 41 42
ENDBRANCH 40 41
ENDBRANCH 39 40
BRANCH 39 48
ATOM     48  N   LYS B 184       2.609  32.392   8.746  1.00 95.16 LIG-0.35  N 
ATOM     49 H    LYS B 184       3.397  32.382   9.092  1.00 95.16 LIG 0.16  HD
ATOM     50  C   PRO B 183       1.992  31.311   8.272  1.00102.83 LIG 0.24  C 
ATOM     51 O    PRO B 183       0.859  31.355   7.781  1.00 96.65 LIG-0.27  OA
BRANCH 50 52
ATOM     52  CA  PRO B 183       2.766  29.998   8.353  1.00119.60 LIG 0.18  C 
ATOM     53  N   PRO B 183       1.929  28.799   8.196  1.00125.08 LIG-0.34  N 
ATOM     54  CD  PRO B 183       1.884  28.344   6.793  1.00128.64 LIG 0.13  C 
ATOM     55  C   PRO B 182       1.570  28.081   9.274  1.00122.07 LIG 0.26  C 
ATOM     56  CG  PRO B 183       2.957  29.184   6.110  1.00127.59 LIG 0.02  C 
ATOM     57  CB  PRO B 183       3.763  29.862   7.196  1.00124.68 LIG 0.04  C 
ATOM     58 O    PRO B 182       1.922  28.364  10.422  1.00123.88 LIG-0.27  OA
BRANCH 55 59
ATOM     59  CA  PRO B 182       0.700  26.844   9.041  1.00115.83 LIG 0.35  C 
ATOM     60  CB  PRO B 182      -0.602  27.223   8.319  1.00111.53 LIG 0.05  C 
ATOM     61  CG  PRO B 182      -1.666  26.382   8.957  1.00111.42 LIG 0.04  C 
ATOM     62  CD  PRO B 182      -1.242  26.223  10.383  1.00113.66 LIG 0.32  C 
ATOM     63  N   PRO B 182       0.229  26.244  10.296  1.00115.25 LIG 0.32  N 
ENDBRANCH 55 59
ENDBRANCH 50 52
ENDBRANCH 39 48
ENDBRANCH 37 39
ENDBRANCH 1 35
TORSDOF 24
ENDMDL
MODEL 12
USER: ADFR SOLUTION from run 151
USER: SCORE 19.161584 LL:  -3.078 LR: -18.147 RR:   0.000 FEB: -10.988
USER: RMSD 9.997487
USER: SEED 150
USER: STATUS no improvement in best in 6 clusters for 5 generations
USER: GENES 26
USER: genes 0 Translation |==|  0.56609 0.65472 0.42285
USER: genes 1 Rotation |==|  0.79583 0.36422 0.12161 0.52955
USER: genes 2 Torsion [C]-CA--CB-[CG] |==|  0.41924
USER: genes 3 Torsion [CA]-CB--CG-[CD] |==|  0.75139
USER: genes 4 Torsion [CB]-CG--CD-[CE] |==|  0.29860
USER: genes 5 Torsion [CG]-CD--CE-[NZ] |==|  0.85887
USER: genes 6 Torsion [CD]-CE--NZ-[HZ1] |==|  0.94692
USER: genes 7 Torsion [N]-CA--C-[N] |==|  0.41901
USER: genes 8 Torsion [C]-N--CA-[CB] |==|  0.85786
USER: genes 9 Torsion [N]-CA--CB-[CG] |==|  0.75868
USER: genes 10 Torsion [CA]-CB--CG-[CD] |==|  0.85045
USER: genes 11 Torsion [CB]-CG--CD-[NE] |==|  0.46560
USER: genes 12 Torsion [CG]-CD--NE-[CZ] |==|  0.50369
USER: genes 13 Torsion [N]-CA--C-[N] |==|  0.47947
USER: genes 14 Torsion [C]-N--CA-[C] |==|  0.60655
USER: genes 15 Torsion [N]-CA--C-[O] |==|  0.00149
USER: genes 16 Torsion [CB]-CA--N-[C] |==|  0.24754
USER: genes 17 Torsion [N]-C--CA-[N] |==|  0.29707
USER: genes 18 Torsion [C]-CA--CB-[CG] |==|  0.24560
USER: genes 19 Torsion [CA]-CB--CG-[CD] |==|  0.50951
USER: genes 20 Torsion [CB]-CG--CD-[CE] |==|  0.41890
USER: genes 21 Torsion [CG]-CD--CE-[NZ] |==|  0.85533
USER: genes 22 Torsion [CD]-CE--NZ-[HZ3] |==|  0.37483
USER: genes 23 Torsion [C]-CA--N-[C] |==|  0.78276
USER: genes 24 Torsion [N]-C--CA-[N] |==|  0.14160
USER: genes 25 Torsion [N]-C--CA-[CB] |==|  0.72688
ROOT
ATOM      1  CA  LYS B 185       3.499  38.902   5.234  1.00 91.41 LIG 0.18  C 
ENDROOT
BRANCH 1 2
ATOM      2  CB  LYS B 185       2.670  40.020   5.877  1.00 90.53 LIG 0.04  C 
BRANCH 2 3
ATOM      3  CG  LYS B 185       1.153  39.890   5.761  1.00 86.81 LIG 0.00  C 
BRANCH 3 4
ATOM      4  CD  LYS B 185       0.637  40.564   4.483  1.00 79.71 LIG 0.03  C 
BRANCH 4 5
ATOM      5  CE  LYS B 185       0.192  39.556   3.421  1.00 72.24 LIG 0.23  C 
BRANCH 5 6
ATOM      6  NZ  LYS B 185       1.213  38.505   3.139  1.00 67.20 LIG-0.08  N 
ATOM      7 HZ1  LYS B 185       2.011  38.782   3.421  1.00 67.20 LIG 0.27  HD
ATOM      8 HZ3  LYS B 185       1.246  38.350   2.263  1.00 67.20 LIG 0.27  HD
ATOM      9 HZ2  LYS B 185       0.993  37.755   3.564  1.00 67.20 LIG 0.27  HD
ENDBRANCH 5 6
ENDBRANCH 4 5
ENDBRANCH 3 4
ENDBRANCH 2 3
ENDBRANCH 1 2
BRANCH 1 10
ATOM     10  C   LYS B 185       4.848  39.456   4.786  1.00 87.67 LIG 0.24  C 
ATOM     11 O    LYS B 185       5.831  39.390   5.532  1.00 75.85 LIG-0.27  OA
ATOM     12  N   ARG B 186       4.877  40.016   3.579  1.00 93.18 LIG-0.35  N 
ATOM     13 H    ARG B 186       4.201  40.006   3.047  1.00 93.18 LIG 0.16  HD
BRANCH 12 14
ATOM     14  CA  ARG B 186       6.041  40.701   3.022  1.00 93.88 LIG 0.18  C 
BRANCH 14 15
ATOM     15  CB  ARG B 186       6.540  41.737   4.042  1.00 94.11 LIG 0.04  C 
BRANCH 15 16
ATOM     16  CG  ARG B 186       5.838  43.083   3.918  1.00 91.13 LIG 0.02  C 
BRANCH 16 17
ATOM     17  CD  ARG B 186       5.901  43.652   2.510  1.00 90.43 LIG 0.14  C 
BRANCH 17 18
ATOM     18  NE  ARG B 186       4.984  44.780   2.356  1.00 88.65 LIG-0.23  N 
ATOM     19 HE   ARG B 186       4.526  45.025   3.041  1.00 88.65 LIG 0.18  HD
ATOM     20  CZ  ARG B 186       4.816  45.452   1.219  1.00 77.61 LIG 0.67  C 
ATOM     21  NH2 ARG B 186       3.959  46.464   1.158  1.00 64.46 LIG-0.23  N 
ATOM     22  NH1 ARG B 186       5.509  45.114   0.142  1.00 71.89 LIG-0.23  N 
ATOM     23 2HH2 ARG B 186       3.855  46.894   0.421  1.00 64.46 LIG 0.17  HD
ATOM     24 1HH2 ARG B 186       3.509  46.689   1.855  1.00 64.46 LIG 0.17  HD
ATOM     25 1HH1 ARG B 186       6.067  44.460   0.179  1.00 71.89 LIG 0.17  HD
ATOM     26 2HH1 ARG B 186       5.400  45.547  -0.593  1.00 71.89 LIG 0.17  HD
ENDBRANCH 17 18
ENDBRANCH 16 17
ENDBRANCH 15 16
ENDBRANCH 14 15
BRANCH 14 27
ATOM     27  C   ARG B 186       7.102  39.634   2.676  1.00100.48 LIG 0.24  C 
ATOM     28  N   ALA B 187       8.217  39.968   2.011  1.00104.89 LIG-0.35  N 
ATOM     29 H    ALA B 187       8.811  39.379   1.810  1.00104.89 LIG 0.16  HD
ATOM     30 O    ARG B 186       6.889  38.466   3.009  1.00101.56 LIG-0.27  OA
BRANCH 28 31
ATOM     31  CA  ALA B 187       8.589  41.306   1.547  1.00100.92 LIG 0.16  C 
ATOM     32  CB  ALA B 187       9.518  41.986   2.564  1.00 98.55 LIG 0.04  C 
BRANCH 31 33
ATOM     33  C   ALA B 187       9.264  41.251   0.179  1.00 96.24 LIG 0.22  C 
ATOM     34 O    ALA B 187       9.428  40.175  -0.398  1.00 95.92 LIG-0.29  OA
ENDBRANCH 31 33
ENDBRANCH 28 31
ENDBRANCH 14 27
ENDBRANCH 12 14
ENDBRANCH 1 10
BRANCH 1 35
ATOM     35  N   LYS B 185       3.701  37.780   6.148  1.00 94.70 LIG-0.35  N 
ATOM     36 H    LYS B 185       4.416  37.845   6.622  1.00 94.70 LIG 0.16  HD
ATOM     37  C   LYS B 184       2.856  36.747   6.240  1.00 95.69 LIG 0.24  C 
ATOM     38 O    LYS B 184       1.867  36.619   5.511  1.00 96.36 LIG-0.27  OA
BRANCH 37 39
ATOM     39  CA  LYS B 184       3.173  35.716   7.320  1.00 89.09 LIG 0.18  C 
BRANCH 39 40
ATOM     40  CB  LYS B 184       3.140  34.298   6.737  1.00 73.03 LIG 0.04  C 
BRANCH 40 41
ATOM     41  CG  LYS B 184       4.483  33.834   6.157  1.00 60.77 LIG 0.00  C 
BRANCH 41 42
ATOM     42  CD  LYS B 184       4.375  32.459   5.520  1.00 63.88 LIG 0.03  C 
BRANCH 42 43
ATOM     43  CE  LYS B 184       5.367  32.262   4.376  1.00 60.38 LIG 0.23  C 
BRANCH 43 44
ATOM     44  NZ  LYS B 184       5.359  33.328   3.312  1.00 53.06 LIG-0.08  N 
ATOM     45 HZ3  LYS B 184       6.196  33.556   3.114  1.00 53.06 LIG 0.27  HD
ATOM     46 HZ2  LYS B 184       4.920  34.042   3.611  1.00 53.06 LIG 0.27  HD
ATOM     47 HZ1  LYS B 184       4.956  33.016   2.582  1.00 53.06 LIG 0.27  HD
ENDBRANCH 43 44
ENDBRANCH 42 43
ENDBRANCH 41 42
ENDBRANCH 40 41
ENDBRANCH 39 40
BRANCH 39 48
ATOM     48  N   LYS B 184       2.236  35.826   8.430  1.00 95.16 LIG-0.35  N 
ATOM     49 H    LYS B 184       1.616  35.230   8.432  1.00 95.16 LIG 0.16  HD
ATOM     50  C   PRO B 183       2.351  36.781   9.352  1.00102.83 LIG 0.24  C 
ATOM     51 O    PRO B 183       3.253  37.625   9.325  1.00 96.65 LIG-0.27  OA
BRANCH 50 52
ATOM     52  CA  PRO B 183       1.294  36.792  10.453  1.00119.60 LIG 0.18  C 
ATOM     53  N   PRO B 183       1.103  35.492  11.112  1.00125.08 LIG-0.34  N 
ATOM     54  CD  PRO B 183       1.937  35.364  12.322  1.00128.64 LIG 0.13  C 
ATOM     55  C   PRO B 182       0.049  34.721  10.792  1.00122.07 LIG 0.26  C 
ATOM     56  CG  PRO B 183       2.480  36.774  12.532  1.00127.59 LIG 0.02  C 
ATOM     57  CB  PRO B 183       1.707  37.698  11.618  1.00124.68 LIG 0.04  C 
ATOM     58 O    PRO B 182      -0.803  35.052   9.964  1.00123.88 LIG-0.27  OA
BRANCH 55 59
ATOM     59  CA  PRO B 182      -0.092  33.381  11.516  1.00115.83 LIG 0.35  C 
ATOM     60  CB  PRO B 182       0.454  32.235  10.651  1.00111.53 LIG 0.05  C 
ATOM     61  CG  PRO B 182      -0.495  31.093  10.864  1.00111.42 LIG 0.04  C 
ATOM     62  CD  PRO B 182      -1.833  31.727  11.078  1.00113.66 LIG 0.32  C 
ATOM     63  N   PRO B 182      -1.495  33.003  11.732  1.00115.25 LIG 0.32  N 
ENDBRANCH 55 59
ENDBRANCH 50 52
ENDBRANCH 39 48
ENDBRANCH 37 39
ENDBRANCH 1 35
TORSDOF 24
ENDMDL
MODEL 13
USER: ADFR SOLUTION from run 13
USER: SCORE 20.675175 LL:  -3.014 LR: -18.060 RR:   0.000 FEB: -10.901
USER: RMSD 8.191980
USER: SEED 695350
USER: STATUS no improvement in best in 4 clusters for 5 generations
USER: GENES 26
USER: genes 0 Translation |==|  0.48595 0.58796 0.44747
USER: genes 1 Rotation |==|  0.90417 0.35588 0.28010 0.63237
USER: genes 2 Torsion [C]-CA--CB-[CG] |==|  0.96645
USER: genes 3 Torsion [CA]-CB--CG-[CD] |==|  0.31463
USER: genes 4 Torsion [CB]-CG--CD-[CE] |==|  0.32110
USER: genes 5 Torsion [CG]-CD--CE-[NZ] |==|  0.33826
USER: genes 6 Torsion [CD]-CE--NZ-[HZ1] |==|  0.13014
USER: genes 7 Torsion [N]-CA--C-[N] |==|  0.43587
USER: genes 8 Torsion [C]-N--CA-[CB] |==|  0.75234
USER: genes 9 Torsion [N]-CA--CB-[CG] |==|  0.49620
USER: genes 10 Torsion [CA]-CB--CG-[CD] |==|  0.71015
USER: genes 11 Torsion [CB]-CG--CD-[NE] |==|  0.81296
USER: genes 12 Torsion [CG]-CD--NE-[CZ] |==|  0.27627
USER: genes 13 Torsion [N]-CA--C-[N] |==|  0.22962
USER: genes 14 Torsion [C]-N--CA-[C] |==|  0.14749
USER: genes 15 Torsion [N]-CA--C-[O] |==|  0.71485
USER: genes 16 Torsion [CB]-CA--N-[C] |==|  0.81615
USER: genes 17 Torsion [N]-C--CA-[N] |==|  0.41619
USER: genes 18 Torsion [C]-CA--CB-[CG] |==|  0.41928
USER: genes 19 Torsion [CA]-CB--CG-[CD] |==|  0.61315
USER: genes 20 Torsion [CB]-CG--CD-[CE] |==|  0.59432
USER: genes 21 Torsion [CG]-CD--CE-[NZ] |==|  0.45580
USER: genes 22 Torsion [CD]-CE--NZ-[HZ3] |==|  0.71866
USER: genes 23 Torsion [C]-CA--N-[C] |==|  0.73290
USER: genes 24 Torsion [N]-C--CA-[N] |==|  0.98935
USER: genes 25 Torsion [N]-C--CA-[CB] |==|  0.76025
ROOT
ATOM      1  CA  LYS B 185       2.117  37.100   5.732  1.00 91.41 LIG 0.18  C 
ENDROOT
BRANCH 1 2
ATOM      2  CB  LYS B 185       0.797  37.729   5.271  1.00 90.53 LIG 0.04  C 
BRANCH 2 3
ATOM      3  CG  LYS B 185       0.768  39.253   5.183  1.00 86.81 LIG 0.00  C 
BRANCH 3 4
ATOM      4  CD  LYS B 185       0.626  39.721   3.730  1.00 79.71 LIG 0.03  C 
BRANCH 4 5
ATOM      5  CE  LYS B 185      -0.687  40.465   3.474  1.00 72.24 LIG 0.23  C 
BRANCH 5 6
ATOM      6  NZ  LYS B 185      -0.490  41.851   2.958  1.00 67.20 LIG-0.08  N 
ATOM      7 HZ1  LYS B 185       0.109  41.841   2.299  1.00 67.20 LIG 0.27  HD
ATOM      8 HZ3  LYS B 185      -0.199  42.375   3.616  1.00 67.20 LIG 0.27  HD
ATOM      9 HZ2  LYS B 185      -1.264  42.166   2.649  1.00 67.20 LIG 0.27  HD
ENDBRANCH 5 6
ENDBRANCH 4 5
ENDBRANCH 3 4
ENDBRANCH 2 3
ENDBRANCH 1 2
BRANCH 1 10
ATOM     10  C   LYS B 185       3.220  38.153   5.720  1.00 87.67 LIG 0.24  C 
ATOM     11 O    LYS B 185       3.557  38.719   6.765  1.00 75.85 LIG-0.27  OA
ATOM     12  N   ARG B 186       3.758  38.420   4.532  1.00 93.18 LIG-0.35  N 
ATOM     13 H    ARG B 186       3.555  37.981   3.821  1.00 93.18 LIG 0.16  HD
BRANCH 12 14
ATOM     14  CA  ARG B 186       4.742  39.474   4.297  1.00 93.88 LIG 0.18  C 
BRANCH 14 15
ATOM     15  CB  ARG B 186       4.001  40.778   3.964  1.00 94.11 LIG 0.04  C 
BRANCH 15 16
ATOM     16  CG  ARG B 186       4.939  41.955   3.733  1.00 91.13 LIG 0.02  C 
BRANCH 16 17
ATOM     17  CD  ARG B 186       4.972  42.922   4.905  1.00 90.43 LIG 0.14  C 
BRANCH 17 18
ATOM     18  NE  ARG B 186       3.691  43.610   5.058  1.00 88.65 LIG-0.23  N 
ATOM     19 HE   ARG B 186       3.531  44.283   4.546  1.00 88.65 LIG 0.18  HD
ATOM     20  CZ  ARG B 186       2.758  43.259   5.940  1.00 77.61 LIG 0.67  C 
ATOM     21  NH2 ARG B 186       1.622  43.939   6.020  1.00 64.46 LIG-0.23  N 
ATOM     22  NH1 ARG B 186       2.962  42.224   6.741  1.00 71.89 LIG-0.23  N 
ATOM     23 2HH2 ARG B 186       1.022  43.708   6.592  1.00 64.46 LIG 0.17  HD
ATOM     24 1HH2 ARG B 186       1.484  44.610   5.501  1.00 64.46 LIG 0.17  HD
ATOM     25 1HH1 ARG B 186       3.697  41.780   6.690  1.00 71.89 LIG 0.17  HD
ATOM     26 2HH1 ARG B 186       2.360  41.997   7.312  1.00 71.89 LIG 0.17  HD
ENDBRANCH 17 18
ENDBRANCH 16 17
ENDBRANCH 15 16
ENDBRANCH 14 15
BRANCH 14 27
ATOM     27  C   ARG B 186       5.628  39.588   5.557  1.00100.48 LIG 0.24  C 
ATOM     28  N   ALA B 187       6.665  38.758   5.742  1.00104.89 LIG-0.35  N 
ATOM     29 H    ALA B 187       7.161  38.811   6.443  1.00104.89 LIG 0.16  HD
ATOM     30 O    ARG B 186       5.347  40.446   6.397  1.00101.56 LIG-0.27  OA
BRANCH 28 31
ATOM     31  CA  ALA B 187       7.101  37.692   4.838  1.00100.92 LIG 0.16  C 
ATOM     32  CB  ALA B 187       6.074  36.550   4.824  1.00 98.55 LIG 0.04  C 
BRANCH 31 33
ATOM     33  C   ALA B 187       7.315  38.218   3.421  1.00 96.24 LIG 0.22  C 
ATOM     34 O    ALA B 187       6.478  38.010   2.541  1.00 95.92 LIG-0.29  OA
ENDBRANCH 31 33
ENDBRANCH 28 31
ENDBRANCH 14 27
ENDBRANCH 12 14
ENDBRANCH 1 10
BRANCH 1 35
ATOM     35  N   LYS B 185       2.003  36.515   7.067  1.00 94.70 LIG-0.35  N 
ATOM     36 H    LYS B 185       2.084  35.659   7.076  1.00 94.70 LIG 0.16  HD
ATOM     37  C   LYS B 184       1.793  37.240   8.171  1.00 95.69 LIG 0.24  C 
ATOM     38 O    LYS B 184       1.609  38.461   8.150  1.00 96.36 LIG-0.27  OA
BRANCH 37 39
ATOM     39  CA  LYS B 184       1.803  36.471   9.490  1.00 89.09 LIG 0.18  C 
BRANCH 39 40
ATOM     40  CB  LYS B 184       0.406  35.926   9.806  1.00 73.03 LIG 0.04  C 
BRANCH 40 41
ATOM     41  CG  LYS B 184       0.416  34.635  10.635  1.00 60.77 LIG 0.00  C 
BRANCH 41 42
ATOM     42  CD  LYS B 184      -0.630  33.646  10.149  1.00 63.88 LIG 0.03  C 
BRANCH 42 43
ATOM     43  CE  LYS B 184      -1.232  32.821  11.285  1.00 60.38 LIG 0.23  C 
BRANCH 43 44
ATOM     44  NZ  LYS B 184      -2.513  32.100  10.961  1.00 53.06 LIG-0.08  N 
ATOM     45 HZ3  LYS B 184      -3.202  32.553  11.297  1.00 53.06 LIG 0.27  HD
ATOM     46 HZ2  LYS B 184      -2.494  31.284  11.316  1.00 53.06 LIG 0.27  HD
ATOM     47 HZ1  LYS B 184      -2.603  32.036  10.078  1.00 53.06 LIG 0.27  HD
ENDBRANCH 43 44
ENDBRANCH 42 43
ENDBRANCH 41 42
ENDBRANCH 40 41
ENDBRANCH 39 40
BRANCH 39 48
ATOM     48  N   LYS B 184       2.271  37.319  10.578  1.00 95.16 LIG-0.35  N 
ATOM     49 H    LYS B 184       1.663  37.817  10.927  1.00 95.16 LIG 0.16  HD
ATOM     50  C   PRO B 183       3.541  37.307  10.980  1.00102.83 LIG 0.24  C 
ATOM     51 O    PRO B 183       4.395  36.580  10.460  1.00 96.65 LIG-0.27  OA
BRANCH 50 52
ATOM     52  CA  PRO B 183       3.901  38.255  12.121  1.00119.60 LIG 0.18  C 
ATOM     53  N   PRO B 183       2.793  39.118  12.553  1.00125.08 LIG-0.34  N 
ATOM     54  CD  PRO B 183       2.044  38.524  13.677  1.00128.64 LIG 0.13  C 
ATOM     55  C   PRO B 182       2.745  40.403  12.160  1.00122.07 LIG 0.26  C 
ATOM     56  CG  PRO B 183       2.910  37.343  14.099  1.00127.59 LIG 0.02  C 
ATOM     57  CB  PRO B 183       4.244  37.486  13.402  1.00124.68 LIG 0.04  C 
ATOM     58 O    PRO B 182       3.607  40.925  11.449  1.00123.88 LIG-0.27  OA
BRANCH 55 59
ATOM     59  CA  PRO B 182       1.566  41.247  12.648  1.00115.83 LIG 0.35  C 
ATOM     60  CB  PRO B 182       0.361  41.092  11.708  1.00111.53 LIG 0.05  C 
ATOM     61  CG  PRO B 182      -0.241  42.461  11.608  1.00111.42 LIG 0.04  C 
ATOM     62  CD  PRO B 182       0.911  43.409  11.721  1.00113.66 LIG 0.32  C 
ATOM     63  N   PRO B 182       1.848  42.688  12.601  1.00115.25 LIG 0.32  N 
ENDBRANCH 55 59
ENDBRANCH 50 52
ENDBRANCH 39 48
ENDBRANCH 37 39
ENDBRANCH 1 35
TORSDOF 24
ENDMDL
MODEL 14
USER: ADFR SOLUTION from run 154
USER: SCORE 19.332995 LL:  -3.625 LR: -17.875 RR:   0.000 FEB: -10.716
USER: RMSD 10.318715
USER: SEED 153
USER: STATUS searching
USER: GENES 26
USER: genes 0 Translation |==|  0.56145 0.57236 0.52998
USER: genes 1 Rotation |==|  0.97659 0.36612 0.53273 0.56222
USER: genes 2 Torsion [C]-CA--CB-[CG] |==|  0.83107
USER: genes 3 Torsion [CA]-CB--CG-[CD] |==|  0.35827
USER: genes 4 Torsion [CB]-CG--CD-[CE] |==|  0.42795
USER: genes 5 Torsion [CG]-CD--CE-[NZ] |==|  0.60285
USER: genes 6 Torsion [CD]-CE--NZ-[HZ1] |==|  0.04808
USER: genes 7 Torsion [N]-CA--C-[N] |==|  0.95966
USER: genes 8 Torsion [C]-N--CA-[CB] |==|  0.19949
USER: genes 9 Torsion [N]-CA--CB-[CG] |==|  0.72496
USER: genes 10 Torsion [CA]-CB--CG-[CD] |==|  0.37500
USER: genes 11 Torsion [CB]-CG--CD-[NE] |==|  0.11815
USER: genes 12 Torsion [CG]-CD--NE-[CZ] |==|  0.51740
USER: genes 13 Torsion [N]-CA--C-[N] |==|  0.17632
USER: genes 14 Torsion [C]-N--CA-[C] |==|  0.51795
USER: genes 15 Torsion [N]-CA--C-[O] |==|  0.40418
USER: genes 16 Torsion [CB]-CA--N-[C] |==|  0.42196
USER: genes 17 Torsion [N]-C--CA-[N] |==|  0.42596
USER: genes 18 Torsion [C]-CA--CB-[CG] |==|  0.41435
USER: genes 19 Torsion [CA]-CB--CG-[CD] |==|  0.31956
USER: genes 20 Torsion [CB]-CG--CD-[CE] |==|  0.75315
USER: genes 21 Torsion [CG]-CD--CE-[NZ] |==|  0.77850
USER: genes 22 Torsion [CD]-CE--NZ-[HZ3] |==|  0.11800
USER: genes 23 Torsion [C]-CA--N-[C] |==|  0.68843
USER: genes 24 Torsion [N]-C--CA-[N] |==|  0.30681
USER: genes 25 Torsion [N]-C--CA-[CB] |==|  0.64564
ROOT
ATOM      1  CA  LYS B 185       3.419  36.679   7.403  1.00 91.41 LIG 0.18  C 
ENDROOT
BRANCH 1 2
ATOM      2  CB  LYS B 185       3.070  37.086   5.967  1.00 90.53 LIG 0.04  C 
BRANCH 2 3
ATOM      3  CG  LYS B 185       1.824  37.952   5.793  1.00 86.81 LIG 0.00  C 
BRANCH 3 4
ATOM      4  CD  LYS B 185       2.129  39.196   4.949  1.00 79.71 LIG 0.03  C 
BRANCH 4 5
ATOM      5  CE  LYS B 185       0.893  39.737   4.226  1.00 72.24 LIG 0.23  C 
BRANCH 5 6
ATOM      6  NZ  LYS B 185       1.189  40.265   2.862  1.00 67.20 LIG-0.08  N 
ATOM      7 HZ1  LYS B 185       1.979  39.958   2.590  1.00 67.20 LIG 0.27  HD
ATOM      8 HZ3  LYS B 185       1.209  41.154   2.886  1.00 67.20 LIG 0.27  HD
ATOM      9 HZ2  LYS B 185       0.556  39.997   2.296  1.00 67.20 LIG 0.27  HD
ENDBRANCH 5 6
ENDBRANCH 4 5
ENDBRANCH 3 4
ENDBRANCH 2 3
ENDBRANCH 1 2
BRANCH 1 10
ATOM     10  C   LYS B 185       3.678  37.926   8.243  1.00 87.67 LIG 0.24  C 
ATOM     11 O    LYS B 185       4.707  38.588   8.079  1.00 75.85 LIG-0.27  OA
ATOM     12  N   ARG B 186       2.749  38.220   9.150  1.00 93.18 LIG-0.35  N 
ATOM     13 H    ARG B 186       2.011  37.785   9.217  1.00 93.18 LIG 0.16  HD
BRANCH 12 14
ATOM     14  CA  ARG B 186       2.870  39.303  10.123  1.00 93.88 LIG 0.18  C 
BRANCH 14 15
ATOM     15  CB  ARG B 186       2.722  40.646   9.390  1.00 94.11 LIG 0.04  C 
BRANCH 15 16
ATOM     16  CG  ARG B 186       4.059  41.310   9.086  1.00 91.13 LIG 0.02  C 
BRANCH 16 17
ATOM     17  CD  ARG B 186       4.138  41.852   7.668  1.00 90.43 LIG 0.14  C 
BRANCH 17 18
ATOM     18  NE  ARG B 186       2.896  42.524   7.290  1.00 88.65 LIG-0.23  N 
ATOM     19 HE   ARG B 186       2.293  42.627   7.894  1.00 88.65 LIG 0.18  HD
ATOM     20  CZ  ARG B 186       2.643  42.987   6.068  1.00 77.61 LIG 0.67  C 
ATOM     21  NH2 ARG B 186       1.488  43.582   5.802  1.00 64.46 LIG-0.23  N 
ATOM     22  NH1 ARG B 186       3.549  42.856   5.111  1.00 71.89 LIG-0.23  N 
ATOM     23 2HH2 ARG B 186       1.329  43.879   5.011  1.00 64.46 LIG 0.17  HD
ATOM     24 1HH2 ARG B 186       0.897  43.671   6.421  1.00 64.46 LIG 0.17  HD
ATOM     25 1HH1 ARG B 186       4.301  42.473   5.280  1.00 71.89 LIG 0.17  HD
ATOM     26 2HH1 ARG B 186       3.386  43.154   4.320  1.00 71.89 LIG 0.17  HD
ENDBRANCH 17 18
ENDBRANCH 16 17
ENDBRANCH 15 16
ENDBRANCH 14 15
BRANCH 14 27
ATOM     27  C   ARG B 186       1.796  39.088  11.211  1.00100.48 LIG 0.24  C 
ATOM     28  N   ALA B 187       1.825  38.003  11.997  1.00104.89 LIG-0.35  N 
ATOM     29 H    ALA B 187       1.228  37.872  12.602  1.00104.89 LIG 0.16  HD
ATOM     30 O    ARG B 186       0.900  39.928  11.326  1.00101.56 LIG-0.27  OA
BRANCH 28 31
ATOM     31  CA  ALA B 187       2.816  36.926  11.961  1.00100.92 LIG 0.16  C 
ATOM     32  CB  ALA B 187       4.206  37.465  12.333  1.00 98.55 LIG 0.04  C 
BRANCH 31 33
ATOM     33  C   ALA B 187       2.431  35.784  12.899  1.00 96.24 LIG 0.22  C 
ATOM     34 O    ALA B 187       2.691  34.616  12.605  1.00 95.92 LIG-0.29  OA
ENDBRANCH 31 33
ENDBRANCH 28 31
ENDBRANCH 14 27
ENDBRANCH 12 14
ENDBRANCH 1 10
BRANCH 1 35
ATOM     35  N   LYS B 185       2.359  35.879   8.014  1.00 94.70 LIG-0.35  N 
ATOM     36 H    LYS B 185       1.576  36.047   7.700  1.00 94.70 LIG 0.16  HD
ATOM     37  C   LYS B 184       2.582  34.972   8.972  1.00 95.69 LIG 0.24  C 
ATOM     38 O    LYS B 184       3.696  34.781   9.470  1.00 96.36 LIG-0.27  OA
BRANCH 37 39
ATOM     39  CA  LYS B 184       1.371  34.159   9.421  1.00 89.09 LIG 0.18  C 
BRANCH 39 40
ATOM     40  CB  LYS B 184       0.572  34.925  10.481  1.00 73.03 LIG 0.04  C 
BRANCH 40 41
ATOM     41  CG  LYS B 184      -0.933  34.629  10.459  1.00 60.77 LIG 0.00  C 
BRANCH 41 42
ATOM     42  CD  LYS B 184      -1.390  33.938  11.733  1.00 63.88 LIG 0.03  C 
BRANCH 42 43
ATOM     43  CE  LYS B 184      -1.284  32.417  11.648  1.00 60.38 LIG 0.23  C 
BRANCH 43 44
ATOM     44  NZ  LYS B 184      -2.398  31.725  10.908  1.00 53.06 LIG-0.08  N 
ATOM     45 HZ3  LYS B 184      -2.594  32.183  10.171  1.00 53.06 LIG 0.27  HD
ATOM     46 HZ2  LYS B 184      -3.118  31.681  11.429  1.00 53.06 LIG 0.27  HD
ATOM     47 HZ1  LYS B 184      -2.141  30.902  10.686  1.00 53.06 LIG 0.27  HD
ENDBRANCH 43 44
ENDBRANCH 42 43
ENDBRANCH 41 42
ENDBRANCH 40 41
ENDBRANCH 39 40
BRANCH 39 48
ATOM     48  N   LYS B 184       1.784  32.862   9.941  1.00 95.16 LIG-0.35  N 
ATOM     49 H    LYS B 184       2.223  32.899  10.680  1.00 95.16 LIG 0.16  HD
ATOM     50  C   PRO B 183       1.493  31.728   9.306  1.00102.83 LIG 0.24  C 
ATOM     51 O    PRO B 183       0.859  31.704   8.246  1.00 96.65 LIG-0.27  OA
BRANCH 50 52
ATOM     52  CA  PRO B 183       1.998  30.440   9.952  1.00119.60 LIG 0.18  C 
ATOM     53  N   PRO B 183       0.933  29.594  10.511  1.00125.08 LIG-0.34  N 
ATOM     54  CD  PRO B 183       0.475  28.580   9.542  1.00128.64 LIG 0.13  C 
ATOM     55  C   PRO B 182       0.706  29.585  11.836  1.00122.07 LIG 0.26  C 
ATOM     56  CG  PRO B 183       1.500  28.672   8.417  1.00127.59 LIG 0.02  C 
ATOM     57  CB  PRO B 183       2.651  29.514   8.919  1.00124.68 LIG 0.04  C 
ATOM     58 O    PRO B 182       1.363  30.250  12.639  1.00123.88 LIG-0.27  OA
BRANCH 55 59
ATOM     59  CA  PRO B 182      -0.415  28.681  12.353  1.00115.83 LIG 0.35  C 
ATOM     60  CB  PRO B 182      -1.391  29.475  13.234  1.00111.53 LIG 0.05  C 
ATOM     61  CG  PRO B 182      -1.749  28.551  14.359  1.00111.42 LIG 0.04  C 
ATOM     62  CD  PRO B 182      -0.524  27.725  14.597  1.00113.66 LIG 0.32  C 
ATOM     63  N   PRO B 182       0.079  27.633  13.255  1.00115.25 LIG 0.32  N 
ENDBRANCH 55 59
ENDBRANCH 50 52
ENDBRANCH 39 48
ENDBRANCH 37 39
ENDBRANCH 1 35
TORSDOF 24
ENDMDL
MODEL 15
USER: ADFR SOLUTION from run 124
USER: SCORE 19.614217 LL:  -2.999 LR: -17.842 RR:   0.000 FEB: -10.683
USER: RMSD 10.108100
USER: SEED 123
USER: STATUS no improvement in best in 2 clusters for 5 generations
USER: GENES 26
USER: genes 0 Translation |==|  0.45298 0.56374 0.65202
USER: genes 1 Rotation |==|  0.47939 0.50865 0.98289 0.62773
USER: genes 2 Torsion [C]-CA--CB-[CG] |==|  0.35739
USER: genes 3 Torsion [CA]-CB--CG-[CD] |==|  0.64290
USER: genes 4 Torsion [CB]-CG--CD-[CE] |==|  0.59966
USER: genes 5 Torsion [CG]-CD--CE-[NZ] |==|  0.81329
USER: genes 6 Torsion [CD]-CE--NZ-[HZ1] |==|  0.86417
USER: genes 7 Torsion [N]-CA--C-[N] |==|  0.14661
USER: genes 8 Torsion [C]-N--CA-[CB] |==|  0.54946
USER: genes 9 Torsion [N]-CA--CB-[CG] |==|  0.50896
USER: genes 10 Torsion [CA]-CB--CG-[CD] |==|  0.70124
USER: genes 11 Torsion [CB]-CG--CD-[NE] |==|  0.86677
USER: genes 12 Torsion [CG]-CD--NE-[CZ] |==|  0.55283
USER: genes 13 Torsion [N]-CA--C-[N] |==|  0.34046
USER: genes 14 Torsion [C]-N--CA-[C] |==|  0.19060
USER: genes 15 Torsion [N]-CA--C-[O] |==|  0.56131
USER: genes 16 Torsion [CB]-CA--N-[C] |==|  0.18333
USER: genes 17 Torsion [N]-C--CA-[N] |==|  0.10918
USER: genes 18 Torsion [C]-CA--CB-[CG] |==|  0.81613
USER: genes 19 Torsion [CA]-CB--CG-[CD] |==|  0.60284
USER: genes 20 Torsion [CB]-CG--CD-[CE] |==|  0.86747
USER: genes 21 Torsion [CG]-CD--CE-[NZ] |==|  0.24150
USER: genes 22 Torsion [CD]-CE--NZ-[HZ3] |==|  0.02507
USER: genes 23 Torsion [C]-CA--N-[C] |==|  0.65070
USER: genes 24 Torsion [N]-C--CA-[N] |==|  0.57025
USER: genes 25 Torsion [N]-C--CA-[CB] |==|  0.63242
ROOT
ATOM      1  CA  LYS B 185       1.548  36.446   9.874  1.00 91.41 LIG 0.18  C 
ENDROOT
BRANCH 1 2
ATOM      2  CB  LYS B 185       2.347  36.519  11.180  1.00 90.53 LIG 0.04  C 
BRANCH 2 3
ATOM      3  CG  LYS B 185       1.602  37.054  12.401  1.00 86.81 LIG 0.00  C 
BRANCH 3 4
ATOM      4  CD  LYS B 185       2.391  38.180  13.081  1.00 79.71 LIG 0.03  C 
BRANCH 4 5
ATOM      5  CE  LYS B 185       2.252  38.162  14.605  1.00 72.24 LIG 0.23  C 
BRANCH 5 6
ATOM      6  NZ  LYS B 185       0.874  38.487  15.077  1.00 67.20 LIG-0.08  N 
ATOM      7 HZ1  LYS B 185       0.586  39.224  14.669  1.00 67.20 LIG 0.27  HD
ATOM      8 HZ3  LYS B 185       0.885  38.621  15.957  1.00 67.20 LIG 0.27  HD
ATOM      9 HZ2  LYS B 185       0.327  37.810  14.887  1.00 67.20 LIG 0.27  HD
ENDBRANCH 5 6
ENDBRANCH 4 5
ENDBRANCH 3 4
ENDBRANCH 2 3
ENDBRANCH 1 2
BRANCH 1 10
ATOM     10  C   LYS B 185       2.325  37.134   8.757  1.00 87.67 LIG 0.24  C 
ATOM     11 O    LYS B 185       3.385  37.720   9.000  1.00 75.85 LIG-0.27  OA
ATOM     12  N   ARG B 186       1.779  37.073   7.544  1.00 93.18 LIG-0.35  N 
ATOM     13 H    ARG B 186       1.071  36.616   7.377  1.00 93.18 LIG 0.16  HD
BRANCH 12 14
ATOM     14  CA  ARG B 186       2.310  37.764   6.372  1.00 93.88 LIG 0.18  C 
BRANCH 14 15
ATOM     15  CB  ARG B 186       1.212  37.833   5.299  1.00 94.11 LIG 0.04  C 
BRANCH 15 16
ATOM     16  CG  ARG B 186       1.687  38.469   3.999  1.00 91.13 LIG 0.02  C 
BRANCH 16 17
ATOM     17  CD  ARG B 186       1.119  39.862   3.782  1.00 90.43 LIG 0.14  C 
BRANCH 17 18
ATOM     18  NE  ARG B 186      -0.325  39.885   4.013  1.00 88.65 LIG-0.23  N 
ATOM     19 HE   ARG B 186      -0.672  39.243   4.469  1.00 88.65 LIG 0.18  HD
ATOM     20  CZ  ARG B 186      -1.136  40.839   3.560  1.00 77.61 LIG 0.67  C 
ATOM     21  NH2 ARG B 186      -2.438  40.786   3.808  1.00 64.46 LIG-0.23  N 
ATOM     22  NH1 ARG B 186      -0.641  41.850   2.861  1.00 71.89 LIG-0.23  N 
ATOM     23 2HH2 ARG B 186      -2.957  41.405   3.513  1.00 64.46 LIG 0.17  HD
ATOM     24 1HH2 ARG B 186      -2.763  40.133   4.263  1.00 64.46 LIG 0.17  HD
ATOM     25 1HH1 ARG B 186       0.203  41.889   2.701  1.00 71.89 LIG 0.17  HD
ATOM     26 2HH1 ARG B 186      -1.164  42.467   2.568  1.00 71.89 LIG 0.17  HD
ENDBRANCH 17 18
ENDBRANCH 16 17
ENDBRANCH 15 16
ENDBRANCH 14 15
BRANCH 14 27
ATOM     27  C   ARG B 186       2.803  39.157   6.822  1.00100.48 LIG 0.24  C 
ATOM     28  N   ALA B 187       4.074  39.531   6.620  1.00104.89 LIG-0.35  N 
ATOM     29 H    ALA B 187       4.359  40.303   6.872  1.00104.89 LIG 0.16  HD
ATOM     30 O    ARG B 186       2.004  39.907   7.388  1.00101.56 LIG-0.27  OA
BRANCH 28 31
ATOM     31  CA  ALA B 187       5.125  38.740   5.976  1.00100.92 LIG 0.16  C 
ATOM     32  CB  ALA B 187       5.252  37.368   6.655  1.00 98.55 LIG 0.04  C 
BRANCH 31 33
ATOM     33  C   ALA B 187       4.850  38.561   4.485  1.00 96.24 LIG 0.22  C 
ATOM     34 O    ALA B 187       5.360  37.629   3.860  1.00 95.92 LIG-0.29  OA
ENDBRANCH 31 33
ENDBRANCH 28 31
ENDBRANCH 14 27
ENDBRANCH 12 14
ENDBRANCH 1 10
BRANCH 1 35
ATOM     35  N   LYS B 185       1.250  35.066   9.496  1.00 94.70 LIG-0.35  N 
ATOM     36 H    LYS B 185       1.639  34.815   8.772  1.00 94.70 LIG 0.16  HD
ATOM     37  C   LYS B 184       0.446  34.267  10.207  1.00 95.69 LIG 0.24  C 
ATOM     38 O    LYS B 184      -0.167  34.648  11.209  1.00 96.36 LIG-0.27  OA
BRANCH 37 39
ATOM     39  CA  LYS B 184       0.330  32.826   9.717  1.00 89.09 LIG 0.18  C 
BRANCH 39 40
ATOM     40  CB  LYS B 184      -0.225  31.924  10.825  1.00 73.03 LIG 0.04  C 
BRANCH 40 41
ATOM     41  CG  LYS B 184       0.714  31.769  12.028  1.00 60.77 LIG 0.00  C 
BRANCH 41 42
ATOM     42  CD  LYS B 184       0.668  30.362  12.600  1.00 63.88 LIG 0.03  C 
BRANCH 42 43
ATOM     43  CE  LYS B 184      -0.758  29.855  12.802  1.00 60.38 LIG 0.23  C 
BRANCH 43 44
ATOM     44  NZ  LYS B 184      -1.391  29.191  11.608  1.00 53.06 LIG-0.08  N 
ATOM     45 HZ3  LYS B 184      -0.777  29.073  10.974  1.00 53.06 LIG 0.27  HD
ATOM     46 HZ2  LYS B 184      -2.046  29.705  11.294  1.00 53.06 LIG 0.27  HD
ATOM     47 HZ1  LYS B 184      -1.724  28.401  11.849  1.00 53.06 LIG 0.27  HD
ENDBRANCH 43 44
ENDBRANCH 42 43
ENDBRANCH 41 42
ENDBRANCH 40 41
ENDBRANCH 39 40
BRANCH 39 48
ATOM     48  N   LYS B 184       1.622  32.330   9.262  1.00 95.16 LIG-0.35  N 
ATOM     49 H    LYS B 184       2.254  32.402   9.842  1.00 95.16 LIG 0.16  HD
ATOM     50  C   PRO B 183       1.786  31.812   8.046  1.00102.83 LIG 0.24  C 
ATOM     51 O    PRO B 183       0.859  31.719   7.234  1.00 96.65 LIG-0.27  OA
BRANCH 50 52
ATOM     52  CA  PRO B 183       3.194  31.342   7.692  1.00119.60 LIG 0.18  C 
ATOM     53  N   PRO B 183       3.478  31.338   6.249  1.00125.08 LIG-0.34  N 
ATOM     54  CD  PRO B 183       4.107  32.599   5.812  1.00128.64 LIG 0.13  C 
ATOM     55  C   PRO B 182       3.455  30.184   5.561  1.00122.07 LIG 0.26  C 
ATOM     56  CG  PRO B 183       4.439  33.306   7.121  1.00127.59 LIG 0.02  C 
ATOM     57  CB  PRO B 183       4.259  32.302   8.238  1.00124.68 LIG 0.04  C 
ATOM     58 O    PRO B 182       3.218  29.091   6.081  1.00123.88 LIG-0.27  OA
BRANCH 55 59
ATOM     59  CA  PRO B 182       3.762  30.249   4.063  1.00115.83 LIG 0.35  C 
ATOM     60  CB  PRO B 182       2.719  29.457   3.260  1.00111.53 LIG 0.05  C 
ATOM     61  CG  PRO B 182       3.494  28.771   2.175  1.00111.42 LIG 0.04  C 
ATOM     62  CD  PRO B 182       4.833  28.474   2.773  1.00113.66 LIG 0.32  C 
ATOM     63  N   PRO B 182       5.027  29.587   3.719  1.00115.25 LIG 0.32  N 
ENDBRANCH 55 59
ENDBRANCH 50 52
ENDBRANCH 39 48
ENDBRANCH 37 39
ENDBRANCH 1 35
TORSDOF 24
ENDMDL
MODEL 16
USER: ADFR SOLUTION from run 2
USER: SCORE 19.081196 LL:  -2.987 LR: -17.841 RR:   0.000 FEB: -10.682
USER: RMSD 9.832544
USER: SEED 583088
USER: STATUS no improvement in best in 8 clusters for 5 generations
USER: GENES 26
USER: genes 0 Translation |==|  0.54052 0.52760 0.44999
USER: genes 1 Rotation |==|  0.14835 0.69316 0.78771 0.57911
USER: genes 2 Torsion [C]-CA--CB-[CG] |==|  0.36610
USER: genes 3 Torsion [CA]-CB--CG-[CD] |==|  0.55656
USER: genes 4 Torsion [CB]-CG--CD-[CE] |==|  0.47745
USER: genes 5 Torsion [CG]-CD--CE-[NZ] |==|  0.65626
USER: genes 6 Torsion [CD]-CE--NZ-[HZ1] |==|  0.19212
USER: genes 7 Torsion [N]-CA--C-[N] |==|  0.45864
USER: genes 8 Torsion [C]-N--CA-[CB] |==|  0.39855
USER: genes 9 Torsion [N]-CA--CB-[CG] |==|  0.75092
USER: genes 10 Torsion [CA]-CB--CG-[CD] |==|  0.11930
USER: genes 11 Torsion [CB]-CG--CD-[NE] |==|  0.24553
USER: genes 12 Torsion [CG]-CD--NE-[CZ] |==|  0.19238
USER: genes 13 Torsion [N]-CA--C-[N] |==|  0.85660
USER: genes 14 Torsion [C]-N--CA-[C] |==|  0.75691
USER: genes 15 Torsion [N]-CA--C-[O] |==|  0.32409
USER: genes 16 Torsion [CB]-CA--N-[C] |==|  0.82723
USER: genes 17 Torsion [N]-C--CA-[N] |==|  0.19578
USER: genes 18 Torsion [C]-CA--CB-[CG] |==|  0.26637
USER: genes 19 Torsion [CA]-CB--CG-[CD] |==|  0.39193
USER: genes 20 Torsion [CB]-CG--CD-[CE] |==|  0.79748
USER: genes 21 Torsion [CG]-CD--CE-[NZ] |==|  0.75005
USER: genes 22 Torsion [CD]-CE--NZ-[HZ3] |==|  0.05832
USER: genes 23 Torsion [C]-CA--N-[C] |==|  0.74444
USER: genes 24 Torsion [N]-C--CA-[N] |==|  0.64828
USER: genes 25 Torsion [N]-C--CA-[CB] |==|  0.83178
ROOT
ATOM      1  CA  LYS B 185       3.058  35.470   5.783  1.00 91.41 LIG 0.18  C 
ENDROOT
BRANCH 1 2
ATOM      2  CB  LYS B 185       2.492  36.870   6.045  1.00 90.53 LIG 0.04  C 
BRANCH 2 3
ATOM      3  CG  LYS B 185       1.628  37.469   4.937  1.00 86.81 LIG 0.00  C 
BRANCH 3 4
ATOM      4  CD  LYS B 185       1.543  38.995   5.066  1.00 79.71 LIG 0.03  C 
BRANCH 4 5
ATOM      5  CE  LYS B 185       0.854  39.652   3.867  1.00 72.24 LIG 0.23  C 
BRANCH 5 6
ATOM      6  NZ  LYS B 185       1.692  40.690   3.199  1.00 67.20 LIG-0.08  N 
ATOM      7 HZ1  LYS B 185       2.379  40.300   2.790  1.00 67.20 LIG 0.27  HD
ATOM      8 HZ3  LYS B 185       1.997  41.263   3.809  1.00 67.20 LIG 0.27  HD
ATOM      9 HZ2  LYS B 185       1.201  41.129   2.600  1.00 67.20 LIG 0.27  HD
ENDBRANCH 5 6
ENDBRANCH 4 5
ENDBRANCH 3 4
ENDBRANCH 2 3
ENDBRANCH 1 2
BRANCH 1 10
ATOM     10  C   LYS B 185       4.548  35.450   6.107  1.00 87.67 LIG 0.24  C 
ATOM     11 O    LYS B 185       4.962  34.869   7.116  1.00 75.85 LIG-0.27  OA
ATOM     12  N   ARG B 186       5.338  36.103   5.259  1.00 93.18 LIG-0.35  N 
ATOM     13 H    ARG B 186       5.046  36.457   4.531  1.00 93.18 LIG 0.16  HD
BRANCH 12 14
ATOM     14  CA  ARG B 186       6.773  36.295   5.458  1.00 93.88 LIG 0.18  C 
BRANCH 14 15
ATOM     15  CB  ARG B 186       7.477  36.210   4.094  1.00 94.11 LIG 0.04  C 
BRANCH 15 16
ATOM     16  CG  ARG B 186       7.904  34.794   3.730  1.00 91.13 LIG 0.02  C 
BRANCH 16 17
ATOM     17  CD  ARG B 186       6.840  33.758   4.048  1.00 90.43 LIG 0.14  C 
BRANCH 17 18
ATOM     18  NE  ARG B 186       5.919  33.586   2.926  1.00 88.65 LIG-0.23  N 
ATOM     19 HE   ARG B 186       5.110  33.864   3.020  1.00 88.65 LIG 0.18  HD
ATOM     20  CZ  ARG B 186       6.255  33.026   1.766  1.00 77.61 LIG 0.67  C 
ATOM     21  NH2 ARG B 186       5.359  32.902   0.796  1.00 64.46 LIG-0.23  N 
ATOM     22  NH1 ARG B 186       7.492  32.592   1.576  1.00 71.89 LIG-0.23  N 
ATOM     23 2HH2 ARG B 186       5.582  32.539   0.049  1.00 64.46 LIG 0.17  HD
ATOM     24 1HH2 ARG B 186       4.555  33.184   0.914  1.00 64.46 LIG 0.17  HD
ATOM     25 1HH1 ARG B 186       8.077  32.673   2.202  1.00 71.89 LIG 0.17  HD
ATOM     26 2HH1 ARG B 186       7.711  32.229   0.827  1.00 71.89 LIG 0.17  HD
ENDBRANCH 17 18
ENDBRANCH 16 17
ENDBRANCH 15 16
ENDBRANCH 14 15
BRANCH 14 27
ATOM     27  C   ARG B 186       6.979  37.654   6.160  1.00100.48 LIG 0.24  C 
ATOM     28  N   ALA B 187       6.420  38.770   5.670  1.00104.89 LIG-0.35  N 
ATOM     29 H    ALA B 187       6.534  39.533   6.051  1.00104.89 LIG 0.16  HD
ATOM     30 O    ARG B 186       7.685  37.692   7.170  1.00101.56 LIG-0.27  OA
BRANCH 28 31
ATOM     31  CA  ALA B 187       5.575  38.872   4.479  1.00100.92 LIG 0.16  C 
ATOM     32  CB  ALA B 187       4.570  40.023   4.632  1.00 98.55 LIG 0.04  C 
BRANCH 31 33
ATOM     33  C   ALA B 187       6.413  39.076   3.219  1.00 96.24 LIG 0.22  C 
ATOM     34 O    ALA B 187       6.414  38.232   2.321  1.00 95.92 LIG-0.29  OA
ENDBRANCH 31 33
ENDBRANCH 28 31
ENDBRANCH 14 27
ENDBRANCH 12 14
ENDBRANCH 1 10
BRANCH 1 35
ATOM     35  N   LYS B 185       2.365  34.448   6.566  1.00 94.70 LIG-0.35  N 
ATOM     36 H    LYS B 185       1.961  33.861   6.085  1.00 94.70 LIG 0.16  HD
ATOM     37  C   LYS B 184       2.359  34.427   7.903  1.00 95.69 LIG 0.24  C 
ATOM     38 O    LYS B 184       2.881  35.308   8.593  1.00 96.36 LIG-0.27  OA
BRANCH 37 39
ATOM     39  CA  LYS B 184       1.670  33.229   8.551  1.00 89.09 LIG 0.18  C 
BRANCH 39 40
ATOM     40  CB  LYS B 184       1.449  33.478  10.047  1.00 73.03 LIG 0.04  C 
BRANCH 40 41
ATOM     41  CG  LYS B 184       0.053  34.015  10.387  1.00 60.77 LIG 0.00  C 
BRANCH 41 42
ATOM     42  CD  LYS B 184      -0.487  33.408  11.671  1.00 63.88 LIG 0.03  C 
BRANCH 42 43
ATOM     43  CE  LYS B 184      -0.906  31.949  11.501  1.00 60.38 LIG 0.23  C 
BRANCH 43 44
ATOM     44  NZ  LYS B 184      -2.337  31.725  11.091  1.00 53.06 LIG-0.08  N 
ATOM     45 HZ3  LYS B 184      -2.658  32.465  10.715  1.00 53.06 LIG 0.27  HD
ATOM     46 HZ2  LYS B 184      -2.824  31.523  11.808  1.00 53.06 LIG 0.27  HD
ATOM     47 HZ1  LYS B 184      -2.378  31.055  10.506  1.00 53.06 LIG 0.27  HD
ENDBRANCH 43 44
ENDBRANCH 42 43
ENDBRANCH 41 42
ENDBRANCH 40 41
ENDBRANCH 39 40
BRANCH 39 48
ATOM     48  N   LYS B 184       2.451  32.014   8.352  1.00 95.16 LIG-0.35  N 
ATOM     49 H    LYS B 184       3.045  31.872   8.957  1.00 95.16 LIG 0.16  HD
ATOM     50  C   PRO B 183       2.242  31.209   7.312  1.00102.83 LIG 0.24  C 
ATOM     51 O    PRO B 183       1.379  31.438   6.457  1.00 96.65 LIG-0.27  OA
BRANCH 50 52
ATOM     52  CA  PRO B 183       3.140  29.978   7.215  1.00119.60 LIG 0.18  C 
ATOM     53  N   PRO B 183       3.829  29.841   5.924  1.00125.08 LIG-0.34  N 
ATOM     54  CD  PRO B 183       5.171  30.453   5.953  1.00128.64 LIG 0.13  C 
ATOM     55  C   PRO B 182       3.375  28.969   5.007  1.00122.07 LIG 0.26  C 
ATOM     56  CG  PRO B 183       5.391  30.764   7.429  1.00127.59 LIG 0.02  C 
ATOM     57  CB  PRO B 183       4.305  30.056   8.208  1.00124.68 LIG 0.04  C 
ATOM     58 O    PRO B 182       2.394  28.244   5.190  1.00123.88 LIG-0.27  OA
BRANCH 55 59
ATOM     59  CA  PRO B 182       4.139  28.874   3.685  1.00115.83 LIG 0.35  C 
ATOM     60  CB  PRO B 182       4.134  30.225   2.954  1.00111.53 LIG 0.05  C 
ATOM     61  CG  PRO B 182       3.961  29.889   1.503  1.00111.42 LIG 0.04  C 
ATOM     62  CD  PRO B 182       3.109  28.659   1.482  1.00113.66 LIG 0.32  C 
ATOM     63  N   PRO B 182       3.493  27.968   2.726  1.00115.25 LIG 0.32  N 
ENDBRANCH 55 59
ENDBRANCH 50 52
ENDBRANCH 39 48
ENDBRANCH 37 39
ENDBRANCH 1 35
TORSDOF 24
ENDMDL
MODEL 17
USER: ADFR SOLUTION from run 47
USER: SCORE 19.542939 LL:  -3.992 LR: -17.829 RR:   0.000 FEB: -10.670
USER: RMSD 7.744720
USER: SEED 46
USER: STATUS no improvement in best in 4 clusters for 5 generations
USER: GENES 26
USER: genes 0 Translation |==|  0.51800 0.55714 0.44015
USER: genes 1 Rotation |==|  0.89230 0.35776 0.23029 0.55591
USER: genes 2 Torsion [C]-CA--CB-[CG] |==|  0.14797
USER: genes 3 Torsion [CA]-CB--CG-[CD] |==|  0.59350
USER: genes 4 Torsion [CB]-CG--CD-[CE] |==|  0.26310
USER: genes 5 Torsion [CG]-CD--CE-[NZ] |==|  0.41296
USER: genes 6 Torsion [CD]-CE--NZ-[HZ1] |==|  0.64308
USER: genes 7 Torsion [N]-CA--C-[N] |==|  0.40067
USER: genes 8 Torsion [C]-N--CA-[CB] |==|  0.21076
USER: genes 9 Torsion [N]-CA--CB-[CG] |==|  0.21811
USER: genes 10 Torsion [CA]-CB--CG-[CD] |==|  0.79201
USER: genes 11 Torsion [CB]-CG--CD-[NE] |==|  0.40932
USER: genes 12 Torsion [CG]-CD--NE-[CZ] |==|  0.49178
USER: genes 13 Torsion [N]-CA--C-[N] |==|  0.32692
USER: genes 14 Torsion [C]-N--CA-[C] |==|  0.61181
USER: genes 15 Torsion [N]-CA--C-[O] |==|  0.85656
USER: genes 16 Torsion [CB]-CA--N-[C] |==|  0.44597
USER: genes 17 Torsion [N]-C--CA-[N] |==|  0.89096
USER: genes 18 Torsion [C]-CA--CB-[CG] |==|  0.52782
USER: genes 19 Torsion [CA]-CB--CG-[CD] |==|  0.28944
USER: genes 20 Torsion [CB]-CG--CD-[CE] |==|  0.52710
USER: genes 21 Torsion [CG]-CD--CE-[NZ] |==|  0.59705
USER: genes 22 Torsion [CD]-CE--NZ-[HZ3] |==|  0.87636
USER: genes 23 Torsion [C]-CA--N-[C] |==|  0.80568
USER: genes 24 Torsion [N]-C--CA-[N] |==|  0.77396
USER: genes 25 Torsion [N]-C--CA-[CB] |==|  0.78825
ROOT
ATOM      1  CA  LYS B 185       2.669  36.268   5.584  1.00 91.41 LIG 0.18  C 
ENDROOT
BRANCH 1 2
ATOM      2  CB  LYS B 185       1.480  37.230   5.484  1.00 90.53 LIG 0.04  C 
BRANCH 2 3
ATOM      3  CG  LYS B 185       1.576  38.315   4.415  1.00 86.81 LIG 0.00  C 
BRANCH 3 4
ATOM      4  CD  LYS B 185       0.891  39.608   4.876  1.00 79.71 LIG 0.03  C 
BRANCH 4 5
ATOM      5  CE  LYS B 185       1.868  40.600   5.512  1.00 72.24 LIG 0.23  C 
BRANCH 5 6
ATOM      6  NZ  LYS B 185       1.486  42.027   5.296  1.00 67.20 LIG-0.08  N 
ATOM      7 HZ1  LYS B 185       2.182  42.474   4.967  1.00 67.20 LIG 0.27  HD
ATOM      8 HZ3  LYS B 185       1.241  42.389   6.071  1.00 67.20 LIG 0.27  HD
ATOM      9 HZ2  LYS B 185       0.808  42.069   4.721  1.00 67.20 LIG 0.27  HD
ENDBRANCH 5 6
ENDBRANCH 4 5
ENDBRANCH 3 4
ENDBRANCH 2 3
ENDBRANCH 1 2
BRANCH 1 10
ATOM     10  C   LYS B 185       3.963  37.063   5.733  1.00 87.67 LIG 0.24  C 
ATOM     11 O    LYS B 185       4.353  37.421   6.849  1.00 75.85 LIG-0.27  OA
ATOM     12  N   ARG B 186       4.604  37.349   4.602  1.00 93.18 LIG-0.35  N 
ATOM     13 H    ARG B 186       4.353  37.048   3.837  1.00 93.18 LIG 0.16  HD
BRANCH 12 14
ATOM     14  CA  ARG B 186       5.793  38.196   4.527  1.00 93.88 LIG 0.18  C 
BRANCH 14 15
ATOM     15  CB  ARG B 186       7.003  37.394   5.031  1.00 94.11 LIG 0.04  C 
BRANCH 15 16
ATOM     16  CG  ARG B 186       7.544  36.417   3.995  1.00 91.13 LIG 0.02  C 
BRANCH 16 17
ATOM     17  CD  ARG B 186       6.666  35.188   3.828  1.00 90.43 LIG 0.14  C 
BRANCH 17 18
ATOM     18  NE  ARG B 186       6.700  34.698   2.451  1.00 88.65 LIG-0.23  N 
ATOM     19 HE   ARG B 186       7.156  35.145   1.874  1.00 88.65 LIG 0.18  HD
ATOM     20  CZ  ARG B 186       6.068  33.603   2.035  1.00 77.61 LIG 0.67  C 
ATOM     21  NH2 ARG B 186       6.144  33.225   0.766  1.00 64.46 LIG-0.23  N 
ATOM     22  NH1 ARG B 186       5.362  32.881   2.893  1.00 71.89 LIG-0.23  N 
ATOM     23 2HH2 ARG B 186       5.734  32.517   0.503  1.00 64.46 LIG 0.17  HD
ATOM     24 1HH2 ARG B 186       6.604  33.689   0.206  1.00 64.46 LIG 0.17  HD
ATOM     25 1HH1 ARG B 186       5.312  33.122   3.718  1.00 71.89 LIG 0.17  HD
ATOM     26 2HH1 ARG B 186       4.953  32.173   2.625  1.00 71.89 LIG 0.17  HD
ENDBRANCH 17 18
ENDBRANCH 16 17
ENDBRANCH 15 16
ENDBRANCH 14 15
BRANCH 14 27
ATOM     27  C   ARG B 186       5.948  38.670   3.066  1.00100.48 LIG 0.24  C 
ATOM     28  N   ALA B 187       5.886  39.974   2.759  1.00104.89 LIG-0.35  N 
ATOM     29 H    ALA B 187       5.967  40.247   1.948  1.00104.89 LIG 0.16  HD
ATOM     30 O    ARG B 186       6.111  37.820   2.187  1.00101.56 LIG-0.27  OA
BRANCH 28 31
ATOM     31  CA  ALA B 187       5.685  41.082   3.695  1.00100.92 LIG 0.16  C 
ATOM     32  CB  ALA B 187       7.033  41.722   4.063  1.00 98.55 LIG 0.04  C 
BRANCH 31 33
ATOM     33  C   ALA B 187       4.748  42.137   3.114  1.00 96.24 LIG 0.22  C 
ATOM     34 O    ALA B 187       4.954  42.612   1.995  1.00 95.92 LIG-0.29  OA
ENDBRANCH 31 33
ENDBRANCH 28 31
ENDBRANCH 14 27
ENDBRANCH 12 14
ENDBRANCH 1 10
BRANCH 1 35
ATOM     35  N   LYS B 185       2.525  35.339   6.704  1.00 94.70 LIG-0.35  N 
ATOM     36 H    LYS B 185       1.965  35.603   7.301  1.00 94.70 LIG 0.16  HD
ATOM     37  C   LYS B 184       3.200  34.188   6.794  1.00 95.69 LIG 0.24  C 
ATOM     38 O    LYS B 184       4.054  33.842   5.972  1.00 96.36 LIG-0.27  OA
BRANCH 37 39
ATOM     39  CA  LYS B 184       2.848  33.296   7.982  1.00 89.09 LIG 0.18  C 
BRANCH 39 40
ATOM     40  CB  LYS B 184       1.609  32.449   7.672  1.00 73.03 LIG 0.04  C 
BRANCH 40 41
ATOM     41  CG  LYS B 184       1.043  31.706   8.889  1.00 60.77 LIG 0.00  C 
BRANCH 41 42
ATOM     42  CD  LYS B 184      -0.217  32.370   9.417  1.00 63.88 LIG 0.03  C 
BRANCH 42 43
ATOM     43  CE  LYS B 184      -0.665  31.798  10.761  1.00 60.38 LIG 0.23  C 
BRANCH 43 44
ATOM     44  NZ  LYS B 184      -2.153  31.725  10.976  1.00 53.06 LIG-0.08  N 
ATOM     45 HZ3  LYS B 184      -2.529  32.486  10.708  1.00 53.06 LIG 0.27  HD
ATOM     46 HZ2  LYS B 184      -2.323  31.600  11.841  1.00 53.06 LIG 0.27  HD
ATOM     47 HZ1  LYS B 184      -2.488  31.047  10.507  1.00 53.06 LIG 0.27  HD
ENDBRANCH 43 44
ENDBRANCH 42 43
ENDBRANCH 41 42
ENDBRANCH 40 41
ENDBRANCH 39 40
BRANCH 39 48
ATOM     48  N   LYS B 184       2.623  34.097   9.179  1.00 95.16 LIG-0.35  N 
ATOM     49 H    LYS B 184       1.804  34.123   9.440  1.00 95.16 LIG 0.16  HD
ATOM     50  C   PRO B 183       3.621  34.726   9.799  1.00102.83 LIG 0.24  C 
ATOM     51 O    PRO B 183       4.790  34.670   9.401  1.00 96.65 LIG-0.27  OA
BRANCH 50 52
ATOM     52  CA  PRO B 183       3.246  35.542  11.033  1.00119.60 LIG 0.18  C 
ATOM     53  N   PRO B 183       2.708  36.876  10.727  1.00125.08 LIG-0.34  N 
ATOM     54  CD  PRO B 183       1.235  36.868  10.648  1.00128.64 LIG 0.13  C 
ATOM     55  C   PRO B 182       3.489  37.963  10.855  1.00122.07 LIG 0.26  C 
ATOM     56  CG  PRO B 183       0.857  35.490  11.180  1.00127.59 LIG 0.02  C 
ATOM     57  CB  PRO B 183       2.095  34.890  11.808  1.00124.68 LIG 0.04  C 
ATOM     58 O    PRO B 182       4.660  37.913  11.239  1.00123.88 LIG-0.27  OA
BRANCH 55 59
ATOM     59  CA  PRO B 182       2.868  39.322  10.523  1.00115.83 LIG 0.35  C 
ATOM     60  CB  PRO B 182       2.760  39.513   9.002  1.00111.53 LIG 0.05  C 
ATOM     61  CG  PRO B 182       3.108  40.951   8.761  1.00111.42 LIG 0.04  C 
ATOM     62  CD  PRO B 182       4.114  41.297   9.813  1.00113.66 LIG 0.32  C 
ATOM     63  N   PRO B 182       3.713  40.445  10.947  1.00115.25 LIG 0.32  N 
ENDBRANCH 55 59
ENDBRANCH 50 52
ENDBRANCH 39 48
ENDBRANCH 37 39
ENDBRANCH 1 35
TORSDOF 24
ENDMDL
MODEL 18
USER: ADFR SOLUTION from run 133
USER: SCORE 20.340164 LL:  -3.309 LR: -17.816 RR:   0.000 FEB: -10.657
USER: RMSD 9.521816
USER: SEED 132
USER: STATUS no improvement in best in 4 clusters for 5 generations
USER: GENES 26
USER: genes 0 Translation |==|  0.49072 0.58796 0.47558
USER: genes 1 Rotation |==|  0.85867 0.29288 0.23086 0.57756
USER: genes 2 Torsion [C]-CA--CB-[CG] |==|  0.24404
USER: genes 3 Torsion [CA]-CB--CG-[CD] |==|  0.63662
USER: genes 4 Torsion [CB]-CG--CD-[CE] |==|  0.71723
USER: genes 5 Torsion [CG]-CD--CE-[NZ] |==|  0.63784
USER: genes 6 Torsion [CD]-CE--NZ-[HZ1] |==|  0.56845
USER: genes 7 Torsion [N]-CA--C-[N] |==|  0.35794
USER: genes 8 Torsion [C]-N--CA-[CB] |==|  0.86610
USER: genes 9 Torsion [N]-CA--CB-[CG] |==|  0.80321
USER: genes 10 Torsion [CA]-CB--CG-[CD] |==|  0.35816
USER: genes 11 Torsion [CB]-CG--CD-[NE] |==|  0.96412
USER: genes 12 Torsion [CG]-CD--NE-[CZ] |==|  0.49965
USER: genes 13 Torsion [N]-CA--C-[N] |==|  0.36394
USER: genes 14 Torsion [C]-N--CA-[C] |==|  0.16905
USER: genes 15 Torsion [N]-CA--C-[O] |==|  0.73477
USER: genes 16 Torsion [CB]-CA--N-[C] |==|  0.84961
USER: genes 17 Torsion [N]-C--CA-[N] |==|  0.91887
USER: genes 18 Torsion [C]-CA--CB-[CG] |==|  0.47557
USER: genes 19 Torsion [CA]-CB--CG-[CD] |==|  0.71220
USER: genes 20 Torsion [CB]-CG--CD-[CE] |==|  0.13695
USER: genes 21 Torsion [CG]-CD--CE-[NZ] |==|  0.29140
USER: genes 22 Torsion [CD]-CE--NZ-[HZ3] |==|  0.47000
USER: genes 23 Torsion [C]-CA--N-[C] |==|  0.59652
USER: genes 24 Torsion [N]-C--CA-[N] |==|  0.20612
USER: genes 25 Torsion [N]-C--CA-[CB] |==|  0.49724
ROOT
ATOM      1  CA  LYS B 185       2.199  37.100   6.302  1.00 91.41 LIG 0.18  C 
ENDROOT
BRANCH 1 2
ATOM      2  CB  LYS B 185       1.204  38.236   6.038  1.00 90.53 LIG 0.04  C 
BRANCH 2 3
ATOM      3  CG  LYS B 185       0.826  38.479   4.578  1.00 86.81 LIG 0.00  C 
BRANCH 3 4
ATOM      4  CD  LYS B 185       0.949  39.964   4.215  1.00 79.71 LIG 0.03  C 
BRANCH 4 5
ATOM      5  CE  LYS B 185      -0.404  40.678   4.180  1.00 72.24 LIG 0.23  C 
BRANCH 5 6
ATOM      6  NZ  LYS B 185      -0.621  41.473   2.936  1.00 67.20 LIG-0.08  N 
ATOM      7 HZ1  LYS B 185      -1.207  42.124   3.097  1.00 67.20 LIG 0.27  HD
ATOM      8 HZ3  LYS B 185      -0.936  40.942   2.295  1.00 67.20 LIG 0.27  HD
ATOM      9 HZ2  LYS B 185       0.151  41.829   2.673  1.00 67.20 LIG 0.27  HD
ENDBRANCH 5 6
ENDBRANCH 4 5
ENDBRANCH 3 4
ENDBRANCH 2 3
ENDBRANCH 1 2
BRANCH 1 10
ATOM     10  C   LYS B 185       3.625  37.633   6.209  1.00 87.67 LIG 0.24  C 
ATOM     11 O    LYS B 185       4.072  38.380   7.085  1.00 75.85 LIG-0.27  OA
ATOM     12  N   ARG B 186       4.318  37.260   5.135  1.00 93.18 LIG-0.35  N 
ATOM     13 H    ARG B 186       4.016  36.696   4.561  1.00 93.18 LIG 0.16  HD
BRANCH 12 14
ATOM     14  CA  ARG B 186       5.653  37.756   4.810  1.00 93.88 LIG 0.18  C 
BRANCH 14 15
ATOM     15  CB  ARG B 186       5.655  39.288   4.932  1.00 94.11 LIG 0.04  C 
BRANCH 15 16
ATOM     16  CG  ARG B 186       4.864  39.976   3.826  1.00 91.13 LIG 0.02  C 
BRANCH 16 17
ATOM     17  CD  ARG B 186       3.855  40.978   4.360  1.00 90.43 LIG 0.14  C 
BRANCH 17 18
ATOM     18  NE  ARG B 186       3.672  40.825   5.803  1.00 88.65 LIG-0.23  N 
ATOM     19 HE   ARG B 186       4.124  40.214   6.205  1.00 88.65 LIG 0.18  HD
ATOM     20  CZ  ARG B 186       2.848  41.574   6.532  1.00 77.61 LIG 0.67  C 
ATOM     21  NH2 ARG B 186       2.734  41.370   7.838  1.00 64.46 LIG-0.23  N 
ATOM     22  NH1 ARG B 186       2.140  42.533   5.954  1.00 71.89 LIG-0.23  N 
ATOM     23 2HH2 ARG B 186       2.200  41.857   8.304  1.00 64.46 LIG 0.17  HD
ATOM     24 1HH2 ARG B 186       3.193  40.750   8.218  1.00 64.46 LIG 0.17  HD
ATOM     25 1HH1 ARG B 186       2.213  42.670   5.108  1.00 71.89 LIG 0.17  HD
ATOM     26 2HH1 ARG B 186       1.607  43.018   6.424  1.00 71.89 LIG 0.17  HD
ENDBRANCH 17 18
ENDBRANCH 16 17
ENDBRANCH 15 16
ENDBRANCH 14 15
BRANCH 14 27
ATOM     27  C   ARG B 186       6.660  37.073   5.761  1.00100.48 LIG 0.24  C 
ATOM     28  N   ALA B 187       7.774  36.501   5.283  1.00104.89 LIG-0.35  N 
ATOM     29 H    ALA B 187       8.338  36.114   5.804  1.00104.89 LIG 0.16  HD
ATOM     30 O    ARG B 186       6.404  37.050   6.967  1.00101.56 LIG-0.27  OA
BRANCH 28 31
ATOM     31  CA  ALA B 187       8.192  36.444   3.881  1.00100.92 LIG 0.16  C 
ATOM     32  CB  ALA B 187       7.158  35.673   3.046  1.00 98.55 LIG 0.04  C 
BRANCH 31 33
ATOM     33  C   ALA B 187       8.391  37.843   3.303  1.00 96.24 LIG 0.22  C 
ATOM     34 O    ALA B 187       7.488  38.396   2.673  1.00 95.92 LIG-0.29  OA
ENDBRANCH 31 33
ENDBRANCH 28 31
ENDBRANCH 14 27
ENDBRANCH 12 14
ENDBRANCH 1 10
BRANCH 1 35
ATOM     35  N   LYS B 185       1.984  36.481   7.608  1.00 94.70 LIG-0.35  N 
ATOM     36 H    LYS B 185       1.877  35.629   7.573  1.00 94.70 LIG 0.16  HD
ATOM     37  C   LYS B 184       1.955  37.174   8.753  1.00 95.69 LIG 0.24  C 
ATOM     38 O    LYS B 184       2.039  38.405   8.796  1.00 96.36 LIG-0.27  OA
BRANCH 37 39
ATOM     39  CA  LYS B 184       1.820  36.350  10.031  1.00 89.09 LIG 0.18  C 
BRANCH 39 40
ATOM     40  CB  LYS B 184       3.201  36.037  10.618  1.00 73.03 LIG 0.04  C 
BRANCH 40 41
ATOM     41  CG  LYS B 184       3.153  35.398  12.012  1.00 60.77 LIG 0.00  C 
BRANCH 41 42
ATOM     42  CD  LYS B 184       3.507  36.397  13.101  1.00 63.88 LIG 0.03  C 
BRANCH 42 43
ATOM     43  CE  LYS B 184       2.729  37.705  12.974  1.00 60.38 LIG 0.23  C 
BRANCH 43 44
ATOM     44  NZ  LYS B 184       1.609  37.898  13.961  1.00 53.06 LIG-0.08  N 
ATOM     45 HZ3  LYS B 184       1.318  38.738  13.919  1.00 53.06 LIG 0.27  HD
ATOM     46 HZ2  LYS B 184       1.904  37.728  14.783  1.00 53.06 LIG 0.27  HD
ATOM     47 HZ1  LYS B 184       0.941  37.343  13.765  1.00 53.06 LIG 0.27  HD
ENDBRANCH 43 44
ENDBRANCH 42 43
ENDBRANCH 41 42
ENDBRANCH 40 41
ENDBRANCH 39 40
BRANCH 39 48
ATOM     48  N   LYS B 184       1.090  35.116   9.775  1.00 95.16 LIG-0.35  N 
ATOM     49 H    LYS B 184       1.235  34.772   8.999  1.00 95.16 LIG 0.16  HD
ATOM     50  C   PRO B 183       0.272  34.584  10.682  1.00102.83 LIG 0.24  C 
ATOM     51 O    PRO B 183       0.084  35.100  11.789  1.00 96.65 LIG-0.27  OA
BRANCH 50 52
ATOM     52  CA  PRO B 183      -0.443  33.297  10.280  1.00119.60 LIG 0.18  C 
ATOM     53  N   PRO B 183       0.423  32.109  10.274  1.00125.08 LIG-0.34  N 
ATOM     54  CD  PRO B 183       0.371  31.387  11.560  1.00128.64 LIG 0.13  C 
ATOM     55  C   PRO B 182       0.896  31.624   9.112  1.00122.07 LIG 0.26  C 
ATOM     56  CG  PRO B 183      -0.786  32.053  12.297  1.00127.59 LIG 0.02  C 
ATOM     57  CB  PRO B 183      -1.525  32.915  11.297  1.00124.68 LIG 0.04  C 
ATOM     58 O    PRO B 182       0.629  32.120   8.015  1.00123.88 LIG-0.27  OA
BRANCH 55 59
ATOM     59  CA  PRO B 182       1.790  30.384   9.176  1.00115.83 LIG 0.35  C 
ATOM     60  CB  PRO B 182       2.220  29.951   7.766  1.00111.53 LIG 0.05  C 
ATOM     61  CG  PRO B 182       2.174  28.453   7.783  1.00111.42 LIG 0.04  C 
ATOM     62  CD  PRO B 182       1.057  28.102   8.714  1.00113.66 LIG 0.32  C 
ATOM     63  N   PRO B 182       1.081  29.206   9.690  1.00115.25 LIG 0.32  N 
ENDBRANCH 55 59
ENDBRANCH 50 52
ENDBRANCH 39 48
ENDBRANCH 37 39
ENDBRANCH 1 35
TORSDOF 24
ENDMDL
MODEL 19
USER: ADFR SOLUTION from run 2
USER: SCORE 18.662337 LL:  -2.920 LR: -17.805 RR:   0.000 FEB: -10.646
USER: RMSD 10.030763
USER: SEED 583088
USER: STATUS no improvement in best in 8 clusters for 5 generations
USER: GENES 26
USER: genes 0 Translation |==|  0.53737 0.55238 0.46179
USER: genes 1 Rotation |==|  0.13640 0.71556 0.76529 0.53078
USER: genes 2 Torsion [C]-CA--CB-[CG] |==|  0.30871
USER: genes 3 Torsion [CA]-CB--CG-[CD] |==|  0.43146
USER: genes 4 Torsion [CB]-CG--CD-[CE] |==|  0.45619
USER: genes 5 Torsion [CG]-CD--CE-[NZ] |==|  0.80991
USER: genes 6 Torsion [CD]-CE--NZ-[HZ1] |==|  0.21555
USER: genes 7 Torsion [N]-CA--C-[N] |==|  0.40044
USER: genes 8 Torsion [C]-N--CA-[CB] |==|  0.49669
USER: genes 9 Torsion [N]-CA--CB-[CG] |==|  0.73444
USER: genes 10 Torsion [CA]-CB--CG-[CD] |==|  0.12178
USER: genes 11 Torsion [CB]-CG--CD-[NE] |==|  0.24129
USER: genes 12 Torsion [CG]-CD--NE-[CZ] |==|  0.20524
USER: genes 13 Torsion [N]-CA--C-[N] |==|  0.84998
USER: genes 14 Torsion [C]-N--CA-[C] |==|  0.73624
USER: genes 15 Torsion [N]-CA--C-[O] |==|  0.29284
USER: genes 16 Torsion [CB]-CA--N-[C] |==|  0.51115
USER: genes 17 Torsion [N]-C--CA-[N] |==|  0.49157
USER: genes 18 Torsion [C]-CA--CB-[CG] |==|  0.37644
USER: genes 19 Torsion [CA]-CB--CG-[CD] |==|  0.24202
USER: genes 20 Torsion [CB]-CG--CD-[CE] |==|  0.69495
USER: genes 21 Torsion [CG]-CD--CE-[NZ] |==|  0.73294
USER: genes 22 Torsion [CD]-CE--NZ-[HZ3] |==|  0.05612
USER: genes 23 Torsion [C]-CA--N-[C] |==|  0.74787
USER: genes 24 Torsion [N]-C--CA-[N] |==|  0.39173
USER: genes 25 Torsion [N]-C--CA-[CB] |==|  0.81113
ROOT
ATOM      1  CA  LYS B 185       3.004  36.139   6.022  1.00 91.41 LIG 0.18  C 
ENDROOT
BRANCH 1 2
ATOM      2  CB  LYS B 185       2.363  37.531   5.960  1.00 90.53 LIG 0.04  C 
BRANCH 2 3
ATOM      3  CG  LYS B 185       1.901  38.002   4.583  1.00 86.81 LIG 0.00  C 
BRANCH 3 4
ATOM      4  CD  LYS B 185       0.786  39.047   4.702  1.00 79.71 LIG 0.03  C 
BRANCH 4 5
ATOM      5  CE  LYS B 185       0.560  39.822   3.401  1.00 72.24 LIG 0.23  C 
BRANCH 5 6
ATOM      6  NZ  LYS B 185       1.693  40.725   3.046  1.00 67.20 LIG-0.08  N 
ATOM      7 HZ1  LYS B 185       2.359  40.245   2.701  1.00 67.20 LIG 0.27  HD
ATOM      8 HZ3  LYS B 185       1.979  41.145   3.777  1.00 67.20 LIG 0.27  HD
ATOM      9 HZ2  LYS B 185       1.419  41.324   2.447  1.00 67.20 LIG 0.27  HD
ENDBRANCH 5 6
ENDBRANCH 4 5
ENDBRANCH 3 4
ENDBRANCH 2 3
ENDBRANCH 1 2
BRANCH 1 10
ATOM     10  C   LYS B 185       4.491  36.271   6.336  1.00 87.67 LIG 0.24  C 
ATOM     11 O    LYS B 185       4.880  36.339   7.506  1.00 75.85 LIG-0.27  OA
ATOM     12  N   ARG B 186       5.305  36.329   5.285  1.00 93.18 LIG-0.35  N 
ATOM     13 H    ARG B 186       5.029  36.225   4.477  1.00 93.18 LIG 0.16  HD
BRANCH 12 14
ATOM     14  CA  ARG B 186       6.743  36.569   5.376  1.00 93.88 LIG 0.18  C 
BRANCH 14 15
ATOM     15  CB  ARG B 186       7.341  36.535   3.960  1.00 94.11 LIG 0.04  C 
BRANCH 15 16
ATOM     16  CG  ARG B 186       7.918  35.175   3.590  1.00 91.13 LIG 0.02  C 
BRANCH 16 17
ATOM     17  CD  ARG B 186       7.016  34.021   3.996  1.00 90.43 LIG 0.14  C 
BRANCH 17 18
ATOM     18  NE  ARG B 186       6.028  33.733   2.957  1.00 88.65 LIG-0.23  N 
ATOM     19 HE   ARG B 186       5.213  33.969   3.098  1.00 88.65 LIG 0.18  HD
ATOM     20  CZ  ARG B 186       6.314  33.127   1.806  1.00 77.61 LIG 0.67  C 
ATOM     21  NH2 ARG B 186       5.359  32.897   0.915  1.00 64.46 LIG-0.23  N 
ATOM     22  NH1 ARG B 186       7.558  32.755   1.547  1.00 71.89 LIG-0.23  N 
ATOM     23 2HH2 ARG B 186       5.549  32.505   0.173  1.00 64.46 LIG 0.17  HD
ATOM     24 1HH2 ARG B 186       4.550  33.139   1.078  1.00 64.46 LIG 0.17  HD
ATOM     25 1HH1 ARG B 186       8.181  32.905   2.121  1.00 71.89 LIG 0.17  HD
ATOM     26 2HH1 ARG B 186       7.744  32.363   0.803  1.00 71.89 LIG 0.17  HD
ENDBRANCH 17 18
ENDBRANCH 16 17
ENDBRANCH 15 16
ENDBRANCH 14 15
BRANCH 14 27
ATOM     27  C   ARG B 186       6.956  37.922   6.088  1.00100.48 LIG 0.24  C 
ATOM     28  N   ALA B 187       6.359  39.035   5.637  1.00104.89 LIG-0.35  N 
ATOM     29 H    ALA B 187       6.476  39.794   6.024  1.00104.89 LIG 0.16  HD
ATOM     30 O    ARG B 186       7.703  37.958   7.069  1.00101.56 LIG-0.27  OA
BRANCH 28 31
ATOM     31  CA  ALA B 187       5.463  39.138   4.484  1.00100.92 LIG 0.16  C 
ATOM     32  CB  ALA B 187       4.335  40.140   4.770  1.00 98.55 LIG 0.04  C 
BRANCH 31 33
ATOM     33  C   ALA B 187       6.223  39.554   3.226  1.00 96.24 LIG 0.22  C 
ATOM     34 O    ALA B 187       6.468  38.733   2.340  1.00 95.92 LIG-0.29  OA
ENDBRANCH 31 33
ENDBRANCH 28 31
ENDBRANCH 14 27
ENDBRANCH 12 14
ENDBRANCH 1 10
BRANCH 1 35
ATOM     35  N   LYS B 185       2.359  35.288   7.020  1.00 94.70 LIG-0.35  N 
ATOM     36 H    LYS B 185       1.679  35.654   7.398  1.00 94.70 LIG 0.16  HD
ATOM     37  C   LYS B 184       2.785  34.056   7.319  1.00 95.69 LIG 0.24  C 
ATOM     38 O    LYS B 184       3.801  33.557   6.827  1.00 96.36 LIG-0.27  OA
BRANCH 37 39
ATOM     39  CA  LYS B 184       1.929  33.274   8.313  1.00 89.09 LIG 0.18  C 
BRANCH 39 40
ATOM     40  CB  LYS B 184       1.859  34.007   9.657  1.00 73.03 LIG 0.04  C 
BRANCH 40 41
ATOM     41  CG  LYS B 184       0.450  34.062  10.262  1.00 60.77 LIG 0.00  C 
BRANCH 41 42
ATOM     42  CD  LYS B 184       0.151  32.832  11.103  1.00 63.88 LIG 0.03  C 
BRANCH 42 43
ATOM     43  CE  LYS B 184      -0.883  31.914  10.455  1.00 60.38 LIG 0.23  C 
BRANCH 43 44
ATOM     44  NZ  LYS B 184      -2.303  32.100  10.919  1.00 53.06 LIG-0.08  N 
ATOM     45 HZ3  LYS B 184      -2.392  32.905  11.288  1.00 53.06 LIG 0.27  HD
ATOM     46 HZ2  LYS B 184      -2.505  31.475  11.520  1.00 53.06 LIG 0.27  HD
ATOM     47 HZ1  LYS B 184      -2.854  32.031  10.223  1.00 53.06 LIG 0.27  HD
ENDBRANCH 43 44
ENDBRANCH 42 43
ENDBRANCH 41 42
ENDBRANCH 40 41
ENDBRANCH 39 40
BRANCH 39 48
ATOM     48  N   LYS B 184       2.456  31.928   8.500  1.00 95.16 LIG-0.35  N 
ATOM     49 H    LYS B 184       3.041  31.860   9.128  1.00 95.16 LIG 0.16  HD
ATOM     50  C   PRO B 183       2.050  30.906   7.749  1.00102.83 LIG 0.24  C 
ATOM     51 O    PRO B 183       1.207  31.033   6.854  1.00 96.65 LIG-0.27  OA
BRANCH 50 52
ATOM     52  CA  PRO B 183       2.693  29.552   8.040  1.00119.60 LIG 0.18  C 
ATOM     53  N   PRO B 183       1.761  28.418   7.958  1.00125.08 LIG-0.34  N 
ATOM     54  CD  PRO B 183       1.767  27.801   6.617  1.00128.64 LIG 0.13  C 
ATOM     55  C   PRO B 182       1.267  27.868   9.081  1.00122.07 LIG 0.26  C 
ATOM     56  CG  PRO B 183       2.956  28.459   5.926  1.00127.59 LIG 0.02  C 
ATOM     57  CB  PRO B 183       3.747  29.194   6.986  1.00124.68 LIG 0.04  C 
ATOM     58 O    PRO B 182       1.566  28.258  10.212  1.00123.88 LIG-0.27  OA
BRANCH 55 59
ATOM     59  CA  PRO B 182       0.304  26.689   8.925  1.00115.83 LIG 0.35  C 
ATOM     60  CB  PRO B 182      -1.020  27.147   8.296  1.00111.53 LIG 0.05  C 
ATOM     61  CG  PRO B 182      -2.087  26.381   9.019  1.00111.42 LIG 0.04  C 
ATOM     62  CD  PRO B 182      -1.570  26.204  10.412  1.00113.66 LIG 0.32  C 
ATOM     63  N   PRO B 182      -0.111  26.129  10.218  1.00115.25 LIG 0.32  N 
ENDBRANCH 55 59
ENDBRANCH 50 52
ENDBRANCH 39 48
ENDBRANCH 37 39
ENDBRANCH 1 35
TORSDOF 24
ENDMDL
MODEL 20
USER: ADFR SOLUTION from run 146
USER: SCORE 18.808915 LL:  -2.801 LR: -17.718 RR:   0.000 FEB: -10.559
USER: RMSD 10.052943
USER: SEED 145
USER: STATUS searching
USER: GENES 26
USER: genes 0 Translation |==|  0.46232 0.40514 0.52963
USER: genes 1 Rotation |==|  0.43233 0.45897 0.98623 0.58554
USER: genes 2 Torsion [C]-CA--CB-[CG] |==|  0.29622
USER: genes 3 Torsion [CA]-CB--CG-[CD] |==|  0.20877
USER: genes 4 Torsion [CB]-CG--CD-[CE] |==|  0.54444
USER: genes 5 Torsion [CG]-CD--CE-[NZ] |==|  0.46809
USER: genes 6 Torsion [CD]-CE--NZ-[HZ1] |==|  0.14987
USER: genes 7 Torsion [N]-CA--C-[N] |==|  0.45846
USER: genes 8 Torsion [C]-N--CA-[CB] |==|  0.49566
USER: genes 9 Torsion [N]-CA--CB-[CG] |==|  0.75174
USER: genes 10 Torsion [CA]-CB--CG-[CD] |==|  0.80351
USER: genes 11 Torsion [CB]-CG--CD-[NE] |==|  0.54423
USER: genes 12 Torsion [CG]-CD--NE-[CZ] |==|  0.29711
USER: genes 13 Torsion [N]-CA--C-[N] |==|  0.46054
USER: genes 14 Torsion [C]-N--CA-[C] |==|  0.60065
USER: genes 15 Torsion [N]-CA--C-[O] |==|  0.53083
USER: genes 16 Torsion [CB]-CA--N-[C] |==|  0.85554
USER: genes 17 Torsion [N]-C--CA-[N] |==|  0.81027
USER: genes 18 Torsion [C]-CA--CB-[CG] |==|  0.18714
USER: genes 19 Torsion [CA]-CB--CG-[CD] |==|  0.41312
USER: genes 20 Torsion [CB]-CG--CD-[CE] |==|  0.53320
USER: genes 21 Torsion [CG]-CD--CE-[NZ] |==|  0.66606
USER: genes 22 Torsion [CD]-CE--NZ-[HZ3] |==|  0.52250
USER: genes 23 Torsion [C]-CA--N-[C] |==|  0.64604
USER: genes 24 Torsion [N]-C--CA-[N] |==|  0.92341
USER: genes 25 Torsion [N]-C--CA-[CB] |==|  0.74772
ROOT
ATOM      1  CA  LYS B 185       1.709  32.164   7.396  1.00 91.41 LIG 0.18  C 
ENDROOT
BRANCH 1 2
ATOM      2  CB  LYS B 185       2.181  32.159   8.854  1.00 90.53 LIG 0.04  C 
BRANCH 2 3
ATOM      3  CG  LYS B 185       1.275  32.863   9.861  1.00 86.81 LIG 0.00  C 
BRANCH 3 4
ATOM      4  CD  LYS B 185       0.034  32.018  10.173  1.00 79.71 LIG 0.03  C 
BRANCH 4 5
ATOM      5  CE  LYS B 185      -1.075  32.824  10.855  1.00 72.24 LIG 0.23  C 
BRANCH 5 6
ATOM      6  NZ  LYS B 185      -2.378  32.100  10.920  1.00 67.20 LIG-0.08  N 
ATOM      7 HZ1  LYS B 185      -2.258  31.305  11.302  1.00 67.20 LIG 0.27  HD
ATOM      8 HZ3  LYS B 185      -2.696  31.987  10.096  1.00 67.20 LIG 0.27  HD
ATOM      9 HZ2  LYS B 185      -2.958  32.575  11.399  1.00 67.20 LIG 0.27  HD
ENDBRANCH 5 6
ENDBRANCH 4 5
ENDBRANCH 3 4
ENDBRANCH 2 3
ENDBRANCH 1 2
BRANCH 1 10
ATOM     10  C   LYS B 185       2.561  33.132   6.582  1.00 87.67 LIG 0.24  C 
ATOM     11 O    LYS B 185       3.394  32.707   5.775  1.00 75.85 LIG-0.27  OA
ATOM     12  N   ARG B 186       2.359  34.427   6.819  1.00 93.18 LIG-0.35  N 
ATOM     13 H    ARG B 186       1.739  34.712   7.342  1.00 93.18 LIG 0.16  HD
BRANCH 12 14
ATOM     14  CA  ARG B 186       3.153  35.501   6.227  1.00 93.88 LIG 0.18  C 
BRANCH 14 15
ATOM     15  CB  ARG B 186       2.595  36.850   6.706  1.00 94.11 LIG 0.04  C 
BRANCH 15 16
ATOM     16  CG  ARG B 186       1.502  37.400   5.799  1.00 91.13 LIG 0.02  C 
BRANCH 16 17
ATOM     17  CD  ARG B 186       2.034  37.875   4.458  1.00 90.43 LIG 0.14  C 
BRANCH 17 18
ATOM     18  NE  ARG B 186       1.058  38.723   3.774  1.00 88.65 LIG-0.23  N 
ATOM     19 HE   ARG B 186       0.363  38.346   3.434  1.00 88.65 LIG 0.18  HD
ATOM     20  CZ  ARG B 186       1.180  40.042   3.645  1.00 77.61 LIG 0.67  C 
ATOM     21  NH2 ARG B 186       0.252  40.742   3.005  1.00 64.46 LIG-0.23  N 
ATOM     22  NH1 ARG B 186       2.230  40.663   4.161  1.00 71.89 LIG-0.23  N 
ATOM     23 2HH2 ARG B 186       0.336  41.594   2.925  1.00 64.46 LIG 0.17  HD
ATOM     24 1HH2 ARG B 186      -0.433  40.344   2.671  1.00 64.46 LIG 0.17  HD
ATOM     25 1HH1 ARG B 186       2.833  40.212   4.579  1.00 71.89 LIG 0.17  HD
ATOM     26 2HH1 ARG B 186       2.310  41.515   4.078  1.00 71.89 LIG 0.17  HD
ENDBRANCH 17 18
ENDBRANCH 16 17
ENDBRANCH 15 16
ENDBRANCH 14 15
BRANCH 14 27
ATOM     27  C   ARG B 186       4.627  35.280   6.628  1.00100.48 LIG 0.24  C 
ATOM     28  N   ALA B 187       5.613  35.941   6.004  1.00104.89 LIG-0.35  N 
ATOM     29 H    ALA B 187       6.438  35.820   6.217  1.00104.89 LIG 0.16  HD
ATOM     30 O    ARG B 186       4.877  34.468   7.522  1.00101.56 LIG-0.27  OA
BRANCH 28 31
ATOM     31  CA  ALA B 187       5.461  36.917   4.924  1.00100.92 LIG 0.16  C 
ATOM     32  CB  ALA B 187       5.406  38.342   5.494  1.00 98.55 LIG 0.04  C 
BRANCH 31 33
ATOM     33  C   ALA B 187       6.598  36.805   3.910  1.00 96.24 LIG 0.22  C 
ATOM     34 O    ALA B 187       6.756  37.669   3.046  1.00 95.92 LIG-0.29  OA
ENDBRANCH 31 33
ENDBRANCH 28 31
ENDBRANCH 14 27
ENDBRANCH 12 14
ENDBRANCH 1 10
BRANCH 1 35
ATOM     35  N   LYS B 185       1.768  30.830   6.801  1.00 94.70 LIG-0.35  N 
ATOM     36 H    LYS B 185       1.032  30.585   6.431  1.00 94.70 LIG 0.16  HD
ATOM     37  C   LYS B 184       2.863  30.061   6.829  1.00 95.69 LIG 0.24  C 
ATOM     38 O    LYS B 184       3.897  30.385   7.420  1.00 96.36 LIG-0.27  OA
BRANCH 37 39
ATOM     39  CA  LYS B 184       2.773  28.740   6.070  1.00 89.09 LIG 0.18  C 
BRANCH 39 40
ATOM     40  CB  LYS B 184       2.346  28.981   4.617  1.00 73.03 LIG 0.04  C 
BRANCH 40 41
ATOM     41  CG  LYS B 184       3.393  29.725   3.777  1.00 60.77 LIG 0.00  C 
BRANCH 41 42
ATOM     42  CD  LYS B 184       3.343  29.306   2.318  1.00 63.88 LIG 0.03  C 
BRANCH 42 43
ATOM     43  CE  LYS B 184       4.549  29.804   1.522  1.00 60.38 LIG 0.23  C 
BRANCH 43 44
ATOM     44  NZ  LYS B 184       4.235  30.704   0.357  1.00 53.06 LIG-0.08  N 
ATOM     45 HZ3  LYS B 184       4.976  30.848  -0.114  1.00 53.06 LIG 0.27  HD
ATOM     46 HZ2  LYS B 184       3.920  31.480   0.657  1.00 53.06 LIG 0.27  HD
ATOM     47 HZ1  LYS B 184       3.625  30.316  -0.162  1.00 53.06 LIG 0.27  HD
ENDBRANCH 43 44
ENDBRANCH 42 43
ENDBRANCH 41 42
ENDBRANCH 40 41
ENDBRANCH 39 40
BRANCH 39 48
ATOM     48  N   LYS B 184       1.842  27.831   6.725  1.00 95.16 LIG-0.35  N 
ATOM     49 H    LYS B 184       1.064  28.167   6.875  1.00 95.16 LIG 0.16  HD
ATOM     50  C   PRO B 183       2.190  26.588   7.053  1.00102.83 LIG 0.24  C 
ATOM     51 O    PRO B 183       3.316  26.131   6.824  1.00 96.65 LIG-0.27  OA
BRANCH 50 52
ATOM     52  CA  PRO B 183       1.124  25.745   7.748  1.00119.60 LIG 0.18  C 
ATOM     53  N   PRO B 183       0.146  26.532   8.514  1.00125.08 LIG-0.34  N 
ATOM     54  CD  PRO B 183      -1.050  26.850   7.710  1.00128.64 LIG 0.13  C 
ATOM     55  C   PRO B 182       0.246  26.614   9.852  1.00122.07 LIG 0.26  C 
ATOM     56  CG  PRO B 183      -0.880  25.992   6.461  1.00127.59 LIG 0.02  C 
ATOM     57  CB  PRO B 183       0.239  25.012   6.733  1.00124.68 LIG 0.04  C 
ATOM     58 O    PRO B 182       1.126  26.042  10.500  1.00123.88 LIG-0.27  OA
BRANCH 55 59
ATOM     59  CA  PRO B 182      -0.805  27.447  10.589  1.00115.83 LIG 0.35  C 
ATOM     60  CB  PRO B 182      -0.341  28.904  10.735  1.00111.53 LIG 0.05  C 
ATOM     61  CG  PRO B 182      -0.777  29.322  12.107  1.00111.42 LIG 0.04  C 
ATOM     62  CD  PRO B 182      -0.691  28.084  12.943  1.00113.66 LIG 0.32  C 
ATOM     63  N   PRO B 182      -0.994  27.012  11.979  1.00115.25 LIG 0.32  N 
ENDBRANCH 55 59
ENDBRANCH 50 52
ENDBRANCH 39 48
ENDBRANCH 37 39
ENDBRANCH 1 35
TORSDOF 24
ENDMDL
MODEL 21
USER: ADFR SOLUTION from run 154
USER: SCORE 18.378297 LL:  -3.541 LR: -17.722 RR:   0.000 FEB: -10.563
USER: RMSD 7.126671
USER: SEED 153
USER: STATUS searching
USER: GENES 26
USER: genes 0 Translation |==|  0.47197 0.65694 0.42115
USER: genes 1 Rotation |==|  0.60548 0.08066 0.25606 0.55930
USER: genes 2 Torsion [C]-CA--CB-[CG] |==|  0.27304
USER: genes 3 Torsion [CA]-CB--CG-[CD] |==|  0.10234
USER: genes 4 Torsion [CB]-CG--CD-[CE] |==|  0.30109
USER: genes 5 Torsion [CG]-CD--CE-[NZ] |==|  0.06094
USER: genes 6 Torsion [CD]-CE--NZ-[HZ1] |==|  0.63861
USER: genes 7 Torsion [N]-CA--C-[N] |==|  0.83615
USER: genes 8 Torsion [C]-N--CA-[CB] |==|  0.38494
USER: genes 9 Torsion [N]-CA--CB-[CG] |==|  0.64922
USER: genes 10 Torsion [CA]-CB--CG-[CD] |==|  0.83067
USER: genes 11 Torsion [CB]-CG--CD-[NE] |==|  0.30836
USER: genes 12 Torsion [CG]-CD--NE-[CZ] |==|  0.29940
USER: genes 13 Torsion [N]-CA--C-[N] |==|  0.26563
USER: genes 14 Torsion [C]-N--CA-[C] |==|  0.62078
USER: genes 15 Torsion [N]-CA--C-[O] |==|  0.90490
USER: genes 16 Torsion [CB]-CA--N-[C] |==|  0.55588
USER: genes 17 Torsion [N]-C--CA-[N] |==|  0.49012
USER: genes 18 Torsion [C]-CA--CB-[CG] |==|  0.23928
USER: genes 19 Torsion [CA]-CB--CG-[CD] |==|  0.71727
USER: genes 20 Torsion [CB]-CG--CD-[CE] |==|  0.47602
USER: genes 21 Torsion [CG]-CD--CE-[NZ] |==|  0.72743
USER: genes 22 Torsion [CD]-CE--NZ-[HZ3] |==|  0.53984
USER: genes 23 Torsion [C]-CA--N-[C] |==|  0.60087
USER: genes 24 Torsion [N]-C--CA-[N] |==|  0.87786
USER: genes 25 Torsion [N]-C--CA-[CB] |==|  0.66728
ROOT
ATOM      1  CA  LYS B 185       1.875  38.962   5.199  1.00 91.41 LIG 0.18  C 
ENDROOT
BRANCH 1 2
ATOM      2  CB  LYS B 185       2.157  40.091   4.201  1.00 90.53 LIG 0.04  C 
BRANCH 2 3
ATOM      3  CG  LYS B 185       1.203  40.199   3.014  1.00 86.81 LIG 0.00  C 
BRANCH 3 4
ATOM      4  CD  LYS B 185      -0.235  39.864   3.429  1.00 79.71 LIG 0.03  C 
BRANCH 4 5
ATOM      5  CE  LYS B 185      -1.143  41.096   3.462  1.00 72.24 LIG 0.23  C 
BRANCH 5 6
ATOM      6  NZ  LYS B 185      -0.641  42.224   2.623  1.00 67.20 LIG-0.08  N 
ATOM      7 HZ1  LYS B 185      -0.641  42.974   3.103  1.00 67.20 LIG 0.27  HD
ATOM      8 HZ3  LYS B 185      -1.170  42.325   1.915  1.00 67.20 LIG 0.27  HD
ATOM      9 HZ2  LYS B 185       0.188  42.045   2.352  1.00 67.20 LIG 0.27  HD
ENDBRANCH 5 6
ENDBRANCH 4 5
ENDBRANCH 3 4
ENDBRANCH 2 3
ENDBRANCH 1 2
BRANCH 1 10
ATOM     10  C   LYS B 185       2.779  37.771   4.897  1.00 87.67 LIG 0.24  C 
ATOM     11 O    LYS B 185       2.293  36.689   4.551  1.00 75.85 LIG-0.27  OA
ATOM     12  N   ARG B 186       4.085  37.976   5.050  1.00 93.18 LIG-0.35  N 
ATOM     13 H    ARG B 186       4.415  38.748   5.237  1.00 93.18 LIG 0.16  HD
BRANCH 12 14
ATOM     14  CA  ARG B 186       5.098  36.932   4.921  1.00 93.88 LIG 0.18  C 
BRANCH 14 15
ATOM     15  CB  ARG B 186       6.302  37.504   4.155  1.00 94.11 LIG 0.04  C 
BRANCH 15 16
ATOM     16  CG  ARG B 186       6.692  36.665   2.945  1.00 91.13 LIG 0.02  C 
BRANCH 16 17
ATOM     17  CD  ARG B 186       7.096  35.248   3.316  1.00 90.43 LIG 0.14  C 
BRANCH 17 18
ATOM     18  NE  ARG B 186       6.109  34.277   2.846  1.00 88.65 LIG-0.23  N 
ATOM     19 HE   ARG B 186       5.351  34.243   3.252  1.00 88.65 LIG 0.18  HD
ATOM     20  CZ  ARG B 186       6.311  33.443   1.828  1.00 77.61 LIG 0.67  C 
ATOM     21  NH2 ARG B 186       5.366  32.587   1.465  1.00 64.46 LIG-0.23  N 
ATOM     22  NH1 ARG B 186       7.461  33.469   1.171  1.00 71.89 LIG-0.23  N 
ATOM     23 2HH2 ARG B 186       5.502  32.050   0.806  1.00 64.46 LIG 0.17  HD
ATOM     24 1HH2 ARG B 186       4.617  32.568   1.887  1.00 64.46 LIG 0.17  HD
ATOM     25 1HH1 ARG B 186       8.076  34.025   1.402  1.00 71.89 LIG 0.17  HD
ATOM     26 2HH1 ARG B 186       7.593  32.930   0.513  1.00 71.89 LIG 0.17  HD
ENDBRANCH 17 18
ENDBRANCH 16 17
ENDBRANCH 15 16
ENDBRANCH 14 15
BRANCH 14 27
ATOM     27  C   ARG B 186       5.463  36.443   6.339  1.00100.48 LIG 0.24  C 
ATOM     28  N   ALA B 187       4.872  35.359   6.863  1.00104.89 LIG-0.35  N 
ATOM     29 H    ALA B 187       5.064  35.082   7.654  1.00104.89 LIG 0.16  HD
ATOM     30 O    ARG B 186       6.294  37.084   6.986  1.00101.56 LIG-0.27  OA
BRANCH 28 31
ATOM     31  CA  ALA B 187       3.864  34.517   6.215  1.00100.92 LIG 0.16  C 
ATOM     32  CB  ALA B 187       4.510  33.234   5.670  1.00 98.55 LIG 0.04  C 
BRANCH 31 33
ATOM     33  C   ALA B 187       2.734  34.163   7.179  1.00 96.24 LIG 0.22  C 
ATOM     34 O    ALA B 187       2.961  33.991   8.377  1.00 95.92 LIG-0.29  OA
ENDBRANCH 31 33
ENDBRANCH 28 31
ENDBRANCH 14 27
ENDBRANCH 12 14
ENDBRANCH 1 10
BRANCH 1 35
ATOM     35  N   LYS B 185       2.072  39.397   6.581  1.00 94.70 LIG-0.35  N 
ATOM     36 H    LYS B 185       2.045  40.251   6.681  1.00 94.70 LIG 0.16  HD
ATOM     37  C   LYS B 184       2.275  38.549   7.595  1.00 95.69 LIG 0.24  C 
ATOM     38 O    LYS B 184       2.382  37.328   7.441  1.00 96.36 LIG-0.27  OA
BRANCH 37 39
ATOM     39  CA  LYS B 184       2.359  39.174   8.985  1.00 89.09 LIG 0.18  C 
BRANCH 39 40
ATOM     40  CB  LYS B 184       3.532  40.158   9.063  1.00 73.03 LIG 0.04  C 
BRANCH 40 41
ATOM     41  CG  LYS B 184       3.186  41.575   8.589  1.00 60.77 LIG 0.00  C 
BRANCH 41 42
ATOM     42  CD  LYS B 184       3.699  41.840   7.184  1.00 63.88 LIG 0.03  C 
BRANCH 42 43
ATOM     43  CE  LYS B 184       3.189  43.160   6.610  1.00 60.38 LIG 0.23  C 
BRANCH 43 44
ATOM     44  NZ  LYS B 184       2.000  43.058   5.692  1.00 53.06 LIG-0.08  N 
ATOM     45 HZ3  LYS B 184       1.901  43.823   5.248  1.00 53.06 LIG 0.27  HD
ATOM     46 HZ2  LYS B 184       1.268  42.897   6.172  1.00 53.06 LIG 0.27  HD
ATOM     47 HZ1  LYS B 184       2.127  42.393   5.114  1.00 53.06 LIG 0.27  HD
ENDBRANCH 43 44
ENDBRANCH 42 43
ENDBRANCH 41 42
ENDBRANCH 40 41
ENDBRANCH 39 40
BRANCH 39 48
ATOM     48  N   LYS B 184       2.497  38.144  10.007  1.00 95.16 LIG-0.35  N 
ATOM     49 H    LYS B 184       2.977  37.471   9.770  1.00 95.16 LIG 0.16  HD
ATOM     50  C   PRO B 183       1.916  38.259  11.201  1.00102.83 LIG 0.24  C 
ATOM     51 O    PRO B 183       1.231  39.239  11.514  1.00 96.65 LIG-0.27  OA
BRANCH 50 52
ATOM     52  CA  PRO B 183       2.129  37.101  12.173  1.00119.60 LIG 0.18  C 
ATOM     53  N   PRO B 183       1.984  35.773  11.561  1.00125.08 LIG-0.34  N 
ATOM     54  CD  PRO B 183       3.281  35.238  11.102  1.00128.64 LIG 0.13  C 
ATOM     55  C   PRO B 182       0.855  35.066  11.741  1.00122.07 LIG 0.26  C 
ATOM     56  CG  PRO B 183       4.297  36.206  11.696  1.00127.59 LIG 0.02  C 
ATOM     57  CB  PRO B 183       3.568  37.070  12.701  1.00124.68 LIG 0.04  C 
ATOM     58 O    PRO B 182      -0.092  35.468  12.421  1.00123.88 LIG-0.27  OA
BRANCH 55 59
ATOM     59  CA  PRO B 182       0.770  33.690  11.079  1.00115.83 LIG 0.35  C 
ATOM     60  CB  PRO B 182      -0.405  33.633  10.091  1.00111.53 LIG 0.05  C 
ATOM     61  CG  PRO B 182      -0.999  32.267  10.262  1.00111.42 LIG 0.04  C 
ATOM     62  CD  PRO B 182      -0.800  31.927  11.705  1.00113.66 LIG 0.32  C 
ATOM     63  N   PRO B 182       0.456  32.623  12.038  1.00115.25 LIG 0.32  N 
ENDBRANCH 55 59
ENDBRANCH 50 52
ENDBRANCH 39 48
ENDBRANCH 37 39
ENDBRANCH 1 35
TORSDOF 24
ENDMDL
MODEL 22
USER: ADFR SOLUTION from run 37
USER: SCORE 18.419049 LL:  -3.025 LR: -17.703 RR:   0.000 FEB: -10.544
USER: RMSD 11.283076
USER: SEED 36
USER: STATUS 1 or 2 clusters left
USER: GENES 26
USER: genes 0 Translation |==|  0.52175 0.66384 0.54597
USER: genes 1 Rotation |==|  0.96674 0.40831 0.39864 0.61606
USER: genes 2 Torsion [C]-CA--CB-[CG] |==|  0.42407
USER: genes 3 Torsion [CA]-CB--CG-[CD] |==|  0.59815
USER: genes 4 Torsion [CB]-CG--CD-[CE] |==|  0.94216
USER: genes 5 Torsion [CG]-CD--CE-[NZ] |==|  0.46262
USER: genes 6 Torsion [CD]-CE--NZ-[HZ1] |==|  0.83155
USER: genes 7 Torsion [N]-CA--C-[N] |==|  0.84056
USER: genes 8 Torsion [C]-N--CA-[CB] |==|  0.44951
USER: genes 9 Torsion [N]-CA--CB-[CG] |==|  0.59909
USER: genes 10 Torsion [CA]-CB--CG-[CD] |==|  0.28060
USER: genes 11 Torsion [CB]-CG--CD-[NE] |==|  0.70844
USER: genes 12 Torsion [CG]-CD--NE-[CZ] |==|  0.31207
USER: genes 13 Torsion [N]-CA--C-[N] |==|  0.80798
USER: genes 14 Torsion [C]-N--CA-[C] |==|  0.60029
USER: genes 15 Torsion [N]-CA--C-[O] |==|  0.94067
USER: genes 16 Torsion [CB]-CA--N-[C] |==|  0.21546
USER: genes 17 Torsion [N]-C--CA-[N] |==|  0.45000
USER: genes 18 Torsion [C]-CA--CB-[CG] |==|  0.39784
USER: genes 19 Torsion [CA]-CB--CG-[CD] |==|  0.56729
USER: genes 20 Torsion [CB]-CG--CD-[CE] |==|  0.36978
USER: genes 21 Torsion [CG]-CD--CE-[NZ] |==|  0.08030
USER: genes 22 Torsion [CD]-CE--NZ-[HZ3] |==|  0.33504
USER: genes 23 Torsion [C]-CA--N-[C] |==|  0.54735
USER: genes 24 Torsion [N]-C--CA-[N] |==|  0.18929
USER: genes 25 Torsion [N]-C--CA-[CB] |==|  0.63444
ROOT
ATOM      1  CA  LYS B 185       2.734  39.149   7.727  1.00 91.41 LIG 0.18  C 
ENDROOT
BRANCH 1 2
ATOM      2  CB  LYS B 185       1.609  39.403   6.717  1.00 90.53 LIG 0.04  C 
BRANCH 2 3
ATOM      3  CG  LYS B 185       1.367  38.306   5.683  1.00 86.81 LIG 0.00  C 
BRANCH 3 4
ATOM      4  CD  LYS B 185       0.955  38.901   4.331  1.00 79.71 LIG 0.03  C 
BRANCH 4 5
ATOM      5  CE  LYS B 185       0.402  40.323   4.455  1.00 72.24 LIG 0.23  C 
BRANCH 5 6
ATOM      6  NZ  LYS B 185       0.296  41.033   3.147  1.00 67.20 LIG-0.08  N 
ATOM      7 HZ1  LYS B 185       1.104  41.100   2.779  1.00 67.20 LIG 0.27  HD
ATOM      8 HZ3  LYS B 185      -0.038  41.848   3.277  1.00 67.20 LIG 0.27  HD
ATOM      9 HZ2  LYS B 185      -0.240  40.576   2.604  1.00 67.20 LIG 0.27  HD
ENDBRANCH 5 6
ENDBRANCH 4 5
ENDBRANCH 3 4
ENDBRANCH 2 3
ENDBRANCH 1 2
BRANCH 1 10
ATOM     10  C   LYS B 185       3.305  40.479   8.207  1.00 87.67 LIG 0.24  C 
ATOM     11 O    LYS B 185       4.473  40.789   7.949  1.00 75.85 LIG-0.27  OA
ATOM     12  N   ARG B 186       2.481  41.244   8.919  1.00 93.18 LIG-0.35  N 
ATOM     13 H    ARG B 186       1.654  41.044   9.045  1.00 93.18 LIG 0.16  HD
BRANCH 12 14
ATOM     14  CA  ARG B 186       2.875  42.496   9.561  1.00 93.88 LIG 0.18  C 
BRANCH 14 15
ATOM     15  CB  ARG B 186       1.610  43.306   9.885  1.00 94.11 LIG 0.04  C 
BRANCH 15 16
ATOM     16  CG  ARG B 186       1.805  44.808   9.725  1.00 91.13 LIG 0.02  C 
BRANCH 16 17
ATOM     17  CD  ARG B 186       1.234  45.341   8.422  1.00 90.43 LIG 0.14  C 
BRANCH 17 18
ATOM     18  NE  ARG B 186       2.297  45.637   7.463  1.00 88.65 LIG-0.23  N 
ATOM     19 HE   ARG B 186       2.831  46.288   7.639  1.00 88.65 LIG 0.18  HD
ATOM     20  CZ  ARG B 186       2.489  44.961   6.332  1.00 77.61 LIG 0.67  C 
ATOM     21  NH2 ARG B 186       3.474  45.294   5.509  1.00 64.46 LIG-0.23  N 
ATOM     22  NH1 ARG B 186       1.694  43.946   6.027  1.00 71.89 LIG-0.23  N 
ATOM     23 2HH2 ARG B 186       3.593  44.854   4.781  1.00 64.46 LIG 0.17  HD
ATOM     24 1HH2 ARG B 186       3.994  45.951   5.705  1.00 64.46 LIG 0.17  HD
ATOM     25 1HH1 ARG B 186       1.055  43.725   6.559  1.00 71.89 LIG 0.17  HD
ATOM     26 2HH1 ARG B 186       1.816  43.508   5.296  1.00 71.89 LIG 0.17  HD
ENDBRANCH 17 18
ENDBRANCH 16 17
ENDBRANCH 15 16
ENDBRANCH 14 15
BRANCH 14 27
ATOM     27  C   ARG B 186       3.706  42.147  10.815  1.00100.48 LIG 0.24  C 
ATOM     28  N   ALA B 187       3.130  41.573  11.880  1.00104.89 LIG-0.35  N 
ATOM     29 H    ALA B 187       3.583  41.380  12.585  1.00104.89 LIG 0.16  HD
ATOM     30 O    ARG B 186       4.907  42.427  10.819  1.00101.56 LIG-0.27  OA
BRANCH 28 31
ATOM     31  CA  ALA B 187       1.720  41.201  12.014  1.00100.92 LIG 0.16  C 
ATOM     32  CB  ALA B 187       1.513  39.734  11.607  1.00 98.55 LIG 0.04  C 
BRANCH 31 33
ATOM     33  C   ALA B 187       1.221  41.421  13.440  1.00 96.24 LIG 0.22  C 
ATOM     34 O    ALA B 187       2.013  41.476  14.382  1.00 95.92 LIG-0.29  OA
ENDBRANCH 31 33
ENDBRANCH 28 31
ENDBRANCH 14 27
ENDBRANCH 12 14
ENDBRANCH 1 10
BRANCH 1 35
ATOM     35  N   LYS B 185       2.272  38.365   8.871  1.00 94.70 LIG-0.35  N 
ATOM     36 H    LYS B 185       2.133  38.835   9.577  1.00 94.70 LIG 0.16  HD
ATOM     37  C   LYS B 184       2.081  37.042   8.826  1.00 95.69 LIG 0.24  C 
ATOM     38 O    LYS B 184       2.345  36.358   7.832  1.00 96.36 LIG-0.27  OA
BRANCH 37 39
ATOM     39  CA  LYS B 184       1.498  36.405  10.085  1.00 89.09 LIG 0.18  C 
BRANCH 39 40
ATOM     40  CB  LYS B 184       2.566  36.301  11.179  1.00 73.03 LIG 0.04  C 
BRANCH 40 41
ATOM     41  CG  LYS B 184       2.031  36.547  12.595  1.00 60.77 LIG 0.00  C 
BRANCH 41 42
ATOM     42  CD  LYS B 184       3.126  37.015  13.538  1.00 63.88 LIG 0.03  C 
BRANCH 42 43
ATOM     43  CE  LYS B 184       2.706  38.222  14.375  1.00 60.38 LIG 0.23  C 
BRANCH 43 44
ATOM     44  NZ  LYS B 184       1.234  38.331  14.671  1.00 53.06 LIG-0.08  N 
ATOM     45 HZ3  LYS B 184       1.107  38.326  15.552  1.00 53.06 LIG 0.27  HD
ATOM     46 HZ2  LYS B 184       0.806  37.641  14.307  1.00 53.06 LIG 0.27  HD
ATOM     47 HZ1  LYS B 184       0.918  39.090  14.330  1.00 53.06 LIG 0.27  HD
ENDBRANCH 43 44
ENDBRANCH 42 43
ENDBRANCH 41 42
ENDBRANCH 40 41
ENDBRANCH 39 40
BRANCH 39 48
ATOM     48  N   LYS B 184       0.948  35.089   9.790  1.00 95.16 LIG-0.35  N 
ATOM     49 H    LYS B 184       1.217  34.750   9.046  1.00 95.16 LIG 0.16  HD
ATOM     50  C   PRO B 183       0.102  34.481  10.620  1.00102.83 LIG 0.24  C 
ATOM     51 O    PRO B 183      -0.266  34.990  11.684  1.00 96.65 LIG-0.27  OA
BRANCH 50 52
ATOM     52  CA  PRO B 183      -0.410  33.110  10.183  1.00119.60 LIG 0.18  C 
ATOM     53  N   PRO B 183       0.621  32.062  10.174  1.00125.08 LIG-0.34  N 
ATOM     54  CD  PRO B 183       0.654  31.317  11.447  1.00128.64 LIG 0.13  C 
ATOM     55  C   PRO B 182       1.178  31.674   9.014  1.00122.07 LIG 0.26  C 
ATOM     56  CG  PRO B 183      -0.600  31.792  12.173  1.00127.59 LIG 0.02  C 
ATOM     57  CB  PRO B 183      -1.441  32.555  11.174  1.00124.68 LIG 0.04  C 
ATOM     58 O    PRO B 182       0.859  32.146   7.920  1.00123.88 LIG-0.27  OA
BRANCH 55 59
ATOM     59  CA  PRO B 182       2.242  30.577   9.074  1.00115.83 LIG 0.35  C 
ATOM     60  CB  PRO B 182       3.484  30.979   8.264  1.00111.53 LIG 0.05  C 
ATOM     61  CG  PRO B 182       3.935  29.723   7.582  1.00111.42 LIG 0.04  C 
ATOM     62  CD  PRO B 182       2.683  28.952   7.306  1.00113.66 LIG 0.32  C 
ATOM     63  N   PRO B 182       1.805  29.333   8.427  1.00115.25 LIG 0.32  N 
ENDBRANCH 55 59
ENDBRANCH 50 52
ENDBRANCH 39 48
ENDBRANCH 37 39
ENDBRANCH 1 35
TORSDOF 24
ENDMDL
MODEL 23
USER: ADFR SOLUTION from run 108
USER: SCORE 18.900984 LL:  -3.802 LR: -17.704 RR:   0.000 FEB: -10.544
USER: RMSD 6.013281
USER: SEED 107
USER: STATUS no improvement in best in 7 clusters for 5 generations
USER: GENES 26
USER: genes 0 Translation |==|  0.58548 0.48476 0.48178
USER: genes 1 Rotation |==|  0.40204 0.94363 0.48443 0.70822
USER: genes 2 Torsion [C]-CA--CB-[CG] |==|  0.41275
USER: genes 3 Torsion [CA]-CB--CG-[CD] |==|  0.80973
USER: genes 4 Torsion [CB]-CG--CD-[CE] |==|  0.49675
USER: genes 5 Torsion [CG]-CD--CE-[NZ] |==|  0.56344
USER: genes 6 Torsion [CD]-CE--NZ-[HZ1] |==|  0.93997
USER: genes 7 Torsion [N]-CA--C-[N] |==|  0.10680
USER: genes 8 Torsion [C]-N--CA-[CB] |==|  0.46667
USER: genes 9 Torsion [N]-CA--CB-[CG] |==|  0.74494
USER: genes 10 Torsion [CA]-CB--CG-[CD] |==|  0.63329
USER: genes 11 Torsion [CB]-CG--CD-[NE] |==|  0.14990
USER: genes 12 Torsion [CG]-CD--NE-[CZ] |==|  0.70345
USER: genes 13 Torsion [N]-CA--C-[N] |==|  0.43786
USER: genes 14 Torsion [C]-N--CA-[C] |==|  0.81242
USER: genes 15 Torsion [N]-CA--C-[O] |==|  0.38101
USER: genes 16 Torsion [CB]-CA--N-[C] |==|  0.37610
USER: genes 17 Torsion [N]-C--CA-[N] |==|  0.96435
USER: genes 18 Torsion [C]-CA--CB-[CG] |==|  0.29638
USER: genes 19 Torsion [CA]-CB--CG-[CD] |==|  0.30732
USER: genes 20 Torsion [CB]-CG--CD-[CE] |==|  0.01406
USER: genes 21 Torsion [CG]-CD--CE-[NZ] |==|  0.49720
USER: genes 22 Torsion [CD]-CE--NZ-[HZ3] |==|  0.99636
USER: genes 23 Torsion [C]-CA--N-[C] |==|  0.77855
USER: genes 24 Torsion [N]-C--CA-[N] |==|  0.34153
USER: genes 25 Torsion [N]-C--CA-[CB] |==|  0.80476
ROOT
ATOM      1  CA  LYS B 185       3.834  34.313   6.427  1.00 91.41 LIG 0.18  C 
ENDROOT
BRANCH 1 2
ATOM      2  CB  LYS B 185       5.359  34.328   6.272  1.00 90.53 LIG 0.04  C 
BRANCH 2 3
ATOM      3  CG  LYS B 185       5.893  34.568   4.862  1.00 86.81 LIG 0.00  C 
BRANCH 3 4
ATOM      4  CD  LYS B 185       5.586  33.379   3.944  1.00 79.71 LIG 0.03  C 
BRANCH 4 5
ATOM      5  CE  LYS B 185       6.082  33.594   2.512  1.00 72.24 LIG 0.23  C 
BRANCH 5 6
ATOM      6  NZ  LYS B 185       5.360  32.761   1.505  1.00 67.20 LIG-0.08  N 
ATOM      7 HZ1  LYS B 185       4.986  32.062   1.910  1.00 67.20 LIG 0.27  HD
ATOM      8 HZ3  LYS B 185       5.936  32.474   0.891  1.00 67.20 LIG 0.27  HD
ATOM      9 HZ2  LYS B 185       4.728  33.250   1.114  1.00 67.20 LIG 0.27  HD
ENDBRANCH 5 6
ENDBRANCH 4 5
ENDBRANCH 3 4
ENDBRANCH 2 3
ENDBRANCH 1 2
BRANCH 1 10
ATOM     10  C   LYS B 185       3.440  33.362   7.553  1.00 87.67 LIG 0.24  C 
ATOM     11 O    LYS B 185       4.228  32.493   7.942  1.00 75.85 LIG-0.27  OA
ATOM     12  N   ARG B 186       2.216  33.522   8.050  1.00 93.18 LIG-0.35  N 
ATOM     13 H    ARG B 186       1.698  34.164   7.810  1.00 93.18 LIG 0.16  HD
BRANCH 12 14
ATOM     14  CA  ARG B 186       1.616  32.640   9.048  1.00 93.88 LIG 0.18  C 
BRANCH 14 15
ATOM     15  CB  ARG B 186       0.340  33.302   9.591  1.00 94.11 LIG 0.04  C 
BRANCH 15 16
ATOM     16  CG  ARG B 186       0.590  34.149  10.832  1.00 91.13 LIG 0.02  C 
BRANCH 16 17
ATOM     17  CD  ARG B 186      -0.400  33.863  11.949  1.00 90.43 LIG 0.14  C 
BRANCH 17 18
ATOM     18  NE  ARG B 186      -0.435  32.438  12.272  1.00 88.65 LIG-0.23  N 
ATOM     19 HE   ARG B 186       0.233  32.104  12.699  1.00 88.65 LIG 0.18  HD
ATOM     20  CZ  ARG B 186      -1.436  31.624  11.945  1.00 77.61 LIG 0.67  C 
ATOM     21  NH2 ARG B 186      -1.391  30.339  12.270  1.00 64.46 LIG-0.23  N 
ATOM     22  NH1 ARG B 186      -2.488  32.100  11.293  1.00 71.89 LIG-0.23  N 
ATOM     23 2HH2 ARG B 186      -2.041  29.819  12.056  1.00 64.46 LIG 0.17  HD
ATOM     24 1HH2 ARG B 186      -0.711  30.027  12.695  1.00 64.46 LIG 0.17  HD
ATOM     25 1HH1 ARG B 186      -2.522  32.933  11.083  1.00 71.89 LIG 0.17  HD
ATOM     26 2HH1 ARG B 186      -3.135  31.575  11.081  1.00 71.89 LIG 0.17  HD
ENDBRANCH 17 18
ENDBRANCH 16 17
ENDBRANCH 15 16
ENDBRANCH 14 15
BRANCH 14 27
ATOM     27  C   ARG B 186       1.349  31.274   8.378  1.00100.48 LIG 0.24  C 
ATOM     28  N   ALA B 187       1.230  30.161   9.116  1.00104.89 LIG-0.35  N 
ATOM     29 H    ALA B 187       1.087  29.396   8.752  1.00104.89 LIG 0.16  HD
ATOM     30 O    ARG B 186       1.268  31.230   7.149  1.00101.56 LIG-0.27  OA
BRANCH 28 31
ATOM     31  CA  ALA B 187       1.318  30.068  10.575  1.00100.92 LIG 0.16  C 
ATOM     32  CB  ALA B 187       0.885  28.672  11.049  1.00 98.55 LIG 0.04  C 
BRANCH 31 33
ATOM     33  C   ALA B 187       2.732  30.370  11.066  1.00 96.24 LIG 0.22  C 
ATOM     34 O    ALA B 187       2.914  31.080  12.057  1.00 95.92 LIG-0.29  OA
ENDBRANCH 31 33
ENDBRANCH 28 31
ENDBRANCH 14 27
ENDBRANCH 12 14
ENDBRANCH 1 10
BRANCH 1 35
ATOM     35  N   LYS B 185       3.301  35.648   6.696  1.00 94.70 LIG-0.35  N 
ATOM     36 H    LYS B 185       3.751  36.087   7.283  1.00 94.70 LIG 0.16  HD
ATOM     37  C   LYS B 184       2.217  36.142   6.088  1.00 95.69 LIG 0.24  C 
ATOM     38 O    LYS B 184       1.532  35.487   5.296  1.00 96.36 LIG-0.27  OA
BRANCH 37 39
ATOM     39  CA  LYS B 184       1.865  37.590   6.418  1.00 89.09 LIG 0.18  C 
BRANCH 39 40
ATOM     40  CB  LYS B 184       2.129  38.497   5.211  1.00 73.03 LIG 0.04  C 
BRANCH 40 41
ATOM     41  CG  LYS B 184       0.855  38.977   4.504  1.00 60.77 LIG 0.00  C 
BRANCH 41 42
ATOM     42  CD  LYS B 184       0.625  40.465   4.705  1.00 63.88 LIG 0.03  C 
BRANCH 42 43
ATOM     43  CE  LYS B 184       1.773  41.141   5.452  1.00 60.38 LIG 0.23  C 
BRANCH 43 44
ATOM     44  NZ  LYS B 184       1.627  42.624   5.669  1.00 53.06 LIG-0.08  N 
ATOM     45 HZ3  LYS B 184       0.868  42.905   5.298  1.00 53.06 LIG 0.27  HD
ATOM     46 HZ2  LYS B 184       2.314  43.048   5.294  1.00 53.06 LIG 0.27  HD
ATOM     47 HZ1  LYS B 184       1.612  42.796   6.542  1.00 53.06 LIG 0.27  HD
ENDBRANCH 43 44
ENDBRANCH 42 43
ENDBRANCH 41 42
ENDBRANCH 40 41
ENDBRANCH 39 40
BRANCH 39 48
ATOM     48  N   LYS B 184       2.622  38.055   7.573  1.00 95.16 LIG-0.35  N 
ATOM     49 H    LYS B 184       3.308  38.536   7.377  1.00 95.16 LIG 0.16  HD
ATOM     50  C   PRO B 183       2.262  37.746   8.818  1.00102.83 LIG 0.24  C 
ATOM     51 O    PRO B 183       1.271  37.052   9.069  1.00 96.65 LIG-0.27  OA
BRANCH 50 52
ATOM     52  CA  PRO B 183       3.152  38.285   9.935  1.00119.60 LIG 0.18  C 
ATOM     53  N   PRO B 183       2.440  39.113  10.919  1.00125.08 LIG-0.34  N 
ATOM     54  CD  PRO B 183       1.978  38.316  12.072  1.00128.64 LIG 0.13  C 
ATOM     55  C   PRO B 182       2.537  40.453  10.870  1.00122.07 LIG 0.26  C 
ATOM     56  CG  PRO B 183       2.670  36.972  11.878  1.00127.59 LIG 0.02  C 
ATOM     57  CB  PRO B 183       3.715  37.151  10.799  1.00124.68 LIG 0.04  C 
ATOM     58 O    PRO B 182       3.218  41.050  10.033  1.00123.88 LIG-0.27  OA
BRANCH 55 59
ATOM     59  CA  PRO B 182       1.772  41.255  11.924  1.00115.83 LIG 0.35  C 
ATOM     60  CB  PRO B 182       0.258  41.176  11.677  1.00111.53 LIG 0.05  C 
ATOM     61  CG  PRO B 182      -0.263  42.549  11.977  1.00111.42 LIG 0.04  C 
ATOM     62  CD  PRO B 182       0.836  43.485  11.584  1.00113.66 LIG 0.32  C 
ATOM     63  N   PRO B 182       2.053  42.695  11.847  1.00115.25 LIG 0.32  N 
ENDBRANCH 55 59
ENDBRANCH 50 52
ENDBRANCH 39 48
ENDBRANCH 37 39
ENDBRANCH 1 35
TORSDOF 24
ENDMDL
MODEL 24
USER: ADFR SOLUTION from run 168
USER: SCORE 19.605265 LL:  -3.489 LR: -17.667 RR:   0.000 FEB: -10.508
USER: RMSD 9.618067
USER: SEED 167
USER: STATUS searching
USER: GENES 26
USER: genes 0 Translation |==|  0.42181 0.58302 0.66142
USER: genes 1 Rotation |==|  0.44806 0.52412 0.98302 0.61583
USER: genes 2 Torsion [C]-CA--CB-[CG] |==|  0.78574
USER: genes 3 Torsion [CA]-CB--CG-[CD] |==|  0.58338
USER: genes 4 Torsion [CB]-CG--CD-[CE] |==|  0.87126
USER: genes 5 Torsion [CG]-CD--CE-[NZ] |==|  0.22685
USER: genes 6 Torsion [CD]-CE--NZ-[HZ1] |==|  0.33749
USER: genes 7 Torsion [N]-CA--C-[N] |==|  0.11112
USER: genes 8 Torsion [C]-N--CA-[CB] |==|  0.20927
USER: genes 9 Torsion [N]-CA--CB-[CG] |==|  0.66261
USER: genes 10 Torsion [CA]-CB--CG-[CD] |==|  0.73852
USER: genes 11 Torsion [CB]-CG--CD-[NE] |==|  0.88346
USER: genes 12 Torsion [CG]-CD--NE-[CZ] |==|  0.63799
USER: genes 13 Torsion [N]-CA--C-[N] |==|  0.33013
USER: genes 14 Torsion [C]-N--CA-[C] |==|  0.57713
USER: genes 15 Torsion [N]-CA--C-[O] |==|  0.72725
USER: genes 16 Torsion [CB]-CA--N-[C] |==|  0.14663
USER: genes 17 Torsion [N]-C--CA-[N] |==|  0.11739
USER: genes 18 Torsion [C]-CA--CB-[CG] |==|  0.71124
USER: genes 19 Torsion [CA]-CB--CG-[CD] |==|  0.54644
USER: genes 20 Torsion [CB]-CG--CD-[CE] |==|  0.22379
USER: genes 21 Torsion [CG]-CD--CE-[NZ] |==|  0.71681
USER: genes 22 Torsion [CD]-CE--NZ-[HZ3] |==|  0.79666
USER: genes 23 Torsion [C]-CA--N-[C] |==|  0.62624
USER: genes 24 Torsion [N]-C--CA-[N] |==|  0.58023
USER: genes 25 Torsion [N]-C--CA-[CB] |==|  0.62898
ROOT
ATOM      1  CA  LYS B 185       1.010  36.967  10.065  1.00 91.41 LIG 0.18  C 
ENDROOT
BRANCH 1 2
ATOM      2  CB  LYS B 185       1.663  37.199  11.432  1.00 90.53 LIG 0.04  C 
BRANCH 2 3
ATOM      3  CG  LYS B 185       2.849  36.301  11.777  1.00 86.81 LIG 0.00  C 
BRANCH 3 4
ATOM      4  CD  LYS B 185       2.946  36.069  13.289  1.00 79.71 LIG 0.03  C 
BRANCH 4 5
ATOM      5  CE  LYS B 185       2.792  37.360  14.097  1.00 72.24 LIG 0.23  C 
BRANCH 5 6
ATOM      6  NZ  LYS B 185       1.370  37.767  14.296  1.00 67.20 LIG-0.08  N 
ATOM      7 HZ1  LYS B 185       1.195  37.818  15.168  1.00 67.20 LIG 0.27  HD
ATOM      8 HZ3  LYS B 185       0.834  37.164  13.921  1.00 67.20 LIG 0.27  HD
ATOM      9 HZ2  LYS B 185       1.233  38.562  13.920  1.00 67.20 LIG 0.27  HD
ENDBRANCH 5 6
ENDBRANCH 4 5
ENDBRANCH 3 4
ENDBRANCH 2 3
ENDBRANCH 1 2
BRANCH 1 10
ATOM     10  C   LYS B 185       1.873  37.588   8.971  1.00 87.67 LIG 0.24  C 
ATOM     11 O    LYS B 185       2.729  38.432   9.253  1.00 75.85 LIG-0.27  OA
ATOM     12  N   ARG B 186       1.624  37.179   7.729  1.00 93.18 LIG-0.35  N 
ATOM     13 H    ARG B 186       1.065  36.551   7.551  1.00 93.18 LIG 0.16  HD
BRANCH 12 14
ATOM     14  CA  ARG B 186       2.262  37.738   6.540  1.00 93.88 LIG 0.18  C 
BRANCH 14 15
ATOM     15  CB  ARG B 186       3.702  37.208   6.456  1.00 94.11 LIG 0.04  C 
BRANCH 15 16
ATOM     16  CG  ARG B 186       4.747  38.316   6.450  1.00 91.13 LIG 0.02  C 
BRANCH 16 17
ATOM     17  CD  ARG B 186       5.162  38.728   5.048  1.00 90.43 LIG 0.14  C 
BRANCH 17 18
ATOM     18  NE  ARG B 186       5.331  37.560   4.184  1.00 88.65 LIG-0.23  N 
ATOM     19 HE   ARG B 186       4.700  36.977   4.164  1.00 88.65 LIG 0.18  HD
ATOM     20  CZ  ARG B 186       6.404  37.346   3.426  1.00 77.61 LIG 0.67  C 
ATOM     21  NH2 ARG B 186       6.485  36.258   2.671  1.00 64.46 LIG-0.23  N 
ATOM     22  NH1 ARG B 186       7.396  38.224   3.420  1.00 71.89 LIG-0.23  N 
ATOM     23 2HH2 ARG B 186       7.181  36.124   2.183  1.00 64.46 LIG 0.17  HD
ATOM     24 1HH2 ARG B 186       5.843  35.686   2.669  1.00 64.46 LIG 0.17  HD
ATOM     25 1HH1 ARG B 186       7.346  38.932   3.906  1.00 71.89 LIG 0.17  HD
ATOM     26 2HH1 ARG B 186       8.090  38.085   2.931  1.00 71.89 LIG 0.17  HD
ENDBRANCH 17 18
ENDBRANCH 16 17
ENDBRANCH 15 16
ENDBRANCH 14 15
BRANCH 14 27
ATOM     27  C   ARG B 186       1.405  37.354   5.314  1.00100.48 LIG 0.24  C 
ATOM     28  N   ALA B 187       0.843  38.300   4.548  1.00104.89 LIG-0.35  N 
ATOM     29 H    ALA B 187       0.360  38.095   3.867  1.00104.89 LIG 0.16  HD
ATOM     30 O    ARG B 186       1.234  36.157   5.069  1.00101.56 LIG-0.27  OA
BRANCH 28 31
ATOM     31  CA  ALA B 187       0.951  39.748   4.731  1.00100.92 LIG 0.16  C 
ATOM     32  CB  ALA B 187       2.226  40.278   4.057  1.00 98.55 LIG 0.04  C 
BRANCH 31 33
ATOM     33  C   ALA B 187      -0.272  40.472   4.174  1.00 96.24 LIG 0.22  C 
ATOM     34 O    ALA B 187      -0.243  40.984   3.053  1.00 95.92 LIG-0.29  OA
ENDBRANCH 31 33
ENDBRANCH 28 31
ENDBRANCH 14 27
ENDBRANCH 12 14
ENDBRANCH 1 10
BRANCH 1 35
ATOM     35  N   LYS B 185       0.810  35.545   9.792  1.00 94.70 LIG-0.35  N 
ATOM     36 H    LYS B 185       1.138  35.289   9.039  1.00 94.70 LIG 0.16  HD
ATOM     37  C   LYS B 184       0.177  34.718  10.632  1.00 95.69 LIG 0.24  C 
ATOM     38 O    LYS B 184      -0.353  35.099  11.679  1.00 96.36 LIG-0.27  OA
BRANCH 37 39
ATOM     39  CA  LYS B 184       0.150  33.246  10.229  1.00 89.09 LIG 0.18  C 
BRANCH 39 40
ATOM     40  CB  LYS B 184      -0.254  32.369  11.420  1.00 73.03 LIG 0.04  C 
BRANCH 40 41
ATOM     41  CG  LYS B 184       0.918  31.617  12.063  1.00 60.77 LIG 0.00  C 
BRANCH 41 42
ATOM     42  CD  LYS B 184       0.439  30.477  12.945  1.00 63.88 LIG 0.03  C 
BRANCH 42 43
ATOM     43  CE  LYS B 184       0.080  29.226  12.146  1.00 60.38 LIG 0.23  C 
BRANCH 43 44
ATOM     44  NZ  LYS B 184      -1.391  28.992  11.924  1.00 53.06 LIG-0.08  N 
ATOM     45 HZ3  LYS B 184      -1.767  28.724  12.685  1.00 53.06 LIG 0.27  HD
ATOM     46 HZ2  LYS B 184      -1.502  28.366  11.302  1.00 53.06 LIG 0.27  HD
ATOM     47 HZ1  LYS B 184      -1.775  29.749  11.655  1.00 53.06 LIG 0.27  HD
ENDBRANCH 43 44
ENDBRANCH 42 43
ENDBRANCH 41 42
ENDBRANCH 40 41
ENDBRANCH 39 40
BRANCH 39 48
ATOM     48  N   LYS B 184       1.447  32.828   9.713  1.00 95.16 LIG-0.35  N 
ATOM     49 H    LYS B 184       2.118  33.090  10.184  1.00 95.16 LIG 0.16  HD
ATOM     50  C   PRO B 183       1.559  32.102   8.602  1.00102.83 LIG 0.24  C 
ATOM     51 O    PRO B 183       0.577  31.738   7.945  1.00 96.65 LIG-0.27  OA
BRANCH 50 52
ATOM     52  CA  PRO B 183       2.977  31.745   8.164  1.00119.60 LIG 0.18  C 
ATOM     53  N   PRO B 183       3.127  31.569   6.712  1.00125.08 LIG-0.34  N 
ATOM     54  CD  PRO B 183       3.554  32.818   6.051  1.00128.64 LIG 0.13  C 
ATOM     55  C   PRO B 182       3.184  30.334   6.184  1.00122.07 LIG 0.26  C 
ATOM     56  CG  PRO B 183       3.914  33.733   7.216  1.00127.59 LIG 0.02  C 
ATOM     57  CB  PRO B 183       3.960  32.882   8.465  1.00124.68 LIG 0.04  C 
ATOM     58 O    PRO B 182       3.131  29.306   6.863  1.00123.88 LIG-0.27  OA
BRANCH 55 59
ATOM     59  CA  PRO B 182       3.344  30.221   4.666  1.00115.83 LIG 0.35  C 
ATOM     60  CB  PRO B 182       2.359  29.193   4.091  1.00111.53 LIG 0.05  C 
ATOM     61  CG  PRO B 182       3.126  28.465   3.028  1.00111.42 LIG 0.04  C 
ATOM     62  CD  PRO B 182       4.541  28.434   3.511  1.00113.66 LIG 0.32  C 
ATOM     63  N   PRO B 182       4.656  29.688   4.277  1.00115.25 LIG 0.32  N 
ENDBRANCH 55 59
ENDBRANCH 50 52
ENDBRANCH 39 48
ENDBRANCH 37 39
ENDBRANCH 1 35
TORSDOF 24
ENDMDL
MODEL 25
USER: ADFR SOLUTION from run 101
USER: SCORE 18.880825 LL:  -2.648 LR: -17.638 RR:   0.000 FEB: -10.479
USER: RMSD 10.752876
USER: SEED 100
USER: STATUS no improvement in best in 8 clusters for 5 generations
USER: GENES 26
USER: genes 0 Translation |==|  0.48609 0.58436 0.43006
USER: genes 1 Rotation |==|  0.90830 0.39315 0.23802 0.55690
USER: genes 2 Torsion [C]-CA--CB-[CG] |==|  0.97603
USER: genes 3 Torsion [CA]-CB--CG-[CD] |==|  0.25465
USER: genes 4 Torsion [CB]-CG--CD-[CE] |==|  0.26253
USER: genes 5 Torsion [CG]-CD--CE-[NZ] |==|  0.84344
USER: genes 6 Torsion [CD]-CE--NZ-[HZ1] |==|  0.27547
USER: genes 7 Torsion [N]-CA--C-[N] |==|  0.39835
USER: genes 8 Torsion [C]-N--CA-[CB] |==|  0.76852
USER: genes 9 Torsion [N]-CA--CB-[CG] |==|  0.51662
USER: genes 10 Torsion [CA]-CB--CG-[CD] |==|  0.61246
USER: genes 11 Torsion [CB]-CG--CD-[NE] |==|  0.85925
USER: genes 12 Torsion [CG]-CD--NE-[CZ] |==|  0.29008
USER: genes 13 Torsion [N]-CA--C-[N] |==|  0.24247
USER: genes 14 Torsion [C]-N--CA-[C] |==|  0.15731
USER: genes 15 Torsion [N]-CA--C-[O] |==|  0.73990
USER: genes 16 Torsion [CB]-CA--N-[C] |==|  0.45958
USER: genes 17 Torsion [N]-C--CA-[N] |==|  0.43303
USER: genes 18 Torsion [C]-CA--CB-[CG] |==|  0.43761
USER: genes 19 Torsion [CA]-CB--CG-[CD] |==|  0.92502
USER: genes 20 Torsion [CB]-CG--CD-[CE] |==|  0.69484
USER: genes 21 Torsion [CG]-CD--CE-[NZ] |==|  0.45812
USER: genes 22 Torsion [CD]-CE--NZ-[HZ3] |==|  0.29663
USER: genes 23 Torsion [C]-CA--N-[C] |==|  0.66622
USER: genes 24 Torsion [N]-C--CA-[N] |==|  0.70531
USER: genes 25 Torsion [N]-C--CA-[CB] |==|  0.16525
ROOT
ATOM      1  CA  LYS B 185       2.119  37.003   5.380  1.00 91.41 LIG 0.18  C 
ENDROOT
BRANCH 1 2
ATOM      2  CB  LYS B 185       0.815  37.803   5.291  1.00 90.53 LIG 0.04  C 
BRANCH 2 3
ATOM      3  CG  LYS B 185       0.898  39.279   5.674  1.00 86.81 LIG 0.00  C 
BRANCH 3 4
ATOM      4  CD  LYS B 185       1.186  40.153   4.447  1.00 79.71 LIG 0.03  C 
BRANCH 4 5
ATOM      5  CE  LYS B 185      -0.087  40.718   3.812  1.00 72.24 LIG 0.23  C 
BRANCH 5 6
ATOM      6  NZ  LYS B 185      -1.070  39.665   3.421  1.00 67.20 LIG-0.08  N 
ATOM      7 HZ1  LYS B 185      -1.701  39.600   4.046  1.00 67.20 LIG 0.27  HD
ATOM      8 HZ3  LYS B 185      -0.652  38.884   3.340  1.00 67.20 LIG 0.27  HD
ATOM      9 HZ2  LYS B 185      -1.446  39.883   2.644  1.00 67.20 LIG 0.27  HD
ENDBRANCH 5 6
ENDBRANCH 4 5
ENDBRANCH 3 4
ENDBRANCH 2 3
ENDBRANCH 1 2
BRANCH 1 10
ATOM     10  C   LYS B 185       3.286  37.949   5.643  1.00 87.67 LIG 0.24  C 
ATOM     11 O    LYS B 185       3.572  38.284   6.797  1.00 75.85 LIG-0.27  OA
ATOM     12  N   ARG B 186       3.934  38.388   4.566  1.00 93.18 LIG-0.35  N 
ATOM     13 H    ARG B 186       3.761  38.105   3.773  1.00 93.18 LIG 0.16  HD
BRANCH 12 14
ATOM     14  CA  ARG B 186       5.001  39.386   4.603  1.00 93.88 LIG 0.18  C 
BRANCH 14 15
ATOM     15  CB  ARG B 186       4.368  40.786   4.623  1.00 94.11 LIG 0.04  C 
BRANCH 15 16
ATOM     16  CG  ARG B 186       5.394  41.906   4.516  1.00 91.13 LIG 0.02  C 
BRANCH 16 17
ATOM     17  CD  ARG B 186       5.081  43.081   5.428  1.00 90.43 LIG 0.14  C 
BRANCH 17 18
ATOM     18  NE  ARG B 186       3.699  43.526   5.259  1.00 88.65 LIG-0.23  N 
ATOM     19 HE   ARG B 186       3.503  43.980   4.555  1.00 88.65 LIG 0.18  HD
ATOM     20  CZ  ARG B 186       2.723  43.271   6.128  1.00 77.61 LIG 0.67  C 
ATOM     21  NH2 ARG B 186       1.493  43.714   5.905  1.00 64.46 LIG-0.23  N 
ATOM     22  NH1 ARG B 186       2.979  42.567   7.221  1.00 71.89 LIG-0.23  N 
ATOM     23 2HH2 ARG B 186       0.867  43.546   6.470  1.00 64.46 LIG 0.17  HD
ATOM     24 1HH2 ARG B 186       1.321  44.169   5.196  1.00 64.46 LIG 0.17  HD
ATOM     25 1HH1 ARG B 186       3.775  42.275   7.367  1.00 71.89 LIG 0.17  HD
ATOM     26 2HH1 ARG B 186       2.349  42.402   7.783  1.00 71.89 LIG 0.17  HD
ENDBRANCH 17 18
ENDBRANCH 16 17
ENDBRANCH 15 16
ENDBRANCH 14 15
BRANCH 14 27
ATOM     27  C   ARG B 186       5.876  39.102   5.843  1.00100.48 LIG 0.24  C 
ATOM     28  N   ALA B 187       6.902  38.241   5.774  1.00104.89 LIG-0.35  N 
ATOM     29 H    ALA B 187       7.392  38.072   6.460  1.00104.89 LIG 0.16  HD
ATOM     30 O    ARG B 186       5.598  39.670   6.901  1.00101.56 LIG-0.27  OA
BRANCH 28 31
ATOM     31  CA  ALA B 187       7.334  37.491   4.593  1.00100.92 LIG 0.16  C 
ATOM     32  CB  ALA B 187       6.254  36.481   4.177  1.00 98.55 LIG 0.04  C 
BRANCH 31 33
ATOM     33  C   ALA B 187       7.650  38.425   3.427  1.00 96.24 LIG 0.22  C 
ATOM     34 O    ALA B 187       6.792  38.691   2.584  1.00 95.92 LIG-0.29  OA
ENDBRANCH 31 33
ENDBRANCH 28 31
ENDBRANCH 14 27
ENDBRANCH 12 14
ENDBRANCH 1 10
BRANCH 1 35
ATOM     35  N   LYS B 185       2.061  35.983   6.425  1.00 94.70 LIG-0.35  N 
ATOM     36 H    LYS B 185       1.407  36.088   6.974  1.00 94.70 LIG 0.16  HD
ATOM     37  C   LYS B 184       2.941  34.980   6.522  1.00 95.69 LIG 0.24  C 
ATOM     38 O    LYS B 184       3.919  34.868   5.776  1.00 96.36 LIG-0.27  OA
BRANCH 37 39
ATOM     39  CA  LYS B 184       2.667  33.951   7.616  1.00 89.09 LIG 0.18  C 
BRANCH 39 40
ATOM     40  CB  LYS B 184       3.171  34.458   8.971  1.00 73.03 LIG 0.04  C 
BRANCH 40 41
ATOM     41  CG  LYS B 184       2.489  33.795  10.175  1.00 60.77 LIG 0.00  C 
BRANCH 41 42
ATOM     42  CD  LYS B 184       1.090  33.312   9.834  1.00 63.88 LIG 0.03  C 
BRANCH 42 43
ATOM     43  CE  LYS B 184       0.000  34.137  10.516  1.00 60.38 LIG 0.23  C 
BRANCH 43 44
ATOM     44  NZ  LYS B 184      -1.391  33.962   9.968  1.00 53.06 LIG-0.08  N 
ATOM     45 HZ3  LYS B 184      -1.878  33.487  10.541  1.00 53.06 LIG 0.27  HD
ATOM     46 HZ2  LYS B 184      -1.352  33.534   9.188  1.00 53.06 LIG 0.27  HD
ATOM     47 HZ1  LYS B 184      -1.767  34.760   9.850  1.00 53.06 LIG 0.27  HD
ENDBRANCH 43 44
ENDBRANCH 42 43
ENDBRANCH 41 42
ENDBRANCH 40 41
ENDBRANCH 39 40
BRANCH 39 48
ATOM     48  N   LYS B 184       3.291  32.675   7.292  1.00 95.16 LIG-0.35  N 
ATOM     49 H    LYS B 184       4.146  32.710   7.201  1.00 95.16 LIG 0.16  HD
ATOM     50  C   PRO B 183       2.575  31.559   7.153  1.00102.83 LIG 0.24  C 
ATOM     51 O    PRO B 183       1.347  31.537   7.290  1.00 96.65 LIG-0.27  OA
BRANCH 50 52
ATOM     52  CA  PRO B 183       3.352  30.294   6.798  1.00119.60 LIG 0.18  C 
ATOM     53  N   PRO B 183       3.184  29.860   5.403  1.00125.08 LIG-0.34  N 
ATOM     54  CD  PRO B 183       4.243  30.401   4.531  1.00128.64 LIG 0.13  C 
ATOM     55  C   PRO B 182       2.358  28.841   5.110  1.00122.07 LIG 0.26  C 
ATOM     56  CG  PRO B 183       5.245  30.999   5.512  1.00127.59 LIG 0.02  C 
ATOM     57  CB  PRO B 183       4.866  30.520   6.896  1.00124.68 LIG 0.04  C 
ATOM     58 O    PRO B 182       1.725  28.217   5.964  1.00123.88 LIG-0.27  OA
BRANCH 55 59
ATOM     59  CA  PRO B 182       2.230  28.437   3.639  1.00115.83 LIG 0.35  C 
ATOM     60  CB  PRO B 182       3.594  28.020   3.068  1.00111.53 LIG 0.05  C 
ATOM     61  CG  PRO B 182       3.626  28.577   1.677  1.00111.42 LIG 0.04  C 
ATOM     62  CD  PRO B 182       2.838  29.847   1.741  1.00113.66 LIG 0.32  C 
ATOM     63  N   PRO B 182       1.833  29.561   2.781  1.00115.25 LIG 0.32  N 
ENDBRANCH 55 59
ENDBRANCH 50 52
ENDBRANCH 39 48
ENDBRANCH 37 39
ENDBRANCH 1 35
TORSDOF 24
ENDMDL
MODEL 26
USER: ADFR SOLUTION from run 156
USER: SCORE 18.361199 LL:  -3.679 LR: -17.596 RR:   0.000 FEB: -10.436
USER: RMSD 10.593208
USER: SEED 155
USER: STATUS no improvement in best in 2 clusters for 5 generations
USER: GENES 26
USER: genes 0 Translation |==|  0.48208 0.42653 0.57109
USER: genes 1 Rotation |==|  0.30939 0.35928 0.93809 0.54405
USER: genes 2 Torsion [C]-CA--CB-[CG] |==|  0.40193
USER: genes 3 Torsion [CA]-CB--CG-[CD] |==|  0.45183
USER: genes 4 Torsion [CB]-CG--CD-[CE] |==|  0.68560
USER: genes 5 Torsion [CG]-CD--CE-[NZ] |==|  0.66555
USER: genes 6 Torsion [CD]-CE--NZ-[HZ1] |==|  0.05845
USER: genes 7 Torsion [N]-CA--C-[N] |==|  0.35590
USER: genes 8 Torsion [C]-N--CA-[CB] |==|  0.28711
USER: genes 9 Torsion [N]-CA--CB-[CG] |==|  0.07573
USER: genes 10 Torsion [CA]-CB--CG-[CD] |==|  0.24589
USER: genes 11 Torsion [CB]-CG--CD-[NE] |==|  0.22287
USER: genes 12 Torsion [CG]-CD--NE-[CZ] |==|  0.57519
USER: genes 13 Torsion [N]-CA--C-[N] |==|  0.19778
USER: genes 14 Torsion [C]-N--CA-[C] |==|  0.71209
USER: genes 15 Torsion [N]-CA--C-[O] |==|  0.96659
USER: genes 16 Torsion [CB]-CA--N-[C] |==|  0.26431
USER: genes 17 Torsion [N]-C--CA-[N] |==|  0.34450
USER: genes 18 Torsion [C]-CA--CB-[CG] |==|  0.37082
USER: genes 19 Torsion [CA]-CB--CG-[CD] |==|  0.37845
USER: genes 20 Torsion [CB]-CG--CD-[CE] |==|  0.14342
USER: genes 21 Torsion [CG]-CD--CE-[NZ] |==|  0.26443
USER: genes 22 Torsion [CD]-CE--NZ-[HZ3] |==|  0.03551
USER: genes 23 Torsion [C]-CA--N-[C] |==|  0.82570
USER: genes 24 Torsion [N]-C--CA-[N] |==|  0.81539
USER: genes 25 Torsion [N]-C--CA-[CB] |==|  0.51202
ROOT
ATOM      1  CA  LYS B 185       2.050  32.741   8.236  1.00 91.41 LIG 0.18  C 
ENDROOT
BRANCH 1 2
ATOM      2  CB  LYS B 185       1.663  32.291   9.649  1.00 90.53 LIG 0.04  C 
BRANCH 2 3
ATOM      3  CG  LYS B 185       0.250  31.738   9.820  1.00 86.81 LIG 0.00  C 
BRANCH 3 4
ATOM      4  CD  LYS B 185       0.122  30.943  11.125  1.00 79.71 LIG 0.03  C 
BRANCH 4 5
ATOM      5  CE  LYS B 185      -0.114  29.449  10.885  1.00 72.24 LIG 0.23  C 
BRANCH 5 6
ATOM      6  NZ  LYS B 185      -1.391  28.950  11.475  1.00 67.20 LIG-0.08  N 
ATOM      7 HZ1  LYS B 185      -1.947  29.634  11.603  1.00 67.20 LIG 0.27  HD
ATOM      8 HZ3  LYS B 185      -1.223  28.555  12.255  1.00 67.20 LIG 0.27  HD
ATOM      9 HZ2  LYS B 185      -1.765  28.364  10.920  1.00 67.20 LIG 0.27  HD
ENDBRANCH 5 6
ENDBRANCH 4 5
ENDBRANCH 3 4
ENDBRANCH 2 3
ENDBRANCH 1 2
BRANCH 1 10
ATOM     10  C   LYS B 185       2.965  33.959   8.317  1.00 87.67 LIG 0.24  C 
ATOM     11 O    LYS B 185       4.123  33.845   8.733  1.00 75.85 LIG-0.27  OA
ATOM     12  N   ARG B 186       2.430  35.117   7.938  1.00 93.18 LIG-0.35  N 
ATOM     13 H    ARG B 186       1.642  35.175   7.598  1.00 93.18 LIG 0.16  HD
BRANCH 12 14
ATOM     14  CA  ARG B 186       3.105  36.407   8.050  1.00 93.88 LIG 0.18  C 
BRANCH 14 15
ATOM     15  CB  ARG B 186       3.610  36.824   6.660  1.00 94.11 LIG 0.04  C 
BRANCH 15 16
ATOM     16  CG  ARG B 186       2.781  36.240   5.524  1.00 91.13 LIG 0.02  C 
BRANCH 16 17
ATOM     17  CD  ARG B 186       1.602  37.120   5.142  1.00 90.43 LIG 0.14  C 
BRANCH 17 18
ATOM     18  NE  ARG B 186       2.025  38.222   4.279  1.00 88.65 LIG-0.23  N 
ATOM     19 HE   ARG B 186       2.722  38.107   3.789  1.00 88.65 LIG 0.18  HD
ATOM     20  CZ  ARG B 186       1.395  39.392   4.204  1.00 77.61 LIG 0.67  C 
ATOM     21  NH2 ARG B 186       1.844  40.345   3.398  1.00 64.46 LIG-0.23  N 
ATOM     22  NH1 ARG B 186       0.311  39.607   4.935  1.00 71.89 LIG-0.23  N 
ATOM     23 2HH2 ARG B 186       1.433  41.100   3.354  1.00 64.46 LIG 0.17  HD
ATOM     24 1HH2 ARG B 186       2.545  40.209   2.920  1.00 64.46 LIG 0.17  HD
ATOM     25 1HH1 ARG B 186       0.015  38.991   5.457  1.00 71.89 LIG 0.17  HD
ATOM     26 2HH1 ARG B 186      -0.097  40.364   4.887  1.00 71.89 LIG 0.17  HD
ENDBRANCH 17 18
ENDBRANCH 16 17
ENDBRANCH 15 16
ENDBRANCH 14 15
BRANCH 14 27
ATOM     27  C   ARG B 186       2.107  37.416   8.658  1.00100.48 LIG 0.24  C 
ATOM     28  N   ALA B 187       1.747  37.332   9.947  1.00104.89 LIG-0.35  N 
ATOM     29 H    ALA B 187       1.188  37.886  10.293  1.00104.89 LIG 0.16  HD
ATOM     30 O    ARG B 186       1.636  38.289   7.925  1.00101.56 LIG-0.27  OA
BRANCH 28 31
ATOM     31  CA  ALA B 187       2.216  36.344  10.920  1.00100.92 LIG 0.16  C 
ATOM     32  CB  ALA B 187       2.598  37.033  12.239  1.00 98.55 LIG 0.04  C 
BRANCH 31 33
ATOM     33  C   ALA B 187       1.158  35.273  11.179  1.00 96.24 LIG 0.22  C 
ATOM     34 O    ALA B 187       0.003  35.422  10.778  1.00 95.92 LIG-0.29  OA
ENDBRANCH 31 33
ENDBRANCH 28 31
ENDBRANCH 14 27
ENDBRANCH 12 14
ENDBRANCH 1 10
BRANCH 1 35
ATOM     35  N   LYS B 185       2.708  31.674   7.485  1.00 94.70 LIG-0.35  N 
ATOM     36 H    LYS B 185       3.554  31.620   7.632  1.00 94.70 LIG 0.16  HD
ATOM     37  C   LYS B 184       2.059  30.855   6.650  1.00 95.69 LIG 0.24  C 
ATOM     38 O    LYS B 184       0.859  30.976   6.387  1.00 96.36 LIG-0.27  OA
BRANCH 37 39
ATOM     39  CA  LYS B 184       2.890  29.734   6.030  1.00 89.09 LIG 0.18  C 
BRANCH 39 40
ATOM     40  CB  LYS B 184       3.030  29.941   4.518  1.00 73.03 LIG 0.04  C 
BRANCH 40 41
ATOM     41  CG  LYS B 184       4.462  29.761   3.996  1.00 60.77 LIG 0.00  C 
BRANCH 41 42
ATOM     42  CD  LYS B 184       4.496  28.949   2.713  1.00 63.88 LIG 0.03  C 
BRANCH 42 43
ATOM     43  CE  LYS B 184       3.539  29.487   1.651  1.00 60.38 LIG 0.23  C 
BRANCH 43 44
ATOM     44  NZ  LYS B 184       4.145  30.425   0.641  1.00 53.06 LIG-0.08  N 
ATOM     45 HZ3  LYS B 184       5.032  30.392   0.700  1.00 53.06 LIG 0.27  HD
ATOM     46 HZ2  LYS B 184       3.869  31.256   0.804  1.00 53.06 LIG 0.27  HD
ATOM     47 HZ1  LYS B 184       3.893  30.184  -0.178  1.00 53.06 LIG 0.27  HD
ENDBRANCH 43 44
ENDBRANCH 42 43
ENDBRANCH 41 42
ENDBRANCH 40 41
ENDBRANCH 39 40
BRANCH 39 48
ATOM     48  N   LYS B 184       2.291  28.435   6.308  1.00 95.16 LIG-0.35  N 
ATOM     49 H    LYS B 184       2.036  28.005   5.608  1.00 95.16 LIG 0.16  HD
ATOM     50  C   PRO B 183       2.162  27.974   7.551  1.00102.83 LIG 0.24  C 
ATOM     51 O    PRO B 183       2.539  28.614   8.539  1.00 96.65 LIG-0.27  OA
BRANCH 50 52
ATOM     52  CA  PRO B 183       1.505  26.605   7.702  1.00119.60 LIG 0.18  C 
ATOM     53  N   PRO B 183       0.087  26.576   7.314  1.00125.08 LIG-0.34  N 
ATOM     54  CD  PRO B 183      -0.086  26.176   5.904  1.00128.64 LIG 0.13  C 
ATOM     55  C   PRO B 182      -0.871  26.590   8.257  1.00122.07 LIG 0.26  C 
ATOM     56  CG  PRO B 183       1.304  25.702   5.494  1.00127.59 LIG 0.02  C 
ATOM     57  CB  PRO B 183       2.130  25.575   6.754  1.00124.68 LIG 0.04  C 
ATOM     58 O    PRO B 182      -0.629  26.612   9.466  1.00123.88 LIG-0.27  OA
BRANCH 55 59
ATOM     59  CA  PRO B 182      -2.326  26.556   7.786  1.00115.83 LIG 0.35  C 
ATOM     60  CB  PRO B 182      -3.287  26.686   8.977  1.00111.53 LIG 0.05  C 
ATOM     61  CG  PRO B 182      -4.417  25.748   8.677  1.00111.42 LIG 0.04  C 
ATOM     62  CD  PRO B 182      -3.799  24.614   7.921  1.00113.66 LIG 0.32  C 
ATOM     63  N   PRO B 182      -2.695  25.264   7.193  1.00115.25 LIG 0.32  N 
ENDBRANCH 55 59
ENDBRANCH 50 52
ENDBRANCH 39 48
ENDBRANCH 37 39
ENDBRANCH 1 35
TORSDOF 24
ENDMDL
MODEL 27
USER: ADFR SOLUTION from run 47
USER: SCORE 20.641362 LL:  -4.278 LR: -17.602 RR:   0.000 FEB: -10.443
USER: RMSD 7.317292
USER: SEED 46
USER: STATUS no improvement in best in 4 clusters for 5 generations
USER: GENES 26
USER: genes 0 Translation |==|  0.51990 0.56707 0.45324
USER: genes 1 Rotation |==|  0.89462 0.31683 0.28836 0.62622
USER: genes 2 Torsion [C]-CA--CB-[CG] |==|  0.07920
USER: genes 3 Torsion [CA]-CB--CG-[CD] |==|  0.59746
USER: genes 4 Torsion [CB]-CG--CD-[CE] |==|  0.20206
USER: genes 5 Torsion [CG]-CD--CE-[NZ] |==|  0.33326
USER: genes 6 Torsion [CD]-CE--NZ-[HZ1] |==|  0.82645
USER: genes 7 Torsion [N]-CA--C-[N] |==|  0.37926
USER: genes 8 Torsion [C]-N--CA-[CB] |==|  0.28333
USER: genes 9 Torsion [N]-CA--CB-[CG] |==|  0.22531
USER: genes 10 Torsion [CA]-CB--CG-[CD] |==|  0.81157
USER: genes 11 Torsion [CB]-CG--CD-[NE] |==|  0.35532
USER: genes 12 Torsion [CG]-CD--NE-[CZ] |==|  0.37379
USER: genes 13 Torsion [N]-CA--C-[N] |==|  0.34059
USER: genes 14 Torsion [C]-N--CA-[C] |==|  0.79058
USER: genes 15 Torsion [N]-CA--C-[O] |==|  0.91526
USER: genes 16 Torsion [CB]-CA--N-[C] |==|  0.84845
USER: genes 17 Torsion [N]-C--CA-[N] |==|  0.38974
USER: genes 18 Torsion [C]-CA--CB-[CG] |==|  0.43986
USER: genes 19 Torsion [CA]-CB--CG-[CD] |==|  0.52359
USER: genes 20 Torsion [CB]-CG--CD-[CE] |==|  0.41354
USER: genes 21 Torsion [CG]-CD--CE-[NZ] |==|  0.57309
USER: genes 22 Torsion [CD]-CE--NZ-[HZ3] |==|  0.50243
USER: genes 23 Torsion [C]-CA--N-[C] |==|  0.81203
USER: genes 24 Torsion [N]-C--CA-[N] |==|  0.94594
USER: genes 25 Torsion [N]-C--CA-[CB] |==|  0.74893
ROOT
ATOM      1  CA  LYS B 185       2.702  36.536   5.849  1.00 91.41 LIG 0.18  C 
ENDROOT
BRANCH 1 2
ATOM      2  CB  LYS B 185       1.511  37.305   5.267  1.00 90.53 LIG 0.04  C 
BRANCH 2 3
ATOM      3  CG  LYS B 185       1.840  38.386   4.240  1.00 86.81 LIG 0.00  C 
BRANCH 3 4
ATOM      4  CD  LYS B 185       0.882  39.577   4.365  1.00 79.71 LIG 0.03  C 
BRANCH 4 5
ATOM      5  CE  LYS B 185       1.153  40.426   5.610  1.00 72.24 LIG 0.23  C 
BRANCH 5 6
ATOM      6  NZ  LYS B 185       1.498  41.843   5.296  1.00 67.20 LIG-0.08  N 
ATOM      7 HZ1  LYS B 185       2.252  41.868   4.822  1.00 67.20 LIG 0.27  HD
ATOM      8 HZ3  LYS B 185       1.610  42.296   6.054  1.00 67.20 LIG 0.27  HD
ATOM      9 HZ2  LYS B 185       0.839  42.212   4.824  1.00 67.20 LIG 0.27  HD
ENDBRANCH 5 6
ENDBRANCH 4 5
ENDBRANCH 3 4
ENDBRANCH 2 3
ENDBRANCH 1 2
BRANCH 1 10
ATOM     10  C   LYS B 185       3.942  37.424   5.839  1.00 87.67 LIG 0.24  C 
ATOM     11 O    LYS B 185       4.099  38.291   6.706  1.00 75.85 LIG-0.27  OA
ATOM     12  N   ARG B 186       4.801  37.215   4.844  1.00 93.18 LIG-0.35  N 
ATOM     13 H    ARG B 186       4.709  36.573   4.279  1.00 93.18 LIG 0.16  HD
BRANCH 12 14
ATOM     14  CA  ARG B 186       5.984  38.036   4.597  1.00 93.88 LIG 0.18  C 
BRANCH 14 15
ATOM     15  CB  ARG B 186       7.222  37.288   5.118  1.00 94.11 LIG 0.04  C 
BRANCH 15 16
ATOM     16  CG  ARG B 186       7.735  36.234   4.145  1.00 91.13 LIG 0.02  C 
BRANCH 16 17
ATOM     17  CD  ARG B 186       6.778  35.064   3.986  1.00 90.43 LIG 0.14  C 
BRANCH 17 18
ATOM     18  NE  ARG B 186       6.484  34.810   2.577  1.00 88.65 LIG-0.23  N 
ATOM     19 HE   ARG B 186       6.302  35.484   2.074  1.00 88.65 LIG 0.18  HD
ATOM     20  CZ  ARG B 186       6.483  33.599   2.023  1.00 77.61 LIG 0.67  C 
ATOM     21  NH2 ARG B 186       6.201  33.451   0.736  1.00 64.46 LIG-0.23  N 
ATOM     22  NH1 ARG B 186       6.767  32.536   2.760  1.00 71.89 LIG-0.23  N 
ATOM     23 2HH2 ARG B 186       6.201  32.666   0.383  1.00 64.46 LIG 0.17  HD
ATOM     24 1HH2 ARG B 186       6.018  34.139   0.253  1.00 64.46 LIG 0.17  HD
ATOM     25 1HH1 ARG B 186       6.952  32.628   3.595  1.00 71.89 LIG 0.17  HD
ATOM     26 2HH1 ARG B 186       6.766  31.753   2.403  1.00 71.89 LIG 0.17  HD
ENDBRANCH 17 18
ENDBRANCH 16 17
ENDBRANCH 15 16
ENDBRANCH 14 15
BRANCH 14 27
ATOM     27  C   ARG B 186       6.050  38.333   3.084  1.00100.48 LIG 0.24  C 
ATOM     28  N   ALA B 187       6.071  39.596   2.634  1.00104.89 LIG-0.35  N 
ATOM     29 H    ALA B 187       6.102  39.772   1.793  1.00104.89 LIG 0.16  HD
ATOM     30 O    ARG B 186       6.064  37.382   2.299  1.00101.56 LIG-0.27  OA
BRANCH 28 31
ATOM     31  CA  ALA B 187       6.045  40.812   3.449  1.00100.92 LIG 0.16  C 
ATOM     32  CB  ALA B 187       6.520  42.019   2.624  1.00 98.55 LIG 0.04  C 
BRANCH 31 33
ATOM     33  C   ALA B 187       4.649  41.079   4.006  1.00 96.24 LIG 0.22  C 
ATOM     34 O    ALA B 187       3.646  40.726   3.382  1.00 95.92 LIG-0.29  OA
ENDBRANCH 31 33
ENDBRANCH 28 31
ENDBRANCH 14 27
ENDBRANCH 12 14
ENDBRANCH 1 10
BRANCH 1 35
ATOM     35  N   LYS B 185       2.436  36.070   7.209  1.00 94.70 LIG-0.35  N 
ATOM     36 H    LYS B 185       2.551  35.224   7.312  1.00 94.70 LIG 0.16  HD
ATOM     37  C   LYS B 184       2.051  36.880   8.201  1.00 95.69 LIG 0.24  C 
ATOM     38 O    LYS B 184       1.821  38.082   8.036  1.00 96.36 LIG-0.27  OA
BRANCH 37 39
ATOM     39  CA  LYS B 184       1.917  36.237   9.578  1.00 89.09 LIG 0.18  C 
BRANCH 39 40
ATOM     40  CB  LYS B 184       0.458  35.860   9.857  1.00 73.03 LIG 0.04  C 
BRANCH 40 41
ATOM     41  CG  LYS B 184       0.291  34.774  10.928  1.00 60.77 LIG 0.00  C 
BRANCH 41 42
ATOM     42  CD  LYS B 184      -1.146  34.290  11.020  1.00 63.88 LIG 0.03  C 
BRANCH 42 43
ATOM     43  CE  LYS B 184      -1.248  32.824  11.435  1.00 60.38 LIG 0.23  C 
BRANCH 43 44
ATOM     44  NZ  LYS B 184      -2.486  32.100  10.976  1.00 53.06 LIG-0.08  N 
ATOM     45 HZ3  LYS B 184      -2.466  31.261  11.273  1.00 53.06 LIG 0.27  HD
ATOM     46 HZ2  LYS B 184      -2.517  32.099  10.087  1.00 53.06 LIG 0.27  HD
ATOM     47 HZ1  LYS B 184      -3.207  32.511  11.298  1.00 53.06 LIG 0.27  HD
ENDBRANCH 43 44
ENDBRANCH 42 43
ENDBRANCH 41 42
ENDBRANCH 40 41
ENDBRANCH 39 40
BRANCH 39 48
ATOM     48  N   LYS B 184       2.414  37.131  10.616  1.00 95.16 LIG-0.35  N 
ATOM     49 H    LYS B 184       1.807  37.432  11.146  1.00 95.16 LIG 0.16  HD
ATOM     50  C   PRO B 183       3.706  37.441  10.715  1.00102.83 LIG 0.24  C 
ATOM     51 O    PRO B 183       4.558  36.992   9.941  1.00 96.65 LIG-0.27  OA
BRANCH 50 52
ATOM     52  CA  PRO B 183       4.089  38.401  11.839  1.00119.60 LIG 0.18  C 
ATOM     53  N   PRO B 183       2.965  39.190  12.361  1.00125.08 LIG-0.34  N 
ATOM     54  CD  PRO B 183       2.337  38.542  13.528  1.00128.64 LIG 0.13  C 
ATOM     55  C   PRO B 182       2.810  40.473  11.988  1.00122.07 LIG 0.26  C 
ATOM     56  CG  PRO B 183       3.301  37.413  13.872  1.00127.59 LIG 0.02  C 
ATOM     57  CB  PRO B 183       4.571  37.644  13.082  1.00124.68 LIG 0.04  C 
ATOM     58 O    PRO B 182       3.585  41.052  11.224  1.00123.88 LIG-0.27  OA
BRANCH 55 59
ATOM     59  CA  PRO B 182       1.620  41.239  12.569  1.00115.83 LIG 0.35  C 
ATOM     60  CB  PRO B 182       0.388  41.099  11.662  1.00111.53 LIG 0.05  C 
ATOM     61  CG  PRO B 182      -0.265  42.449  11.674  1.00111.42 LIG 0.04  C 
ATOM     62  CD  PRO B 182       0.857  43.430  11.810  1.00113.66 LIG 0.32  C 
ATOM     63  N   PRO B 182       1.850  42.689  12.608  1.00115.25 LIG 0.32  N 
ENDBRANCH 55 59
ENDBRANCH 50 52
ENDBRANCH 39 48
ENDBRANCH 37 39
ENDBRANCH 1 35
TORSDOF 24
ENDMDL
MODEL 28
USER: ADFR SOLUTION from run 39
USER: SCORE 19.081633 LL:  -3.384 LR: -17.588 RR:   0.000 FEB: -10.429
USER: RMSD 8.759812
USER: SEED 38
USER: STATUS 1 or 2 clusters left
USER: GENES 26
USER: genes 0 Translation |==|  0.48663 0.59107 0.42215
USER: genes 1 Rotation |==|  0.88991 0.39419 0.21841 0.58647
USER: genes 2 Torsion [C]-CA--CB-[CG] |==|  0.04115
USER: genes 3 Torsion [CA]-CB--CG-[CD] |==|  0.30384
USER: genes 4 Torsion [CB]-CG--CD-[CE] |==|  0.34093
USER: genes 5 Torsion [CG]-CD--CE-[NZ] |==|  0.31741
USER: genes 6 Torsion [CD]-CE--NZ-[HZ1] |==|  0.00560
USER: genes 7 Torsion [N]-CA--C-[N] |==|  0.31537
USER: genes 8 Torsion [C]-N--CA-[CB] |==|  0.13890
USER: genes 9 Torsion [N]-CA--CB-[CG] |==|  0.60850
USER: genes 10 Torsion [CA]-CB--CG-[CD] |==|  0.27285
USER: genes 11 Torsion [CB]-CG--CD-[NE] |==|  0.78263
USER: genes 12 Torsion [CG]-CD--NE-[CZ] |==|  0.42672
USER: genes 13 Torsion [N]-CA--C-[N] |==|  0.84536
USER: genes 14 Torsion [C]-N--CA-[C] |==|  0.74845
USER: genes 15 Torsion [N]-CA--C-[O] |==|  0.99156
USER: genes 16 Torsion [CB]-CA--N-[C] |==|  0.50579
USER: genes 17 Torsion [N]-C--CA-[N] |==|  0.93333
USER: genes 18 Torsion [C]-CA--CB-[CG] |==|  0.08667
USER: genes 19 Torsion [CA]-CB--CG-[CD] |==|  0.40400
USER: genes 20 Torsion [CB]-CG--CD-[CE] |==|  0.55957
USER: genes 21 Torsion [CG]-CD--CE-[NZ] |==|  0.76358
USER: genes 22 Torsion [CD]-CE--NZ-[HZ3] |==|  0.65638
USER: genes 23 Torsion [C]-CA--N-[C] |==|  0.83195
USER: genes 24 Torsion [N]-C--CA-[N] |==|  0.12476
USER: genes 25 Torsion [N]-C--CA-[CB] |==|  0.83769
ROOT
ATOM      1  CA  LYS B 185       2.128  37.184   5.220  1.00 91.41 LIG 0.18  C 
ENDROOT
BRANCH 1 2
ATOM      2  CB  LYS B 185       0.788  37.927   5.234  1.00 90.53 LIG 0.04  C 
BRANCH 2 3
ATOM      3  CG  LYS B 185       0.838  39.421   4.923  1.00 86.81 LIG 0.00  C 
BRANCH 3 4
ATOM      4  CD  LYS B 185       0.223  39.721   3.551  1.00 79.71 LIG 0.03  C 
BRANCH 4 5
ATOM      5  CE  LYS B 185      -0.933  40.722   3.628  1.00 72.24 LIG 0.23  C 
BRANCH 5 6
ATOM      6  NZ  LYS B 185      -0.641  42.016   2.944  1.00 67.20 LIG-0.08  N 
ATOM      7 HZ1  LYS B 185       0.166  41.980   2.571  1.00 67.20 LIG 0.27  HD
ATOM      8 HZ3  LYS B 185      -0.663  42.678   3.539  1.00 67.20 LIG 0.27  HD
ATOM      9 HZ2  LYS B 185      -1.252  42.163   2.314  1.00 67.20 LIG 0.27  HD
ENDBRANCH 5 6
ENDBRANCH 4 5
ENDBRANCH 3 4
ENDBRANCH 2 3
ENDBRANCH 1 2
BRANCH 1 10
ATOM     10  C   LYS B 185       3.274  38.190   5.249  1.00 87.67 LIG 0.24  C 
ATOM     11 O    LYS B 185       3.347  39.030   6.153  1.00 75.85 LIG-0.27  OA
ATOM     12  N   ARG B 186       4.147  38.110   4.248  1.00 93.18 LIG-0.35  N 
ATOM     13 H    ARG B 186       4.118  37.487   3.655  1.00 93.18 LIG 0.16  HD
BRANCH 12 14
ATOM     14  CA  ARG B 186       5.242  39.054   4.038  1.00 93.88 LIG 0.18  C 
BRANCH 14 15
ATOM     15  CB  ARG B 186       6.013  39.217   5.358  1.00 94.11 LIG 0.04  C 
BRANCH 15 16
ATOM     16  CG  ARG B 186       6.457  40.652   5.615  1.00 91.13 LIG 0.02  C 
BRANCH 16 17
ATOM     17  CD  ARG B 186       5.522  41.398   6.552  1.00 90.43 LIG 0.14  C 
BRANCH 17 18
ATOM     18  NE  ARG B 186       4.317  41.842   5.852  1.00 88.65 LIG-0.23  N 
ATOM     19 HE   ARG B 186       4.369  41.976   5.004  1.00 88.65 LIG 0.18  HD
ATOM     20  CZ  ARG B 186       3.145  42.051   6.448  1.00 77.61 LIG 0.67  C 
ATOM     21  NH2 ARG B 186       2.098  42.458   5.743  1.00 64.46 LIG-0.23  N 
ATOM     22  NH1 ARG B 186       3.020  41.847   7.751  1.00 71.89 LIG-0.23  N 
ATOM     23 2HH2 ARG B 186       1.343  42.591   6.133  1.00 64.46 LIG 0.17  HD
ATOM     24 1HH2 ARG B 186       2.174  42.589   4.896  1.00 64.46 LIG 0.17  HD
ATOM     25 1HH1 ARG B 186       3.696  41.580   8.211  1.00 71.89 LIG 0.17  HD
ATOM     26 2HH1 ARG B 186       2.263  41.982   8.136  1.00 71.89 LIG 0.17  HD
ENDBRANCH 17 18
ENDBRANCH 16 17
ENDBRANCH 15 16
ENDBRANCH 14 15
BRANCH 14 27
ATOM     27  C   ARG B 186       6.121  38.516   2.888  1.00100.48 LIG 0.24  C 
ATOM     28  N   ALA B 187       6.650  37.285   2.948  1.00104.89 LIG-0.35  N 
ATOM     29 H    ALA B 187       7.145  36.980   2.315  1.00104.89 LIG 0.16  HD
ATOM     30 O    ARG B 186       6.340  39.252   1.923  1.00101.56 LIG-0.27  OA
BRANCH 28 31
ATOM     31  CA  ALA B 187       6.484  36.317   4.034  1.00100.92 LIG 0.16  C 
ATOM     32  CB  ALA B 187       6.484  34.885   3.477  1.00 98.55 LIG 0.04  C 
BRANCH 31 33
ATOM     33  C   ALA B 187       7.581  36.467   5.085  1.00 96.24 LIG 0.22  C 
ATOM     34 O    ALA B 187       8.490  37.285   4.932  1.00 95.92 LIG-0.29  OA
ENDBRANCH 31 33
ENDBRANCH 28 31
ENDBRANCH 14 27
ENDBRANCH 12 14
ENDBRANCH 1 10
BRANCH 1 35
ATOM     35  N   LYS B 185       2.250  36.259   6.345  1.00 94.70 LIG-0.35  N 
ATOM     36 H    LYS B 185       1.551  36.231   6.846  1.00 94.70 LIG 0.16  HD
ATOM     37  C   LYS B 184       3.344  35.524   6.576  1.00 95.69 LIG 0.24  C 
ATOM     38 O    LYS B 184       4.371  35.615   5.898  1.00 96.36 LIG-0.27  OA
BRANCH 37 39
ATOM     39  CA  LYS B 184       3.255  34.538   7.738  1.00 89.09 LIG 0.18  C 
BRANCH 39 40
ATOM     40  CB  LYS B 184       2.938  33.129   7.227  1.00 73.03 LIG 0.04  C 
BRANCH 40 41
ATOM     41  CG  LYS B 184       3.502  32.834   5.830  1.00 60.77 LIG 0.00  C 
BRANCH 41 42
ATOM     42  CD  LYS B 184       3.933  31.384   5.693  1.00 63.88 LIG 0.03  C 
BRANCH 42 43
ATOM     43  CE  LYS B 184       4.942  31.174   4.566  1.00 60.38 LIG 0.23  C 
BRANCH 43 44
ATOM     44  NZ  LYS B 184       4.357  30.979   3.193  1.00 53.06 LIG-0.08  N 
ATOM     45 HZ3  LYS B 184       4.648  30.210   2.853  1.00 53.06 LIG 0.27  HD
ATOM     46 HZ2  LYS B 184       4.608  31.650   2.664  1.00 53.06 LIG 0.27  HD
ATOM     47 HZ1  LYS B 184       3.469  30.962   3.248  1.00 53.06 LIG 0.27  HD
ENDBRANCH 43 44
ENDBRANCH 42 43
ENDBRANCH 41 42
ENDBRANCH 40 41
ENDBRANCH 39 40
BRANCH 39 48
ATOM     48  N   LYS B 184       2.247  34.964   8.700  1.00 95.16 LIG-0.35  N 
ATOM     49 H    LYS B 184       1.605  34.402   8.814  1.00 95.16 LIG 0.16  HD
ATOM     50  C   PRO B 183       2.334  36.131   9.337  1.00102.83 LIG 0.24  C 
ATOM     51 O    PRO B 183       3.268  36.919   9.154  1.00 96.65 LIG-0.27  OA
BRANCH 50 52
ATOM     52  CA  PRO B 183       1.202  36.461  10.307  1.00119.60 LIG 0.18  C 
ATOM     53  N   PRO B 183       0.820  35.343  11.182  1.00125.08 LIG-0.34  N 
ATOM     54  CD  PRO B 183       1.539  35.385  12.469  1.00128.64 LIG 0.13  C 
ATOM     55  C   PRO B 182      -0.285  34.625  10.914  1.00122.07 LIG 0.26  C 
ATOM     56  CG  PRO B 183       2.215  36.751  12.456  1.00127.59 LIG 0.02  C 
ATOM     57  CB  PRO B 183       1.622  37.541  11.311  1.00124.68 LIG 0.04  C 
ATOM     58 O    PRO B 182      -1.029  34.860   9.960  1.00123.88 LIG-0.27  OA
BRANCH 55 59
ATOM     59  CA  PRO B 182      -0.627  33.476  11.865  1.00115.83 LIG 0.35  C 
ATOM     60  CB  PRO B 182       0.524  32.461  11.930  1.00111.53 LIG 0.05  C 
ATOM     61  CG  PRO B 182      -0.137  31.117  11.979  1.00111.42 LIG 0.04  C 
ATOM     62  CD  PRO B 182      -1.390  31.262  11.173  1.00113.66 LIG 0.32  C 
ATOM     63  N   PRO B 182      -1.761  32.672  11.390  1.00115.25 LIG 0.32  N 
ENDBRANCH 55 59
ENDBRANCH 50 52
ENDBRANCH 39 48
ENDBRANCH 37 39
ENDBRANCH 1 35
TORSDOF 24
ENDMDL
MODEL 29
USER: ADFR SOLUTION from run 58
USER: SCORE 18.533694 LL:  -2.941 LR: -17.572 RR:   0.000 FEB: -10.412
USER: RMSD 9.671516
USER: SEED 57
USER: STATUS no improvement in best in 7 clusters for 5 generations
USER: GENES 26
USER: genes 0 Translation |==|  0.46836 0.48446 0.62855
USER: genes 1 Rotation |==|  0.35965 0.45053 0.97631 0.53142
USER: genes 2 Torsion [C]-CA--CB-[CG] |==|  0.33061
USER: genes 3 Torsion [CA]-CB--CG-[CD] |==|  0.09911
USER: genes 4 Torsion [CB]-CG--CD-[CE] |==|  0.28167
USER: genes 5 Torsion [CG]-CD--CE-[NZ] |==|  0.45997
USER: genes 6 Torsion [CD]-CE--NZ-[HZ1] |==|  0.79718
USER: genes 7 Torsion [N]-CA--C-[N] |==|  0.34493
USER: genes 8 Torsion [C]-N--CA-[CB] |==|  0.84841
USER: genes 9 Torsion [N]-CA--CB-[CG] |==|  0.63989
USER: genes 10 Torsion [CA]-CB--CG-[CD] |==|  0.82355
USER: genes 11 Torsion [CB]-CG--CD-[NE] |==|  0.42848
USER: genes 12 Torsion [CG]-CD--NE-[CZ] |==|  0.56430
USER: genes 13 Torsion [N]-CA--C-[N] |==|  0.27636
USER: genes 14 Torsion [C]-N--CA-[C] |==|  0.19050
USER: genes 15 Torsion [N]-CA--C-[O] |==|  0.60697
USER: genes 16 Torsion [CB]-CA--N-[C] |==|  0.27175
USER: genes 17 Torsion [N]-C--CA-[N] |==|  0.93758
USER: genes 18 Torsion [C]-CA--CB-[CG] |==|  0.12015
USER: genes 19 Torsion [CA]-CB--CG-[CD] |==|  0.65537
USER: genes 20 Torsion [CB]-CG--CD-[CE] |==|  0.63817
USER: genes 21 Torsion [CG]-CD--CE-[NZ] |==|  0.84908
USER: genes 22 Torsion [CD]-CE--NZ-[HZ3] |==|  0.20978
USER: genes 23 Torsion [C]-CA--N-[C] |==|  0.82113
USER: genes 24 Torsion [N]-C--CA-[N] |==|  0.43341
USER: genes 25 Torsion [N]-C--CA-[CB] |==|  0.18859
ROOT
ATOM      1  CA  LYS B 185       1.813  34.305   9.399  1.00 91.41 LIG 0.18  C 
ENDROOT
BRANCH 1 2
ATOM      2  CB  LYS B 185       1.803  34.410  10.928  1.00 90.53 LIG 0.04  C 
BRANCH 2 3
ATOM      3  CG  LYS B 185       0.445  34.659  11.580  1.00 86.81 LIG 0.00  C 
BRANCH 3 4
ATOM      4  CD  LYS B 185      -0.674  33.932  10.824  1.00 79.71 LIG 0.03  C 
BRANCH 4 5
ATOM      5  CE  LYS B 185      -1.111  32.638  11.516  1.00 72.24 LIG 0.23  C 
BRANCH 5 6
ATOM      6  NZ  LYS B 185      -2.404  32.100  11.001  1.00 67.20 LIG-0.08  N 
ATOM      7 HZ1  LYS B 185      -3.075  32.609  11.290  1.00 67.20 LIG 0.27  HD
ATOM      8 HZ3  LYS B 185      -2.517  31.267  11.293  1.00 67.20 LIG 0.27  HD
ATOM      9 HZ2  LYS B 185      -2.393  32.103  10.111  1.00 67.20 LIG 0.27  HD
ENDBRANCH 5 6
ENDBRANCH 4 5
ENDBRANCH 3 4
ENDBRANCH 2 3
ENDBRANCH 1 2
BRANCH 1 10
ATOM     10  C   LYS B 185       2.693  35.406   8.815  1.00 87.67 LIG 0.24  C 
ATOM     11 O    LYS B 185       3.912  35.404   9.012  1.00 75.85 LIG-0.27  OA
ATOM     12  N   ARG B 186       2.062  36.348   8.117  1.00 93.18 LIG-0.35  N 
ATOM     13 H    ARG B 186       1.222  36.309   7.940  1.00 93.18 LIG 0.16  HD
BRANCH 12 14
ATOM     14  CA  ARG B 186       2.711  37.540   7.578  1.00 93.88 LIG 0.18  C 
BRANCH 14 15
ATOM     15  CB  ARG B 186       3.429  38.273   8.723  1.00 94.11 LIG 0.04  C 
BRANCH 15 16
ATOM     16  CG  ARG B 186       3.092  39.757   8.786  1.00 91.13 LIG 0.02  C 
BRANCH 16 17
ATOM     17  CD  ARG B 186       3.547  40.517   7.551  1.00 90.43 LIG 0.14  C 
BRANCH 17 18
ATOM     18  NE  ARG B 186       2.734  41.713   7.338  1.00 88.65 LIG-0.23  N 
ATOM     19 HE   ARG B 186       2.324  42.049   8.015  1.00 88.65 LIG 0.18  HD
ATOM     20  CZ  ARG B 186       2.590  42.315   6.159  1.00 77.61 LIG 0.67  C 
ATOM     21  NH2 ARG B 186       1.829  43.396   6.046  1.00 64.46 LIG-0.23  N 
ATOM     22  NH1 ARG B 186       3.211  41.835   5.092  1.00 71.89 LIG-0.23  N 
ATOM     23 2HH2 ARG B 186       1.740  43.780   5.282  1.00 64.46 LIG 0.17  HD
ATOM     24 1HH2 ARG B 186       1.426  43.712   6.737  1.00 64.46 LIG 0.17  HD
ATOM     25 1HH1 ARG B 186       3.707  41.136   5.162  1.00 71.89 LIG 0.17  HD
ATOM     26 2HH1 ARG B 186       3.118  42.223   4.330  1.00 71.89 LIG 0.17  HD
ENDBRANCH 17 18
ENDBRANCH 16 17
ENDBRANCH 15 16
ENDBRANCH 14 15
BRANCH 14 27
ATOM     27  C   ARG B 186       3.669  37.094   6.453  1.00100.48 LIG 0.24  C 
ATOM     28  N   ALA B 187       3.306  37.190   5.166  1.00104.89 LIG-0.35  N 
ATOM     29 H    ALA B 187       3.830  36.939   4.532  1.00104.89 LIG 0.16  HD
ATOM     30 O    ARG B 186       4.767  36.629   6.767  1.00101.56 LIG-0.27  OA
BRANCH 28 31
ATOM     31  CA  ALA B 187       2.035  37.707   4.655  1.00100.92 LIG 0.16  C 
ATOM     32  CB  ALA B 187       0.856  36.973   5.312  1.00 98.55 LIG 0.04  C 
BRANCH 31 33
ATOM     33  C   ALA B 187       1.910  39.210   4.892  1.00 96.24 LIG 0.22  C 
ATOM     34 O    ALA B 187       0.830  39.708   5.214  1.00 95.92 LIG-0.29  OA
ENDBRANCH 31 33
ENDBRANCH 28 31
ENDBRANCH 14 27
ENDBRANCH 12 14
ENDBRANCH 1 10
BRANCH 1 35
ATOM     35  N   LYS B 185       2.286  32.998   8.946  1.00 94.70 LIG-0.35  N 
ATOM     36 H    LYS B 185       3.143  32.929   8.928  1.00 94.70 LIG 0.16  HD
ATOM     37  C   LYS B 184       1.465  32.003   8.593  1.00 95.69 LIG 0.24  C 
ATOM     38 O    LYS B 184       0.237  32.125   8.554  1.00 96.36 LIG-0.27  OA
BRANCH 37 39
ATOM     39  CA  LYS B 184       2.133  30.676   8.243  1.00 89.09 LIG 0.18  C 
BRANCH 39 40
ATOM     40  CB  LYS B 184       2.053  29.704   9.426  1.00 73.03 LIG 0.04  C 
BRANCH 40 41
ATOM     41  CG  LYS B 184       0.684  29.681  10.119  1.00 60.77 LIG 0.00  C 
BRANCH 41 42
ATOM     42  CD  LYS B 184       0.800  29.979  11.604  1.00 63.88 LIG 0.03  C 
BRANCH 42 43
ATOM     43  CE  LYS B 184       0.062  28.959  12.468  1.00 60.38 LIG 0.23  C 
BRANCH 43 44
ATOM     44  NZ  LYS B 184      -1.391  28.750  12.135  1.00 53.06 LIG-0.08  N 
ATOM     45 HZ3  LYS B 184      -1.458  28.261  11.394  1.00 53.06 LIG 0.27  HD
ATOM     46 HZ2  LYS B 184      -1.783  29.538  12.005  1.00 53.06 LIG 0.27  HD
ATOM     47 HZ1  LYS B 184      -1.792  28.326  12.807  1.00 53.06 LIG 0.27  HD
ENDBRANCH 43 44
ENDBRANCH 42 43
ENDBRANCH 41 42
ENDBRANCH 40 41
ENDBRANCH 39 40
BRANCH 39 48
ATOM     48  N   LYS B 184       3.523  30.884   7.856  1.00 95.16 LIG-0.35  N 
ATOM     49 H    LYS B 184       4.097  30.524   8.386  1.00 95.16 LIG 0.16  HD
ATOM     50  C   PRO B 183       3.850  31.577   6.767  1.00102.83 LIG 0.24  C 
ATOM     51 O    PRO B 183       3.004  32.082   6.022  1.00 96.65 LIG-0.27  OA
BRANCH 50 52
ATOM     52  CA  PRO B 183       5.342  31.732   6.484  1.00119.60 LIG 0.18  C 
ATOM     53  N   PRO B 183       5.660  31.985   5.071  1.00125.08 LIG-0.34  N 
ATOM     54  CD  PRO B 183       5.756  33.429   4.782  1.00128.64 LIG 0.13  C 
ATOM     55  C   PRO B 182       6.122  30.989   4.295  1.00122.07 LIG 0.26  C 
ATOM     56  CG  PRO B 183       5.732  34.073   6.164  1.00127.59 LIG 0.02  C 
ATOM     57  CB  PRO B 183       5.919  32.970   7.182  1.00124.68 LIG 0.04  C 
ATOM     58 O    PRO B 182       6.315  29.844   4.710  1.00123.88 LIG-0.27  OA
BRANCH 55 59
ATOM     59  CA  PRO B 182       6.435  31.319   2.835  1.00115.83 LIG 0.35  C 
ATOM     60  CB  PRO B 182       7.644  32.263   2.738  1.00111.53 LIG 0.05  C 
ATOM     61  CG  PRO B 182       7.306  33.225   1.638  1.00111.42 LIG 0.04  C 
ATOM     62  CD  PRO B 182       5.821  33.393   1.703  1.00113.66 LIG 0.32  C 
ATOM     63  N   PRO B 182       5.359  32.080   2.187  1.00115.25 LIG 0.32  N 
ENDBRANCH 55 59
ENDBRANCH 50 52
ENDBRANCH 39 48
ENDBRANCH 37 39
ENDBRANCH 1 35
TORSDOF 24
ENDMDL
MODEL 30
USER: ADFR SOLUTION from run 149
USER: SCORE 19.764539 LL:  -2.818 LR: -17.552 RR:   0.000 FEB: -10.392
USER: RMSD 9.935077
USER: SEED 148
USER: STATUS no improvement in best in 3 clusters for 5 generations
USER: GENES 26
USER: genes 0 Translation |==|  0.54875 0.77131 0.54387
USER: genes 1 Rotation |==|  0.44022 0.75753 0.88194 0.68500
USER: genes 2 Torsion [C]-CA--CB-[CG] |==|  0.27200
USER: genes 3 Torsion [CA]-CB--CG-[CD] |==|  0.93920
USER: genes 4 Torsion [CB]-CG--CD-[CE] |==|  0.24363
USER: genes 5 Torsion [CG]-CD--CE-[NZ] |==|  0.66281
USER: genes 6 Torsion [CD]-CE--NZ-[HZ1] |==|  0.29776
USER: genes 7 Torsion [N]-CA--C-[N] |==|  0.36111
USER: genes 8 Torsion [C]-N--CA-[CB] |==|  0.78870
USER: genes 9 Torsion [N]-CA--CB-[CG] |==|  0.84219
USER: genes 10 Torsion [CA]-CB--CG-[CD] |==|  0.73900
USER: genes 11 Torsion [CB]-CG--CD-[NE] |==|  0.36630
USER: genes 12 Torsion [CG]-CD--NE-[CZ] |==|  0.48634
USER: genes 13 Torsion [N]-CA--C-[N] |==|  0.15059
USER: genes 14 Torsion [C]-N--CA-[C] |==|  0.63259
USER: genes 15 Torsion [N]-CA--C-[O] |==|  0.01846
USER: genes 16 Torsion [CB]-CA--N-[C] |==|  0.84982
USER: genes 17 Torsion [N]-C--CA-[N] |==|  0.40754
USER: genes 18 Torsion [C]-CA--CB-[CG] |==|  0.24245
USER: genes 19 Torsion [CA]-CB--CG-[CD] |==|  0.72211
USER: genes 20 Torsion [CB]-CG--CD-[CE] |==|  0.41859
USER: genes 21 Torsion [CG]-CD--CE-[NZ] |==|  0.09703
USER: genes 22 Torsion [CD]-CE--NZ-[HZ3] |==|  0.33120
USER: genes 23 Torsion [C]-CA--N-[C] |==|  0.62882
USER: genes 24 Torsion [N]-C--CA-[N] |==|  0.52932
USER: genes 25 Torsion [N]-C--CA-[CB] |==|  0.78627
ROOT
ATOM      1  CA  LYS B 185       3.200  42.050   7.684  1.00 91.41 LIG 0.18  C 
ENDROOT
BRANCH 1 2
ATOM      2  CB  LYS B 185       4.291  42.888   8.360  1.00 90.53 LIG 0.04  C 
BRANCH 2 3
ATOM      3  CG  LYS B 185       4.470  44.313   7.841  1.00 86.81 LIG 0.00  C 
BRANCH 3 4
ATOM      4  CD  LYS B 185       3.912  44.457   6.420  1.00 79.71 LIG 0.03  C 
BRANCH 4 5
ATOM      5  CE  LYS B 185       2.422  44.809   6.402  1.00 72.24 LIG 0.23  C 
BRANCH 5 6
ATOM      6  NZ  LYS B 185       1.588  43.811   5.671  1.00 67.20 LIG-0.08  N 
ATOM      7 HZ1  LYS B 185       1.113  43.336   6.255  1.00 67.20 LIG 0.27  HD
ATOM      8 HZ3  LYS B 185       2.115  43.267   5.205  1.00 67.20 LIG 0.27  HD
ATOM      9 HZ2  LYS B 185       1.036  44.235   5.116  1.00 67.20 LIG 0.27  HD
ENDBRANCH 5 6
ENDBRANCH 4 5
ENDBRANCH 3 4
ENDBRANCH 2 3
ENDBRANCH 1 2
BRANCH 1 10
ATOM     10  C   LYS B 185       3.826  41.151   6.623  1.00 87.67 LIG 0.24  C 
ATOM     11 O    LYS B 185       4.504  40.173   6.953  1.00 75.85 LIG-0.27  OA
ATOM     12  N   ARG B 186       3.609  41.504   5.358  1.00 93.18 LIG-0.35  N 
ATOM     13 H    ARG B 186       3.089  42.154   5.140  1.00 93.18 LIG 0.16  HD
BRANCH 12 14
ATOM     14  CA  ARG B 186       4.216  40.840   4.207  1.00 93.88 LIG 0.18  C 
BRANCH 14 15
ATOM     15  CB  ARG B 186       5.682  41.287   4.094  1.00 94.11 LIG 0.04  C 
BRANCH 15 16
ATOM     16  CG  ARG B 186       5.837  42.798   3.983  1.00 91.13 LIG 0.02  C 
BRANCH 16 17
ATOM     17  CD  ARG B 186       5.915  43.277   2.543  1.00 90.43 LIG 0.14  C 
BRANCH 17 18
ATOM     18  NE  ARG B 186       5.013  44.405   2.312  1.00 88.65 LIG-0.23  N 
ATOM     19 HE   ARG B 186       4.494  44.645   2.955  1.00 88.65 LIG 0.18  HD
ATOM     20  CZ  ARG B 186       4.946  45.083   1.168  1.00 77.61 LIG 0.67  C 
ATOM     21  NH2 ARG B 186       4.097  46.093   1.036  1.00 64.46 LIG-0.23  N 
ATOM     22  NH1 ARG B 186       5.734  44.750   0.156  1.00 71.89 LIG-0.23  N 
ATOM     23 2HH2 ARG B 186       4.058  46.527   0.294  1.00 64.46 LIG 0.17  HD
ATOM     24 1HH2 ARG B 186       3.585  46.313   1.691  1.00 64.46 LIG 0.17  HD
ATOM     25 1HH1 ARG B 186       6.288  44.097   0.239  1.00 71.89 LIG 0.17  HD
ATOM     26 2HH1 ARG B 186       5.691  45.187  -0.584  1.00 71.89 LIG 0.17  HD
ENDBRANCH 17 18
ENDBRANCH 16 17
ENDBRANCH 15 16
ENDBRANCH 14 15
BRANCH 14 27
ATOM     27  C   ARG B 186       4.063  39.315   4.402  1.00100.48 LIG 0.24  C 
ATOM     28  N   ALA B 187       2.858  38.771   4.626  1.00104.89 LIG-0.35  N 
ATOM     29 H    ALA B 187       2.764  37.924   4.741  1.00104.89 LIG 0.16  HD
ATOM     30 O    ARG B 186       5.077  38.615   4.364  1.00101.56 LIG-0.27  OA
BRANCH 28 31
ATOM     31  CA  ALA B 187       1.581  39.482   4.708  1.00100.92 LIG 0.16  C 
ATOM     32  CB  ALA B 187       0.755  39.247   3.435  1.00 98.55 LIG 0.04  C 
BRANCH 31 33
ATOM     33  C   ALA B 187       0.782  39.049   5.935  1.00 96.24 LIG 0.22  C 
ATOM     34 O    ALA B 187       1.278  38.294   6.773  1.00 95.92 LIG-0.29  OA
ENDBRANCH 31 33
ENDBRANCH 28 31
ENDBRANCH 14 27
ENDBRANCH 12 14
ENDBRANCH 1 10
BRANCH 1 35
ATOM     35  N   LYS B 185       2.460  41.239   8.650  1.00 94.70 LIG-0.35  N 
ATOM     36 H    LYS B 185       1.609  41.355   8.617  1.00 94.70 LIG 0.16  HD
ATOM     37  C   LYS B 184       3.050  40.396   9.505  1.00 95.69 LIG 0.24  C 
ATOM     38 O    LYS B 184       4.276  40.281   9.599  1.00 96.36 LIG-0.27  OA
BRANCH 37 39
ATOM     39  CA  LYS B 184       2.114  39.557  10.371  1.00 89.09 LIG 0.18  C 
BRANCH 39 40
ATOM     40  CB  LYS B 184       1.810  40.277  11.689  1.00 73.03 LIG 0.04  C 
BRANCH 40 41
ATOM     41  CG  LYS B 184       0.618  41.240  11.610  1.00 60.77 LIG 0.00  C 
BRANCH 41 42
ATOM     42  CD  LYS B 184       1.069  42.682  11.453  1.00 63.88 LIG 0.03  C 
BRANCH 42 43
ATOM     43  CE  LYS B 184       0.058  43.534  10.688  1.00 60.38 LIG 0.23  C 
BRANCH 43 44
ATOM     44  NZ  LYS B 184      -1.390  43.197  10.921  1.00 53.06 LIG-0.08  N 
ATOM     45 HZ3  LYS B 184      -1.808  43.903  11.266  1.00 53.06 LIG 0.27  HD
ATOM     46 HZ2  LYS B 184      -1.449  42.513  11.487  1.00 53.06 LIG 0.27  HD
ATOM     47 HZ1  LYS B 184      -1.772  42.975  10.148  1.00 53.06 LIG 0.27  HD
ENDBRANCH 43 44
ENDBRANCH 42 43
ENDBRANCH 41 42
ENDBRANCH 40 41
ENDBRANCH 39 40
BRANCH 39 48
ATOM     48  N   LYS B 184       2.693  38.246  10.634  1.00 95.16 LIG-0.35  N 
ATOM     49 H    LYS B 184       3.519  38.264  10.875  1.00 95.16 LIG 0.16  HD
ATOM     50  C   PRO B 183       1.982  37.127  10.507  1.00102.83 LIG 0.24  C 
ATOM     51 O    PRO B 183       0.795  37.130  10.161  1.00 96.65 LIG-0.27  OA
BRANCH 50 52
ATOM     52  CA  PRO B 183       2.714  35.820  10.800  1.00119.60 LIG 0.18  C 
ATOM     53  N   PRO B 183       1.966  34.615  10.411  1.00125.08 LIG-0.34  N 
ATOM     54  CD  PRO B 183       2.321  34.166   9.051  1.00128.64 LIG 0.13  C 
ATOM     55  C   PRO B 182       1.325  33.889  11.344  1.00122.07 LIG 0.26  C 
ATOM     56  CG  PRO B 183       3.535  35.018   8.699  1.00127.59 LIG 0.02  C 
ATOM     57  CB  PRO B 183       3.997  35.697   9.969  1.00124.68 LIG 0.04  C 
ATOM     58 O    PRO B 182       1.338  34.170  12.545  1.00123.88 LIG-0.27  OA
BRANCH 55 59
ATOM     59  CA  PRO B 182       0.567  32.646  10.873  1.00115.83 LIG 0.35  C 
ATOM     60  CB  PRO B 182      -0.763  33.038  10.212  1.00111.53 LIG 0.05  C 
ATOM     61  CG  PRO B 182      -1.749  32.005  10.666  1.00111.42 LIG 0.04  C 
ATOM     62  CD  PRO B 182      -1.314  31.623  12.046  1.00113.66 LIG 0.32  C 
ATOM     63  N   PRO B 182       0.150  31.787  11.988  1.00115.25 LIG 0.32  N 
ENDBRANCH 55 59
ENDBRANCH 50 52
ENDBRANCH 39 48
ENDBRANCH 37 39
ENDBRANCH 1 35
TORSDOF 24
ENDMDL
MODEL 31
USER: ADFR SOLUTION from run 138
USER: SCORE 19.707864 LL:  -3.049 LR: -17.494 RR:   0.000 FEB: -10.335
USER: RMSD 6.632507
USER: SEED 137
USER: STATUS no improvement in best in 3 clusters for 5 generations
USER: GENES 26
USER: genes 0 Translation |==|  0.49079 0.55501 0.46893
USER: genes 1 Rotation |==|  0.65785 0.04750 0.36141 0.53345
USER: genes 2 Torsion [C]-CA--CB-[CG] |==|  0.46379
USER: genes 3 Torsion [CA]-CB--CG-[CD] |==|  0.21816
USER: genes 4 Torsion [CB]-CG--CD-[CE] |==|  0.44327
USER: genes 5 Torsion [CG]-CD--CE-[NZ] |==|  0.80118
USER: genes 6 Torsion [CD]-CE--NZ-[HZ1] |==|  0.44115
USER: genes 7 Torsion [N]-CA--C-[N] |==|  0.35732
USER: genes 8 Torsion [C]-N--CA-[CB] |==|  0.52835
USER: genes 9 Torsion [N]-CA--CB-[CG] |==|  0.40552
USER: genes 10 Torsion [CA]-CB--CG-[CD] |==|  0.55837
USER: genes 11 Torsion [CB]-CG--CD-[NE] |==|  0.22606
USER: genes 12 Torsion [CG]-CD--NE-[CZ] |==|  0.39229
USER: genes 13 Torsion [N]-CA--C-[N] |==|  0.38410
USER: genes 14 Torsion [C]-N--CA-[C] |==|  0.78147
USER: genes 15 Torsion [N]-CA--C-[O] |==|  0.16631
USER: genes 16 Torsion [CB]-CA--N-[C] |==|  0.85553
USER: genes 17 Torsion [N]-C--CA-[N] |==|  0.19047
USER: genes 18 Torsion [C]-CA--CB-[CG] |==|  0.25639
USER: genes 19 Torsion [CA]-CB--CG-[CD] |==|  0.79069
USER: genes 20 Torsion [CB]-CG--CD-[CE] |==|  0.55695
USER: genes 21 Torsion [CG]-CD--CE-[NZ] |==|  0.72493
USER: genes 22 Torsion [CD]-CE--NZ-[HZ3] |==|  0.21335
USER: genes 23 Torsion [C]-CA--N-[C] |==|  0.78776
USER: genes 24 Torsion [N]-C--CA-[N] |==|  0.65556
USER: genes 25 Torsion [N]-C--CA-[CB] |==|  0.64334
ROOT
ATOM      1  CA  LYS B 185       2.200  36.210   6.167  1.00 91.41 LIG 0.18  C 
ENDROOT
BRANCH 1 2
ATOM      2  CB  LYS B 185       2.679  36.967   4.922  1.00 90.53 LIG 0.04  C 
BRANCH 2 3
ATOM      3  CG  LYS B 185       1.628  37.801   4.192  1.00 86.81 LIG 0.00  C 
BRANCH 3 4
ATOM      4  CD  LYS B 185       1.377  39.130   4.915  1.00 79.71 LIG 0.03  C 
BRANCH 4 5
ATOM      5  CE  LYS B 185       0.743  40.186   4.007  1.00 72.24 LIG 0.23  C 
BRANCH 5 6
ATOM      6  NZ  LYS B 185       1.683  40.725   2.981  1.00 67.20 LIG-0.08  N 
ATOM      7 HZ1  LYS B 185       1.219  41.081   2.310  1.00 67.20 LIG 0.27  HD
ATOM      8 HZ3  LYS B 185       2.194  40.066   2.671  1.00 67.20 LIG 0.27  HD
ATOM      9 HZ2  LYS B 185       2.198  41.350   3.350  1.00 67.20 LIG 0.27  HD
ENDBRANCH 5 6
ENDBRANCH 4 5
ENDBRANCH 3 4
ENDBRANCH 2 3
ENDBRANCH 1 2
BRANCH 1 10
ATOM     10  C   LYS B 185       3.254  35.190   6.585  1.00 87.67 LIG 0.24  C 
ATOM     11 O    LYS B 185       4.324  35.561   7.078  1.00 75.85 LIG-0.27  OA
ATOM     12  N   ARG B 186       2.949  33.913   6.363  1.00 93.18 LIG-0.35  N 
ATOM     13 H    ARG B 186       2.180  33.664   6.071  1.00 93.18 LIG 0.16  HD
BRANCH 12 14
ATOM     14  CA  ARG B 186       3.870  32.801   6.587  1.00 93.88 LIG 0.18  C 
BRANCH 14 15
ATOM     15  CB  ARG B 186       3.261  31.526   5.984  1.00 94.11 LIG 0.04  C 
BRANCH 15 16
ATOM     16  CG  ARG B 186       4.307  30.578   5.411  1.00 91.13 LIG 0.02  C 
BRANCH 16 17
ATOM     17  CD  ARG B 186       3.728  29.608   4.395  1.00 90.43 LIG 0.14  C 
BRANCH 17 18
ATOM     18  NE  ARG B 186       3.598  30.234   3.080  1.00 88.65 LIG-0.23  N 
ATOM     19 HE   ARG B 186       3.345  31.056   3.047  1.00 88.65 LIG 0.18  HD
ATOM     20  CZ  ARG B 186       3.849  29.611   1.931  1.00 77.61 LIG 0.67  C 
ATOM     21  NH2 ARG B 186       3.703  30.249   0.777  1.00 64.46 LIG-0.23  N 
ATOM     22  NH1 ARG B 186       4.250  28.349   1.937  1.00 71.89 LIG-0.23  N 
ATOM     23 2HH2 ARG B 186       3.866  29.841   0.037  1.00 64.46 LIG 0.17  HD
ATOM     24 1HH2 ARG B 186       3.445  31.069   0.768  1.00 64.46 LIG 0.17  HD
ATOM     25 1HH1 ARG B 186       4.348  27.933   2.684  1.00 71.89 LIG 0.17  HD
ATOM     26 2HH1 ARG B 186       4.411  27.945   1.195  1.00 71.89 LIG 0.17  HD
ENDBRANCH 17 18
ENDBRANCH 16 17
ENDBRANCH 15 16
ENDBRANCH 14 15
BRANCH 14 27
ATOM     27  C   ARG B 186       5.231  33.175   5.961  1.00100.48 LIG 0.24  C 
ATOM     28  N   ALA B 187       6.377  32.900   6.599  1.00104.89 LIG-0.35  N 
ATOM     29 H    ALA B 187       7.139  33.109   6.261  1.00104.89 LIG 0.16  HD
ATOM     30 O    ARG B 186       5.236  33.749   4.870  1.00101.56 LIG-0.27  OA
BRANCH 28 31
ATOM     31  CA  ALA B 187       6.515  32.239   7.898  1.00100.92 LIG 0.16  C 
ATOM     32  CB  ALA B 187       7.924  31.644   8.049  1.00 98.55 LIG 0.04  C 
BRANCH 31 33
ATOM     33  C   ALA B 187       6.232  33.204   9.046  1.00 96.24 LIG 0.22  C 
ATOM     34 O    ALA B 187       5.136  33.760   9.144  1.00 95.92 LIG-0.29  OA
ENDBRANCH 31 33
ENDBRANCH 28 31
ENDBRANCH 14 27
ENDBRANCH 12 14
ENDBRANCH 1 10
BRANCH 1 35
ATOM     35  N   LYS B 185       1.917  37.116   7.279  1.00 94.70 LIG-0.35  N 
ATOM     36 H    LYS B 185       1.137  37.005   7.624  1.00 94.70 LIG 0.16  HD
ATOM     37  C   LYS B 184       2.787  38.032   7.719  1.00 95.69 LIG 0.24  C 
ATOM     38 O    LYS B 184       3.878  38.238   7.180  1.00 96.36 LIG-0.27  OA
BRANCH 37 39
ATOM     39  CA  LYS B 184       2.361  38.821   8.954  1.00 89.09 LIG 0.18  C 
BRANCH 39 40
ATOM     40  CB  LYS B 184       3.304  40.006   9.188  1.00 73.03 LIG 0.04  C 
BRANCH 40 41
ATOM     41  CG  LYS B 184       2.838  41.311   8.529  1.00 60.77 LIG 0.00  C 
BRANCH 41 42
ATOM     42  CD  LYS B 184       3.069  41.296   7.027  1.00 63.88 LIG 0.03  C 
BRANCH 42 43
ATOM     43  CE  LYS B 184       3.095  42.698   6.422  1.00 60.38 LIG 0.23  C 
BRANCH 43 44
ATOM     44  NZ  LYS B 184       1.817  43.151   5.768  1.00 53.06 LIG-0.08  N 
ATOM     45 HZ3  LYS B 184       1.229  43.385   6.394  1.00 53.06 LIG 0.27  HD
ATOM     46 HZ2  LYS B 184       1.481  42.487   5.280  1.00 53.06 LIG 0.27  HD
ATOM     47 HZ1  LYS B 184       1.984  43.850   5.243  1.00 53.06 LIG 0.27  HD
ENDBRANCH 43 44
ENDBRANCH 42 43
ENDBRANCH 41 42
ENDBRANCH 40 41
ENDBRANCH 39 40
BRANCH 39 48
ATOM     48  N   LYS B 184       2.330  37.962  10.131  1.00 95.16 LIG-0.35  N 
ATOM     49 H    LYS B 184       2.998  38.065  10.663  1.00 95.16 LIG 0.16  HD
ATOM     50  C   PRO B 183       1.339  37.096  10.341  1.00102.83 LIG 0.24  C 
ATOM     51 O    PRO B 183       0.391  36.970   9.558  1.00 96.65 LIG-0.27  OA
BRANCH 50 52
ATOM     52  CA  PRO B 183       1.438  36.246  11.605  1.00119.60 LIG 0.18  C 
ATOM     53  N   PRO B 183       1.388  34.798  11.357  1.00125.08 LIG-0.34  N 
ATOM     54  CD  PRO B 183       2.739  34.220  11.218  1.00128.64 LIG 0.13  C 
ATOM     55  C   PRO B 182       0.253  34.114  11.581  1.00122.07 LIG 0.26  C 
ATOM     56  CG  PRO B 183       3.659  35.355  11.652  1.00127.59 LIG 0.02  C 
ATOM     57  CB  PRO B 183       2.797  36.419  12.293  1.00124.68 LIG 0.04  C 
ATOM     58 O    PRO B 182      -0.779  34.637  12.008  1.00123.88 LIG-0.27  OA
BRANCH 55 59
ATOM     59  CA  PRO B 182       0.269  32.609  11.304  1.00115.83 LIG 0.35  C 
ATOM     60  CB  PRO B 182      -0.904  32.210  10.396  1.00111.53 LIG 0.05  C 
ATOM     61  CG  PRO B 182      -1.391  30.898  10.934  1.00111.42 LIG 0.04  C 
ATOM     62  CD  PRO B 182      -1.157  30.965  12.411  1.00113.66 LIG 0.32  C 
ATOM     63  N   PRO B 182       0.044  31.812  12.517  1.00115.25 LIG 0.32  N 
ENDBRANCH 55 59
ENDBRANCH 50 52
ENDBRANCH 39 48
ENDBRANCH 37 39
ENDBRANCH 1 35
TORSDOF 24
ENDMDL
MODEL 32
USER: ADFR SOLUTION from run 20
USER: SCORE 18.258588 LL:  -2.798 LR: -17.472 RR:   0.000 FEB: -10.313
USER: RMSD 7.106424
USER: SEED 19
USER: STATUS no improvement in best in 9 clusters for 5 generations
USER: GENES 26
USER: genes 0 Translation |==|  0.48311 0.64131 0.52245
USER: genes 1 Rotation |==|  0.42508 0.99343 0.46974 0.50135
USER: genes 2 Torsion [C]-CA--CB-[CG] |==|  0.42685
USER: genes 3 Torsion [CA]-CB--CG-[CD] |==|  0.02576
USER: genes 4 Torsion [CB]-CG--CD-[CE] |==|  0.41308
USER: genes 5 Torsion [CG]-CD--CE-[NZ] |==|  0.86116
USER: genes 6 Torsion [CD]-CE--NZ-[HZ1] |==|  0.88484
USER: genes 7 Torsion [N]-CA--C-[N] |==|  0.37797
USER: genes 8 Torsion [C]-N--CA-[CB] |==|  0.46673
USER: genes 9 Torsion [N]-CA--CB-[CG] |==|  0.55344
USER: genes 10 Torsion [CA]-CB--CG-[CD] |==|  0.67111
USER: genes 11 Torsion [CB]-CG--CD-[NE] |==|  0.70902
USER: genes 12 Torsion [CG]-CD--NE-[CZ] |==|  0.18440
USER: genes 13 Torsion [N]-CA--C-[N] |==|  0.84039
USER: genes 14 Torsion [C]-N--CA-[C] |==|  0.67160
USER: genes 15 Torsion [N]-CA--C-[O] |==|  0.26756
USER: genes 16 Torsion [CB]-CA--N-[C] |==|  0.85788
USER: genes 17 Torsion [N]-C--CA-[N] |==|  0.18812
USER: genes 18 Torsion [C]-CA--CB-[CG] |==|  0.28520
USER: genes 19 Torsion [CA]-CB--CG-[CD] |==|  0.22187
USER: genes 20 Torsion [CB]-CG--CD-[CE] |==|  0.77439
USER: genes 21 Torsion [CG]-CD--CE-[NZ] |==|  0.93161
USER: genes 22 Torsion [CD]-CE--NZ-[HZ3] |==|  0.31038
USER: genes 23 Torsion [C]-CA--N-[C] |==|  0.16838
USER: genes 24 Torsion [N]-C--CA-[N] |==|  0.88574
USER: genes 25 Torsion [N]-C--CA-[CB] |==|  0.79073
ROOT
ATOM      1  CA  LYS B 185       2.068  38.540   7.251  1.00 91.41 LIG 0.18  C 
ENDROOT
BRANCH 1 2
ATOM      2  CB  LYS B 185       2.965  38.201   6.055  1.00 90.53 LIG 0.04  C 
BRANCH 2 3
ATOM      3  CG  LYS B 185       2.323  38.311   4.674  1.00 86.81 LIG 0.00  C 
BRANCH 3 4
ATOM      4  CD  LYS B 185       0.941  38.970   4.758  1.00 79.71 LIG 0.03  C 
BRANCH 4 5
ATOM      5  CE  LYS B 185       0.593  39.776   3.503  1.00 72.24 LIG 0.23  C 
BRANCH 5 6
ATOM      6  NZ  LYS B 185       1.669  40.725   3.093  1.00 67.20 LIG-0.08  N 
ATOM      7 HZ1  LYS B 185       2.008  41.121   3.815  1.00 67.20 LIG 0.27  HD
ATOM      8 HZ3  LYS B 185       1.330  41.341   2.548  1.00 67.20 LIG 0.27  HD
ATOM      9 HZ2  LYS B 185       2.314  40.279   2.671  1.00 67.20 LIG 0.27  HD
ENDBRANCH 5 6
ENDBRANCH 4 5
ENDBRANCH 3 4
ENDBRANCH 2 3
ENDBRANCH 1 2
BRANCH 1 10
ATOM     10  C   LYS B 185       2.561  37.800   8.490  1.00 87.67 LIG 0.24  C 
ATOM     11 O    LYS B 185       3.540  38.215   9.119  1.00 75.85 LIG-0.27  OA
ATOM     12  N   ARG B 186       1.889  36.698   8.816  1.00 93.18 LIG-0.35  N 
ATOM     13 H    ARG B 186       1.177  36.450   8.405  1.00 93.18 LIG 0.16  HD
BRANCH 12 14
ATOM     14  CA  ARG B 186       2.276  35.794   9.896  1.00 93.88 LIG 0.18  C 
BRANCH 14 15
ATOM     15  CB  ARG B 186       1.118  34.820  10.165  1.00 94.11 LIG 0.04  C 
BRANCH 15 16
ATOM     16  CG  ARG B 186       1.201  34.157  11.534  1.00 91.13 LIG 0.02  C 
BRANCH 16 17
ATOM     17  CD  ARG B 186       1.332  32.645  11.448  1.00 90.43 LIG 0.14  C 
BRANCH 17 18
ATOM     18  NE  ARG B 186       0.072  31.986  11.789  1.00 88.65 LIG-0.23  N 
ATOM     19 HE   ARG B 186       0.045  31.512  12.506  1.00 88.65 LIG 0.18  HD
ATOM     20  CZ  ARG B 186      -1.037  32.077  11.058  1.00 77.61 LIG 0.67  C 
ATOM     21  NH2 ARG B 186      -2.141  31.444  11.433  1.00 64.46 LIG-0.23  N 
ATOM     22  NH1 ARG B 186      -1.041  32.805   9.951  1.00 71.89 LIG-0.23  N 
ATOM     23 2HH2 ARG B 186      -2.854  31.506  10.957  1.00 64.46 LIG 0.17  HD
ATOM     24 1HH2 ARG B 186      -2.144  30.973  12.152  1.00 64.46 LIG 0.17  HD
ATOM     25 1HH1 ARG B 186      -0.328  33.218   9.706  1.00 71.89 LIG 0.17  HD
ATOM     26 2HH1 ARG B 186      -1.757  32.863   9.478  1.00 71.89 LIG 0.17  HD
ENDBRANCH 17 18
ENDBRANCH 16 17
ENDBRANCH 15 16
ENDBRANCH 14 15
BRANCH 14 27
ATOM     27  C   ARG B 186       3.579  35.080   9.477  1.00100.48 LIG 0.24  C 
ATOM     28  N   ALA B 187       3.633  34.363   8.345  1.00104.89 LIG-0.35  N 
ATOM     29 H    ALA B 187       4.353  33.958   8.106  1.00104.89 LIG 0.16  HD
ATOM     30 O    ARG B 186       4.562  35.170  10.216  1.00101.56 LIG-0.27  OA
BRANCH 28 31
ATOM     31  CA  ALA B 187       2.545  34.163   7.387  1.00100.92 LIG 0.16  C 
ATOM     32  CB  ALA B 187       2.939  34.713   6.007  1.00 98.55 LIG 0.04  C 
BRANCH 31 33
ATOM     33  C   ALA B 187       2.170  32.687   7.272  1.00 96.24 LIG 0.22  C 
ATOM     34 O    ALA B 187       1.230  32.225   7.921  1.00 95.92 LIG-0.29  OA
ENDBRANCH 31 33
ENDBRANCH 28 31
ENDBRANCH 14 27
ENDBRANCH 12 14
ENDBRANCH 1 10
BRANCH 1 35
ATOM     35  N   LYS B 185       2.031  39.978   7.512  1.00 94.70 LIG-0.35  N 
ATOM     36 H    LYS B 185       1.234  40.296   7.576  1.00 94.70 LIG 0.16  HD
ATOM     37  C   LYS B 184       3.130  40.730   7.640  1.00 95.69 LIG 0.24  C 
ATOM     38 O    LYS B 184       4.271  40.286   7.479  1.00 96.36 LIG-0.27  OA
BRANCH 37 39
ATOM     39  CA  LYS B 184       2.902  42.192   8.011  1.00 89.09 LIG 0.18  C 
BRANCH 39 40
ATOM     40  CB  LYS B 184       4.203  42.991   7.878  1.00 73.03 LIG 0.04  C 
BRANCH 40 41
ATOM     41  CG  LYS B 184       4.276  43.853   6.611  1.00 60.77 LIG 0.00  C 
BRANCH 41 42
ATOM     42  CD  LYS B 184       3.498  45.148   6.766  1.00 63.88 LIG 0.03  C 
BRANCH 42 43
ATOM     43  CE  LYS B 184       1.999  44.966   6.535  1.00 60.38 LIG 0.23  C 
BRANCH 43 44
ATOM     44  NZ  LYS B 184       1.609  43.796   5.671  1.00 53.06 LIG-0.08  N 
ATOM     45 HZ3  LYS B 184       1.190  43.187   6.167  1.00 53.06 LIG 0.27  HD
ATOM     46 HZ2  LYS B 184       2.339  43.434   5.313  1.00 53.06 LIG 0.27  HD
ATOM     47 HZ1  LYS B 184       1.067  44.074   5.022  1.00 53.06 LIG 0.27  HD
ENDBRANCH 43 44
ENDBRANCH 42 43
ENDBRANCH 41 42
ENDBRANCH 40 41
ENDBRANCH 39 40
BRANCH 39 48
ATOM     48  N   LYS B 184       2.379  42.305   9.367  1.00 95.16 LIG-0.35  N 
ATOM     49 H    LYS B 184       1.605  42.677   9.419  1.00 95.16 LIG 0.16  HD
ATOM     50  C   PRO B 183       3.061  41.859  10.421  1.00102.83 LIG 0.24  C 
ATOM     51 O    PRO B 183       4.171  41.326  10.316  1.00 96.65 LIG-0.27  OA
BRANCH 50 52
ATOM     52  CA  PRO B 183       2.405  42.052  11.785  1.00119.60 LIG 0.18  C 
ATOM     53  N   PRO B 183       1.746  43.356  11.953  1.00125.08 LIG-0.34  N 
ATOM     54  CD  PRO B 183       0.315  43.295  11.602  1.00128.64 LIG 0.13  C 
ATOM     55  C   PRO B 182       2.349  44.330  12.657  1.00122.07 LIG 0.26  C 
ATOM     56  CG  PRO B 183       0.048  41.803  11.445  1.00127.59 LIG 0.02  C 
ATOM     57  CB  PRO B 183       1.249  41.067  11.996  1.00124.68 LIG 0.04  C 
ATOM     58 O    PRO B 182       3.447  44.191  13.201  1.00123.88 LIG-0.27  OA
BRANCH 55 59
ATOM     59  CA  PRO B 182       1.609  45.662  12.795  1.00115.83 LIG 0.35  C 
ATOM     60  CB  PRO B 182       1.683  46.464  11.487  1.00111.53 LIG 0.05  C 
ATOM     61  CG  PRO B 182       1.872  47.890  11.908  1.00111.42 LIG 0.04  C 
ATOM     62  CD  PRO B 182       2.676  47.827  13.168  1.00113.66 LIG 0.32  C 
ATOM     63  N   PRO B 182       2.239  46.556  13.775  1.00115.25 LIG 0.32  N 
ENDBRANCH 55 59
ENDBRANCH 50 52
ENDBRANCH 39 48
ENDBRANCH 37 39
ENDBRANCH 1 35
TORSDOF 24
ENDMDL
MODEL 33
USER: ADFR SOLUTION from run 152
USER: SCORE 19.606742 LL:  -3.432 LR: -17.460 RR:   0.000 FEB: -10.301
USER: RMSD 10.235112
USER: SEED 151
USER: STATUS no improvement in best in 5 clusters for 5 generations
USER: GENES 26
USER: genes 0 Translation |==|  0.47519 0.59794 0.42075
USER: genes 1 Rotation |==|  0.88408 0.38098 0.20449 0.53144
USER: genes 2 Torsion [C]-CA--CB-[CG] |==|  0.08456
USER: genes 3 Torsion [CA]-CB--CG-[CD] |==|  0.27154
USER: genes 4 Torsion [CB]-CG--CD-[CE] |==|  0.29843
USER: genes 5 Torsion [CG]-CD--CE-[NZ] |==|  0.31986
USER: genes 6 Torsion [CD]-CE--NZ-[HZ1] |==|  0.34202
USER: genes 7 Torsion [N]-CA--C-[N] |==|  0.38452
USER: genes 8 Torsion [C]-N--CA-[CB] |==|  0.76499
USER: genes 9 Torsion [N]-CA--CB-[CG] |==|  0.69429
USER: genes 10 Torsion [CA]-CB--CG-[CD] |==|  0.65506
USER: genes 11 Torsion [CB]-CG--CD-[NE] |==|  0.66739
USER: genes 12 Torsion [CG]-CD--NE-[CZ] |==|  0.75146
USER: genes 13 Torsion [N]-CA--C-[N] |==|  0.19645
USER: genes 14 Torsion [C]-N--CA-[C] |==|  0.62589
USER: genes 15 Torsion [N]-CA--C-[O] |==|  0.94834
USER: genes 16 Torsion [CB]-CA--N-[C] |==|  0.47427
USER: genes 17 Torsion [N]-C--CA-[N] |==|  0.44994
USER: genes 18 Torsion [C]-CA--CB-[CG] |==|  0.25381
USER: genes 19 Torsion [CA]-CB--CG-[CD] |==|  0.29493
USER: genes 20 Torsion [CB]-CG--CD-[CE] |==|  0.76104
USER: genes 21 Torsion [CG]-CD--CE-[NZ] |==|  0.74895
USER: genes 22 Torsion [CD]-CE--NZ-[HZ3] |==|  0.28349
USER: genes 23 Torsion [C]-CA--N-[C] |==|  0.62754
USER: genes 24 Torsion [N]-C--CA-[N] |==|  0.95140
USER: genes 25 Torsion [N]-C--CA-[CB] |==|  0.86178
ROOT
ATOM      1  CA  LYS B 185       1.931  37.369   5.191  1.00 91.41 LIG 0.18  C 
ENDROOT
BRANCH 1 2
ATOM      2  CB  LYS B 185       0.744  38.329   5.335  1.00 90.53 LIG 0.04  C 
BRANCH 2 3
ATOM      3  CG  LYS B 185       0.981  39.770   4.890  1.00 86.81 LIG 0.00  C 
BRANCH 3 4
ATOM      4  CD  LYS B 185       0.456  40.002   3.467  1.00 79.71 LIG 0.03  C 
BRANCH 4 5
ATOM      5  CE  LYS B 185      -0.820  40.848   3.439  1.00 72.24 LIG 0.23  C 
BRANCH 5 6
ATOM      6  NZ  LYS B 185      -0.641  42.166   2.763  1.00 67.20 LIG-0.08  N 
ATOM      7 HZ1  LYS B 185      -1.224  42.239   2.094  1.00 67.20 LIG 0.27  HD
ATOM      8 HZ3  LYS B 185       0.187  42.225   2.442  1.00 67.20 LIG 0.27  HD
ATOM      9 HZ2  LYS B 185      -0.779  42.821   3.349  1.00 67.20 LIG 0.27  HD
ENDBRANCH 5 6
ENDBRANCH 4 5
ENDBRANCH 3 4
ENDBRANCH 2 3
ENDBRANCH 1 2
BRANCH 1 10
ATOM     10  C   LYS B 185       3.238  38.139   5.354  1.00 87.67 LIG 0.24  C 
ATOM     11 O    LYS B 185       3.664  38.419   6.479  1.00 75.85 LIG-0.27  OA
ATOM     12  N   ARG B 186       3.849  38.494   4.226  1.00 93.18 LIG-0.35  N 
ATOM     13 H    ARG B 186       3.573  38.247   3.450  1.00 93.18 LIG 0.16  HD
BRANCH 12 14
ATOM     14  CA  ARG B 186       5.045  39.331   4.172  1.00 93.88 LIG 0.18  C 
BRANCH 14 15
ATOM     15  CB  ARG B 186       4.618  40.807   4.211  1.00 94.11 LIG 0.04  C 
BRANCH 15 16
ATOM     16  CG  ARG B 186       4.844  41.528   2.888  1.00 91.13 LIG 0.02  C 
BRANCH 16 17
ATOM     17  CD  ARG B 186       5.709  42.769   3.034  1.00 90.43 LIG 0.14  C 
BRANCH 17 18
ATOM     18  NE  ARG B 186       4.987  43.968   2.612  1.00 88.65 LIG-0.23  N 
ATOM     19 HE   ARG B 186       4.537  44.399   3.205  1.00 88.65 LIG 0.18  HD
ATOM     20  CZ  ARG B 186       4.984  44.434   1.364  1.00 77.61 LIG 0.67  C 
ATOM     21  NH2 ARG B 186       4.299  45.528   1.059  1.00 64.46 LIG-0.23  N 
ATOM     22  NH1 ARG B 186       5.671  43.805   0.422  1.00 71.89 LIG-0.23  N 
ATOM     23 2HH2 ARG B 186       4.301  45.825   0.251  1.00 64.46 LIG 0.17  HD
ATOM     24 1HH2 ARG B 186       3.853  45.941   1.668  1.00 64.46 LIG 0.17  HD
ATOM     25 1HH1 ARG B 186       6.119  43.097   0.617  1.00 71.89 LIG 0.17  HD
ATOM     26 2HH1 ARG B 186       5.669  44.106  -0.384  1.00 71.89 LIG 0.17  HD
ENDBRANCH 17 18
ENDBRANCH 16 17
ENDBRANCH 15 16
ENDBRANCH 14 15
BRANCH 14 27
ATOM     27  C   ARG B 186       5.958  38.935   5.353  1.00100.48 LIG 0.24  C 
ATOM     28  N   ALA B 187       6.599  37.757   5.359  1.00104.89 LIG-0.35  N 
ATOM     29 H    ALA B 187       7.105  37.526   6.014  1.00104.89 LIG 0.16  HD
ATOM     30 O    ARG B 186       6.068  39.720   6.298  1.00101.56 LIG-0.27  OA
BRANCH 28 31
ATOM     31  CA  ALA B 187       6.548  36.732   4.315  1.00100.92 LIG 0.16  C 
ATOM     32  CB  ALA B 187       7.829  36.768   3.467  1.00 98.55 LIG 0.04  C 
BRANCH 31 33
ATOM     33  C   ALA B 187       6.357  35.340   4.912  1.00 96.24 LIG 0.22  C 
ATOM     34 O    ALA B 187       6.602  35.128   6.101  1.00 95.92 LIG-0.29  OA
ENDBRANCH 31 33
ENDBRANCH 28 31
ENDBRANCH 14 27
ENDBRANCH 12 14
ENDBRANCH 1 10
BRANCH 1 35
ATOM     35  N   LYS B 185       1.871  36.281   6.165  1.00 94.70 LIG-0.35  N 
ATOM     36 H    LYS B 185       1.263  36.386   6.763  1.00 94.70 LIG 0.16  HD
ATOM     37  C   LYS B 184       2.685  35.220   6.131  1.00 95.69 LIG 0.24  C 
ATOM     38 O    LYS B 184       3.604  35.102   5.313  1.00 96.36 LIG-0.27  OA
BRANCH 37 39
ATOM     39  CA  LYS B 184       2.413  34.132   7.167  1.00 89.09 LIG 0.18  C 
BRANCH 39 40
ATOM     40  CB  LYS B 184       2.903  34.572   8.551  1.00 73.03 LIG 0.04  C 
BRANCH 40 41
ATOM     41  CG  LYS B 184       1.836  35.288   9.389  1.00 60.77 LIG 0.00  C 
BRANCH 41 42
ATOM     42  CD  LYS B 184       1.311  34.402  10.506  1.00 63.88 LIG 0.03  C 
BRANCH 42 43
ATOM     43  CE  LYS B 184       0.166  33.499  10.053  1.00 60.38 LIG 0.23  C 
BRANCH 43 44
ATOM     44  NZ  LYS B 184      -1.218  34.071  10.209  1.00 53.06 LIG-0.08  N 
ATOM     45 HZ3  LYS B 184      -1.512  34.356   9.419  1.00 53.06 LIG 0.27  HD
ATOM     46 HZ2  LYS B 184      -1.195  34.753  10.780  1.00 53.06 LIG 0.27  HD
ATOM     47 HZ1  LYS B 184      -1.766  33.442  10.520  1.00 53.06 LIG 0.27  HD
ENDBRANCH 43 44
ENDBRANCH 42 43
ENDBRANCH 41 42
ENDBRANCH 40 41
ENDBRANCH 39 40
BRANCH 39 48
ATOM     48  N   LYS B 184       3.051  32.880   6.780  1.00 95.16 LIG-0.35  N 
ATOM     49 H    LYS B 184       3.865  32.964   6.516  1.00 95.16 LIG 0.16  HD
ATOM     50  C   PRO B 183       2.405  31.717   6.841  1.00102.83 LIG 0.24  C 
ATOM     51 O    PRO B 183       1.234  31.627   7.226  1.00 96.65 LIG-0.27  OA
BRANCH 50 52
ATOM     52  CA  PRO B 183       3.185  30.484   6.393  1.00119.60 LIG 0.18  C 
ATOM     53  N   PRO B 183       4.376  30.789   5.588  1.00125.08 LIG-0.34  N 
ATOM     54  CD  PRO B 183       5.589  30.889   6.422  1.00128.64 LIG 0.13  C 
ATOM     55  C   PRO B 182       4.344  30.643   4.252  1.00122.07 LIG 0.26  C 
ATOM     56  CG  PRO B 183       5.131  30.372   7.781  1.00127.59 LIG 0.02  C 
ATOM     57  CB  PRO B 183       3.776  29.729   7.589  1.00124.68 LIG 0.04  C 
ATOM     58 O    PRO B 182       3.351  30.242   3.640  1.00123.88 LIG-0.27  OA
BRANCH 55 59
ATOM     59  CA  PRO B 182       5.618  30.977   3.474  1.00115.83 LIG 0.35  C 
ATOM     60  CB  PRO B 182       6.163  32.352   3.886  1.00111.53 LIG 0.05  C 
ATOM     61  CG  PRO B 182       6.648  32.982   2.615  1.00111.42 LIG 0.04  C 
ATOM     62  CD  PRO B 182       5.734  32.471   1.546  1.00113.66 LIG 0.32  C 
ATOM     63  N   PRO B 182       5.374  31.127   2.033  1.00115.25 LIG 0.32  N 
ENDBRANCH 55 59
ENDBRANCH 50 52
ENDBRANCH 39 48
ENDBRANCH 37 39
ENDBRANCH 1 35
TORSDOF 24
ENDMDL
MODEL 34
USER: ADFR SOLUTION from run 191
USER: SCORE 19.330626 LL:  -3.843 LR: -17.455 RR:   0.000 FEB: -10.295
USER: RMSD 9.144067
USER: SEED 190
USER: STATUS searching
USER: GENES 26
USER: genes 0 Translation |==|  0.51165 0.55537 0.44111
USER: genes 1 Rotation |==|  0.88541 0.39445 0.20154 0.53520
USER: genes 2 Torsion [C]-CA--CB-[CG] |==|  0.08662
USER: genes 3 Torsion [CA]-CB--CG-[CD] |==|  0.32487
USER: genes 4 Torsion [CB]-CG--CD-[CE] |==|  0.40809
USER: genes 5 Torsion [CG]-CD--CE-[NZ] |==|  0.35565
USER: genes 6 Torsion [CD]-CE--NZ-[HZ1] |==|  0.49141
USER: genes 7 Torsion [N]-CA--C-[N] |==|  0.36748
USER: genes 8 Torsion [C]-N--CA-[CB] |==|  0.21593
USER: genes 9 Torsion [N]-CA--CB-[CG] |==|  0.22500
USER: genes 10 Torsion [CA]-CB--CG-[CD] |==|  0.76148
USER: genes 11 Torsion [CB]-CG--CD-[NE] |==|  0.36959
USER: genes 12 Torsion [CG]-CD--NE-[CZ] |==|  0.40406
USER: genes 13 Torsion [N]-CA--C-[N] |==|  0.30350
USER: genes 14 Torsion [C]-N--CA-[C] |==|  0.76501
USER: genes 15 Torsion [N]-CA--C-[O] |==|  0.90739
USER: genes 16 Torsion [CB]-CA--N-[C] |==|  0.50112
USER: genes 17 Torsion [N]-C--CA-[N] |==|  0.02324
USER: genes 18 Torsion [C]-CA--CB-[CG] |==|  0.73735
USER: genes 19 Torsion [CA]-CB--CG-[CD] |==|  0.44632
USER: genes 20 Torsion [CB]-CG--CD-[CE] |==|  0.93008
USER: genes 21 Torsion [CG]-CD--CE-[NZ] |==|  0.68571
USER: genes 22 Torsion [CD]-CE--NZ-[HZ3] |==|  0.33332
USER: genes 23 Torsion [C]-CA--N-[C] |==|  0.66216
USER: genes 24 Torsion [N]-C--CA-[N] |==|  0.40267
USER: genes 25 Torsion [N]-C--CA-[CB] |==|  0.80912
ROOT
ATOM      1  CA  LYS B 185       2.560  36.220   5.604  1.00 91.41 LIG 0.18  C 
ENDROOT
BRANCH 1 2
ATOM      2  CB  LYS B 185       1.328  37.114   5.785  1.00 90.53 LIG 0.04  C 
BRANCH 2 3
ATOM      3  CG  LYS B 185       1.481  38.571   5.354  1.00 86.81 LIG 0.00  C 
BRANCH 3 4
ATOM      4  CD  LYS B 185       0.528  38.909   4.201  1.00 79.71 LIG 0.03  C 
BRANCH 4 5
ATOM      5  CE  LYS B 185       0.030  40.356   4.251  1.00 72.24 LIG 0.23  C 
BRANCH 5 6
ATOM      6  NZ  LYS B 185       0.224  41.093   2.967  1.00 67.20 LIG-0.08  N 
ATOM      7 HZ1  LYS B 185      -0.122  41.910   3.038  1.00 67.20 LIG 0.27  HD
ATOM      8 HZ3  LYS B 185      -0.184  40.655   2.309  1.00 67.20 LIG 0.27  HD
ATOM      9 HZ2  LYS B 185       1.094  41.154   2.789  1.00 67.20 LIG 0.27  HD
ENDBRANCH 5 6
ENDBRANCH 4 5
ENDBRANCH 3 4
ENDBRANCH 2 3
ENDBRANCH 1 2
BRANCH 1 10
ATOM     10  C   LYS B 185       3.828  37.052   5.768  1.00 87.67 LIG 0.24  C 
ATOM     11 O    LYS B 185       4.193  37.422   6.889  1.00 75.85 LIG-0.27  OA
ATOM     12  N   ARG B 186       4.476  37.355   4.646  1.00 93.18 LIG-0.35  N 
ATOM     13 H    ARG B 186       4.243  37.046   3.878  1.00 93.18 LIG 0.16  HD
BRANCH 12 14
ATOM     14  CA  ARG B 186       5.641  38.235   4.585  1.00 93.88 LIG 0.18  C 
BRANCH 14 15
ATOM     15  CB  ARG B 186       6.876  37.454   5.062  1.00 94.11 LIG 0.04  C 
BRANCH 15 16
ATOM     16  CG  ARG B 186       7.472  36.564   3.979  1.00 91.13 LIG 0.02  C 
BRANCH 16 17
ATOM     17  CD  ARG B 186       6.808  35.199   3.907  1.00 90.43 LIG 0.14  C 
BRANCH 17 18
ATOM     18  NE  ARG B 186       6.484  34.842   2.527  1.00 88.65 LIG-0.23  N 
ATOM     19 HE   ARG B 186       6.248  35.472   1.991  1.00 88.65 LIG 0.18  HD
ATOM     20  CZ  ARG B 186       6.532  33.600   2.048  1.00 77.61 LIG 0.67  C 
ATOM     21  NH2 ARG B 186       6.218  33.357   0.782  1.00 64.46 LIG-0.23  N 
ATOM     22  NH1 ARG B 186       6.899  32.602   2.837  1.00 71.89 LIG-0.23  N 
ATOM     23 2HH2 ARG B 186       6.251  32.553   0.479  1.00 64.46 LIG 0.17  HD
ATOM     24 1HH2 ARG B 186       5.982  34.003   0.266  1.00 64.46 LIG 0.17  HD
ATOM     25 1HH1 ARG B 186       7.106  32.756   3.658  1.00 71.89 LIG 0.17  HD
ATOM     26 2HH1 ARG B 186       6.930  31.799   2.529  1.00 71.89 LIG 0.17  HD
ENDBRANCH 17 18
ENDBRANCH 16 17
ENDBRANCH 15 16
ENDBRANCH 14 15
BRANCH 14 27
ATOM     27  C   ARG B 186       5.774  38.750   3.136  1.00100.48 LIG 0.24  C 
ATOM     28  N   ALA B 187       5.510  40.030   2.837  1.00104.89 LIG-0.35  N 
ATOM     29 H    ALA B 187       5.576  40.325   2.032  1.00104.89 LIG 0.16  HD
ATOM     30 O    ARG B 186       6.110  37.952   2.258  1.00101.56 LIG-0.27  OA
BRANCH 28 31
ATOM     31  CA  ALA B 187       5.092  41.076   3.773  1.00100.92 LIG 0.16  C 
ATOM     32  CB  ALA B 187       5.523  42.458   3.258  1.00 98.55 LIG 0.04  C 
BRANCH 31 33
ATOM     33  C   ALA B 187       3.582  41.051   3.995  1.00 96.24 LIG 0.22  C 
ATOM     34 O    ALA B 187       2.818  40.725   3.084  1.00 95.92 LIG-0.29  OA
ENDBRANCH 31 33
ENDBRANCH 28 31
ENDBRANCH 14 27
ENDBRANCH 12 14
ENDBRANCH 1 10
BRANCH 1 35
ATOM     35  N   LYS B 185       2.569  35.107   6.552  1.00 94.70 LIG-0.35  N 
ATOM     36 H    LYS B 185       1.888  35.097   7.077  1.00 94.70 LIG 0.16  HD
ATOM     37  C   LYS B 184       3.542  34.191   6.600  1.00 95.69 LIG 0.24  C 
ATOM     38 O    LYS B 184       4.553  34.246   5.893  1.00 96.36 LIG-0.27  OA
BRANCH 37 39
ATOM     39  CA  LYS B 184       3.335  33.044   7.585  1.00 89.09 LIG 0.18  C 
BRANCH 39 40
ATOM     40  CB  LYS B 184       3.583  31.695   6.902  1.00 73.03 LIG 0.04  C 
BRANCH 40 41
ATOM     41  CG  LYS B 184       2.311  31.030   6.360  1.00 60.77 LIG 0.00  C 
BRANCH 41 42
ATOM     42  CD  LYS B 184       2.629  29.978   5.311  1.00 63.88 LIG 0.03  C 
BRANCH 42 43
ATOM     43  CE  LYS B 184       3.962  30.231   4.610  1.00 60.38 LIG 0.23  C 
BRANCH 43 44
ATOM     44  NZ  LYS B 184       3.875  30.586   3.149  1.00 53.06 LIG-0.08  N 
ATOM     45 HZ3  LYS B 184       4.233  31.390   3.017  1.00 53.06 LIG 0.27  HD
ATOM     46 HZ2  LYS B 184       3.021  30.598   2.897  1.00 53.06 LIG 0.27  HD
ATOM     47 HZ1  LYS B 184       4.317  29.981   2.669  1.00 53.06 LIG 0.27  HD
ENDBRANCH 43 44
ENDBRANCH 42 43
ENDBRANCH 41 42
ENDBRANCH 40 41
ENDBRANCH 39 40
BRANCH 39 48
ATOM     48  N   LYS B 184       1.992  33.084   8.149  1.00 95.16 LIG-0.35  N 
ATOM     49 H    LYS B 184       1.361  33.041   7.565  1.00 95.16 LIG 0.16  HD
ATOM     50  C   PRO B 183       1.785  33.180   9.461  1.00102.83 LIG 0.24  C 
ATOM     51 O    PRO B 183       2.711  33.239  10.277  1.00 96.65 LIG-0.27  OA
BRANCH 50 52
ATOM     52  CA  PRO B 183       0.328  33.227   9.917  1.00119.60 LIG 0.18  C 
ATOM     53  N   PRO B 183       0.080  32.548  11.197  1.00125.08 LIG-0.34  N 
ATOM     54  CD  PRO B 183       0.159  33.482  12.336  1.00128.64 LIG 0.13  C 
ATOM     55  C   PRO B 182      -0.472  31.322  11.213  1.00122.07 LIG 0.26  C 
ATOM     56  CG  PRO B 183       0.219  34.852  11.671  1.00127.59 LIG 0.02  C 
ATOM     57  CB  PRO B 183      -0.121  34.664  10.209  1.00124.68 LIG 0.04  C 
ATOM     58 O    PRO B 182      -0.807  30.718  10.192  1.00123.88 LIG-0.27  OA
BRANCH 55 59
ATOM     59  CA  PRO B 182      -0.705  30.672  12.579  1.00115.83 LIG 0.35  C 
ATOM     60  CB  PRO B 182       0.631  30.312  13.246  1.00111.53 LIG 0.05  C 
ATOM     61  CG  PRO B 182       0.398  28.986  13.906  1.00111.42 LIG 0.04  C 
ATOM     62  CD  PRO B 182      -0.584  28.275  13.029  1.00113.66 LIG 0.32  C 
ATOM     63  N   PRO B 182      -1.391  29.377  12.474  1.00115.25 LIG 0.32  N 
ENDBRANCH 55 59
ENDBRANCH 50 52
ENDBRANCH 39 48
ENDBRANCH 37 39
ENDBRANCH 1 35
TORSDOF 24
ENDMDL
MODEL 35
USER: ADFR SOLUTION from run 108
USER: SCORE 18.593020 LL:  -3.697 LR: -17.452 RR:   0.000 FEB: -10.293
USER: RMSD 7.850260
USER: SEED 107
USER: STATUS no improvement in best in 7 clusters for 5 generations
USER: GENES 26
USER: genes 0 Translation |==|  0.56871 0.46826 0.46838
USER: genes 1 Rotation |==|  0.46572 0.97446 0.42362 0.63373
USER: genes 2 Torsion [C]-CA--CB-[CG] |==|  0.52730
USER: genes 3 Torsion [CA]-CB--CG-[CD] |==|  0.62077
USER: genes 4 Torsion [CB]-CG--CD-[CE] |==|  0.49377
USER: genes 5 Torsion [CG]-CD--CE-[NZ] |==|  0.69038
USER: genes 6 Torsion [CD]-CE--NZ-[HZ1] |==|  0.05017
USER: genes 7 Torsion [N]-CA--C-[N] |==|  0.09596
USER: genes 8 Torsion [C]-N--CA-[CB] |==|  0.50556
USER: genes 9 Torsion [N]-CA--CB-[CG] |==|  0.57264
USER: genes 10 Torsion [CA]-CB--CG-[CD] |==|  0.69519
USER: genes 11 Torsion [CB]-CG--CD-[NE] |==|  0.26507
USER: genes 12 Torsion [CG]-CD--NE-[CZ] |==|  0.62981
USER: genes 13 Torsion [N]-CA--C-[N] |==|  0.38370
USER: genes 14 Torsion [C]-N--CA-[C] |==|  0.80729
USER: genes 15 Torsion [N]-CA--C-[O] |==|  0.28878
USER: genes 16 Torsion [CB]-CA--N-[C] |==|  0.37201
USER: genes 17 Torsion [N]-C--CA-[N] |==|  0.23893
USER: genes 18 Torsion [C]-CA--CB-[CG] |==|  0.46778
USER: genes 19 Torsion [CA]-CB--CG-[CD] |==|  0.25438
USER: genes 20 Torsion [CB]-CG--CD-[CE] |==|  0.13474
USER: genes 21 Torsion [CG]-CD--CE-[NZ] |==|  0.61997
USER: genes 22 Torsion [CD]-CE--NZ-[HZ3] |==|  0.76826
USER: genes 23 Torsion [C]-CA--N-[C] |==|  0.75243
USER: genes 24 Torsion [N]-C--CA-[N] |==|  0.29373
USER: genes 25 Torsion [N]-C--CA-[CB] |==|  0.70068
ROOT
ATOM      1  CA  LYS B 185       3.544  33.868   6.156  1.00 91.41 LIG 0.18  C 
ENDROOT
BRANCH 1 2
ATOM      2  CB  LYS B 185       4.880  33.297   5.665  1.00 90.53 LIG 0.04  C 
BRANCH 2 3
ATOM      3  CG  LYS B 185       5.490  33.966   4.436  1.00 86.81 LIG 0.00  C 
BRANCH 3 4
ATOM      4  CD  LYS B 185       6.032  32.923   3.450  1.00 79.71 LIG 0.03  C 
BRANCH 4 5
ATOM      5  CE  LYS B 185       6.604  33.553   2.178  1.00 72.24 LIG 0.23  C 
BRANCH 5 6
ATOM      6  NZ  LYS B 185       5.792  33.267   0.959  1.00 67.20 LIG-0.08  N 
ATOM      7 HZ1  LYS B 185       4.977  33.000   1.201  1.00 67.20 LIG 0.27  HD
ATOM      8 HZ3  LYS B 185       6.184  32.624   0.485  1.00 67.20 LIG 0.27  HD
ATOM      9 HZ2  LYS B 185       5.728  34.004   0.465  1.00 67.20 LIG 0.27  HD
ENDBRANCH 5 6
ENDBRANCH 4 5
ENDBRANCH 3 4
ENDBRANCH 2 3
ENDBRANCH 1 2
BRANCH 1 10
ATOM     10  C   LYS B 185       3.195  33.264   7.512  1.00 87.67 LIG 0.24  C 
ATOM     11 O    LYS B 185       3.673  32.179   7.857  1.00 75.85 LIG-0.27  OA
ATOM     12  N   ARG B 186       2.346  33.965   8.260  1.00 93.18 LIG-0.35  N 
ATOM     13 H    ARG B 186       2.062  34.745   8.035  1.00 93.18 LIG 0.16  HD
BRANCH 12 14
ATOM     14  CA  ARG B 186       1.802  33.500   9.535  1.00 93.88 LIG 0.18  C 
BRANCH 14 15
ATOM     15  CB  ARG B 186       0.825  34.559  10.071  1.00 94.11 LIG 0.04  C 
BRANCH 15 16
ATOM     16  CG  ARG B 186       0.687  34.530  11.587  1.00 91.13 LIG 0.02  C 
BRANCH 16 17
ATOM     17  CD  ARG B 186      -0.666  34.014  12.046  1.00 90.43 LIG 0.14  C 
BRANCH 17 18
ATOM     18  NE  ARG B 186      -0.611  32.585  12.349  1.00 88.65 LIG-0.23  N 
ATOM     19 HE   ARG B 186       0.042  32.299  12.830  1.00 88.65 LIG 0.18  HD
ATOM     20  CZ  ARG B 186      -1.511  31.699  11.926  1.00 77.61 LIG 0.67  C 
ATOM     21  NH2 ARG B 186      -1.388  30.416  12.240  1.00 64.46 LIG-0.23  N 
ATOM     22  NH1 ARG B 186      -2.537  32.100  11.190  1.00 71.89 LIG-0.23  N 
ATOM     23 2HH2 ARG B 186      -1.972  29.849  11.964  1.00 64.46 LIG 0.17  HD
ATOM     24 1HH2 ARG B 186      -0.725  30.152  12.720  1.00 64.46 LIG 0.17  HD
ATOM     25 1HH1 ARG B 186      -2.621  32.932  10.987  1.00 71.89 LIG 0.17  HD
ATOM     26 2HH1 ARG B 186      -3.119  31.528  10.916  1.00 71.89 LIG 0.17  HD
ENDBRANCH 17 18
ENDBRANCH 16 17
ENDBRANCH 15 16
ENDBRANCH 14 15
BRANCH 14 27
ATOM     27  C   ARG B 186       1.136  32.128   9.297  1.00100.48 LIG 0.24  C 
ATOM     28  N   ALA B 187       1.291  31.129  10.178  1.00104.89 LIG-0.35  N 
ATOM     29 H    ALA B 187       0.929  30.360  10.051  1.00104.89 LIG 0.16  HD
ATOM     30 O    ARG B 186       0.474  31.968   8.269  1.00101.56 LIG-0.27  OA
BRANCH 28 31
ATOM     31  CA  ALA B 187       2.057  31.178  11.425  1.00100.92 LIG 0.16  C 
ATOM     32  CB  ALA B 187       1.753  29.943  12.287  1.00 98.55 LIG 0.04  C 
BRANCH 31 33
ATOM     33  C   ALA B 187       3.556  31.268  11.153  1.00 96.24 LIG 0.22  C 
ATOM     34 O    ALA B 187       4.157  32.335  11.291  1.00 95.92 LIG-0.29  OA
ENDBRANCH 31 33
ENDBRANCH 28 31
ENDBRANCH 14 27
ENDBRANCH 12 14
ENDBRANCH 1 10
BRANCH 1 35
ATOM     35  N   LYS B 185       3.580  35.326   6.255  1.00 94.70 LIG-0.35  N 
ATOM     36 H    LYS B 185       4.286  35.628   6.641  1.00 94.70 LIG 0.16  HD
ATOM     37  C   LYS B 184       2.607  36.117   5.790  1.00 95.69 LIG 0.24  C 
ATOM     38 O    LYS B 184       1.562  35.681   5.297  1.00 96.36 LIG-0.27  OA
BRANCH 37 39
ATOM     39  CA  LYS B 184       2.859  37.619   5.889  1.00 89.09 LIG 0.18  C 
BRANCH 39 40
ATOM     40  CB  LYS B 184       1.535  38.381   6.016  1.00 73.03 LIG 0.04  C 
BRANCH 40 41
ATOM     41  CG  LYS B 184       1.702  39.857   6.401  1.00 60.77 LIG 0.00  C 
BRANCH 41 42
ATOM     42  CD  LYS B 184       1.795  40.751   5.177  1.00 63.88 LIG 0.03  C 
BRANCH 42 43
ATOM     43  CE  LYS B 184       0.695  40.467   4.156  1.00 60.38 LIG 0.23  C 
BRANCH 43 44
ATOM     44  NZ  LYS B 184       1.133  40.428   2.717  1.00 53.06 LIG-0.08  N 
ATOM     45 HZ3  LYS B 184       1.161  41.256   2.392  1.00 53.06 LIG 0.27  HD
ATOM     46 HZ2  LYS B 184       0.556  39.944   2.243  1.00 53.06 LIG 0.27  HD
ATOM     47 HZ1  LYS B 184       1.942  40.061   2.663  1.00 53.06 LIG 0.27  HD
ENDBRANCH 43 44
ENDBRANCH 42 43
ENDBRANCH 41 42
ENDBRANCH 40 41
ENDBRANCH 39 40
BRANCH 39 48
ATOM     48  N   LYS B 184       3.606  38.095   4.731  1.00 95.16 LIG-0.35  N 
ATOM     49 H    LYS B 184       3.114  38.360   4.077  1.00 95.16 LIG 0.16  HD
ATOM     50  C   PRO B 183       4.938  38.107   4.713  1.00102.83 LIG 0.24  C 
ATOM     51 O    PRO B 183       5.619  37.721   5.669  1.00 96.65 LIG-0.27  OA
BRANCH 50 52
ATOM     52  CA  PRO B 183       5.593  38.617   3.432  1.00119.60 LIG 0.18  C 
ATOM     53  N   PRO B 183       6.175  39.962   3.552  1.00125.08 LIG-0.34  N 
ATOM     54  CD  PRO B 183       7.604  39.910   3.913  1.00128.64 LIG 0.13  C 
ATOM     55  C   PRO B 182       5.521  41.025   3.052  1.00122.07 LIG 0.26  C 
ATOM     56  CG  PRO B 183       7.957  38.435   3.763  1.00127.59 LIG 0.02  C 
ATOM     57  CB  PRO B 183       6.807  37.763   3.046  1.00124.68 LIG 0.04  C 
ATOM     58 O    PRO B 182       4.439  40.940   2.468  1.00123.88 LIG-0.27  OA
BRANCH 55 59
ATOM     59  CA  PRO B 182       6.182  42.397   3.208  1.00115.83 LIG 0.35  C 
ATOM     60  CB  PRO B 182       5.440  43.242   4.255  1.00111.53 LIG 0.05  C 
ATOM     61  CG  PRO B 182       5.430  44.635   3.702  1.00111.42 LIG 0.04  C 
ATOM     62  CD  PRO B 182       5.359  44.470   2.217  1.00113.66 LIG 0.32  C 
ATOM     63  N   PRO B 182       6.086  43.209   1.988  1.00115.25 LIG 0.32  N 
ENDBRANCH 55 59
ENDBRANCH 50 52
ENDBRANCH 39 48
ENDBRANCH 37 39
ENDBRANCH 1 35
TORSDOF 24
ENDMDL
MODEL 36
USER: ADFR SOLUTION from run 109
USER: SCORE 19.952866 LL:  -3.337 LR: -17.440 RR:   0.000 FEB: -10.281
USER: RMSD 6.030290
USER: SEED 108
USER: STATUS no improvement in best in 5 clusters for 5 generations
USER: GENES 26
USER: genes 0 Translation |==|  0.53514 0.53199 0.48091
USER: genes 1 Rotation |==|  0.61604 0.08674 0.24697 0.54157
USER: genes 2 Torsion [C]-CA--CB-[CG] |==|  0.35892
USER: genes 3 Torsion [CA]-CB--CG-[CD] |==|  0.35907
USER: genes 4 Torsion [CB]-CG--CD-[CE] |==|  0.46560
USER: genes 5 Torsion [CG]-CD--CE-[NZ] |==|  0.65413
USER: genes 6 Torsion [CD]-CE--NZ-[HZ1] |==|  0.50614
USER: genes 7 Torsion [N]-CA--C-[N] |==|  0.62816
USER: genes 8 Torsion [C]-N--CA-[CB] |==|  0.13505
USER: genes 9 Torsion [N]-CA--CB-[CG] |==|  0.51769
USER: genes 10 Torsion [CA]-CB--CG-[CD] |==|  0.61100
USER: genes 11 Torsion [CB]-CG--CD-[NE] |==|  0.11350
USER: genes 12 Torsion [CG]-CD--NE-[CZ] |==|  0.49121
USER: genes 13 Torsion [N]-CA--C-[N] |==|  0.15000
USER: genes 14 Torsion [C]-N--CA-[C] |==|  0.63273
USER: genes 15 Torsion [N]-CA--C-[O] |==|  0.75109
USER: genes 16 Torsion [CB]-CA--N-[C] |==|  0.14959
USER: genes 17 Torsion [N]-C--CA-[N] |==|  0.34603
USER: genes 18 Torsion [C]-CA--CB-[CG] |==|  0.10944
USER: genes 19 Torsion [CA]-CB--CG-[CD] |==|  0.33379
USER: genes 20 Torsion [CB]-CG--CD-[CE] |==|  0.50811
USER: genes 21 Torsion [CG]-CD--CE-[NZ] |==|  0.94843
USER: genes 22 Torsion [CD]-CE--NZ-[HZ3] |==|  0.54477
USER: genes 23 Torsion [C]-CA--N-[C] |==|  0.83312
USER: genes 24 Torsion [N]-C--CA-[N] |==|  0.99660
USER: genes 25 Torsion [N]-C--CA-[CB] |==|  0.75212
ROOT
ATOM      1  CA  LYS B 185       2.965  35.589   6.409  1.00 91.41 LIG 0.18  C 
ENDROOT
BRANCH 1 2
ATOM      2  CB  LYS B 185       3.311  36.777   5.506  1.00 90.53 LIG 0.04  C 
BRANCH 2 3
ATOM      3  CG  LYS B 185       2.147  37.416   4.752  1.00 86.81 LIG 0.00  C 
BRANCH 3 4
ATOM      4  CD  LYS B 185       2.126  38.936   4.951  1.00 79.71 LIG 0.03  C 
BRANCH 4 5
ATOM      5  CE  LYS B 185       1.175  39.646   3.985  1.00 72.24 LIG 0.23  C 
BRANCH 5 6
ATOM      6  NZ  LYS B 185       1.837  40.714   3.179  1.00 67.20 LIG-0.08  N 
ATOM      7 HZ1  LYS B 185       1.234  41.113   2.661  1.00 67.20 LIG 0.27  HD
ATOM      8 HZ3  LYS B 185       2.471  40.351   2.671  1.00 67.20 LIG 0.27  HD
ATOM      9 HZ2  LYS B 185       2.202  41.314   3.726  1.00 67.20 LIG 0.27  HD
ENDBRANCH 5 6
ENDBRANCH 4 5
ENDBRANCH 3 4
ENDBRANCH 2 3
ENDBRANCH 1 2
BRANCH 1 10
ATOM     10  C   LYS B 185       3.892  34.418   6.097  1.00 87.67 LIG 0.24  C 
ATOM     11 O    LYS B 185       3.934  33.436   6.845  1.00 75.85 LIG-0.27  OA
ATOM     12  N   ARG B 186       4.642  34.544   5.005  1.00 93.18 LIG-0.35  N 
ATOM     13 H    ARG B 186       4.565  35.207   4.462  1.00 93.18 LIG 0.16  HD
BRANCH 12 14
ATOM     14  CA  ARG B 186       5.670  33.587   4.602  1.00 93.88 LIG 0.18  C 
BRANCH 14 15
ATOM     15  CB  ARG B 186       5.078  32.170   4.665  1.00 94.11 LIG 0.04  C 
BRANCH 15 16
ATOM     16  CG  ARG B 186       6.111  31.080   4.413  1.00 91.13 LIG 0.02  C 
BRANCH 16 17
ATOM     17  CD  ARG B 186       5.573  29.945   3.558  1.00 90.43 LIG 0.14  C 
BRANCH 17 18
ATOM     18  NE  ARG B 186       4.744  30.454   2.466  1.00 88.65 LIG-0.23  N 
ATOM     19 HE   ARG B 186       4.602  31.302   2.428  1.00 88.65 LIG 0.18  HD
ATOM     20  CZ  ARG B 186       4.194  29.686   1.528  1.00 77.61 LIG 0.67  C 
ATOM     21  NH2 ARG B 186       3.449  30.224   0.572  1.00 64.46 LIG-0.23  N 
ATOM     22  NH1 ARG B 186       4.394  28.376   1.546  1.00 71.89 LIG-0.23  N 
ATOM     23 2HH2 ARG B 186       3.097  29.723  -0.032  1.00 64.46 LIG 0.17  HD
ATOM     24 1HH2 ARG B 186       3.319  31.074   0.555  1.00 64.46 LIG 0.17  HD
ATOM     25 1HH1 ARG B 186       4.879  28.024   2.163  1.00 71.89 LIG 0.17  HD
ATOM     26 2HH1 ARG B 186       4.039  27.879   0.940  1.00 71.89 LIG 0.17  HD
ENDBRANCH 17 18
ENDBRANCH 16 17
ENDBRANCH 15 16
ENDBRANCH 14 15
BRANCH 14 27
ATOM     27  C   ARG B 186       6.156  33.976   3.189  1.00100.48 LIG 0.24  C 
ATOM     28  N   ALA B 187       6.596  35.216   2.934  1.00104.89 LIG-0.35  N 
ATOM     29 H    ALA B 187       6.864  35.444   2.149  1.00104.89 LIG 0.16  HD
ATOM     30 O    ARG B 186       6.112  33.124   2.299  1.00101.56 LIG-0.27  OA
BRANCH 28 31
ATOM     31  CA  ALA B 187       6.689  36.323   3.888  1.00100.92 LIG 0.16  C 
ATOM     32  CB  ALA B 187       8.153  36.562   4.289  1.00 98.55 LIG 0.04  C 
BRANCH 31 33
ATOM     33  C   ALA B 187       6.090  37.604   3.314  1.00 96.24 LIG 0.22  C 
ATOM     34 O    ALA B 187       6.788  38.392   2.673  1.00 95.92 LIG-0.29  OA
ENDBRANCH 31 33
ENDBRANCH 28 31
ENDBRANCH 14 27
ENDBRANCH 12 14
ENDBRANCH 1 10
BRANCH 1 35
ATOM     35  N   LYS B 185       3.064  35.936   7.826  1.00 94.70 LIG-0.35  N 
ATOM     36 H    LYS B 185       3.572  35.408   8.276  1.00 94.70 LIG 0.16  HD
ATOM     37  C   LYS B 184       2.424  36.976   8.373  1.00 95.69 LIG 0.24  C 
ATOM     38 O    LYS B 184       1.641  37.692   7.742  1.00 96.36 LIG-0.27  OA
BRANCH 37 39
ATOM     39  CA  LYS B 184       2.724  37.247   9.845  1.00 89.09 LIG 0.18  C 
BRANCH 39 40
ATOM     40  CB  LYS B 184       1.483  36.983  10.705  1.00 73.03 LIG 0.04  C 
BRANCH 40 41
ATOM     41  CG  LYS B 184       0.677  35.752  10.270  1.00 60.77 LIG 0.00  C 
BRANCH 41 42
ATOM     42  CD  LYS B 184       0.585  34.719  11.380  1.00 63.88 LIG 0.03  C 
BRANCH 42 43
ATOM     43  CE  LYS B 184      -0.152  33.453  10.947  1.00 60.38 LIG 0.23  C 
BRANCH 43 44
ATOM     44  NZ  LYS B 184      -1.016  33.588   9.721  1.00 53.06 LIG-0.08  N 
ATOM     45 HZ3  LYS B 184      -1.577  32.899   9.675  1.00 53.06 LIG 0.27  HD
ATOM     46 HZ2  LYS B 184      -0.502  33.600   8.995  1.00 53.06 LIG 0.27  HD
ATOM     47 HZ1  LYS B 184      -1.481  34.346   9.767  1.00 53.06 LIG 0.27  HD
ENDBRANCH 43 44
ENDBRANCH 42 43
ENDBRANCH 41 42
ENDBRANCH 40 41
ENDBRANCH 39 40
BRANCH 39 48
ATOM     48  N   LYS B 184       3.185  38.617  10.033  1.00 95.16 LIG-0.35  N 
ATOM     49 H    LYS B 184       2.691  39.089  10.556  1.00 95.16 LIG 0.16  HD
ATOM     50  C   PRO B 183       4.283  39.076   9.434  1.00102.83 LIG 0.24  C 
ATOM     51 O    PRO B 183       4.975  38.374   8.688  1.00 96.65 LIG-0.27  OA
BRANCH 50 52
ATOM     52  CA  PRO B 183       4.645  40.534   9.706  1.00119.60 LIG 0.18  C 
ATOM     53  N   PRO B 183       3.694  41.233  10.582  1.00125.08 LIG-0.34  N 
ATOM     54  CD  PRO B 183       4.109  41.174  11.997  1.00128.64 LIG 0.13  C 
ATOM     55  C   PRO B 182       2.786  42.073  10.057  1.00122.07 LIG 0.26  C 
ATOM     56  CG  PRO B 183       5.524  40.610  11.931  1.00127.59 LIG 0.02  C 
ATOM     57  CB  PRO B 183       5.961  40.649  10.484  1.00124.68 LIG 0.04  C 
ATOM     58 O    PRO B 182       2.706  42.314   8.850  1.00123.88 LIG-0.27  OA
BRANCH 55 59
ATOM     59  CA  PRO B 182       1.827  42.771  11.024  1.00115.83 LIG 0.35  C 
ATOM     60  CB  PRO B 182       0.566  41.921  11.247  1.00111.53 LIG 0.05  C 
ATOM     61  CG  PRO B 182      -0.567  42.902  11.296  1.00111.42 LIG 0.04  C 
ATOM     62  CD  PRO B 182      -0.173  44.007  10.367  1.00113.66 LIG 0.32  C 
ATOM     63  N   PRO B 182       1.296  44.028  10.480  1.00115.25 LIG 0.32  N 
ENDBRANCH 55 59
ENDBRANCH 50 52
ENDBRANCH 39 48
ENDBRANCH 37 39
ENDBRANCH 1 35
TORSDOF 24
ENDMDL
MODEL 37
USER: ADFR SOLUTION from run 69
USER: SCORE 19.082126 LL:  -3.265 LR: -17.413 RR:   0.000 FEB: -10.254
USER: RMSD 9.963842
USER: SEED 68
USER: STATUS 1 or 2 clusters left
USER: GENES 26
USER: genes 0 Translation |==|  0.53340 0.63003 0.39068
USER: genes 1 Rotation |==|  0.89315 0.44454 0.21541 0.60664
USER: genes 2 Torsion [C]-CA--CB-[CG] |==|  0.16001
USER: genes 3 Torsion [CA]-CB--CG-[CD] |==|  0.42172
USER: genes 4 Torsion [CB]-CG--CD-[CE] |==|  0.33616
USER: genes 5 Torsion [CG]-CD--CE-[NZ] |==|  0.12234
USER: genes 6 Torsion [CD]-CE--NZ-[HZ1] |==|  0.36538
USER: genes 7 Torsion [N]-CA--C-[N] |==|  0.71667
USER: genes 8 Torsion [C]-N--CA-[CB] |==|  0.18648
USER: genes 9 Torsion [N]-CA--CB-[CG] |==|  0.68343
USER: genes 10 Torsion [CA]-CB--CG-[CD] |==|  0.52704
USER: genes 11 Torsion [CB]-CG--CD-[NE] |==|  0.06790
USER: genes 12 Torsion [CG]-CD--NE-[CZ] |==|  0.56178
USER: genes 13 Torsion [N]-CA--C-[N] |==|  0.15809
USER: genes 14 Torsion [C]-N--CA-[C] |==|  0.50056
USER: genes 15 Torsion [N]-CA--C-[O] |==|  0.60947
USER: genes 16 Torsion [CB]-CA--N-[C] |==|  0.14076
USER: genes 17 Torsion [N]-C--CA-[N] |==|  0.29651
USER: genes 18 Torsion [C]-CA--CB-[CG] |==|  0.30433
USER: genes 19 Torsion [CA]-CB--CG-[CD] |==|  0.73204
USER: genes 20 Torsion [CB]-CG--CD-[CE] |==|  0.70127
USER: genes 21 Torsion [CG]-CD--CE-[NZ] |==|  0.41327
USER: genes 22 Torsion [CD]-CE--NZ-[HZ3] |==|  0.68420
USER: genes 23 Torsion [C]-CA--N-[C] |==|  0.77435
USER: genes 24 Torsion [N]-C--CA-[N] |==|  0.11878
USER: genes 25 Torsion [N]-C--CA-[CB] |==|  0.75135
ROOT
ATOM      1  CA  LYS B 185       2.935  38.236   4.582  1.00 91.41 LIG 0.18  C 
ENDROOT
BRANCH 1 2
ATOM      2  CB  LYS B 185       1.476  38.689   4.706  1.00 90.53 LIG 0.04  C 
BRANCH 2 3
ATOM      3  CG  LYS B 185       0.981  39.674   3.650  1.00 86.81 LIG 0.00  C 
BRANCH 3 4
ATOM      4  CD  LYS B 185      -0.528  39.529   3.422  1.00 79.71 LIG 0.03  C 
BRANCH 4 5
ATOM      5  CE  LYS B 185      -1.296  40.824   3.700  1.00 72.24 LIG 0.23  C 
BRANCH 5 6
ATOM      6  NZ  LYS B 185      -0.636  42.036   3.133  1.00 67.20 LIG-0.08  N 
ATOM      7 HZ1  LYS B 185      -1.236  42.520   2.687  1.00 67.20 LIG 0.27  HD
ATOM      8 HZ3  LYS B 185       0.015  41.788   2.580  1.00 67.20 LIG 0.27  HD
ATOM      9 HZ2  LYS B 185      -0.294  42.524   3.794  1.00 67.20 LIG 0.27  HD
ENDBRANCH 5 6
ENDBRANCH 4 5
ENDBRANCH 3 4
ENDBRANCH 2 3
ENDBRANCH 1 2
BRANCH 1 10
ATOM     10  C   LYS B 185       3.856  39.452   4.618  1.00 87.67 LIG 0.24  C 
ATOM     11 O    LYS B 185       5.005  39.380   4.171  1.00 75.85 LIG-0.27  OA
ATOM     12  N   ARG B 186       3.348  40.551   5.170  1.00 93.18 LIG-0.35  N 
ATOM     13 H    ARG B 186       2.529  40.606   5.427  1.00 93.18 LIG 0.16  HD
BRANCH 12 14
ATOM     14  CA  ARG B 186       4.107  41.778   5.400  1.00 93.88 LIG 0.18  C 
BRANCH 14 15
ATOM     15  CB  ARG B 186       4.471  42.397   4.041  1.00 94.11 LIG 0.04  C 
BRANCH 15 16
ATOM     16  CG  ARG B 186       5.969  42.391   3.764  1.00 91.13 LIG 0.02  C 
BRANCH 16 17
ATOM     17  CD  ARG B 186       6.344  43.208   2.539  1.00 90.43 LIG 0.14  C 
BRANCH 17 18
ATOM     18  NE  ARG B 186       5.341  44.235   2.262  1.00 88.65 LIG-0.23  N 
ATOM     19 HE   ARG B 186       4.834  44.490   2.909  1.00 88.65 LIG 0.18  HD
ATOM     20  CZ  ARG B 186       5.164  44.800   1.070  1.00 77.61 LIG 0.67  C 
ATOM     21  NH2 ARG B 186       4.227  45.723   0.897  1.00 64.46 LIG-0.23  N 
ATOM     22  NH1 ARG B 186       5.930  44.443   0.049  1.00 71.89 LIG-0.23  N 
ATOM     23 2HH2 ARG B 186       4.118  46.085   0.124  1.00 64.46 LIG 0.17  HD
ATOM     24 1HH2 ARG B 186       3.730  45.960   1.557  1.00 64.46 LIG 0.17  HD
ATOM     25 1HH1 ARG B 186       6.540  43.847   0.158  1.00 71.89 LIG 0.17  HD
ATOM     26 2HH1 ARG B 186       5.816  44.807  -0.722  1.00 71.89 LIG 0.17  HD
ENDBRANCH 17 18
ENDBRANCH 16 17
ENDBRANCH 15 16
ENDBRANCH 14 15
BRANCH 14 27
ATOM     27  C   ARG B 186       3.248  42.713   6.279  1.00100.48 LIG 0.24  C 
ATOM     28  N   ALA B 187       2.798  42.306   7.474  1.00104.89 LIG-0.35  N 
ATOM     29 H    ALA B 187       2.315  42.818   7.968  1.00104.89 LIG 0.16  HD
ATOM     30 O    ARG B 186       2.971  43.833   5.846  1.00101.56 LIG-0.27  OA
BRANCH 28 31
ATOM     31  CA  ALA B 187       3.039  41.005   8.101  1.00100.92 LIG 0.16  C 
ATOM     32  CB  ALA B 187       4.548  40.754   8.249  1.00 98.55 LIG 0.04  C 
BRANCH 31 33
ATOM     33  C   ALA B 187       2.358  40.910   9.464  1.00 96.24 LIG 0.22  C 
ATOM     34 O    ALA B 187       2.920  40.353  10.409  1.00 95.92 LIG-0.29  OA
ENDBRANCH 31 33
ENDBRANCH 28 31
ENDBRANCH 14 27
ENDBRANCH 12 14
ENDBRANCH 1 10
BRANCH 1 35
ATOM     35  N   LYS B 185       3.306  37.301   5.642  1.00 94.70 LIG-0.35  N 
ATOM     36 H    LYS B 185       4.030  37.516   6.055  1.00 94.70 LIG 0.16  HD
ATOM     37  C   LYS B 184       2.590  36.212   5.945  1.00 95.69 LIG 0.24  C 
ATOM     38 O    LYS B 184       1.590  35.866   5.309  1.00 96.36 LIG-0.27  OA
BRANCH 37 39
ATOM     39  CA  LYS B 184       3.073  35.405   7.148  1.00 89.09 LIG 0.18  C 
BRANCH 39 40
ATOM     40  CB  LYS B 184       3.171  33.917   6.794  1.00 73.03 LIG 0.04  C 
BRANCH 40 41
ATOM     41  CG  LYS B 184       4.610  33.394   6.701  1.00 60.77 LIG 0.00  C 
BRANCH 41 42
ATOM     42  CD  LYS B 184       5.114  33.384   5.267  1.00 63.88 LIG 0.03  C 
BRANCH 42 43
ATOM     43  CE  LYS B 184       5.217  31.974   4.690  1.00 60.38 LIG 0.23  C 
BRANCH 43 44
ATOM     44  NZ  LYS B 184       4.983  31.856   3.207  1.00 53.06 LIG-0.08  N 
ATOM     45 HZ3  LYS B 184       4.237  31.393   3.061  1.00 53.06 LIG 0.27  HD
ATOM     46 HZ2  LYS B 184       5.671  31.436   2.830  1.00 53.06 LIG 0.27  HD
ATOM     47 HZ1  LYS B 184       4.902  32.669   2.854  1.00 53.06 LIG 0.27  HD
ENDBRANCH 43 44
ENDBRANCH 42 43
ENDBRANCH 41 42
ENDBRANCH 40 41
ENDBRANCH 39 40
BRANCH 39 48
ATOM     48  N   LYS B 184       2.184  35.595   8.287  1.00 95.16 LIG-0.35  N 
ATOM     49 H    LYS B 184       1.608  34.965   8.397  1.00 95.16 LIG 0.16  HD
ATOM     50  C   PRO B 183       2.275  36.664   9.077  1.00102.83 LIG 0.24  C 
ATOM     51 O    PRO B 183       3.114  37.553   8.896  1.00 96.65 LIG-0.27  OA
BRANCH 50 52
ATOM     52  CA  PRO B 183       1.274  36.746  10.226  1.00119.60 LIG 0.18  C 
ATOM     53  N   PRO B 183       1.066  35.473  10.931  1.00125.08 LIG-0.34  N 
ATOM     54  CD  PRO B 183       1.952  35.346  12.103  1.00128.64 LIG 0.13  C 
ATOM     55  C   PRO B 182      -0.030  34.735  10.683  1.00122.07 LIG 0.26  C 
ATOM     56  CG  PRO B 183       2.557  36.738  12.246  1.00127.59 LIG 0.02  C 
ATOM     57  CB  PRO B 183       1.777  37.667  11.343  1.00124.68 LIG 0.04  C 
ATOM     58 O    PRO B 182      -0.909  35.077   9.887  1.00123.88 LIG-0.27  OA
BRANCH 55 59
ATOM     59  CA  PRO B 182      -0.187  33.422  11.451  1.00115.83 LIG 0.35  C 
ATOM     60  CB  PRO B 182       0.471  32.263  10.687  1.00111.53 LIG 0.05  C 
ATOM     61  CG  PRO B 182      -0.452  31.096  10.870  1.00111.42 LIG 0.04  C 
ATOM     62  CD  PRO B 182      -1.825  31.685  10.942  1.00113.66 LIG 0.32  C 
ATOM     63  N   PRO B 182      -1.589  33.000  11.564  1.00115.25 LIG 0.32  N 
ENDBRANCH 55 59
ENDBRANCH 50 52
ENDBRANCH 39 48
ENDBRANCH 37 39
ENDBRANCH 1 35
TORSDOF 24
ENDMDL
MODEL 38
USER: ADFR SOLUTION from run 129
USER: SCORE 18.859922 LL:  -2.944 LR: -17.409 RR:   0.000 FEB: -10.249
USER: RMSD 10.064285
USER: SEED 128
USER: STATUS no improvement in best in 25 clusters for 5 generations
USER: GENES 26
USER: genes 0 Translation |==|  0.48846 0.59764 0.41700
USER: genes 1 Rotation |==|  0.89155 0.40139 0.21358 0.57023
USER: genes 2 Torsion [C]-CA--CB-[CG] |==|  0.20912
USER: genes 3 Torsion [CA]-CB--CG-[CD] |==|  0.64955
USER: genes 4 Torsion [CB]-CG--CD-[CE] |==|  0.59689
USER: genes 5 Torsion [CG]-CD--CE-[NZ] |==|  0.64680
USER: genes 6 Torsion [CD]-CE--NZ-[HZ1] |==|  0.43975
USER: genes 7 Torsion [N]-CA--C-[N] |==|  0.47031
USER: genes 8 Torsion [C]-N--CA-[CB] |==|  0.87713
USER: genes 9 Torsion [N]-CA--CB-[CG] |==|  0.79074
USER: genes 10 Torsion [CA]-CB--CG-[CD] |==|  0.60549
USER: genes 11 Torsion [CB]-CG--CD-[NE] |==|  0.37177
USER: genes 12 Torsion [CG]-CD--NE-[CZ] |==|  0.29397
USER: genes 13 Torsion [N]-CA--C-[N] |==|  0.45546
USER: genes 14 Torsion [C]-N--CA-[C] |==|  0.78223
USER: genes 15 Torsion [N]-CA--C-[O] |==|  0.29784
USER: genes 16 Torsion [CB]-CA--N-[C] |==|  0.50052
USER: genes 17 Torsion [N]-C--CA-[N] |==|  0.91828
USER: genes 18 Torsion [C]-CA--CB-[CG] |==|  0.58982
USER: genes 19 Torsion [CA]-CB--CG-[CD] |==|  0.56884
USER: genes 20 Torsion [CB]-CG--CD-[CE] |==|  0.26319
USER: genes 21 Torsion [CG]-CD--CE-[NZ] |==|  0.43484
USER: genes 22 Torsion [CD]-CE--NZ-[HZ3] |==|  0.60441
USER: genes 23 Torsion [C]-CA--N-[C] |==|  0.80947
USER: genes 24 Torsion [N]-C--CA-[N] |==|  0.14489
USER: genes 25 Torsion [N]-C--CA-[CB] |==|  0.80990
ROOT
ATOM      1  CA  LYS B 185       2.160  37.361   5.115  1.00 91.41 LIG 0.18  C 
ENDROOT
BRANCH 1 2
ATOM      2  CB  LYS B 185       0.831  38.122   5.188  1.00 90.53 LIG 0.04  C 
BRANCH 2 3
ATOM      3  CG  LYS B 185       0.421  38.888   3.932  1.00 86.81 LIG 0.00  C 
BRANCH 3 4
ATOM      4  CD  LYS B 185       0.125  40.358   4.252  1.00 79.71 LIG 0.03  C 
BRANCH 4 5
ATOM      5  CE  LYS B 185      -1.010  40.932   3.401  1.00 72.24 LIG 0.23  C 
BRANCH 5 6
ATOM      6  NZ  LYS B 185      -0.641  42.194   2.696  1.00 67.20 LIG-0.08  N 
ATOM      7 HZ1  LYS B 185      -1.181  42.315   1.998  1.00 67.20 LIG 0.27  HD
ATOM      8 HZ3  LYS B 185       0.201  42.141   2.412  1.00 67.20 LIG 0.27  HD
ATOM      9 HZ2  LYS B 185      -0.722  42.882   3.256  1.00 67.20 LIG 0.27  HD
ENDBRANCH 5 6
ENDBRANCH 4 5
ENDBRANCH 3 4
ENDBRANCH 2 3
ENDBRANCH 1 2
BRANCH 1 10
ATOM     10  C   LYS B 185       3.322  38.345   5.214  1.00 87.67 LIG 0.24  C 
ATOM     11 O    LYS B 185       4.051  38.354   6.211  1.00 75.85 LIG-0.27  OA
ATOM     12  N   ARG B 186       3.469  39.178   4.186  1.00 93.18 LIG-0.35  N 
ATOM     13 H    ARG B 186       2.990  39.125   3.474  1.00 93.18 LIG 0.16  HD
BRANCH 12 14
ATOM     14  CA  ARG B 186       4.447  40.263   4.145  1.00 93.88 LIG 0.18  C 
BRANCH 14 15
ATOM     15  CB  ARG B 186       4.429  40.995   5.496  1.00 94.11 LIG 0.04  C 
BRANCH 15 16
ATOM     16  CG  ARG B 186       3.216  41.900   5.669  1.00 91.13 LIG 0.02  C 
BRANCH 16 17
ATOM     17  CD  ARG B 186       3.547  43.198   6.388  1.00 90.43 LIG 0.14  C 
BRANCH 17 18
ATOM     18  NE  ARG B 186       2.957  44.346   5.702  1.00 88.65 LIG-0.23  N 
ATOM     19 HE   ARG B 186       3.317  44.607   4.966  1.00 88.65 LIG 0.18  HD
ATOM     20  CZ  ARG B 186       1.894  45.014   6.147  1.00 77.61 LIG 0.67  C 
ATOM     21  NH2 ARG B 186       1.420  46.050   5.469  1.00 64.46 LIG-0.23  N 
ATOM     22  NH1 ARG B 186       1.303  44.640   7.273  1.00 71.89 LIG-0.23  N 
ATOM     23 2HH2 ARG B 186       0.734  46.477   5.762  1.00 64.46 LIG 0.17  HD
ATOM     24 1HH2 ARG B 186       1.799  46.295   4.737  1.00 64.46 LIG 0.17  HD
ATOM     25 1HH1 ARG B 186       1.606  43.966   7.714  1.00 71.89 LIG 0.17  HD
ATOM     26 2HH1 ARG B 186       0.617  45.071   7.561  1.00 71.89 LIG 0.17  HD
ENDBRANCH 17 18
ENDBRANCH 16 17
ENDBRANCH 15 16
ENDBRANCH 14 15
BRANCH 14 27
ATOM     27  C   ARG B 186       5.824  39.651   3.808  1.00100.48 LIG 0.24  C 
ATOM     28  N   ALA B 187       6.835  40.428   3.394  1.00104.89 LIG-0.35  N 
ATOM     29 H    ALA B 187       7.604  40.095   3.199  1.00104.89 LIG 0.16  HD
ATOM     30 O    ARG B 186       5.964  38.430   3.910  1.00101.56 LIG-0.27  OA
BRANCH 28 31
ATOM     31  CA  ALA B 187       6.803  41.881   3.217  1.00100.92 LIG 0.16  C 
ATOM     32  CB  ALA B 187       8.228  42.454   3.240  1.00 98.55 LIG 0.04  C 
BRANCH 31 33
ATOM     33  C   ALA B 187       6.108  42.265   1.913  1.00 96.24 LIG 0.22  C 
ATOM     34 O    ALA B 187       4.982  42.767   1.925  1.00 95.92 LIG-0.29  OA
ENDBRANCH 31 33
ENDBRANCH 28 31
ENDBRANCH 14 27
ENDBRANCH 12 14
ENDBRANCH 1 10
BRANCH 1 35
ATOM     35  N   LYS B 185       2.269  36.356   6.171  1.00 94.70 LIG-0.35  N 
ATOM     36 H    LYS B 185       1.582  36.321   6.686  1.00 94.70 LIG 0.16  HD
ATOM     37  C   LYS B 184       3.336  35.563   6.322  1.00 95.69 LIG 0.24  C 
ATOM     38 O    LYS B 184       4.351  35.660   5.625  1.00 96.36 LIG-0.27  OA
BRANCH 37 39
ATOM     39  CA  LYS B 184       3.233  34.503   7.416  1.00 89.09 LIG 0.18  C 
BRANCH 39 40
ATOM     40  CB  LYS B 184       2.717  33.181   6.838  1.00 73.03 LIG 0.04  C 
BRANCH 40 41
ATOM     41  CG  LYS B 184       1.867  32.364   7.819  1.00 60.77 LIG 0.00  C 
BRANCH 41 42
ATOM     42  CD  LYS B 184       1.884  30.883   7.481  1.00 63.88 LIG 0.03  C 
BRANCH 42 43
ATOM     43  CE  LYS B 184       2.944  30.112   8.266  1.00 60.38 LIG 0.23  C 
BRANCH 43 44
ATOM     44  NZ  LYS B 184       2.693  28.637   8.427  1.00 53.06 LIG-0.08  N 
ATOM     45 HZ3  LYS B 184       2.953  28.378   9.237  1.00 53.06 LIG 0.27  HD
ATOM     46 HZ2  LYS B 184       3.153  28.188   7.811  1.00 53.06 LIG 0.27  HD
ATOM     47 HZ1  LYS B 184       1.824  28.470   8.327  1.00 53.06 LIG 0.27  HD
ENDBRANCH 43 44
ENDBRANCH 42 43
ENDBRANCH 41 42
ENDBRANCH 40 41
ENDBRANCH 39 40
BRANCH 39 48
ATOM     48  N   LYS B 184       2.364  34.956   8.493  1.00 95.16 LIG-0.35  N 
ATOM     49 H    LYS B 184       1.621  34.526   8.555  1.00 95.16 LIG 0.16  HD
ATOM     50  C   PRO B 183       2.712  35.956   9.302  1.00102.83 LIG 0.24  C 
ATOM     51 O    PRO B 183       3.786  36.557   9.191  1.00 96.65 LIG-0.27  OA
BRANCH 50 52
ATOM     52  CA  PRO B 183       1.702  36.340  10.380  1.00119.60 LIG 0.18  C 
ATOM     53  N   PRO B 183       1.242  35.209  11.199  1.00125.08 LIG-0.34  N 
ATOM     54  CD  PRO B 183       2.049  35.058  12.425  1.00128.64 LIG 0.13  C 
ATOM     55  C   PRO B 182       0.039  34.654  10.968  1.00122.07 LIG 0.26  C 
ATOM     56  CG  PRO B 183       2.891  36.328  12.458  1.00127.59 LIG 0.02  C 
ATOM     57  CB  PRO B 183       2.324  37.275  11.424  1.00124.68 LIG 0.04  C 
ATOM     58 O    PRO B 182      -0.734  35.056  10.096  1.00123.88 LIG-0.27  OA
BRANCH 55 59
ATOM     59  CA  PRO B 182      -0.379  33.482  11.858  1.00115.83 LIG 0.35  C 
ATOM     60  CB  PRO B 182       0.488  32.246  11.573  1.00111.53 LIG 0.05  C 
ATOM     61  CG  PRO B 182      -0.452  31.080  11.637  1.00111.42 LIG 0.04  C 
ATOM     62  CD  PRO B 182      -1.764  31.603  11.141  1.00113.66 LIG 0.32  C 
ATOM     63  N   PRO B 182      -1.741  33.014  11.567  1.00115.25 LIG 0.32  N 
ENDBRANCH 55 59
ENDBRANCH 50 52
ENDBRANCH 39 48
ENDBRANCH 37 39
ENDBRANCH 1 35
TORSDOF 24
ENDMDL
MODEL 39
USER: ADFR SOLUTION from run 92
USER: SCORE 18.902210 LL:  -2.708 LR: -17.394 RR:   0.000 FEB: -10.234
USER: RMSD 8.034579
USER: SEED 91
USER: STATUS no improvement in best in 2 clusters for 5 generations
USER: GENES 26
USER: genes 0 Translation |==|  0.51159 0.62657 0.45568
USER: genes 1 Rotation |==|  0.43231 0.05686 0.43848 0.71274
USER: genes 2 Torsion [C]-CA--CB-[CG] |==|  0.51941
USER: genes 3 Torsion [CA]-CB--CG-[CD] |==|  0.82463
USER: genes 4 Torsion [CB]-CG--CD-[CE] |==|  0.60335
USER: genes 5 Torsion [CG]-CD--CE-[NZ] |==|  0.80575
USER: genes 6 Torsion [CD]-CE--NZ-[HZ1] |==|  0.52404
USER: genes 7 Torsion [N]-CA--C-[N] |==|  0.41666
USER: genes 8 Torsion [C]-N--CA-[CB] |==|  0.87219
USER: genes 9 Torsion [N]-CA--CB-[CG] |==|  0.33717
USER: genes 10 Torsion [CA]-CB--CG-[CD] |==|  0.55882
USER: genes 11 Torsion [CB]-CG--CD-[NE] |==|  0.13217
USER: genes 12 Torsion [CG]-CD--NE-[CZ] |==|  0.45431
USER: genes 13 Torsion [N]-CA--C-[N] |==|  0.36797
USER: genes 14 Torsion [C]-N--CA-[C] |==|  0.13684
USER: genes 15 Torsion [N]-CA--C-[O] |==|  0.64486
USER: genes 16 Torsion [CB]-CA--N-[C] |==|  0.85714
USER: genes 17 Torsion [N]-C--CA-[N] |==|  0.59121
USER: genes 18 Torsion [C]-CA--CB-[CG] |==|  0.60072
USER: genes 19 Torsion [CA]-CB--CG-[CD] |==|  0.38169
USER: genes 20 Torsion [CB]-CG--CD-[CE] |==|  0.05141
USER: genes 21 Torsion [CG]-CD--CE-[NZ] |==|  0.68453
USER: genes 22 Torsion [CD]-CE--NZ-[HZ3] |==|  0.15915
USER: genes 23 Torsion [C]-CA--N-[C] |==|  0.14448
USER: genes 24 Torsion [N]-C--CA-[N] |==|  0.74259
USER: genes 25 Torsion [N]-C--CA-[CB] |==|  0.80030
ROOT
ATOM      1  CA  LYS B 185       2.559  38.142   5.898  1.00 91.41 LIG 0.18  C 
ENDROOT
BRANCH 1 2
ATOM      2  CB  LYS B 185       1.971  38.041   4.487  1.00 90.53 LIG 0.04  C 
BRANCH 2 3
ATOM      3  CG  LYS B 185       1.463  39.342   3.870  1.00 86.81 LIG 0.00  C 
BRANCH 3 4
ATOM      4  CD  LYS B 185       0.294  39.918   4.678  1.00 79.71 LIG 0.03  C 
BRANCH 4 5
ATOM      5  CE  LYS B 185      -0.776  40.562   3.793  1.00 72.24 LIG 0.23  C 
BRANCH 5 6
ATOM      6  NZ  LYS B 185      -0.327  41.831   3.149  1.00 67.20 LIG-0.08  N 
ATOM      7 HZ1  LYS B 185      -1.019  42.225   2.752  1.00 67.20 LIG 0.27  HD
ATOM      8 HZ3  LYS B 185       0.299  41.650   2.543  1.00 67.20 LIG 0.27  HD
ATOM      9 HZ2  LYS B 185       0.009  42.375   3.769  1.00 67.20 LIG 0.27  HD
ENDBRANCH 5 6
ENDBRANCH 4 5
ENDBRANCH 3 4
ENDBRANCH 2 3
ENDBRANCH 1 2
BRANCH 1 10
ATOM     10  C   LYS B 185       3.173  36.804   6.297  1.00 87.67 LIG 0.24  C 
ATOM     11 O    LYS B 185       4.369  36.577   6.088  1.00 75.85 LIG-0.27  OA
ATOM     12  N   ARG B 186       2.342  35.923   6.849  1.00 93.18 LIG-0.35  N 
ATOM     13 H    ARG B 186       1.525  36.112   7.040  1.00 93.18 LIG 0.16  HD
BRANCH 12 14
ATOM     14  CA  ARG B 186       2.712  34.552   7.192  1.00 93.88 LIG 0.18  C 
BRANCH 14 15
ATOM     15  CB  ARG B 186       3.476  33.936   6.009  1.00 94.11 LIG 0.04  C 
BRANCH 15 16
ATOM     16  CG  ARG B 186       4.876  33.466   6.384  1.00 91.13 LIG 0.02  C 
BRANCH 16 17
ATOM     17  CD  ARG B 186       5.797  33.343   5.182  1.00 90.43 LIG 0.14  C 
BRANCH 17 18
ATOM     18  NE  ARG B 186       5.722  34.534   4.336  1.00 88.65 LIG-0.23  N 
ATOM     19 HE   ARG B 186       5.055  35.065   4.444  1.00 88.65 LIG 0.18  HD
ATOM     20  CZ  ARG B 186       6.625  34.845   3.408  1.00 77.61 LIG 0.67  C 
ATOM     21  NH2 ARG B 186       6.484  35.943   2.677  1.00 64.46 LIG-0.23  N 
ATOM     22  NH1 ARG B 186       7.673  34.058   3.215  1.00 71.89 LIG-0.23  N 
ATOM     23 2HH2 ARG B 186       7.070  36.139   2.079  1.00 64.46 LIG 0.17  HD
ATOM     24 1HH2 ARG B 186       5.807  36.458   2.800  1.00 64.46 LIG 0.17  HD
ATOM     25 1HH1 ARG B 186       7.769  33.347   3.689  1.00 71.89 LIG 0.17  HD
ATOM     26 2HH1 ARG B 186       8.257  34.258   2.615  1.00 71.89 LIG 0.17  HD
ENDBRANCH 17 18
ENDBRANCH 16 17
ENDBRANCH 15 16
ENDBRANCH 14 15
BRANCH 14 27
ATOM     27  C   ARG B 186       3.543  34.593   8.492  1.00100.48 LIG 0.24  C 
ATOM     28  N   ALA B 187       3.270  33.759   9.506  1.00104.89 LIG-0.35  N 
ATOM     29 H    ALA B 187       3.724  33.779  10.236  1.00104.89 LIG 0.16  HD
ATOM     30 O    ARG B 186       4.449  35.424   8.583  1.00101.56 LIG-0.27  OA
BRANCH 28 31
ATOM     31  CA  ALA B 187       2.220  32.739   9.538  1.00100.92 LIG 0.16  C 
ATOM     32  CB  ALA B 187       0.840  33.397   9.686  1.00 98.55 LIG 0.04  C 
BRANCH 31 33
ATOM     33  C   ALA B 187       2.252  31.870   8.283  1.00 96.24 LIG 0.22  C 
ATOM     34 O    ALA B 187       1.233  31.700   7.611  1.00 95.92 LIG-0.29  OA
ENDBRANCH 31 33
ENDBRANCH 28 31
ENDBRANCH 14 27
ENDBRANCH 12 14
ENDBRANCH 1 10
BRANCH 1 35
ATOM     35  N   LYS B 185       3.565  39.198   5.994  1.00 94.70 LIG-0.35  N 
ATOM     36 H    LYS B 185       3.431  39.745   6.645  1.00 94.70 LIG 0.16  HD
ATOM     37  C   LYS B 184       4.597  39.308   5.150  1.00 95.69 LIG 0.24  C 
ATOM     38 O    LYS B 184       4.751  38.565   4.175  1.00 96.36 LIG-0.27  OA
BRANCH 37 39
ATOM     39  CA  LYS B 184       5.604  40.412   5.462  1.00 89.09 LIG 0.18  C 
BRANCH 39 40
ATOM     40  CB  LYS B 184       4.944  41.526   6.281  1.00 73.03 LIG 0.04  C 
BRANCH 40 41
ATOM     41  CG  LYS B 184       5.446  42.934   5.932  1.00 60.77 LIG 0.00  C 
BRANCH 41 42
ATOM     42  CD  LYS B 184       4.305  43.935   5.855  1.00 63.88 LIG 0.03  C 
BRANCH 42 43
ATOM     43  CE  LYS B 184       3.043  43.443   6.562  1.00 60.38 LIG 0.23  C 
BRANCH 43 44
ATOM     44  NZ  LYS B 184       1.861  43.170   5.671  1.00 53.06 LIG-0.08  N 
ATOM     45 HZ3  LYS B 184       2.087  42.570   5.053  1.00 53.06 LIG 0.27  HD
ATOM     46 HZ2  LYS B 184       1.608  43.924   5.272  1.00 53.06 LIG 0.27  HD
ATOM     47 HZ1  LYS B 184       1.188  42.852   6.160  1.00 53.06 LIG 0.27  HD
ENDBRANCH 43 44
ENDBRANCH 42 43
ENDBRANCH 41 42
ENDBRANCH 40 41
ENDBRANCH 39 40
BRANCH 39 48
ATOM     48  N   LYS B 184       6.169  40.956   4.234  1.00 95.16 LIG-0.35  N 
ATOM     49 H    LYS B 184       7.029  40.974   4.217  1.00 95.16 LIG 0.16  HD
ATOM     50  C   PRO B 183       5.398  41.383   3.236  1.00102.83 LIG 0.24  C 
ATOM     51 O    PRO B 183       4.163  41.344   3.287  1.00 96.65 LIG-0.27  OA
BRANCH 50 52
ATOM     52  CA  PRO B 183       6.118  41.944   2.013  1.00119.60 LIG 0.18  C 
ATOM     53  N   PRO B 183       6.319  43.400   2.051  1.00125.08 LIG-0.34  N 
ATOM     54  CD  PRO B 183       7.632  43.756   2.622  1.00128.64 LIG 0.13  C 
ATOM     55  C   PRO B 182       5.519  44.210   1.336  1.00122.07 LIG 0.26  C 
ATOM     56  CG  PRO B 183       8.360  42.419   2.706  1.00127.59 LIG 0.02  C 
ATOM     57  CB  PRO B 183       7.554  41.413   1.915  1.00124.68 LIG 0.04  C 
ATOM     58 O    PRO B 182       4.609  43.795   0.614  1.00123.88 LIG-0.27  OA
BRANCH 55 59
ATOM     59  CA  PRO B 182       5.783  45.715   1.419  1.00115.83 LIG 0.35  C 
ATOM     60  CB  PRO B 182       5.359  46.266   2.789  1.00111.53 LIG 0.05  C 
ATOM     61  CG  PRO B 182       4.736  47.599   2.502  1.00111.42 LIG 0.04  C 
ATOM     62  CD  PRO B 182       4.086  47.451   1.162  1.00113.66 LIG 0.32  C 
ATOM     63  N   PRO B 182       4.959  46.482   0.476  1.00115.25 LIG 0.32  N 
ENDBRANCH 55 59
ENDBRANCH 50 52
ENDBRANCH 39 48
ENDBRANCH 37 39
ENDBRANCH 1 35
TORSDOF 24
ENDMDL
MODEL 40
USER: ADFR SOLUTION from run 184
USER: SCORE 19.285385 LL:  -3.682 LR: -17.371 RR:   0.000 FEB: -10.211
USER: RMSD 8.788872
USER: SEED 183
USER: STATUS no improvement in best in 5 clusters for 5 generations
USER: GENES 26
USER: genes 0 Translation |==|  0.50758 0.58083 0.42559
USER: genes 1 Rotation |==|  0.88538 0.36659 0.21202 0.52739
USER: genes 2 Torsion [C]-CA--CB-[CG] |==|  0.08284
USER: genes 3 Torsion [CA]-CB--CG-[CD] |==|  0.72206
USER: genes 4 Torsion [CB]-CG--CD-[CE] |==|  0.44927
USER: genes 5 Torsion [CG]-CD--CE-[NZ] |==|  0.29123
USER: genes 6 Torsion [CD]-CE--NZ-[HZ1] |==|  0.19456
USER: genes 7 Torsion [N]-CA--C-[N] |==|  0.40007
USER: genes 8 Torsion [C]-N--CA-[CB] |==|  0.17836
USER: genes 9 Torsion [N]-CA--CB-[CG] |==|  0.22269
USER: genes 10 Torsion [CA]-CB--CG-[CD] |==|  0.78734
USER: genes 11 Torsion [CB]-CG--CD-[NE] |==|  0.42997
USER: genes 12 Torsion [CG]-CD--NE-[CZ] |==|  0.48657
USER: genes 13 Torsion [N]-CA--C-[N] |==|  0.33059
USER: genes 14 Torsion [C]-N--CA-[C] |==|  0.52435
USER: genes 15 Torsion [N]-CA--C-[O] |==|  0.13149
USER: genes 16 Torsion [CB]-CA--N-[C] |==|  0.50600
USER: genes 17 Torsion [N]-C--CA-[N] |==|  0.92316
USER: genes 18 Torsion [C]-CA--CB-[CG] |==|  0.28943
USER: genes 19 Torsion [CA]-CB--CG-[CD] |==|  0.82206
USER: genes 20 Torsion [CB]-CG--CD-[CE] |==|  0.30297
USER: genes 21 Torsion [CG]-CD--CE-[NZ] |==|  0.73103
USER: genes 22 Torsion [CD]-CE--NZ-[HZ3] |==|  0.91959
USER: genes 23 Torsion [C]-CA--N-[C] |==|  0.83760
USER: genes 24 Torsion [N]-C--CA-[N] |==|  0.15461
USER: genes 25 Torsion [N]-C--CA-[CB] |==|  0.87294
ROOT
ATOM      1  CA  LYS B 185       2.490  36.907   5.289  1.00 91.41 LIG 0.18  C 
ENDROOT
BRANCH 1 2
ATOM      2  CB  LYS B 185       1.350  37.929   5.366  1.00 90.53 LIG 0.04  C 
BRANCH 2 3
ATOM      3  CG  LYS B 185       1.679  39.346   4.903  1.00 86.81 LIG 0.00  C 
BRANCH 3 4
ATOM      4  CD  LYS B 185       1.955  40.268   6.097  1.00 79.71 LIG 0.03  C 
BRANCH 4 5
ATOM      5  CE  LYS B 185       2.707  41.541   5.700  1.00 72.24 LIG 0.23  C 
BRANCH 5 6
ATOM      6  NZ  LYS B 185       1.840  42.756   5.671  1.00 67.20 LIG-0.08  N 
ATOM      7 HZ1  LYS B 185       1.610  42.977   6.502  1.00 67.20 LIG 0.27  HD
ATOM      8 HZ3  LYS B 185       1.107  42.586   5.196  1.00 67.20 LIG 0.27  HD
ATOM      9 HZ2  LYS B 185       2.286  43.430   5.298  1.00 67.20 LIG 0.27  HD
ENDBRANCH 5 6
ENDBRANCH 4 5
ENDBRANCH 3 4
ENDBRANCH 2 3
ENDBRANCH 1 2
BRANCH 1 10
ATOM     10  C   LYS B 185       3.828  37.615   5.476  1.00 87.67 LIG 0.24  C 
ATOM     11 O    LYS B 185       4.279  37.814   6.608  1.00 75.85 LIG-0.27  OA
ATOM     12  N   ARG B 186       4.439  38.009   4.361  1.00 93.18 LIG-0.35  N 
ATOM     13 H    ARG B 186       4.143  37.817   3.576  1.00 93.18 LIG 0.16  HD
BRANCH 12 14
ATOM     14  CA  ARG B 186       5.667  38.800   4.336  1.00 93.88 LIG 0.18  C 
BRANCH 14 15
ATOM     15  CB  ARG B 186       6.801  37.973   4.961  1.00 94.11 LIG 0.04  C 
BRANCH 15 16
ATOM     16  CG  ARG B 186       7.397  36.955   3.998  1.00 91.13 LIG 0.02  C 
BRANCH 16 17
ATOM     17  CD  ARG B 186       6.514  35.732   3.813  1.00 90.43 LIG 0.14  C 
BRANCH 17 18
ATOM     18  NE  ARG B 186       6.764  35.091   2.523  1.00 88.65 LIG-0.23  N 
ATOM     19 HE   ARG B 186       7.309  35.475   1.980  1.00 88.65 LIG 0.18  HD
ATOM     20  CZ  ARG B 186       6.198  33.949   2.137  1.00 77.61 LIG 0.67  C 
ATOM     21  NH2 ARG B 186       6.473  33.433   0.947  1.00 64.46 LIG-0.23  N 
ATOM     22  NH1 ARG B 186       5.359  33.321   2.948  1.00 71.89 LIG-0.23  N 
ATOM     23 2HH2 ARG B 186       6.104  32.695   0.703  1.00 64.46 LIG 0.17  HD
ATOM     24 1HH2 ARG B 186       7.019  33.836   0.419  1.00 64.46 LIG 0.17  HD
ATOM     25 1HH1 ARG B 186       5.180  33.651   3.721  1.00 71.89 LIG 0.17  HD
ATOM     26 2HH1 ARG B 186       4.992  32.583   2.699  1.00 71.89 LIG 0.17  HD
ENDBRANCH 17 18
ENDBRANCH 16 17
ENDBRANCH 15 16
ENDBRANCH 14 15
BRANCH 14 27
ATOM     27  C   ARG B 186       5.947  39.199   2.871  1.00100.48 LIG 0.24  C 
ATOM     28  N   ALA B 187       5.992  40.489   2.508  1.00104.89 LIG-0.35  N 
ATOM     29 H    ALA B 187       6.142  40.721   1.694  1.00104.89 LIG 0.16  HD
ATOM     30 O    ARG B 186       6.109  38.303   2.039  1.00101.56 LIG-0.27  OA
BRANCH 28 31
ATOM     31  CA  ALA B 187       5.806  41.648   3.384  1.00100.92 LIG 0.16  C 
ATOM     32  CB  ALA B 187       6.955  41.741   4.399  1.00 98.55 LIG 0.04  C 
BRANCH 31 33
ATOM     33  C   ALA B 187       5.714  42.943   2.580  1.00 96.24 LIG 0.22  C 
ATOM     34 O    ALA B 187       4.984  43.017   1.590  1.00 95.92 LIG-0.29  OA
ENDBRANCH 31 33
ENDBRANCH 28 31
ENDBRANCH 14 27
ENDBRANCH 12 14
ENDBRANCH 1 10
BRANCH 1 35
ATOM     35  N   LYS B 185       2.343  35.852   6.290  1.00 94.70 LIG-0.35  N 
ATOM     36 H    LYS B 185       1.629  35.924   6.765  1.00 94.70 LIG 0.16  HD
ATOM     37  C   LYS B 184       3.231  34.866   6.453  1.00 95.69 LIG 0.24  C 
ATOM     38 O    LYS B 184       4.288  34.801   5.818  1.00 96.36 LIG-0.27  OA
BRANCH 37 39
ATOM     39  CA  LYS B 184       2.864  33.795   7.477  1.00 89.09 LIG 0.18  C 
BRANCH 39 40
ATOM     40  CB  LYS B 184       2.187  32.603   6.791  1.00 73.03 LIG 0.04  C 
BRANCH 40 41
ATOM     41  CG  LYS B 184       3.095  31.376   6.639  1.00 60.77 LIG 0.00  C 
BRANCH 41 42
ATOM     42  CD  LYS B 184       4.278  31.660   5.729  1.00 63.88 LIG 0.03  C 
BRANCH 42 43
ATOM     43  CE  LYS B 184       5.600  31.737   6.490  1.00 60.38 LIG 0.23  C 
BRANCH 43 44
ATOM     44  NZ  LYS B 184       6.063  33.122   6.857  1.00 53.06 LIG-0.08  N 
ATOM     45 HZ3  LYS B 184       5.759  33.705   6.257  1.00 53.06 LIG 0.27  HD
ATOM     46 HZ2  LYS B 184       6.953  33.145   6.867  1.00 53.06 LIG 0.27  HD
ATOM     47 HZ1  LYS B 184       5.752  33.336   7.663  1.00 53.06 LIG 0.27  HD
ENDBRANCH 43 44
ENDBRANCH 42 43
ENDBRANCH 41 42
ENDBRANCH 40 41
ENDBRANCH 39 40
BRANCH 39 48
ATOM     48  N   LYS B 184       1.994  34.345   8.508  1.00 95.16 LIG-0.35  N 
ATOM     49 H    LYS B 184       1.233  33.948   8.580  1.00 95.16 LIG 0.16  HD
ATOM     50  C   PRO B 183       2.367  35.376   9.264  1.00102.83 LIG 0.24  C 
ATOM     51 O    PRO B 183       3.466  35.926   9.141  1.00 96.65 LIG-0.27  OA
BRANCH 50 52
ATOM     52  CA  PRO B 183       1.353  35.862  10.297  1.00119.60 LIG 0.18  C 
ATOM     53  N   PRO B 183       0.895  34.817  11.223  1.00125.08 LIG-0.34  N 
ATOM     54  CD  PRO B 183       1.699  34.789  12.460  1.00128.64 LIG 0.13  C 
ATOM     55  C   PRO B 182      -0.306  34.239  11.046  1.00122.07 LIG 0.26  C 
ATOM     56  CG  PRO B 183       2.538  36.059  12.368  1.00127.59 LIG 0.02  C 
ATOM     57  CB  PRO B 183       1.971  36.898  11.244  1.00124.68 LIG 0.04  C 
ATOM     58 O    PRO B 182      -1.078  34.550  10.136  1.00123.88 LIG-0.27  OA
BRANCH 55 59
ATOM     59  CA  PRO B 182      -0.725  33.159  12.046  1.00115.83 LIG 0.35  C 
ATOM     60  CB  PRO B 182       0.427  32.174  12.296  1.00111.53 LIG 0.05  C 
ATOM     61  CG  PRO B 182      -0.220  30.825  12.386  1.00111.42 LIG 0.04  C 
ATOM     62  CD  PRO B 182      -1.391  30.885  11.457  1.00113.66 LIG 0.32  C 
ATOM     63  N   PRO B 182      -1.798  32.300  11.530  1.00115.25 LIG 0.32  N 
ENDBRANCH 55 59
ENDBRANCH 50 52
ENDBRANCH 39 48
ENDBRANCH 37 39
ENDBRANCH 1 35
TORSDOF 24
ENDMDL
MODEL 41
USER: ADFR SOLUTION from run 162
USER: SCORE 18.662133 LL:  -3.557 LR: -17.371 RR:   0.000 FEB: -10.212
USER: RMSD 6.387317
USER: SEED 161
USER: STATUS searching
USER: GENES 26
USER: genes 0 Translation |==|  0.65176 0.57677 0.42594
USER: genes 1 Rotation |==|  0.35533 0.90181 0.68208 0.68566
USER: genes 2 Torsion [C]-CA--CB-[CG] |==|  0.27775
USER: genes 3 Torsion [CA]-CB--CG-[CD] |==|  0.70624
USER: genes 4 Torsion [CB]-CG--CD-[CE] |==|  0.20246
USER: genes 5 Torsion [CG]-CD--CE-[NZ] |==|  0.11298
USER: genes 6 Torsion [CD]-CE--NZ-[HZ1] |==|  0.39726
USER: genes 7 Torsion [N]-CA--C-[N] |==|  0.23277
USER: genes 8 Torsion [C]-N--CA-[CB] |==|  0.85967
USER: genes 9 Torsion [N]-CA--CB-[CG] |==|  0.72459
USER: genes 10 Torsion [CA]-CB--CG-[CD] |==|  0.82019
USER: genes 11 Torsion [CB]-CG--CD-[NE] |==|  0.39344
USER: genes 12 Torsion [CG]-CD--NE-[CZ] |==|  0.43954
USER: genes 13 Torsion [N]-CA--C-[N] |==|  0.34460
USER: genes 14 Torsion [C]-N--CA-[C] |==|  0.63915
USER: genes 15 Torsion [N]-CA--C-[O] |==|  0.07953
USER: genes 16 Torsion [CB]-CA--N-[C] |==|  0.34125
USER: genes 17 Torsion [N]-C--CA-[N] |==|  0.88947
USER: genes 18 Torsion [C]-CA--CB-[CG] |==|  0.08715
USER: genes 19 Torsion [CA]-CB--CG-[CD] |==|  0.25273
USER: genes 20 Torsion [CB]-CG--CD-[CE] |==|  0.72743
USER: genes 21 Torsion [CG]-CD--CE-[NZ] |==|  0.72075
USER: genes 22 Torsion [CD]-CE--NZ-[HZ3] |==|  0.28366
USER: genes 23 Torsion [C]-CA--N-[C] |==|  0.65301
USER: genes 24 Torsion [N]-C--CA-[N] |==|  0.67393
USER: genes 25 Torsion [N]-C--CA-[CB] |==|  0.76998
ROOT
ATOM      1  CA  LYS B 185       4.977  36.798   5.296  1.00 91.41 LIG 0.18  C 
ENDROOT
BRANCH 1 2
ATOM      2  CB  LYS B 185       6.214  37.695   5.183  1.00 90.53 LIG 0.04  C 
BRANCH 2 3
ATOM      3  CG  LYS B 185       6.710  37.989   3.769  1.00 86.81 LIG 0.00  C 
BRANCH 3 4
ATOM      4  CD  LYS B 185       7.987  37.201   3.455  1.00 79.71 LIG 0.03  C 
BRANCH 4 5
ATOM      5  CE  LYS B 185       7.723  35.708   3.241  1.00 72.24 LIG 0.23  C 
BRANCH 5 6
ATOM      6  NZ  LYS B 185       6.485  35.434   2.455  1.00 67.20 LIG-0.08  N 
ATOM      7 HZ1  LYS B 185       6.620  34.734   1.921  1.00 67.20 LIG 0.27  HD
ATOM      8 HZ3  LYS B 185       6.281  36.147   1.963  1.00 67.20 LIG 0.27  HD
ATOM      9 HZ2  LYS B 185       5.814  35.255   3.012  1.00 67.20 LIG 0.27  HD
ENDBRANCH 5 6
ENDBRANCH 4 5
ENDBRANCH 3 4
ENDBRANCH 2 3
ENDBRANCH 1 2
BRANCH 1 10
ATOM     10  C   LYS B 185       5.404  35.374   5.637  1.00 87.67 LIG 0.24  C 
ATOM     11 O    LYS B 185       6.465  35.164   6.235  1.00 75.85 LIG-0.27  OA
ATOM     12  N   ARG B 186       4.583  34.407   5.234  1.00 93.18 LIG-0.35  N 
ATOM     13 H    ARG B 186       3.822  34.567   4.868  1.00 93.18 LIG 0.16  HD
BRANCH 12 14
ATOM     14  CA  ARG B 186       4.872  32.980   5.363  1.00 93.88 LIG 0.18  C 
BRANCH 14 15
ATOM     15  CB  ARG B 186       6.271  32.705   4.790  1.00 94.11 LIG 0.04  C 
BRANCH 15 16
ATOM     16  CG  ARG B 186       6.236  32.156   3.369  1.00 91.13 LIG 0.02  C 
BRANCH 16 17
ATOM     17  CD  ARG B 186       5.581  30.788   3.283  1.00 90.43 LIG 0.14  C 
BRANCH 17 18
ATOM     18  NE  ARG B 186       4.768  30.668   2.073  1.00 88.65 LIG-0.23  N 
ATOM     19 HE   ARG B 186       4.495  31.392   1.696  1.00 88.65 LIG 0.18  HD
ATOM     20  CZ  ARG B 186       4.426  29.507   1.518  1.00 77.61 LIG 0.67  C 
ATOM     21  NH2 ARG B 186       3.681  29.482   0.421  1.00 64.46 LIG-0.23  N 
ATOM     22  NH1 ARG B 186       4.833  28.370   2.062  1.00 71.89 LIG-0.23  N 
ATOM     23 2HH2 ARG B 186       3.463  28.729   0.067  1.00 64.46 LIG 0.17  HD
ATOM     24 1HH2 ARG B 186       3.417  30.218   0.063  1.00 64.46 LIG 0.17  HD
ATOM     25 1HH1 ARG B 186       5.318  28.383   2.772  1.00 71.89 LIG 0.17  HD
ATOM     26 2HH1 ARG B 186       4.612  27.619   1.705  1.00 71.89 LIG 0.17  HD
ENDBRANCH 17 18
ENDBRANCH 16 17
ENDBRANCH 15 16
ENDBRANCH 14 15
BRANCH 14 27
ATOM     27  C   ARG B 186       4.746  32.602   6.855  1.00100.48 LIG 0.24  C 
ATOM     28  N   ALA B 187       3.917  31.624   7.246  1.00104.89 LIG-0.35  N 
ATOM     29 H    ALA B 187       3.836  31.410   8.075  1.00104.89 LIG 0.16  HD
ATOM     30 O    ARG B 186       5.412  33.234   7.679  1.00101.56 LIG-0.27  OA
BRANCH 28 31
ATOM     31  CA  ALA B 187       3.063  30.807   6.381  1.00100.92 LIG 0.16  C 
ATOM     32  CB  ALA B 187       3.617  29.378   6.279  1.00 98.55 LIG 0.04  C 
BRANCH 31 33
ATOM     33  C   ALA B 187       1.625  30.773   6.893  1.00 96.24 LIG 0.22  C 
ATOM     34 O    ALA B 187       1.164  31.718   7.535  1.00 95.92 LIG-0.29  OA
ENDBRANCH 31 33
ENDBRANCH 28 31
ENDBRANCH 14 27
ENDBRANCH 12 14
ENDBRANCH 1 10
BRANCH 1 35
ATOM     35  N   LYS B 185       4.039  37.290   6.304  1.00 94.70 LIG-0.35  N 
ATOM     36 H    LYS B 185       4.385  37.370   7.087  1.00 94.70 LIG 0.16  HD
ATOM     37  C   LYS B 184       2.763  37.587   6.036  1.00 95.69 LIG 0.24  C 
ATOM     38 O    LYS B 184       2.248  37.407   4.928  1.00 96.36 LIG-0.27  OA
BRANCH 37 39
ATOM     39  CA  LYS B 184       1.957  38.184   7.187  1.00 89.09 LIG 0.18  C 
BRANCH 39 40
ATOM     40  CB  LYS B 184       2.210  39.691   7.297  1.00 73.03 LIG 0.04  C 
BRANCH 40 41
ATOM     41  CG  LYS B 184       2.504  40.371   5.953  1.00 60.77 LIG 0.00  C 
BRANCH 41 42
ATOM     42  CD  LYS B 184       1.236  40.886   5.293  1.00 63.88 LIG 0.03  C 
BRANCH 42 43
ATOM     43  CE  LYS B 184       0.696  39.930   4.231  1.00 60.38 LIG 0.23  C 
BRANCH 43 44
ATOM     44  NZ  LYS B 184       1.011  40.294   2.805  1.00 53.06 LIG-0.08  N 
ATOM     45 HZ3  LYS B 184       1.679  39.785   2.509  1.00 53.06 LIG 0.27  HD
ATOM     46 HZ2  LYS B 184       1.249  41.150   2.762  1.00 53.06 LIG 0.27  HD
ATOM     47 HZ1  LYS B 184       0.291  40.161   2.299  1.00 53.06 LIG 0.27  HD
ENDBRANCH 43 44
ENDBRANCH 42 43
ENDBRANCH 41 42
ENDBRANCH 40 41
ENDBRANCH 39 40
BRANCH 39 48
ATOM     48  N   LYS B 184       2.288  37.524   8.444  1.00 95.16 LIG-0.35  N 
ATOM     49 H    LYS B 184       3.126  37.530   8.638  1.00 95.16 LIG 0.16  HD
ATOM     50  C   PRO B 183       1.352  36.967   9.211  1.00102.83 LIG 0.24  C 
ATOM     51 O    PRO B 183       0.154  36.975   8.908  1.00 96.65 LIG-0.27  OA
BRANCH 50 52
ATOM     52  CA  PRO B 183       1.837  36.297  10.494  1.00119.60 LIG 0.18  C 
ATOM     53  N   PRO B 183       1.576  34.851  10.548  1.00125.08 LIG-0.34  N 
ATOM     54  CD  PRO B 183       2.726  34.069  10.055  1.00128.64 LIG 0.13  C 
ATOM     55  C   PRO B 182       0.549  34.377  11.275  1.00122.07 LIG 0.26  C 
ATOM     56  CG  PRO B 183       3.835  35.107   9.924  1.00127.59 LIG 0.02  C 
ATOM     57  CB  PRO B 183       3.363  36.365  10.620  1.00124.68 LIG 0.04  C 
ATOM     58 O    PRO B 182      -0.203  35.100  11.933  1.00123.88 LIG-0.27  OA
BRANCH 55 59
ATOM     59  CA  PRO B 182       0.335  32.863  11.291  1.00115.83 LIG 0.35  C 
ATOM     60  CB  PRO B 182      -0.455  32.412  10.053  1.00111.53 LIG 0.05  C 
ATOM     61  CG  PRO B 182      -1.391  31.350  10.546  1.00111.42 LIG 0.04  C 
ATOM     62  CD  PRO B 182      -1.736  31.747  11.947  1.00113.66 LIG 0.32  C 
ATOM     63  N   PRO B 182      -0.512  32.427  12.409  1.00115.25 LIG 0.32  N 
ENDBRANCH 55 59
ENDBRANCH 50 52
ENDBRANCH 39 48
ENDBRANCH 37 39
ENDBRANCH 1 35
TORSDOF 24
ENDMDL
MODEL 42
USER: ADFR SOLUTION from run 196
USER: SCORE 19.084235 LL:  -3.613 LR: -17.373 RR:   0.000 FEB: -10.214
USER: RMSD 9.090221
USER: SEED 195
USER: STATUS no improvement in best in 9 clusters for 5 generations
USER: GENES 26
USER: genes 0 Translation |==|  0.52380 0.55563 0.45937
USER: genes 1 Rotation |==|  0.88166 0.27860 0.29584 0.61678
USER: genes 2 Torsion [C]-CA--CB-[CG] |==|  0.71988
USER: genes 3 Torsion [CA]-CB--CG-[CD] |==|  0.35414
USER: genes 4 Torsion [CB]-CG--CD-[CE] |==|  0.07752
USER: genes 5 Torsion [CG]-CD--CE-[NZ] |==|  0.48436
USER: genes 6 Torsion [CD]-CE--NZ-[HZ1] |==|  0.09589
USER: genes 7 Torsion [N]-CA--C-[N] |==|  0.43719
USER: genes 8 Torsion [C]-N--CA-[CB] |==|  0.24849
USER: genes 9 Torsion [N]-CA--CB-[CG] |==|  0.10826
USER: genes 10 Torsion [CA]-CB--CG-[CD] |==|  0.29009
USER: genes 11 Torsion [CB]-CG--CD-[NE] |==|  0.71002
USER: genes 12 Torsion [CG]-CD--NE-[CZ] |==|  0.65958
USER: genes 13 Torsion [N]-CA--C-[N] |==|  0.29263
USER: genes 14 Torsion [C]-N--CA-[C] |==|  0.74652
USER: genes 15 Torsion [N]-CA--C-[O] |==|  0.42242
USER: genes 16 Torsion [CB]-CA--N-[C] |==|  0.80575
USER: genes 17 Torsion [N]-C--CA-[N] |==|  0.93412
USER: genes 18 Torsion [C]-CA--CB-[CG] |==|  0.56415
USER: genes 19 Torsion [CA]-CB--CG-[CD] |==|  0.68812
USER: genes 20 Torsion [CB]-CG--CD-[CE] |==|  0.04898
USER: genes 21 Torsion [CG]-CD--CE-[NZ] |==|  0.24018
USER: genes 22 Torsion [CD]-CE--NZ-[HZ3] |==|  0.92248
USER: genes 23 Torsion [C]-CA--N-[C] |==|  0.58344
USER: genes 24 Torsion [N]-C--CA-[N] |==|  0.17872
USER: genes 25 Torsion [N]-C--CA-[CB] |==|  0.54737
ROOT
ATOM      1  CA  LYS B 185       2.770  36.227   5.973  1.00 91.41 LIG 0.18  C 
ENDROOT
BRANCH 1 2
ATOM      2  CB  LYS B 185       1.737  37.123   5.281  1.00 90.53 LIG 0.04  C 
BRANCH 2 3
ATOM      3  CG  LYS B 185       0.798  37.906   6.197  1.00 86.81 LIG 0.00  C 
BRANCH 3 4
ATOM      4  CD  LYS B 185       0.805  39.400   5.849  1.00 79.71 LIG 0.03  C 
BRANCH 4 5
ATOM      5  CE  LYS B 185       1.136  39.663   4.378  1.00 72.24 LIG 0.23  C 
BRANCH 5 6
ATOM      6  NZ  LYS B 185       1.017  41.100   3.993  1.00 67.20 LIG-0.08  N 
ATOM      7 HZ1  LYS B 185       1.262  41.613   4.678  1.00 67.20 LIG 0.27  HD
ATOM      8 HZ3  LYS B 185       0.173  41.280   3.776  1.00 67.20 LIG 0.27  HD
ATOM      9 HZ2  LYS B 185       1.544  41.265   3.296  1.00 67.20 LIG 0.27  HD
ENDBRANCH 5 6
ENDBRANCH 4 5
ENDBRANCH 3 4
ENDBRANCH 2 3
ENDBRANCH 1 2
BRANCH 1 10
ATOM     10  C   LYS B 185       4.127  36.923   5.987  1.00 87.67 LIG 0.24  C 
ATOM     11 O    LYS B 185       4.520  37.509   7.001  1.00 75.85 LIG-0.27  OA
ATOM     12  N   ARG B 186       4.821  36.869   4.852  1.00 93.18 LIG-0.35  N 
ATOM     13 H    ARG B 186       4.563  36.411   4.171  1.00 93.18 LIG 0.16  HD
BRANCH 12 14
ATOM     14  CA  ARG B 186       6.085  37.568   4.631  1.00 93.88 LIG 0.18  C 
BRANCH 14 15
ATOM     15  CB  ARG B 186       7.239  36.652   5.069  1.00 94.11 LIG 0.04  C 
BRANCH 15 16
ATOM     16  CG  ARG B 186       7.013  35.191   4.705  1.00 91.13 LIG 0.02  C 
BRANCH 16 17
ATOM     17  CD  ARG B 186       7.846  34.745   3.514  1.00 90.43 LIG 0.14  C 
BRANCH 17 18
ATOM     18  NE  ARG B 186       7.026  34.634   2.309  1.00 88.65 LIG-0.23  N 
ATOM     19 HE   ARG B 186       6.596  35.331   2.047  1.00 88.65 LIG 0.18  HD
ATOM     20  CZ  ARG B 186       6.905  33.519   1.591  1.00 77.61 LIG 0.67  C 
ATOM     21  NH2 ARG B 186       6.137  33.497   0.510  1.00 64.46 LIG-0.23  N 
ATOM     22  NH1 ARG B 186       7.557  32.425   1.955  1.00 71.89 LIG-0.23  N 
ATOM     23 2HH2 ARG B 186       6.062  32.774   0.051  1.00 64.46 LIG 0.17  HD
ATOM     24 1HH2 ARG B 186       5.713  34.206   0.269  1.00 64.46 LIG 0.17  HD
ATOM     25 1HH1 ARG B 186       8.059  32.436   2.654  1.00 71.89 LIG 0.17  HD
ATOM     26 2HH1 ARG B 186       7.479  31.704   1.492  1.00 71.89 LIG 0.17  HD
ENDBRANCH 17 18
ENDBRANCH 16 17
ENDBRANCH 15 16
ENDBRANCH 14 15
BRANCH 14 27
ATOM     27  C   ARG B 186       6.158  37.960   3.140  1.00100.48 LIG 0.24  C 
ATOM     28  N   ALA B 187       5.968  39.230   2.756  1.00104.89 LIG-0.35  N 
ATOM     29 H    ALA B 187       6.001  39.457   1.927  1.00104.89 LIG 0.16  HD
ATOM     30 O    ARG B 186       6.376  37.074   2.310  1.00101.56 LIG-0.27  OA
BRANCH 28 31
ATOM     31  CA  ALA B 187       5.689  40.373   3.628  1.00100.92 LIG 0.16  C 
ATOM     32  CB  ALA B 187       6.328  41.649   3.059  1.00 98.55 LIG 0.04  C 
BRANCH 31 33
ATOM     33  C   ALA B 187       4.187  40.579   3.811  1.00 96.24 LIG 0.22  C 
ATOM     34 O    ALA B 187       3.745  41.099   4.837  1.00 95.92 LIG-0.29  OA
ENDBRANCH 31 33
ENDBRANCH 28 31
ENDBRANCH 14 27
ENDBRANCH 12 14
ENDBRANCH 1 10
BRANCH 1 35
ATOM     35  N   LYS B 185       2.370  35.891   7.339  1.00 94.70 LIG-0.35  N 
ATOM     36 H    LYS B 185       2.149  35.066   7.440  1.00 94.70 LIG 0.16  HD
ATOM     37  C   LYS B 184       2.349  36.780   8.338  1.00 95.69 LIG 0.24  C 
ATOM     38 O    LYS B 184       2.600  37.978   8.177  1.00 96.36 LIG-0.27  OA
BRANCH 37 39
ATOM     39  CA  LYS B 184       2.003  36.229   9.718  1.00 89.09 LIG 0.18  C 
BRANCH 39 40
ATOM     40  CB  LYS B 184       3.276  35.990  10.538  1.00 73.03 LIG 0.04  C 
BRANCH 40 41
ATOM     41  CG  LYS B 184       3.107  34.958  11.661  1.00 60.77 LIG 0.00  C 
BRANCH 41 42
ATOM     42  CD  LYS B 184       3.207  35.600  13.034  1.00 63.88 LIG 0.03  C 
BRANCH 42 43
ATOM     43  CE  LYS B 184       3.018  37.115  12.991  1.00 60.38 LIG 0.23  C 
BRANCH 43 44
ATOM     44  NZ  LYS B 184       1.594  37.598  13.061  1.00 53.06 LIG-0.08  N 
ATOM     45 HZ3  LYS B 184       1.053  36.977  12.723  1.00 53.06 LIG 0.27  HD
ATOM     46 HZ2  LYS B 184       1.511  38.350  12.592  1.00 53.06 LIG 0.27  HD
ATOM     47 HZ1  LYS B 184       1.374  37.753  13.910  1.00 53.06 LIG 0.27  HD
ENDBRANCH 43 44
ENDBRANCH 42 43
ENDBRANCH 41 42
ENDBRANCH 40 41
ENDBRANCH 39 40
BRANCH 39 48
ATOM     48  N   LYS B 184       1.238  34.994   9.604  1.00 95.16 LIG-0.35  N 
ATOM     49 H    LYS B 184       1.414  34.531   8.901  1.00 95.16 LIG 0.16  HD
ATOM     50  C   PRO B 183       0.345  34.635  10.525  1.00102.83 LIG 0.24  C 
ATOM     51 O    PRO B 183       0.112  35.320  11.526  1.00 96.65 LIG-0.27  OA
BRANCH 50 52
ATOM     52  CA  PRO B 183      -0.398  33.325  10.275  1.00119.60 LIG 0.18  C 
ATOM     53  N   PRO B 183       0.467  32.137  10.282  1.00125.08 LIG-0.34  N 
ATOM     54  CD  PRO B 183       0.523  31.508  11.616  1.00128.64 LIG 0.13  C 
ATOM     55  C   PRO B 182       0.843  31.570   9.122  1.00122.07 LIG 0.26  C 
ATOM     56  CG  PRO B 183      -0.570  32.229  12.396  1.00127.59 LIG 0.02  C 
ATOM     57  CB  PRO B 183      -1.391  33.020  11.403  1.00124.68 LIG 0.04  C 
ATOM     58 O    PRO B 182       0.485  31.987   8.019  1.00123.88 LIG-0.27  OA
BRANCH 55 59
ATOM     59  CA  PRO B 182       1.742  30.334   9.199  1.00115.83 LIG 0.35  C 
ATOM     60  CB  PRO B 182       2.415  30.066   7.845  1.00111.53 LIG 0.05  C 
ATOM     61  CG  PRO B 182       2.402  28.575   7.686  1.00111.42 LIG 0.04  C 
ATOM     62  CD  PRO B 182       1.152  28.116   8.367  1.00113.66 LIG 0.32  C 
ATOM     63  N   PRO B 182       0.984  29.102   9.450  1.00115.25 LIG 0.32  N 
ENDBRANCH 55 59
ENDBRANCH 50 52
ENDBRANCH 39 48
ENDBRANCH 37 39
ENDBRANCH 1 35
TORSDOF 24
ENDMDL
MODEL 43
USER: ADFR SOLUTION from run 152
USER: SCORE 19.626366 LL:  -2.885 LR: -17.347 RR:   0.000 FEB: -10.188
USER: RMSD 8.134440
USER: SEED 151
USER: STATUS no improvement in best in 5 clusters for 5 generations
USER: GENES 26
USER: genes 0 Translation |==|  0.49011 0.61633 0.45436
USER: genes 1 Rotation |==|  0.86327 0.32014 0.24241 0.63904
USER: genes 2 Torsion [C]-CA--CB-[CG] |==|  0.04502
USER: genes 3 Torsion [CA]-CB--CG-[CD] |==|  0.34798
USER: genes 4 Torsion [CB]-CG--CD-[CE] |==|  0.29637
USER: genes 5 Torsion [CG]-CD--CE-[NZ] |==|  0.27947
USER: genes 6 Torsion [CD]-CE--NZ-[HZ1] |==|  0.31446
USER: genes 7 Torsion [N]-CA--C-[N] |==|  0.42876
USER: genes 8 Torsion [C]-N--CA-[CB] |==|  0.79397
USER: genes 9 Torsion [N]-CA--CB-[CG] |==|  0.59230
USER: genes 10 Torsion [CA]-CB--CG-[CD] |==|  0.64147
USER: genes 11 Torsion [CB]-CG--CD-[NE] |==|  0.69766
USER: genes 12 Torsion [CG]-CD--NE-[CZ] |==|  0.79896
USER: genes 13 Torsion [N]-CA--C-[N] |==|  0.18640
USER: genes 14 Torsion [C]-N--CA-[C] |==|  0.69374
USER: genes 15 Torsion [N]-CA--C-[O] |==|  0.07316
USER: genes 16 Torsion [CB]-CA--N-[C] |==|  0.82959
USER: genes 17 Torsion [N]-C--CA-[N] |==|  0.47197
USER: genes 18 Torsion [C]-CA--CB-[CG] |==|  0.35110
USER: genes 19 Torsion [CA]-CB--CG-[CD] |==|  0.36577
USER: genes 20 Torsion [CB]-CG--CD-[CE] |==|  0.26071
USER: genes 21 Torsion [CG]-CD--CE-[NZ] |==|  0.99770
USER: genes 22 Torsion [CD]-CE--NZ-[HZ3] |==|  0.01900
USER: genes 23 Torsion [C]-CA--N-[C] |==|  0.62173
USER: genes 24 Torsion [N]-C--CA-[N] |==|  0.06484
USER: genes 25 Torsion [N]-C--CA-[CB] |==|  0.80276
ROOT
ATOM      1  CA  LYS B 185       2.188  37.866   5.872  1.00 91.41 LIG 0.18  C 
ENDROOT
BRANCH 1 2
ATOM      2  CB  LYS B 185       0.947  38.709   5.560  1.00 90.53 LIG 0.04  C 
BRANCH 2 3
ATOM      3  CG  LYS B 185       1.171  39.954   4.704  1.00 86.81 LIG 0.00  C 
BRANCH 3 4
ATOM      4  CD  LYS B 185       0.261  39.948   3.470  1.00 79.71 LIG 0.03  C 
BRANCH 4 5
ATOM      5  CE  LYS B 185      -0.887  40.955   3.577  1.00 72.24 LIG 0.23  C 
BRANCH 5 6
ATOM      6  NZ  LYS B 185      -0.641  42.216   2.818  1.00 67.20 LIG-0.08  N 
ATOM      7 HZ1  LYS B 185      -1.217  42.272   2.141  1.00 67.20 LIG 0.27  HD
ATOM      8 HZ3  LYS B 185       0.190  42.214   2.500  1.00 67.20 LIG 0.27  HD
ATOM      9 HZ2  LYS B 185      -0.750  42.914   3.359  1.00 67.20 LIG 0.27  HD
ENDBRANCH 5 6
ENDBRANCH 4 5
ENDBRANCH 3 4
ENDBRANCH 2 3
ENDBRANCH 1 2
BRANCH 1 10
ATOM     10  C   LYS B 185       3.447  38.679   5.585  1.00 87.67 LIG 0.24  C 
ATOM     11 O    LYS B 185       4.027  39.277   6.497  1.00 75.85 LIG-0.27  OA
ATOM     12  N   ARG B 186       3.844  38.710   4.315  1.00 93.18 LIG-0.35  N 
ATOM     13 H    ARG B 186       3.465  38.246   3.699  1.00 93.18 LIG 0.16  HD
BRANCH 12 14
ATOM     14  CA  ARG B 186       4.954  39.523   3.825  1.00 93.88 LIG 0.18  C 
BRANCH 14 15
ATOM     15  CB  ARG B 186       4.507  40.993   3.775  1.00 94.11 LIG 0.04  C 
BRANCH 15 16
ATOM     16  CG  ARG B 186       5.144  41.772   2.632  1.00 91.13 LIG 0.02  C 
BRANCH 16 17
ATOM     17  CD  ARG B 186       5.783  43.073   3.090  1.00 90.43 LIG 0.14  C 
BRANCH 17 18
ATOM     18  NE  ARG B 186       5.012  44.228   2.635  1.00 88.65 LIG-0.23  N 
ATOM     19 HE   ARG B 186       4.558  44.667   3.219  1.00 88.65 LIG 0.18  HD
ATOM     20  CZ  ARG B 186       4.970  44.644   1.370  1.00 77.61 LIG 0.67  C 
ATOM     21  NH2 ARG B 186       4.241  45.700   1.035  1.00 64.46 LIG-0.23  N 
ATOM     22  NH1 ARG B 186       5.662  44.002   0.441  1.00 71.89 LIG-0.23  N 
ATOM     23 2HH2 ARG B 186       4.218  45.964   0.217  1.00 64.46 LIG 0.17  HD
ATOM     24 1HH2 ARG B 186       3.792  46.122   1.636  1.00 64.46 LIG 0.17  HD
ATOM     25 1HH1 ARG B 186       6.137  43.318   0.655  1.00 71.89 LIG 0.17  HD
ATOM     26 2HH1 ARG B 186       5.635  44.269  -0.377  1.00 71.89 LIG 0.17  HD
ENDBRANCH 17 18
ENDBRANCH 16 17
ENDBRANCH 15 16
ENDBRANCH 14 15
BRANCH 14 27
ATOM     27  C   ARG B 186       6.163  39.291   4.756  1.00100.48 LIG 0.24  C 
ATOM     28  N   ALA B 187       6.774  38.098   4.802  1.00104.89 LIG-0.35  N 
ATOM     29 H    ALA B 187       7.444  37.958   5.322  1.00104.89 LIG 0.16  HD
ATOM     30 O    ARG B 186       6.541  40.222   5.471  1.00101.56 LIG-0.27  OA
BRANCH 28 31
ATOM     31  CA  ALA B 187       6.423  36.909   4.023  1.00100.92 LIG 0.16  C 
ATOM     32  CB  ALA B 187       7.659  36.367   3.290  1.00 98.55 LIG 0.04  C 
BRANCH 31 33
ATOM     33  C   ALA B 187       5.825  35.820   4.910  1.00 96.24 LIG 0.22  C 
ATOM     34 O    ALA B 187       5.247  36.111   5.959  1.00 95.92 LIG-0.29  OA
ENDBRANCH 31 33
ENDBRANCH 28 31
ENDBRANCH 14 27
ENDBRANCH 12 14
ENDBRANCH 1 10
BRANCH 1 35
ATOM     35  N   LYS B 185       2.199  37.406   7.259  1.00 94.70 LIG-0.35  N 
ATOM     36 H    LYS B 185       2.189  36.550   7.339  1.00 94.70 LIG 0.16  HD
ATOM     37  C   LYS B 184       2.222  38.237   8.308  1.00 95.69 LIG 0.24  C 
ATOM     38 O    LYS B 184       2.167  39.465   8.194  1.00 96.36 LIG-0.27  OA
BRANCH 37 39
ATOM     39  CA  LYS B 184       2.332  37.580   9.681  1.00 89.09 LIG 0.18  C 
BRANCH 39 40
ATOM     40  CB  LYS B 184       1.057  36.794  10.006  1.00 73.03 LIG 0.04  C 
BRANCH 40 41
ATOM     41  CG  LYS B 184       1.311  35.331  10.395  1.00 60.77 LIG 0.00  C 
BRANCH 41 42
ATOM     42  CD  LYS B 184       0.565  34.948  11.662  1.00 63.88 LIG 0.03  C 
BRANCH 42 43
ATOM     43  CE  LYS B 184      -0.795  34.315  11.375  1.00 60.38 LIG 0.23  C 
BRANCH 43 44
ATOM     44  NZ  LYS B 184      -1.168  34.198   9.921  1.00 53.06 LIG-0.08  N 
ATOM     45 HZ3  LYS B 184      -0.474  34.437   9.417  1.00 53.06 LIG 0.27  HD
ATOM     46 HZ2  LYS B 184      -1.858  34.732   9.747  1.00 53.06 LIG 0.27  HD
ATOM     47 HZ1  LYS B 184      -1.391  33.356   9.739  1.00 53.06 LIG 0.27  HD
ENDBRANCH 43 44
ENDBRANCH 42 43
ENDBRANCH 41 42
ENDBRANCH 40 41
ENDBRANCH 39 40
BRANCH 39 48
ATOM     48  N   LYS B 184       2.586  38.578  10.712  1.00 95.16 LIG-0.35  N 
ATOM     49 H    LYS B 184       2.107  39.289  10.643  1.00 95.16 LIG 0.16  HD
ATOM     50  C   PRO B 183       3.490  38.382  11.671  1.00102.83 LIG 0.24  C 
ATOM     51 O    PRO B 183       4.163  37.348  11.746  1.00 96.65 LIG-0.27  OA
BRANCH 50 52
ATOM     52  CA  PRO B 183       3.666  39.514  12.679  1.00119.60 LIG 0.18  C 
ATOM     53  N   PRO B 183       2.497  40.398  12.796  1.00125.08 LIG-0.34  N 
ATOM     54  CD  PRO B 183       1.594  39.969  13.881  1.00128.64 LIG 0.13  C 
ATOM     55  C   PRO B 182       2.497  41.600  12.194  1.00122.07 LIG 0.26  C 
ATOM     56  CG  PRO B 183       2.399  38.902  14.615  1.00127.59 LIG 0.02  C 
ATOM     57  CB  PRO B 183       3.821  38.975  14.106  1.00124.68 LIG 0.04  C 
ATOM     58 O    PRO B 182       3.451  42.028  11.540  1.00123.88 LIG-0.27  OA
BRANCH 55 59
ATOM     59  CA  PRO B 182       1.251  42.471  12.357  1.00115.83 LIG 0.35  C 
ATOM     60  CB  PRO B 182       0.072  41.889  11.562  1.00111.53 LIG 0.05  C 
ATOM     61  CG  PRO B 182      -0.633  43.076  10.977  1.00111.42 LIG 0.04  C 
ATOM     62  CD  PRO B 182       0.441  44.083  10.712  1.00113.66 LIG 0.32  C 
ATOM     63  N   PRO B 182       1.421  43.810  11.778  1.00115.25 LIG 0.32  N 
ENDBRANCH 55 59
ENDBRANCH 50 52
ENDBRANCH 39 48
ENDBRANCH 37 39
ENDBRANCH 1 35
TORSDOF 24
ENDMDL
MODEL 44
USER: ADFR SOLUTION from run 43
USER: SCORE 19.165021 LL:  -2.942 LR: -17.339 RR:   0.000 FEB: -10.179
USER: RMSD 9.998845
USER: SEED 42
USER: STATUS searching
USER: GENES 26
USER: genes 0 Translation |==|  0.46651 0.43942 0.55802
USER: genes 1 Rotation |==|  0.45916 0.46951 0.98585 0.60653
USER: genes 2 Torsion [C]-CA--CB-[CG] |==|  0.39552
USER: genes 3 Torsion [CA]-CB--CG-[CD] |==|  0.03775
USER: genes 4 Torsion [CB]-CG--CD-[CE] |==|  0.42717
USER: genes 5 Torsion [CG]-CD--CE-[NZ] |==|  0.45475
USER: genes 6 Torsion [CD]-CE--NZ-[HZ1] |==|  0.40994
USER: genes 7 Torsion [N]-CA--C-[N] |==|  0.43033
USER: genes 8 Torsion [C]-N--CA-[CB] |==|  0.50948
USER: genes 9 Torsion [N]-CA--CB-[CG] |==|  0.75546
USER: genes 10 Torsion [CA]-CB--CG-[CD] |==|  0.87999
USER: genes 11 Torsion [CB]-CG--CD-[NE] |==|  0.55512
USER: genes 12 Torsion [CG]-CD--NE-[CZ] |==|  0.18359
USER: genes 13 Torsion [N]-CA--C-[N] |==|  0.44677
USER: genes 14 Torsion [C]-N--CA-[C] |==|  0.56151
USER: genes 15 Torsion [N]-CA--C-[O] |==|  0.44272
USER: genes 16 Torsion [CB]-CA--N-[C] |==|  0.85388
USER: genes 17 Torsion [N]-C--CA-[N] |==|  0.36546
USER: genes 18 Torsion [C]-CA--CB-[CG] |==|  0.29119
USER: genes 19 Torsion [CA]-CB--CG-[CD] |==|  0.66356
USER: genes 20 Torsion [CB]-CG--CD-[CE] |==|  0.53929
USER: genes 21 Torsion [CG]-CD--CE-[NZ] |==|  0.54712
USER: genes 22 Torsion [CD]-CE--NZ-[HZ3] |==|  0.89412
USER: genes 23 Torsion [C]-CA--N-[C] |==|  0.61081
USER: genes 24 Torsion [N]-C--CA-[N] |==|  0.89574
USER: genes 25 Torsion [N]-C--CA-[CB] |==|  0.81442
ROOT
ATOM      1  CA  LYS B 185       1.781  33.089   7.971  1.00 91.41 LIG 0.18  C 
ENDROOT
BRANCH 1 2
ATOM      2  CB  LYS B 185       2.421  33.057   9.363  1.00 90.53 LIG 0.04  C 
BRANCH 2 3
ATOM      3  CG  LYS B 185       1.460  33.036  10.550  1.00 86.81 LIG 0.00  C 
BRANCH 3 4
ATOM      4  CD  LYS B 185       0.030  32.716  10.097  1.00 79.71 LIG 0.03  C 
BRANCH 4 5
ATOM      5  CE  LYS B 185      -0.808  32.067  11.202  1.00 72.24 LIG 0.23  C 
BRANCH 5 6
ATOM      6  NZ  LYS B 185      -2.274  32.100  10.928  1.00 67.20 LIG-0.08  N 
ATOM      7 HZ1  LYS B 185      -2.658  31.376  11.276  1.00 67.20 LIG 0.27  HD
ATOM      8 HZ3  LYS B 185      -2.412  32.114  10.049  1.00 67.20 LIG 0.27  HD
ATOM      9 HZ2  LYS B 185      -2.629  32.829  11.295  1.00 67.20 LIG 0.27  HD
ENDBRANCH 5 6
ENDBRANCH 4 5
ENDBRANCH 3 4
ENDBRANCH 2 3
ENDBRANCH 1 2
BRANCH 1 10
ATOM     10  C   LYS B 185       2.604  33.982   7.047  1.00 87.67 LIG 0.24  C 
ATOM     11 O    LYS B 185       3.439  33.490   6.281  1.00 75.85 LIG-0.27  OA
ATOM     12  N   ARG B 186       2.375  35.290   7.145  1.00 93.18 LIG-0.35  N 
ATOM     13 H    ARG B 186       1.754  35.616   7.641  1.00 93.18 LIG 0.16  HD
BRANCH 12 14
ATOM     14  CA  ARG B 186       3.139  36.310   6.431  1.00 93.88 LIG 0.18  C 
BRANCH 14 15
ATOM     15  CB  ARG B 186       2.638  37.697   6.865  1.00 94.11 LIG 0.04  C 
BRANCH 15 16
ATOM     16  CG  ARG B 186       1.468  38.197   6.027  1.00 91.13 LIG 0.02  C 
BRANCH 16 17
ATOM     17  CD  ARG B 186       1.658  37.944   4.540  1.00 90.43 LIG 0.14  C 
BRANCH 17 18
ATOM     18  NE  ARG B 186       0.795  38.814   3.743  1.00 88.65 LIG-0.23  N 
ATOM     19 HE   ARG B 186       0.167  38.449   3.283  1.00 88.65 LIG 0.18  HD
ATOM     20  CZ  ARG B 186       0.922  40.138   3.686  1.00 77.61 LIG 0.67  C 
ATOM     21  NH2 ARG B 186       0.101  40.859   2.934  1.00 64.46 LIG-0.23  N 
ATOM     22  NH1 ARG B 186       1.871  40.742   4.387  1.00 71.89 LIG-0.23  N 
ATOM     23 2HH2 ARG B 186       0.187  41.714   2.902  1.00 64.46 LIG 0.17  HD
ATOM     24 1HH2 ARG B 186      -0.518  40.472   2.480  1.00 64.46 LIG 0.17  HD
ATOM     25 1HH1 ARG B 186       2.403  40.278   4.878  1.00 71.89 LIG 0.17  HD
ATOM     26 2HH1 ARG B 186       1.954  41.597   4.350  1.00 71.89 LIG 0.17  HD
ENDBRANCH 17 18
ENDBRANCH 16 17
ENDBRANCH 15 16
ENDBRANCH 14 15
BRANCH 14 27
ATOM     27  C   ARG B 186       4.636  36.086   6.738  1.00100.48 LIG 0.24  C 
ATOM     28  N   ALA B 187       5.583  36.608   5.946  1.00104.89 LIG-0.35  N 
ATOM     29 H    ALA B 187       6.419  36.484   6.106  1.00104.89 LIG 0.16  HD
ATOM     30 O    ARG B 186       4.938  35.401   7.718  1.00101.56 LIG-0.27  OA
BRANCH 28 31
ATOM     31  CA  ALA B 187       5.367  37.425   4.750  1.00100.92 LIG 0.16  C 
ATOM     32  CB  ALA B 187       5.056  38.877   5.144  1.00 98.55 LIG 0.04  C 
BRANCH 31 33
ATOM     33  C   ALA B 187       6.580  37.385   3.823  1.00 96.24 LIG 0.22  C 
ATOM     34 O    ALA B 187       6.469  37.677   2.631  1.00 95.92 LIG-0.29  OA
ENDBRANCH 31 33
ENDBRANCH 28 31
ENDBRANCH 14 27
ENDBRANCH 12 14
ENDBRANCH 1 10
BRANCH 1 35
ATOM     35  N   LYS B 185       1.665  31.751   7.394  1.00 94.70 LIG-0.35  N 
ATOM     36 H    LYS B 185       0.871  31.560   7.125  1.00 94.70 LIG 0.16  HD
ATOM     37  C   LYS B 184       2.695  30.903   7.295  1.00 95.69 LIG 0.24  C 
ATOM     38 O    LYS B 184       3.818  31.152   7.744  1.00 96.36 LIG-0.27  OA
BRANCH 37 39
ATOM     39  CA  LYS B 184       2.412  29.587   6.574  1.00 89.09 LIG 0.18  C 
BRANCH 39 40
ATOM     40  CB  LYS B 184       2.324  28.432   7.577  1.00 73.03 LIG 0.04  C 
BRANCH 40 41
ATOM     41  CG  LYS B 184       0.893  27.949   7.845  1.00 60.77 LIG 0.00  C 
BRANCH 41 42
ATOM     42  CD  LYS B 184       0.526  28.066   9.314  1.00 63.88 LIG 0.03  C 
BRANCH 42 43
ATOM     43  CE  LYS B 184      -0.740  27.287   9.668  1.00 60.38 LIG 0.23  C 
BRANCH 43 44
ATOM     44  NZ  LYS B 184      -1.391  27.658  10.974  1.00 53.06 LIG-0.08  N 
ATOM     45 HZ3  LYS B 184      -0.763  27.827  11.581  1.00 53.06 LIG 0.27  HD
ATOM     46 HZ2  LYS B 184      -1.900  26.983  11.254  1.00 53.06 LIG 0.27  HD
ATOM     47 HZ1  LYS B 184      -1.895  28.382  10.859  1.00 53.06 LIG 0.27  HD
ENDBRANCH 43 44
ENDBRANCH 42 43
ENDBRANCH 41 42
ENDBRANCH 40 41
ENDBRANCH 39 40
BRANCH 39 48
ATOM     48  N   LYS B 184       3.440  29.314   5.578  1.00 95.16 LIG-0.35  N 
ATOM     49 H    LYS B 184       4.239  29.511   5.828  1.00 95.16 LIG 0.16  HD
ATOM     50  C   PRO B 183       3.141  28.800   4.385  1.00102.83 LIG 0.24  C 
ATOM     51 O    PRO B 183       1.983  28.525   4.052  1.00 96.65 LIG-0.27  OA
BRANCH 50 52
ATOM     52  CA  PRO B 183       4.311  28.576   3.430  1.00119.60 LIG 0.18  C 
ATOM     53  N   PRO B 183       5.340  29.624   3.490  1.00125.08 LIG-0.34  N 
ATOM     54  CD  PRO B 183       6.423  29.274   4.429  1.00128.64 LIG 0.13  C 
ATOM     55  C   PRO B 182       5.391  30.575   2.541  1.00122.07 LIG 0.26  C 
ATOM     56  CG  PRO B 183       6.143  27.815   4.770  1.00127.59 LIG 0.02  C 
ATOM     57  CB  PRO B 183       5.100  27.314   3.796  1.00124.68 LIG 0.04  C 
ATOM     58 O    PRO B 182       4.613  30.617   1.584  1.00123.88 LIG-0.27  OA
BRANCH 55 59
ATOM     59  CA  PRO B 182       6.488  31.635   2.660  1.00115.83 LIG 0.35  C 
ATOM     60  CB  PRO B 182       6.254  32.522   3.892  1.00111.53 LIG 0.05  C 
ATOM     61  CG  PRO B 182       6.619  33.909   3.454  1.00111.42 LIG 0.04  C 
ATOM     62  CD  PRO B 182       6.254  33.975   2.005  1.00113.66 LIG 0.32  C 
ATOM     63  N   PRO B 182       6.470  32.591   1.546  1.00115.25 LIG 0.32  N 
ENDBRANCH 55 59
ENDBRANCH 50 52
ENDBRANCH 39 48
ENDBRANCH 37 39
ENDBRANCH 1 35
TORSDOF 24
ENDMDL
MODEL 45
USER: ADFR SOLUTION from run 164
USER: SCORE 19.731472 LL:  -3.025 LR: -17.320 RR:   0.000 FEB: -10.161
USER: RMSD 10.741764
USER: SEED 163
USER: STATUS no improvement in best in 6 clusters for 5 generations
USER: GENES 26
USER: genes 0 Translation |==|  0.50677 0.59515 0.41093
USER: genes 1 Rotation |==|  0.90857 0.43913 0.22423 0.55758
USER: genes 2 Torsion [C]-CA--CB-[CG] |==|  0.95263
USER: genes 3 Torsion [CA]-CB--CG-[CD] |==|  0.36404
USER: genes 4 Torsion [CB]-CG--CD-[CE] |==|  0.90795
USER: genes 5 Torsion [CG]-CD--CE-[NZ] |==|  0.76898
USER: genes 6 Torsion [CD]-CE--NZ-[HZ1] |==|  0.65768
USER: genes 7 Torsion [N]-CA--C-[N] |==|  0.38545
USER: genes 8 Torsion [C]-N--CA-[CB] |==|  0.78777
USER: genes 9 Torsion [N]-CA--CB-[CG] |==|  0.51982
USER: genes 10 Torsion [CA]-CB--CG-[CD] |==|  0.18989
USER: genes 11 Torsion [CB]-CG--CD-[NE] |==|  0.30885
USER: genes 12 Torsion [CG]-CD--NE-[CZ] |==|  0.52904
USER: genes 13 Torsion [N]-CA--C-[N] |==|  0.23723
USER: genes 14 Torsion [C]-N--CA-[C] |==|  0.15019
USER: genes 15 Torsion [N]-CA--C-[O] |==|  0.70772
USER: genes 16 Torsion [CB]-CA--N-[C] |==|  0.85340
USER: genes 17 Torsion [N]-C--CA-[N] |==|  0.08333
USER: genes 18 Torsion [C]-CA--CB-[CG] |==|  0.22527
USER: genes 19 Torsion [CA]-CB--CG-[CD] |==|  0.24317
USER: genes 20 Torsion [CB]-CG--CD-[CE] |==|  0.59547
USER: genes 21 Torsion [CG]-CD--CE-[NZ] |==|  0.19407
USER: genes 22 Torsion [CD]-CE--NZ-[HZ3] |==|  0.63942
USER: genes 23 Torsion [C]-CA--N-[C] |==|  0.70415
USER: genes 24 Torsion [N]-C--CA-[N] |==|  0.64580
USER: genes 25 Torsion [N]-C--CA-[CB] |==|  0.62189
ROOT
ATOM      1  CA  LYS B 185       2.476  37.294   4.992  1.00 91.41 LIG 0.18  C 
ENDROOT
BRANCH 1 2
ATOM      2  CB  LYS B 185       1.068  37.897   5.068  1.00 90.53 LIG 0.04  C 
BRANCH 2 3
ATOM      3  CG  LYS B 185       0.944  39.238   5.787  1.00 86.81 LIG 0.00  C 
BRANCH 3 4
ATOM      4  CD  LYS B 185       0.145  40.243   4.948  1.00 79.71 LIG 0.03  C 
BRANCH 4 5
ATOM      5  CE  LYS B 185       0.355  40.056   3.443  1.00 72.24 LIG 0.23  C 
BRANCH 5 6
ATOM      6  NZ  LYS B 185       1.586  40.725   2.929  1.00 67.20 LIG-0.08  N 
ATOM      7 HZ1  LYS B 185       1.367  41.292   2.279  1.00 67.20 LIG 0.27  HD
ATOM      8 HZ3  LYS B 185       2.146  40.112   2.611  1.00 67.20 LIG 0.27  HD
ATOM      9 HZ2  LYS B 185       1.979  41.171   3.592  1.00 67.20 LIG 0.27  HD
ENDBRANCH 5 6
ENDBRANCH 4 5
ENDBRANCH 3 4
ENDBRANCH 2 3
ENDBRANCH 1 2
BRANCH 1 10
ATOM     10  C   LYS B 185       3.513  38.372   5.290  1.00 87.67 LIG 0.24  C 
ATOM     11 O    LYS B 185       3.771  38.688   6.456  1.00 75.85 LIG-0.27  OA
ATOM     12  N   ARG B 186       4.082  38.941   4.230  1.00 93.18 LIG-0.35  N 
ATOM     13 H    ARG B 186       3.936  38.676   3.426  1.00 93.18 LIG 0.16  HD
BRANCH 12 14
ATOM     14  CA  ARG B 186       5.010  40.067   4.306  1.00 93.88 LIG 0.18  C 
BRANCH 14 15
ATOM     15  CB  ARG B 186       4.209  41.352   4.573  1.00 94.11 LIG 0.04  C 
BRANCH 15 16
ATOM     16  CG  ARG B 186       5.061  42.612   4.499  1.00 91.13 LIG 0.02  C 
BRANCH 16 17
ATOM     17  CD  ARG B 186       5.544  42.914   3.090  1.00 90.43 LIG 0.14  C 
BRANCH 17 18
ATOM     18  NE  ARG B 186       4.900  44.114   2.558  1.00 88.65 LIG-0.23  N 
ATOM     19 HE   ARG B 186       4.442  44.601   3.099  1.00 88.65 LIG 0.18  HD
ATOM     20  CZ  ARG B 186       4.979  44.499   1.286  1.00 77.61 LIG 0.67  C 
ATOM     21  NH2 ARG B 186       4.362  45.600   0.878  1.00 64.46 LIG-0.23  N 
ATOM     22  NH1 ARG B 186       5.682  43.782   0.421  1.00 71.89 LIG-0.23  N 
ATOM     23 2HH2 ARG B 186       4.417  45.843   0.055  1.00 64.46 LIG 0.17  HD
ATOM     24 1HH2 ARG B 186       3.906  46.069   1.436  1.00 64.46 LIG 0.17  HD
ATOM     25 1HH1 ARG B 186       6.086  43.069   0.683  1.00 71.89 LIG 0.17  HD
ATOM     26 2HH1 ARG B 186       5.734  44.030  -0.401  1.00 71.89 LIG 0.17  HD
ENDBRANCH 17 18
ENDBRANCH 16 17
ENDBRANCH 15 16
ENDBRANCH 14 15
BRANCH 14 27
ATOM     27  C   ARG B 186       6.044  39.760   5.410  1.00100.48 LIG 0.24  C 
ATOM     28  N   ALA B 187       7.140  39.035   5.141  1.00104.89 LIG-0.35  N 
ATOM     29 H    ALA B 187       7.718  38.854   5.751  1.00104.89 LIG 0.16  HD
ATOM     30 O    ARG B 186       5.828  40.180   6.550  1.00101.56 LIG-0.27  OA
BRANCH 28 31
ATOM     31  CA  ALA B 187       7.512  38.467   3.844  1.00100.92 LIG 0.16  C 
ATOM     32  CB  ALA B 187       6.539  37.343   3.454  1.00 98.55 LIG 0.04  C 
BRANCH 31 33
ATOM     33  C   ALA B 187       7.535  39.536   2.754  1.00 96.24 LIG 0.22  C 
ATOM     34 O    ALA B 187       6.633  39.600   1.917  1.00 95.92 LIG-0.29  OA
ENDBRANCH 31 33
ENDBRANCH 28 31
ENDBRANCH 14 27
ENDBRANCH 12 14
ENDBRANCH 1 10
BRANCH 1 35
ATOM     35  N   LYS B 185       2.640  36.177   5.921  1.00 94.70 LIG-0.35  N 
ATOM     36 H    LYS B 185       2.934  35.460   5.548  1.00 94.70 LIG 0.16  HD
ATOM     37  C   LYS B 184       2.359  36.259   7.226  1.00 95.69 LIG 0.24  C 
ATOM     38 O    LYS B 184       1.871  37.267   7.747  1.00 96.36 LIG-0.27  OA
BRANCH 37 39
ATOM     39  CA  LYS B 184       2.687  35.025   8.061  1.00 89.09 LIG 0.18  C 
BRANCH 39 40
ATOM     40  CB  LYS B 184       2.979  35.419   9.513  1.00 73.03 LIG 0.04  C 
BRANCH 40 41
ATOM     41  CG  LYS B 184       1.720  35.640  10.362  1.00 60.77 LIG 0.00  C 
BRANCH 41 42
ATOM     42  CD  LYS B 184       1.232  34.347  10.993  1.00 63.88 LIG 0.03  C 
BRANCH 42 43
ATOM     43  CE  LYS B 184      -0.290  34.282  11.100  1.00 60.38 LIG 0.23  C 
BRANCH 43 44
ATOM     44  NZ  LYS B 184      -1.031  34.137   9.797  1.00 53.06 LIG-0.08  N 
ATOM     45 HZ3  LYS B 184      -1.675  34.749   9.751  1.00 53.06 LIG 0.27  HD
ATOM     46 HZ2  LYS B 184      -1.391  33.324   9.749  1.00 53.06 LIG 0.27  HD
ATOM     47 HZ1  LYS B 184      -0.465  34.251   9.119  1.00 53.06 LIG 0.27  HD
ENDBRANCH 43 44
ENDBRANCH 42 43
ENDBRANCH 41 42
ENDBRANCH 40 41
ENDBRANCH 39 40
BRANCH 39 48
ATOM     48  N   LYS B 184       3.821  34.306   7.496  1.00 95.16 LIG-0.35  N 
ATOM     49 H    LYS B 184       4.581  34.691   7.616  1.00 95.16 LIG 0.16  HD
ATOM     50  C   PRO B 183       3.668  33.150   6.851  1.00102.83 LIG 0.24  C 
ATOM     51 O    PRO B 183       2.564  32.619   6.694  1.00 96.65 LIG-0.27  OA
BRANCH 50 52
ATOM     52  CA  PRO B 183       4.937  32.509   6.296  1.00119.60 LIG 0.18  C 
ATOM     53  N   PRO B 183       4.858  32.165   4.869  1.00125.08 LIG-0.34  N 
ATOM     54  CD  PRO B 183       5.385  33.247   4.015  1.00128.64 LIG 0.13  C 
ATOM     55  C   PRO B 182       4.645  30.892   4.493  1.00122.07 LIG 0.26  C 
ATOM     56  CG  PRO B 183       6.042  34.199   5.009  1.00127.59 LIG 0.02  C 
ATOM     57  CB  PRO B 183       6.122  33.483   6.338  1.00124.68 LIG 0.04  C 
ATOM     58 O    PRO B 182       4.522  29.963   5.294  1.00123.88 LIG-0.27  OA
BRANCH 55 59
ATOM     59  CA  PRO B 182       4.575  30.601   2.993  1.00115.83 LIG 0.35  C 
ATOM     60  CB  PRO B 182       3.407  29.655   2.675  1.00111.53 LIG 0.05  C 
ATOM     61  CG  PRO B 182       3.927  28.726   1.620  1.00111.42 LIG 0.04  C 
ATOM     62  CD  PRO B 182       5.383  28.561   1.921  1.00113.66 LIG 0.32  C 
ATOM     63  N   PRO B 182       5.749  29.863   2.508  1.00115.25 LIG 0.32  N 
ENDBRANCH 55 59
ENDBRANCH 50 52
ENDBRANCH 39 48
ENDBRANCH 37 39
ENDBRANCH 1 35
TORSDOF 24
ENDMDL
MODEL 46
USER: ADFR SOLUTION from run 10
USER: SCORE 18.311059 LL:  -2.933 LR: -17.308 RR:   0.000 FEB: -10.148
USER: RMSD 7.412728
USER: SEED 37320
USER: STATUS no improvement in best in 9 clusters for 5 generations
USER: GENES 26
USER: genes 0 Translation |==|  0.50358 0.59025 0.49184
USER: genes 1 Rotation |==|  0.45440 0.15438 0.39105 0.84146
USER: genes 2 Torsion [C]-CA--CB-[CG] |==|  0.51691
USER: genes 3 Torsion [CA]-CB--CG-[CD] |==|  0.21835
USER: genes 4 Torsion [CB]-CG--CD-[CE] |==|  0.15593
USER: genes 5 Torsion [CG]-CD--CE-[NZ] |==|  0.48128
USER: genes 6 Torsion [CD]-CE--NZ-[HZ1] |==|  0.40505
USER: genes 7 Torsion [N]-CA--C-[N] |==|  0.41771
USER: genes 8 Torsion [C]-N--CA-[CB] |==|  0.19444
USER: genes 9 Torsion [N]-CA--CB-[CG] |==|  0.73459
USER: genes 10 Torsion [CA]-CB--CG-[CD] |==|  0.86237
USER: genes 11 Torsion [CB]-CG--CD-[NE] |==|  0.44236
USER: genes 12 Torsion [CG]-CD--NE-[CZ] |==|  0.44935
USER: genes 13 Torsion [N]-CA--C-[N] |==|  0.85680
USER: genes 14 Torsion [C]-N--CA-[C] |==|  0.69366
USER: genes 15 Torsion [N]-CA--C-[O] |==|  0.57943
USER: genes 16 Torsion [CB]-CA--N-[C] |==|  0.28082
USER: genes 17 Torsion [N]-C--CA-[N] |==|  0.07063
USER: genes 18 Torsion [C]-CA--CB-[CG] |==|  0.53274
USER: genes 19 Torsion [CA]-CB--CG-[CD] |==|  0.26601
USER: genes 20 Torsion [CB]-CG--CD-[CE] |==|  0.17264
USER: genes 21 Torsion [CG]-CD--CE-[NZ] |==|  0.70665
USER: genes 22 Torsion [CD]-CE--NZ-[HZ3] |==|  0.82810
USER: genes 23 Torsion [C]-CA--N-[C] |==|  0.69070
USER: genes 24 Torsion [N]-C--CA-[N] |==|  0.26302
USER: genes 25 Torsion [N]-C--CA-[CB] |==|  0.66655
ROOT
ATOM      1  CA  LYS B 185       2.421  37.162   6.631  1.00 91.41 LIG 0.18  C 
ENDROOT
BRANCH 1 2
ATOM      2  CB  LYS B 185       1.143  37.432   5.828  1.00 90.53 LIG 0.04  C 
BRANCH 2 3
ATOM      3  CG  LYS B 185       0.483  38.792   6.044  1.00 86.81 LIG 0.00  C 
BRANCH 3 4
ATOM      4  CD  LYS B 185       1.215  39.892   5.266  1.00 79.71 LIG 0.03  C 
BRANCH 4 5
ATOM      5  CE  LYS B 185       1.311  39.593   3.768  1.00 72.24 LIG 0.23  C 
BRANCH 5 6
ATOM      6  NZ  LYS B 185       1.877  40.723   2.975  1.00 67.20 LIG-0.08  N 
ATOM      7 HZ1  LYS B 185       2.358  40.401   2.298  1.00 67.20 LIG 0.27  HD
ATOM      8 HZ3  LYS B 185       2.397  41.221   3.497  1.00 67.20 LIG 0.27  HD
ATOM      9 HZ2  LYS B 185       1.213  41.222   2.654  1.00 67.20 LIG 0.27  HD
ENDBRANCH 5 6
ENDBRANCH 4 5
ENDBRANCH 3 4
ENDBRANCH 2 3
ENDBRANCH 1 2
BRANCH 1 10
ATOM     10  C   LYS B 185       3.033  35.836   6.191  1.00 87.67 LIG 0.24  C 
ATOM     11 O    LYS B 185       3.894  35.807   5.305  1.00 75.85 LIG-0.27  OA
ATOM     12  N   ARG B 186       2.568  34.748   6.801  1.00 93.18 LIG-0.35  N 
ATOM     13 H    ARG B 186       2.010  34.785   7.454  1.00 93.18 LIG 0.16  HD
BRANCH 12 14
ATOM     14  CA  ARG B 186       2.944  33.383   6.441  1.00 93.88 LIG 0.18  C 
BRANCH 14 15
ATOM     15  CB  ARG B 186       4.408  33.150   6.847  1.00 94.11 LIG 0.04  C 
BRANCH 15 16
ATOM     16  CG  ARG B 186       5.388  33.379   5.704  1.00 91.13 LIG 0.02  C 
BRANCH 16 17
ATOM     17  CD  ARG B 186       4.989  32.651   4.431  1.00 90.43 LIG 0.14  C 
BRANCH 17 18
ATOM     18  NE  ARG B 186       5.627  33.249   3.259  1.00 88.65 LIG-0.23  N 
ATOM     19 HE   ARG B 186       5.943  34.045   3.334  1.00 88.65 LIG 0.18  HD
ATOM     20  CZ  ARG B 186       5.749  32.635   2.084  1.00 77.61 LIG 0.67  C 
ATOM     21  NH2 ARG B 186       6.338  33.248   1.066  1.00 64.46 LIG-0.23  N 
ATOM     22  NH1 ARG B 186       5.284  31.404   1.930  1.00 71.89 LIG-0.23  N 
ATOM     23 2HH2 ARG B 186       6.414  32.846   0.309  1.00 64.46 LIG 0.17  HD
ATOM     24 1HH2 ARG B 186       6.644  34.046   1.162  1.00 64.46 LIG 0.17  HD
ATOM     25 1HH1 ARG B 186       4.904  31.003   2.589  1.00 71.89 LIG 0.17  HD
ATOM     26 2HH1 ARG B 186       5.362  31.007   1.171  1.00 71.89 LIG 0.17  HD
ENDBRANCH 17 18
ENDBRANCH 16 17
ENDBRANCH 15 16
ENDBRANCH 14 15
BRANCH 14 27
ATOM     27  C   ARG B 186       1.962  32.418   7.140  1.00100.48 LIG 0.24  C 
ATOM     28  N   ALA B 187       1.733  32.510   8.457  1.00104.89 LIG-0.35  N 
ATOM     29 H    ALA B 187       1.192  31.974   8.856  1.00104.89 LIG 0.16  HD
ATOM     30 O    ARG B 186       1.410  31.549   6.460  1.00101.56 LIG-0.27  OA
BRANCH 28 31
ATOM     31  CA  ALA B 187       2.327  33.479   9.380  1.00100.92 LIG 0.16  C 
ATOM     32  CB  ALA B 187       1.229  34.202  10.176  1.00 98.55 LIG 0.04  C 
BRANCH 31 33
ATOM     33  C   ALA B 187       3.307  32.805  10.338  1.00 96.24 LIG 0.22  C 
ATOM     34 O    ALA B 187       3.505  33.268  11.463  1.00 95.92 LIG-0.29  OA
ENDBRANCH 31 33
ENDBRANCH 28 31
ENDBRANCH 14 27
ENDBRANCH 12 14
ENDBRANCH 1 10
BRANCH 1 35
ATOM     35  N   LYS B 185       3.399  38.237   6.475  1.00 94.70 LIG-0.35  N 
ATOM     36 H    LYS B 185       3.839  38.198   5.738  1.00 94.70 LIG 0.16  HD
ATOM     37  C   LYS B 184       3.592  39.192   7.392  1.00 95.69 LIG 0.24  C 
ATOM     38 O    LYS B 184       3.009  39.208   8.480  1.00 96.36 LIG-0.27  OA
BRANCH 37 39
ATOM     39  CA  LYS B 184       4.583  40.291   7.016  1.00 89.09 LIG 0.18  C 
BRANCH 39 40
ATOM     40  CB  LYS B 184       4.175  41.624   7.652  1.00 73.03 LIG 0.04  C 
BRANCH 40 41
ATOM     41  CG  LYS B 184       4.942  42.834   7.103  1.00 60.77 LIG 0.00  C 
BRANCH 41 42
ATOM     42  CD  LYS B 184       4.170  43.536   5.998  1.00 63.88 LIG 0.03  C 
BRANCH 42 43
ATOM     43  CE  LYS B 184       2.835  44.101   6.480  1.00 60.38 LIG 0.23  C 
BRANCH 43 44
ATOM     44  NZ  LYS B 184       1.609  43.342   6.046  1.00 53.06 LIG-0.08  N 
ATOM     45 HZ3  LYS B 184       1.553  43.353   5.158  1.00 53.06 LIG 0.27  HD
ATOM     46 HZ2  LYS B 184       0.885  43.725   6.393  1.00 53.06 LIG 0.27  HD
ATOM     47 HZ1  LYS B 184       1.665  42.501   6.330  1.00 53.06 LIG 0.27  HD
ENDBRANCH 43 44
ENDBRANCH 42 43
ENDBRANCH 41 42
ENDBRANCH 40 41
ENDBRANCH 39 40
BRANCH 39 48
ATOM     48  N   LYS B 184       4.674  40.430   5.568  1.00 95.16 LIG-0.35  N 
ATOM     49 H    LYS B 184       3.965  40.746   5.196  1.00 95.16 LIG 0.16  HD
ATOM     50  C   PRO B 183       5.775  40.089   4.899  1.00102.83 LIG 0.24  C 
ATOM     51 O    PRO B 183       6.780  39.639   5.460  1.00 96.65 LIG-0.27  OA
BRANCH 50 52
ATOM     52  CA  PRO B 183       5.732  40.272   3.384  1.00119.60 LIG 0.18  C 
ATOM     53  N   PRO B 183       6.287  41.552   2.920  1.00125.08 LIG-0.34  N 
ATOM     54  CD  PRO B 183       7.715  41.434   2.570  1.00128.64 LIG 0.13  C 
ATOM     55  C   PRO B 182       5.464  42.555   2.567  1.00122.07 LIG 0.26  C 
ATOM     56  CG  PRO B 183       7.967  39.930   2.597  1.00127.59 LIG 0.02  C 
ATOM     57  CB  PRO B 183       6.620  39.246   2.671  1.00124.68 LIG 0.04  C 
ATOM     58 O    PRO B 182       4.235  42.462   2.594  1.00123.88 LIG-0.27  OA
BRANCH 55 59
ATOM     59  CA  PRO B 182       6.106  43.859   2.091  1.00115.83 LIG 0.35  C 
ATOM     60  CB  PRO B 182       5.692  45.030   2.995  1.00111.53 LIG 0.05  C 
ATOM     61  CG  PRO B 182       5.481  46.189   2.068  1.00111.42 LIG 0.04  C 
ATOM     62  CD  PRO B 182       4.970  45.590   0.796  1.00113.66 LIG 0.32  C 
ATOM     63  N   PRO B 182       5.627  44.270   0.765  1.00115.25 LIG 0.32  N 
ENDBRANCH 55 59
ENDBRANCH 50 52
ENDBRANCH 39 48
ENDBRANCH 37 39
ENDBRANCH 1 35
TORSDOF 24
ENDMDL
MODEL 47
USER: ADFR SOLUTION from run 19
USER: SCORE 18.466079 LL:  -2.697 LR: -17.264 RR:   0.000 FEB: -10.105
USER: RMSD 4.777713
USER: SEED 18
USER: STATUS 1 or 2 clusters left
USER: GENES 26
USER: genes 0 Translation |==|  0.43804 0.41342 0.66616
USER: genes 1 Rotation |==|  0.50259 0.22157 0.43793 0.91063
USER: genes 2 Torsion [C]-CA--CB-[CG] |==|  0.33424
USER: genes 3 Torsion [CA]-CB--CG-[CD] |==|  0.97453
USER: genes 4 Torsion [CB]-CG--CD-[CE] |==|  0.69558
USER: genes 5 Torsion [CG]-CD--CE-[NZ] |==|  0.98743
USER: genes 6 Torsion [CD]-CE--NZ-[HZ1] |==|  0.24041
USER: genes 7 Torsion [N]-CA--C-[N] |==|  0.69141
USER: genes 8 Torsion [C]-N--CA-[CB] |==|  0.78517
USER: genes 9 Torsion [N]-CA--CB-[CG] |==|  0.46856
USER: genes 10 Torsion [CA]-CB--CG-[CD] |==|  0.27871
USER: genes 11 Torsion [CB]-CG--CD-[NE] |==|  0.27712
USER: genes 12 Torsion [CG]-CD--NE-[CZ] |==|  0.33253
USER: genes 13 Torsion [N]-CA--C-[N] |==|  0.25325
USER: genes 14 Torsion [C]-N--CA-[C] |==|  0.15037
USER: genes 15 Torsion [N]-CA--C-[O] |==|  0.22764
USER: genes 16 Torsion [CB]-CA--N-[C] |==|  0.15575
USER: genes 17 Torsion [N]-C--CA-[N] |==|  0.12711
USER: genes 18 Torsion [C]-CA--CB-[CG] |==|  0.38880
USER: genes 19 Torsion [CA]-CB--CG-[CD] |==|  0.17916
USER: genes 20 Torsion [CB]-CG--CD-[CE] |==|  0.43665
USER: genes 21 Torsion [CG]-CD--CE-[NZ] |==|  0.69968
USER: genes 22 Torsion [CD]-CE--NZ-[HZ3] |==|  0.27371
USER: genes 23 Torsion [C]-CA--N-[C] |==|  0.71111
USER: genes 24 Torsion [N]-C--CA-[N] |==|  0.21387
USER: genes 25 Torsion [N]-C--CA-[CB] |==|  0.73079
ROOT
ATOM      1  CA  LYS B 185       1.290  32.387  10.161  1.00 91.41 LIG 0.18  C 
ENDROOT
BRANCH 1 2
ATOM      2  CB  LYS B 185      -0.210  32.282   9.865  1.00 90.53 LIG 0.04  C 
BRANCH 2 3
ATOM      3  CG  LYS B 185      -1.118  32.006  11.061  1.00 86.81 LIG 0.00  C 
BRANCH 3 4
ATOM      4  CD  LYS B 185      -0.298  31.665  12.311  1.00 79.71 LIG 0.03  C 
BRANCH 4 5
ATOM      5  CE  LYS B 185      -0.421  30.193  12.715  1.00 72.24 LIG 0.23  C 
BRANCH 5 6
ATOM      6  NZ  LYS B 185      -1.391  29.429  11.877  1.00 67.20 LIG-0.08  N 
ATOM      7 HZ1  LYS B 185      -0.979  29.121  11.150  1.00 67.20 LIG 0.27  HD
ATOM      8 HZ3  LYS B 185      -2.059  29.964  11.633  1.00 67.20 LIG 0.27  HD
ATOM      9 HZ2  LYS B 185      -1.714  28.745  12.346  1.00 67.20 LIG 0.27  HD
ENDBRANCH 5 6
ENDBRANCH 4 5
ENDBRANCH 3 4
ENDBRANCH 2 3
ENDBRANCH 1 2
BRANCH 1 10
ATOM     10  C   LYS B 185       2.046  31.325   9.370  1.00 87.67 LIG 0.24  C 
ATOM     11 O    LYS B 185       3.236  31.093   9.610  1.00 75.85 LIG-0.27  OA
ATOM     12  N   ARG B 186       1.354  30.705   8.417  1.00 93.18 LIG-0.35  N 
ATOM     13 H    ARG B 186       0.513  30.835   8.295  1.00 93.18 LIG 0.16  HD
BRANCH 12 14
ATOM     14  CA  ARG B 186       1.930  29.743   7.480  1.00 93.88 LIG 0.18  C 
BRANCH 14 15
ATOM     15  CB  ARG B 186       2.706  30.511   6.398  1.00 94.11 LIG 0.04  C 
BRANCH 15 16
ATOM     16  CG  ARG B 186       3.571  29.607   5.530  1.00 91.13 LIG 0.02  C 
BRANCH 16 17
ATOM     17  CD  ARG B 186       2.930  29.289   4.189  1.00 90.43 LIG 0.14  C 
BRANCH 17 18
ATOM     18  NE  ARG B 186       3.481  30.131   3.128  1.00 88.65 LIG-0.23  N 
ATOM     19 HE   ARG B 186       3.392  30.983   3.202  1.00 88.65 LIG 0.18  HD
ATOM     20  CZ  ARG B 186       4.113  29.659   2.056  1.00 77.61 LIG 0.67  C 
ATOM     21  NH2 ARG B 186       4.581  30.489   1.133  1.00 64.46 LIG-0.23  N 
ATOM     22  NH1 ARG B 186       4.280  28.353   1.909  1.00 71.89 LIG-0.23  N 
ATOM     23 2HH2 ARG B 186       4.988  30.179   0.442  1.00 64.46 LIG 0.17  HD
ATOM     24 1HH2 ARG B 186       4.477  31.338   1.226  1.00 64.46 LIG 0.17  HD
ATOM     25 1HH1 ARG B 186       3.980  27.811   2.506  1.00 71.89 LIG 0.17  HD
ATOM     26 2HH1 ARG B 186       4.688  28.047   1.216  1.00 71.89 LIG 0.17  HD
ENDBRANCH 17 18
ENDBRANCH 16 17
ENDBRANCH 15 16
ENDBRANCH 14 15
BRANCH 14 27
ATOM     27  C   ARG B 186       2.819  28.769   8.284  1.00100.48 LIG 0.24  C 
ATOM     28  N   ALA B 187       2.313  27.629   8.778  1.00104.89 LIG-0.35  N 
ATOM     29 H    ALA B 187       2.799  27.084   9.231  1.00104.89 LIG 0.16  HD
ATOM     30 O    ARG B 186       3.998  29.073   8.476  1.00101.56 LIG-0.27  OA
BRANCH 28 31
ATOM     31  CA  ALA B 187       0.936  27.153   8.637  1.00100.92 LIG 0.16  C 
ATOM     32  CB  ALA B 187      -0.024  28.053   9.431  1.00 98.55 LIG 0.04  C 
BRANCH 31 33
ATOM     33  C   ALA B 187       0.512  27.104   7.171  1.00 96.24 LIG 0.22  C 
ATOM     34 O    ALA B 187       0.820  26.146   6.460  1.00 95.92 LIG-0.29  OA
ENDBRANCH 31 33
ENDBRANCH 28 31
ENDBRANCH 14 27
ENDBRANCH 12 14
ENDBRANCH 1 10
BRANCH 1 35
ATOM     35  N   LYS B 185       1.816  33.713   9.841  1.00 94.70 LIG-0.35  N 
ATOM     36 H    LYS B 185       2.474  33.699   9.287  1.00 94.70 LIG 0.16  HD
ATOM     37  C   LYS B 184       1.322  34.843  10.358  1.00 95.69 LIG 0.24  C 
ATOM     38 O    LYS B 184       0.422  34.859  11.204  1.00 96.36 LIG-0.27  OA
BRANCH 37 39
ATOM     39  CA  LYS B 184       1.928  36.142   9.833  1.00 89.09 LIG 0.18  C 
BRANCH 39 40
ATOM     40  CB  LYS B 184       1.090  37.346  10.276  1.00 73.03 LIG 0.04  C 
BRANCH 40 41
ATOM     41  CG  LYS B 184       1.925  38.564  10.694  1.00 60.77 LIG 0.00  C 
BRANCH 41 42
ATOM     42  CD  LYS B 184       2.719  39.129   9.529  1.00 63.88 LIG 0.03  C 
BRANCH 42 43
ATOM     43  CE  LYS B 184       3.099  40.594   9.731  1.00 60.38 LIG 0.23  C 
BRANCH 43 44
ATOM     44  NZ  LYS B 184       2.359  41.585   8.872  1.00 53.06 LIG-0.08  N 
ATOM     45 HZ3  LYS B 184       1.693  41.944   9.340  1.00 53.06 LIG 0.27  HD
ATOM     46 HZ2  LYS B 184       2.029  41.171   8.157  1.00 53.06 LIG 0.27  HD
ATOM     47 HZ1  LYS B 184       2.918  42.227   8.611  1.00 53.06 LIG 0.27  HD
ENDBRANCH 43 44
ENDBRANCH 42 43
ENDBRANCH 41 42
ENDBRANCH 40 41
ENDBRANCH 39 40
BRANCH 39 48
ATOM     48  N   LYS B 184       2.036  36.111   8.380  1.00 95.16 LIG-0.35  N 
ATOM     49 H    LYS B 184       1.291  36.231   7.966  1.00 95.16 LIG 0.16  HD
ATOM     50  C   PRO B 183       3.202  35.911   7.768  1.00102.83 LIG 0.24  C 
ATOM     51 O    PRO B 183       4.258  35.743   8.388  1.00 96.65 LIG-0.27  OA
BRANCH 50 52
ATOM     52  CA  PRO B 183       3.172  35.887   6.242  1.00119.60 LIG 0.18  C 
ATOM     53  N   PRO B 183       3.070  37.218   5.624  1.00125.08 LIG-0.34  N 
ATOM     54  CD  PRO B 183       4.397  37.771   5.295  1.00128.64 LIG 0.13  C 
ATOM     55  C   PRO B 182       1.890  37.651   5.147  1.00122.07 LIG 0.26  C 
ATOM     56  CG  PRO B 183       5.340  36.592   5.510  1.00127.59 LIG 0.02  C 
ATOM     57  CB  PRO B 183       4.488  35.352   5.663  1.00124.68 LIG 0.04  C 
ATOM     58 O    PRO B 182       0.858  36.977   5.182  1.00123.88 LIG-0.27  OA
BRANCH 55 59
ATOM     59  CA  PRO B 182       1.853  39.044   4.516  1.00115.83 LIG 0.35  C 
ATOM     60  CB  PRO B 182       1.365  40.089   5.531  1.00111.53 LIG 0.05  C 
ATOM     61  CG  PRO B 182       0.483  41.016   4.750  1.00111.42 LIG 0.04  C 
ATOM     62  CD  PRO B 182      -0.160  40.162   3.703  1.00113.66 LIG 0.32  C 
ATOM     63  N   PRO B 182       0.869  39.143   3.430  1.00115.25 LIG 0.32  N 
ENDBRANCH 55 59
ENDBRANCH 50 52
ENDBRANCH 39 48
ENDBRANCH 37 39
ENDBRANCH 1 35
TORSDOF 24
ENDMDL
MODEL 48
USER: ADFR SOLUTION from run 111
USER: SCORE 18.403335 LL:  -2.296 LR: -17.250 RR:   0.000 FEB: -10.091
USER: RMSD 6.152327
USER: SEED 110
USER: STATUS no improvement in best in 6 clusters for 5 generations
USER: GENES 26
USER: genes 0 Translation |==|  0.61232 0.48273 0.43163
USER: genes 1 Rotation |==|  0.38326 0.91895 0.50030 0.74668
USER: genes 2 Torsion [C]-CA--CB-[CG] |==|  0.65224
USER: genes 3 Torsion [CA]-CB--CG-[CD] |==|  0.63090
USER: genes 4 Torsion [CB]-CG--CD-[CE] |==|  0.29776
USER: genes 5 Torsion [CG]-CD--CE-[NZ] |==|  0.79966
USER: genes 6 Torsion [CD]-CE--NZ-[HZ1] |==|  0.65193
USER: genes 7 Torsion [N]-CA--C-[N] |==|  0.17222
USER: genes 8 Torsion [C]-N--CA-[CB] |==|  0.76428
USER: genes 9 Torsion [N]-CA--CB-[CG] |==|  0.07131
USER: genes 10 Torsion [CA]-CB--CG-[CD] |==|  0.57208
USER: genes 11 Torsion [CB]-CG--CD-[NE] |==|  0.33057
USER: genes 12 Torsion [CG]-CD--NE-[CZ] |==|  0.44076
USER: genes 13 Torsion [N]-CA--C-[N] |==|  0.24352
USER: genes 14 Torsion [C]-N--CA-[C] |==|  0.58820
USER: genes 15 Torsion [N]-CA--C-[O] |==|  0.61710
USER: genes 16 Torsion [CB]-CA--N-[C] |==|  0.77052
USER: genes 17 Torsion [N]-C--CA-[N] |==|  0.76424
USER: genes 18 Torsion [C]-CA--CB-[CG] |==|  0.72090
USER: genes 19 Torsion [CA]-CB--CG-[CD] |==|  0.78641
USER: genes 20 Torsion [CB]-CG--CD-[CE] |==|  0.71862
USER: genes 21 Torsion [CG]-CD--CE-[NZ] |==|  0.70586
USER: genes 22 Torsion [CD]-CE--NZ-[HZ3] |==|  0.63819
USER: genes 23 Torsion [C]-CA--N-[C] |==|  0.68796
USER: genes 24 Torsion [N]-C--CA-[N] |==|  0.14691
USER: genes 25 Torsion [N]-C--CA-[CB] |==|  0.50193
ROOT
ATOM      1  CA  LYS B 185       4.296  34.259   5.411  1.00 91.41 LIG 0.18  C 
ENDROOT
BRANCH 1 2
ATOM      2  CB  LYS B 185       5.814  34.454   5.511  1.00 90.53 LIG 0.04  C 
BRANCH 2 3
ATOM      3  CG  LYS B 185       6.297  35.882   5.755  1.00 86.81 LIG 0.00  C 
BRANCH 3 4
ATOM      4  CD  LYS B 185       7.442  36.249   4.803  1.00 79.71 LIG 0.03  C 
BRANCH 4 5
ATOM      5  CE  LYS B 185       7.009  37.227   3.708  1.00 72.24 LIG 0.23  C 
BRANCH 5 6
ATOM      6  NZ  LYS B 185       6.132  36.606   2.672  1.00 67.20 LIG-0.08  N 
ATOM      7 HZ1  LYS B 185       6.484  36.739   1.865  1.00 67.20 LIG 0.27  HD
ATOM      8 HZ3  LYS B 185       5.323  36.975   2.707  1.00 67.20 LIG 0.27  HD
ATOM      9 HZ2  LYS B 185       6.066  35.731   2.825  1.00 67.20 LIG 0.27  HD
ENDBRANCH 5 6
ENDBRANCH 4 5
ENDBRANCH 3 4
ENDBRANCH 2 3
ENDBRANCH 1 2
BRANCH 1 10
ATOM     10  C   LYS B 185       3.847  33.202   6.416  1.00 87.67 LIG 0.24  C 
ATOM     11 O    LYS B 185       4.656  32.705   7.206  1.00 75.85 LIG-0.27  OA
ATOM     12  N   ARG B 186       2.564  32.853   6.359  1.00 93.18 LIG-0.35  N 
ATOM     13 H    ARG B 186       1.999  33.244   5.843  1.00 93.18 LIG 0.16  HD
BRANCH 12 14
ATOM     14  CA  ARG B 186       1.972  31.781   7.156  1.00 93.88 LIG 0.18  C 
BRANCH 14 15
ATOM     15  CB  ARG B 186       2.192  30.445   6.429  1.00 94.11 LIG 0.04  C 
BRANCH 15 16
ATOM     16  CG  ARG B 186       3.406  30.459   5.509  1.00 91.13 LIG 0.02  C 
BRANCH 16 17
ATOM     17  CD  ARG B 186       3.291  29.463   4.367  1.00 90.43 LIG 0.14  C 
BRANCH 17 18
ATOM     18  NE  ARG B 186       3.323  30.140   3.072  1.00 88.65 LIG-0.23  N 
ATOM     19 HE   ARG B 186       3.121  30.976   3.047  1.00 88.65 LIG 0.18  HD
ATOM     20  CZ  ARG B 186       3.647  29.542   1.927  1.00 77.61 LIG 0.67  C 
ATOM     21  NH2 ARG B 186       3.649  30.225   0.790  1.00 64.46 LIG-0.23  N 
ATOM     22  NH1 ARG B 186       3.974  28.258   1.922  1.00 71.89 LIG-0.23  N 
ATOM     23 2HH2 ARG B 186       3.859  29.833   0.054  1.00 64.46 LIG 0.17  HD
ATOM     24 1HH2 ARG B 186       3.440  31.059   0.789  1.00 64.46 LIG 0.17  HD
ATOM     25 1HH1 ARG B 186       3.977  27.812   2.658  1.00 71.89 LIG 0.17  HD
ATOM     26 2HH1 ARG B 186       4.183  27.871   1.183  1.00 71.89 LIG 0.17  HD
ENDBRANCH 17 18
ENDBRANCH 16 17
ENDBRANCH 15 16
ENDBRANCH 14 15
BRANCH 14 27
ATOM     27  C   ARG B 186       2.616  31.818   8.559  1.00100.48 LIG 0.24  C 
ATOM     28  N   ALA B 187       2.105  32.593   9.527  1.00104.89 LIG-0.35  N 
ATOM     29 H    ALA B 187       2.460  32.624  10.309  1.00104.89 LIG 0.16  HD
ATOM     30 O    ARG B 186       3.622  31.134   8.761  1.00101.56 LIG-0.27  OA
BRANCH 28 31
ATOM     31  CA  ALA B 187       0.931  33.460   9.421  1.00100.92 LIG 0.16  C 
ATOM     32  CB  ALA B 187      -0.342  32.685   9.792  1.00 98.55 LIG 0.04  C 
BRANCH 31 33
ATOM     33  C   ALA B 187       1.069  34.693  10.311  1.00 96.24 LIG 0.22  C 
ATOM     34 O    ALA B 187       0.112  35.100  10.973  1.00 95.92 LIG-0.29  OA
ENDBRANCH 31 33
ENDBRANCH 28 31
ENDBRANCH 14 27
ENDBRANCH 12 14
ENDBRANCH 1 10
BRANCH 1 35
ATOM     35  N   LYS B 185       3.571  35.506   5.645  1.00 94.70 LIG-0.35  N 
ATOM     36 H    LYS B 185       3.341  35.912   4.922  1.00 94.70 LIG 0.16  HD
ATOM     37  C   LYS B 184       3.289  35.974   6.866  1.00 95.69 LIG 0.24  C 
ATOM     38 O    LYS B 184       3.678  35.427   7.902  1.00 96.36 LIG-0.27  OA
BRANCH 37 39
ATOM     39  CA  LYS B 184       2.436  37.239   6.919  1.00 89.09 LIG 0.18  C 
BRANCH 39 40
ATOM     40  CB  LYS B 184       1.366  37.212   5.822  1.00 73.03 LIG 0.04  C 
BRANCH 40 41
ATOM     41  CG  LYS B 184       1.719  38.054   4.589  1.00 60.77 LIG 0.00  C 
BRANCH 41 42
ATOM     42  CD  LYS B 184       1.515  39.538   4.842  1.00 63.88 LIG 0.03  C 
BRANCH 42 43
ATOM     43  CE  LYS B 184       0.215  40.065   4.239  1.00 60.38 LIG 0.23  C 
BRANCH 43 44
ATOM     44  NZ  LYS B 184       0.364  40.905   2.999  1.00 53.06 LIG-0.08  N 
ATOM     45 HZ3  LYS B 184      -0.100  41.659   3.094  1.00 53.06 LIG 0.27  HD
ATOM     46 HZ2  LYS B 184       0.056  40.455   2.296  1.00 53.06 LIG 0.27  HD
ATOM     47 HZ1  LYS B 184       1.223  41.100   2.874  1.00 53.06 LIG 0.27  HD
ENDBRANCH 43 44
ENDBRANCH 42 43
ENDBRANCH 41 42
ENDBRANCH 40 41
ENDBRANCH 39 40
BRANCH 39 48
ATOM     48  N   LYS B 184       3.268  38.428   6.783  1.00 95.16 LIG-0.35  N 
ATOM     49 H    LYS B 184       3.631  38.521   6.008  1.00 95.16 LIG 0.16  HD
ATOM     50  C   PRO B 183       3.435  39.284   7.789  1.00102.83 LIG 0.24  C 
ATOM     51 O    PRO B 183       2.900  39.127   8.892  1.00 96.65 LIG-0.27  OA
BRANCH 50 52
ATOM     52  CA  PRO B 183       4.343  40.481   7.518  1.00119.60 LIG 0.18  C 
ATOM     53  N   PRO B 183       3.980  41.247   6.317  1.00125.08 LIG-0.34  N 
ATOM     54  CD  PRO B 183       3.084  42.375   6.638  1.00128.64 LIG 0.13  C 
ATOM     55  C   PRO B 182       4.678  41.089   5.179  1.00122.07 LIG 0.26  C 
ATOM     56  CG  PRO B 183       3.109  42.428   8.161  1.00127.59 LIG 0.02  C 
ATOM     57  CB  PRO B 183       4.234  41.532   8.629  1.00124.68 LIG 0.04  C 
ATOM     58 O    PRO B 182       5.643  40.328   5.079  1.00123.88 LIG-0.27  OA
BRANCH 55 59
ATOM     59  CA  PRO B 182       4.249  41.918   3.966  1.00115.83 LIG 0.35  C 
ATOM     60  CB  PRO B 182       5.135  41.604   2.752  1.00111.53 LIG 0.05  C 
ATOM     61  CG  PRO B 182       5.359  42.923   2.075  1.00111.42 LIG 0.04  C 
ATOM     62  CD  PRO B 182       5.375  43.935   3.177  1.00113.66 LIG 0.32  C 
ATOM     63  N   PRO B 182       4.451  43.358   4.170  1.00115.25 LIG 0.32  N 
ENDBRANCH 55 59
ENDBRANCH 50 52
ENDBRANCH 39 48
ENDBRANCH 37 39
ENDBRANCH 1 35
TORSDOF 24
ENDMDL
MODEL 49
USER: ADFR SOLUTION from run 158
USER: SCORE 18.988089 LL:  -2.665 LR: -17.251 RR:   0.000 FEB: -10.092
USER: RMSD 9.422717
USER: SEED 157
USER: STATUS no improvement in best in 8 clusters for 5 generations
USER: GENES 26
USER: genes 0 Translation |==|  0.51405 0.60971 0.39706
USER: genes 1 Rotation |==|  0.91650 0.45293 0.23266 0.55334
USER: genes 2 Torsion [C]-CA--CB-[CG] |==|  0.94610
USER: genes 3 Torsion [CA]-CB--CG-[CD] |==|  0.38804
USER: genes 4 Torsion [CB]-CG--CD-[CE] |==|  0.89955
USER: genes 5 Torsion [CG]-CD--CE-[NZ] |==|  0.84672
USER: genes 6 Torsion [CD]-CE--NZ-[HZ1] |==|  0.28529
USER: genes 7 Torsion [N]-CA--C-[N] |==|  0.37687
USER: genes 8 Torsion [C]-N--CA-[CB] |==|  0.79695
USER: genes 9 Torsion [N]-CA--CB-[CG] |==|  0.54589
USER: genes 10 Torsion [CA]-CB--CG-[CD] |==|  0.55309
USER: genes 11 Torsion [CB]-CG--CD-[NE] |==|  0.13946
USER: genes 12 Torsion [CG]-CD--NE-[CZ] |==|  0.73472
USER: genes 13 Torsion [N]-CA--C-[N] |==|  0.23233
USER: genes 14 Torsion [C]-N--CA-[C] |==|  0.81946
USER: genes 15 Torsion [N]-CA--C-[O] |==|  0.59614
USER: genes 16 Torsion [CB]-CA--N-[C] |==|  0.85967
USER: genes 17 Torsion [N]-C--CA-[N] |==|  0.52772
USER: genes 18 Torsion [C]-CA--CB-[CG] |==|  0.41637
USER: genes 19 Torsion [CA]-CB--CG-[CD] |==|  0.70749
USER: genes 20 Torsion [CB]-CG--CD-[CE] |==|  0.18023
USER: genes 21 Torsion [CG]-CD--CE-[NZ] |==|  0.68388
USER: genes 22 Torsion [CD]-CE--NZ-[HZ3] |==|  0.95525
USER: genes 23 Torsion [C]-CA--N-[C] |==|  0.78843
USER: genes 24 Torsion [N]-C--CA-[N] |==|  0.13156
USER: genes 25 Torsion [N]-C--CA-[CB] |==|  0.81354
ROOT
ATOM      1  CA  LYS B 185       2.601  37.687   4.711  1.00 91.41 LIG 0.18  C 
ENDROOT
BRANCH 1 2
ATOM      2  CB  LYS B 185       1.167  38.225   4.754  1.00 90.53 LIG 0.04  C 
BRANCH 2 3
ATOM      3  CG  LYS B 185       0.945  39.497   5.570  1.00 86.81 LIG 0.00  C 
BRANCH 3 4
ATOM      4  CD  LYS B 185      -0.026  40.447   4.860  1.00 79.71 LIG 0.03  C 
BRANCH 4 5
ATOM      5  CE  LYS B 185       0.138  40.432   3.338  1.00 72.24 LIG 0.23  C 
BRANCH 5 6
ATOM      6  NZ  LYS B 185       1.531  40.725   2.891  1.00 67.20 LIG-0.08  N 
ATOM      7 HZ1  LYS B 185       1.933  39.967   2.653  1.00 67.20 LIG 0.27  HD
ATOM      8 HZ3  LYS B 185       1.984  41.103   3.557  1.00 67.20 LIG 0.27  HD
ATOM      9 HZ2  LYS B 185       1.509  41.280   2.195  1.00 67.20 LIG 0.27  HD
ENDBRANCH 5 6
ENDBRANCH 4 5
ENDBRANCH 3 4
ENDBRANCH 2 3
ENDBRANCH 1 2
BRANCH 1 10
ATOM     10  C   LYS B 185       3.577  38.794   5.098  1.00 87.67 LIG 0.24  C 
ATOM     11 O    LYS B 185       3.732  39.106   6.283  1.00 75.85 LIG-0.27  OA
ATOM     12  N   ARG B 186       4.210  39.391   4.091  1.00 93.18 LIG-0.35  N 
ATOM     13 H    ARG B 186       4.136  39.128   3.275  1.00 93.18 LIG 0.16  HD
BRANCH 12 14
ATOM     14  CA  ARG B 186       5.093  40.544   4.248  1.00 93.88 LIG 0.18  C 
BRANCH 14 15
ATOM     15  CB  ARG B 186       4.237  41.786   4.542  1.00 94.11 LIG 0.04  C 
BRANCH 15 16
ATOM     16  CG  ARG B 186       4.989  43.093   4.331  1.00 91.13 LIG 0.02  C 
BRANCH 16 17
ATOM     17  CD  ARG B 186       4.339  44.269   5.040  1.00 90.43 LIG 0.14  C 
BRANCH 17 18
ATOM     18  NE  ARG B 186       4.065  43.954   6.442  1.00 88.65 LIG-0.23  N 
ATOM     19 HE   ARG B 186       4.700  44.062   7.012  1.00 88.65 LIG 0.18  HD
ATOM     20  CZ  ARG B 186       2.893  43.509   6.890  1.00 77.61 LIG 0.67  C 
ATOM     21  NH2 ARG B 186       2.725  43.241   8.178  1.00 64.46 LIG-0.23  N 
ATOM     22  NH1 ARG B 186       1.886  43.336   6.046  1.00 71.89 LIG-0.23  N 
ATOM     23 2HH2 ARG B 186       1.966  42.954   8.461  1.00 64.46 LIG 0.17  HD
ATOM     24 1HH2 ARG B 186       3.376  43.354   8.729  1.00 64.46 LIG 0.17  HD
ATOM     25 1HH1 ARG B 186       1.990  43.511   5.211  1.00 71.89 LIG 0.17  HD
ATOM     26 2HH1 ARG B 186       1.128  43.048   6.335  1.00 71.89 LIG 0.17  HD
ENDBRANCH 17 18
ENDBRANCH 16 17
ENDBRANCH 15 16
ENDBRANCH 14 15
BRANCH 14 27
ATOM     27  C   ARG B 186       6.100  40.224   5.374  1.00100.48 LIG 0.24  C 
ATOM     28  N   ALA B 187       7.213  39.521   5.118  1.00104.89 LIG-0.35  N 
ATOM     29 H    ALA B 187       7.776  39.333   5.740  1.00104.89 LIG 0.16  HD
ATOM     30 O    ARG B 186       5.846  40.614   6.516  1.00101.56 LIG-0.27  OA
BRANCH 28 31
ATOM     31  CA  ALA B 187       7.629  38.988   3.819  1.00100.92 LIG 0.16  C 
ATOM     32  CB  ALA B 187       9.047  38.404   3.910  1.00 98.55 LIG 0.04  C 
BRANCH 31 33
ATOM     33  C   ALA B 187       6.657  37.922   3.319  1.00 96.24 LIG 0.22  C 
ATOM     34 O    ALA B 187       7.064  36.956   2.672  1.00 95.92 LIG-0.29  OA
ENDBRANCH 31 33
ENDBRANCH 28 31
ENDBRANCH 14 27
ENDBRANCH 12 14
ENDBRANCH 1 10
BRANCH 1 35
ATOM     35  N   LYS B 185       2.778  36.537   5.597  1.00 94.70 LIG-0.35  N 
ATOM     36 H    LYS B 185       3.147  35.861   5.214  1.00 94.70 LIG 0.16  HD
ATOM     37  C   LYS B 184       2.402  36.535   6.881  1.00 95.69 LIG 0.24  C 
ATOM     38 O    LYS B 184       1.810  37.480   7.410  1.00 96.36 LIG-0.27  OA
BRANCH 37 39
ATOM     39  CA  LYS B 184       2.756  35.284   7.680  1.00 89.09 LIG 0.18  C 
BRANCH 39 40
ATOM     40  CB  LYS B 184       2.368  34.021   6.903  1.00 73.03 LIG 0.04  C 
BRANCH 40 41
ATOM     41  CG  LYS B 184       3.263  32.810   7.199  1.00 60.77 LIG 0.00  C 
BRANCH 41 42
ATOM     42  CD  LYS B 184       4.223  32.528   6.056  1.00 63.88 LIG 0.03  C 
BRANCH 42 43
ATOM     43  CE  LYS B 184       5.235  33.653   5.846  1.00 60.38 LIG 0.23  C 
BRANCH 43 44
ATOM     44  NZ  LYS B 184       5.111  34.409   4.550  1.00 53.06 LIG-0.08  N 
ATOM     45 HZ3  LYS B 184       4.609  33.944   3.982  1.00 53.06 LIG 0.27  HD
ATOM     46 HZ2  LYS B 184       5.920  34.531   4.199  1.00 53.06 LIG 0.27  HD
ATOM     47 HZ1  LYS B 184       4.732  35.200   4.702  1.00 53.06 LIG 0.27  HD
ENDBRANCH 43 44
ENDBRANCH 42 43
ENDBRANCH 41 42
ENDBRANCH 40 41
ENDBRANCH 39 40
BRANCH 39 48
ATOM     48  N   LYS B 184       2.097  35.298   8.980  1.00 95.16 LIG-0.35  N 
ATOM     49 H    LYS B 184       1.416  34.776   9.038  1.00 95.16 LIG 0.16  HD
ATOM     50  C   PRO B 183       2.533  36.066   9.978  1.00102.83 LIG 0.24  C 
ATOM     51 O    PRO B 183       3.516  36.806   9.865  1.00 96.65 LIG-0.27  OA
BRANCH 50 52
ATOM     52  CA  PRO B 183       1.742  35.997  11.282  1.00119.60 LIG 0.18  C 
ATOM     53  N   PRO B 183       1.447  34.628  11.730  1.00125.08 LIG-0.34  N 
ATOM     54  CD  PRO B 183       2.469  34.127  12.668  1.00128.64 LIG 0.13  C 
ATOM     55  C   PRO B 182       0.223  34.105  11.538  1.00122.07 LIG 0.26  C 
ATOM     56  CG  PRO B 183       3.300  35.365  12.986  1.00127.59 LIG 0.02  C 
ATOM     57  CB  PRO B 183       2.547  36.565  12.456  1.00124.68 LIG 0.04  C 
ATOM     58 O    PRO B 182      -0.701  34.725  11.006  1.00123.88 LIG-0.27  OA
BRANCH 55 59
ATOM     59  CA  PRO B 182      -0.019  32.677  12.030  1.00115.83 LIG 0.35  C 
ATOM     60  CB  PRO B 182       0.807  31.672  11.212  1.00111.53 LIG 0.05  C 
ATOM     61  CG  PRO B 182      -0.090  30.486  11.022  1.00111.42 LIG 0.04  C 
ATOM     62  CD  PRO B 182      -1.475  31.047  10.941  1.00113.66 LIG 0.32  C 
ATOM     63  N   PRO B 182      -1.403  32.234  11.812  1.00115.25 LIG 0.32  N 
ENDBRANCH 55 59
ENDBRANCH 50 52
ENDBRANCH 39 48
ENDBRANCH 37 39
ENDBRANCH 1 35
TORSDOF 24
ENDMDL
MODEL 50
USER: ADFR SOLUTION from run 137
USER: SCORE 19.457211 LL:  -3.776 LR: -17.239 RR:   0.000 FEB: -10.079
USER: RMSD 9.720167
USER: SEED 136
USER: STATUS no improvement in best in 3 clusters for 5 generations
USER: GENES 26
USER: genes 0 Translation |==|  0.43912 0.42222 0.63786
USER: genes 1 Rotation |==|  0.70085 0.40300 0.05340 0.52825
USER: genes 2 Torsion [C]-CA--CB-[CG] |==|  0.28971
USER: genes 3 Torsion [CA]-CB--CG-[CD] |==|  0.31755
USER: genes 4 Torsion [CB]-CG--CD-[CE] |==|  0.86274
USER: genes 5 Torsion [CG]-CD--CE-[NZ] |==|  0.75760
USER: genes 6 Torsion [CD]-CE--NZ-[HZ1] |==|  0.73626
USER: genes 7 Torsion [N]-CA--C-[N] |==|  0.33724
USER: genes 8 Torsion [C]-N--CA-[CB] |==|  0.79444
USER: genes 9 Torsion [N]-CA--CB-[CG] |==|  0.57904
USER: genes 10 Torsion [CA]-CB--CG-[CD] |==|  0.30632
USER: genes 11 Torsion [CB]-CG--CD-[NE] |==|  0.46073
USER: genes 12 Torsion [CG]-CD--NE-[CZ] |==|  0.55610
USER: genes 13 Torsion [N]-CA--C-[N] |==|  0.17081
USER: genes 14 Torsion [C]-N--CA-[C] |==|  0.74584
USER: genes 15 Torsion [N]-CA--C-[O] |==|  0.34844
USER: genes 16 Torsion [CB]-CA--N-[C] |==|  0.23569
USER: genes 17 Torsion [N]-C--CA-[N] |==|  0.35606
USER: genes 18 Torsion [C]-CA--CB-[CG] |==|  0.98425
USER: genes 19 Torsion [CA]-CB--CG-[CD] |==|  0.65747
USER: genes 20 Torsion [CB]-CG--CD-[CE] |==|  0.12236
USER: genes 21 Torsion [CG]-CD--CE-[NZ] |==|  0.12711
USER: genes 22 Torsion [CD]-CE--NZ-[HZ3] |==|  0.57528
USER: genes 23 Torsion [C]-CA--N-[C] |==|  0.84897
USER: genes 24 Torsion [N]-C--CA-[N] |==|  0.98721
USER: genes 25 Torsion [N]-C--CA-[CB] |==|  0.76922
ROOT
ATOM      1  CA  LYS B 185       1.309  32.625   9.588  1.00 91.41 LIG 0.18  C 
ENDROOT
BRANCH 1 2
ATOM      2  CB  LYS B 185       0.928  33.606  10.702  1.00 90.53 LIG 0.04  C 
BRANCH 2 3
ATOM      3  CG  LYS B 185      -0.419  34.309  10.554  1.00 86.81 LIG 0.00  C 
BRANCH 3 4
ATOM      4  CD  LYS B 185      -1.391  33.882  11.661  1.00 79.71 LIG 0.03  C 
BRANCH 4 5
ATOM      5  CE  LYS B 185      -1.472  32.362  11.822  1.00 72.24 LIG 0.23  C 
BRANCH 5 6
ATOM      6  NZ  LYS B 185      -2.480  31.725  10.925  1.00 67.20 LIG-0.08  N 
ATOM      7 HZ1  LYS B 185      -3.249  31.627  11.363  1.00 67.20 LIG 0.27  HD
ATOM      8 HZ3  LYS B 185      -2.184  30.927  10.664  1.00 67.20 LIG 0.27  HD
ATOM      9 HZ2  LYS B 185      -2.610  32.241  10.211  1.00 67.20 LIG 0.27  HD
ENDBRANCH 5 6
ENDBRANCH 4 5
ENDBRANCH 3 4
ENDBRANCH 2 3
ENDBRANCH 1 2
BRANCH 1 10
ATOM     10  C   LYS B 185       2.358  33.260   8.681  1.00 87.67 LIG 0.24  C 
ATOM     11 O    LYS B 185       3.473  33.553   9.123  1.00 75.85 LIG-0.27  OA
ATOM     12  N   ARG B 186       1.983  33.484   7.424  1.00 93.18 LIG-0.35  N 
ATOM     13 H    ARG B 186       1.224  33.225   7.112  1.00 93.18 LIG 0.16  HD
BRANCH 12 14
ATOM     14  CA  ARG B 186       2.802  34.185   6.437  1.00 93.88 LIG 0.18  C 
BRANCH 14 15
ATOM     15  CB  ARG B 186       2.795  35.687   6.766  1.00 94.11 LIG 0.04  C 
BRANCH 15 16
ATOM     16  CG  ARG B 186       2.986  36.567   5.538  1.00 91.13 LIG 0.02  C 
BRANCH 16 17
ATOM     17  CD  ARG B 186       1.730  37.337   5.164  1.00 90.43 LIG 0.14  C 
BRANCH 17 18
ATOM     18  NE  ARG B 186       2.030  38.404   4.210  1.00 88.65 LIG-0.23  N 
ATOM     19 HE   ARG B 186       2.758  38.347   3.756  1.00 88.65 LIG 0.18  HD
ATOM     20  CZ  ARG B 186       1.244  39.458   4.001  1.00 77.61 LIG 0.67  C 
ATOM     21  NH2 ARG B 186       1.589  40.387   3.120  1.00 64.46 LIG-0.23  N 
ATOM     22  NH1 ARG B 186       0.109  39.579   4.674  1.00 71.89 LIG-0.23  N 
ATOM     23 2HH2 ARG B 186       1.077  41.066   2.989  1.00 64.46 LIG 0.17  HD
ATOM     24 1HH2 ARG B 186       2.323  40.311   2.679  1.00 64.46 LIG 0.17  HD
ATOM     25 1HH1 ARG B 186      -0.119  38.977   5.244  1.00 71.89 LIG 0.17  HD
ATOM     26 2HH1 ARG B 186      -0.399  40.260   4.539  1.00 71.89 LIG 0.17  HD
ENDBRANCH 17 18
ENDBRANCH 16 17
ENDBRANCH 15 16
ENDBRANCH 14 15
BRANCH 14 27
ATOM     27  C   ARG B 186       4.216  33.567   6.467  1.00100.48 LIG 0.24  C 
ATOM     28  N   ALA B 187       4.405  32.274   6.167  1.00104.89 LIG-0.35  N 
ATOM     29 H    ALA B 187       5.188  31.920   6.186  1.00104.89 LIG 0.16  HD
ATOM     30 O    ARG B 186       5.164  34.286   6.792  1.00101.56 LIG-0.27  OA
BRANCH 28 31
ATOM     31  CA  ALA B 187       3.374  31.309   5.780  1.00100.92 LIG 0.16  C 
ATOM     32  CB  ALA B 187       3.939  30.301   4.768  1.00 98.55 LIG 0.04  C 
BRANCH 31 33
ATOM     33  C   ALA B 187       2.820  30.572   6.997  1.00 96.24 LIG 0.22  C 
ATOM     34 O    ALA B 187       1.609  30.558   7.225  1.00 95.92 LIG-0.29  OA
ENDBRANCH 31 33
ENDBRANCH 28 31
ENDBRANCH 14 27
ENDBRANCH 12 14
ENDBRANCH 1 10
BRANCH 1 35
ATOM     35  N   LYS B 185       1.813  31.362  10.123  1.00 94.70 LIG-0.35  N 
ATOM     36 H    LYS B 185       2.671  31.329  10.179  1.00 94.70 LIG 0.16  HD
ATOM     37  C   LYS B 184       1.019  30.352  10.494  1.00 95.69 LIG 0.24  C 
ATOM     38 O    LYS B 184      -0.207  30.373  10.350  1.00 96.36 LIG-0.27  OA
BRANCH 37 39
ATOM     39  CA  LYS B 184       1.714  29.149  11.125  1.00 89.09 LIG 0.18  C 
BRANCH 39 40
ATOM     40  CB  LYS B 184       1.682  27.947  10.174  1.00 73.03 LIG 0.04  C 
BRANCH 40 41
ATOM     41  CG  LYS B 184       0.859  28.184   8.902  1.00 60.77 LIG 0.00  C 
BRANCH 41 42
ATOM     42  CD  LYS B 184      -0.239  27.146   8.741  1.00 63.88 LIG 0.03  C 
BRANCH 42 43
ATOM     43  CE  LYS B 184      -0.985  26.872  10.045  1.00 60.38 LIG 0.23  C 
BRANCH 43 44
ATOM     44  NZ  LYS B 184      -1.391  28.089  10.833  1.00 53.06 LIG-0.08  N 
ATOM     45 HZ3  LYS B 184      -1.447  27.878  11.696  1.00 53.06 LIG 0.27  HD
ATOM     46 HZ2  LYS B 184      -2.183  28.378  10.548  1.00 53.06 LIG 0.27  HD
ATOM     47 HZ1  LYS B 184      -0.784  28.730  10.723  1.00 53.06 LIG 0.27  HD
ENDBRANCH 43 44
ENDBRANCH 42 43
ENDBRANCH 41 42
ENDBRANCH 40 41
ENDBRANCH 39 40
BRANCH 39 48
ATOM     48  N   LYS B 184       1.092  28.802  12.397  1.00 95.16 LIG-0.35  N 
ATOM     49 H    LYS B 184       0.836  27.983  12.454  1.00 95.16 LIG 0.16  HD
ATOM     50  C   PRO B 183       0.945  29.697  13.372  1.00102.83 LIG 0.24  C 
ATOM     51 O    PRO B 183       1.324  30.868  13.262  1.00 96.65 LIG-0.27  OA
BRANCH 50 52
ATOM     52  CA  PRO B 183       0.263  29.206  14.647  1.00119.60 LIG 0.18  C 
ATOM     53  N   PRO B 183      -0.231  27.823  14.566  1.00125.08 LIG-0.34  N 
ATOM     54  CD  PRO B 183       0.761  26.858  15.076  1.00128.64 LIG 0.13  C 
ATOM     55  C   PRO B 182      -1.538  27.585  14.366  1.00122.07 LIG 0.26  C 
ATOM     56  CG  PRO B 183       1.820  27.742  15.726  1.00127.59 LIG 0.02  C 
ATOM     57  CB  PRO B 183       1.249  29.139  15.819  1.00124.68 LIG 0.04  C 
ATOM     58 O    PRO B 182      -2.379  28.480  14.257  1.00123.88 LIG-0.27  OA
BRANCH 55 59
ATOM     59  CA  PRO B 182      -1.987  26.124  14.294  1.00115.83 LIG 0.35  C 
ATOM     60  CB  PRO B 182      -1.768  25.557  12.883  1.00111.53 LIG 0.05  C 
ATOM     61  CG  PRO B 182      -2.963  24.693  12.615  1.00111.42 LIG 0.04  C 
ATOM     62  CD  PRO B 182      -4.096  25.350  13.339  1.00113.66 LIG 0.32  C 
ATOM     63  N   PRO B 182      -3.433  25.969  14.500  1.00115.25 LIG 0.32  N 
ENDBRANCH 55 59
ENDBRANCH 50 52
ENDBRANCH 39 48
ENDBRANCH 37 39
ENDBRANCH 1 35
TORSDOF 24
ENDMDL
MODEL 51
USER: ADFR SOLUTION from run 111
USER: SCORE 18.627188 LL:  -2.620 LR: -17.244 RR:   0.000 FEB: -10.085
USER: RMSD 4.915432
USER: SEED 110
USER: STATUS no improvement in best in 6 clusters for 5 generations
USER: GENES 26
USER: genes 0 Translation |==|  0.58230 0.48911 0.44444
USER: genes 1 Rotation |==|  0.38709 0.92501 0.53096 0.73592
USER: genes 2 Torsion [C]-CA--CB-[CG] |==|  0.61364
USER: genes 3 Torsion [CA]-CB--CG-[CD] |==|  0.58323
USER: genes 4 Torsion [CB]-CG--CD-[CE] |==|  0.32116
USER: genes 5 Torsion [CG]-CD--CE-[NZ] |==|  0.82319
USER: genes 6 Torsion [CD]-CE--NZ-[HZ1] |==|  0.63622
USER: genes 7 Torsion [N]-CA--C-[N] |==|  0.19071
USER: genes 8 Torsion [C]-N--CA-[CB] |==|  0.76481
USER: genes 9 Torsion [N]-CA--CB-[CG] |==|  0.07159
USER: genes 10 Torsion [CA]-CB--CG-[CD] |==|  0.55340
USER: genes 11 Torsion [CB]-CG--CD-[NE] |==|  0.33109
USER: genes 12 Torsion [CG]-CD--NE-[CZ] |==|  0.45875
USER: genes 13 Torsion [N]-CA--C-[N] |==|  0.21972
USER: genes 14 Torsion [C]-N--CA-[C] |==|  0.61689
USER: genes 15 Torsion [N]-CA--C-[O] |==|  0.62604
USER: genes 16 Torsion [CB]-CA--N-[C] |==|  0.78333
USER: genes 17 Torsion [N]-C--CA-[N] |==|  0.63267
USER: genes 18 Torsion [C]-CA--CB-[CG] |==|  0.57314
USER: genes 19 Torsion [CA]-CB--CG-[CD] |==|  0.35976
USER: genes 20 Torsion [CB]-CG--CD-[CE] |==|  0.61694
USER: genes 21 Torsion [CG]-CD--CE-[NZ] |==|  0.71375
USER: genes 22 Torsion [CD]-CE--NZ-[HZ3] |==|  0.65996
USER: genes 23 Torsion [C]-CA--N-[C] |==|  0.69896
USER: genes 24 Torsion [N]-C--CA-[N] |==|  0.34672
USER: genes 25 Torsion [N]-C--CA-[CB] |==|  0.82960
ROOT
ATOM      1  CA  LYS B 185       3.779  34.431   5.671  1.00 91.41 LIG 0.18  C 
ENDROOT
BRANCH 1 2
ATOM      2  CB  LYS B 185       5.290  34.685   5.677  1.00 90.53 LIG 0.04  C 
BRANCH 2 3
ATOM      3  CG  LYS B 185       5.731  36.147   5.700  1.00 86.81 LIG 0.00  C 
BRANCH 3 4
ATOM      4  CD  LYS B 185       7.078  36.330   4.990  1.00 79.71 LIG 0.03  C 
BRANCH 4 5
ATOM      5  CE  LYS B 185       6.971  37.200   3.735  1.00 72.24 LIG 0.23  C 
BRANCH 5 6
ATOM      6  NZ  LYS B 185       6.113  36.600   2.671  1.00 67.20 LIG-0.08  N 
ATOM      7 HZ1  LYS B 185       6.544  36.625   1.892  1.00 67.20 LIG 0.27  HD
ATOM      8 HZ3  LYS B 185       5.355  37.062   2.605  1.00 67.20 LIG 0.27  HD
ATOM      9 HZ2  LYS B 185       5.928  35.755   2.880  1.00 67.20 LIG 0.27  HD
ENDBRANCH 5 6
ENDBRANCH 4 5
ENDBRANCH 3 4
ENDBRANCH 2 3
ENDBRANCH 1 2
BRANCH 1 10
ATOM     10  C   LYS B 185       3.451  33.261   6.593  1.00 87.67 LIG 0.24  C 
ATOM     11 O    LYS B 185       4.308  32.806   7.357  1.00 75.85 LIG-0.27  OA
ATOM     12  N   ARG B 186       2.216  32.772   6.497  1.00 93.18 LIG-0.35  N 
ATOM     13 H    ARG B 186       1.612  33.131   6.002  1.00 93.18 LIG 0.16  HD
BRANCH 12 14
ATOM     14  CA  ARG B 186       1.749  31.585   7.209  1.00 93.88 LIG 0.18  C 
BRANCH 14 15
ATOM     15  CB  ARG B 186       2.128  30.338   6.396  1.00 94.11 LIG 0.04  C 
BRANCH 15 16
ATOM     16  CG  ARG B 186       3.340  30.557   5.499  1.00 91.13 LIG 0.02  C 
BRANCH 16 17
ATOM     17  CD  ARG B 186       3.439  29.532   4.381  1.00 90.43 LIG 0.14  C 
BRANCH 17 18
ATOM     18  NE  ARG B 186       3.380  30.175   3.070  1.00 88.65 LIG-0.23  N 
ATOM     19 HE   ARG B 186       3.108  30.990   3.031  1.00 88.65 LIG 0.18  HD
ATOM     20  CZ  ARG B 186       3.722  29.576   1.931  1.00 77.61 LIG 0.67  C 
ATOM     21  NH2 ARG B 186       3.636  30.226   0.778  1.00 64.46 LIG-0.23  N 
ATOM     22  NH1 ARG B 186       4.155  28.324   1.947  1.00 71.89 LIG-0.23  N 
ATOM     23 2HH2 ARG B 186       3.859  29.834   0.046  1.00 64.46 LIG 0.17  HD
ATOM     24 1HH2 ARG B 186       3.358  31.040   0.763  1.00 64.46 LIG 0.17  HD
ATOM     25 1HH1 ARG B 186       4.214  27.899   2.693  1.00 71.89 LIG 0.17  HD
ATOM     26 2HH1 ARG B 186       4.376  27.936   1.212  1.00 71.89 LIG 0.17  HD
ENDBRANCH 17 18
ENDBRANCH 16 17
ENDBRANCH 15 16
ENDBRANCH 14 15
BRANCH 14 27
ATOM     27  C   ARG B 186       2.374  31.599   8.621  1.00100.48 LIG 0.24  C 
ATOM     28  N   ALA B 187       1.866  32.375   9.588  1.00104.89 LIG-0.35  N 
ATOM     29 H    ALA B 187       2.211  32.394  10.375  1.00104.89 LIG 0.16  HD
ATOM     30 O    ARG B 186       3.364  30.894   8.831  1.00101.56 LIG-0.27  OA
BRANCH 28 31
ATOM     31  CA  ALA B 187       0.709  33.266   9.473  1.00100.92 LIG 0.16  C 
ATOM     32  CB  ALA B 187      -0.542  32.597  10.063  1.00 98.55 LIG 0.04  C 
BRANCH 31 33
ATOM     33  C   ALA B 187       0.964  34.600  10.170  1.00 96.24 LIG 0.22  C 
ATOM     34 O    ALA B 187       0.109  35.100  10.903  1.00 95.92 LIG-0.29  OA
ENDBRANCH 31 33
ENDBRANCH 28 31
ENDBRANCH 14 27
ENDBRANCH 12 14
ENDBRANCH 1 10
BRANCH 1 35
ATOM     35  N   LYS B 185       3.027  35.615   6.083  1.00 94.70 LIG-0.35  N 
ATOM     36 H    LYS B 185       2.673  36.044   5.428  1.00 94.70 LIG 0.16  HD
ATOM     37  C   LYS B 184       2.899  35.996   7.359  1.00 95.69 LIG 0.24  C 
ATOM     38 O    LYS B 184       3.464  35.419   8.293  1.00 96.36 LIG-0.27  OA
BRANCH 37 39
ATOM     39  CA  LYS B 184       1.994  37.199   7.612  1.00 89.09 LIG 0.18  C 
BRANCH 39 40
ATOM     40  CB  LYS B 184       1.605  37.868   6.289  1.00 73.03 LIG 0.04  C 
BRANCH 40 41
ATOM     41  CG  LYS B 184       1.271  39.359   6.422  1.00 60.77 LIG 0.00  C 
BRANCH 41 42
ATOM     42  CD  LYS B 184       2.030  40.198   5.408  1.00 63.88 LIG 0.03  C 
BRANCH 42 43
ATOM     43  CE  LYS B 184       2.580  41.492   6.008  1.00 60.38 LIG 0.23  C 
BRANCH 43 44
ATOM     44  NZ  LYS B 184       1.815  42.744   5.671  1.00 53.06 LIG-0.08  N 
ATOM     45 HZ3  LYS B 184       2.359  43.327   5.276  1.00 53.06 LIG 0.27  HD
ATOM     46 HZ2  LYS B 184       1.488  43.103   6.417  1.00 53.06 LIG 0.27  HD
ATOM     47 HZ1  LYS B 184       1.145  42.544   5.120  1.00 53.06 LIG 0.27  HD
ENDBRANCH 43 44
ENDBRANCH 42 43
ENDBRANCH 41 42
ENDBRANCH 40 41
ENDBRANCH 39 40
BRANCH 39 48
ATOM     48  N   LYS B 184       2.648  38.161   8.490  1.00 95.16 LIG-0.35  N 
ATOM     49 H    LYS B 184       3.296  38.592   8.124  1.00 95.16 LIG 0.16  HD
ATOM     50  C   PRO B 183       2.255  38.339   9.750  1.00102.83 LIG 0.24  C 
ATOM     51 O    PRO B 183       1.318  37.706  10.250  1.00 96.65 LIG-0.27  OA
BRANCH 50 52
ATOM     52  CA  PRO B 183       3.035  39.367  10.565  1.00119.60 LIG 0.18  C 
ATOM     53  N   PRO B 183       2.197  40.417  11.163  1.00125.08 LIG-0.34  N 
ATOM     54  CD  PRO B 183       1.787  40.074  12.538  1.00128.64 LIG 0.13  C 
ATOM     55  C   PRO B 182       2.141  41.637  10.601  1.00122.07 LIG 0.26  C 
ATOM     56  CG  PRO B 183       2.635  38.851  12.869  1.00127.59 LIG 0.02  C 
ATOM     57  CB  PRO B 183       3.692  38.727  11.794  1.00124.68 LIG 0.04  C 
ATOM     58 O    PRO B 182       2.780  41.946   9.592  1.00123.88 LIG-0.27  OA
BRANCH 55 59
ATOM     59  CA  PRO B 182       1.252  42.685  11.273  1.00115.83 LIG 0.35  C 
ATOM     60  CB  PRO B 182      -0.214  42.227  11.285  1.00111.53 LIG 0.05  C 
ATOM     61  CG  PRO B 182      -1.016  43.462  11.004  1.00111.42 LIG 0.04  C 
ATOM     62  CD  PRO B 182      -0.162  44.289  10.095  1.00113.66 LIG 0.32  C 
ATOM     63  N   PRO B 182       1.206  43.947  10.525  1.00115.25 LIG 0.32  N 
ENDBRANCH 55 59
ENDBRANCH 50 52
ENDBRANCH 39 48
ENDBRANCH 37 39
ENDBRANCH 1 35
TORSDOF 24
ENDMDL
MODEL 52
USER: ADFR SOLUTION from run 23
USER: SCORE 20.087865 LL:  -4.013 LR: -17.224 RR:   0.000 FEB: -10.064
USER: RMSD 8.732779
USER: SEED 22
USER: STATUS no improvement in best in 3 clusters for 5 generations
USER: GENES 26
USER: genes 0 Translation |==|  0.54730 0.51358 0.47177
USER: genes 1 Rotation |==|  0.24256 0.77212 0.81137 0.61281
USER: genes 2 Torsion [C]-CA--CB-[CG] |==|  0.29018
USER: genes 3 Torsion [CA]-CB--CG-[CD] |==|  0.20652
USER: genes 4 Torsion [CB]-CG--CD-[CE] |==|  0.45289
USER: genes 5 Torsion [CG]-CD--CE-[NZ] |==|  0.47208
USER: genes 6 Torsion [CD]-CE--NZ-[HZ1] |==|  0.26533
USER: genes 7 Torsion [N]-CA--C-[N] |==|  0.36752
USER: genes 8 Torsion [C]-N--CA-[CB] |==|  0.20000
USER: genes 9 Torsion [N]-CA--CB-[CG] |==|  0.11037
USER: genes 10 Torsion [CA]-CB--CG-[CD] |==|  0.32110
USER: genes 11 Torsion [CB]-CG--CD-[NE] |==|  0.69179
USER: genes 12 Torsion [CG]-CD--NE-[CZ] |==|  0.55914
USER: genes 13 Torsion [N]-CA--C-[N] |==|  0.22095
USER: genes 14 Torsion [C]-N--CA-[C] |==|  0.67977
USER: genes 15 Torsion [N]-CA--C-[O] |==|  0.64423
USER: genes 16 Torsion [CB]-CA--N-[C] |==|  0.86031
USER: genes 17 Torsion [N]-C--CA-[N] |==|  0.21221
USER: genes 18 Torsion [C]-CA--CB-[CG] |==|  0.33367
USER: genes 19 Torsion [CA]-CB--CG-[CD] |==|  0.07636
USER: genes 20 Torsion [CB]-CG--CD-[CE] |==|  0.23010
USER: genes 21 Torsion [CG]-CD--CE-[NZ] |==|  0.45069
USER: genes 22 Torsion [CD]-CE--NZ-[HZ3] |==|  0.36394
USER: genes 23 Torsion [C]-CA--N-[C] |==|  0.75577
USER: genes 24 Torsion [N]-C--CA-[N] |==|  0.90429
USER: genes 25 Torsion [N]-C--CA-[CB] |==|  0.76540
ROOT
ATOM      1  CA  LYS B 185       3.175  35.092   6.224  1.00 91.41 LIG 0.18  C 
ENDROOT
BRANCH 1 2
ATOM      2  CB  LYS B 185       3.338  36.579   6.559  1.00 90.53 LIG 0.04  C 
BRANCH 2 3
ATOM      3  CG  LYS B 185       3.117  37.559   5.409  1.00 86.81 LIG 0.00  C 
BRANCH 3 4
ATOM      4  CD  LYS B 185       1.626  37.693   5.075  1.00 79.71 LIG 0.03  C 
BRANCH 4 5
ATOM      5  CE  LYS B 185       1.317  38.938   4.240  1.00 72.24 LIG 0.23  C 
BRANCH 5 6
ATOM      6  NZ  LYS B 185      -0.077  38.962   3.707  1.00 67.20 LIG-0.08  N 
ATOM      7 HZ1  LYS B 185      -0.596  39.436   4.253  1.00 67.20 LIG 0.27  HD
ATOM      8 HZ3  LYS B 185      -0.387  38.130   3.651  1.00 67.20 LIG 0.27  HD
ATOM      9 HZ2  LYS B 185      -0.079  39.335   2.899  1.00 67.20 LIG 0.27  HD
ENDBRANCH 5 6
ENDBRANCH 4 5
ENDBRANCH 3 4
ENDBRANCH 2 3
ENDBRANCH 1 2
BRANCH 1 10
ATOM     10  C   LYS B 185       4.547  34.433   6.128  1.00 87.67 LIG 0.24  C 
ATOM     11 O    LYS B 185       5.197  34.189   7.150  1.00 75.85 LIG-0.27  OA
ATOM     12  N   ARG B 186       4.983  34.171   4.898  1.00 93.18 LIG-0.35  N 
ATOM     13 H    ARG B 186       4.500  34.294   4.198  1.00 93.18 LIG 0.16  HD
BRANCH 12 14
ATOM     14  CA  ARG B 186       6.314  33.650   4.595  1.00 93.88 LIG 0.18  C 
BRANCH 14 15
ATOM     15  CB  ARG B 186       6.382  32.179   5.035  1.00 94.11 LIG 0.04  C 
BRANCH 15 16
ATOM     16  CG  ARG B 186       5.103  31.408   4.737  1.00 91.13 LIG 0.02  C 
BRANCH 16 17
ATOM     17  CD  ARG B 186       5.310  30.292   3.726  1.00 90.43 LIG 0.14  C 
BRANCH 17 18
ATOM     18  NE  ARG B 186       4.643  30.596   2.461  1.00 88.65 LIG-0.23  N 
ATOM     19 HE   ARG B 186       4.459  31.419   2.288  1.00 88.65 LIG 0.18  HD
ATOM     20  CZ  ARG B 186       4.303  29.677   1.560  1.00 77.61 LIG 0.67  C 
ATOM     21  NH2 ARG B 186       3.695  30.033   0.436  1.00 64.46 LIG-0.23  N 
ATOM     22  NH1 ARG B 186       4.575  28.400   1.783  1.00 71.89 LIG-0.23  N 
ATOM     23 2HH2 ARG B 186       3.477  29.435  -0.143  1.00 64.46 LIG 0.17  HD
ATOM     24 1HH2 ARG B 186       3.518  30.861   0.286  1.00 64.46 LIG 0.17  HD
ATOM     25 1HH1 ARG B 186       4.972  28.166   2.509  1.00 71.89 LIG 0.17  HD
ATOM     26 2HH1 ARG B 186       4.355  27.806   1.201  1.00 71.89 LIG 0.17  HD
ENDBRANCH 17 18
ENDBRANCH 16 17
ENDBRANCH 15 16
ENDBRANCH 14 15
BRANCH 14 27
ATOM     27  C   ARG B 186       6.568  33.840   3.084  1.00100.48 LIG 0.24  C 
ATOM     28  N   ALA B 187       6.937  35.034   2.597  1.00104.89 LIG-0.35  N 
ATOM     29 H    ALA B 187       7.075  35.150   1.756  1.00104.89 LIG 0.16  HD
ATOM     30 O    ARG B 186       6.404  32.874   2.336  1.00101.56 LIG-0.27  OA
BRANCH 28 31
ATOM     31  CA  ALA B 187       7.154  36.261   3.365  1.00100.92 LIG 0.16  C 
ATOM     32  CB  ALA B 187       8.583  36.782   3.148  1.00 98.55 LIG 0.04  C 
BRANCH 31 33
ATOM     33  C   ALA B 187       6.142  37.339   2.987  1.00 96.24 LIG 0.22  C 
ATOM     34 O    ALA B 187       6.518  38.470   2.672  1.00 95.92 LIG-0.29  OA
ENDBRANCH 31 33
ENDBRANCH 28 31
ENDBRANCH 14 27
ENDBRANCH 12 14
ENDBRANCH 1 10
BRANCH 1 35
ATOM     35  N   LYS B 185       2.359  34.397   7.218  1.00 94.70 LIG-0.35  N 
ATOM     36 H    LYS B 185       1.723  33.930   6.876  1.00 94.70 LIG 0.16  HD
ATOM     37  C   LYS B 184       2.578  34.479   8.535  1.00 95.69 LIG 0.24  C 
ATOM     38 O    LYS B 184       3.447  35.204   9.029  1.00 96.36 LIG-0.27  OA
BRANCH 37 39
ATOM     39  CA  LYS B 184       1.689  33.606   9.418  1.00 89.09 LIG 0.18  C 
BRANCH 39 40
ATOM     40  CB  LYS B 184       1.700  34.115  10.864  1.00 73.03 LIG 0.04  C 
BRANCH 40 41
ATOM     41  CG  LYS B 184       0.318  34.521  11.390  1.00 60.77 LIG 0.00  C 
BRANCH 41 42
ATOM     42  CD  LYS B 184      -0.796  33.754  10.697  1.00 63.88 LIG 0.03  C 
BRANCH 42 43
ATOM     43  CE  LYS B 184      -1.028  32.374  11.308  1.00 60.38 LIG 0.23  C 
BRANCH 43 44
ATOM     44  NZ  LYS B 184      -2.347  31.727  10.976  1.00 53.06 LIG-0.08  N 
ATOM     45 HZ3  LYS B 184      -2.207  30.892  10.704  1.00 53.06 LIG 0.27  HD
ATOM     46 HZ2  LYS B 184      -2.749  32.186  10.329  1.00 53.06 LIG 0.27  HD
ATOM     47 HZ1  LYS B 184      -2.865  31.720  11.701  1.00 53.06 LIG 0.27  HD
ENDBRANCH 43 44
ENDBRANCH 42 43
ENDBRANCH 41 42
ENDBRANCH 40 41
ENDBRANCH 39 40
BRANCH 39 48
ATOM     48  N   LYS B 184       2.121  32.216   9.370  1.00 95.16 LIG-0.35  N 
ATOM     49 H    LYS B 184       2.684  31.997   9.984  1.00 95.16 LIG 0.16  HD
ATOM     50  C   PRO B 183       1.668  31.372   8.444  1.00102.83 LIG 0.24  C 
ATOM     51 O    PRO B 183       0.859  31.714   7.574  1.00 96.65 LIG-0.27  OA
BRANCH 50 52
ATOM     52  CA  PRO B 183       2.213  29.947   8.498  1.00119.60 LIG 0.18  C 
ATOM     53  N   PRO B 183       3.613  29.859   8.938  1.00125.08 LIG-0.34  N 
ATOM     54  CD  PRO B 183       3.716  29.639  10.393  1.00128.64 LIG 0.13  C 
ATOM     55  C   PRO B 182       4.593  29.671   8.037  1.00122.07 LIG 0.26  C 
ATOM     56  CG  PRO B 183       2.282  29.336  10.811  1.00127.59 LIG 0.02  C 
ATOM     57  CB  PRO B 183       1.480  29.107   9.550  1.00124.68 LIG 0.04  C 
ATOM     58 O    PRO B 182       4.384  29.549   6.827  1.00123.88 LIG-0.27  OA
BRANCH 55 59
ATOM     59  CA  PRO B 182       6.028  29.585   8.561  1.00115.83 LIG 0.35  C 
ATOM     60  CB  PRO B 182       6.629  30.989   8.730  1.00111.53 LIG 0.05  C 
ATOM     61  CG  PRO B 182       8.053  30.865   8.279  1.00111.42 LIG 0.04  C 
ATOM     62  CD  PRO B 182       8.036  29.833   7.195  1.00113.66 LIG 0.32  C 
ATOM     63  N   PRO B 182       6.938  28.940   7.606  1.00115.25 LIG 0.32  N 
ENDBRANCH 55 59
ENDBRANCH 50 52
ENDBRANCH 39 48
ENDBRANCH 37 39
ENDBRANCH 1 35
TORSDOF 24
ENDMDL
MODEL 53
USER: ADFR SOLUTION from run 191
USER: SCORE 19.473715 LL:  -4.536 LR: -17.206 RR:   0.000 FEB: -10.047
USER: RMSD 7.886067
USER: SEED 190
USER: STATUS searching
USER: GENES 26
USER: genes 0 Translation |==|  0.51701 0.56071 0.43748
USER: genes 1 Rotation |==|  0.89216 0.34118 0.23978 0.55717
USER: genes 2 Torsion [C]-CA--CB-[CG] |==|  0.08241
USER: genes 3 Torsion [CA]-CB--CG-[CD] |==|  0.41130
USER: genes 4 Torsion [CB]-CG--CD-[CE] |==|  0.31048
USER: genes 5 Torsion [CG]-CD--CE-[NZ] |==|  0.11547
USER: genes 6 Torsion [CD]-CE--NZ-[HZ1] |==|  0.41014
USER: genes 7 Torsion [N]-CA--C-[N] |==|  0.40618
USER: genes 8 Torsion [C]-N--CA-[CB] |==|  0.22217
USER: genes 9 Torsion [N]-CA--CB-[CG] |==|  0.22956
USER: genes 10 Torsion [CA]-CB--CG-[CD] |==|  0.75292
USER: genes 11 Torsion [CB]-CG--CD-[NE] |==|  0.36275
USER: genes 12 Torsion [CG]-CD--NE-[CZ] |==|  0.39232
USER: genes 13 Torsion [N]-CA--C-[N] |==|  0.32889
USER: genes 14 Torsion [C]-N--CA-[C] |==|  0.78849
USER: genes 15 Torsion [N]-CA--C-[O] |==|  0.91689
USER: genes 16 Torsion [CB]-CA--N-[C] |==|  0.44019
USER: genes 17 Torsion [N]-C--CA-[N] |==|  0.94514
USER: genes 18 Torsion [C]-CA--CB-[CG] |==|  0.51593
USER: genes 19 Torsion [CA]-CB--CG-[CD] |==|  0.24857
USER: genes 20 Torsion [CB]-CG--CD-[CE] |==|  0.52693
USER: genes 21 Torsion [CG]-CD--CE-[NZ] |==|  0.57511
USER: genes 22 Torsion [CD]-CE--NZ-[HZ3] |==|  0.54229
USER: genes 23 Torsion [C]-CA--N-[C] |==|  0.77867
USER: genes 24 Torsion [N]-C--CA-[N] |==|  0.49953
USER: genes 25 Torsion [N]-C--CA-[CB] |==|  0.57515
ROOT
ATOM      1  CA  LYS B 185       2.652  36.364   5.530  1.00 91.41 LIG 0.18  C 
ENDROOT
BRANCH 1 2
ATOM      2  CB  LYS B 185       1.513  37.371   5.339  1.00 90.53 LIG 0.04  C 
BRANCH 2 3
ATOM      3  CG  LYS B 185       1.881  38.689   4.660  1.00 86.81 LIG 0.00  C 
BRANCH 3 4
ATOM      4  CD  LYS B 185       0.707  39.234   3.837  1.00 79.71 LIG 0.03  C 
BRANCH 4 5
ATOM      5  CE  LYS B 185       0.116  40.517   4.428  1.00 72.24 LIG 0.23  C 
BRANCH 5 6
ATOM      6  NZ  LYS B 185       1.151  41.472   4.921  1.00 67.20 LIG-0.08  N 
ATOM      7 HZ1  LYS B 185       0.862  42.307   4.811  1.00 67.20 LIG 0.27  HD
ATOM      8 HZ3  LYS B 185       1.905  41.357   4.461  1.00 67.20 LIG 0.27  HD
ATOM      9 HZ2  LYS B 185       1.305  41.323   5.785  1.00 67.20 LIG 0.27  HD
ENDBRANCH 5 6
ENDBRANCH 4 5
ENDBRANCH 3 4
ENDBRANCH 2 3
ENDBRANCH 1 2
BRANCH 1 10
ATOM     10  C   LYS B 185       3.975  37.108   5.686  1.00 87.67 LIG 0.24  C 
ATOM     11 O    LYS B 185       4.360  37.473   6.802  1.00 75.85 LIG-0.27  OA
ATOM     12  N   ARG B 186       4.648  37.343   4.562  1.00 93.18 LIG-0.35  N 
ATOM     13 H    ARG B 186       4.398  37.036   3.799  1.00 93.18 LIG 0.16  HD
BRANCH 12 14
ATOM     14  CA  ARG B 186       5.872  38.138   4.491  1.00 93.88 LIG 0.18  C 
BRANCH 14 15
ATOM     15  CB  ARG B 186       7.055  37.263   4.936  1.00 94.11 LIG 0.04  C 
BRANCH 15 16
ATOM     16  CG  ARG B 186       7.593  36.376   3.821  1.00 91.13 LIG 0.02  C 
BRANCH 16 17
ATOM     17  CD  ARG B 186       6.893  35.029   3.751  1.00 90.43 LIG 0.14  C 
BRANCH 17 18
ATOM     18  NE  ARG B 186       6.463  34.728   2.387  1.00 88.65 LIG-0.23  N 
ATOM     19 HE   ARG B 186       6.153  35.372   1.909  1.00 88.65 LIG 0.18  HD
ATOM     20  CZ  ARG B 186       6.523  33.516   1.837  1.00 77.61 LIG 0.67  C 
ATOM     21  NH2 ARG B 186       6.109  33.323   0.592  1.00 64.46 LIG-0.23  N 
ATOM     22  NH1 ARG B 186       7.003  32.498   2.535  1.00 71.89 LIG-0.23  N 
ATOM     23 2HH2 ARG B 186       6.150  32.538   0.243  1.00 64.46 LIG 0.17  HD
ATOM     24 1HH2 ARG B 186       5.799  33.982   0.135  1.00 64.46 LIG 0.17  HD
ATOM     25 1HH1 ARG B 186       7.275  32.620   3.342  1.00 71.89 LIG 0.17  HD
ATOM     26 2HH1 ARG B 186       7.042  31.714   2.181  1.00 71.89 LIG 0.17  HD
ENDBRANCH 17 18
ENDBRANCH 16 17
ENDBRANCH 15 16
ENDBRANCH 14 15
BRANCH 14 27
ATOM     27  C   ARG B 186       6.018  38.661   3.046  1.00100.48 LIG 0.24  C 
ATOM     28  N   ALA B 187       6.023  39.977   2.792  1.00104.89 LIG-0.35  N 
ATOM     29 H    ALA B 187       6.099  40.278   1.990  1.00104.89 LIG 0.16  HD
ATOM     30 O    ARG B 186       6.109  37.839   2.131  1.00101.56 LIG-0.27  OA
BRANCH 28 31
ATOM     31  CA  ALA B 187       5.910  41.056   3.775  1.00100.92 LIG 0.16  C 
ATOM     32  CB  ALA B 187       6.410  42.380   3.177  1.00 98.55 LIG 0.04  C 
BRANCH 31 33
ATOM     33  C   ALA B 187       4.472  41.215   4.262  1.00 96.24 LIG 0.22  C 
ATOM     34 O    ALA B 187       3.524  40.936   3.525  1.00 95.92 LIG-0.29  OA
ENDBRANCH 31 33
ENDBRANCH 28 31
ENDBRANCH 14 27
ENDBRANCH 12 14
ENDBRANCH 1 10
BRANCH 1 35
ATOM     35  N   LYS B 185       2.427  35.502   6.688  1.00 94.70 LIG-0.35  N 
ATOM     36 H    LYS B 185       1.881  35.833   7.264  1.00 94.70 LIG 0.16  HD
ATOM     37  C   LYS B 184       3.014  34.309   6.841  1.00 95.69 LIG 0.24  C 
ATOM     38 O    LYS B 184       3.850  33.864   6.048  1.00 96.36 LIG-0.27  OA
BRANCH 37 39
ATOM     39  CA  LYS B 184       2.584  33.502   8.063  1.00 89.09 LIG 0.18  C 
BRANCH 39 40
ATOM     40  CB  LYS B 184       1.612  32.388   7.658  1.00 73.03 LIG 0.04  C 
BRANCH 40 41
ATOM     41  CG  LYS B 184       1.022  31.617   8.846  1.00 60.77 LIG 0.00  C 
BRANCH 41 42
ATOM     42  CD  LYS B 184      -0.261  32.255   9.350  1.00 63.88 LIG 0.03  C 
BRANCH 42 43
ATOM     43  CE  LYS B 184      -0.739  31.651  10.670  1.00 60.38 LIG 0.23  C 
BRANCH 43 44
ATOM     44  NZ  LYS B 184      -2.222  31.725  10.922  1.00 53.06 LIG-0.08  N 
ATOM     45 HZ3  LYS B 184      -2.385  31.561  11.781  1.00 53.06 LIG 0.27  HD
ATOM     46 HZ2  LYS B 184      -2.639  31.120  10.421  1.00 53.06 LIG 0.27  HD
ATOM     47 HZ1  LYS B 184      -2.518  32.538  10.714  1.00 53.06 LIG 0.27  HD
ENDBRANCH 43 44
ENDBRANCH 42 43
ENDBRANCH 41 42
ENDBRANCH 40 41
ENDBRANCH 39 40
BRANCH 39 48
ATOM     48  N   LYS B 184       1.971  34.367   9.063  1.00 95.16 LIG-0.35  N 
ATOM     49 H    LYS B 184       1.110  34.349   9.069  1.00 95.16 LIG 0.16  HD
ATOM     50  C   PRO B 183       2.703  35.115   9.887  1.00102.83 LIG 0.24  C 
ATOM     51 O    PRO B 183       3.939  35.120   9.857  1.00 96.65 LIG-0.27  OA
BRANCH 50 52
ATOM     52  CA  PRO B 183       1.935  35.986  10.877  1.00119.60 LIG 0.18  C 
ATOM     53  N   PRO B 183       2.794  36.785  11.763  1.00125.08 LIG-0.34  N 
ATOM     54  CD  PRO B 183       3.038  38.134  11.217  1.00128.64 LIG 0.13  C 
ATOM     55  C   PRO B 182       3.004  36.394  13.031  1.00122.07 LIG 0.26  C 
ATOM     56  CG  PRO B 183       2.064  38.228  10.048  1.00127.59 LIG 0.02  C 
ATOM     57  CB  PRO B 183       1.110  37.060  10.156  1.00124.68 LIG 0.04  C 
ATOM     58 O    PRO B 182       2.493  35.383  13.520  1.00123.88 LIG-0.27  OA
BRANCH 55 59
ATOM     59  CA  PRO B 182       3.906  37.271  13.901  1.00115.83 LIG 0.35  C 
ATOM     60  CB  PRO B 182       4.580  36.437  15.001  1.00111.53 LIG 0.05  C 
ATOM     61  CG  PRO B 182       4.572  37.309  16.220  1.00111.42 LIG 0.04  C 
ATOM     62  CD  PRO B 182       3.322  38.126  16.112  1.00113.66 LIG 0.32  C 
ATOM     63  N   PRO B 182       3.152  38.280  14.656  1.00115.25 LIG 0.32  N 
ENDBRANCH 55 59
ENDBRANCH 50 52
ENDBRANCH 39 48
ENDBRANCH 37 39
ENDBRANCH 1 35
TORSDOF 24
ENDMDL
MODEL 54
USER: ADFR SOLUTION from run 53
USER: SCORE 18.427319 LL:  -3.586 LR: -17.175 RR:   0.000 FEB: -10.016
USER: RMSD 8.896458
USER: SEED 52
USER: STATUS no improvement in best in 7 clusters for 5 generations
USER: GENES 26
USER: genes 0 Translation |==|  0.50122 0.58105 0.42960
USER: genes 1 Rotation |==|  0.82674 0.21509 0.26457 0.58147
USER: genes 2 Torsion [C]-CA--CB-[CG] |==|  0.66358
USER: genes 3 Torsion [CA]-CB--CG-[CD] |==|  0.48347
USER: genes 4 Torsion [CB]-CG--CD-[CE] |==|  0.07143
USER: genes 5 Torsion [CG]-CD--CE-[NZ] |==|  0.72440
USER: genes 6 Torsion [CD]-CE--NZ-[HZ1] |==|  0.66127
USER: genes 7 Torsion [N]-CA--C-[N] |==|  0.57649
USER: genes 8 Torsion [C]-N--CA-[CB] |==|  0.24338
USER: genes 9 Torsion [N]-CA--CB-[CG] |==|  0.75326
USER: genes 10 Torsion [CA]-CB--CG-[CD] |==|  0.35508
USER: genes 11 Torsion [CB]-CG--CD-[NE] |==|  0.11658
USER: genes 12 Torsion [CG]-CD--NE-[CZ] |==|  0.53569
USER: genes 13 Torsion [N]-CA--C-[N] |==|  0.15604
USER: genes 14 Torsion [C]-N--CA-[C] |==|  0.55025
USER: genes 15 Torsion [N]-CA--C-[O] |==|  0.62860
USER: genes 16 Torsion [CB]-CA--N-[C] |==|  0.80927
USER: genes 17 Torsion [N]-C--CA-[N] |==|  0.11111
USER: genes 18 Torsion [C]-CA--CB-[CG] |==|  0.42653
USER: genes 19 Torsion [CA]-CB--CG-[CD] |==|  0.35722
USER: genes 20 Torsion [CB]-CG--CD-[CE] |==|  0.40957
USER: genes 21 Torsion [CG]-CD--CE-[NZ] |==|  0.20234
USER: genes 22 Torsion [CD]-CE--NZ-[HZ3] |==|  0.68314
USER: genes 23 Torsion [C]-CA--N-[C] |==|  0.17215
USER: genes 24 Torsion [N]-C--CA-[N] |==|  0.03914
USER: genes 25 Torsion [N]-C--CA-[CB] |==|  0.69728
ROOT
ATOM      1  CA  LYS B 185       2.380  36.913   5.370  1.00 91.41 LIG 0.18  C 
ENDROOT
BRANCH 1 2
ATOM      2  CB  LYS B 185       1.714  38.142   4.742  1.00 90.53 LIG 0.04  C 
BRANCH 2 3
ATOM      3  CG  LYS B 185       0.785  38.947   5.648  1.00 86.81 LIG 0.00  C 
BRANCH 3 4
ATOM      4  CD  LYS B 185       0.301  40.224   4.951  1.00 79.71 LIG 0.03  C 
BRANCH 4 5
ATOM      5  CE  LYS B 185       0.307  40.103   3.425  1.00 72.24 LIG 0.23  C 
BRANCH 5 6
ATOM      6  NZ  LYS B 185       1.504  40.725   2.787  1.00 67.20 LIG-0.08  N 
ATOM      7 HZ1  LYS B 185       1.242  41.350   2.210  1.00 67.20 LIG 0.27  HD
ATOM      8 HZ3  LYS B 185       1.970  40.101   2.357  1.00 67.20 LIG 0.27  HD
ATOM      9 HZ2  LYS B 185       2.015  41.097   3.414  1.00 67.20 LIG 0.27  HD
ENDBRANCH 5 6
ENDBRANCH 4 5
ENDBRANCH 3 4
ENDBRANCH 2 3
ENDBRANCH 1 2
BRANCH 1 10
ATOM     10  C   LYS B 185       3.897  37.056   5.295  1.00 87.67 LIG 0.24  C 
ATOM     11 O    LYS B 185       4.618  36.543   6.157  1.00 75.85 LIG-0.27  OA
ATOM     12  N   ARG B 186       4.365  37.769   4.273  1.00 93.18 LIG-0.35  N 
ATOM     13 H    ARG B 186       3.858  38.074   3.649  1.00 93.18 LIG 0.16  HD
BRANCH 12 14
ATOM     14  CA  ARG B 186       5.773  38.114   4.093  1.00 93.88 LIG 0.18  C 
BRANCH 14 15
ATOM     15  CB  ARG B 186       6.465  36.979   3.321  1.00 94.11 LIG 0.04  C 
BRANCH 15 16
ATOM     16  CG  ARG B 186       7.019  35.890   4.230  1.00 91.13 LIG 0.02  C 
BRANCH 16 17
ATOM     17  CD  ARG B 186       6.558  34.498   3.830  1.00 90.43 LIG 0.14  C 
BRANCH 17 18
ATOM     18  NE  ARG B 186       6.596  34.327   2.379  1.00 88.65 LIG-0.23  N 
ATOM     19 HE   ARG B 186       7.014  34.917   1.913  1.00 88.65 LIG 0.18  HD
ATOM     20  CZ  ARG B 186       6.024  33.312   1.734  1.00 77.61 LIG 0.67  C 
ATOM     21  NH2 ARG B 186       6.099  33.229   0.412  1.00 64.46 LIG-0.23  N 
ATOM     22  NH1 ARG B 186       5.378  32.377   2.415  1.00 71.89 LIG-0.23  N 
ATOM     23 2HH2 ARG B 186       5.727  32.572   0.001  1.00 64.46 LIG 0.17  HD
ATOM     24 1HH2 ARG B 186       6.519  33.833  -0.033  1.00 64.46 LIG 0.17  HD
ATOM     25 1HH1 ARG B 186       5.329  32.426   3.272  1.00 71.89 LIG 0.17  HD
ATOM     26 2HH1 ARG B 186       5.007  31.721   1.999  1.00 71.89 LIG 0.17  HD
ENDBRANCH 17 18
ENDBRANCH 16 17
ENDBRANCH 15 16
ENDBRANCH 14 15
BRANCH 14 27
ATOM     27  C   ARG B 186       5.841  39.472   3.360  1.00100.48 LIG 0.24  C 
ATOM     28  N   ALA B 187       5.227  40.553   3.863  1.00104.89 LIG-0.35  N 
ATOM     29 H    ALA B 187       5.255  41.311   3.459  1.00104.89 LIG 0.16  HD
ATOM     30 O    ARG B 186       6.457  39.533   2.294  1.00101.56 LIG-0.27  OA
BRANCH 28 31
ATOM     31  CA  ALA B 187       4.455  40.618   5.105  1.00100.92 LIG 0.16  C 
ATOM     32  CB  ALA B 187       5.396  40.628   6.320  1.00 98.55 LIG 0.04  C 
BRANCH 31 33
ATOM     33  C   ALA B 187       3.553  41.850   5.134  1.00 96.24 LIG 0.22  C 
ATOM     34 O    ALA B 187       3.499  42.565   6.136  1.00 95.92 LIG-0.29  OA
ENDBRANCH 31 33
ENDBRANCH 28 31
ENDBRANCH 14 27
ENDBRANCH 12 14
ENDBRANCH 1 10
BRANCH 1 35
ATOM     35  N   LYS B 185       1.968  36.722   6.760  1.00 94.70 LIG-0.35  N 
ATOM     36 H    LYS B 185       1.477  36.026   6.881  1.00 94.70 LIG 0.16  HD
ATOM     37  C   LYS B 184       2.319  37.550   7.750  1.00 95.69 LIG 0.24  C 
ATOM     38 O    LYS B 184       2.965  38.585   7.565  1.00 96.36 LIG-0.27  OA
BRANCH 37 39
ATOM     39  CA  LYS B 184       1.882  37.138   9.154  1.00 89.09 LIG 0.18  C 
BRANCH 39 40
ATOM     40  CB  LYS B 184       2.688  37.898  10.213  1.00 73.03 LIG 0.04  C 
BRANCH 40 41
ATOM     41  CG  LYS B 184       1.954  38.065  11.550  1.00 60.77 LIG 0.00  C 
BRANCH 41 42
ATOM     42  CD  LYS B 184       2.807  37.609  12.721  1.00 63.88 LIG 0.03  C 
BRANCH 42 43
ATOM     43  CE  LYS B 184       2.542  38.416  13.991  1.00 60.38 LIG 0.23  C 
BRANCH 43 44
ATOM     44  NZ  LYS B 184       1.234  38.135  14.682  1.00 53.06 LIG-0.08  N 
ATOM     45 HZ3  LYS B 184       0.716  38.857  14.641  1.00 53.06 LIG 0.27  HD
ATOM     46 HZ2  LYS B 184       1.386  37.928  15.534  1.00 53.06 LIG 0.27  HD
ATOM     47 HZ1  LYS B 184       0.826  37.454  14.280  1.00 53.06 LIG 0.27  HD
ENDBRANCH 43 44
ENDBRANCH 42 43
ENDBRANCH 41 42
ENDBRANCH 40 41
ENDBRANCH 39 40
BRANCH 39 48
ATOM     48  N   LYS B 184       2.032  35.701   9.340  1.00 95.16 LIG-0.35  N 
ATOM     49 H    LYS B 184       1.296  35.285   9.500  1.00 95.16 LIG 0.16  HD
ATOM     50  C   PRO B 183       3.220  35.104   9.264  1.00102.83 LIG 0.24  C 
ATOM     51 O    PRO B 183       4.262  35.727   9.032  1.00 96.65 LIG-0.27  OA
BRANCH 50 52
ATOM     52  CA  PRO B 183       3.238  33.596   9.495  1.00119.60 LIG 0.18  C 
ATOM     53  N   PRO B 183       1.910  32.967   9.445  1.00125.08 LIG-0.34  N 
ATOM     54  CD  PRO B 183       1.595  32.460   8.096  1.00128.64 LIG 0.13  C 
ATOM     55  C   PRO B 182       1.279  32.634  10.584  1.00122.07 LIG 0.26  C 
ATOM     56  CG  PRO B 183       2.920  32.579   7.351  1.00127.59 LIG 0.02  C 
ATOM     57  CB  PRO B 183       3.993  32.867   8.376  1.00124.68 LIG 0.04  C 
ATOM     58 O    PRO B 182       1.764  32.815  11.703  1.00123.88 LIG-0.27  OA
BRANCH 55 59
ATOM     59  CA  PRO B 182      -0.100  31.982  10.462  1.00115.83 LIG 0.35  C 
ATOM     60  CB  PRO B 182      -1.202  32.949  10.920  1.00111.53 LIG 0.05  C 
ATOM     61  CG  PRO B 182      -2.186  32.102  11.669  1.00111.42 LIG 0.04  C 
ATOM     62  CD  PRO B 182      -1.369  31.029  12.318  1.00113.66 LIG 0.32  C 
ATOM     63  N   PRO B 182      -0.261  30.835  11.365  1.00115.25 LIG 0.32  N 
ENDBRANCH 55 59
ENDBRANCH 50 52
ENDBRANCH 39 48
ENDBRANCH 37 39
ENDBRANCH 1 35
TORSDOF 24
ENDMDL
MODEL 55
USER: ADFR SOLUTION from run 159
USER: SCORE 19.912949 LL:  -3.171 LR: -17.169 RR:   0.000 FEB: -10.010
USER: RMSD 10.069209
USER: SEED 158
USER: STATUS searching
USER: GENES 26
USER: genes 0 Translation |==|  0.49795 0.43469 0.54336
USER: genes 1 Rotation |==|  0.68933 0.64031 0.06536 0.57454
USER: genes 2 Torsion [C]-CA--CB-[CG] |==|  0.33780
USER: genes 3 Torsion [CA]-CB--CG-[CD] |==|  0.67687
USER: genes 4 Torsion [CB]-CG--CD-[CE] |==|  0.64202
USER: genes 5 Torsion [CG]-CD--CE-[NZ] |==|  0.73222
USER: genes 6 Torsion [CD]-CE--NZ-[HZ1] |==|  0.90207
USER: genes 7 Torsion [N]-CA--C-[N] |==|  0.16884
USER: genes 8 Torsion [C]-N--CA-[CB] |==|  0.86667
USER: genes 9 Torsion [N]-CA--CB-[CG] |==|  0.74695
USER: genes 10 Torsion [CA]-CB--CG-[CD] |==|  0.82243
USER: genes 11 Torsion [CB]-CG--CD-[NE] |==|  0.63847
USER: genes 12 Torsion [CG]-CD--NE-[CZ] |==|  0.44190
USER: genes 13 Torsion [N]-CA--C-[N] |==|  0.36082
USER: genes 14 Torsion [C]-N--CA-[C] |==|  0.59036
USER: genes 15 Torsion [N]-CA--C-[O] |==|  0.57516
USER: genes 16 Torsion [CB]-CA--N-[C] |==|  0.77757
USER: genes 17 Torsion [N]-C--CA-[N] |==|  0.95678
USER: genes 18 Torsion [C]-CA--CB-[CG] |==|  0.72693
USER: genes 19 Torsion [CA]-CB--CG-[CD] |==|  0.38811
USER: genes 20 Torsion [CB]-CG--CD-[CE] |==|  0.36329
USER: genes 21 Torsion [CG]-CD--CE-[NZ] |==|  0.30973
USER: genes 22 Torsion [CD]-CE--NZ-[HZ3] |==|  0.61232
USER: genes 23 Torsion [C]-CA--N-[C] |==|  0.80368
USER: genes 24 Torsion [N]-C--CA-[N] |==|  0.03663
USER: genes 25 Torsion [N]-C--CA-[CB] |==|  0.79835
ROOT
ATOM      1  CA  LYS B 185       2.324  32.962   7.674  1.00 91.41 LIG 0.18  C 
ENDROOT
BRANCH 1 2
ATOM      2  CB  LYS B 185       1.914  32.601   9.107  1.00 90.53 LIG 0.04  C 
BRANCH 2 3
ATOM      3  CG  LYS B 185       0.521  32.000   9.281  1.00 86.81 LIG 0.00  C 
BRANCH 3 4
ATOM      4  CD  LYS B 185      -0.374  32.914  10.125  1.00 79.71 LIG 0.03  C 
BRANCH 4 5
ATOM      5  CE  LYS B 185      -1.050  32.175  11.283  1.00 72.24 LIG 0.23  C 
BRANCH 5 6
ATOM      6  NZ  LYS B 185      -2.438  31.725  10.968  1.00 67.20 LIG-0.08  N 
ATOM      7 HZ1  LYS B 185      -2.834  32.327  10.446  1.00 67.20 LIG 0.27  HD
ATOM      8 HZ3  LYS B 185      -2.901  31.639  11.723  1.00 67.20 LIG 0.27  HD
ATOM      9 HZ2  LYS B 185      -2.408  30.942  10.547  1.00 67.20 LIG 0.27  HD
ENDBRANCH 5 6
ENDBRANCH 4 5
ENDBRANCH 3 4
ENDBRANCH 2 3
ENDBRANCH 1 2
BRANCH 1 10
ATOM     10  C   LYS B 185       2.662  34.447   7.594  1.00 87.67 LIG 0.24  C 
ATOM     11 O    LYS B 185       2.637  35.150   8.609  1.00 75.85 LIG-0.27  OA
ATOM     12  N   ARG B 186       2.953  34.914   6.382  1.00 93.18 LIG-0.35  N 
ATOM     13 H    ARG B 186       3.021  34.405   5.693  1.00 93.18 LIG 0.16  HD
BRANCH 12 14
ATOM     14  CA  ARG B 186       3.190  36.324   6.083  1.00 93.88 LIG 0.18  C 
BRANCH 14 15
ATOM     15  CB  ARG B 186       2.065  37.159   6.716  1.00 94.11 LIG 0.04  C 
BRANCH 15 16
ATOM     16  CG  ARG B 186       0.888  37.383   5.777  1.00 91.13 LIG 0.02  C 
BRANCH 16 17
ATOM     17  CD  ARG B 186       1.260  38.197   4.549  1.00 90.43 LIG 0.14  C 
BRANCH 17 18
ATOM     18  NE  ARG B 186       0.322  39.299   4.342  1.00 88.65 LIG-0.23  N 
ATOM     19 HE   ARG B 186      -0.455  39.243   4.707  1.00 88.65 LIG 0.18  HD
ATOM     20  CZ  ARG B 186       0.597  40.386   3.623  1.00 77.61 LIG 0.67  C 
ATOM     21  NH2 ARG B 186      -0.311  41.342   3.478  1.00 64.46 LIG-0.23  N 
ATOM     22  NH1 ARG B 186       1.785  40.516   3.051  1.00 71.89 LIG-0.23  N 
ATOM     23 2HH2 ARG B 186      -0.127  42.041   3.013  1.00 64.46 LIG 0.17  HD
ATOM     24 1HH2 ARG B 186      -1.082  41.263   3.850  1.00 64.46 LIG 0.17  HD
ATOM     25 1HH1 ARG B 186       2.377  39.899   3.145  1.00 71.89 LIG 0.17  HD
ATOM     26 2HH1 ARG B 186       1.963  41.218   2.586  1.00 71.89 LIG 0.17  HD
ENDBRANCH 17 18
ENDBRANCH 16 17
ENDBRANCH 15 16
ENDBRANCH 14 15
BRANCH 14 27
ATOM     27  C   ARG B 186       4.591  36.696   6.616  1.00100.48 LIG 0.24  C 
ATOM     28  N   ALA B 187       5.476  37.328   5.833  1.00104.89 LIG-0.35  N 
ATOM     29 H    ALA B 187       6.260  37.534   6.119  1.00104.89 LIG 0.16  HD
ATOM     30 O    ARG B 186       4.882  36.379   7.772  1.00101.56 LIG-0.27  OA
BRANCH 28 31
ATOM     31  CA  ALA B 187       5.268  37.749   4.446  1.00100.92 LIG 0.16  C 
ATOM     32  CB  ALA B 187       4.695  39.173   4.399  1.00 98.55 LIG 0.04  C 
BRANCH 31 33
ATOM     33  C   ALA B 187       6.567  37.683   3.645  1.00 96.24 LIG 0.22  C 
ATOM     34 O    ALA B 187       6.743  38.419   2.672  1.00 95.92 LIG-0.29  OA
ENDBRANCH 31 33
ENDBRANCH 28 31
ENDBRANCH 14 27
ENDBRANCH 12 14
ENDBRANCH 1 10
BRANCH 1 35
ATOM     35  N   LYS B 185       3.463  32.168   7.219  1.00 94.70 LIG-0.35  N 
ATOM     36 H    LYS B 185       3.243  31.505   6.717  1.00 94.70 LIG 0.16  HD
ATOM     37  C   LYS B 184       4.730  32.444   7.549  1.00 95.69 LIG 0.24  C 
ATOM     38 O    LYS B 184       5.039  33.353   8.325  1.00 96.36 LIG-0.27  OA
BRANCH 37 39
ATOM     39  CA  LYS B 184       5.798  31.568   6.900  1.00 89.09 LIG 0.18  C 
BRANCH 39 40
ATOM     40  CB  LYS B 184       6.555  32.351   5.822  1.00 73.03 LIG 0.04  C 
BRANCH 40 41
ATOM     41  CG  LYS B 184       6.055  32.088   4.396  1.00 60.77 LIG 0.00  C 
BRANCH 41 42
ATOM     42  CD  LYS B 184       6.014  33.361   3.570  1.00 63.88 LIG 0.03  C 
BRANCH 42 43
ATOM     43  CE  LYS B 184       6.688  33.202   2.208  1.00 60.38 LIG 0.23  C 
BRANCH 43 44
ATOM     44  NZ  LYS B 184       5.770  33.245   1.016  1.00 53.06 LIG-0.08  N 
ATOM     45 HZ3  LYS B 184       6.024  32.632   0.423  1.00 53.06 LIG 0.27  HD
ATOM     46 HZ2  LYS B 184       5.808  34.052   0.641  1.00 53.06 LIG 0.27  HD
ATOM     47 HZ1  LYS B 184       4.936  33.078   1.277  1.00 53.06 LIG 0.27  HD
ENDBRANCH 43 44
ENDBRANCH 42 43
ENDBRANCH 41 42
ENDBRANCH 40 41
ENDBRANCH 39 40
BRANCH 39 48
ATOM     48  N   LYS B 184       5.203  30.368   6.326  1.00 95.16 LIG-0.35  N 
ATOM     49 H    LYS B 184       5.194  30.353   5.466  1.00 95.16 LIG 0.16  HD
ATOM     50  C   PRO B 183       4.720  29.390   7.092  1.00102.83 LIG 0.24  C 
ATOM     51 O    PRO B 183       4.747  29.438   8.326  1.00 96.65 LIG-0.27  OA
BRANCH 50 52
ATOM     52  CA  PRO B 183       4.110  28.196   6.362  1.00119.60 LIG 0.18  C 
ATOM     53  N   PRO B 183       4.415  28.154   4.925  1.00125.08 LIG-0.34  N 
ATOM     54  CD  PRO B 183       5.613  27.339   4.643  1.00128.64 LIG 0.13  C 
ATOM     55  C   PRO B 182       3.492  28.542   4.028  1.00122.07 LIG 0.26  C 
ATOM     56  CG  PRO B 183       5.900  26.653   5.975  1.00127.59 LIG 0.02  C 
ATOM     57  CB  PRO B 183       4.698  26.872   6.866  1.00124.68 LIG 0.04  C 
ATOM     58 O    PRO B 182       2.365  28.929   4.343  1.00123.88 LIG-0.27  OA
BRANCH 55 59
ATOM     59  CA  PRO B 182       3.872  28.471   2.548  1.00115.83 LIG 0.35  C 
ATOM     60  CB  PRO B 182       4.875  29.579   2.190  1.00111.53 LIG 0.05  C 
ATOM     61  CG  PRO B 182       4.461  30.063   0.833  1.00111.42 LIG 0.04  C 
ATOM     62  CD  PRO B 182       2.973  29.917   0.798  1.00113.66 LIG 0.32  C 
ATOM     63  N   PRO B 182       2.734  28.746   1.661  1.00115.25 LIG 0.32  N 
ENDBRANCH 55 59
ENDBRANCH 50 52
ENDBRANCH 39 48
ENDBRANCH 37 39
ENDBRANCH 1 35
TORSDOF 24
ENDMDL
MODEL 56
USER: ADFR SOLUTION from run 30
USER: SCORE 19.226043 LL:  -2.993 LR: -17.153 RR:   0.000 FEB:  -9.994
USER: RMSD 9.702363
USER: SEED 29
USER: STATUS no improvement in best in 1 clusters for 5 generations
USER: GENES 26
USER: genes 0 Translation |==|  0.51181 0.59417 0.44336
USER: genes 1 Rotation |==|  0.89253 0.36162 0.24658 0.61201
USER: genes 2 Torsion [C]-CA--CB-[CG] |==|  0.91037
USER: genes 3 Torsion [CA]-CB--CG-[CD] |==|  0.33717
USER: genes 4 Torsion [CB]-CG--CD-[CE] |==|  0.02238
USER: genes 5 Torsion [CG]-CD--CE-[NZ] |==|  0.21777
USER: genes 6 Torsion [CD]-CE--NZ-[HZ1] |==|  0.05181
USER: genes 7 Torsion [N]-CA--C-[N] |==|  0.46447
USER: genes 8 Torsion [C]-N--CA-[CB] |==|  0.76537
USER: genes 9 Torsion [N]-CA--CB-[CG] |==|  0.50484
USER: genes 10 Torsion [CA]-CB--CG-[CD] |==|  0.21547
USER: genes 11 Torsion [CB]-CG--CD-[NE] |==|  0.29194
USER: genes 12 Torsion [CG]-CD--NE-[CZ] |==|  0.47125
USER: genes 13 Torsion [N]-CA--C-[N] |==|  0.24359
USER: genes 14 Torsion [C]-N--CA-[C] |==|  0.80637
USER: genes 15 Torsion [N]-CA--C-[O] |==|  0.66811
USER: genes 16 Torsion [CB]-CA--N-[C] |==|  0.82776
USER: genes 17 Torsion [N]-C--CA-[N] |==|  0.85908
USER: genes 18 Torsion [C]-CA--CB-[CG] |==|  0.78439
USER: genes 19 Torsion [CA]-CB--CG-[CD] |==|  0.27569
USER: genes 20 Torsion [CB]-CG--CD-[CE] |==|  0.56078
USER: genes 21 Torsion [CG]-CD--CE-[NZ] |==|  0.34447
USER: genes 22 Torsion [CD]-CE--NZ-[HZ3] |==|  0.70459
USER: genes 23 Torsion [C]-CA--N-[C] |==|  0.65000
USER: genes 24 Torsion [N]-C--CA-[N] |==|  0.21017
USER: genes 25 Torsion [N]-C--CA-[CB] |==|  0.51902
ROOT
ATOM      1  CA  LYS B 185       2.563  37.268   5.649  1.00 91.41 LIG 0.18  C 
ENDROOT
BRANCH 1 2
ATOM      2  CB  LYS B 185       1.250  38.020   5.406  1.00 90.53 LIG 0.04  C 
BRANCH 2 3
ATOM      3  CG  LYS B 185       1.186  39.455   5.924  1.00 86.81 LIG 0.00  C 
BRANCH 3 4
ATOM      4  CD  LYS B 185       0.897  40.442   4.786  1.00 79.71 LIG 0.03  C 
BRANCH 4 5
ATOM      5  CE  LYS B 185       0.551  39.741   3.470  1.00 72.24 LIG 0.23  C 
BRANCH 5 6
ATOM      6  NZ  LYS B 185      -0.851  39.233   3.421  1.00 67.20 LIG-0.08  N 
ATOM      7 HZ1  LYS B 185      -1.339  39.645   4.041  1.00 67.20 LIG 0.27  HD
ATOM      8 HZ3  LYS B 185      -0.855  38.357   3.576  1.00 67.20 LIG 0.27  HD
ATOM      9 HZ2  LYS B 185      -1.198  39.394   2.617  1.00 67.20 LIG 0.27  HD
ENDBRANCH 5 6
ENDBRANCH 4 5
ENDBRANCH 3 4
ENDBRANCH 2 3
ENDBRANCH 1 2
BRANCH 1 10
ATOM     10  C   LYS B 185       3.731  38.248   5.614  1.00 87.67 LIG 0.24  C 
ATOM     11 O    LYS B 185       4.340  38.533   6.650  1.00 75.85 LIG-0.27  OA
ATOM     12  N   ARG B 186       4.018  38.770   4.424  1.00 93.18 LIG-0.35  N 
ATOM     13 H    ARG B 186       3.624  38.522   3.701  1.00 93.18 LIG 0.16  HD
BRANCH 12 14
ATOM     14  CA  ARG B 186       5.022  39.809   4.207  1.00 93.88 LIG 0.18  C 
BRANCH 14 15
ATOM     15  CB  ARG B 186       4.381  41.180   4.474  1.00 94.11 LIG 0.04  C 
BRANCH 15 16
ATOM     16  CG  ARG B 186       5.336  42.342   4.234  1.00 91.13 LIG 0.02  C 
BRANCH 16 17
ATOM     17  CD  ARG B 186       5.517  42.661   2.759  1.00 90.43 LIG 0.14  C 
BRANCH 17 18
ATOM     18  NE  ARG B 186       4.793  43.877   2.390  1.00 88.65 LIG-0.23  N 
ATOM     19 HE   ARG B 186       4.245  44.210   2.963  1.00 88.65 LIG 0.18  HD
ATOM     20  CZ  ARG B 186       4.931  44.499   1.221  1.00 77.61 LIG 0.67  C 
ATOM     21  NH2 ARG B 186       4.234  45.597   0.959  1.00 64.46 LIG-0.23  N 
ATOM     22  NH1 ARG B 186       5.771  44.023   0.314  1.00 71.89 LIG-0.23  N 
ATOM     23 2HH2 ARG B 186       4.327  45.995   0.202  1.00 64.46 LIG 0.17  HD
ATOM     24 1HH2 ARG B 186       3.689  45.911   1.546  1.00 64.46 LIG 0.17  HD
ATOM     25 1HH1 ARG B 186       6.227  43.313   0.481  1.00 71.89 LIG 0.17  HD
ATOM     26 2HH1 ARG B 186       5.861  44.425  -0.442  1.00 71.89 LIG 0.17  HD
ENDBRANCH 17 18
ENDBRANCH 16 17
ENDBRANCH 15 16
ENDBRANCH 14 15
BRANCH 14 27
ATOM     27  C   ARG B 186       6.222  39.513   5.132  1.00100.48 LIG 0.24  C 
ATOM     28  N   ALA B 187       7.214  38.705   4.730  1.00104.89 LIG-0.35  N 
ATOM     29 H    ALA B 187       7.884  38.530   5.241  1.00104.89 LIG 0.16  HD
ATOM     30 O    ARG B 186       6.236  40.021   6.256  1.00101.56 LIG-0.27  OA
BRANCH 28 31
ATOM     31  CA  ALA B 187       7.318  38.028   3.436  1.00100.92 LIG 0.16  C 
ATOM     32  CB  ALA B 187       8.727  37.446   3.249  1.00 98.55 LIG 0.04  C 
BRANCH 31 33
ATOM     33  C   ALA B 187       6.274  36.921   3.304  1.00 96.24 LIG 0.22  C 
ATOM     34 O    ALA B 187       6.619  35.750   3.135  1.00 95.92 LIG-0.29  OA
ENDBRANCH 31 33
ENDBRANCH 28 31
ENDBRANCH 14 27
ENDBRANCH 12 14
ENDBRANCH 1 10
BRANCH 1 35
ATOM     35  N   LYS B 185       2.552  36.553   6.924  1.00 94.70 LIG-0.35  N 
ATOM     36 H    LYS B 185       2.629  35.700   6.842  1.00 94.70 LIG 0.16  HD
ATOM     37  C   LYS B 184       2.434  37.164   8.108  1.00 95.69 LIG 0.24  C 
ATOM     38 O    LYS B 184       2.254  38.380   8.222  1.00 96.36 LIG-0.27  OA
BRANCH 37 39
ATOM     39  CA  LYS B 184       2.544  36.268   9.339  1.00 89.09 LIG 0.18  C 
BRANCH 39 40
ATOM     40  CB  LYS B 184       3.990  35.800   9.537  1.00 73.03 LIG 0.04  C 
BRANCH 40 41
ATOM     41  CG  LYS B 184       4.409  34.664   8.594  1.00 60.77 LIG 0.00  C 
BRANCH 41 42
ATOM     42  CD  LYS B 184       5.201  35.183   7.406  1.00 63.88 LIG 0.03  C 
BRANCH 42 43
ATOM     43  CE  LYS B 184       5.174  34.223   6.218  1.00 60.38 LIG 0.23  C 
BRANCH 43 44
ATOM     44  NZ  LYS B 184       4.675  34.803   4.921  1.00 53.06 LIG-0.08  N 
ATOM     45 HZ3  LYS B 184       3.859  34.491   4.752  1.00 53.06 LIG 0.27  HD
ATOM     46 HZ2  LYS B 184       5.224  34.569   4.260  1.00 53.06 LIG 0.27  HD
ATOM     47 HZ1  LYS B 184       4.646  35.690   4.984  1.00 53.06 LIG 0.27  HD
ENDBRANCH 43 44
ENDBRANCH 42 43
ENDBRANCH 41 42
ENDBRANCH 40 41
ENDBRANCH 39 40
BRANCH 39 48
ATOM     48  N   LYS B 184       1.653  35.121   9.223  1.00 95.16 LIG-0.35  N 
ATOM     49 H    LYS B 184       1.757  34.662   8.502  1.00 95.16 LIG 0.16  HD
ATOM     50  C   PRO B 183       0.762  34.826  10.168  1.00102.83 LIG 0.24  C 
ATOM     51 O    PRO B 183       0.636  35.502  11.195  1.00 96.65 LIG-0.27  OA
BRANCH 50 52
ATOM     52  CA  PRO B 183      -0.118  33.606   9.915  1.00119.60 LIG 0.18  C 
ATOM     53  N   PRO B 183       0.568  32.321  10.117  1.00125.08 LIG-0.34  N 
ATOM     54  CD  PRO B 183       0.376  31.808  11.487  1.00128.64 LIG 0.13  C 
ATOM     55  C   PRO B 182       0.999  31.613   9.058  1.00122.07 LIG 0.26  C 
ATOM     56  CG  PRO B 183      -0.694  32.727  12.066  1.00127.59 LIG 0.02  C 
ATOM     57  CB  PRO B 183      -1.273  33.528  10.921  1.00124.68 LIG 0.04  C 
ATOM     58 O    PRO B 182       0.838  31.977   7.891  1.00123.88 LIG-0.27  OA
BRANCH 55 59
ATOM     59  CA  PRO B 182       1.704  30.284   9.338  1.00115.83 LIG 0.35  C 
ATOM     60  CB  PRO B 182       2.279  29.691   8.043  1.00111.53 LIG 0.05  C 
ATOM     61  CG  PRO B 182       2.035  28.215   8.143  1.00111.42 LIG 0.04  C 
ATOM     62  CD  PRO B 182       0.755  28.076   8.905  1.00113.66 LIG 0.32  C 
ATOM     63  N   PRO B 182       0.778  29.244   9.804  1.00115.25 LIG 0.32  N 
ENDBRANCH 55 59
ENDBRANCH 50 52
ENDBRANCH 39 48
ENDBRANCH 37 39
ENDBRANCH 1 35
TORSDOF 24
ENDMDL
MODEL 57
USER: ADFR SOLUTION from run 109
USER: SCORE 19.687436 LL:  -3.619 LR: -17.140 RR:   0.000 FEB:  -9.981
USER: RMSD 7.873825
USER: SEED 108
USER: STATUS no improvement in best in 5 clusters for 5 generations
USER: GENES 26
USER: genes 0 Translation |==|  0.52052 0.53858 0.47903
USER: genes 1 Rotation |==|  0.36572 0.91273 0.74816 0.50651
USER: genes 2 Torsion [C]-CA--CB-[CG] |==|  0.34938
USER: genes 3 Torsion [CA]-CB--CG-[CD] |==|  0.31999
USER: genes 4 Torsion [CB]-CG--CD-[CE] |==|  0.49603
USER: genes 5 Torsion [CG]-CD--CE-[NZ] |==|  0.71625
USER: genes 6 Torsion [CD]-CE--NZ-[HZ1] |==|  0.51569
USER: genes 7 Torsion [N]-CA--C-[N] |==|  0.59743
USER: genes 8 Torsion [C]-N--CA-[CB] |==|  0.14169
USER: genes 9 Torsion [N]-CA--CB-[CG] |==|  0.50125
USER: genes 10 Torsion [CA]-CB--CG-[CD] |==|  0.60818
USER: genes 11 Torsion [CB]-CG--CD-[NE] |==|  0.13702
USER: genes 12 Torsion [CG]-CD--NE-[CZ] |==|  0.46923
USER: genes 13 Torsion [N]-CA--C-[N] |==|  0.14439
USER: genes 14 Torsion [C]-N--CA-[C] |==|  0.62474
USER: genes 15 Torsion [N]-CA--C-[O] |==|  0.76160
USER: genes 16 Torsion [CB]-CA--N-[C] |==|  0.17590
USER: genes 17 Torsion [N]-C--CA-[N] |==|  0.95255
USER: genes 18 Torsion [C]-CA--CB-[CG] |==|  0.40329
USER: genes 19 Torsion [CA]-CB--CG-[CD] |==|  0.33474
USER: genes 20 Torsion [CB]-CG--CD-[CE] |==|  0.75558
USER: genes 21 Torsion [CG]-CD--CE-[NZ] |==|  0.90872
USER: genes 22 Torsion [CD]-CE--NZ-[HZ3] |==|  0.79274
USER: genes 23 Torsion [C]-CA--N-[C] |==|  0.69000
USER: genes 24 Torsion [N]-C--CA-[N] |==|  0.68274
USER: genes 25 Torsion [N]-C--CA-[CB] |==|  0.77871
ROOT
ATOM      1  CA  LYS B 185       2.713  35.767   6.371  1.00 91.41 LIG 0.18  C 
ENDROOT
BRANCH 1 2
ATOM      2  CB  LYS B 185       3.270  36.970   5.601  1.00 90.53 LIG 0.04  C 
BRANCH 2 3
ATOM      3  CG  LYS B 185       2.325  37.626   4.597  1.00 86.81 LIG 0.00  C 
BRANCH 3 4
ATOM      4  CD  LYS B 185       1.983  39.061   5.016  1.00 79.71 LIG 0.03  C 
BRANCH 4 5
ATOM      5  CE  LYS B 185       1.064  39.766   4.014  1.00 72.24 LIG 0.23  C 
BRANCH 5 6
ATOM      6  NZ  LYS B 185       1.783  40.725   3.126  1.00 67.20 LIG-0.08  N 
ATOM      7 HZ1  LYS B 185       1.194  41.164   2.623  1.00 67.20 LIG 0.27  HD
ATOM      8 HZ3  LYS B 185       2.346  40.279   2.601  1.00 67.20 LIG 0.27  HD
ATOM      9 HZ2  LYS B 185       2.239  41.306   3.623  1.00 67.20 LIG 0.27  HD
ENDBRANCH 5 6
ENDBRANCH 4 5
ENDBRANCH 3 4
ENDBRANCH 2 3
ENDBRANCH 1 2
BRANCH 1 10
ATOM     10  C   LYS B 185       3.647  34.572   6.204  1.00 87.67 LIG 0.24  C 
ATOM     11 O    LYS B 185       3.644  33.655   7.031  1.00 75.85 LIG-0.27  OA
ATOM     12  N   ARG B 186       4.452  34.606   5.144  1.00 93.18 LIG-0.35  N 
ATOM     13 H    ARG B 186       4.406  35.222   4.546  1.00 93.18 LIG 0.16  HD
BRANCH 12 14
ATOM     14  CA  ARG B 186       5.492  33.616   4.875  1.00 93.88 LIG 0.18  C 
BRANCH 14 15
ATOM     15  CB  ARG B 186       4.874  32.212   4.965  1.00 94.11 LIG 0.04  C 
BRANCH 15 16
ATOM     16  CG  ARG B 186       5.882  31.099   4.710  1.00 91.13 LIG 0.02  C 
BRANCH 16 17
ATOM     17  CD  ARG B 186       5.301  29.953   3.898  1.00 90.43 LIG 0.14  C 
BRANCH 17 18
ATOM     18  NE  ARG B 186       4.615  30.447   2.705  1.00 88.65 LIG-0.23  N 
ATOM     19 HE   ARG B 186       4.471  31.292   2.642  1.00 88.65 LIG 0.18  HD
ATOM     20  CZ  ARG B 186       4.199  29.666   1.709  1.00 77.61 LIG 0.67  C 
ATOM     21  NH2 ARG B 186       3.578  30.190   0.661  1.00 64.46 LIG-0.23  N 
ATOM     22  NH1 ARG B 186       4.408  28.359   1.763  1.00 71.89 LIG-0.23  N 
ATOM     23 2HH2 ARG B 186       3.312  29.682   0.021  1.00 64.46 LIG 0.17  HD
ATOM     24 1HH2 ARG B 186       3.442  31.039   0.621  1.00 64.46 LIG 0.17  HD
ATOM     25 1HH1 ARG B 186       4.813  28.016   2.440  1.00 71.89 LIG 0.17  HD
ATOM     26 2HH1 ARG B 186       4.140  27.854   1.120  1.00 71.89 LIG 0.17  HD
ENDBRANCH 17 18
ENDBRANCH 16 17
ENDBRANCH 15 16
ENDBRANCH 14 15
BRANCH 14 27
ATOM     27  C   ARG B 186       6.094  33.923   3.487  1.00100.48 LIG 0.24  C 
ATOM     28  N   ALA B 187       6.535  35.154   3.188  1.00104.89 LIG-0.35  N 
ATOM     29 H    ALA B 187       6.867  35.335   2.416  1.00104.89 LIG 0.16  HD
ATOM     30 O    ARG B 186       6.140  33.015   2.653  1.00101.56 LIG-0.27  OA
BRANCH 28 31
ATOM     31  CA  ALA B 187       6.528  36.321   4.072  1.00100.92 LIG 0.16  C 
ATOM     32  CB  ALA B 187       7.935  36.573   4.637  1.00 98.55 LIG 0.04  C 
BRANCH 31 33
ATOM     33  C   ALA B 187       6.028  37.566   3.344  1.00 96.24 LIG 0.22  C 
ATOM     34 O    ALA B 187       6.804  38.264   2.688  1.00 95.92 LIG-0.29  OA
ENDBRANCH 31 33
ENDBRANCH 28 31
ENDBRANCH 14 27
ENDBRANCH 12 14
ENDBRANCH 1 10
BRANCH 1 35
ATOM     35  N   LYS B 185       2.537  36.064   7.792  1.00 94.70 LIG-0.35  N 
ATOM     36 H    LYS B 185       3.031  35.585   8.308  1.00 94.70 LIG 0.16  HD
ATOM     37  C   LYS B 184       1.691  36.994   8.248  1.00 95.69 LIG 0.24  C 
ATOM     38 O    LYS B 184       0.933  37.634   7.511  1.00 96.36 LIG-0.27  OA
BRANCH 37 39
ATOM     39  CA  LYS B 184       1.713  37.239   9.754  1.00 89.09 LIG 0.18  C 
BRANCH 39 40
ATOM     40  CB  LYS B 184       2.421  38.560  10.075  1.00 73.03 LIG 0.04  C 
BRANCH 40 41
ATOM     41  CG  LYS B 184       1.827  39.308  11.275  1.00 60.77 LIG 0.00  C 
BRANCH 41 42
ATOM     42  CD  LYS B 184       2.855  39.515  12.374  1.00 63.88 LIG 0.03  C 
BRANCH 42 43
ATOM     43  CE  LYS B 184       2.913  38.343  13.353  1.00 60.38 LIG 0.23  C 
BRANCH 43 44
ATOM     44  NZ  LYS B 184       1.609  37.634  13.601  1.00 53.06 LIG-0.08  N 
ATOM     45 HZ3  LYS B 184       1.092  38.136  14.122  1.00 53.06 LIG 0.27  HD
ATOM     46 HZ2  LYS B 184       1.766  36.855  14.002  1.00 53.06 LIG 0.27  HD
ATOM     47 HZ1  LYS B 184       1.197  37.489  12.825  1.00 53.06 LIG 0.27  HD
ENDBRANCH 43 44
ENDBRANCH 42 43
ENDBRANCH 41 42
ENDBRANCH 40 41
ENDBRANCH 39 40
BRANCH 39 48
ATOM     48  N   LYS B 184       2.366  36.136  10.447  1.00 95.16 LIG-0.35  N 
ATOM     49 H    LYS B 184       3.211  36.075  10.299  1.00 95.16 LIG 0.16  HD
ATOM     50  C   PRO B 183       1.688  35.306  11.239  1.00102.83 LIG 0.24  C 
ATOM     51 O    PRO B 183       0.474  35.419  11.435  1.00 96.65 LIG-0.27  OA
BRANCH 50 52
ATOM     52  CA  PRO B 183       2.492  34.185  11.892  1.00119.60 LIG 0.18  C 
ATOM     53  N   PRO B 183       2.117  32.838  11.437  1.00125.08 LIG-0.34  N 
ATOM     54  CD  PRO B 183       2.960  32.386  10.313  1.00128.64 LIG 0.13  C 
ATOM     55  C   PRO B 182       1.339  32.058  12.207  1.00122.07 LIG 0.26  C 
ATOM     56  CG  PRO B 183       4.065  33.434  10.252  1.00127.59 LIG 0.02  C 
ATOM     57  CB  PRO B 183       3.975  34.263  11.513  1.00124.68 LIG 0.04  C 
ATOM     58 O    PRO B 182       0.918  32.405  13.313  1.00123.88 LIG-0.27  OA
BRANCH 55 59
ATOM     59  CA  PRO B 182       0.988  30.666  11.676  1.00115.83 LIG 0.35  C 
ATOM     60  CB  PRO B 182      -0.150  30.748  10.648  1.00111.53 LIG 0.05  C 
ATOM     61  CG  PRO B 182      -1.016  29.555  10.922  1.00111.42 LIG 0.04  C 
ATOM     62  CD  PRO B 182      -0.924  29.331  12.399  1.00113.66 LIG 0.32  C 
ATOM     63  N   PRO B 182       0.440  29.789  12.719  1.00115.25 LIG 0.32  N 
ENDBRANCH 55 59
ENDBRANCH 50 52
ENDBRANCH 39 48
ENDBRANCH 37 39
ENDBRANCH 1 35
TORSDOF 24
ENDMDL
MODEL 58
USER: ADFR SOLUTION from run 43
USER: SCORE 20.105238 LL:  -3.823 LR: -17.107 RR:   0.000 FEB:  -9.948
USER: RMSD 9.931739
USER: SEED 42
USER: STATUS searching
USER: GENES 26
USER: genes 0 Translation |==|  0.47841 0.43755 0.53381
USER: genes 1 Rotation |==|  0.44993 0.43625 0.98736 0.57690
USER: genes 2 Torsion [C]-CA--CB-[CG] |==|  0.34132
USER: genes 3 Torsion [CA]-CB--CG-[CD] |==|  0.10552
USER: genes 4 Torsion [CB]-CG--CD-[CE] |==|  0.44067
USER: genes 5 Torsion [CG]-CD--CE-[NZ] |==|  0.44057
USER: genes 6 Torsion [CD]-CE--NZ-[HZ1] |==|  0.34445
USER: genes 7 Torsion [N]-CA--C-[N] |==|  0.43333
USER: genes 8 Torsion [C]-N--CA-[CB] |==|  0.51112
USER: genes 9 Torsion [N]-CA--CB-[CG] |==|  0.74274
USER: genes 10 Torsion [CA]-CB--CG-[CD] |==|  0.92473
USER: genes 11 Torsion [CB]-CG--CD-[NE] |==|  0.54715
USER: genes 12 Torsion [CG]-CD--NE-[CZ] |==|  0.18770
USER: genes 13 Torsion [N]-CA--C-[N] |==|  0.41702
USER: genes 14 Torsion [C]-N--CA-[C] |==|  0.55508
USER: genes 15 Torsion [N]-CA--C-[O] |==|  0.43823
USER: genes 16 Torsion [CB]-CA--N-[C] |==|  0.83833
USER: genes 17 Torsion [N]-C--CA-[N] |==|  0.35041
USER: genes 18 Torsion [C]-CA--CB-[CG] |==|  0.46797
USER: genes 19 Torsion [CA]-CB--CG-[CD] |==|  0.88188
USER: genes 20 Torsion [CB]-CG--CD-[CE] |==|  0.41821
USER: genes 21 Torsion [CG]-CD--CE-[NZ] |==|  0.76345
USER: genes 22 Torsion [CD]-CE--NZ-[HZ3] |==|  0.25220
USER: genes 23 Torsion [C]-CA--N-[C] |==|  0.64585
USER: genes 24 Torsion [N]-C--CA-[N] |==|  0.94229
USER: genes 25 Torsion [N]-C--CA-[CB] |==|  0.75917
ROOT
ATOM      1  CA  LYS B 185       1.987  33.039   7.481  1.00 91.41 LIG 0.18  C 
ENDROOT
BRANCH 1 2
ATOM      2  CB  LYS B 185       2.536  32.923   8.907  1.00 90.53 LIG 0.04  C 
BRANCH 2 3
ATOM      3  CG  LYS B 185       1.527  33.113  10.038  1.00 86.81 LIG 0.00  C 
BRANCH 3 4
ATOM      4  CD  LYS B 185       0.175  32.480   9.684  1.00 79.71 LIG 0.03  C 
BRANCH 4 5
ATOM      5  CE  LYS B 185      -0.677  32.177  10.920  1.00 72.24 LIG 0.23  C 
BRANCH 5 6
ATOM      6  NZ  LYS B 185      -2.133  32.051  10.617  1.00 67.20 LIG-0.08  N 
ATOM      7 HZ1  LYS B 185      -2.428  31.260  10.900  1.00 67.20 LIG 0.27  HD
ATOM      8 HZ3  LYS B 185      -2.261  32.118   9.739  1.00 67.20 LIG 0.27  HD
ATOM      9 HZ2  LYS B 185      -2.580  32.699  11.033  1.00 67.20 LIG 0.27  HD
ENDBRANCH 5 6
ENDBRANCH 4 5
ENDBRANCH 3 4
ENDBRANCH 2 3
ENDBRANCH 1 2
BRANCH 1 10
ATOM     10  C   LYS B 185       2.745  34.125   6.724  1.00 87.67 LIG 0.24  C 
ATOM     11 O    LYS B 185       3.670  33.827   5.962  1.00 75.85 LIG-0.27  OA
ATOM     12  N   ARG B 186       2.359  35.377   6.959  1.00 93.18 LIG-0.35  N 
ATOM     13 H    ARG B 186       1.678  35.568   7.449  1.00 93.18 LIG 0.16  HD
BRANCH 12 14
ATOM     14  CA  ARG B 186       3.033  36.556   6.422  1.00 93.88 LIG 0.18  C 
BRANCH 14 15
ATOM     15  CB  ARG B 186       2.360  37.814   6.993  1.00 94.11 LIG 0.04  C 
BRANCH 15 16
ATOM     16  CG  ARG B 186       1.251  38.354   6.100  1.00 91.13 LIG 0.02  C 
BRANCH 16 17
ATOM     17  CD  ARG B 186       1.453  38.008   4.634  1.00 90.43 LIG 0.14  C 
BRANCH 17 18
ATOM     18  NE  ARG B 186       0.626  38.851   3.773  1.00 88.65 LIG-0.23  N 
ATOM     19 HE   ARG B 186      -0.018  38.479   3.341  1.00 88.65 LIG 0.18  HD
ATOM     20  CZ  ARG B 186       0.808  40.161   3.618  1.00 77.61 LIG 0.67  C 
ATOM     21  NH2 ARG B 186       0.016  40.858   2.813  1.00 64.46 LIG-0.23  N 
ATOM     22  NH1 ARG B 186       1.783  40.775   4.272  1.00 71.89 LIG-0.23  N 
ATOM     23 2HH2 ARG B 186       0.138  41.703   2.717  1.00 64.46 LIG 0.17  HD
ATOM     24 1HH2 ARG B 186      -0.620  40.464   2.389  1.00 64.46 LIG 0.17  HD
ATOM     25 1HH1 ARG B 186       2.297  40.327   4.796  1.00 71.89 LIG 0.17  HD
ATOM     26 2HH1 ARG B 186       1.901  41.621   4.172  1.00 71.89 LIG 0.17  HD
ENDBRANCH 17 18
ENDBRANCH 16 17
ENDBRANCH 15 16
ENDBRANCH 14 15
BRANCH 14 27
ATOM     27  C   ARG B 186       4.531  36.455   6.785  1.00100.48 LIG 0.24  C 
ATOM     28  N   ALA B 187       5.466  36.999   5.992  1.00104.89 LIG-0.35  N 
ATOM     29 H    ALA B 187       6.302  36.943   6.183  1.00104.89 LIG 0.16  HD
ATOM     30 O    ARG B 186       4.846  35.847   7.810  1.00101.56 LIG-0.27  OA
BRANCH 28 31
ATOM     31  CA  ALA B 187       5.234  37.733   4.747  1.00100.92 LIG 0.16  C 
ATOM     32  CB  ALA B 187       4.755  39.161   5.050  1.00 98.55 LIG 0.04  C 
BRANCH 31 33
ATOM     33  C   ALA B 187       6.493  37.778   3.885  1.00 96.24 LIG 0.22  C 
ATOM     34 O    ALA B 187       6.417  37.972   2.671  1.00 95.92 LIG-0.29  OA
ENDBRANCH 31 33
ENDBRANCH 28 31
ENDBRANCH 14 27
ENDBRANCH 12 14
ENDBRANCH 1 10
BRANCH 1 35
ATOM     35  N   LYS B 185       2.080  31.772   6.758  1.00 94.70 LIG-0.35  N 
ATOM     36 H    LYS B 185       1.323  31.480   6.474  1.00 94.70 LIG 0.16  HD
ATOM     37  C   LYS B 184       3.234  31.125   6.556  1.00 95.69 LIG 0.24  C 
ATOM     38 O    LYS B 184       4.311  31.509   7.022  1.00 96.36 LIG-0.27  OA
BRANCH 37 39
ATOM     39  CA  LYS B 184       3.156  29.869   5.693  1.00 89.09 LIG 0.18  C 
BRANCH 39 40
ATOM     40  CB  LYS B 184       3.422  28.618   6.538  1.00 73.03 LIG 0.04  C 
BRANCH 40 41
ATOM     41  CG  LYS B 184       3.091  27.302   5.822  1.00 60.77 LIG 0.00  C 
BRANCH 41 42
ATOM     42  CD  LYS B 184       1.782  27.392   5.056  1.00 63.88 LIG 0.03  C 
BRANCH 42 43
ATOM     43  CE  LYS B 184       1.755  26.484   3.828  1.00 60.38 LIG 0.23  C 
BRANCH 43 44
ATOM     44  NZ  LYS B 184       2.359  27.061   2.575  1.00 53.06 LIG-0.08  N 
ATOM     45 HZ3  LYS B 184       3.223  26.851   2.538  1.00 53.06 LIG 0.27  HD
ATOM     46 HZ2  LYS B 184       2.269  27.946   2.582  1.00 53.06 LIG 0.27  HD
ATOM     47 HZ1  LYS B 184       1.942  26.726   1.863  1.00 53.06 LIG 0.27  HD
ENDBRANCH 43 44
ENDBRANCH 42 43
ENDBRANCH 41 42
ENDBRANCH 40 41
ENDBRANCH 39 40
BRANCH 39 48
ATOM     48  N   LYS B 184       4.103  29.941   4.588  1.00 95.16 LIG-0.35  N 
ATOM     49 H    LYS B 184       4.912  30.118   4.825  1.00 95.16 LIG 0.16  HD
ATOM     50  C   PRO B 183       3.725  29.747   3.326  1.00102.83 LIG 0.24  C 
ATOM     51 O    PRO B 183       2.556  29.493   3.015  1.00 96.65 LIG-0.27  OA
BRANCH 50 52
ATOM     52  CA  PRO B 183       4.815  29.866   2.264  1.00119.60 LIG 0.18  C 
ATOM     53  N   PRO B 183       5.992  30.632   2.700  1.00125.08 LIG-0.34  N 
ATOM     54  CD  PRO B 183       7.040  29.754   3.255  1.00128.64 LIG 0.13  C 
ATOM     55  C   PRO B 182       6.154  31.905   2.300  1.00122.07 LIG 0.26  C 
ATOM     56  CG  PRO B 183       6.554  28.352   2.906  1.00127.59 LIG 0.02  C 
ATOM     57  CB  PRO B 183       5.416  28.498   1.921  1.00124.68 LIG 0.04  C 
ATOM     58 O    PRO B 182       5.360  32.486   1.556  1.00123.88 LIG-0.27  OA
BRANCH 55 59
ATOM     59  CA  PRO B 182       7.402  32.644   2.787  1.00115.83 LIG 0.35  C 
ATOM     60  CB  PRO B 182       7.150  33.294   4.156  1.00111.53 LIG 0.05  C 
ATOM     61  CG  PRO B 182       7.843  34.622   4.096  1.00111.42 LIG 0.04  C 
ATOM     62  CD  PRO B 182       7.735  35.060   2.670  1.00113.66 LIG 0.32  C 
ATOM     63  N   PRO B 182       7.749  33.785   1.930  1.00115.25 LIG 0.32  N 
ENDBRANCH 55 59
ENDBRANCH 50 52
ENDBRANCH 39 48
ENDBRANCH 37 39
ENDBRANCH 1 35
TORSDOF 24
ENDMDL
MODEL 59
USER: ADFR SOLUTION from run 175
USER: SCORE 19.471106 LL:  -3.642 LR: -17.103 RR:   0.000 FEB:  -9.944
USER: RMSD 7.538356
USER: SEED 174
USER: STATUS no improvement in best in 2 clusters for 5 generations
USER: GENES 26
USER: genes 0 Translation |==|  0.48006 0.56074 0.46584
USER: genes 1 Rotation |==|  0.70140 0.09439 0.33404 0.63181
USER: genes 2 Torsion [C]-CA--CB-[CG] |==|  0.55739
USER: genes 3 Torsion [CA]-CB--CG-[CD] |==|  0.34765
USER: genes 4 Torsion [CB]-CG--CD-[CE] |==|  0.45086
USER: genes 5 Torsion [CG]-CD--CE-[NZ] |==|  0.68275
USER: genes 6 Torsion [CD]-CE--NZ-[HZ1] |==|  0.52917
USER: genes 7 Torsion [N]-CA--C-[N] |==|  0.83473
USER: genes 8 Torsion [C]-N--CA-[CB] |==|  0.17249
USER: genes 9 Torsion [N]-CA--CB-[CG] |==|  0.37302
USER: genes 10 Torsion [CA]-CB--CG-[CD] |==|  0.50025
USER: genes 11 Torsion [CB]-CG--CD-[NE] |==|  0.07132
USER: genes 12 Torsion [CG]-CD--NE-[CZ] |==|  0.58486
USER: genes 13 Torsion [N]-CA--C-[N] |==|  0.86667
USER: genes 14 Torsion [C]-N--CA-[C] |==|  0.72182
USER: genes 15 Torsion [N]-CA--C-[O] |==|  0.93721
USER: genes 16 Torsion [CB]-CA--N-[C] |==|  0.85277
USER: genes 17 Torsion [N]-C--CA-[N] |==|  0.10608
USER: genes 18 Torsion [C]-CA--CB-[CG] |==|  0.27047
USER: genes 19 Torsion [CA]-CB--CG-[CD] |==|  0.70942
USER: genes 20 Torsion [CB]-CG--CD-[CE] |==|  0.26790
USER: genes 21 Torsion [CG]-CD--CE-[NZ] |==|  0.27134
USER: genes 22 Torsion [CD]-CE--NZ-[HZ3] |==|  0.08421
USER: genes 23 Torsion [C]-CA--N-[C] |==|  0.15187
USER: genes 24 Torsion [N]-C--CA-[N] |==|  0.26098
USER: genes 25 Torsion [N]-C--CA-[CB] |==|  0.58197
ROOT
ATOM      1  CA  LYS B 185       2.015  36.365   6.104  1.00 91.41 LIG 0.18  C 
ENDROOT
BRANCH 1 2
ATOM      2  CB  LYS B 185       1.774  37.210   4.848  1.00 90.53 LIG 0.04  C 
BRANCH 2 3
ATOM      3  CG  LYS B 185       0.684  38.275   4.948  1.00 86.81 LIG 0.00  C 
BRANCH 3 4
ATOM      4  CD  LYS B 185       1.228  39.660   4.575  1.00 79.71 LIG 0.03  C 
BRANCH 4 5
ATOM      5  CE  LYS B 185       0.119  40.661   4.242  1.00 72.24 LIG 0.23  C 
BRANCH 5 6
ATOM      6  NZ  LYS B 185       0.127  41.100   2.816  1.00 67.20 LIG-0.08  N 
ATOM      7 HZ1  LYS B 185      -0.431  41.786   2.712  1.00 67.20 LIG 0.27  HD
ATOM      8 HZ3  LYS B 185      -0.133  40.426   2.296  1.00 67.20 LIG 0.27  HD
ATOM      9 HZ2  LYS B 185       0.950  41.350   2.587  1.00 67.20 LIG 0.27  HD
ENDBRANCH 5 6
ENDBRANCH 4 5
ENDBRANCH 3 4
ENDBRANCH 2 3
ENDBRANCH 1 2
BRANCH 1 10
ATOM     10  C   LYS B 185       3.404  35.738   6.043  1.00 87.67 LIG 0.24  C 
ATOM     11 O    LYS B 185       3.536  34.511   6.008  1.00 75.85 LIG-0.27  OA
ATOM     12  N   ARG B 186       4.428  36.589   6.052  1.00 93.18 LIG-0.35  N 
ATOM     13 H    ARG B 186       4.323  37.442   6.020  1.00 93.18 LIG 0.16  HD
BRANCH 12 14
ATOM     14  CA  ARG B 186       5.830  36.182   6.115  1.00 93.88 LIG 0.18  C 
BRANCH 14 15
ATOM     15  CB  ARG B 186       6.159  35.349   4.865  1.00 94.11 LIG 0.04  C 
BRANCH 15 16
ATOM     16  CG  ARG B 186       7.472  35.755   4.208  1.00 91.13 LIG 0.02  C 
BRANCH 16 17
ATOM     17  CD  ARG B 186       7.791  34.930   2.972  1.00 90.43 LIG 0.14  C 
BRANCH 17 18
ATOM     18  NE  ARG B 186       6.572  34.399   2.363  1.00 88.65 LIG-0.23  N 
ATOM     19 HE   ARG B 186       5.849  34.858   2.440  1.00 88.65 LIG 0.18  HD
ATOM     20  CZ  ARG B 186       6.514  33.248   1.696  1.00 77.61 LIG 0.67  C 
ATOM     21  NH2 ARG B 186       5.367  32.832   1.175  1.00 64.46 LIG-0.23  N 
ATOM     22  NH1 ARG B 186       7.607  32.515   1.546  1.00 71.89 LIG-0.23  N 
ATOM     23 2HH2 ARG B 186       5.336  32.088   0.745  1.00 64.46 LIG 0.17  HD
ATOM     24 1HH2 ARG B 186       4.655  33.306   1.268  1.00 64.46 LIG 0.17  HD
ATOM     25 1HH1 ARG B 186       8.353  32.783   1.880  1.00 71.89 LIG 0.17  HD
ATOM     26 2HH1 ARG B 186       7.570  31.771   1.115  1.00 71.89 LIG 0.17  HD
ENDBRANCH 17 18
ENDBRANCH 16 17
ENDBRANCH 15 16
ENDBRANCH 14 15
BRANCH 14 27
ATOM     27  C   ARG B 186       6.691  37.458   6.235  1.00100.48 LIG 0.24  C 
ATOM     28  N   ALA B 187       6.487  38.502   5.419  1.00104.89 LIG-0.35  N 
ATOM     29 H    ALA B 187       6.965  39.214   5.474  1.00104.89 LIG 0.16  HD
ATOM     30 O    ARG B 186       7.584  37.485   7.085  1.00101.56 LIG-0.27  OA
BRANCH 28 31
ATOM     31  CA  ALA B 187       5.477  38.598   4.362  1.00100.92 LIG 0.16  C 
ATOM     32  CB  ALA B 187       4.817  39.985   4.379  1.00 98.55 LIG 0.04  C 
BRANCH 31 33
ATOM     33  C   ALA B 187       6.084  38.326   2.988  1.00 96.24 LIG 0.22  C 
ATOM     34 O    ALA B 187       7.292  38.474   2.794  1.00 95.92 LIG-0.29  OA
ENDBRANCH 31 33
ENDBRANCH 28 31
ENDBRANCH 14 27
ENDBRANCH 12 14
ENDBRANCH 1 10
BRANCH 1 35
ATOM     35  N   LYS B 185       1.880  37.156   7.326  1.00 94.70 LIG-0.35  N 
ATOM     36 H    LYS B 185       1.333  36.817   7.897  1.00 94.70 LIG 0.16  HD
ATOM     37  C   LYS B 184       2.543  38.298   7.538  1.00 95.69 LIG 0.24  C 
ATOM     38 O    LYS B 184       3.275  38.819   6.691  1.00 96.36 LIG-0.27  OA
BRANCH 37 39
ATOM     39  CA  LYS B 184       2.356  38.936   8.912  1.00 89.09 LIG 0.18  C 
BRANCH 39 40
ATOM     40  CB  LYS B 184       3.489  39.926   9.205  1.00 73.03 LIG 0.04  C 
BRANCH 40 41
ATOM     41  CG  LYS B 184       3.130  41.387   8.907  1.00 60.77 LIG 0.00  C 
BRANCH 41 42
ATOM     42  CD  LYS B 184       3.783  41.877   7.626  1.00 63.88 LIG 0.03  C 
BRANCH 42 43
ATOM     43  CE  LYS B 184       2.851  41.785   6.419  1.00 60.38 LIG 0.23  C 
BRANCH 43 44
ATOM     44  NZ  LYS B 184       2.138  43.058   6.046  1.00 53.06 LIG-0.08  N 
ATOM     45 HZ3  LYS B 184       2.644  43.756   6.265  1.00 53.06 LIG 0.27  HD
ATOM     46 HZ2  LYS B 184       1.364  43.104   6.483  1.00 53.06 LIG 0.27  HD
ATOM     47 HZ1  LYS B 184       1.985  43.066   5.169  1.00 53.06 LIG 0.27  HD
ENDBRANCH 43 44
ENDBRANCH 42 43
ENDBRANCH 41 42
ENDBRANCH 40 41
ENDBRANCH 39 40
BRANCH 39 48
ATOM     48  N   LYS B 184       2.297  37.916   9.951  1.00 95.16 LIG-0.35  N 
ATOM     49 H    LYS B 184       1.595  37.955  10.448  1.00 95.16 LIG 0.16  HD
ATOM     50  C   PRO B 183       3.261  37.009  10.099  1.00102.83 LIG 0.24  C 
ATOM     51 O    PRO B 183       4.258  36.975   9.369  1.00 96.65 LIG-0.27  OA
BRANCH 50 52
ATOM     52  CA  PRO B 183       3.081  36.006  11.235  1.00119.60 LIG 0.18  C 
ATOM     53  N   PRO B 183       2.441  34.747  10.827  1.00125.08 LIG-0.34  N 
ATOM     54  CD  PRO B 183       3.436  33.718  10.471  1.00128.64 LIG 0.13  C 
ATOM     55  C   PRO B 182       1.141  34.534  11.095  1.00122.07 LIG 0.26  C 
ATOM     56  CG  PRO B 183       4.758  34.325  10.928  1.00127.59 LIG 0.02  C 
ATOM     57  CB  PRO B 183       4.432  35.530  11.782  1.00124.68 LIG 0.04  C 
ATOM     58 O    PRO B 182       0.432  35.346  11.694  1.00123.88 LIG-0.27  OA
BRANCH 55 59
ATOM     59  CA  PRO B 182       0.537  33.202  10.645  1.00115.83 LIG 0.35  C 
ATOM     60  CB  PRO B 182      -0.960  33.360  10.337  1.00111.53 LIG 0.05  C 
ATOM     61  CG  PRO B 182      -1.605  32.112  10.858  1.00111.42 LIG 0.04  C 
ATOM     62  CD  PRO B 182      -0.796  31.719  12.054  1.00113.66 LIG 0.32  C 
ATOM     63  N   PRO B 182       0.558  32.187  11.707  1.00115.25 LIG 0.32  N 
ENDBRANCH 55 59
ENDBRANCH 50 52
ENDBRANCH 39 48
ENDBRANCH 37 39
ENDBRANCH 1 35
TORSDOF 24
ENDMDL
MODEL 60
USER: ADFR SOLUTION from run 53
USER: SCORE 18.492611 LL:  -3.194 LR: -17.083 RR:   0.000 FEB:  -9.924
USER: RMSD 9.732682
USER: SEED 52
USER: STATUS no improvement in best in 7 clusters for 5 generations
USER: GENES 26
USER: genes 0 Translation |==|  0.49761 0.58609 0.42137
USER: genes 1 Rotation |==|  0.86973 0.28047 0.27832 0.62634
USER: genes 2 Torsion [C]-CA--CB-[CG] |==|  0.74048
USER: genes 3 Torsion [CA]-CB--CG-[CD] |==|  0.38184
USER: genes 4 Torsion [CB]-CG--CD-[CE] |==|  0.08320
USER: genes 5 Torsion [CG]-CD--CE-[NZ] |==|  0.70846
USER: genes 6 Torsion [CD]-CE--NZ-[HZ1] |==|  0.63680
USER: genes 7 Torsion [N]-CA--C-[N] |==|  0.62115
USER: genes 8 Torsion [C]-N--CA-[CB] |==|  0.53472
USER: genes 9 Torsion [N]-CA--CB-[CG] |==|  0.40428
USER: genes 10 Torsion [CA]-CB--CG-[CD] |==|  0.36804
USER: genes 11 Torsion [CB]-CG--CD-[NE] |==|  0.28476
USER: genes 12 Torsion [CG]-CD--NE-[CZ] |==|  0.56430
USER: genes 13 Torsion [N]-CA--C-[N] |==|  0.36528
USER: genes 14 Torsion [C]-N--CA-[C] |==|  0.84352
USER: genes 15 Torsion [N]-CA--C-[O] |==|  0.29831
USER: genes 16 Torsion [CB]-CA--N-[C] |==|  0.77983
USER: genes 17 Torsion [N]-C--CA-[N] |==|  0.07758
USER: genes 18 Torsion [C]-CA--CB-[CG] |==|  0.33717
USER: genes 19 Torsion [CA]-CB--CG-[CD] |==|  0.25785
USER: genes 20 Torsion [CB]-CG--CD-[CE] |==|  0.36806
USER: genes 21 Torsion [CG]-CD--CE-[NZ] |==|  0.30612
USER: genes 22 Torsion [CD]-CE--NZ-[HZ3] |==|  0.79640
USER: genes 23 Torsion [C]-CA--N-[C] |==|  0.18333
USER: genes 24 Torsion [N]-C--CA-[N] |==|  0.03187
USER: genes 25 Torsion [N]-C--CA-[CB] |==|  0.72863
ROOT
ATOM      1  CA  LYS B 185       2.318  37.049   5.204  1.00 91.41 LIG 0.18  C 
ENDROOT
BRANCH 1 2
ATOM      2  CB  LYS B 185       1.240  37.959   4.603  1.00 90.53 LIG 0.04  C 
BRANCH 2 3
ATOM      3  CG  LYS B 185       0.521  38.891   5.575  1.00 86.81 LIG 0.00  C 
BRANCH 3 4
ATOM      4  CD  LYS B 185       0.346  40.290   4.973  1.00 79.71 LIG 0.03  C 
BRANCH 4 5
ATOM      5  CE  LYS B 185       0.221  40.266   3.447  1.00 72.24 LIG 0.23  C 
BRANCH 5 6
ATOM      6  NZ  LYS B 185       1.454  40.726   2.746  1.00 67.20 LIG-0.08  N 
ATOM      7 HZ1  LYS B 185       1.238  41.332   2.131  1.00 67.20 LIG 0.27  HD
ATOM      8 HZ3  LYS B 185       1.848  40.032   2.351  1.00 67.20 LIG 0.27  HD
ATOM      9 HZ2  LYS B 185       2.014  41.089   3.335  1.00 67.20 LIG 0.27  HD
ENDBRANCH 5 6
ENDBRANCH 4 5
ENDBRANCH 3 4
ENDBRANCH 2 3
ENDBRANCH 1 2
BRANCH 1 10
ATOM     10  C   LYS B 185       3.682  37.723   5.088  1.00 87.67 LIG 0.24  C 
ATOM     11 O    LYS B 185       4.647  37.296   5.730  1.00 75.85 LIG-0.27  OA
ATOM     12  N   ARG B 186       3.742  38.783   4.285  1.00 93.18 LIG-0.35  N 
ATOM     13 H    ARG B 186       3.078  39.037   3.801  1.00 93.18 LIG 0.16  HD
BRANCH 12 14
ATOM     14  CA  ARG B 186       4.924  39.627   4.132  1.00 93.88 LIG 0.18  C 
BRANCH 14 15
ATOM     15  CB  ARG B 186       4.524  40.907   3.382  1.00 94.11 LIG 0.04  C 
BRANCH 15 16
ATOM     16  CG  ARG B 186       5.295  42.136   3.845  1.00 91.13 LIG 0.02  C 
BRANCH 16 17
ATOM     17  CD  ARG B 186       5.848  42.955   2.690  1.00 90.43 LIG 0.14  C 
BRANCH 17 18
ATOM     18  NE  ARG B 186       5.035  44.146   2.451  1.00 88.65 LIG-0.23  N 
ATOM     19 HE   ARG B 186       4.558  44.447   3.100  1.00 88.65 LIG 0.18  HD
ATOM     20  CZ  ARG B 186       4.988  44.794   1.289  1.00 77.61 LIG 0.67  C 
ATOM     21  NH2 ARG B 186       4.220  45.867   1.149  1.00 64.46 LIG-0.23  N 
ATOM     22  NH1 ARG B 186       5.714  44.369   0.265  1.00 71.89 LIG-0.23  N 
ATOM     23 2HH2 ARG B 186       4.194  46.281   0.396  1.00 64.46 LIG 0.17  HD
ATOM     24 1HH2 ARG B 186       3.749  46.148   1.812  1.00 64.46 LIG 0.17  HD
ATOM     25 1HH1 ARG B 186       6.215  43.675   0.353  1.00 71.89 LIG 0.17  HD
ATOM     26 2HH1 ARG B 186       5.684  44.787  -0.486  1.00 71.89 LIG 0.17  HD
ENDBRANCH 17 18
ENDBRANCH 16 17
ENDBRANCH 15 16
ENDBRANCH 14 15
BRANCH 14 27
ATOM     27  C   ARG B 186       5.496  39.906   5.539  1.00100.48 LIG 0.24  C 
ATOM     28  N   ALA B 187       6.803  39.745   5.791  1.00104.89 LIG-0.35  N 
ATOM     29 H    ALA B 187       7.130  39.892   6.573  1.00104.89 LIG 0.16  HD
ATOM     30 O    ARG B 186       4.719  40.261   6.428  1.00101.56 LIG-0.27  OA
BRANCH 28 31
ATOM     31  CA  ALA B 187       7.829  39.317   4.838  1.00100.92 LIG 0.16  C 
ATOM     32  CB  ALA B 187       9.198  39.227   5.531  1.00 98.55 LIG 0.04  C 
BRANCH 31 33
ATOM     33  C   ALA B 187       7.475  37.973   4.206  1.00 96.24 LIG 0.22  C 
ATOM     34 O    ALA B 187       7.105  37.909   3.033  1.00 95.92 LIG-0.29  OA
ENDBRANCH 31 33
ENDBRANCH 28 31
ENDBRANCH 14 27
ENDBRANCH 12 14
ENDBRANCH 1 10
BRANCH 1 35
ATOM     35  N   LYS B 185       2.040  36.727   6.602  1.00 94.70 LIG-0.35  N 
ATOM     36 H    LYS B 185       1.695  35.947   6.714  1.00 94.70 LIG 0.16  HD
ATOM     37  C   LYS B 184       2.296  37.565   7.613  1.00 95.69 LIG 0.24  C 
ATOM     38 O    LYS B 184       2.726  38.710   7.446  1.00 96.36 LIG-0.27  OA
BRANCH 37 39
ATOM     39  CA  LYS B 184       2.035  37.022   9.016  1.00 89.09 LIG 0.18  C 
BRANCH 39 40
ATOM     40  CB  LYS B 184       2.978  37.676  10.031  1.00 73.03 LIG 0.04  C 
BRANCH 40 41
ATOM     41  CG  LYS B 184       2.255  38.415  11.165  1.00 60.77 LIG 0.00  C 
BRANCH 41 42
ATOM     42  CD  LYS B 184       2.046  37.521  12.375  1.00 63.88 LIG 0.03  C 
BRANCH 42 43
ATOM     43  CE  LYS B 184       2.450  38.198  13.683  1.00 60.38 LIG 0.23  C 
BRANCH 43 44
ATOM     44  NZ  LYS B 184       1.318  38.556  14.610  1.00 53.06 LIG-0.08  N 
ATOM     45 HZ3  LYS B 184       0.875  39.255  14.282  1.00 53.06 LIG 0.27  HD
ATOM     46 HZ2  LYS B 184       1.644  38.763  15.412  1.00 53.06 LIG 0.27  HD
ATOM     47 HZ1  LYS B 184       0.765  37.863  14.684  1.00 53.06 LIG 0.27  HD
ENDBRANCH 43 44
ENDBRANCH 42 43
ENDBRANCH 41 42
ENDBRANCH 40 41
ENDBRANCH 39 40
BRANCH 39 48
ATOM     48  N   LYS B 184       2.189  35.573   9.045  1.00 95.16 LIG-0.35  N 
ATOM     49 H    LYS B 184       1.462  35.142   9.204  1.00 95.16 LIG 0.16  HD
ATOM     50  C   PRO B 183       3.369  34.989   8.839  1.00102.83 LIG 0.24  C 
ATOM     51 O    PRO B 183       4.398  35.635   8.612  1.00 96.65 LIG-0.27  OA
BRANCH 50 52
ATOM     52  CA  PRO B 183       3.394  33.465   8.912  1.00119.60 LIG 0.18  C 
ATOM     53  N   PRO B 183       2.061  32.846   8.936  1.00125.08 LIG-0.34  N 
ATOM     54  CD  PRO B 183       1.603  32.479   7.582  1.00128.64 LIG 0.13  C 
ATOM     55  C   PRO B 182       1.546  32.398  10.095  1.00122.07 LIG 0.26  C 
ATOM     56  CG  PRO B 183       2.846  32.673   6.720  1.00127.59 LIG 0.02  C 
ATOM     57  CB  PRO B 183       4.022  32.854   7.654  1.00124.68 LIG 0.04  C 
ATOM     58 O    PRO B 182       2.146  32.463  11.170  1.00123.88 LIG-0.27  OA
BRANCH 55 59
ATOM     59  CA  PRO B 182       0.155  31.762  10.051  1.00115.83 LIG 0.35  C 
ATOM     60  CB  PRO B 182      -0.922  32.781  10.455  1.00111.53 LIG 0.05  C 
ATOM     61  CG  PRO B 182      -1.902  32.009  11.286  1.00111.42 LIG 0.04  C 
ATOM     62  CD  PRO B 182      -1.089  30.975  11.998  1.00113.66 LIG 0.32  C 
ATOM     63  N   PRO B 182      -0.005  30.690  11.041  1.00115.25 LIG 0.32  N 
ENDBRANCH 55 59
ENDBRANCH 50 52
ENDBRANCH 39 48
ENDBRANCH 37 39
ENDBRANCH 1 35
TORSDOF 24
ENDMDL
