MODEL 1
USER: ADFR SOLUTION from run 28
USER: SCORE 24.871737 LL:  -3.448 LR: -22.990 RR:   0.000 FEB: -13.743
USER: RMSD 5.412409
USER: SEED 27
USER: STATUS searching
USER: GENES 33
USER: genes 0 Translation |==|  0.44730 0.46664 0.58821
USER: genes 1 Rotation |==|  0.70077 0.31065 0.51844 0.91653
USER: genes 2 Torsion [N]-C--CA-[N] |==|  0.94064
USER: genes 3 Torsion [C]-CA--CB-[CG] |==|  0.78535
USER: genes 4 Torsion [CA]-CB--CG-[CD] |==|  0.19373
USER: genes 5 Torsion [CB]-CG--CD-[CE] |==|  0.21362
USER: genes 6 Torsion [CG]-CD--CE-[NZ] |==|  0.24204
USER: genes 7 Torsion [CD]-CE--NZ-[HZ3] |==|  0.18313
USER: genes 8 Torsion [C]-CA--N-[C] |==|  0.70783
USER: genes 9 Torsion [N]-C--CA-[N] |==|  0.50000
USER: genes 10 Torsion [C]-CA--N-[C] |==|  0.76553
USER: genes 11 Torsion [N]-C--CA-[N] |==|  0.43775
USER: genes 12 Torsion [C]-CA--CB-[CG2] |==|  0.20930
USER: genes 13 Torsion [CA]-CB--OG1-[HG1] |==|  0.04972
USER: genes 14 Torsion [C]-CA--N-[C] |==|  0.80256
USER: genes 15 Torsion [N]-C--CA-[N] |==|  0.63638
USER: genes 16 Torsion [C]-CA--CB-[CG] |==|  0.50847
USER: genes 17 Torsion [CA]-CB--CG-[CD] |==|  0.86876
USER: genes 18 Torsion [CB]-CG--CD-[NE] |==|  0.40991
USER: genes 19 Torsion [CG]-CD--NE-[CZ] |==|  0.54308
USER: genes 20 Torsion [C]-N--CA-[CB] |==|  0.21336
USER: genes 21 Torsion [N]-CA--CB-[CG] |==|  0.51237
USER: genes 22 Torsion [CA]-CB--CG-[CD] |==|  0.37197
USER: genes 23 Torsion [CB]-CG--CD-[NE] |==|  0.05901
USER: genes 24 Torsion [CG]-CD--NE-[HE] |==|  0.75904
USER: genes 25 Torsion [N]-CA--C-[N] |==|  0.27958
USER: genes 26 Torsion [N]-CA--C-[N] |==|  0.48751
USER: genes 27 Torsion [C]-N--CA-[C] |==|  0.52056
USER: genes 28 Torsion [N]-CA--CB-[CG] |==|  0.71119
USER: genes 29 Torsion [CA]-CB--CG-[CD] |==|  0.61343
USER: genes 30 Torsion [CB]-CG--CD-[NE] |==|  0.96704
USER: genes 31 Torsion [CG]-CD--NE-[HE] |==|  0.15771
USER: genes 32 Torsion [N]-CA--C-[O] |==|  0.13559
ROOT
ATOM      1  C   LYS B 823       2.965  34.266  10.422  1.00 58.46 LIG 0.24  C 
ATOM      2 O    LYS B 823       3.536  33.666  11.332  1.00 54.34 LIG-0.27  OA
ATOM      3  N   ARG B 824       2.722  33.706   9.239  1.00 54.22 LIG-0.35  N 
ATOM      4 H    ARG B 824       2.311  34.099   8.594  1.00 54.22 LIG 0.16  HD
ENDROOT
BRANCH 1 5
ATOM      5  CA  LYS B 823       2.456  35.686  10.625  1.00 55.50 LIG 0.18  C 
BRANCH 5 6
ATOM      6  CB  LYS B 823       1.151  35.646  11.428  1.00 54.97 LIG 0.04  C 
BRANCH 6 7
ATOM      7  CG  LYS B 823      -0.106  35.241  10.658  1.00 56.27 LIG 0.00  C 
BRANCH 7 8
ATOM      8  CD  LYS B 823      -0.075  33.792  10.278  1.00 52.63 LIG 0.03  C 
BRANCH 8 9
ATOM      9  CE  LYS B 823      -0.399  32.859  11.453  1.00 52.00 LIG 0.23  C 
BRANCH 9 10
ATOM     10  NZ  LYS B 823      -1.842  32.617  11.619  1.00 59.54 LIG-0.08  N 
ATOM     11 HZ3  LYS B 823      -2.150  32.165  10.916  1.00 59.54 LIG 0.27  HD
ATOM     12 HZ2  LYS B 823      -2.268  33.395  11.680  1.00 59.54 LIG 0.27  HD
ATOM     13 HZ1  LYS B 823      -1.980  32.144  12.360  1.00 59.54 LIG 0.27  HD
ENDBRANCH 9 10
ENDBRANCH 8 9
ENDBRANCH 7 8
ENDBRANCH 6 7
ENDBRANCH 5 6
BRANCH 5 14
ATOM     14  N   LYS B 823       2.247  36.325   9.328  1.00 58.26 LIG-0.35  N 
ATOM     15 H    LYS B 823       1.547  36.057   8.907  1.00 58.26 LIG 0.16  HD
ATOM     16  C   ARG B 822       3.095  37.250   8.862  1.00 61.99 LIG 0.24  C 
ATOM     17 O    ARG B 822       3.971  37.764   9.567  1.00 62.30 LIG-0.27  OA
BRANCH 16 18
ATOM     18  CA  ARG B 822       2.950  37.701   7.412  1.00 69.11 LIG 0.18  C 
BRANCH 18 19
ATOM     19  N   ARG B 822       3.929  38.707   7.030  1.00 79.36 LIG-0.35  N 
ATOM     20 H    ARG B 822       4.627  38.388   6.643  1.00 79.36 LIG 0.16  HD
ATOM     21  C   THR B 821       3.745  40.002   7.266  1.00 84.58 LIG 0.24  C 
ATOM     22 O    THR B 821       2.658  40.477   7.610  1.00 84.15 LIG-0.27  OA
BRANCH 21 23
ATOM     23  CA  THR B 821       4.960  40.892   7.037  1.00 89.83 LIG 0.20  C 
BRANCH 23 24
ATOM     24  CB  THR B 821       5.911  40.782   8.235  1.00 88.11 LIG 0.15  C 
ATOM     25  CG2 THR B 821       6.678  39.466   8.212  1.00 89.90 LIG 0.04  C 
BRANCH 24 26
ATOM     26 OG1  THR B 821       6.852  41.863   8.204  1.00 82.62 LIG-0.39  OA
ATOM     27 HG1  THR B 821       6.564  42.470   7.700  1.00 82.62 LIG 0.21  HD
ENDBRANCH 24 26
ENDBRANCH 23 24
BRANCH 23 28
ATOM     28  N   THR B 821       4.562  42.274   6.802  1.00 98.89 LIG-0.34  N 
ATOM     29 H    THR B 821       4.749  42.809   7.450  1.00 98.89 LIG 0.16  HD
ATOM     30  C   ALA B 820       3.961  42.656   5.675  1.00104.93 LIG 0.26  C 
ATOM     31 O    ALA B 820       3.628  41.866   4.787  1.00110.84 LIG-0.27  OA
BRANCH 30 32
ATOM     32  CA  ALA B 820       3.691  44.151   5.529  1.00100.65 LIG 0.40  C 
ATOM     33  N   ALA B 820       2.308  44.383   5.129  1.00102.47 LIG 0.61  N 
ATOM     34  CB  ALA B 820       3.999  44.881   6.830  1.00 93.61 LIG 0.06  C 
ENDBRANCH 30 32
ENDBRANCH 23 28
ENDBRANCH 21 23
ENDBRANCH 18 19
BRANCH 18 35
ATOM     35  CB  ARG B 822       3.023  36.514   6.452  1.00 74.55 LIG 0.04  C 
BRANCH 35 36
ATOM     36  CG  ARG B 822       2.953  36.987   5.016  1.00 89.07 LIG 0.02  C 
BRANCH 36 37
ATOM     37  CD  ARG B 822       1.854  37.982   4.753  1.00 95.35 LIG 0.14  C 
BRANCH 37 38
ATOM     38  NE  ARG B 822       2.266  38.921   3.711  1.00111.05 LIG-0.23  N 
ATOM     39  CZ  ARG B 822       1.657  40.078   3.460  1.00116.06 LIG 0.67  C 
ATOM     40  NH1 ARG B 822       0.609  40.447   4.186  1.00115.06 LIG-0.23  N 
ATOM     41  NH2 ARG B 822       2.110  40.876   2.499  1.00119.10 LIG-0.23  N 
ATOM     42 2HH1 ARG B 822       0.216  41.194   4.024  1.00115.06 LIG 0.17  HD
ATOM     43 1HH1 ARG B 822       0.324  39.939   4.818  1.00115.06 LIG 0.17  HD
ATOM     44 1HH2 ARG B 822       2.797  40.645   2.037  1.00119.10 LIG 0.17  HD
ATOM     45 2HH2 ARG B 822       1.715  41.622   2.338  1.00119.10 LIG 0.17  HD
ATOM     46 HE   ARG B 822       2.947  38.711   3.228  1.00111.05 LIG 0.18  HD
ENDBRANCH 37 38
ENDBRANCH 36 37
ENDBRANCH 35 36
ENDBRANCH 18 35
ENDBRANCH 16 18
ENDBRANCH 5 14
ENDBRANCH 1 5
BRANCH 3 47
ATOM     47  CA  ARG B 824       3.150  32.340   8.946  1.00 54.21 LIG 0.18  C 
BRANCH 47 48
ATOM     48  CB  ARG B 824       2.231  31.314   9.610  1.00 52.82 LIG 0.04  C 
BRANCH 48 49
ATOM     49  CG  ARG B 824       2.716  29.885   9.411  1.00 57.86 LIG 0.02  C 
BRANCH 49 50
ATOM     50  CD  ARG B 824       2.682  29.082  10.685  1.00 56.10 LIG 0.14  C 
BRANCH 50 51
ATOM     51  NE  ARG B 824       1.764  29.665  11.650  1.00 65.02 LIG-0.23  N 
ATOM     52  CZ  ARG B 824       0.496  29.312  11.782  1.00 62.89 LIG 0.67  C 
ATOM     53  NH1 ARG B 824      -0.009  28.355  11.018  1.00 60.33 LIG-0.23  N 
ATOM     54  NH2 ARG B 824      -0.255  29.901  12.695  1.00 55.39 LIG-0.23  N 
ATOM     55 1HH1 ARG B 824       0.487  27.962  10.436  1.00 60.33 LIG 0.17  HD
ATOM     56 2HH1 ARG B 824      -0.834  28.126  11.105  1.00 60.33 LIG 0.17  HD
ATOM     57 2HH2 ARG B 824      -1.080  29.674  12.783  1.00 55.39 LIG 0.17  HD
ATOM     58 1HH2 ARG B 824       0.080  30.512  13.200  1.00 55.39 LIG 0.17  HD
ATOM     59 HE   ARG B 824       2.066  30.280  12.169  1.00 65.02 LIG 0.18  HD
ENDBRANCH 50 51
ENDBRANCH 49 50
ENDBRANCH 48 49
ENDBRANCH 47 48
BRANCH 47 60
ATOM     60  C   ARG B 824       3.232  32.107   7.444  1.00 52.05 LIG 0.24  C 
ATOM     61  N   PRO B 825       4.423  32.147   6.857  1.00 68.51 LIG-0.34  N 
ATOM     62  CA  PRO B 825       4.544  32.050   5.403  1.00 67.77 LIG 0.18  C 
ATOM     63  CD  PRO B 825       5.726  31.965   7.526  1.00 70.13 LIG 0.13  C 
ATOM     64  CB  PRO B 825       6.025  32.339   5.166  1.00 68.40 LIG 0.04  C 
ATOM     65  CG  PRO B 825       6.683  31.730   6.364  1.00 73.68 LIG 0.02  C 
ATOM     66 O    ARG B 824       2.195  31.870   6.800  1.00 51.39 LIG-0.27  OA
BRANCH 62 67
ATOM     67  C   PRO B 825       4.164  30.664   4.911  1.00 71.49 LIG 0.24  C 
ATOM     68  N   ARG B 826       4.159  30.527   3.590  1.00 70.87 LIG-0.35  N 
ATOM     69 H    ARG B 826       4.254  31.179   3.039  1.00 70.87 LIG 0.16  HD
ATOM     70 O    PRO B 825       3.852  29.757   5.683  1.00 73.63 LIG-0.27  OA
BRANCH 68 71
ATOM     71  CA  ARG B 826       3.989  29.231   2.962  1.00 67.47 LIG 0.16  C 
BRANCH 71 72
ATOM     72  CB  ARG B 826       2.597  28.672   3.246  1.00 70.42 LIG 0.04  C 
BRANCH 72 73
ATOM     73  CG  ARG B 826       2.616  27.580   4.292  1.00 69.62 LIG 0.02  C 
BRANCH 73 74
ATOM     74  CD  ARG B 826       1.704  26.406   3.991  1.00 58.43 LIG 0.14  C 
BRANCH 74 75
ATOM     75  NE  ARG B 826       0.753  26.616   2.899  1.00 52.00 LIG-0.23  N 
ATOM     76 HE   ARG B 826       1.067  26.834   2.128  1.00 52.00 LIG 0.18  HD
ATOM     77  CZ  ARG B 826      -0.561  26.493   3.021  1.00 51.94 LIG 0.67  C 
ATOM     78  NH1 ARG B 826      -1.077  26.230   4.215  1.00 56.61 LIG-0.23  N 
ATOM     79  NH2 ARG B 826      -1.350  26.664   1.973  1.00 47.30 LIG-0.23  N 
ATOM     80 2HH1 ARG B 826      -1.929  26.147   4.307  1.00 56.61 LIG 0.17  HD
ATOM     81 1HH1 ARG B 826      -0.561  26.143   4.897  1.00 56.61 LIG 0.17  HD
ATOM     82 1HH2 ARG B 826      -1.011  26.856   1.206  1.00 47.30 LIG 0.17  HD
ATOM     83 2HH2 ARG B 826      -2.201  26.582   2.058  1.00 47.30 LIG 0.17  HD
ENDBRANCH 74 75
ENDBRANCH 73 74
ENDBRANCH 72 73
ENDBRANCH 71 72
BRANCH 71 84
ATOM     84  C   ARG B 826       4.206  29.342   1.458  1.00 71.98 LIG 0.22  C 
ATOM     85 O    ARG B 826       5.194  29.920   1.007  1.00 86.43 LIG-0.29  OA
ENDBRANCH 71 84
ENDBRANCH 68 71
ENDBRANCH 62 67
ENDBRANCH 47 60
ENDBRANCH 3 47
TORSDOF 31
ENDMDL
MODEL 2
USER: ADFR SOLUTION from run 92
USER: SCORE 24.325787 LL:  -3.123 LR: -22.472 RR:   0.000 FEB: -13.225
USER: RMSD 13.174637
USER: SEED 91
USER: STATUS 1 or 2 clusters left
USER: GENES 33
USER: genes 0 Translation |==|  0.46412 0.53053 0.51703
USER: genes 1 Rotation |==|  0.97723 0.53879 0.63905 0.53755
USER: genes 2 Torsion [N]-C--CA-[N] |==|  0.34088
USER: genes 3 Torsion [C]-CA--CB-[CG] |==|  0.30169
USER: genes 4 Torsion [CA]-CB--CG-[CD] |==|  0.09567
USER: genes 5 Torsion [CB]-CG--CD-[CE] |==|  0.24785
USER: genes 6 Torsion [CG]-CD--CE-[NZ] |==|  0.35194
USER: genes 7 Torsion [CD]-CE--NZ-[HZ3] |==|  0.35030
USER: genes 8 Torsion [C]-CA--N-[C] |==|  0.84123
USER: genes 9 Torsion [N]-C--CA-[N] |==|  0.11111
USER: genes 10 Torsion [C]-CA--N-[C] |==|  0.13934
USER: genes 11 Torsion [N]-C--CA-[N] |==|  0.43714
USER: genes 12 Torsion [C]-CA--CB-[CG2] |==|  0.28216
USER: genes 13 Torsion [CA]-CB--OG1-[HG1] |==|  0.58773
USER: genes 14 Torsion [C]-CA--N-[C] |==|  0.80744
USER: genes 15 Torsion [N]-C--CA-[N] |==|  0.12329
USER: genes 16 Torsion [C]-CA--CB-[CG] |==|  0.47284
USER: genes 17 Torsion [CA]-CB--CG-[CD] |==|  0.37594
USER: genes 18 Torsion [CB]-CG--CD-[NE] |==|  0.21935
USER: genes 19 Torsion [CG]-CD--NE-[CZ] |==|  0.46250
USER: genes 20 Torsion [C]-N--CA-[CB] |==|  0.45703
USER: genes 21 Torsion [N]-CA--CB-[CG] |==|  0.84953
USER: genes 22 Torsion [CA]-CB--CG-[CD] |==|  0.69474
USER: genes 23 Torsion [CB]-CG--CD-[NE] |==|  0.74505
USER: genes 24 Torsion [CG]-CD--NE-[HE] |==|  0.79055
USER: genes 25 Torsion [N]-CA--C-[N] |==|  0.47632
USER: genes 26 Torsion [N]-CA--C-[N] |==|  0.58231
USER: genes 27 Torsion [C]-N--CA-[C] |==|  0.16024
USER: genes 28 Torsion [N]-CA--CB-[CG] |==|  0.71877
USER: genes 29 Torsion [CA]-CB--CG-[CD] |==|  0.27874
USER: genes 30 Torsion [CB]-CG--CD-[NE] |==|  0.07144
USER: genes 31 Torsion [CG]-CD--NE-[HE] |==|  0.92225
USER: genes 32 Torsion [N]-CA--C-[O] |==|  0.68008
ROOT
ATOM      1  C   LYS B 823       3.318  36.135   8.873  1.00 58.46 LIG 0.24  C 
ATOM      2 O    LYS B 823       4.509  36.340   9.107  1.00 54.34 LIG-0.27  OA
ATOM      3  N   ARG B 824       2.566  36.995   8.191  1.00 54.22 LIG-0.35  N 
ATOM      4 H    ARG B 824       1.737  36.866   8.001  1.00 54.22 LIG 0.16  HD
ENDROOT
BRANCH 1 5
ATOM      5  CA  LYS B 823       2.650  34.843   9.318  1.00 55.50 LIG 0.18  C 
BRANCH 5 6
ATOM      6  CB  LYS B 823       2.602  34.797  10.850  1.00 54.97 LIG 0.04  C 
BRANCH 6 7
ATOM      7  CG  LYS B 823       1.226  34.980  11.491  1.00 56.27 LIG 0.00  C 
BRANCH 7 8
ATOM      8  CD  LYS B 823       0.143  34.373  10.653  1.00 52.63 LIG 0.03  C 
BRANCH 8 9
ATOM      9  CE  LYS B 823      -0.119  32.899  10.992  1.00 52.00 LIG 0.23  C 
BRANCH 9 10
ATOM     10  NZ  LYS B 823      -1.533  32.617  11.289  1.00 59.54 LIG-0.08  N 
ATOM     11 HZ3  LYS B 823      -1.820  31.953  10.769  1.00 59.54 LIG 0.27  HD
ATOM     12 HZ2  LYS B 823      -2.020  33.345  11.134  1.00 59.54 LIG 0.27  HD
ATOM     13 HZ1  LYS B 823      -1.615  32.382  12.144  1.00 59.54 LIG 0.27  HD
ENDBRANCH 9 10
ENDBRANCH 8 9
ENDBRANCH 7 8
ENDBRANCH 6 7
ENDBRANCH 5 6
BRANCH 5 14
ATOM     14  N   LYS B 823       3.387  33.698   8.790  1.00 58.26 LIG-0.35  N 
ATOM     15 H    LYS B 823       3.667  33.147   9.388  1.00 58.26 LIG 0.16  HD
ATOM     16  C   ARG B 822       3.594  33.548   7.476  1.00 61.99 LIG 0.24  C 
ATOM     17 O    ARG B 822       3.013  34.236   6.629  1.00 62.30 LIG-0.27  OA
BRANCH 16 18
ATOM     18  CA  ARG B 822       4.567  32.468   7.013  1.00 69.11 LIG 0.18  C 
BRANCH 18 19
ATOM     19  N   ARG B 822       4.454  31.237   7.780  1.00 79.36 LIG-0.35  N 
ATOM     20 H    ARG B 822       5.203  30.938   8.077  1.00 79.36 LIG 0.16  HD
ATOM     21  C   THR B 821       3.287  30.639   7.996  1.00 84.58 LIG 0.24  C 
ATOM     22 O    THR B 821       2.200  31.180   7.769  1.00 84.15 LIG-0.27  OA
BRANCH 21 23
ATOM     23  CA  THR B 821       3.364  29.240   8.594  1.00 89.83 LIG 0.20  C 
BRANCH 23 24
ATOM     24  CB  THR B 821       3.704  28.228   7.493  1.00 88.11 LIG 0.15  C 
ATOM     25  CG2 THR B 821       5.175  27.835   7.540  1.00 89.90 LIG 0.04  C 
BRANCH 24 26
ATOM     26 OG1  THR B 821       2.907  27.048   7.662  1.00 82.62 LIG-0.39  OA
ATOM     27 HG1  THR B 821       3.338  26.379   7.394  1.00 82.62 LIG 0.21  HD
ENDBRANCH 24 26
ENDBRANCH 23 24
BRANCH 23 28
ATOM     28  N   THR B 821       2.122  28.889   9.271  1.00 98.89 LIG-0.34  N 
ATOM     29 H    THR B 821       1.667  28.275   8.876  1.00 98.89 LIG 0.16  HD
ATOM     30  C   ALA B 820       1.742  29.480  10.404  1.00104.93 LIG 0.26  C 
ATOM     31 O    ALA B 820       2.363  30.414  10.919  1.00110.84 LIG-0.27  OA
BRANCH 30 32
ATOM     32  CA  ALA B 820       0.467  28.942  11.049  1.00100.65 LIG 0.40  C 
ATOM     33  N   ALA B 820       0.469  27.484  11.045  1.00102.47 LIG 0.61  N 
ATOM     34  CB  ALA B 820       0.321  29.470  12.470  1.00 93.61 LIG 0.06  C 
ENDBRANCH 30 32
ENDBRANCH 23 28
ENDBRANCH 21 23
ENDBRANCH 18 19
BRANCH 18 35
ATOM     35  CB  ARG B 822       4.397  32.169   5.524  1.00 74.55 LIG 0.04  C 
BRANCH 35 36
ATOM     36  CG  ARG B 822       5.517  31.279   5.029  1.00 89.07 LIG 0.02  C 
BRANCH 36 37
ATOM     37  CD  ARG B 822       5.055  30.149   4.147  1.00 95.35 LIG 0.14  C 
BRANCH 37 38
ATOM     38  NE  ARG B 822       4.799  30.642   2.794  1.00111.05 LIG-0.23  N 
ATOM     39  CZ  ARG B 822       4.631  29.859   1.731  1.00116.06 LIG 0.67  C 
ATOM     40  NH1 ARG B 822       4.681  28.539   1.864  1.00115.06 LIG-0.23  N 
ATOM     41  NH2 ARG B 822       4.391  30.395   0.539  1.00119.10 LIG-0.23  N 
ATOM     42 2HH1 ARG B 822       4.573  28.034   1.177  1.00115.06 LIG 0.17  HD
ATOM     43 1HH1 ARG B 822       4.822  28.190   2.636  1.00115.06 LIG 0.17  HD
ATOM     44 1HH2 ARG B 822       4.344  31.249   0.453  1.00119.10 LIG 0.17  HD
ATOM     45 2HH2 ARG B 822       4.283  29.887  -0.147  1.00119.10 LIG 0.17  HD
ATOM     46 HE   ARG B 822       4.755  31.493   2.679  1.00111.05 LIG 0.18  HD
ENDBRANCH 37 38
ENDBRANCH 36 37
ENDBRANCH 35 36
ENDBRANCH 18 35
ENDBRANCH 16 18
ENDBRANCH 5 14
ENDBRANCH 1 5
BRANCH 3 47
ATOM     47  CA  ARG B 824       3.115  38.257   7.701  1.00 54.21 LIG 0.18  C 
BRANCH 47 48
ATOM     48  CB  ARG B 824       2.205  38.887   6.645  1.00 52.82 LIG 0.04  C 
BRANCH 48 49
ATOM     49  CG  ARG B 824       1.897  37.934   5.499  1.00 57.86 LIG 0.02  C 
BRANCH 49 50
ATOM     50  CD  ARG B 824       2.567  38.343   4.213  1.00 56.10 LIG 0.14  C 
BRANCH 50 51
ATOM     51  NE  ARG B 824       1.701  39.197   3.418  1.00 65.02 LIG-0.23  N 
ATOM     52  CZ  ARG B 824       1.850  40.505   3.294  1.00 62.89 LIG 0.67  C 
ATOM     53  NH1 ARG B 824       2.854  41.120   3.904  1.00 60.33 LIG-0.23  N 
ATOM     54  NH2 ARG B 824       1.010  41.192   2.541  1.00 55.39 LIG-0.23  N 
ATOM     55 1HH1 ARG B 824       3.409  40.667   4.381  1.00 60.33 LIG 0.17  HD
ATOM     56 2HH1 ARG B 824       2.950  41.970   3.823  1.00 60.33 LIG 0.17  HD
ATOM     57 2HH2 ARG B 824       1.104  42.043   2.458  1.00 55.39 LIG 0.17  HD
ATOM     58 1HH2 ARG B 824       0.369  40.788   2.133  1.00 55.39 LIG 0.17  HD
ATOM     59 HE   ARG B 824       1.048  38.826   2.998  1.00 65.02 LIG 0.18  HD
ENDBRANCH 50 51
ENDBRANCH 49 50
ENDBRANCH 48 49
ENDBRANCH 47 48
BRANCH 47 60
ATOM     60  C   ARG B 824       3.366  39.224   8.850  1.00 52.05 LIG 0.24  C 
ATOM     61  N   PRO B 825       4.021  40.352   8.602  1.00 68.51 LIG-0.34  N 
ATOM     62  CA  PRO B 825       4.393  41.256   9.690  1.00 67.77 LIG 0.18  C 
ATOM     63  CD  PRO B 825       4.168  40.998   7.282  1.00 70.13 LIG 0.13  C 
ATOM     64  CB  PRO B 825       5.279  42.283   8.989  1.00 68.40 LIG 0.04  C 
ATOM     65  CG  PRO B 825       4.654  42.398   7.633  1.00 73.68 LIG 0.02  C 
ATOM     66 O    ARG B 824       2.945  38.950   9.988  1.00 51.39 LIG-0.27  OA
BRANCH 62 67
ATOM     67  C   PRO B 825       3.168  41.909  10.306  1.00 71.49 LIG 0.24  C 
ATOM     68  N   ARG B 826       3.380  43.117  10.813  1.00 70.87 LIG-0.35  N 
ATOM     69 H    ARG B 826       4.158  43.475  10.895  1.00 70.87 LIG 0.16  HD
ATOM     70 O    PRO B 825       2.078  41.339  10.358  1.00 73.63 LIG-0.27  OA
BRANCH 68 71
ATOM     71  CA  ARG B 826       2.287  43.947  11.282  1.00 67.47 LIG 0.16  C 
BRANCH 71 72
ATOM     72  CB  ARG B 826       1.361  44.322  10.127  1.00 70.42 LIG 0.04  C 
BRANCH 72 73
ATOM     73  CG  ARG B 826       1.604  45.727   9.625  1.00 69.62 LIG 0.02  C 
BRANCH 73 74
ATOM     74  CD  ARG B 826       2.439  45.806   8.361  1.00 58.43 LIG 0.14  C 
BRANCH 74 75
ATOM     75  NE  ARG B 826       2.393  44.619   7.506  1.00 52.00 LIG-0.23  N 
ATOM     76 HE   ARG B 826       2.241  43.860   7.879  1.00 52.00 LIG 0.18  HD
ATOM     77  CZ  ARG B 826       2.572  44.641   6.192  1.00 51.94 LIG 0.67  C 
ATOM     78  NH1 ARG B 826       2.882  45.787   5.600  1.00 56.61 LIG-0.23  N 
ATOM     79  NH2 ARG B 826       2.477  43.526   5.486  1.00 47.30 LIG-0.23  N 
ATOM     80 2HH1 ARG B 826       3.000  45.814   4.748  1.00 56.61 LIG 0.17  HD
ATOM     81 1HH1 ARG B 826       2.965  46.504   6.068  1.00 56.61 LIG 0.17  HD
ATOM     82 1HH2 ARG B 826       2.298  42.782   5.878  1.00 47.30 LIG 0.17  HD
ATOM     83 2HH2 ARG B 826       2.593  43.545   4.634  1.00 47.30 LIG 0.17  HD
ENDBRANCH 74 75
ENDBRANCH 73 74
ENDBRANCH 72 73
ENDBRANCH 71 72
BRANCH 71 84
ATOM     84  C   ARG B 826       1.499  43.220  12.363  1.00 71.98 LIG 0.22  C 
ATOM     85 O    ARG B 826       0.327  42.898  12.177  1.00 86.43 LIG-0.29  OA
ENDBRANCH 71 84
ENDBRANCH 68 71
ENDBRANCH 62 67
ENDBRANCH 47 60
ENDBRANCH 3 47
TORSDOF 31
ENDMDL
MODEL 3
USER: ADFR SOLUTION from run 38
USER: SCORE 24.158297 LL:  -3.318 LR: -22.079 RR:   0.000 FEB: -12.831
USER: RMSD 12.588525
USER: SEED 37
USER: STATUS 1 or 2 clusters left
USER: GENES 33
USER: genes 0 Translation |==|  0.47727 0.59761 0.44102
USER: genes 1 Rotation |==|  0.69512 0.40466 0.94841 0.54207
USER: genes 2 Torsion [N]-C--CA-[N] |==|  0.39806
USER: genes 3 Torsion [C]-CA--CB-[CG] |==|  0.10939
USER: genes 4 Torsion [CA]-CB--CG-[CD] |==|  0.41267
USER: genes 5 Torsion [CB]-CG--CD-[CE] |==|  0.45385
USER: genes 6 Torsion [CG]-CD--CE-[NZ] |==|  0.44830
USER: genes 7 Torsion [CD]-CE--NZ-[HZ3] |==|  0.40410
USER: genes 8 Torsion [C]-CA--N-[C] |==|  0.71763
USER: genes 9 Torsion [N]-C--CA-[N] |==|  0.97356
USER: genes 10 Torsion [C]-CA--N-[C] |==|  0.73609
USER: genes 11 Torsion [N]-C--CA-[N] |==|  0.31111
USER: genes 12 Torsion [C]-CA--CB-[CG2] |==|  0.22680
USER: genes 13 Torsion [CA]-CB--OG1-[HG1] |==|  0.92098
USER: genes 14 Torsion [C]-CA--N-[C] |==|  0.85546
USER: genes 15 Torsion [N]-C--CA-[N] |==|  0.18002
USER: genes 16 Torsion [C]-CA--CB-[CG] |==|  0.27138
USER: genes 17 Torsion [CA]-CB--CG-[CD] |==|  0.66318
USER: genes 18 Torsion [CB]-CG--CD-[NE] |==|  0.67293
USER: genes 19 Torsion [CG]-CD--NE-[CZ] |==|  0.45268
USER: genes 20 Torsion [C]-N--CA-[CB] |==|  0.53453
USER: genes 21 Torsion [N]-CA--CB-[CG] |==|  0.86839
USER: genes 22 Torsion [CA]-CB--CG-[CD] |==|  0.36604
USER: genes 23 Torsion [CB]-CG--CD-[NE] |==|  0.78075
USER: genes 24 Torsion [CG]-CD--NE-[HE] |==|  0.84698
USER: genes 25 Torsion [N]-CA--C-[N] |==|  0.29549
USER: genes 26 Torsion [N]-CA--C-[N] |==|  0.28893
USER: genes 27 Torsion [C]-N--CA-[C] |==|  0.53883
USER: genes 28 Torsion [N]-CA--CB-[CG] |==|  0.33598
USER: genes 29 Torsion [CA]-CB--CG-[CD] |==|  0.68110
USER: genes 30 Torsion [CB]-CG--CD-[NE] |==|  0.16801
USER: genes 31 Torsion [CG]-CD--NE-[HE] |==|  0.92460
USER: genes 32 Torsion [N]-CA--C-[O] |==|  0.17235
ROOT
ATOM      1  C   LYS B 823       3.595  38.097   7.220  1.00 58.46 LIG 0.24  C 
ATOM      2 O    LYS B 823       3.107  37.951   8.340  1.00 54.34 LIG-0.27  OA
ATOM      3  N   ARG B 824       4.516  39.021   6.957  1.00 54.22 LIG-0.35  N 
ATOM      4 H    ARG B 824       4.883  39.131   6.187  1.00 54.22 LIG 0.16  HD
ENDROOT
BRANCH 1 5
ATOM      5  CA  LYS B 823       3.199  37.179   6.073  1.00 55.50 LIG 0.18  C 
BRANCH 5 6
ATOM      6  CB  LYS B 823       1.947  37.738   5.385  1.00 54.97 LIG 0.04  C 
BRANCH 6 7
ATOM      7  CG  LYS B 823       1.886  39.256   5.220  1.00 56.27 LIG 0.00  C 
BRANCH 7 8
ATOM      8  CD  LYS B 823       1.135  39.645   3.983  1.00 52.63 LIG 0.03  C 
BRANCH 8 9
ATOM      9  CE  LYS B 823       0.701  41.118   3.987  1.00 52.00 LIG 0.23  C 
BRANCH 9 10
ATOM     10  NZ  LYS B 823       0.364  41.624   2.646  1.00 59.54 LIG-0.08  N 
ATOM     11 HZ3  LYS B 823      -0.301  42.213   2.710  1.00 59.54 LIG 0.27  HD
ATOM     12 HZ2  LYS B 823       0.112  40.947   2.128  1.00 59.54 LIG 0.27  HD
ATOM     13 HZ1  LYS B 823       1.078  42.020   2.291  1.00 59.54 LIG 0.27  HD
ENDBRANCH 9 10
ENDBRANCH 8 9
ENDBRANCH 7 8
ENDBRANCH 6 7
ENDBRANCH 5 6
BRANCH 5 14
ATOM     14  N   LYS B 823       2.952  35.832   6.582  1.00 58.26 LIG-0.35  N 
ATOM     15 H    LYS B 823       2.189  35.730   6.965  1.00 58.26 LIG 0.16  HD
ATOM     16  C   ARG B 822       3.860  34.859   6.447  1.00 61.99 LIG 0.24  C 
ATOM     17 O    ARG B 822       4.854  34.973   5.720  1.00 62.30 LIG-0.27  OA
BRANCH 16 18
ATOM     18  CA  ARG B 822       3.640  33.552   7.203  1.00 69.11 LIG 0.18  C 
BRANCH 18 19
ATOM     19  N   ARG B 822       2.549  33.627   8.161  1.00 79.36 LIG-0.35  N 
ATOM     20 H    ARG B 822       1.773  33.476   7.823  1.00 79.36 LIG 0.16  HD
ATOM     21  C   THR B 821       2.749  33.907   9.445  1.00 84.58 LIG 0.24  C 
ATOM     22 O    THR B 821       3.868  33.899   9.970  1.00 84.15 LIG-0.27  OA
BRANCH 21 23
ATOM     23  CA  THR B 821       1.495  34.196  10.260  1.00 89.83 LIG 0.20  C 
BRANCH 23 24
ATOM     24  CB  THR B 821       1.626  35.565  10.937  1.00 88.11 LIG 0.15  C 
ATOM     25  CG2 THR B 821       1.272  36.692   9.974  1.00 89.90 LIG 0.04  C 
BRANCH 24 26
ATOM     26 OG1  THR B 821       0.744  35.631  12.065  1.00 82.62 LIG-0.39  OA
ATOM     27 HG1  THR B 821       0.083  35.130  11.933  1.00 82.62 LIG 0.21  HD
ENDBRANCH 24 26
ENDBRANCH 23 24
BRANCH 23 28
ATOM     28  N   THR B 821       1.250  33.143  11.237  1.00 98.89 LIG-0.34  N 
ATOM     29 H    THR B 821       1.137  33.428  12.041  1.00 98.89 LIG 0.16  HD
ATOM     30  C   ALA B 820       1.209  31.855  10.896  1.00104.93 LIG 0.26  C 
ATOM     31 O    ALA B 820       1.452  31.451   9.755  1.00110.84 LIG-0.27  OA
BRANCH 30 32
ATOM     32  CA  ALA B 820       0.848  30.874  12.008  1.00100.65 LIG 0.40  C 
ATOM     33  N   ALA B 820      -0.518  31.103  12.466  1.00102.47 LIG 0.61  N 
ATOM     34  CB  ALA B 820       1.016  29.438  11.532  1.00 93.61 LIG 0.06  C 
ENDBRANCH 30 32
ENDBRANCH 23 28
ENDBRANCH 21 23
ENDBRANCH 18 19
BRANCH 18 35
ATOM     35  CB  ARG B 822       3.408  32.387   6.240  1.00 74.55 LIG 0.04  C 
BRANCH 35 36
ATOM     36  CG  ARG B 822       4.691  31.614   6.022  1.00 89.07 LIG 0.02  C 
BRANCH 36 37
ATOM     37  CD  ARG B 822       5.133  31.555   4.584  1.00 95.35 LIG 0.14  C 
BRANCH 37 38
ATOM     38  NE  ARG B 822       5.148  30.168   4.121  1.00111.05 LIG-0.23  N 
ATOM     39  CZ  ARG B 822       5.174  29.807   2.839  1.00116.06 LIG 0.67  C 
ATOM     40  NH1 ARG B 822       5.198  30.732   1.889  1.00115.06 LIG-0.23  N 
ATOM     41  NH2 ARG B 822       5.198  28.519   2.510  1.00119.10 LIG-0.23  N 
ATOM     42 2HH1 ARG B 822       5.214  30.498   1.062  1.00115.06 LIG 0.17  HD
ATOM     43 1HH1 ARG B 822       5.197  31.565   2.100  1.00115.06 LIG 0.17  HD
ATOM     44 1HH2 ARG B 822       5.197  27.918   3.125  1.00119.10 LIG 0.17  HD
ATOM     45 2HH2 ARG B 822       5.214  28.288   1.682  1.00119.10 LIG 0.17  HD
ATOM     46 HE   ARG B 822       5.140  29.547   4.714  1.00111.05 LIG 0.18  HD
ENDBRANCH 37 38
ENDBRANCH 36 37
ENDBRANCH 35 36
ENDBRANCH 18 35
ENDBRANCH 16 18
ENDBRANCH 5 14
ENDBRANCH 1 5
BRANCH 3 47
ATOM     47  CA  ARG B 824       4.982  39.941   7.992  1.00 54.21 LIG 0.18  C 
BRANCH 47 48
ATOM     48  CB  ARG B 824       5.795  41.088   7.392  1.00 52.82 LIG 0.04  C 
BRANCH 48 49
ATOM     49  CG  ARG B 824       6.842  40.602   6.401  1.00 57.86 LIG 0.02  C 
BRANCH 49 50
ATOM     50  CD  ARG B 824       6.819  41.380   5.111  1.00 56.10 LIG 0.14  C 
BRANCH 50 51
ATOM     51  NE  ARG B 824       5.738  40.936   4.247  1.00 65.02 LIG-0.23  N 
ATOM     52  CZ  ARG B 824       4.806  41.729   3.747  1.00 62.89 LIG 0.67  C 
ATOM     53  NH1 ARG B 824       4.830  43.028   4.008  1.00 60.33 LIG-0.23  N 
ATOM     54  NH2 ARG B 824       3.867  41.226   2.967  1.00 55.39 LIG-0.23  N 
ATOM     55 1HH1 ARG B 824       5.453  43.356   4.504  1.00 60.33 LIG 0.17  HD
ATOM     56 2HH1 ARG B 824       4.224  43.544   3.682  1.00 60.33 LIG 0.17  HD
ATOM     57 2HH2 ARG B 824       3.259  41.740   2.640  1.00 55.39 LIG 0.17  HD
ATOM     58 1HH2 ARG B 824       3.862  40.385   2.786  1.00 55.39 LIG 0.17  HD
ATOM     59 HE   ARG B 824       5.702  40.099   4.048  1.00 65.02 LIG 0.18  HD
ENDBRANCH 50 51
ENDBRANCH 49 50
ENDBRANCH 48 49
ENDBRANCH 47 48
BRANCH 47 60
ATOM     60  C   ARG B 824       3.814  40.473   8.813  1.00 52.05 LIG 0.24  C 
ATOM     61  N   PRO B 825       3.645  40.018  10.048  1.00 68.51 LIG-0.34  N 
ATOM     62  CA  PRO B 825       2.472  40.404  10.834  1.00 67.77 LIG 0.18  C 
ATOM     63  CD  PRO B 825       4.680  39.384  10.889  1.00 70.13 LIG 0.13  C 
ATOM     64  CB  PRO B 825       2.585  39.514  12.070  1.00 68.40 LIG 0.04  C 
ATOM     65  CG  PRO B 825       4.063  39.416  12.282  1.00 73.68 LIG 0.02  C 
ATOM     66 O    ARG B 824       3.054  41.327   8.322  1.00 51.39 LIG-0.27  OA
BRANCH 62 67
ATOM     67  C   PRO B 825       2.520  41.876  11.205  1.00 71.49 LIG 0.24  C 
ATOM     68  N   ARG B 826       1.711  42.653  10.496  1.00 70.87 LIG-0.35  N 
ATOM     69 H    ARG B 826       1.268  42.386   9.808  1.00 70.87 LIG 0.16  HD
ATOM     70 O    PRO B 825       3.280  42.309  12.072  1.00 73.63 LIG-0.27  OA
BRANCH 68 71
ATOM     71  CA  ARG B 826       1.506  44.048  10.835  1.00 67.47 LIG 0.16  C 
BRANCH 71 72
ATOM     72  CB  ARG B 826       2.745  44.874  10.493  1.00 70.42 LIG 0.04  C 
BRANCH 72 73
ATOM     73  CG  ARG B 826       2.446  45.981   9.507  1.00 69.62 LIG 0.02  C 
BRANCH 73 74
ATOM     74  CD  ARG B 826       3.132  45.827   8.164  1.00 58.43 LIG 0.14  C 
BRANCH 74 75
ATOM     75  NE  ARG B 826       2.787  44.615   7.420  1.00 52.00 LIG-0.23  N 
ATOM     76 HE   ARG B 826       2.540  43.924   7.869  1.00 52.00 LIG 0.18  HD
ATOM     77  CZ  ARG B 826       2.832  44.514   6.099  1.00 51.94 LIG 0.67  C 
ATOM     78  NH1 ARG B 826       3.279  45.540   5.386  1.00 56.61 LIG-0.23  N 
ATOM     79  NH2 ARG B 826       2.467  43.391   5.501  1.00 47.30 LIG-0.23  N 
ATOM     80 2HH1 ARG B 826       3.313  45.486   4.528  1.00 56.61 LIG 0.17  HD
ATOM     81 1HH1 ARG B 826       3.536  46.259   5.782  1.00 56.61 LIG 0.17  HD
ATOM     82 1HH2 ARG B 826       2.199  42.721   5.970  1.00 47.30 LIG 0.17  HD
ATOM     83 2HH2 ARG B 826       2.497  43.331   4.644  1.00 47.30 LIG 0.17  HD
ENDBRANCH 74 75
ENDBRANCH 73 74
ENDBRANCH 72 73
ENDBRANCH 71 72
BRANCH 71 84
ATOM     84  C   ARG B 826       0.295  44.599  10.093  1.00 71.98 LIG 0.22  C 
ATOM     85 O    ARG B 826      -0.825  44.130  10.285  1.00 86.43 LIG-0.29  OA
ENDBRANCH 71 84
ENDBRANCH 68 71
ENDBRANCH 62 67
ENDBRANCH 47 60
ENDBRANCH 3 47
TORSDOF 31
ENDMDL
MODEL 4
USER: ADFR SOLUTION from run 152
USER: SCORE 24.220909 LL:  -3.637 LR: -21.994 RR:   0.000 FEB: -12.747
USER: RMSD 6.524432
USER: SEED 151
USER: STATUS no improvement in best in 3 clusters for 5 generations
USER: GENES 33
USER: genes 0 Translation |==|  0.44295 0.40595 0.48745
USER: genes 1 Rotation |==|  0.49464 0.99677 0.55549 0.51039
USER: genes 2 Torsion [N]-C--CA-[N] |==|  0.37909
USER: genes 3 Torsion [C]-CA--CB-[CG] |==|  0.95872
USER: genes 4 Torsion [CA]-CB--CG-[CD] |==|  0.56461
USER: genes 5 Torsion [CB]-CG--CD-[CE] |==|  0.28050
USER: genes 6 Torsion [CG]-CD--CE-[NZ] |==|  0.22925
USER: genes 7 Torsion [CD]-CE--NZ-[HZ3] |==|  0.39958
USER: genes 8 Torsion [C]-CA--N-[C] |==|  0.73889
USER: genes 9 Torsion [N]-C--CA-[N] |==|  0.41123
USER: genes 10 Torsion [C]-CA--N-[C] |==|  0.65545
USER: genes 11 Torsion [N]-C--CA-[N] |==|  0.40035
USER: genes 12 Torsion [C]-CA--CB-[CG2] |==|  0.18657
USER: genes 13 Torsion [CA]-CB--OG1-[HG1] |==|  0.53155
USER: genes 14 Torsion [C]-CA--N-[C] |==|  0.79282
USER: genes 15 Torsion [N]-C--CA-[N] |==|  0.72926
USER: genes 16 Torsion [C]-CA--CB-[CG] |==|  0.44087
USER: genes 17 Torsion [CA]-CB--CG-[CD] |==|  0.26421
USER: genes 18 Torsion [CB]-CG--CD-[NE] |==|  0.52370
USER: genes 19 Torsion [CG]-CD--NE-[CZ] |==|  0.48090
USER: genes 20 Torsion [C]-N--CA-[CB] |==|  0.26467
USER: genes 21 Torsion [N]-CA--CB-[CG] |==|  0.44009
USER: genes 22 Torsion [CA]-CB--CG-[CD] |==|  0.36295
USER: genes 23 Torsion [CB]-CG--CD-[NE] |==|  0.19664
USER: genes 24 Torsion [CG]-CD--NE-[HE] |==|  0.75662
USER: genes 25 Torsion [N]-CA--C-[N] |==|  0.30464
USER: genes 26 Torsion [N]-CA--C-[N] |==|  0.95453
USER: genes 27 Torsion [C]-N--CA-[C] |==|  0.84301
USER: genes 28 Torsion [N]-CA--CB-[CG] |==|  0.71571
USER: genes 29 Torsion [CA]-CB--CG-[CD] |==|  0.24493
USER: genes 30 Torsion [CB]-CG--CD-[NE] |==|  0.29362
USER: genes 31 Torsion [CG]-CD--NE-[HE] |==|  0.96886
USER: genes 32 Torsion [N]-CA--C-[O] |==|  0.40196
ROOT
ATOM      1  C   LYS B 823       2.874  32.491   8.230  1.00 58.46 LIG 0.24  C 
ATOM      2 O    LYS B 823       1.741  32.538   7.753  1.00 54.34 LIG-0.27  OA
ATOM      3  N   ARG B 824       3.721  31.500   7.962  1.00 54.22 LIG-0.35  N 
ATOM      4 H    ARG B 824       4.523  31.454   8.270  1.00 54.22 LIG 0.16  HD
ENDROOT
BRANCH 1 5
ATOM      5  CA  LYS B 823       3.389  33.609   9.124  1.00 55.50 LIG 0.18  C 
BRANCH 5 6
ATOM      6  CB  LYS B 823       2.837  33.419  10.542  1.00 54.97 LIG 0.04  C 
BRANCH 6 7
ATOM      7  CG  LYS B 823       1.672  32.442  10.691  1.00 56.27 LIG 0.00  C 
BRANCH 7 8
ATOM      8  CD  LYS B 823       0.865  32.728  11.920  1.00 52.63 LIG 0.03  C 
BRANCH 8 9
ATOM      9  CE  LYS B 823      -0.431  33.493  11.618  1.00 52.00 LIG 0.23  C 
BRANCH 9 10
ATOM     10  NZ  LYS B 823      -1.530  32.617  11.178  1.00 59.54 LIG-0.08  N 
ATOM     11 HZ3  LYS B 823      -2.301  32.922  11.501  1.00 59.54 LIG 0.27  HD
ATOM     12 HZ2  LYS B 823      -1.389  31.792  11.477  1.00 59.54 LIG 0.27  HD
ATOM     13 HZ1  LYS B 823      -1.564  32.608  10.288  1.00 59.54 LIG 0.27  HD
ENDBRANCH 9 10
ENDBRANCH 8 9
ENDBRANCH 7 8
ENDBRANCH 6 7
ENDBRANCH 5 6
BRANCH 5 14
ATOM     14  N   LYS B 823       2.982  34.903   8.581  1.00 58.26 LIG-0.35  N 
ATOM     15 H    LYS B 823       2.200  35.162   8.824  1.00 58.26 LIG 0.16  HD
ATOM     16  C   ARG B 822       3.787  35.602   7.771  1.00 61.99 LIG 0.24  C 
ATOM     17 O    ARG B 822       4.976  35.310   7.601  1.00 62.30 LIG-0.27  OA
BRANCH 16 18
ATOM     18  CA  ARG B 822       3.213  36.821   7.055  1.00 69.11 LIG 0.18  C 
BRANCH 18 19
ATOM     19  N   ARG B 822       4.198  37.869   6.840  1.00 79.36 LIG-0.35  N 
ATOM     20 H    ARG B 822       4.897  37.612   6.411  1.00 79.36 LIG 0.16  HD
ATOM     21  C   THR B 821       4.018  39.112   7.276  1.00 84.58 LIG 0.24  C 
ATOM     22 O    THR B 821       2.930  39.533   7.685  1.00 84.15 LIG-0.27  OA
BRANCH 21 23
ATOM     23  CA  THR B 821       5.238  40.021   7.195  1.00 89.83 LIG 0.20  C 
BRANCH 23 24
ATOM     24  CB  THR B 821       6.008  39.966   8.520  1.00 88.11 LIG 0.15  C 
ATOM     25  CG2 THR B 821       6.628  38.592   8.741  1.00 89.90 LIG 0.04  C 
BRANCH 24 26
ATOM     26 OG1  THR B 821       7.053  40.946   8.511  1.00 82.62 LIG-0.39  OA
ATOM     27 HG1  THR B 821       7.567  40.814   9.162  1.00 82.62 LIG 0.21  HD
ENDBRANCH 24 26
ENDBRANCH 23 24
BRANCH 23 28
ATOM     28  N   THR B 821       4.854  41.387   6.863  1.00 98.89 LIG-0.34  N 
ATOM     29 H    THR B 821       4.891  41.935   7.525  1.00 98.89 LIG 0.16  HD
ATOM     30  C   ALA B 820       4.481  41.737   5.631  1.00104.93 LIG 0.26  C 
ATOM     31 O    ALA B 820       4.355  40.928   4.708  1.00110.84 LIG-0.27  OA
BRANCH 30 32
ATOM     32  CA  ALA B 820       4.200  43.221   5.410  1.00100.65 LIG 0.40  C 
ATOM     33  N   ALA B 820       2.771  43.490   5.504  1.00102.47 LIG 0.61  N 
ATOM     34  CB  ALA B 820       4.969  44.068   6.415  1.00 93.61 LIG 0.06  C 
ENDBRANCH 30 32
ENDBRANCH 23 28
ENDBRANCH 21 23
ENDBRANCH 18 19
BRANCH 18 35
ATOM     35  CB  ARG B 822       2.571  36.430   5.723  1.00 74.55 LIG 0.04  C 
BRANCH 35 36
ATOM     36  CG  ARG B 822       1.580  37.486   5.282  1.00 89.07 LIG 0.02  C 
BRANCH 36 37
ATOM     37  CD  ARG B 822       2.153  38.502   4.329  1.00 95.35 LIG 0.14  C 
BRANCH 37 38
ATOM     38  NE  ARG B 822       1.196  39.586   4.117  1.00111.05 LIG-0.23  N 
ATOM     39  CZ  ARG B 822       1.461  40.697   3.432  1.00116.06 LIG 0.67  C 
ATOM     40  NH1 ARG B 822       2.656  40.867   2.880  1.00115.06 LIG-0.23  N 
ATOM     41  NH2 ARG B 822       0.524  41.627   3.280  1.00119.10 LIG-0.23  N 
ATOM     42 2HH1 ARG B 822       2.827  41.584   2.438  1.00115.06 LIG 0.17  HD
ATOM     43 1HH1 ARG B 822       3.259  40.260   2.965  1.00115.06 LIG 0.17  HD
ATOM     44 1HH2 ARG B 822      -0.256  41.512   3.624  1.00119.10 LIG 0.17  HD
ATOM     45 2HH2 ARG B 822       0.697  42.344   2.838  1.00119.10 LIG 0.17  HD
ATOM     46 HE   ARG B 822       0.411  39.501   4.457  1.00111.05 LIG 0.18  HD
ENDBRANCH 37 38
ENDBRANCH 36 37
ENDBRANCH 35 36
ENDBRANCH 18 35
ENDBRANCH 16 18
ENDBRANCH 5 14
ENDBRANCH 1 5
BRANCH 3 47
ATOM     47  CA  ARG B 824       3.335  30.386   7.099  1.00 54.21 LIG 0.18  C 
BRANCH 47 48
ATOM     48  CB  ARG B 824       3.781  30.619   5.655  1.00 52.82 LIG 0.04  C 
BRANCH 48 49
ATOM     49  CG  ARG B 824       3.880  29.325   4.861  1.00 57.86 LIG 0.02  C 
BRANCH 49 50
ATOM     50  CD  ARG B 824       3.170  29.408   3.534  1.00 56.10 LIG 0.14  C 
BRANCH 50 51
ATOM     51  NE  ARG B 824       3.880  30.276   2.611  1.00 65.02 LIG-0.23  N 
ATOM     52  CZ  ARG B 824       4.789  29.862   1.743  1.00 62.89 LIG 0.67  C 
ATOM     53  NH1 ARG B 824       5.090  28.574   1.663  1.00 60.33 LIG-0.23  N 
ATOM     54  NH2 ARG B 824       5.375  30.733   0.943  1.00 55.39 LIG-0.23  N 
ATOM     55 1HH1 ARG B 824       4.694  28.007   2.175  1.00 60.33 LIG 0.17  HD
ATOM     56 2HH1 ARG B 824       5.681  28.305   1.098  1.00 60.33 LIG 0.17  HD
ATOM     57 2HH2 ARG B 824       5.967  30.467   0.377  1.00 55.39 LIG 0.17  HD
ATOM     58 1HH2 ARG B 824       5.166  31.567   0.986  1.00 55.39 LIG 0.17  HD
ATOM     59 HE   ARG B 824       3.698  31.117   2.630  1.00 65.02 LIG 0.18  HD
ENDBRANCH 50 51
ENDBRANCH 49 50
ENDBRANCH 48 49
ENDBRANCH 47 48
BRANCH 47 60
ATOM     60  C   ARG B 824       3.883  29.070   7.633  1.00 52.05 LIG 0.24  C 
ATOM     61  N   PRO B 825       3.034  28.188   8.146  1.00 68.51 LIG-0.34  N 
ATOM     62  CA  PRO B 825       3.520  26.962   8.780  1.00 67.77 LIG 0.18  C 
ATOM     63  CD  PRO B 825       1.582  28.126   7.883  1.00 70.13 LIG 0.13  C 
ATOM     64  CB  PRO B 825       2.251  26.368   9.388  1.00 68.40 LIG 0.04  C 
ATOM     65  CG  PRO B 825       1.194  26.745   8.396  1.00 73.68 LIG 0.02  C 
ATOM     66 O    ARG B 824       5.104  28.839   7.566  1.00 51.39 LIG-0.27  OA
BRANCH 62 67
ATOM     67  C   PRO B 825       4.137  26.022   7.759  1.00 71.49 LIG 0.24  C 
ATOM     68  N   ARG B 826       3.829  26.296   6.497  1.00 70.87 LIG-0.35  N 
ATOM     69 H    ARG B 826       3.247  26.882   6.260  1.00 70.87 LIG 0.16  HD
ATOM     70 O    PRO B 825       4.837  25.064   8.088  1.00 73.63 LIG-0.27  OA
BRANCH 68 71
ATOM     71  CA  ARG B 826       4.469  25.607   5.392  1.00 67.47 LIG 0.16  C 
BRANCH 71 72
ATOM     72  CB  ARG B 826       3.960  26.143   4.055  1.00 70.42 LIG 0.04  C 
BRANCH 72 73
ATOM     73  CG  ARG B 826       2.950  25.221   3.411  1.00 69.62 LIG 0.02  C 
BRANCH 73 74
ATOM     74  CD  ARG B 826       1.514  25.471   3.830  1.00 58.43 LIG 0.14  C 
BRANCH 74 75
ATOM     75  NE  ARG B 826       0.676  26.130   2.828  1.00 52.00 LIG-0.23  N 
ATOM     76 HE   ARG B 826       1.063  26.466   2.137  1.00 52.00 LIG 0.18  HD
ATOM     77  CZ  ARG B 826      -0.642  26.242   2.917  1.00 51.94 LIG 0.67  C 
ATOM     78  NH1 ARG B 826      -1.257  25.799   4.006  1.00 56.61 LIG-0.23  N 
ATOM     79  NH2 ARG B 826      -1.331  26.821   1.947  1.00 47.30 LIG-0.23  N 
ATOM     80 2HH1 ARG B 826      -2.112  25.866   4.075  1.00 56.61 LIG 0.17  HD
ATOM     81 1HH1 ARG B 826      -0.801  25.444   4.643  1.00 56.61 LIG 0.17  HD
ATOM     82 1HH2 ARG B 826      -0.925  27.127   1.253  1.00 47.30 LIG 0.17  HD
ATOM     83 2HH2 ARG B 826      -2.186  26.891   2.009  1.00 47.30 LIG 0.17  HD
ENDBRANCH 74 75
ENDBRANCH 73 74
ENDBRANCH 72 73
ENDBRANCH 71 72
BRANCH 71 84
ATOM     84  C   ARG B 826       5.981  25.770   5.474  1.00 71.98 LIG 0.22  C 
ATOM     85 O    ARG B 826       6.730  24.859   5.128  1.00 86.43 LIG-0.29  OA
ENDBRANCH 71 84
ENDBRANCH 68 71
ENDBRANCH 62 67
ENDBRANCH 47 60
ENDBRANCH 3 47
TORSDOF 31
ENDMDL
MODEL 5
USER: ADFR SOLUTION from run 152
USER: SCORE 23.736644 LL:  -3.516 LR: -21.725 RR:   0.000 FEB: -12.478
USER: RMSD 6.670418
USER: SEED 151
USER: STATUS no improvement in best in 3 clusters for 5 generations
USER: GENES 33
USER: genes 0 Translation |==|  0.44046 0.39822 0.49097
USER: genes 1 Rotation |==|  0.49112 0.99495 0.56457 0.52796
USER: genes 2 Torsion [N]-C--CA-[N] |==|  0.40003
USER: genes 3 Torsion [C]-CA--CB-[CG] |==|  0.93699
USER: genes 4 Torsion [CA]-CB--CG-[CD] |==|  0.57534
USER: genes 5 Torsion [CB]-CG--CD-[CE] |==|  0.26132
USER: genes 6 Torsion [CG]-CD--CE-[NZ] |==|  0.21686
USER: genes 7 Torsion [CD]-CE--NZ-[HZ3] |==|  0.40000
USER: genes 8 Torsion [C]-CA--N-[C] |==|  0.67263
USER: genes 9 Torsion [N]-C--CA-[N] |==|  0.36275
USER: genes 10 Torsion [C]-CA--N-[C] |==|  0.80464
USER: genes 11 Torsion [N]-C--CA-[N] |==|  0.40139
USER: genes 12 Torsion [C]-CA--CB-[CG2] |==|  0.18902
USER: genes 13 Torsion [CA]-CB--OG1-[HG1] |==|  0.53173
USER: genes 14 Torsion [C]-CA--N-[C] |==|  0.65990
USER: genes 15 Torsion [N]-C--CA-[N] |==|  0.68774
USER: genes 16 Torsion [C]-CA--CB-[CG] |==|  0.40029
USER: genes 17 Torsion [CA]-CB--CG-[CD] |==|  0.38303
USER: genes 18 Torsion [CB]-CG--CD-[NE] |==|  0.59694
USER: genes 19 Torsion [CG]-CD--NE-[CZ] |==|  0.45985
USER: genes 20 Torsion [C]-N--CA-[CB] |==|  0.26511
USER: genes 21 Torsion [N]-CA--CB-[CG] |==|  0.45013
USER: genes 22 Torsion [CA]-CB--CG-[CD] |==|  0.34439
USER: genes 23 Torsion [CB]-CG--CD-[NE] |==|  0.20153
USER: genes 24 Torsion [CG]-CD--NE-[HE] |==|  0.75676
USER: genes 25 Torsion [N]-CA--C-[N] |==|  0.29587
USER: genes 26 Torsion [N]-CA--C-[N] |==|  0.94856
USER: genes 27 Torsion [C]-N--CA-[C] |==|  0.84923
USER: genes 28 Torsion [N]-CA--CB-[CG] |==|  0.71857
USER: genes 29 Torsion [CA]-CB--CG-[CD] |==|  0.24013
USER: genes 30 Torsion [CB]-CG--CD-[NE] |==|  0.29447
USER: genes 31 Torsion [CG]-CD--NE-[HE] |==|  0.97144
USER: genes 32 Torsion [N]-CA--C-[O] |==|  0.40361
ROOT
ATOM      1  C   LYS B 823       2.822  32.265   8.307  1.00 58.46 LIG 0.24  C 
ATOM      2 O    LYS B 823       1.725  32.323   7.752  1.00 54.34 LIG-0.27  OA
ATOM      3  N   ARG B 824       3.694  31.290   8.063  1.00 54.22 LIG-0.35  N 
ATOM      4 H    ARG B 824       4.473  31.237   8.426  1.00 54.22 LIG 0.16  HD
ENDROOT
BRANCH 1 5
ATOM      5  CA  LYS B 823       3.262  33.352   9.276  1.00 55.50 LIG 0.18  C 
BRANCH 5 6
ATOM      6  CB  LYS B 823       2.769  33.005  10.686  1.00 54.97 LIG 0.04  C 
BRANCH 6 7
ATOM      7  CG  LYS B 823       1.572  32.058  10.771  1.00 56.27 LIG 0.00  C 
BRANCH 7 8
ATOM      8  CD  LYS B 823       0.781  32.281  12.023  1.00 52.63 LIG 0.03  C 
BRANCH 8 9
ATOM      9  CE  LYS B 823      -0.396  33.245  11.822  1.00 52.00 LIG 0.23  C 
BRANCH 9 10
ATOM     10  NZ  LYS B 823      -1.553  32.616  11.164  1.00 59.54 LIG-0.08  N 
ATOM     11 HZ3  LYS B 823      -2.306  32.949  11.504  1.00 59.54 LIG 0.27  HD
ATOM     12 HZ2  LYS B 823      -1.530  31.738  11.298  1.00 59.54 LIG 0.27  HD
ATOM     13 HZ1  LYS B 823      -1.524  32.784  10.290  1.00 59.54 LIG 0.27  HD
ENDBRANCH 9 10
ENDBRANCH 8 9
ENDBRANCH 7 8
ENDBRANCH 6 7
ENDBRANCH 5 6
BRANCH 5 14
ATOM     14  N   LYS B 823       2.731  34.642   8.846  1.00 58.26 LIG-0.35  N 
ATOM     15 H    LYS B 823       1.872  34.689   8.833  1.00 58.26 LIG 0.16  HD
ATOM     16  C   ARG B 822       3.542  35.651   8.504  1.00 61.99 LIG 0.24  C 
ATOM     17 O    ARG B 822       4.759  35.630   8.724  1.00 62.30 LIG-0.27  OA
BRANCH 16 18
ATOM     18  CA  ARG B 822       2.929  36.882   7.843  1.00 69.11 LIG 0.18  C 
BRANCH 18 19
ATOM     19  N   ARG B 822       3.350  38.129   8.463  1.00 79.36 LIG-0.35  N 
ATOM     20 H    ARG B 822       3.878  38.602   7.977  1.00 79.36 LIG 0.16  HD
ATOM     21  C   THR B 821       2.945  38.490   9.676  1.00 84.58 LIG 0.24  C 
ATOM     22 O    THR B 821       2.020  37.930  10.273  1.00 84.15 LIG-0.27  OA
BRANCH 21 23
ATOM     23  CA  THR B 821       3.667  39.688  10.281  1.00 89.83 LIG 0.20  C 
BRANCH 23 24
ATOM     24  CB  THR B 821       4.856  39.202  11.119  1.00 88.11 LIG 0.15  C 
ATOM     25  CG2 THR B 821       5.940  38.594  10.237  1.00 89.90 LIG 0.04  C 
BRANCH 24 26
ATOM     26 OG1  THR B 821       5.418  40.305  11.842  1.00 82.62 LIG-0.39  OA
ATOM     27 HG1  THR B 821       6.154  40.076  12.174  1.00 82.62 LIG 0.21  HD
ENDBRANCH 24 26
ENDBRANCH 23 24
BRANCH 23 28
ATOM     28  N   THR B 821       2.757  40.502  11.077  1.00 98.89 LIG-0.34  N 
ATOM     29 H    THR B 821       2.368  40.076  11.715  1.00 98.89 LIG 0.16  HD
ATOM     30  C   ALA B 820       2.557  41.796  10.821  1.00104.93 LIG 0.26  C 
ATOM     31 O    ALA B 820       3.058  42.378   9.855  1.00110.84 LIG-0.27  OA
BRANCH 30 32
ATOM     32  CA  ALA B 820       1.651  42.543  11.796  1.00100.65 LIG 0.40  C 
ATOM     33  N   ALA B 820       0.409  42.935  11.141  1.00102.47 LIG 0.61  N 
ATOM     34  CB  ALA B 820       1.360  41.686  13.021  1.00 93.61 LIG 0.06  C 
ENDBRANCH 30 32
ENDBRANCH 23 28
ENDBRANCH 21 23
ENDBRANCH 18 19
BRANCH 18 35
ATOM     35  CB  ARG B 822       3.234  36.917   6.345  1.00 74.55 LIG 0.04  C 
BRANCH 35 36
ATOM     36  CG  ARG B 822       2.060  37.485   5.577  1.00 89.07 LIG 0.02  C 
BRANCH 36 37
ATOM     37  CD  ARG B 822       2.452  38.444   4.484  1.00 95.35 LIG 0.14  C 
BRANCH 37 38
ATOM     38  NE  ARG B 822       1.452  39.505   4.366  1.00111.05 LIG-0.23  N 
ATOM     39  CZ  ARG B 822       1.639  40.640   3.696  1.00116.06 LIG 0.67  C 
ATOM     40  NH1 ARG B 822       2.789  40.861   3.072  1.00115.06 LIG-0.23  N 
ATOM     41  NH2 ARG B 822       0.668  41.545   3.633  1.00119.10 LIG-0.23  N 
ATOM     42 2HH1 ARG B 822       2.910  41.594   2.640  1.00115.06 LIG 0.17  HD
ATOM     43 1HH1 ARG B 822       3.413  40.270   3.100  1.00115.06 LIG 0.17  HD
ATOM     44 1HH2 ARG B 822      -0.083  41.398   4.024  1.00119.10 LIG 0.17  HD
ATOM     45 2HH2 ARG B 822       0.791  42.278   3.200  1.00119.10 LIG 0.17  HD
ATOM     46 HE   ARG B 822       0.694  39.387   4.755  1.00111.05 LIG 0.18  HD
ENDBRANCH 37 38
ENDBRANCH 36 37
ENDBRANCH 35 36
ENDBRANCH 18 35
ENDBRANCH 16 18
ENDBRANCH 5 14
ENDBRANCH 1 5
BRANCH 3 47
ATOM     47  CA  ARG B 824       3.379  30.207   7.134  1.00 54.21 LIG 0.18  C 
BRANCH 47 48
ATOM     48  CB  ARG B 824       3.928  30.495   5.736  1.00 52.82 LIG 0.04  C 
BRANCH 48 49
ATOM     49  CG  ARG B 824       4.010  29.243   4.875  1.00 57.86 LIG 0.02  C 
BRANCH 49 50
ATOM     50  CD  ARG B 824       3.254  29.385   3.580  1.00 56.10 LIG 0.14  C 
BRANCH 50 51
ATOM     51  NE  ARG B 824       3.944  30.274   2.661  1.00 65.02 LIG-0.23  N 
ATOM     52  CZ  ARG B 824       4.812  29.877   1.745  1.00 62.89 LIG 0.67  C 
ATOM     53  NH1 ARG B 824       5.087  28.587   1.608  1.00 60.33 LIG-0.23  N 
ATOM     54  NH2 ARG B 824       5.383  30.766   0.954  1.00 55.39 LIG-0.23  N 
ATOM     55 1HH1 ARG B 824       4.700  28.009   2.114  1.00 60.33 LIG 0.17  HD
ATOM     56 2HH1 ARG B 824       5.651  28.329   1.012  1.00 60.33 LIG 0.17  HD
ATOM     57 2HH2 ARG B 824       5.948  30.511   0.358  1.00 55.39 LIG 0.17  HD
ATOM     58 1HH2 ARG B 824       5.191  31.601   1.035  1.00 55.39 LIG 0.17  HD
ATOM     59 HE   ARG B 824       3.777  31.116   2.717  1.00 65.02 LIG 0.18  HD
ENDBRANCH 50 51
ENDBRANCH 49 50
ENDBRANCH 48 49
ENDBRANCH 47 48
BRANCH 47 60
ATOM     60  C   ARG B 824       3.896  28.874   7.658  1.00 52.05 LIG 0.24  C 
ATOM     61  N   PRO B 825       3.022  27.995   8.134  1.00 68.51 LIG-0.34  N 
ATOM     62  CA  PRO B 825       3.475  26.752   8.759  1.00 67.77 LIG 0.18  C 
ATOM     63  CD  PRO B 825       1.576  27.959   7.834  1.00 70.13 LIG 0.13  C 
ATOM     64  CB  PRO B 825       2.183  26.166   9.324  1.00 68.40 LIG 0.04  C 
ATOM     65  CG  PRO B 825       1.157  26.575   8.313  1.00 73.68 LIG 0.02  C 
ATOM     66 O    ARG B 824       5.114  28.627   7.619  1.00 51.39 LIG-0.27  OA
BRANCH 62 67
ATOM     67  C   PRO B 825       4.105  25.822   7.737  1.00 71.49 LIG 0.24  C 
ATOM     68  N   ARG B 826       3.797  26.094   6.475  1.00 70.87 LIG-0.35  N 
ATOM     69 H    ARG B 826       3.208  26.674   6.238  1.00 70.87 LIG 0.16  HD
ATOM     70 O    PRO B 825       4.814  24.871   8.066  1.00 73.63 LIG-0.27  OA
BRANCH 68 71
ATOM     71  CA  ARG B 826       4.446  25.415   5.370  1.00 67.47 LIG 0.16  C 
BRANCH 71 72
ATOM     72  CB  ARG B 826       3.976  25.986   4.034  1.00 70.42 LIG 0.04  C 
BRANCH 72 73
ATOM     73  CG  ARG B 826       2.944  25.107   3.363  1.00 69.62 LIG 0.02  C 
BRANCH 73 74
ATOM     74  CD  ARG B 826       1.515  25.373   3.797  1.00 58.43 LIG 0.14  C 
BRANCH 74 75
ATOM     75  NE  ARG B 826       0.685  26.077   2.818  1.00 52.00 LIG-0.23  N 
ATOM     76 HE   ARG B 826       1.074  26.415   2.129  1.00 52.00 LIG 0.18  HD
ATOM     77  CZ  ARG B 826      -0.628  26.227   2.925  1.00 51.94 LIG 0.67  C 
ATOM     78  NH1 ARG B 826      -1.243  25.781   4.013  1.00 56.61 LIG-0.23  N 
ATOM     79  NH2 ARG B 826      -1.310  26.846   1.976  1.00 47.30 LIG-0.23  N 
ATOM     80 2HH1 ARG B 826      -2.094  25.873   4.095  1.00 56.61 LIG 0.17  HD
ATOM     81 1HH1 ARG B 826      -0.790  25.400   4.638  1.00 56.61 LIG 0.17  HD
ATOM     82 1HH2 ARG B 826      -0.903  27.154   1.283  1.00 47.30 LIG 0.17  HD
ATOM     83 2HH2 ARG B 826      -2.161  26.941   2.050  1.00 47.30 LIG 0.17  HD
ENDBRANCH 74 75
ENDBRANCH 73 74
ENDBRANCH 72 73
ENDBRANCH 71 72
BRANCH 71 84
ATOM     84  C   ARG B 826       5.959  25.549   5.486  1.00 71.98 LIG 0.22  C 
ATOM     85 O    ARG B 826       6.699  24.635   5.128  1.00 86.43 LIG-0.29  OA
ENDBRANCH 71 84
ENDBRANCH 68 71
ENDBRANCH 62 67
ENDBRANCH 47 60
ENDBRANCH 3 47
TORSDOF 31
ENDMDL
MODEL 6
USER: ADFR SOLUTION from run 128
USER: SCORE 22.463943 LL:  -3.435 LR: -21.445 RR:   0.000 FEB: -12.198
USER: RMSD 13.554294
USER: SEED 127
USER: STATUS 1 or 2 clusters left
USER: GENES 33
USER: genes 0 Translation |==|  0.46948 0.48818 0.53384
USER: genes 1 Rotation |==|  0.99845 0.50674 0.53488 0.51687
USER: genes 2 Torsion [N]-C--CA-[N] |==|  0.37459
USER: genes 3 Torsion [C]-CA--CB-[CG] |==|  0.28305
USER: genes 4 Torsion [CA]-CB--CG-[CD] |==|  0.06268
USER: genes 5 Torsion [CB]-CG--CD-[CE] |==|  0.18750
USER: genes 6 Torsion [CG]-CD--CE-[NZ] |==|  0.44163
USER: genes 7 Torsion [CD]-CE--NZ-[HZ3] |==|  0.77154
USER: genes 8 Torsion [C]-CA--N-[C] |==|  0.74539
USER: genes 9 Torsion [N]-C--CA-[N] |==|  0.32924
USER: genes 10 Torsion [C]-CA--N-[C] |==|  0.82775
USER: genes 11 Torsion [N]-C--CA-[N] |==|  0.07381
USER: genes 12 Torsion [C]-CA--CB-[CG2] |==|  0.25527
USER: genes 13 Torsion [CA]-CB--OG1-[HG1] |==|  0.41532
USER: genes 14 Torsion [C]-CA--N-[C] |==|  0.61122
USER: genes 15 Torsion [N]-C--CA-[N] |==|  0.55199
USER: genes 16 Torsion [C]-CA--CB-[CG] |==|  0.44506
USER: genes 17 Torsion [CA]-CB--CG-[CD] |==|  0.31936
USER: genes 18 Torsion [CB]-CG--CD-[NE] |==|  0.24843
USER: genes 19 Torsion [CG]-CD--NE-[CZ] |==|  0.44321
USER: genes 20 Torsion [C]-N--CA-[CB] |==|  0.36622
USER: genes 21 Torsion [N]-CA--CB-[CG] |==|  0.64930
USER: genes 22 Torsion [CA]-CB--CG-[CD] |==|  0.44583
USER: genes 23 Torsion [CB]-CG--CD-[NE] |==|  0.38291
USER: genes 24 Torsion [CG]-CD--NE-[HE] |==|  0.21843
USER: genes 25 Torsion [N]-CA--C-[N] |==|  0.36500
USER: genes 26 Torsion [N]-CA--C-[N] |==|  0.41164
USER: genes 27 Torsion [C]-N--CA-[C] |==|  0.18849
USER: genes 28 Torsion [N]-CA--CB-[CG] |==|  0.36122
USER: genes 29 Torsion [CA]-CB--CG-[CD] |==|  0.60723
USER: genes 30 Torsion [CB]-CG--CD-[NE] |==|  0.23686
USER: genes 31 Torsion [CG]-CD--NE-[HE] |==|  0.92278
USER: genes 32 Torsion [N]-CA--C-[O] |==|  0.42110
ROOT
ATOM      1  C   LYS B 823       3.431  34.896   9.239  1.00 58.46 LIG 0.24  C 
ATOM      2 O    LYS B 823       4.631  34.934   8.970  1.00 54.34 LIG-0.27  OA
ATOM      3  N   ARG B 824       2.609  35.910   8.980  1.00 54.22 LIG-0.35  N 
ATOM      4 H    ARG B 824       1.764  35.900   9.143  1.00 54.22 LIG 0.16  HD
ENDROOT
BRANCH 1 5
ATOM      5  CA  LYS B 823       2.808  33.647   9.845  1.00 55.50 LIG 0.18  C 
BRANCH 5 6
ATOM      6  CB  LYS B 823       3.131  33.595  11.344  1.00 54.97 LIG 0.04  C 
BRANCH 6 7
ATOM      7  CG  LYS B 823       2.009  34.017  12.293  1.00 56.27 LIG 0.00  C 
BRANCH 7 8
ATOM      8  CD  LYS B 823       0.664  33.887  11.647  1.00 52.63 LIG 0.03  C 
BRANCH 8 9
ATOM      9  CE  LYS B 823       0.271  32.429  11.374  1.00 52.00 LIG 0.23  C 
BRANCH 9 10
ATOM     10  NZ  LYS B 823      -1.181  32.242  11.213  1.00 59.54 LIG-0.08  N 
ATOM     11 HZ3  LYS B 823      -1.563  32.182  12.015  1.00 59.54 LIG 0.27  HD
ATOM     12 HZ2  LYS B 823      -1.335  31.496  10.755  1.00 59.54 LIG 0.27  HD
ATOM     13 HZ1  LYS B 823      -1.522  32.936  10.773  1.00 59.54 LIG 0.27  HD
ENDBRANCH 9 10
ENDBRANCH 8 9
ENDBRANCH 7 8
ENDBRANCH 6 7
ENDBRANCH 5 6
BRANCH 5 14
ATOM     14  N   LYS B 823       3.321  32.460   9.165  1.00 58.26 LIG-0.35  N 
ATOM     15 H    LYS B 823       4.046  32.141   9.501  1.00 58.26 LIG 0.16  HD
ATOM     16  C   ARG B 822       2.690  31.937   8.107  1.00 61.99 LIG 0.24  C 
ATOM     17 O    ARG B 822       1.552  32.285   7.771  1.00 62.30 LIG-0.27  OA
BRANCH 16 18
ATOM     18  CA  ARG B 822       3.400  30.850   7.305  1.00 69.11 LIG 0.18  C 
BRANCH 18 19
ATOM     19  N   ARG B 822       2.682  29.584   7.306  1.00 79.36 LIG-0.35  N 
ATOM     20 H    ARG B 822       2.428  29.325   6.527  1.00 79.36 LIG 0.16  HD
ATOM     21  C   THR B 821       2.449  28.901   8.422  1.00 84.58 LIG 0.24  C 
ATOM     22 O    THR B 821       3.004  29.155   9.496  1.00 84.15 LIG-0.27  OA
BRANCH 21 23
ATOM     23  CA  THR B 821       1.476  27.736   8.289  1.00 89.83 LIG 0.20  C 
BRANCH 23 24
ATOM     24  CB  THR B 821       1.838  26.647   9.306  1.00 88.11 LIG 0.15  C 
ATOM     25  CG2 THR B 821       1.075  26.835  10.611  1.00 89.90 LIG 0.04  C 
BRANCH 24 26
ATOM     26 OG1  THR B 821       1.515  25.358   8.767  1.00 82.62 LIG-0.39  OA
ATOM     27 HG1  THR B 821       2.046  24.785   9.075  1.00 82.62 LIG 0.21  HD
ENDBRANCH 24 26
ENDBRANCH 23 24
BRANCH 23 28
ATOM     28  N   THR B 821       1.470  27.210   6.930  1.00 98.89 LIG-0.34  N 
ATOM     29 H    THR B 821       2.247  27.170   6.564  1.00 98.89 LIG 0.16  HD
ATOM     30  C   ALA B 820       0.344  26.829   6.324  1.00104.93 LIG 0.26  C 
ATOM     31 O    ALA B 820      -0.773  26.964   6.830  1.00110.84 LIG-0.27  OA
BRANCH 30 32
ATOM     32  CA  ALA B 820       0.503  26.208   4.939  1.00100.65 LIG 0.40  C 
ATOM     33  N   ALA B 820      -0.763  26.244   4.216  1.00102.47 LIG 0.61  N 
ATOM     34  CB  ALA B 820       1.588  26.927   4.150  1.00 93.61 LIG 0.06  C 
ENDBRANCH 30 32
ENDBRANCH 23 28
ENDBRANCH 21 23
ENDBRANCH 18 19
BRANCH 18 35
ATOM     35  CB  ARG B 822       3.658  31.301   5.867  1.00 74.55 LIG 0.04  C 
BRANCH 35 36
ATOM     36  CG  ARG B 822       4.750  30.464   5.236  1.00 89.07 LIG 0.02  C 
BRANCH 36 37
ATOM     37  CD  ARG B 822       4.282  29.619   4.080  1.00 95.35 LIG 0.14  C 
BRANCH 37 38
ATOM     38  NE  ARG B 822       4.400  30.369   2.831  1.00111.05 LIG-0.23  N 
ATOM     39  CZ  ARG B 822       4.446  29.811   1.623  1.00116.06 LIG 0.67  C 
ATOM     40  NH1 ARG B 822       4.374  28.492   1.498  1.00115.06 LIG-0.23  N 
ATOM     41  NH2 ARG B 822       4.542  30.574   0.539  1.00119.10 LIG-0.23  N 
ATOM     42 2HH1 ARG B 822       4.404  28.132   0.718  1.00115.06 LIG 0.17  HD
ATOM     43 1HH1 ARG B 822       4.297  27.998   2.197  1.00115.06 LIG 0.17  HD
ATOM     44 1HH2 ARG B 822       4.574  31.429   0.617  1.00119.10 LIG 0.17  HD
ATOM     45 2HH2 ARG B 822       4.572  30.211  -0.240  1.00119.10 LIG 0.17  HD
ATOM     46 HE   ARG B 822       4.442  31.227   2.880  1.00111.05 LIG 0.18  HD
ENDBRANCH 37 38
ENDBRANCH 36 37
ENDBRANCH 35 36
ENDBRANCH 18 35
ENDBRANCH 16 18
ENDBRANCH 5 14
ENDBRANCH 1 5
BRANCH 3 47
ATOM     47  CA  ARG B 824       3.099  37.148   8.380  1.00 54.21 LIG 0.18  C 
BRANCH 47 48
ATOM     48  CB  ARG B 824       2.225  37.583   7.204  1.00 52.82 LIG 0.04  C 
BRANCH 48 49
ATOM     49  CG  ARG B 824       3.030  37.813   5.933  1.00 57.86 LIG 0.02  C 
BRANCH 49 50
ATOM     50  CD  ARG B 824       2.174  37.776   4.694  1.00 56.10 LIG 0.14  C 
BRANCH 50 51
ATOM     51  NE  ARG B 824       2.545  38.832   3.767  1.00 65.02 LIG-0.23  N 
ATOM     52  CZ  ARG B 824       1.880  39.966   3.621  1.00 62.89 LIG 0.67  C 
ATOM     53  NH1 ARG B 824       0.807  40.206   4.362  1.00 60.33 LIG-0.23  N 
ATOM     54  NH2 ARG B 824       2.303  40.866   2.752  1.00 55.39 LIG-0.23  N 
ATOM     55 1HH1 ARG B 824       0.544  39.625   4.938  1.00 60.33 LIG 0.17  HD
ATOM     56 2HH1 ARG B 824       0.375  40.944   4.266  1.00 60.33 LIG 0.17  HD
ATOM     57 2HH2 ARG B 824       1.872  41.605   2.654  1.00 55.39 LIG 0.17  HD
ATOM     58 1HH2 ARG B 824       3.008  40.714   2.284  1.00 55.39 LIG 0.17  HD
ATOM     59 HE   ARG B 824       3.244  38.712   3.281  1.00 65.02 LIG 0.18  HD
ENDBRANCH 50 51
ENDBRANCH 49 50
ENDBRANCH 48 49
ENDBRANCH 47 48
BRANCH 47 60
ATOM     60  C   ARG B 824       3.199  38.255   9.422  1.00 52.05 LIG 0.24  C 
ATOM     61  N   PRO B 825       4.321  38.962   9.494  1.00 68.51 LIG-0.34  N 
ATOM     62  CA  PRO B 825       4.514  39.952  10.553  1.00 67.77 LIG 0.18  C 
ATOM     63  CD  PRO B 825       5.325  39.109   8.421  1.00 70.13 LIG 0.13  C 
ATOM     64  CB  PRO B 825       5.975  40.361  10.373  1.00 68.40 LIG 0.04  C 
ATOM     65  CG  PRO B 825       6.164  40.290   8.890  1.00 73.68 LIG 0.02  C 
ATOM     66 O    ARG B 824       2.234  38.484  10.172  1.00 51.39 LIG-0.27  OA
BRANCH 62 67
ATOM     67  C   PRO B 825       3.581  41.138  10.374  1.00 71.49 LIG 0.24  C 
ATOM     68  N   ARG B 826       3.191  41.711  11.506  1.00 70.87 LIG-0.35  N 
ATOM     69 H    ARG B 826       3.352  41.391  12.288  1.00 70.87 LIG 0.16  HD
ATOM     70 O    PRO B 825       3.195  41.506   9.265  1.00 73.63 LIG-0.27  OA
BRANCH 68 71
ATOM     71  CA  ARG B 826       2.443  42.954  11.510  1.00 67.47 LIG 0.16  C 
BRANCH 71 72
ATOM     72  CB  ARG B 826       3.177  44.028  10.710  1.00 70.42 LIG 0.04  C 
BRANCH 72 73
ATOM     73  CG  ARG B 826       2.280  44.711   9.702  1.00 69.62 LIG 0.02  C 
BRANCH 73 74
ATOM     74  CD  ARG B 826       2.949  45.026   8.378  1.00 58.43 LIG 0.14  C 
BRANCH 74 75
ATOM     75  NE  ARG B 826       2.947  43.936   7.402  1.00 52.00 LIG-0.23  N 
ATOM     76 HE   ARG B 826       2.928  43.129   7.699  1.00 52.00 LIG 0.18  HD
ATOM     77  CZ  ARG B 826       2.973  44.113   6.088  1.00 51.94 LIG 0.67  C 
ATOM     78  NH1 ARG B 826       3.078  45.344   5.603  1.00 56.61 LIG-0.23  N 
ATOM     79  NH2 ARG B 826       2.932  43.072   5.272  1.00 47.30 LIG-0.23  N 
ATOM     80 2HH1 ARG B 826       3.096  45.471   4.752  1.00 56.61 LIG 0.17  HD
ATOM     81 1HH1 ARG B 826       3.128  46.014   6.140  1.00 56.61 LIG 0.17  HD
ATOM     82 1HH2 ARG B 826       2.887  42.275   5.592  1.00 47.30 LIG 0.17  HD
ATOM     83 2HH2 ARG B 826       2.948  43.192   4.421  1.00 47.30 LIG 0.17  HD
ENDBRANCH 74 75
ENDBRANCH 73 74
ENDBRANCH 72 73
ENDBRANCH 71 72
BRANCH 71 84
ATOM     84  C   ARG B 826       1.053  42.734  10.927  1.00 71.98 LIG 0.22  C 
ATOM     85 O    ARG B 826       0.106  43.434  11.280  1.00 86.43 LIG-0.29  OA
ENDBRANCH 71 84
ENDBRANCH 68 71
ENDBRANCH 62 67
ENDBRANCH 47 60
ENDBRANCH 3 47
TORSDOF 31
ENDMDL
MODEL 7
USER: ADFR SOLUTION from run 152
USER: SCORE 23.918802 LL:  -3.835 LR: -21.438 RR:   0.000 FEB: -12.190
USER: RMSD 6.504520
USER: SEED 151
USER: STATUS no improvement in best in 3 clusters for 5 generations
USER: GENES 33
USER: genes 0 Translation |==|  0.43947 0.39744 0.49135
USER: genes 1 Rotation |==|  0.49779 0.99507 0.56307 0.53044
USER: genes 2 Torsion [N]-C--CA-[N] |==|  0.40060
USER: genes 3 Torsion [C]-CA--CB-[CG] |==|  0.94403
USER: genes 4 Torsion [CA]-CB--CG-[CD] |==|  0.57295
USER: genes 5 Torsion [CB]-CG--CD-[CE] |==|  0.25623
USER: genes 6 Torsion [CG]-CD--CE-[NZ] |==|  0.21884
USER: genes 7 Torsion [CD]-CE--NZ-[HZ3] |==|  0.40012
USER: genes 8 Torsion [C]-CA--N-[C] |==|  0.61243
USER: genes 9 Torsion [N]-C--CA-[N] |==|  0.37622
USER: genes 10 Torsion [C]-CA--N-[C] |==|  0.84117
USER: genes 11 Torsion [N]-C--CA-[N] |==|  0.90047
USER: genes 12 Torsion [C]-CA--CB-[CG2] |==|  0.41982
USER: genes 13 Torsion [CA]-CB--OG1-[HG1] |==|  0.40121
USER: genes 14 Torsion [C]-CA--N-[C] |==|  0.80886
USER: genes 15 Torsion [N]-C--CA-[N] |==|  0.73465
USER: genes 16 Torsion [C]-CA--CB-[CG] |==|  0.38024
USER: genes 17 Torsion [CA]-CB--CG-[CD] |==|  0.24786
USER: genes 18 Torsion [CB]-CG--CD-[NE] |==|  0.55782
USER: genes 19 Torsion [CG]-CD--NE-[CZ] |==|  0.72486
USER: genes 20 Torsion [C]-N--CA-[CB] |==|  0.26060
USER: genes 21 Torsion [N]-CA--CB-[CG] |==|  0.44494
USER: genes 22 Torsion [CA]-CB--CG-[CD] |==|  0.34980
USER: genes 23 Torsion [CB]-CG--CD-[NE] |==|  0.19867
USER: genes 24 Torsion [CG]-CD--NE-[HE] |==|  0.75735
USER: genes 25 Torsion [N]-CA--C-[N] |==|  0.29926
USER: genes 26 Torsion [N]-CA--C-[N] |==|  0.95432
USER: genes 27 Torsion [C]-N--CA-[C] |==|  0.83986
USER: genes 28 Torsion [N]-CA--CB-[CG] |==|  0.71982
USER: genes 29 Torsion [CA]-CB--CG-[CD] |==|  0.24321
USER: genes 30 Torsion [CB]-CG--CD-[NE] |==|  0.29250
USER: genes 31 Torsion [CG]-CD--NE-[HE] |==|  0.97154
USER: genes 32 Torsion [N]-CA--C-[O] |==|  0.40310
ROOT
ATOM      1  C   LYS B 823       2.801  32.242   8.315  1.00 58.46 LIG 0.24  C 
ATOM      2 O    LYS B 823       1.710  32.329   7.753  1.00 54.34 LIG-0.27  OA
ATOM      3  N   ARG B 824       3.647  31.242   8.081  1.00 54.22 LIG-0.35  N 
ATOM      4 H    ARG B 824       4.422  31.169   8.449  1.00 54.22 LIG 0.16  HD
ENDROOT
BRANCH 1 5
ATOM      5  CA  LYS B 823       3.266  33.321   9.282  1.00 55.50 LIG 0.18  C 
BRANCH 5 6
ATOM      6  CB  LYS B 823       2.758  32.991  10.692  1.00 54.97 LIG 0.04  C 
BRANCH 6 7
ATOM      7  CG  LYS B 823       1.574  32.028  10.777  1.00 56.27 LIG 0.00  C 
BRANCH 7 8
ATOM      8  CD  LYS B 823       0.775  32.247  12.024  1.00 52.63 LIG 0.03  C 
BRANCH 8 9
ATOM      9  CE  LYS B 823      -0.388  33.228  11.824  1.00 52.00 LIG 0.23  C 
BRANCH 9 10
ATOM     10  NZ  LYS B 823      -1.553  32.617  11.163  1.00 59.54 LIG-0.08  N 
ATOM     11 HZ3  LYS B 823      -2.302  32.960  11.503  1.00 59.54 LIG 0.27  HD
ATOM     12 HZ2  LYS B 823      -1.543  31.738  11.297  1.00 59.54 LIG 0.27  HD
ATOM     13 HZ1  LYS B 823      -1.521  32.784  10.289  1.00 59.54 LIG 0.27  HD
ENDBRANCH 9 10
ENDBRANCH 8 9
ENDBRANCH 7 8
ENDBRANCH 6 7
ENDBRANCH 5 6
BRANCH 5 14
ATOM     14  N   LYS B 823       2.769  34.623   8.846  1.00 58.26 LIG-0.35  N 
ATOM     15 H    LYS B 823       1.962  34.617   8.550  1.00 58.26 LIG 0.16  HD
ATOM     16  C   ARG B 822       3.535  35.719   8.914  1.00 61.99 LIG 0.24  C 
ATOM     17 O    ARG B 822       4.608  35.743   9.527  1.00 62.30 LIG-0.27  OA
BRANCH 16 18
ATOM     18  CA  ARG B 822       3.044  36.990   8.227  1.00 69.11 LIG 0.18  C 
BRANCH 18 19
ATOM     19  N   ARG B 822       3.209  38.179   9.049  1.00 79.36 LIG-0.35  N 
ATOM     20 H    ARG B 822       3.680  38.797   8.682  1.00 79.36 LIG 0.16  HD
ATOM     21  C   THR B 821       2.672  38.285  10.260  1.00 84.58 LIG 0.24  C 
ATOM     22 O    THR B 821       1.817  37.502  10.690  1.00 84.15 LIG-0.27  OA
BRANCH 21 23
ATOM     23  CA  THR B 821       3.141  39.476  11.086  1.00 89.83 LIG 0.20  C 
BRANCH 23 24
ATOM     24  CB  THR B 821       2.266  40.695  10.774  1.00 88.11 LIG 0.15  C 
ATOM     25  CG2 THR B 821       2.180  41.634  11.972  1.00 89.90 LIG 0.04  C 
BRANCH 24 26
ATOM     26 OG1  THR B 821       2.819  41.414   9.665  1.00 82.62 LIG-0.39  OA
ATOM     27 HG1  THR B 821       2.197  41.729   9.196  1.00 82.62 LIG 0.21  HD
ENDBRANCH 24 26
ENDBRANCH 23 24
BRANCH 23 28
ATOM     28  N   THR B 821       4.550  39.760  10.845  1.00 98.89 LIG-0.34  N 
ATOM     29 H    THR B 821       4.694  40.496  10.424  1.00 98.89 LIG 0.16  HD
ATOM     30  C   ALA B 820       5.518  38.936  11.249  1.00104.93 LIG 0.26  C 
ATOM     31 O    ALA B 820       5.296  37.845  11.781  1.00110.84 LIG-0.27  OA
BRANCH 30 32
ATOM     32  CA  ALA B 820       6.949  39.411  11.012  1.00100.65 LIG 0.40  C 
ATOM     33  N   ALA B 820       7.470  38.858   9.768  1.00102.47 LIG 0.61  N 
ATOM     34  CB  ALA B 820       7.011  40.932  10.986  1.00 93.61 LIG 0.06  C 
ENDBRANCH 30 32
ENDBRANCH 23 28
ENDBRANCH 21 23
ENDBRANCH 18 19
BRANCH 18 35
ATOM     35  CB  ARG B 822       3.731  37.191   6.877  1.00 74.55 LIG 0.04  C 
BRANCH 35 36
ATOM     36  CG  ARG B 822       2.728  37.628   5.830  1.00 89.07 LIG 0.02  C 
BRANCH 36 37
ATOM     37  CD  ARG B 822       2.550  39.120   5.739  1.00 95.35 LIG 0.14  C 
BRANCH 37 38
ATOM     38  NE  ARG B 822       1.270  39.434   5.104  1.00111.05 LIG-0.23  N 
ATOM     39  CZ  ARG B 822       1.130  39.762   3.822  1.00116.06 LIG 0.67  C 
ATOM     40  NH1 ARG B 822       2.194  39.810   3.029  1.00115.06 LIG-0.23  N 
ATOM     41  NH2 ARG B 822      -0.075  40.021   3.327  1.00119.10 LIG-0.23  N 
ATOM     42 2HH1 ARG B 822       2.103  40.023   2.201  1.00115.06 LIG 0.17  HD
ATOM     43 1HH1 ARG B 822       2.973  39.629   3.344  1.00115.06 LIG 0.17  HD
ATOM     44 1HH2 ARG B 822      -0.767  39.976   3.835  1.00119.10 LIG 0.17  HD
ATOM     45 2HH2 ARG B 822      -0.163  40.234   2.498  1.00119.10 LIG 0.17  HD
ATOM     46 HE   ARG B 822       0.563  39.405   5.592  1.00111.05 LIG 0.18  HD
ENDBRANCH 37 38
ENDBRANCH 36 37
ENDBRANCH 35 36
ENDBRANCH 18 35
ENDBRANCH 16 18
ENDBRANCH 5 14
ENDBRANCH 1 5
BRANCH 3 47
ATOM     47  CA  ARG B 824       3.308  30.164   7.155  1.00 54.21 LIG 0.18  C 
BRANCH 47 48
ATOM     48  CB  ARG B 824       3.839  30.450   5.750  1.00 52.82 LIG 0.04  C 
BRANCH 48 49
ATOM     49  CG  ARG B 824       3.939  29.191   4.899  1.00 57.86 LIG 0.02  C 
BRANCH 49 50
ATOM     50  CD  ARG B 824       3.208  29.322   3.589  1.00 56.10 LIG 0.14  C 
BRANCH 50 51
ATOM     51  NE  ARG B 824       3.904  30.224   2.686  1.00 65.02 LIG-0.23  N 
ATOM     52  CZ  ARG B 824       4.794  29.842   1.786  1.00 62.89 LIG 0.67  C 
ATOM     53  NH1 ARG B 824       5.089  28.557   1.649  1.00 60.33 LIG-0.23  N 
ATOM     54  NH2 ARG B 824       5.367  30.742   1.008  1.00 55.39 LIG-0.23  N 
ATOM     55 1HH1 ARG B 824       4.702  27.972   2.146  1.00 60.33 LIG 0.17  HD
ATOM     56 2HH1 ARG B 824       5.668  28.309   1.064  1.00 60.33 LIG 0.17  HD
ATOM     57 2HH2 ARG B 824       5.947  30.497   0.422  1.00 55.39 LIG 0.17  HD
ATOM     58 1HH2 ARG B 824       5.162  31.574   1.088  1.00 55.39 LIG 0.17  HD
ATOM     59 HE   ARG B 824       3.724  31.064   2.741  1.00 65.02 LIG 0.18  HD
ENDBRANCH 50 51
ENDBRANCH 49 50
ENDBRANCH 48 49
ENDBRANCH 47 48
BRANCH 47 60
ATOM     60  C   ARG B 824       3.819  28.825   7.669  1.00 52.05 LIG 0.24  C 
ATOM     61  N   PRO B 825       2.940  27.944   8.133  1.00 68.51 LIG-0.34  N 
ATOM     62  CA  PRO B 825       3.388  26.694   8.748  1.00 67.77 LIG 0.18  C 
ATOM     63  CD  PRO B 825       1.496  27.914   7.827  1.00 70.13 LIG 0.13  C 
ATOM     64  CB  PRO B 825       2.091  26.106   9.302  1.00 68.40 LIG 0.04  C 
ATOM     65  CG  PRO B 825       1.071  26.527   8.291  1.00 73.68 LIG 0.02  C 
ATOM     66 O    ARG B 824       5.037  28.575   7.632  1.00 51.39 LIG-0.27  OA
BRANCH 62 67
ATOM     67  C   PRO B 825       4.020  25.771   7.720  1.00 71.49 LIG 0.24  C 
ATOM     68  N   ARG B 826       3.752  26.082   6.458  1.00 70.87 LIG-0.35  N 
ATOM     69 H    ARG B 826       3.186  26.684   6.220  1.00 70.87 LIG 0.16  HD
ATOM     70 O    PRO B 825       4.694  24.794   8.044  1.00 73.63 LIG-0.27  OA
BRANCH 68 71
ATOM     71  CA  ARG B 826       4.413  25.412   5.354  1.00 67.47 LIG 0.16  C 
BRANCH 71 72
ATOM     72  CB  ARG B 826       3.930  25.971   4.017  1.00 70.42 LIG 0.04  C 
BRANCH 72 73
ATOM     73  CG  ARG B 826       2.906  25.078   3.354  1.00 69.62 LIG 0.02  C 
BRANCH 73 74
ATOM     74  CD  ARG B 826       1.473  25.348   3.773  1.00 58.43 LIG 0.14  C 
BRANCH 74 75
ATOM     75  NE  ARG B 826       0.653  26.047   2.781  1.00 52.00 LIG-0.23  N 
ATOM     76 HE   ARG B 826       1.049  26.380   2.094  1.00 52.00 LIG 0.18  HD
ATOM     77  CZ  ARG B 826      -0.660  26.201   2.876  1.00 51.94 LIG 0.67  C 
ATOM     78  NH1 ARG B 826      -1.286  25.763   3.961  1.00 56.61 LIG-0.23  N 
ATOM     79  NH2 ARG B 826      -1.333  26.814   1.916  1.00 47.30 LIG-0.23  N 
ATOM     80 2HH1 ARG B 826      -2.138  25.857   4.034  1.00 56.61 LIG 0.17  HD
ATOM     81 1HH1 ARG B 826      -0.839  25.385   4.592  1.00 56.61 LIG 0.17  HD
ATOM     82 1HH2 ARG B 826      -0.919  27.116   1.225  1.00 47.30 LIG 0.17  HD
ATOM     83 2HH2 ARG B 826      -2.185  26.910   1.982  1.00 47.30 LIG 0.17  HD
ENDBRANCH 74 75
ENDBRANCH 73 74
ENDBRANCH 72 73
ENDBRANCH 71 72
BRANCH 71 84
ATOM     84  C   ARG B 826       5.923  25.573   5.468  1.00 71.98 LIG 0.22  C 
ATOM     85 O    ARG B 826       6.679  24.670   5.114  1.00 86.43 LIG-0.29  OA
ENDBRANCH 71 84
ENDBRANCH 68 71
ENDBRANCH 62 67
ENDBRANCH 47 60
ENDBRANCH 3 47
TORSDOF 31
ENDMDL
MODEL 8
USER: ADFR SOLUTION from run 158
USER: SCORE 23.456098 LL:  -3.135 LR: -21.297 RR:   0.000 FEB: -12.050
USER: RMSD 13.243062
USER: SEED 157
USER: STATUS no improvement in best in 5 clusters for 5 generations
USER: GENES 33
USER: genes 0 Translation |==|  0.48376 0.49783 0.47629
USER: genes 1 Rotation |==|  0.00937 0.50110 0.40484 0.51489
USER: genes 2 Torsion [N]-C--CA-[N] |==|  0.41708
USER: genes 3 Torsion [C]-CA--CB-[CG] |==|  0.35044
USER: genes 4 Torsion [CA]-CB--CG-[CD] |==|  0.36828
USER: genes 5 Torsion [CB]-CG--CD-[CE] |==|  0.40571
USER: genes 6 Torsion [CG]-CD--CE-[NZ] |==|  0.19105
USER: genes 7 Torsion [CD]-CE--NZ-[HZ3] |==|  0.80100
USER: genes 8 Torsion [C]-CA--N-[C] |==|  0.64865
USER: genes 9 Torsion [N]-C--CA-[N] |==|  0.45636
USER: genes 10 Torsion [C]-CA--N-[C] |==|  0.60235
USER: genes 11 Torsion [N]-C--CA-[N] |==|  0.87361
USER: genes 12 Torsion [C]-CA--CB-[CG2] |==|  0.80606
USER: genes 13 Torsion [CA]-CB--OG1-[HG1] |==|  0.37001
USER: genes 14 Torsion [C]-CA--N-[C] |==|  0.79444
USER: genes 15 Torsion [N]-C--CA-[N] |==|  0.17694
USER: genes 16 Torsion [C]-CA--CB-[CG] |==|  0.60876
USER: genes 17 Torsion [CA]-CB--CG-[CD] |==|  0.47714
USER: genes 18 Torsion [CB]-CG--CD-[NE] |==|  0.68630
USER: genes 19 Torsion [CG]-CD--NE-[CZ] |==|  0.81351
USER: genes 20 Torsion [C]-N--CA-[CB] |==|  0.49187
USER: genes 21 Torsion [N]-CA--CB-[CG] |==|  0.85449
USER: genes 22 Torsion [CA]-CB--CG-[CD] |==|  0.71300
USER: genes 23 Torsion [CB]-CG--CD-[NE] |==|  0.71660
USER: genes 24 Torsion [CG]-CD--NE-[HE] |==|  0.92358
USER: genes 25 Torsion [N]-CA--C-[N] |==|  0.47089
USER: genes 26 Torsion [N]-CA--C-[N] |==|  0.96131
USER: genes 27 Torsion [C]-N--CA-[C] |==|  0.75710
USER: genes 28 Torsion [N]-CA--CB-[CG] |==|  0.74850
USER: genes 29 Torsion [CA]-CB--CG-[CD] |==|  0.65913
USER: genes 30 Torsion [CB]-CG--CD-[NE] |==|  0.82587
USER: genes 31 Torsion [CG]-CD--NE-[HE] |==|  0.32003
USER: genes 32 Torsion [N]-CA--C-[O] |==|  0.88484
ROOT
ATOM      1  C   LYS B 823       3.731  35.178   7.987  1.00 58.46 LIG 0.24  C 
ATOM      2 O    LYS B 823       4.960  35.215   8.020  1.00 54.34 LIG-0.27  OA
ATOM      3  N   ARG B 824       2.993  36.241   7.675  1.00 54.22 LIG-0.35  N 
ATOM      4 H    ARG B 824       2.134  36.235   7.629  1.00 54.22 LIG 0.16  HD
ENDROOT
BRANCH 1 5
ATOM      5  CA  LYS B 823       2.984  33.881   8.257  1.00 55.50 LIG 0.18  C 
BRANCH 5 6
ATOM      6  CB  LYS B 823       2.601  33.816   9.741  1.00 54.97 LIG 0.04  C 
BRANCH 6 7
ATOM      7  CG  LYS B 823       1.123  33.573  10.050  1.00 56.27 LIG 0.00  C 
BRANCH 7 8
ATOM      8  CD  LYS B 823       0.944  32.503  11.082  1.00 52.63 LIG 0.03  C 
BRANCH 8 9
ATOM      9  CE  LYS B 823      -0.261  32.753  11.998  1.00 52.00 LIG 0.23  C 
BRANCH 9 10
ATOM     10  NZ  LYS B 823      -1.553  32.617  11.305  1.00 59.54 LIG-0.08  N 
ATOM     11 HZ3  LYS B 823      -1.668  33.307  10.753  1.00 59.54 LIG 0.27  HD
ATOM     12 HZ2  LYS B 823      -2.211  32.603  11.903  1.00 59.54 LIG 0.27  HD
ATOM     13 HZ1  LYS B 823      -1.560  31.859  10.838  1.00 59.54 LIG 0.27  HD
ENDBRANCH 9 10
ENDBRANCH 8 9
ENDBRANCH 7 8
ENDBRANCH 6 7
ENDBRANCH 5 6
BRANCH 5 14
ATOM     14  N   LYS B 823       3.822  32.743   7.890  1.00 58.26 LIG-0.35  N 
ATOM     15 H    LYS B 823       4.601  32.741   8.252  1.00 58.26 LIG 0.16  HD
ATOM     16  C   ARG B 822       3.382  31.795   7.052  1.00 61.99 LIG 0.24  C 
ATOM     17 O    ARG B 822       2.197  31.710   6.708  1.00 62.30 LIG-0.27  OA
BRANCH 16 18
ATOM     18  CA  ARG B 822       4.382  30.770   6.528  1.00 69.11 LIG 0.18  C 
BRANCH 18 19
ATOM     19  N   ARG B 822       3.743  29.604   5.938  1.00 79.36 LIG-0.35  N 
ATOM     20 H    ARG B 822       3.023  29.780   5.502  1.00 79.36 LIG 0.16  HD
ATOM     21  C   THR B 821       4.241  28.379   6.069  1.00 84.58 LIG 0.24  C 
ATOM     22 O    THR B 821       5.380  28.156   6.494  1.00 84.15 LIG-0.27  OA
BRANCH 21 23
ATOM     23  CA  THR B 821       3.331  27.245   5.614  1.00 89.83 LIG 0.20  C 
BRANCH 23 24
ATOM     24  CB  THR B 821       3.358  27.147   4.084  1.00 88.11 LIG 0.15  C 
ATOM     25  CG2 THR B 821       2.659  28.339   3.442  1.00 89.90 LIG 0.04  C 
BRANCH 24 26
ATOM     26 OG1  THR B 821       4.717  27.112   3.628  1.00 82.62 LIG-0.39  OA
ATOM     27 HG1  THR B 821       4.807  26.497   3.063  1.00 82.62 LIG 0.21  HD
ENDBRANCH 24 26
ENDBRANCH 23 24
BRANCH 23 28
ATOM     28  N   THR B 821       1.972  27.432   6.107  1.00 98.89 LIG-0.34  N 
ATOM     29 H    THR B 821       1.410  27.683   5.506  1.00 98.89 LIG 0.16  HD
ATOM     30  C   ALA B 820       1.649  27.226   7.384  1.00104.93 LIG 0.26  C 
ATOM     31 O    ALA B 820       2.478  26.943   8.253  1.00110.84 LIG-0.27  OA
BRANCH 30 32
ATOM     32  CA  ALA B 820       0.170  27.367   7.735  1.00100.65 LIG 0.40  C 
ATOM     33  N   ALA B 820      -0.618  26.356   7.041  1.00102.47 LIG 0.61  N 
ATOM     34  CB  ALA B 820      -0.036  27.262   9.240  1.00 93.61 LIG 0.06  C 
ENDBRANCH 30 32
ENDBRANCH 23 28
ENDBRANCH 21 23
ENDBRANCH 18 19
BRANCH 18 35
ATOM     35  CB  ARG B 822       5.346  31.399   5.522  1.00 74.55 LIG 0.04  C 
BRANCH 35 36
ATOM     36  CG  ARG B 822       5.624  30.443   4.382  1.00 89.07 LIG 0.02  C 
BRANCH 36 37
ATOM     37  CD  ARG B 822       6.407  31.053   3.250  1.00 95.35 LIG 0.14  C 
BRANCH 37 38
ATOM     38  NE  ARG B 822       5.572  31.140   2.053  1.00111.05 LIG-0.23  N 
ATOM     39  CZ  ARG B 822       5.127  30.087   1.370  1.00116.06 LIG 0.67  C 
ATOM     40  NH1 ARG B 822       5.430  28.860   1.773  1.00115.06 LIG-0.23  N 
ATOM     41  NH2 ARG B 822       4.362  30.262   0.298  1.00119.10 LIG-0.23  N 
ATOM     42 2HH1 ARG B 822       5.143  28.180   1.332  1.00115.06 LIG 0.17  HD
ATOM     43 1HH1 ARG B 822       5.913  28.744   2.475  1.00115.06 LIG 0.17  HD
ATOM     44 1HH2 ARG B 822       4.152  31.056   0.044  1.00119.10 LIG 0.17  HD
ATOM     45 2HH2 ARG B 822       4.076  29.580  -0.141  1.00119.10 LIG 0.17  HD
ATOM     46 HE   ARG B 822       5.354  31.923   1.772  1.00111.05 LIG 0.18  HD
ENDBRANCH 37 38
ENDBRANCH 36 37
ENDBRANCH 35 36
ENDBRANCH 18 35
ENDBRANCH 16 18
ENDBRANCH 5 14
ENDBRANCH 1 5
BRANCH 3 47
ATOM     47  CA  ARG B 824       3.611  37.531   7.378  1.00 54.21 LIG 0.18  C 
BRANCH 47 48
ATOM     48  CB  ARG B 824       2.564  38.571   6.978  1.00 52.82 LIG 0.04  C 
BRANCH 48 49
ATOM     49  CG  ARG B 824       1.656  38.083   5.859  1.00 57.86 LIG 0.02  C 
BRANCH 49 50
ATOM     50  CD  ARG B 824       2.011  38.687   4.525  1.00 56.10 LIG 0.14  C 
BRANCH 50 51
ATOM     51  NE  ARG B 824       1.096  39.759   4.172  1.00 65.02 LIG-0.23  N 
ATOM     52  CZ  ARG B 824       1.406  40.782   3.393  1.00 62.89 LIG 0.67  C 
ATOM     53  NH1 ARG B 824       2.617  40.867   2.861  1.00 60.33 LIG-0.23  N 
ATOM     54  NH2 ARG B 824       0.498  41.704   3.129  1.00 55.39 LIG-0.23  N 
ATOM     55 1HH1 ARG B 824       3.201  40.256   3.022  1.00 60.33 LIG 0.17  HD
ATOM     56 2HH1 ARG B 824       2.818  41.533   2.355  1.00 60.33 LIG 0.17  HD
ATOM     57 2HH2 ARG B 824       0.697  42.370   2.623  1.00 55.39 LIG 0.17  HD
ATOM     58 1HH2 ARG B 824      -0.292  41.638   3.463  1.00 55.39 LIG 0.17  HD
ATOM     59 HE   ARG B 824       0.298  39.726   4.491  1.00 65.02 LIG 0.18  HD
ENDBRANCH 50 51
ENDBRANCH 49 50
ENDBRANCH 48 49
ENDBRANCH 47 48
BRANCH 47 60
ATOM     60  C   ARG B 824       4.442  38.020   8.556  1.00 52.05 LIG 0.24  C 
ATOM     61  N   PRO B 825       5.239  39.067   8.382  1.00 68.51 LIG-0.34  N 
ATOM     62  CA  PRO B 825       6.147  39.501   9.444  1.00 67.77 LIG 0.18  C 
ATOM     63  CD  PRO B 825       5.112  40.088   7.323  1.00 70.13 LIG 0.13  C 
ATOM     64  CB  PRO B 825       6.987  40.575   8.754  1.00 68.40 LIG 0.04  C 
ATOM     65  CG  PRO B 825       6.011  41.214   7.816  1.00 73.68 LIG 0.02  C 
ATOM     66 O    ARG B 824       4.351  37.444   9.655  1.00 51.39 LIG-0.27  OA
BRANCH 62 67
ATOM     67  C   PRO B 825       5.379  40.072  10.624  1.00 71.49 LIG 0.24  C 
ATOM     68  N   ARG B 826       4.103  40.342  10.377  1.00 70.87 LIG-0.35  N 
ATOM     69 H    ARG B 826       3.747  40.308   9.595  1.00 70.87 LIG 0.16  HD
ATOM     70 O    PRO B 825       5.917  40.296  11.709  1.00 73.63 LIG-0.27  OA
BRANCH 68 71
ATOM     71  CA  ARG B 826       3.189  40.728  11.435  1.00 67.47 LIG 0.16  C 
BRANCH 71 72
ATOM     72  CB  ARG B 826       2.088  41.637  10.892  1.00 70.42 LIG 0.04  C 
BRANCH 72 73
ATOM     73  CG  ARG B 826       2.457  43.101  10.972  1.00 69.62 LIG 0.02  C 
BRANCH 73 74
ATOM     74  CD  ARG B 826       1.480  43.952  11.762  1.00 58.43 LIG 0.14  C 
BRANCH 74 75
ATOM     75  NE  ARG B 826       0.125  44.020  11.214  1.00 52.00 LIG-0.23  N 
ATOM     76 HE   ARG B 826      -0.515  43.682  11.679  1.00 52.00 LIG 0.18  HD
ATOM     77  CZ  ARG B 826      -0.179  44.568  10.046  1.00 51.94 LIG 0.67  C 
ATOM     78  NH1 ARG B 826       0.797  45.031   9.274  1.00 56.61 LIG-0.23  N 
ATOM     79  NH2 ARG B 826      -1.437  44.623   9.639  1.00 47.30 LIG-0.23  N 
ATOM     80 2HH1 ARG B 826       0.612  45.389   8.514  1.00 56.61 LIG 0.17  HD
ATOM     81 1HH1 ARG B 826       1.615  44.972   9.534  1.00 56.61 LIG 0.17  HD
ATOM     82 1HH2 ARG B 826      -2.063  44.301  10.133  1.00 47.30 LIG 0.17  HD
ATOM     83 2HH2 ARG B 826      -1.629  44.980   8.881  1.00 47.30 LIG 0.17  HD
ENDBRANCH 74 75
ENDBRANCH 73 74
ENDBRANCH 72 73
ENDBRANCH 71 72
BRANCH 71 84
ATOM     84  C   ARG B 826       2.572  39.491  12.074  1.00 71.98 LIG 0.22  C 
ATOM     85 O    ARG B 826       2.207  38.543  11.382  1.00 86.43 LIG-0.29  OA
ENDBRANCH 71 84
ENDBRANCH 68 71
ENDBRANCH 62 67
ENDBRANCH 47 60
ENDBRANCH 3 47
TORSDOF 31
ENDMDL
MODEL 9
USER: ADFR SOLUTION from run 66
USER: SCORE 23.681676 LL:  -3.205 LR: -21.286 RR:   0.000 FEB: -12.039
USER: RMSD 5.015603
USER: SEED 65
USER: STATUS 1 or 2 clusters left
USER: GENES 33
USER: genes 0 Translation |==|  0.44848 0.52603 0.40741
USER: genes 1 Rotation |==|  0.41192 0.93288 0.36440 0.69097
USER: genes 2 Torsion [N]-C--CA-[N] |==|  0.14485
USER: genes 3 Torsion [C]-CA--CB-[CG] |==|  0.50018
USER: genes 4 Torsion [CA]-CB--CG-[CD] |==|  0.54402
USER: genes 5 Torsion [CB]-CG--CD-[CE] |==|  0.55849
USER: genes 6 Torsion [CG]-CD--CE-[NZ] |==|  0.15441
USER: genes 7 Torsion [CD]-CE--NZ-[HZ3] |==|  0.10202
USER: genes 8 Torsion [C]-CA--N-[C] |==|  0.76525
USER: genes 9 Torsion [N]-C--CA-[N] |==|  0.96975
USER: genes 10 Torsion [C]-CA--N-[C] |==|  0.82222
USER: genes 11 Torsion [N]-C--CA-[N] |==|  0.45154
USER: genes 12 Torsion [C]-CA--CB-[CG2] |==|  0.21250
USER: genes 13 Torsion [CA]-CB--OG1-[HG1] |==|  0.30989
USER: genes 14 Torsion [C]-CA--N-[C] |==|  0.56074
USER: genes 15 Torsion [N]-C--CA-[N] |==|  0.26334
USER: genes 16 Torsion [C]-CA--CB-[CG] |==|  0.98992
USER: genes 17 Torsion [CA]-CB--CG-[CD] |==|  0.80418
USER: genes 18 Torsion [CB]-CG--CD-[NE] |==|  0.80921
USER: genes 19 Torsion [CG]-CD--NE-[CZ] |==|  0.58470
USER: genes 20 Torsion [C]-N--CA-[CB] |==|  0.75004
USER: genes 21 Torsion [N]-CA--CB-[CG] |==|  0.86277
USER: genes 22 Torsion [CA]-CB--CG-[CD] |==|  0.43634
USER: genes 23 Torsion [CB]-CG--CD-[NE] |==|  0.19078
USER: genes 24 Torsion [CG]-CD--NE-[HE] |==|  0.01852
USER: genes 25 Torsion [N]-CA--C-[N] |==|  0.23682
USER: genes 26 Torsion [N]-CA--C-[N] |==|  0.37783
USER: genes 27 Torsion [C]-N--CA-[C] |==|  0.66026
USER: genes 28 Torsion [N]-CA--CB-[CG] |==|  0.69944
USER: genes 29 Torsion [CA]-CB--CG-[CD] |==|  0.63979
USER: genes 30 Torsion [CB]-CG--CD-[NE] |==|  0.90962
USER: genes 31 Torsion [CG]-CD--NE-[HE] |==|  0.16588
USER: genes 32 Torsion [N]-CA--C-[O] |==|  0.96602
ROOT
ATOM      1  C   LYS B 823       2.990  36.003   6.489  1.00 58.46 LIG 0.24  C 
ATOM      2 O    LYS B 823       2.575  35.245   5.614  1.00 54.34 LIG-0.27  OA
ATOM      3  N   ARG B 824       3.678  35.569   7.542  1.00 54.22 LIG-0.35  N 
ATOM      4 H    ARG B 824       3.993  36.081   8.158  1.00 54.22 LIG 0.16  HD
ENDROOT
BRANCH 1 5
ATOM      5  CA  LYS B 823       2.778  37.506   6.382  1.00 55.50 LIG 0.18  C 
BRANCH 5 6
ATOM      6  CB  LYS B 823       2.109  37.830   5.040  1.00 54.97 LIG 0.04  C 
BRANCH 6 7
ATOM      7  CG  LYS B 823       1.822  39.306   4.765  1.00 56.27 LIG 0.00  C 
BRANCH 7 8
ATOM      8  CD  LYS B 823       0.849  39.476   3.639  1.00 52.63 LIG 0.03  C 
BRANCH 8 9
ATOM      9  CE  LYS B 823       0.919  40.868   2.996  1.00 52.00 LIG 0.23  C 
BRANCH 9 10
ATOM     10  NZ  LYS B 823       2.268  41.219   2.522  1.00 59.54 LIG-0.08  N 
ATOM     11 HZ3  LYS B 823       2.666  40.493   2.193  1.00 59.54 LIG 0.27  HD
ATOM     12 HZ2  LYS B 823       2.748  41.537   3.200  1.00 59.54 LIG 0.27  HD
ATOM     13 HZ1  LYS B 823       2.207  41.838   1.885  1.00 59.54 LIG 0.27  HD
ENDBRANCH 9 10
ENDBRANCH 8 9
ENDBRANCH 7 8
ENDBRANCH 6 7
ENDBRANCH 5 6
BRANCH 5 14
ATOM     14  N   LYS B 823       4.060  38.196   6.500  1.00 58.26 LIG-0.35  N 
ATOM     15 H    LYS B 823       4.433  38.388   5.749  1.00 58.26 LIG 0.16  HD
ATOM     16  C   ARG B 822       4.586  38.490   7.695  1.00 61.99 LIG 0.24  C 
ATOM     17 O    ARG B 822       3.944  38.389   8.747  1.00 62.30 LIG-0.27  OA
BRANCH 16 18
ATOM     18  CA  ARG B 822       6.025  38.992   7.750  1.00 69.11 LIG 0.18  C 
BRANCH 18 19
ATOM     19  N   ARG B 822       6.726  38.847   6.484  1.00 79.36 LIG-0.35  N 
ATOM     20 H    ARG B 822       6.961  39.592   6.125  1.00 79.36 LIG 0.16  HD
ATOM     21  C   THR B 821       6.975  37.659   5.942  1.00 84.58 LIG 0.24  C 
ATOM     22 O    THR B 821       6.843  36.596   6.558  1.00 84.15 LIG-0.27  OA
BRANCH 21 23
ATOM     23  CA  THR B 821       7.487  37.684   4.507  1.00 89.83 LIG 0.20  C 
BRANCH 23 24
ATOM     24  CB  THR B 821       6.335  38.029   3.556  1.00 88.11 LIG 0.15  C 
ATOM     25  CG2 THR B 821       6.009  39.517   3.601  1.00 89.90 LIG 0.04  C 
BRANCH 24 26
ATOM     26 OG1  THR B 821       6.696  37.677   2.214  1.00 82.62 LIG-0.39  OA
ATOM     27 HG1  THR B 821       6.225  37.031   1.957  1.00 82.62 LIG 0.21  HD
ENDBRANCH 24 26
ENDBRANCH 23 24
BRANCH 23 28
ATOM     28  N   THR B 821       8.107  36.415   4.149  1.00 98.89 LIG-0.34  N 
ATOM     29 H    THR B 821       7.856  35.750   4.635  1.00 98.89 LIG 0.16  HD
ATOM     30  C   ALA B 820       8.986  36.313   3.151  1.00104.93 LIG 0.26  C 
ATOM     31 O    ALA B 820       9.398  37.285   2.513  1.00110.84 LIG-0.27  OA
BRANCH 30 32
ATOM     32  CA  ALA B 820       9.478  34.904   2.829  1.00100.65 LIG 0.40  C 
ATOM     33  N   ALA B 820       8.686  34.320   1.753  1.00102.47 LIG 0.61  N 
ATOM     34  CB  ALA B 820      10.953  34.925   2.453  1.00 93.61 LIG 0.06  C 
ENDBRANCH 30 32
ENDBRANCH 23 28
ENDBRANCH 21 23
ENDBRANCH 18 19
BRANCH 18 35
ATOM     35  CB  ARG B 822       6.087  40.447   8.215  1.00 74.55 LIG 0.04  C 
BRANCH 35 36
ATOM     36  CG  ARG B 822       4.692  41.004   8.404  1.00 89.07 LIG 0.02  C 
BRANCH 36 37
ATOM     37  CD  ARG B 822       3.941  41.221   7.117  1.00 95.35 LIG 0.14  C 
BRANCH 37 38
ATOM     38  NE  ARG B 822       4.549  42.313   6.360  1.00111.05 LIG-0.23  N 
ATOM     39  CZ  ARG B 822       3.878  43.125   5.545  1.00116.06 LIG 0.67  C 
ATOM     40  NH1 ARG B 822       2.569  42.974   5.388  1.00115.06 LIG-0.23  N 
ATOM     41  NH2 ARG B 822       4.512  44.101   4.904  1.00119.10 LIG-0.23  N 
ATOM     42 2HH1 ARG B 822       2.135  43.498   4.862  1.00115.06 LIG 0.17  HD
ATOM     43 1HH1 ARG B 822       2.154  42.352   5.813  1.00115.06 LIG 0.17  HD
ATOM     44 1HH2 ARG B 822       5.358  44.210   5.015  1.00119.10 LIG 0.17  HD
ATOM     45 2HH2 ARG B 822       4.077  44.624   4.378  1.00119.10 LIG 0.17  HD
ATOM     46 HE   ARG B 822       5.395  42.440   6.446  1.00111.05 LIG 0.18  HD
ENDBRANCH 37 38
ENDBRANCH 36 37
ENDBRANCH 35 36
ENDBRANCH 18 35
ENDBRANCH 16 18
ENDBRANCH 5 14
ENDBRANCH 1 5
BRANCH 3 47
ATOM     47  CA  ARG B 824       3.955  34.147   7.732  1.00 54.21 LIG 0.18  C 
BRANCH 47 48
ATOM     48  CB  ARG B 824       2.849  33.466   8.538  1.00 52.82 LIG 0.04  C 
BRANCH 48 49
ATOM     49  CG  ARG B 824       2.505  34.226   9.811  1.00 57.86 LIG 0.02  C 
BRANCH 49 50
ATOM     50  CD  ARG B 824       1.117  33.916  10.310  1.00 56.10 LIG 0.14  C 
BRANCH 50 51
ATOM     51  NE  ARG B 824       1.027  32.550  10.797  1.00 65.02 LIG-0.23  N 
ATOM     52  CZ  ARG B 824      -0.097  31.964  11.176  1.00 62.89 LIG 0.67  C 
ATOM     53  NH1 ARG B 824      -1.245  32.623  11.105  1.00 60.33 LIG-0.23  N 
ATOM     54  NH2 ARG B 824      -0.073  30.714  11.600  1.00 55.39 LIG-0.23  N 
ATOM     55 1HH1 ARG B 824      -1.259  33.432  10.812  1.00 60.33 LIG 0.17  HD
ATOM     56 2HH1 ARG B 824      -1.975  32.242  11.351  1.00 60.33 LIG 0.17  HD
ATOM     57 2HH2 ARG B 824      -0.803  30.331  11.847  1.00 55.39 LIG 0.17  HD
ATOM     58 1HH2 ARG B 824       0.671  30.284  11.630  1.00 55.39 LIG 0.17  HD
ATOM     59 HE   ARG B 824       1.753  32.092  10.843  1.00 65.02 LIG 0.18  HD
ENDBRANCH 50 51
ENDBRANCH 49 50
ENDBRANCH 48 49
ENDBRANCH 47 48
BRANCH 47 60
ATOM     60  C   ARG B 824       4.161  33.451   6.393  1.00 52.05 LIG 0.24  C 
ATOM     61  N   PRO B 825       5.370  33.472   5.844  1.00 68.51 LIG-0.34  N 
ATOM     62  CA  PRO B 825       5.593  32.924   4.506  1.00 67.77 LIG 0.18  C 
ATOM     63  CD  PRO B 825       6.642  33.712   6.554  1.00 70.13 LIG 0.13  C 
ATOM     64  CB  PRO B 825       7.034  33.334   4.208  1.00 68.40 LIG 0.04  C 
ATOM     65  CG  PRO B 825       7.692  33.254   5.550  1.00 73.68 LIG 0.02  C 
ATOM     66 O    ARG B 824       3.207  32.867   5.849  1.00 51.39 LIG-0.27  OA
BRANCH 62 67
ATOM     67  C   PRO B 825       5.435  31.414   4.497  1.00 71.49 LIG 0.24  C 
ATOM     68  N   ARG B 826       4.739  30.935   3.473  1.00 70.87 LIG-0.35  N 
ATOM     69 H    ARG B 826       4.313  31.427   2.909  1.00 70.87 LIG 0.16  HD
ATOM     70 O    PRO B 825       5.888  30.702   5.393  1.00 73.63 LIG-0.27  OA
BRANCH 68 71
ATOM     71  CA  ARG B 826       4.640  29.511   3.220  1.00 67.47 LIG 0.16  C 
BRANCH 71 72
ATOM     72  CB  ARG B 826       3.196  29.035   3.367  1.00 70.42 LIG 0.04  C 
BRANCH 72 73
ATOM     73  CG  ARG B 826       2.987  28.205   4.613  1.00 69.62 LIG 0.02  C 
BRANCH 73 74
ATOM     74  CD  ARG B 826       2.283  26.883   4.376  1.00 58.43 LIG 0.14  C 
BRANCH 74 75
ATOM     75  NE  ARG B 826       1.298  26.884   3.294  1.00 52.00 LIG-0.23  N 
ATOM     76 HE   ARG B 826       1.570  27.081   2.502  1.00 52.00 LIG 0.18  HD
ATOM     77  CZ  ARG B 826       0.013  26.600   3.456  1.00 51.94 LIG 0.67  C 
ATOM     78  NH1 ARG B 826      -0.449  26.365   4.678  1.00 56.61 LIG-0.23  N 
ATOM     79  NH2 ARG B 826      -0.806  26.587   2.416  1.00 47.30 LIG-0.23  N 
ATOM     80 2HH1 ARG B 826      -1.281  26.180   4.796  1.00 56.61 LIG 0.17  HD
ATOM     81 1HH1 ARG B 826       0.085  26.398   5.352  1.00 56.61 LIG 0.17  HD
ATOM     82 1HH2 ARG B 826      -0.506  26.763   1.630  1.00 47.30 LIG 0.17  HD
ATOM     83 2HH2 ARG B 826      -1.638  26.402   2.527  1.00 47.30 LIG 0.17  HD
ENDBRANCH 74 75
ENDBRANCH 73 74
ENDBRANCH 72 73
ENDBRANCH 71 72
BRANCH 71 84
ATOM     84  C   ARG B 826       5.152  29.187   1.822  1.00 71.98 LIG 0.22  C 
ATOM     85 O    ARG B 826       5.360  30.084   1.007  1.00 86.43 LIG-0.29  OA
ENDBRANCH 71 84
ENDBRANCH 68 71
ENDBRANCH 62 67
ENDBRANCH 47 60
ENDBRANCH 3 47
TORSDOF 31
ENDMDL
MODEL 10
USER: ADFR SOLUTION from run 158
USER: SCORE 22.531049 LL:  -3.320 LR: -21.258 RR:   0.000 FEB: -12.011
USER: RMSD 13.479944
USER: SEED 157
USER: STATUS no improvement in best in 5 clusters for 5 generations
USER: GENES 33
USER: genes 0 Translation |==|  0.48516 0.49251 0.47999
USER: genes 1 Rotation |==|  0.00674 0.51790 0.42154 0.51473
USER: genes 2 Torsion [N]-C--CA-[N] |==|  0.43175
USER: genes 3 Torsion [C]-CA--CB-[CG] |==|  0.35865
USER: genes 4 Torsion [CA]-CB--CG-[CD] |==|  0.37168
USER: genes 5 Torsion [CB]-CG--CD-[CE] |==|  0.40160
USER: genes 6 Torsion [CG]-CD--CE-[NZ] |==|  0.20165
USER: genes 7 Torsion [CD]-CE--NZ-[HZ3] |==|  0.78509
USER: genes 8 Torsion [C]-CA--N-[C] |==|  0.67251
USER: genes 9 Torsion [N]-C--CA-[N] |==|  0.43896
USER: genes 10 Torsion [C]-CA--N-[C] |==|  0.57018
USER: genes 11 Torsion [N]-C--CA-[N] |==|  0.89457
USER: genes 12 Torsion [C]-CA--CB-[CG2] |==|  0.80377
USER: genes 13 Torsion [CA]-CB--OG1-[HG1] |==|  0.41616
USER: genes 14 Torsion [C]-CA--N-[C] |==|  0.80763
USER: genes 15 Torsion [N]-C--CA-[N] |==|  0.10950
USER: genes 16 Torsion [C]-CA--CB-[CG] |==|  0.70868
USER: genes 17 Torsion [CA]-CB--CG-[CD] |==|  0.52003
USER: genes 18 Torsion [CB]-CG--CD-[NE] |==|  0.55651
USER: genes 19 Torsion [CG]-CD--NE-[CZ] |==|  0.80735
USER: genes 20 Torsion [C]-N--CA-[CB] |==|  0.29346
USER: genes 21 Torsion [N]-CA--CB-[CG] |==|  0.11360
USER: genes 22 Torsion [CA]-CB--CG-[CD] |==|  0.29788
USER: genes 23 Torsion [CB]-CG--CD-[NE] |==|  0.24069
USER: genes 24 Torsion [CG]-CD--NE-[HE] |==|  0.11708
USER: genes 25 Torsion [N]-CA--C-[N] |==|  0.14396
USER: genes 26 Torsion [N]-CA--C-[N] |==|  0.41050
USER: genes 27 Torsion [C]-N--CA-[C] |==|  0.81432
USER: genes 28 Torsion [N]-CA--CB-[CG] |==|  0.76082
USER: genes 29 Torsion [CA]-CB--CG-[CD] |==|  0.95141
USER: genes 30 Torsion [CB]-CG--CD-[NE] |==|  0.60395
USER: genes 31 Torsion [CG]-CD--NE-[HE] |==|  0.19708
USER: genes 32 Torsion [N]-CA--C-[O] |==|  0.89167
ROOT
ATOM      1  C   LYS B 823       3.760  35.023   8.068  1.00 58.46 LIG 0.24  C 
ATOM      2 O    LYS B 823       4.989  34.981   8.015  1.00 54.34 LIG-0.27  OA
ATOM      3  N   ARG B 824       3.072  36.134   7.818  1.00 54.22 LIG-0.35  N 
ATOM      4 H    ARG B 824       2.213  36.184   7.832  1.00 54.22 LIG 0.16  HD
ENDROOT
BRANCH 1 5
ATOM      5  CA  LYS B 823       2.952  33.772   8.377  1.00 55.50 LIG 0.18  C 
BRANCH 5 6
ATOM      6  CB  LYS B 823       2.556  33.777   9.859  1.00 54.97 LIG 0.04  C 
BRANCH 6 7
ATOM      7  CG  LYS B 823       1.076  33.544  10.165  1.00 56.27 LIG 0.00  C 
BRANCH 7 8
ATOM      8  CD  LYS B 823       0.893  32.546  11.267  1.00 52.63 LIG 0.03  C 
BRANCH 8 9
ATOM      9  CE  LYS B 823      -0.304  32.869  12.172  1.00 52.00 LIG 0.23  C 
BRANCH 9 10
ATOM     10  NZ  LYS B 823      -1.603  32.617  11.524  1.00 59.54 LIG-0.08  N 
ATOM     11 HZ3  LYS B 823      -1.786  33.279  10.957  1.00 59.54 LIG 0.27  HD
ATOM     12 HZ2  LYS B 823      -2.240  32.573  12.144  1.00 59.54 LIG 0.27  HD
ATOM     13 HZ1  LYS B 823      -1.568  31.846  11.080  1.00 59.54 LIG 0.27  HD
ENDBRANCH 9 10
ENDBRANCH 8 9
ENDBRANCH 7 8
ENDBRANCH 6 7
ENDBRANCH 5 6
BRANCH 5 14
ATOM     14  N   LYS B 823       3.738  32.584   8.056  1.00 58.26 LIG-0.35  N 
ATOM     15 H    LYS B 823       4.462  32.501   8.512  1.00 58.26 LIG 0.16  HD
ATOM     16  C   ARG B 822       3.336  31.714   7.121  1.00 61.99 LIG 0.24  C 
ATOM     17 O    ARG B 822       2.203  31.744   6.628  1.00 62.30 LIG-0.27  OA
BRANCH 16 18
ATOM     18  CA  ARG B 822       4.312  30.631   6.672  1.00 69.11 LIG 0.18  C 
BRANCH 18 19
ATOM     19  N   ARG B 822       3.650  29.482   6.074  1.00 79.36 LIG-0.35  N 
ATOM     20 H    ARG B 822       2.881  29.658   5.732  1.00 79.36 LIG 0.16  HD
ATOM     21  C   THR B 821       4.198  28.271   6.066  1.00 84.58 LIG 0.24  C 
ATOM     22 O    THR B 821       5.383  28.065   6.349  1.00 84.15 LIG-0.27  OA
BRANCH 21 23
ATOM     23  CA  THR B 821       3.279  27.135   5.633  1.00 89.83 LIG 0.20  C 
BRANCH 23 24
ATOM     24  CB  THR B 821       3.290  27.020   4.104  1.00 88.11 LIG 0.15  C 
ATOM     25  CG2 THR B 821       2.569  28.197   3.457  1.00 89.90 LIG 0.04  C 
BRANCH 24 26
ATOM     26 OG1  THR B 821       4.643  26.995   3.633  1.00 82.62 LIG-0.39  OA
ATOM     27 HG1  THR B 821       4.685  26.542   2.926  1.00 82.62 LIG 0.21  HD
ENDBRANCH 24 26
ENDBRANCH 23 24
BRANCH 23 28
ATOM     28  N   THR B 821       1.927  27.332   6.140  1.00 98.89 LIG-0.34  N 
ATOM     29 H    THR B 821       1.346  27.515   5.532  1.00 98.89 LIG 0.16  HD
ATOM     30  C   ALA B 820       1.636  27.232   7.437  1.00104.93 LIG 0.26  C 
ATOM     31 O    ALA B 820       2.490  27.047   8.308  1.00110.84 LIG-0.27  OA
BRANCH 30 32
ATOM     32  CA  ALA B 820       0.161  27.367   7.809  1.00100.65 LIG 0.40  C 
ATOM     33  N   ALA B 820      -0.677  26.689   6.826  1.00102.47 LIG 0.61  N 
ATOM     34  CB  ALA B 820      -0.094  26.809   9.202  1.00 93.61 LIG 0.06  C 
ENDBRANCH 30 32
ENDBRANCH 23 28
ENDBRANCH 21 23
ENDBRANCH 18 19
BRANCH 18 35
ATOM     35  CB  ARG B 822       5.355  31.191   5.704  1.00 74.55 LIG 0.04  C 
BRANCH 35 36
ATOM     36  CG  ARG B 822       5.052  30.757   4.286  1.00 89.07 LIG 0.02  C 
BRANCH 36 37
ATOM     37  CD  ARG B 822       6.124  31.121   3.293  1.00 95.35 LIG 0.14  C 
BRANCH 37 38
ATOM     38  NE  ARG B 822       5.574  31.117   1.938  1.00111.05 LIG-0.23  N 
ATOM     39  CZ  ARG B 822       5.192  30.020   1.287  1.00116.06 LIG 0.67  C 
ATOM     40  NH1 ARG B 822       5.291  28.833   1.872  1.00115.06 LIG-0.23  N 
ATOM     41  NH2 ARG B 822       4.691  30.113   0.060  1.00119.10 LIG-0.23  N 
ATOM     42 2HH1 ARG B 822       5.045  28.125   1.452  1.00115.06 LIG 0.17  HD
ATOM     43 1HH1 ARG B 822       5.601  28.773   2.672  1.00115.06 LIG 0.17  HD
ATOM     44 1HH2 ARG B 822       4.612  30.883  -0.316  1.00119.10 LIG 0.17  HD
ATOM     45 2HH2 ARG B 822       4.446  29.403  -0.359  1.00119.10 LIG 0.17  HD
ATOM     46 HE   ARG B 822       5.491  31.873   1.536  1.00111.05 LIG 0.18  HD
ENDBRANCH 37 38
ENDBRANCH 36 37
ENDBRANCH 35 36
ENDBRANCH 18 35
ENDBRANCH 16 18
ENDBRANCH 5 14
ENDBRANCH 1 5
BRANCH 3 47
ATOM     47  CA  ARG B 824       3.750  37.387   7.491  1.00 54.21 LIG 0.18  C 
BRANCH 47 48
ATOM     48  CB  ARG B 824       3.628  37.715   6.003  1.00 52.82 LIG 0.04  C 
BRANCH 48 49
ATOM     49  CG  ARG B 824       2.240  37.415   5.453  1.00 57.86 LIG 0.02  C 
BRANCH 49 50
ATOM     50  CD  ARG B 824       1.447  38.666   5.177  1.00 56.10 LIG 0.14  C 
BRANCH 50 51
ATOM     51  NE  ARG B 824       1.722  39.180   3.846  1.00 65.02 LIG-0.23  N 
ATOM     52  CZ  ARG B 824       1.894  40.460   3.559  1.00 62.89 LIG 0.67  C 
ATOM     53  NH1 ARG B 824       1.838  41.368   4.523  1.00 60.33 LIG-0.23  N 
ATOM     54  NH2 ARG B 824       2.145  40.825   2.316  1.00 55.39 LIG-0.23  N 
ATOM     55 1HH1 ARG B 824       1.691  41.125   5.335  1.00 60.33 LIG 0.17  HD
ATOM     56 2HH1 ARG B 824       1.950  42.200   4.336  1.00 60.33 LIG 0.17  HD
ATOM     57 2HH2 ARG B 824       2.257  41.656   2.126  1.00 55.39 LIG 0.17  HD
ATOM     58 1HH2 ARG B 824       2.196  40.231   1.695  1.00 55.39 LIG 0.17  HD
ATOM     59 HE   ARG B 824       1.778  38.613   3.201  1.00 65.02 LIG 0.18  HD
ENDBRANCH 50 51
ENDBRANCH 49 50
ENDBRANCH 48 49
ENDBRANCH 47 48
BRANCH 47 60
ATOM     60  C   ARG B 824       3.221  38.531   8.346  1.00 52.05 LIG 0.24  C 
ATOM     61  N   PRO B 825       3.183  38.375   9.664  1.00 68.51 LIG-0.34  N 
ATOM     62  CA  PRO B 825       2.574  39.393  10.520  1.00 67.77 LIG 0.18  C 
ATOM     63  CD  PRO B 825       3.980  37.410  10.448  1.00 70.13 LIG 0.13  C 
ATOM     64  CB  PRO B 825       2.572  38.723  11.893  1.00 68.40 LIG 0.04  C 
ATOM     65  CG  PRO B 825       3.832  37.916  11.877  1.00 73.68 LIG 0.02  C 
ATOM     66 O    ARG B 824       2.850  39.586   7.802  1.00 51.39 LIG-0.27  OA
BRANCH 62 67
ATOM     67  C   PRO B 825       3.396  40.669  10.528  1.00 71.49 LIG 0.24  C 
ATOM     68  N   ARG B 826       2.688  41.784  10.668  1.00 70.87 LIG-0.35  N 
ATOM     69 H    ARG B 826       1.829  41.813  10.649  1.00 70.87 LIG 0.16  HD
ATOM     70 O    PRO B 825       4.618  40.663  10.378  1.00 73.63 LIG-0.27  OA
BRANCH 68 71
ATOM     71  CA  ARG B 826       3.327  43.070  10.867  1.00 67.47 LIG 0.16  C 
BRANCH 71 72
ATOM     72  CB  ARG B 826       2.303  44.200  10.784  1.00 70.42 LIG 0.04  C 
BRANCH 72 73
ATOM     73  CG  ARG B 826       2.072  44.666   9.364  1.00 69.62 LIG 0.02  C 
BRANCH 73 74
ATOM     74  CD  ARG B 826       3.151  44.251   8.384  1.00 58.43 LIG 0.14  C 
BRANCH 74 75
ATOM     75  NE  ARG B 826       3.482  45.244   7.360  1.00 52.00 LIG-0.23  N 
ATOM     76 HE   ARG B 826       3.904  45.952   7.608  1.00 52.00 LIG 0.18  HD
ATOM     77  CZ  ARG B 826       3.171  45.123   6.077  1.00 51.94 LIG 0.67  C 
ATOM     78  NH1 ARG B 826       2.456  44.078   5.681  1.00 56.61 LIG-0.23  N 
ATOM     79  NH2 ARG B 826       3.541  46.051   5.209  1.00 47.30 LIG-0.23  N 
ATOM     80 2HH1 ARG B 826       2.248  43.989   4.851  1.00 56.61 LIG 0.17  HD
ATOM     81 1HH1 ARG B 826       2.199  43.490   6.254  1.00 56.61 LIG 0.17  HD
ATOM     82 1HH2 ARG B 826       3.985  46.737   5.476  1.00 47.30 LIG 0.17  HD
ATOM     83 2HH2 ARG B 826       3.337  45.967   4.378  1.00 47.30 LIG 0.17  HD
ENDBRANCH 74 75
ENDBRANCH 73 74
ENDBRANCH 72 73
ENDBRANCH 71 72
BRANCH 71 84
ATOM     84  C   ARG B 826       4.030  43.105  12.219  1.00 71.98 LIG 0.22  C 
ATOM     85 O    ARG B 826       3.517  42.582  13.206  1.00 86.43 LIG-0.29  OA
ENDBRANCH 71 84
ENDBRANCH 68 71
ENDBRANCH 62 67
ENDBRANCH 47 60
ENDBRANCH 3 47
TORSDOF 31
ENDMDL
MODEL 11
USER: ADFR SOLUTION from run 102
USER: SCORE 22.788370 LL:  -3.522 LR: -21.163 RR:   0.000 FEB: -11.916
USER: RMSD 13.606871
USER: SEED 101
USER: STATUS no improvement in best in 3 clusters for 5 generations
USER: GENES 33
USER: genes 0 Translation |==|  0.48164 0.48771 0.45917
USER: genes 1 Rotation |==|  0.01255 0.56224 0.56615 0.56436
USER: genes 2 Torsion [N]-C--CA-[N] |==|  0.51633
USER: genes 3 Torsion [C]-CA--CB-[CG] |==|  0.31669
USER: genes 4 Torsion [CA]-CB--CG-[CD] |==|  0.31715
USER: genes 5 Torsion [CB]-CG--CD-[CE] |==|  0.41981
USER: genes 6 Torsion [CG]-CD--CE-[NZ] |==|  0.27251
USER: genes 7 Torsion [CD]-CE--NZ-[HZ3] |==|  0.44740
USER: genes 8 Torsion [C]-CA--N-[C] |==|  0.51111
USER: genes 9 Torsion [N]-C--CA-[N] |==|  0.63723
USER: genes 10 Torsion [C]-CA--N-[C] |==|  0.67553
USER: genes 11 Torsion [N]-C--CA-[N] |==|  0.31270
USER: genes 12 Torsion [C]-CA--CB-[CG2] |==|  0.10313
USER: genes 13 Torsion [CA]-CB--OG1-[HG1] |==|  0.99844
USER: genes 14 Torsion [C]-CA--N-[C] |==|  0.77093
USER: genes 15 Torsion [N]-C--CA-[N] |==|  0.78303
USER: genes 16 Torsion [C]-CA--CB-[CG] |==|  0.77505
USER: genes 17 Torsion [CA]-CB--CG-[CD] |==|  0.71119
USER: genes 18 Torsion [CB]-CG--CD-[NE] |==|  0.55976
USER: genes 19 Torsion [CG]-CD--NE-[CZ] |==|  0.53262
USER: genes 20 Torsion [C]-N--CA-[CB] |==|  0.19119
USER: genes 21 Torsion [N]-CA--CB-[CG] |==|  0.19051
USER: genes 22 Torsion [CA]-CB--CG-[CD] |==|  0.46708
USER: genes 23 Torsion [CB]-CG--CD-[NE] |==|  0.62476
USER: genes 24 Torsion [CG]-CD--NE-[HE] |==|  0.87806
USER: genes 25 Torsion [N]-CA--C-[N] |==|  0.13146
USER: genes 26 Torsion [N]-CA--C-[N] |==|  0.32771
USER: genes 27 Torsion [C]-N--CA-[C] |==|  0.59250
USER: genes 28 Torsion [N]-CA--CB-[CG] |==|  0.99906
USER: genes 29 Torsion [CA]-CB--CG-[CD] |==|  0.38189
USER: genes 30 Torsion [CB]-CG--CD-[NE] |==|  0.87213
USER: genes 31 Torsion [CG]-CD--NE-[HE] |==|  0.88384
USER: genes 32 Torsion [N]-CA--C-[O] |==|  0.00190
ROOT
ATOM      1  C   LYS B 823       3.686  34.883   7.615  1.00 58.46 LIG 0.24  C 
ATOM      2 O    LYS B 823       4.673  34.793   6.886  1.00 54.34 LIG-0.27  OA
ATOM      3  N   ARG B 824       3.195  36.054   8.011  1.00 54.22 LIG-0.35  N 
ATOM      4 H    ARG B 824       2.497  36.143   8.506  1.00 54.22 LIG 0.16  HD
ENDROOT
BRANCH 1 5
ATOM      5  CA  LYS B 823       2.936  33.638   8.066  1.00 55.50 LIG 0.18  C 
BRANCH 5 6
ATOM      6  CB  LYS B 823       2.751  33.681   9.588  1.00 54.97 LIG 0.04  C 
BRANCH 6 7
ATOM      7  CG  LYS B 823       1.314  33.813  10.092  1.00 56.27 LIG 0.00  C 
BRANCH 7 8
ATOM      8  CD  LYS B 823       0.876  32.588  10.835  1.00 52.63 LIG 0.03  C 
BRANCH 8 9
ATOM      9  CE  LYS B 823      -0.177  32.887  11.910  1.00 52.00 LIG 0.23  C 
BRANCH 9 10
ATOM     10  NZ  LYS B 823      -1.554  32.617  11.462  1.00 59.54 LIG-0.08  N 
ATOM     11 HZ3  LYS B 823      -2.087  32.537  12.170  1.00 59.54 LIG 0.27  HD
ATOM     12 HZ2  LYS B 823      -1.570  31.862  10.992  1.00 59.54 LIG 0.27  HD
ATOM     13 HZ1  LYS B 823      -1.837  33.290  10.952  1.00 59.54 LIG 0.27  HD
ENDBRANCH 9 10
ENDBRANCH 8 9
ENDBRANCH 7 8
ENDBRANCH 6 7
ENDBRANCH 5 6
BRANCH 5 14
ATOM     14  N   LYS B 823       3.677  32.444   7.669  1.00 58.26 LIG-0.35  N 
ATOM     15 H    LYS B 823       4.436  32.601   7.297  1.00 58.26 LIG 0.16  HD
ATOM     16  C   ARG B 822       3.186  31.217   7.881  1.00 61.99 LIG 0.24  C 
ATOM     17 O    ARG B 822       2.197  31.010   8.594  1.00 62.30 LIG-0.27  OA
BRANCH 16 18
ATOM     18  CA  ARG B 822       3.894  30.030   7.234  1.00 69.11 LIG 0.18  C 
BRANCH 18 19
ATOM     19  N   ARG B 822       2.985  29.142   6.528  1.00 79.36 LIG-0.35  N 
ATOM     20 H    ARG B 822       2.583  29.508   5.861  1.00 79.36 LIG 0.16  HD
ATOM     21  C   THR B 821       2.801  27.877   6.892  1.00 84.58 LIG 0.24  C 
ATOM     22 O    THR B 821       3.537  27.294   7.695  1.00 84.15 LIG-0.27  OA
BRANCH 21 23
ATOM     23  CA  THR B 821       1.640  27.158   6.216  1.00 89.83 LIG 0.20  C 
BRANCH 23 24
ATOM     24  CB  THR B 821       0.688  26.605   7.283  1.00 88.11 LIG 0.15  C 
ATOM     25  CG2 THR B 821       0.567  27.560   8.464  1.00 89.90 LIG 0.04  C 
BRANCH 24 26
ATOM     26 OG1  THR B 821      -0.613  26.411   6.713  1.00 82.62 LIG-0.39  OA
ATOM     27 HG1  THR B 821      -0.603  26.646   5.906  1.00 82.62 LIG 0.21  HD
ENDBRANCH 24 26
ENDBRANCH 23 24
BRANCH 23 28
ATOM     28  N   THR B 821       2.119  26.102   5.334  1.00 98.89 LIG-0.34  N 
ATOM     29 H    THR B 821       2.108  25.317   5.686  1.00 98.89 LIG 0.16  HD
ATOM     30  C   ALA B 820       2.535  26.351   4.092  1.00104.93 LIG 0.26  C 
ATOM     31 O    ALA B 820       2.622  27.490   3.625  1.00110.84 LIG-0.27  OA
BRANCH 30 32
ATOM     32  CA  ALA B 820       2.917  25.134   3.253  1.00100.65 LIG 0.40  C 
ATOM     33  N   ALA B 820       4.239  24.650   3.628  1.00102.47 LIG 0.61  N 
ATOM     34  CB  ALA B 820       1.881  24.029   3.409  1.00 93.61 LIG 0.06  C 
ENDBRANCH 30 32
ENDBRANCH 23 28
ENDBRANCH 21 23
ENDBRANCH 18 19
BRANCH 18 35
ATOM     35  CB  ARG B 822       5.005  30.495   6.291  1.00 74.55 LIG 0.04  C 
BRANCH 35 36
ATOM     36  CG  ARG B 822       4.429  30.900   4.951  1.00 89.07 LIG 0.02  C 
BRANCH 36 37
ATOM     37  CD  ARG B 822       4.650  29.886   3.859  1.00 95.35 LIG 0.14  C 
BRANCH 37 38
ATOM     38  NE  ARG B 822       4.544  30.529   2.550  1.00111.05 LIG-0.23  N 
ATOM     39  CZ  ARG B 822       4.466  29.870   1.396  1.00116.06 LIG 0.67  C 
ATOM     40  NH1 ARG B 822       4.473  28.543   1.388  1.00115.06 LIG-0.23  N 
ATOM     41  NH2 ARG B 822       4.360  30.537   0.252  1.00119.10 LIG-0.23  N 
ATOM     42 2HH1 ARG B 822       4.423  28.117   0.642  1.00115.06 LIG 0.17  HD
ATOM     43 1HH1 ARG B 822       4.527  28.108   2.128  1.00115.06 LIG 0.17  HD
ATOM     44 1HH2 ARG B 822       4.341  31.397   0.256  1.00119.10 LIG 0.17  HD
ATOM     45 2HH2 ARG B 822       4.311  30.110  -0.493  1.00119.10 LIG 0.17  HD
ATOM     46 HE   ARG B 822       4.530  31.388   2.525  1.00111.05 LIG 0.18  HD
ENDBRANCH 37 38
ENDBRANCH 36 37
ENDBRANCH 35 36
ENDBRANCH 18 35
ENDBRANCH 16 18
ENDBRANCH 5 14
ENDBRANCH 1 5
BRANCH 3 47
ATOM     47  CA  ARG B 824       3.827  37.312   7.618  1.00 54.21 LIG 0.18  C 
BRANCH 47 48
ATOM     48  CB  ARG B 824       3.661  37.576   6.121  1.00 52.82 LIG 0.04  C 
BRANCH 48 49
ATOM     49  CG  ARG B 824       2.218  37.873   5.740  1.00 57.86 LIG 0.02  C 
BRANCH 49 50
ATOM     50  CD  ARG B 824       2.091  38.409   4.338  1.00 56.10 LIG 0.14  C 
BRANCH 50 51
ATOM     51  NE  ARG B 824       1.192  39.550   4.289  1.00 65.02 LIG-0.23  N 
ATOM     52  CZ  ARG B 824       1.430  40.662   3.615  1.00 62.89 LIG 0.67  C 
ATOM     53  NH1 ARG B 824       2.544  40.781   2.905  1.00 60.33 LIG-0.23  N 
ATOM     54  NH2 ARG B 824       0.545  41.641   3.631  1.00 55.39 LIG-0.23  N 
ATOM     55 1HH1 ARG B 824       3.111  40.135   2.883  1.00 60.33 LIG 0.17  HD
ATOM     56 2HH1 ARG B 824       2.698  41.505   2.467  1.00 60.33 LIG 0.17  HD
ATOM     57 2HH2 ARG B 824       0.697  42.366   3.193  1.00 55.39 LIG 0.17  HD
ATOM     58 1HH2 ARG B 824      -0.184  41.555   4.080  1.00 55.39 LIG 0.17  HD
ATOM     59 HE   ARG B 824       0.455  39.498   4.729  1.00 65.02 LIG 0.18  HD
ENDBRANCH 50 51
ENDBRANCH 49 50
ENDBRANCH 48 49
ENDBRANCH 47 48
BRANCH 47 60
ATOM     60  C   ARG B 824       3.284  38.473   8.440  1.00 52.05 LIG 0.24  C 
ATOM     61  N   PRO B 825       3.197  38.335   9.757  1.00 68.51 LIG-0.34  N 
ATOM     62  CA  PRO B 825       2.572  39.372  10.579  1.00 67.77 LIG 0.18  C 
ATOM     63  CD  PRO B 825       3.952  37.369  10.581  1.00 70.13 LIG 0.13  C 
ATOM     64  CB  PRO B 825       2.512  38.720  11.959  1.00 68.40 LIG 0.04  C 
ATOM     65  CG  PRO B 825       3.760  37.895  11.997  1.00 73.68 LIG 0.02  C 
ATOM     66 O    ARG B 824       2.948  39.526   7.870  1.00 51.39 LIG-0.27  OA
BRANCH 62 67
ATOM     67  C   PRO B 825       3.412  40.637  10.600  1.00 71.49 LIG 0.24  C 
ATOM     68  N   ARG B 826       2.814  41.708  10.090  1.00 70.87 LIG-0.35  N 
ATOM     69 H    ARG B 826       2.058  41.687   9.680  1.00 70.87 LIG 0.16  HD
ATOM     70 O    PRO B 825       4.567  40.650  11.024  1.00 73.63 LIG-0.27  OA
BRANCH 68 71
ATOM     71  CA  ARG B 826       3.405  43.028  10.190  1.00 67.47 LIG 0.16  C 
BRANCH 71 72
ATOM     72  CB  ARG B 826       4.274  43.323   8.969  1.00 70.42 LIG 0.04  C 
BRANCH 72 73
ATOM     73  CG  ARG B 826       4.300  42.173   7.988  1.00 69.62 LIG 0.02  C 
BRANCH 73 74
ATOM     74  CD  ARG B 826       4.190  42.586   6.533  1.00 58.43 LIG 0.14  C 
BRANCH 74 75
ATOM     75  NE  ARG B 826       3.148  43.572   6.240  1.00 52.00 LIG-0.23  N 
ATOM     76 HE   ARG B 826       2.385  43.478   6.626  1.00 52.00 LIG 0.18  HD
ATOM     77  CZ  ARG B 826       3.306  44.600   5.418  1.00 51.94 LIG 0.67  C 
ATOM     78  NH1 ARG B 826       4.447  44.728   4.753  1.00 56.61 LIG-0.23  N 
ATOM     79  NH2 ARG B 826       2.324  45.469   5.237  1.00 47.30 LIG-0.23  N 
ATOM     80 2HH1 ARG B 826       4.561  45.391   4.217  1.00 56.61 LIG 0.17  HD
ATOM     81 1HH1 ARG B 826       5.073  44.147   4.858  1.00 56.61 LIG 0.17  HD
ATOM     82 1HH2 ARG B 826       1.578  45.368   5.653  1.00 47.30 LIG 0.17  HD
ATOM     83 2HH2 ARG B 826       2.431  46.134   4.703  1.00 47.30 LIG 0.17  HD
ENDBRANCH 74 75
ENDBRANCH 73 74
ENDBRANCH 72 73
ENDBRANCH 71 72
BRANCH 71 84
ATOM     84  C   ARG B 826       2.316  44.085  10.318  1.00 71.98 LIG 0.22  C 
ATOM     85 O    ARG B 826       1.129  43.764  10.339  1.00 86.43 LIG-0.29  OA
ENDBRANCH 71 84
ENDBRANCH 68 71
ENDBRANCH 62 67
ENDBRANCH 47 60
ENDBRANCH 3 47
TORSDOF 31
ENDMDL
MODEL 12
USER: ADFR SOLUTION from run 37
USER: SCORE 24.048156 LL:  -3.494 LR: -21.122 RR:   0.000 FEB: -11.875
USER: RMSD 12.928933
USER: SEED 36
USER: STATUS no improvement in best in 7 clusters for 5 generations
USER: GENES 33
USER: genes 0 Translation |==|  0.41560 0.54431 0.53141
USER: genes 1 Rotation |==|  0.49176 0.69412 0.94906 0.60296
USER: genes 2 Torsion [N]-C--CA-[N] |==|  0.91749
USER: genes 3 Torsion [C]-CA--CB-[CG] |==|  0.31348
USER: genes 4 Torsion [CA]-CB--CG-[CD] |==|  0.01656
USER: genes 5 Torsion [CB]-CG--CD-[CE] |==|  0.26411
USER: genes 6 Torsion [CG]-CD--CE-[NZ] |==|  0.43381
USER: genes 7 Torsion [CD]-CE--NZ-[HZ3] |==|  0.43741
USER: genes 8 Torsion [C]-CA--N-[C] |==|  0.68011
USER: genes 9 Torsion [N]-C--CA-[N] |==|  0.45037
USER: genes 10 Torsion [C]-CA--N-[C] |==|  0.75819
USER: genes 11 Torsion [N]-C--CA-[N] |==|  0.13323
USER: genes 12 Torsion [C]-CA--CB-[CG2] |==|  0.25683
USER: genes 13 Torsion [CA]-CB--OG1-[HG1] |==|  0.74235
USER: genes 14 Torsion [C]-CA--N-[C] |==|  0.16496
USER: genes 15 Torsion [N]-C--CA-[N] |==|  0.79424
USER: genes 16 Torsion [C]-CA--CB-[CG] |==|  0.50776
USER: genes 17 Torsion [CA]-CB--CG-[CD] |==|  0.59189
USER: genes 18 Torsion [CB]-CG--CD-[NE] |==|  0.60374
USER: genes 19 Torsion [CG]-CD--NE-[CZ] |==|  0.44637
USER: genes 20 Torsion [C]-N--CA-[CB] |==|  0.84646
USER: genes 21 Torsion [N]-CA--CB-[CG] |==|  0.81997
USER: genes 22 Torsion [CA]-CB--CG-[CD] |==|  0.50010
USER: genes 23 Torsion [CB]-CG--CD-[NE] |==|  0.26344
USER: genes 24 Torsion [CG]-CD--NE-[HE] |==|  0.17286
USER: genes 25 Torsion [N]-CA--C-[N] |==|  0.35000
USER: genes 26 Torsion [N]-CA--C-[N] |==|  0.43318
USER: genes 27 Torsion [C]-N--CA-[C] |==|  0.17334
USER: genes 28 Torsion [N]-CA--CB-[CG] |==|  0.35924
USER: genes 29 Torsion [CA]-CB--CG-[CD] |==|  0.63398
USER: genes 30 Torsion [CB]-CG--CD-[NE] |==|  0.22489
USER: genes 31 Torsion [CG]-CD--NE-[HE] |==|  0.96751
USER: genes 32 Torsion [N]-CA--C-[O] |==|  0.14237
ROOT
ATOM      1  C   LYS B 823       2.300  36.538   9.186  1.00 58.46 LIG 0.24  C 
ATOM      2 O    LYS B 823       1.314  37.271   9.248  1.00 54.34 LIG-0.27  OA
ATOM      3  N   ARG B 824       3.458  36.941   8.670  1.00 54.22 LIG-0.35  N 
ATOM      4 H    ARG B 824       4.166  36.453   8.631  1.00 54.22 LIG 0.16  HD
ENDROOT
BRANCH 1 5
ATOM      5  CA  LYS B 823       2.257  35.127   9.753  1.00 55.50 LIG 0.18  C 
BRANCH 5 6
ATOM      6  CB  LYS B 823       2.595  35.170  11.248  1.00 54.97 LIG 0.04  C 
BRANCH 6 7
ATOM      7  CG  LYS B 823       1.464  34.807  12.210  1.00 56.27 LIG 0.00  C 
BRANCH 7 8
ATOM      8  CD  LYS B 823       0.248  34.332  11.475  1.00 52.63 LIG 0.03  C 
BRANCH 8 9
ATOM      9  CE  LYS B 823       0.182  32.803  11.356  1.00 52.00 LIG 0.23  C 
BRANCH 9 10
ATOM     10  NZ  LYS B 823      -1.187  32.297  11.165  1.00 59.54 LIG-0.08  N 
ATOM     11 HZ3  LYS B 823      -1.156  31.492  10.785  1.00 59.54 LIG 0.27  HD
ATOM     12 HZ2  LYS B 823      -1.639  32.855  10.640  1.00 59.54 LIG 0.27  HD
ATOM     13 HZ1  LYS B 823      -1.594  32.237  11.954  1.00 59.54 LIG 0.27  HD
ENDBRANCH 9 10
ENDBRANCH 8 9
ENDBRANCH 7 8
ENDBRANCH 6 7
ENDBRANCH 5 6
BRANCH 5 14
ATOM     14  N   LYS B 823       3.202  34.277   9.033  1.00 58.26 LIG-0.35  N 
ATOM     15 H    LYS B 823       4.027  34.498   9.130  1.00 58.26 LIG 0.16  HD
ATOM     16  C   ARG B 822       2.784  33.244   8.290  1.00 61.99 LIG 0.24  C 
ATOM     17 O    ARG B 822       1.622  32.824   8.329  1.00 62.30 LIG-0.27  OA
BRANCH 16 18
ATOM     18  CA  ARG B 822       3.794  32.549   7.383  1.00 69.11 LIG 0.18  C 
BRANCH 18 19
ATOM     19  N   ARG B 822       3.359  31.228   6.955  1.00 79.36 LIG-0.35  N 
ATOM     20 H    ARG B 822       2.942  31.222   6.204  1.00 79.36 LIG 0.16  HD
ATOM     21  C   THR B 821       3.592  30.136   7.676  1.00 84.58 LIG 0.24  C 
ATOM     22 O    THR B 821       4.378  30.112   8.629  1.00 84.15 LIG-0.27  OA
BRANCH 21 23
ATOM     23  CA  THR B 821       2.860  28.879   7.222  1.00 89.83 LIG 0.20  C 
BRANCH 23 24
ATOM     24  CB  THR B 821       3.387  27.668   8.002  1.00 88.11 LIG 0.15  C 
ATOM     25  CG2 THR B 821       2.552  27.411   9.251  1.00 89.90 LIG 0.04  C 
BRANCH 24 26
ATOM     26 OG1  THR B 821       3.340  26.502   7.169  1.00 82.62 LIG-0.39  OA
ATOM     27 HG1  THR B 821       2.613  26.100   7.291  1.00 82.62 LIG 0.21  HD
ENDBRANCH 24 26
ENDBRANCH 23 24
BRANCH 23 28
ATOM     28  N   THR B 821       2.995  28.683   5.785  1.00 98.89 LIG-0.34  N 
ATOM     29 H    THR B 821       2.247  28.666   5.360  1.00 98.89 LIG 0.16  HD
ATOM     30  C   ALA B 820       4.184  28.543   5.198  1.00104.93 LIG 0.26  C 
ATOM     31 O    ALA B 820       5.245  28.490   5.827  1.00110.84 LIG-0.27  OA
BRANCH 30 32
ATOM     32  CA  ALA B 820       4.176  28.442   3.675  1.00100.65 LIG 0.40  C 
ATOM     33  N   ALA B 820       3.689  27.134   3.253  1.00102.47 LIG 0.61  N 
ATOM     34  CB  ALA B 820       3.323  29.549   3.069  1.00 93.61 LIG 0.06  C 
ENDBRANCH 30 32
ENDBRANCH 23 28
ENDBRANCH 21 23
ENDBRANCH 18 19
BRANCH 18 35
ATOM     35  CB  ARG B 822       4.126  33.407   6.162  1.00 74.55 LIG 0.04  C 
BRANCH 35 36
ATOM     36  CG  ARG B 822       5.076  32.674   5.239  1.00 89.07 LIG 0.02  C 
BRANCH 36 37
ATOM     37  CD  ARG B 822       6.041  33.575   4.514  1.00 95.35 LIG 0.14  C 
BRANCH 37 38
ATOM     38  NE  ARG B 822       6.256  33.086   3.153  1.00111.05 LIG-0.23  N 
ATOM     39  CZ  ARG B 822       6.740  33.827   2.158  1.00116.06 LIG 0.67  C 
ATOM     40  NH1 ARG B 822       7.072  35.094   2.375  1.00115.06 LIG-0.23  N 
ATOM     41  NH2 ARG B 822       6.914  33.295   0.953  1.00119.10 LIG-0.23  N 
ATOM     42 2HH1 ARG B 822       7.385  35.572   1.733  1.00115.06 LIG 0.17  HD
ATOM     43 1HH1 ARG B 822       6.974  35.436   3.157  1.00115.06 LIG 0.17  HD
ATOM     44 1HH2 ARG B 822       6.713  32.470   0.814  1.00119.10 LIG 0.17  HD
ATOM     45 2HH2 ARG B 822       7.226  33.775   0.312  1.00119.10 LIG 0.17  HD
ATOM     46 HE   ARG B 822       6.056  32.267   2.984  1.00111.05 LIG 0.18  HD
ENDBRANCH 37 38
ENDBRANCH 36 37
ENDBRANCH 35 36
ENDBRANCH 18 35
ENDBRANCH 16 18
ENDBRANCH 5 14
ENDBRANCH 1 5
BRANCH 3 47
ATOM     47  CA  ARG B 824       3.614  38.285   8.117  1.00 54.21 LIG 0.18  C 
BRANCH 47 48
ATOM     48  CB  ARG B 824       2.570  38.567   7.037  1.00 52.82 LIG 0.04  C 
BRANCH 48 49
ATOM     49  CG  ARG B 824       2.737  37.670   5.818  1.00 57.86 LIG 0.02  C 
BRANCH 49 50
ATOM     50  CD  ARG B 824       1.708  37.949   4.753  1.00 56.10 LIG 0.14  C 
BRANCH 50 51
ATOM     51  NE  ARG B 824       2.219  38.876   3.758  1.00 65.02 LIG-0.23  N 
ATOM     52  CZ  ARG B 824       1.705  40.069   3.513  1.00 62.89 LIG 0.67  C 
ATOM     53  NH1 ARG B 824       0.664  40.499   4.213  1.00 60.33 LIG-0.23  N 
ATOM     54  NH2 ARG B 824       2.248  40.840   2.588  1.00 55.39 LIG-0.23  N 
ATOM     55 1HH1 ARG B 824       0.323  40.001   4.826  1.00 60.33 LIG 0.17  HD
ATOM     56 2HH1 ARG B 824       0.330  41.275   4.053  1.00 60.33 LIG 0.17  HD
ATOM     57 2HH2 ARG B 824       1.916  41.617   2.427  1.00 55.39 LIG 0.17  HD
ATOM     58 1HH2 ARG B 824       2.933  40.565   2.147  1.00 55.39 LIG 0.17  HD
ATOM     59 HE   ARG B 824       2.903  38.631   3.296  1.00 65.02 LIG 0.18  HD
ENDBRANCH 50 51
ENDBRANCH 49 50
ENDBRANCH 48 49
ENDBRANCH 47 48
BRANCH 47 60
ATOM     60  C   ARG B 824       3.557  39.336   9.218  1.00 52.05 LIG 0.24  C 
ATOM     61  N   PRO B 825       4.555  40.205   9.320  1.00 68.51 LIG-0.34  N 
ATOM     62  CA  PRO B 825       4.608  41.156  10.431  1.00 67.77 LIG 0.18  C 
ATOM     63  CD  PRO B 825       5.507  40.564   8.250  1.00 70.13 LIG 0.13  C 
ATOM     64  CB  PRO B 825       5.984  41.797  10.263  1.00 68.40 LIG 0.04  C 
ATOM     65  CG  PRO B 825       6.159  41.836   8.776  1.00 73.68 LIG 0.02  C 
ATOM     66 O    ARG B 824       2.579  39.371   9.986  1.00 51.39 LIG-0.27  OA
BRANCH 62 67
ATOM     67  C   PRO B 825       3.500  42.189  10.324  1.00 71.49 LIG 0.24  C 
ATOM     68  N   ARG B 826       3.154  42.752  11.475  1.00 70.87 LIG-0.35  N 
ATOM     69 H    ARG B 826       3.442  42.493  12.243  1.00 70.87 LIG 0.16  HD
ATOM     70 O    PRO B 825       2.947  42.449   9.255  1.00 73.63 LIG-0.27  OA
BRANCH 68 71
ATOM     71  CA  ARG B 826       2.238  43.875  11.527  1.00 67.47 LIG 0.16  C 
BRANCH 71 72
ATOM     72  CB  ARG B 826       2.785  45.055  10.726  1.00 70.42 LIG 0.04  C 
BRANCH 72 73
ATOM     73  CG  ARG B 826       1.772  45.607   9.749  1.00 69.62 LIG 0.02  C 
BRANCH 73 74
ATOM     74  CD  ARG B 826       2.305  45.817   8.344  1.00 58.43 LIG 0.14  C 
BRANCH 74 75
ATOM     75  NE  ARG B 826       2.353  44.617   7.508  1.00 52.00 LIG-0.23  N 
ATOM     76 HE   ARG B 826       2.232  43.855   7.889  1.00 52.00 LIG 0.18  HD
ATOM     77  CZ  ARG B 826       2.572  44.629   6.200  1.00 51.94 LIG 0.67  C 
ATOM     78  NH1 ARG B 826       2.835  45.782   5.599  1.00 56.61 LIG-0.23  N 
ATOM     79  NH2 ARG B 826       2.562  43.500   5.510  1.00 47.30 LIG-0.23  N 
ATOM     80 2HH1 ARG B 826       2.979  45.803   4.751  1.00 56.61 LIG 0.17  HD
ATOM     81 1HH1 ARG B 826       2.863  46.510   6.057  1.00 56.61 LIG 0.17  HD
ATOM     82 1HH2 ARG B 826       2.414  42.753   5.909  1.00 47.30 LIG 0.17  HD
ATOM     83 2HH2 ARG B 826       2.704  43.513   4.662  1.00 47.30 LIG 0.17  HD
ENDBRANCH 74 75
ENDBRANCH 73 74
ENDBRANCH 72 73
ENDBRANCH 71 72
BRANCH 71 84
ATOM     84  C   ARG B 826       0.874  43.468  10.984  1.00 71.98 LIG 0.22  C 
ATOM     85 O    ARG B 826       0.305  42.464  11.406  1.00 86.43 LIG-0.29  OA
ENDBRANCH 71 84
ENDBRANCH 68 71
ENDBRANCH 62 67
ENDBRANCH 47 60
ENDBRANCH 3 47
TORSDOF 31
ENDMDL
MODEL 13
USER: ADFR SOLUTION from run 64
USER: SCORE 23.101631 LL:  -3.408 LR: -21.114 RR:   0.000 FEB: -11.867
USER: RMSD 12.297325
USER: SEED 63
USER: STATUS searching
USER: GENES 33
USER: genes 0 Translation |==|  0.45996 0.53128 0.53703
USER: genes 1 Rotation |==|  0.92670 0.56844 0.74579 0.55322
USER: genes 2 Torsion [N]-C--CA-[N] |==|  0.24470
USER: genes 3 Torsion [C]-CA--CB-[CG] |==|  0.28724
USER: genes 4 Torsion [CA]-CB--CG-[CD] |==|  0.30837
USER: genes 5 Torsion [CB]-CG--CD-[CE] |==|  0.80378
USER: genes 6 Torsion [CG]-CD--CE-[NZ] |==|  0.68257
USER: genes 7 Torsion [CD]-CE--NZ-[HZ3] |==|  0.58042
USER: genes 8 Torsion [C]-CA--N-[C] |==|  0.61850
USER: genes 9 Torsion [N]-C--CA-[N] |==|  0.91667
USER: genes 10 Torsion [C]-CA--N-[C] |==|  0.85796
USER: genes 11 Torsion [N]-C--CA-[N] |==|  0.26817
USER: genes 12 Torsion [C]-CA--CB-[CG2] |==|  0.27975
USER: genes 13 Torsion [CA]-CB--OG1-[HG1] |==|  0.22002
USER: genes 14 Torsion [C]-CA--N-[C] |==|  0.71838
USER: genes 15 Torsion [N]-C--CA-[N] |==|  0.94972
USER: genes 16 Torsion [C]-CA--CB-[CG] |==|  0.44806
USER: genes 17 Torsion [CA]-CB--CG-[CD] |==|  0.90275
USER: genes 18 Torsion [CB]-CG--CD-[NE] |==|  0.46554
USER: genes 19 Torsion [CG]-CD--NE-[CZ] |==|  0.68942
USER: genes 20 Torsion [C]-N--CA-[CB] |==|  0.51162
USER: genes 21 Torsion [N]-CA--CB-[CG] |==|  0.72899
USER: genes 22 Torsion [CA]-CB--CG-[CD] |==|  0.40298
USER: genes 23 Torsion [CB]-CG--CD-[NE] |==|  0.14816
USER: genes 24 Torsion [CG]-CD--NE-[HE] |==|  0.74822
USER: genes 25 Torsion [N]-CA--C-[N] |==|  0.42162
USER: genes 26 Torsion [N]-CA--C-[N] |==|  0.51446
USER: genes 27 Torsion [C]-N--CA-[C] |==|  0.12025
USER: genes 28 Torsion [N]-CA--CB-[CG] |==|  0.23347
USER: genes 29 Torsion [CA]-CB--CG-[CD] |==|  0.70980
USER: genes 30 Torsion [CB]-CG--CD-[NE] |==|  0.69397
USER: genes 31 Torsion [CG]-CD--NE-[HE] |==|  0.14990
USER: genes 32 Torsion [N]-CA--C-[O] |==|  0.54288
ROOT
ATOM      1  C   LYS B 823       3.231  36.157   9.308  1.00 58.46 LIG 0.24  C 
ATOM      2 O    LYS B 823       4.154  36.555  10.019  1.00 54.34 LIG-0.27  OA
ATOM      3  N   ARG B 824       2.769  36.861   8.278  1.00 54.22 LIG-0.35  N 
ATOM      4 H    ARG B 824       2.137  36.597   7.757  1.00 54.22 LIG 0.16  HD
ENDROOT
BRANCH 1 5
ATOM      5  CA  LYS B 823       2.597  34.795   9.546  1.00 55.50 LIG 0.18  C 
BRANCH 5 6
ATOM      6  CB  LYS B 823       2.648  34.466  11.044  1.00 54.97 LIG 0.04  C 
BRANCH 6 7
ATOM      7  CG  LYS B 823       1.339  34.626  11.817  1.00 56.27 LIG 0.00  C 
BRANCH 7 8
ATOM      8  CD  LYS B 823       0.793  33.301  12.254  1.00 52.63 LIG 0.03  C 
BRANCH 8 9
ATOM      9  CE  LYS B 823       0.253  32.464  11.086  1.00 52.00 LIG 0.23  C 
BRANCH 9 10
ATOM     10  NZ  LYS B 823      -1.202  32.251  11.151  1.00 59.54 LIG-0.08  N 
ATOM     11 HZ3  LYS B 823      -1.408  31.479  10.759  1.00 59.54 LIG 0.27  HD
ATOM     12 HZ2  LYS B 823      -1.618  32.916  10.731  1.00 59.54 LIG 0.27  HD
ATOM     13 HZ1  LYS B 823      -1.461  32.230  12.002  1.00 59.54 LIG 0.27  HD
ENDBRANCH 9 10
ENDBRANCH 8 9
ENDBRANCH 7 8
ENDBRANCH 6 7
ENDBRANCH 5 6
BRANCH 5 14
ATOM     14  N   LYS B 823       3.303  33.779   8.770  1.00 58.26 LIG-0.35  N 
ATOM     15 H    LYS B 823       4.160  33.852   8.782  1.00 58.26 LIG 0.16  HD
ATOM     16  C   ARG B 822       2.641  32.824   8.105  1.00 61.99 LIG 0.24  C 
ATOM     17 O    ARG B 822       1.433  32.617   8.268  1.00 62.30 LIG-0.27  OA
BRANCH 16 18
ATOM     18  CA  ARG B 822       3.419  31.946   7.131  1.00 69.11 LIG 0.18  C 
BRANCH 18 19
ATOM     19  N   ARG B 822       4.552  32.632   6.529  1.00 79.36 LIG-0.35  N 
ATOM     20 H    ARG B 822       5.294  32.201   6.586  1.00 79.36 LIG 0.16  HD
ATOM     21  C   THR B 821       4.435  33.820   5.946  1.00 84.58 LIG 0.24  C 
ATOM     22 O    THR B 821       3.344  34.329   5.666  1.00 84.15 LIG-0.27  OA
BRANCH 21 23
ATOM     23  CA  THR B 821       5.745  34.513   5.592  1.00 89.83 LIG 0.20  C 
BRANCH 23 24
ATOM     24  CB  THR B 821       5.631  36.012   5.890  1.00 88.11 LIG 0.15  C 
ATOM     25  CG2 THR B 821       6.305  36.366   7.210  1.00 89.90 LIG 0.04  C 
BRANCH 24 26
ATOM     26 OG1  THR B 821       6.256  36.761   4.840  1.00 82.62 LIG-0.39  OA
ATOM     27 HG1  THR B 821       5.738  36.806   4.180  1.00 82.62 LIG 0.21  HD
ENDBRANCH 24 26
ENDBRANCH 23 24
BRANCH 23 28
ATOM     28  N   THR B 821       6.105  34.275   4.200  1.00 98.89 LIG-0.34  N 
ATOM     29 H    THR B 821       5.675  34.763   3.637  1.00 98.89 LIG 0.16  HD
ATOM     30  C   ALA B 820       7.024  33.375   3.850  1.00104.93 LIG 0.26  C 
ATOM     31 O    ALA B 820       7.578  32.626   4.660  1.00110.84 LIG-0.27  OA
BRANCH 30 32
ATOM     32  CA  ALA B 820       7.366  33.305   2.364  1.00100.65 LIG 0.40  C 
ATOM     33  N   ALA B 820       6.321  33.939   1.570  1.00102.47 LIG 0.61  N 
ATOM     34  CB  ALA B 820       8.713  33.960   2.092  1.00 93.61 LIG 0.06  C 
ENDBRANCH 30 32
ENDBRANCH 23 28
ENDBRANCH 21 23
ENDBRANCH 18 19
BRANCH 18 35
ATOM     35  CB  ARG B 822       3.889  30.655   7.802  1.00 74.55 LIG 0.04  C 
BRANCH 35 36
ATOM     36  CG  ARG B 822       4.241  29.613   6.761  1.00 89.07 LIG 0.02  C 
BRANCH 36 37
ATOM     37  CD  ARG B 822       3.367  29.654   5.535  1.00 95.35 LIG 0.14  C 
BRANCH 37 38
ATOM     38  NE  ARG B 822       3.950  28.831   4.477  1.00111.05 LIG-0.23  N 
ATOM     39  CZ  ARG B 822       4.457  29.315   3.344  1.00116.06 LIG 0.67  C 
ATOM     40  NH1 ARG B 822       4.462  30.624   3.126  1.00115.06 LIG-0.23  N 
ATOM     41  NH2 ARG B 822       4.978  28.492   2.441  1.00119.10 LIG-0.23  N 
ATOM     42 2HH1 ARG B 822       4.789  30.936   2.394  1.00115.06 LIG 0.17  HD
ATOM     43 1HH1 ARG B 822       4.139  31.160   3.715  1.00115.06 LIG 0.17  HD
ATOM     44 1HH2 ARG B 822       4.989  27.644   2.587  1.00119.10 LIG 0.17  HD
ATOM     45 2HH2 ARG B 822       5.304  28.806   1.710  1.00119.10 LIG 0.17  HD
ATOM     46 HE   ARG B 822       3.967  27.980   4.594  1.00111.05 LIG 0.18  HD
ENDBRANCH 37 38
ENDBRANCH 36 37
ENDBRANCH 35 36
ENDBRANCH 18 35
ENDBRANCH 16 18
ENDBRANCH 5 14
ENDBRANCH 1 5
BRANCH 3 47
ATOM     47  CA  ARG B 824       3.321  38.173   7.949  1.00 54.21 LIG 0.18  C 
BRANCH 47 48
ATOM     48  CB  ARG B 824       2.561  38.824   6.793  1.00 52.82 LIG 0.04  C 
BRANCH 48 49
ATOM     49  CG  ARG B 824       3.255  38.624   5.454  1.00 57.86 LIG 0.02  C 
BRANCH 49 50
ATOM     50  CD  ARG B 824       2.279  38.461   4.318  1.00 56.10 LIG 0.14  C 
BRANCH 50 51
ATOM     51  NE  ARG B 824       1.327  39.558   4.281  1.00 65.02 LIG-0.23  N 
ATOM     52  CZ  ARG B 824       1.511  40.687   3.616  1.00 62.89 LIG 0.67  C 
ATOM     53  NH1 ARG B 824       2.617  40.865   2.907  1.00 60.33 LIG-0.23  N 
ATOM     54  NH2 ARG B 824       0.580  41.622   3.643  1.00 55.39 LIG-0.23  N 
ATOM     55 1HH1 ARG B 824       3.214  40.247   2.879  1.00 60.33 LIG 0.17  HD
ATOM     56 2HH1 ARG B 824       2.736  41.600   2.475  1.00 60.33 LIG 0.17  HD
ATOM     57 2HH2 ARG B 824       0.697  42.358   3.212  1.00 55.39 LIG 0.17  HD
ATOM     58 1HH2 ARG B 824      -0.143  41.497   4.091  1.00 55.39 LIG 0.17  HD
ATOM     59 HE   ARG B 824       0.593  39.467   4.721  1.00 65.02 LIG 0.18  HD
ENDBRANCH 50 51
ENDBRANCH 49 50
ENDBRANCH 48 49
ENDBRANCH 47 48
BRANCH 47 60
ATOM     60  C   ARG B 824       3.334  39.080   9.172  1.00 52.05 LIG 0.24  C 
ATOM     61  N   PRO B 825       4.256  40.032   9.249  1.00 68.51 LIG-0.34  N 
ATOM     62  CA  PRO B 825       4.387  40.850  10.455  1.00 67.77 LIG 0.18  C 
ATOM     63  CD  PRO B 825       5.005  40.609   8.115  1.00 70.13 LIG 0.13  C 
ATOM     64  CB  PRO B 825       5.662  41.647  10.186  1.00 68.40 LIG 0.04  C 
ATOM     65  CG  PRO B 825       5.613  41.874   8.707  1.00 73.68 LIG 0.02  C 
ATOM     66 O    ARG B 824       2.480  38.924  10.063  1.00 51.39 LIG-0.27  OA
BRANCH 62 67
ATOM     67  C   PRO B 825       3.188  41.766  10.631  1.00 71.49 LIG 0.24  C 
ATOM     68  N   ARG B 826       3.286  42.617  11.646  1.00 70.87 LIG-0.35  N 
ATOM     69 H    ARG B 826       3.915  42.598  12.231  1.00 70.87 LIG 0.16  HD
ATOM     70 O    PRO B 825       2.195  41.692   9.908  1.00 73.63 LIG-0.27  OA
BRANCH 68 71
ATOM     71  CA  ARG B 826       2.312  43.673  11.848  1.00 67.47 LIG 0.16  C 
BRANCH 71 72
ATOM     72  CB  ARG B 826       2.573  44.838  10.897  1.00 70.42 LIG 0.04  C 
BRANCH 72 73
ATOM     73  CG  ARG B 826       1.953  44.622   9.535  1.00 69.62 LIG 0.02  C 
BRANCH 73 74
ATOM     74  CD  ARG B 826       2.941  44.245   8.448  1.00 58.43 LIG 0.14  C 
BRANCH 74 75
ATOM     75  NE  ARG B 826       3.173  45.271   7.431  1.00 52.00 LIG-0.23  N 
ATOM     76 HE   ARG B 826       3.407  46.055   7.696  1.00 52.00 LIG 0.18  HD
ATOM     77  CZ  ARG B 826       3.045  45.069   6.126  1.00 51.94 LIG 0.67  C 
ATOM     78  NH1 ARG B 826       2.614  43.891   5.694  1.00 56.61 LIG-0.23  N 
ATOM     79  NH2 ARG B 826       3.311  46.042   5.270  1.00 47.30 LIG-0.23  N 
ATOM     80 2HH1 ARG B 826       2.527  43.748   4.850  1.00 56.61 LIG 0.17  HD
ATOM     81 1HH1 ARG B 826       2.421  43.270   6.257  1.00 56.61 LIG 0.17  HD
ATOM     82 1HH2 ARG B 826       3.568  46.810   5.557  1.00 47.30 LIG 0.17  HD
ATOM     83 2HH2 ARG B 826       3.227  45.905   4.425  1.00 47.30 LIG 0.17  HD
ENDBRANCH 74 75
ENDBRANCH 73 74
ENDBRANCH 72 73
ENDBRANCH 71 72
BRANCH 71 84
ATOM     84  C   ARG B 826       0.902  43.136  11.635  1.00 71.98 LIG 0.22  C 
ATOM     85 O    ARG B 826      -0.045  43.904  11.479  1.00 86.43 LIG-0.29  OA
ENDBRANCH 71 84
ENDBRANCH 68 71
ENDBRANCH 62 67
ENDBRANCH 47 60
ENDBRANCH 3 47
TORSDOF 31
ENDMDL
MODEL 14
USER: ADFR SOLUTION from run 129
USER: SCORE 22.142310 LL:  -3.809 LR: -21.031 RR:   0.000 FEB: -11.784
USER: RMSD 6.281793
USER: SEED 128
USER: STATUS no improvement in best in 2 clusters for 5 generations
USER: GENES 33
USER: genes 0 Translation |==|  0.44050 0.48669 0.55989
USER: genes 1 Rotation |==|  0.68954 0.29370 0.54550 0.91164
USER: genes 2 Torsion [N]-C--CA-[N] |==|  0.90129
USER: genes 3 Torsion [C]-CA--CB-[CG] |==|  0.99978
USER: genes 4 Torsion [CA]-CB--CG-[CD] |==|  0.25777
USER: genes 5 Torsion [CB]-CG--CD-[CE] |==|  0.50050
USER: genes 6 Torsion [CG]-CD--CE-[NZ] |==|  0.90033
USER: genes 7 Torsion [CD]-CE--NZ-[HZ3] |==|  0.76487
USER: genes 8 Torsion [C]-CA--N-[C] |==|  0.76826
USER: genes 9 Torsion [N]-C--CA-[N] |==|  0.19518
USER: genes 10 Torsion [C]-CA--N-[C] |==|  0.52222
USER: genes 11 Torsion [N]-C--CA-[N] |==|  0.29614
USER: genes 12 Torsion [C]-CA--CB-[CG2] |==|  0.45042
USER: genes 13 Torsion [CA]-CB--OG1-[HG1] |==|  0.18472
USER: genes 14 Torsion [C]-CA--N-[C] |==|  0.84404
USER: genes 15 Torsion [N]-C--CA-[N] |==|  0.25797
USER: genes 16 Torsion [C]-CA--CB-[CG] |==|  0.20488
USER: genes 17 Torsion [CA]-CB--CG-[CD] |==|  0.25167
USER: genes 18 Torsion [CB]-CG--CD-[NE] |==|  0.33544
USER: genes 19 Torsion [CG]-CD--NE-[CZ] |==|  0.54806
USER: genes 20 Torsion [C]-N--CA-[CB] |==|  0.21881
USER: genes 21 Torsion [N]-CA--CB-[CG] |==|  0.51289
USER: genes 22 Torsion [CA]-CB--CG-[CD] |==|  0.41771
USER: genes 23 Torsion [CB]-CG--CD-[NE] |==|  0.26638
USER: genes 24 Torsion [CG]-CD--NE-[HE] |==|  0.09155
USER: genes 25 Torsion [N]-CA--C-[N] |==|  0.24718
USER: genes 26 Torsion [N]-CA--C-[N] |==|  0.49943
USER: genes 27 Torsion [C]-N--CA-[C] |==|  0.70946
USER: genes 28 Torsion [N]-CA--CB-[CG] |==|  0.82772
USER: genes 29 Torsion [CA]-CB--CG-[CD] |==|  0.88830
USER: genes 30 Torsion [CB]-CG--CD-[NE] |==|  0.73587
USER: genes 31 Torsion [CG]-CD--NE-[HE] |==|  0.75414
USER: genes 32 Torsion [N]-CA--C-[O] |==|  0.33149
ROOT
ATOM      1  C   LYS B 823       2.823  34.853   9.806  1.00 58.46 LIG 0.24  C 
ATOM      2 O    LYS B 823       3.314  34.343  10.812  1.00 54.34 LIG-0.27  OA
ATOM      3  N   ARG B 824       2.735  34.205   8.646  1.00 54.22 LIG-0.35  N 
ATOM      4 H    ARG B 824       2.381  34.534   7.934  1.00 54.22 LIG 0.16  HD
ENDROOT
BRANCH 1 5
ATOM      5  CA  LYS B 823       2.234  36.255   9.852  1.00 55.50 LIG 0.18  C 
BRANCH 5 6
ATOM      6  CB  LYS B 823       0.737  36.167  10.175  1.00 54.97 LIG 0.04  C 
BRANCH 6 7
ATOM      7  CG  LYS B 823       0.169  34.761  10.372  1.00 56.27 LIG 0.00  C 
BRANCH 7 8
ATOM      8  CD  LYS B 823       0.191  34.355  11.814  1.00 52.63 LIG 0.03  C 
BRANCH 8 9
ATOM      9  CE  LYS B 823      -0.369  32.946  12.046  1.00 52.00 LIG 0.23  C 
BRANCH 9 10
ATOM     10  NZ  LYS B 823      -1.494  32.617  11.154  1.00 59.54 LIG-0.08  N 
ATOM     11 HZ3  LYS B 823      -2.252  32.927  11.504  1.00 59.54 LIG 0.27  HD
ATOM     12 HZ2  LYS B 823      -1.551  31.734  11.061  1.00 59.54 LIG 0.27  HD
ATOM     13 HZ1  LYS B 823      -1.360  32.991  10.357  1.00 59.54 LIG 0.27  HD
ENDBRANCH 9 10
ENDBRANCH 8 9
ENDBRANCH 7 8
ENDBRANCH 6 7
ENDBRANCH 5 6
BRANCH 5 14
ATOM     14  N   LYS B 823       2.448  36.923   8.571  1.00 58.26 LIG-0.35  N 
ATOM     15 H    LYS B 823       1.779  36.883   8.031  1.00 58.26 LIG 0.16  HD
ATOM     16  C   ARG B 822       3.602  37.539   8.291  1.00 61.99 LIG 0.24  C 
ATOM     17 O    ARG B 822       4.464  37.760   9.149  1.00 62.30 LIG-0.27  OA
BRANCH 16 18
ATOM     18  CA  ARG B 822       3.845  38.007   6.859  1.00 69.11 LIG 0.18  C 
BRANCH 18 19
ATOM     19  N   ARG B 822       3.005  39.132   6.479  1.00 79.36 LIG-0.35  N 
ATOM     20 H    ARG B 822       2.554  39.468   7.129  1.00 79.36 LIG 0.16  HD
ATOM     21  C   THR B 821       2.950  39.588   5.232  1.00 84.58 LIG 0.24  C 
ATOM     22 O    THR B 821       3.757  39.257   4.357  1.00 84.15 LIG-0.27  OA
BRANCH 21 23
ATOM     23  CA  THR B 821       1.844  40.597   4.948  1.00 89.83 LIG 0.20  C 
BRANCH 23 24
ATOM     24  CB  THR B 821       1.067  40.169   3.697  1.00 88.11 LIG 0.15  C 
ATOM     25  CG2 THR B 821      -0.284  40.870   3.620  1.00 89.90 LIG 0.04  C 
BRANCH 24 26
ATOM     26 OG1  THR B 821       1.823  40.498   2.524  1.00 82.62 LIG-0.39  OA
ATOM     27 HG1  THR B 821       2.520  40.031   2.500  1.00 82.62 LIG 0.21  HD
ENDBRANCH 24 26
ENDBRANCH 23 24
BRANCH 23 28
ATOM     28  N   THR B 821       2.385  41.942   4.800  1.00 98.89 LIG-0.34  N 
ATOM     29 H    THR B 821       2.187  42.322   4.054  1.00 98.89 LIG 0.16  HD
ATOM     30  C   ALA B 820       3.123  42.516   5.751  1.00104.93 LIG 0.26  C 
ATOM     31 O    ALA B 820       3.467  41.933   6.783  1.00110.84 LIG-0.27  OA
BRANCH 30 32
ATOM     32  CA  ALA B 820       3.540  43.962   5.498  1.00100.65 LIG 0.40  C 
ATOM     33  N   ALA B 820       2.576  44.882   6.091  1.00102.47 LIG 0.61  N 
ATOM     34  CB  ALA B 820       4.935  44.223   6.050  1.00 93.61 LIG 0.06  C 
ENDBRANCH 30 32
ENDBRANCH 23 28
ENDBRANCH 21 23
ENDBRANCH 18 19
BRANCH 18 35
ATOM     35  CB  ARG B 822       5.316  38.357   6.632  1.00 74.55 LIG 0.04  C 
BRANCH 35 36
ATOM     36  CG  ARG B 822       6.155  37.100   6.551  1.00 89.07 LIG 0.02  C 
BRANCH 36 37
ATOM     37  CD  ARG B 822       6.306  36.554   5.156  1.00 95.35 LIG 0.14  C 
BRANCH 37 38
ATOM     38  NE  ARG B 822       7.720  36.503   4.788  1.00111.05 LIG-0.23  N 
ATOM     39  CZ  ARG B 822       8.167  36.389   3.539  1.00116.06 LIG 0.67  C 
ATOM     40  NH1 ARG B 822       7.306  36.323   2.531  1.00115.06 LIG-0.23  N 
ATOM     41  NH2 ARG B 822       9.473  36.362   3.297  1.00119.10 LIG-0.23  N 
ATOM     42 2HH1 ARG B 822       7.594  36.249   1.724  1.00115.06 LIG 0.17  HD
ATOM     43 1HH1 ARG B 822       6.461  36.355   2.684  1.00115.06 LIG 0.17  HD
ATOM     44 1HH2 ARG B 822      10.032  36.420   3.947  1.00119.10 LIG 0.17  HD
ATOM     45 2HH2 ARG B 822       9.759  36.288   2.489  1.00119.10 LIG 0.17  HD
ATOM     46 HE   ARG B 822       8.302  36.551   5.420  1.00111.05 LIG 0.18  HD
ENDBRANCH 37 38
ENDBRANCH 36 37
ENDBRANCH 35 36
ENDBRANCH 18 35
ENDBRANCH 16 18
ENDBRANCH 5 14
ENDBRANCH 1 5
BRANCH 3 47
ATOM     47  CA  ARG B 824       3.251  32.846   8.498  1.00 54.21 LIG 0.18  C 
BRANCH 47 48
ATOM     48  CB  ARG B 824       2.287  31.816   9.087  1.00 52.82 LIG 0.04  C 
BRANCH 48 49
ATOM     49  CG  ARG B 824       2.850  30.403   9.047  1.00 57.86 LIG 0.02  C 
BRANCH 49 50
ATOM     50  CD  ARG B 824       2.331  29.544  10.171  1.00 56.10 LIG 0.14  C 
BRANCH 50 51
ATOM     51  NE  ARG B 824       1.193  28.748   9.744  1.00 65.02 LIG-0.23  N 
ATOM     52  CZ  ARG B 824       0.181  28.410  10.525  1.00 62.89 LIG 0.67  C 
ATOM     53  NH1 ARG B 824       0.151  28.819  11.786  1.00 60.33 LIG-0.23  N 
ATOM     54  NH2 ARG B 824      -0.810  27.686  10.038  1.00 55.39 LIG-0.23  N 
ATOM     55 1HH1 ARG B 824       0.790  29.305  12.095  1.00 60.33 LIG 0.17  HD
ATOM     56 2HH1 ARG B 824      -0.508  28.599  12.293  1.00 60.33 LIG 0.17  HD
ATOM     57 2HH2 ARG B 824      -1.469  27.464  10.543  1.00 55.39 LIG 0.17  HD
ATOM     58 1HH2 ARG B 824      -0.795  27.435   9.215  1.00 55.39 LIG 0.17  HD
ATOM     59 HE   ARG B 824       1.177  28.478   8.927  1.00 65.02 LIG 0.18  HD
ENDBRANCH 50 51
ENDBRANCH 49 50
ENDBRANCH 48 49
ENDBRANCH 47 48
BRANCH 47 60
ATOM     60  C   ARG B 824       3.554  32.536   7.038  1.00 52.05 LIG 0.24  C 
ATOM     61  N   PRO B 825       4.760  32.822   6.563  1.00 68.51 LIG-0.34  N 
ATOM     62  CA  PRO B 825       5.064  32.657   5.142  1.00 67.77 LIG 0.18  C 
ATOM     63  CD  PRO B 825       5.987  33.007   7.364  1.00 70.13 LIG 0.13  C 
ATOM     64  CB  PRO B 825       6.454  33.278   5.017  1.00 68.40 LIG 0.04  C 
ATOM     65  CG  PRO B 825       7.097  32.930   6.324  1.00 73.68 LIG 0.02  C 
ATOM     66 O    ARG B 824       2.679  32.012   6.325  1.00 51.39 LIG-0.27  OA
BRANCH 62 67
ATOM     67  C   PRO B 825       5.076  31.190   4.749  1.00 71.49 LIG 0.24  C 
ATOM     68  N   ARG B 826       5.340  30.961   3.469  1.00 70.87 LIG-0.35  N 
ATOM     69 H    ARG B 826       5.397  31.577   2.872  1.00 70.87 LIG 0.16  HD
ATOM     70 O    PRO B 825       4.822  30.294   5.555  1.00 73.63 LIG-0.27  OA
BRANCH 68 71
ATOM     71  CA  ARG B 826       5.560  29.618   2.966  1.00 67.47 LIG 0.16  C 
BRANCH 71 72
ATOM     72  CB  ARG B 826       4.768  29.387   1.680  1.00 70.42 LIG 0.04  C 
BRANCH 72 73
ATOM     73  CG  ARG B 826       3.276  29.506   1.893  1.00 69.62 LIG 0.02  C 
BRANCH 73 74
ATOM     74  CD  ARG B 826       2.774  28.892   3.185  1.00 58.43 LIG 0.14  C 
BRANCH 74 75
ATOM     75  NE  ARG B 826       2.278  27.519   3.073  1.00 52.00 LIG-0.23  N 
ATOM     76 HE   ARG B 826       1.448  27.406   2.878  1.00 52.00 LIG 0.18  HD
ATOM     77  CZ  ARG B 826       3.026  26.440   3.254  1.00 51.94 LIG 0.67  C 
ATOM     78  NH1 ARG B 826       4.291  26.585   3.628  1.00 56.61 LIG-0.23  N 
ATOM     79  NH2 ARG B 826       2.508  25.232   3.097  1.00 47.30 LIG-0.23  N 
ATOM     80 2HH1 ARG B 826       4.787  25.892   3.748  1.00 56.61 LIG 0.17  HD
ATOM     81 1HH1 ARG B 826       4.616  27.372   3.751  1.00 56.61 LIG 0.17  HD
ATOM     82 1HH2 ARG B 826       1.681  25.144   2.876  1.00 47.30 LIG 0.17  HD
ATOM     83 2HH2 ARG B 826       2.997  24.536   3.214  1.00 47.30 LIG 0.17  HD
ENDBRANCH 74 75
ENDBRANCH 73 74
ENDBRANCH 72 73
ENDBRANCH 71 72
BRANCH 71 84
ATOM     84  C   ARG B 826       7.043  29.387   2.710  1.00 71.98 LIG 0.22  C 
ATOM     85 O    ARG B 826       7.654  28.503   3.308  1.00 86.43 LIG-0.29  OA
ENDBRANCH 71 84
ENDBRANCH 68 71
ENDBRANCH 62 67
ENDBRANCH 47 60
ENDBRANCH 3 47
TORSDOF 31
ENDMDL
