MODEL 1
USER: ADFR SOLUTION from run 13
USER: SCORE 13.005404 LL:  -2.453 LR: -12.182 RR:   0.000 FEB:  -7.111
USER: RMSD 1.717866
USER: SEED 643326
USER: STATUS no improvement in best in 7 clusters for 5 generations
USER: GENES 19
USER: genes 0 Translation |==|  0.44045 0.47598 0.49687
USER: genes 1 Rotation |==|  0.43248 0.41578 0.67000 0.95766
USER: genes 2 Torsion [N]-C--CA-[N] |==|  0.18103
USER: genes 3 Torsion [C]-CA--CB-[CG] |==|  0.23011
USER: genes 4 Torsion [CA]-CB--CG-[OD2] |==|  0.02153
USER: genes 5 Torsion [C]-CA--N-[C] |==|  0.66667
USER: genes 6 Torsion [N]-C--CA-[N] |==|  0.54304
USER: genes 7 Torsion [C]-CA--N-[H3] |==|  0.64198
USER: genes 8 Torsion [C]-CA--CB-[CG] |==|  0.78298
USER: genes 9 Torsion [CA]-CB--CG-[OD2] |==|  0.35713
USER: genes 10 Torsion [C]-N--CA-[CB] |==|  0.53756
USER: genes 11 Torsion [N]-CA--C-[N] |==|  0.88381
USER: genes 12 Torsion [C]-N--CA-[C] |==|  0.67616
USER: genes 13 Torsion [N]-CA--C-[O] |==|  0.73963
USER: genes 14 Torsion [N]-CA--CB-[CG] |==|  0.49572
USER: genes 15 Torsion [CA]-CB--CG-[SD] |==|  0.54005
USER: genes 16 Torsion [CB]-CG--SD-[CE] |==|  0.75265
USER: genes 17 Torsion [N]-CA--CB-[CG] |==|  0.82730
USER: genes 18 Torsion [CA]-CB--CG-[OD1] |==|  0.44910
ROOT
ATOM      1  C   ASP D   0     -19.825 -18.592 -23.409  1.00 50.85 LIG 0.24  C 
ATOM      2 O    ASP D   0     -20.033 -19.204 -24.461  1.00 49.73 LIG-0.27  OA
ATOM      3  N   ASP D   1     -19.325 -17.351 -23.373  1.00 47.66 LIG-0.34  N 
ATOM      4 H    ASP D   1     -19.245 -16.891 -22.651  1.00 47.66 LIG 0.16  HD
ENDROOT
BRANCH 1 5
ATOM      5  CA  ASP D   0     -20.130 -19.263 -22.066  1.00 50.32 LIG 0.19  C 
BRANCH 5 6
ATOM      6  CB  ASP D   0     -20.525 -20.725 -22.305  1.00 50.50 LIG 0.15  C 
BRANCH 6 7
ATOM      7  CG  ASP D   0     -19.330 -21.639 -22.454  1.00 42.38 LIG 0.17  C 
ATOM      8 OD2  ASP D   0     -18.191 -21.174 -22.228  1.00 47.85 LIG-0.65  OA
ATOM      9 OD1  ASP D   0     -19.528 -22.823 -22.792  1.00 32.99 LIG-0.65  OA
ENDBRANCH 6 7
ENDBRANCH 5 6
BRANCH 5 10
ATOM     10  N   ASP D   0     -21.196 -18.592 -21.325  1.00 53.06 LIG-0.34  N 
ATOM     11 H    ASP D   0     -21.949 -18.566 -21.741  1.00 53.06 LIG 0.16  HD
ATOM     12  C   ASP D  -1     -21.009 -18.069 -20.114  1.00 52.15 LIG 0.25  C 
ATOM     13 O    ASP D  -1     -19.892 -17.891 -19.612  1.00 47.49 LIG-0.27  OA
BRANCH 12 14
ATOM     14  CA  ASP D  -1     -22.277 -17.680 -19.358  1.00 59.57 LIG 0.28  C 
BRANCH 14 15
ATOM     15  N   ASP D  -1     -21.943 -16.804 -18.239  1.00 50.06 LIG-0.07  N 
ATOM     16 H3   ASP D  -1     -22.314 -17.119 -17.494  1.00 50.06 LIG 0.28  HD
ATOM     17 H2   ASP D  -1     -22.251 -15.984 -18.400  1.00 50.06 LIG 0.28  HD
ATOM     18 H1   ASP D  -1     -21.059 -16.773 -18.140  1.00 50.06 LIG 0.28  HD
ENDBRANCH 14 15
BRANCH 14 19
ATOM     19  CB  ASP D  -1     -23.283 -17.003 -20.291  1.00 60.46 LIG 0.15  C 
BRANCH 19 20
ATOM     20  CG  ASP D  -1     -22.937 -15.557 -20.574  1.00 56.39 LIG 0.17  C 
ATOM     21 OD1  ASP D  -1     -22.700 -14.803 -19.603  1.00 65.47 LIG-0.65  OA
ATOM     22 OD2  ASP D  -1     -22.890 -15.178 -21.766  1.00 48.71 LIG-0.65  OA
ENDBRANCH 19 20
ENDBRANCH 14 19
ENDBRANCH 12 14
ENDBRANCH 5 10
ENDBRANCH 1 5
BRANCH 3 23
ATOM     23  CA  ASP D   1     -18.859 -16.656 -24.587  1.00 46.44 LIG 0.19  C 
BRANCH 23 24
ATOM     24  C   ASP D   1     -17.993 -17.560 -25.449  1.00 38.24 LIG 0.24  C 
ATOM     25 O    ASP D   1     -18.096 -17.541 -26.672  1.00 48.73 LIG-0.27  OA
ATOM     26  N   MET D   2     -17.112 -18.323 -24.814  1.00 47.06 LIG-0.35  N 
ATOM     27 H    MET D   2     -17.094 -18.437 -23.962  1.00 47.06 LIG 0.16  HD
BRANCH 26 28
ATOM     28  CA  MET D   2     -16.075 -19.044 -25.551  1.00 48.57 LIG 0.16  C 
BRANCH 28 29
ATOM     29  C   MET D   2     -16.212 -20.556 -25.422  1.00 49.60 LIG 0.22  C 
ATOM     30 O    MET D   2     -15.590 -21.167 -24.551  1.00 49.04 LIG-0.29  OA
ENDBRANCH 28 29
BRANCH 28 31
ATOM     31  CB  MET D   2     -14.686 -18.600 -25.073  1.00 43.71 LIG 0.04  C 
BRANCH 31 32
ATOM     32  CG  MET D   2     -13.529 -19.308 -25.743  1.00 45.96 LIG 0.08  C 
BRANCH 32 33
ATOM     33 SD   MET D   2     -11.979 -19.047 -24.853  1.00 73.43 LIG-0.17  SA
ATOM     34  CE  MET D   2     -11.392 -17.547 -25.641  1.00 57.46 LIG 0.09  C 
ENDBRANCH 32 33
ENDBRANCH 31 32
ENDBRANCH 28 31
ENDBRANCH 26 28
ENDBRANCH 23 24
BRANCH 23 35
ATOM     35  CB  ASP D   1     -18.034 -15.400 -24.256  1.00 44.28 LIG 0.15  C 
BRANCH 35 36
ATOM     36  CG  ASP D   1     -18.817 -14.345 -23.498  1.00 47.95 LIG 0.17  C 
ATOM     37 OD1  ASP D   1     -18.200 -13.451 -22.875  1.00 49.71 LIG-0.65  OA
ATOM     38 OD2  ASP D   1     -20.070 -14.428 -23.522  1.00 42.29 LIG-0.65  OA
ENDBRANCH 35 36
ENDBRANCH 23 35
ENDBRANCH 3 23
TORSDOF 17
ENDMDL
MODEL 2
USER: ADFR SOLUTION from run 159
USER: SCORE 12.483135 LL:  -2.654 LR: -11.787 RR:   0.000 FEB:  -6.716
USER: RMSD 8.307982
USER: SEED 158
USER: STATUS no improvement in best in 21 clusters for 5 generations
USER: GENES 19
USER: genes 0 Translation |==|  0.37754 0.39332 0.64924
USER: genes 1 Rotation |==|  0.50162 0.11333 0.73567 0.71200
USER: genes 2 Torsion [N]-C--CA-[N] |==|  0.00518
USER: genes 3 Torsion [C]-CA--CB-[CG] |==|  0.25742
USER: genes 4 Torsion [CA]-CB--CG-[OD2] |==|  0.37729
USER: genes 5 Torsion [C]-CA--N-[C] |==|  0.64445
USER: genes 6 Torsion [N]-C--CA-[N] |==|  0.53504
USER: genes 7 Torsion [C]-CA--N-[H3] |==|  0.16100
USER: genes 8 Torsion [C]-CA--CB-[CG] |==|  0.83965
USER: genes 9 Torsion [CA]-CB--CG-[OD2] |==|  0.82411
USER: genes 10 Torsion [C]-N--CA-[CB] |==|  0.38334
USER: genes 11 Torsion [N]-CA--C-[N] |==|  0.71746
USER: genes 12 Torsion [C]-N--CA-[C] |==|  0.78767
USER: genes 13 Torsion [N]-CA--C-[O] |==|  0.23684
USER: genes 14 Torsion [N]-CA--CB-[CG] |==|  0.69298
USER: genes 15 Torsion [CA]-CB--CG-[SD] |==|  0.69953
USER: genes 16 Torsion [CB]-CG--SD-[CE] |==|  0.49255
USER: genes 17 Torsion [N]-CA--CB-[CG] |==|  0.55658
USER: genes 18 Torsion [CA]-CB--CG-[OD1] |==|  0.74220
ROOT
ATOM      1  C   ASP D   0     -21.147 -20.018 -20.667  1.00 50.85 LIG 0.24  C 
ATOM      2 O    ASP D   0     -20.044 -19.602 -21.034  1.00 49.73 LIG-0.27  OA
ATOM      3  N   ASP D   1     -22.154 -19.208 -20.321  1.00 47.66 LIG-0.34  N 
ATOM      4 H    ASP D   1     -22.947 -19.486 -20.133  1.00 47.66 LIG 0.16  HD
ENDROOT
BRANCH 1 5
ATOM      5  CA  ASP D   0     -21.400 -21.526 -20.577  1.00 50.32 LIG 0.19  C 
BRANCH 5 6
ATOM      6  CB  ASP D   0     -21.129 -22.170 -21.941  1.00 50.50 LIG 0.15  C 
BRANCH 6 7
ATOM      7  CG  ASP D   0     -19.711 -22.677 -22.081  1.00 42.38 LIG 0.17  C 
ATOM      8 OD2  ASP D   0     -19.529 -23.806 -22.590  1.00 47.85 LIG-0.65  OA
ATOM      9 OD1  ASP D   0     -18.779 -21.947 -21.689  1.00 32.99 LIG-0.65  OA
ENDBRANCH 6 7
ENDBRANCH 5 6
BRANCH 5 10
ATOM     10  N   ASP D   0     -22.761 -21.850 -20.153  1.00 53.06 LIG-0.34  N 
ATOM     11 H    ASP D   0     -23.372 -21.460 -20.616  1.00 53.06 LIG 0.16  HD
ATOM     12  C   ASP D  -1     -23.019 -22.676 -19.141  1.00 52.15 LIG 0.25  C 
ATOM     13 O    ASP D  -1     -22.164 -23.051 -18.329  1.00 47.49 LIG-0.27  OA
BRANCH 12 14
ATOM     14  CA  ASP D  -1     -24.469 -23.142 -19.022  1.00 59.57 LIG 0.28  C 
BRANCH 14 15
ATOM     15  N   ASP D  -1     -24.682 -23.785 -17.728  1.00 50.06 LIG-0.07  N 
ATOM     16 H3   ASP D  -1     -24.478 -23.214 -17.076  1.00 50.06 LIG 0.28  HD
ATOM     17 H2   ASP D  -1     -24.163 -24.506 -17.665  1.00 50.06 LIG 0.28  HD
ATOM     18 H1   ASP D  -1     -25.535 -24.027 -17.654  1.00 50.06 LIG 0.28  HD
ENDBRANCH 14 15
BRANCH 14 19
ATOM     19  CB  ASP D  -1     -25.436 -21.973 -19.209  1.00 60.46 LIG 0.15  C 
BRANCH 19 20
ATOM     20  CG  ASP D  -1     -25.202 -20.854 -18.216  1.00 56.39 LIG 0.17  C 
ATOM     21 OD1  ASP D  -1     -24.863 -19.733 -18.655  1.00 65.47 LIG-0.65  OA
ATOM     22 OD2  ASP D  -1     -25.370 -21.094 -16.999  1.00 48.71 LIG-0.65  OA
ENDBRANCH 19 20
ENDBRANCH 14 19
ENDBRANCH 12 14
ENDBRANCH 5 10
ENDBRANCH 1 5
BRANCH 3 23
ATOM     23  CA  ASP D   1     -21.991 -17.745 -20.229  1.00 46.44 LIG 0.19  C 
BRANCH 23 24
ATOM     24  C   ASP D   1     -21.837 -17.291 -18.787  1.00 38.24 LIG 0.24  C 
ATOM     25 O    ASP D   1     -20.755 -17.386 -18.215  1.00 48.73 LIG-0.27  OA
ATOM     26  N   MET D   2     -22.910 -16.762 -18.211  1.00 47.06 LIG-0.35  N 
ATOM     27 H    MET D   2     -23.702 -16.784 -18.547  1.00 47.06 LIG 0.16  HD
BRANCH 26 28
ATOM     28  CA  MET D   2     -22.810 -16.080 -16.921  1.00 48.57 LIG 0.16  C 
BRANCH 28 29
ATOM     29  C   MET D   2     -22.685 -17.053 -15.756  1.00 49.60 LIG 0.22  C 
ATOM     30 O    MET D   2     -21.583 -17.497 -15.428  1.00 49.04 LIG-0.29  OA
ENDBRANCH 28 29
BRANCH 28 31
ATOM     31  CB  MET D   2     -24.026 -15.167 -16.715  1.00 43.71 LIG 0.04  C 
BRANCH 31 32
ATOM     32  CG  MET D   2     -23.721 -13.686 -16.763  1.00 45.96 LIG 0.08  C 
BRANCH 32 33
ATOM     33 SD   MET D   2     -23.827 -12.928 -15.127  1.00 73.43 LIG-0.17  SA
ATOM     34  CE  MET D   2     -23.344 -11.243 -15.509  1.00 57.46 LIG 0.09  C 
ENDBRANCH 32 33
ENDBRANCH 31 32
ENDBRANCH 28 31
ENDBRANCH 26 28
ENDBRANCH 23 24
BRANCH 23 35
ATOM     35  CB  ASP D   1     -23.190 -16.989 -20.829  1.00 44.28 LIG 0.15  C 
BRANCH 35 36
ATOM     36  CG  ASP D   1     -22.872 -15.553 -21.202  1.00 47.95 LIG 0.17  C 
ATOM     37 OD1  ASP D   1     -23.088 -14.640 -20.372  1.00 49.71 LIG-0.65  OA
ATOM     38 OD2  ASP D   1     -22.410 -15.344 -22.350  1.00 42.29 LIG-0.65  OA
ENDBRANCH 35 36
ENDBRANCH 23 35
ENDBRANCH 3 23
TORSDOF 17
ENDMDL
MODEL 3
USER: ADFR SOLUTION from run 117
USER: SCORE 14.091461 LL:  -2.683 LR: -11.522 RR:   0.000 FEB:  -6.451
USER: RMSD 5.108605
USER: SEED 116
USER: STATUS no improvement in best in 4 clusters for 5 generations
USER: GENES 19
USER: genes 0 Translation |==|  0.56162 0.53775 0.38359
USER: genes 1 Rotation |==|  0.44812 0.34790 0.14773 0.81635
USER: genes 2 Torsion [N]-C--CA-[N] |==|  0.94631
USER: genes 3 Torsion [C]-CA--CB-[CG] |==|  0.52908
USER: genes 4 Torsion [CA]-CB--CG-[OD2] |==|  0.45633
USER: genes 5 Torsion [C]-CA--N-[C] |==|  0.76698
USER: genes 6 Torsion [N]-C--CA-[N] |==|  0.97154
USER: genes 7 Torsion [C]-CA--N-[H3] |==|  0.75863
USER: genes 8 Torsion [C]-CA--CB-[CG] |==|  0.71375
USER: genes 9 Torsion [CA]-CB--CG-[OD2] |==|  0.85087
USER: genes 10 Torsion [C]-N--CA-[CB] |==|  0.85917
USER: genes 11 Torsion [N]-CA--C-[N] |==|  0.36460
USER: genes 12 Torsion [C]-N--CA-[C] |==|  0.13721
USER: genes 13 Torsion [N]-CA--C-[O] |==|  0.21669
USER: genes 14 Torsion [N]-CA--CB-[CG] |==|  0.36506
USER: genes 15 Torsion [CA]-CB--CG-[SD] |==|  0.71076
USER: genes 16 Torsion [CB]-CG--SD-[CE] |==|  0.37300
USER: genes 17 Torsion [N]-CA--CB-[CG] |==|  0.64190
USER: genes 18 Torsion [CA]-CB--CG-[OD1] |==|  0.28949
ROOT
ATOM      1  C   ASP D   0     -17.281 -17.527 -25.448  1.00 50.85 LIG 0.24  C 
ATOM      2 O    ASP D   0     -16.865 -17.411 -26.605  1.00 49.73 LIG-0.27  OA
ATOM      3  N   ASP D   1     -16.913 -18.525 -24.637  1.00 47.66 LIG-0.34  N 
ATOM      4 H    ASP D   1     -17.140 -18.574 -23.808  1.00 47.66 LIG 0.16  HD
ENDROOT
BRANCH 1 5
ATOM      5  CA  ASP D   0     -18.278 -16.505 -24.893  1.00 50.32 LIG 0.19  C 
BRANCH 5 6
ATOM      6  CB  ASP D   0     -17.530 -15.226 -24.500  1.00 50.50 LIG 0.15  C 
BRANCH 6 7
ATOM      7  CG  ASP D   0     -18.389 -14.261 -23.713  1.00 42.38 LIG 0.17  C 
ATOM      8 OD2  ASP D   0     -17.825 -13.336 -23.087  1.00 47.85 LIG-0.65  OA
ATOM      9 OD1  ASP D   0     -19.625 -14.423 -23.723  1.00 32.99 LIG-0.65  OA
ENDBRANCH 6 7
ENDBRANCH 5 6
BRANCH 5 10
ATOM     10  N   ASP D   0     -19.017 -17.004 -23.735  1.00 53.06 LIG-0.34  N 
ATOM     11 H    ASP D   0     -18.682 -16.770 -22.978  1.00 53.06 LIG 0.16  HD
ATOM     12  C   ASP D  -1     -20.112 -17.755 -23.853  1.00 52.15 LIG 0.25  C 
ATOM     13 O    ASP D  -1     -20.463 -18.290 -24.912  1.00 47.49 LIG-0.27  OA
BRANCH 12 14
ATOM     14  CA  ASP D  -1     -20.928 -17.937 -22.575  1.00 59.57 LIG 0.28  C 
BRANCH 14 15
ATOM     15  N   ASP D  -1     -20.181 -17.428 -21.428  1.00 50.06 LIG-0.07  N 
ATOM     16 H3   ASP D  -1     -19.651 -18.069 -21.111  1.00 50.06 LIG 0.28  HD
ATOM     17 H2   ASP D  -1     -20.749 -17.171 -20.793  1.00 50.06 LIG 0.28  HD
ATOM     18 H1   ASP D  -1     -19.686 -16.733 -21.681  1.00 50.06 LIG 0.28  HD
ENDBRANCH 14 15
BRANCH 14 19
ATOM     19  CB  ASP D  -1     -22.284 -17.237 -22.688  1.00 60.46 LIG 0.15  C 
BRANCH 19 20
ATOM     20  CG  ASP D  -1     -22.332 -15.928 -21.930  1.00 56.39 LIG 0.17  C 
ATOM     21 OD1  ASP D  -1     -22.700 -14.901 -22.543  1.00 65.47 LIG-0.65  OA
ATOM     22 OD2  ASP D  -1     -22.014 -15.929 -20.720  1.00 48.71 LIG-0.65  OA
ENDBRANCH 19 20
ENDBRANCH 14 19
ENDBRANCH 12 14
ENDBRANCH 5 10
ENDBRANCH 1 5
BRANCH 3 23
ATOM     23  CA  ASP D   1     -16.073 -19.646 -25.099  1.00 46.44 LIG 0.19  C 
BRANCH 23 24
ATOM     24  C   ASP D   1     -14.648 -19.196 -25.378  1.00 38.24 LIG 0.24  C 
ATOM     25 O    ASP D   1     -14.432 -18.178 -26.029  1.00 48.73 LIG-0.27  OA
ATOM     26  N   MET D   2     -13.677 -19.931 -24.850  1.00 47.06 LIG-0.35  N 
ATOM     27 H    MET D   2     -13.795 -20.702 -24.487  1.00 47.06 LIG 0.16  HD
BRANCH 26 28
ATOM     28  CA  MET D   2     -12.293 -19.459 -24.853  1.00 48.57 LIG 0.16  C 
BRANCH 28 29
ATOM     29  C   MET D   2     -12.163 -18.033 -24.332  1.00 49.60 LIG 0.22  C 
ATOM     30 O    MET D   2     -12.201 -17.803 -23.122  1.00 49.04 LIG-0.29  OA
ENDBRANCH 28 29
BRANCH 28 31
ATOM     31  CB  MET D   2     -11.709 -19.557 -26.268  1.00 43.71 LIG 0.04  C 
BRANCH 31 32
ATOM     32  CG  MET D   2     -11.005 -18.307 -26.750  1.00 45.96 LIG 0.08  C 
BRANCH 32 33
ATOM     33 SD   MET D   2     -12.010 -17.387 -27.935  1.00 73.43 LIG-0.17  SA
ATOM     34  CE  MET D   2     -11.822 -15.718 -27.307  1.00 57.46 LIG 0.09  C 
ENDBRANCH 32 33
ENDBRANCH 31 32
ENDBRANCH 28 31
ENDBRANCH 26 28
ENDBRANCH 23 24
BRANCH 23 35
ATOM     35  CB  ASP D   1     -16.618 -20.285 -26.389  1.00 44.28 LIG 0.15  C 
BRANCH 35 36
ATOM     36  CG  ASP D   1     -16.760 -21.793 -26.301  1.00 47.95 LIG 0.17  C 
ATOM     37 OD1  ASP D   1     -17.898 -22.296 -26.156  1.00 49.71 LIG-0.65  OA
ATOM     38 OD2  ASP D   1     -15.709 -22.476 -26.368  1.00 42.29 LIG-0.65  OA
ENDBRANCH 35 36
ENDBRANCH 23 35
ENDBRANCH 3 23
TORSDOF 17
ENDMDL
MODEL 4
USER: ADFR SOLUTION from run 109
USER: SCORE 13.700021 LL:  -2.925 LR: -11.520 RR:   0.000 FEB:  -6.449
USER: RMSD 6.658175
USER: SEED 108
USER: STATUS searching
USER: GENES 19
USER: genes 0 Translation |==|  0.40023 0.42180 0.52260
USER: genes 1 Rotation |==|  0.85519 0.67242 0.77492 0.63611
USER: genes 2 Torsion [N]-C--CA-[N] |==|  0.89554
USER: genes 3 Torsion [C]-CA--CB-[CG] |==|  0.04902
USER: genes 4 Torsion [CA]-CB--CG-[OD2] |==|  0.75161
USER: genes 5 Torsion [C]-CA--N-[C] |==|  0.71131
USER: genes 6 Torsion [N]-C--CA-[N] |==|  0.52546
USER: genes 7 Torsion [C]-CA--N-[H3] |==|  0.16318
USER: genes 8 Torsion [C]-CA--CB-[CG] |==|  0.67103
USER: genes 9 Torsion [CA]-CB--CG-[OD2] |==|  0.63795
USER: genes 10 Torsion [C]-N--CA-[CB] |==|  0.78842
USER: genes 11 Torsion [N]-CA--C-[N] |==|  0.15815
USER: genes 12 Torsion [C]-N--CA-[C] |==|  0.68934
USER: genes 13 Torsion [N]-CA--C-[O] |==|  0.22124
USER: genes 14 Torsion [N]-CA--CB-[CG] |==|  0.39690
USER: genes 15 Torsion [CA]-CB--CG-[SD] |==|  0.57101
USER: genes 16 Torsion [CB]-CG--SD-[CE] |==|  0.40408
USER: genes 17 Torsion [N]-CA--CB-[CG] |==|  0.86728
USER: genes 18 Torsion [CA]-CB--CG-[OD1] |==|  0.13768
ROOT
ATOM      1  C   ASP D   0     -20.670 -19.527 -22.946  1.00 50.85 LIG 0.24  C 
ATOM      2 O    ASP D   0     -21.706 -20.170 -23.136  1.00 49.73 LIG-0.27  OA
ATOM      3  N   ASP D   1     -20.369 -18.958 -21.772  1.00 47.66 LIG-0.34  N 
ATOM      4 H    ASP D   1     -19.619 -18.570 -21.609  1.00 47.66 LIG 0.16  HD
ENDROOT
BRANCH 1 5
ATOM      5  CA  ASP D   0     -19.669 -19.340 -24.091  1.00 50.32 LIG 0.19  C 
BRANCH 5 6
ATOM      6  CB  ASP D   0     -18.564 -20.396 -23.979  1.00 50.50 LIG 0.15  C 
BRANCH 6 7
ATOM      7  CG  ASP D   0     -18.950 -21.558 -23.091  1.00 42.38 LIG 0.17  C 
ATOM      8 OD2  ASP D   0     -18.696 -21.484 -21.868  1.00 47.85 LIG-0.65  OA
ATOM      9 OD1  ASP D   0     -19.511 -22.542 -23.612  1.00 32.99 LIG-0.65  OA
ENDBRANCH 6 7
ENDBRANCH 5 6
BRANCH 5 10
ATOM     10  N   ASP D   0     -19.064 -18.010 -24.104  1.00 53.06 LIG-0.34  N 
ATOM     11 H    ASP D   0     -18.458 -17.896 -23.504  1.00 53.06 LIG 0.16  HD
ATOM     12  C   ASP D  -1     -19.425 -17.066 -24.972  1.00 52.15 LIG 0.25  C 
ATOM     13 O    ASP D  -1     -20.443 -17.135 -25.673  1.00 47.49 LIG-0.27  OA
BRANCH 12 14
ATOM     14  CA  ASP D  -1     -18.499 -15.854 -25.054  1.00 59.57 LIG 0.28  C 
BRANCH 14 15
ATOM     15  N   ASP D  -1     -19.115 -14.810 -25.869  1.00 50.06 LIG-0.07  N 
ATOM     16 H3   ASP D  -1     -19.896 -14.577 -25.512  1.00 50.06 LIG 0.28  HD
ATOM     17 H2   ASP D  -1     -19.246 -15.115 -26.695  1.00 50.06 LIG 0.28  HD
ATOM     18 H1   ASP D  -1     -18.579 -14.100 -25.896  1.00 50.06 LIG 0.28  HD
ENDBRANCH 14 15
BRANCH 14 19
ATOM     19  CB  ASP D  -1     -18.168 -15.324 -23.658  1.00 60.46 LIG 0.15  C 
BRANCH 19 20
ATOM     20  CG  ASP D  -1     -18.642 -13.902 -23.445  1.00 56.39 LIG 0.17  C 
ATOM     21 OD1  ASP D  -1     -19.828 -13.623 -23.728  1.00 65.47 LIG-0.65  OA
ATOM     22 OD2  ASP D  -1     -17.832 -13.068 -22.981  1.00 48.71 LIG-0.65  OA
ENDBRANCH 19 20
ENDBRANCH 14 19
ENDBRANCH 12 14
ENDBRANCH 5 10
ENDBRANCH 1 5
BRANCH 3 23
ATOM     23  CA  ASP D   1     -21.314 -18.946 -20.640  1.00 46.44 LIG 0.19  C 
BRANCH 23 24
ATOM     24  C   ASP D   1     -21.971 -20.303 -20.448  1.00 38.24 LIG 0.24  C 
ATOM     25 O    ASP D   1     -23.192 -20.418 -20.506  1.00 48.73 LIG-0.27  OA
ATOM     26  N   MET D   2     -21.160 -21.337 -20.261  1.00 47.06 LIG-0.35  N 
ATOM     27 H    MET D   2     -20.316 -21.270 -20.107  1.00 47.06 LIG 0.16  HD
BRANCH 26 28
ATOM     28  CA  MET D   2     -21.668 -22.707 -20.306  1.00 48.57 LIG 0.16  C 
BRANCH 28 29
ATOM     29  C   MET D   2     -21.627 -23.389 -18.943  1.00 49.60 LIG 0.22  C 
ATOM     30 O    MET D   2     -22.499 -23.160 -18.103  1.00 49.04 LIG-0.29  OA
ENDBRANCH 28 29
BRANCH 28 31
ATOM     31  CB  MET D   2     -20.872 -23.528 -21.328  1.00 43.71 LIG 0.04  C 
BRANCH 31 32
ATOM     32  CG  MET D   2     -20.619 -24.965 -20.926  1.00 45.96 LIG 0.08  C 
BRANCH 32 33
ATOM     33 SD   MET D   2     -19.141 -25.632 -21.722  1.00 73.43 LIG-0.17  SA
ATOM     34  CE  MET D   2     -18.526 -26.713 -20.430  1.00 57.46 LIG 0.09  C 
ENDBRANCH 32 33
ENDBRANCH 31 32
ENDBRANCH 28 31
ENDBRANCH 26 28
ENDBRANCH 23 24
BRANCH 23 35
ATOM     35  CB  ASP D   1     -22.435 -17.909 -20.831  1.00 44.28 LIG 0.15  C 
BRANCH 35 36
ATOM     36  CG  ASP D   1     -21.929 -16.544 -21.256  1.00 47.95 LIG 0.17  C 
ATOM     37 OD1  ASP D   1     -21.129 -16.456 -22.215  1.00 49.71 LIG-0.65  OA
ATOM     38 OD2  ASP D   1     -22.336 -15.550 -20.605  1.00 42.29 LIG-0.65  OA
ENDBRANCH 35 36
ENDBRANCH 23 35
ENDBRANCH 3 23
TORSDOF 17
ENDMDL
MODEL 5
USER: ADFR SOLUTION from run 10
USER: SCORE 12.902858 LL:  -3.060 LR: -11.522 RR:   0.000 FEB:  -6.451
USER: RMSD 2.663440
USER: SEED 383202
USER: STATUS no improvement in best in 11 clusters for 5 generations
USER: GENES 19
USER: genes 0 Translation |==|  0.43599 0.46950 0.50400
USER: genes 1 Rotation |==|  0.41843 0.43346 0.65655 0.96304
USER: genes 2 Torsion [N]-C--CA-[N] |==|  0.20215
USER: genes 3 Torsion [C]-CA--CB-[CG] |==|  0.21684
USER: genes 4 Torsion [CA]-CB--CG-[OD2] |==|  0.49687
USER: genes 5 Torsion [C]-CA--N-[C] |==|  0.65168
USER: genes 6 Torsion [N]-C--CA-[N] |==|  0.54194
USER: genes 7 Torsion [C]-CA--N-[H3] |==|  0.93544
USER: genes 8 Torsion [C]-CA--CB-[CG] |==|  0.79060
USER: genes 9 Torsion [CA]-CB--CG-[OD2] |==|  0.87562
USER: genes 10 Torsion [C]-N--CA-[CB] |==|  0.51411
USER: genes 11 Torsion [N]-CA--C-[N] |==|  0.89965
USER: genes 12 Torsion [C]-N--CA-[C] |==|  0.13477
USER: genes 13 Torsion [N]-CA--C-[O] |==|  0.30257
USER: genes 14 Torsion [N]-CA--CB-[CG] |==|  0.90422
USER: genes 15 Torsion [CA]-CB--CG-[SD] |==|  0.38898
USER: genes 16 Torsion [CB]-CG--SD-[CE] |==|  0.51814
USER: genes 17 Torsion [N]-CA--CB-[CG] |==|  0.85640
USER: genes 18 Torsion [CA]-CB--CG-[OD1] |==|  0.93304
ROOT
ATOM      1  C   ASP D   0     -19.919 -18.704 -23.281  1.00 50.85 LIG 0.24  C 
ATOM      2 O    ASP D   0     -20.218 -19.362 -24.282  1.00 49.73 LIG-0.27  OA
ATOM      3  N   ASP D   1     -19.327 -17.505 -23.345  1.00 47.66 LIG-0.34  N 
ATOM      4 H    ASP D   1     -19.181 -17.008 -22.658  1.00 47.66 LIG 0.16  HD
ENDROOT
BRANCH 1 5
ATOM      5  CA  ASP D   0     -20.213 -19.265 -21.886  1.00 50.32 LIG 0.19  C 
BRANCH 5 6
ATOM      6  CB  ASP D   0     -20.542 -20.758 -21.996  1.00 50.50 LIG 0.15  C 
BRANCH 6 7
ATOM      7  CG  ASP D   0     -19.311 -21.620 -22.168  1.00 42.38 LIG 0.17  C 
ATOM      8 OD2  ASP D   0     -19.458 -22.860 -22.247  1.00 47.85 LIG-0.65  OA
ATOM      9 OD1  ASP D   0     -18.199 -21.060 -22.228  1.00 32.99 LIG-0.65  OA
ENDBRANCH 6 7
ENDBRANCH 5 6
BRANCH 5 10
ATOM     10  N   ASP D   0     -21.316 -18.577 -21.218  1.00 53.06 LIG-0.34  N 
ATOM     11 H    ASP D   0     -22.045 -18.559 -21.676  1.00 53.06 LIG 0.16  HD
ATOM     12  C   ASP D  -1     -21.194 -18.032 -20.009  1.00 52.15 LIG 0.25  C 
ATOM     13 O    ASP D  -1     -20.106 -17.845 -19.450  1.00 47.49 LIG-0.27  OA
BRANCH 12 14
ATOM     14  CA  ASP D  -1     -22.502 -17.626 -19.332  1.00 59.57 LIG 0.28  C 
BRANCH 14 15
ATOM     15  N   ASP D  -1     -22.226 -16.735 -18.207  1.00 50.06 LIG-0.07  N 
ATOM     16 H3   ASP D  -1     -21.392 -16.863 -17.925  1.00 50.06 LIG 0.28  HD
ATOM     17 H2   ASP D  -1     -22.794 -16.910 -17.544  1.00 50.06 LIG 0.28  HD
ATOM     18 H1   ASP D  -1     -22.324 -15.890 -18.467  1.00 50.06 LIG 0.28  HD
ENDBRANCH 14 15
BRANCH 14 19
ATOM     19  CB  ASP D  -1     -23.449 -16.956 -20.330  1.00 60.46 LIG 0.15  C 
BRANCH 19 20
ATOM     20  CG  ASP D  -1     -23.041 -15.537 -20.663  1.00 56.39 LIG 0.17  C 
ATOM     21 OD1  ASP D  -1     -23.074 -15.176 -21.860  1.00 65.47 LIG-0.65  OA
ATOM     22 OD2  ASP D  -1     -22.700 -14.780 -19.726  1.00 48.71 LIG-0.65  OA
ENDBRANCH 19 20
ENDBRANCH 14 19
ENDBRANCH 12 14
ENDBRANCH 5 10
ENDBRANCH 1 5
BRANCH 3 23
ATOM     23  CA  ASP D   1     -18.866 -16.924 -24.620  1.00 46.44 LIG 0.19  C 
BRANCH 23 24
ATOM     24  C   ASP D   1     -17.937 -17.873 -25.360  1.00 38.24 LIG 0.24  C 
ATOM     25 O    ASP D   1     -17.938 -17.915 -26.587  1.00 48.73 LIG-0.27  OA
ATOM     26  N   MET D   2     -17.115 -18.603 -24.616  1.00 47.06 LIG-0.35  N 
ATOM     27 H    MET D   2     -17.168 -18.674 -23.761  1.00 47.06 LIG 0.16  HD
BRANCH 26 28
ATOM     28  CA  MET D   2     -16.025 -19.362 -25.228  1.00 48.57 LIG 0.16  C 
BRANCH 28 29
ATOM     29  C   MET D   2     -15.207 -18.525 -26.205  1.00 49.60 LIG 0.22  C 
ATOM     30 O    MET D   2     -14.059 -18.178 -25.922  1.00 49.04 LIG-0.29  OA
ENDBRANCH 28 29
BRANCH 28 31
ATOM     31  CB  MET D   2     -16.584 -20.601 -25.939  1.00 43.71 LIG 0.04  C 
BRANCH 31 32
ATOM     32  CG  MET D   2     -17.782 -21.232 -25.264  1.00 45.96 LIG 0.08  C 
BRANCH 32 33
ATOM     33 SD   MET D   2     -19.016 -21.778 -26.465  1.00 73.43 LIG-0.17  SA
ATOM     34  CE  MET D   2     -20.349 -22.274 -25.372  1.00 57.46 LIG 0.09  C 
ENDBRANCH 32 33
ENDBRANCH 31 32
ENDBRANCH 28 31
ENDBRANCH 26 28
ENDBRANCH 23 24
BRANCH 23 35
ATOM     35  CB  ASP D   1     -18.109 -15.600 -24.413  1.00 44.28 LIG 0.15  C 
BRANCH 35 36
ATOM     36  CG  ASP D   1     -18.870 -14.595 -23.569  1.00 47.95 LIG 0.17  C 
ATOM     37 OD1  ASP D   1     -20.118 -14.671 -23.501  1.00 49.71 LIG-0.65  OA
ATOM     38 OD2  ASP D   1     -18.200 -13.713 -22.978  1.00 42.29 LIG-0.65  OA
ENDBRANCH 35 36
ENDBRANCH 23 35
ENDBRANCH 3 23
TORSDOF 17
ENDMDL
MODEL 6
USER: ADFR SOLUTION from run 113
USER: SCORE 11.798168 LL:  -2.865 LR: -11.454 RR:   0.000 FEB:  -6.383
USER: RMSD 7.078781
USER: SEED 112
USER: STATUS no improvement in best in 8 clusters for 5 generations
USER: GENES 19
USER: genes 0 Translation |==|  0.40577 0.43358 0.64033
USER: genes 1 Rotation |==|  0.65047 0.91135 0.26304 0.54466
USER: genes 2 Torsion [N]-C--CA-[N] |==|  0.77778
USER: genes 3 Torsion [C]-CA--CB-[CG] |==|  0.26597
USER: genes 4 Torsion [CA]-CB--CG-[OD2] |==|  0.90367
USER: genes 5 Torsion [C]-CA--N-[C] |==|  0.57385
USER: genes 6 Torsion [N]-C--CA-[N] |==|  0.61230
USER: genes 7 Torsion [C]-CA--N-[H3] |==|  0.35894
USER: genes 8 Torsion [C]-CA--CB-[CG] |==|  0.69161
USER: genes 9 Torsion [CA]-CB--CG-[OD2] |==|  0.34943
USER: genes 10 Torsion [C]-N--CA-[CB] |==|  0.44276
USER: genes 11 Torsion [N]-CA--C-[N] |==|  0.13822
USER: genes 12 Torsion [C]-N--CA-[C] |==|  0.79456
USER: genes 13 Torsion [N]-CA--C-[O] |==|  0.16645
USER: genes 14 Torsion [N]-CA--CB-[CG] |==|  0.32162
USER: genes 15 Torsion [CA]-CB--CG-[SD] |==|  0.67501
USER: genes 16 Torsion [CB]-CG--SD-[CE] |==|  0.16993
USER: genes 17 Torsion [N]-CA--CB-[CG] |==|  0.54059
USER: genes 18 Torsion [CA]-CB--CG-[OD1] |==|  0.15956
ROOT
ATOM      1  C   ASP D   0     -20.554 -19.324 -20.827  1.00 50.85 LIG 0.24  C 
ATOM      2 O    ASP D   0     -19.763 -18.833 -20.017  1.00 49.73 LIG-0.27  OA
ATOM      3  N   ASP D   1     -21.159 -18.607 -21.782  1.00 47.66 LIG-0.34  N 
ATOM      4 H    ASP D   1     -21.655 -18.952 -22.395  1.00 47.66 LIG 0.16  HD
ENDROOT
BRANCH 1 5
ATOM      5  CA  ASP D   0     -20.891 -20.816 -20.753  1.00 50.32 LIG 0.19  C 
BRANCH 5 6
ATOM      6  CB  ASP D   0     -20.947 -21.396 -22.171  1.00 50.50 LIG 0.15  C 
BRANCH 6 7
ATOM      7  CG  ASP D   0     -19.648 -22.046 -22.592  1.00 42.38 LIG 0.17  C 
ATOM      8 OD2  ASP D   0     -18.574 -21.548 -22.188  1.00 47.85 LIG-0.65  OA
ATOM      9 OD1  ASP D   0     -19.700 -23.056 -23.322  1.00 32.99 LIG-0.65  OA
ENDBRANCH 6 7
ENDBRANCH 5 6
BRANCH 5 10
ATOM     10  N   ASP D   0     -22.158 -21.079 -20.075  1.00 53.06 LIG-0.34  N 
ATOM     11 H    ASP D   0     -22.720 -20.429 -20.119  1.00 53.06 LIG 0.16  HD
ATOM     12  C   ASP D  -1     -22.411 -22.227 -19.446  1.00 52.15 LIG 0.25  C 
ATOM     13 O    ASP D  -1     -21.540 -23.063 -19.175  1.00 47.49 LIG-0.27  OA
BRANCH 12 14
ATOM     14  CA  ASP D  -1     -23.869 -22.460 -19.058  1.00 59.57 LIG 0.28  C 
BRANCH 14 15
ATOM     15  N   ASP D  -1     -23.941 -23.061 -17.728  1.00 50.06 LIG-0.07  N 
ATOM     16 H3   ASP D  -1     -24.509 -22.597 -17.223  1.00 50.06 LIG 0.28  HD
ATOM     17 H2   ASP D  -1     -23.134 -23.050 -17.353  1.00 50.06 LIG 0.28  HD
ATOM     18 H1   ASP D  -1     -24.225 -23.901 -17.797  1.00 50.06 LIG 0.28  HD
ENDBRANCH 14 15
BRANCH 14 19
ATOM     19  CB  ASP D  -1     -24.663 -21.153 -19.102  1.00 60.46 LIG 0.15  C 
BRANCH 19 20
ATOM     20  CG  ASP D  -1     -25.082 -20.676 -17.728  1.00 56.39 LIG 0.17  C 
ATOM     21 OD1  ASP D  -1     -25.707 -21.470 -16.989  1.00 65.47 LIG-0.65  OA
ATOM     22 OD2  ASP D  -1     -24.774 -19.513 -17.382  1.00 48.71 LIG-0.65  OA
ENDBRANCH 19 20
ENDBRANCH 14 19
ENDBRANCH 12 14
ENDBRANCH 5 10
ENDBRANCH 1 5
BRANCH 3 23
ATOM     23  CA  ASP D   1     -21.028 -17.141 -21.867  1.00 46.44 LIG 0.19  C 
BRANCH 23 24
ATOM     24  C   ASP D   1     -21.949 -16.441 -20.880  1.00 38.24 LIG 0.24  C 
ATOM     25 O    ASP D   1     -22.707 -15.553 -21.258  1.00 48.73 LIG-0.27  OA
ATOM     26  N   MET D   2     -21.912 -16.869 -19.624  1.00 47.06 LIG-0.35  N 
ATOM     27 H    MET D   2     -21.318 -17.408 -19.312  1.00 47.06 LIG 0.16  HD
BRANCH 26 28
ATOM     28  CA  MET D   2     -22.917 -16.436 -18.654  1.00 48.57 LIG 0.16  C 
BRANCH 28 29
ATOM     29  C   MET D   2     -22.710 -14.994 -18.206  1.00 49.60 LIG 0.22  C 
ATOM     30 O    MET D   2     -22.737 -14.075 -19.026  1.00 49.04 LIG-0.29  OA
ENDBRANCH 28 29
BRANCH 28 31
ATOM     31  CB  MET D   2     -22.909 -17.370 -17.438  1.00 43.71 LIG 0.04  C 
BRANCH 31 32
ATOM     32  CG  MET D   2     -22.502 -16.712 -16.137  1.00 45.96 LIG 0.08  C 
BRANCH 32 33
ATOM     33 SD   MET D   2     -20.983 -17.427 -15.472  1.00 73.43 LIG-0.17  SA
ATOM     34  CE  MET D   2     -19.831 -17.054 -16.795  1.00 57.46 LIG 0.09  C 
ENDBRANCH 32 33
ENDBRANCH 31 32
ENDBRANCH 28 31
ENDBRANCH 26 28
ENDBRANCH 23 24
BRANCH 23 35
ATOM     35  CB  ASP D   1     -21.362 -16.609 -23.272  1.00 44.28 LIG 0.15  C 
BRANCH 35 36
ATOM     36  CG  ASP D   1     -20.908 -15.179 -23.500  1.00 47.95 LIG 0.17  C 
ATOM     37 OD1  ASP D   1     -19.698 -14.889 -23.355  1.00 49.71 LIG-0.65  OA
ATOM     38 OD2  ASP D   1     -21.785 -14.339 -23.817  1.00 42.29 LIG-0.65  OA
ENDBRANCH 35 36
ENDBRANCH 23 35
ENDBRANCH 3 23
TORSDOF 17
ENDMDL
MODEL 7
USER: ADFR SOLUTION from run 41
USER: SCORE 12.161664 LL:  -2.694 LR: -11.421 RR:   0.000 FEB:  -6.350
USER: RMSD 4.750546
USER: SEED 40
USER: STATUS no improvement in best in 15 clusters for 5 generations
USER: GENES 19
USER: genes 0 Translation |==|  0.38924 0.37493 0.62194
USER: genes 1 Rotation |==|  0.40580 0.14210 0.83145 0.55633
USER: genes 2 Torsion [N]-C--CA-[N] |==|  0.91553
USER: genes 3 Torsion [C]-CA--CB-[CG] |==|  0.10136
USER: genes 4 Torsion [CA]-CB--CG-[OD2] |==|  0.11436
USER: genes 5 Torsion [C]-CA--N-[C] |==|  0.57231
USER: genes 6 Torsion [N]-C--CA-[N] |==|  0.51025
USER: genes 7 Torsion [C]-CA--N-[H3] |==|  0.91711
USER: genes 8 Torsion [C]-CA--CB-[CG] |==|  0.76382
USER: genes 9 Torsion [CA]-CB--CG-[OD2] |==|  0.33727
USER: genes 10 Torsion [C]-N--CA-[CB] |==|  0.86505
USER: genes 11 Torsion [N]-CA--C-[N] |==|  0.74192
USER: genes 12 Torsion [C]-N--CA-[C] |==|  0.64901
USER: genes 13 Torsion [N]-CA--C-[O] |==|  0.11183
USER: genes 14 Torsion [N]-CA--CB-[CG] |==|  0.00978
USER: genes 15 Torsion [CA]-CB--CG-[SD] |==|  0.51530
USER: genes 16 Torsion [CB]-CG--SD-[CE] |==|  0.98131
USER: genes 17 Torsion [N]-CA--CB-[CG] |==|  0.60352
USER: genes 18 Torsion [CA]-CB--CG-[OD1] |==|  0.33972
ROOT
ATOM      1  C   ASP D   0     -20.901 -20.335 -21.158  1.00 50.85 LIG 0.24  C 
ATOM      2 O    ASP D   0     -19.795 -19.798 -21.049  1.00 49.73 LIG-0.27  OA
ATOM      3  N   ASP D   1     -21.905 -19.802 -21.865  1.00 47.66 LIG-0.34  N 
ATOM      4 H    ASP D   1     -22.653 -20.203 -22.007  1.00 47.66 LIG 0.16  HD
ENDROOT
BRANCH 1 5
ATOM      5  CA  ASP D   0     -21.174 -21.666 -20.451  1.00 50.32 LIG 0.19  C 
BRANCH 5 6
ATOM      6  CB  ASP D   0     -20.784 -22.824 -21.377  1.00 50.50 LIG 0.15  C 
BRANCH 6 7
ATOM      7  CG  ASP D   0     -19.555 -22.526 -22.206  1.00 42.38 LIG 0.17  C 
ATOM      8 OD2  ASP D   0     -18.596 -21.936 -21.660  1.00 47.85 LIG-0.65  OA
ATOM      9 OD1  ASP D   0     -19.545 -22.883 -23.401  1.00 32.99 LIG-0.65  OA
ENDBRANCH 6 7
ENDBRANCH 5 6
BRANCH 5 10
ATOM     10  N   ASP D   0     -22.570 -21.821 -20.049  1.00 53.06 LIG-0.34  N 
ATOM     11 H    ASP D   0     -23.124 -21.370 -20.529  1.00 53.06 LIG 0.16  HD
ATOM     12  C   ASP D  -1     -22.942 -22.593 -19.029  1.00 52.15 LIG 0.25  C 
ATOM     13 O    ASP D  -1     -22.151 -23.051 -18.195  1.00 47.49 LIG-0.27  OA
BRANCH 12 14
ATOM     14  CA  ASP D  -1     -24.438 -22.884 -18.932  1.00 59.57 LIG 0.28  C 
BRANCH 14 15
ATOM     15  N   ASP D  -1     -24.718 -23.663 -17.728  1.00 50.06 LIG-0.07  N 
ATOM     16 H3   ASP D  -1     -24.012 -24.168 -17.531  1.00 50.06 LIG 0.28  HD
ATOM     17 H2   ASP D  -1     -25.426 -24.184 -17.869  1.00 50.06 LIG 0.28  HD
ATOM     18 H1   ASP D  -1     -24.887 -23.111 -17.050  1.00 50.06 LIG 0.28  HD
ENDBRANCH 14 15
BRANCH 14 19
ATOM     19  CB  ASP D  -1     -25.249 -21.586 -18.935  1.00 60.46 LIG 0.15  C 
BRANCH 19 20
ATOM     20  CG  ASP D  -1     -25.377 -20.973 -17.557  1.00 56.39 LIG 0.17  C 
ATOM     21 OD1  ASP D  -1     -25.893 -21.661 -16.647  1.00 65.47 LIG-0.65  OA
ATOM     22 OD2  ASP D  -1     -24.949 -19.810 -17.381  1.00 48.71 LIG-0.65  OA
ENDBRANCH 19 20
ENDBRANCH 14 19
ENDBRANCH 12 14
ENDBRANCH 5 10
ENDBRANCH 1 5
BRANCH 3 23
ATOM     23  CA  ASP D   1     -21.813 -18.461 -22.472  1.00 46.44 LIG 0.19  C 
BRANCH 23 24
ATOM     24  C   ASP D   1     -20.873 -18.454 -23.666  1.00 38.24 LIG 0.24  C 
ATOM     25 O    ASP D   1     -21.294 -18.702 -24.793  1.00 48.73 LIG-0.27  OA
ATOM     26  N   MET D   2     -19.608 -18.130 -23.427  1.00 47.06 LIG-0.35  N 
ATOM     27 H    MET D   2     -19.265 -18.061 -22.641  1.00 47.06 LIG 0.16  HD
BRANCH 26 28
ATOM     28  CA  MET D   2     -18.682 -17.860 -24.526  1.00 48.57 LIG 0.16  C 
BRANCH 28 29
ATOM     29  C   MET D   2     -17.416 -18.704 -24.442  1.00 49.60 LIG 0.22  C 
ATOM     30 O    MET D   2     -17.475 -19.888 -24.104  1.00 49.04 LIG-0.29  OA
ENDBRANCH 28 29
BRANCH 28 31
ATOM     31  CB  MET D   2     -18.318 -16.370 -24.551  1.00 43.71 LIG 0.04  C 
BRANCH 31 32
ATOM     32  CG  MET D   2     -18.909 -15.555 -23.421  1.00 45.96 LIG 0.08  C 
BRANCH 32 33
ATOM     33 SD   MET D   2     -18.564 -13.793 -23.615  1.00 73.43 LIG-0.17  SA
ATOM     34  CE  MET D   2     -17.457 -13.824 -25.026  1.00 57.46 LIG 0.09  C 
ENDBRANCH 32 33
ENDBRANCH 31 32
ENDBRANCH 28 31
ENDBRANCH 26 28
ENDBRANCH 23 24
BRANCH 23 35
ATOM     35  CB  ASP D   1     -21.304 -17.406 -21.474  1.00 44.28 LIG 0.15  C 
BRANCH 35 36
ATOM     36  CG  ASP D   1     -21.973 -16.054 -21.632  1.00 47.95 LIG 0.17  C 
ATOM     37 OD1  ASP D   1     -22.576 -15.549 -20.657  1.00 49.71 LIG-0.65  OA
ATOM     38 OD2  ASP D   1     -21.898 -15.502 -22.757  1.00 42.29 LIG-0.65  OA
ENDBRANCH 35 36
ENDBRANCH 23 35
ENDBRANCH 3 23
TORSDOF 17
ENDMDL
MODEL 8
USER: ADFR SOLUTION from run 16
USER: SCORE 13.713665 LL:  -2.517 LR: -11.424 RR:   0.000 FEB:  -6.353
USER: RMSD 5.284258
USER: SEED 323646
USER: STATUS no improvement in best in 6 clusters for 5 generations
USER: GENES 19
USER: genes 0 Translation |==|  0.41854 0.44543 0.58259
USER: genes 1 Rotation |==|  0.08536 0.55179 0.56353 0.76713
USER: genes 2 Torsion [N]-C--CA-[N] |==|  0.05556
USER: genes 3 Torsion [C]-CA--CB-[CG] |==|  0.51142
USER: genes 4 Torsion [CA]-CB--CG-[OD2] |==|  0.25549
USER: genes 5 Torsion [C]-CA--N-[C] |==|  0.17433
USER: genes 6 Torsion [N]-C--CA-[N] |==|  0.64726
USER: genes 7 Torsion [C]-CA--N-[H3] |==|  0.28851
USER: genes 8 Torsion [C]-CA--CB-[CG] |==|  0.77236
USER: genes 9 Torsion [CA]-CB--CG-[OD2] |==|  0.99259
USER: genes 10 Torsion [C]-N--CA-[CB] |==|  0.14810
USER: genes 11 Torsion [N]-CA--C-[N] |==|  0.10712
USER: genes 12 Torsion [C]-N--CA-[C] |==|  0.82433
USER: genes 13 Torsion [N]-CA--C-[O] |==|  0.85577
USER: genes 14 Torsion [N]-CA--CB-[CG] |==|  0.39414
USER: genes 15 Torsion [CA]-CB--CG-[SD] |==|  0.69291
USER: genes 16 Torsion [CB]-CG--SD-[CE] |==|  0.54425
USER: genes 17 Torsion [N]-CA--CB-[CG] |==|  0.59193
USER: genes 18 Torsion [CA]-CB--CG-[OD1] |==|  0.59121
ROOT
ATOM      1  C   ASP D   0     -20.286 -19.119 -21.866  1.00 50.85 LIG 0.24  C 
ATOM      2 O    ASP D   0     -20.948 -19.981 -21.281  1.00 49.73 LIG-0.27  OA
ATOM      3  N   ASP D   1     -19.343 -19.412 -22.771  1.00 47.66 LIG-0.34  N 
ATOM      4 H    ASP D   1     -18.928 -18.819 -23.235  1.00 47.66 LIG 0.16  HD
ENDROOT
BRANCH 1 5
ATOM      5  CA  ASP D   0     -20.518 -17.638 -21.554  1.00 50.32 LIG 0.19  C 
BRANCH 5 6
ATOM      6  CB  ASP D   0     -22.018 -17.389 -21.357  1.00 50.50 LIG 0.15  C 
BRANCH 6 7
ATOM      7  CG  ASP D   0     -22.348 -15.928 -21.141  1.00 42.38 LIG 0.17  C 
ATOM      8 OD2  ASP D   0     -22.635 -15.229 -22.138  1.00 47.85 LIG-0.65  OA
ATOM      9 OD1  ASP D   0     -22.325 -15.481 -19.978  1.00 32.99 LIG-0.65  OA
ENDBRANCH 6 7
ENDBRANCH 5 6
BRANCH 5 10
ATOM     10  N   ASP D   0     -20.017 -16.751 -22.602  1.00 53.06 LIG-0.34  N 
ATOM     11 H    ASP D   0     -19.389 -16.223 -22.342  1.00 53.06 LIG 0.16  HD
ATOM     12  C   ASP D  -1     -20.497 -16.765 -23.844  1.00 52.15 LIG 0.25  C 
ATOM     13 O    ASP D  -1     -21.544 -17.341 -24.166  1.00 47.49 LIG-0.27  OA
BRANCH 12 14
ATOM     14  CA  ASP D  -1     -19.672 -16.005 -24.880  1.00 59.57 LIG 0.28  C 
BRANCH 14 15
ATOM     15  N   ASP D  -1     -20.520 -15.053 -25.593  1.00 50.06 LIG-0.07  N 
ATOM     16 H3   ASP D  -1     -20.362 -14.231 -25.292  1.00 50.06 LIG 0.28  HD
ATOM     17 H2   ASP D  -1     -21.376 -15.260 -25.459  1.00 50.06 LIG 0.28  HD
ATOM     18 H1   ASP D  -1     -20.340 -15.090 -26.464  1.00 50.06 LIG 0.28  HD
ENDBRANCH 14 15
BRANCH 14 19
ATOM     19  CB  ASP D  -1     -18.493 -15.287 -24.221  1.00 60.46 LIG 0.15  C 
BRANCH 19 20
ATOM     20  CG  ASP D  -1     -18.887 -13.963 -23.602  1.00 56.39 LIG 0.17  C 
ATOM     21 OD1  ASP D  -1     -18.008 -13.305 -23.001  1.00 65.47 LIG-0.65  OA
ATOM     22 OD2  ASP D  -1     -20.070 -13.575 -23.728  1.00 48.71 LIG-0.65  OA
ENDBRANCH 19 20
ENDBRANCH 14 19
ENDBRANCH 12 14
ENDBRANCH 5 10
ENDBRANCH 1 5
BRANCH 3 23
ATOM     23  CA  ASP D   1     -18.928 -20.799 -23.052  1.00 46.44 LIG 0.19  C 
BRANCH 23 24
ATOM     24  C   ASP D   1     -17.954 -20.863 -24.217  1.00 38.24 LIG 0.24  C 
ATOM     25 O    ASP D   1     -18.041 -21.757 -25.054  1.00 48.73 LIG-0.27  OA
ATOM     26  N   MET D   2     -17.052 -19.892 -24.294  1.00 47.06 LIG-0.35  N 
ATOM     27 H    MET D   2     -16.899 -19.322 -23.669  1.00 47.06 LIG 0.16  HD
BRANCH 26 28
ATOM     28  CA  MET D   2     -16.231 -19.724 -25.492  1.00 48.57 LIG 0.16  C 
BRANCH 28 29
ATOM     29  C   MET D   2     -15.324 -20.922 -25.750  1.00 49.60 LIG 0.22  C 
ATOM     30 O    MET D   2     -14.589 -21.352 -24.860  1.00 49.04 LIG-0.29  OA
ENDBRANCH 28 29
BRANCH 28 31
ATOM     31  CB  MET D   2     -15.391 -18.445 -25.377  1.00 43.71 LIG 0.04  C 
BRANCH 31 32
ATOM     32  CG  MET D   2     -13.989 -18.556 -25.936  1.00 45.96 LIG 0.08  C 
BRANCH 32 33
ATOM     33 SD   MET D   2     -12.743 -18.515 -24.630  1.00 73.43 LIG-0.17  SA
ATOM     34  CE  MET D   2     -11.266 -18.175 -25.589  1.00 57.46 LIG 0.09  C 
ENDBRANCH 32 33
ENDBRANCH 31 32
ENDBRANCH 28 31
ENDBRANCH 26 28
ENDBRANCH 23 24
BRANCH 23 35
ATOM     35  CB  ASP D   1     -20.125 -21.704 -23.397  1.00 44.28 LIG 0.15  C 
BRANCH 35 36
ATOM     36  CG  ASP D   1     -19.952 -23.137 -22.931  1.00 47.95 LIG 0.17  C 
ATOM     37 OD1  ASP D   1     -20.451 -24.067 -23.605  1.00 49.71 LIG-0.65  OA
ATOM     38 OD2  ASP D   1     -19.314 -23.324 -21.866  1.00 42.29 LIG-0.65  OA
ENDBRANCH 35 36
ENDBRANCH 23 35
ENDBRANCH 3 23
TORSDOF 17
ENDMDL
MODEL 9
USER: ADFR SOLUTION from run 88
USER: SCORE 12.540488 LL:  -2.467 LR: -11.322 RR:   0.000 FEB:  -6.251
USER: RMSD 4.314529
USER: SEED 87
USER: STATUS no improvement in best in 11 clusters for 5 generations
USER: GENES 19
USER: genes 0 Translation |==|  0.36965 0.57622 0.54992
USER: genes 1 Rotation |==|  0.65584 0.61717 0.27418 0.90124
USER: genes 2 Torsion [N]-C--CA-[N] |==|  0.98994
USER: genes 3 Torsion [C]-CA--CB-[CG] |==|  0.20892
USER: genes 4 Torsion [CA]-CB--CG-[OD2] |==|  0.28023
USER: genes 5 Torsion [C]-CA--N-[C] |==|  0.18523
USER: genes 6 Torsion [N]-C--CA-[N] |==|  0.78896
USER: genes 7 Torsion [C]-CA--N-[H3] |==|  0.11016
USER: genes 8 Torsion [C]-CA--CB-[CG] |==|  0.55180
USER: genes 9 Torsion [CA]-CB--CG-[OD2] |==|  0.96822
USER: genes 10 Torsion [C]-N--CA-[CB] |==|  0.23328
USER: genes 11 Torsion [N]-CA--C-[N] |==|  0.85482
USER: genes 12 Torsion [C]-N--CA-[C] |==|  0.60403
USER: genes 13 Torsion [N]-CA--C-[O] |==|  0.94352
USER: genes 14 Torsion [N]-CA--CB-[CG] |==|  0.43939
USER: genes 15 Torsion [CA]-CB--CG-[SD] |==|  0.57228
USER: genes 16 Torsion [CB]-CG--SD-[CE] |==|  0.47304
USER: genes 17 Torsion [N]-CA--CB-[CG] |==|  0.65880
USER: genes 18 Torsion [CA]-CB--CG-[OD1] |==|  0.62401
ROOT
ATOM      1  C   ASP D   0     -21.312 -16.863 -22.454  1.00 50.85 LIG 0.24  C 
ATOM      2 O    ASP D   0     -21.735 -15.711 -22.586  1.00 49.73 LIG-0.27  OA
ATOM      3  N   ASP D   1     -20.209 -17.310 -23.066  1.00 47.66 LIG-0.34  N 
ATOM      4 H    ASP D   1     -19.867 -18.087 -22.924  1.00 47.66 LIG 0.16  HD
ENDROOT
BRANCH 1 5
ATOM      5  CA  ASP D   0     -22.072 -17.856 -21.569  1.00 50.32 LIG 0.19  C 
BRANCH 5 6
ATOM      6  CB  ASP D   0     -22.083 -17.344 -20.124  1.00 50.50 LIG 0.15  C 
BRANCH 6 7
ATOM      7  CG  ASP D   0     -23.050 -16.200 -19.913  1.00 42.38 LIG 0.17  C 
ATOM      8 OD2  ASP D   0     -24.158 -16.445 -19.386  1.00 47.85 LIG-0.65  OA
ATOM      9 OD1  ASP D   0     -22.702 -15.057 -20.269  1.00 32.99 LIG-0.65  OA
ENDBRANCH 6 7
ENDBRANCH 5 6
BRANCH 5 10
ATOM     10  N   ASP D   0     -21.497 -19.199 -21.599  1.00 53.06 LIG-0.34  N 
ATOM     11 H    ASP D   0     -22.005 -19.789 -21.965  1.00 53.06 LIG 0.16  HD
ATOM     12  C   ASP D  -1     -20.293 -19.475 -21.101  1.00 52.15 LIG 0.25  C 
ATOM     13 O    ASP D  -1     -19.661 -18.701 -20.371  1.00 47.49 LIG-0.27  OA
BRANCH 12 14
ATOM     14  CA  ASP D  -1     -19.718 -20.839 -21.478  1.00 59.57 LIG 0.28  C 
BRANCH 14 15
ATOM     15  N   ASP D  -1     -20.373 -21.889 -20.701  1.00 50.06 LIG-0.07  N 
ATOM     16 H3   ASP D  -1     -21.242 -21.708 -20.631  1.00 50.06 LIG 0.28  HD
ATOM     17 H2   ASP D  -1     -20.011 -21.927 -19.889  1.00 50.06 LIG 0.28  HD
ATOM     18 H1   ASP D  -1     -20.266 -22.671 -21.110  1.00 50.06 LIG 0.28  HD
ENDBRANCH 14 15
BRANCH 14 19
ATOM     19  CB  ASP D  -1     -19.873 -21.102 -22.977  1.00 60.46 LIG 0.15  C 
BRANCH 19 20
ATOM     20  CG  ASP D  -1     -19.746 -22.569 -23.330  1.00 56.39 LIG 0.17  C 
ATOM     21 OD1  ASP D  -1     -20.056 -22.929 -24.488  1.00 65.47 LIG-0.65  OA
ATOM     22 OD2  ASP D  -1     -19.325 -23.357 -22.454  1.00 48.71 LIG-0.65  OA
ENDBRANCH 19 20
ENDBRANCH 14 19
ENDBRANCH 12 14
ENDBRANCH 5 10
ENDBRANCH 1 5
BRANCH 3 23
ATOM     23  CA  ASP D   1     -19.472 -16.497 -24.052  1.00 46.44 LIG 0.19  C 
BRANCH 23 24
ATOM     24  C   ASP D   1     -18.677 -17.370 -25.010  1.00 38.24 LIG 0.24  C 
ATOM     25 O    ASP D   1     -18.767 -17.205 -26.223  1.00 48.73 LIG-0.27  OA
ATOM     26  N   MET D   2     -17.869 -18.270 -24.464  1.00 47.06 LIG-0.35  N 
ATOM     27 H    MET D   2     -17.869 -18.480 -23.630  1.00 47.06 LIG 0.16  HD
BRANCH 26 28
ATOM     28  CA  MET D   2     -16.889 -18.990 -25.278  1.00 48.57 LIG 0.16  C 
BRANCH 28 29
ATOM     29  C   MET D   2     -16.731 -20.444 -24.850  1.00 49.60 LIG 0.22  C 
ATOM     30 O    MET D   2     -17.078 -20.805 -23.724  1.00 49.04 LIG-0.29  OA
ENDBRANCH 28 29
BRANCH 28 31
ATOM     31  CB  MET D   2     -15.533 -18.275 -25.219  1.00 43.71 LIG 0.04  C 
BRANCH 31 32
ATOM     32  CG  MET D   2     -14.344 -19.145 -25.563  1.00 45.96 LIG 0.08  C 
BRANCH 32 33
ATOM     33 SD   MET D   2     -12.829 -18.544 -24.785  1.00 73.43 LIG-0.17  SA
ATOM     34  CE  MET D   2     -11.715 -19.908 -25.126  1.00 57.46 LIG 0.09  C 
ENDBRANCH 32 33
ENDBRANCH 31 32
ENDBRANCH 28 31
ENDBRANCH 26 28
ENDBRANCH 23 24
BRANCH 23 35
ATOM     35  CB  ASP D   1     -18.486 -15.525 -23.381  1.00 44.28 LIG 0.15  C 
BRANCH 35 36
ATOM     36  CG  ASP D   1     -18.725 -14.073 -23.749  1.00 47.95 LIG 0.17  C 
ATOM     37 OD1  ASP D   1     -17.749 -13.345 -24.044  1.00 49.71 LIG-0.65  OA
ATOM     38 OD2  ASP D   1     -19.911 -13.661 -23.728  1.00 42.29 LIG-0.65  OA
ENDBRANCH 35 36
ENDBRANCH 23 35
ENDBRANCH 3 23
TORSDOF 17
ENDMDL
MODEL 10
USER: ADFR SOLUTION from run 19
USER: SCORE 12.448075 LL:  -2.590 LR: -11.300 RR:   0.000 FEB:  -6.229
USER: RMSD 8.943290
USER: SEED 18
USER: STATUS no improvement in best in 24 clusters for 5 generations
USER: GENES 19
USER: genes 0 Translation |==|  0.40654 0.52130 0.69252
USER: genes 1 Rotation |==|  0.48284 0.01154 0.48946 0.60491
USER: genes 2 Torsion [N]-C--CA-[N] |==|  0.31689
USER: genes 3 Torsion [C]-CA--CB-[CG] |==|  0.62412
USER: genes 4 Torsion [CA]-CB--CG-[OD2] |==|  0.37110
USER: genes 5 Torsion [C]-CA--N-[C] |==|  0.78446
USER: genes 6 Torsion [N]-C--CA-[N] |==|  0.38500
USER: genes 7 Torsion [C]-CA--N-[H3] |==|  0.35191
USER: genes 8 Torsion [C]-CA--CB-[CG] |==|  0.82740
USER: genes 9 Torsion [CA]-CB--CG-[OD2] |==|  0.91480
USER: genes 10 Torsion [C]-N--CA-[CB] |==|  0.36226
USER: genes 11 Torsion [N]-CA--C-[N] |==|  0.87675
USER: genes 12 Torsion [C]-N--CA-[C] |==|  0.58476
USER: genes 13 Torsion [N]-CA--C-[O] |==|  0.20744
USER: genes 14 Torsion [N]-CA--CB-[CG] |==|  0.79654
USER: genes 15 Torsion [CA]-CB--CG-[SD] |==|  0.43796
USER: genes 16 Torsion [CB]-CG--SD-[CE] |==|  0.60349
USER: genes 17 Torsion [N]-CA--CB-[CG] |==|  0.08635
USER: genes 18 Torsion [CA]-CB--CG-[OD1] |==|  0.30552
ROOT
ATOM      1  C   ASP D   0     -20.538 -17.811 -19.888  1.00 50.85 LIG 0.24  C 
ATOM      2 O    ASP D   0     -19.432 -17.857 -19.341  1.00 49.73 LIG-0.27  OA
ATOM      3  N   ASP D   1     -21.575 -17.136 -19.378  1.00 47.66 LIG-0.34  N 
ATOM      4 H    ASP D   1     -22.327 -17.038 -19.786  1.00 47.66 LIG 0.16  HD
ENDROOT
BRANCH 1 5
ATOM      5  CA  ASP D   0     -20.769 -18.561 -21.203  1.00 50.32 LIG 0.19  C 
BRANCH 5 6
ATOM      6  CB  ASP D   0     -20.408 -20.039 -21.016  1.00 50.50 LIG 0.15  C 
BRANCH 6 7
ATOM      7  CG  ASP D   0     -19.588 -20.593 -22.160  1.00 42.38 LIG 0.17  C 
ATOM      8 OD2  ASP D   0     -18.575 -21.277 -21.891  1.00 47.85 LIG-0.65  OA
ATOM      9 OD1  ASP D   0     -19.958 -20.351 -23.326  1.00 32.99 LIG-0.65  OA
ENDBRANCH 6 7
ENDBRANCH 5 6
BRANCH 5 10
ATOM     10  N   ASP D   0     -19.994 -18.013 -22.314  1.00 53.06 LIG-0.34  N 
ATOM     11 H    ASP D   0     -19.295 -18.474 -22.514  1.00 53.06 LIG 0.16  HD
ATOM     12  C   ASP D  -1     -20.346 -16.899 -22.954  1.00 52.15 LIG 0.25  C 
ATOM     13 O    ASP D  -1     -21.201 -16.110 -22.532  1.00 47.49 LIG-0.27  OA
BRANCH 12 14
ATOM     14  CA  ASP D  -1     -19.614 -16.631 -24.266  1.00 59.57 LIG 0.28  C 
BRANCH 14 15
ATOM     15  N   ASP D  -1     -20.553 -16.136 -25.270  1.00 50.06 LIG-0.07  N 
ATOM     16 H3   ASP D  -1     -20.249 -15.372 -25.610  1.00 50.06 LIG 0.28  HD
ATOM     17 H2   ASP D  -1     -21.347 -15.997 -24.891  1.00 50.06 LIG 0.28  HD
ATOM     18 H1   ASP D  -1     -20.637 -16.738 -25.920  1.00 50.06 LIG 0.28  HD
ENDBRANCH 14 15
BRANCH 14 19
ATOM     19  CB  ASP D  -1     -18.470 -15.637 -24.062  1.00 60.46 LIG 0.15  C 
BRANCH 19 20
ATOM     20  CG  ASP D  -1     -18.951 -14.281 -23.588  1.00 56.39 LIG 0.17  C 
ATOM     21 OD1  ASP D  -1     -18.188 -13.601 -22.866  1.00 65.47 LIG-0.65  OA
ATOM     22 OD2  ASP D  -1     -20.084 -13.893 -23.948  1.00 48.71 LIG-0.65  OA
ENDBRANCH 19 20
ENDBRANCH 14 19
ENDBRANCH 12 14
ENDBRANCH 5 10
ENDBRANCH 1 5
BRANCH 3 23
ATOM     23  CA  ASP D   1     -21.521 -16.494 -18.052  1.00 46.44 LIG 0.19  C 
BRANCH 23 24
ATOM     24  C   ASP D   1     -22.385 -17.230 -17.040  1.00 38.24 LIG 0.24  C 
ATOM     25 O    ASP D   1     -21.978 -17.428 -15.900  1.00 48.73 LIG-0.27  OA
ATOM     26  N   MET D   2     -23.594 -17.599 -17.447  1.00 47.06 LIG-0.35  N 
ATOM     27 H    MET D   2     -23.860 -17.572 -18.264  1.00 47.06 LIG 0.16  HD
BRANCH 26 28
ATOM     28  CA  MET D   2     -24.587 -18.093 -16.493  1.00 48.57 LIG 0.16  C 
BRANCH 28 29
ATOM     29  C   MET D   2     -25.540 -19.105 -17.117  1.00 49.60 LIG 0.22  C 
ATOM     30 O    MET D   2     -25.165 -20.254 -17.353  1.00 49.04 LIG-0.29  OA
ENDBRANCH 28 29
BRANCH 28 31
ATOM     31  CB  MET D   2     -25.379 -16.918 -15.906  1.00 43.71 LIG 0.04  C 
BRANCH 31 32
ATOM     32  CG  MET D   2     -24.614 -16.073 -14.910  1.00 45.96 LIG 0.08  C 
BRANCH 32 33
ATOM     33 SD   MET D   2     -25.316 -14.416 -14.760  1.00 73.43 LIG-0.17  SA
ATOM     34  CE  MET D   2     -23.825 -13.439 -14.568  1.00 57.46 LIG 0.09  C 
ENDBRANCH 32 33
ENDBRANCH 31 32
ENDBRANCH 28 31
ENDBRANCH 26 28
ENDBRANCH 23 24
BRANCH 23 35
ATOM     35  CB  ASP D   1     -21.999 -15.032 -18.095  1.00 44.28 LIG 0.15  C 
BRANCH 35 36
ATOM     36  CG  ASP D   1     -23.058 -14.775 -19.150  1.00 47.95 LIG 0.17  C 
ATOM     37 OD1  ASP D   1     -24.234 -14.531 -18.794  1.00 49.71 LIG-0.65  OA
ATOM     38 OD2  ASP D   1     -22.700 -14.830 -20.352  1.00 42.29 LIG-0.65  OA
ENDBRANCH 35 36
ENDBRANCH 23 35
ENDBRANCH 3 23
TORSDOF 17
ENDMDL
MODEL 11
USER: ADFR SOLUTION from run 6
USER: SCORE 12.352439 LL:  -2.379 LR: -11.280 RR:   0.000 FEB:  -6.209
USER: RMSD 7.945346
USER: SEED 70872
USER: STATUS no improvement in best in 12 clusters for 5 generations
USER: GENES 19
USER: genes 0 Translation |==|  0.46201 0.41002 0.45434
USER: genes 1 Rotation |==|  0.80912 0.65944 0.84535 0.59876
USER: genes 2 Torsion [N]-C--CA-[N] |==|  0.88333
USER: genes 3 Torsion [C]-CA--CB-[CG] |==|  0.49718
USER: genes 4 Torsion [CA]-CB--CG-[OD2] |==|  0.67287
USER: genes 5 Torsion [C]-CA--N-[C] |==|  0.70259
USER: genes 6 Torsion [N]-C--CA-[N] |==|  0.54844
USER: genes 7 Torsion [C]-CA--N-[H3] |==|  0.90512
USER: genes 8 Torsion [C]-CA--CB-[CG] |==|  0.66986
USER: genes 9 Torsion [CA]-CB--CG-[OD2] |==|  0.66941
USER: genes 10 Torsion [C]-N--CA-[CB] |==|  0.23712
USER: genes 11 Torsion [N]-CA--C-[N] |==|  0.45068
USER: genes 12 Torsion [C]-N--CA-[C] |==|  0.19874
USER: genes 13 Torsion [N]-CA--C-[O] |==|  0.87923
USER: genes 14 Torsion [N]-CA--CB-[CG] |==|  0.53534
USER: genes 15 Torsion [CA]-CB--CG-[SD] |==|  0.14691
USER: genes 16 Torsion [CB]-CG--SD-[CE] |==|  0.46642
USER: genes 17 Torsion [N]-CA--CB-[CG] |==|  0.96583
USER: genes 18 Torsion [CA]-CB--CG-[OD1] |==|  0.18166
ROOT
ATOM      1  C   ASP D   0     -19.373 -19.730 -24.175  1.00 50.85 LIG 0.24  C 
ATOM      2 O    ASP D   0     -20.176 -20.477 -24.741  1.00 49.73 LIG-0.27  OA
ATOM      3  N   ASP D   1     -19.490 -19.371 -22.891  1.00 47.66 LIG-0.34  N 
ATOM      4 H    ASP D   1     -18.898 -18.911 -22.469  1.00 47.66 LIG 0.16  HD
ENDROOT
BRANCH 1 5
ATOM      5  CA  ASP D   0     -18.185 -19.158 -24.955  1.00 50.32 LIG 0.19  C 
BRANCH 5 6
ATOM      6  CB  ASP D   0     -16.922 -19.961 -24.621  1.00 50.50 LIG 0.15  C 
BRANCH 6 7
ATOM      7  CG  ASP D   0     -15.702 -19.476 -25.371  1.00 42.38 LIG 0.17  C 
ATOM      8 OD2  ASP D   0     -15.138 -20.263 -26.164  1.00 47.85 LIG-0.65  OA
ATOM      9 OD1  ASP D   0     -15.310 -18.309 -25.174  1.00 32.99 LIG-0.65  OA
ENDBRANCH 6 7
ENDBRANCH 5 6
BRANCH 5 10
ATOM     10  N   ASP D   0     -17.946 -17.745 -24.671  1.00 53.06 LIG-0.34  N 
ATOM     11 H    ASP D   0     -17.606 -17.597 -23.895  1.00 53.06 LIG 0.16  HD
ATOM     12  C   ASP D  -1     -18.232 -16.780 -25.543  1.00 52.15 LIG 0.25  C 
ATOM     13 O    ASP D  -1     -18.930 -16.954 -26.551  1.00 47.49 LIG-0.27  OA
BRANCH 12 14
ATOM     14  CA  ASP D  -1     -17.650 -15.405 -25.223  1.00 59.57 LIG 0.28  C 
BRANCH 14 15
ATOM     15  N   ASP D  -1     -18.350 -14.375 -25.986  1.00 50.06 LIG-0.07  N 
ATOM     16 H3   ASP D  -1     -18.585 -14.703 -26.780  1.00 50.06 LIG 0.28  HD
ATOM     17 H2   ASP D  -1     -17.813 -13.674 -26.102  1.00 50.06 LIG 0.28  HD
ATOM     18 H1   ASP D  -1     -19.078 -14.121 -25.543  1.00 50.06 LIG 0.28  HD
ENDBRANCH 14 15
BRANCH 14 19
ATOM     19  CB  ASP D  -1     -17.730 -15.113 -23.724  1.00 60.46 LIG 0.15  C 
BRANCH 19 20
ATOM     20  CG  ASP D  -1     -18.575 -13.897 -23.409  1.00 56.39 LIG 0.17  C 
ATOM     21 OD1  ASP D  -1     -19.785 -13.916 -23.728  1.00 65.47 LIG-0.65  OA
ATOM     22 OD2  ASP D  -1     -18.032 -12.928 -22.831  1.00 48.71 LIG-0.65  OA
ENDBRANCH 19 20
ENDBRANCH 14 19
ENDBRANCH 12 14
ENDBRANCH 5 10
ENDBRANCH 1 5
BRANCH 3 23
ATOM     23  CA  ASP D   1     -20.662 -19.739 -22.075  1.00 46.44 LIG 0.19  C 
BRANCH 23 24
ATOM     24  C   ASP D   1     -20.884 -18.750 -20.942  1.00 38.24 LIG 0.24  C 
ATOM     25 O    ASP D   1     -19.996 -17.971 -20.612  1.00 48.73 LIG-0.27  OA
ATOM     26  N   MET D   2     -22.084 -18.756 -20.373  1.00 47.06 LIG-0.35  N 
ATOM     27 H    MET D   2     -22.682 -19.359 -20.507  1.00 47.06 LIG 0.16  HD
BRANCH 26 28
ATOM     28  CA  MET D   2     -22.479 -17.695 -19.446  1.00 48.57 LIG 0.16  C 
BRANCH 28 29
ATOM     29  C   MET D   2     -22.727 -16.367 -20.152  1.00 49.60 LIG 0.22  C 
ATOM     30 O    MET D   2     -21.953 -15.969 -21.024  1.00 49.04 LIG-0.29  OA
ENDBRANCH 28 29
BRANCH 28 31
ATOM     31  CB  MET D   2     -21.409 -17.522 -18.361  1.00 43.71 LIG 0.04  C 
BRANCH 31 32
ATOM     32  CG  MET D   2     -21.835 -16.675 -17.182  1.00 45.96 LIG 0.08  C 
BRANCH 32 33
ATOM     33 SD   MET D   2     -23.385 -17.260 -16.463  1.00 73.43 LIG-0.17  SA
ATOM     34  CE  MET D   2     -23.414 -16.329 -14.931  1.00 57.46 LIG 0.09  C 
ENDBRANCH 32 33
ENDBRANCH 31 32
ENDBRANCH 28 31
ENDBRANCH 26 28
ENDBRANCH 23 24
BRANCH 23 35
ATOM     35  CB  ASP D   1     -20.519 -21.138 -21.450  1.00 44.28 LIG 0.15  C 
BRANCH 35 36
ATOM     36  CG  ASP D   1     -19.372 -21.943 -22.031  1.00 47.95 LIG 0.17  C 
ATOM     37 OD1  ASP D   1     -18.195 -21.553 -21.853  1.00 49.71 LIG-0.65  OA
ATOM     38 OD2  ASP D   1     -19.664 -22.975 -22.684  1.00 42.29 LIG-0.65  OA
ENDBRANCH 35 36
ENDBRANCH 23 35
ENDBRANCH 3 23
TORSDOF 17
ENDMDL
MODEL 12
USER: ADFR SOLUTION from run 117
USER: SCORE 13.796563 LL:  -2.595 LR: -11.278 RR:   0.000 FEB:  -6.207
USER: RMSD 5.746249
USER: SEED 116
USER: STATUS no improvement in best in 4 clusters for 5 generations
USER: GENES 19
USER: genes 0 Translation |==|  0.57242 0.51710 0.38706
USER: genes 1 Rotation |==|  0.47766 0.36082 0.15665 0.83502
USER: genes 2 Torsion [N]-C--CA-[N] |==|  0.93115
USER: genes 3 Torsion [C]-CA--CB-[CG] |==|  0.49482
USER: genes 4 Torsion [CA]-CB--CG-[OD2] |==|  0.51293
USER: genes 5 Torsion [C]-CA--N-[C] |==|  0.83333
USER: genes 6 Torsion [N]-C--CA-[N] |==|  0.45354
USER: genes 7 Torsion [C]-CA--N-[H3] |==|  0.63455
USER: genes 8 Torsion [C]-CA--CB-[CG] |==|  0.84895
USER: genes 9 Torsion [CA]-CB--CG-[OD2] |==|  0.23287
USER: genes 10 Torsion [C]-N--CA-[CB] |==|  0.85968
USER: genes 11 Torsion [N]-CA--C-[N] |==|  0.36094
USER: genes 12 Torsion [C]-N--CA-[C] |==|  0.13786
USER: genes 13 Torsion [N]-CA--C-[O] |==|  0.15553
USER: genes 14 Torsion [N]-CA--CB-[CG] |==|  0.34597
USER: genes 15 Torsion [CA]-CB--CG-[SD] |==|  0.70160
USER: genes 16 Torsion [CB]-CG--SD-[CE] |==|  0.41567
USER: genes 17 Torsion [N]-CA--CB-[CG] |==|  0.66865
USER: genes 18 Torsion [CA]-CB--CG-[OD1] |==|  0.27056
ROOT
ATOM      1  C   ASP D   0     -17.054 -17.883 -25.386  1.00 50.85 LIG 0.24  C 
ATOM      2 O    ASP D   0     -16.631 -17.599 -26.510  1.00 49.73 LIG-0.27  OA
ATOM      3  N   ASP D   1     -16.597 -18.920 -24.675  1.00 47.66 LIG-0.34  N 
ATOM      4 H    ASP D   1     -16.832 -19.083 -23.863  1.00 47.66 LIG 0.16  HD
ENDROOT
BRANCH 1 5
ATOM      5  CA  ASP D   0     -18.164 -17.037 -24.755  1.00 50.32 LIG 0.19  C 
BRANCH 5 6
ATOM      6  CB  ASP D   0     -17.547 -15.803 -24.086  1.00 50.50 LIG 0.15  C 
BRANCH 6 7
ATOM      7  CG  ASP D   0     -18.582 -14.887 -23.474  1.00 42.38 LIG 0.17  C 
ATOM      8 OD2  ASP D   0     -18.200 -13.803 -22.978  1.00 47.85 LIG-0.65  OA
ATOM      9 OD1  ASP D   0     -19.776 -15.245 -23.492  1.00 32.99 LIG-0.65  OA
ENDBRANCH 6 7
ENDBRANCH 5 6
BRANCH 5 10
ATOM     10  N   ASP D   0     -18.950 -17.776 -23.768  1.00 53.06 LIG-0.34  N 
ATOM     11 H    ASP D   0     -18.929 -17.436 -22.978  1.00 53.06 LIG 0.16  HD
ATOM     12  C   ASP D  -1     -19.634 -18.877 -24.075  1.00 52.15 LIG 0.25  C 
ATOM     13 O    ASP D  -1     -19.485 -19.502 -25.133  1.00 47.49 LIG-0.27  OA
BRANCH 12 14
ATOM     14  CA  ASP D  -1     -20.633 -19.349 -23.021  1.00 59.57 LIG 0.28  C 
BRANCH 14 15
ATOM     15  N   ASP D  -1     -21.577 -20.293 -23.615  1.00 50.06 LIG-0.07  N 
ATOM     16 H3   ASP D  -1     -22.408 -20.061 -23.394  1.00 50.06 LIG 0.28  HD
ATOM     17 H2   ASP D  -1     -21.408 -21.113 -23.314  1.00 50.06 LIG 0.28  HD
ATOM     18 H1   ASP D  -1     -21.492 -20.279 -24.501  1.00 50.06 LIG 0.28  HD
ENDBRANCH 14 15
BRANCH 14 19
ATOM     19  CB  ASP D  -1     -19.913 -19.986 -21.831  1.00 60.46 LIG 0.15  C 
BRANCH 19 20
ATOM     20  CG  ASP D  -1     -18.978 -21.103 -22.242  1.00 56.39 LIG 0.17  C 
ATOM     21 OD1  ASP D  -1     -19.402 -22.279 -22.195  1.00 65.47 LIG-0.65  OA
ATOM     22 OD2  ASP D  -1     -17.824 -20.803 -22.624  1.00 48.71 LIG-0.65  OA
ENDBRANCH 19 20
ENDBRANCH 14 19
ENDBRANCH 12 14
ENDBRANCH 5 10
ENDBRANCH 1 5
BRANCH 3 23
ATOM     23  CA  ASP D   1     -15.634 -19.890 -25.229  1.00 46.44 LIG 0.19  C 
BRANCH 23 24
ATOM     24  C   ASP D   1     -14.259 -19.268 -25.411  1.00 38.24 LIG 0.24  C 
ATOM     25 O    ASP D   1     -14.136 -18.178 -25.963  1.00 48.73 LIG-0.27  OA
ATOM     26  N   MET D   2     -13.229 -19.940 -24.911  1.00 47.06 LIG-0.35  N 
ATOM     27 H    MET D   2     -13.273 -20.749 -24.622  1.00 47.06 LIG 0.16  HD
BRANCH 26 28
ATOM     28  CA  MET D   2     -11.906 -19.326 -24.819  1.00 48.57 LIG 0.16  C 
BRANCH 28 29
ATOM     29  C   MET D   2     -11.947 -17.949 -24.167  1.00 49.60 LIG 0.22  C 
ATOM     30 O    MET D   2     -12.435 -17.803 -23.045  1.00 49.04 LIG-0.29  OA
ENDBRANCH 28 29
BRANCH 28 31
ATOM     31  CB  MET D   2     -11.275 -19.227 -26.214  1.00 43.71 LIG 0.04  C 
BRANCH 31 32
ATOM     32  CG  MET D   2     -10.846 -17.833 -26.617  1.00 45.96 LIG 0.08  C 
BRANCH 32 33
ATOM     33 SD   MET D   2     -11.940 -17.133 -27.872  1.00 73.43 LIG-0.17  SA
ATOM     34  CE  MET D   2     -11.825 -15.387 -27.478  1.00 57.46 LIG 0.09  C 
ENDBRANCH 32 33
ENDBRANCH 31 32
ENDBRANCH 28 31
ENDBRANCH 26 28
ENDBRANCH 23 24
BRANCH 23 35
ATOM     35  CB  ASP D   1     -16.082 -20.435 -26.597  1.00 44.28 LIG 0.15  C 
BRANCH 35 36
ATOM     36  CG  ASP D   1     -16.288 -21.938 -26.609  1.00 47.95 LIG 0.17  C 
ATOM     37 OD1  ASP D   1     -17.443 -22.400 -26.467  1.00 49.71 LIG-0.65  OA
ATOM     38 OD2  ASP D   1     -15.270 -22.659 -26.753  1.00 42.29 LIG-0.65  OA
ENDBRANCH 35 36
ENDBRANCH 23 35
ENDBRANCH 3 23
TORSDOF 17
ENDMDL
MODEL 13
USER: ADFR SOLUTION from run 170
USER: SCORE 12.026448 LL:  -2.456 LR: -11.267 RR:   0.000 FEB:  -6.196
USER: RMSD 7.547550
USER: SEED 169
USER: STATUS no improvement in best in 7 clusters for 5 generations
USER: GENES 19
USER: genes 0 Translation |==|  0.45160 0.63885 0.47897
USER: genes 1 Rotation |==|  0.90330 0.27171 0.68039 0.55192
USER: genes 2 Torsion [N]-C--CA-[N] |==|  0.53175
USER: genes 3 Torsion [C]-CA--CB-[CG] |==|  0.28127
USER: genes 4 Torsion [CA]-CB--CG-[OD2] |==|  0.88292
USER: genes 5 Torsion [C]-CA--N-[C] |==|  0.13516
USER: genes 6 Torsion [N]-C--CA-[N] |==|  0.58285
USER: genes 7 Torsion [C]-CA--N-[H3] |==|  0.27740
USER: genes 8 Torsion [C]-CA--CB-[CG] |==|  0.83089
USER: genes 9 Torsion [CA]-CB--CG-[OD2] |==|  0.78179
USER: genes 10 Torsion [C]-N--CA-[CB] |==|  0.18971
USER: genes 11 Torsion [N]-CA--C-[N] |==|  0.82892
USER: genes 12 Torsion [C]-N--CA-[C] |==|  0.64974
USER: genes 13 Torsion [N]-CA--C-[O] |==|  0.06811
USER: genes 14 Torsion [N]-CA--CB-[CG] |==|  0.74880
USER: genes 15 Torsion [CA]-CB--CG-[SD] |==|  0.71807
USER: genes 16 Torsion [CB]-CG--SD-[CE] |==|  0.00849
USER: genes 17 Torsion [N]-CA--CB-[CG] |==|  0.71650
USER: genes 18 Torsion [CA]-CB--CG-[OD1] |==|  0.37231
ROOT
ATOM      1  C   ASP D   0     -19.591 -15.783 -23.732  1.00 50.85 LIG 0.24  C 
ATOM      2 O    ASP D   0     -20.350 -14.820 -23.587  1.00 49.73 LIG-0.27  OA
ATOM      3  N   ASP D   1     -19.700 -16.912 -23.020  1.00 47.66 LIG-0.34  N 
ATOM      4 H    ASP D   1     -19.223 -17.613 -23.164  1.00 47.66 LIG 0.16  HD
ENDROOT
BRANCH 1 5
ATOM      5  CA  ASP D   0     -18.453 -15.707 -24.753  1.00 50.32 LIG 0.19  C 
BRANCH 5 6
ATOM      6  CB  ASP D   0     -17.152 -16.193 -24.103  1.00 50.50 LIG 0.15  C 
BRANCH 6 7
ATOM      7  CG  ASP D   0     -16.796 -17.611 -24.488  1.00 42.38 LIG 0.17  C 
ATOM      8 OD2  ASP D   0     -17.709 -18.466 -24.526  1.00 47.85 LIG-0.65  OA
ATOM      9 OD1  ASP D   0     -15.607 -17.872 -24.759  1.00 32.99 LIG-0.65  OA
ENDBRANCH 6 7
ENDBRANCH 5 6
BRANCH 5 10
ATOM     10  N   ASP D   0     -18.252 -14.360 -25.282  1.00 53.06 LIG-0.34  N 
ATOM     11 H    ASP D   0     -18.198 -14.325 -26.140  1.00 53.06 LIG 0.16  HD
ATOM     12  C   ASP D  -1     -18.163 -13.287 -24.497  1.00 52.15 LIG 0.25  C 
ATOM     13 O    ASP D  -1     -18.003 -13.349 -23.271  1.00 47.49 LIG-0.27  OA
BRANCH 12 14
ATOM     14  CA  ASP D  -1     -18.259 -11.939 -25.207  1.00 59.57 LIG 0.28  C 
BRANCH 14 15
ATOM     15  N   ASP D  -1     -17.488 -10.935 -24.478  1.00 50.06 LIG-0.07  N 
ATOM     16 H3   ASP D  -1     -16.700 -10.819 -24.875  1.00 50.06 LIG 0.28  HD
ATOM     17 H2   ASP D  -1     -17.361 -11.208 -23.640  1.00 50.06 LIG 0.28  HD
ATOM     18 H1   ASP D  -1     -17.933 -10.164 -24.474  1.00 50.06 LIG 0.28  HD
ENDBRANCH 14 15
BRANCH 14 19
ATOM     19  CB  ASP D  -1     -17.773 -12.046 -26.653  1.00 60.46 LIG 0.15  C 
BRANCH 19 20
ATOM     20  CG  ASP D  -1     -16.325 -12.477 -26.754  1.00 56.39 LIG 0.17  C 
ATOM     21 OD1  ASP D  -1     -16.080 -13.667 -27.052  1.00 65.47 LIG-0.65  OA
ATOM     22 OD2  ASP D  -1     -15.434 -11.622 -26.548  1.00 48.71 LIG-0.65  OA
ENDBRANCH 19 20
ENDBRANCH 14 19
ENDBRANCH 12 14
ENDBRANCH 5 10
ENDBRANCH 1 5
BRANCH 3 23
ATOM     23  CA  ASP D   1     -20.662 -17.052 -21.911  1.00 46.44 LIG 0.19  C 
BRANCH 23 24
ATOM     24  C   ASP D   1     -20.434 -18.339 -21.136  1.00 38.24 LIG 0.24  C 
ATOM     25 O    ASP D   1     -20.170 -18.306 -19.937  1.00 48.73 LIG-0.27  OA
ATOM     26  N   MET D   2     -20.574 -19.474 -21.810  1.00 47.06 LIG-0.35  N 
ATOM     27 H    MET D   2     -20.648 -19.524 -22.665  1.00 47.06 LIG 0.16  HD
BRANCH 26 28
ATOM     28  CA  MET D   2     -20.614 -20.760 -21.114  1.00 48.57 LIG 0.16  C 
BRANCH 28 29
ATOM     29  C   MET D   2     -19.587 -21.748 -21.657  1.00 49.60 LIG 0.22  C 
ATOM     30 O    MET D   2     -18.573 -21.344 -22.228  1.00 49.04 LIG-0.29  OA
ENDBRANCH 28 29
BRANCH 28 31
ATOM     31  CB  MET D   2     -22.021 -21.363 -21.206  1.00 43.71 LIG 0.04  C 
BRANCH 31 32
ATOM     32  CG  MET D   2     -22.949 -20.979 -20.074  1.00 45.96 LIG 0.08  C 
BRANCH 32 33
ATOM     33 SD   MET D   2     -23.098 -22.302 -18.853  1.00 73.43 LIG-0.17  SA
ATOM     34  CE  MET D   2     -21.949 -23.504 -19.524  1.00 57.46 LIG 0.09  C 
ENDBRANCH 32 33
ENDBRANCH 31 32
ENDBRANCH 28 31
ENDBRANCH 26 28
ENDBRANCH 23 24
BRANCH 23 35
ATOM     35  CB  ASP D   1     -22.120 -17.061 -22.406  1.00 44.28 LIG 0.15  C 
BRANCH 35 36
ATOM     36  CG  ASP D   1     -22.835 -15.739 -22.198  1.00 47.95 LIG 0.17  C 
ATOM     37 OD1  ASP D   1     -23.514 -15.255 -23.132  1.00 49.71 LIG-0.65  OA
ATOM     38 OD2  ASP D   1     -22.700 -15.179 -21.082  1.00 42.29 LIG-0.65  OA
ENDBRANCH 35 36
ENDBRANCH 23 35
ENDBRANCH 3 23
TORSDOF 17
ENDMDL
MODEL 14
USER: ADFR SOLUTION from run 171
USER: SCORE 13.172640 LL:  -2.521 LR: -11.259 RR:   0.000 FEB:  -6.188
USER: RMSD 7.039739
USER: SEED 170
USER: STATUS searching
USER: GENES 19
USER: genes 0 Translation |==|  0.41021 0.26065 0.61632
USER: genes 1 Rotation |==|  0.37223 0.14382 0.71009 0.75034
USER: genes 2 Torsion [N]-C--CA-[N] |==|  0.97701
USER: genes 3 Torsion [C]-CA--CB-[CG] |==|  0.12166
USER: genes 4 Torsion [CA]-CB--CG-[OD2] |==|  0.22862
USER: genes 5 Torsion [C]-CA--N-[C] |==|  0.71797
USER: genes 6 Torsion [N]-C--CA-[N] |==|  0.47236
USER: genes 7 Torsion [C]-CA--N-[H3] |==|  0.72112
USER: genes 8 Torsion [C]-CA--CB-[CG] |==|  0.71470
USER: genes 9 Torsion [CA]-CB--CG-[OD2] |==|  0.83479
USER: genes 10 Torsion [C]-N--CA-[CB] |==|  0.23333
USER: genes 11 Torsion [N]-CA--C-[N] |==|  0.00088
USER: genes 12 Torsion [C]-N--CA-[C] |==|  0.17031
USER: genes 13 Torsion [N]-CA--C-[O] |==|  0.66213
USER: genes 14 Torsion [N]-CA--CB-[CG] |==|  0.69517
USER: genes 15 Torsion [CA]-CB--CG-[SD] |==|  0.37914
USER: genes 16 Torsion [CB]-CG--SD-[CE] |==|  0.02624
USER: genes 17 Torsion [N]-CA--CB-[CG] |==|  0.69712
USER: genes 18 Torsion [CA]-CB--CG-[OD1] |==|  0.59356
ROOT
ATOM      1  C   ASP D   0     -20.461 -22.307 -21.259  1.00 50.85 LIG 0.24  C 
ATOM      2 O    ASP D   0     -19.291 -22.569 -21.556  1.00 49.73 LIG-0.27  OA
ATOM      3  N   ASP D   1     -20.931 -21.056 -21.183  1.00 47.66 LIG-0.34  N 
ATOM      4 H    ASP D   1     -21.759 -20.866 -21.048  1.00 47.66 LIG 0.16  HD
ENDROOT
BRANCH 1 5
ATOM      5  CA  ASP D   0     -21.438 -23.443 -20.943  1.00 50.32 LIG 0.19  C 
BRANCH 5 6
ATOM      6  CB  ASP D   0     -21.696 -24.261 -22.214  1.00 50.50 LIG 0.15  C 
BRANCH 6 7
ATOM      7  CG  ASP D   0     -20.433 -24.549 -22.994  1.00 42.38 LIG 0.17  C 
ATOM      8 OD2  ASP D   0     -19.718 -25.511 -22.635  1.00 47.85 LIG-0.65  OA
ATOM      9 OD1  ASP D   0     -20.157 -23.820 -23.966  1.00 32.99 LIG-0.65  OA
ENDBRANCH 6 7
ENDBRANCH 5 6
BRANCH 5 10
ATOM     10  N   ASP D   0     -22.713 -22.964 -20.413  1.00 53.06 LIG-0.34  N 
ATOM     11 H    ASP D   0     -23.249 -22.658 -21.012  1.00 53.06 LIG 0.16  HD
ATOM     12  C   ASP D  -1     -23.010 -23.002 -19.114  1.00 52.15 LIG 0.25  C 
ATOM     13 O    ASP D  -1     -22.172 -23.215 -18.228  1.00 47.49 LIG-0.27  OA
BRANCH 12 14
ATOM     14  CA  ASP D  -1     -24.475 -22.753 -18.763  1.00 59.57 LIG 0.28  C 
BRANCH 14 15
ATOM     15  N   ASP D  -1     -24.708 -23.053 -17.353  1.00 50.06 LIG-0.07  N 
ATOM     16 H3   ASP D  -1     -25.082 -23.858 -17.279  1.00 50.06 LIG 0.28  HD
ATOM     17 H2   ASP D  -1     -25.252 -22.440 -17.005  1.00 50.06 LIG 0.28  HD
ATOM     18 H1   ASP D  -1     -23.933 -23.045 -16.916  1.00 50.06 LIG 0.28  HD
ENDBRANCH 14 15
BRANCH 14 19
ATOM     19  CB  ASP D  -1     -24.875 -21.311 -19.081  1.00 60.46 LIG 0.15  C 
BRANCH 19 20
ATOM     20  CG  ASP D  -1     -24.947 -20.438 -17.846  1.00 56.39 LIG 0.17  C 
ATOM     21 OD1  ASP D  -1     -24.219 -19.422 -17.794  1.00 65.47 LIG-0.65  OA
ATOM     22 OD2  ASP D  -1     -25.742 -20.761 -16.934  1.00 48.71 LIG-0.65  OA
ENDBRANCH 19 20
ENDBRANCH 14 19
ENDBRANCH 12 14
ENDBRANCH 5 10
ENDBRANCH 1 5
BRANCH 3 23
ATOM     23  CA  ASP D   1     -20.057 -19.877 -21.324  1.00 46.44 LIG 0.19  C 
BRANCH 23 24
ATOM     24  C   ASP D   1     -20.647 -18.660 -20.630  1.00 38.24 LIG 0.24  C 
ATOM     25 O    ASP D   1     -20.074 -17.576 -20.680  1.00 48.73 LIG-0.27  OA
ATOM     26  N   MET D   2     -21.812 -18.830 -20.017  1.00 47.06 LIG-0.35  N 
ATOM     27 H    MET D   2     -22.177 -19.595 -19.873  1.00 47.06 LIG 0.16  HD
BRANCH 26 28
ATOM     28  CA  MET D   2     -22.577 -17.683 -19.529  1.00 48.57 LIG 0.16  C 
BRANCH 28 29
ATOM     29  C   MET D   2     -22.985 -16.735 -20.650  1.00 49.60 LIG 0.22  C 
ATOM     30 O    MET D   2     -22.638 -15.553 -20.626  1.00 49.04 LIG-0.29  OA
ENDBRANCH 28 29
BRANCH 28 31
ATOM     31  CB  MET D   2     -21.767 -16.926 -18.469  1.00 43.71 LIG 0.04  C 
BRANCH 31 32
ATOM     32  CG  MET D   2     -22.299 -17.049 -17.058  1.00 45.96 LIG 0.08  C 
BRANCH 32 33
ATOM     33 SD   MET D   2     -20.973 -17.331 -15.865  1.00 73.43 LIG-0.17  SA
ATOM     34  CE  MET D   2     -19.532 -17.053 -16.897  1.00 57.46 LIG 0.09  C 
ENDBRANCH 32 33
ENDBRANCH 31 32
ENDBRANCH 28 31
ENDBRANCH 26 28
ENDBRANCH 23 24
BRANCH 23 35
ATOM     35  CB  ASP D   1     -19.822 -19.503 -22.798  1.00 44.28 LIG 0.15  C 
BRANCH 35 36
ATOM     36  CG  ASP D   1     -18.413 -19.795 -23.278  1.00 47.95 LIG 0.17  C 
ATOM     37 OD1  ASP D   1     -17.885 -19.041 -24.128  1.00 49.71 LIG-0.65  OA
ATOM     38 OD2  ASP D   1     -17.838 -20.803 -22.800  1.00 42.29 LIG-0.65  OA
ENDBRANCH 35 36
ENDBRANCH 23 35
ENDBRANCH 3 23
TORSDOF 17
ENDMDL
MODEL 15
USER: ADFR SOLUTION from run 25
USER: SCORE 11.990739 LL:  -2.602 LR: -11.240 RR:   0.000 FEB:  -6.169
USER: RMSD 9.173567
USER: SEED 24
USER: STATUS no improvement in best in 13 clusters for 5 generations
USER: GENES 19
USER: genes 0 Translation |==|  0.38555 0.52051 0.67699
USER: genes 1 Rotation |==|  0.55478 0.00971 0.52629 0.57695
USER: genes 2 Torsion [N]-C--CA-[N] |==|  0.32436
USER: genes 3 Torsion [C]-CA--CB-[CG] |==|  0.52675
USER: genes 4 Torsion [CA]-CB--CG-[OD2] |==|  0.37391
USER: genes 5 Torsion [C]-CA--N-[C] |==|  0.79300
USER: genes 6 Torsion [N]-C--CA-[N] |==|  0.45000
USER: genes 7 Torsion [C]-CA--N-[H3] |==|  0.90024
USER: genes 8 Torsion [C]-CA--CB-[CG] |==|  0.79544
USER: genes 9 Torsion [CA]-CB--CG-[OD2] |==|  0.99397
USER: genes 10 Torsion [C]-N--CA-[CB] |==|  0.93497
USER: genes 11 Torsion [N]-CA--C-[N] |==|  0.53834
USER: genes 12 Torsion [C]-N--CA-[C] |==|  0.66316
USER: genes 13 Torsion [N]-CA--C-[O] |==|  0.13234
USER: genes 14 Torsion [N]-CA--CB-[CG] |==|  0.28794
USER: genes 15 Torsion [CA]-CB--CG-[SD] |==|  0.74768
USER: genes 16 Torsion [CB]-CG--SD-[CE] |==|  0.89069
USER: genes 17 Torsion [N]-CA--CB-[CG] |==|  0.60436
USER: genes 18 Torsion [CA]-CB--CG-[OD1] |==|  0.43596
ROOT
ATOM      1  C   ASP D   0     -20.978 -17.824 -20.167  1.00 50.85 LIG 0.24  C 
ATOM      2 O    ASP D   0     -19.986 -17.488 -19.515  1.00 49.73 LIG-0.27  OA
ATOM      3  N   ASP D   1     -22.226 -17.472 -19.833  1.00 47.66 LIG-0.34  N 
ATOM      4 H    ASP D   1     -22.915 -17.640 -20.319  1.00 47.66 LIG 0.16  HD
ENDROOT
BRANCH 1 5
ATOM      5  CA  ASP D   0     -20.809 -18.698 -21.414  1.00 50.32 LIG 0.19  C 
BRANCH 5 6
ATOM      6  CB  ASP D   0     -20.106 -20.005 -21.028  1.00 50.50 LIG 0.15  C 
BRANCH 6 7
ATOM      7  CG  ASP D   0     -19.690 -20.826 -22.228  1.00 42.38 LIG 0.17  C 
ATOM      8 OD2  ASP D   0     -18.540 -21.318 -22.244  1.00 47.85 LIG-0.65  OA
ATOM      9 OD1  ASP D   0     -20.513 -20.983 -23.152  1.00 32.99 LIG-0.65  OA
ENDBRANCH 6 7
ENDBRANCH 5 6
BRANCH 5 10
ATOM     10  N   ASP D   0     -20.049 -18.037 -22.472  1.00 53.06 LIG-0.34  N 
ATOM     11 H    ASP D   0     -19.245 -18.332 -22.562  1.00 53.06 LIG 0.16  HD
ATOM     12  C   ASP D  -1     -20.564 -17.067 -23.226  1.00 52.15 LIG 0.25  C 
ATOM     13 O    ASP D  -1     -21.619 -16.480 -22.957  1.00 47.49 LIG-0.27  OA
BRANCH 12 14
ATOM     14  CA  ASP D  -1     -19.757 -16.698 -24.469  1.00 59.57 LIG 0.28  C 
BRANCH 14 15
ATOM     15  N   ASP D  -1     -20.599 -15.962 -25.410  1.00 50.06 LIG-0.07  N 
ATOM     16 H3   ASP D  -1     -21.427 -16.287 -25.384  1.00 50.06 LIG 0.28  HD
ATOM     17 H2   ASP D  -1     -20.271 -16.050 -26.233  1.00 50.06 LIG 0.28  HD
ATOM     18 H1   ASP D  -1     -20.611 -15.101 -25.186  1.00 50.06 LIG 0.28  HD
ENDBRANCH 14 15
BRANCH 14 19
ATOM     19  CB  ASP D  -1     -18.522 -15.876 -24.095  1.00 60.46 LIG 0.15  C 
BRANCH 19 20
ATOM     20  CG  ASP D  -1     -18.862 -14.455 -23.699  1.00 56.39 LIG 0.17  C 
ATOM     21 OD1  ASP D  -1     -17.929 -13.699 -23.346  1.00 65.47 LIG-0.65  OA
ATOM     22 OD2  ASP D  -1     -20.058 -14.092 -23.754  1.00 48.71 LIG-0.65  OA
ENDBRANCH 19 20
ENDBRANCH 14 19
ENDBRANCH 12 14
ENDBRANCH 5 10
ENDBRANCH 1 5
BRANCH 3 23
ATOM     23  CA  ASP D   1     -22.531 -16.754 -18.581  1.00 46.44 LIG 0.19  C 
BRANCH 23 24
ATOM     24  C   ASP D   1     -22.651 -15.257 -18.813  1.00 38.24 LIG 0.24  C 
ATOM     25 O    ASP D   1     -22.787 -14.811 -19.948  1.00 48.73 LIG-0.27  OA
ATOM     26  N   MET D   2     -22.641 -14.484 -17.733  1.00 47.06 LIG-0.35  N 
ATOM     27 H    MET D   2     -22.439 -14.757 -16.943  1.00 47.06 LIG 0.16  HD
BRANCH 26 28
ATOM     28  CA  MET D   2     -22.989 -13.066 -17.823  1.00 48.57 LIG 0.16  C 
BRANCH 28 29
ATOM     29  C   MET D   2     -21.862 -12.159 -17.343  1.00 49.60 LIG 0.22  C 
ATOM     30 O    MET D   2     -20.707 -12.336 -17.734  1.00 49.04 LIG-0.29  OA
ENDBRANCH 28 29
BRANCH 28 31
ATOM     31  CB  MET D   2     -24.265 -12.787 -17.019  1.00 43.71 LIG 0.04  C 
BRANCH 31 32
ATOM     32  CG  MET D   2     -24.038 -12.110 -15.685  1.00 45.96 LIG 0.08  C 
BRANCH 32 33
ATOM     33 SD   MET D   2     -23.825 -13.311 -14.353  1.00 73.43 LIG-0.17  SA
ATOM     34  CE  MET D   2     -25.044 -14.542 -14.816  1.00 57.46 LIG 0.09  C 
ENDBRANCH 32 33
ENDBRANCH 31 32
ENDBRANCH 28 31
ENDBRANCH 26 28
ENDBRANCH 23 24
BRANCH 23 35
ATOM     35  CB  ASP D   1     -21.449 -16.973 -17.509  1.00 44.28 LIG 0.15  C 
BRANCH 35 36
ATOM     36  CG  ASP D   1     -22.008 -17.094 -16.103  1.00 47.95 LIG 0.17  C 
ATOM     37 OD1  ASP D   1     -21.340 -17.687 -15.225  1.00 49.71 LIG-0.65  OA
ATOM     38 OD2  ASP D   1     -23.139 -16.595 -15.888  1.00 42.29 LIG-0.65  OA
ENDBRANCH 35 36
ENDBRANCH 23 35
ENDBRANCH 3 23
TORSDOF 17
ENDMDL
MODEL 16
USER: ADFR SOLUTION from run 186
USER: SCORE 12.013133 LL:  -2.462 LR: -11.197 RR:   0.000 FEB:  -6.125
USER: RMSD 2.716160
USER: SEED 185
USER: STATUS no improvement in best in 11 clusters for 5 generations
USER: GENES 19
USER: genes 0 Translation |==|  0.43457 0.48127 0.49663
USER: genes 1 Rotation |==|  0.45109 0.45593 0.65596 0.97047
USER: genes 2 Torsion [N]-C--CA-[N] |==|  0.19509
USER: genes 3 Torsion [C]-CA--CB-[CG] |==|  0.23780
USER: genes 4 Torsion [CA]-CB--CG-[OD2] |==|  0.54791
USER: genes 5 Torsion [C]-CA--N-[C] |==|  0.66648
USER: genes 6 Torsion [N]-C--CA-[N] |==|  0.54777
USER: genes 7 Torsion [C]-CA--N-[H3] |==|  0.99037
USER: genes 8 Torsion [C]-CA--CB-[CG] |==|  0.78049
USER: genes 9 Torsion [CA]-CB--CG-[OD2] |==|  0.34992
USER: genes 10 Torsion [C]-N--CA-[CB] |==|  0.52347
USER: genes 11 Torsion [N]-CA--C-[N] |==|  0.75814
USER: genes 12 Torsion [C]-N--CA-[C] |==|  0.59589
USER: genes 13 Torsion [N]-CA--C-[O] |==|  0.79503
USER: genes 14 Torsion [N]-CA--CB-[CG] |==|  0.88359
USER: genes 15 Torsion [CA]-CB--CG-[SD] |==|  0.37811
USER: genes 16 Torsion [CB]-CG--SD-[CE] |==|  0.63419
USER: genes 17 Torsion [N]-CA--CB-[CG] |==|  0.82000
USER: genes 18 Torsion [CA]-CB--CG-[OD1] |==|  0.41059
ROOT
ATOM      1  C   ASP D   0     -19.949 -18.501 -23.414  1.00 50.85 LIG 0.24  C 
ATOM      2 O    ASP D   0     -20.382 -19.057 -24.427  1.00 49.73 LIG-0.27  OA
ATOM      3  N   ASP D   1     -19.352 -17.303 -23.437  1.00 47.66 LIG-0.34  N 
ATOM      4 H    ASP D   1     -19.113 -16.877 -22.729  1.00 47.66 LIG 0.16  HD
ENDROOT
BRANCH 1 5
ATOM      5  CA  ASP D   0     -20.072 -19.195 -22.054  1.00 50.32 LIG 0.19  C 
BRANCH 5 6
ATOM      6  CB  ASP D   0     -20.497 -20.653 -22.263  1.00 50.50 LIG 0.15  C 
BRANCH 6 7
ATOM      7  CG  ASP D   0     -19.326 -21.575 -22.521  1.00 42.38 LIG 0.17  C 
ATOM      8 OD2  ASP D   0     -19.552 -22.699 -23.024  1.00 47.85 LIG-0.65  OA
ATOM      9 OD1  ASP D   0     -18.182 -21.177 -22.228  1.00 32.99 LIG-0.65  OA
ENDBRANCH 6 7
ENDBRANCH 5 6
BRANCH 5 10
ATOM     10  N   ASP D   0     -21.028 -18.539 -21.165  1.00 53.06 LIG-0.34  N 
ATOM     11 H    ASP D   0     -21.830 -18.506 -21.476  1.00 53.06 LIG 0.16  HD
ATOM     12  C   ASP D  -1     -20.680 -18.039 -19.980  1.00 52.15 LIG 0.25  C 
ATOM     13 O    ASP D  -1     -19.506 -17.869 -19.629  1.00 47.49 LIG-0.27  OA
BRANCH 12 14
ATOM     14  CA  ASP D  -1     -21.836 -17.664 -19.055  1.00 59.57 LIG 0.28  C 
BRANCH 14 15
ATOM     15  N   ASP D  -1     -21.361 -16.776 -17.997  1.00 50.06 LIG-0.07  N 
ATOM     16 H3   ASP D  -1     -20.481 -16.669 -18.073  1.00 50.06 LIG 0.28  HD
ATOM     17 H2   ASP D  -1     -21.550 -17.132 -17.203  1.00 50.06 LIG 0.28  HD
ATOM     18 H1   ASP D  -1     -21.763 -15.986 -18.071  1.00 50.06 LIG 0.28  HD
ENDBRANCH 14 15
BRANCH 14 19
ATOM     19  CB  ASP D  -1     -22.974 -17.009 -19.839  1.00 60.46 LIG 0.15  C 
BRANCH 19 20
ATOM     20  CG  ASP D  -1     -22.704 -15.553 -20.155  1.00 56.39 LIG 0.17  C 
ATOM     21 OD1  ASP D  -1     -22.405 -14.787 -19.212  1.00 65.47 LIG-0.65  OA
ATOM     22 OD2  ASP D  -1     -22.778 -15.179 -21.347  1.00 48.71 LIG-0.65  OA
ENDBRANCH 19 20
ENDBRANCH 14 19
ENDBRANCH 12 14
ENDBRANCH 5 10
ENDBRANCH 1 5
BRANCH 3 23
ATOM     23  CA  ASP D   1     -19.047 -16.601 -24.697  1.00 46.44 LIG 0.19  C 
BRANCH 23 24
ATOM     24  C   ASP D   1     -18.305 -17.502 -25.671  1.00 38.24 LIG 0.24  C 
ATOM     25 O    ASP D   1     -18.917 -18.126 -26.533  1.00 48.73 LIG-0.27  OA
ATOM     26  N   MET D   2     -16.983 -17.537 -25.560  1.00 47.06 LIG-0.35  N 
ATOM     27 H    MET D   2     -16.542 -17.201 -24.903  1.00 47.06 LIG 0.16  HD
BRANCH 26 28
ATOM     28  CA  MET D   2     -16.161 -18.176 -26.588  1.00 48.57 LIG 0.16  C 
BRANCH 28 29
ATOM     29  C   MET D   2     -14.928 -18.858 -26.008  1.00 49.60 LIG 0.22  C 
ATOM     30 O    MET D   2     -13.973 -18.190 -25.610  1.00 49.04 LIG-0.29  OA
ENDBRANCH 28 29
BRANCH 28 31
ATOM     31  CB  MET D   2     -15.742 -17.141 -27.641  1.00 43.71 LIG 0.04  C 
BRANCH 31 32
ATOM     32  CG  MET D   2     -16.834 -16.178 -28.052  1.00 45.96 LIG 0.08  C 
BRANCH 32 33
ATOM     33 SD   MET D   2     -16.226 -14.480 -28.150  1.00 73.43 LIG-0.17  SA
ATOM     34  CE  MET D   2     -17.495 -13.618 -27.221  1.00 57.46 LIG 0.09  C 
ENDBRANCH 32 33
ENDBRANCH 31 32
ENDBRANCH 28 31
ENDBRANCH 26 28
ENDBRANCH 23 24
BRANCH 23 35
ATOM     35  CB  ASP D   1     -18.180 -15.350 -24.469  1.00 44.28 LIG 0.15  C 
BRANCH 35 36
ATOM     36  CG  ASP D   1     -18.877 -14.272 -23.660  1.00 47.95 LIG 0.17  C 
ATOM     37 OD1  ASP D   1     -18.200 -13.535 -22.907  1.00 49.71 LIG-0.65  OA
ATOM     38 OD2  ASP D   1     -20.123 -14.176 -23.779  1.00 42.29 LIG-0.65  OA
ENDBRANCH 35 36
ENDBRANCH 23 35
ENDBRANCH 3 23
TORSDOF 17
ENDMDL
MODEL 17
USER: ADFR SOLUTION from run 172
USER: SCORE 12.116776 LL:  -2.662 LR: -11.190 RR:   0.000 FEB:  -6.119
USER: RMSD 8.360335
USER: SEED 171
USER: STATUS no improvement in best in 15 clusters for 5 generations
USER: GENES 19
USER: genes 0 Translation |==|  0.35356 0.36841 0.68335
USER: genes 1 Rotation |==|  0.75428 0.76022 0.46376 0.84105
USER: genes 2 Torsion [N]-C--CA-[N] |==|  0.54341
USER: genes 3 Torsion [C]-CA--CB-[CG] |==|  0.28015
USER: genes 4 Torsion [CA]-CB--CG-[OD2] |==|  0.81770
USER: genes 5 Torsion [C]-CA--N-[C] |==|  0.71505
USER: genes 6 Torsion [N]-C--CA-[N] |==|  0.67695
USER: genes 7 Torsion [C]-CA--N-[H3] |==|  0.62213
USER: genes 8 Torsion [C]-CA--CB-[CG] |==|  0.77696
USER: genes 9 Torsion [CA]-CB--CG-[OD2] |==|  0.41053
USER: genes 10 Torsion [C]-N--CA-[CB] |==|  0.84108
USER: genes 11 Torsion [N]-CA--C-[N] |==|  0.74127
USER: genes 12 Torsion [C]-N--CA-[C] |==|  0.86472
USER: genes 13 Torsion [N]-CA--C-[O] |==|  0.66247
USER: genes 14 Torsion [N]-CA--CB-[CG] |==|  0.52034
USER: genes 15 Torsion [CA]-CB--CG-[SD] |==|  0.51948
USER: genes 16 Torsion [CB]-CG--SD-[CE] |==|  0.99882
USER: genes 17 Torsion [N]-CA--CB-[CG] |==|  0.53862
USER: genes 18 Torsion [CA]-CB--CG-[OD1] |==|  0.72229
ROOT
ATOM      1  C   ASP D   0     -21.650 -20.448 -20.053  1.00 50.85 LIG 0.24  C 
ATOM      2 O    ASP D   0     -22.574 -20.029 -19.350  1.00 49.73 LIG-0.27  OA
ATOM      3  N   ASP D   1     -20.737 -19.645 -20.612  1.00 47.66 LIG-0.34  N 
ATOM      4 H    ASP D   1     -20.049 -19.933 -21.042  1.00 47.66 LIG 0.16  HD
ENDROOT
BRANCH 1 5
ATOM      5  CA  ASP D   0     -21.525 -21.949 -20.329  1.00 50.32 LIG 0.19  C 
BRANCH 5 6
ATOM      6  CB  ASP D   0     -21.190 -22.169 -21.809  1.00 50.50 LIG 0.15  C 
BRANCH 6 7
ATOM      7  CG  ASP D   0     -19.724 -22.455 -22.043  1.00 42.38 LIG 0.17  C 
ATOM      8 OD2  ASP D   0     -18.894 -21.552 -21.796  1.00 47.85 LIG-0.65  OA
ATOM      9 OD1  ASP D   0     -19.401 -23.581 -22.470  1.00 32.99 LIG-0.65  OA
ENDBRANCH 6 7
ENDBRANCH 5 6
BRANCH 5 10
ATOM     10  N   ASP D   0     -22.739 -22.692 -19.995  1.00 53.06 LIG-0.34  N 
ATOM     11 H    ASP D   0     -23.367 -22.615 -20.577  1.00 53.06 LIG 0.16  HD
ATOM     12  C   ASP D  -1     -22.852 -23.419 -18.885  1.00 52.15 LIG 0.25  C 
ATOM     13 O    ASP D  -1     -22.058 -23.349 -17.938  1.00 47.49 LIG-0.27  OA
BRANCH 12 14
ATOM     14  CA  ASP D  -1     -24.051 -24.364 -18.833  1.00 59.57 LIG 0.28  C 
BRANCH 14 15
ATOM     15  N   ASP D  -1     -24.949 -23.972 -17.750  1.00 50.06 LIG-0.07  N 
ATOM     16 H3   ASP D  -1     -25.211 -24.696 -17.305  1.00 50.06 LIG 0.28  HD
ATOM     17 H2   ASP D  -1     -25.661 -23.558 -18.090  1.00 50.06 LIG 0.28  HD
ATOM     18 H1   ASP D  -1     -24.523 -23.421 -17.196  1.00 50.06 LIG 0.28  HD
ENDBRANCH 14 15
BRANCH 14 19
ATOM     19  CB  ASP D  -1     -24.793 -24.379 -20.171  1.00 60.46 LIG 0.15  C 
BRANCH 19 20
ATOM     20  CG  ASP D  -1     -25.720 -23.195 -20.339  1.00 56.39 LIG 0.17  C 
ATOM     21 OD1  ASP D  -1     -26.258 -22.713 -19.317  1.00 65.47 LIG-0.65  OA
ATOM     22 OD2  ASP D  -1     -25.900 -22.738 -21.490  1.00 48.71 LIG-0.65  OA
ENDBRANCH 19 20
ENDBRANCH 14 19
ENDBRANCH 12 14
ENDBRANCH 5 10
ENDBRANCH 1 5
BRANCH 3 23
ATOM     23  CA  ASP D   1     -20.831 -18.176 -20.539  1.00 46.44 LIG 0.19  C 
BRANCH 23 24
ATOM     24  C   ASP D   1     -20.734 -17.682 -19.104  1.00 38.24 LIG 0.24  C 
ATOM     25 O    ASP D   1     -19.642 -17.428 -18.605  1.00 48.73 LIG-0.27  OA
ATOM     26  N   MET D   2     -21.880 -17.509 -18.456  1.00 47.06 LIG-0.35  N 
ATOM     27 H    MET D   2     -22.644 -17.781 -18.740  1.00 47.06 LIG 0.16  HD
BRANCH 26 28
ATOM     28  CA  MET D   2     -21.914 -16.817 -17.168  1.00 48.57 LIG 0.16  C 
BRANCH 28 29
ATOM     29  C   MET D   2     -20.865 -17.342 -16.195  1.00 49.60 LIG 0.22  C 
ATOM     30 O    MET D   2     -21.200 -17.803 -15.103  1.00 49.04 LIG-0.29  OA
ENDBRANCH 28 29
BRANCH 28 31
ATOM     31  CB  MET D   2     -23.312 -16.936 -16.546  1.00 43.71 LIG 0.04  C 
BRANCH 31 32
ATOM     32  CG  MET D   2     -23.520 -16.113 -15.294  1.00 45.96 LIG 0.08  C 
BRANCH 32 33
ATOM     33 SD   MET D   2     -25.112 -16.466 -14.518  1.00 73.43 LIG-0.17  SA
ATOM     34  CE  MET D   2     -25.770 -17.692 -15.651  1.00 57.46 LIG 0.09  C 
ENDBRANCH 32 33
ENDBRANCH 31 32
ENDBRANCH 28 31
ENDBRANCH 26 28
ENDBRANCH 23 24
BRANCH 23 35
ATOM     35  CB  ASP D   1     -22.154 -17.650 -21.123  1.00 44.28 LIG 0.15  C 
BRANCH 35 36
ATOM     36  CG  ASP D   1     -22.151 -16.153 -21.372  1.00 47.95 LIG 0.17  C 
ATOM     37 OD1  ASP D   1     -22.700 -15.391 -20.543  1.00 49.71 LIG-0.65  OA
ATOM     38 OD2  ASP D   1     -21.599 -15.745 -22.423  1.00 42.29 LIG-0.65  OA
ENDBRANCH 35 36
ENDBRANCH 23 35
ENDBRANCH 3 23
TORSDOF 17
ENDMDL
MODEL 18
USER: ADFR SOLUTION from run 124
USER: SCORE 13.021092 LL:  -2.939 LR: -11.167 RR:   0.000 FEB:  -6.096
USER: RMSD 7.269340
USER: SEED 123
USER: STATUS no improvement in best in 7 clusters for 5 generations
USER: GENES 19
USER: genes 0 Translation |==|  0.47574 0.54191 0.43278
USER: genes 1 Rotation |==|  0.39294 0.36016 0.10906 0.75719
USER: genes 2 Torsion [N]-C--CA-[N] |==|  0.41667
USER: genes 3 Torsion [C]-CA--CB-[CG] |==|  0.46510
USER: genes 4 Torsion [CA]-CB--CG-[OD2] |==|  0.68573
USER: genes 5 Torsion [C]-CA--N-[C] |==|  0.64352
USER: genes 6 Torsion [N]-C--CA-[N] |==|  0.58114
USER: genes 7 Torsion [C]-CA--N-[H3] |==|  0.76899
USER: genes 8 Torsion [C]-CA--CB-[CG] |==|  0.79398
USER: genes 9 Torsion [CA]-CB--CG-[OD2] |==|  0.79494
USER: genes 10 Torsion [C]-N--CA-[CB] |==|  0.20501
USER: genes 11 Torsion [N]-CA--C-[N] |==|  0.23201
USER: genes 12 Torsion [C]-N--CA-[C] |==|  0.69980
USER: genes 13 Torsion [N]-CA--C-[O] |==|  0.08725
USER: genes 14 Torsion [N]-CA--CB-[CG] |==|  0.77426
USER: genes 15 Torsion [CA]-CB--CG-[SD] |==|  0.18767
USER: genes 16 Torsion [CB]-CG--SD-[CE] |==|  0.53343
USER: genes 17 Torsion [N]-CA--CB-[CG] |==|  0.54561
USER: genes 18 Torsion [CA]-CB--CG-[OD1] |==|  0.53690
ROOT
ATOM      1  C   ASP D   0     -19.084 -17.455 -24.563  1.00 50.85 LIG 0.24  C 
ATOM      2 O    ASP D   0     -18.784 -17.561 -25.756  1.00 49.73 LIG-0.27  OA
ATOM      3  N   ASP D   1     -18.976 -18.465 -23.691  1.00 47.66 LIG-0.34  N 
ATOM      4 H    ASP D   1     -19.114 -18.381 -22.846  1.00 47.66 LIG 0.16  HD
ENDROOT
BRANCH 1 5
ATOM      5  CA  ASP D   0     -19.624 -16.125 -24.029  1.00 50.32 LIG 0.19  C 
BRANCH 5 6
ATOM      6  CB  ASP D   0     -21.154 -16.120 -24.127  1.00 50.50 LIG 0.15  C 
BRANCH 6 7
ATOM      7  CG  ASP D   0     -21.789 -14.986 -23.353  1.00 42.38 LIG 0.17  C 
ATOM      8 OD2  ASP D   0     -22.485 -15.264 -22.351  1.00 47.85 LIG-0.65  OA
ATOM      9 OD1  ASP D   0     -21.589 -13.818 -23.742  1.00 32.99 LIG-0.65  OA
ENDBRANCH 6 7
ENDBRANCH 5 6
BRANCH 5 10
ATOM     10  N   ASP D   0     -19.092 -14.967 -24.746  1.00 53.06 LIG-0.34  N 
ATOM     11 H    ASP D   0     -19.174 -15.018 -25.601  1.00 53.06 LIG 0.16  HD
ATOM     12  C   ASP D  -1     -18.534 -13.932 -24.122  1.00 52.15 LIG 0.25  C 
ATOM     13 O    ASP D  -1     -18.200 -13.951 -22.930  1.00 47.49 LIG-0.27  OA
BRANCH 12 14
ATOM     14  CA  ASP D  -1     -18.309 -12.687 -24.978  1.00 59.57 LIG 0.28  C 
BRANCH 14 15
ATOM     15  N   ASP D  -1     -17.155 -11.942 -24.481  1.00 50.06 LIG-0.07  N 
ATOM     16 H3   ASP D  -1     -17.406 -11.421 -23.804  1.00 50.06 LIG 0.28  HD
ATOM     17 H2   ASP D  -1     -16.822 -11.437 -25.136  1.00 50.06 LIG 0.28  HD
ATOM     18 H1   ASP D  -1     -16.531 -12.512 -24.201  1.00 50.06 LIG 0.28  HD
ENDBRANCH 14 15
BRANCH 14 19
ATOM     19  CB  ASP D  -1     -18.116 -13.062 -26.448  1.00 60.46 LIG 0.15  C 
BRANCH 19 20
ATOM     20  CG  ASP D  -1     -16.760 -13.676 -26.723  1.00 56.39 LIG 0.17  C 
ATOM     21 OD1  ASP D  -1     -16.700 -14.906 -26.947  1.00 65.47 LIG-0.65  OA
ATOM     22 OD2  ASP D  -1     -15.757 -12.927 -26.728  1.00 48.71 LIG-0.65  OA
ENDBRANCH 19 20
ENDBRANCH 14 19
ENDBRANCH 12 14
ENDBRANCH 5 10
ENDBRANCH 1 5
BRANCH 3 23
ATOM     23  CA  ASP D   1     -18.606 -19.829 -24.110  1.00 46.44 LIG 0.19  C 
BRANCH 23 24
ATOM     24  C   ASP D   1     -18.893 -20.845 -23.016  1.00 38.24 LIG 0.24  C 
ATOM     25 O    ASP D   1     -18.013 -21.178 -22.228  1.00 48.73 LIG-0.27  OA
ATOM     26  N   MET D   2     -20.136 -21.306 -22.942  1.00 47.06 LIG-0.35  N 
ATOM     27 H    MET D   2     -20.738 -21.175 -23.542  1.00 47.06 LIG 0.16  HD
BRANCH 26 28
ATOM     28  CA  MET D   2     -20.576 -22.094 -21.792  1.00 48.57 LIG 0.16  C 
BRANCH 28 29
ATOM     29  C   MET D   2     -20.771 -23.566 -22.134  1.00 49.60 LIG 0.22  C 
ATOM     30 O    MET D   2     -20.075 -24.104 -22.998  1.00 49.04 LIG-0.29  OA
ENDBRANCH 28 29
BRANCH 28 31
ATOM     31  CB  MET D   2     -21.877 -21.512 -21.224  1.00 43.71 LIG 0.04  C 
BRANCH 31 32
ATOM     32  CG  MET D   2     -21.691 -20.320 -20.310  1.00 45.96 LIG 0.08  C 
BRANCH 32 33
ATOM     33 SD   MET D   2     -21.081 -18.877 -21.209  1.00 73.43 LIG-0.17  SA
ATOM     34  CE  MET D   2     -20.626 -17.803 -19.846  1.00 57.46 LIG 0.09  C 
ENDBRANCH 32 33
ENDBRANCH 31 32
ENDBRANCH 28 31
ENDBRANCH 26 28
ENDBRANCH 23 24
BRANCH 23 35
ATOM     35  CB  ASP D   1     -17.113 -19.942 -24.467  1.00 44.28 LIG 0.15  C 
BRANCH 35 36
ATOM     36  CG  ASP D   1     -16.776 -21.187 -25.264  1.00 47.95 LIG 0.17  C 
ATOM     37 OD1  ASP D   1     -15.577 -21.523 -25.401  1.00 49.71 LIG-0.65  OA
ATOM     38 OD2  ASP D   1     -17.732 -21.827 -25.768  1.00 42.29 LIG-0.65  OA
ENDBRANCH 35 36
ENDBRANCH 23 35
ENDBRANCH 3 23
TORSDOF 17
ENDMDL
MODEL 19
USER: ADFR SOLUTION from run 49
USER: SCORE 13.574613 LL:  -2.523 LR: -11.146 RR:   0.000 FEB:  -6.074
USER: RMSD 4.236454
USER: SEED 48
USER: STATUS no improvement in best in 6 clusters for 5 generations
USER: GENES 19
USER: genes 0 Translation |==|  0.48879 0.48837 0.42883
USER: genes 1 Rotation |==|  0.30162 0.36799 0.19662 0.81809
USER: genes 2 Torsion [N]-C--CA-[N] |==|  0.87906
USER: genes 3 Torsion [C]-CA--CB-[CG] |==|  0.49970
USER: genes 4 Torsion [CA]-CB--CG-[OD2] |==|  0.42363
USER: genes 5 Torsion [C]-CA--N-[C] |==|  0.84568
USER: genes 6 Torsion [N]-C--CA-[N] |==|  0.91163
USER: genes 7 Torsion [C]-CA--N-[H3] |==|  0.65021
USER: genes 8 Torsion [C]-CA--CB-[CG] |==|  0.73583
USER: genes 9 Torsion [CA]-CB--CG-[OD2] |==|  0.84402
USER: genes 10 Torsion [C]-N--CA-[CB] |==|  0.84862
USER: genes 11 Torsion [N]-CA--C-[N] |==|  0.36934
USER: genes 12 Torsion [C]-N--CA-[C] |==|  0.67474
USER: genes 13 Torsion [N]-CA--C-[O] |==|  0.04088
USER: genes 14 Torsion [N]-CA--CB-[CG] |==|  0.77550
USER: genes 15 Torsion [CA]-CB--CG-[SD] |==|  0.64954
USER: genes 16 Torsion [CB]-CG--SD-[CE] |==|  0.00052
USER: genes 17 Torsion [N]-CA--CB-[CG] |==|  0.75755
USER: genes 18 Torsion [CA]-CB--CG-[OD1] |==|  0.51556
ROOT
ATOM      1  C   ASP D   0     -18.810 -18.379 -24.634  1.00 50.85 LIG 0.24  C 
ATOM      2 O    ASP D   0     -18.995 -18.726 -25.804  1.00 49.73 LIG-0.27  OA
ATOM      3  N   ASP D   1     -18.067 -19.083 -23.773  1.00 47.66 LIG-0.34  N 
ATOM      4 H    ASP D   1     -17.873 -18.813 -22.979  1.00 47.66 LIG 0.16  HD
ENDROOT
BRANCH 1 5
ATOM      5  CA  ASP D   0     -19.461 -17.095 -24.109  1.00 50.32 LIG 0.19  C 
BRANCH 5 6
ATOM      6  CB  ASP D   0     -18.413 -15.978 -24.056  1.00 50.50 LIG 0.15  C 
BRANCH 6 7
ATOM      7  CG  ASP D   0     -18.974 -14.668 -23.549  1.00 42.38 LIG 0.17  C 
ATOM      8 OD2  ASP D   0     -18.200 -13.870 -22.975  1.00 47.85 LIG-0.65  OA
ATOM      9 OD1  ASP D   0     -20.186 -14.434 -23.728  1.00 32.99 LIG-0.65  OA
ENDBRANCH 6 7
ENDBRANCH 5 6
BRANCH 5 10
ATOM     10  N   ASP D   0     -20.056 -17.260 -22.785  1.00 53.06 LIG-0.34  N 
ATOM     11 H    ASP D   0     -19.765 -16.701 -22.199  1.00 53.06 LIG 0.16  HD
ATOM     12  C   ASP D  -1     -20.966 -18.195 -22.519  1.00 52.15 LIG 0.25  C 
ATOM     13 O    ASP D  -1     -21.215 -19.142 -23.276  1.00 47.49 LIG-0.27  OA
BRANCH 12 14
ATOM     14  CA  ASP D  -1     -21.702 -18.042 -21.190  1.00 59.57 LIG 0.28  C 
BRANCH 14 15
ATOM     15  N   ASP D  -1     -20.821 -17.428 -20.199  1.00 50.06 LIG-0.07  N 
ATOM     16 H3   ASP D  -1     -20.787 -17.942 -19.473  1.00 50.06 LIG 0.28  HD
ATOM     17 H2   ASP D  -1     -21.136 -16.624 -19.980  1.00 50.06 LIG 0.28  HD
ATOM     18 H1   ASP D  -1     -20.004 -17.343 -20.541  1.00 50.06 LIG 0.28  HD
ENDBRANCH 14 15
BRANCH 14 19
ATOM     19  CB  ASP D  -1     -22.978 -17.216 -21.362  1.00 60.46 LIG 0.15  C 
BRANCH 19 20
ATOM     20  CG  ASP D  -1     -22.774 -15.751 -21.044  1.00 56.39 LIG 0.17  C 
ATOM     21 OD1  ASP D  -1     -23.075 -14.907 -21.918  1.00 65.47 LIG-0.65  OA
ATOM     22 OD2  ASP D  -1     -22.325 -15.443 -19.917  1.00 48.71 LIG-0.65  OA
ENDBRANCH 19 20
ENDBRANCH 14 19
ENDBRANCH 12 14
ENDBRANCH 5 10
ENDBRANCH 1 5
BRANCH 3 23
ATOM     23  CA  ASP D   1     -17.507 -20.404 -24.114  1.00 46.44 LIG 0.19  C 
BRANCH 23 24
ATOM     24  C   ASP D   1     -16.466 -20.299 -25.217  1.00 38.24 LIG 0.24  C 
ATOM     25 O    ASP D   1     -16.678 -19.610 -26.211  1.00 48.73 LIG-0.27  OA
ATOM     26  N   MET D   2     -15.325 -20.949 -25.023  1.00 47.06 LIG-0.35  N 
ATOM     27 H    MET D   2     -15.194 -21.522 -24.395  1.00 47.06 LIG 0.16  HD
BRANCH 26 28
ATOM     28  CA  MET D   2     -14.175 -20.724 -25.898  1.00 48.57 LIG 0.16  C 
BRANCH 28 29
ATOM     29  C   MET D   2     -13.771 -21.978 -26.664  1.00 49.60 LIG 0.22  C 
ATOM     30 O    MET D   2     -14.533 -22.944 -26.728  1.00 49.04 LIG-0.29  OA
ENDBRANCH 28 29
BRANCH 28 31
ATOM     31  CB  MET D   2     -12.987 -20.204 -25.078  1.00 43.71 LIG 0.04  C 
BRANCH 31 32
ATOM     32  CG  MET D   2     -13.030 -18.723 -24.770  1.00 45.96 LIG 0.08  C 
BRANCH 32 33
ATOM     33 SD   MET D   2     -11.515 -17.887 -25.289  1.00 73.43 LIG-0.17  SA
ATOM     34  CE  MET D   2     -10.595 -19.264 -25.978  1.00 57.46 LIG 0.09  C 
ENDBRANCH 32 33
ENDBRANCH 31 32
ENDBRANCH 28 31
ENDBRANCH 26 28
ENDBRANCH 23 24
BRANCH 23 35
ATOM     35  CB  ASP D   1     -18.591 -21.387 -24.591  1.00 44.28 LIG 0.15  C 
BRANCH 35 36
ATOM     36  CG  ASP D   1     -19.256 -22.148 -23.459  1.00 47.95 LIG 0.17  C 
ATOM     37 OD1  ASP D   1     -20.079 -23.053 -23.728  1.00 49.71 LIG-0.65  OA
ATOM     38 OD2  ASP D   1     -18.951 -21.819 -22.287  1.00 42.29 LIG-0.65  OA
ENDBRANCH 35 36
ENDBRANCH 23 35
ENDBRANCH 3 23
TORSDOF 17
ENDMDL
MODEL 20
USER: ADFR SOLUTION from run 101
USER: SCORE 12.616726 LL:  -2.708 LR: -11.027 RR:   0.000 FEB:  -5.956
USER: RMSD 4.845672
USER: SEED 100
USER: STATUS no improvement in best in 4 clusters for 5 generations
USER: GENES 19
USER: genes 0 Translation |==|  0.39136 0.38015 0.62655
USER: genes 1 Rotation |==|  0.38396 0.10687 0.78583 0.51685
USER: genes 2 Torsion [N]-C--CA-[N] |==|  0.86317
USER: genes 3 Torsion [C]-CA--CB-[CG] |==|  0.13879
USER: genes 4 Torsion [CA]-CB--CG-[OD2] |==|  0.56997
USER: genes 5 Torsion [C]-CA--N-[C] |==|  0.61680
USER: genes 6 Torsion [N]-C--CA-[N] |==|  0.52126
USER: genes 7 Torsion [C]-CA--N-[H3] |==|  0.28095
USER: genes 8 Torsion [C]-CA--CB-[CG] |==|  0.77009
USER: genes 9 Torsion [CA]-CB--CG-[OD2] |==|  0.33355
USER: genes 10 Torsion [C]-N--CA-[CB] |==|  0.82208
USER: genes 11 Torsion [N]-CA--C-[N] |==|  0.50409
USER: genes 12 Torsion [C]-N--CA-[C] |==|  0.52304
USER: genes 13 Torsion [N]-CA--C-[O] |==|  0.19156
USER: genes 14 Torsion [N]-CA--CB-[CG] |==|  0.59873
USER: genes 15 Torsion [CA]-CB--CG-[SD] |==|  0.13894
USER: genes 16 Torsion [CB]-CG--SD-[CE] |==|  0.21833
USER: genes 17 Torsion [N]-CA--CB-[CG] |==|  0.58088
USER: genes 18 Torsion [CA]-CB--CG-[OD1] |==|  0.45966
ROOT
ATOM      1  C   ASP D   0     -20.856 -20.245 -21.075  1.00 50.85 LIG 0.24  C 
ATOM      2 O    ASP D   0     -19.839 -19.708 -20.629  1.00 49.73 LIG-0.27  OA
ATOM      3  N   ASP D   1     -21.719 -19.617 -21.883  1.00 47.66 LIG-0.34  N 
ATOM      4 H    ASP D   1     -22.391 -20.003 -22.256  1.00 47.66 LIG 0.16  HD
ENDROOT
BRANCH 1 5
ATOM      5  CA  ASP D   0     -21.183 -21.692 -20.694  1.00 50.32 LIG 0.19  C 
BRANCH 5 6
ATOM      6  CB  ASP D   0     -20.951 -22.603 -21.905  1.00 50.50 LIG 0.15  C 
BRANCH 6 7
ATOM      7  CG  ASP D   0     -19.600 -22.390 -22.550  1.00 42.38 LIG 0.17  C 
ATOM      8 OD2  ASP D   0     -19.464 -22.681 -23.759  1.00 47.85 LIG-0.65  OA
ATOM      9 OD1  ASP D   0     -18.676 -21.928 -21.852  1.00 32.99 LIG-0.65  OA
ENDBRANCH 6 7
ENDBRANCH 5 6
BRANCH 5 10
ATOM     10  N   ASP D   0     -22.557 -21.860 -20.222  1.00 53.06 LIG-0.34  N 
ATOM     11 H    ASP D   0     -23.139 -21.424 -20.682  1.00 53.06 LIG 0.16  HD
ATOM     12  C   ASP D  -1     -22.868 -22.621 -19.175  1.00 52.15 LIG 0.25  C 
ATOM     13 O    ASP D  -1     -22.031 -23.056 -18.374  1.00 47.49 LIG-0.27  OA
BRANCH 12 14
ATOM     14  CA  ASP D  -1     -24.353 -22.931 -19.001  1.00 59.57 LIG 0.28  C 
BRANCH 14 15
ATOM     15  N   ASP D  -1     -24.575 -23.613 -17.728  1.00 50.06 LIG-0.07  N 
ATOM     16 H3   ASP D  -1     -24.887 -23.032 -17.130  1.00 50.06 LIG 0.28  HD
ATOM     17 H2   ASP D  -1     -23.806 -23.955 -17.436  1.00 50.06 LIG 0.28  HD
ATOM     18 H1   ASP D  -1     -25.167 -24.267 -17.842  1.00 50.06 LIG 0.28  HD
ENDBRANCH 14 15
BRANCH 14 19
ATOM     19  CB  ASP D  -1     -25.191 -21.653 -19.081  1.00 60.46 LIG 0.15  C 
BRANCH 19 20
ATOM     20  CG  ASP D  -1     -25.240 -20.902 -17.768  1.00 56.39 LIG 0.17  C 
ATOM     21 OD1  ASP D  -1     -25.702 -21.491 -16.765  1.00 65.47 LIG-0.65  OA
ATOM     22 OD2  ASP D  -1     -24.804 -19.729 -17.736  1.00 48.71 LIG-0.65  OA
ENDBRANCH 19 20
ENDBRANCH 14 19
ENDBRANCH 12 14
ENDBRANCH 5 10
ENDBRANCH 1 5
BRANCH 3 23
ATOM     23  CA  ASP D   1     -21.591 -18.184 -22.206  1.00 46.44 LIG 0.19  C 
BRANCH 23 24
ATOM     24  C   ASP D   1     -20.233 -17.869 -22.813  1.00 38.24 LIG 0.24  C 
ATOM     25 O    ASP D   1     -19.427 -18.767 -23.036  1.00 48.73 LIG-0.27  OA
ATOM     26  N   MET D   2     -19.996 -16.598 -23.116  1.00 47.06 LIG-0.35  N 
ATOM     27 H    MET D   2     -20.493 -15.941 -22.872  1.00 47.06 LIG 0.16  HD
BRANCH 26 28
ATOM     28  CA  MET D   2     -18.831 -16.223 -23.916  1.00 48.57 LIG 0.16  C 
BRANCH 28 29
ATOM     29  C   MET D   2     -18.630 -14.714 -23.981  1.00 49.60 LIG 0.22  C 
ATOM     30 O    MET D   2     -18.286 -14.086 -22.979  1.00 49.04 LIG-0.29  OA
ENDBRANCH 28 29
BRANCH 28 31
ATOM     31  CB  MET D   2     -18.961 -16.797 -25.333  1.00 43.71 LIG 0.04  C 
BRANCH 31 32
ATOM     32  CG  MET D   2     -17.657 -17.242 -25.959  1.00 45.96 LIG 0.08  C 
BRANCH 32 33
ATOM     33 SD   MET D   2     -16.717 -18.317 -24.853  1.00 73.43 LIG-0.17  SA
ATOM     34  CE  MET D   2     -17.587 -19.869 -25.079  1.00 57.46 LIG 0.09  C 
ENDBRANCH 32 33
ENDBRANCH 31 32
ENDBRANCH 28 31
ENDBRANCH 26 28
ENDBRANCH 23 24
BRANCH 23 35
ATOM     35  CB  ASP D   1     -21.763 -17.291 -20.965  1.00 44.28 LIG 0.15  C 
BRANCH 35 36
ATOM     36  CG  ASP D   1     -22.328 -15.919 -21.282  1.00 47.95 LIG 0.17  C 
ATOM     37 OD1  ASP D   1     -22.768 -15.206 -20.351  1.00 49.71 LIG-0.65  OA
ATOM     38 OD2  ASP D   1     -22.336 -15.562 -22.486  1.00 42.29 LIG-0.65  OA
ENDBRANCH 35 36
ENDBRANCH 23 35
ENDBRANCH 3 23
TORSDOF 17
ENDMDL
MODEL 21
USER: ADFR SOLUTION from run 130
USER: SCORE 12.879749 LL:  -2.664 LR: -11.023 RR:   0.000 FEB:  -5.952
USER: RMSD 6.951368
USER: SEED 129
USER: STATUS no improvement in best in 11 clusters for 5 generations
USER: GENES 19
USER: genes 0 Translation |==|  0.49135 0.39368 0.52469
USER: genes 1 Rotation |==|  0.65594 0.89750 0.75554 0.54876
USER: genes 2 Torsion [N]-C--CA-[N] |==|  0.07004
USER: genes 3 Torsion [C]-CA--CB-[CG] |==|  0.27461
USER: genes 4 Torsion [CA]-CB--CG-[OD2] |==|  0.45744
USER: genes 5 Torsion [C]-CA--N-[C] |==|  0.68400
USER: genes 6 Torsion [N]-C--CA-[N] |==|  0.52745
USER: genes 7 Torsion [C]-CA--N-[H3] |==|  0.55644
USER: genes 8 Torsion [C]-CA--CB-[CG] |==|  0.67809
USER: genes 9 Torsion [CA]-CB--CG-[OD2] |==|  0.61961
USER: genes 10 Torsion [C]-N--CA-[CB] |==|  0.53534
USER: genes 11 Torsion [N]-CA--C-[N] |==|  0.27080
USER: genes 12 Torsion [C]-N--CA-[C] |==|  0.16249
USER: genes 13 Torsion [N]-CA--C-[O] |==|  0.17760
USER: genes 14 Torsion [N]-CA--CB-[CG] |==|  0.82288
USER: genes 15 Torsion [CA]-CB--CG-[SD] |==|  0.41783
USER: genes 16 Torsion [CB]-CG--SD-[CE] |==|  0.85631
USER: genes 17 Torsion [N]-CA--CB-[CG] |==|  0.05342
USER: genes 18 Torsion [CA]-CB--CG-[OD1] |==|  0.10397
ROOT
ATOM      1  C   ASP D   0     -18.757 -20.012 -22.909  1.00 50.85 LIG 0.24  C 
ATOM      2 O    ASP D   0     -18.570 -21.180 -22.555  1.00 49.73 LIG-0.27  OA
ATOM      3  N   ASP D   1     -19.456 -19.132 -22.182  1.00 47.66 LIG-0.34  N 
ATOM      4 H    ASP D   1     -19.529 -18.299 -22.384  1.00 47.66 LIG 0.16  HD
ENDROOT
BRANCH 1 5
ATOM      5  CA  ASP D   0     -18.187 -19.521 -24.243  1.00 50.32 LIG 0.19  C 
BRANCH 5 6
ATOM      6  CB  ASP D   0     -16.856 -20.230 -24.521  1.00 50.50 LIG 0.15  C 
BRANCH 6 7
ATOM      7  CG  ASP D   0     -17.000 -21.400 -25.469  1.00 42.38 LIG 0.17  C 
ATOM      8 OD2  ASP D   0     -15.968 -21.870 -25.996  1.00 47.85 LIG-0.65  OA
ATOM      9 OD1  ASP D   0     -18.142 -21.852 -25.683  1.00 32.99 LIG-0.65  OA
ENDBRANCH 6 7
ENDBRANCH 5 6
BRANCH 5 10
ATOM     10  N   ASP D   0     -17.977 -18.075 -24.274  1.00 53.06 LIG-0.34  N 
ATOM     11 H    ASP D   0     -17.367 -17.799 -23.733  1.00 53.06 LIG 0.16  HD
ATOM     12  C   ASP D  -1     -18.673 -17.266 -25.071  1.00 52.15 LIG 0.25  C 
ATOM     13 O    ASP D  -1     -19.698 -17.613 -25.670  1.00 47.49 LIG-0.27  OA
BRANCH 12 14
ATOM     14  CA  ASP D  -1     -18.131 -15.844 -25.205  1.00 59.57 LIG 0.28  C 
BRANCH 14 15
ATOM     15  N   ASP D  -1     -19.100 -15.005 -25.907  1.00 50.06 LIG-0.07  N 
ATOM     16 H3   ASP D  -1     -18.687 -14.290 -26.239  1.00 50.06 LIG 0.28  HD
ATOM     17 H2   ASP D  -1     -19.734 -14.744 -25.338  1.00 50.06 LIG 0.28  HD
ATOM     18 H1   ASP D  -1     -19.469 -15.470 -26.570  1.00 50.06 LIG 0.28  HD
ENDBRANCH 14 15
BRANCH 14 19
ATOM     19  CB  ASP D  -1     -17.801 -15.254 -23.833  1.00 60.46 LIG 0.15  C 
BRANCH 19 20
ATOM     20  CG  ASP D  -1     -18.661 -14.057 -23.488  1.00 56.39 LIG 0.17  C 
ATOM     21 OD1  ASP D  -1     -19.888 -14.120 -23.728  1.00 65.47 LIG-0.65  OA
ATOM     22 OD2  ASP D  -1     -18.114 -13.061 -22.965  1.00 48.71 LIG-0.65  OA
ENDBRANCH 19 20
ENDBRANCH 14 19
ENDBRANCH 12 14
ENDBRANCH 5 10
ENDBRANCH 1 5
BRANCH 3 23
ATOM     23  CA  ASP D   1     -20.172 -19.520 -20.952  1.00 46.44 LIG 0.19  C 
BRANCH 23 24
ATOM     24  C   ASP D   1     -20.979 -20.792 -21.157  1.00 38.24 LIG 0.24  C 
ATOM     25 O    ASP D   1     -22.077 -20.752 -21.704  1.00 48.73 LIG-0.27  OA
ATOM     26  N   MET D   2     -20.417 -21.925 -20.753  1.00 47.06 LIG-0.35  N 
ATOM     27 H    MET D   2     -19.706 -21.970 -20.272  1.00 47.06 LIG 0.16  HD
BRANCH 26 28
ATOM     28  CA  MET D   2     -20.995 -23.219 -21.116  1.00 48.57 LIG 0.16  C 
BRANCH 28 29
ATOM     29  C   MET D   2     -21.090 -23.413 -22.624  1.00 49.60 LIG 0.22  C 
ATOM     30 O    MET D   2     -20.069 -23.458 -23.314  1.00 49.04 LIG-0.29  OA
ENDBRANCH 28 29
BRANCH 28 31
ATOM     31  CB  MET D   2     -22.382 -23.370 -20.479  1.00 43.71 LIG 0.04  C 
BRANCH 31 32
ATOM     32  CG  MET D   2     -22.386 -23.392 -18.966  1.00 45.96 LIG 0.08  C 
BRANCH 32 33
ATOM     33 SD   MET D   2     -23.923 -22.726 -18.291  1.00 73.43 LIG-0.17  SA
ATOM     34  CE  MET D   2     -24.018 -21.160 -19.160  1.00 57.46 LIG 0.09  C 
ENDBRANCH 32 33
ENDBRANCH 31 32
ENDBRANCH 28 31
ENDBRANCH 26 28
ENDBRANCH 23 24
BRANCH 23 35
ATOM     35  CB  ASP D   1     -21.143 -18.426 -20.476  1.00 44.28 LIG 0.15  C 
BRANCH 35 36
ATOM     36  CG  ASP D   1     -21.506 -17.428 -21.560  1.00 47.95 LIG 0.17  C 
ATOM     37 OD1  ASP D   1     -21.662 -17.829 -22.736  1.00 49.71 LIG-0.65  OA
ATOM     38 OD2  ASP D   1     -21.624 -16.225 -21.221  1.00 42.29 LIG-0.65  OA
ENDBRANCH 35 36
ENDBRANCH 23 35
ENDBRANCH 3 23
TORSDOF 17
ENDMDL
MODEL 22
USER: ADFR SOLUTION from run 111
USER: SCORE 11.744194 LL:  -2.636 LR: -10.999 RR:   0.000 FEB:  -5.927
USER: RMSD 7.285105
USER: SEED 110
USER: STATUS no improvement in best in 16 clusters for 5 generations
USER: GENES 19
USER: genes 0 Translation |==|  0.38975 0.45442 0.61355
USER: genes 1 Rotation |==|  0.52055 0.01368 0.38856 0.52552
USER: genes 2 Torsion [N]-C--CA-[N] |==|  0.31704
USER: genes 3 Torsion [C]-CA--CB-[CG] |==|  0.79944
USER: genes 4 Torsion [CA]-CB--CG-[OD2] |==|  0.84618
USER: genes 5 Torsion [C]-CA--N-[C] |==|  0.70087
USER: genes 6 Torsion [N]-C--CA-[N] |==|  0.44800
USER: genes 7 Torsion [C]-CA--N-[H3] |==|  0.24452
USER: genes 8 Torsion [C]-CA--CB-[CG] |==|  0.76513
USER: genes 9 Torsion [CA]-CB--CG-[OD2] |==|  0.08022
USER: genes 10 Torsion [C]-N--CA-[CB] |==|  0.38477
USER: genes 11 Torsion [N]-CA--C-[N] |==|  0.09928
USER: genes 12 Torsion [C]-N--CA-[C] |==|  0.75206
USER: genes 13 Torsion [N]-CA--C-[O] |==|  0.89785
USER: genes 14 Torsion [N]-CA--CB-[CG] |==|  0.24139
USER: genes 15 Torsion [CA]-CB--CG-[SD] |==|  0.79132
USER: genes 16 Torsion [CB]-CG--SD-[CE] |==|  0.54355
USER: genes 17 Torsion [N]-CA--CB-[CG] |==|  0.85343
USER: genes 18 Torsion [CA]-CB--CG-[OD1] |==|  0.23117
ROOT
ATOM      1  C   ASP D   0     -20.890 -18.964 -21.309  1.00 50.85 LIG 0.24  C 
ATOM      2 O    ASP D   0     -20.004 -19.246 -20.497  1.00 49.73 LIG-0.27  OA
ATOM      3  N   ASP D   1     -22.107 -18.543 -20.944  1.00 47.66 LIG-0.34  N 
ATOM      4 H    ASP D   1     -22.706 -18.276 -21.501  1.00 47.66 LIG 0.16  HD
ENDROOT
BRANCH 1 5
ATOM      5  CA  ASP D   0     -20.621 -19.107 -22.810  1.00 50.32 LIG 0.19  C 
BRANCH 5 6
ATOM      6  CB  ASP D   0     -20.158 -20.538 -23.110  1.00 50.50 LIG 0.15  C 
BRANCH 6 7
ATOM      7  CG  ASP D   0     -18.754 -20.816 -22.621  1.00 42.38 LIG 0.17  C 
ATOM      8 OD2  ASP D   0     -17.829 -20.066 -23.006  1.00 47.85 LIG-0.65  OA
ATOM      9 OD1  ASP D   0     -18.575 -21.778 -21.849  1.00 32.99 LIG-0.65  OA
ENDBRANCH 6 7
ENDBRANCH 5 6
BRANCH 5 10
ATOM     10  N   ASP D   0     -19.618 -18.164 -23.300  1.00 53.06 LIG-0.34  N 
ATOM     11 H    ASP D   0     -18.814 -18.348 -23.052  1.00 53.06 LIG 0.16  HD
ATOM     12  C   ASP D  -1     -19.929 -17.116 -24.061  1.00 52.15 LIG 0.25  C 
ATOM     13 O    ASP D  -1     -21.087 -16.711 -24.225  1.00 47.49 LIG-0.27  OA
BRANCH 12 14
ATOM     14  CA  ASP D  -1     -18.752 -16.413 -24.732  1.00 59.57 LIG 0.28  C 
BRANCH 14 15
ATOM     15  N   ASP D  -1     -19.226 -15.602 -25.850  1.00 50.06 LIG-0.07  N 
ATOM     16 H3   ASP D  -1     -19.446 -14.791 -25.557  1.00 50.06 LIG 0.28  HD
ATOM     17 H2   ASP D  -1     -19.940 -15.989 -26.217  1.00 50.06 LIG 0.28  HD
ATOM     18 H1   ASP D  -1     -18.582 -15.531 -26.460  1.00 50.06 LIG 0.28  HD
ENDBRANCH 14 15
BRANCH 14 19
ATOM     19  CB  ASP D  -1     -17.985 -15.551 -23.728  1.00 60.46 LIG 0.15  C 
BRANCH 19 20
ATOM     20  CG  ASP D  -1     -18.594 -14.176 -23.551  1.00 56.39 LIG 0.17  C 
ATOM     21 OD1  ASP D  -1     -17.837 -13.227 -23.249  1.00 65.47 LIG-0.65  OA
ATOM     22 OD2  ASP D  -1     -19.826 -14.044 -23.728  1.00 48.71 LIG-0.65  OA
ENDBRANCH 19 20
ENDBRANCH 14 19
ENDBRANCH 12 14
ENDBRANCH 5 10
ENDBRANCH 1 5
BRANCH 3 23
ATOM     23  CA  ASP D   1     -22.534 -18.501 -19.533  1.00 46.44 LIG 0.19  C 
BRANCH 23 24
ATOM     24  C   ASP D   1     -23.413 -19.690 -19.182  1.00 38.24 LIG 0.24  C 
ATOM     25 O    ASP D   1     -24.368 -19.557 -18.423  1.00 48.73 LIG-0.27  OA
ATOM     26  N   MET D   2     -23.115 -20.845 -19.765  1.00 47.06 LIG-0.35  N 
ATOM     27 H    MET D   2     -22.394 -20.992 -20.210  1.00 47.06 LIG 0.16  HD
BRANCH 26 28
ATOM     28  CA  MET D   2     -24.029 -21.984 -19.686  1.00 48.57 LIG 0.16  C 
BRANCH 28 29
ATOM     29  C   MET D   2     -23.767 -22.858 -18.466  1.00 49.60 LIG 0.22  C 
ATOM     30 O    MET D   2     -22.616 -23.053 -18.073  1.00 49.04 LIG-0.29  OA
ENDBRANCH 28 29
BRANCH 28 31
ATOM     31  CB  MET D   2     -23.931 -22.824 -20.966  1.00 43.71 LIG 0.04  C 
BRANCH 31 32
ATOM     32  CG  MET D   2     -22.848 -23.881 -20.947  1.00 45.96 LIG 0.08  C 
BRANCH 32 33
ATOM     33 SD   MET D   2     -21.206 -23.160 -21.161  1.00 73.43 LIG-0.17  SA
ATOM     34  CE  MET D   2     -20.251 -24.622 -21.570  1.00 57.46 LIG 0.09  C 
ENDBRANCH 32 33
ENDBRANCH 31 32
ENDBRANCH 28 31
ENDBRANCH 26 28
ENDBRANCH 23 24
BRANCH 23 35
ATOM     35  CB  ASP D   1     -23.328 -17.224 -19.205  1.00 44.28 LIG 0.15  C 
BRANCH 35 36
ATOM     36  CG  ASP D   1     -22.611 -15.948 -19.604  1.00 47.95 LIG 0.17  C 
ATOM     37 OD1  ASP D   1     -22.691 -15.542 -20.786  1.00 49.71 LIG-0.65  OA
ATOM     38 OD2  ASP D   1     -21.950 -15.356 -18.716  1.00 42.29 LIG-0.65  OA
ENDBRANCH 35 36
ENDBRANCH 23 35
ENDBRANCH 3 23
TORSDOF 17
ENDMDL
MODEL 23
USER: ADFR SOLUTION from run 107
USER: SCORE 12.508694 LL:  -2.736 LR: -10.995 RR:   0.000 FEB:  -5.924
USER: RMSD 8.325943
USER: SEED 106
USER: STATUS searching
USER: GENES 19
USER: genes 0 Translation |==|  0.41163 0.43459 0.51221
USER: genes 1 Rotation |==|  0.86124 0.63494 0.78283 0.64597
USER: genes 2 Torsion [N]-C--CA-[N] |==|  0.87087
USER: genes 3 Torsion [C]-CA--CB-[CG] |==|  0.06353
USER: genes 4 Torsion [CA]-CB--CG-[OD2] |==|  0.23191
USER: genes 5 Torsion [C]-CA--N-[C] |==|  0.73368
USER: genes 6 Torsion [N]-C--CA-[N] |==|  0.51350
USER: genes 7 Torsion [C]-CA--N-[H3] |==|  0.19186
USER: genes 8 Torsion [C]-CA--CB-[CG] |==|  0.72022
USER: genes 9 Torsion [CA]-CB--CG-[OD2] |==|  0.11368
USER: genes 10 Torsion [C]-N--CA-[CB] |==|  0.19246
USER: genes 11 Torsion [N]-CA--C-[N] |==|  0.45326
USER: genes 12 Torsion [C]-N--CA-[C] |==|  0.77403
USER: genes 13 Torsion [N]-CA--C-[O] |==|  0.73471
USER: genes 14 Torsion [N]-CA--CB-[CG] |==|  0.14428
USER: genes 15 Torsion [CA]-CB--CG-[SD] |==|  0.31725
USER: genes 16 Torsion [CB]-CG--SD-[CE] |==|  0.14940
USER: genes 17 Torsion [N]-CA--CB-[CG] |==|  0.54736
USER: genes 18 Torsion [CA]-CB--CG-[OD1] |==|  0.04010
ROOT
ATOM      1  C   ASP D   0     -20.431 -19.306 -23.133  1.00 50.85 LIG 0.24  C 
ATOM      2 O    ASP D   0     -21.524 -19.796 -23.432  1.00 49.73 LIG-0.27  OA
ATOM      3  N   ASP D   1     -20.142 -18.862 -21.904  1.00 47.66 LIG-0.34  N 
ATOM      4 H    ASP D   1     -19.361 -18.587 -21.668  1.00 47.66 LIG 0.16  HD
ENDROOT
BRANCH 1 5
ATOM      5  CA  ASP D   0     -19.339 -19.174 -24.200  1.00 50.32 LIG 0.19  C 
BRANCH 5 6
ATOM      6  CB  ASP D   0     -18.265 -20.242 -23.964  1.00 50.50 LIG 0.15  C 
BRANCH 6 7
ATOM      7  CG  ASP D   0     -18.778 -21.427 -23.177  1.00 42.38 LIG 0.17  C 
ATOM      8 OD2  ASP D   0     -19.380 -22.336 -23.792  1.00 47.85 LIG-0.65  OA
ATOM      9 OD1  ASP D   0     -18.575 -21.454 -21.947  1.00 32.99 LIG-0.65  OA
ENDBRANCH 6 7
ENDBRANCH 5 6
BRANCH 5 10
ATOM     10  N   ASP D   0     -18.711 -17.854 -24.209  1.00 53.06 LIG-0.34  N 
ATOM     11 H    ASP D   0     -18.076 -17.765 -23.636  1.00 53.06 LIG 0.16  HD
ATOM     12  C   ASP D  -1     -19.096 -16.882 -25.035  1.00 52.15 LIG 0.25  C 
ATOM     13 O    ASP D  -1     -20.147 -16.916 -25.688  1.00 47.49 LIG-0.27  OA
BRANCH 12 14
ATOM     14  CA  ASP D  -1     -18.154 -15.684 -25.130  1.00 59.57 LIG 0.28  C 
BRANCH 14 15
ATOM     15  N   ASP D  -1     -18.747 -14.649 -25.974  1.00 50.06 LIG-0.07  N 
ATOM     16 H3   ASP D  -1     -19.449 -14.294 -25.558  1.00 50.06 LIG 0.28  HD
ATOM     17 H2   ASP D  -1     -19.009 -15.009 -26.745  1.00 50.06 LIG 0.28  HD
ATOM     18 H1   ASP D  -1     -18.143 -14.014 -26.132  1.00 50.06 LIG 0.28  HD
ENDBRANCH 14 15
BRANCH 14 19
ATOM     19  CB  ASP D  -1     -17.833 -15.129 -23.742  1.00 60.46 LIG 0.15  C 
BRANCH 19 20
ATOM     20  CG  ASP D  -1     -18.638 -13.893 -23.405  1.00 56.39 LIG 0.17  C 
ATOM     21 OD1  ASP D  -1     -18.058 -12.945 -22.829  1.00 65.47 LIG-0.65  OA
ATOM     22 OD2  ASP D  -1     -19.847 -13.863 -23.728  1.00 48.71 LIG-0.65  OA
ENDBRANCH 19 20
ENDBRANCH 14 19
ENDBRANCH 12 14
ENDBRANCH 5 10
ENDBRANCH 1 5
BRANCH 3 23
ATOM     23  CA  ASP D   1     -21.152 -18.804 -20.831  1.00 46.44 LIG 0.19  C 
BRANCH 23 24
ATOM     24  C   ASP D   1     -20.636 -18.042 -19.621  1.00 38.24 LIG 0.24  C 
ATOM     25 O    ASP D   1     -19.438 -17.803 -19.500  1.00 48.73 LIG-0.27  OA
ATOM     26  N   MET D   2     -21.544 -17.627 -18.747  1.00 47.06 LIG-0.35  N 
ATOM     27 H    MET D   2     -22.368 -17.874 -18.749  1.00 47.06 LIG 0.16  HD
BRANCH 26 28
ATOM     28  CA  MET D   2     -21.187 -16.689 -17.683  1.00 48.57 LIG 0.16  C 
BRANCH 28 29
ATOM     29  C   MET D   2     -20.529 -17.378 -16.494  1.00 49.60 LIG 0.22  C 
ATOM     30 O    MET D   2     -21.199 -17.713 -15.516  1.00 49.04 LIG-0.29  OA
ENDBRANCH 28 29
BRANCH 28 31
ATOM     31  CB  MET D   2     -22.433 -15.922 -17.221  1.00 43.71 LIG 0.04  C 
BRANCH 31 32
ATOM     32  CG  MET D   2     -23.613 -16.795 -16.853  1.00 45.96 LIG 0.08  C 
BRANCH 32 33
ATOM     33 SD   MET D   2     -24.005 -16.682 -15.093  1.00 73.43 LIG-0.17  SA
ATOM     34  CE  MET D   2     -24.177 -14.907 -14.903  1.00 57.46 LIG 0.09  C 
ENDBRANCH 32 33
ENDBRANCH 31 32
ENDBRANCH 28 31
ENDBRANCH 26 28
ENDBRANCH 23 24
BRANCH 23 35
ATOM     35  CB  ASP D   1     -21.572 -20.205 -20.354  1.00 44.28 LIG 0.15  C 
BRANCH 35 36
ATOM     36  CG  ASP D   1     -22.870 -20.211 -19.569  1.00 47.95 LIG 0.17  C 
ATOM     37 OD1  ASP D   1     -23.613 -19.203 -19.603  1.00 49.71 LIG-0.65  OA
ATOM     38 OD2  ASP D   1     -23.137 -21.241 -18.902  1.00 42.29 LIG-0.65  OA
ENDBRANCH 35 36
ENDBRANCH 23 35
ENDBRANCH 3 23
TORSDOF 17
ENDMDL
MODEL 24
USER: ADFR SOLUTION from run 150
USER: SCORE 13.229396 LL:  -2.496 LR: -10.971 RR:   0.000 FEB:  -5.900
USER: RMSD 6.381807
USER: SEED 149
USER: STATUS searching
USER: GENES 19
USER: genes 0 Translation |==|  0.54669 0.55319 0.41007
USER: genes 1 Rotation |==|  0.41111 0.38232 0.13532 0.80865
USER: genes 2 Torsion [N]-C--CA-[N] |==|  0.42498
USER: genes 3 Torsion [C]-CA--CB-[CG] |==|  0.47781
USER: genes 4 Torsion [CA]-CB--CG-[OD2] |==|  0.69689
USER: genes 5 Torsion [C]-CA--N-[C] |==|  0.58601
USER: genes 6 Torsion [N]-C--CA-[N] |==|  0.61602
USER: genes 7 Torsion [C]-CA--N-[H3] |==|  0.24163
USER: genes 8 Torsion [C]-CA--CB-[CG] |==|  0.79539
USER: genes 9 Torsion [CA]-CB--CG-[OD2] |==|  0.31388
USER: genes 10 Torsion [C]-N--CA-[CB] |==|  0.86065
USER: genes 11 Torsion [N]-CA--C-[N] |==|  0.37428
USER: genes 12 Torsion [C]-N--CA-[C] |==|  0.50997
USER: genes 13 Torsion [N]-CA--C-[O] |==|  0.91118
USER: genes 14 Torsion [N]-CA--CB-[CG] |==|  0.60601
USER: genes 15 Torsion [CA]-CB--CG-[SD] |==|  0.87304
USER: genes 16 Torsion [CB]-CG--SD-[CE] |==|  0.28171
USER: genes 17 Torsion [N]-CA--CB-[CG] |==|  0.62977
USER: genes 18 Torsion [CA]-CB--CG-[OD1] |==|  0.72400
ROOT
ATOM      1  C   ASP D   0     -17.595 -17.261 -24.972  1.00 50.85 LIG 0.24  C 
ATOM      2 O    ASP D   0     -17.377 -17.163 -26.183  1.00 49.73 LIG-0.27  OA
ATOM      3  N   ASP D   1     -17.206 -18.314 -24.243  1.00 47.66 LIG-0.34  N 
ATOM      4 H    ASP D   1     -17.288 -18.358 -23.388  1.00 47.66 LIG 0.16  HD
ENDROOT
BRANCH 1 5
ATOM      5  CA  ASP D   0     -18.357 -16.149 -24.243  1.00 50.32 LIG 0.19  C 
BRANCH 5 6
ATOM      6  CB  ASP D   0     -19.847 -16.504 -24.190  1.00 50.50 LIG 0.15  C 
BRANCH 6 7
ATOM      7  CG  ASP D   0     -20.646 -15.558 -23.322  1.00 42.38 LIG 0.17  C 
ATOM      8 OD2  ASP D   0     -21.086 -15.979 -22.229  1.00 47.85 LIG-0.65  OA
ATOM      9 OD1  ASP D   0     -20.830 -14.394 -23.728  1.00 32.99 LIG-0.65  OA
ENDBRANCH 6 7
ENDBRANCH 5 6
BRANCH 5 10
ATOM     10  N   ASP D   0     -18.196 -14.841 -24.876  1.00 53.06 LIG-0.34  N 
ATOM     11 H    ASP D   0     -18.087 -14.877 -25.729  1.00 53.06 LIG 0.16  HD
ATOM     12  C   ASP D  -1     -18.218 -13.703 -24.185  1.00 52.15 LIG 0.25  C 
ATOM     13 O    ASP D  -1     -18.137 -13.651 -22.951  1.00 47.49 LIG-0.27  OA
BRANCH 12 14
ATOM     14  CA  ASP D  -1     -18.342 -12.428 -25.016  1.00 59.57 LIG 0.28  C 
BRANCH 14 15
ATOM     15  N   ASP D  -1     -17.450 -11.399 -24.487  1.00 50.06 LIG-0.07  N 
ATOM     16 H3   ASP D  -1     -16.644 -11.488 -24.853  1.00 50.06 LIG 0.28  HD
ATOM     17 H2   ASP D  -1     -17.386 -11.487 -23.603  1.00 50.06 LIG 0.28  HD
ATOM     18 H1   ASP D  -1     -17.777 -10.594 -24.681  1.00 50.06 LIG 0.28  HD
ENDBRANCH 14 15
BRANCH 14 19
ATOM     19  CB  ASP D  -1     -18.034 -12.703 -26.488  1.00 60.46 LIG 0.15  C 
BRANCH 19 20
ATOM     20  CG  ASP D  -1     -16.558 -12.917 -26.747  1.00 56.39 LIG 0.17  C 
ATOM     21 OD1  ASP D  -1     -15.780 -11.951 -26.578  1.00 65.47 LIG-0.65  OA
ATOM     22 OD2  ASP D  -1     -16.175 -14.053 -27.106  1.00 48.71 LIG-0.65  OA
ENDBRANCH 19 20
ENDBRANCH 14 19
ENDBRANCH 12 14
ENDBRANCH 5 10
ENDBRANCH 1 5
BRANCH 3 23
ATOM     23  CA  ASP D   1     -16.592 -19.508 -24.853  1.00 46.44 LIG 0.19  C 
BRANCH 23 24
ATOM     24  C   ASP D   1     -15.191 -19.215 -25.365  1.00 38.24 LIG 0.24  C 
ATOM     25 O    ASP D   1     -14.956 -18.178 -25.979  1.00 48.73 LIG-0.27  OA
ATOM     26  N   MET D   2     -14.252 -20.108 -25.077  1.00 47.06 LIG-0.35  N 
ATOM     27 H    MET D   2     -14.409 -20.887 -24.749  1.00 47.06 LIG 0.16  HD
BRANCH 26 28
ATOM     28  CA  MET D   2     -12.839 -19.812 -25.310  1.00 48.57 LIG 0.16  C 
BRANCH 28 29
ATOM     29  C   MET D   2     -11.936 -20.999 -24.996  1.00 49.60 LIG 0.22  C 
ATOM     30 O    MET D   2     -12.237 -21.795 -24.104  1.00 49.04 LIG-0.29  OA
ENDBRANCH 28 29
BRANCH 28 31
ATOM     31  CB  MET D   2     -12.415 -18.595 -24.478  1.00 43.71 LIG 0.04  C 
BRANCH 31 32
ATOM     32  CG  MET D   2     -11.450 -17.659 -25.173  1.00 45.96 LIG 0.08  C 
BRANCH 32 33
ATOM     33 SD   MET D   2     -10.112 -18.559 -25.985  1.00 73.43 LIG-0.17  SA
ATOM     34  CE  MET D   2     -10.672 -18.523 -27.689  1.00 57.46 LIG 0.09  C 
ENDBRANCH 32 33
ENDBRANCH 31 32
ENDBRANCH 28 31
ENDBRANCH 26 28
ENDBRANCH 23 24
BRANCH 23 35
ATOM     35  CB  ASP D   1     -17.417 -20.043 -26.037  1.00 44.28 LIG 0.15  C 
BRANCH 35 36
ATOM     36  CG  ASP D   1     -17.628 -21.545 -25.996  1.00 47.95 LIG 0.17  C 
ATOM     37 OD1  ASP D   1     -16.901 -22.287 -26.696  1.00 49.71 LIG-0.65  OA
ATOM     38 OD2  ASP D   1     -18.545 -21.978 -25.257  1.00 42.29 LIG-0.65  OA
ENDBRANCH 35 36
ENDBRANCH 23 35
ENDBRANCH 3 23
TORSDOF 17
ENDMDL
MODEL 25
USER: ADFR SOLUTION from run 30
USER: SCORE 12.686187 LL:  -2.606 LR: -10.956 RR:   0.000 FEB:  -5.885
USER: RMSD 7.616884
USER: SEED 29
USER: STATUS no improvement in best in 15 clusters for 5 generations
USER: GENES 19
USER: genes 0 Translation |==|  0.39553 0.45216 0.59102
USER: genes 1 Rotation |==|  0.27028 0.71596 0.88532 0.54601
USER: genes 2 Torsion [N]-C--CA-[N] |==|  0.71290
USER: genes 3 Torsion [C]-CA--CB-[CG] |==|  0.48162
USER: genes 4 Torsion [CA]-CB--CG-[OD2] |==|  0.77924
USER: genes 5 Torsion [C]-CA--N-[C] |==|  0.18333
USER: genes 6 Torsion [N]-C--CA-[N] |==|  0.66921
USER: genes 7 Torsion [C]-CA--N-[H3] |==|  0.79087
USER: genes 8 Torsion [C]-CA--CB-[CG] |==|  0.69582
USER: genes 9 Torsion [CA]-CB--CG-[OD2] |==|  0.77262
USER: genes 10 Torsion [C]-N--CA-[CB] |==|  0.85240
USER: genes 11 Torsion [N]-CA--C-[N] |==|  0.39311
USER: genes 12 Torsion [C]-N--CA-[C] |==|  0.12607
USER: genes 13 Torsion [N]-CA--C-[O] |==|  0.60628
USER: genes 14 Torsion [N]-CA--CB-[CG] |==|  0.84172
USER: genes 15 Torsion [CA]-CB--CG-[SD] |==|  0.51495
USER: genes 16 Torsion [CB]-CG--SD-[CE] |==|  0.64673
USER: genes 17 Torsion [N]-CA--CB-[CG] |==|  0.32620
USER: genes 18 Torsion [CA]-CB--CG-[OD1] |==|  0.75125
ROOT
ATOM      1  C   ASP D   0     -20.769 -19.003 -21.715  1.00 50.85 LIG 0.24  C 
ATOM      2 O    ASP D   0     -19.759 -19.549 -21.262  1.00 49.73 LIG-0.27  OA
ATOM      3  N   ASP D   1     -21.763 -19.680 -22.302  1.00 47.66 LIG-0.34  N 
ATOM      4 H    ASP D   1     -22.502 -19.318 -22.555  1.00 47.66 LIG 0.16  HD
ENDROOT
BRANCH 1 5
ATOM      5  CA  ASP D   0     -20.914 -17.481 -21.629  1.00 50.32 LIG 0.19  C 
BRANCH 5 6
ATOM      6  CB  ASP D   0     -22.384 -17.097 -21.834  1.00 50.50 LIG 0.15  C 
BRANCH 6 7
ATOM      7  CG  ASP D   0     -22.644 -15.625 -21.607  1.00 42.38 LIG 0.17  C 
ATOM      8 OD2  ASP D   0     -22.749 -15.212 -20.431  1.00 47.85 LIG-0.65  OA
ATOM      9 OD1  ASP D   0     -22.740 -14.880 -22.602  1.00 32.99 LIG-0.65  OA
ENDBRANCH 6 7
ENDBRANCH 5 6
BRANCH 5 10
ATOM     10  N   ASP D   0     -20.092 -16.776 -22.611  1.00 53.06 LIG-0.34  N 
ATOM     11 H    ASP D   0     -19.463 -16.302 -22.265  1.00 53.06 LIG 0.16  HD
ATOM     12  C   ASP D  -1     -20.306 -16.866 -23.923  1.00 52.15 LIG 0.25  C 
ATOM     13 O    ASP D  -1     -21.336 -17.344 -24.416  1.00 47.49 LIG-0.27  OA
BRANCH 12 14
ATOM     14  CA  ASP D  -1     -19.191 -16.323 -24.813  1.00 59.57 LIG 0.28  C 
BRANCH 14 15
ATOM     15  N   ASP D  -1     -19.697 -15.227 -25.636  1.00 50.06 LIG-0.07  N 
ATOM     16 H3   ASP D  -1     -20.197 -15.557 -26.294  1.00 50.06 LIG 0.28  HD
ATOM     17 H2   ASP D  -1     -19.012 -14.774 -25.981  1.00 50.06 LIG 0.28  HD
ATOM     18 H1   ASP D  -1     -20.189 -14.682 -25.133  1.00 50.06 LIG 0.28  HD
ENDBRANCH 14 15
BRANCH 14 19
ATOM     19  CB  ASP D  -1     -17.998 -15.861 -23.975  1.00 60.46 LIG 0.15  C 
BRANCH 19 20
ATOM     20  CG  ASP D  -1     -17.838 -14.356 -23.963  1.00 56.39 LIG 0.17  C 
ATOM     21 OD1  ASP D  -1     -18.281 -13.720 -22.980  1.00 65.47 LIG-0.65  OA
ATOM     22 OD2  ASP D  -1     -17.259 -13.811 -24.930  1.00 48.71 LIG-0.65  OA
ENDBRANCH 19 20
ENDBRANCH 14 19
ENDBRANCH 12 14
ENDBRANCH 5 10
ENDBRANCH 1 5
BRANCH 3 23
ATOM     23  CA  ASP D   1     -21.677 -21.127 -22.571  1.00 46.44 LIG 0.19  C 
BRANCH 23 24
ATOM     24  C   ASP D   1     -21.673 -21.934 -21.283  1.00 38.24 LIG 0.24  C 
ATOM     25 O    ASP D   1     -21.096 -21.512 -20.285  1.00 48.73 LIG-0.27  OA
ATOM     26  N   MET D   2     -22.352 -23.075 -21.293  1.00 47.06 LIG-0.35  N 
ATOM     27 H    MET D   2     -22.669 -23.445 -22.001  1.00 47.06 LIG 0.16  HD
BRANCH 26 28
ATOM     28  CA  MET D   2     -22.612 -23.804 -20.052  1.00 48.57 LIG 0.16  C 
BRANCH 28 29
ATOM     29  C   MET D   2     -23.089 -22.890 -18.929  1.00 49.60 LIG 0.22  C 
ATOM     30 O    MET D   2     -22.713 -23.076 -17.770  1.00 49.04 LIG-0.29  OA
ENDBRANCH 28 29
BRANCH 28 31
ATOM     31  CB  MET D   2     -21.351 -24.560 -19.613  1.00 43.71 LIG 0.04  C 
BRANCH 31 32
ATOM     32  CG  MET D   2     -20.804 -25.527 -20.640  1.00 45.96 LIG 0.08  C 
BRANCH 32 33
ATOM     33 SD   MET D   2     -19.418 -26.484 -19.986  1.00 73.43 LIG-0.17  SA
ATOM     34  CE  MET D   2     -18.181 -26.183 -21.249  1.00 57.46 LIG 0.09  C 
ENDBRANCH 32 33
ENDBRANCH 31 32
ENDBRANCH 28 31
ENDBRANCH 26 28
ENDBRANCH 23 24
BRANCH 23 35
ATOM     35  CB  ASP D   1     -20.405 -21.497 -23.355  1.00 44.28 LIG 0.15  C 
BRANCH 35 36
ATOM     36  CG  ASP D   1     -19.474 -22.421 -22.592  1.00 47.95 LIG 0.17  C 
ATOM     37 OD1  ASP D   1     -18.590 -21.929 -21.853  1.00 49.71 LIG-0.65  OA
ATOM     38 OD2  ASP D   1     -19.630 -23.656 -22.750  1.00 42.29 LIG-0.65  OA
ENDBRANCH 35 36
ENDBRANCH 23 35
ENDBRANCH 3 23
TORSDOF 17
ENDMDL
MODEL 26
USER: ADFR SOLUTION from run 55
USER: SCORE 12.373133 LL:  -2.590 LR: -10.951 RR:   0.000 FEB:  -5.879
USER: RMSD 6.775692
USER: SEED 54
USER: STATUS no improvement in best in 6 clusters for 5 generations
USER: GENES 19
USER: genes 0 Translation |==|  0.43587 0.49249 0.45702
USER: genes 1 Rotation |==|  0.82961 0.70205 0.76704 0.67095
USER: genes 2 Torsion [N]-C--CA-[N] |==|  0.83522
USER: genes 3 Torsion [C]-CA--CB-[CG] |==|  0.21618
USER: genes 4 Torsion [CA]-CB--CG-[OD2] |==|  0.91332
USER: genes 5 Torsion [C]-CA--N-[C] |==|  0.18889
USER: genes 6 Torsion [N]-C--CA-[N] |==|  0.13357
USER: genes 7 Torsion [C]-CA--N-[H3] |==|  0.94336
USER: genes 8 Torsion [C]-CA--CB-[CG] |==|  0.81251
USER: genes 9 Torsion [CA]-CB--CG-[OD2] |==|  0.90344
USER: genes 10 Torsion [C]-N--CA-[CB] |==|  0.86571
USER: genes 11 Torsion [N]-CA--C-[N] |==|  0.94769
USER: genes 12 Torsion [C]-N--CA-[C] |==|  0.53857
USER: genes 13 Torsion [N]-CA--C-[O] |==|  0.11868
USER: genes 14 Torsion [N]-CA--CB-[CG] |==|  0.69650
USER: genes 15 Torsion [CA]-CB--CG-[SD] |==|  0.76876
USER: genes 16 Torsion [CB]-CG--SD-[CE] |==|  0.66036
USER: genes 17 Torsion [N]-CA--CB-[CG] |==|  0.68588
USER: genes 18 Torsion [CA]-CB--CG-[OD1] |==|  0.83321
ROOT
ATOM      1  C   ASP D   0     -19.922 -18.308 -24.127  1.00 50.85 LIG 0.24  C 
ATOM      2 O    ASP D   0     -20.927 -19.016 -24.230  1.00 49.73 LIG-0.27  OA
ATOM      3  N   ASP D   1     -19.700 -17.503 -23.080  1.00 47.66 LIG-0.34  N 
ATOM      4 H    ASP D   1     -18.971 -17.061 -22.965  1.00 47.66 LIG 0.16  HD
ENDROOT
BRANCH 1 5
ATOM      5  CA  ASP D   0     -18.868 -18.315 -25.238  1.00 50.32 LIG 0.19  C 
BRANCH 5 6
ATOM      6  CB  ASP D   0     -17.535 -18.817 -24.672  1.00 50.50 LIG 0.15  C 
BRANCH 6 7
ATOM      7  CG  ASP D   0     -17.493 -20.320 -24.510  1.00 42.38 LIG 0.17  C 
ATOM      8 OD2  ASP D   0     -18.560 -20.921 -24.251  1.00 47.85 LIG-0.65  OA
ATOM      9 OD1  ASP D   0     -16.399 -20.901 -24.646  1.00 32.99 LIG-0.65  OA
ENDBRANCH 6 7
ENDBRANCH 5 6
BRANCH 5 10
ATOM     10  N   ASP D   0     -18.669 -16.999 -25.842  1.00 53.06 LIG-0.34  N 
ATOM     11 H    ASP D   0     -18.937 -16.944 -26.658  1.00 53.06 LIG 0.16  HD
ATOM     12  C   ASP D  -1     -18.121 -15.982 -25.180  1.00 52.15 LIG 0.25  C 
ATOM     13 O    ASP D  -1     -17.524 -16.109 -24.103  1.00 47.49 LIG-0.27  OA
BRANCH 12 14
ATOM     14  CA  ASP D  -1     -18.262 -14.611 -25.839  1.00 59.57 LIG 0.28  C 
BRANCH 14 15
ATOM     15  N   ASP D  -1     -19.646 -14.396 -26.253  1.00 50.06 LIG-0.07  N 
ATOM     16 H3   ASP D  -1     -20.062 -15.180 -26.317  1.00 50.06 LIG 0.28  HD
ATOM     17 H2   ASP D  -1     -19.660 -13.988 -27.044  1.00 50.06 LIG 0.28  HD
ATOM     18 H1   ASP D  -1     -20.060 -13.889 -25.650  1.00 50.06 LIG 0.28  HD
ENDBRANCH 14 15
BRANCH 14 19
ATOM     19  CB  ASP D  -1     -17.802 -13.500 -24.894  1.00 60.46 LIG 0.15  C 
BRANCH 19 20
ATOM     20  CG  ASP D  -1     -18.712 -13.338 -23.695  1.00 56.39 LIG 0.17  C 
ATOM     21 OD1  ASP D  -1     -18.199 -13.004 -22.603  1.00 65.47 LIG-0.65  OA
ATOM     22 OD2  ASP D  -1     -19.938 -13.533 -23.847  1.00 48.71 LIG-0.65  OA
ENDBRANCH 19 20
ENDBRANCH 14 19
ENDBRANCH 12 14
ENDBRANCH 5 10
ENDBRANCH 1 5
BRANCH 3 23
ATOM     23  CA  ASP D   1     -20.703 -17.300 -22.018  1.00 46.44 LIG 0.19  C 
BRANCH 23 24
ATOM     24  C   ASP D   1     -20.831 -18.529 -21.132  1.00 38.24 LIG 0.24  C 
ATOM     25 O    ASP D   1     -21.372 -18.450 -20.032  1.00 48.73 LIG-0.27  OA
ATOM     26  N   MET D   2     -20.370 -19.671 -21.627  1.00 47.06 LIG-0.35  N 
ATOM     27 H    MET D   2     -19.893 -19.734 -22.339  1.00 47.06 LIG 0.16  HD
BRANCH 26 28
ATOM     28  CA  MET D   2     -20.657 -20.944 -20.966  1.00 48.57 LIG 0.16  C 
BRANCH 28 29
ATOM     29  C   MET D   2     -19.778 -22.078 -21.480  1.00 49.60 LIG 0.22  C 
ATOM     30 O    MET D   2     -18.575 -21.897 -21.676  1.00 49.04 LIG-0.29  OA
ENDBRANCH 28 29
BRANCH 28 31
ATOM     31  CB  MET D   2     -22.137 -21.306 -21.145  1.00 43.71 LIG 0.04  C 
BRANCH 31 32
ATOM     32  CG  MET D   2     -22.970 -21.203 -19.886  1.00 45.96 LIG 0.08  C 
BRANCH 32 33
ATOM     33 SD   MET D   2     -22.834 -22.690 -18.870  1.00 73.43 LIG-0.17  SA
ATOM     34  CE  MET D   2     -24.555 -23.184 -18.770  1.00 57.46 LIG 0.09  C 
ENDBRANCH 32 33
ENDBRANCH 31 32
ENDBRANCH 28 31
ENDBRANCH 26 28
ENDBRANCH 23 24
BRANCH 23 35
ATOM     35  CB  ASP D   1     -22.099 -16.992 -22.589  1.00 44.28 LIG 0.15  C 
BRANCH 35 36
ATOM     36  CG  ASP D   1     -22.575 -15.583 -22.290  1.00 47.95 LIG 0.17  C 
ATOM     37 OD1  ASP D   1     -22.700 -15.217 -21.099  1.00 49.71 LIG-0.65  OA
ATOM     38 OD2  ASP D   1     -22.838 -14.843 -23.270  1.00 42.29 LIG-0.65  OA
ENDBRANCH 35 36
ENDBRANCH 23 35
ENDBRANCH 3 23
TORSDOF 17
ENDMDL
MODEL 27
USER: ADFR SOLUTION from run 50
USER: SCORE 11.566965 LL:  -2.122 LR: -10.949 RR:   0.000 FEB:  -5.878
USER: RMSD 4.454873
USER: SEED 49
USER: STATUS no improvement in best in 10 clusters for 5 generations
USER: GENES 19
USER: genes 0 Translation |==|  0.38621 0.56633 0.54716
USER: genes 1 Rotation |==|  0.59255 0.59225 0.31194 0.94448
USER: genes 2 Torsion [N]-C--CA-[N] |==|  0.95556
USER: genes 3 Torsion [C]-CA--CB-[CG] |==|  0.23501
USER: genes 4 Torsion [CA]-CB--CG-[OD2] |==|  0.28400
USER: genes 5 Torsion [C]-CA--N-[C] |==|  0.64619
USER: genes 6 Torsion [N]-C--CA-[N] |==|  0.35173
USER: genes 7 Torsion [C]-CA--N-[H3] |==|  0.90206
USER: genes 8 Torsion [C]-CA--CB-[CG] |==|  0.20456
USER: genes 9 Torsion [CA]-CB--CG-[OD2] |==|  0.57219
USER: genes 10 Torsion [C]-N--CA-[CB] |==|  0.26936
USER: genes 11 Torsion [N]-CA--C-[N] |==|  0.91131
USER: genes 12 Torsion [C]-N--CA-[C] |==|  0.15365
USER: genes 13 Torsion [N]-CA--C-[O] |==|  0.19414
USER: genes 14 Torsion [N]-CA--CB-[CG] |==|  0.60634
USER: genes 15 Torsion [CA]-CB--CG-[SD] |==|  0.59345
USER: genes 16 Torsion [CB]-CG--SD-[CE] |==|  0.48879
USER: genes 17 Torsion [N]-CA--CB-[CG] |==|  0.74718
USER: genes 18 Torsion [CA]-CB--CG-[OD1] |==|  0.96724
ROOT
ATOM      1  C   ASP D   0     -20.965 -17.034 -22.504  1.00 50.85 LIG 0.24  C 
ATOM      2 O    ASP D   0     -21.615 -16.084 -22.950  1.00 49.73 LIG-0.27  OA
ATOM      3  N   ASP D   1     -19.744 -17.355 -22.949  1.00 47.66 LIG-0.34  N 
ATOM      4 H    ASP D   1     -19.254 -17.968 -22.596  1.00 47.66 LIG 0.16  HD
ENDROOT
BRANCH 1 5
ATOM      5  CA  ASP D   0     -21.561 -17.914 -21.402  1.00 50.32 LIG 0.19  C 
BRANCH 5 6
ATOM      6  CB  ASP D   0     -21.517 -17.160 -20.068  1.00 50.50 LIG 0.15  C 
BRANCH 6 7
ATOM      7  CG  ASP D   0     -22.700 -16.238 -19.874  1.00 42.38 LIG 0.17  C 
ATOM      8 OD2  ASP D   0     -23.627 -16.610 -19.120  1.00 47.85 LIG-0.65  OA
ATOM      9 OD1  ASP D   0     -22.703 -15.143 -20.469  1.00 32.99 LIG-0.65  OA
ENDBRANCH 6 7
ENDBRANCH 5 6
BRANCH 5 10
ATOM     10  N   ASP D   0     -20.866 -19.191 -21.256  1.00 53.06 LIG-0.34  N 
ATOM     11 H    ASP D   0     -20.015 -19.117 -21.157  1.00 53.06 LIG 0.16  HD
ATOM     12  C   ASP D  -1     -21.503 -20.361 -21.275  1.00 52.15 LIG 0.25  C 
ATOM     13 O    ASP D  -1     -22.676 -20.495 -21.647  1.00 47.49 LIG-0.27  OA
BRANCH 12 14
ATOM     14  CA  ASP D  -1     -20.688 -21.565 -20.811  1.00 59.57 LIG 0.28  C 
BRANCH 14 15
ATOM     15  N   ASP D  -1     -21.406 -22.279 -19.757  1.00 50.06 LIG-0.07  N 
ATOM     16 H3   ASP D  -1     -21.847 -21.694 -19.251  1.00 50.06 LIG 0.28  HD
ATOM     17 H2   ASP D  -1     -20.825 -22.728 -19.254  1.00 50.06 LIG 0.28  HD
ATOM     18 H1   ASP D  -1     -21.983 -22.848 -20.124  1.00 50.06 LIG 0.28  HD
ENDBRANCH 14 15
BRANCH 14 19
ATOM     19  CB  ASP D  -1     -20.379 -22.501 -21.981  1.00 60.46 LIG 0.15  C 
BRANCH 19 20
ATOM     20  CG  ASP D  -1     -19.323 -21.945 -22.912  1.00 56.39 LIG 0.17  C 
ATOM     21 OD1  ASP D  -1     -18.484 -21.142 -22.446  1.00 65.47 LIG-0.65  OA
ATOM     22 OD2  ASP D  -1     -19.325 -22.321 -24.106  1.00 48.71 LIG-0.65  OA
ENDBRANCH 19 20
ENDBRANCH 14 19
ENDBRANCH 12 14
ENDBRANCH 5 10
ENDBRANCH 1 5
BRANCH 3 23
ATOM     23  CA  ASP D   1     -19.122 -16.675 -24.100  1.00 46.44 LIG 0.19  C 
BRANCH 23 24
ATOM     24  C   ASP D   1     -18.325 -17.646 -24.956  1.00 38.24 LIG 0.24  C 
ATOM     25 O    ASP D   1     -18.202 -17.457 -26.163  1.00 48.73 LIG-0.27  OA
ATOM     26  N   MET D   2     -17.749 -18.662 -24.325  1.00 47.06 LIG-0.35  N 
ATOM     27 H    MET D   2     -17.908 -18.879 -23.509  1.00 47.06 LIG 0.16  HD
BRANCH 26 28
ATOM     28  CA  MET D   2     -16.772 -19.511 -25.006  1.00 48.57 LIG 0.16  C 
BRANCH 28 29
ATOM     29  C   MET D   2     -15.615 -18.711 -25.593  1.00 49.60 LIG 0.22  C 
ATOM     30 O    MET D   2     -14.785 -18.179 -24.854  1.00 49.04 LIG-0.29  OA
ENDBRANCH 28 29
BRANCH 28 31
ATOM     31  CB  MET D   2     -17.461 -20.323 -26.110  1.00 43.71 LIG 0.04  C 
BRANCH 31 32
ATOM     32  CG  MET D   2     -16.957 -21.741 -26.261  1.00 45.96 LIG 0.08  C 
BRANCH 32 33
ATOM     33 SD   MET D   2     -17.004 -22.288 -27.982  1.00 73.43 LIG-0.17  SA
ATOM     34  CE  MET D   2     -16.249 -23.908 -27.837  1.00 57.46 LIG 0.09  C 
ENDBRANCH 32 33
ENDBRANCH 31 32
ENDBRANCH 28 31
ENDBRANCH 26 28
ENDBRANCH 23 24
BRANCH 23 35
ATOM     35  CB  ASP D   1     -18.168 -15.550 -23.663  1.00 44.28 LIG 0.15  C 
BRANCH 35 36
ATOM     36  CG  ASP D   1     -18.843 -14.196 -23.549  1.00 47.95 LIG 0.17  C 
ATOM     37 OD1  ASP D   1     -19.997 -14.044 -24.012  1.00 49.71 LIG-0.65  OA
ATOM     38 OD2  ASP D   1     -18.196 -13.273 -22.995  1.00 42.29 LIG-0.65  OA
ENDBRANCH 35 36
ENDBRANCH 23 35
ENDBRANCH 3 23
TORSDOF 17
ENDMDL
MODEL 28
USER: ADFR SOLUTION from run 128
USER: SCORE 12.734255 LL:  -2.565 LR: -10.937 RR:   0.000 FEB:  -5.866
USER: RMSD 8.632354
USER: SEED 127
USER: STATUS no improvement in best in 10 clusters for 5 generations
USER: GENES 19
USER: genes 0 Translation |==|  0.42993 0.55545 0.51835
USER: genes 1 Rotation |==|  0.07068 0.68874 0.33179 0.54208
USER: genes 2 Torsion [N]-C--CA-[N] |==|  0.11407
USER: genes 3 Torsion [C]-CA--CB-[CG] |==|  0.26600
USER: genes 4 Torsion [CA]-CB--CG-[OD2] |==|  0.60404
USER: genes 5 Torsion [C]-CA--N-[C] |==|  0.64477
USER: genes 6 Torsion [N]-C--CA-[N] |==|  0.26566
USER: genes 7 Torsion [C]-CA--N-[H3] |==|  0.58449
USER: genes 8 Torsion [C]-CA--CB-[CG] |==|  0.78433
USER: genes 9 Torsion [CA]-CB--CG-[OD2] |==|  0.83592
USER: genes 10 Torsion [C]-N--CA-[CB] |==|  0.55000
USER: genes 11 Torsion [N]-CA--C-[N] |==|  0.35859
USER: genes 12 Torsion [C]-N--CA-[C] |==|  0.15430
USER: genes 13 Torsion [N]-CA--C-[O] |==|  0.15076
USER: genes 14 Torsion [N]-CA--CB-[CG] |==|  0.28460
USER: genes 15 Torsion [CA]-CB--CG-[SD] |==|  0.56255
USER: genes 16 Torsion [CB]-CG--SD-[CE] |==|  0.37857
USER: genes 17 Torsion [N]-CA--CB-[CG] |==|  0.89814
USER: genes 18 Torsion [CA]-CB--CG-[OD1] |==|  0.15348
ROOT
ATOM      1  C   ASP D   0     -20.046 -17.222 -23.023  1.00 50.85 LIG 0.24  C 
ATOM      2 O    ASP D   0     -21.071 -16.601 -22.723  1.00 49.73 LIG-0.27  OA
ATOM      3  N   ASP D   1     -19.825 -18.487 -22.649  1.00 47.66 LIG-0.34  N 
ATOM      4 H    ASP D   1     -19.149 -18.951 -22.912  1.00 47.66 LIG 0.16  HD
ENDROOT
BRANCH 1 5
ATOM      5  CA  ASP D   0     -18.953 -16.533 -23.846  1.00 50.32 LIG 0.19  C 
BRANCH 5 6
ATOM      6  CB  ASP D   0     -19.537 -15.292 -24.531  1.00 50.50 LIG 0.15  C 
BRANCH 6 7
ATOM      7  CG  ASP D   0     -19.291 -14.020 -23.750  1.00 42.38 LIG 0.17  C 
ATOM      8 OD2  ASP D   0     -20.191 -13.151 -23.728  1.00 47.85 LIG-0.65  OA
ATOM      9 OD1  ASP D   0     -18.203 -13.890 -23.155  1.00 32.99 LIG-0.65  OA
ENDBRANCH 6 7
ENDBRANCH 5 6
BRANCH 5 10
ATOM     10  N   ASP D   0     -18.367 -17.410 -24.858  1.00 53.06 LIG-0.34  N 
ATOM     11 H    ASP D   0     -18.946 -17.790 -25.369  1.00 53.06 LIG 0.16  HD
ATOM     12  C   ASP D  -1     -17.053 -17.598 -24.970  1.00 52.15 LIG 0.25  C 
ATOM     13 O    ASP D  -1     -16.237 -17.252 -24.107  1.00 47.49 LIG-0.27  OA
BRANCH 12 14
ATOM     14  CA  ASP D  -1     -16.592 -18.291 -26.250  1.00 59.57 LIG 0.28  C 
BRANCH 14 15
ATOM     15  N   ASP D  -1     -16.192 -17.295 -27.241  1.00 50.06 LIG-0.07  N 
ATOM     16 H3   ASP D  -1     -16.348 -17.611 -28.058  1.00 50.06 LIG 0.28  HD
ATOM     17 H2   ASP D  -1     -15.324 -17.119 -27.151  1.00 50.06 LIG 0.28  HD
ATOM     18 H1   ASP D  -1     -16.660 -16.549 -27.117  1.00 50.06 LIG 0.28  HD
ENDBRANCH 14 15
BRANCH 14 19
ATOM     19  CB  ASP D  -1     -15.442 -19.259 -25.964  1.00 60.46 LIG 0.15  C 
BRANCH 19 20
ATOM     20  CG  ASP D  -1     -14.115 -18.553 -25.784  1.00 56.39 LIG 0.17  C 
ATOM     21 OD1  ASP D  -1     -13.501 -18.710 -24.705  1.00 65.47 LIG-0.65  OA
ATOM     22 OD2  ASP D  -1     -13.680 -17.854 -26.727  1.00 48.71 LIG-0.65  OA
ENDBRANCH 19 20
ENDBRANCH 14 19
ENDBRANCH 12 14
ENDBRANCH 5 10
ENDBRANCH 1 5
BRANCH 3 23
ATOM     23  CA  ASP D   1     -20.733 -19.209 -21.738  1.00 46.44 LIG 0.19  C 
BRANCH 23 24
ATOM     24  C   ASP D   1     -21.202 -18.318 -20.599  1.00 38.24 LIG 0.24  C 
ATOM     25 O    ASP D   1     -20.395 -17.660 -19.950  1.00 48.73 LIG-0.27  OA
ATOM     26  N   MET D   2     -22.511 -18.267 -20.383  1.00 47.06 LIG-0.35  N 
ATOM     27 H    MET D   2     -23.083 -18.797 -20.746  1.00 47.06 LIG 0.16  HD
BRANCH 26 28
ATOM     28  CA  MET D   2     -23.084 -17.269 -19.481  1.00 48.57 LIG 0.16  C 
BRANCH 28 29
ATOM     29  C   MET D   2     -22.701 -15.846 -19.868  1.00 49.60 LIG 0.22  C 
ATOM     30 O    MET D   2     -22.917 -15.428 -21.007  1.00 49.04 LIG-0.29  OA
ENDBRANCH 28 29
BRANCH 28 31
ATOM     31  CB  MET D   2     -22.648 -17.556 -18.038  1.00 43.71 LIG 0.04  C 
BRANCH 31 32
ATOM     32  CG  MET D   2     -21.541 -16.662 -17.522  1.00 45.96 LIG 0.08  C 
BRANCH 32 33
ATOM     33 SD   MET D   2     -20.651 -17.426 -16.148  1.00 73.43 LIG-0.17  SA
ATOM     34  CE  MET D   2     -18.956 -17.051 -16.600  1.00 57.46 LIG 0.09  C 
ENDBRANCH 32 33
ENDBRANCH 31 32
ENDBRANCH 28 31
ENDBRANCH 26 28
ENDBRANCH 23 24
BRANCH 23 35
ATOM     35  CB  ASP D   1     -20.065 -20.447 -21.115  1.00 44.28 LIG 0.15  C 
BRANCH 35 36
ATOM     36  CG  ASP D   1     -19.132 -21.173 -22.065  1.00 47.95 LIG 0.17  C 
ATOM     37 OD1  ASP D   1     -18.200 -20.541 -22.613  1.00 49.71 LIG-0.65  OA
ATOM     38 OD2  ASP D   1     -19.351 -22.393 -22.269  1.00 42.29 LIG-0.65  OA
ENDBRANCH 35 36
ENDBRANCH 23 35
ENDBRANCH 3 23
TORSDOF 17
ENDMDL
MODEL 29
USER: ADFR SOLUTION from run 13
USER: SCORE 11.641490 LL:  -2.146 LR: -10.915 RR:   0.000 FEB:  -5.844
USER: RMSD 4.833823
USER: SEED 643326
USER: STATUS no improvement in best in 7 clusters for 5 generations
USER: GENES 19
USER: genes 0 Translation |==|  0.43927 0.49434 0.49024
USER: genes 1 Rotation |==|  0.46686 0.41670 0.67918 0.95810
USER: genes 2 Torsion [N]-C--CA-[N] |==|  0.16935
USER: genes 3 Torsion [C]-CA--CB-[CG] |==|  0.26563
USER: genes 4 Torsion [CA]-CB--CG-[OD2] |==|  0.03898
USER: genes 5 Torsion [C]-CA--N-[C] |==|  0.67491
USER: genes 6 Torsion [N]-C--CA-[N] |==|  0.54412
USER: genes 7 Torsion [C]-CA--N-[H3] |==|  0.60891
USER: genes 8 Torsion [C]-CA--CB-[CG] |==|  0.78671
USER: genes 9 Torsion [CA]-CB--CG-[OD2] |==|  0.36753
USER: genes 10 Torsion [C]-N--CA-[CB] |==|  0.18783
USER: genes 11 Torsion [N]-CA--C-[N] |==|  0.56382
USER: genes 12 Torsion [C]-N--CA-[C] |==|  0.79942
USER: genes 13 Torsion [N]-CA--C-[O] |==|  0.20451
USER: genes 14 Torsion [N]-CA--CB-[CG] |==|  0.46804
USER: genes 15 Torsion [CA]-CB--CG-[SD] |==|  0.32283
USER: genes 16 Torsion [CB]-CG--SD-[CE] |==|  0.97830
USER: genes 17 Torsion [N]-CA--CB-[CG] |==|  0.16344
USER: genes 18 Torsion [CA]-CB--CG-[OD1] |==|  0.14494
ROOT
ATOM      1  C   ASP D   0     -19.850 -18.276 -23.529  1.00 50.85 LIG 0.24  C 
ATOM      2 O    ASP D   0     -20.087 -18.772 -24.634  1.00 49.73 LIG-0.27  OA
ATOM      3  N   ASP D   1     -19.414 -17.020 -23.370  1.00 47.66 LIG-0.34  N 
ATOM      4 H    ASP D   1     -19.316 -16.643 -22.603  1.00 47.66 LIG 0.16  HD
ENDROOT
BRANCH 1 5
ATOM      5  CA  ASP D   0     -20.041 -19.115 -22.262  1.00 50.32 LIG 0.19  C 
BRANCH 5 6
ATOM      6  CB  ASP D   0     -20.474 -20.533 -22.651  1.00 50.50 LIG 0.15  C 
BRANCH 6 7
ATOM      7  CG  ASP D   0     -19.316 -21.502 -22.727  1.00 42.38 LIG 0.17  C 
ATOM      8 OD2  ASP D   0     -18.220 -21.161 -22.228  1.00 47.85 LIG-0.65  OA
ATOM      9 OD1  ASP D   0     -19.500 -22.604 -23.280  1.00 32.99 LIG-0.65  OA
ENDBRANCH 6 7
ENDBRANCH 5 6
BRANCH 5 10
ATOM     10  N   ASP D   0     -21.026 -18.545 -21.345  1.00 53.06 LIG-0.34  N 
ATOM     11 H    ASP D   0     -21.822 -18.502 -21.670  1.00 53.06 LIG 0.16  HD
ATOM     12  C   ASP D  -1     -20.710 -18.132 -20.119  1.00 52.15 LIG 0.25  C 
ATOM     13 O    ASP D  -1     -19.546 -17.970 -19.731  1.00 47.49 LIG-0.27  OA
BRANCH 12 14
ATOM     14  CA  ASP D  -1     -21.891 -17.850 -19.192  1.00 59.57 LIG 0.28  C 
BRANCH 14 15
ATOM     15  N   ASP D  -1     -21.447 -17.064 -18.043  1.00 50.06 LIG-0.07  N 
ATOM     16 H3   ASP D  -1     -21.861 -17.351 -17.309  1.00 50.06 LIG 0.28  HD
ATOM     17 H2   ASP D  -1     -21.641 -16.206 -18.177  1.00 50.06 LIG 0.28  HD
ATOM     18 H1   ASP D  -1     -20.567 -17.156 -17.943  1.00 50.06 LIG 0.28  HD
ENDBRANCH 14 15
BRANCH 14 19
ATOM     19  CB  ASP D  -1     -23.012 -17.126 -19.939  1.00 60.46 LIG 0.15  C 
BRANCH 19 20
ATOM     20  CG  ASP D  -1     -22.717 -15.657 -20.157  1.00 56.39 LIG 0.17  C 
ATOM     21 OD1  ASP D  -1     -22.297 -14.987 -19.187  1.00 65.47 LIG-0.65  OA
ATOM     22 OD2  ASP D  -1     -22.892 -15.178 -21.299  1.00 48.71 LIG-0.65  OA
ENDBRANCH 19 20
ENDBRANCH 14 19
ENDBRANCH 12 14
ENDBRANCH 5 10
ENDBRANCH 1 5
BRANCH 3 23
ATOM     23  CA  ASP D   1     -19.058 -16.161 -24.515  1.00 46.44 LIG 0.19  C 
BRANCH 23 24
ATOM     24  C   ASP D   1     -18.405 -14.867 -24.057  1.00 38.24 LIG 0.24  C 
ATOM     25 O    ASP D   1     -17.823 -14.809 -22.978  1.00 48.73 LIG-0.27  OA
ATOM     26  N   MET D   2     -18.466 -13.840 -24.897  1.00 47.06 LIG-0.35  N 
ATOM     27 H    MET D   2     -18.956 -13.819 -25.603  1.00 47.06 LIG 0.16  HD
BRANCH 26 28
ATOM     28  CA  MET D   2     -17.672 -12.634 -24.665  1.00 48.57 LIG 0.16  C 
BRANCH 28 29
ATOM     29  C   MET D   2     -18.200 -11.804 -23.500  1.00 49.60 LIG 0.22  C 
ATOM     30 O    MET D   2     -18.035 -12.182 -22.339  1.00 49.04 LIG-0.29  OA
ENDBRANCH 28 29
BRANCH 28 31
ATOM     31  CB  MET D   2     -17.630 -11.781 -25.939  1.00 43.71 LIG 0.04  C 
BRANCH 31 32
ATOM     32  CG  MET D   2     -17.074 -10.386 -25.750  1.00 45.96 LIG 0.08  C 
BRANCH 32 33
ATOM     33 SD   MET D   2     -15.547 -10.142 -26.683  1.00 73.43 LIG-0.17  SA
ATOM     34  CE  MET D   2     -15.240 -11.812 -27.262  1.00 57.46 LIG 0.09  C 
ENDBRANCH 32 33
ENDBRANCH 31 32
ENDBRANCH 28 31
ENDBRANCH 26 28
ENDBRANCH 23 24
BRANCH 23 35
ATOM     35  CB  ASP D   1     -20.285 -15.788 -25.364  1.00 44.28 LIG 0.15  C 
BRANCH 35 36
ATOM     36  CG  ASP D   1     -21.359 -15.055 -24.582  1.00 47.95 LIG 0.17  C 
ATOM     37 OD1  ASP D   1     -21.050 -14.042 -23.914  1.00 49.71 LIG-0.65  OA
ATOM     38 OD2  ASP D   1     -22.526 -15.515 -24.635  1.00 42.29 LIG-0.65  OA
ENDBRANCH 35 36
ENDBRANCH 23 35
ENDBRANCH 3 23
TORSDOF 17
ENDMDL
MODEL 30
USER: ADFR SOLUTION from run 160
USER: SCORE 11.652047 LL:  -2.290 LR: -10.904 RR:   0.000 FEB:  -5.832
USER: RMSD 7.067794
USER: SEED 159
USER: STATUS no improvement in best in 27 clusters for 5 generations
USER: GENES 19
USER: genes 0 Translation |==|  0.44444 0.64779 0.47686
USER: genes 1 Rotation |==|  0.91071 0.30412 0.70312 0.54106
USER: genes 2 Torsion [N]-C--CA-[N] |==|  0.57778
USER: genes 3 Torsion [C]-CA--CB-[CG] |==|  0.26138
USER: genes 4 Torsion [CA]-CB--CG-[OD2] |==|  0.86395
USER: genes 5 Torsion [C]-CA--N-[C] |==|  0.13341
USER: genes 6 Torsion [N]-C--CA-[N] |==|  0.09120
USER: genes 7 Torsion [C]-CA--N-[H3] |==|  0.91956
USER: genes 8 Torsion [C]-CA--CB-[CG] |==|  0.83453
USER: genes 9 Torsion [CA]-CB--CG-[OD2] |==|  0.93449
USER: genes 10 Torsion [C]-N--CA-[CB] |==|  0.17356
USER: genes 11 Torsion [N]-CA--C-[N] |==|  0.81822
USER: genes 12 Torsion [C]-N--CA-[C] |==|  0.62184
USER: genes 13 Torsion [N]-CA--C-[O] |==|  0.17561
USER: genes 14 Torsion [N]-CA--CB-[CG] |==|  0.73921
USER: genes 15 Torsion [CA]-CB--CG-[SD] |==|  0.66753
USER: genes 16 Torsion [CB]-CG--SD-[CE] |==|  0.07628
USER: genes 17 Torsion [N]-CA--CB-[CG] |==|  0.67177
USER: genes 18 Torsion [CA]-CB--CG-[OD1] |==|  0.98464
ROOT
ATOM      1  C   ASP D   0     -19.742 -15.629 -23.770  1.00 50.85 LIG 0.24  C 
ATOM      2 O    ASP D   0     -20.637 -14.780 -23.728  1.00 49.73 LIG-0.27  OA
ATOM      3  N   ASP D   1     -19.742 -16.728 -23.006  1.00 47.66 LIG-0.34  N 
ATOM      4 H    ASP D   1     -19.161 -17.359 -23.079  1.00 47.66 LIG 0.16  HD
ENDROOT
BRANCH 1 5
ATOM      5  CA  ASP D   0     -18.554 -15.436 -24.718  1.00 50.32 LIG 0.19  C 
BRANCH 5 6
ATOM      6  CB  ASP D   0     -17.305 -16.083 -24.108  1.00 50.50 LIG 0.15  C 
BRANCH 6 7
ATOM      7  CG  ASP D   0     -17.085 -17.500 -24.587  1.00 42.38 LIG 0.17  C 
ATOM      8 OD2  ASP D   0     -18.048 -18.298 -24.552  1.00 47.85 LIG-0.65  OA
ATOM      9 OD1  ASP D   0     -15.952 -17.816 -25.003  1.00 32.99 LIG-0.65  OA
ENDBRANCH 6 7
ENDBRANCH 5 6
BRANCH 5 10
ATOM     10  N   ASP D   0     -18.277 -14.029 -25.001  1.00 53.06 LIG-0.34  N 
ATOM     11 H    ASP D   0     -18.172 -13.855 -25.838  1.00 53.06 LIG 0.16  HD
ATOM     12  C   ASP D  -1     -18.195 -13.107 -24.044  1.00 52.15 LIG 0.25  C 
ATOM     13 O    ASP D  -1     -18.108 -13.378 -22.839  1.00 47.49 LIG-0.27  OA
BRANCH 12 14
ATOM     14  CA  ASP D  -1     -18.203 -11.656 -24.521  1.00 59.57 LIG 0.28  C 
BRANCH 14 15
ATOM     15  N   ASP D  -1     -19.030 -11.529 -25.719  1.00 50.06 LIG-0.07  N 
ATOM     16 H3   ASP D  -1     -19.020 -12.297 -26.169  1.00 50.06 LIG 0.28  HD
ATOM     17 H2   ASP D  -1     -18.708 -10.879 -26.234  1.00 50.06 LIG 0.28  HD
ATOM     18 H1   ASP D  -1     -19.866 -11.335 -25.483  1.00 50.06 LIG 0.28  HD
ENDBRANCH 14 15
BRANCH 14 19
ATOM     19  CB  ASP D  -1     -18.704 -10.721 -23.419  1.00 60.46 LIG 0.15  C 
BRANCH 19 20
ATOM     20  CG  ASP D  -1     -20.108 -11.053 -22.962  1.00 56.39 LIG 0.17  C 
ATOM     21 OD1  ASP D  -1     -20.464 -10.681 -21.822  1.00 65.47 LIG-0.65  OA
ATOM     22 OD2  ASP D  -1     -20.858 -11.674 -23.748  1.00 48.71 LIG-0.65  OA
ENDBRANCH 19 20
ENDBRANCH 14 19
ENDBRANCH 12 14
ENDBRANCH 5 10
ENDBRANCH 1 5
BRANCH 3 23
ATOM     23  CA  ASP D   1     -20.752 -16.956 -21.956  1.00 46.44 LIG 0.19  C 
BRANCH 23 24
ATOM     24  C   ASP D   1     -20.478 -18.239 -21.189  1.00 38.24 LIG 0.24  C 
ATOM     25 O    ASP D   1     -20.215 -18.205 -19.991  1.00 48.73 LIG-0.27  OA
ATOM     26  N   MET D   2     -20.579 -19.374 -21.871  1.00 47.06 LIG-0.35  N 
ATOM     27 H    MET D   2     -20.652 -19.421 -22.726  1.00 47.06 LIG 0.16  HD
BRANCH 26 28
ATOM     28  CA  MET D   2     -20.573 -20.665 -21.184  1.00 48.57 LIG 0.16  C 
BRANCH 28 29
ATOM     29  C   MET D   2     -19.692 -21.693 -21.883  1.00 49.60 LIG 0.22  C 
ATOM     30 O    MET D   2     -18.477 -21.511 -21.983  1.00 49.04 LIG-0.29  OA
ENDBRANCH 28 29
BRANCH 28 31
ATOM     31  CB  MET D   2     -22.006 -21.200 -21.060  1.00 43.71 LIG 0.04  C 
BRANCH 31 32
ATOM     32  CG  MET D   2     -22.700 -20.855 -19.760  1.00 45.96 LIG 0.08  C 
BRANCH 32 33
ATOM     33 SD   MET D   2     -23.175 -22.336 -18.843  1.00 73.43 LIG-0.17  SA
ATOM     34  CE  MET D   2     -21.938 -23.499 -19.422  1.00 57.46 LIG 0.09  C 
ENDBRANCH 32 33
ENDBRANCH 31 32
ENDBRANCH 28 31
ENDBRANCH 26 28
ENDBRANCH 23 24
BRANCH 23 35
ATOM     35  CB  ASP D   1     -22.175 -17.055 -22.533  1.00 44.28 LIG 0.15  C 
BRANCH 35 36
ATOM     36  CG  ASP D   1     -23.109 -15.973 -22.022  1.00 47.95 LIG 0.17  C 
ATOM     37 OD1  ASP D   1     -22.710 -15.186 -21.134  1.00 49.71 LIG-0.65  OA
ATOM     38 OD2  ASP D   1     -24.262 -15.927 -22.517  1.00 42.29 LIG-0.65  OA
ENDBRANCH 35 36
ENDBRANCH 23 35
ENDBRANCH 3 23
TORSDOF 17
ENDMDL
MODEL 31
USER: ADFR SOLUTION from run 46
USER: SCORE 12.872831 LL:  -2.613 LR: -10.894 RR:   0.000 FEB:  -5.823
USER: RMSD 5.929441
USER: SEED 45
USER: STATUS no improvement in best in 22 clusters for 5 generations
USER: GENES 19
USER: genes 0 Translation |==|  0.49812 0.67827 0.40309
USER: genes 1 Rotation |==|  0.27476 0.14078 0.75286 0.57929
USER: genes 2 Torsion [N]-C--CA-[N] |==|  0.48333
USER: genes 3 Torsion [C]-CA--CB-[CG] |==|  0.62823
USER: genes 4 Torsion [CA]-CB--CG-[OD2] |==|  0.85773
USER: genes 5 Torsion [C]-CA--N-[C] |==|  0.67168
USER: genes 6 Torsion [N]-C--CA-[N] |==|  0.08373
USER: genes 7 Torsion [C]-CA--N-[H3] |==|  0.06230
USER: genes 8 Torsion [C]-CA--CB-[CG] |==|  0.52805
USER: genes 9 Torsion [CA]-CB--CG-[OD2] |==|  0.99611
USER: genes 10 Torsion [C]-N--CA-[CB] |==|  0.84962
USER: genes 11 Torsion [N]-CA--C-[N] |==|  0.44830
USER: genes 12 Torsion [C]-N--CA-[C] |==|  0.11527
USER: genes 13 Torsion [N]-CA--C-[O] |==|  0.64508
USER: genes 14 Torsion [N]-CA--CB-[CG] |==|  0.55917
USER: genes 15 Torsion [CA]-CB--CG-[SD] |==|  0.38354
USER: genes 16 Torsion [CB]-CG--SD-[CE] |==|  0.16870
USER: genes 17 Torsion [N]-CA--CB-[CG] |==|  0.93880
USER: genes 18 Torsion [CA]-CB--CG-[OD1] |==|  0.83575
ROOT
ATOM      1  C   ASP D   0     -18.615 -15.103 -25.097  1.00 50.85 LIG 0.24  C 
ATOM      2 O    ASP D   0     -17.512 -15.176 -24.547  1.00 49.73 LIG-0.27  OA
ATOM      3  N   ASP D   1     -18.966 -14.087 -25.896  1.00 47.66 LIG-0.34  N 
ATOM      4 H    ASP D   1     -19.702 -14.063 -26.340  1.00 47.66 LIG 0.16  HD
ENDROOT
BRANCH 1 5
ATOM      5  CA  ASP D   0     -19.656 -16.201 -24.864  1.00 50.32 LIG 0.19  C 
BRANCH 5 6
ATOM      6  CB  ASP D   0     -20.864 -15.609 -24.129  1.00 50.50 LIG 0.15  C 
BRANCH 6 7
ATOM      7  CG  ASP D   0     -21.327 -16.467 -22.972  1.00 42.38 LIG 0.17  C 
ATOM      8 OD2  ASP D   0     -21.536 -17.683 -23.178  1.00 47.85 LIG-0.65  OA
ATOM      9 OD1  ASP D   0     -21.476 -15.928 -21.858  1.00 32.99 LIG-0.65  OA
ENDBRANCH 6 7
ENDBRANCH 5 6
BRANCH 5 10
ATOM     10  N   ASP D   0     -19.131 -17.328 -24.096  1.00 53.06 LIG-0.34  N 
ATOM     11 H    ASP D   0     -18.870 -17.120 -23.303  1.00 53.06 LIG 0.16  HD
ATOM     12  C   ASP D  -1     -19.067 -18.564 -24.589  1.00 52.15 LIG 0.25  C 
ATOM     13 O    ASP D  -1     -19.214 -18.830 -25.788  1.00 47.49 LIG-0.27  OA
BRANCH 12 14
ATOM     14  CA  ASP D  -1     -18.783 -19.667 -23.571  1.00 59.57 LIG 0.28  C 
BRANCH 14 15
ATOM     15  N   ASP D  -1     -19.325 -19.295 -22.267  1.00 50.06 LIG-0.07  N 
ATOM     16 H3   ASP D  -1     -19.971 -18.692 -22.375  1.00 50.06 LIG 0.28  HD
ATOM     17 H2   ASP D  -1     -18.677 -18.949 -21.764  1.00 50.06 LIG 0.28  HD
ATOM     18 H1   ASP D  -1     -19.658 -20.017 -21.867  1.00 50.06 LIG 0.28  HD
ENDBRANCH 14 15
BRANCH 14 19
ATOM     19  CB  ASP D  -1     -19.366 -21.003 -24.036  1.00 60.46 LIG 0.15  C 
BRANCH 19 20
ATOM     20  CG  ASP D  -1     -19.325 -22.066 -22.959  1.00 56.39 LIG 0.17  C 
ATOM     21 OD1  ASP D  -1     -19.789 -23.197 -23.224  1.00 65.47 LIG-0.65  OA
ATOM     22 OD2  ASP D  -1     -18.817 -21.773 -21.853  1.00 48.71 LIG-0.65  OA
ENDBRANCH 19 20
ENDBRANCH 14 19
ENDBRANCH 12 14
ENDBRANCH 5 10
ENDBRANCH 1 5
BRANCH 3 23
ATOM     23  CA  ASP D   1     -18.108 -12.903 -26.085  1.00 46.44 LIG 0.19  C 
BRANCH 23 24
ATOM     24  C   ASP D   1     -16.817 -13.260 -26.805  1.00 38.24 LIG 0.24  C 
ATOM     25 O    ASP D   1     -16.450 -14.428 -26.883  1.00 48.73 LIG-0.27  OA
ATOM     26  N   MET D   2     -16.151 -12.257 -27.365  1.00 47.06 LIG-0.35  N 
ATOM     27 H    MET D   2     -16.325 -11.425 -27.233  1.00 47.06 LIG 0.16  HD
BRANCH 26 28
ATOM     28  CA  MET D   2     -15.038 -12.514 -28.278  1.00 48.57 LIG 0.16  C 
BRANCH 28 29
ATOM     29  C   MET D   2     -15.323 -13.664 -29.236  1.00 49.60 LIG 0.22  C 
ATOM     30 O    MET D   2     -14.527 -14.597 -29.348  1.00 49.04 LIG-0.29  OA
ENDBRANCH 28 29
BRANCH 28 31
ATOM     31  CB  MET D   2     -13.761 -12.802 -27.478  1.00 43.71 LIG 0.04  C 
BRANCH 31 32
ATOM     32  CG  MET D   2     -12.473 -12.586 -28.242  1.00 45.96 LIG 0.08  C 
BRANCH 32 33
ATOM     33 SD   MET D   2     -11.223 -11.764 -27.230  1.00 73.43 LIG-0.17  SA
ATOM     34  CE  MET D   2     -11.032 -12.957 -25.904  1.00 57.46 LIG 0.09  C 
ENDBRANCH 32 33
ENDBRANCH 31 32
ENDBRANCH 28 31
ENDBRANCH 26 28
ENDBRANCH 23 24
BRANCH 23 35
ATOM     35  CB  ASP D   1     -17.726 -12.244 -24.747  1.00 44.28 LIG 0.15  C 
BRANCH 35 36
ATOM     36  CG  ASP D   1     -18.681 -12.576 -23.616  1.00 47.95 LIG 0.17  C 
ATOM     37 OD1  ASP D   1     -19.893 -12.278 -23.728  1.00 49.71 LIG-0.65  OA
ATOM     38 OD2  ASP D   1     -18.200 -13.134 -22.600  1.00 42.29 LIG-0.65  OA
ENDBRANCH 35 36
ENDBRANCH 23 35
ENDBRANCH 3 23
TORSDOF 17
ENDMDL
MODEL 32
USER: ADFR SOLUTION from run 100
USER: SCORE 12.652684 LL:  -2.521 LR: -10.864 RR:   0.000 FEB:  -5.793
USER: RMSD 7.898218
USER: SEED 99
USER: STATUS no improvement in best in 11 clusters for 5 generations
USER: GENES 19
USER: genes 0 Translation |==|  0.39442 0.44426 0.60349
USER: genes 1 Rotation |==|  0.30889 0.72081 0.90544 0.51853
USER: genes 2 Torsion [N]-C--CA-[N] |==|  0.67747
USER: genes 3 Torsion [C]-CA--CB-[CG] |==|  0.48548
USER: genes 4 Torsion [CA]-CB--CG-[OD2] |==|  0.29979
USER: genes 5 Torsion [C]-CA--N-[C] |==|  0.18333
USER: genes 6 Torsion [N]-C--CA-[N] |==|  0.61480
USER: genes 7 Torsion [C]-CA--N-[H3] |==|  0.87450
USER: genes 8 Torsion [C]-CA--CB-[CG] |==|  0.77585
USER: genes 9 Torsion [CA]-CB--CG-[OD2] |==|  0.54735
USER: genes 10 Torsion [C]-N--CA-[CB] |==|  0.84915
USER: genes 11 Torsion [N]-CA--C-[N] |==|  0.40295
USER: genes 12 Torsion [C]-N--CA-[C] |==|  0.65791
USER: genes 13 Torsion [N]-CA--C-[O] |==|  0.91796
USER: genes 14 Torsion [N]-CA--CB-[CG] |==|  0.93902
USER: genes 15 Torsion [CA]-CB--CG-[SD] |==|  0.77138
USER: genes 16 Torsion [CB]-CG--SD-[CE] |==|  0.41512
USER: genes 17 Torsion [N]-CA--CB-[CG] |==|  0.32061
USER: genes 18 Torsion [CA]-CB--CG-[OD1] |==|  0.25741
ROOT
ATOM      1  C   ASP D   0     -20.792 -19.140 -21.490  1.00 50.85 LIG 0.24  C 
ATOM      2 O    ASP D   0     -19.701 -19.662 -21.245  1.00 49.73 LIG-0.27  OA
ATOM      3  N   ASP D   1     -21.873 -19.841 -21.852  1.00 47.66 LIG-0.34  N 
ATOM      4 H    ASP D   1     -22.654 -19.495 -21.954  1.00 47.66 LIG 0.16  HD
ENDROOT
BRANCH 1 5
ATOM      5  CA  ASP D   0     -20.945 -17.618 -21.400  1.00 50.32 LIG 0.19  C 
BRANCH 5 6
ATOM      6  CB  ASP D   0     -22.413 -17.239 -21.625  1.00 50.50 LIG 0.15  C 
BRANCH 6 7
ATOM      7  CG  ASP D   0     -22.676 -15.763 -21.428  1.00 42.38 LIG 0.17  C 
ATOM      8 OD2  ASP D   0     -22.907 -15.059 -22.436  1.00 47.85 LIG-0.65  OA
ATOM      9 OD1  ASP D   0     -22.656 -15.307 -20.267  1.00 32.99 LIG-0.65  OA
ENDBRANCH 6 7
ENDBRANCH 5 6
BRANCH 5 10
ATOM     10  N   ASP D   0     -20.110 -16.905 -22.365  1.00 53.06 LIG-0.34  N 
ATOM     11 H    ASP D   0     -19.488 -16.431 -22.006  1.00 53.06 LIG 0.16  HD
ATOM     12  C   ASP D  -1     -20.303 -16.989 -23.680  1.00 52.15 LIG 0.25  C 
ATOM     13 O    ASP D  -1     -21.323 -17.469 -24.192  1.00 47.49 LIG-0.27  OA
BRANCH 12 14
ATOM     14  CA  ASP D  -1     -19.176 -16.438 -24.550  1.00 59.57 LIG 0.28  C 
BRANCH 14 15
ATOM     15  N   ASP D  -1     -19.733 -15.692 -25.676  1.00 50.06 LIG-0.07  N 
ATOM     16 H3   ASP D  -1     -20.401 -16.155 -26.037  1.00 50.06 LIG 0.28  HD
ATOM     17 H2   ASP D  -1     -19.100 -15.558 -26.287  1.00 50.06 LIG 0.28  HD
ATOM     18 H1   ASP D  -1     -20.039 -14.906 -25.389  1.00 50.06 LIG 0.28  HD
ENDBRANCH 14 15
BRANCH 14 19
ATOM     19  CB  ASP D  -1     -18.235 -15.553 -23.730  1.00 60.46 LIG 0.15  C 
BRANCH 19 20
ATOM     20  CG  ASP D  -1     -18.772 -14.151 -23.535  1.00 56.39 LIG 0.17  C 
ATOM     21 OD1  ASP D  -1     -19.992 -13.951 -23.729  1.00 65.47 LIG-0.65  OA
ATOM     22 OD2  ASP D  -1     -17.977 -13.254 -23.175  1.00 48.71 LIG-0.65  OA
ENDBRANCH 19 20
ENDBRANCH 14 19
ENDBRANCH 12 14
ENDBRANCH 5 10
ENDBRANCH 1 5
BRANCH 3 23
ATOM     23  CA  ASP D   1     -21.818 -21.292 -22.112  1.00 46.44 LIG 0.19  C 
BRANCH 23 24
ATOM     24  C   ASP D   1     -21.508 -22.073 -20.845  1.00 38.24 LIG 0.24  C 
ATOM     25 O    ASP D   1     -20.783 -21.593 -19.979  1.00 48.73 LIG-0.27  OA
ATOM     26  N   MET D   2     -22.090 -23.260 -20.720  1.00 47.06 LIG-0.35  N 
ATOM     27 H    MET D   2     -22.509 -23.664 -21.352  1.00 47.06 LIG 0.16  HD
BRANCH 26 28
ATOM     28  CA  MET D   2     -22.054 -23.982 -19.449  1.00 48.57 LIG 0.16  C 
BRANCH 28 29
ATOM     29  C   MET D   2     -21.441 -25.371 -19.585  1.00 49.60 LIG 0.22  C 
ATOM     30 O    MET D   2     -21.535 -25.994 -20.644  1.00 49.04 LIG-0.29  OA
ENDBRANCH 28 29
BRANCH 28 31
ATOM     31  CB  MET D   2     -23.469 -24.087 -18.865  1.00 43.71 LIG 0.04  C 
BRANCH 31 32
ATOM     32  CG  MET D   2     -24.443 -23.049 -19.377  1.00 45.96 LIG 0.08  C 
BRANCH 32 33
ATOM     33 SD   MET D   2     -24.278 -21.483 -18.493  1.00 73.43 LIG-0.17  SA
ATOM     34  CE  MET D   2     -24.749 -20.324 -19.779  1.00 57.46 LIG 0.09  C 
ENDBRANCH 32 33
ENDBRANCH 31 32
ENDBRANCH 28 31
ENDBRANCH 26 28
ENDBRANCH 23 24
BRANCH 23 35
ATOM     35  CB  ASP D   1     -20.745 -21.654 -23.154  1.00 44.28 LIG 0.15  C 
BRANCH 35 36
ATOM     36  CG  ASP D   1     -19.621 -22.505 -22.594  1.00 47.95 LIG 0.17  C 
ATOM     37 OD1  ASP D   1     -19.699 -23.753 -22.670  1.00 49.71 LIG-0.65  OA
ATOM     38 OD2  ASP D   1     -18.655 -21.907 -22.060  1.00 42.29 LIG-0.65  OA
ENDBRANCH 35 36
ENDBRANCH 23 35
ENDBRANCH 3 23
TORSDOF 17
ENDMDL
MODEL 33
USER: ADFR SOLUTION from run 12
USER: SCORE 12.222342 LL:  -2.638 LR: -10.853 RR:   0.000 FEB:  -5.782
USER: RMSD 1.777394
USER: SEED 874085
USER: STATUS no improvement in best in 18 clusters for 5 generations
USER: GENES 19
USER: genes 0 Translation |==|  0.45810 0.48954 0.47240
USER: genes 1 Rotation |==|  0.41864 0.37752 0.66288 0.94927
USER: genes 2 Torsion [N]-C--CA-[N] |==|  0.19995
USER: genes 3 Torsion [C]-CA--CB-[CG] |==|  0.25285
USER: genes 4 Torsion [CA]-CB--CG-[OD2] |==|  0.41845
USER: genes 5 Torsion [C]-CA--N-[C] |==|  0.60902
USER: genes 6 Torsion [N]-C--CA-[N] |==|  0.54343
USER: genes 7 Torsion [C]-CA--N-[H3] |==|  0.21936
USER: genes 8 Torsion [C]-CA--CB-[CG] |==|  0.79374
USER: genes 9 Torsion [CA]-CB--CG-[OD2] |==|  0.93744
USER: genes 10 Torsion [C]-N--CA-[CB] |==|  0.51667
USER: genes 11 Torsion [N]-CA--C-[N] |==|  0.29511
USER: genes 12 Torsion [C]-N--CA-[C] |==|  0.54671
USER: genes 13 Torsion [N]-CA--C-[O] |==|  0.23193
USER: genes 14 Torsion [N]-CA--CB-[CG] |==|  0.74402
USER: genes 15 Torsion [CA]-CB--CG-[SD] |==|  0.78512
USER: genes 16 Torsion [CB]-CG--SD-[CE] |==|  0.34244
USER: genes 17 Torsion [N]-CA--CB-[CG] |==|  0.86493
USER: genes 18 Torsion [CA]-CB--CG-[OD1] |==|  0.94506
ROOT
ATOM      1  C   ASP D   0     -19.455 -18.358 -23.850  1.00 50.85 LIG 0.24  C 
ATOM      2 O    ASP D   0     -19.485 -18.968 -24.923  1.00 49.73 LIG-0.27  OA
ATOM      3  N   ASP D   1     -18.964 -17.119 -23.728  1.00 47.66 LIG-0.34  N 
ATOM      4 H    ASP D   1     -19.005 -16.660 -23.002  1.00 47.66 LIG 0.16  HD
ENDROOT
BRANCH 1 5
ATOM      5  CA  ASP D   0     -19.983 -19.030 -22.578  1.00 50.32 LIG 0.19  C 
BRANCH 5 6
ATOM      6  CB  ASP D   0     -20.176 -20.529 -22.836  1.00 50.50 LIG 0.15  C 
BRANCH 6 7
ATOM      7  CG  ASP D   0     -18.950 -21.346 -22.495  1.00 42.38 LIG 0.17  C 
ATOM      8 OD2  ASP D   0     -19.108 -22.530 -22.123  1.00 47.85 LIG-0.65  OA
ATOM      9 OD1  ASP D   0     -17.830 -20.809 -22.603  1.00 32.99 LIG-0.65  OA
ENDBRANCH 6 7
ENDBRANCH 5 6
BRANCH 5 10
ATOM     10  N   ASP D   0     -21.244 -18.455 -22.114  1.00 53.06 LIG-0.34  N 
ATOM     11 H    ASP D   0     -21.791 -18.255 -22.747  1.00 53.06 LIG 0.16  HD
ATOM     12  C   ASP D  -1     -21.513 -18.263 -20.824  1.00 52.15 LIG 0.25  C 
ATOM     13 O    ASP D  -1     -20.658 -18.324 -19.931  1.00 47.49 LIG-0.27  OA
BRANCH 12 14
ATOM     14  CA  ASP D  -1     -22.969 -17.944 -20.492  1.00 59.57 LIG 0.28  C 
BRANCH 14 15
ATOM     15  N   ASP D  -1     -23.066 -17.400 -19.140  1.00 50.06 LIG-0.07  N 
ATOM     16 H3   ASP D  -1     -22.828 -16.542 -19.148  1.00 50.06 LIG 0.28  HD
ATOM     17 H2   ASP D  -1     -22.524 -17.853 -18.598  1.00 50.06 LIG 0.28  HD
ATOM     18 H1   ASP D  -1     -23.904 -17.472 -18.851  1.00 50.06 LIG 0.28  HD
ENDBRANCH 14 15
BRANCH 14 19
ATOM     19  CB  ASP D  -1     -23.561 -16.968 -21.510  1.00 60.46 LIG 0.15  C 
BRANCH 19 20
ATOM     20  CG  ASP D  -1     -23.057 -15.552 -21.324  1.00 56.39 LIG 0.17  C 
ATOM     21 OD1  ASP D  -1     -23.120 -14.767 -22.297  1.00 65.47 LIG-0.65  OA
ATOM     22 OD2  ASP D  -1     -22.611 -15.222 -20.202  1.00 48.71 LIG-0.65  OA
ENDBRANCH 19 20
ENDBRANCH 14 19
ENDBRANCH 12 14
ENDBRANCH 5 10
ENDBRANCH 1 5
BRANCH 3 23
ATOM     23  CA  ASP D   1     -18.299 -16.424 -24.846  1.00 46.44 LIG 0.19  C 
BRANCH 23 24
ATOM     24  C   ASP D   1     -17.176 -17.263 -25.434  1.00 38.24 LIG 0.24  C 
ATOM     25 O    ASP D   1     -16.131 -17.430 -24.812  1.00 48.73 LIG-0.27  OA
ATOM     26  N   MET D   2     -17.407 -17.823 -26.616  1.00 47.06 LIG-0.35  N 
ATOM     27 H    MET D   2     -18.079 -17.634 -27.118  1.00 47.06 LIG 0.16  HD
BRANCH 26 28
ATOM     28  CA  MET D   2     -16.500 -18.834 -27.157  1.00 48.57 LIG 0.16  C 
BRANCH 28 29
ATOM     29  C   MET D   2     -16.693 -19.050 -28.653  1.00 49.60 LIG 0.22  C 
ATOM     30 O    MET D   2     -16.145 -18.306 -29.468  1.00 49.04 LIG-0.29  OA
ENDBRANCH 28 29
BRANCH 28 31
ATOM     31  CB  MET D   2     -16.685 -20.159 -26.407  1.00 43.71 LIG 0.04  C 
BRANCH 31 32
ATOM     32  CG  MET D   2     -15.764 -20.350 -25.222  1.00 45.96 LIG 0.08  C 
BRANCH 32 33
ATOM     33 SD   MET D   2     -14.096 -20.812 -25.738  1.00 73.43 LIG-0.17  SA
ATOM     34  CE  MET D   2     -13.135 -19.507 -24.970  1.00 57.46 LIG 0.09  C 
ENDBRANCH 32 33
ENDBRANCH 31 32
ENDBRANCH 28 31
ENDBRANCH 26 28
ENDBRANCH 23 24
BRANCH 23 35
ATOM     35  CB  ASP D   1     -17.694 -15.077 -24.413  1.00 44.28 LIG 0.15  C 
BRANCH 35 36
ATOM     36  CG  ASP D   1     -18.655 -14.210 -23.621  1.00 47.95 LIG 0.17  C 
ATOM     37 OD1  ASP D   1     -19.886 -14.430 -23.696  1.00 49.71 LIG-0.65  OA
ATOM     38 OD2  ASP D   1     -18.162 -13.290 -22.924  1.00 42.29 LIG-0.65  OA
ENDBRANCH 35 36
ENDBRANCH 23 35
ENDBRANCH 3 23
TORSDOF 17
ENDMDL
MODEL 34
USER: ADFR SOLUTION from run 134
USER: SCORE 12.987332 LL:  -2.575 LR: -10.826 RR:   0.000 FEB:  -5.755
USER: RMSD 6.069610
USER: SEED 133
USER: STATUS no improvement in best in 15 clusters for 5 generations
USER: GENES 19
USER: genes 0 Translation |==|  0.48294 0.52804 0.43221
USER: genes 1 Rotation |==|  0.35021 0.36712 0.13492 0.77680
USER: genes 2 Torsion [N]-C--CA-[N] |==|  0.38627
USER: genes 3 Torsion [C]-CA--CB-[CG] |==|  0.46845
USER: genes 4 Torsion [CA]-CB--CG-[OD2] |==|  0.17474
USER: genes 5 Torsion [C]-CA--N-[C] |==|  0.62535
USER: genes 6 Torsion [N]-C--CA-[N] |==|  0.59870
USER: genes 7 Torsion [C]-CA--N-[H3] |==|  0.00256
USER: genes 8 Torsion [C]-CA--CB-[CG] |==|  0.79028
USER: genes 9 Torsion [CA]-CB--CG-[OD2] |==|  0.82223
USER: genes 10 Torsion [C]-N--CA-[CB] |==|  0.76997
USER: genes 11 Torsion [N]-CA--C-[N] |==|  0.21428
USER: genes 12 Torsion [C]-N--CA-[C] |==|  0.78419
USER: genes 13 Torsion [N]-CA--C-[O] |==|  0.93444
USER: genes 14 Torsion [N]-CA--CB-[CG] |==|  0.13497
USER: genes 15 Torsion [CA]-CB--CG-[SD] |==|  0.33049
USER: genes 16 Torsion [CB]-CG--SD-[CE] |==|  0.19499
USER: genes 17 Torsion [N]-CA--CB-[CG] |==|  0.66740
USER: genes 18 Torsion [CA]-CB--CG-[OD1] |==|  0.57869
ROOT
ATOM      1  C   ASP D   0     -18.933 -17.694 -24.573  1.00 50.85 LIG 0.24  C 
ATOM      2 O    ASP D   0     -18.857 -17.883 -25.791  1.00 49.73 LIG-0.27  OA
ATOM      3  N   ASP D   1     -18.594 -18.620 -23.668  1.00 47.66 LIG-0.34  N 
ATOM      4 H    ASP D   1     -18.575 -18.473 -22.821  1.00 47.66 LIG 0.16  HD
ENDROOT
BRANCH 1 5
ATOM      5  CA  ASP D   0     -19.452 -16.354 -24.042  1.00 50.32 LIG 0.19  C 
BRANCH 5 6
ATOM      6  CB  ASP D   0     -20.983 -16.342 -24.101  1.00 50.50 LIG 0.15  C 
BRANCH 6 7
ATOM      7  CG  ASP D   0     -21.591 -15.178 -23.349  1.00 42.38 LIG 0.17  C 
ATOM      8 OD2  ASP D   0     -21.336 -14.017 -23.741  1.00 47.85 LIG-0.65  OA
ATOM      9 OD1  ASP D   0     -22.325 -15.422 -22.371  1.00 32.99 LIG-0.65  OA
ENDBRANCH 6 7
ENDBRANCH 5 6
BRANCH 5 10
ATOM     10  N   ASP D   0     -18.933 -15.209 -24.787  1.00 53.06 LIG-0.34  N 
ATOM     11 H    ASP D   0     -18.955 -15.308 -25.642  1.00 53.06 LIG 0.16  HD
ATOM     12  C   ASP D  -1     -18.468 -14.114 -24.187  1.00 52.15 LIG 0.25  C 
ATOM     13 O    ASP D  -1     -18.212 -14.054 -22.978  1.00 47.49 LIG-0.27  OA
BRANCH 12 14
ATOM     14  CA  ASP D  -1     -18.250 -12.905 -25.095  1.00 59.57 LIG 0.28  C 
BRANCH 14 15
ATOM     15  N   ASP D  -1     -17.075 -12.157 -24.655  1.00 50.06 LIG-0.07  N 
ATOM     16 H3   ASP D  -1     -16.711 -12.562 -23.952  1.00 50.06 LIG 0.28  HD
ATOM     17 H2   ASP D  -1     -17.317 -11.330 -24.429  1.00 50.06 LIG 0.28  HD
ATOM     18 H1   ASP D  -1     -16.481 -12.121 -25.317  1.00 50.06 LIG 0.28  HD
ENDBRANCH 14 15
BRANCH 14 19
ATOM     19  CB  ASP D  -1     -18.098 -13.337 -26.554  1.00 60.46 LIG 0.15  C 
BRANCH 19 20
ATOM     20  CG  ASP D  -1     -16.745 -13.949 -26.846  1.00 56.39 LIG 0.17  C 
ATOM     21 OD1  ASP D  -1     -16.700 -15.147 -27.206  1.00 65.47 LIG-0.65  OA
ATOM     22 OD2  ASP D  -1     -15.728 -13.228 -26.729  1.00 48.71 LIG-0.65  OA
ENDBRANCH 19 20
ENDBRANCH 14 19
ENDBRANCH 12 14
ENDBRANCH 5 10
ENDBRANCH 1 5
BRANCH 3 23
ATOM     23  CA  ASP D   1     -18.218 -19.993 -24.051  1.00 46.44 LIG 0.19  C 
BRANCH 23 24
ATOM     24  C   ASP D   1     -17.400 -20.010 -25.333  1.00 38.24 LIG 0.24  C 
ATOM     25 O    ASP D   1     -17.925 -20.299 -26.404  1.00 48.73 LIG-0.27  OA
ATOM     26  N   MET D   2     -16.124 -19.659 -25.229  1.00 47.06 LIG-0.35  N 
ATOM     27 H    MET D   2     -15.707 -19.560 -24.484  1.00 47.06 LIG 0.16  HD
BRANCH 26 28
ATOM     28  CA  MET D   2     -15.315 -19.410 -26.423  1.00 48.57 LIG 0.16  C 
BRANCH 28 29
ATOM     29  C   MET D   2     -14.864 -20.699 -27.100  1.00 49.60 LIG 0.22  C 
ATOM     30 O    MET D   2     -14.790 -21.749 -26.460  1.00 49.04 LIG-0.29  OA
ENDBRANCH 28 29
BRANCH 28 31
ATOM     31  CB  MET D   2     -14.096 -18.553 -26.060  1.00 43.71 LIG 0.04  C 
BRANCH 31 32
ATOM     32  CG  MET D   2     -13.320 -19.034 -24.853  1.00 45.96 LIG 0.08  C 
BRANCH 32 33
ATOM     33 SD   MET D   2     -11.616 -19.456 -25.277  1.00 73.43 LIG-0.17  SA
ATOM     34  CE  MET D   2     -10.941 -17.827 -25.603  1.00 57.46 LIG 0.09  C 
ENDBRANCH 32 33
ENDBRANCH 31 32
ENDBRANCH 28 31
ENDBRANCH 26 28
ENDBRANCH 23 24
BRANCH 23 35
ATOM     35  CB  ASP D   1     -19.448 -20.891 -24.274  1.00 44.28 LIG 0.15  C 
BRANCH 35 36
ATOM     36  CG  ASP D   1     -19.493 -22.093 -23.349  1.00 47.95 LIG 0.17  C 
ATOM     37 OD1  ASP D   1     -20.071 -23.138 -23.728  1.00 49.71 LIG-0.65  OA
ATOM     38 OD2  ASP D   1     -18.950 -21.975 -22.224  1.00 42.29 LIG-0.65  OA
ENDBRANCH 35 36
ENDBRANCH 23 35
ENDBRANCH 3 23
TORSDOF 17
ENDMDL
MODEL 35
USER: ADFR SOLUTION from run 130
USER: SCORE 12.179122 LL:  -2.464 LR: -10.835 RR:   0.000 FEB:  -5.764
USER: RMSD 5.278617
USER: SEED 129
USER: STATUS no improvement in best in 11 clusters for 5 generations
USER: GENES 19
USER: genes 0 Translation |==|  0.60590 0.41700 0.40722
USER: genes 1 Rotation |==|  0.69317 0.59577 0.14116 0.77340
USER: genes 2 Torsion [N]-C--CA-[N] |==|  0.58066
USER: genes 3 Torsion [C]-CA--CB-[CG] |==|  0.42865
USER: genes 4 Torsion [CA]-CB--CG-[OD2] |==|  0.50728
USER: genes 5 Torsion [C]-CA--N-[C] |==|  0.13894
USER: genes 6 Torsion [N]-C--CA-[N] |==|  0.93889
USER: genes 7 Torsion [C]-CA--N-[H3] |==|  0.65930
USER: genes 8 Torsion [C]-CA--CB-[CG] |==|  0.52490
USER: genes 9 Torsion [CA]-CB--CG-[OD2] |==|  0.87484
USER: genes 10 Torsion [C]-N--CA-[CB] |==|  0.78552
USER: genes 11 Torsion [N]-CA--C-[N] |==|  0.20282
USER: genes 12 Torsion [C]-N--CA-[C] |==|  0.15355
USER: genes 13 Torsion [N]-CA--C-[O] |==|  0.38892
USER: genes 14 Torsion [N]-CA--CB-[CG] |==|  0.30449
USER: genes 15 Torsion [CA]-CB--CG-[SD] |==|  0.67094
USER: genes 16 Torsion [CB]-CG--SD-[CE] |==|  0.46997
USER: genes 17 Torsion [N]-CA--CB-[CG] |==|  0.85906
USER: genes 18 Torsion [CA]-CB--CG-[OD1] |==|  0.25237
ROOT
ATOM      1  C   ASP D   0     -16.351 -19.610 -25.023  1.00 50.85 LIG 0.24  C 
ATOM      2 O    ASP D   0     -15.893 -18.464 -25.014  1.00 49.73 LIG-0.27  OA
ATOM      3  N   ASP D   1     -15.907 -20.567 -25.847  1.00 47.66 LIG-0.34  N 
ATOM      4 H    ASP D   1     -16.169 -21.386 -25.811  1.00 47.66 LIG 0.16  HD
ENDROOT
BRANCH 1 5
ATOM      5  CA  ASP D   0     -17.491 -19.981 -24.070  1.00 50.32 LIG 0.19  C 
BRANCH 5 6
ATOM      6  CB  ASP D   0     -18.352 -21.077 -24.708  1.00 50.50 LIG 0.15  C 
BRANCH 6 7
ATOM      7  CG  ASP D   0     -19.075 -21.926 -23.686  1.00 42.38 LIG 0.17  C 
ATOM      8 OD2  ASP D   0     -19.769 -22.885 -24.092  1.00 47.85 LIG-0.65  OA
ATOM      9 OD1  ASP D   0     -18.947 -21.639 -22.480  1.00 32.99 LIG-0.65  OA
ENDBRANCH 6 7
ENDBRANCH 5 6
BRANCH 5 10
ATOM     10  N   ASP D   0     -18.340 -18.841 -23.728  1.00 53.06 LIG-0.34  N 
ATOM     11 H    ASP D   0     -18.472 -18.745 -22.883  1.00 53.06 LIG 0.16  HD
ATOM     12  C   ASP D  -1     -18.856 -18.029 -24.649  1.00 52.15 LIG 0.25  C 
ATOM     13 O    ASP D  -1     -18.869 -18.289 -25.859  1.00 47.49 LIG-0.27  OA
BRANCH 12 14
ATOM     14  CA  ASP D  -1     -19.458 -16.729 -24.121  1.00 59.57 LIG 0.28  C 
BRANCH 14 15
ATOM     15  N   ASP D  -1     -19.804 -16.876 -22.710  1.00 50.06 LIG-0.07  N 
ATOM     16 H3   ASP D  -1     -20.670 -16.704 -22.597  1.00 50.06 LIG 0.28  HD
ATOM     17 H2   ASP D  -1     -19.323 -16.305 -22.225  1.00 50.06 LIG 0.28  HD
ATOM     18 H1   ASP D  -1     -19.631 -17.708 -22.447  1.00 50.06 LIG 0.28  HD
ENDBRANCH 14 15
BRANCH 14 19
ATOM     19  CB  ASP D  -1     -18.493 -15.559 -24.320  1.00 60.46 LIG 0.15  C 
BRANCH 19 20
ATOM     20  CG  ASP D  -1     -18.951 -14.297 -23.622  1.00 56.39 LIG 0.17  C 
ATOM     21 OD1  ASP D  -1     -18.106 -13.634 -22.979  1.00 65.47 LIG-0.65  OA
ATOM     22 OD2  ASP D  -1     -20.152 -13.960 -23.728  1.00 48.71 LIG-0.65  OA
ENDBRANCH 19 20
ENDBRANCH 14 19
ENDBRANCH 12 14
ENDBRANCH 5 10
ENDBRANCH 1 5
BRANCH 3 23
ATOM     23  CA  ASP D   1     -14.916 -20.296 -26.904  1.00 46.44 LIG 0.19  C 
BRANCH 23 24
ATOM     24  C   ASP D   1     -13.789 -19.410 -26.398  1.00 38.24 LIG 0.24  C 
ATOM     25 O    ASP D   1     -13.735 -18.227 -26.718  1.00 48.73 LIG-0.27  OA
ATOM     26  N   MET D   2     -12.913 -19.973 -25.574  1.00 47.06 LIG-0.35  N 
ATOM     27 H    MET D   2     -12.863 -20.818 -25.423  1.00 47.06 LIG 0.16  HD
BRANCH 26 28
ATOM     28  CA  MET D   2     -11.939 -19.161 -24.846  1.00 48.57 LIG 0.16  C 
BRANCH 28 29
ATOM     29  C   MET D   2     -12.599 -18.062 -24.021  1.00 49.60 LIG 0.22  C 
ATOM     30 O    MET D   2     -12.181 -17.790 -22.894  1.00 49.04 LIG-0.29  OA
ENDBRANCH 28 29
BRANCH 28 31
ATOM     31  CB  MET D   2     -10.930 -18.548 -25.825  1.00 43.71 LIG 0.04  C 
BRANCH 31 32
ATOM     32  CG  MET D   2     -11.060 -17.052 -26.015  1.00 45.96 LIG 0.08  C 
BRANCH 32 33
ATOM     33 SD   MET D   2     -11.450 -16.627 -27.726  1.00 73.43 LIG-0.17  SA
ATOM     34  CE  MET D   2     -11.856 -14.888 -27.553  1.00 57.46 LIG 0.09  C 
ENDBRANCH 32 33
ENDBRANCH 31 32
ENDBRANCH 28 31
ENDBRANCH 26 28
ENDBRANCH 23 24
BRANCH 23 35
ATOM     35  CB  ASP D   1     -15.544 -19.598 -28.123  1.00 44.28 LIG 0.15  C 
BRANCH 35 36
ATOM     36  CG  ASP D   1     -16.785 -20.295 -28.646  1.00 47.95 LIG 0.17  C 
ATOM     37 OD1  ASP D   1     -17.909 -19.962 -28.203  1.00 49.71 LIG-0.65  OA
ATOM     38 OD2  ASP D   1     -16.623 -21.197 -29.504  1.00 42.29 LIG-0.65  OA
ENDBRANCH 35 36
ENDBRANCH 23 35
ENDBRANCH 3 23
TORSDOF 17
ENDMDL
MODEL 36
USER: ADFR SOLUTION from run 197
USER: SCORE 13.535346 LL:  -3.025 LR: -10.825 RR:   0.000 FEB:  -5.754
USER: RMSD 5.485513
USER: SEED 196
USER: STATUS no improvement in best in 10 clusters for 5 generations
USER: GENES 19
USER: genes 0 Translation |==|  0.42791 0.45546 0.57411
USER: genes 1 Rotation |==|  0.08366 0.53907 0.57857 0.76261
USER: genes 2 Torsion [N]-C--CA-[N] |==|  0.05009
USER: genes 3 Torsion [C]-CA--CB-[CG] |==|  0.49752
USER: genes 4 Torsion [CA]-CB--CG-[OD2] |==|  0.76466
USER: genes 5 Torsion [C]-CA--N-[C] |==|  0.18214
USER: genes 6 Torsion [N]-C--CA-[N] |==|  0.65247
USER: genes 7 Torsion [C]-CA--N-[H3] |==|  0.90752
USER: genes 8 Torsion [C]-CA--CB-[CG] |==|  0.78752
USER: genes 9 Torsion [CA]-CB--CG-[OD2] |==|  0.46447
USER: genes 10 Torsion [C]-N--CA-[CB] |==|  0.16186
USER: genes 11 Torsion [N]-CA--C-[N] |==|  0.07743
USER: genes 12 Torsion [C]-N--CA-[C] |==|  0.69279
USER: genes 13 Torsion [N]-CA--C-[O] |==|  0.68069
USER: genes 14 Torsion [N]-CA--CB-[CG] |==|  0.65643
USER: genes 15 Torsion [CA]-CB--CG-[SD] |==|  0.13289
USER: genes 16 Torsion [CB]-CG--SD-[CE] |==|  0.15975
USER: genes 17 Torsion [N]-CA--CB-[CG] |==|  0.63059
USER: genes 18 Torsion [CA]-CB--CG-[OD1] |==|  0.55774
ROOT
ATOM      1  C   ASP D   0     -20.089 -18.946 -22.019  1.00 50.85 LIG 0.24  C 
ATOM      2 O    ASP D   0     -20.669 -19.853 -21.414  1.00 49.73 LIG-0.27  OA
ATOM      3  N   ASP D   1     -19.148 -19.172 -22.944  1.00 47.66 LIG-0.34  N 
ATOM      4 H    ASP D   1     -18.791 -18.552 -23.421  1.00 47.66 LIG 0.16  HD
ENDROOT
BRANCH 1 5
ATOM      5  CA  ASP D   0     -20.428 -17.485 -21.708  1.00 50.32 LIG 0.19  C 
BRANCH 5 6
ATOM      6  CB  ASP D   0     -21.944 -17.342 -21.525  1.00 50.50 LIG 0.15  C 
BRANCH 6 7
ATOM      7  CG  ASP D   0     -22.365 -15.928 -21.193  1.00 42.38 LIG 0.17  C 
ATOM      8 OD2  ASP D   0     -22.325 -15.560 -19.998  1.00 47.85 LIG-0.65  OA
ATOM      9 OD1  ASP D   0     -22.729 -15.184 -22.124  1.00 32.99 LIG-0.65  OA
ENDBRANCH 6 7
ENDBRANCH 5 6
BRANCH 5 10
ATOM     10  N   ASP D   0     -19.981 -16.564 -22.751  1.00 53.06 LIG-0.34  N 
ATOM     11 H    ASP D   0     -19.366 -16.019 -22.496  1.00 53.06 LIG 0.16  HD
ATOM     12  C   ASP D  -1     -20.486 -16.576 -23.984  1.00 52.15 LIG 0.25  C 
ATOM     13 O    ASP D  -1     -21.519 -17.183 -24.293  1.00 47.49 LIG-0.27  OA
BRANCH 12 14
ATOM     14  CA  ASP D  -1     -19.711 -15.770 -25.024  1.00 59.57 LIG 0.28  C 
BRANCH 14 15
ATOM     15  N   ASP D  -1     -20.597 -14.807 -25.672  1.00 50.06 LIG-0.07  N 
ATOM     16 H3   ASP D  -1     -21.417 -15.150 -25.729  1.00 50.06 LIG 0.28  HD
ATOM     17 H2   ASP D  -1     -20.293 -14.626 -26.489  1.00 50.06 LIG 0.28  HD
ATOM     18 H1   ASP D  -1     -20.623 -14.058 -25.192  1.00 50.06 LIG 0.28  HD
ENDBRANCH 14 15
BRANCH 14 19
ATOM     19  CB  ASP D  -1     -18.517 -15.058 -24.385  1.00 60.46 LIG 0.15  C 
BRANCH 19 20
ATOM     20  CG  ASP D  -1     -18.920 -13.831 -23.596  1.00 56.39 LIG 0.17  C 
ATOM     21 OD1  ASP D  -1     -20.087 -13.399 -23.728  1.00 65.47 LIG-0.65  OA
ATOM     22 OD2  ASP D  -1     -18.076 -13.309 -22.834  1.00 48.71 LIG-0.65  OA
ENDBRANCH 19 20
ENDBRANCH 14 19
ENDBRANCH 12 14
ENDBRANCH 5 10
ENDBRANCH 1 5
BRANCH 3 23
ATOM     23  CA  ASP D   1     -18.634 -20.525 -23.229  1.00 46.44 LIG 0.19  C 
BRANCH 23 24
ATOM     24  C   ASP D   1     -17.594 -20.503 -24.337  1.00 38.24 LIG 0.24  C 
ATOM     25 O    ASP D   1     -17.451 -21.472 -25.076  1.00 48.73 LIG-0.27  OA
ATOM     26  N   MET D   2     -16.897 -19.382 -24.478  1.00 47.06 LIG-0.35  N 
ATOM     27 H    MET D   2     -16.898 -18.735 -23.911  1.00 47.06 LIG 0.16  HD
BRANCH 26 28
ATOM     28  CA  MET D   2     -16.050 -19.168 -25.651  1.00 48.57 LIG 0.16  C 
BRANCH 28 29
ATOM     29  C   MET D   2     -14.564 -19.192 -25.309  1.00 49.60 LIG 0.22  C 
ATOM     30 O    MET D   2     -13.877 -18.178 -25.442  1.00 49.04 LIG-0.29  OA
ENDBRANCH 28 29
BRANCH 28 31
ATOM     31  CB  MET D   2     -16.412 -17.839 -26.324  1.00 43.71 LIG 0.04  C 
BRANCH 31 32
ATOM     32  CG  MET D   2     -16.795 -17.952 -27.784  1.00 45.96 LIG 0.08  C 
BRANCH 32 33
ATOM     33 SD   MET D   2     -17.991 -19.276 -28.061  1.00 73.43 LIG-0.17  SA
ATOM     34  CE  MET D   2     -19.318 -18.760 -26.970  1.00 57.46 LIG 0.09  C 
ENDBRANCH 32 33
ENDBRANCH 31 32
ENDBRANCH 28 31
ENDBRANCH 26 28
ENDBRANCH 23 24
BRANCH 23 35
ATOM     35  CB  ASP D   1     -19.751 -21.491 -23.659  1.00 44.28 LIG 0.15  C 
BRANCH 35 36
ATOM     36  CG  ASP D   1     -19.701 -22.829 -22.945  1.00 47.95 LIG 0.17  C 
ATOM     37 OD1  ASP D   1     -20.274 -23.819 -23.454  1.00 49.71 LIG-0.65  OA
ATOM     38 OD2  ASP D   1     -19.085 -22.876 -21.852  1.00 42.29 LIG-0.65  OA
ENDBRANCH 35 36
ENDBRANCH 23 35
ENDBRANCH 3 23
TORSDOF 17
ENDMDL
MODEL 37
USER: ADFR SOLUTION from run 12
USER: SCORE 13.518296 LL:  -2.804 LR: -10.801 RR:   0.000 FEB:  -5.729
USER: RMSD 5.621030
USER: SEED 874085
USER: STATUS no improvement in best in 18 clusters for 5 generations
USER: GENES 19
USER: genes 0 Translation |==|  0.56477 0.53310 0.38647
USER: genes 1 Rotation |==|  0.47703 0.35936 0.14124 0.81778
USER: genes 2 Torsion [N]-C--CA-[N] |==|  0.94710
USER: genes 3 Torsion [C]-CA--CB-[CG] |==|  0.50390
USER: genes 4 Torsion [CA]-CB--CG-[OD2] |==|  0.98700
USER: genes 5 Torsion [C]-CA--N-[C] |==|  0.82623
USER: genes 6 Torsion [N]-C--CA-[N] |==|  0.44193
USER: genes 7 Torsion [C]-CA--N-[H3] |==|  0.99795
USER: genes 8 Torsion [C]-CA--CB-[CG] |==|  0.79107
USER: genes 9 Torsion [CA]-CB--CG-[OD2] |==|  0.31108
USER: genes 10 Torsion [C]-N--CA-[CB] |==|  0.85556
USER: genes 11 Torsion [N]-CA--C-[N] |==|  0.35480
USER: genes 12 Torsion [C]-N--CA-[C] |==|  0.13179
USER: genes 13 Torsion [N]-CA--C-[O] |==|  0.20016
USER: genes 14 Torsion [N]-CA--CB-[CG] |==|  0.89846
USER: genes 15 Torsion [CA]-CB--CG-[SD] |==|  0.87924
USER: genes 16 Torsion [CB]-CG--SD-[CE] |==|  0.48718
USER: genes 17 Torsion [N]-CA--CB-[CG] |==|  0.62517
USER: genes 18 Torsion [CA]-CB--CG-[OD1] |==|  0.85987
ROOT
ATOM      1  C   ASP D   0     -17.215 -17.607 -25.397  1.00 50.85 LIG 0.24  C 
ATOM      2 O    ASP D   0     -16.741 -17.354 -26.508  1.00 49.73 LIG-0.27  OA
ATOM      3  N   ASP D   1     -16.869 -18.686 -24.684  1.00 47.66 LIG-0.34  N 
ATOM      4 H    ASP D   1     -17.138 -18.833 -23.880  1.00 47.66 LIG 0.16  HD
ENDROOT
BRANCH 1 5
ATOM      5  CA  ASP D   0     -18.261 -16.670 -24.784  1.00 50.32 LIG 0.19  C 
BRANCH 5 6
ATOM      6  CB  ASP D   0     -17.562 -15.430 -24.215  1.00 50.50 LIG 0.15  C 
BRANCH 6 7
ATOM      7  CG  ASP D   0     -18.523 -14.464 -23.558  1.00 42.38 LIG 0.17  C 
ATOM      8 OD2  ASP D   0     -19.748 -14.709 -23.618  1.00 47.85 LIG-0.65  OA
ATOM      9 OD1  ASP D   0     -18.054 -13.464 -22.978  1.00 32.99 LIG-0.65  OA
ENDBRANCH 6 7
ENDBRANCH 5 6
BRANCH 5 10
ATOM     10  N   ASP D   0     -19.045 -17.308 -23.728  1.00 53.06 LIG-0.34  N 
ATOM     11 H    ASP D   0     -18.952 -16.942 -22.954  1.00 53.06 LIG 0.16  HD
ATOM     12  C   ASP D  -1     -19.829 -18.360 -23.953  1.00 52.15 LIG 0.25  C 
ATOM     13 O    ASP D  -1     -19.790 -19.033 -24.991  1.00 47.49 LIG-0.27  OA
BRANCH 12 14
ATOM     14  CA  ASP D  -1     -20.801 -18.712 -22.828  1.00 59.57 LIG 0.28  C 
BRANCH 14 15
ATOM     15  N   ASP D  -1     -21.902 -19.516 -23.354  1.00 50.06 LIG-0.07  N 
ATOM     16 H3   ASP D  -1     -21.794 -19.632 -24.230  1.00 50.06 LIG 0.28  HD
ATOM     17 H2   ASP D  -1     -22.674 -19.097 -23.204  1.00 50.06 LIG 0.28  HD
ATOM     18 H1   ASP D  -1     -21.911 -20.308 -22.949  1.00 50.06 LIG 0.28  HD
ENDBRANCH 14 15
BRANCH 14 19
ATOM     19  CB  ASP D  -1     -20.085 -19.454 -21.699  1.00 60.46 LIG 0.15  C 
BRANCH 19 20
ATOM     20  CG  ASP D  -1     -19.773 -20.893 -22.048  1.00 56.39 LIG 0.17  C 
ATOM     21 OD1  ASP D  -1     -20.729 -21.690 -22.186  1.00 65.47 LIG-0.65  OA
ATOM     22 OD2  ASP D  -1     -18.576 -21.224 -22.199  1.00 48.71 LIG-0.65  OA
ENDBRANCH 19 20
ENDBRANCH 14 19
ENDBRANCH 12 14
ENDBRANCH 5 10
ENDBRANCH 1 5
BRANCH 3 23
ATOM     23  CA  ASP D   1     -15.983 -19.734 -25.225  1.00 46.44 LIG 0.19  C 
BRANCH 23 24
ATOM     24  C   ASP D   1     -14.562 -19.224 -25.402  1.00 38.24 LIG 0.24  C 
ATOM     25 O    ASP D   1     -14.347 -18.172 -25.997  1.00 48.73 LIG-0.27  OA
ATOM     26  N   MET D   2     -13.595 -19.949 -24.851  1.00 47.06 LIG-0.35  N 
ATOM     27 H    MET D   2     -13.705 -20.738 -24.529  1.00 47.06 LIG 0.16  HD
BRANCH 26 28
ATOM     28  CA  MET D   2     -12.231 -19.431 -24.756  1.00 48.57 LIG 0.16  C 
BRANCH 28 29
ATOM     29  C   MET D   2     -12.185 -18.007 -24.213  1.00 49.60 LIG 0.22  C 
ATOM     30 O    MET D   2     -12.422 -17.783 -23.025  1.00 49.04 LIG-0.29  OA
ENDBRANCH 28 29
BRANCH 28 31
ATOM     31  CB  MET D   2     -11.550 -19.491 -26.129  1.00 43.71 LIG 0.04  C 
BRANCH 31 32
ATOM     32  CG  MET D   2     -11.912 -20.701 -26.962  1.00 45.96 LIG 0.08  C 
BRANCH 32 33
ATOM     33 SD   MET D   2     -11.920 -22.215 -25.976  1.00 73.43 LIG-0.17  SA
ATOM     34  CE  MET D   2     -12.509 -23.398 -27.189  1.00 57.46 LIG 0.09  C 
ENDBRANCH 32 33
ENDBRANCH 31 32
ENDBRANCH 28 31
ENDBRANCH 26 28
ENDBRANCH 23 24
BRANCH 23 35
ATOM     35  CB  ASP D   1     -16.464 -20.253 -26.591  1.00 44.28 LIG 0.15  C 
BRANCH 35 36
ATOM     36  CG  ASP D   1     -16.429 -21.765 -26.709  1.00 47.95 LIG 0.17  C 
ATOM     37 OD1  ASP D   1     -15.384 -22.381 -26.400  1.00 49.71 LIG-0.65  OA
ATOM     38 OD2  ASP D   1     -17.466 -22.335 -27.129  1.00 42.29 LIG-0.65  OA
ENDBRANCH 35 36
ENDBRANCH 23 35
ENDBRANCH 3 23
TORSDOF 17
ENDMDL
MODEL 38
USER: ADFR SOLUTION from run 42
USER: SCORE 12.139857 LL:  -3.117 LR: -10.801 RR:   0.000 FEB:  -5.730
USER: RMSD 8.567269
USER: SEED 41
USER: STATUS no improvement in best in 17 clusters for 5 generations
USER: GENES 19
USER: genes 0 Translation |==|  0.35461 0.47500 0.67728
USER: genes 1 Rotation |==|  0.88656 0.71636 0.66318 0.66473
USER: genes 2 Torsion [N]-C--CA-[N] |==|  0.95838
USER: genes 3 Torsion [C]-CA--CB-[CG] |==|  0.60208
USER: genes 4 Torsion [CA]-CB--CG-[OD2] |==|  0.38362
USER: genes 5 Torsion [C]-CA--N-[C] |==|  0.74678
USER: genes 6 Torsion [N]-C--CA-[N] |==|  0.12946
USER: genes 7 Torsion [C]-CA--N-[H3] |==|  0.63846
USER: genes 8 Torsion [C]-CA--CB-[CG] |==|  0.34421
USER: genes 9 Torsion [CA]-CB--CG-[OD2] |==|  0.14568
USER: genes 10 Torsion [C]-N--CA-[CB] |==|  0.42051
USER: genes 11 Torsion [N]-CA--C-[N] |==|  0.24336
USER: genes 12 Torsion [C]-N--CA-[C] |==|  0.18042
USER: genes 13 Torsion [N]-CA--C-[O] |==|  0.00852
USER: genes 14 Torsion [N]-CA--CB-[CG] |==|  0.35647
USER: genes 15 Torsion [CA]-CB--CG-[SD] |==|  0.65242
USER: genes 16 Torsion [CB]-CG--SD-[CE] |==|  0.74784
USER: genes 17 Torsion [N]-CA--CB-[CG] |==|  0.55623
USER: genes 18 Torsion [CA]-CB--CG-[OD1] |==|  0.52377
ROOT
ATOM      1  C   ASP D   0     -21.628 -18.609 -20.162  1.00 50.85 LIG 0.24  C 
ATOM      2 O    ASP D   0     -22.680 -19.108 -19.750  1.00 49.73 LIG-0.27  OA
ATOM      3  N   ASP D   1     -20.863 -17.802 -19.418  1.00 47.66 LIG-0.34  N 
ATOM      4 H    ASP D   1     -20.094 -17.509 -19.669  1.00 47.66 LIG 0.16  HD
ENDROOT
BRANCH 1 5
ATOM      5  CA  ASP D   0     -21.158 -18.897 -21.591  1.00 50.32 LIG 0.19  C 
BRANCH 5 6
ATOM      6  CB  ASP D   0     -20.624 -20.331 -21.673  1.00 50.50 LIG 0.15  C 
BRANCH 6 7
ATOM      7  CG  ASP D   0     -19.430 -20.462 -22.592  1.00 42.38 LIG 0.17  C 
ATOM      8 OD2  ASP D   0     -18.472 -21.180 -22.226  1.00 47.85 LIG-0.65  OA
ATOM      9 OD1  ASP D   0     -19.449 -19.854 -23.679  1.00 32.99 LIG-0.65  OA
ENDBRANCH 6 7
ENDBRANCH 5 6
BRANCH 5 10
ATOM     10  N   ASP D   0     -20.122 -17.971 -22.046  1.00 53.06 LIG-0.34  N 
ATOM     11 H    ASP D   0     -19.321 -18.225 -21.861  1.00 53.06 LIG 0.16  HD
ATOM     12  C   ASP D  -1     -20.404 -16.838 -22.688  1.00 52.15 LIG 0.25  C 
ATOM     13 O    ASP D  -1     -21.541 -16.352 -22.749  1.00 47.49 LIG-0.27  OA
BRANCH 12 14
ATOM     14  CA  ASP D  -1     -19.219 -16.144 -23.354  1.00 59.57 LIG 0.28  C 
BRANCH 14 15
ATOM     15  N   ASP D  -1     -18.427 -17.117 -24.103  1.00 50.06 LIG-0.07  N 
ATOM     16 H3   ASP D  -1     -17.569 -17.032 -23.885  1.00 50.06 LIG 0.28  HD
ATOM     17 H2   ASP D  -1     -18.527 -16.973 -24.976  1.00 50.06 LIG 0.28  HD
ATOM     18 H1   ASP D  -1     -18.703 -17.939 -23.905  1.00 50.06 LIG 0.28  HD
ENDBRANCH 14 15
BRANCH 14 19
ATOM     19  CB  ASP D  -1     -19.692 -15.014 -24.271  1.00 60.46 LIG 0.15  C 
BRANCH 19 20
ATOM     20  CG  ASP D  -1     -19.071 -13.679 -23.922  1.00 56.39 LIG 0.17  C 
ATOM     21 OD1  ASP D  -1     -19.832 -12.704 -23.728  1.00 65.47 LIG-0.65  OA
ATOM     22 OD2  ASP D  -1     -17.825 -13.608 -23.828  1.00 48.71 LIG-0.65  OA
ENDBRANCH 19 20
ENDBRANCH 14 19
ENDBRANCH 12 14
ENDBRANCH 5 10
ENDBRANCH 1 5
BRANCH 3 23
ATOM     23  CA  ASP D   1     -21.278 -17.337 -18.081  1.00 46.44 LIG 0.19  C 
BRANCH 23 24
ATOM     24  C   ASP D   1     -22.099 -16.060 -18.166  1.00 38.24 LIG 0.24  C 
ATOM     25 O    ASP D   1     -21.551 -14.963 -18.118  1.00 48.73 LIG-0.27  OA
ATOM     26  N   MET D   2     -23.408 -16.204 -18.333  1.00 47.06 LIG-0.35  N 
ATOM     27 H    MET D   2     -23.827 -16.951 -18.259  1.00 47.06 LIG 0.16  HD
BRANCH 26 28
ATOM     28  CA  MET D   2     -24.252 -15.056 -18.664  1.00 48.57 LIG 0.16  C 
BRANCH 28 29
ATOM     29  C   MET D   2     -23.926 -14.469 -20.032  1.00 49.60 LIG 0.22  C 
ATOM     30 O    MET D   2     -23.074 -14.995 -20.751  1.00 49.04 LIG-0.29  OA
ENDBRANCH 28 29
BRANCH 28 31
ATOM     31  CB  MET D   2     -24.116 -13.976 -17.584  1.00 43.71 LIG 0.04  C 
BRANCH 31 32
ATOM     32  CG  MET D   2     -23.794 -12.594 -18.107  1.00 45.96 LIG 0.08  C 
BRANCH 32 33
ATOM     33 SD   MET D   2     -22.311 -11.914 -17.332  1.00 73.43 LIG-0.17  SA
ATOM     34  CE  MET D   2     -23.031 -11.056 -15.931  1.00 57.46 LIG 0.09  C 
ENDBRANCH 32 33
ENDBRANCH 31 32
ENDBRANCH 28 31
ENDBRANCH 26 28
ENDBRANCH 23 24
BRANCH 23 35
ATOM     35  CB  ASP D   1     -20.074 -17.055 -17.165  1.00 44.28 LIG 0.15  C 
BRANCH 35 36
ATOM     36  CG  ASP D   1     -20.425 -17.053 -15.690  1.00 47.95 LIG 0.17  C 
ATOM     37 OD1  ASP D   1     -19.570 -16.678 -14.855  1.00 49.71 LIG-0.65  OA
ATOM     38 OD2  ASP D   1     -21.574 -17.446 -15.370  1.00 42.29 LIG-0.65  OA
ENDBRANCH 35 36
ENDBRANCH 23 35
ENDBRANCH 3 23
TORSDOF 17
ENDMDL
MODEL 39
USER: ADFR SOLUTION from run 4
USER: SCORE 12.648540 LL:  -2.291 LR: -10.793 RR:   0.000 FEB:  -5.722
USER: RMSD 5.468946
USER: SEED 338749
USER: STATUS no improvement in best in 21 clusters for 5 generations
USER: GENES 19
USER: genes 0 Translation |==|  0.46375 0.48064 0.45747
USER: genes 1 Rotation |==|  0.26602 0.39790 0.20068 0.80860
USER: genes 2 Torsion [N]-C--CA-[N] |==|  0.37536
USER: genes 3 Torsion [C]-CA--CB-[CG] |==|  0.50955
USER: genes 4 Torsion [CA]-CB--CG-[OD2] |==|  0.66843
USER: genes 5 Torsion [C]-CA--N-[C] |==|  0.82043
USER: genes 6 Torsion [N]-C--CA-[N] |==|  0.94070
USER: genes 7 Torsion [C]-CA--N-[H3] |==|  0.25234
USER: genes 8 Torsion [C]-CA--CB-[CG] |==|  0.83735
USER: genes 9 Torsion [CA]-CB--CG-[OD2] |==|  0.80525
USER: genes 10 Torsion [C]-N--CA-[CB] |==|  0.85991
USER: genes 11 Torsion [N]-CA--C-[N] |==|  0.31671
USER: genes 12 Torsion [C]-N--CA-[C] |==|  0.74279
USER: genes 13 Torsion [N]-CA--C-[O] |==|  0.65320
USER: genes 14 Torsion [N]-CA--CB-[CG] |==|  0.66623
USER: genes 15 Torsion [CA]-CB--CG-[SD] |==|  0.60852
USER: genes 16 Torsion [CB]-CG--SD-[CE] |==|  0.53787
USER: genes 17 Torsion [N]-CA--CB-[CG] |==|  0.68676
USER: genes 18 Torsion [CA]-CB--CG-[OD1] |==|  0.58238
ROOT
ATOM      1  C   ASP D   0     -19.336 -18.512 -24.118  1.00 50.85 LIG 0.24  C 
ATOM      2 O    ASP D   0     -19.738 -18.873 -25.228  1.00 49.73 LIG-0.27  OA
ATOM      3  N   ASP D   1     -18.534 -19.262 -23.353  1.00 47.66 LIG-0.34  N 
ATOM      4 H    ASP D   1     -18.191 -18.990 -22.612  1.00 47.66 LIG 0.16  HD
ENDROOT
BRANCH 1 5
ATOM      5  CA  ASP D   0     -19.770 -17.155 -23.557  1.00 50.32 LIG 0.19  C 
BRANCH 5 6
ATOM      6  CB  ASP D   0     -21.215 -17.251 -23.052  1.00 50.50 LIG 0.15  C 
BRANCH 6 7
ATOM      7  CG  ASP D   0     -21.753 -15.928 -22.554  1.00 42.38 LIG 0.17  C 
ATOM      8 OD2  ASP D   0     -22.115 -15.843 -21.360  1.00 47.85 LIG-0.65  OA
ATOM      9 OD1  ASP D   0     -21.810 -14.973 -23.354  1.00 32.99 LIG-0.65  OA
ENDBRANCH 6 7
ENDBRANCH 5 6
BRANCH 5 10
ATOM     10  N   ASP D   0     -19.675 -16.076 -24.539  1.00 53.06 LIG-0.34  N 
ATOM     11 H    ASP D   0     -20.433 -15.728 -24.750  1.00 53.06 LIG 0.16  HD
ATOM     12  C   ASP D  -1     -18.513 -15.677 -25.054  1.00 52.15 LIG 0.25  C 
ATOM     13 O    ASP D  -1     -17.459 -16.316 -24.941  1.00 47.49 LIG-0.27  OA
BRANCH 12 14
ATOM     14  CA  ASP D  -1     -18.551 -14.358 -25.823  1.00 59.57 LIG 0.28  C 
BRANCH 14 15
ATOM     15  N   ASP D  -1     -19.916 -14.071 -26.256  1.00 50.06 LIG-0.07  N 
ATOM     16 H3   ASP D  -1     -20.330 -13.588 -25.633  1.00 50.06 LIG 0.28  HD
ATOM     17 H2   ASP D  -1     -20.356 -14.835 -26.380  1.00 50.06 LIG 0.28  HD
ATOM     18 H1   ASP D  -1     -19.895 -13.614 -27.019  1.00 50.06 LIG 0.28  HD
ENDBRANCH 14 15
BRANCH 14 19
ATOM     19  CB  ASP D  -1     -18.004 -13.212 -24.970  1.00 60.46 LIG 0.15  C 
BRANCH 19 20
ATOM     20  CG  ASP D  -1     -18.771 -13.026 -23.679  1.00 56.39 LIG 0.17  C 
ATOM     21 OD1  ASP D  -1     -18.200 -13.315 -22.603  1.00 65.47 LIG-0.65  OA
ATOM     22 OD2  ASP D  -1     -19.938 -12.578 -23.739  1.00 48.71 LIG-0.65  OA
ENDBRANCH 19 20
ENDBRANCH 14 19
ENDBRANCH 12 14
ENDBRANCH 5 10
ENDBRANCH 1 5
BRANCH 3 23
ATOM     23  CA  ASP D   1     -18.164 -20.642 -23.718  1.00 46.44 LIG 0.19  C 
BRANCH 23 24
ATOM     24  C   ASP D   1     -17.226 -20.668 -24.915  1.00 38.24 LIG 0.24  C 
ATOM     25 O    ASP D   1     -17.602 -20.262 -26.010  1.00 48.73 LIG-0.27  OA
ATOM     26  N   MET D   2     -15.993 -21.108 -24.696  1.00 47.06 LIG-0.35  N 
ATOM     27 H    MET D   2     -15.738 -21.498 -23.973  1.00 47.06 LIG 0.16  HD
BRANCH 26 28
ATOM     28  CA  MET D   2     -14.950 -20.952 -25.709  1.00 48.57 LIG 0.16  C 
BRANCH 28 29
ATOM     29  C   MET D   2     -14.840 -22.165 -26.624  1.00 49.60 LIG 0.22  C 
ATOM     30 O    MET D   2     -13.763 -22.749 -26.761  1.00 49.04 LIG-0.29  OA
ENDBRANCH 28 29
BRANCH 28 31
ATOM     31  CB  MET D   2     -13.600 -20.680 -25.033  1.00 43.71 LIG 0.04  C 
BRANCH 31 32
ATOM     32  CG  MET D   2     -12.954 -19.365 -25.415  1.00 45.96 LIG 0.08  C 
BRANCH 32 33
ATOM     33 SD   MET D   2     -11.165 -19.528 -25.602  1.00 73.43 LIG-0.17  SA
ATOM     34  CE  MET D   2     -10.675 -17.803 -25.629  1.00 57.46 LIG 0.09  C 
ENDBRANCH 32 33
ENDBRANCH 31 32
ENDBRANCH 28 31
ENDBRANCH 26 28
ENDBRANCH 23 24
BRANCH 23 35
ATOM     35  CB  ASP D   1     -19.392 -21.498 -24.073  1.00 44.28 LIG 0.15  C 
BRANCH 35 36
ATOM     36  CG  ASP D   1     -19.660 -22.610 -23.076  1.00 47.95 LIG 0.17  C 
ATOM     37 OD1  ASP D   1     -20.207 -23.667 -23.468  1.00 49.71 LIG-0.65  OA
ATOM     38 OD2  ASP D   1     -19.325 -22.409 -21.883  1.00 42.29 LIG-0.65  OA
ENDBRANCH 35 36
ENDBRANCH 23 35
ENDBRANCH 3 23
TORSDOF 17
ENDMDL
MODEL 40
USER: ADFR SOLUTION from run 122
USER: SCORE 12.206172 LL:  -2.477 LR: -10.784 RR:   0.000 FEB:  -5.713
USER: RMSD 8.046995
USER: SEED 121
USER: STATUS no improvement in best in 14 clusters for 5 generations
USER: GENES 19
USER: genes 0 Translation |==|  0.38090 0.48486 0.64334
USER: genes 1 Rotation |==|  0.65572 0.03310 0.55660 0.56749
USER: genes 2 Torsion [N]-C--CA-[N] |==|  0.37678
USER: genes 3 Torsion [C]-CA--CB-[CG] |==|  0.52905
USER: genes 4 Torsion [CA]-CB--CG-[OD2] |==|  0.20977
USER: genes 5 Torsion [C]-CA--N-[C] |==|  0.83145
USER: genes 6 Torsion [N]-C--CA-[N] |==|  0.41864
USER: genes 7 Torsion [C]-CA--N-[H3] |==|  0.11682
USER: genes 8 Torsion [C]-CA--CB-[CG] |==|  0.80592
USER: genes 9 Torsion [CA]-CB--CG-[OD2] |==|  0.98358
USER: genes 10 Torsion [C]-N--CA-[CB] |==|  0.27680
USER: genes 11 Torsion [N]-CA--C-[N] |==|  0.94483
USER: genes 12 Torsion [C]-N--CA-[C] |==|  0.12217
USER: genes 13 Torsion [N]-CA--C-[O] |==|  0.17630
USER: genes 14 Torsion [N]-CA--CB-[CG] |==|  0.75689
USER: genes 15 Torsion [CA]-CB--CG-[SD] |==|  0.29118
USER: genes 16 Torsion [CB]-CG--SD-[CE] |==|  0.76120
USER: genes 17 Torsion [N]-CA--CB-[CG] |==|  0.79665
USER: genes 18 Torsion [CA]-CB--CG-[OD1] |==|  0.78334
ROOT
ATOM      1  C   ASP D   0     -21.076 -18.439 -20.773  1.00 50.85 LIG 0.24  C 
ATOM      2 O    ASP D   0     -20.332 -17.685 -20.140  1.00 49.73 LIG-0.27  OA
ATOM      3  N   ASP D   1     -22.365 -18.622 -20.463  1.00 47.66 LIG-0.34  N 
ATOM      4 H    ASP D   1     -22.909 -19.088 -20.940  1.00 47.66 LIG 0.16  HD
ENDROOT
BRANCH 1 5
ATOM      5  CA  ASP D   0     -20.525 -19.228 -21.965  1.00 50.32 LIG 0.19  C 
BRANCH 5 6
ATOM      6  CB  ASP D   0     -19.702 -20.416 -21.453  1.00 50.50 LIG 0.15  C 
BRANCH 6 7
ATOM      7  CG  ASP D   0     -18.915 -21.101 -22.548  1.00 42.38 LIG 0.17  C 
ATOM      8 OD2  ASP D   0     -17.882 -20.542 -22.978  1.00 47.85 LIG-0.65  OA
ATOM      9 OD1  ASP D   0     -19.325 -22.198 -22.974  1.00 32.99 LIG-0.65  OA
ENDBRANCH 6 7
ENDBRANCH 5 6
BRANCH 5 10
ATOM     10  N   ASP D   0     -19.695 -18.413 -22.850  1.00 53.06 LIG-0.34  N 
ATOM     11 H    ASP D   0     -18.884 -18.691 -22.922  1.00 53.06 LIG 0.16  HD
ATOM     12  C   ASP D  -1     -20.162 -17.339 -23.484  1.00 52.15 LIG 0.25  C 
ATOM     13 O    ASP D  -1     -21.242 -16.799 -23.210  1.00 47.49 LIG-0.27  OA
BRANCH 12 14
ATOM     14  CA  ASP D  -1     -19.269 -16.785 -24.592  1.00 59.57 LIG 0.28  C 
BRANCH 14 15
ATOM     15  N   ASP D  -1     -20.086 -16.139 -25.616  1.00 50.06 LIG-0.07  N 
ATOM     16 H3   ASP D  -1     -20.727 -15.660 -25.226  1.00 50.06 LIG 0.28  HD
ATOM     17 H2   ASP D  -1     -20.455 -16.759 -26.137  1.00 50.06 LIG 0.28  HD
ATOM     18 H1   ASP D  -1     -19.575 -15.603 -26.109  1.00 50.06 LIG 0.28  HD
ENDBRANCH 14 15
BRANCH 14 19
ATOM     19  CB  ASP D  -1     -18.240 -15.805 -24.026  1.00 60.46 LIG 0.15  C 
BRANCH 19 20
ATOM     20  CG  ASP D  -1     -18.865 -14.510 -23.551  1.00 56.39 LIG 0.17  C 
ATOM     21 OD1  ASP D  -1     -18.131 -13.673 -22.978  1.00 65.47 LIG-0.65  OA
ATOM     22 OD2  ASP D  -1     -20.084 -14.324 -23.763  1.00 48.71 LIG-0.65  OA
ENDBRANCH 19 20
ENDBRANCH 14 19
ENDBRANCH 12 14
ENDBRANCH 5 10
ENDBRANCH 1 5
BRANCH 3 23
ATOM     23  CA  ASP D   1     -22.975 -18.032 -19.256  1.00 46.44 LIG 0.19  C 
BRANCH 23 24
ATOM     24  C   ASP D   1     -23.930 -19.004 -18.583  1.00 38.24 LIG 0.24  C 
ATOM     25 O    ASP D   1     -24.276 -18.832 -17.418  1.00 48.73 LIG-0.27  OA
ATOM     26  N   MET D   2     -24.388 -20.002 -19.329  1.00 47.06 LIG-0.35  N 
ATOM     27 H    MET D   2     -24.081 -20.208 -20.105  1.00 47.06 LIG 0.16  HD
BRANCH 26 28
ATOM     28  CA  MET D   2     -25.487 -20.846 -18.860  1.00 48.57 LIG 0.16  C 
BRANCH 28 29
ATOM     29  C   MET D   2     -26.616 -20.038 -18.231  1.00 49.60 LIG 0.22  C 
ATOM     30 O    MET D   2     -27.258 -19.232 -18.907  1.00 49.04 LIG-0.29  OA
ENDBRANCH 28 29
BRANCH 28 31
ATOM     31  CB  MET D   2     -24.961 -21.880 -17.857  1.00 43.71 LIG 0.04  C 
BRANCH 31 32
ATOM     32  CG  MET D   2     -24.453 -23.164 -18.478  1.00 45.96 LIG 0.08  C 
BRANCH 32 33
ATOM     33 SD   MET D   2     -22.649 -23.239 -18.478  1.00 73.43 LIG-0.17  SA
ATOM     34  CE  MET D   2     -22.279 -22.366 -20.000  1.00 57.46 LIG 0.09  C 
ENDBRANCH 32 33
ENDBRANCH 31 32
ENDBRANCH 28 31
ENDBRANCH 26 28
ENDBRANCH 23 24
BRANCH 23 35
ATOM     35  CB  ASP D   1     -23.764 -16.749 -19.573  1.00 44.28 LIG 0.15  C 
BRANCH 35 36
ATOM     36  CG  ASP D   1     -22.879 -15.558 -19.886  1.00 47.95 LIG 0.17  C 
ATOM     37 OD1  ASP D   1     -22.324 -14.941 -18.948  1.00 49.71 LIG-0.65  OA
ATOM     38 OD2  ASP D   1     -22.751 -15.235 -21.093  1.00 42.29 LIG-0.65  OA
ENDBRANCH 35 36
ENDBRANCH 23 35
ENDBRANCH 3 23
TORSDOF 17
ENDMDL
MODEL 41
USER: ADFR SOLUTION from run 38
USER: SCORE 12.265749 LL:  -2.061 LR: -10.771 RR:   0.000 FEB:  -5.700
USER: RMSD 4.792373
USER: SEED 37
USER: STATUS no improvement in best in 14 clusters for 5 generations
USER: GENES 19
USER: genes 0 Translation |==|  0.52003 0.54504 0.43735
USER: genes 1 Rotation |==|  0.60675 0.24151 0.10707 0.63188
USER: genes 2 Torsion [N]-C--CA-[N] |==|  0.02773
USER: genes 3 Torsion [C]-CA--CB-[CG] |==|  0.59529
USER: genes 4 Torsion [CA]-CB--CG-[OD2] |==|  0.41764
USER: genes 5 Torsion [C]-CA--N-[C] |==|  0.74434
USER: genes 6 Torsion [N]-C--CA-[N] |==|  0.47861
USER: genes 7 Torsion [C]-CA--N-[H3] |==|  0.46669
USER: genes 8 Torsion [C]-CA--CB-[CG] |==|  0.32106
USER: genes 9 Torsion [CA]-CB--CG-[OD2] |==|  0.12469
USER: genes 10 Torsion [C]-N--CA-[CB] |==|  0.54658
USER: genes 11 Torsion [N]-CA--C-[N] |==|  0.30487
USER: genes 12 Torsion [C]-N--CA-[C] |==|  0.76827
USER: genes 13 Torsion [N]-CA--C-[O] |==|  0.12241
USER: genes 14 Torsion [N]-CA--CB-[CG] |==|  0.86854
USER: genes 15 Torsion [CA]-CB--CG-[SD] |==|  0.49664
USER: genes 16 Torsion [CB]-CG--SD-[CE] |==|  0.00566
USER: genes 17 Torsion [N]-CA--CB-[CG] |==|  0.57613
USER: genes 18 Torsion [CA]-CB--CG-[OD1] |==|  0.62086
ROOT
ATOM      1  C   ASP D   0     -18.154 -17.401 -24.481  1.00 50.85 LIG 0.24  C 
ATOM      2 O    ASP D   0     -16.962 -17.586 -24.740  1.00 49.73 LIG-0.27  OA
ATOM      3  N   ASP D   1     -18.953 -18.359 -23.995  1.00 47.66 LIG-0.34  N 
ATOM      4 H    ASP D   1     -19.765 -18.221 -23.744  1.00 47.66 LIG 0.16  HD
ENDROOT
BRANCH 1 5
ATOM      5  CA  ASP D   0     -18.783 -16.026 -24.730  1.00 50.32 LIG 0.19  C 
BRANCH 5 6
ATOM      6  CB  ASP D   0     -17.889 -14.940 -24.121  1.00 50.50 LIG 0.15  C 
BRANCH 6 7
ATOM      7  CG  ASP D   0     -18.676 -13.772 -23.569  1.00 42.38 LIG 0.17  C 
ATOM      8 OD2  ASP D   0     -18.200 -13.136 -22.603  1.00 47.85 LIG-0.65  OA
ATOM      9 OD1  ASP D   0     -19.766 -13.487 -24.103  1.00 32.99 LIG-0.65  OA
ENDBRANCH 6 7
ENDBRANCH 5 6
BRANCH 5 10
ATOM     10  N   ASP D   0     -20.130 -15.908 -24.175  1.00 53.06 LIG-0.34  N 
ATOM     11 H    ASP D   0     -20.149 -15.646 -23.356  1.00 53.06 LIG 0.16  HD
ATOM     12  C   ASP D  -1     -21.224 -16.185 -24.883  1.00 52.15 LIG 0.25  C 
ATOM     13 O    ASP D  -1     -21.204 -16.782 -25.967  1.00 47.49 LIG-0.27  OA
BRANCH 12 14
ATOM     14  CA  ASP D  -1     -22.543 -15.726 -24.266  1.00 59.57 LIG 0.28  C 
BRANCH 14 15
ATOM     15  N   ASP D  -1     -23.634 -15.924 -25.217  1.00 50.06 LIG-0.07  N 
ATOM     16 H3   ASP D  -1     -24.414 -15.822 -24.800  1.00 50.06 LIG 0.28  HD
ATOM     17 H2   ASP D  -1     -23.586 -16.746 -25.558  1.00 50.06 LIG 0.28  HD
ATOM     18 H1   ASP D  -1     -23.568 -15.327 -25.874  1.00 50.06 LIG 0.28  HD
ENDBRANCH 14 15
BRANCH 14 19
ATOM     19  CB  ASP D  -1     -22.825 -16.470 -22.960  1.00 60.46 LIG 0.15  C 
BRANCH 19 20
ATOM     20  CG  ASP D  -1     -22.837 -15.553 -21.755  1.00 56.39 LIG 0.17  C 
ATOM     21 OD1  ASP D  -1     -22.221 -15.916 -20.728  1.00 65.47 LIG-0.65  OA
ATOM     22 OD2  ASP D  -1     -23.450 -14.465 -21.841  1.00 48.71 LIG-0.65  OA
ENDBRANCH 19 20
ENDBRANCH 14 19
ENDBRANCH 12 14
ENDBRANCH 5 10
ENDBRANCH 1 5
BRANCH 3 23
ATOM     23  CA  ASP D   1     -18.505 -19.756 -23.847  1.00 46.44 LIG 0.19  C 
BRANCH 23 24
ATOM     24  C   ASP D   1     -17.708 -20.216 -25.057  1.00 38.24 LIG 0.24  C 
ATOM     25 O    ASP D   1     -18.257 -20.364 -26.145  1.00 48.73 LIG-0.27  OA
ATOM     26  N   MET D   2     -16.406 -20.404 -24.877  1.00 47.06 LIG-0.35  N 
ATOM     27 H    MET D   2     -16.019 -20.415 -24.109  1.00 47.06 LIG 0.16  HD
BRANCH 26 28
ATOM     28  CA  MET D   2     -15.513 -20.611 -26.016  1.00 48.57 LIG 0.16  C 
BRANCH 28 29
ATOM     29  C   MET D   2     -15.494 -22.061 -26.485  1.00 49.60 LIG 0.22  C 
ATOM     30 O    MET D   2     -16.543 -22.697 -26.593  1.00 49.04 LIG-0.29  OA
ENDBRANCH 28 29
BRANCH 28 31
ATOM     31  CB  MET D   2     -14.093 -20.155 -25.659  1.00 43.71 LIG 0.04  C 
BRANCH 31 32
ATOM     32  CG  MET D   2     -14.011 -18.798 -24.996  1.00 45.96 LIG 0.08  C 
BRANCH 32 33
ATOM     33 SD   MET D   2     -12.310 -18.357 -24.580  1.00 73.43 LIG-0.17  SA
ATOM     34  CE  MET D   2     -11.430 -19.780 -25.228  1.00 57.46 LIG 0.09  C 
ENDBRANCH 32 33
ENDBRANCH 31 32
ENDBRANCH 28 31
ENDBRANCH 26 28
ENDBRANCH 23 24
BRANCH 23 35
ATOM     35  CB  ASP D   1     -19.685 -20.728 -23.671  1.00 44.28 LIG 0.15  C 
BRANCH 35 36
ATOM     36  CG  ASP D   1     -19.325 -21.978 -22.890  1.00 47.95 LIG 0.17  C 
ATOM     37 OD1  ASP D   1     -19.733 -23.092 -23.291  1.00 49.71 LIG-0.65  OA
ATOM     38 OD2  ASP D   1     -18.632 -21.832 -21.853  1.00 42.29 LIG-0.65  OA
ENDBRANCH 35 36
ENDBRANCH 23 35
ENDBRANCH 3 23
TORSDOF 17
ENDMDL
MODEL 42
USER: ADFR SOLUTION from run 4
USER: SCORE 11.164556 LL:  -2.326 LR: -10.765 RR:   0.000 FEB:  -5.694
USER: RMSD 7.072509
USER: SEED 338749
USER: STATUS no improvement in best in 21 clusters for 5 generations
USER: GENES 19
USER: genes 0 Translation |==|  0.42938 0.52174 0.46033
USER: genes 1 Rotation |==|  0.15004 0.46672 0.28696 0.78467
USER: genes 2 Torsion [N]-C--CA-[N] |==|  0.23405
USER: genes 3 Torsion [C]-CA--CB-[CG] |==|  0.20687
USER: genes 4 Torsion [CA]-CB--CG-[OD2] |==|  0.28100
USER: genes 5 Torsion [C]-CA--N-[C] |==|  0.76600
USER: genes 6 Torsion [N]-C--CA-[N] |==|  0.87595
USER: genes 7 Torsion [C]-CA--N-[H3] |==|  0.58182
USER: genes 8 Torsion [C]-CA--CB-[CG] |==|  0.97432
USER: genes 9 Torsion [CA]-CB--CG-[OD2] |==|  0.26057
USER: genes 10 Torsion [C]-N--CA-[CB] |==|  0.40794
USER: genes 11 Torsion [N]-CA--C-[N] |==|  0.13190
USER: genes 12 Torsion [C]-N--CA-[C] |==|  0.74619
USER: genes 13 Torsion [N]-CA--C-[O] |==|  0.42879
USER: genes 14 Torsion [N]-CA--CB-[CG] |==|  0.84452
USER: genes 15 Torsion [CA]-CB--CG-[SD] |==|  0.52833
USER: genes 16 Torsion [CB]-CG--SD-[CE] |==|  0.31921
USER: genes 17 Torsion [N]-CA--CB-[CG] |==|  0.62521
USER: genes 18 Torsion [CA]-CB--CG-[OD1] |==|  0.98320
ROOT
ATOM      1  C   ASP D   0     -20.058 -17.803 -24.067  1.00 50.85 LIG 0.24  C 
ATOM      2 O    ASP D   0     -21.016 -18.326 -24.643  1.00 49.73 LIG-0.27  OA
ATOM      3  N   ASP D   1     -18.959 -18.481 -23.714  1.00 47.66 LIG-0.34  N 
ATOM      4 H    ASP D   1     -18.259 -18.112 -23.379  1.00 47.66 LIG 0.16  HD
ENDROOT
BRANCH 1 5
ATOM      5  CA  ASP D   0     -20.105 -16.314 -23.711  1.00 50.32 LIG 0.19  C 
BRANCH 5 6
ATOM      6  CB  ASP D   0     -21.565 -15.869 -23.573  1.00 50.50 LIG 0.15  C 
BRANCH 6 7
ATOM      7  CG  ASP D   0     -22.210 -16.356 -22.294  1.00 42.38 LIG 0.17  C 
ATOM      8 OD2  ASP D   0     -22.324 -15.553 -21.342  1.00 47.85 LIG-0.65  OA
ATOM      9 OD1  ASP D   0     -22.606 -17.537 -22.242  1.00 32.99 LIG-0.65  OA
ENDBRANCH 6 7
ENDBRANCH 5 6
BRANCH 5 10
ATOM     10  N   ASP D   0     -19.437 -15.472 -24.702  1.00 53.06 LIG-0.34  N 
ATOM     11 H    ASP D   0     -19.968 -15.134 -25.288  1.00 53.06 LIG 0.16  HD
ATOM     12  C   ASP D  -1     -18.123 -15.254 -24.689  1.00 52.15 LIG 0.25  C 
ATOM     13 O    ASP D  -1     -17.328 -15.912 -24.006  1.00 47.49 LIG-0.27  OA
BRANCH 12 14
ATOM     14  CA  ASP D  -1     -17.632 -14.125 -25.592  1.00 59.57 LIG 0.28  C 
BRANCH 14 15
ATOM     15  N   ASP D  -1     -18.277 -14.214 -26.899  1.00 50.06 LIG-0.07  N 
ATOM     16 H3   ASP D  -1     -17.735 -13.883 -27.522  1.00 50.06 LIG 0.28  HD
ATOM     17 H2   ASP D  -1     -19.036 -13.749 -26.889  1.00 50.06 LIG 0.28  HD
ATOM     18 H1   ASP D  -1     -18.455 -15.067 -27.084  1.00 50.06 LIG 0.28  HD
ENDBRANCH 14 15
BRANCH 14 19
ATOM     19  CB  ASP D  -1     -17.895 -12.760 -24.954  1.00 60.46 LIG 0.15  C 
BRANCH 19 20
ATOM     20  CG  ASP D  -1     -18.762 -12.849 -23.716  1.00 56.39 LIG 0.17  C 
ATOM     21 OD1  ASP D  -1     -20.005 -12.854 -23.862  1.00 65.47 LIG-0.65  OA
ATOM     22 OD2  ASP D  -1     -18.200 -12.929 -22.600  1.00 48.71 LIG-0.65  OA
ENDBRANCH 19 20
ENDBRANCH 14 19
ENDBRANCH 12 14
ENDBRANCH 5 10
ENDBRANCH 1 5
BRANCH 3 23
ATOM     23  CA  ASP D   1     -18.853 -19.944 -23.873  1.00 46.44 LIG 0.19  C 
BRANCH 23 24
ATOM     24  C   ASP D   1     -19.284 -20.673 -22.611  1.00 38.24 LIG 0.24  C 
ATOM     25 O    ASP D   1     -18.576 -21.550 -22.125  1.00 48.73 LIG-0.27  OA
ATOM     26  N   MET D   2     -20.427 -20.283 -22.058  1.00 47.06 LIG-0.35  N 
ATOM     27 H    MET D   2     -20.992 -19.755 -22.434  1.00 47.06 LIG 0.16  HD
BRANCH 26 28
ATOM     28  CA  MET D   2     -20.812 -20.747 -20.726  1.00 48.57 LIG 0.16  C 
BRANCH 28 29
ATOM     29  C   MET D   2     -21.648 -22.020 -20.770  1.00 49.60 LIG 0.22  C 
ATOM     30 O    MET D   2     -21.663 -22.791 -19.809  1.00 49.04 LIG-0.29  OA
ENDBRANCH 28 29
BRANCH 28 31
ATOM     31  CB  MET D   2     -21.577 -19.641 -19.987  1.00 43.71 LIG 0.04  C 
BRANCH 31 32
ATOM     32  CG  MET D   2     -20.837 -18.326 -19.873  1.00 45.96 LIG 0.08  C 
BRANCH 32 33
ATOM     33 SD   MET D   2     -21.670 -17.185 -18.748  1.00 73.43 LIG-0.17  SA
ATOM     34  CE  MET D   2     -20.447 -17.052 -17.442  1.00 57.46 LIG 0.09  C 
ENDBRANCH 32 33
ENDBRANCH 31 32
ENDBRANCH 28 31
ENDBRANCH 26 28
ENDBRANCH 23 24
BRANCH 23 35
ATOM     35  CB  ASP D   1     -17.417 -20.389 -24.199  1.00 44.28 LIG 0.15  C 
BRANCH 35 36
ATOM     36  CG  ASP D   1     -17.341 -21.410 -25.319  1.00 47.95 LIG 0.17  C 
ATOM     37 OD1  ASP D   1     -18.400 -21.882 -25.793  1.00 49.71 LIG-0.65  OA
ATOM     38 OD2  ASP D   1     -16.199 -21.746 -25.717  1.00 42.29 LIG-0.65  OA
ENDBRANCH 35 36
ENDBRANCH 23 35
ENDBRANCH 3 23
TORSDOF 17
ENDMDL
MODEL 43
USER: ADFR SOLUTION from run 58
USER: SCORE 13.212007 LL:  -2.578 LR: -10.733 RR:   0.000 FEB:  -5.661
USER: RMSD 4.999381
USER: SEED 57
USER: STATUS no improvement in best in 15 clusters for 5 generations
USER: GENES 19
USER: genes 0 Translation |==|  0.54626 0.54244 0.38110
USER: genes 1 Rotation |==|  0.43253 0.34877 0.16454 0.83173
USER: genes 2 Torsion [N]-C--CA-[N] |==|  0.94478
USER: genes 3 Torsion [C]-CA--CB-[CG] |==|  0.54548
USER: genes 4 Torsion [CA]-CB--CG-[OD2] |==|  0.91783
USER: genes 5 Torsion [C]-CA--N-[C] |==|  0.78734
USER: genes 6 Torsion [N]-C--CA-[N] |==|  0.91071
USER: genes 7 Torsion [C]-CA--N-[H3] |==|  0.13004
USER: genes 8 Torsion [C]-CA--CB-[CG] |==|  0.63652
USER: genes 9 Torsion [CA]-CB--CG-[OD2] |==|  0.39320
USER: genes 10 Torsion [C]-N--CA-[CB] |==|  0.85928
USER: genes 11 Torsion [N]-CA--C-[N] |==|  0.37775
USER: genes 12 Torsion [C]-N--CA-[C] |==|  0.86018
USER: genes 13 Torsion [N]-CA--C-[O] |==|  0.73629
USER: genes 14 Torsion [N]-CA--CB-[CG] |==|  0.04854
USER: genes 15 Torsion [CA]-CB--CG-[SD] |==|  0.18877
USER: genes 16 Torsion [CB]-CG--SD-[CE] |==|  0.41298
USER: genes 17 Torsion [N]-CA--CB-[CG] |==|  0.64046
USER: genes 18 Torsion [CA]-CB--CG-[OD1] |==|  0.31325
ROOT
ATOM      1  C   ASP D   0     -17.604 -17.446 -25.493  1.00 50.85 LIG 0.24  C 
ATOM      2 O    ASP D   0     -17.278 -17.366 -26.681  1.00 49.73 LIG-0.27  OA
ATOM      3  N   ASP D   1     -17.112 -18.374 -24.663  1.00 47.66 LIG-0.34  N 
ATOM      4 H    ASP D   1     -17.277 -18.393 -23.819  1.00 47.66 LIG 0.16  HD
ENDROOT
BRANCH 1 5
ATOM      5  CA  ASP D   0     -18.626 -16.462 -24.916  1.00 50.32 LIG 0.19  C 
BRANCH 5 6
ATOM      6  CB  ASP D   0     -17.939 -15.123 -24.629  1.00 50.50 LIG 0.15  C 
BRANCH 6 7
ATOM      7  CG  ASP D   0     -18.746 -14.233 -23.711  1.00 42.38 LIG 0.17  C 
ATOM      8 OD2  ASP D   0     -19.993 -14.333 -23.728  1.00 47.85 LIG-0.65  OA
ATOM      9 OD1  ASP D   0     -18.136 -13.438 -22.968  1.00 32.99 LIG-0.65  OA
ENDBRANCH 6 7
ENDBRANCH 5 6
BRANCH 5 10
ATOM     10  N   ASP D   0     -19.257 -16.952 -23.692  1.00 53.06 LIG-0.34  N 
ATOM     11 H    ASP D   0     -18.956 -16.586 -22.973  1.00 53.06 LIG 0.16  HD
ATOM     12  C   ASP D  -1     -20.211 -17.881 -23.698  1.00 52.15 LIG 0.25  C 
ATOM     13 O    ASP D  -1     -20.482 -18.575 -24.686  1.00 47.49 LIG-0.27  OA
BRANCH 12 14
ATOM     14  CA  ASP D  -1     -20.969 -18.059 -22.384  1.00 59.57 LIG 0.28  C 
BRANCH 14 15
ATOM     15  N   ASP D  -1     -20.083 -17.784 -21.256  1.00 50.06 LIG-0.07  N 
ATOM     16 H3   ASP D  -1     -19.637 -17.028 -21.406  1.00 50.06 LIG 0.28  HD
ATOM     17 H2   ASP D  -1     -19.506 -18.455 -21.161  1.00 50.06 LIG 0.28  HD
ATOM     18 H1   ASP D  -1     -20.566 -17.701 -20.513  1.00 50.06 LIG 0.28  HD
ENDBRANCH 14 15
BRANCH 14 19
ATOM     19  CB  ASP D  -1     -22.200 -17.152 -22.336  1.00 60.46 LIG 0.15  C 
BRANCH 19 20
ATOM     20  CG  ASP D  -1     -22.295 -16.362 -21.049  1.00 56.39 LIG 0.17  C 
ATOM     21 OD1  ASP D  -1     -21.950 -16.920 -19.983  1.00 65.47 LIG-0.65  OA
ATOM     22 OD2  ASP D  -1     -22.700 -15.179 -21.105  1.00 48.71 LIG-0.65  OA
ENDBRANCH 19 20
ENDBRANCH 14 19
ENDBRANCH 12 14
ENDBRANCH 5 10
ENDBRANCH 1 5
BRANCH 3 23
ATOM     23  CA  ASP D   1     -16.233 -19.461 -25.131  1.00 46.44 LIG 0.19  C 
BRANCH 23 24
ATOM     24  C   ASP D   1     -14.864 -18.935 -25.534  1.00 38.24 LIG 0.24  C 
ATOM     25 O    ASP D   1     -14.761 -17.893 -26.175  1.00 48.73 LIG-0.27  OA
ATOM     26  N   MET D   2     -13.813 -19.634 -25.124  1.00 47.06 LIG-0.35  N 
ATOM     27 H    MET D   2     -13.858 -20.418 -24.773  1.00 47.06 LIG 0.16  HD
BRANCH 26 28
ATOM     28  CA  MET D   2     -12.459 -19.095 -25.248  1.00 48.57 LIG 0.16  C 
BRANCH 28 29
ATOM     29  C   MET D   2     -12.164 -18.577 -26.651  1.00 49.60 LIG 0.22  C 
ATOM     30 O    MET D   2     -11.604 -19.298 -27.478  1.00 49.04 LIG-0.29  OA
ENDBRANCH 28 29
BRANCH 28 31
ATOM     31  CB  MET D   2     -11.431 -20.165 -24.857  1.00 43.71 LIG 0.04  C 
BRANCH 31 32
ATOM     32  CG  MET D   2     -11.964 -21.581 -24.847  1.00 45.96 LIG 0.08  C 
BRANCH 32 33
ATOM     33 SD   MET D   2     -12.364 -22.156 -26.512  1.00 73.43 LIG-0.17  SA
ATOM     34  CE  MET D   2     -12.022 -23.909 -26.349  1.00 57.46 LIG 0.09  C 
ENDBRANCH 32 33
ENDBRANCH 31 32
ENDBRANCH 28 31
ENDBRANCH 26 28
ENDBRANCH 23 24
BRANCH 23 35
ATOM     35  CB  ASP D   1     -16.821 -20.202 -26.345  1.00 44.28 LIG 0.15  C 
BRANCH 35 36
ATOM     36  CG  ASP D   1     -16.842 -21.710 -26.180  1.00 47.95 LIG 0.17  C 
ATOM     37 OD1  ASP D   1     -17.942 -22.302 -26.086  1.00 49.71 LIG-0.65  OA
ATOM     38 OD2  ASP D   1     -15.736 -22.300 -26.133  1.00 42.29 LIG-0.65  OA
ENDBRANCH 35 36
ENDBRANCH 23 35
ENDBRANCH 3 23
TORSDOF 17
ENDMDL
MODEL 44
USER: ADFR SOLUTION from run 146
USER: SCORE 13.275692 LL:  -2.675 LR: -10.726 RR:   0.000 FEB:  -5.655
USER: RMSD 5.949502
USER: SEED 145
USER: STATUS no improvement in best in 14 clusters for 5 generations
USER: GENES 19
USER: genes 0 Translation |==|  0.60816 0.39119 0.38875
USER: genes 1 Rotation |==|  0.50219 0.40510 0.24589 0.92002
USER: genes 2 Torsion [N]-C--CA-[N] |==|  0.41752
USER: genes 3 Torsion [C]-CA--CB-[CG] |==|  0.35949
USER: genes 4 Torsion [CA]-CB--CG-[OD2] |==|  0.52196
USER: genes 5 Torsion [C]-CA--N-[C] |==|  0.82722
USER: genes 6 Torsion [N]-C--CA-[N] |==|  0.16810
USER: genes 7 Torsion [C]-CA--N-[H3] |==|  0.47749
USER: genes 8 Torsion [C]-CA--CB-[CG] |==|  0.58888
USER: genes 9 Torsion [CA]-CB--CG-[OD2] |==|  0.89810
USER: genes 10 Torsion [C]-N--CA-[CB] |==|  0.86667
USER: genes 11 Torsion [N]-CA--C-[N] |==|  0.36413
USER: genes 12 Torsion [C]-N--CA-[C] |==|  0.12460
USER: genes 13 Torsion [N]-CA--C-[O] |==|  0.12281
USER: genes 14 Torsion [N]-CA--CB-[CG] |==|  0.78125
USER: genes 15 Torsion [CA]-CB--CG-[SD] |==|  0.28380
USER: genes 16 Torsion [CB]-CG--SD-[CE] |==|  0.04342
USER: genes 17 Torsion [N]-CA--CB-[CG] |==|  0.81252
USER: genes 18 Torsion [CA]-CB--CG-[OD1] |==|  0.21989
ROOT
ATOM      1  C   ASP D   0     -16.304 -20.055 -25.356  1.00 50.85 LIG 0.24  C 
ATOM      2 O    ASP D   0     -16.274 -19.536 -26.475  1.00 49.73 LIG-0.27  OA
ATOM      3  N   ASP D   1     -15.295 -20.783 -24.862  1.00 47.66 LIG-0.34  N 
ATOM      4 H    ASP D   1     -15.276 -21.087 -24.057  1.00 47.66 LIG 0.16  HD
ENDROOT
BRANCH 1 5
ATOM      5  CA  ASP D   0     -17.545 -19.890 -24.473  1.00 50.32 LIG 0.19  C 
BRANCH 5 6
ATOM      6  CB  ASP D   0     -18.507 -21.056 -24.725  1.00 50.50 LIG 0.15  C 
BRANCH 6 7
ATOM      7  CG  ASP D   0     -18.961 -21.730 -23.449  1.00 42.38 LIG 0.17  C 
ATOM      8 OD2  ASP D   0     -19.627 -22.786 -23.537  1.00 47.85 LIG-0.65  OA
ATOM      9 OD1  ASP D   0     -18.648 -21.210 -22.360  1.00 32.99 LIG-0.65  OA
ENDBRANCH 6 7
ENDBRANCH 5 6
BRANCH 5 10
ATOM     10  N   ASP D   0     -18.245 -18.629 -24.707  1.00 53.06 LIG-0.34  N 
ATOM     11 H    ASP D   0     -19.049 -18.724 -24.998  1.00 53.06 LIG 0.16  HD
ATOM     12  C   ASP D  -1     -17.680 -17.443 -24.487  1.00 52.15 LIG 0.25  C 
ATOM     13 O    ASP D  -1     -16.466 -17.288 -24.299  1.00 47.49 LIG-0.27  OA
BRANCH 12 14
ATOM     14  CA  ASP D  -1     -18.630 -16.247 -24.488  1.00 59.57 LIG 0.28  C 
BRANCH 14 15
ATOM     15  N   ASP D  -1     -19.633 -16.406 -23.438  1.00 50.06 LIG-0.07  N 
ATOM     16 H3   ASP D  -1     -20.108 -15.657 -23.366  1.00 50.06 LIG 0.28  HD
ATOM     17 H2   ASP D  -1     -19.228 -16.575 -22.663  1.00 50.06 LIG 0.28  HD
ATOM     18 H1   ASP D  -1     -20.174 -17.082 -23.644  1.00 50.06 LIG 0.28  HD
ENDBRANCH 14 15
BRANCH 14 19
ATOM     19  CB  ASP D  -1     -17.861 -14.938 -24.306  1.00 60.46 LIG 0.15  C 
BRANCH 19 20
ATOM     20  CG  ASP D  -1     -18.658 -13.890 -23.558  1.00 56.39 LIG 0.17  C 
ATOM     21 OD1  ASP D  -1     -18.048 -13.129 -22.774  1.00 65.47 LIG-0.65  OA
ATOM     22 OD2  ASP D  -1     -19.891 -13.821 -23.764  1.00 48.71 LIG-0.65  OA
ENDBRANCH 19 20
ENDBRANCH 14 19
ENDBRANCH 12 14
ENDBRANCH 5 10
ENDBRANCH 1 5
BRANCH 3 23
ATOM     23  CA  ASP D   1     -14.110 -21.132 -25.667  1.00 46.44 LIG 0.19  C 
BRANCH 23 24
ATOM     24  C   ASP D   1     -13.211 -19.926 -25.887  1.00 38.24 LIG 0.24  C 
ATOM     25 O    ASP D   1     -13.686 -18.850 -26.240  1.00 48.73 LIG-0.27  OA
ATOM     26  N   MET D   2     -11.917 -20.093 -25.638  1.00 47.06 LIG-0.35  N 
ATOM     27 H    MET D   2     -11.545 -20.855 -25.499  1.00 47.06 LIG 0.16  HD
BRANCH 26 28
ATOM     28  CA  MET D   2     -11.009 -18.948 -25.586  1.00 48.57 LIG 0.16  C 
BRANCH 28 29
ATOM     29  C   MET D   2     -11.585 -17.784 -24.787  1.00 49.60 LIG 0.22  C 
ATOM     30 O    MET D   2     -12.144 -17.983 -23.707  1.00 49.04 LIG-0.29  OA
ENDBRANCH 28 29
BRANCH 28 31
ATOM     31  CB  MET D   2     -10.663 -18.488 -27.007  1.00 43.71 LIG 0.04  C 
BRANCH 31 32
ATOM     32  CG  MET D   2      -9.618 -19.329 -27.708  1.00 45.96 LIG 0.08  C 
BRANCH 32 33
ATOM     33 SD   MET D   2     -10.362 -20.460 -28.904  1.00 73.43 LIG-0.17  SA
ATOM     34  CE  MET D   2     -11.999 -19.746 -29.064  1.00 57.46 LIG 0.09  C 
ENDBRANCH 32 33
ENDBRANCH 31 32
ENDBRANCH 28 31
ENDBRANCH 26 28
ENDBRANCH 23 24
BRANCH 23 35
ATOM     35  CB  ASP D   1     -14.491 -21.685 -27.051  1.00 44.28 LIG 0.15  C 
BRANCH 35 36
ATOM     36  CG  ASP D   1     -15.180 -23.035 -26.993  1.00 47.95 LIG 0.17  C 
ATOM     37 OD1  ASP D   1     -16.396 -23.092 -26.697  1.00 49.71 LIG-0.65  OA
ATOM     38 OD2  ASP D   1     -14.482 -24.050 -27.237  1.00 42.29 LIG-0.65  OA
ENDBRANCH 35 36
ENDBRANCH 23 35
ENDBRANCH 3 23
TORSDOF 17
ENDMDL
MODEL 45
USER: ADFR SOLUTION from run 111
USER: SCORE 12.897013 LL:  -2.517 LR: -10.712 RR:   0.000 FEB:  -5.641
USER: RMSD 7.817260
USER: SEED 110
USER: STATUS no improvement in best in 16 clusters for 5 generations
USER: GENES 19
USER: genes 0 Translation |==|  0.41469 0.43490 0.56439
USER: genes 1 Rotation |==|  0.37941 0.97092 0.61475 0.52282
USER: genes 2 Torsion [N]-C--CA-[N] |==|  0.29771
USER: genes 3 Torsion [C]-CA--CB-[CG] |==|  0.10677
USER: genes 4 Torsion [CA]-CB--CG-[OD2] |==|  0.73525
USER: genes 5 Torsion [C]-CA--N-[C] |==|  0.63456
USER: genes 6 Torsion [N]-C--CA-[N] |==|  0.58485
USER: genes 7 Torsion [C]-CA--N-[H3] |==|  0.21432
USER: genes 8 Torsion [C]-CA--CB-[CG] |==|  0.69287
USER: genes 9 Torsion [CA]-CB--CG-[OD2] |==|  0.62411
USER: genes 10 Torsion [C]-N--CA-[CB] |==|  0.84411
USER: genes 11 Torsion [N]-CA--C-[N] |==|  0.35963
USER: genes 12 Torsion [C]-N--CA-[C] |==|  0.15643
USER: genes 13 Torsion [N]-CA--C-[O] |==|  0.07449
USER: genes 14 Torsion [N]-CA--CB-[CG] |==|  0.27833
USER: genes 15 Torsion [CA]-CB--CG-[SD] |==|  0.56482
USER: genes 16 Torsion [CB]-CG--SD-[CE] |==|  0.40586
USER: genes 17 Torsion [N]-CA--CB-[CG] |==|  0.54873
USER: genes 18 Torsion [CA]-CB--CG-[OD1] |==|  0.02103
ROOT
ATOM      1  C   ASP D   0     -20.366 -19.301 -22.194  1.00 50.85 LIG 0.24  C 
ATOM      2 O    ASP D   0     -19.678 -19.353 -21.171  1.00 49.73 LIG-0.27  OA
ATOM      3  N   ASP D   1     -21.704 -19.347 -22.177  1.00 47.66 LIG-0.34  N 
ATOM      4 H    ASP D   1     -22.194 -19.239 -22.876  1.00 47.66 LIG 0.16  HD
ENDROOT
BRANCH 1 5
ATOM      5  CA  ASP D   0     -19.688 -19.194 -23.563  1.00 50.32 LIG 0.19  C 
BRANCH 5 6
ATOM      6  CB  ASP D   0     -18.576 -20.244 -23.664  1.00 50.50 LIG 0.15  C 
BRANCH 6 7
ATOM      7  CG  ASP D   0     -18.950 -21.560 -23.018  1.00 42.38 LIG 0.17  C 
ATOM      8 OD2  ASP D   0     -18.591 -21.768 -21.838  1.00 47.85 LIG-0.65  OA
ATOM      9 OD1  ASP D   0     -19.605 -22.383 -23.687  1.00 32.99 LIG-0.65  OA
ENDBRANCH 6 7
ENDBRANCH 5 6
BRANCH 5 10
ATOM     10  N   ASP D   0     -19.123 -17.870 -23.815  1.00 53.06 LIG-0.34  N 
ATOM     11 H    ASP D   0     -18.644 -17.565 -23.169  1.00 53.06 LIG 0.16  HD
ATOM     12  C   ASP D  -1     -19.336 -17.203 -24.949  1.00 52.15 LIG 0.25  C 
ATOM     13 O    ASP D  -1     -20.201 -17.519 -25.775  1.00 47.49 LIG-0.27  OA
BRANCH 12 14
ATOM     14  CA  ASP D  -1     -18.442 -15.987 -25.178  1.00 59.57 LIG 0.28  C 
BRANCH 14 15
ATOM     15  N   ASP D  -1     -19.158 -14.981 -25.958  1.00 50.06 LIG-0.07  N 
ATOM     16 H3   ASP D  -1     -19.733 -14.551 -25.432  1.00 50.06 LIG 0.28  HD
ATOM     17 H2   ASP D  -1     -19.602 -15.378 -26.620  1.00 50.06 LIG 0.28  HD
ATOM     18 H1   ASP D  -1     -18.576 -14.399 -26.298  1.00 50.06 LIG 0.28  HD
ENDBRANCH 14 15
BRANCH 14 19
ATOM     19  CB  ASP D  -1     -17.965 -15.400 -23.849  1.00 60.46 LIG 0.15  C 
BRANCH 19 20
ATOM     20  CG  ASP D  -1     -18.583 -14.051 -23.550  1.00 56.39 LIG 0.17  C 
ATOM     21 OD1  ASP D  -1     -19.813 -13.909 -23.728  1.00 65.47 LIG-0.65  OA
ATOM     22 OD2  ASP D  -1     -17.840 -13.137 -23.124  1.00 48.71 LIG-0.65  OA
ENDBRANCH 19 20
ENDBRANCH 14 19
ENDBRANCH 12 14
ENDBRANCH 5 10
ENDBRANCH 1 5
BRANCH 3 23
ATOM     23  CA  ASP D   1     -22.467 -19.592 -20.939  1.00 46.44 LIG 0.19  C 
BRANCH 23 24
ATOM     24  C   ASP D   1     -22.275 -18.466 -19.935  1.00 38.24 LIG 0.24  C 
ATOM     25 O    ASP D   1     -21.150 -18.056 -19.665  1.00 48.73 LIG-0.27  OA
ATOM     26  N   MET D   2     -23.376 -17.939 -19.414  1.00 47.06 LIG-0.35  N 
ATOM     27 H    MET D   2     -24.163 -18.275 -19.499  1.00 47.06 LIG 0.16  HD
BRANCH 26 28
ATOM     28  CA  MET D   2     -23.319 -16.705 -18.630  1.00 48.57 LIG 0.16  C 
BRANCH 28 29
ATOM     29  C   MET D   2     -22.685 -15.554 -19.402  1.00 49.60 LIG 0.22  C 
ATOM     30 O    MET D   2     -22.734 -15.525 -20.633  1.00 49.04 LIG-0.29  OA
ENDBRANCH 28 29
BRANCH 28 31
ATOM     31  CB  MET D   2     -22.550 -16.948 -17.325  1.00 43.71 LIG 0.04  C 
BRANCH 31 32
ATOM     32  CG  MET D   2     -21.112 -16.478 -17.341  1.00 45.96 LIG 0.08  C 
BRANCH 32 33
ATOM     33 SD   MET D   2     -20.108 -17.354 -16.122  1.00 73.43 LIG-0.17  SA
ATOM     34  CE  MET D   2     -18.533 -17.428 -16.978  1.00 57.46 LIG 0.09  C 
ENDBRANCH 32 33
ENDBRANCH 31 32
ENDBRANCH 28 31
ENDBRANCH 26 28
ENDBRANCH 23 24
BRANCH 23 35
ATOM     35  CB  ASP D   1     -22.049 -20.903 -20.250  1.00 44.28 LIG 0.15  C 
BRANCH 35 36
ATOM     36  CG  ASP D   1     -23.064 -21.403 -19.238  1.00 47.95 LIG 0.17  C 
ATOM     37 OD1  ASP D   1     -24.173 -20.830 -19.147  1.00 49.71 LIG-0.65  OA
ATOM     38 OD2  ASP D   1     -22.730 -22.378 -18.521  1.00 42.29 LIG-0.65  OA
ENDBRANCH 35 36
ENDBRANCH 23 35
ENDBRANCH 3 23
TORSDOF 17
ENDMDL
MODEL 46
USER: ADFR SOLUTION from run 12
USER: SCORE 12.229138 LL:  -2.698 LR: -10.707 RR:   0.000 FEB:  -5.636
USER: RMSD 7.370899
USER: SEED 874085
USER: STATUS no improvement in best in 18 clusters for 5 generations
USER: GENES 19
USER: genes 0 Translation |==|  0.47901 0.53943 0.43094
USER: genes 1 Rotation |==|  0.39854 0.36449 0.10476 0.75521
USER: genes 2 Torsion [N]-C--CA-[N] |==|  0.42074
USER: genes 3 Torsion [C]-CA--CB-[CG] |==|  0.47003
USER: genes 4 Torsion [CA]-CB--CG-[OD2] |==|  0.18957
USER: genes 5 Torsion [C]-CA--N-[C] |==|  0.63592
USER: genes 6 Torsion [N]-C--CA-[N] |==|  0.59537
USER: genes 7 Torsion [C]-CA--N-[H3] |==|  0.00088
USER: genes 8 Torsion [C]-CA--CB-[CG] |==|  0.78143
USER: genes 9 Torsion [CA]-CB--CG-[OD2] |==|  0.30958
USER: genes 10 Torsion [C]-N--CA-[CB] |==|  0.21235
USER: genes 11 Torsion [N]-CA--C-[N] |==|  0.26285
USER: genes 12 Torsion [C]-N--CA-[C] |==|  0.13107
USER: genes 13 Torsion [N]-CA--C-[O] |==|  0.12811
USER: genes 14 Torsion [N]-CA--CB-[CG] |==|  0.49823
USER: genes 15 Torsion [CA]-CB--CG-[SD] |==|  0.47362
USER: genes 16 Torsion [CB]-CG--SD-[CE] |==|  0.17924
USER: genes 17 Torsion [N]-CA--CB-[CG] |==|  0.54534
USER: genes 18 Torsion [CA]-CB--CG-[OD1] |==|  0.02593
ROOT
ATOM      1  C   ASP D   0     -19.016 -17.498 -24.596  1.00 50.85 LIG 0.24  C 
ATOM      2 O    ASP D   0     -18.699 -17.574 -25.787  1.00 49.73 LIG-0.27  OA
ATOM      3  N   ASP D   1     -18.932 -18.533 -23.751  1.00 47.66 LIG-0.34  N 
ATOM      4 H    ASP D   1     -19.081 -18.471 -22.906  1.00 47.66 LIG 0.16  HD
ENDROOT
BRANCH 1 5
ATOM      5  CA  ASP D   0     -19.547 -16.176 -24.033  1.00 50.32 LIG 0.19  C 
BRANCH 5 6
ATOM      6  CB  ASP D   0     -21.077 -16.164 -24.118  1.00 50.50 LIG 0.15  C 
BRANCH 6 7
ATOM      7  CG  ASP D   0     -21.700 -15.018 -23.353  1.00 42.38 LIG 0.17  C 
ATOM      8 OD2  ASP D   0     -21.523 -13.854 -23.775  1.00 47.85 LIG-0.65  OA
ATOM      9 OD1  ASP D   0     -22.369 -15.280 -22.334  1.00 32.99 LIG-0.65  OA
ENDBRANCH 6 7
ENDBRANCH 5 6
BRANCH 5 10
ATOM     10  N   ASP D   0     -19.017 -15.007 -24.731  1.00 53.06 LIG-0.34  N 
ATOM     11 H    ASP D   0     -19.071 -15.057 -25.588  1.00 53.06 LIG 0.16  HD
ATOM     12  C   ASP D  -1     -18.497 -13.962 -24.089  1.00 52.15 LIG 0.25  C 
ATOM     13 O    ASP D  -1     -18.200 -13.977 -22.887  1.00 47.49 LIG-0.27  OA
BRANCH 12 14
ATOM     14  CA  ASP D  -1     -18.271 -12.711 -24.935  1.00 59.57 LIG 0.28  C 
BRANCH 14 15
ATOM     15  N   ASP D  -1     -17.075 -12.008 -24.478  1.00 50.06 LIG-0.07  N 
ATOM     16 H3   ASP D  -1     -16.712 -12.452 -23.798  1.00 50.06 LIG 0.28  HD
ATOM     17 H2   ASP D  -1     -17.296 -11.188 -24.213  1.00 50.06 LIG 0.28  HD
ATOM     18 H1   ASP D  -1     -16.488 -11.957 -25.145  1.00 50.06 LIG 0.28  HD
ENDBRANCH 14 15
BRANCH 14 19
ATOM     19  CB  ASP D  -1     -18.153 -13.069 -26.418  1.00 60.46 LIG 0.15  C 
BRANCH 19 20
ATOM     20  CG  ASP D  -1     -16.790 -13.617 -26.780  1.00 56.39 LIG 0.17  C 
ATOM     21 OD1  ASP D  -1     -15.806 -12.845 -26.729  1.00 65.47 LIG-0.65  OA
ATOM     22 OD2  ASP D  -1     -16.700 -14.823 -27.103  1.00 48.71 LIG-0.65  OA
ENDBRANCH 19 20
ENDBRANCH 14 19
ENDBRANCH 12 14
ENDBRANCH 5 10
ENDBRANCH 1 5
BRANCH 3 23
ATOM     23  CA  ASP D   1     -18.573 -19.890 -24.203  1.00 46.44 LIG 0.19  C 
BRANCH 23 24
ATOM     24  C   ASP D   1     -18.948 -20.939 -23.169  1.00 38.24 LIG 0.24  C 
ATOM     25 O    ASP D   1     -18.200 -21.180 -22.226  1.00 48.73 LIG-0.27  OA
ATOM     26  N   MET D   2     -20.125 -21.533 -23.323  1.00 47.06 LIG-0.35  N 
ATOM     27 H    MET D   2     -20.615 -21.465 -24.027  1.00 47.06 LIG 0.16  HD
BRANCH 26 28
ATOM     28  CA  MET D   2     -20.685 -22.374 -22.265  1.00 48.57 LIG 0.16  C 
BRANCH 28 29
ATOM     29  C   MET D   2     -20.608 -21.713 -20.894  1.00 49.60 LIG 0.22  C 
ATOM     30 O    MET D   2     -20.945 -20.537 -20.747  1.00 49.04 LIG-0.29  OA
ENDBRANCH 28 29
BRANCH 28 31
ATOM     31  CB  MET D   2     -19.965 -23.728 -22.236  1.00 43.71 LIG 0.04  C 
BRANCH 31 32
ATOM     32  CG  MET D   2     -20.452 -24.681 -21.166  1.00 45.96 LIG 0.08  C 
BRANCH 32 33
ATOM     33 SD   MET D   2     -19.754 -26.333 -21.374  1.00 73.43 LIG-0.17  SA
ATOM     34  CE  MET D   2     -18.014 -25.996 -21.103  1.00 57.46 LIG 0.09  C 
ENDBRANCH 32 33
ENDBRANCH 31 32
ENDBRANCH 28 31
ENDBRANCH 26 28
ENDBRANCH 23 24
BRANCH 23 35
ATOM     35  CB  ASP D   1     -17.066 -20.029 -24.480  1.00 44.28 LIG 0.15  C 
BRANCH 35 36
ATOM     36  CG  ASP D   1     -16.713 -21.253 -25.304  1.00 47.95 LIG 0.17  C 
ATOM     37 OD1  ASP D   1     -17.631 -21.924 -25.829  1.00 49.71 LIG-0.65  OA
ATOM     38 OD2  ASP D   1     -15.497 -21.545 -25.413  1.00 42.29 LIG-0.65  OA
ENDBRANCH 35 36
ENDBRANCH 23 35
ENDBRANCH 3 23
TORSDOF 17
ENDMDL
MODEL 47
USER: ADFR SOLUTION from run 107
USER: SCORE 13.266916 LL:  -2.848 LR: -10.695 RR:   0.000 FEB:  -5.624
USER: RMSD 7.253191
USER: SEED 106
USER: STATUS searching
USER: GENES 19
USER: genes 0 Translation |==|  0.40838 0.44499 0.53144
USER: genes 1 Rotation |==|  0.83624 0.67007 0.77005 0.68732
USER: genes 2 Torsion [N]-C--CA-[N] |==|  0.87840
USER: genes 3 Torsion [C]-CA--CB-[CG] |==|  0.11765
USER: genes 4 Torsion [CA]-CB--CG-[OD2] |==|  0.21245
USER: genes 5 Torsion [C]-CA--N-[C] |==|  0.78819
USER: genes 6 Torsion [N]-C--CA-[N] |==|  0.50183
USER: genes 7 Torsion [C]-CA--N-[H3] |==|  0.24330
USER: genes 8 Torsion [C]-CA--CB-[CG] |==|  0.74990
USER: genes 9 Torsion [CA]-CB--CG-[OD2] |==|  0.07006
USER: genes 10 Torsion [C]-N--CA-[CB] |==|  0.84444
USER: genes 11 Torsion [N]-CA--C-[N] |==|  0.94929
USER: genes 12 Torsion [C]-N--CA-[C] |==|  0.57951
USER: genes 13 Torsion [N]-CA--C-[O] |==|  0.44358
USER: genes 14 Torsion [N]-CA--CB-[CG] |==|  0.76962
USER: genes 15 Torsion [CA]-CB--CG-[SD] |==|  0.86147
USER: genes 16 Torsion [CB]-CG--SD-[CE] |==|  0.41898
USER: genes 17 Torsion [N]-CA--CB-[CG] |==|  0.72898
USER: genes 18 Torsion [CA]-CB--CG-[OD1] |==|  0.35655
ROOT
ATOM      1  C   ASP D   0     -20.499 -19.127 -22.787  1.00 50.85 LIG 0.24  C 
ATOM      2 O    ASP D   0     -21.576 -19.698 -22.982  1.00 49.73 LIG-0.27  OA
ATOM      3  N   ASP D   1     -20.249 -18.394 -21.695  1.00 47.66 LIG-0.34  N 
ATOM      4 H    ASP D   1     -19.480 -18.053 -21.516  1.00 47.66 LIG 0.16  HD
ENDROOT
BRANCH 1 5
ATOM      5  CA  ASP D   0     -19.383 -19.229 -23.831  1.00 50.32 LIG 0.19  C 
BRANCH 5 6
ATOM      6  CB  ASP D   0     -18.330 -20.237 -23.354  1.00 50.50 LIG 0.15  C 
BRANCH 6 7
ATOM      7  CG  ASP D   0     -18.940 -21.480 -22.745  1.00 42.38 LIG 0.17  C 
ATOM      8 OD2  ASP D   0     -19.426 -22.342 -23.511  1.00 47.85 LIG-0.65  OA
ATOM      9 OD1  ASP D   0     -18.929 -21.598 -21.504  1.00 32.99 LIG-0.65  OA
ENDBRANCH 6 7
ENDBRANCH 5 6
BRANCH 5 10
ATOM     10  N   ASP D   0     -18.735 -17.947 -24.098  1.00 53.06 LIG-0.34  N 
ATOM     11 H    ASP D   0     -17.961 -17.863 -23.731  1.00 53.06 LIG 0.16  HD
ATOM     12  C   ASP D  -1     -19.301 -16.999 -24.844  1.00 52.15 LIG 0.25  C 
ATOM     13 O    ASP D  -1     -20.493 -17.011 -25.175  1.00 47.49 LIG-0.27  OA
BRANCH 12 14
ATOM     14  CA  ASP D  -1     -18.380 -15.859 -25.273  1.00 59.57 LIG 0.28  C 
BRANCH 14 15
ATOM     15  N   ASP D  -1     -19.127 -14.886 -26.068  1.00 50.06 LIG-0.07  N 
ATOM     16 H3   ASP D  -1     -19.503 -14.288 -25.527  1.00 50.06 LIG 0.28  HD
ATOM     17 H2   ASP D  -1     -19.760 -15.306 -26.533  1.00 50.06 LIG 0.28  HD
ATOM     18 H1   ASP D  -1     -18.573 -14.473 -26.628  1.00 50.06 LIG 0.28  HD
ENDBRANCH 14 15
BRANCH 14 19
ATOM     19  CB  ASP D  -1     -17.741 -15.184 -24.058  1.00 60.46 LIG 0.15  C 
BRANCH 19 20
ATOM     20  CG  ASP D  -1     -18.568 -14.034 -23.524  1.00 56.39 LIG 0.17  C 
ATOM     21 OD1  ASP D  -1     -17.982 -13.122 -22.900  1.00 65.47 LIG-0.65  OA
ATOM     22 OD2  ASP D  -1     -19.801 -14.037 -23.742  1.00 48.71 LIG-0.65  OA
ENDBRANCH 19 20
ENDBRANCH 14 19
ENDBRANCH 12 14
ENDBRANCH 5 10
ENDBRANCH 1 5
BRANCH 3 23
ATOM     23  CA  ASP D   1     -21.287 -18.103 -20.689  1.00 46.44 LIG 0.19  C 
BRANCH 23 24
ATOM     24  C   ASP D   1     -21.759 -19.370 -19.994  1.00 38.24 LIG 0.24  C 
ATOM     25 O    ASP D   1     -22.387 -19.307 -18.941  1.00 48.73 LIG-0.27  OA
ATOM     26  N   MET D   2     -21.493 -20.519 -20.604  1.00 47.06 LIG-0.35  N 
ATOM     27 H    MET D   2     -20.965 -20.599 -21.278  1.00 47.06 LIG 0.16  HD
BRANCH 26 28
ATOM     28  CA  MET D   2     -22.105 -21.768 -20.152  1.00 48.57 LIG 0.16  C 
BRANCH 28 29
ATOM     29  C   MET D   2     -21.232 -22.983 -20.442  1.00 49.60 LIG 0.22  C 
ATOM     30 O    MET D   2     -21.398 -24.034 -19.821  1.00 49.04 LIG-0.29  OA
ENDBRANCH 28 29
BRANCH 28 31
ATOM     31  CB  MET D   2     -23.482 -21.943 -20.803  1.00 43.71 LIG 0.04  C 
BRANCH 31 32
ATOM     32  CG  MET D   2     -24.609 -21.207 -20.110  1.00 45.96 LIG 0.08  C 
BRANCH 32 33
ATOM     33 SD   MET D   2     -24.626 -21.532 -18.333  1.00 73.43 LIG-0.17  SA
ATOM     34  CE  MET D   2     -25.338 -20.003 -17.722  1.00 57.46 LIG 0.09  C 
ENDBRANCH 32 33
ENDBRANCH 31 32
ENDBRANCH 28 31
ENDBRANCH 26 28
ENDBRANCH 23 24
BRANCH 23 35
ATOM     35  CB  ASP D   1     -22.522 -17.426 -21.309  1.00 44.28 LIG 0.15  C 
BRANCH 35 36
ATOM     36  CG  ASP D   1     -22.520 -15.916 -21.161  1.00 47.95 LIG 0.17  C 
ATOM     37 OD1  ASP D   1     -22.698 -15.199 -22.172  1.00 49.71 LIG-0.65  OA
ATOM     38 OD2  ASP D   1     -22.325 -15.449 -20.012  1.00 42.29 LIG-0.65  OA
ENDBRANCH 35 36
ENDBRANCH 23 35
ENDBRANCH 3 23
TORSDOF 17
ENDMDL
MODEL 48
USER: ADFR SOLUTION from run 197
USER: SCORE 12.592882 LL:  -2.521 LR: -10.694 RR:   0.000 FEB:  -5.622
USER: RMSD 6.736939
USER: SEED 196
USER: STATUS no improvement in best in 10 clusters for 5 generations
USER: GENES 19
USER: genes 0 Translation |==|  0.41033 0.44476 0.54332
USER: genes 1 Rotation |==|  0.10827 0.54433 0.53007 0.80607
USER: genes 2 Torsion [N]-C--CA-[N] |==|  0.05142
USER: genes 3 Torsion [C]-CA--CB-[CG] |==|  0.50780
USER: genes 4 Torsion [CA]-CB--CG-[OD2] |==|  0.79026
USER: genes 5 Torsion [C]-CA--N-[C] |==|  0.17563
USER: genes 6 Torsion [N]-C--CA-[N] |==|  0.61753
USER: genes 7 Torsion [C]-CA--N-[H3] |==|  0.89165
USER: genes 8 Torsion [C]-CA--CB-[CG] |==|  0.76400
USER: genes 9 Torsion [CA]-CB--CG-[OD2] |==|  0.50559
USER: genes 10 Torsion [C]-N--CA-[CB] |==|  0.56625
USER: genes 11 Torsion [N]-CA--C-[N] |==|  0.32508
USER: genes 12 Torsion [C]-N--CA-[C] |==|  0.13280
USER: genes 13 Torsion [N]-CA--C-[O] |==|  0.52569
USER: genes 14 Torsion [N]-CA--CB-[CG] |==|  0.55390
USER: genes 15 Torsion [CA]-CB--CG-[SD] |==|  0.55728
USER: genes 16 Torsion [CB]-CG--SD-[CE] |==|  0.91739
USER: genes 17 Torsion [N]-CA--CB-[CG] |==|  0.62380
USER: genes 18 Torsion [CA]-CB--CG-[OD1] |==|  0.99850
ROOT
ATOM      1  C   ASP D   0     -20.458 -19.131 -22.573  1.00 50.85 LIG 0.24  C 
ATOM      2 O    ASP D   0     -21.249 -20.015 -22.232  1.00 49.73 LIG-0.27  OA
ATOM      3  N   ASP D   1     -19.422 -19.354 -23.390  1.00 47.66 LIG-0.34  N 
ATOM      4 H    ASP D   1     -18.909 -18.732 -23.691  1.00 47.66 LIG 0.16  HD
ENDROOT
BRANCH 1 5
ATOM      5  CA  ASP D   0     -20.635 -17.705 -22.042  1.00 50.32 LIG 0.19  C 
BRANCH 5 6
ATOM      6  CB  ASP D   0     -22.126 -17.349 -22.028  1.00 50.50 LIG 0.15  C 
BRANCH 6 7
ATOM      7  CG  ASP D   0     -22.387 -15.928 -21.579  1.00 42.38 LIG 0.17  C 
ATOM      8 OD2  ASP D   0     -22.289 -15.661 -20.361  1.00 47.85 LIG-0.65  OA
ATOM      9 OD1  ASP D   0     -22.685 -15.079 -22.442  1.00 32.99 LIG-0.65  OA
ENDBRANCH 6 7
ENDBRANCH 5 6
BRANCH 5 10
ATOM     10  N   ASP D   0     -19.911 -16.711 -22.831  1.00 53.06 LIG-0.34  N 
ATOM     11 H    ASP D   0     -19.294 -16.300 -22.394  1.00 53.06 LIG 0.16  HD
ATOM     12  C   ASP D  -1     -20.189 -16.469 -24.111  1.00 52.15 LIG 0.25  C 
ATOM     13 O    ASP D  -1     -21.212 -16.875 -24.676  1.00 47.49 LIG-0.27  OA
BRANCH 12 14
ATOM     14  CA  ASP D  -1     -19.157 -15.634 -24.865  1.00 59.57 LIG 0.28  C 
BRANCH 14 15
ATOM     15  N   ASP D  -1     -19.831 -14.652 -25.711  1.00 50.06 LIG-0.07  N 
ATOM     16 H3   ASP D  -1     -20.555 -15.020 -26.074  1.00 50.06 LIG 0.28  HD
ATOM     17 H2   ASP D  -1     -19.278 -14.386 -26.356  1.00 50.06 LIG 0.28  HD
ATOM     18 H1   ASP D  -1     -20.071 -13.951 -25.218  1.00 50.06 LIG 0.28  HD
ENDBRANCH 14 15
BRANCH 14 19
ATOM     19  CB  ASP D  -1     -18.198 -14.942 -23.895  1.00 60.46 LIG 0.15  C 
BRANCH 19 20
ATOM     20  CG  ASP D  -1     -18.740 -13.628 -23.374  1.00 56.39 LIG 0.17  C 
ATOM     21 OD1  ASP D  -1     -19.889 -13.278 -23.728  1.00 65.47 LIG-0.65  OA
ATOM     22 OD2  ASP D  -1     -18.024 -12.954 -22.600  1.00 48.71 LIG-0.65  OA
ENDBRANCH 19 20
ENDBRANCH 14 19
ENDBRANCH 12 14
ENDBRANCH 5 10
ENDBRANCH 1 5
BRANCH 3 23
ATOM     23  CA  ASP D   1     -19.062 -20.708 -23.852  1.00 46.44 LIG 0.19  C 
BRANCH 23 24
ATOM     24  C   ASP D   1     -19.312 -21.749 -22.773  1.00 38.24 LIG 0.24  C 
ATOM     25 O    ASP D   1     -18.720 -21.688 -21.700  1.00 48.73 LIG-0.27  OA
ATOM     26  N   MET D   2     -20.217 -22.681 -23.043  1.00 47.06 LIG-0.35  N 
ATOM     27 H    MET D   2     -20.562 -22.812 -23.820  1.00 47.06 LIG 0.16  HD
BRANCH 26 28
ATOM     28  CA  MET D   2     -20.704 -23.579 -21.996  1.00 48.57 LIG 0.16  C 
BRANCH 28 29
ATOM     29  C   MET D   2     -21.098 -22.834 -20.726  1.00 49.60 LIG 0.22  C 
ATOM     30 O    MET D   2     -21.366 -23.454 -19.696  1.00 49.04 LIG-0.29  OA
ENDBRANCH 28 29
BRANCH 28 31
ATOM     31  CB  MET D   2     -19.640 -24.637 -21.676  1.00 43.71 LIG 0.04  C 
BRANCH 31 32
ATOM     32  CG  MET D   2     -20.165 -25.870 -20.973  1.00 45.96 LIG 0.08  C 
BRANCH 32 33
ATOM     33 SD   MET D   2     -18.849 -26.761 -20.114  1.00 73.43 LIG-0.17  SA
ATOM     34  CE  MET D   2     -17.442 -26.357 -21.151  1.00 57.46 LIG 0.09  C 
ENDBRANCH 32 33
ENDBRANCH 31 32
ENDBRANCH 28 31
ENDBRANCH 26 28
ENDBRANCH 23 24
BRANCH 23 35
ATOM     35  CB  ASP D   1     -17.582 -20.807 -24.261  1.00 44.28 LIG 0.15  C 
BRANCH 35 36
ATOM     36  CG  ASP D   1     -17.364 -21.553 -25.564  1.00 47.95 LIG 0.17  C 
ATOM     37 OD1  ASP D   1     -18.352 -22.019 -26.177  1.00 49.71 LIG-0.65  OA
ATOM     38 OD2  ASP D   1     -16.181 -21.679 -25.966  1.00 42.29 LIG-0.65  OA
ENDBRANCH 35 36
ENDBRANCH 23 35
ENDBRANCH 3 23
TORSDOF 17
ENDMDL
MODEL 49
USER: ADFR SOLUTION from run 85
USER: SCORE 12.185263 LL:  -2.609 LR: -10.679 RR:   0.000 FEB:  -5.608
USER: RMSD 7.527226
USER: SEED 84
USER: STATUS searching
USER: GENES 19
USER: genes 0 Translation |==|  0.41150 0.44515 0.53132
USER: genes 1 Rotation |==|  0.80859 0.71257 0.76266 0.70149
USER: genes 2 Torsion [N]-C--CA-[N] |==|  0.91148
USER: genes 3 Torsion [C]-CA--CB-[CG] |==|  0.12638
USER: genes 4 Torsion [CA]-CB--CG-[OD2] |==|  0.70374
USER: genes 5 Torsion [C]-CA--N-[C] |==|  0.81973
USER: genes 6 Torsion [N]-C--CA-[N] |==|  0.46564
USER: genes 7 Torsion [C]-CA--N-[H3] |==|  0.91361
USER: genes 8 Torsion [C]-CA--CB-[CG] |==|  0.77050
USER: genes 9 Torsion [CA]-CB--CG-[OD2] |==|  0.05518
USER: genes 10 Torsion [C]-N--CA-[CB] |==|  0.81079
USER: genes 11 Torsion [N]-CA--C-[N] |==|  0.57526
USER: genes 12 Torsion [C]-N--CA-[C] |==|  0.73200
USER: genes 13 Torsion [N]-CA--C-[O] |==|  0.31127
USER: genes 14 Torsion [N]-CA--CB-[CG] |==|  0.95826
USER: genes 15 Torsion [CA]-CB--CG-[SD] |==|  0.73437
USER: genes 16 Torsion [CB]-CG--SD-[CE] |==|  0.34157
USER: genes 17 Torsion [N]-CA--CB-[CG] |==|  0.68546
USER: genes 18 Torsion [CA]-CB--CG-[OD1] |==|  0.41027
ROOT
ATOM      1  C   ASP D   0     -20.434 -19.124 -22.789  1.00 50.85 LIG 0.24  C 
ATOM      2 O    ASP D   0     -21.440 -19.836 -22.862  1.00 49.73 LIG-0.27  OA
ATOM      3  N   ASP D   1     -20.272 -18.183 -21.851  1.00 47.66 LIG-0.34  N 
ATOM      4 H    ASP D   1     -19.546 -17.734 -21.748  1.00 47.66 LIG 0.16  HD
ENDROOT
BRANCH 1 5
ATOM      5  CA  ASP D   0     -19.307 -19.291 -23.814  1.00 50.32 LIG 0.19  C 
BRANCH 5 6
ATOM      6  CB  ASP D   0     -18.292 -20.315 -23.293  1.00 50.50 LIG 0.15  C 
BRANCH 6 7
ATOM      7  CG  ASP D   0     -18.946 -21.554 -22.725  1.00 42.38 LIG 0.17  C 
ATOM      8 OD2  ASP D   0     -18.952 -21.709 -21.483  1.00 47.85 LIG-0.65  OA
ATOM      9 OD1  ASP D   0     -19.459 -22.370 -23.516  1.00 32.99 LIG-0.65  OA
ENDBRANCH 6 7
ENDBRANCH 5 6
BRANCH 5 10
ATOM     10  N   ASP D   0     -18.617 -18.037 -24.109  1.00 53.06 LIG-0.34  N 
ATOM     11 H    ASP D   0     -17.792 -18.026 -23.867  1.00 53.06 LIG 0.16  HD
ATOM     12  C   ASP D  -1     -19.222 -17.008 -24.702  1.00 52.15 LIG 0.25  C 
ATOM     13 O    ASP D  -1     -20.449 -16.923 -24.839  1.00 47.49 LIG-0.27  OA
BRANCH 12 14
ATOM     14  CA  ASP D  -1     -18.299 -15.902 -25.208  1.00 59.57 LIG 0.28  C 
BRANCH 14 15
ATOM     15  N   ASP D  -1     -19.040 -14.995 -26.082  1.00 50.06 LIG-0.07  N 
ATOM     16 H3   ASP D  -1     -19.680 -15.446 -26.504  1.00 50.06 LIG 0.28  HD
ATOM     17 H2   ASP D  -1     -18.484 -14.638 -26.679  1.00 50.06 LIG 0.28  HD
ATOM     18 H1   ASP D  -1     -19.406 -14.347 -25.594  1.00 50.06 LIG 0.28  HD
ENDBRANCH 14 15
BRANCH 14 19
ATOM     19  CB  ASP D  -1     -17.672 -15.136 -24.043  1.00 60.46 LIG 0.15  C 
BRANCH 19 20
ATOM     20  CG  ASP D  -1     -18.585 -14.063 -23.489  1.00 56.39 LIG 0.17  C 
ATOM     21 OD1  ASP D  -1     -18.073 -13.132 -22.827  1.00 65.47 LIG-0.65  OA
ATOM     22 OD2  ASP D  -1     -19.811 -14.143 -23.728  1.00 48.71 LIG-0.65  OA
ENDBRANCH 19 20
ENDBRANCH 14 19
ENDBRANCH 12 14
ENDBRANCH 5 10
ENDBRANCH 1 5
BRANCH 3 23
ATOM     23  CA  ASP D   1     -21.341 -17.831 -20.899  1.00 46.44 LIG 0.19  C 
BRANCH 23 24
ATOM     24  C   ASP D   1     -21.880 -19.061 -20.187  1.00 38.24 LIG 0.24  C 
ATOM     25 O    ASP D   1     -21.160 -20.036 -19.995  1.00 48.73 LIG-0.27  OA
ATOM     26  N   MET D   2     -23.136 -18.999 -19.759  1.00 47.06 LIG-0.35  N 
ATOM     27 H    MET D   2     -23.692 -18.379 -19.974  1.00 47.06 LIG 0.16  HD
BRANCH 26 28
ATOM     28  CA  MET D   2     -23.673 -20.020 -18.861  1.00 48.57 LIG 0.16  C 
BRANCH 28 29
ATOM     29  C   MET D   2     -24.440 -21.106 -19.606  1.00 49.60 LIG 0.22  C 
ATOM     30 O    MET D   2     -24.001 -22.256 -19.661  1.00 49.04 LIG-0.29  OA
ENDBRANCH 28 29
BRANCH 28 31
ATOM     31  CB  MET D   2     -24.577 -19.368 -17.807  1.00 43.71 LIG 0.04  C 
BRANCH 31 32
ATOM     32  CG  MET D   2     -24.435 -17.866 -17.693  1.00 45.96 LIG 0.08  C 
BRANCH 32 33
ATOM     33 SD   MET D   2     -23.291 -17.401 -16.375  1.00 73.43 LIG-0.17  SA
ATOM     34  CE  MET D   2     -22.102 -16.422 -17.295  1.00 57.46 LIG 0.09  C 
ENDBRANCH 32 33
ENDBRANCH 31 32
ENDBRANCH 28 31
ENDBRANCH 26 28
ENDBRANCH 23 24
BRANCH 23 35
ATOM     35  CB  ASP D   1     -22.528 -17.137 -21.590  1.00 44.28 LIG 0.15  C 
BRANCH 35 36
ATOM     36  CG  ASP D   1     -22.700 -15.686 -21.181  1.00 47.95 LIG 0.17  C 
ATOM     37 OD1  ASP D   1     -23.150 -14.863 -22.011  1.00 49.71 LIG-0.65  OA
ATOM     38 OD2  ASP D   1     -22.367 -15.373 -20.012  1.00 42.29 LIG-0.65  OA
ENDBRANCH 35 36
ENDBRANCH 23 35
ENDBRANCH 3 23
TORSDOF 17
ENDMDL
MODEL 50
USER: ADFR SOLUTION from run 69
USER: SCORE 12.622578 LL:  -2.754 LR: -10.656 RR:   0.000 FEB:  -5.585
USER: RMSD 2.076990
USER: SEED 68
USER: STATUS no improvement in best in 12 clusters for 5 generations
USER: GENES 19
USER: genes 0 Translation |==|  0.46926 0.47740 0.47130
USER: genes 1 Rotation |==|  0.37397 0.31153 0.67621 0.90933
USER: genes 2 Torsion [N]-C--CA-[N] |==|  0.15000
USER: genes 3 Torsion [C]-CA--CB-[CG] |==|  0.21217
USER: genes 4 Torsion [CA]-CB--CG-[OD2] |==|  0.03858
USER: genes 5 Torsion [C]-CA--N-[C] |==|  0.15542
USER: genes 6 Torsion [N]-C--CA-[N] |==|  0.78676
USER: genes 7 Torsion [C]-CA--N-[H3] |==|  0.85560
USER: genes 8 Torsion [C]-CA--CB-[CG] |==|  0.73022
USER: genes 9 Torsion [CA]-CB--CG-[OD2] |==|  0.09778
USER: genes 10 Torsion [C]-N--CA-[CB] |==|  0.53895
USER: genes 11 Torsion [N]-CA--C-[N] |==|  0.27504
USER: genes 12 Torsion [C]-N--CA-[C] |==|  0.17274
USER: genes 13 Torsion [N]-CA--C-[O] |==|  0.20098
USER: genes 14 Torsion [N]-CA--CB-[CG] |==|  0.33917
USER: genes 15 Torsion [CA]-CB--CG-[SD] |==|  0.50764
USER: genes 16 Torsion [CB]-CG--SD-[CE] |==|  0.70221
USER: genes 17 Torsion [N]-CA--CB-[CG] |==|  0.89025
USER: genes 18 Torsion [CA]-CB--CG-[OD1] |==|  0.96206
ROOT
ATOM      1  C   ASP D   0     -19.220 -18.568 -23.870  1.00 50.85 LIG 0.24  C 
ATOM      2 O    ASP D   0     -18.850 -19.277 -24.810  1.00 49.73 LIG-0.27  OA
ATOM      3  N   ASP D   1     -18.895 -17.274 -23.759  1.00 47.66 LIG-0.34  N 
ATOM      4 H    ASP D   1     -19.207 -16.755 -23.147  1.00 47.66 LIG 0.16  HD
ENDROOT
BRANCH 1 5
ATOM      5  CA  ASP D   0     -20.080 -19.171 -22.754  1.00 50.32 LIG 0.19  C 
BRANCH 5 6
ATOM      6  CB  ASP D   0     -20.431 -20.620 -23.109  1.00 50.50 LIG 0.15  C 
BRANCH 6 7
ATOM      7  CG  ASP D   0     -19.278 -21.575 -22.894  1.00 42.38 LIG 0.17  C 
ATOM      8 OD2  ASP D   0     -18.294 -21.180 -22.228  1.00 47.85 LIG-0.65  OA
ATOM      9 OD1  ASP D   0     -19.355 -22.718 -23.384  1.00 32.99 LIG-0.65  OA
ENDBRANCH 6 7
ENDBRANCH 5 6
BRANCH 5 10
ATOM     10  N   ASP D   0     -21.312 -18.422 -22.517  1.00 53.06 LIG-0.34  N 
ATOM     11 H    ASP D   0     -21.409 -18.156 -21.705  1.00 53.06 LIG 0.16  HD
ATOM     12  C   ASP D  -1     -22.199 -18.177 -23.481  1.00 52.15 LIG 0.25  C 
ATOM     13 O    ASP D  -1     -22.189 -18.747 -24.580  1.00 47.49 LIG-0.27  OA
BRANCH 12 14
ATOM     14  CA  ASP D  -1     -23.266 -17.137 -23.148  1.00 59.57 LIG 0.28  C 
BRANCH 14 15
ATOM     15  N   ASP D  -1     -24.278 -17.722 -22.272  1.00 50.06 LIG-0.07  N 
ATOM     16 H3   ASP D  -1     -24.578 -18.480 -22.630  1.00 50.06 LIG 0.28  HD
ATOM     17 H2   ASP D  -1     -24.954 -17.151 -22.175  1.00 50.06 LIG 0.28  HD
ATOM     18 H1   ASP D  -1     -23.918 -17.893 -21.476  1.00 50.06 LIG 0.28  HD
ENDBRANCH 14 15
BRANCH 14 19
ATOM     19  CB  ASP D  -1     -22.641 -15.901 -22.499  1.00 60.46 LIG 0.15  C 
BRANCH 19 20
ATOM     20  CG  ASP D  -1     -22.726 -15.927 -20.988  1.00 56.39 LIG 0.17  C 
ATOM     21 OD1  ASP D  -1     -22.914 -14.846 -20.386  1.00 65.47 LIG-0.65  OA
ATOM     22 OD2  ASP D  -1     -22.619 -17.029 -20.405  1.00 48.71 LIG-0.65  OA
ENDBRANCH 19 20
ENDBRANCH 14 19
ENDBRANCH 12 14
ENDBRANCH 5 10
ENDBRANCH 1 5
BRANCH 3 23
ATOM     23  CA  ASP D   1     -17.960 -16.616 -24.689  1.00 46.44 LIG 0.19  C 
BRANCH 23 24
ATOM     24  C   ASP D   1     -16.725 -17.469 -24.934  1.00 38.24 LIG 0.24  C 
ATOM     25 O    ASP D   1     -15.817 -17.503 -24.108  1.00 48.73 LIG-0.27  OA
ATOM     26  N   MET D   2     -16.711 -18.191 -26.048  1.00 47.06 LIG-0.35  N 
ATOM     27 H    MET D   2     -17.276 -18.103 -26.690  1.00 47.06 LIG 0.16  HD
BRANCH 26 28
ATOM     28  CA  MET D   2     -15.693 -19.218 -26.263  1.00 48.57 LIG 0.16  C 
BRANCH 28 29
ATOM     29  C   MET D   2     -15.763 -20.334 -25.226  1.00 49.60 LIG 0.22  C 
ATOM     30 O    MET D   2     -16.681 -21.155 -25.253  1.00 49.04 LIG-0.29  OA
ENDBRANCH 28 29
BRANCH 28 31
ATOM     31  CB  MET D   2     -14.296 -18.583 -26.256  1.00 43.71 LIG 0.04  C 
BRANCH 31 32
ATOM     32  CG  MET D   2     -13.349 -19.146 -25.219  1.00 45.96 LIG 0.08  C 
BRANCH 32 33
ATOM     33 SD   MET D   2     -11.760 -18.288 -25.228  1.00 73.43 LIG-0.17  SA
ATOM     34  CE  MET D   2     -10.712 -19.537 -25.977  1.00 57.46 LIG 0.09  C 
ENDBRANCH 32 33
ENDBRANCH 31 32
ENDBRANCH 28 31
ENDBRANCH 26 28
ENDBRANCH 23 24
BRANCH 23 35
ATOM     35  CB  ASP D   1     -17.483 -15.250 -24.164  1.00 44.28 LIG 0.15  C 
BRANCH 35 36
ATOM     36  CG  ASP D   1     -18.578 -14.450 -23.484  1.00 47.95 LIG 0.17  C 
ATOM     37 OD1  ASP D   1     -19.772 -14.802 -23.622  1.00 49.71 LIG-0.65  OA
ATOM     38 OD2  ASP D   1     -18.228 -13.449 -22.812  1.00 42.29 LIG-0.65  OA
ENDBRANCH 35 36
ENDBRANCH 23 35
ENDBRANCH 3 23
TORSDOF 17
ENDMDL
MODEL 51
USER: ADFR SOLUTION from run 19
USER: SCORE 12.175101 LL:  -2.647 LR: -10.665 RR:   0.000 FEB:  -5.594
USER: RMSD 4.323199
USER: SEED 18
USER: STATUS no improvement in best in 24 clusters for 5 generations
USER: GENES 19
USER: genes 0 Translation |==|  0.46366 0.61820 0.43857
USER: genes 1 Rotation |==|  0.25502 0.20458 0.79924 0.61476
USER: genes 2 Torsion [N]-C--CA-[N] |==|  0.52556
USER: genes 3 Torsion [C]-CA--CB-[CG] |==|  0.59411
USER: genes 4 Torsion [CA]-CB--CG-[OD2] |==|  0.84577
USER: genes 5 Torsion [C]-CA--N-[C] |==|  0.64493
USER: genes 6 Torsion [N]-C--CA-[N] |==|  0.17927
USER: genes 7 Torsion [C]-CA--N-[H3] |==|  0.99769
USER: genes 8 Torsion [C]-CA--CB-[CG] |==|  0.20056
USER: genes 9 Torsion [CA]-CB--CG-[OD2] |==|  0.02490
USER: genes 10 Torsion [C]-N--CA-[CB] |==|  0.83326
USER: genes 11 Torsion [N]-CA--C-[N] |==|  0.01649
USER: genes 12 Torsion [C]-N--CA-[C] |==|  0.80566
USER: genes 13 Torsion [N]-CA--C-[O] |==|  0.46808
USER: genes 14 Torsion [N]-CA--CB-[CG] |==|  0.74153
USER: genes 15 Torsion [CA]-CB--CG-[SD] |==|  0.86160
USER: genes 16 Torsion [CB]-CG--SD-[CE] |==|  0.67478
USER: genes 17 Torsion [N]-CA--CB-[CG] |==|  0.93712
USER: genes 18 Torsion [CA]-CB--CG-[OD1] |==|  0.91337
ROOT
ATOM      1  C   ASP D   0     -19.338 -16.139 -24.459  1.00 50.85 LIG 0.24  C 
ATOM      2 O    ASP D   0     -18.181 -16.359 -24.090  1.00 49.73 LIG-0.27  OA
ATOM      3  N   ASP D   1     -19.645 -15.238 -25.400  1.00 47.66 LIG-0.34  N 
ATOM      4 H    ASP D   1     -20.439 -15.129 -25.714  1.00 47.66 LIG 0.16  HD
ENDROOT
BRANCH 1 5
ATOM      5  CA  ASP D   0     -20.500 -16.904 -23.817  1.00 50.32 LIG 0.19  C 
BRANCH 5 6
ATOM      6  CB  ASP D   0     -21.585 -15.912 -23.384  1.00 50.50 LIG 0.15  C 
BRANCH 6 7
ATOM      7  CG  ASP D   0     -22.304 -16.341 -22.124  1.00 42.38 LIG 0.17  C 
ATOM      8 OD2  ASP D   0     -22.842 -17.470 -22.100  1.00 47.85 LIG-0.65  OA
ATOM      9 OD1  ASP D   0     -22.326 -15.553 -21.158  1.00 32.99 LIG-0.65  OA
ENDBRANCH 6 7
ENDBRANCH 5 6
BRANCH 5 10
ATOM     10  N   ASP D   0     -20.087 -17.700 -22.663  1.00 53.06 LIG-0.34  N 
ATOM     11 H    ASP D   0     -19.646 -17.257 -22.072  1.00 53.06 LIG 0.16  HD
ATOM     12  C   ASP D  -1     -20.373 -18.996 -22.546  1.00 52.15 LIG 0.25  C 
ATOM     13 O    ASP D  -1     -20.792 -19.691 -23.481  1.00 47.49 LIG-0.27  OA
BRANCH 12 14
ATOM     14  CA  ASP D  -1     -20.142 -19.602 -21.164  1.00 59.57 LIG 0.28  C 
BRANCH 14 15
ATOM     15  N   ASP D  -1     -21.045 -18.990 -20.193  1.00 50.06 LIG-0.07  N 
ATOM     16 H3   ASP D  -1     -21.545 -18.375 -20.599  1.00 50.06 LIG 0.28  HD
ATOM     17 H2   ASP D  -1     -20.570 -18.606 -19.545  1.00 50.06 LIG 0.28  HD
ATOM     18 H1   ASP D  -1     -21.572 -19.616 -19.843  1.00 50.06 LIG 0.28  HD
ENDBRANCH 14 15
BRANCH 14 19
ATOM     19  CB  ASP D  -1     -20.330 -21.120 -21.193  1.00 60.46 LIG 0.15  C 
BRANCH 19 20
ATOM     20  CG  ASP D  -1     -19.202 -21.836 -21.905  1.00 56.39 LIG 0.17  C 
ATOM     21 OD1  ASP D  -1     -19.336 -23.055 -22.153  1.00 65.47 LIG-0.65  OA
ATOM     22 OD2  ASP D  -1     -18.188 -21.176 -22.228  1.00 48.71 LIG-0.65  OA
ENDBRANCH 19 20
ENDBRANCH 14 19
ENDBRANCH 12 14
ENDBRANCH 5 10
ENDBRANCH 1 5
BRANCH 3 23
ATOM     23  CA  ASP D   1     -18.635 -14.341 -25.989  1.00 46.44 LIG 0.19  C 
BRANCH 23 24
ATOM     24  C   ASP D   1     -17.533 -15.123 -26.685  1.00 38.24 LIG 0.24  C 
ATOM     25 O    ASP D   1     -16.533 -14.550 -27.107  1.00 48.73 LIG-0.27  OA
ATOM     26  N   MET D   2     -17.698 -16.438 -26.769  1.00 47.06 LIG-0.35  N 
ATOM     27 H    MET D   2     -18.430 -16.848 -26.584  1.00 47.06 LIG 0.16  HD
BRANCH 26 28
ATOM     28  CA  MET D   2     -16.601 -17.305 -27.199  1.00 48.57 LIG 0.16  C 
BRANCH 28 29
ATOM     29  C   MET D   2     -16.269 -17.136 -28.677  1.00 49.60 LIG 0.22  C 
ATOM     30 O    MET D   2     -15.244 -17.631 -29.147  1.00 49.04 LIG-0.29  OA
ENDBRANCH 28 29
BRANCH 28 31
ATOM     31  CB  MET D   2     -16.946 -18.771 -26.903  1.00 43.71 LIG 0.04  C 
BRANCH 31 32
ATOM     32  CG  MET D   2     -16.446 -19.281 -25.569  1.00 45.96 LIG 0.08  C 
BRANCH 32 33
ATOM     33 SD   MET D   2     -14.697 -18.905 -25.321  1.00 73.43 LIG-0.17  SA
ATOM     34  CE  MET D   2     -14.011 -20.560 -25.226  1.00 57.46 LIG 0.09  C 
ENDBRANCH 32 33
ENDBRANCH 31 32
ENDBRANCH 28 31
ENDBRANCH 26 28
ENDBRANCH 23 24
BRANCH 23 35
ATOM     35  CB  ASP D   1     -17.969 -13.443 -24.931  1.00 44.28 LIG 0.15  C 
BRANCH 35 36
ATOM     36  CG  ASP D   1     -18.809 -13.258 -23.681  1.00 47.95 LIG 0.17  C 
ATOM     37 OD1  ASP D   1     -20.058 -13.273 -23.773  1.00 49.71 LIG-0.65  OA
ATOM     38 OD2  ASP D   1     -18.200 -13.085 -22.597  1.00 42.29 LIG-0.65  OA
ENDBRANCH 35 36
ENDBRANCH 23 35
ENDBRANCH 3 23
TORSDOF 17
ENDMDL
MODEL 52
USER: ADFR SOLUTION from run 94
USER: SCORE 11.978941 LL:  -2.421 LR: -10.645 RR:   0.000 FEB:  -5.574
USER: RMSD 4.618398
USER: SEED 93
USER: STATUS no improvement in best in 19 clusters for 5 generations
USER: GENES 19
USER: genes 0 Translation |==|  0.46611 0.35691 0.54911
USER: genes 1 Rotation |==|  0.23414 0.24712 0.79334 0.67123
USER: genes 2 Torsion [N]-C--CA-[N] |==|  0.92972
USER: genes 3 Torsion [C]-CA--CB-[CG] |==|  0.12730
USER: genes 4 Torsion [CA]-CB--CG-[OD2] |==|  0.62101
USER: genes 5 Torsion [C]-CA--N-[C] |==|  0.78380
USER: genes 6 Torsion [N]-C--CA-[N] |==|  0.45445
USER: genes 7 Torsion [C]-CA--N-[H3] |==|  0.69060
USER: genes 8 Torsion [C]-CA--CB-[CG] |==|  0.74453
USER: genes 9 Torsion [CA]-CB--CG-[OD2] |==|  0.34175
USER: genes 10 Torsion [C]-N--CA-[CB] |==|  0.25906
USER: genes 11 Torsion [N]-CA--C-[N] |==|  0.42708
USER: genes 12 Torsion [C]-N--CA-[C] |==|  0.14338
USER: genes 13 Torsion [N]-CA--C-[O] |==|  0.42864
USER: genes 14 Torsion [N]-CA--CB-[CG] |==|  0.64030
USER: genes 15 Torsion [CA]-CB--CG-[SD] |==|  0.81474
USER: genes 16 Torsion [CB]-CG--SD-[CE] |==|  0.46169
USER: genes 17 Torsion [N]-CA--CB-[CG] |==|  0.72518
USER: genes 18 Torsion [CA]-CB--CG-[OD1] |==|  0.85869
ROOT
ATOM      1  C   ASP D   0     -19.287 -20.646 -22.469  1.00 50.85 LIG 0.24  C 
ATOM      2 O    ASP D   0     -18.199 -21.178 -22.228  1.00 49.73 LIG-0.27  OA
ATOM      3  N   ASP D   1     -19.440 -19.679 -23.381  1.00 47.66 LIG-0.34  N 
ATOM      4 H    ASP D   1     -20.204 -19.354 -23.607  1.00 47.66 LIG 0.16  HD
ENDROOT
BRANCH 1 5
ATOM      5  CA  ASP D   0     -20.535 -21.081 -21.695  1.00 50.32 LIG 0.19  C 
BRANCH 5 6
ATOM      6  CB  ASP D   0     -21.138 -22.325 -22.357  1.00 50.50 LIG 0.15  C 
BRANCH 6 7
ATOM      7  CG  ASP D   0     -20.100 -23.371 -22.698  1.00 42.38 LIG 0.17  C 
ATOM      8 OD2  ASP D   0     -20.166 -23.936 -23.812  1.00 47.85 LIG-0.65  OA
ATOM      9 OD1  ASP D   0     -19.216 -23.626 -21.856  1.00 32.99 LIG-0.65  OA
ENDBRANCH 6 7
ENDBRANCH 5 6
BRANCH 5 10
ATOM     10  N   ASP D   0     -21.552 -20.034 -21.622  1.00 53.06 LIG-0.34  N 
ATOM     11 H    ASP D   0     -22.207 -20.145 -22.169  1.00 53.06 LIG 0.16  HD
ATOM     12  C   ASP D  -1     -21.463 -19.005 -20.781  1.00 52.15 LIG 0.25  C 
ATOM     13 O    ASP D  -1     -20.429 -18.711 -20.167  1.00 47.49 LIG-0.27  OA
BRANCH 12 14
ATOM     14  CA  ASP D  -1     -22.735 -18.176 -20.614  1.00 59.57 LIG 0.28  C 
BRANCH 14 15
ATOM     15  N   ASP D  -1     -22.638 -17.349 -19.414  1.00 50.06 LIG-0.07  N 
ATOM     16 H3   ASP D  -1     -23.216 -17.642 -18.804  1.00 50.06 LIG 0.28  HD
ATOM     17 H2   ASP D  -1     -22.826 -16.503 -19.620  1.00 50.06 LIG 0.28  HD
ATOM     18 H1   ASP D  -1     -21.812 -17.397 -19.086  1.00 50.06 LIG 0.28  HD
ENDBRANCH 14 15
BRANCH 14 19
ATOM     19  CB  ASP D  -1     -22.987 -17.308 -21.848  1.00 60.46 LIG 0.15  C 
BRANCH 19 20
ATOM     20  CG  ASP D  -1     -22.377 -15.928 -21.727  1.00 56.39 LIG 0.17  C 
ATOM     21 OD1  ASP D  -1     -22.700 -15.220 -20.747  1.00 65.47 LIG-0.65  OA
ATOM     22 OD2  ASP D  -1     -21.564 -15.558 -22.604  1.00 48.71 LIG-0.65  OA
ENDBRANCH 19 20
ENDBRANCH 14 19
ENDBRANCH 12 14
ENDBRANCH 5 10
ENDBRANCH 1 5
BRANCH 3 23
ATOM     23  CA  ASP D   1     -18.294 -19.076 -24.088  1.00 46.44 LIG 0.19  C 
BRANCH 23 24
ATOM     24  C   ASP D   1     -18.531 -17.603 -24.378  1.00 38.24 LIG 0.24  C 
ATOM     25 O    ASP D   1     -19.673 -17.158 -24.454  1.00 48.73 LIG-0.27  OA
ATOM     26  N   MET D   2     -17.452 -16.839 -24.500  1.00 47.06 LIG-0.35  N 
ATOM     27 H    MET D   2     -16.649 -17.140 -24.561  1.00 47.06 LIG 0.16  HD
BRANCH 26 28
ATOM     28  CA  MET D   2     -17.566 -15.381 -24.539  1.00 48.57 LIG 0.16  C 
BRANCH 28 29
ATOM     29  C   MET D   2     -18.382 -14.829 -23.376  1.00 49.60 LIG 0.22  C 
ATOM     30 O    MET D   2     -18.202 -13.677 -22.977  1.00 49.04 LIG-0.29  OA
ENDBRANCH 28 29
BRANCH 28 31
ATOM     31  CB  MET D   2     -18.185 -14.940 -25.871  1.00 43.71 LIG 0.04  C 
BRANCH 31 32
ATOM     32  CG  MET D   2     -17.417 -13.858 -26.598  1.00 45.96 LIG 0.08  C 
BRANCH 32 33
ATOM     33 SD   MET D   2     -17.446 -12.294 -25.694  1.00 73.43 LIG-0.17  SA
ATOM     34  CE  MET D   2     -16.154 -11.391 -26.551  1.00 57.46 LIG 0.09  C 
ENDBRANCH 32 33
ENDBRANCH 31 32
ENDBRANCH 28 31
ENDBRANCH 26 28
ENDBRANCH 23 24
BRANCH 23 35
ATOM     35  CB  ASP D   1     -18.009 -19.774 -25.430  1.00 44.28 LIG 0.15  C 
BRANCH 35 36
ATOM     36  CG  ASP D   1     -16.882 -20.786 -25.357  1.00 47.95 LIG 0.17  C 
ATOM     37 OD1  ASP D   1     -15.785 -20.448 -24.855  1.00 49.71 LIG-0.65  OA
ATOM     38 OD2  ASP D   1     -17.103 -21.931 -25.822  1.00 42.29 LIG-0.65  OA
ENDBRANCH 35 36
ENDBRANCH 23 35
ENDBRANCH 3 23
TORSDOF 17
ENDMDL
MODEL 53
USER: ADFR SOLUTION from run 150
USER: SCORE 12.492825 LL:  -2.802 LR: -10.639 RR:   0.000 FEB:  -5.567
USER: RMSD 6.907538
USER: SEED 149
USER: STATUS searching
USER: GENES 19
USER: genes 0 Translation |==|  0.39309 0.42982 0.55342
USER: genes 1 Rotation |==|  0.11028 0.58783 0.56178 0.79426
USER: genes 2 Torsion [N]-C--CA-[N] |==|  0.03019
USER: genes 3 Torsion [C]-CA--CB-[CG] |==|  0.52882
USER: genes 4 Torsion [CA]-CB--CG-[OD2] |==|  0.25004
USER: genes 5 Torsion [C]-CA--N-[C] |==|  0.16763
USER: genes 6 Torsion [N]-C--CA-[N] |==|  0.60679
USER: genes 7 Torsion [C]-CA--N-[H3] |==|  0.28883
USER: genes 8 Torsion [C]-CA--CB-[CG] |==|  0.78145
USER: genes 9 Torsion [CA]-CB--CG-[OD2] |==|  0.98039
USER: genes 10 Torsion [C]-N--CA-[CB] |==|  0.51885
USER: genes 11 Torsion [N]-CA--C-[N] |==|  0.36667
USER: genes 12 Torsion [C]-N--CA-[C] |==|  0.66000
USER: genes 13 Torsion [N]-CA--C-[O] |==|  0.25901
USER: genes 14 Torsion [N]-CA--CB-[CG] |==|  0.80420
USER: genes 15 Torsion [CA]-CB--CG-[SD] |==|  0.59378
USER: genes 16 Torsion [CB]-CG--SD-[CE] |==|  0.94662
USER: genes 17 Torsion [N]-CA--CB-[CG] |==|  0.11406
USER: genes 18 Torsion [CA]-CB--CG-[OD1] |==|  0.33889
ROOT
ATOM      1  C   ASP D   0     -20.820 -19.389 -22.391  1.00 50.85 LIG 0.24  C 
ATOM      2 O    ASP D   0     -21.567 -20.216 -21.860  1.00 49.73 LIG-0.27  OA
ATOM      3  N   ASP D   1     -19.992 -19.694 -23.398  1.00 47.66 LIG-0.34  N 
ATOM      4 H    ASP D   1     -19.522 -19.111 -23.821  1.00 47.66 LIG 0.16  HD
ENDROOT
BRANCH 1 5
ATOM      5  CA  ASP D   0     -20.806 -17.942 -21.888  1.00 50.32 LIG 0.19  C 
BRANCH 5 6
ATOM      6  CB  ASP D   0     -22.247 -17.434 -21.759  1.00 50.50 LIG 0.15  C 
BRANCH 6 7
ATOM      7  CG  ASP D   0     -22.325 -15.944 -21.509  1.00 42.38 LIG 0.17  C 
ATOM      8 OD2  ASP D   0     -22.390 -15.178 -22.496  1.00 47.85 LIG-0.65  OA
ATOM      9 OD1  ASP D   0     -22.326 -15.540 -20.330  1.00 32.99 LIG-0.65  OA
ENDBRANCH 6 7
ENDBRANCH 5 6
BRANCH 5 10
ATOM     10  N   ASP D   0     -20.056 -17.043 -22.763  1.00 53.06 LIG-0.34  N 
ATOM     11 H    ASP D   0     -19.388 -16.660 -22.380  1.00 53.06 LIG 0.16  HD
ATOM     12  C   ASP D  -1     -20.386 -16.843 -24.038  1.00 52.15 LIG 0.25  C 
ATOM     13 O    ASP D  -1     -21.465 -17.198 -24.529  1.00 47.49 LIG-0.27  OA
BRANCH 12 14
ATOM     14  CA  ASP D  -1     -19.339 -16.124 -24.886  1.00 59.57 LIG 0.28  C 
BRANCH 14 15
ATOM     15  N   ASP D  -1     -19.994 -15.202 -25.811  1.00 50.06 LIG-0.07  N 
ATOM     16 H3   ASP D  -1     -19.900 -14.368 -25.514  1.00 50.06 LIG 0.28  HD
ATOM     17 H2   ASP D  -1     -20.860 -15.401 -25.867  1.00 50.06 LIG 0.28  HD
ATOM     18 H1   ASP D  -1     -19.621 -15.273 -26.616  1.00 50.06 LIG 0.28  HD
ENDBRANCH 14 15
BRANCH 14 19
ATOM     19  CB  ASP D  -1     -18.336 -15.381 -24.003  1.00 60.46 LIG 0.15  C 
BRANCH 19 20
ATOM     20  CG  ASP D  -1     -18.879 -14.069 -23.477  1.00 56.39 LIG 0.17  C 
ATOM     21 OD1  ASP D  -1     -18.192 -13.433 -22.647  1.00 65.47 LIG-0.65  OA
ATOM     22 OD2  ASP D  -1     -19.985 -13.668 -23.904  1.00 48.71 LIG-0.65  OA
ENDBRANCH 19 20
ENDBRANCH 14 19
ENDBRANCH 12 14
ENDBRANCH 5 10
ENDBRANCH 1 5
BRANCH 3 23
ATOM     23  CA  ASP D   1     -19.810 -21.077 -23.874  1.00 46.44 LIG 0.19  C 
BRANCH 23 24
ATOM     24  C   ASP D   1     -19.465 -22.019 -22.731  1.00 38.24 LIG 0.24  C 
ATOM     25 O    ASP D   1     -18.616 -21.708 -21.902  1.00 48.73 LIG-0.27  OA
ATOM     26  N   MET D   2     -20.154 -23.152 -22.665  1.00 47.06 LIG-0.35  N 
ATOM     27 H    MET D   2     -20.671 -23.443 -23.288  1.00 47.06 LIG 0.16  HD
BRANCH 26 28
ATOM     28  CA  MET D   2     -20.074 -24.010 -21.484  1.00 48.57 LIG 0.16  C 
BRANCH 28 29
ATOM     29  C   MET D   2     -19.608 -25.422 -21.819  1.00 49.60 LIG 0.22  C 
ATOM     30 O    MET D   2     -18.414 -25.719 -21.752  1.00 49.04 LIG-0.29  OA
ENDBRANCH 28 29
BRANCH 28 31
ATOM     31  CB  MET D   2     -21.435 -24.061 -20.779  1.00 43.71 LIG 0.04  C 
BRANCH 31 32
ATOM     32  CG  MET D   2     -21.837 -22.777 -20.086  1.00 45.96 LIG 0.08  C 
BRANCH 32 33
ATOM     33 SD   MET D   2     -22.792 -23.098 -18.586  1.00 73.43 LIG-0.17  SA
ATOM     34  CE  MET D   2     -23.333 -24.780 -18.889  1.00 57.46 LIG 0.09  C 
ENDBRANCH 32 33
ENDBRANCH 31 32
ENDBRANCH 28 31
ENDBRANCH 26 28
ENDBRANCH 23 24
BRANCH 23 35
ATOM     35  CB  ASP D   1     -18.687 -21.188 -24.921  1.00 44.28 LIG 0.15  C 
BRANCH 35 36
ATOM     36  CG  ASP D   1     -17.468 -20.348 -24.589  1.00 47.95 LIG 0.17  C 
ATOM     37 OD1  ASP D   1     -16.352 -20.905 -24.473  1.00 49.71 LIG-0.65  OA
ATOM     38 OD2  ASP D   1     -17.642 -19.115 -24.432  1.00 42.29 LIG-0.65  OA
ENDBRANCH 35 36
ENDBRANCH 23 35
ENDBRANCH 3 23
TORSDOF 17
ENDMDL
MODEL 54
USER: ADFR SOLUTION from run 35
USER: SCORE 13.296417 LL:  -2.766 LR: -10.636 RR:   0.000 FEB:  -5.565
USER: RMSD 8.233117
USER: SEED 34
USER: STATUS no improvement in best in 13 clusters for 5 generations
USER: GENES 19
USER: genes 0 Translation |==|  0.35511 0.47541 0.60907
USER: genes 1 Rotation |==|  0.76232 0.78061 0.68065 0.76421
USER: genes 2 Torsion [N]-C--CA-[N] |==|  0.95768
USER: genes 3 Torsion [C]-CA--CB-[CG] |==|  0.47091
USER: genes 4 Torsion [CA]-CB--CG-[OD2] |==|  0.20992
USER: genes 5 Torsion [C]-CA--N-[C] |==|  0.82707
USER: genes 6 Torsion [N]-C--CA-[N] |==|  0.46063
USER: genes 7 Torsion [C]-CA--N-[H3] |==|  0.90721
USER: genes 8 Torsion [C]-CA--CB-[CG] |==|  0.78454
USER: genes 9 Torsion [CA]-CB--CG-[OD2] |==|  0.03507
USER: genes 10 Torsion [C]-N--CA-[CB] |==|  0.84980
USER: genes 11 Torsion [N]-CA--C-[N] |==|  0.40000
USER: genes 12 Torsion [C]-N--CA-[C] |==|  0.15802
USER: genes 13 Torsion [N]-CA--C-[O] |==|  0.53467
USER: genes 14 Torsion [N]-CA--CB-[CG] |==|  0.83574
USER: genes 15 Torsion [CA]-CB--CG-[SD] |==|  0.29065
USER: genes 16 Torsion [CB]-CG--SD-[CE] |==|  0.09431
USER: genes 17 Torsion [N]-CA--CB-[CG] |==|  0.68681
USER: genes 18 Torsion [CA]-CB--CG-[OD1] |==|  0.45088
ROOT
ATOM      1  C   ASP D   0     -21.618 -18.602 -21.390  1.00 50.85 LIG 0.24  C 
ATOM      2 O    ASP D   0     -22.618 -19.212 -21.000  1.00 49.73 LIG-0.27  OA
ATOM      3  N   ASP D   1     -21.365 -17.329 -21.062  1.00 47.66 LIG-0.34  N 
ATOM      4 H    ASP D   1     -20.637 -16.920 -21.268  1.00 47.66 LIG 0.16  HD
ENDROOT
BRANCH 1 5
ATOM      5  CA  ASP D   0     -20.608 -19.302 -22.304  1.00 50.32 LIG 0.19  C 
BRANCH 5 6
ATOM      6  CB  ASP D   0     -19.790 -20.307 -21.485  1.00 50.50 LIG 0.15  C 
BRANCH 6 7
ATOM      7  CG  ASP D   0     -18.946 -21.220 -22.346  1.00 42.38 LIG 0.17  C 
ATOM      8 OD2  ASP D   0     -17.904 -20.759 -22.861  1.00 47.85 LIG-0.65  OA
ATOM      9 OD1  ASP D   0     -19.322 -22.398 -22.505  1.00 32.99 LIG-0.65  OA
ENDBRANCH 6 7
ENDBRANCH 5 6
BRANCH 5 10
ATOM     10  N   ASP D   0     -19.699 -18.369 -22.968  1.00 53.06 LIG-0.34  N 
ATOM     11 H    ASP D   0     -18.872 -18.481 -22.761  1.00 53.06 LIG 0.16  HD
ATOM     12  C   ASP D  -1     -20.125 -17.434 -23.815  1.00 52.15 LIG 0.25  C 
ATOM     13 O    ASP D  -1     -21.314 -17.112 -23.937  1.00 47.49 LIG-0.27  OA
BRANCH 12 14
ATOM     14  CA  ASP D  -1     -19.041 -16.750 -24.644  1.00 59.57 LIG 0.28  C 
BRANCH 14 15
ATOM     15  N   ASP D  -1     -19.648 -16.008 -25.746  1.00 50.06 LIG-0.07  N 
ATOM     16 H3   ASP D  -1     -20.376 -16.437 -26.027  1.00 50.06 LIG 0.28  HD
ATOM     17 H2   ASP D  -1     -19.066 -15.943 -26.417  1.00 50.06 LIG 0.28  HD
ATOM     18 H1   ASP D  -1     -19.872 -15.194 -25.468  1.00 50.06 LIG 0.28  HD
ENDBRANCH 14 15
BRANCH 14 19
ATOM     19  CB  ASP D  -1     -18.191 -15.822 -23.774  1.00 60.46 LIG 0.15  C 
BRANCH 19 20
ATOM     20  CG  ASP D  -1     -18.882 -14.511 -23.467  1.00 56.39 LIG 0.17  C 
ATOM     21 OD1  ASP D  -1     -18.200 -13.579 -22.986  1.00 65.47 LIG-0.65  OA
ATOM     22 OD2  ASP D  -1     -20.104 -14.409 -23.719  1.00 48.71 LIG-0.65  OA
ENDBRANCH 19 20
ENDBRANCH 14 19
ENDBRANCH 12 14
ENDBRANCH 5 10
ENDBRANCH 1 5
BRANCH 3 23
ATOM     23  CA  ASP D   1     -22.328 -16.506 -20.307  1.00 46.44 LIG 0.19  C 
BRANCH 23 24
ATOM     24  C   ASP D   1     -22.511 -17.022 -18.890  1.00 38.24 LIG 0.24  C 
ATOM     25 O    ASP D   1     -22.455 -18.225 -18.652  1.00 48.73 LIG-0.27  OA
ATOM     26  N   MET D   2     -22.691 -16.110 -17.942  1.00 47.06 LIG-0.35  N 
ATOM     27 H    MET D   2     -22.844 -15.278 -18.092  1.00 47.06 LIG 0.16  HD
BRANCH 26 28
ATOM     28  CA  MET D   2     -22.637 -16.478 -16.527  1.00 48.57 LIG 0.16  C 
BRANCH 28 29
ATOM     29  C   MET D   2     -21.319 -17.141 -16.147  1.00 49.60 LIG 0.22  C 
ATOM     30 O    MET D   2     -21.197 -17.714 -15.062  1.00 49.04 LIG-0.29  OA
ENDBRANCH 28 29
BRANCH 28 31
ATOM     31  CB  MET D   2     -23.810 -17.405 -16.182  1.00 43.71 LIG 0.04  C 
BRANCH 31 32
ATOM     32  CG  MET D   2     -25.180 -16.817 -16.439  1.00 45.96 LIG 0.08  C 
BRANCH 32 33
ATOM     33 SD   MET D   2     -25.938 -17.510 -17.925  1.00 73.43 LIG-0.17  SA
ATOM     34  CE  MET D   2     -25.306 -19.188 -17.869  1.00 57.46 LIG 0.09  C 
ENDBRANCH 32 33
ENDBRANCH 31 32
ENDBRANCH 28 31
ENDBRANCH 26 28
ENDBRANCH 23 24
BRANCH 23 35
ATOM     35  CB  ASP D   1     -23.715 -16.478 -20.974  1.00 44.28 LIG 0.15  C 
BRANCH 35 36
ATOM     36  CG  ASP D   1     -24.092 -15.115 -21.524  1.00 47.95 LIG 0.17  C 
ATOM     37 OD1  ASP D   1     -25.016 -15.027 -22.366  1.00 49.71 LIG-0.65  OA
ATOM     38 OD2  ASP D   1     -23.440 -14.125 -21.110  1.00 42.29 LIG-0.65  OA
ENDBRANCH 35 36
ENDBRANCH 23 35
ENDBRANCH 3 23
TORSDOF 17
ENDMDL
MODEL 55
USER: ADFR SOLUTION from run 26
USER: SCORE 11.534520 LL:  -2.285 LR: -10.607 RR:   0.000 FEB:  -5.536
USER: RMSD 5.904883
USER: SEED 25
USER: STATUS no improvement in best in 6 clusters for 5 generations
USER: GENES 19
USER: genes 0 Translation |==|  0.42117 0.26186 0.60425
USER: genes 1 Rotation |==|  0.32645 0.17481 0.79117 0.67133
USER: genes 2 Torsion [N]-C--CA-[N] |==|  0.92344
USER: genes 3 Torsion [C]-CA--CB-[CG] |==|  0.08194
USER: genes 4 Torsion [CA]-CB--CG-[OD2] |==|  0.24040
USER: genes 5 Torsion [C]-CA--N-[C] |==|  0.64448
USER: genes 6 Torsion [N]-C--CA-[N] |==|  0.48223
USER: genes 7 Torsion [C]-CA--N-[H3] |==|  0.09357
USER: genes 8 Torsion [C]-CA--CB-[CG] |==|  0.66846
USER: genes 9 Torsion [CA]-CB--CG-[OD2] |==|  0.35678
USER: genes 10 Torsion [C]-N--CA-[CB] |==|  0.22776
USER: genes 11 Torsion [N]-CA--C-[N] |==|  0.41167
USER: genes 12 Torsion [C]-N--CA-[C] |==|  0.12484
USER: genes 13 Torsion [N]-CA--C-[O] |==|  0.46368
USER: genes 14 Torsion [N]-CA--CB-[CG] |==|  0.80719
USER: genes 15 Torsion [CA]-CB--CG-[SD] |==|  0.88655
USER: genes 16 Torsion [CB]-CG--SD-[CE] |==|  0.33453
USER: genes 17 Torsion [N]-CA--CB-[CG] |==|  0.71312
USER: genes 18 Torsion [CA]-CB--CG-[OD1] |==|  0.50615
ROOT
ATOM      1  C   ASP D   0     -20.230 -22.286 -21.477  1.00 50.85 LIG 0.24  C 
ATOM      2 O    ASP D   0     -19.007 -22.454 -21.478  1.00 49.73 LIG-0.27  OA
ATOM      3  N   ASP D   1     -20.821 -21.221 -22.031  1.00 47.66 LIG-0.34  N 
ATOM      4 H    ASP D   1     -21.674 -21.130 -22.099  1.00 47.66 LIG 0.16  HD
ENDROOT
BRANCH 1 5
ATOM      5  CA  ASP D   0     -21.140 -23.319 -20.804  1.00 50.32 LIG 0.19  C 
BRANCH 5 6
ATOM      6  CB  ASP D   0     -21.470 -24.434 -21.802  1.00 50.50 LIG 0.15  C 
BRANCH 6 7
ATOM      7  CG  ASP D   0     -20.373 -24.655 -22.820  1.00 42.38 LIG 0.17  C 
ATOM      8 OD2  ASP D   0     -19.436 -25.430 -22.527  1.00 47.85 LIG-0.65  OA
ATOM      9 OD1  ASP D   0     -20.450 -24.060 -23.913  1.00 32.99 LIG-0.65  OA
ENDBRANCH 6 7
ENDBRANCH 5 6
BRANCH 5 10
ATOM     10  N   ASP D   0     -22.384 -22.739 -20.301  1.00 53.06 LIG-0.34  N 
ATOM     11 H    ASP D   0     -22.816 -22.280 -20.886  1.00 53.06 LIG 0.16  HD
ATOM     12  C   ASP D  -1     -22.801 -22.913 -19.048  1.00 52.15 LIG 0.25  C 
ATOM     13 O    ASP D  -1     -22.085 -23.364 -18.145  1.00 47.49 LIG-0.27  OA
BRANCH 12 14
ATOM     14  CA  ASP D  -1     -24.246 -22.505 -18.771  1.00 59.57 LIG 0.28  C 
BRANCH 14 15
ATOM     15  N   ASP D  -1     -24.620 -22.886 -17.411  1.00 50.06 LIG-0.07  N 
ATOM     16 H3   ASP D  -1     -23.911 -22.814 -16.877  1.00 50.06 LIG 0.28  HD
ATOM     17 H2   ASP D  -1     -24.910 -23.727 -17.406  1.00 50.06 LIG 0.28  HD
ATOM     18 H1   ASP D  -1     -25.266 -22.348 -17.119  1.00 50.06 LIG 0.28  HD
ENDBRANCH 14 15
BRANCH 14 19
ATOM     19  CB  ASP D  -1     -24.442 -21.003 -18.983  1.00 60.46 LIG 0.15  C 
BRANCH 19 20
ATOM     20  CG  ASP D  -1     -24.896 -20.289 -17.729  1.00 56.39 LIG 0.17  C 
ATOM     21 OD1  ASP D  -1     -25.880 -20.749 -17.107  1.00 65.47 LIG-0.65  OA
ATOM     22 OD2  ASP D  -1     -24.261 -19.276 -17.357  1.00 48.71 LIG-0.65  OA
ENDBRANCH 19 20
ENDBRANCH 14 19
ENDBRANCH 12 14
ENDBRANCH 5 10
ENDBRANCH 1 5
BRANCH 3 23
ATOM     23  CA  ASP D   1     -20.049 -20.091 -22.582  1.00 46.44 LIG 0.19  C 
BRANCH 23 24
ATOM     24  C   ASP D   1     -20.882 -18.821 -22.635  1.00 38.24 LIG 0.24  C 
ATOM     25 O    ASP D   1     -22.099 -18.879 -22.786  1.00 48.73 LIG-0.27  OA
ATOM     26  N   MET D   2     -20.232 -17.675 -22.471  1.00 47.06 LIG-0.35  N 
ATOM     27 H    MET D   2     -19.376 -17.598 -22.475  1.00 47.06 LIG 0.16  HD
BRANCH 26 28
ATOM     28  CA  MET D   2     -20.960 -16.423 -22.266  1.00 48.57 LIG 0.16  C 
BRANCH 28 29
ATOM     29  C   MET D   2     -22.097 -16.567 -21.262  1.00 49.60 LIG 0.22  C 
ATOM     30 O    MET D   2     -22.650 -15.569 -20.797  1.00 49.04 LIG-0.29  OA
ENDBRANCH 28 29
BRANCH 28 31
ATOM     31  CB  MET D   2     -21.505 -15.908 -23.605  1.00 43.71 LIG 0.04  C 
BRANCH 31 32
ATOM     32  CG  MET D   2     -20.449 -15.415 -24.570  1.00 45.96 LIG 0.08  C 
BRANCH 32 33
ATOM     33 SD   MET D   2     -19.163 -14.466 -23.728  1.00 73.43 LIG-0.17  SA
ATOM     34  CE  MET D   2     -17.712 -15.440 -24.132  1.00 57.46 LIG 0.09  C 
ENDBRANCH 32 33
ENDBRANCH 31 32
ENDBRANCH 28 31
ENDBRANCH 26 28
ENDBRANCH 23 24
BRANCH 23 35
ATOM     35  CB  ASP D   1     -19.544 -20.375 -24.007  1.00 44.28 LIG 0.15  C 
BRANCH 35 36
ATOM     36  CG  ASP D   1     -18.069 -20.728 -24.065  1.00 47.95 LIG 0.17  C 
ATOM     37 OD1  ASP D   1     -17.531 -20.939 -25.177  1.00 49.71 LIG-0.65  OA
ATOM     38 OD2  ASP D   1     -17.451 -20.803 -22.976  1.00 42.29 LIG-0.65  OA
ENDBRANCH 35 36
ENDBRANCH 23 35
ENDBRANCH 3 23
TORSDOF 17
ENDMDL
MODEL 56
USER: ADFR SOLUTION from run 141
USER: SCORE 12.295647 LL:  -2.941 LR: -10.580 RR:   0.000 FEB:  -5.509
USER: RMSD 8.782278
USER: SEED 140
USER: STATUS no improvement in best in 13 clusters for 5 generations
USER: GENES 19
USER: genes 0 Translation |==|  0.36283 0.41502 0.65851
USER: genes 1 Rotation |==|  0.60483 0.12922 0.71566 0.73456
USER: genes 2 Torsion [N]-C--CA-[N] |==|  0.04929
USER: genes 3 Torsion [C]-CA--CB-[CG] |==|  0.33325
USER: genes 4 Torsion [CA]-CB--CG-[OD2] |==|  0.83816
USER: genes 5 Torsion [C]-CA--N-[C] |==|  0.66112
USER: genes 6 Torsion [N]-C--CA-[N] |==|  0.56765
USER: genes 7 Torsion [C]-CA--N-[H3] |==|  0.84394
USER: genes 8 Torsion [C]-CA--CB-[CG] |==|  0.79396
USER: genes 9 Torsion [CA]-CB--CG-[OD2] |==|  0.00800
USER: genes 10 Torsion [C]-N--CA-[CB] |==|  0.25301
USER: genes 11 Torsion [N]-CA--C-[N] |==|  0.47688
USER: genes 12 Torsion [C]-N--CA-[C] |==|  0.20298
USER: genes 13 Torsion [N]-CA--C-[O] |==|  0.95400
USER: genes 14 Torsion [N]-CA--CB-[CG] |==|  0.82444
USER: genes 15 Torsion [CA]-CB--CG-[SD] |==|  0.36642
USER: genes 16 Torsion [CB]-CG--SD-[CE] |==|  0.05856
USER: genes 17 Torsion [N]-CA--CB-[CG] |==|  0.61579
USER: genes 18 Torsion [CA]-CB--CG-[OD1] |==|  0.33677
ROOT
ATOM      1  C   ASP D   0     -21.455 -19.644 -20.500  1.00 50.85 LIG 0.24  C 
ATOM      2 O    ASP D   0     -20.633 -18.893 -21.031  1.00 49.73 LIG-0.27  OA
ATOM      3  N   ASP D   1     -22.451 -19.202 -19.722  1.00 47.66 LIG-0.34  N 
ATOM      4 H    ASP D   1     -23.071 -19.709 -19.407  1.00 47.66 LIG 0.16  HD
ENDROOT
BRANCH 1 5
ATOM      5  CA  ASP D   0     -21.350 -21.158 -20.708  1.00 50.32 LIG 0.19  C 
BRANCH 5 6
ATOM      6  CB  ASP D   0     -20.991 -21.447 -22.170  1.00 50.50 LIG 0.15  C 
BRANCH 6 7
ATOM      7  CG  ASP D   0     -19.687 -22.198 -22.318  1.00 42.38 LIG 0.17  C 
ATOM      8 OD2  ASP D   0     -18.647 -21.684 -21.848  1.00 47.85 LIG-0.65  OA
ATOM      9 OD1  ASP D   0     -19.700 -23.302 -22.897  1.00 32.99 LIG-0.65  OA
ENDBRANCH 6 7
ENDBRANCH 5 6
BRANCH 5 10
ATOM     10  N   ASP D   0     -22.582 -21.866 -20.366  1.00 53.06 LIG-0.34  N 
ATOM     11 H    ASP D   0     -23.271 -21.602 -20.808  1.00 53.06 LIG 0.16  HD
ATOM     12  C   ASP D  -1     -22.624 -22.831 -19.449  1.00 52.15 LIG 0.25  C 
ATOM     13 O    ASP D  -1     -21.706 -23.054 -18.648  1.00 47.49 LIG-0.27  OA
BRANCH 12 14
ATOM     14  CA  ASP D  -1     -23.901 -23.667 -19.427  1.00 59.57 LIG 0.28  C 
BRANCH 14 15
ATOM     15  N   ASP D  -1     -24.090 -24.256 -18.103  1.00 50.06 LIG-0.07  N 
ATOM     16 H3   ASP D  -1     -23.371 -24.733 -17.885  1.00 50.06 LIG 0.28  HD
ATOM     17 H2   ASP D  -1     -24.806 -24.785 -18.112  1.00 50.06 LIG 0.28  HD
ATOM     18 H1   ASP D  -1     -24.208 -23.608 -17.504  1.00 50.06 LIG 0.28  HD
ENDBRANCH 14 15
BRANCH 14 19
ATOM     19  CB  ASP D  -1     -25.114 -22.822 -19.818  1.00 60.46 LIG 0.15  C 
BRANCH 19 20
ATOM     20  CG  ASP D  -1     -25.544 -21.870 -18.722  1.00 56.39 LIG 0.17  C 
ATOM     21 OD1  ASP D  -1     -26.569 -21.177 -18.907  1.00 65.47 LIG-0.65  OA
ATOM     22 OD2  ASP D  -1     -24.864 -21.826 -17.672  1.00 48.71 LIG-0.65  OA
ENDBRANCH 19 20
ENDBRANCH 14 19
ENDBRANCH 12 14
ENDBRANCH 5 10
ENDBRANCH 1 5
BRANCH 3 23
ATOM     23  CA  ASP D   1     -22.574 -17.785 -19.332  1.00 46.44 LIG 0.19  C 
BRANCH 23 24
ATOM     24  C   ASP D   1     -23.201 -17.639 -17.955  1.00 38.24 LIG 0.24  C 
ATOM     25 O    ASP D   1     -23.640 -18.621 -17.363  1.00 48.73 LIG-0.27  OA
ATOM     26  N   MET D   2     -23.205 -16.421 -17.428  1.00 47.06 LIG-0.35  N 
ATOM     27 H    MET D   2     -23.007 -15.705 -17.861  1.00 47.06 LIG 0.16  HD
BRANCH 26 28
ATOM     28  CA  MET D   2     -23.561 -16.211 -16.025  1.00 48.57 LIG 0.16  C 
BRANCH 28 29
ATOM     29  C   MET D   2     -22.468 -16.678 -15.071  1.00 49.60 LIG 0.22  C 
ATOM     30 O    MET D   2     -21.575 -17.431 -15.463  1.00 49.04 LIG-0.29  OA
ENDBRANCH 28 29
BRANCH 28 31
ATOM     31  CB  MET D   2     -24.878 -16.930 -15.705  1.00 43.71 LIG 0.04  C 
BRANCH 31 32
ATOM     32  CG  MET D   2     -26.080 -16.417 -16.468  1.00 45.96 LIG 0.08  C 
BRANCH 32 33
ATOM     33 SD   MET D   2     -27.033 -17.765 -17.200  1.00 73.43 LIG-0.17  SA
ATOM     34  CE  MET D   2     -26.499 -19.142 -16.181  1.00 57.46 LIG 0.09  C 
ENDBRANCH 32 33
ENDBRANCH 31 32
ENDBRANCH 28 31
ENDBRANCH 26 28
ENDBRANCH 23 24
BRANCH 23 35
ATOM     35  CB  ASP D   1     -23.438 -16.983 -20.322  1.00 44.28 LIG 0.15  C 
BRANCH 35 36
ATOM     36  CG  ASP D   1     -22.877 -15.609 -20.636  1.00 47.95 LIG 0.17  C 
ATOM     37 OD1  ASP D   1     -22.604 -15.314 -21.822  1.00 49.71 LIG-0.65  OA
ATOM     38 OD2  ASP D   1     -22.700 -14.824 -19.673  1.00 42.29 LIG-0.65  OA
ENDBRANCH 35 36
ENDBRANCH 23 35
ENDBRANCH 3 23
TORSDOF 17
ENDMDL
MODEL 57
USER: ADFR SOLUTION from run 122
USER: SCORE 11.485685 LL:  -2.227 LR: -10.518 RR:   0.000 FEB:  -5.447
USER: RMSD 8.757655
USER: SEED 121
USER: STATUS no improvement in best in 14 clusters for 5 generations
USER: GENES 19
USER: genes 0 Translation |==|  0.37174 0.48491 0.63654
USER: genes 1 Rotation |==|  0.63743 0.02345 0.55882 0.52349
USER: genes 2 Torsion [N]-C--CA-[N] |==|  0.35000
USER: genes 3 Torsion [C]-CA--CB-[CG] |==|  0.50282
USER: genes 4 Torsion [CA]-CB--CG-[OD2] |==|  0.20093
USER: genes 5 Torsion [C]-CA--N-[C] |==|  0.84290
USER: genes 6 Torsion [N]-C--CA-[N] |==|  0.41990
USER: genes 7 Torsion [C]-CA--N-[H3] |==|  0.99086
USER: genes 8 Torsion [C]-CA--CB-[CG] |==|  0.79423
USER: genes 9 Torsion [CA]-CB--CG-[OD2] |==|  0.99527
USER: genes 10 Torsion [C]-N--CA-[CB] |==|  0.28308
USER: genes 11 Torsion [N]-CA--C-[N] |==|  0.35070
USER: genes 12 Torsion [C]-N--CA-[C] |==|  0.14529
USER: genes 13 Torsion [N]-CA--C-[O] |==|  0.24417
USER: genes 14 Torsion [N]-CA--CB-[CG] |==|  0.72168
USER: genes 15 Torsion [CA]-CB--CG-[SD] |==|  0.24009
USER: genes 16 Torsion [CB]-CG--SD-[CE] |==|  0.71633
USER: genes 17 Torsion [N]-CA--CB-[CG] |==|  0.81115
USER: genes 18 Torsion [CA]-CB--CG-[OD1] |==|  0.83980
ROOT
ATOM      1  C   ASP D   0     -21.268 -18.438 -20.895  1.00 50.85 LIG 0.24  C 
ATOM      2 O    ASP D   0     -20.610 -17.755 -20.105  1.00 49.73 LIG-0.27  OA
ATOM      3  N   ASP D   1     -22.601 -18.551 -20.829  1.00 47.66 LIG-0.34  N 
ATOM      4 H    ASP D   1     -23.074 -18.965 -21.416  1.00 47.66 LIG 0.16  HD
ENDROOT
BRANCH 1 5
ATOM      5  CA  ASP D   0     -20.555 -19.217 -22.005  1.00 50.32 LIG 0.19  C 
BRANCH 5 6
ATOM      6  CB  ASP D   0     -19.708 -20.332 -21.381  1.00 50.50 LIG 0.15  C 
BRANCH 6 7
ATOM      7  CG  ASP D   0     -18.948 -21.138 -22.410  1.00 42.38 LIG 0.17  C 
ATOM      8 OD2  ASP D   0     -17.967 -20.607 -22.977  1.00 47.85 LIG-0.65  OA
ATOM      9 OD1  ASP D   0     -19.325 -22.303 -22.648  1.00 32.99 LIG-0.65  OA
ENDBRANCH 6 7
ENDBRANCH 5 6
BRANCH 5 10
ATOM     10  N   ASP D   0     -19.700 -18.370 -22.834  1.00 53.06 LIG-0.34  N 
ATOM     11 H    ASP D   0     -18.879 -18.626 -22.865  1.00 53.06 LIG 0.16  HD
ATOM     12  C   ASP D  -1     -20.160 -17.300 -23.479  1.00 52.15 LIG 0.25  C 
ATOM     13 O    ASP D  -1     -21.266 -16.791 -23.257  1.00 47.49 LIG-0.27  OA
BRANCH 12 14
ATOM     14  CA  ASP D  -1     -19.223 -16.708 -24.530  1.00 59.57 LIG 0.28  C 
BRANCH 14 15
ATOM     15  N   ASP D  -1     -20.000 -16.059 -25.583  1.00 50.06 LIG-0.07  N 
ATOM     16 H3   ASP D  -1     -20.869 -16.178 -25.428  1.00 50.06 LIG 0.28  HD
ATOM     17 H2   ASP D  -1     -19.788 -16.415 -26.371  1.00 50.06 LIG 0.28  HD
ATOM     18 H1   ASP D  -1     -19.818 -15.188 -25.592  1.00 50.06 LIG 0.28  HD
ENDBRANCH 14 15
BRANCH 14 19
ATOM     19  CB  ASP D  -1     -18.244 -15.719 -23.895  1.00 60.46 LIG 0.15  C 
BRANCH 19 20
ATOM     20  CG  ASP D  -1     -18.898 -14.405 -23.523  1.00 56.39 LIG 0.17  C 
ATOM     21 OD1  ASP D  -1     -18.194 -13.526 -22.978  1.00 65.47 LIG-0.65  OA
ATOM     22 OD2  ASP D  -1     -20.111 -14.248 -23.788  1.00 48.71 LIG-0.65  OA
ENDBRANCH 19 20
ENDBRANCH 14 19
ENDBRANCH 12 14
ENDBRANCH 5 10
ENDBRANCH 1 5
BRANCH 3 23
ATOM     23  CA  ASP D   1     -23.385 -17.967 -19.725  1.00 46.44 LIG 0.19  C 
BRANCH 23 24
ATOM     24  C   ASP D   1     -24.463 -18.923 -19.242  1.00 38.24 LIG 0.24  C 
ATOM     25 O    ASP D   1     -25.247 -19.432 -20.038  1.00 48.73 LIG-0.27  OA
ATOM     26  N   MET D   2     -24.478 -19.198 -17.943  1.00 47.06 LIG-0.35  N 
ATOM     27 H    MET D   2     -24.017 -18.775 -17.353  1.00 47.06 LIG 0.16  HD
BRANCH 26 28
ATOM     28  CA  MET D   2     -25.310 -20.278 -17.414  1.00 48.57 LIG 0.16  C 
BRANCH 28 29
ATOM     29  C   MET D   2     -25.083 -21.598 -18.141  1.00 49.60 LIG 0.22  C 
ATOM     30 O    MET D   2     -24.199 -22.372 -17.770  1.00 49.04 LIG-0.29  OA
ENDBRANCH 28 29
BRANCH 28 31
ATOM     31  CB  MET D   2     -26.791 -19.884 -17.491  1.00 43.71 LIG 0.04  C 
BRANCH 31 32
ATOM     32  CG  MET D   2     -27.383 -19.392 -16.189  1.00 45.96 LIG 0.08  C 
BRANCH 32 33
ATOM     33 SD   MET D   2     -27.116 -17.621 -15.959  1.00 73.43 LIG-0.17  SA
ATOM     34  CE  MET D   2     -25.755 -17.638 -14.791  1.00 57.46 LIG 0.09  C 
ENDBRANCH 32 33
ENDBRANCH 31 32
ENDBRANCH 28 31
ENDBRANCH 26 28
ENDBRANCH 23 24
BRANCH 23 35
ATOM     35  CB  ASP D   1     -24.077 -16.655 -20.136  1.00 44.28 LIG 0.15  C 
BRANCH 35 36
ATOM     36  CG  ASP D   1     -23.108 -15.516 -20.392  1.00 47.95 LIG 0.17  C 
ATOM     37 OD1  ASP D   1     -22.325 -15.160 -19.482  1.00 49.71 LIG-0.65  OA
ATOM     38 OD2  ASP D   1     -23.147 -14.969 -21.521  1.00 42.29 LIG-0.65  OA
ENDBRANCH 35 36
ENDBRANCH 23 35
ENDBRANCH 3 23
TORSDOF 17
ENDMDL
MODEL 58
USER: ADFR SOLUTION from run 141
USER: SCORE 12.064180 LL:  -2.663 LR: -10.506 RR:   0.000 FEB:  -5.435
USER: RMSD 8.224823
USER: SEED 140
USER: STATUS no improvement in best in 13 clusters for 5 generations
USER: GENES 19
USER: genes 0 Translation |==|  0.36238 0.40909 0.65834
USER: genes 1 Rotation |==|  0.60100 0.12067 0.71589 0.72203
USER: genes 2 Torsion [N]-C--CA-[N] |==|  0.04013
USER: genes 3 Torsion [C]-CA--CB-[CG] |==|  0.33656
USER: genes 4 Torsion [CA]-CB--CG-[OD2] |==|  0.83700
USER: genes 5 Torsion [C]-CA--N-[C] |==|  0.67259
USER: genes 6 Torsion [N]-C--CA-[N] |==|  0.55893
USER: genes 7 Torsion [C]-CA--N-[H3] |==|  0.84985
USER: genes 8 Torsion [C]-CA--CB-[CG] |==|  0.81857
USER: genes 9 Torsion [CA]-CB--CG-[OD2] |==|  0.96609
USER: genes 10 Torsion [C]-N--CA-[CB] |==|  0.25000
USER: genes 11 Torsion [N]-CA--C-[N] |==|  0.43518
USER: genes 12 Torsion [C]-N--CA-[C] |==|  0.64485
USER: genes 13 Torsion [N]-CA--C-[O] |==|  0.72603
USER: genes 14 Torsion [N]-CA--CB-[CG] |==|  0.90970
USER: genes 15 Torsion [CA]-CB--CG-[SD] |==|  0.19698
USER: genes 16 Torsion [CB]-CG--SD-[CE] |==|  0.41270
USER: genes 17 Torsion [N]-CA--CB-[CG] |==|  0.64456
USER: genes 18 Torsion [CA]-CB--CG-[OD1] |==|  0.72731
ROOT
ATOM      1  C   ASP D   0     -21.465 -19.746 -20.503  1.00 50.85 LIG 0.24  C 
ATOM      2 O    ASP D   0     -20.615 -18.984 -20.971  1.00 49.73 LIG-0.27  OA
ATOM      3  N   ASP D   1     -22.508 -19.321 -19.779  1.00 47.66 LIG-0.34  N 
ATOM      4 H    ASP D   1     -23.143 -19.835 -19.511  1.00 47.66 LIG 0.16  HD
ENDROOT
BRANCH 1 5
ATOM      5  CA  ASP D   0     -21.341 -21.256 -20.730  1.00 50.32 LIG 0.19  C 
BRANCH 5 6
ATOM      6  CB  ASP D   0     -20.974 -21.522 -22.195  1.00 50.50 LIG 0.15  C 
BRANCH 6 7
ATOM      7  CG  ASP D   0     -19.675 -22.280 -22.347  1.00 42.38 LIG 0.17  C 
ATOM      8 OD2  ASP D   0     -18.633 -21.780 -21.868  1.00 47.85 LIG-0.65  OA
ATOM      9 OD1  ASP D   0     -19.695 -23.377 -22.940  1.00 32.99 LIG-0.65  OA
ENDBRANCH 6 7
ENDBRANCH 5 6
BRANCH 5 10
ATOM     10  N   ASP D   0     -22.566 -21.982 -20.401  1.00 53.06 LIG-0.34  N 
ATOM     11 H    ASP D   0     -23.244 -21.760 -20.882  1.00 53.06 LIG 0.16  HD
ATOM     12  C   ASP D  -1     -22.617 -22.905 -19.441  1.00 52.15 LIG 0.25  C 
ATOM     13 O    ASP D  -1     -21.726 -23.062 -18.597  1.00 47.49 LIG-0.27  OA
BRANCH 12 14
ATOM     14  CA  ASP D  -1     -23.871 -23.775 -19.428  1.00 59.57 LIG 0.28  C 
BRANCH 14 15
ATOM     15  N   ASP D  -1     -24.054 -24.366 -18.104  1.00 50.06 LIG-0.07  N 
ATOM     16 H3   ASP D  -1     -23.312 -24.797 -17.866  1.00 50.06 LIG 0.28  HD
ATOM     17 H2   ASP D  -1     -24.736 -24.939 -18.126  1.00 50.06 LIG 0.28  HD
ATOM     18 H1   ASP D  -1     -24.226 -23.724 -17.513  1.00 50.06 LIG 0.28  HD
ENDBRANCH 14 15
BRANCH 14 19
ATOM     19  CB  ASP D  -1     -25.104 -22.965 -19.831  1.00 60.46 LIG 0.15  C 
BRANCH 19 20
ATOM     20  CG  ASP D  -1     -25.441 -21.877 -18.834  1.00 56.39 LIG 0.17  C 
ATOM     21 OD1  ASP D  -1     -26.288 -21.015 -19.161  1.00 65.47 LIG-0.65  OA
ATOM     22 OD2  ASP D  -1     -24.869 -21.891 -17.721  1.00 48.71 LIG-0.65  OA
ENDBRANCH 19 20
ENDBRANCH 14 19
ENDBRANCH 12 14
ENDBRANCH 5 10
ENDBRANCH 1 5
BRANCH 3 23
ATOM     23  CA  ASP D   1     -22.659 -17.911 -19.372  1.00 46.44 LIG 0.19  C 
BRANCH 23 24
ATOM     24  C   ASP D   1     -23.392 -17.791 -18.046  1.00 38.24 LIG 0.24  C 
ATOM     25 O    ASP D   1     -24.106 -18.704 -17.643  1.00 48.73 LIG-0.27  OA
ATOM     26  N   MET D   2     -23.182 -16.680 -17.349  1.00 47.06 LIG-0.35  N 
ATOM     27 H    MET D   2     -22.780 -15.984 -17.654  1.00 47.06 LIG 0.16  HD
BRANCH 26 28
ATOM     28  CA  MET D   2     -23.641 -16.566 -15.965  1.00 48.57 LIG 0.16  C 
BRANCH 28 29
ATOM     29  C   MET D   2     -24.475 -15.312 -15.729  1.00 49.60 LIG 0.22  C 
ATOM     30 O    MET D   2     -23.965 -14.306 -15.235  1.00 49.04 LIG-0.29  OA
ENDBRANCH 28 29
BRANCH 28 31
ATOM     31  CB  MET D   2     -22.439 -16.584 -15.011  1.00 43.71 LIG 0.04  C 
BRANCH 31 32
ATOM     32  CG  MET D   2     -21.274 -17.428 -15.478  1.00 45.96 LIG 0.08  C 
BRANCH 32 33
ATOM     33 SD   MET D   2     -20.425 -16.678 -16.885  1.00 73.43 LIG-0.17  SA
ATOM     34  CE  MET D   2     -18.746 -17.242 -16.600  1.00 57.46 LIG 0.09  C 
ENDBRANCH 32 33
ENDBRANCH 31 32
ENDBRANCH 28 31
ENDBRANCH 26 28
ENDBRANCH 23 24
BRANCH 23 35
ATOM     35  CB  ASP D   1     -23.442 -17.089 -20.411  1.00 44.28 LIG 0.15  C 
BRANCH 35 36
ATOM     36  CG  ASP D   1     -22.728 -15.821 -20.839  1.00 47.95 LIG 0.17  C 
ATOM     37 OD1  ASP D   1     -23.043 -14.730 -20.311  1.00 49.71 LIG-0.65  OA
ATOM     38 OD2  ASP D   1     -21.847 -15.927 -21.727  1.00 42.29 LIG-0.65  OA
ENDBRANCH 35 36
ENDBRANCH 23 35
ENDBRANCH 3 23
TORSDOF 17
ENDMDL
MODEL 59
USER: ADFR SOLUTION from run 80
USER: SCORE 12.461564 LL:  -2.434 LR: -10.500 RR:   0.000 FEB:  -5.428
USER: RMSD 7.794987
USER: SEED 79
USER: STATUS no improvement in best in 7 clusters for 5 generations
USER: GENES 19
USER: genes 0 Translation |==|  0.42889 0.54798 0.49945
USER: genes 1 Rotation |==|  0.83234 0.61378 0.85373 0.53844
USER: genes 2 Torsion [N]-C--CA-[N] |==|  0.36634
USER: genes 3 Torsion [C]-CA--CB-[CG] |==|  0.29282
USER: genes 4 Torsion [CA]-CB--CG-[OD2] |==|  0.56812
USER: genes 5 Torsion [C]-CA--N-[C] |==|  0.84244
USER: genes 6 Torsion [N]-C--CA-[N] |==|  0.04263
USER: genes 7 Torsion [C]-CA--N-[H3] |==|  0.10139
USER: genes 8 Torsion [C]-CA--CB-[CG] |==|  0.71607
USER: genes 9 Torsion [CA]-CB--CG-[OD2] |==|  0.32441
USER: genes 10 Torsion [C]-N--CA-[CB] |==|  0.84024
USER: genes 11 Torsion [N]-CA--C-[N] |==|  0.30556
USER: genes 12 Torsion [C]-N--CA-[C] |==|  0.16437
USER: genes 13 Torsion [N]-CA--C-[O] |==|  0.11659
USER: genes 14 Torsion [N]-CA--CB-[CG] |==|  0.82433
USER: genes 15 Torsion [CA]-CB--CG-[SD] |==|  0.83290
USER: genes 16 Torsion [CB]-CG--SD-[CE] |==|  0.88547
USER: genes 17 Torsion [N]-CA--CB-[CG] |==|  0.83795
USER: genes 18 Torsion [CA]-CB--CG-[OD1] |==|  0.81052
ROOT
ATOM      1  C   ASP D   0     -20.068 -17.350 -23.363  1.00 50.85 LIG 0.24  C 
ATOM      2 O    ASP D   0     -20.905 -17.928 -24.063  1.00 49.73 LIG-0.27  OA
ATOM      3  N   ASP D   1     -20.078 -17.397 -22.025  1.00 47.66 LIG-0.34  N 
ATOM      4 H    ASP D   1     -19.460 -17.059 -21.532  1.00 47.66 LIG 0.16  HD
ENDROOT
BRANCH 1 5
ATOM      5  CA  ASP D   0     -18.964 -16.521 -24.025  1.00 50.32 LIG 0.19  C 
BRANCH 5 6
ATOM      6  CB  ASP D   0     -19.565 -15.223 -24.578  1.00 50.50 LIG 0.15  C 
BRANCH 6 7
ATOM      7  CG  ASP D   0     -19.217 -14.012 -23.742  1.00 42.38 LIG 0.17  C 
ATOM      8 OD2  ASP D   0     -19.978 -13.019 -23.785  1.00 47.85 LIG-0.65  OA
ATOM      9 OD1  ASP D   0     -18.189 -14.052 -23.038  1.00 32.99 LIG-0.65  OA
ENDBRANCH 6 7
ENDBRANCH 5 6
BRANCH 5 10
ATOM     10  N   ASP D   0     -18.287 -17.235 -25.105  1.00 53.06 LIG-0.34  N 
ATOM     11 H    ASP D   0     -18.308 -16.827 -25.862  1.00 53.06 LIG 0.16  HD
ATOM     12  C   ASP D  -1     -17.693 -18.414 -24.923  1.00 52.15 LIG 0.25  C 
ATOM     13 O    ASP D  -1     -17.856 -19.113 -23.915  1.00 47.49 LIG-0.27  OA
BRANCH 12 14
ATOM     14  CA  ASP D  -1     -16.781 -18.877 -26.058  1.00 59.57 LIG 0.28  C 
BRANCH 14 15
ATOM     15  N   ASP D  -1     -16.478 -17.755 -26.943  1.00 50.06 LIG-0.07  N 
ATOM     16 H3   ASP D  -1     -16.393 -17.011 -26.462  1.00 50.06 LIG 0.28  HD
ATOM     17 H2   ASP D  -1     -17.138 -17.654 -27.532  1.00 50.06 LIG 0.28  HD
ATOM     18 H1   ASP D  -1     -15.717 -17.917 -27.376  1.00 50.06 LIG 0.28  HD
ENDBRANCH 14 15
BRANCH 14 19
ATOM     19  CB  ASP D  -1     -15.494 -19.493 -25.508  1.00 60.46 LIG 0.15  C 
BRANCH 19 20
ATOM     20  CG  ASP D  -1     -14.311 -18.553 -25.595  1.00 56.39 LIG 0.17  C 
ATOM     21 OD1  ASP D  -1     -13.933 -18.178 -26.728  1.00 65.47 LIG-0.65  OA
ATOM     22 OD2  ASP D  -1     -13.769 -18.179 -24.531  1.00 48.71 LIG-0.65  OA
ENDBRANCH 19 20
ENDBRANCH 14 19
ENDBRANCH 12 14
ENDBRANCH 5 10
ENDBRANCH 1 5
BRANCH 3 23
ATOM     23  CA  ASP D   1     -21.168 -18.042 -21.269  1.00 46.44 LIG 0.19  C 
BRANCH 23 24
ATOM     24  C   ASP D   1     -21.246 -19.531 -21.566  1.00 38.24 LIG 0.24  C 
ATOM     25 O    ASP D   1     -21.590 -19.929 -22.675  1.00 48.73 LIG-0.27  OA
ATOM     26  N   MET D   2     -20.887 -20.353 -20.587  1.00 47.06 LIG-0.35  N 
ATOM     27 H    MET D   2     -20.749 -20.109 -19.774  1.00 47.06 LIG 0.16  HD
BRANCH 26 28
ATOM     28  CA  MET D   2     -20.695 -21.781 -20.839  1.00 48.57 LIG 0.16  C 
BRANCH 28 29
ATOM     29  C   MET D   2     -19.626 -22.049 -21.891  1.00 49.60 LIG 0.22  C 
ATOM     30 O    MET D   2     -18.575 -21.405 -21.892  1.00 49.04 LIG-0.29  OA
ENDBRANCH 28 29
BRANCH 28 31
ATOM     31  CB  MET D   2     -22.023 -22.420 -21.266  1.00 43.71 LIG 0.04  C 
BRANCH 31 32
ATOM     32  CG  MET D   2     -23.112 -22.377 -20.216  1.00 45.96 LIG 0.08  C 
BRANCH 32 33
ATOM     33 SD   MET D   2     -22.625 -23.247 -18.710  1.00 73.43 LIG-0.17  SA
ATOM     34  CE  MET D   2     -21.812 -24.687 -19.405  1.00 57.46 LIG 0.09  C 
ENDBRANCH 32 33
ENDBRANCH 31 32
ENDBRANCH 28 31
ENDBRANCH 26 28
ENDBRANCH 23 24
BRANCH 23 35
ATOM     35  CB  ASP D   1     -22.542 -17.431 -21.597  1.00 44.28 LIG 0.15  C 
BRANCH 35 36
ATOM     36  CG  ASP D   1     -22.622 -15.942 -21.319  1.00 47.95 LIG 0.17  C 
ATOM     37 OD1  ASP D   1     -22.581 -15.536 -20.135  1.00 49.71 LIG-0.65  OA
ATOM     38 OD2  ASP D   1     -22.739 -15.176 -22.306  1.00 42.29 LIG-0.65  OA
ENDBRANCH 35 36
ENDBRANCH 23 35
ENDBRANCH 3 23
TORSDOF 17
ENDMDL
MODEL 60
USER: ADFR SOLUTION from run 128
USER: SCORE 11.975511 LL:  -2.453 LR: -10.494 RR:   0.000 FEB:  -5.423
USER: RMSD 7.630927
USER: SEED 127
USER: STATUS no improvement in best in 10 clusters for 5 generations
USER: GENES 19
USER: genes 0 Translation |==|  0.45010 0.63063 0.49423
USER: genes 1 Rotation |==|  0.89446 0.26467 0.69316 0.54136
USER: genes 2 Torsion [N]-C--CA-[N] |==|  0.16382
USER: genes 3 Torsion [C]-CA--CB-[CG] |==|  0.21412
USER: genes 4 Torsion [CA]-CB--CG-[OD2] |==|  0.88984
USER: genes 5 Torsion [C]-CA--N-[C] |==|  0.75992
USER: genes 6 Torsion [N]-C--CA-[N] |==|  0.31666
USER: genes 7 Torsion [C]-CA--N-[H3] |==|  0.24548
USER: genes 8 Torsion [C]-CA--CB-[CG] |==|  0.79640
USER: genes 9 Torsion [CA]-CB--CG-[OD2] |==|  0.88247
USER: genes 10 Torsion [C]-N--CA-[CB] |==|  0.19156
USER: genes 11 Torsion [N]-CA--C-[N] |==|  0.86095
USER: genes 12 Torsion [C]-N--CA-[C] |==|  0.58116
USER: genes 13 Torsion [N]-CA--C-[O] |==|  0.19297
USER: genes 14 Torsion [N]-CA--CB-[CG] |==|  0.71360
USER: genes 15 Torsion [CA]-CB--CG-[SD] |==|  0.68095
USER: genes 16 Torsion [CB]-CG--SD-[CE] |==|  0.15278
USER: genes 17 Torsion [N]-CA--CB-[CG] |==|  0.70565
USER: genes 18 Torsion [CA]-CB--CG-[OD1] |==|  0.93353
ROOT
ATOM      1  C   ASP D   0     -19.623 -15.925 -23.457  1.00 50.85 LIG 0.24  C 
ATOM      2 O    ASP D   0     -20.374 -14.950 -23.353  1.00 49.73 LIG-0.27  OA
ATOM      3  N   ASP D   1     -19.806 -17.063 -22.776  1.00 47.66 LIG-0.34  N 
ATOM      4 H    ASP D   1     -19.331 -17.771 -22.895  1.00 47.66 LIG 0.16  HD
ENDROOT
BRANCH 1 5
ATOM      5  CA  ASP D   0     -18.408 -15.854 -24.388  1.00 50.32 LIG 0.19  C 
BRANCH 5 6
ATOM      6  CB  ASP D   0     -18.360 -14.476 -25.057  1.00 50.50 LIG 0.15  C 
BRANCH 6 7
ATOM      7  CG  ASP D   0     -17.842 -13.393 -24.137  1.00 42.38 LIG 0.17  C 
ATOM      8 OD2  ASP D   0     -18.200 -13.408 -22.938  1.00 47.85 LIG-0.65  OA
ATOM      9 OD1  ASP D   0     -17.075 -12.531 -24.609  1.00 32.99 LIG-0.65  OA
ENDBRANCH 6 7
ENDBRANCH 5 6
BRANCH 5 10
ATOM     10  N   ASP D   0     -18.422 -16.890 -25.419  1.00 53.06 LIG-0.34  N 
ATOM     11 H    ASP D   0     -18.777 -16.639 -26.161  1.00 53.06 LIG 0.16  HD
ATOM     12  C   ASP D  -1     -17.925 -18.109 -25.217  1.00 52.15 LIG 0.25  C 
ATOM     13 O    ASP D  -1     -17.632 -18.551 -24.099  1.00 47.49 LIG-0.27  OA
BRANCH 12 14
ATOM     14  CA  ASP D  -1     -17.741 -18.963 -26.469  1.00 59.57 LIG 0.28  C 
BRANCH 14 15
ATOM     15  N   ASP D  -1     -16.320 -19.209 -26.701  1.00 50.06 LIG-0.07  N 
ATOM     16 H3   ASP D  -1     -16.069 -19.941 -26.261  1.00 50.06 LIG 0.28  HD
ATOM     17 H2   ASP D  -1     -15.846 -18.512 -26.411  1.00 50.06 LIG 0.28  HD
ATOM     18 H1   ASP D  -1     -16.176 -19.323 -27.572  1.00 50.06 LIG 0.28  HD
ENDBRANCH 14 15
BRANCH 14 19
ATOM     19  CB  ASP D  -1     -18.503 -20.284 -26.348  1.00 60.46 LIG 0.15  C 
BRANCH 19 20
ATOM     20  CG  ASP D  -1     -17.846 -21.253 -25.388  1.00 56.39 LIG 0.17  C 
ATOM     21 OD1  ASP D  -1     -18.578 -21.905 -24.610  1.00 65.47 LIG-0.65  OA
ATOM     22 OD2  ASP D  -1     -16.601 -21.372 -25.422  1.00 48.71 LIG-0.65  OA
ENDBRANCH 19 20
ENDBRANCH 14 19
ENDBRANCH 12 14
ENDBRANCH 5 10
ENDBRANCH 1 5
BRANCH 3 23
ATOM     23  CA  ASP D   1     -20.852 -17.203 -21.746  1.00 46.44 LIG 0.19  C 
BRANCH 23 24
ATOM     24  C   ASP D   1     -20.696 -18.500 -20.968  1.00 38.24 LIG 0.24  C 
ATOM     25 O    ASP D   1     -20.737 -18.499 -19.741  1.00 48.73 LIG-0.27  OA
ATOM     26  N   MET D   2     -20.558 -19.610 -21.682  1.00 47.06 LIG-0.35  N 
ATOM     27 H    MET D   2     -20.416 -19.628 -22.530  1.00 47.06 LIG 0.16  HD
BRANCH 26 28
ATOM     28  CA  MET D   2     -20.641 -20.925 -21.047  1.00 48.57 LIG 0.16  C 
BRANCH 28 29
ATOM     29  C   MET D   2     -19.806 -21.975 -21.769  1.00 49.60 LIG 0.22  C 
ATOM     30 O    MET D   2     -18.575 -21.923 -21.741  1.00 49.04 LIG-0.29  OA
ENDBRANCH 28 29
BRANCH 28 31
ATOM     31  CB  MET D   2     -22.105 -21.379 -20.972  1.00 43.71 LIG 0.04  C 
BRANCH 31 32
ATOM     32  CG  MET D   2     -22.740 -21.245 -19.605  1.00 45.96 LIG 0.08  C 
BRANCH 32 33
ATOM     33 SD   MET D   2     -23.170 -22.854 -18.907  1.00 73.43 LIG-0.17  SA
ATOM     34  CE  MET D   2     -21.584 -23.688 -18.991  1.00 57.46 LIG 0.09  C 
ENDBRANCH 32 33
ENDBRANCH 31 32
ENDBRANCH 28 31
ENDBRANCH 26 28
ENDBRANCH 23 24
BRANCH 23 35
ATOM     35  CB  ASP D   1     -22.267 -17.192 -22.351  1.00 44.28 LIG 0.15  C 
BRANCH 35 36
ATOM     36  CG  ASP D   1     -23.019 -15.898 -22.105  1.00 47.95 LIG 0.17  C 
ATOM     37 OD1  ASP D   1     -22.700 -15.179 -21.130  1.00 49.71 LIG-0.65  OA
ATOM     38 OD2  ASP D   1     -23.948 -15.611 -22.898  1.00 42.29 LIG-0.65  OA
ENDBRANCH 35 36
ENDBRANCH 23 35
ENDBRANCH 3 23
TORSDOF 17
ENDMDL
MODEL 61
USER: ADFR SOLUTION from run 145
USER: SCORE 12.554010 LL:  -3.528 LR: -10.491 RR:   0.000 FEB:  -5.420
USER: RMSD 6.524716
USER: SEED 144
USER: STATUS no improvement in best in 10 clusters for 5 generations
USER: GENES 19
USER: genes 0 Translation |==|  0.49490 0.38665 0.50966
USER: genes 1 Rotation |==|  0.61497 0.93563 0.71613 0.51718
USER: genes 2 Torsion [N]-C--CA-[N] |==|  0.02198
USER: genes 3 Torsion [C]-CA--CB-[CG] |==|  0.25241
USER: genes 4 Torsion [CA]-CB--CG-[OD2] |==|  0.07739
USER: genes 5 Torsion [C]-CA--N-[C] |==|  0.21111
USER: genes 6 Torsion [N]-C--CA-[N] |==|  0.18997
USER: genes 7 Torsion [C]-CA--N-[H3] |==|  0.11905
USER: genes 8 Torsion [C]-CA--CB-[CG] |==|  0.65118
USER: genes 9 Torsion [CA]-CB--CG-[OD2] |==|  0.38203
USER: genes 10 Torsion [C]-N--CA-[CB] |==|  0.48889
USER: genes 11 Torsion [N]-CA--C-[N] |==|  0.25070
USER: genes 12 Torsion [C]-N--CA-[C] |==|  0.73264
USER: genes 13 Torsion [N]-CA--C-[O] |==|  0.02696
USER: genes 14 Torsion [N]-CA--CB-[CG] |==|  0.42159
USER: genes 15 Torsion [CA]-CB--CG-[SD] |==|  0.69227
USER: genes 16 Torsion [CB]-CG--SD-[CE] |==|  0.81988
USER: genes 17 Torsion [N]-CA--CB-[CG] |==|  0.05063
USER: genes 18 Torsion [CA]-CB--CG-[OD1] |==|  0.59032
ROOT
ATOM      1  C   ASP D   0     -18.682 -20.133 -23.179  1.00 50.85 LIG 0.24  C 
ATOM      2 O    ASP D   0     -18.210 -21.146 -22.654  1.00 49.73 LIG-0.27  OA
ATOM      3  N   ASP D   1     -19.522 -19.306 -22.545  1.00 47.66 LIG-0.34  N 
ATOM      4 H    ASP D   1     -19.798 -18.562 -22.876  1.00 47.66 LIG 0.16  HD
ENDROOT
BRANCH 1 5
ATOM      5  CA  ASP D   0     -18.322 -19.789 -24.628  1.00 50.32 LIG 0.19  C 
BRANCH 5 6
ATOM      6  CB  ASP D   0     -16.799 -19.821 -24.795  1.00 50.50 LIG 0.15  C 
BRANCH 6 7
ATOM      7  CG  ASP D   0     -16.282 -21.178 -25.217  1.00 42.38 LIG 0.17  C 
ATOM      8 OD2  ASP D   0     -17.039 -21.925 -25.876  1.00 47.85 LIG-0.65  OA
ATOM      9 OD1  ASP D   0     -15.121 -21.497 -24.895  1.00 32.99 LIG-0.65  OA
ENDBRANCH 6 7
ENDBRANCH 5 6
BRANCH 5 10
ATOM     10  N   ASP D   0     -18.824 -18.480 -25.042  1.00 53.06 LIG-0.34  N 
ATOM     11 H    ASP D   0     -19.516 -18.516 -25.552  1.00 53.06 LIG 0.16  HD
ATOM     12  C   ASP D  -1     -18.254 -17.339 -24.659  1.00 52.15 LIG 0.25  C 
ATOM     13 O    ASP D  -1     -17.136 -17.277 -24.130  1.00 47.49 LIG-0.27  OA
BRANCH 12 14
ATOM     14  CA  ASP D  -1     -19.066 -16.073 -24.922  1.00 59.57 LIG 0.28  C 
BRANCH 14 15
ATOM     15  N   ASP D  -1     -20.247 -16.051 -24.063  1.00 50.06 LIG-0.07  N 
ATOM     16 H3   ASP D  -1     -20.023 -16.311 -23.242  1.00 50.06 LIG 0.28  HD
ATOM     17 H2   ASP D  -1     -20.864 -16.603 -24.391  1.00 50.06 LIG 0.28  HD
ATOM     18 H1   ASP D  -1     -20.576 -15.224 -24.033  1.00 50.06 LIG 0.28  HD
ENDBRANCH 14 15
BRANCH 14 19
ATOM     19  CB  ASP D  -1     -18.215 -14.821 -24.701  1.00 60.46 LIG 0.15  C 
BRANCH 19 20
ATOM     20  CG  ASP D  -1     -18.843 -13.853 -23.721  1.00 56.39 LIG 0.17  C 
ATOM     21 OD1  ASP D  -1     -20.075 -13.648 -23.796  1.00 65.47 LIG-0.65  OA
ATOM     22 OD2  ASP D  -1     -18.106 -13.307 -22.869  1.00 48.71 LIG-0.65  OA
ENDBRANCH 19 20
ENDBRANCH 14 19
ENDBRANCH 12 14
ENDBRANCH 5 10
ENDBRANCH 1 5
BRANCH 3 23
ATOM     23  CA  ASP D   1     -20.054 -19.604 -21.202  1.00 46.44 LIG 0.19  C 
BRANCH 23 24
ATOM     24  C   ASP D   1     -20.912 -20.859 -21.209  1.00 38.24 LIG 0.24  C 
ATOM     25 O    ASP D   1     -22.111 -20.792 -21.461  1.00 48.73 LIG-0.27  OA
ATOM     26  N   MET D   2     -20.290 -22.007 -20.972  1.00 47.06 LIG-0.35  N 
ATOM     27 H    MET D   2     -19.481 -22.071 -20.687  1.00 47.06 LIG 0.16  HD
BRANCH 26 28
ATOM     28  CA  MET D   2     -20.966 -23.285 -21.190  1.00 48.57 LIG 0.16  C 
BRANCH 28 29
ATOM     29  C   MET D   2     -21.574 -23.849 -19.912  1.00 49.60 LIG 0.22  C 
ATOM     30 O    MET D   2     -21.626 -23.163 -18.889  1.00 49.04 LIG-0.29  OA
ENDBRANCH 28 29
BRANCH 28 31
ATOM     31  CB  MET D   2     -19.988 -24.299 -21.797  1.00 43.71 LIG 0.04  C 
BRANCH 31 32
ATOM     32  CG  MET D   2     -20.290 -25.745 -21.469  1.00 45.96 LIG 0.08  C 
BRANCH 32 33
ATOM     33 SD   MET D   2     -19.050 -26.453 -20.362  1.00 73.43 LIG-0.17  SA
ATOM     34  CE  MET D   2     -17.596 -26.395 -21.410  1.00 57.46 LIG 0.09  C 
ENDBRANCH 32 33
ENDBRANCH 31 32
ENDBRANCH 28 31
ENDBRANCH 26 28
ENDBRANCH 23 24
BRANCH 23 35
ATOM     35  CB  ASP D   1     -20.917 -18.454 -20.652  1.00 44.28 LIG 0.15  C 
BRANCH 35 36
ATOM     36  CG  ASP D   1     -21.395 -17.493 -21.723  1.00 47.95 LIG 0.17  C 
ATOM     37 OD1  ASP D   1     -21.543 -16.282 -21.440  1.00 49.71 LIG-0.65  OA
ATOM     38 OD2  ASP D   1     -21.635 -17.969 -22.860  1.00 42.29 LIG-0.65  OA
ENDBRANCH 35 36
ENDBRANCH 23 35
ENDBRANCH 3 23
TORSDOF 17
ENDMDL
MODEL 62
USER: ADFR SOLUTION from run 160
USER: SCORE 12.090315 LL:  -2.614 LR: -10.479 RR:   0.000 FEB:  -5.408
USER: RMSD 5.849063
USER: SEED 159
USER: STATUS no improvement in best in 27 clusters for 5 generations
USER: GENES 19
USER: genes 0 Translation |==|  0.44534 0.68326 0.45942
USER: genes 1 Rotation |==|  0.08890 0.73199 0.33848 0.53306
USER: genes 2 Torsion [N]-C--CA-[N] |==|  0.54261
USER: genes 3 Torsion [C]-CA--CB-[CG] |==|  0.20769
USER: genes 4 Torsion [CA]-CB--CG-[OD2] |==|  0.04747
USER: genes 5 Torsion [C]-CA--N-[C] |==|  0.16111
USER: genes 6 Torsion [N]-C--CA-[N] |==|  0.08018
USER: genes 7 Torsion [C]-CA--N-[H3] |==|  0.93247
USER: genes 8 Torsion [C]-CA--CB-[CG] |==|  0.81058
USER: genes 9 Torsion [CA]-CB--CG-[OD2] |==|  0.92755
USER: genes 10 Torsion [C]-N--CA-[CB] |==|  0.14461
USER: genes 11 Torsion [N]-CA--C-[N] |==|  0.08974
USER: genes 12 Torsion [C]-N--CA-[C] |==|  0.79340
USER: genes 13 Torsion [N]-CA--C-[O] |==|  0.65389
USER: genes 14 Torsion [N]-CA--CB-[CG] |==|  0.83550
USER: genes 15 Torsion [CA]-CB--CG-[SD] |==|  0.57884
USER: genes 16 Torsion [CB]-CG--SD-[CE] |==|  0.74184
USER: genes 17 Torsion [N]-CA--CB-[CG] |==|  0.66567
USER: genes 18 Torsion [CA]-CB--CG-[OD1] |==|  0.99326
ROOT
ATOM      1  C   ASP D   0     -19.723 -15.017 -24.083  1.00 50.85 LIG 0.24  C 
ATOM      2 O    ASP D   0     -20.607 -14.232 -23.728  1.00 49.73 LIG-0.27  OA
ATOM      3  N   ASP D   1     -19.731 -16.318 -23.768  1.00 47.66 LIG-0.34  N 
ATOM      4 H    ASP D   1     -19.160 -16.885 -24.071  1.00 47.66 LIG 0.16  HD
ENDROOT
BRANCH 1 5
ATOM      5  CA  ASP D   0     -18.540 -14.505 -24.911  1.00 50.32 LIG 0.19  C 
BRANCH 5 6
ATOM      6  CB  ASP D   0     -17.240 -15.115 -24.372  1.00 50.50 LIG 0.15  C 
BRANCH 6 7
ATOM      7  CG  ASP D   0     -17.071 -16.569 -24.752  1.00 42.38 LIG 0.17  C 
ATOM      8 OD2  ASP D   0     -17.769 -17.026 -25.684  1.00 47.85 LIG-0.65  OA
ATOM      9 OD1  ASP D   0     -16.240 -17.253 -24.124  1.00 32.99 LIG-0.65  OA
ENDBRANCH 6 7
ENDBRANCH 5 6
BRANCH 5 10
ATOM     10  N   ASP D   0     -18.427 -13.048 -24.901  1.00 53.06 LIG-0.34  N 
ATOM     11 H    ASP D   0     -18.456 -12.690 -25.683  1.00 53.06 LIG 0.16  HD
ATOM     12  C   ASP D  -1     -18.293 -12.346 -23.777  1.00 52.15 LIG 0.25  C 
ATOM     13 O    ASP D  -1     -18.016 -12.855 -22.683  1.00 47.49 LIG-0.27  OA
BRANCH 12 14
ATOM     14  CA  ASP D  -1     -18.493 -10.839 -23.911  1.00 59.57 LIG 0.28  C 
BRANCH 14 15
ATOM     15  N   ASP D  -1     -19.416 -10.553 -25.008  1.00 50.06 LIG-0.07  N 
ATOM     16 H3   ASP D  -1     -19.406 -11.229 -25.587  1.00 50.06 LIG 0.28  HD
ATOM     17 H2   ASP D  -1     -19.165  -9.805 -25.420  1.00 50.06 LIG 0.28  HD
ATOM     18 H1   ASP D  -1     -20.239 -10.452 -24.684  1.00 50.06 LIG 0.28  HD
ENDBRANCH 14 15
BRANCH 14 19
ATOM     19  CB  ASP D  -1     -19.009 -10.237 -22.603  1.00 60.46 LIG 0.15  C 
BRANCH 19 20
ATOM     20  CG  ASP D  -1     -20.420 -10.674 -22.274  1.00 56.39 LIG 0.17  C 
ATOM     21 OD1  ASP D  -1     -20.777 -10.670 -21.074  1.00 65.47 LIG-0.65  OA
ATOM     22 OD2  ASP D  -1     -21.175 -11.007 -23.215  1.00 48.71 LIG-0.65  OA
ENDBRANCH 19 20
ENDBRANCH 14 19
ENDBRANCH 12 14
ENDBRANCH 5 10
ENDBRANCH 1 5
BRANCH 3 23
ATOM     23  CA  ASP D   1     -20.737 -16.900 -22.861  1.00 46.44 LIG 0.19  C 
BRANCH 23 24
ATOM     24  C   ASP D   1     -20.631 -18.416 -22.812  1.00 38.24 LIG 0.24  C 
ATOM     25 O    ASP D   1     -21.637 -19.107 -22.678  1.00 48.73 LIG-0.27  OA
ATOM     26  N   MET D   2     -19.418 -18.934 -22.961  1.00 47.06 LIG-0.35  N 
ATOM     27 H    MET D   2     -18.690 -18.476 -22.946  1.00 47.06 LIG 0.16  HD
BRANCH 26 28
ATOM     28  CA  MET D   2     -19.236 -20.370 -23.169  1.00 48.57 LIG 0.16  C 
BRANCH 28 29
ATOM     29  C   MET D   2     -19.452 -21.175 -21.893  1.00 49.60 LIG 0.22  C 
ATOM     30 O    MET D   2     -18.575 -21.935 -21.478  1.00 49.04 LIG-0.29  OA
ENDBRANCH 28 29
BRANCH 28 31
ATOM     31  CB  MET D   2     -17.836 -20.644 -23.732  1.00 43.71 LIG 0.04  C 
BRANCH 31 32
ATOM     32  CG  MET D   2     -17.539 -19.963 -25.050  1.00 45.96 LIG 0.08  C 
BRANCH 32 33
ATOM     33 SD   MET D   2     -16.339 -20.894 -26.029  1.00 73.43 LIG-0.17  SA
ATOM     34  CE  MET D   2     -14.810 -20.109 -25.517  1.00 57.46 LIG 0.09  C 
ENDBRANCH 32 33
ENDBRANCH 31 32
ENDBRANCH 28 31
ENDBRANCH 26 28
ENDBRANCH 23 24
BRANCH 23 35
ATOM     35  CB  ASP D   1     -22.174 -16.549 -23.285  1.00 44.28 LIG 0.15  C 
BRANCH 35 36
ATOM     36  CG  ASP D   1     -22.947 -15.787 -22.224  1.00 47.95 LIG 0.17  C 
ATOM     37 OD1  ASP D   1     -22.406 -15.553 -21.119  1.00 49.71 LIG-0.65  OA
ATOM     38 OD2  ASP D   1     -24.117 -15.432 -22.507  1.00 42.29 LIG-0.65  OA
ENDBRANCH 35 36
ENDBRANCH 23 35
ENDBRANCH 3 23
TORSDOF 17
ENDMDL
MODEL 63
USER: ADFR SOLUTION from run 152
USER: SCORE 12.522633 LL:  -2.548 LR: -10.456 RR:   0.000 FEB:  -5.385
USER: RMSD 7.945564
USER: SEED 151
USER: STATUS no improvement in best in 13 clusters for 5 generations
USER: GENES 19
USER: genes 0 Translation |==|  0.42609 0.43766 0.56823
USER: genes 1 Rotation |==|  0.43760 0.97978 0.62611 0.50323
USER: genes 2 Torsion [N]-C--CA-[N] |==|  0.26845
USER: genes 3 Torsion [C]-CA--CB-[CG] |==|  0.11529
USER: genes 4 Torsion [CA]-CB--CG-[OD2] |==|  0.25069
USER: genes 5 Torsion [C]-CA--N-[C] |==|  0.69702
USER: genes 6 Torsion [N]-C--CA-[N] |==|  0.52913
USER: genes 7 Torsion [C]-CA--N-[H3] |==|  0.55193
USER: genes 8 Torsion [C]-CA--CB-[CG] |==|  0.74872
USER: genes 9 Torsion [CA]-CB--CG-[OD2] |==|  0.55814
USER: genes 10 Torsion [C]-N--CA-[CB] |==|  0.83327
USER: genes 11 Torsion [N]-CA--C-[N] |==|  0.44394
USER: genes 12 Torsion [C]-N--CA-[C] |==|  0.56867
USER: genes 13 Torsion [N]-CA--C-[O] |==|  0.26247
USER: genes 14 Torsion [N]-CA--CB-[CG] |==|  0.09795
USER: genes 15 Torsion [CA]-CB--CG-[SD] |==|  0.65408
USER: genes 16 Torsion [CB]-CG--SD-[CE] |==|  0.31560
USER: genes 17 Torsion [N]-CA--CB-[CG] |==|  0.59925
USER: genes 18 Torsion [CA]-CB--CG-[OD1] |==|  0.50948
ROOT
ATOM      1  C   ASP D   0     -20.127 -19.253 -22.125  1.00 50.85 LIG 0.24  C 
ATOM      2 O    ASP D   0     -19.332 -19.487 -21.210  1.00 49.73 LIG-0.27  OA
ATOM      3  N   ASP D   1     -21.430 -19.026 -21.919  1.00 47.66 LIG-0.34  N 
ATOM      4 H    ASP D   1     -21.977 -18.792 -22.541  1.00 47.66 LIG 0.16  HD
ENDROOT
BRANCH 1 5
ATOM      5  CA  ASP D   0     -19.634 -19.232 -23.575  1.00 50.32 LIG 0.19  C 
BRANCH 5 6
ATOM      6  CB  ASP D   0     -18.583 -20.331 -23.772  1.00 50.50 LIG 0.15  C 
BRANCH 6 7
ATOM      7  CG  ASP D   0     -18.951 -21.626 -23.083  1.00 42.38 LIG 0.17  C 
ATOM      8 OD2  ASP D   0     -19.613 -22.473 -23.721  1.00 47.85 LIG-0.65  OA
ATOM      9 OD1  ASP D   0     -18.575 -21.799 -21.906  1.00 32.99 LIG-0.65  OA
ENDBRANCH 6 7
ENDBRANCH 5 6
BRANCH 5 10
ATOM     10  N   ASP D   0     -19.061 -17.944 -23.961  1.00 53.06 LIG-0.34  N 
ATOM     11 H    ASP D   0     -18.301 -17.775 -23.593  1.00 53.06 LIG 0.16  HD
ATOM     12  C   ASP D  -1     -19.668 -17.113 -24.807  1.00 52.15 LIG 0.25  C 
ATOM     13 O    ASP D  -1     -20.850 -17.234 -25.152  1.00 47.49 LIG-0.27  OA
BRANCH 12 14
ATOM     14  CA  ASP D  -1     -18.811 -15.965 -25.336  1.00 59.57 LIG 0.28  C 
BRANCH 14 15
ATOM     15  N   ASP D  -1     -19.650 -15.001 -26.043  1.00 50.06 LIG-0.07  N 
ATOM     16 H3   ASP D  -1     -19.141 -14.495 -26.570  1.00 50.06 LIG 0.28  HD
ATOM     17 H2   ASP D  -1     -20.072 -14.485 -25.453  1.00 50.06 LIG 0.28  HD
ATOM     18 H1   ASP D  -1     -20.248 -15.435 -26.538  1.00 50.06 LIG 0.28  HD
ENDBRANCH 14 15
BRANCH 14 19
ATOM     19  CB  ASP D  -1     -18.047 -15.284 -24.199  1.00 60.46 LIG 0.15  C 
BRANCH 19 20
ATOM     20  CG  ASP D  -1     -18.816 -14.134 -23.585  1.00 56.39 LIG 0.17  C 
ATOM     21 OD1  ASP D  -1     -20.059 -14.108 -23.728  1.00 65.47 LIG-0.65  OA
ATOM     22 OD2  ASP D  -1     -18.179 -13.265 -22.948  1.00 48.71 LIG-0.65  OA
ENDBRANCH 19 20
ENDBRANCH 14 19
ENDBRANCH 12 14
ENDBRANCH 5 10
ENDBRANCH 1 5
BRANCH 3 23
ATOM     23  CA  ASP D   1     -22.051 -19.160 -20.589  1.00 46.44 LIG 0.19  C 
BRANCH 23 24
ATOM     24  C   ASP D   1     -21.428 -18.204 -19.585  1.00 38.24 LIG 0.24  C 
ATOM     25 O    ASP D   1     -20.333 -17.695 -19.805  1.00 48.73 LIG-0.27  OA
ATOM     26  N   MET D   2     -22.144 -17.928 -18.501  1.00 47.06 LIG-0.35  N 
ATOM     27 H    MET D   2     -22.856 -18.350 -18.270  1.00 47.06 LIG 0.16  HD
BRANCH 26 28
ATOM     28  CA  MET D   2     -21.750 -16.848 -17.597  1.00 48.57 LIG 0.16  C 
BRANCH 28 29
ATOM     29  C   MET D   2     -22.276 -17.051 -16.181  1.00 49.60 LIG 0.22  C 
ATOM     30 O    MET D   2     -21.575 -17.595 -15.326  1.00 49.04 LIG-0.29  OA
ENDBRANCH 28 29
BRANCH 28 31
ATOM     31  CB  MET D   2     -22.235 -15.501 -18.148  1.00 43.71 LIG 0.04  C 
BRANCH 31 32
ATOM     32  CG  MET D   2     -23.568 -15.552 -18.863  1.00 45.96 LIG 0.08  C 
BRANCH 32 33
ATOM     33 SD   MET D   2     -23.452 -14.895 -20.542  1.00 73.43 LIG-0.17  SA
ATOM     34  CE  MET D   2     -23.764 -16.377 -21.502  1.00 57.46 LIG 0.09  C 
ENDBRANCH 32 33
ENDBRANCH 31 32
ENDBRANCH 28 31
ENDBRANCH 26 28
ENDBRANCH 23 24
BRANCH 23 35
ATOM     35  CB  ASP D   1     -21.909 -20.584 -20.023  1.00 44.28 LIG 0.15  C 
BRANCH 35 36
ATOM     36  CG  ASP D   1     -23.113 -21.037 -19.219  1.00 47.95 LIG 0.17  C 
ATOM     37 OD1  ASP D   1     -23.089 -22.154 -18.653  1.00 49.71 LIG-0.65  OA
ATOM     38 OD2  ASP D   1     -24.098 -20.260 -19.167  1.00 42.29 LIG-0.65  OA
ENDBRANCH 35 36
ENDBRANCH 23 35
ENDBRANCH 3 23
TORSDOF 17
ENDMDL
MODEL 64
USER: ADFR SOLUTION from run 24
USER: SCORE 12.002870 LL:  -2.689 LR: -10.441 RR:   0.000 FEB:  -5.370
USER: RMSD 4.810526
USER: SEED 23
USER: STATUS no improvement in best in 7 clusters for 5 generations
USER: GENES 19
USER: genes 0 Translation |==|  0.49512 0.49284 0.45549
USER: genes 1 Rotation |==|  0.42507 0.29168 0.71498 0.89341
USER: genes 2 Torsion [N]-C--CA-[N] |==|  0.10000
USER: genes 3 Torsion [C]-CA--CB-[CG] |==|  0.36952
USER: genes 4 Torsion [CA]-CB--CG-[OD2] |==|  0.48261
USER: genes 5 Torsion [C]-CA--N-[C] |==|  0.64252
USER: genes 6 Torsion [N]-C--CA-[N] |==|  0.59010
USER: genes 7 Torsion [C]-CA--N-[H3] |==|  0.97710
USER: genes 8 Torsion [C]-CA--CB-[CG] |==|  0.77773
USER: genes 9 Torsion [CA]-CB--CG-[OD2] |==|  0.30631
USER: genes 10 Torsion [C]-N--CA-[CB] |==|  0.17156
USER: genes 11 Torsion [N]-CA--C-[N] |==|  0.57484
USER: genes 12 Torsion [C]-N--CA-[C] |==|  0.82186
USER: genes 13 Torsion [N]-CA--C-[O] |==|  0.98137
USER: genes 14 Torsion [N]-CA--CB-[CG] |==|  0.71381
USER: genes 15 Torsion [CA]-CB--CG-[SD] |==|  0.31804
USER: genes 16 Torsion [CB]-CG--SD-[CE] |==|  0.55856
USER: genes 17 Torsion [N]-CA--CB-[CG] |==|  0.60100
USER: genes 18 Torsion [CA]-CB--CG-[OD1] |==|  0.34637
ROOT
ATOM      1  C   ASP D   0     -18.677 -18.302 -24.154  1.00 50.85 LIG 0.24  C 
ATOM      2 O    ASP D   0     -18.181 -18.783 -25.177  1.00 49.73 LIG-0.27  OA
ATOM      3  N   ASP D   1     -18.672 -16.990 -23.888  1.00 47.66 LIG-0.34  N 
ATOM      4 H    ASP D   1     -19.078 -16.638 -23.216  1.00 47.66 LIG 0.16  HD
ENDROOT
BRANCH 1 5
ATOM      5  CA  ASP D   0     -19.323 -19.223 -23.115  1.00 50.32 LIG 0.19  C 
BRANCH 5 6
ATOM      6  CB  ASP D   0     -19.735 -20.538 -23.787  1.00 50.50 LIG 0.15  C 
BRANCH 6 7
ATOM      7  CG  ASP D   0     -19.314 -21.758 -22.998  1.00 42.38 LIG 0.17  C 
ATOM      8 OD2  ASP D   0     -19.700 -22.883 -23.388  1.00 47.85 LIG-0.65  OA
ATOM      9 OD1  ASP D   0     -18.595 -21.595 -21.992  1.00 32.99 LIG-0.65  OA
ENDBRANCH 6 7
ENDBRANCH 5 6
BRANCH 5 10
ATOM     10  N   ASP D   0     -20.491 -18.625 -22.472  1.00 53.06 LIG-0.34  N 
ATOM     11 H    ASP D   0     -21.073 -18.314 -23.024  1.00 53.06 LIG 0.16  HD
ATOM     12  C   ASP D  -1     -20.632 -18.571 -21.148  1.00 52.15 LIG 0.25  C 
ATOM     13 O    ASP D  -1     -19.711 -18.796 -20.353  1.00 47.49 LIG-0.27  OA
BRANCH 12 14
ATOM     14  CA  ASP D  -1     -22.025 -18.197 -20.647  1.00 59.57 LIG 0.28  C 
BRANCH 14 15
ATOM     15  N   ASP D  -1     -21.922 -17.447 -19.398  1.00 50.06 LIG-0.07  N 
ATOM     16 H3   ASP D  -1     -21.078 -17.460 -19.113  1.00 50.06 LIG 0.28  HD
ATOM     17 H2   ASP D  -1     -22.448 -17.820 -18.783  1.00 50.06 LIG 0.28  HD
ATOM     18 H1   ASP D  -1     -22.176 -16.606 -19.535  1.00 50.06 LIG 0.28  HD
ENDBRANCH 14 15
BRANCH 14 19
ATOM     19  CB  ASP D  -1     -22.786 -17.388 -21.699  1.00 60.46 LIG 0.15  C 
BRANCH 19 20
ATOM     20  CG  ASP D  -1     -22.383 -15.929 -21.720  1.00 56.39 LIG 0.17  C 
ATOM     21 OD1  ASP D  -1     -22.700 -15.213 -20.744  1.00 65.47 LIG-0.65  OA
ATOM     22 OD2  ASP D  -1     -21.738 -15.503 -22.705  1.00 48.71 LIG-0.65  OA
ENDBRANCH 19 20
ENDBRANCH 14 19
ENDBRANCH 12 14
ENDBRANCH 5 10
ENDBRANCH 1 5
BRANCH 3 23
ATOM     23  CA  ASP D   1     -17.959 -16.018 -24.738  1.00 46.44 LIG 0.19  C 
BRANCH 23 24
ATOM     24  C   ASP D   1     -18.064 -14.608 -24.180  1.00 38.24 LIG 0.24  C 
ATOM     25 O    ASP D   1     -18.187 -14.423 -22.973  1.00 48.73 LIG-0.27  OA
ATOM     26  N   MET D   2     -17.976 -13.613 -25.055  1.00 47.06 LIG-0.35  N 
ATOM     27 H    MET D   2     -18.000 -13.714 -25.908  1.00 47.06 LIG 0.16  HD
BRANCH 26 28
ATOM     28  CA  MET D   2     -17.824 -12.230 -24.605  1.00 48.57 LIG 0.16  C 
BRANCH 28 29
ATOM     29  C   MET D   2     -19.034 -11.737 -23.820  1.00 49.60 LIG 0.22  C 
ATOM     30 O    MET D   2     -20.047 -12.433 -23.730  1.00 49.04 LIG-0.29  OA
ENDBRANCH 28 29
BRANCH 28 31
ATOM     31  CB  MET D   2     -17.569 -11.312 -25.807  1.00 43.71 LIG 0.04  C 
BRANCH 31 32
ATOM     32  CG  MET D   2     -16.130 -10.878 -25.978  1.00 45.96 LIG 0.08  C 
BRANCH 32 33
ATOM     33 SD   MET D   2     -15.406 -11.541 -27.494  1.00 73.43 LIG-0.17  SA
ATOM     34  CE  MET D   2     -13.659 -11.428 -27.106  1.00 57.46 LIG 0.09  C 
ENDBRANCH 32 33
ENDBRANCH 31 32
ENDBRANCH 28 31
ENDBRANCH 26 28
ENDBRANCH 23 24
BRANCH 23 35
ATOM     35  CB  ASP D   1     -18.509 -15.991 -26.175  1.00 44.28 LIG 0.15  C 
BRANCH 35 36
ATOM     36  CG  ASP D   1     -17.437 -15.777 -27.227  1.00 47.95 LIG 0.17  C 
ATOM     37 OD1  ASP D   1     -17.318 -16.604 -28.160  1.00 49.71 LIG-0.65  OA
ATOM     38 OD2  ASP D   1     -16.700 -14.768 -27.103  1.00 42.29 LIG-0.65  OA
ENDBRANCH 35 36
ENDBRANCH 23 35
ENDBRANCH 3 23
TORSDOF 17
ENDMDL
MODEL 65
USER: ADFR SOLUTION from run 49
USER: SCORE 13.087627 LL:  -2.761 LR: -10.432 RR:   0.000 FEB:  -5.361
USER: RMSD 4.550660
USER: SEED 48
USER: STATUS no improvement in best in 6 clusters for 5 generations
USER: GENES 19
USER: genes 0 Translation |==|  0.48965 0.49178 0.42882
USER: genes 1 Rotation |==|  0.30457 0.36888 0.19488 0.81862
USER: genes 2 Torsion [N]-C--CA-[N] |==|  0.87825
USER: genes 3 Torsion [C]-CA--CB-[CG] |==|  0.49460
USER: genes 4 Torsion [CA]-CB--CG-[OD2] |==|  0.42922
USER: genes 5 Torsion [C]-CA--N-[C] |==|  0.84361
USER: genes 6 Torsion [N]-C--CA-[N] |==|  0.91209
USER: genes 7 Torsion [C]-CA--N-[H3] |==|  0.64052
USER: genes 8 Torsion [C]-CA--CB-[CG] |==|  0.73375
USER: genes 9 Torsion [CA]-CB--CG-[OD2] |==|  0.84708
USER: genes 10 Torsion [C]-N--CA-[CB] |==|  0.84667
USER: genes 11 Torsion [N]-CA--C-[N] |==|  0.35560
USER: genes 12 Torsion [C]-N--CA-[C] |==|  0.13955
USER: genes 13 Torsion [N]-CA--C-[O] |==|  0.11566
USER: genes 14 Torsion [N]-CA--CB-[CG] |==|  0.86504
USER: genes 15 Torsion [CA]-CB--CG-[SD] |==|  0.39204
USER: genes 16 Torsion [CB]-CG--SD-[CE] |==|  0.78763
USER: genes 17 Torsion [N]-CA--CB-[CG] |==|  0.75775
USER: genes 18 Torsion [CA]-CB--CG-[OD1] |==|  0.52257
ROOT
ATOM      1  C   ASP D   0     -18.792 -18.320 -24.634  1.00 50.85 LIG 0.24  C 
ATOM      2 O    ASP D   0     -18.969 -18.652 -25.810  1.00 49.73 LIG-0.27  OA
ATOM      3  N   ASP D   1     -18.056 -19.036 -23.776  1.00 47.66 LIG-0.34  N 
ATOM      4 H    ASP D   1     -17.867 -18.776 -22.978  1.00 47.66 LIG 0.16  HD
ENDROOT
BRANCH 1 5
ATOM      5  CA  ASP D   0     -19.445 -17.042 -24.098  1.00 50.32 LIG 0.19  C 
BRANCH 5 6
ATOM      6  CB  ASP D   0     -18.393 -15.929 -24.017  1.00 50.50 LIG 0.15  C 
BRANCH 6 7
ATOM      7  CG  ASP D   0     -18.966 -14.613 -23.539  1.00 42.38 LIG 0.17  C 
ATOM      8 OD2  ASP D   0     -18.200 -13.798 -22.978  1.00 47.85 LIG-0.65  OA
ATOM      9 OD1  ASP D   0     -20.178 -14.391 -23.728  1.00 32.99 LIG-0.65  OA
ENDBRANCH 6 7
ENDBRANCH 5 6
BRANCH 5 10
ATOM     10  N   ASP D   0     -20.055 -17.224 -22.783  1.00 53.06 LIG-0.34  N 
ATOM     11 H    ASP D   0     -19.762 -16.681 -22.183  1.00 53.06 LIG 0.16  HD
ATOM     12  C   ASP D  -1     -20.982 -18.151 -22.545  1.00 52.15 LIG 0.25  C 
ATOM     13 O    ASP D  -1     -21.237 -19.079 -23.323  1.00 47.49 LIG-0.27  OA
BRANCH 12 14
ATOM     14  CA  ASP D  -1     -21.729 -18.013 -21.220  1.00 59.57 LIG 0.28  C 
BRANCH 14 15
ATOM     15  N   ASP D  -1     -20.850 -17.428 -20.210  1.00 50.06 LIG-0.07  N 
ATOM     16 H3   ASP D  -1     -20.868 -17.929 -19.474  1.00 50.06 LIG 0.28  HD
ATOM     17 H2   ASP D  -1     -21.127 -16.605 -20.015  1.00 50.06 LIG 0.28  HD
ATOM     18 H1   ASP D  -1     -20.018 -17.394 -20.525  1.00 50.06 LIG 0.28  HD
ENDBRANCH 14 15
BRANCH 14 19
ATOM     19  CB  ASP D  -1     -22.992 -17.168 -21.389  1.00 60.46 LIG 0.15  C 
BRANCH 19 20
ATOM     20  CG  ASP D  -1     -22.778 -15.714 -21.025  1.00 56.39 LIG 0.17  C 
ATOM     21 OD1  ASP D  -1     -23.075 -14.841 -21.871  1.00 65.47 LIG-0.65  OA
ATOM     22 OD2  ASP D  -1     -22.325 -15.446 -19.889  1.00 48.71 LIG-0.65  OA
ENDBRANCH 19 20
ENDBRANCH 14 19
ENDBRANCH 12 14
ENDBRANCH 5 10
ENDBRANCH 1 5
BRANCH 3 23
ATOM     23  CA  ASP D   1     -17.496 -20.353 -24.130  1.00 46.44 LIG 0.19  C 
BRANCH 23 24
ATOM     24  C   ASP D   1     -16.459 -20.238 -25.236  1.00 38.24 LIG 0.24  C 
ATOM     25 O    ASP D   1     -16.710 -19.616 -26.264  1.00 48.73 LIG-0.27  OA
ATOM     26  N   MET D   2     -15.279 -20.803 -25.008  1.00 47.06 LIG-0.35  N 
ATOM     27 H    MET D   2     -15.114 -21.334 -24.352  1.00 47.06 LIG 0.16  HD
BRANCH 26 28
ATOM     28  CA  MET D   2     -14.143 -20.550 -25.893  1.00 48.57 LIG 0.16  C 
BRANCH 28 29
ATOM     29  C   MET D   2     -13.916 -19.063 -26.139  1.00 49.60 LIG 0.22  C 
ATOM     30 O    MET D   2     -14.013 -18.254 -25.214  1.00 49.04 LIG-0.29  OA
ENDBRANCH 28 29
BRANCH 28 31
ATOM     31  CB  MET D   2     -14.344 -21.278 -27.227  1.00 43.71 LIG 0.04  C 
BRANCH 31 32
ATOM     32  CG  MET D   2     -14.742 -22.732 -27.101  1.00 45.96 LIG 0.08  C 
BRANCH 32 33
ATOM     33 SD   MET D   2     -15.965 -23.202 -28.345  1.00 73.43 LIG-0.17  SA
ATOM     34  CE  MET D   2     -17.446 -22.466 -27.651  1.00 57.46 LIG 0.09  C 
ENDBRANCH 32 33
ENDBRANCH 31 32
ENDBRANCH 28 31
ENDBRANCH 26 28
ENDBRANCH 23 24
BRANCH 23 35
ATOM     35  CB  ASP D   1     -18.579 -21.335 -24.611  1.00 44.28 LIG 0.15  C 
BRANCH 35 36
ATOM     36  CG  ASP D   1     -19.240 -22.104 -23.482  1.00 47.95 LIG 0.17  C 
ATOM     37 OD1  ASP D   1     -20.027 -23.039 -23.755  1.00 49.71 LIG-0.65  OA
ATOM     38 OD2  ASP D   1     -18.970 -21.751 -22.308  1.00 42.29 LIG-0.65  OA
ENDBRANCH 35 36
ENDBRANCH 23 35
ENDBRANCH 3 23
TORSDOF 17
ENDMDL
MODEL 66
USER: ADFR SOLUTION from run 14
USER: SCORE 11.690217 LL:  -3.045 LR: -10.427 RR:   0.000 FEB:  -5.356
USER: RMSD 8.403813
USER: SEED 802831
USER: STATUS no improvement in best in 12 clusters for 5 generations
USER: GENES 19
USER: genes 0 Translation |==|  0.50743 0.56877 0.39214
USER: genes 1 Rotation |==|  0.19274 0.46410 0.13174 0.63669
USER: genes 2 Torsion [N]-C--CA-[N] |==|  0.55540
USER: genes 3 Torsion [C]-CA--CB-[CG] |==|  0.70271
USER: genes 4 Torsion [CA]-CB--CG-[OD2] |==|  0.16267
USER: genes 5 Torsion [C]-CA--N-[C] |==|  0.59948
USER: genes 6 Torsion [N]-C--CA-[N] |==|  0.41848
USER: genes 7 Torsion [C]-CA--N-[H3] |==|  0.97731
USER: genes 8 Torsion [C]-CA--CB-[CG] |==|  0.76077
USER: genes 9 Torsion [CA]-CB--CG-[OD2] |==|  0.33925
USER: genes 10 Torsion [C]-N--CA-[CB] |==|  0.39977
USER: genes 11 Torsion [N]-CA--C-[N] |==|  0.91293
USER: genes 12 Torsion [C]-N--CA-[C] |==|  0.74113
USER: genes 13 Torsion [N]-CA--C-[O] |==|  0.80566
USER: genes 14 Torsion [N]-CA--CB-[CG] |==|  0.49526
USER: genes 15 Torsion [CA]-CB--CG-[SD] |==|  0.62615
USER: genes 16 Torsion [CB]-CG--SD-[CE] |==|  0.76995
USER: genes 17 Torsion [N]-CA--CB-[CG] |==|  0.43672
USER: genes 18 Torsion [CA]-CB--CG-[OD1] |==|  0.20053
ROOT
ATOM      1  C   ASP D   0     -18.419 -16.992 -25.295  1.00 50.85 LIG 0.24  C 
ATOM      2 O    ASP D   0     -19.143 -17.209 -26.270  1.00 49.73 LIG-0.27  OA
ATOM      3  N   ASP D   1     -18.237 -17.878 -24.308  1.00 47.66 LIG-0.34  N 
ATOM      4 H    ASP D   1     -17.680 -17.765 -23.663  1.00 47.66 LIG 0.16  HD
ENDROOT
BRANCH 1 5
ATOM      5  CA  ASP D   0     -17.693 -15.648 -25.170  1.00 50.32 LIG 0.19  C 
BRANCH 5 6
ATOM      6  CB  ASP D   0     -17.707 -15.196 -23.705  1.00 50.50 LIG 0.15  C 
BRANCH 6 7
ATOM      7  CG  ASP D   0     -18.655 -14.046 -23.454  1.00 42.38 LIG 0.17  C 
ATOM      8 OD2  ASP D   0     -19.866 -14.201 -23.728  1.00 47.85 LIG-0.65  OA
ATOM      9 OD1  ASP D   0     -18.193 -12.989 -22.979  1.00 32.99 LIG-0.65  OA
ENDBRANCH 6 7
ENDBRANCH 5 6
BRANCH 5 10
ATOM     10  N   ASP D   0     -18.286 -14.603 -26.002  1.00 53.06 LIG-0.34  N 
ATOM     11 H    ASP D   0     -19.143 -14.649 -26.063  1.00 53.06 LIG 0.16  HD
ATOM     12  C   ASP D  -1     -17.556 -13.667 -26.606  1.00 52.15 LIG 0.25  C 
ATOM     13 O    ASP D  -1     -16.325 -13.727 -26.719  1.00 47.49 LIG-0.27  OA
BRANCH 12 14
ATOM     14  CA  ASP D  -1     -18.338 -12.487 -27.178  1.00 59.57 LIG 0.28  C 
BRANCH 14 15
ATOM     15  N   ASP D  -1     -17.507 -11.285 -27.168  1.00 50.06 LIG-0.07  N 
ATOM     16 H3   ASP D  -1     -16.753 -11.450 -26.723  1.00 50.06 LIG 0.28  HD
ATOM     17 H2   ASP D  -1     -17.948 -10.622 -26.770  1.00 50.06 LIG 0.28  HD
ATOM     18 H1   ASP D  -1     -17.312 -11.052 -28.004  1.00 50.06 LIG 0.28  HD
ENDBRANCH 14 15
BRANCH 14 19
ATOM     19  CB  ASP D  -1     -18.828 -12.790 -28.595  1.00 60.46 LIG 0.15  C 
BRANCH 19 20
ATOM     20  CG  ASP D  -1     -17.797 -12.464 -29.654  1.00 56.39 LIG 0.17  C 
ATOM     21 OD1  ASP D  -1     -17.354 -11.295 -29.710  1.00 65.47 LIG-0.65  OA
ATOM     22 OD2  ASP D  -1     -17.419 -13.379 -30.420  1.00 48.71 LIG-0.65  OA
ENDBRANCH 19 20
ENDBRANCH 14 19
ENDBRANCH 12 14
ENDBRANCH 5 10
ENDBRANCH 1 5
BRANCH 3 23
ATOM     23  CA  ASP D   1     -18.989 -19.145 -24.242  1.00 46.44 LIG 0.19  C 
BRANCH 23 24
ATOM     24  C   ASP D   1     -20.212 -19.020 -23.348  1.00 38.24 LIG 0.24  C 
ATOM     25 O    ASP D   1     -21.210 -19.703 -23.559  1.00 48.73 LIG-0.27  OA
ATOM     26  N   MET D   2     -20.120 -18.177 -22.326  1.00 47.06 LIG-0.35  N 
ATOM     27 H    MET D   2     -19.482 -17.611 -22.220  1.00 47.06 LIG 0.16  HD
BRANCH 26 28
ATOM     28  CA  MET D   2     -21.138 -18.158 -21.276  1.00 48.57 LIG 0.16  C 
BRANCH 28 29
ATOM     29  C   MET D   2     -22.234 -17.135 -21.545  1.00 49.60 LIG 0.22  C 
ATOM     30 O    MET D   2     -21.995 -15.928 -21.471  1.00 49.04 LIG-0.29  OA
ENDBRANCH 28 29
BRANCH 28 31
ATOM     31  CB  MET D   2     -20.483 -17.880 -19.917  1.00 43.71 LIG 0.04  C 
BRANCH 31 32
ATOM     32  CG  MET D   2     -21.448 -17.797 -18.754  1.00 45.96 LIG 0.08  C 
BRANCH 32 33
ATOM     33 SD   MET D   2     -21.094 -16.380 -17.691  1.00 73.43 LIG-0.17  SA
ATOM     34  CE  MET D   2     -19.787 -17.053 -16.664  1.00 57.46 LIG 0.09  C 
ENDBRANCH 32 33
ENDBRANCH 31 32
ENDBRANCH 28 31
ENDBRANCH 26 28
ENDBRANCH 23 24
BRANCH 23 35
ATOM     35  CB  ASP D   1     -18.131 -20.300 -23.696  1.00 44.28 LIG 0.15  C 
BRANCH 35 36
ATOM     36  CG  ASP D   1     -18.950 -21.432 -23.103  1.00 47.95 LIG 0.17  C 
ATOM     37 OD1  ASP D   1     -19.595 -22.188 -23.865  1.00 49.71 LIG-0.65  OA
ATOM     38 OD2  ASP D   1     -18.950 -21.550 -21.853  1.00 42.29 LIG-0.65  OA
ENDBRANCH 35 36
ENDBRANCH 23 35
ENDBRANCH 3 23
TORSDOF 17
ENDMDL
MODEL 67
USER: ADFR SOLUTION from run 140
USER: SCORE 12.925507 LL:  -2.922 LR: -10.421 RR:   0.000 FEB:  -5.350
USER: RMSD 6.181241
USER: SEED 139
USER: STATUS no improvement in best in 8 clusters for 5 generations
USER: GENES 19
USER: genes 0 Translation |==|  0.59819 0.35511 0.36864
USER: genes 1 Rotation |==|  0.44543 0.44470 0.22048 0.90722
USER: genes 2 Torsion [N]-C--CA-[N] |==|  0.43117
USER: genes 3 Torsion [C]-CA--CB-[CG] |==|  0.39981
USER: genes 4 Torsion [CA]-CB--CG-[OD2] |==|  0.58596
USER: genes 5 Torsion [C]-CA--N-[C] |==|  0.75287
USER: genes 6 Torsion [N]-C--CA-[N] |==|  0.17748
USER: genes 7 Torsion [C]-CA--N-[H3] |==|  0.47087
USER: genes 8 Torsion [C]-CA--CB-[CG] |==|  0.58453
USER: genes 9 Torsion [CA]-CB--CG-[OD2] |==|  0.94166
USER: genes 10 Torsion [C]-N--CA-[CB] |==|  0.85791
USER: genes 11 Torsion [N]-CA--C-[N] |==|  0.32778
USER: genes 12 Torsion [C]-N--CA-[C] |==|  0.65972
USER: genes 13 Torsion [N]-CA--C-[O] |==|  0.58237
USER: genes 14 Torsion [N]-CA--CB-[CG] |==|  0.68275
USER: genes 15 Torsion [CA]-CB--CG-[SD] |==|  0.29366
USER: genes 16 Torsion [CB]-CG--SD-[CE] |==|  0.78990
USER: genes 17 Torsion [N]-CA--CB-[CG] |==|  0.77698
USER: genes 18 Torsion [CA]-CB--CG-[OD1] |==|  0.80632
ROOT
ATOM      1  C   ASP D   0     -16.513 -20.677 -25.718  1.00 50.85 LIG 0.24  C 
ATOM      2 O    ASP D   0     -16.684 -20.251 -26.863  1.00 49.73 LIG-0.27  OA
ATOM      3  N   ASP D   1     -15.527 -21.523 -25.393  1.00 47.66 LIG-0.34  N 
ATOM      4 H    ASP D   1     -15.356 -21.768 -24.586  1.00 47.66 LIG 0.16  HD
ENDROOT
BRANCH 1 5
ATOM      5  CA  ASP D   0     -17.466 -20.250 -24.597  1.00 50.32 LIG 0.19  C 
BRANCH 5 6
ATOM      6  CB  ASP D   0     -18.547 -21.321 -24.411  1.00 50.50 LIG 0.15  C 
BRANCH 6 7
ATOM      7  CG  ASP D   0     -18.950 -21.505 -22.965  1.00 42.38 LIG 0.17  C 
ATOM      8 OD2  ASP D   0     -19.324 -22.638 -22.590  1.00 47.85 LIG-0.65  OA
ATOM      9 OD1  ASP D   0     -18.889 -20.520 -22.203  1.00 32.99 LIG-0.65  OA
ENDBRANCH 6 7
ENDBRANCH 5 6
BRANCH 5 10
ATOM     10  N   ASP D   0     -18.105 -18.961 -24.855  1.00 53.06 LIG-0.34  N 
ATOM     11 H    ASP D   0     -18.857 -19.020 -25.268  1.00 53.06 LIG 0.16  HD
ATOM     12  C   ASP D  -1     -17.562 -17.804 -24.479  1.00 52.15 LIG 0.25  C 
ATOM     13 O    ASP D  -1     -16.389 -17.689 -24.103  1.00 47.49 LIG-0.27  OA
BRANCH 12 14
ATOM     14  CA  ASP D  -1     -18.484 -16.588 -24.549  1.00 59.57 LIG 0.28  C 
BRANCH 14 15
ATOM     15  N   ASP D  -1     -19.594 -16.750 -23.613  1.00 50.06 LIG-0.07  N 
ATOM     16 H3   ASP D  -1     -20.040 -15.982 -23.546  1.00 50.06 LIG 0.28  HD
ATOM     17 H2   ASP D  -1     -19.278 -16.980 -22.813  1.00 50.06 LIG 0.28  HD
ATOM     18 H1   ASP D  -1     -20.142 -17.386 -23.909  1.00 50.06 LIG 0.28  HD
ENDBRANCH 14 15
BRANCH 14 19
ATOM     19  CB  ASP D  -1     -17.714 -15.300 -24.254  1.00 60.46 LIG 0.15  C 
BRANCH 19 20
ATOM     20  CG  ASP D  -1     -18.575 -14.240 -23.601  1.00 56.39 LIG 0.17  C 
ATOM     21 OD1  ASP D  -1     -18.006 -13.320 -22.972  1.00 65.47 LIG-0.65  OA
ATOM     22 OD2  ASP D  -1     -19.817 -14.320 -23.728  1.00 48.71 LIG-0.65  OA
ENDBRANCH 19 20
ENDBRANCH 14 19
ENDBRANCH 12 14
ENDBRANCH 5 10
ENDBRANCH 1 5
BRANCH 3 23
ATOM     23  CA  ASP D   1     -14.635 -22.117 -26.406  1.00 46.44 LIG 0.19  C 
BRANCH 23 24
ATOM     24  C   ASP D   1     -13.708 -21.075 -27.011  1.00 38.24 LIG 0.24  C 
ATOM     25 O    ASP D   1     -14.166 -20.101 -27.601  1.00 48.73 LIG-0.27  OA
ATOM     26  N   MET D   2     -12.406 -21.259 -26.828  1.00 47.06 LIG-0.35  N 
ATOM     27 H    MET D   2     -12.057 -21.981 -26.519  1.00 47.06 LIG 0.16  HD
BRANCH 26 28
ATOM     28  CA  MET D   2     -11.447 -20.205 -27.156  1.00 48.57 LIG 0.16  C 
BRANCH 28 29
ATOM     29  C   MET D   2     -10.403 -20.660 -28.168  1.00 49.60 LIG 0.22  C 
ATOM     30 O    MET D   2      -9.271 -20.174 -28.161  1.00 49.04 LIG-0.29  OA
ENDBRANCH 28 29
BRANCH 28 31
ATOM     31  CB  MET D   2     -10.758 -19.708 -25.878  1.00 43.71 LIG 0.04  C 
BRANCH 31 32
ATOM     32  CG  MET D   2     -11.069 -18.275 -25.507  1.00 45.96 LIG 0.08  C 
BRANCH 32 33
ATOM     33 SD   MET D   2     -12.201 -18.178 -24.103  1.00 73.43 LIG-0.17  SA
ATOM     34  CE  MET D   2     -13.752 -18.609 -24.894  1.00 57.46 LIG 0.09  C 
ENDBRANCH 32 33
ENDBRANCH 31 32
ENDBRANCH 28 31
ENDBRANCH 26 28
ENDBRANCH 23 24
BRANCH 23 35
ATOM     35  CB  ASP D   1     -15.420 -22.766 -27.560  1.00 44.28 LIG 0.15  C 
BRANCH 35 36
ATOM     36  CG  ASP D   1     -15.947 -24.149 -27.228  1.00 47.95 LIG 0.17  C 
ATOM     37 OD1  ASP D   1     -15.142 -25.100 -27.103  1.00 49.71 LIG-0.65  OA
ATOM     38 OD2  ASP D   1     -17.190 -24.278 -27.103  1.00 42.29 LIG-0.65  OA
ENDBRANCH 35 36
ENDBRANCH 23 35
ENDBRANCH 3 23
TORSDOF 17
ENDMDL
MODEL 68
USER: ADFR SOLUTION from run 152
USER: SCORE 12.261040 LL:  -2.265 LR: -10.401 RR:   0.000 FEB:  -5.330
USER: RMSD 4.086542
USER: SEED 151
USER: STATUS no improvement in best in 13 clusters for 5 generations
USER: GENES 19
USER: genes 0 Translation |==|  0.44540 0.50740 0.49123
USER: genes 1 Rotation |==|  0.23325 0.22631 0.74336 0.71145
USER: genes 2 Torsion [N]-C--CA-[N] |==|  0.45444
USER: genes 3 Torsion [C]-CA--CB-[CG] |==|  0.25809
USER: genes 4 Torsion [CA]-CB--CG-[OD2] |==|  0.03375
USER: genes 5 Torsion [C]-CA--N-[C] |==|  0.62319
USER: genes 6 Torsion [N]-C--CA-[N] |==|  0.65268
USER: genes 7 Torsion [C]-CA--N-[H3] |==|  0.60165
USER: genes 8 Torsion [C]-CA--CB-[CG] |==|  0.78666
USER: genes 9 Torsion [CA]-CB--CG-[OD2] |==|  0.37097
USER: genes 10 Torsion [C]-N--CA-[CB] |==|  0.74563
USER: genes 11 Torsion [N]-CA--C-[N] |==|  0.17244
USER: genes 12 Torsion [C]-N--CA-[C] |==|  0.16859
USER: genes 13 Torsion [N]-CA--C-[O] |==|  0.26813
USER: genes 14 Torsion [N]-CA--CB-[CG] |==|  0.34422
USER: genes 15 Torsion [CA]-CB--CG-[SD] |==|  0.55919
USER: genes 16 Torsion [CB]-CG--SD-[CE] |==|  0.34212
USER: genes 17 Torsion [N]-CA--CB-[CG] |==|  0.80040
USER: genes 18 Torsion [CA]-CB--CG-[OD1] |==|  0.57710
ROOT
ATOM      1  C   ASP D   0     -19.722 -18.050 -23.511  1.00 50.85 LIG 0.24  C 
ATOM      2 O    ASP D   0     -18.720 -18.756 -23.357  1.00 49.73 LIG-0.27  OA
ATOM      3  N   ASP D   1     -19.701 -16.888 -24.175  1.00 47.66 LIG-0.34  N 
ATOM      4 H    ASP D   1     -20.406 -16.427 -24.349  1.00 47.66 LIG 0.16  HD
ENDROOT
BRANCH 1 5
ATOM      5  CA  ASP D   0     -21.061 -18.490 -22.912  1.00 50.32 LIG 0.19  C 
BRANCH 5 6
ATOM      6  CB  ASP D   0     -21.364 -17.648 -21.668  1.00 50.50 LIG 0.15  C 
BRANCH 6 7
ATOM      7  CG  ASP D   0     -22.202 -16.426 -21.975  1.00 42.38 LIG 0.17  C 
ATOM      8 OD2  ASP D   0     -22.746 -16.344 -23.099  1.00 47.85 LIG-0.65  OA
ATOM      9 OD1  ASP D   0     -22.322 -15.553 -21.094  1.00 32.99 LIG-0.65  OA
ENDBRANCH 6 7
ENDBRANCH 5 6
BRANCH 5 10
ATOM     10  N   ASP D   0     -21.085 -19.907 -22.552  1.00 53.06 LIG-0.34  N 
ATOM     11 H    ASP D   0     -20.377 -20.175 -22.143  1.00 53.06 LIG 0.16  HD
ATOM     12  C   ASP D  -1     -22.115 -20.702 -22.836  1.00 52.15 LIG 0.25  C 
ATOM     13 O    ASP D  -1     -23.021 -20.393 -23.620  1.00 47.49 LIG-0.27  OA
BRANCH 12 14
ATOM     14  CA  ASP D  -1     -22.116 -22.058 -22.133  1.00 59.57 LIG 0.28  C 
BRANCH 14 15
ATOM     15  N   ASP D  -1     -22.213 -23.131 -23.119  1.00 50.06 LIG-0.07  N 
ATOM     16 H3   ASP D  -1     -22.716 -23.789 -22.793  1.00 50.06 LIG 0.28  HD
ATOM     17 H2   ASP D  -1     -21.399 -23.442 -23.301  1.00 50.06 LIG 0.28  HD
ATOM     18 H1   ASP D  -1     -22.584 -22.816 -23.865  1.00 50.06 LIG 0.28  HD
ENDBRANCH 14 15
BRANCH 14 19
ATOM     19  CB  ASP D  -1     -20.863 -22.229 -21.273  1.00 60.46 LIG 0.15  C 
BRANCH 19 20
ATOM     20  CG  ASP D  -1     -19.631 -22.554 -22.090  1.00 56.39 LIG 0.17  C 
ATOM     21 OD1  ASP D  -1     -19.725 -23.428 -22.981  1.00 65.47 LIG-0.65  OA
ATOM     22 OD2  ASP D  -1     -18.575 -21.927 -21.851  1.00 48.71 LIG-0.65  OA
ENDBRANCH 19 20
ENDBRANCH 14 19
ENDBRANCH 12 14
ENDBRANCH 5 10
ENDBRANCH 1 5
BRANCH 3 23
ATOM     23  CA  ASP D   1     -18.449 -16.289 -24.673  1.00 46.44 LIG 0.19  C 
BRANCH 23 24
ATOM     24  C   ASP D   1     -17.412 -17.353 -24.993  1.00 38.24 LIG 0.24  C 
ATOM     25 O    ASP D   1     -16.360 -17.408 -24.364  1.00 48.73 LIG-0.27  OA
ATOM     26  N   MET D   2     -17.726 -18.224 -25.945  1.00 47.06 LIG-0.35  N 
ATOM     27 H    MET D   2     -18.400 -18.144 -26.473  1.00 47.06 LIG 0.16  HD
BRANCH 26 28
ATOM     28  CA  MET D   2     -16.914 -19.420 -26.165  1.00 48.57 LIG 0.16  C 
BRANCH 28 29
ATOM     29  C   MET D   2     -16.869 -20.328 -24.942  1.00 49.60 LIG 0.22  C 
ATOM     30 O    MET D   2     -17.632 -21.291 -24.850  1.00 49.04 LIG-0.29  OA
ENDBRANCH 28 29
BRANCH 28 31
ATOM     31  CB  MET D   2     -15.490 -19.019 -26.573  1.00 43.71 LIG 0.04  C 
BRANCH 31 32
ATOM     32  CG  MET D   2     -14.397 -19.584 -25.693  1.00 45.96 LIG 0.08  C 
BRANCH 32 33
ATOM     33 SD   MET D   2     -12.872 -18.624 -25.821  1.00 73.43 LIG-0.17  SA
ATOM     34  CE  MET D   2     -12.614 -18.178 -24.103  1.00 57.46 LIG 0.09  C 
ENDBRANCH 32 33
ENDBRANCH 31 32
ENDBRANCH 28 31
ENDBRANCH 26 28
ENDBRANCH 23 24
BRANCH 23 35
ATOM     35  CB  ASP D   1     -17.823 -15.323 -23.652  1.00 44.28 LIG 0.15  C 
BRANCH 35 36
ATOM     36  CG  ASP D   1     -18.590 -14.023 -23.503  1.00 47.95 LIG 0.17  C 
ATOM     37 OD1  ASP D   1     -17.979 -12.986 -23.154  1.00 49.71 LIG-0.65  OA
ATOM     38 OD2  ASP D   1     -19.824 -14.052 -23.728  1.00 42.29 LIG-0.65  OA
ENDBRANCH 35 36
ENDBRANCH 23 35
ENDBRANCH 3 23
TORSDOF 17
ENDMDL
MODEL 69
USER: ADFR SOLUTION from run 4
USER: SCORE 12.430836 LL:  -2.402 LR: -10.385 RR:   0.000 FEB:  -5.314
USER: RMSD 5.718150
USER: SEED 338749
USER: STATUS no improvement in best in 21 clusters for 5 generations
USER: GENES 19
USER: genes 0 Translation |==|  0.46603 0.50430 0.44867
USER: genes 1 Rotation |==|  0.31257 0.35759 0.14750 0.76520
USER: genes 2 Torsion [N]-C--CA-[N] |==|  0.39831
USER: genes 3 Torsion [C]-CA--CB-[CG] |==|  0.33131
USER: genes 4 Torsion [CA]-CB--CG-[OD2] |==|  0.33342
USER: genes 5 Torsion [C]-CA--N-[C] |==|  0.77725
USER: genes 6 Torsion [N]-C--CA-[N] |==|  0.90520
USER: genes 7 Torsion [C]-CA--N-[H3] |==|  0.82119
USER: genes 8 Torsion [C]-CA--CB-[CG] |==|  0.95576
USER: genes 9 Torsion [CA]-CB--CG-[OD2] |==|  0.76648
USER: genes 10 Torsion [C]-N--CA-[CB] |==|  0.78293
USER: genes 11 Torsion [N]-CA--C-[N] |==|  0.18333
USER: genes 12 Torsion [C]-N--CA-[C] |==|  0.51602
USER: genes 13 Torsion [N]-CA--C-[O] |==|  0.77876
USER: genes 14 Torsion [N]-CA--CB-[CG] |==|  0.16917
USER: genes 15 Torsion [CA]-CB--CG-[SD] |==|  0.44920
USER: genes 16 Torsion [CB]-CG--SD-[CE] |==|  0.76635
USER: genes 17 Torsion [N]-CA--CB-[CG] |==|  0.59083
USER: genes 18 Torsion [CA]-CB--CG-[OD1] |==|  0.62657
ROOT
ATOM      1  C   ASP D   0     -19.288 -18.104 -24.277  1.00 50.85 LIG 0.24  C 
ATOM      2 O    ASP D   0     -19.332 -18.460 -25.458  1.00 49.73 LIG-0.27  OA
ATOM      3  N   ASP D   1     -18.892 -18.911 -23.285  1.00 47.66 LIG-0.34  N 
ATOM      4 H    ASP D   1     -18.790 -18.651 -22.471  1.00 47.66 LIG 0.16  HD
ENDROOT
BRANCH 1 5
ATOM      5  CA  ASP D   0     -19.717 -16.684 -23.894  1.00 50.32 LIG 0.19  C 
BRANCH 5 6
ATOM      6  CB  ASP D   0     -21.238 -16.643 -23.711  1.00 50.50 LIG 0.15  C 
BRANCH 6 7
ATOM      7  CG  ASP D   0     -21.652 -16.240 -22.313  1.00 42.38 LIG 0.17  C 
ATOM      8 OD2  ASP D   0     -22.351 -15.213 -22.171  1.00 47.85 LIG-0.65  OA
ATOM      9 OD1  ASP D   0     -21.282 -16.952 -21.358  1.00 32.99 LIG-0.65  OA
ENDBRANCH 6 7
ENDBRANCH 5 6
BRANCH 5 10
ATOM     10  N   ASP D   0     -19.325 -15.685 -24.887  1.00 53.06 LIG-0.34  N 
ATOM     11 H    ASP D   0     -19.959 -15.453 -25.419  1.00 53.06 LIG 0.16  HD
ATOM     12  C   ASP D  -1     -18.092 -15.185 -24.952  1.00 52.15 LIG 0.25  C 
ATOM     13 O    ASP D  -1     -17.123 -15.674 -24.357  1.00 47.49 LIG-0.27  OA
BRANCH 12 14
ATOM     14  CA  ASP D  -1     -17.927 -13.948 -25.832  1.00 59.57 LIG 0.28  C 
BRANCH 14 15
ATOM     15  N   ASP D  -1     -18.829 -14.026 -26.978  1.00 50.06 LIG-0.07  N 
ATOM     16 H3   ASP D  -1     -18.600 -14.717 -27.490  1.00 50.06 LIG 0.28  HD
ATOM     17 H2   ASP D  -1     -18.774 -13.274 -27.452  1.00 50.06 LIG 0.28  HD
ATOM     18 H1   ASP D  -1     -19.665 -14.135 -26.691  1.00 50.06 LIG 0.28  HD
ENDBRANCH 14 15
BRANCH 14 19
ATOM     19  CB  ASP D  -1     -18.181 -12.670 -25.032  1.00 60.46 LIG 0.15  C 
BRANCH 19 20
ATOM     20  CG  ASP D  -1     -18.891 -12.931 -23.721  1.00 56.39 LIG 0.17  C 
ATOM     21 OD1  ASP D  -1     -18.200 -13.029 -22.682  1.00 65.47 LIG-0.65  OA
ATOM     22 OD2  ASP D  -1     -20.139 -13.025 -23.728  1.00 48.71 LIG-0.65  OA
ENDBRANCH 19 20
ENDBRANCH 14 19
ENDBRANCH 12 14
ENDBRANCH 5 10
ENDBRANCH 1 5
BRANCH 3 23
ATOM     23  CA  ASP D   1     -18.592 -20.338 -23.505  1.00 46.44 LIG 0.19  C 
BRANCH 23 24
ATOM     24  C   ASP D   1     -17.799 -20.549 -24.784  1.00 38.24 LIG 0.24  C 
ATOM     25 O    ASP D   1     -18.304 -21.125 -25.743  1.00 48.73 LIG-0.27  OA
ATOM     26  N   MET D   2     -16.569 -20.048 -24.812  1.00 47.06 LIG-0.35  N 
ATOM     27 H    MET D   2     -16.155 -19.741 -24.125  1.00 47.06 LIG 0.16  HD
BRANCH 26 28
ATOM     28  CA  MET D   2     -15.814 -19.984 -26.063  1.00 48.57 LIG 0.16  C 
BRANCH 28 29
ATOM     29  C   MET D   2     -14.381 -19.508 -25.855  1.00 49.60 LIG 0.22  C 
ATOM     30 O    MET D   2     -14.135 -18.308 -25.718  1.00 49.04 LIG-0.29  OA
ENDBRANCH 28 29
BRANCH 28 31
ATOM     31  CB  MET D   2     -16.532 -19.068 -27.062  1.00 43.71 LIG 0.04  C 
BRANCH 31 32
ATOM     32  CG  MET D   2     -16.693 -17.635 -26.604  1.00 45.96 LIG 0.08  C 
BRANCH 32 33
ATOM     33 SD   MET D   2     -17.044 -16.526 -27.987  1.00 73.43 LIG-0.17  SA
ATOM     34  CE  MET D   2     -15.384 -16.197 -28.580  1.00 57.46 LIG 0.09  C 
ENDBRANCH 32 33
ENDBRANCH 31 32
ENDBRANCH 28 31
ENDBRANCH 26 28
ENDBRANCH 23 24
BRANCH 23 35
ATOM     35  CB  ASP D   1     -19.870 -21.190 -23.605  1.00 44.28 LIG 0.15  C 
BRANCH 35 36
ATOM     36  CG  ASP D   1     -19.702 -22.595 -23.058  1.00 47.95 LIG 0.17  C 
ATOM     37 OD1  ASP D   1     -20.141 -23.567 -23.716  1.00 49.71 LIG-0.65  OA
ATOM     38 OD2  ASP D   1     -19.130 -22.718 -21.947  1.00 42.29 LIG-0.65  OA
ENDBRANCH 35 36
ENDBRANCH 23 35
ENDBRANCH 3 23
TORSDOF 17
ENDMDL
MODEL 70
USER: ADFR SOLUTION from run 121
USER: SCORE 11.979534 LL:  -2.546 LR: -10.370 RR:   0.000 FEB:  -5.298
USER: RMSD 4.966800
USER: SEED 120
USER: STATUS searching
USER: GENES 19
USER: genes 0 Translation |==|  0.47116 0.36079 0.54760
USER: genes 1 Rotation |==|  0.22118 0.25881 0.78625 0.67930
USER: genes 2 Torsion [N]-C--CA-[N] |==|  0.93534
USER: genes 3 Torsion [C]-CA--CB-[CG] |==|  0.10474
USER: genes 4 Torsion [CA]-CB--CG-[OD2] |==|  0.65295
USER: genes 5 Torsion [C]-CA--N-[C] |==|  0.77168
USER: genes 6 Torsion [N]-C--CA-[N] |==|  0.12398
USER: genes 7 Torsion [C]-CA--N-[H3] |==|  0.76414
USER: genes 8 Torsion [C]-CA--CB-[CG] |==|  0.35658
USER: genes 9 Torsion [CA]-CB--CG-[OD2] |==|  0.99136
USER: genes 10 Torsion [C]-N--CA-[CB] |==|  0.20556
USER: genes 11 Torsion [N]-CA--C-[N] |==|  0.21060
USER: genes 12 Torsion [C]-N--CA-[C] |==|  0.63695
USER: genes 13 Torsion [N]-CA--C-[O] |==|  0.73337
USER: genes 14 Torsion [N]-CA--CB-[CG] |==|  0.99424
USER: genes 15 Torsion [CA]-CB--CG-[SD] |==|  0.74716
USER: genes 16 Torsion [CB]-CG--SD-[CE] |==|  0.74857
USER: genes 17 Torsion [N]-CA--CB-[CG] |==|  0.62582
USER: genes 18 Torsion [CA]-CB--CG-[OD1] |==|  0.34469
ROOT
ATOM      1  C   ASP D   0     -19.181 -20.579 -22.496  1.00 50.85 LIG 0.24  C 
ATOM      2 O    ASP D   0     -18.142 -21.192 -22.233  1.00 49.73 LIG-0.27  OA
ATOM      3  N   ASP D   1     -19.245 -19.616 -23.423  1.00 47.66 LIG-0.34  N 
ATOM      4 H    ASP D   1     -19.977 -19.234 -23.664  1.00 47.66 LIG 0.16  HD
ENDROOT
BRANCH 1 5
ATOM      5  CA  ASP D   0     -20.469 -20.903 -21.733  1.00 50.32 LIG 0.19  C 
BRANCH 5 6
ATOM      6  CB  ASP D   0     -21.135 -22.135 -22.357  1.00 50.50 LIG 0.15  C 
BRANCH 6 7
ATOM      7  CG  ASP D   0     -20.136 -23.177 -22.808  1.00 42.38 LIG 0.17  C 
ATOM      8 OD2  ASP D   0     -20.175 -23.565 -23.997  1.00 47.85 LIG-0.65  OA
ATOM      9 OD1  ASP D   0     -19.310 -23.605 -21.978  1.00 32.99 LIG-0.65  OA
ENDBRANCH 6 7
ENDBRANCH 5 6
BRANCH 5 10
ATOM     10  N   ASP D   0     -21.420 -19.793 -21.728  1.00 53.06 LIG-0.34  N 
ATOM     11 H    ASP D   0     -22.036 -19.858 -22.326  1.00 53.06 LIG 0.16  HD
ATOM     12  C   ASP D  -1     -21.332 -18.777 -20.872  1.00 52.15 LIG 0.25  C 
ATOM     13 O    ASP D  -1     -20.333 -18.553 -20.176  1.00 47.49 LIG-0.27  OA
BRANCH 12 14
ATOM     14  CA  ASP D  -1     -22.558 -17.869 -20.795  1.00 59.57 LIG 0.28  C 
BRANCH 14 15
ATOM     15  N   ASP D  -1     -23.775 -18.675 -20.747  1.00 50.06 LIG-0.07  N 
ATOM     16 H3   ASP D  -1     -24.023 -18.888 -21.575  1.00 50.06 LIG 0.28  HD
ATOM     17 H2   ASP D  -1     -24.424 -18.211 -20.353  1.00 50.06 LIG 0.28  HD
ATOM     18 H1   ASP D  -1     -23.619 -19.419 -20.284  1.00 50.06 LIG 0.28  HD
ENDBRANCH 14 15
BRANCH 14 19
ATOM     19  CB  ASP D  -1     -22.477 -16.942 -19.581  1.00 60.46 LIG 0.15  C 
BRANCH 19 20
ATOM     20  CG  ASP D  -1     -22.691 -15.487 -19.940  1.00 56.39 LIG 0.17  C 
ATOM     21 OD1  ASP D  -1     -22.691 -14.642 -19.017  1.00 65.47 LIG-0.65  OA
ATOM     22 OD2  ASP D  -1     -22.843 -15.187 -21.146  1.00 48.71 LIG-0.65  OA
ENDBRANCH 19 20
ENDBRANCH 14 19
ENDBRANCH 12 14
ENDBRANCH 5 10
ENDBRANCH 1 5
BRANCH 3 23
ATOM     23  CA  ASP D   1     -18.046 -19.117 -24.122  1.00 46.44 LIG 0.19  C 
BRANCH 23 24
ATOM     24  C   ASP D   1     -18.326 -17.808 -24.842  1.00 38.24 LIG 0.24  C 
ATOM     25 O    ASP D   1     -18.505 -17.790 -26.056  1.00 48.73 LIG-0.27  OA
ATOM     26  N   MET D   2     -18.405 -16.718 -24.088  1.00 47.06 LIG-0.35  N 
ATOM     27 H    MET D   2     -18.177 -16.683 -23.260  1.00 47.06 LIG 0.16  HD
BRANCH 26 28
ATOM     28  CA  MET D   2     -18.903 -15.458 -24.640  1.00 48.57 LIG 0.16  C 
BRANCH 28 29
ATOM     29  C   MET D   2     -17.984 -14.282 -24.330  1.00 49.60 LIG 0.22  C 
ATOM     30 O    MET D   2     -18.209 -13.551 -23.364  1.00 49.04 LIG-0.29  OA
ENDBRANCH 28 29
BRANCH 28 31
ATOM     31  CB  MET D   2     -20.314 -15.175 -24.110  1.00 43.71 LIG 0.04  C 
BRANCH 31 32
ATOM     32  CG  MET D   2     -20.878 -16.250 -23.206  1.00 45.96 LIG 0.08  C 
BRANCH 32 33
ATOM     33 SD   MET D   2     -21.809 -17.486 -24.136  1.00 73.43 LIG-0.17  SA
ATOM     34  CE  MET D   2     -23.454 -16.774 -24.084  1.00 57.46 LIG 0.09  C 
ENDBRANCH 32 33
ENDBRANCH 31 32
ENDBRANCH 28 31
ENDBRANCH 26 28
ENDBRANCH 23 24
BRANCH 23 35
ATOM     35  CB  ASP D   1     -17.525 -20.119 -25.167  1.00 44.28 LIG 0.15  C 
BRANCH 35 36
ATOM     36  CG  ASP D   1     -16.021 -20.313 -25.119  1.00 47.95 LIG 0.17  C 
ATOM     37 OD1  ASP D   1     -15.554 -21.465 -24.968  1.00 49.71 LIG-0.65  OA
ATOM     38 OD2  ASP D   1     -15.303 -19.288 -25.225  1.00 42.29 LIG-0.65  OA
ENDBRANCH 35 36
ENDBRANCH 23 35
ENDBRANCH 3 23
TORSDOF 17
ENDMDL
MODEL 71
USER: ADFR SOLUTION from run 184
USER: SCORE 11.149604 LL:  -3.241 LR: -10.365 RR:   0.000 FEB:  -5.294
USER: RMSD 7.394477
USER: SEED 183
USER: STATUS no improvement in best in 12 clusters for 5 generations
USER: GENES 19
USER: genes 0 Translation |==|  0.39117 0.41332 0.63713
USER: genes 1 Rotation |==|  0.42307 0.09798 0.76627 0.60752
USER: genes 2 Torsion [N]-C--CA-[N] |==|  0.90556
USER: genes 3 Torsion [C]-CA--CB-[CG] |==|  0.23848
USER: genes 4 Torsion [CA]-CB--CG-[OD2] |==|  0.42046
USER: genes 5 Torsion [C]-CA--N-[C] |==|  0.58784
USER: genes 6 Torsion [N]-C--CA-[N] |==|  0.54985
USER: genes 7 Torsion [C]-CA--N-[H3] |==|  0.10112
USER: genes 8 Torsion [C]-CA--CB-[CG] |==|  0.67370
USER: genes 9 Torsion [CA]-CB--CG-[OD2] |==|  0.34938
USER: genes 10 Torsion [C]-N--CA-[CB] |==|  0.42130
USER: genes 11 Torsion [N]-CA--C-[N] |==|  0.07042
USER: genes 12 Torsion [C]-N--CA-[C] |==|  0.63422
USER: genes 13 Torsion [N]-CA--C-[O] |==|  0.05183
USER: genes 14 Torsion [N]-CA--CB-[CG] |==|  0.78700
USER: genes 15 Torsion [CA]-CB--CG-[SD] |==|  0.22875
USER: genes 16 Torsion [CB]-CG--SD-[CE] |==|  0.60710
USER: genes 17 Torsion [N]-CA--CB-[CG] |==|  0.54351
USER: genes 18 Torsion [CA]-CB--CG-[OD1] |==|  0.18697
ROOT
ATOM      1  C   ASP D   0     -20.860 -19.673 -20.885  1.00 50.85 LIG 0.24  C 
ATOM      2 O    ASP D   0     -19.700 -19.274 -20.751  1.00 49.73 LIG-0.27  OA
ATOM      3  N   ASP D   1     -21.874 -18.868 -21.227  1.00 47.66 LIG-0.34  N 
ATOM      4 H    ASP D   1     -22.670 -19.149 -21.392  1.00 47.66 LIG 0.16  HD
ENDROOT
BRANCH 1 5
ATOM      5  CA  ASP D   0     -21.191 -21.149 -20.639  1.00 50.32 LIG 0.19  C 
BRANCH 5 6
ATOM      6  CB  ASP D   0     -21.110 -21.915 -21.964  1.00 50.50 LIG 0.15  C 
BRANCH 6 7
ATOM      7  CG  ASP D   0     -19.710 -22.387 -22.287  1.00 42.38 LIG 0.17  C 
ATOM      8 OD2  ASP D   0     -19.573 -23.421 -22.977  1.00 47.85 LIG-0.65  OA
ATOM      9 OD1  ASP D   0     -18.747 -21.722 -21.855  1.00 32.99 LIG-0.65  OA
ENDBRANCH 6 7
ENDBRANCH 5 6
BRANCH 5 10
ATOM     10  N   ASP D   0     -22.514 -21.344 -20.050  1.00 53.06 LIG-0.34  N 
ATOM     11 H    ASP D   0     -23.094 -20.755 -20.289  1.00 53.06 LIG 0.16  HD
ATOM     12  C   ASP D  -1     -22.788 -22.348 -19.219  1.00 52.15 LIG 0.25  C 
ATOM     13 O    ASP D  -1     -21.919 -23.053 -18.689  1.00 47.49 LIG-0.27  OA
BRANCH 12 14
ATOM     14  CA  ASP D  -1     -24.269 -22.587 -18.937  1.00 59.57 LIG 0.28  C 
BRANCH 14 15
ATOM     15  N   ASP D  -1     -24.423 -23.393 -17.728  1.00 50.06 LIG-0.07  N 
ATOM     16 H3   ASP D  -1     -23.798 -23.165 -17.137  1.00 50.06 LIG 0.28  HD
ATOM     17 H2   ASP D  -1     -24.338 -24.256 -17.933  1.00 50.06 LIG 0.28  HD
ATOM     18 H1   ASP D  -1     -25.229 -23.251 -17.377  1.00 50.06 LIG 0.28  HD
ENDBRANCH 14 15
BRANCH 14 19
ATOM     19  CB  ASP D  -1     -25.021 -21.262 -18.800  1.00 60.46 LIG 0.15  C 
BRANCH 19 20
ATOM     20  CG  ASP D  -1     -25.625 -21.071 -17.425  1.00 56.39 LIG 0.17  C 
ATOM     21 OD1  ASP D  -1     -26.367 -21.972 -16.973  1.00 65.47 LIG-0.65  OA
ATOM     22 OD2  ASP D  -1     -25.346 -20.028 -16.792  1.00 48.71 LIG-0.65  OA
ENDBRANCH 19 20
ENDBRANCH 14 19
ENDBRANCH 12 14
ENDBRANCH 5 10
ENDBRANCH 1 5
BRANCH 3 23
ATOM     23  CA  ASP D   1     -21.711 -17.408 -21.350  1.00 46.44 LIG 0.19  C 
BRANCH 23 24
ATOM     24  C   ASP D   1     -21.932 -16.708 -20.019  1.00 38.24 LIG 0.24  C 
ATOM     25 O    ASP D   1     -22.330 -15.548 -19.983  1.00 48.73 LIG-0.27  OA
ATOM     26  N   MET D   2     -21.712 -17.427 -18.924  1.00 47.06 LIG-0.35  N 
ATOM     27 H    MET D   2     -21.332 -18.198 -18.919  1.00 47.06 LIG 0.16  HD
BRANCH 26 28
ATOM     28  CA  MET D   2     -22.121 -16.935 -17.609  1.00 48.57 LIG 0.16  C 
BRANCH 28 29
ATOM     29  C   MET D   2     -21.011 -17.054 -16.572  1.00 49.60 LIG 0.22  C 
ATOM     30 O    MET D   2     -19.838 -17.191 -16.924  1.00 49.04 LIG-0.29  OA
ENDBRANCH 28 29
BRANCH 28 31
ATOM     31  CB  MET D   2     -23.368 -17.689 -17.131  1.00 43.71 LIG 0.04  C 
BRANCH 31 32
ATOM     32  CG  MET D   2     -24.661 -17.253 -17.786  1.00 45.96 LIG 0.08  C 
BRANCH 32 33
ATOM     33 SD   MET D   2     -24.895 -18.041 -19.394  1.00 73.43 LIG-0.17  SA
ATOM     34  CE  MET D   2     -25.608 -16.687 -20.329  1.00 57.46 LIG 0.09  C 
ENDBRANCH 32 33
ENDBRANCH 31 32
ENDBRANCH 28 31
ENDBRANCH 26 28
ENDBRANCH 23 24
BRANCH 23 35
ATOM     35  CB  ASP D   1     -22.695 -16.798 -22.364  1.00 44.28 LIG 0.15  C 
BRANCH 35 36
ATOM     36  CG  ASP D   1     -22.321 -15.394 -22.798  1.00 47.95 LIG 0.17  C 
ATOM     37 OD1  ASP D   1     -21.286 -15.217 -23.481  1.00 49.71 LIG-0.65  OA
ATOM     38 OD2  ASP D   1     -23.075 -14.458 -22.436  1.00 42.29 LIG-0.65  OA
ENDBRANCH 35 36
ENDBRANCH 23 35
ENDBRANCH 3 23
TORSDOF 17
ENDMDL
MODEL 72
USER: ADFR SOLUTION from run 143
USER: SCORE 13.177433 LL:  -3.755 LR: -10.356 RR:   0.000 FEB:  -5.285
USER: RMSD 5.381841
USER: SEED 142
USER: STATUS no improvement in best in 14 clusters for 5 generations
USER: GENES 19
USER: genes 0 Translation |==|  0.58876 0.37874 0.41768
USER: genes 1 Rotation |==|  0.14676 0.42130 0.78524 0.69407
USER: genes 2 Torsion [N]-C--CA-[N] |==|  0.93087
USER: genes 3 Torsion [C]-CA--CB-[CG] |==|  0.20513
USER: genes 4 Torsion [CA]-CB--CG-[OD2] |==|  0.11455
USER: genes 5 Torsion [C]-CA--N-[C] |==|  0.83889
USER: genes 6 Torsion [N]-C--CA-[N] |==|  0.74317
USER: genes 7 Torsion [C]-CA--N-[H3] |==|  0.99860
USER: genes 8 Torsion [C]-CA--CB-[CG] |==|  0.40339
USER: genes 9 Torsion [CA]-CB--CG-[OD2] |==|  0.41381
USER: genes 10 Torsion [C]-N--CA-[CB] |==|  0.55771
USER: genes 11 Torsion [N]-CA--C-[N] |==|  0.83205
USER: genes 12 Torsion [C]-N--CA-[C] |==|  0.49292
USER: genes 13 Torsion [N]-CA--C-[O] |==|  0.23115
USER: genes 14 Torsion [N]-CA--CB-[CG] |==|  0.29942
USER: genes 15 Torsion [CA]-CB--CG-[SD] |==|  0.65457
USER: genes 16 Torsion [CB]-CG--SD-[CE] |==|  0.29004
USER: genes 17 Torsion [N]-CA--CB-[CG] |==|  0.09707
USER: genes 18 Torsion [CA]-CB--CG-[OD1] |==|  0.78306
ROOT
ATOM      1  C   ASP D   0     -16.711 -20.270 -24.835  1.00 50.85 LIG 0.24  C 
ATOM      2 O    ASP D   0     -16.074 -21.176 -24.291  1.00 49.73 LIG-0.27  OA
ATOM      3  N   ASP D   1     -16.485 -19.871 -26.092  1.00 47.66 LIG-0.34  N 
ATOM      4 H    ASP D   1     -16.970 -19.292 -26.503  1.00 47.66 LIG 0.16  HD
ENDROOT
BRANCH 1 5
ATOM      5  CA  ASP D   0     -17.808 -19.537 -24.056  1.00 50.32 LIG 0.19  C 
BRANCH 5 6
ATOM      6  CB  ASP D   0     -19.111 -20.342 -24.132  1.00 50.50 LIG 0.15  C 
BRANCH 6 7
ATOM      7  CG  ASP D   0     -19.087 -21.582 -23.268  1.00 42.38 LIG 0.17  C 
ATOM      8 OD2  ASP D   0     -18.578 -21.505 -22.128  1.00 47.85 LIG-0.65  OA
ATOM      9 OD1  ASP D   0     -19.581 -22.632 -23.724  1.00 32.99 LIG-0.65  OA
ENDBRANCH 6 7
ENDBRANCH 5 6
BRANCH 5 10
ATOM     10  N   ASP D   0     -18.049 -18.183 -24.550  1.00 53.06 LIG-0.34  N 
ATOM     11 H    ASP D   0     -18.859 -18.042 -24.802  1.00 53.06 LIG 0.16  HD
ATOM     12  C   ASP D  -1     -17.092 -17.258 -24.603  1.00 52.15 LIG 0.25  C 
ATOM     13 O    ASP D  -1     -15.888 -17.512 -24.470  1.00 47.49 LIG-0.27  OA
BRANCH 12 14
ATOM     14  CA  ASP D  -1     -17.567 -15.829 -24.853  1.00 59.57 LIG 0.28  C 
BRANCH 14 15
ATOM     15  N   ASP D  -1     -17.550 -15.540 -26.285  1.00 50.06 LIG-0.07  N 
ATOM     16 H3   ASP D  -1     -17.258 -16.254 -26.728  1.00 50.06 LIG 0.28  HD
ATOM     17 H2   ASP D  -1     -17.009 -14.851 -26.442  1.00 50.06 LIG 0.28  HD
ATOM     18 H1   ASP D  -1     -18.373 -15.339 -26.556  1.00 50.06 LIG 0.28  HD
ENDBRANCH 14 15
BRANCH 14 19
ATOM     19  CB  ASP D  -1     -18.967 -15.609 -24.275  1.00 60.46 LIG 0.15  C 
BRANCH 19 20
ATOM     20  CG  ASP D  -1     -19.162 -14.211 -23.729  1.00 56.39 LIG 0.17  C 
ATOM     21 OD1  ASP D  -1     -18.167 -13.613 -23.262  1.00 65.47 LIG-0.65  OA
ATOM     22 OD2  ASP D  -1     -20.306 -13.707 -23.779  1.00 48.71 LIG-0.65  OA
ENDBRANCH 19 20
ENDBRANCH 14 19
ENDBRANCH 12 14
ENDBRANCH 5 10
ENDBRANCH 1 5
BRANCH 3 23
ATOM     23  CA  ASP D   1     -15.366 -20.399 -26.895  1.00 46.44 LIG 0.19  C 
BRANCH 23 24
ATOM     24  C   ASP D   1     -14.116 -20.590 -26.050  1.00 38.24 LIG 0.24  C 
ATOM     25 O    ASP D   1     -13.591 -21.695 -25.956  1.00 48.73 LIG-0.27  OA
ATOM     26  N   MET D   2     -13.618 -19.505 -25.470  1.00 47.06 LIG-0.35  N 
ATOM     27 H    MET D   2     -14.023 -18.747 -25.429  1.00 47.06 LIG 0.16  HD
BRANCH 26 28
ATOM     28  CA  MET D   2     -12.299 -19.530 -24.839  1.00 48.57 LIG 0.16  C 
BRANCH 28 29
ATOM     29  C   MET D   2     -11.890 -18.169 -24.288  1.00 49.60 LIG 0.22  C 
ATOM     30 O    MET D   2     -12.277 -17.803 -23.177  1.00 49.04 LIG-0.29  OA
ENDBRANCH 28 29
BRANCH 28 31
ATOM     31  CB  MET D   2     -11.249 -20.027 -25.841  1.00 43.71 LIG 0.04  C 
BRANCH 31 32
ATOM     32  CG  MET D   2     -10.307 -18.960 -26.353  1.00 45.96 LIG 0.08  C 
BRANCH 32 33
ATOM     33 SD   MET D   2     -10.318 -18.866 -28.157  1.00 73.43 LIG-0.17  SA
ATOM     34  CE  MET D   2     -11.287 -17.378 -28.407  1.00 57.46 LIG 0.09  C 
ENDBRANCH 32 33
ENDBRANCH 31 32
ENDBRANCH 28 31
ENDBRANCH 26 28
ENDBRANCH 23 24
BRANCH 23 35
ATOM     35  CB  ASP D   1     -14.999 -19.466 -28.062  1.00 44.28 LIG 0.15  C 
BRANCH 35 36
ATOM     36  CG  ASP D   1     -15.161 -17.994 -27.733  1.00 47.95 LIG 0.17  C 
ATOM     37 OD1  ASP D   1     -16.306 -17.486 -27.737  1.00 49.71 LIG-0.65  OA
ATOM     38 OD2  ASP D   1     -14.119 -17.341 -27.478  1.00 42.29 LIG-0.65  OA
ENDBRANCH 35 36
ENDBRANCH 23 35
ENDBRANCH 3 23
TORSDOF 17
ENDMDL
MODEL 73
USER: ADFR SOLUTION from run 16
USER: SCORE 12.150589 LL:  -2.498 LR: -10.345 RR:   0.000 FEB:  -5.274
USER: RMSD 8.091645
USER: SEED 323646
USER: STATUS no improvement in best in 6 clusters for 5 generations
USER: GENES 19
USER: genes 0 Translation |==|  0.40782 0.43660 0.59051
USER: genes 1 Rotation |==|  0.59440 0.29800 0.05405 0.53764
USER: genes 2 Torsion [N]-C--CA-[N] |==|  0.63889
USER: genes 3 Torsion [C]-CA--CB-[CG] |==|  0.51162
USER: genes 4 Torsion [CA]-CB--CG-[OD2] |==|  0.25746
USER: genes 5 Torsion [C]-CA--N-[C] |==|  0.16619
USER: genes 6 Torsion [N]-C--CA-[N] |==|  0.63760
USER: genes 7 Torsion [C]-CA--N-[H3] |==|  0.23638
USER: genes 8 Torsion [C]-CA--CB-[CG] |==|  0.78138
USER: genes 9 Torsion [CA]-CB--CG-[OD2] |==|  0.47641
USER: genes 10 Torsion [C]-N--CA-[CB] |==|  0.16761
USER: genes 11 Torsion [N]-CA--C-[N] |==|  0.07230
USER: genes 12 Torsion [C]-N--CA-[C] |==|  0.61021
USER: genes 13 Torsion [N]-CA--C-[O] |==|  0.95200
USER: genes 14 Torsion [N]-CA--CB-[CG] |==|  0.87036
USER: genes 15 Torsion [CA]-CB--CG-[SD] |==|  0.79894
USER: genes 16 Torsion [CB]-CG--SD-[CE] |==|  0.39878
USER: genes 17 Torsion [N]-CA--CB-[CG] |==|  0.72503
USER: genes 18 Torsion [CA]-CB--CG-[OD1] |==|  0.79540
ROOT
ATOM      1  C   ASP D   0     -20.511 -19.272 -21.724  1.00 50.85 LIG 0.24  C 
ATOM      2 O    ASP D   0     -19.414 -19.740 -22.042  1.00 49.73 LIG-0.27  OA
ATOM      3  N   ASP D   1     -21.615 -20.018 -21.600  1.00 47.66 LIG-0.34  N 
ATOM      4 H    ASP D   1     -22.366 -19.714 -21.310  1.00 47.66 LIG 0.16  HD
ENDROOT
BRANCH 1 5
ATOM      5  CA  ASP D   0     -20.650 -17.768 -21.467  1.00 50.32 LIG 0.19  C 
BRANCH 5 6
ATOM      6  CB  ASP D   0     -22.134 -17.414 -21.309  1.00 50.50 LIG 0.15  C 
BRANCH 6 7
ATOM      7  CG  ASP D   0     -22.370 -15.928 -21.152  1.00 42.38 LIG 0.17  C 
ATOM      8 OD2  ASP D   0     -22.606 -15.251 -22.177  1.00 47.85 LIG-0.65  OA
ATOM      9 OD1  ASP D   0     -22.325 -15.439 -20.006  1.00 32.99 LIG-0.65  OA
ENDBRANCH 6 7
ENDBRANCH 5 6
BRANCH 5 10
ATOM     10  N   ASP D   0     -20.072 -16.953 -22.534  1.00 53.06 LIG-0.34  N 
ATOM     11 H    ASP D   0     -19.442 -16.430 -22.272  1.00 53.06 LIG 0.16  HD
ATOM     12  C   ASP D  -1     -20.492 -17.022 -23.797  1.00 52.15 LIG 0.25  C 
ATOM     13 O    ASP D  -1     -21.540 -17.586 -24.139  1.00 47.49 LIG-0.27  OA
BRANCH 12 14
ATOM     14  CA  ASP D  -1     -19.596 -16.343 -24.829  1.00 59.57 LIG 0.28  C 
BRANCH 14 15
ATOM     15  N   ASP D  -1     -20.394 -15.471 -25.687  1.00 50.06 LIG-0.07  N 
ATOM     16 H3   ASP D  -1     -20.489 -14.676 -25.297  1.00 50.06 LIG 0.28  HD
ATOM     17 H2   ASP D  -1     -21.196 -15.835 -25.817  1.00 50.06 LIG 0.28  HD
ATOM     18 H1   ASP D  -1     -19.985 -15.369 -26.470  1.00 50.06 LIG 0.28  HD
ENDBRANCH 14 15
BRANCH 14 19
ATOM     19  CB  ASP D  -1     -18.478 -15.551 -24.147  1.00 60.46 LIG 0.15  C 
BRANCH 19 20
ATOM     20  CG  ASP D  -1     -18.950 -14.217 -23.610  1.00 56.39 LIG 0.17  C 
ATOM     21 OD1  ASP D  -1     -20.108 -13.839 -23.896  1.00 65.47 LIG-0.65  OA
ATOM     22 OD2  ASP D  -1     -18.168 -13.554 -22.893  1.00 48.71 LIG-0.65  OA
ENDBRANCH 19 20
ENDBRANCH 14 19
ENDBRANCH 12 14
ENDBRANCH 5 10
ENDBRANCH 1 5
BRANCH 3 23
ATOM     23  CA  ASP D   1     -21.641 -21.448 -21.958  1.00 46.44 LIG 0.19  C 
BRANCH 23 24
ATOM     24  C   ASP D   1     -23.021 -22.050 -21.746  1.00 38.24 LIG 0.24  C 
ATOM     25 O    ASP D   1     -23.148 -23.243 -21.487  1.00 48.73 LIG-0.27  OA
ATOM     26  N   MET D   2     -24.052 -21.216 -21.815  1.00 47.06 LIG-0.35  N 
ATOM     27 H    MET D   2     -24.002 -20.406 -22.101  1.00 47.06 LIG 0.16  HD
BRANCH 26 28
ATOM     28  CA  MET D   2     -25.387 -21.637 -21.394  1.00 48.57 LIG 0.16  C 
BRANCH 28 29
ATOM     29  C   MET D   2     -26.482 -21.110 -22.313  1.00 49.60 LIG 0.22  C 
ATOM     30 O    MET D   2     -26.256 -20.173 -23.081  1.00 49.04 LIG-0.29  OA
ENDBRANCH 28 29
BRANCH 28 31
ATOM     31  CB  MET D   2     -25.649 -21.184 -19.952  1.00 43.71 LIG 0.04  C 
BRANCH 31 32
ATOM     32  CG  MET D   2     -24.521 -21.467 -18.984  1.00 45.96 LIG 0.08  C 
BRANCH 32 33
ATOM     33 SD   MET D   2     -24.394 -23.228 -18.601  1.00 73.43 LIG-0.17  SA
ATOM     34  CE  MET D   2     -22.614 -23.414 -18.478  1.00 57.46 LIG 0.09  C 
ENDBRANCH 32 33
ENDBRANCH 31 32
ENDBRANCH 28 31
ENDBRANCH 26 28
ENDBRANCH 23 24
BRANCH 23 35
ATOM     35  CB  ASP D   1     -20.643 -22.272 -21.126  1.00 44.28 LIG 0.15  C 
BRANCH 35 36
ATOM     36  CG  ASP D   1     -19.342 -22.557 -21.853  1.00 47.95 LIG 0.17  C 
ATOM     37 OD1  ASP D   1     -19.327 -23.402 -22.777  1.00 49.71 LIG-0.65  OA
ATOM     38 OD2  ASP D   1     -18.322 -21.928 -21.478  1.00 42.29 LIG-0.65  OA
ENDBRANCH 35 36
ENDBRANCH 23 35
ENDBRANCH 3 23
TORSDOF 17
ENDMDL
MODEL 74
USER: ADFR SOLUTION from run 116
USER: SCORE 11.795738 LL:  -2.973 LR: -10.345 RR:   0.000 FEB:  -5.274
USER: RMSD 6.187210
USER: SEED 115
USER: STATUS no improvement in best in 12 clusters for 5 generations
USER: GENES 19
USER: genes 0 Translation |==|  0.42459 0.43714 0.62138
USER: genes 1 Rotation |==|  0.52787 0.28257 0.06436 0.61028
USER: genes 2 Torsion [N]-C--CA-[N] |==|  0.59304
USER: genes 3 Torsion [C]-CA--CB-[CG] |==|  0.51112
USER: genes 4 Torsion [CA]-CB--CG-[OD2] |==|  0.25351
USER: genes 5 Torsion [C]-CA--N-[C] |==|  0.17023
USER: genes 6 Torsion [N]-C--CA-[N] |==|  0.65997
USER: genes 7 Torsion [C]-CA--N-[H3] |==|  0.90816
USER: genes 8 Torsion [C]-CA--CB-[CG] |==|  0.77814
USER: genes 9 Torsion [CA]-CB--CG-[OD2] |==|  0.97393
USER: genes 10 Torsion [C]-N--CA-[CB] |==|  0.57222
USER: genes 11 Torsion [N]-CA--C-[N] |==|  0.81608
USER: genes 12 Torsion [C]-N--CA-[C] |==|  0.17882
USER: genes 13 Torsion [N]-CA--C-[O] |==|  0.86837
USER: genes 14 Torsion [N]-CA--CB-[CG] |==|  0.87193
USER: genes 15 Torsion [CA]-CB--CG-[SD] |==|  0.40149
USER: genes 16 Torsion [CB]-CG--SD-[CE] |==|  0.36048
USER: genes 17 Torsion [N]-CA--CB-[CG] |==|  0.84546
USER: genes 18 Torsion [CA]-CB--CG-[OD1] |==|  0.24869
ROOT
ATOM      1  C   ASP D   0     -20.159 -19.262 -21.168  1.00 50.85 LIG 0.24  C 
ATOM      2 O    ASP D   0     -19.163 -19.648 -21.788  1.00 49.73 LIG-0.27  OA
ATOM      3  N   ASP D   1     -21.023 -20.099 -20.582  1.00 47.66 LIG-0.34  N 
ATOM      4 H    ASP D   1     -21.678 -19.839 -20.088  1.00 47.66 LIG 0.16  HD
ENDROOT
BRANCH 1 5
ATOM      5  CA  ASP D   0     -20.454 -17.763 -21.060  1.00 50.32 LIG 0.19  C 
BRANCH 5 6
ATOM      6  CB  ASP D   0     -21.957 -17.555 -20.841  1.00 50.50 LIG 0.15  C 
BRANCH 6 7
ATOM      7  CG  ASP D   0     -22.351 -16.095 -20.819  1.00 42.38 LIG 0.17  C 
ATOM      8 OD2  ASP D   0     -22.691 -15.553 -21.895  1.00 47.85 LIG-0.65  OA
ATOM      9 OD1  ASP D   0     -22.325 -15.490 -19.729  1.00 32.99 LIG-0.65  OA
ENDBRANCH 6 7
ENDBRANCH 5 6
BRANCH 5 10
ATOM     10  N   ASP D   0     -20.032 -17.014 -22.242  1.00 53.06 LIG-0.34  N 
ATOM     11 H    ASP D   0     -19.436 -16.414 -22.081  1.00 53.06 LIG 0.16  HD
ATOM     12  C   ASP D  -1     -20.530 -17.248 -23.455  1.00 52.15 LIG 0.25  C 
ATOM     13 O    ASP D  -1     -21.541 -17.932 -23.658  1.00 47.49 LIG-0.27  OA
BRANCH 12 14
ATOM     14  CA  ASP D  -1     -19.776 -16.602 -24.615  1.00 59.57 LIG 0.28  C 
BRANCH 14 15
ATOM     15  N   ASP D  -1     -20.676 -15.740 -25.377  1.00 50.06 LIG-0.07  N 
ATOM     16 H3   ASP D  -1     -21.497 -16.084 -25.366  1.00 50.06 LIG 0.28  HD
ATOM     17 H2   ASP D  -1     -20.391 -15.681 -26.218  1.00 50.06 LIG 0.28  HD
ATOM     18 H1   ASP D  -1     -20.690 -14.928 -25.012  1.00 50.06 LIG 0.28  HD
ENDBRANCH 14 15
BRANCH 14 19
ATOM     19  CB  ASP D  -1     -18.570 -15.808 -24.109  1.00 60.46 LIG 0.15  C 
BRANCH 19 20
ATOM     20  CG  ASP D  -1     -18.950 -14.446 -23.571  1.00 56.39 LIG 0.17  C 
ATOM     21 OD1  ASP D  -1     -18.073 -13.776 -22.980  1.00 65.47 LIG-0.65  OA
ATOM     22 OD2  ASP D  -1     -20.120 -14.040 -23.750  1.00 48.71 LIG-0.65  OA
ENDBRANCH 19 20
ENDBRANCH 14 19
ENDBRANCH 12 14
ENDBRANCH 5 10
ENDBRANCH 1 5
BRANCH 3 23
ATOM     23  CA  ASP D   1     -20.928 -21.563 -20.735  1.00 46.44 LIG 0.19  C 
BRANCH 23 24
ATOM     24  C   ASP D   1     -20.399 -21.946 -22.108  1.00 38.24 LIG 0.24  C 
ATOM     25 O    ASP D   1     -19.323 -22.524 -22.223  1.00 48.73 LIG-0.27  OA
ATOM     26  N   MET D   2     -21.176 -21.659 -23.146  1.00 47.06 LIG-0.35  N 
ATOM     27 H    MET D   2     -21.875 -21.161 -23.106  1.00 47.06 LIG 0.16  HD
BRANCH 26 28
ATOM     28  CA  MET D   2     -20.878 -22.193 -24.475  1.00 48.57 LIG 0.16  C 
BRANCH 28 29
ATOM     29  C   MET D   2     -20.983 -23.712 -24.530  1.00 49.60 LIG 0.22  C 
ATOM     30 O    MET D   2     -20.450 -24.407 -23.663  1.00 49.04 LIG-0.29  OA
ENDBRANCH 28 29
BRANCH 28 31
ATOM     31  CB  MET D   2     -19.479 -21.747 -24.918  1.00 43.71 LIG 0.04  C 
BRANCH 31 32
ATOM     32  CG  MET D   2     -19.180 -20.281 -24.692  1.00 45.96 LIG 0.08  C 
BRANCH 32 33
ATOM     33 SD   MET D   2     -17.454 -20.013 -24.234  1.00 73.43 LIG-0.17  SA
ATOM     34  CE  MET D   2     -17.000 -18.719 -25.391  1.00 57.46 LIG 0.09  C 
ENDBRANCH 32 33
ENDBRANCH 31 32
ENDBRANCH 28 31
ENDBRANCH 26 28
ENDBRANCH 23 24
BRANCH 23 35
ATOM     35  CB  ASP D   1     -22.290 -22.256 -20.552  1.00 44.28 LIG 0.15  C 
BRANCH 35 36
ATOM     36  CG  ASP D   1     -22.957 -21.934 -19.229  1.00 47.95 LIG 0.17  C 
ATOM     37 OD1  ASP D   1     -23.718 -20.942 -19.150  1.00 49.71 LIG-0.65  OA
ATOM     38 OD2  ASP D   1     -22.701 -22.685 -18.256  1.00 42.29 LIG-0.65  OA
ENDBRANCH 35 36
ENDBRANCH 23 35
ENDBRANCH 3 23
TORSDOF 17
ENDMDL
MODEL 75
USER: ADFR SOLUTION from run 172
USER: SCORE 11.572623 LL:  -3.207 LR: -10.348 RR:   0.000 FEB:  -5.277
USER: RMSD 6.993611
USER: SEED 171
USER: STATUS no improvement in best in 15 clusters for 5 generations
USER: GENES 19
USER: genes 0 Translation |==|  0.38682 0.42875 0.64429
USER: genes 1 Rotation |==|  0.71860 0.84915 0.35908 0.74586
USER: genes 2 Torsion [N]-C--CA-[N] |==|  0.63416
USER: genes 3 Torsion [C]-CA--CB-[CG] |==|  0.30621
USER: genes 4 Torsion [CA]-CB--CG-[OD2] |==|  0.86913
USER: genes 5 Torsion [C]-CA--N-[C] |==|  0.60781
USER: genes 6 Torsion [N]-C--CA-[N] |==|  0.60812
USER: genes 7 Torsion [C]-CA--N-[H3] |==|  0.63103
USER: genes 8 Torsion [C]-CA--CB-[CG] |==|  0.67976
USER: genes 9 Torsion [CA]-CB--CG-[OD2] |==|  0.64133
USER: genes 10 Torsion [C]-N--CA-[CB] |==|  0.52316
USER: genes 11 Torsion [N]-CA--C-[N] |==|  0.82767
USER: genes 12 Torsion [C]-N--CA-[C] |==|  0.15699
USER: genes 13 Torsion [N]-CA--C-[O] |==|  0.81415
USER: genes 14 Torsion [N]-CA--CB-[CG] |==|  0.85628
USER: genes 15 Torsion [CA]-CB--CG-[SD] |==|  0.36588
USER: genes 16 Torsion [CB]-CG--SD-[CE] |==|  0.98394
USER: genes 17 Torsion [N]-CA--CB-[CG] |==|  0.52470
USER: genes 18 Torsion [CA]-CB--CG-[OD1] |==|  0.71295
ROOT
ATOM      1  C   ASP D   0     -20.952 -19.407 -20.756  1.00 50.85 LIG 0.24  C 
ATOM      2 O    ASP D   0     -21.220 -18.861 -19.682  1.00 49.73 LIG-0.27  OA
ATOM      3  N   ASP D   1     -20.574 -18.728 -21.846  1.00 47.66 LIG-0.34  N 
ATOM      4 H    ASP D   1     -20.316 -19.104 -22.576  1.00 47.66 LIG 0.16  HD
ENDROOT
BRANCH 1 5
ATOM      5  CA  ASP D   0     -21.062 -20.930 -20.883  1.00 50.32 LIG 0.19  C 
BRANCH 5 6
ATOM      6  CB  ASP D   0     -20.937 -21.327 -22.358  1.00 50.50 LIG 0.15  C 
BRANCH 6 7
ATOM      7  CG  ASP D   0     -19.644 -22.049 -22.665  1.00 42.38 LIG 0.17  C 
ATOM      8 OD2  ASP D   0     -18.575 -21.568 -22.228  1.00 47.85 LIG-0.65  OA
ATOM      9 OD1  ASP D   0     -19.695 -23.098 -23.337  1.00 32.99 LIG-0.65  OA
ENDBRANCH 6 7
ENDBRANCH 5 6
BRANCH 5 10
ATOM     10  N   ASP D   0     -22.316 -21.455 -20.348  1.00 53.06 LIG-0.34  N 
ATOM     11 H    ASP D   0     -23.001 -20.961 -20.512  1.00 53.06 LIG 0.16  HD
ATOM     12  C   ASP D  -1     -22.382 -22.599 -19.667  1.00 52.15 LIG 0.25  C 
ATOM     13 O    ASP D  -1     -21.388 -23.190 -19.226  1.00 47.49 LIG-0.27  OA
BRANCH 12 14
ATOM     14  CA  ASP D  -1     -23.787 -23.155 -19.444  1.00 59.57 LIG 0.28  C 
BRANCH 14 15
ATOM     15  N   ASP D  -1     -23.891 -23.724 -18.103  1.00 50.06 LIG-0.07  N 
ATOM     16 H3   ASP D  -1     -24.274 -24.526 -18.150  1.00 50.06 LIG 0.28  HD
ATOM     17 H2   ASP D  -1     -24.384 -23.189 -17.590  1.00 50.06 LIG 0.28  HD
ATOM     18 H1   ASP D  -1     -23.077 -23.805 -17.751  1.00 50.06 LIG 0.28  HD
ENDBRANCH 14 15
BRANCH 14 19
ATOM     19  CB  ASP D  -1     -24.844 -22.069 -19.652  1.00 60.46 LIG 0.15  C 
BRANCH 19 20
ATOM     20  CG  ASP D  -1     -25.605 -21.743 -18.385  1.00 56.39 LIG 0.17  C 
ATOM     21 OD1  ASP D  -1     -24.950 -21.474 -17.353  1.00 65.47 LIG-0.65  OA
ATOM     22 OD2  ASP D  -1     -26.856 -21.742 -18.425  1.00 48.71 LIG-0.65  OA
ENDBRANCH 19 20
ENDBRANCH 14 19
ENDBRANCH 12 14
ENDBRANCH 5 10
ENDBRANCH 1 5
BRANCH 3 23
ATOM     23  CA  ASP D   1     -20.568 -17.254 -21.891  1.00 46.44 LIG 0.19  C 
BRANCH 23 24
ATOM     24  C   ASP D   1     -21.898 -16.678 -21.432  1.00 38.24 LIG 0.24  C 
ATOM     25 O    ASP D   1     -21.950 -15.928 -20.462  1.00 48.73 LIG-0.27  OA
ATOM     26  N   MET D   2     -22.966 -16.995 -22.154  1.00 47.06 LIG-0.35  N 
ATOM     27 H    MET D   2     -22.976 -17.600 -22.765  1.00 47.06 LIG 0.16  HD
BRANCH 26 28
ATOM     28  CA  MET D   2     -24.241 -16.310 -21.947  1.00 48.57 LIG 0.16  C 
BRANCH 28 29
ATOM     29  C   MET D   2     -24.124 -14.799 -22.107  1.00 49.60 LIG 0.22  C 
ATOM     30 O    MET D   2     -23.469 -14.134 -21.303  1.00 49.04 LIG-0.29  OA
ENDBRANCH 28 29
BRANCH 28 31
ATOM     31  CB  MET D   2     -24.799 -16.649 -20.558  1.00 43.71 LIG 0.04  C 
BRANCH 31 32
ATOM     32  CG  MET D   2     -24.874 -18.128 -20.250  1.00 45.96 LIG 0.08  C 
BRANCH 32 33
ATOM     33 SD   MET D   2     -24.170 -18.511 -18.631  1.00 73.43 LIG-0.17  SA
ATOM     34  CE  MET D   2     -23.514 -16.908 -18.166  1.00 57.46 LIG 0.09  C 
ENDBRANCH 32 33
ENDBRANCH 31 32
ENDBRANCH 28 31
ENDBRANCH 26 28
ENDBRANCH 23 24
BRANCH 23 35
ATOM     35  CB  ASP D   1     -20.294 -16.719 -23.308  1.00 44.28 LIG 0.15  C 
BRANCH 35 36
ATOM     36  CG  ASP D   1     -20.069 -15.219 -23.353  1.00 47.95 LIG 0.17  C 
ATOM     37 OD1  ASP D   1     -20.987 -14.473 -23.764  1.00 49.71 LIG-0.65  OA
ATOM     38 OD2  ASP D   1     -18.949 -14.793 -22.979  1.00 42.29 LIG-0.65  OA
ENDBRANCH 35 36
ENDBRANCH 23 35
ENDBRANCH 3 23
TORSDOF 17
ENDMDL
MODEL 76
USER: ADFR SOLUTION from run 4
USER: SCORE 12.206028 LL:  -2.448 LR: -10.338 RR:   0.000 FEB:  -5.267
USER: RMSD 4.805326
USER: SEED 338749
USER: STATUS no improvement in best in 21 clusters for 5 generations
USER: GENES 19
USER: genes 0 Translation |==|  0.44777 0.43747 0.49759
USER: genes 1 Rotation |==|  0.50922 0.49704 0.38338 0.98611
USER: genes 2 Torsion [N]-C--CA-[N] |==|  0.38788
USER: genes 3 Torsion [C]-CA--CB-[CG] |==|  0.20915
USER: genes 4 Torsion [CA]-CB--CG-[OD2] |==|  0.55092
USER: genes 5 Torsion [C]-CA--N-[C] |==|  0.69967
USER: genes 6 Torsion [N]-C--CA-[N] |==|  0.48730
USER: genes 7 Torsion [C]-CA--N-[H3] |==|  0.26204
USER: genes 8 Torsion [C]-CA--CB-[CG] |==|  0.79224
USER: genes 9 Torsion [CA]-CB--CG-[OD2] |==|  0.87296
USER: genes 10 Torsion [C]-N--CA-[CB] |==|  0.80000
USER: genes 11 Torsion [N]-CA--C-[N] |==|  0.18889
USER: genes 12 Torsion [C]-N--CA-[C] |==|  0.82192
USER: genes 13 Torsion [N]-CA--C-[O] |==|  0.83219
USER: genes 14 Torsion [N]-CA--CB-[CG] |==|  0.47001
USER: genes 15 Torsion [CA]-CB--CG-[SD] |==|  0.50139
USER: genes 16 Torsion [CB]-CG--SD-[CE] |==|  0.59803
USER: genes 17 Torsion [N]-CA--CB-[CG] |==|  0.75723
USER: genes 18 Torsion [CA]-CB--CG-[OD1] |==|  0.41903
ROOT
ATOM      1  C   ASP D   0     -19.672 -19.257 -23.396  1.00 50.85 LIG 0.24  C 
ATOM      2 O    ASP D   0     -20.328 -18.823 -24.348  1.00 49.73 LIG-0.27  OA
ATOM      3  N   ASP D   1     -18.333 -19.257 -23.372  1.00 47.66 LIG-0.34  N 
ATOM      4 H    ASP D   1     -17.869 -19.490 -22.686  1.00 47.66 LIG 0.16  HD
ENDROOT
BRANCH 1 5
ATOM      5  CA  ASP D   0     -20.393 -19.842 -22.178  1.00 50.32 LIG 0.19  C 
BRANCH 5 6
ATOM      6  CB  ASP D   0     -20.812 -21.285 -22.480  1.00 50.50 LIG 0.15  C 
BRANCH 6 7
ATOM      7  CG  ASP D   0     -19.653 -22.256 -22.433  1.00 42.38 LIG 0.17  C 
ATOM      8 OD2  ASP D   0     -19.786 -23.369 -22.988  1.00 47.85 LIG-0.65  OA
ATOM      9 OD1  ASP D   0     -18.610 -21.905 -21.848  1.00 32.99 LIG-0.65  OA
ENDBRANCH 6 7
ENDBRANCH 5 6
BRANCH 5 10
ATOM     10  N   ASP D   0     -21.572 -19.069 -21.791  1.00 53.06 LIG-0.34  N 
ATOM     11 H    ASP D   0     -22.235 -19.148 -22.334  1.00 53.06 LIG 0.16  HD
ATOM     12  C   ASP D  -1     -21.607 -18.315 -20.694  1.00 52.15 LIG 0.25  C 
ATOM     13 O    ASP D  -1     -20.600 -18.009 -20.043  1.00 47.49 LIG-0.27  OA
BRANCH 12 14
ATOM     14  CA  ASP D  -1     -22.990 -17.822 -20.274  1.00 59.57 LIG 0.28  C 
BRANCH 14 15
ATOM     15  N   ASP D  -1     -22.900 -17.103 -19.006  1.00 50.06 LIG-0.07  N 
ATOM     16 H3   ASP D  -1     -22.815 -16.231 -19.165  1.00 50.06 LIG 0.28  HD
ATOM     17 H2   ASP D  -1     -22.192 -17.392 -18.550  1.00 50.06 LIG 0.28  HD
ATOM     18 H1   ASP D  -1     -23.638 -17.247 -18.530  1.00 50.06 LIG 0.28  HD
ENDBRANCH 14 15
BRANCH 14 19
ATOM     19  CB  ASP D  -1     -23.606 -16.933 -21.356  1.00 60.46 LIG 0.15  C 
BRANCH 19 20
ATOM     20  CG  ASP D  -1     -22.983 -15.554 -21.404  1.00 56.39 LIG 0.17  C 
ATOM     21 OD1  ASP D  -1     -22.684 -15.077 -22.522  1.00 65.47 LIG-0.65  OA
ATOM     22 OD2  ASP D  -1     -22.805 -14.943 -20.326  1.00 48.71 LIG-0.65  OA
ENDBRANCH 19 20
ENDBRANCH 14 19
ENDBRANCH 12 14
ENDBRANCH 5 10
ENDBRANCH 1 5
BRANCH 3 23
ATOM     23  CA  ASP D   1     -17.526 -18.854 -24.539  1.00 46.44 LIG 0.19  C 
BRANCH 23 24
ATOM     24  C   ASP D   1     -18.009 -17.535 -25.121  1.00 38.24 LIG 0.24  C 
ATOM     25 O    ASP D   1     -18.569 -17.503 -26.212  1.00 48.73 LIG-0.27  OA
ATOM     26  N   MET D   2     -17.827 -16.453 -24.374  1.00 47.06 LIG-0.35  N 
ATOM     27 H    MET D   2     -17.344 -16.429 -23.663  1.00 47.06 LIG 0.16  HD
BRANCH 26 28
ATOM     28  CA  MET D   2     -18.462 -15.183 -24.726  1.00 48.57 LIG 0.16  C 
BRANCH 28 29
ATOM     29  C   MET D   2     -17.962 -14.631 -26.056  1.00 49.60 LIG 0.22  C 
ATOM     30 O    MET D   2     -16.770 -14.361 -26.211  1.00 49.04 LIG-0.29  OA
ENDBRANCH 28 29
BRANCH 28 31
ATOM     31  CB  MET D   2     -18.233 -14.155 -23.611  1.00 43.71 LIG 0.04  C 
BRANCH 31 32
ATOM     32  CG  MET D   2     -18.618 -12.736 -23.970  1.00 45.96 LIG 0.08  C 
BRANCH 32 33
ATOM     33 SD   MET D   2     -18.302 -11.593 -22.607  1.00 73.43 LIG-0.17  SA
ATOM     34  CE  MET D   2     -19.678 -10.458 -22.799  1.00 57.46 LIG 0.09  C 
ENDBRANCH 32 33
ENDBRANCH 31 32
ENDBRANCH 28 31
ENDBRANCH 26 28
ENDBRANCH 23 24
BRANCH 23 35
ATOM     35  CB  ASP D   1     -17.570 -19.902 -25.665  1.00 44.28 LIG 0.15  C 
BRANCH 35 36
ATOM     36  CG  ASP D   1     -16.516 -20.985 -25.523  1.00 47.95 LIG 0.17  C 
ATOM     37 OD1  ASP D   1     -16.746 -22.128 -25.979  1.00 49.71 LIG-0.65  OA
ATOM     38 OD2  ASP D   1     -15.450 -20.678 -24.935  1.00 42.29 LIG-0.65  OA
ENDBRANCH 35 36
ENDBRANCH 23 35
ENDBRANCH 3 23
TORSDOF 17
ENDMDL
MODEL 77
USER: ADFR SOLUTION from run 165
USER: SCORE 12.499621 LL:  -3.117 LR: -10.344 RR:   0.000 FEB:  -5.273
USER: RMSD 6.545018
USER: SEED 164
USER: STATUS no improvement in best in 14 clusters for 5 generations
USER: GENES 19
USER: genes 0 Translation |==|  0.47896 0.39317 0.53614
USER: genes 1 Rotation |==|  0.65763 0.90966 0.73507 0.54551
USER: genes 2 Torsion [N]-C--CA-[N] |==|  0.07951
USER: genes 3 Torsion [C]-CA--CB-[CG] |==|  0.29983
USER: genes 4 Torsion [CA]-CB--CG-[OD2] |==|  0.42756
USER: genes 5 Torsion [C]-CA--N-[C] |==|  0.67931
USER: genes 6 Torsion [N]-C--CA-[N] |==|  0.53999
USER: genes 7 Torsion [C]-CA--N-[H3] |==|  0.24212
USER: genes 8 Torsion [C]-CA--CB-[CG] |==|  0.70460
USER: genes 9 Torsion [CA]-CB--CG-[OD2] |==|  0.59825
USER: genes 10 Torsion [C]-N--CA-[CB] |==|  0.51667
USER: genes 11 Torsion [N]-CA--C-[N] |==|  0.28565
USER: genes 12 Torsion [C]-N--CA-[C] |==|  0.65735
USER: genes 13 Torsion [N]-CA--C-[O] |==|  0.06126
USER: genes 14 Torsion [N]-CA--CB-[CG] |==|  0.80383
USER: genes 15 Torsion [CA]-CB--CG-[SD] |==|  0.85392
USER: genes 16 Torsion [CB]-CG--SD-[CE] |==|  0.36683
USER: genes 17 Torsion [N]-CA--CB-[CG] |==|  0.07078
USER: genes 18 Torsion [CA]-CB--CG-[OD1] |==|  0.58432
ROOT
ATOM      1  C   ASP D   0     -19.017 -20.021 -22.702  1.00 50.85 LIG 0.24  C 
ATOM      2 O    ASP D   0     -18.804 -21.153 -22.260  1.00 49.73 LIG-0.27  OA
ATOM      3  N   ASP D   1     -19.693 -19.086 -22.023  1.00 47.66 LIG-0.34  N 
ATOM      4 H    ASP D   1     -19.784 -18.274 -22.291  1.00 47.66 LIG 0.16  HD
ENDROOT
BRANCH 1 5
ATOM      5  CA  ASP D   0     -18.511 -19.642 -24.098  1.00 50.32 LIG 0.19  C 
BRANCH 5 6
ATOM      6  CB  ASP D   0     -17.232 -20.428 -24.407  1.00 50.50 LIG 0.15  C 
BRANCH 6 7
ATOM      7  CG  ASP D   0     -17.444 -21.514 -25.438  1.00 42.38 LIG 0.17  C 
ATOM      8 OD2  ASP D   0     -16.467 -21.879 -26.128  1.00 47.85 LIG-0.65  OA
ATOM      9 OD1  ASP D   0     -18.584 -22.006 -25.555  1.00 32.99 LIG-0.65  OA
ENDBRANCH 6 7
ENDBRANCH 5 6
BRANCH 5 10
ATOM     10  N   ASP D   0     -18.242 -18.212 -24.236  1.00 53.06 LIG-0.34  N 
ATOM     11 H    ASP D   0     -17.604 -17.926 -23.734  1.00 53.06 LIG 0.16  HD
ATOM     12  C   ASP D  -1     -18.930 -17.429 -25.066  1.00 52.15 LIG 0.25  C 
ATOM     13 O    ASP D  -1     -19.989 -17.771 -25.608  1.00 47.49 LIG-0.27  OA
BRANCH 12 14
ATOM     14  CA  ASP D  -1     -18.334 -16.045 -25.315  1.00 59.57 LIG 0.28  C 
BRANCH 14 15
ATOM     15  N   ASP D  -1     -19.327 -15.181 -25.948  1.00 50.06 LIG-0.07  N 
ATOM     16 H3   ASP D  -1     -19.821 -14.787 -25.321  1.00 50.06 LIG 0.28  HD
ATOM     17 H2   ASP D  -1     -19.853 -15.669 -26.476  1.00 50.06 LIG 0.28  HD
ATOM     18 H1   ASP D  -1     -18.914 -14.560 -26.434  1.00 50.06 LIG 0.28  HD
ENDBRANCH 14 15
BRANCH 14 19
ATOM     19  CB  ASP D  -1     -17.832 -15.423 -24.011  1.00 60.46 LIG 0.15  C 
BRANCH 19 20
ATOM     20  CG  ASP D  -1     -18.728 -14.312 -23.509  1.00 56.39 LIG 0.17  C 
ATOM     21 OD1  ASP D  -1     -19.964 -14.427 -23.673  1.00 65.47 LIG-0.65  OA
ATOM     22 OD2  ASP D  -1     -18.199 -13.331 -22.940  1.00 48.71 LIG-0.65  OA
ENDBRANCH 19 20
ENDBRANCH 14 19
ENDBRANCH 12 14
ENDBRANCH 5 10
ENDBRANCH 1 5
BRANCH 3 23
ATOM     23  CA  ASP D   1     -20.350 -19.373 -20.734  1.00 46.44 LIG 0.19  C 
BRANCH 23 24
ATOM     24  C   ASP D   1     -21.282 -20.570 -20.839  1.00 38.24 LIG 0.24  C 
ATOM     25 O    ASP D   1     -22.370 -20.466 -21.398  1.00 48.73 LIG-0.27  OA
ATOM     26  N   MET D   2     -20.838 -21.716 -20.337  1.00 47.06 LIG-0.35  N 
ATOM     27 H    MET D   2     -20.135 -21.792 -19.848  1.00 47.06 LIG 0.16  HD
BRANCH 26 28
ATOM     28  CA  MET D   2     -21.543 -22.971 -20.596  1.00 48.57 LIG 0.16  C 
BRANCH 28 29
ATOM     29  C   MET D   2     -21.953 -23.684 -19.313  1.00 49.60 LIG 0.22  C 
ATOM     30 O    MET D   2     -22.065 -23.058 -18.258  1.00 49.04 LIG-0.29  OA
ENDBRANCH 28 29
BRANCH 28 31
ATOM     31  CB  MET D   2     -20.671 -23.896 -21.454  1.00 43.71 LIG 0.04  C 
BRANCH 31 32
ATOM     32  CG  MET D   2     -20.498 -23.450 -22.890  1.00 45.96 LIG 0.08  C 
BRANCH 32 33
ATOM     33 SD   MET D   2     -22.087 -23.136 -23.689  1.00 73.43 LIG-0.17  SA
ATOM     34  CE  MET D   2     -21.772 -21.538 -24.441  1.00 57.46 LIG 0.09  C 
ENDBRANCH 32 33
ENDBRANCH 31 32
ENDBRANCH 28 31
ENDBRANCH 26 28
ENDBRANCH 23 24
BRANCH 23 35
ATOM     35  CB  ASP D   1     -21.182 -18.181 -20.229  1.00 44.28 LIG 0.15  C 
BRANCH 35 36
ATOM     36  CG  ASP D   1     -21.658 -17.263 -21.340  1.00 47.95 LIG 0.17  C 
ATOM     37 OD1  ASP D   1     -21.816 -16.044 -21.103  1.00 49.71 LIG-0.65  OA
ATOM     38 OD2  ASP D   1     -21.885 -17.783 -22.460  1.00 42.29 LIG-0.65  OA
ENDBRANCH 35 36
ENDBRANCH 23 35
ENDBRANCH 3 23
TORSDOF 17
ENDMDL
MODEL 78
USER: ADFR SOLUTION from run 76
USER: SCORE 13.056566 LL:  -3.222 LR: -10.330 RR:   0.000 FEB:  -5.259
USER: RMSD 5.315767
USER: SEED 75
USER: STATUS no improvement in best in 16 clusters for 5 generations
USER: GENES 19
USER: genes 0 Translation |==|  0.61681 0.38983 0.38744
USER: genes 1 Rotation |==|  0.19726 0.32440 0.80555 0.68481
USER: genes 2 Torsion [N]-C--CA-[N] |==|  0.93643
USER: genes 3 Torsion [C]-CA--CB-[CG] |==|  0.39881
USER: genes 4 Torsion [CA]-CB--CG-[OD2] |==|  0.99201
USER: genes 5 Torsion [C]-CA--N-[C] |==|  0.84138
USER: genes 6 Torsion [N]-C--CA-[N] |==|  0.18239
USER: genes 7 Torsion [C]-CA--N-[H3] |==|  0.58479
USER: genes 8 Torsion [C]-CA--CB-[CG] |==|  0.58056
USER: genes 9 Torsion [CA]-CB--CG-[OD2] |==|  0.89903
USER: genes 10 Torsion [C]-N--CA-[CB] |==|  0.52778
USER: genes 11 Torsion [N]-CA--C-[N] |==|  0.39571
USER: genes 12 Torsion [C]-N--CA-[C] |==|  0.64251
USER: genes 13 Torsion [N]-CA--C-[O] |==|  0.82304
USER: genes 14 Torsion [N]-CA--CB-[CG] |==|  0.89500
USER: genes 15 Torsion [CA]-CB--CG-[SD] |==|  0.24205
USER: genes 16 Torsion [CB]-CG--SD-[CE] |==|  0.20960
USER: genes 17 Torsion [N]-CA--CB-[CG] |==|  0.06552
USER: genes 18 Torsion [CA]-CB--CG-[OD1] |==|  0.82021
ROOT
ATOM      1  C   ASP D   0     -16.122 -20.078 -25.379  1.00 50.85 LIG 0.24  C 
ATOM      2 O    ASP D   0     -15.177 -20.808 -25.067  1.00 49.73 LIG-0.27  OA
ATOM      3  N   ASP D   1     -16.127 -19.324 -26.485  1.00 47.66 LIG-0.34  N 
ATOM      4 H    ASP D   1     -16.809 -18.869 -26.747  1.00 47.66 LIG 0.16  HD
ENDROOT
BRANCH 1 5
ATOM      5  CA  ASP D   0     -17.354 -19.999 -24.472  1.00 50.32 LIG 0.19  C 
BRANCH 5 6
ATOM      6  CB  ASP D   0     -18.274 -21.191 -24.758  1.00 50.50 LIG 0.15  C 
BRANCH 6 7
ATOM      7  CG  ASP D   0     -18.951 -21.723 -23.514  1.00 42.38 LIG 0.17  C 
ATOM      8 OD2  ASP D   0     -18.666 -21.203 -22.412  1.00 47.85 LIG-0.65  OA
ATOM      9 OD1  ASP D   0     -19.769 -22.656 -23.637  1.00 32.99 LIG-0.65  OA
ENDBRANCH 6 7
ENDBRANCH 5 6
BRANCH 5 10
ATOM     10  N   ASP D   0     -18.106 -18.758 -24.643  1.00 53.06 LIG-0.34  N 
ATOM     11 H    ASP D   0     -18.931 -18.876 -24.859  1.00 53.06 LIG 0.16  HD
ATOM     12  C   ASP D  -1     -17.555 -17.556 -24.478  1.00 52.15 LIG 0.25  C 
ATOM     13 O    ASP D  -1     -16.334 -17.369 -24.403  1.00 47.49 LIG-0.27  OA
BRANCH 12 14
ATOM     14  CA  ASP D  -1     -18.533 -16.387 -24.394  1.00 59.57 LIG 0.28  C 
BRANCH 14 15
ATOM     15  N   ASP D  -1     -19.350 -16.504 -23.188  1.00 50.06 LIG-0.07  N 
ATOM     16 H3   ASP D  -1     -20.150 -16.144 -23.336  1.00 50.06 LIG 0.28  HD
ATOM     17 H2   ASP D  -1     -18.951 -16.077 -22.517  1.00 50.06 LIG 0.28  HD
ATOM     18 H1   ASP D  -1     -19.446 -17.363 -22.978  1.00 50.06 LIG 0.28  HD
ENDBRANCH 14 15
BRANCH 14 19
ATOM     19  CB  ASP D  -1     -17.790 -15.050 -24.414  1.00 60.46 LIG 0.15  C 
BRANCH 19 20
ATOM     20  CG  ASP D  -1     -18.529 -13.959 -23.668  1.00 56.39 LIG 0.17  C 
ATOM     21 OD1  ASP D  -1     -17.857 -13.115 -23.033  1.00 65.47 LIG-0.65  OA
ATOM     22 OD2  ASP D  -1     -19.779 -13.937 -23.729  1.00 48.71 LIG-0.65  OA
ENDBRANCH 19 20
ENDBRANCH 14 19
ENDBRANCH 12 14
ENDBRANCH 5 10
ENDBRANCH 1 5
BRANCH 3 23
ATOM     23  CA  ASP D   1     -14.947 -19.205 -27.361  1.00 46.44 LIG 0.19  C 
BRANCH 23 24
ATOM     24  C   ASP D   1     -13.692 -18.886 -26.565  1.00 38.24 LIG 0.24  C 
ATOM     25 O    ASP D   1     -13.748 -18.158 -25.578  1.00 48.73 LIG-0.27  OA
ATOM     26  N   MET D   2     -12.568 -19.464 -26.969  1.00 47.06 LIG-0.35  N 
ATOM     27 H    MET D   2     -12.479 -19.886 -27.713  1.00 47.06 LIG 0.16  HD
BRANCH 26 28
ATOM     28  CA  MET D   2     -11.362 -19.420 -26.142  1.00 48.57 LIG 0.16  C 
BRANCH 28 29
ATOM     29  C   MET D   2     -10.143 -18.930 -26.915  1.00 49.60 LIG 0.22  C 
ATOM     30 O    MET D   2      -9.704 -19.579 -27.866  1.00 49.04 LIG-0.29  OA
ENDBRANCH 28 29
BRANCH 28 31
ATOM     31  CB  MET D   2     -11.084 -20.805 -25.546  1.00 43.71 LIG 0.04  C 
BRANCH 31 32
ATOM     32  CG  MET D   2     -12.318 -21.574 -25.127  1.00 45.96 LIG 0.08  C 
BRANCH 32 33
ATOM     33 SD   MET D   2     -13.009 -22.528 -26.497  1.00 73.43 LIG-0.17  SA
ATOM     34  CE  MET D   2     -11.839 -23.885 -26.581  1.00 57.46 LIG 0.09  C 
ENDBRANCH 32 33
ENDBRANCH 31 32
ENDBRANCH 28 31
ENDBRANCH 26 28
ENDBRANCH 23 24
BRANCH 23 35
ATOM     35  CB  ASP D   1     -15.119 -18.099 -28.418  1.00 44.28 LIG 0.15  C 
BRANCH 35 36
ATOM     36  CG  ASP D   1     -16.123 -17.034 -28.020  1.00 47.95 LIG 0.17  C 
ATOM     37 OD1  ASP D   1     -17.328 -17.346 -27.884  1.00 49.71 LIG-0.65  OA
ATOM     38 OD2  ASP D   1     -15.691 -15.867 -27.854  1.00 42.29 LIG-0.65  OA
ENDBRANCH 35 36
ENDBRANCH 23 35
ENDBRANCH 3 23
TORSDOF 17
ENDMDL
MODEL 79
USER: ADFR SOLUTION from run 141
USER: SCORE 12.507873 LL:  -2.726 LR: -10.299 RR:   0.000 FEB:  -5.227
USER: RMSD 7.965254
USER: SEED 140
USER: STATUS no improvement in best in 13 clusters for 5 generations
USER: GENES 19
USER: genes 0 Translation |==|  0.37624 0.48445 0.63850
USER: genes 1 Rotation |==|  0.71364 0.06720 0.58955 0.59501
USER: genes 2 Torsion [N]-C--CA-[N] |==|  0.42358
USER: genes 3 Torsion [C]-CA--CB-[CG] |==|  0.51400
USER: genes 4 Torsion [CA]-CB--CG-[OD2] |==|  0.20663
USER: genes 5 Torsion [C]-CA--N-[C] |==|  0.82326
USER: genes 6 Torsion [N]-C--CA-[N] |==|  0.44689
USER: genes 7 Torsion [C]-CA--N-[H3] |==|  0.46465
USER: genes 8 Torsion [C]-CA--CB-[CG] |==|  0.78449
USER: genes 9 Torsion [CA]-CB--CG-[OD2] |==|  0.02976
USER: genes 10 Torsion [C]-N--CA-[CB] |==|  0.22778
USER: genes 11 Torsion [N]-CA--C-[N] |==|  0.03793
USER: genes 12 Torsion [C]-N--CA-[C] |==|  0.59991
USER: genes 13 Torsion [N]-CA--C-[O] |==|  0.03516
USER: genes 14 Torsion [N]-CA--CB-[CG] |==|  0.13271
USER: genes 15 Torsion [CA]-CB--CG-[SD] |==|  0.74244
USER: genes 16 Torsion [CB]-CG--SD-[CE] |==|  0.92800
USER: genes 17 Torsion [N]-CA--CB-[CG] |==|  0.77388
USER: genes 18 Torsion [CA]-CB--CG-[OD1] |==|  0.32685
ROOT
ATOM      1  C   ASP D   0     -21.174 -18.446 -20.860  1.00 50.85 LIG 0.24  C 
ATOM      2 O    ASP D   0     -20.607 -17.440 -20.423  1.00 49.73 LIG-0.27  OA
ATOM      3  N   ASP D   1     -22.335 -18.900 -20.372  1.00 47.66 LIG-0.34  N 
ATOM      4 H    ASP D   1     -22.773 -19.556 -20.716  1.00 47.66 LIG 0.16  HD
ENDROOT
BRANCH 1 5
ATOM      5  CA  ASP D   0     -20.536 -19.243 -22.002  1.00 50.32 LIG 0.19  C 
BRANCH 5 6
ATOM      6  CB  ASP D   0     -19.691 -20.381 -21.419  1.00 50.50 LIG 0.15  C 
BRANCH 6 7
ATOM      7  CG  ASP D   0     -18.926 -21.146 -22.476  1.00 42.38 LIG 0.17  C 
ATOM      8 OD2  ASP D   0     -17.921 -20.608 -22.992  1.00 47.85 LIG-0.65  OA
ATOM      9 OD1  ASP D   0     -19.325 -22.286 -22.788  1.00 32.99 LIG-0.65  OA
ENDBRANCH 6 7
ENDBRANCH 5 6
BRANCH 5 10
ATOM     10  N   ASP D   0     -19.700 -18.419 -22.872  1.00 53.06 LIG-0.34  N 
ATOM     11 H    ASP D   0     -18.868 -18.639 -22.869  1.00 53.06 LIG 0.16  HD
ATOM     12  C   ASP D  -1     -20.191 -17.419 -23.602  1.00 52.15 LIG 0.25  C 
ATOM     13 O    ASP D  -1     -21.324 -16.946 -23.440  1.00 47.49 LIG-0.27  OA
BRANCH 12 14
ATOM     14  CA  ASP D  -1     -19.257 -16.861 -24.673  1.00 59.57 LIG 0.28  C 
BRANCH 14 15
ATOM     15  N   ASP D  -1     -20.026 -16.122 -25.671  1.00 50.06 LIG-0.07  N 
ATOM     16 H3   ASP D  -1     -19.472 -15.649 -26.183  1.00 50.06 LIG 0.28  HD
ATOM     17 H2   ASP D  -1     -20.594 -15.572 -25.262  1.00 50.06 LIG 0.28  HD
ATOM     18 H1   ASP D  -1     -20.482 -16.694 -26.178  1.00 50.06 LIG 0.28  HD
ENDBRANCH 14 15
BRANCH 14 19
ATOM     19  CB  ASP D  -1     -18.183 -15.967 -24.051  1.00 60.46 LIG 0.15  C 
BRANCH 19 20
ATOM     20  CG  ASP D  -1     -18.703 -14.593 -23.688  1.00 56.39 LIG 0.17  C 
ATOM     21 OD1  ASP D  -1     -17.875 -13.708 -23.376  1.00 65.47 LIG-0.65  OA
ATOM     22 OD2  ASP D  -1     -19.939 -14.394 -23.728  1.00 48.71 LIG-0.65  OA
ENDBRANCH 19 20
ENDBRANCH 14 19
ENDBRANCH 12 14
ENDBRANCH 5 10
ENDBRANCH 1 5
BRANCH 3 23
ATOM     23  CA  ASP D   1     -22.974 -18.305 -19.183  1.00 46.44 LIG 0.19  C 
BRANCH 23 24
ATOM     24  C   ASP D   1     -23.926 -19.283 -18.515  1.00 38.24 LIG 0.24  C 
ATOM     25 O    ASP D   1     -24.753 -18.889 -17.698  1.00 48.73 LIG-0.27  OA
ATOM     26  N   MET D   2     -23.837 -20.553 -18.892  1.00 47.06 LIG-0.35  N 
ATOM     27 H    MET D   2     -23.201 -20.872 -19.375  1.00 47.06 LIG 0.16  HD
BRANCH 26 28
ATOM     28  CA  MET D   2     -24.855 -21.526 -18.496  1.00 48.57 LIG 0.16  C 
BRANCH 28 29
ATOM     29  C   MET D   2     -24.266 -22.904 -18.216  1.00 49.60 LIG 0.22  C 
ATOM     30 O    MET D   2     -23.048 -23.052 -18.103  1.00 49.04 LIG-0.29  OA
ENDBRANCH 28 29
BRANCH 28 31
ATOM     31  CB  MET D   2     -25.934 -21.628 -19.581  1.00 43.71 LIG 0.04  C 
BRANCH 31 32
ATOM     32  CG  MET D   2     -25.403 -21.778 -20.990  1.00 45.96 LIG 0.08  C 
BRANCH 32 33
ATOM     33 SD   MET D   2     -25.227 -20.179 -21.812  1.00 73.43 LIG-0.17  SA
ATOM     34  CE  MET D   2     -26.453 -19.213 -20.928  1.00 57.46 LIG 0.09  C 
ENDBRANCH 32 33
ENDBRANCH 31 32
ENDBRANCH 28 31
ENDBRANCH 26 28
ENDBRANCH 23 24
BRANCH 23 35
ATOM     35  CB  ASP D   1     -23.777 -17.038 -19.529  1.00 44.28 LIG 0.15  C 
BRANCH 35 36
ATOM     36  CG  ASP D   1     -22.918 -15.793 -19.647  1.00 47.95 LIG 0.17  C 
ATOM     37 OD1  ASP D   1     -22.857 -15.192 -20.744  1.00 49.71 LIG-0.65  OA
ATOM     38 OD2  ASP D   1     -22.291 -15.426 -18.624  1.00 42.29 LIG-0.65  OA
ENDBRANCH 35 36
ENDBRANCH 23 35
ENDBRANCH 3 23
TORSDOF 17
ENDMDL
MODEL 80
USER: ADFR SOLUTION from run 56
USER: SCORE 12.251787 LL:  -2.449 LR: -10.293 RR:   0.000 FEB:  -5.222
USER: RMSD 5.831499
USER: SEED 55
USER: STATUS no improvement in best in 19 clusters for 5 generations
USER: GENES 19
USER: genes 0 Translation |==|  0.46873 0.49558 0.44935
USER: genes 1 Rotation |==|  0.29250 0.38265 0.17645 0.79747
USER: genes 2 Torsion [N]-C--CA-[N] |==|  0.38126
USER: genes 3 Torsion [C]-CA--CB-[CG] |==|  0.50902
USER: genes 4 Torsion [CA]-CB--CG-[OD2] |==|  0.17752
USER: genes 5 Torsion [C]-CA--N-[C] |==|  0.80818
USER: genes 6 Torsion [N]-C--CA-[N] |==|  0.95609
USER: genes 7 Torsion [C]-CA--N-[H3] |==|  0.78249
USER: genes 8 Torsion [C]-CA--CB-[CG] |==|  0.84693
USER: genes 9 Torsion [CA]-CB--CG-[OD2] |==|  0.33497
USER: genes 10 Torsion [C]-N--CA-[CB] |==|  0.83889
USER: genes 11 Torsion [N]-CA--C-[N] |==|  0.30059
USER: genes 12 Torsion [C]-N--CA-[C] |==|  0.17028
USER: genes 13 Torsion [N]-CA--C-[O] |==|  0.22509
USER: genes 14 Torsion [N]-CA--CB-[CG] |==|  0.67817
USER: genes 15 Torsion [CA]-CB--CG-[SD] |==|  0.37339
USER: genes 16 Torsion [CB]-CG--SD-[CE] |==|  0.02231
USER: genes 17 Torsion [N]-CA--CB-[CG] |==|  0.67160
USER: genes 18 Torsion [CA]-CB--CG-[OD1] |==|  0.08479
ROOT
ATOM      1  C   ASP D   0     -19.232 -18.254 -24.265  1.00 50.85 LIG 0.24  C 
ATOM      2 O    ASP D   0     -19.468 -18.572 -25.434  1.00 49.73 LIG-0.27  OA
ATOM      3  N   ASP D   1     -18.584 -19.053 -23.408  1.00 47.66 LIG-0.34  N 
ATOM      4 H    ASP D   1     -18.352 -18.813 -22.615  1.00 47.66 LIG 0.16  HD
ENDROOT
BRANCH 1 5
ATOM      5  CA  ASP D   0     -19.701 -16.896 -23.736  1.00 50.32 LIG 0.19  C 
BRANCH 5 6
ATOM      6  CB  ASP D   0     -21.199 -16.965 -23.413  1.00 50.50 LIG 0.15  C 
BRANCH 6 7
ATOM      7  CG  ASP D   0     -21.764 -15.638 -22.957  1.00 42.38 LIG 0.17  C 
ATOM      8 OD2  ASP D   0     -21.762 -14.681 -23.762  1.00 47.85 LIG-0.65  OA
ATOM      9 OD1  ASP D   0     -22.213 -15.553 -21.797  1.00 32.99 LIG-0.65  OA
ENDBRANCH 6 7
ENDBRANCH 5 6
BRANCH 5 10
ATOM     10  N   ASP D   0     -19.462 -15.805 -24.679  1.00 53.06 LIG-0.34  N 
ATOM     11 H    ASP D   0     -20.180 -15.475 -25.020  1.00 53.06 LIG 0.16  HD
ATOM     12  C   ASP D  -1     -18.239 -15.369 -24.976  1.00 52.15 LIG 0.25  C 
ATOM     13 O    ASP D  -1     -17.205 -15.980 -24.679  1.00 47.49 LIG-0.27  OA
BRANCH 12 14
ATOM     14  CA  ASP D  -1     -18.176 -14.043 -25.731  1.00 59.57 LIG 0.28  C 
BRANCH 14 15
ATOM     15  N   ASP D  -1     -19.487 -13.724 -26.290  1.00 50.06 LIG-0.07  N 
ATOM     16 H3   ASP D  -1     -19.621 -14.205 -27.027  1.00 50.06 LIG 0.28  HD
ATOM     17 H2   ASP D  -1     -19.521 -12.858 -26.492  1.00 50.06 LIG 0.28  HD
ATOM     18 H1   ASP D  -1     -20.119 -13.915 -25.693  1.00 50.06 LIG 0.28  HD
ENDBRANCH 14 15
BRANCH 14 19
ATOM     19  CB  ASP D  -1     -17.690 -12.916 -24.819  1.00 60.46 LIG 0.15  C 
BRANCH 19 20
ATOM     20  CG  ASP D  -1     -18.525 -12.778 -23.564  1.00 56.39 LIG 0.17  C 
ATOM     21 OD1  ASP D  -1     -19.751 -12.556 -23.688  1.00 65.47 LIG-0.65  OA
ATOM     22 OD2  ASP D  -1     -17.959 -12.907 -22.455  1.00 48.71 LIG-0.65  OA
ENDBRANCH 19 20
ENDBRANCH 14 19
ENDBRANCH 12 14
ENDBRANCH 5 10
ENDBRANCH 1 5
BRANCH 3 23
ATOM     23  CA  ASP D   1     -18.208 -20.437 -23.754  1.00 46.44 LIG 0.19  C 
BRANCH 23 24
ATOM     24  C   ASP D   1     -17.233 -20.474 -24.919  1.00 38.24 LIG 0.24  C 
ATOM     25 O    ASP D   1     -17.603 -20.173 -26.050  1.00 48.73 LIG-0.27  OA
ATOM     26  N   MET D   2     -15.979 -20.804 -24.636  1.00 47.06 LIG-0.35  N 
ATOM     27 H    MET D   2     -15.720 -21.124 -23.881  1.00 47.06 LIG 0.16  HD
BRANCH 26 28
ATOM     28  CA  MET D   2     -14.918 -20.639 -25.629  1.00 48.57 LIG 0.16  C 
BRANCH 28 29
ATOM     29  C   MET D   2     -14.738 -19.186 -26.054  1.00 49.60 LIG 0.22  C 
ATOM     30 O    MET D   2     -14.087 -18.407 -25.355  1.00 49.04 LIG-0.29  OA
ENDBRANCH 28 29
BRANCH 28 31
ATOM     31  CB  MET D   2     -15.208 -21.512 -26.857  1.00 43.71 LIG 0.04  C 
BRANCH 31 32
ATOM     32  CG  MET D   2     -14.197 -22.609 -27.106  1.00 45.96 LIG 0.08  C 
BRANCH 32 33
ATOM     33 SD   MET D   2     -14.997 -24.185 -27.479  1.00 73.43 LIG-0.17  SA
ATOM     34  CE  MET D   2     -16.708 -23.664 -27.621  1.00 57.46 LIG 0.09  C 
ENDBRANCH 32 33
ENDBRANCH 31 32
ENDBRANCH 28 31
ENDBRANCH 26 28
ENDBRANCH 23 24
BRANCH 23 35
ATOM     35  CB  ASP D   1     -19.429 -21.289 -24.142  1.00 44.28 LIG 0.15  C 
BRANCH 35 36
ATOM     36  CG  ASP D   1     -19.656 -22.474 -23.221  1.00 47.95 LIG 0.17  C 
ATOM     37 OD1  ASP D   1     -19.318 -22.390 -22.018  1.00 49.71 LIG-0.65  OA
ATOM     38 OD2  ASP D   1     -20.170 -23.504 -23.722  1.00 42.29 LIG-0.65  OA
ENDBRANCH 35 36
ENDBRANCH 23 35
ENDBRANCH 3 23
TORSDOF 17
ENDMDL
MODEL 81
USER: ADFR SOLUTION from run 167
USER: SCORE 11.993954 LL:  -2.648 LR: -10.266 RR:   0.000 FEB:  -5.195
USER: RMSD 7.936335
USER: SEED 166
USER: STATUS no improvement in best in 4 clusters for 5 generations
USER: GENES 19
USER: genes 0 Translation |==|  0.39965 0.36009 0.64195
USER: genes 1 Rotation |==|  0.47944 0.13184 0.69422 0.77624
USER: genes 2 Torsion [N]-C--CA-[N] |==|  0.02128
USER: genes 3 Torsion [C]-CA--CB-[CG] |==|  0.18157
USER: genes 4 Torsion [CA]-CB--CG-[OD2] |==|  0.04811
USER: genes 5 Torsion [C]-CA--N-[C] |==|  0.67014
USER: genes 6 Torsion [N]-C--CA-[N] |==|  0.55049
USER: genes 7 Torsion [C]-CA--N-[H3] |==|  0.36182
USER: genes 8 Torsion [C]-CA--CB-[CG] |==|  0.76586
USER: genes 9 Torsion [CA]-CB--CG-[OD2] |==|  0.85986
USER: genes 10 Torsion [C]-N--CA-[CB] |==|  0.19085
USER: genes 11 Torsion [N]-CA--C-[N] |==|  0.89985
USER: genes 12 Torsion [C]-N--CA-[C] |==|  0.20202
USER: genes 13 Torsion [N]-CA--C-[O] |==|  0.81736
USER: genes 14 Torsion [N]-CA--CB-[CG] |==|  0.79472
USER: genes 15 Torsion [CA]-CB--CG-[SD] |==|  0.64960
USER: genes 16 Torsion [CB]-CG--SD-[CE] |==|  0.85730
USER: genes 17 Torsion [N]-CA--CB-[CG] |==|  0.24444
USER: genes 18 Torsion [CA]-CB--CG-[OD1] |==|  0.29121
ROOT
ATOM      1  C   ASP D   0     -20.682 -20.591 -20.798  1.00 50.85 LIG 0.24  C 
ATOM      2 O    ASP D   0     -19.594 -20.438 -21.359  1.00 49.73 LIG-0.27  OA
ATOM      3  N   ASP D   1     -21.364 -19.584 -20.240  1.00 47.66 LIG-0.34  N 
ATOM      4 H    ASP D   1     -22.155 -19.668 -19.911  1.00 47.66 LIG 0.16  HD
ENDROOT
BRANCH 1 5
ATOM      5  CA  ASP D   0     -21.300 -21.990 -20.705  1.00 50.32 LIG 0.19  C 
BRANCH 5 6
ATOM      6  CB  ASP D   0     -21.323 -22.630 -22.098  1.00 50.50 LIG 0.15  C 
BRANCH 6 7
ATOM      7  CG  ASP D   0     -19.939 -22.891 -22.648  1.00 42.38 LIG 0.17  C 
ATOM      8 OD2  ASP D   0     -18.973 -22.893 -21.853  1.00 47.85 LIG-0.65  OA
ATOM      9 OD1  ASP D   0     -19.816 -23.100 -23.871  1.00 32.99 LIG-0.65  OA
ENDBRANCH 6 7
ENDBRANCH 5 6
BRANCH 5 10
ATOM     10  N   ASP D   0     -22.656 -21.977 -20.160  1.00 53.06 LIG-0.34  N 
ATOM     11 H    ASP D   0     -23.218 -21.527 -20.630  1.00 53.06 LIG 0.16  HD
ATOM     12  C   ASP D  -1     -22.982 -22.609 -19.033  1.00 52.15 LIG 0.25  C 
ATOM     13 O    ASP D  -1     -22.148 -23.054 -18.233  1.00 47.49 LIG-0.27  OA
BRANCH 12 14
ATOM     14  CA  ASP D  -1     -24.478 -22.752 -18.764  1.00 59.57 LIG 0.28  C 
BRANCH 14 15
ATOM     15  N   ASP D  -1     -24.705 -23.053 -17.353  1.00 50.06 LIG-0.07  N 
ATOM     16 H3   ASP D  -1     -25.323 -22.501 -17.028  1.00 50.06 LIG 0.28  HD
ATOM     17 H2   ASP D  -1     -23.946 -22.948 -16.901  1.00 50.06 LIG 0.28  HD
ATOM     18 H1   ASP D  -1     -24.986 -23.894 -17.271  1.00 50.06 LIG 0.28  HD
ENDBRANCH 14 15
BRANCH 14 19
ATOM     19  CB  ASP D  -1     -25.231 -21.485 -19.173  1.00 60.46 LIG 0.15  C 
BRANCH 19 20
ATOM     20  CG  ASP D  -1     -25.220 -20.423 -18.093  1.00 56.39 LIG 0.17  C 
ATOM     21 OD1  ASP D  -1     -24.888 -19.259 -18.410  1.00 65.47 LIG-0.65  OA
ATOM     22 OD2  ASP D  -1     -25.555 -20.751 -16.933  1.00 48.71 LIG-0.65  OA
ENDBRANCH 19 20
ENDBRANCH 14 19
ENDBRANCH 12 14
ENDBRANCH 5 10
ENDBRANCH 1 5
BRANCH 3 23
ATOM     23  CA  ASP D   1     -20.810 -18.221 -20.138  1.00 46.44 LIG 0.19  C 
BRANCH 23 24
ATOM     24  C   ASP D   1     -21.681 -17.330 -19.268  1.00 38.24 LIG 0.24  C 
ATOM     25 O    ASP D   1     -21.175 -16.458 -18.566  1.00 48.73 LIG-0.27  OA
ATOM     26  N   MET D   2     -22.993 -17.520 -19.344  1.00 47.06 LIG-0.35  N 
ATOM     27 H    MET D   2     -23.363 -18.189 -19.738  1.00 47.06 LIG 0.16  HD
BRANCH 26 28
ATOM     28  CA  MET D   2     -23.925 -16.570 -18.739  1.00 48.57 LIG 0.16  C 
BRANCH 28 29
ATOM     29  C   MET D   2     -24.009 -15.261 -19.517  1.00 49.60 LIG 0.22  C 
ATOM     30 O    MET D   2     -23.034 -14.512 -19.587  1.00 49.04 LIG-0.29  OA
ENDBRANCH 28 29
BRANCH 28 31
ATOM     31  CB  MET D   2     -23.521 -16.291 -17.286  1.00 43.71 LIG 0.04  C 
BRANCH 31 32
ATOM     32  CG  MET D   2     -23.819 -17.416 -16.319  1.00 45.96 LIG 0.08  C 
BRANCH 32 33
ATOM     33 SD   MET D   2     -24.797 -16.848 -14.912  1.00 73.43 LIG-0.17  SA
ATOM     34  CE  MET D   2     -23.825 -15.438 -14.378  1.00 57.46 LIG 0.09  C 
ENDBRANCH 32 33
ENDBRANCH 31 32
ENDBRANCH 28 31
ENDBRANCH 26 28
ENDBRANCH 23 24
BRANCH 23 35
ATOM     35  CB  ASP D   1     -20.681 -17.543 -21.514  1.00 44.28 LIG 0.15  C 
BRANCH 35 36
ATOM     36  CG  ASP D   1     -21.935 -16.804 -21.942  1.00 47.95 LIG 0.17  C 
ATOM     37 OD1  ASP D   1     -21.959 -15.553 -21.888  1.00 49.71 LIG-0.65  OA
ATOM     38 OD2  ASP D   1     -22.910 -17.496 -22.327  1.00 42.29 LIG-0.65  OA
ENDBRANCH 35 36
ENDBRANCH 23 35
ENDBRANCH 3 23
TORSDOF 17
ENDMDL
MODEL 82
USER: ADFR SOLUTION from run 102
USER: SCORE 12.203657 LL:  -2.633 LR: -10.258 RR:   0.000 FEB:  -5.187
USER: RMSD 3.476406
USER: SEED 101
USER: STATUS no improvement in best in 10 clusters for 5 generations
USER: GENES 19
USER: genes 0 Translation |==|  0.44091 0.48395 0.48420
USER: genes 1 Rotation |==|  0.46958 0.38849 0.65905 0.95972
USER: genes 2 Torsion [N]-C--CA-[N] |==|  0.17279
USER: genes 3 Torsion [C]-CA--CB-[CG] |==|  0.27982
USER: genes 4 Torsion [CA]-CB--CG-[OD2] |==|  0.04138
USER: genes 5 Torsion [C]-CA--N-[C] |==|  0.71703
USER: genes 6 Torsion [N]-C--CA-[N] |==|  0.49816
USER: genes 7 Torsion [C]-CA--N-[H3] |==|  0.94258
USER: genes 8 Torsion [C]-CA--CB-[CG] |==|  0.80776
USER: genes 9 Torsion [CA]-CB--CG-[OD2] |==|  0.34732
USER: genes 10 Torsion [C]-N--CA-[CB] |==|  0.54167
USER: genes 11 Torsion [N]-CA--C-[N] |==|  0.43845
USER: genes 12 Torsion [C]-N--CA-[C] |==|  0.62403
USER: genes 13 Torsion [N]-CA--C-[O] |==|  0.99803
USER: genes 14 Torsion [N]-CA--CB-[CG] |==|  0.07919
USER: genes 15 Torsion [CA]-CB--CG-[SD] |==|  0.69710
USER: genes 16 Torsion [CB]-CG--SD-[CE] |==|  0.34764
USER: genes 17 Torsion [N]-CA--CB-[CG] |==|  0.74885
USER: genes 18 Torsion [CA]-CB--CG-[OD1] |==|  0.49810
ROOT
ATOM      1  C   ASP D   0     -19.816 -18.455 -23.637  1.00 50.85 LIG 0.24  C 
ATOM      2 O    ASP D   0     -19.965 -18.865 -24.792  1.00 49.73 LIG-0.27  OA
ATOM      3  N   ASP D   1     -19.320 -17.245 -23.351  1.00 47.66 LIG-0.34  N 
ATOM      4 H    ASP D   1     -19.280 -16.923 -22.554  1.00 47.66 LIG 0.16  HD
ENDROOT
BRANCH 1 5
ATOM      5  CA  ASP D   0     -20.192 -19.354 -22.456  1.00 50.32 LIG 0.19  C 
BRANCH 5 6
ATOM      6  CB  ASP D   0     -20.641 -20.723 -22.980  1.00 50.50 LIG 0.15  C 
BRANCH 6 7
ATOM      7  CG  ASP D   0     -19.563 -21.778 -22.870  1.00 42.38 LIG 0.17  C 
ATOM      8 OD2  ASP D   0     -18.574 -21.545 -22.141  1.00 47.85 LIG-0.65  OA
ATOM      9 OD1  ASP D   0     -19.706 -22.840 -23.507  1.00 32.99 LIG-0.65  OA
ENDBRANCH 6 7
ENDBRANCH 5 6
BRANCH 5 10
ATOM     10  N   ASP D   0     -21.251 -18.786 -21.624  1.00 53.06 LIG-0.34  N 
ATOM     11 H    ASP D   0     -22.040 -18.871 -21.956  1.00 53.06 LIG 0.16  HD
ATOM     12  C   ASP D  -1     -21.005 -18.193 -20.457  1.00 52.15 LIG 0.25  C 
ATOM     13 O    ASP D  -1     -19.873 -17.858 -20.085  1.00 47.49 LIG-0.27  OA
BRANCH 12 14
ATOM     14  CA  ASP D  -1     -22.227 -17.929 -19.580  1.00 59.57 LIG 0.28  C 
BRANCH 14 15
ATOM     15  N   ASP D  -1     -21.817 -17.292 -18.331  1.00 50.06 LIG-0.07  N 
ATOM     16 H3   ASP D  -1     -20.953 -17.449 -18.187  1.00 50.06 LIG 0.28  HD
ATOM     17 H2   ASP D  -1     -22.295 -17.625 -17.657  1.00 50.06 LIG 0.28  HD
ATOM     18 H1   ASP D  -1     -21.953 -16.415 -18.386  1.00 50.06 LIG 0.28  HD
ENDBRANCH 14 15
BRANCH 14 19
ATOM     19  CB  ASP D  -1     -23.251 -17.063 -20.315  1.00 60.46 LIG 0.15  C 
BRANCH 19 20
ATOM     20  CG  ASP D  -1     -22.775 -15.641 -20.521  1.00 56.39 LIG 0.17  C 
ATOM     21 OD1  ASP D  -1     -22.399 -14.990 -19.520  1.00 65.47 LIG-0.65  OA
ATOM     22 OD2  ASP D  -1     -22.764 -15.179 -21.684  1.00 48.71 LIG-0.65  OA
ENDBRANCH 19 20
ENDBRANCH 14 19
ENDBRANCH 12 14
ENDBRANCH 5 10
ENDBRANCH 1 5
BRANCH 3 23
ATOM     23  CA  ASP D   1     -18.791 -16.345 -24.393  1.00 46.44 LIG 0.19  C 
BRANCH 23 24
ATOM     24  C   ASP D   1     -17.907 -17.093 -25.378  1.00 38.24 LIG 0.24  C 
ATOM     25 O    ASP D   1     -17.409 -18.173 -25.072  1.00 48.73 LIG-0.27  OA
ATOM     26  N   MET D   2     -17.745 -16.539 -26.573  1.00 47.06 LIG-0.35  N 
ATOM     27 H    MET D   2     -17.989 -15.740 -26.774  1.00 47.06 LIG 0.16  HD
BRANCH 26 28
ATOM     28  CA  MET D   2     -17.119 -17.283 -27.666  1.00 48.57 LIG 0.16  C 
BRANCH 28 29
ATOM     29  C   MET D   2     -16.097 -16.448 -28.428  1.00 49.60 LIG 0.22  C 
ATOM     30 O    MET D   2     -15.884 -15.277 -28.110  1.00 49.04 LIG-0.29  OA
ENDBRANCH 28 29
BRANCH 28 31
ATOM     31  CB  MET D   2     -18.194 -17.804 -28.629  1.00 43.71 LIG 0.04  C 
BRANCH 31 32
ATOM     32  CG  MET D   2     -19.449 -16.961 -28.692  1.00 45.96 LIG 0.08  C 
BRANCH 32 33
ATOM     33 SD   MET D   2     -20.852 -17.793 -27.915  1.00 73.43 LIG-0.17  SA
ATOM     34  CE  MET D   2     -21.361 -16.548 -26.728  1.00 57.46 LIG 0.09  C 
ENDBRANCH 32 33
ENDBRANCH 31 32
ENDBRANCH 28 31
ENDBRANCH 26 28
ENDBRANCH 23 24
BRANCH 23 35
ATOM     35  CB  ASP D   1     -17.956 -15.197 -23.799  1.00 44.28 LIG 0.15  C 
BRANCH 35 36
ATOM     36  CG  ASP D   1     -18.773 -13.959 -23.480  1.00 47.95 LIG 0.17  C 
ATOM     37 OD1  ASP D   1     -18.206 -12.961 -22.979  1.00 49.71 LIG-0.65  OA
ATOM     38 OD2  ASP D   1     -20.003 -14.000 -23.728  1.00 42.29 LIG-0.65  OA
ENDBRANCH 35 36
ENDBRANCH 23 35
ENDBRANCH 3 23
TORSDOF 17
ENDMDL
MODEL 83
USER: ADFR SOLUTION from run 107
USER: SCORE 11.865003 LL:  -2.822 LR: -10.252 RR:   0.000 FEB:  -5.181
USER: RMSD 8.169695
USER: SEED 106
USER: STATUS searching
USER: GENES 19
USER: genes 0 Translation |==|  0.40301 0.44921 0.56828
USER: genes 1 Rotation |==|  0.85929 0.68596 0.73830 0.67187
USER: genes 2 Torsion [N]-C--CA-[N] |==|  0.86563
USER: genes 3 Torsion [C]-CA--CB-[CG] |==|  0.16859
USER: genes 4 Torsion [CA]-CB--CG-[OD2] |==|  0.20065
USER: genes 5 Torsion [C]-CA--N-[C] |==|  0.72760
USER: genes 6 Torsion [N]-C--CA-[N] |==|  0.56479
USER: genes 7 Torsion [C]-CA--N-[H3] |==|  0.22615
USER: genes 8 Torsion [C]-CA--CB-[CG] |==|  0.74091
USER: genes 9 Torsion [CA]-CB--CG-[OD2] |==|  0.05683
USER: genes 10 Torsion [C]-N--CA-[CB] |==|  0.46672
USER: genes 11 Torsion [N]-CA--C-[N] |==|  0.42858
USER: genes 12 Torsion [C]-N--CA-[C] |==|  0.79962
USER: genes 13 Torsion [N]-CA--C-[O] |==|  0.17918
USER: genes 14 Torsion [N]-CA--CB-[CG] |==|  0.19434
USER: genes 15 Torsion [CA]-CB--CG-[SD] |==|  0.76362
USER: genes 16 Torsion [CB]-CG--SD-[CE] |==|  0.43010
USER: genes 17 Torsion [N]-CA--CB-[CG] |==|  0.45452
USER: genes 18 Torsion [CA]-CB--CG-[OD1] |==|  0.24971
ROOT
ATOM      1  C   ASP D   0     -20.612 -19.054 -22.124  1.00 50.85 LIG 0.24  C 
ATOM      2 O    ASP D   0     -21.708 -19.623 -22.122  1.00 49.73 LIG-0.27  OA
ATOM      3  N   ASP D   1     -20.168 -18.321 -21.096  1.00 47.66 LIG-0.34  N 
ATOM      4 H    ASP D   1     -19.378 -17.982 -21.058  1.00 47.66 LIG 0.16  HD
ENDROOT
BRANCH 1 5
ATOM      5  CA  ASP D   0     -19.701 -19.161 -23.351  1.00 50.32 LIG 0.19  C 
BRANCH 5 6
ATOM      6  CB  ASP D   0     -18.519 -20.083 -23.029  1.00 50.50 LIG 0.15  C 
BRANCH 6 7
ATOM      7  CG  ASP D   0     -18.950 -21.487 -22.667  1.00 42.38 LIG 0.17  C 
ATOM      8 OD2  ASP D   0     -19.383 -22.230 -23.576  1.00 47.85 LIG-0.65  OA
ATOM      9 OD1  ASP D   0     -18.852 -21.849 -21.478  1.00 32.99 LIG-0.65  OA
ENDBRANCH 6 7
ENDBRANCH 5 6
BRANCH 5 10
ATOM     10  N   ASP D   0     -19.194 -17.865 -23.796  1.00 53.06 LIG-0.34  N 
ATOM     11 H    ASP D   0     -18.509 -17.588 -23.356  1.00 53.06 LIG 0.16  HD
ATOM     12  C   ASP D  -1     -19.749 -17.182 -24.797  1.00 52.15 LIG 0.25  C 
ATOM     13 O    ASP D  -1     -20.858 -17.452 -25.275  1.00 47.49 LIG-0.27  OA
BRANCH 12 14
ATOM     14  CA  ASP D  -1     -18.929 -16.011 -25.332  1.00 59.57 LIG 0.28  C 
BRANCH 14 15
ATOM     15  N   ASP D  -1     -19.808 -15.044 -25.986  1.00 50.06 LIG-0.07  N 
ATOM     16 H3   ASP D  -1     -20.184 -14.522 -25.372  1.00 50.06 LIG 0.28  HD
ATOM     17 H2   ASP D  -1     -20.442 -15.477 -26.437  1.00 50.06 LIG 0.28  HD
ATOM     18 H1   ASP D  -1     -19.332 -14.545 -26.550  1.00 50.06 LIG 0.28  HD
ENDBRANCH 14 15
BRANCH 14 19
ATOM     19  CB  ASP D  -1     -18.133 -15.342 -24.210  1.00 60.46 LIG 0.15  C 
BRANCH 19 20
ATOM     20  CG  ASP D  -1     -18.867 -14.174 -23.588  1.00 56.39 LIG 0.17  C 
ATOM     21 OD1  ASP D  -1     -18.200 -13.315 -22.968  1.00 65.47 LIG-0.65  OA
ATOM     22 OD2  ASP D  -1     -20.109 -14.107 -23.729  1.00 48.71 LIG-0.65  OA
ENDBRANCH 19 20
ENDBRANCH 14 19
ENDBRANCH 12 14
ENDBRANCH 5 10
ENDBRANCH 1 5
BRANCH 3 23
ATOM     23  CA  ASP D   1     -21.008 -18.026 -19.920  1.00 46.44 LIG 0.19  C 
BRANCH 23 24
ATOM     24  C   ASP D   1     -22.114 -17.040 -20.260  1.00 38.24 LIG 0.24  C 
ATOM     25 O    ASP D   1     -21.995 -16.273 -21.211  1.00 48.73 LIG-0.27  OA
ATOM     26  N   MET D   2     -23.207 -17.087 -19.507  1.00 47.06 LIG-0.35  N 
ATOM     27 H    MET D   2     -23.272 -17.532 -18.774  1.00 47.06 LIG 0.16  HD
BRANCH 26 28
ATOM     28  CA  MET D   2     -24.414 -16.357 -19.891  1.00 48.57 LIG 0.16  C 
BRANCH 28 29
ATOM     29  C   MET D   2     -24.268 -14.851 -19.710  1.00 49.60 LIG 0.22  C 
ATOM     30 O    MET D   2     -23.450 -14.218 -20.379  1.00 49.04 LIG-0.29  OA
ENDBRANCH 28 29
BRANCH 28 31
ATOM     31  CB  MET D   2     -25.614 -16.869 -19.084  1.00 43.71 LIG 0.04  C 
BRANCH 31 32
ATOM     32  CG  MET D   2     -25.589 -16.508 -17.615  1.00 45.96 LIG 0.08  C 
BRANCH 32 33
ATOM     33 SD   MET D   2     -24.627 -17.694 -16.650  1.00 73.43 LIG-0.17  SA
ATOM     34  CE  MET D   2     -24.143 -16.675 -15.256  1.00 57.46 LIG 0.09  C 
ENDBRANCH 32 33
ENDBRANCH 31 32
ENDBRANCH 28 31
ENDBRANCH 26 28
ENDBRANCH 23 24
BRANCH 23 35
ATOM     35  CB  ASP D   1     -20.193 -17.428 -18.760  1.00 44.28 LIG 0.15  C 
BRANCH 35 36
ATOM     36  CG  ASP D   1     -21.050 -16.755 -17.704  1.00 47.95 LIG 0.17  C 
ATOM     37 OD1  ASP D   1     -21.474 -17.429 -16.737  1.00 49.71 LIG-0.65  OA
ATOM     38 OD2  ASP D   1     -21.306 -15.536 -17.860  1.00 42.29 LIG-0.65  OA
ENDBRANCH 35 36
ENDBRANCH 23 35
ENDBRANCH 3 23
TORSDOF 17
ENDMDL
MODEL 84
USER: ADFR SOLUTION from run 140
USER: SCORE 12.970945 LL:  -3.183 LR: -10.243 RR:   0.000 FEB:  -5.172
USER: RMSD 8.110130
USER: SEED 139
USER: STATUS no improvement in best in 8 clusters for 5 generations
USER: GENES 19
USER: genes 0 Translation |==|  0.35301 0.43732 0.64145
USER: genes 1 Rotation |==|  0.14471 0.71453 0.73022 0.65731
USER: genes 2 Torsion [N]-C--CA-[N] |==|  0.96234
USER: genes 3 Torsion [C]-CA--CB-[CG] |==|  0.53760
USER: genes 4 Torsion [CA]-CB--CG-[OD2] |==|  0.17615
USER: genes 5 Torsion [C]-CA--N-[C] |==|  0.82193
USER: genes 6 Torsion [N]-C--CA-[N] |==|  0.97686
USER: genes 7 Torsion [C]-CA--N-[H3] |==|  0.28571
USER: genes 8 Torsion [C]-CA--CB-[CG] |==|  0.75855
USER: genes 9 Torsion [CA]-CB--CG-[OD2] |==|  0.89562
USER: genes 10 Torsion [C]-N--CA-[CB] |==|  0.87354
USER: genes 11 Torsion [N]-CA--C-[N] |==|  0.85000
USER: genes 12 Torsion [C]-N--CA-[C] |==|  0.59103
USER: genes 13 Torsion [N]-CA--C-[O] |==|  0.91970
USER: genes 14 Torsion [N]-CA--CB-[CG] |==|  0.04636
USER: genes 15 Torsion [CA]-CB--CG-[SD] |==|  0.68906
USER: genes 16 Torsion [CB]-CG--SD-[CE] |==|  0.94498
USER: genes 17 Torsion [N]-CA--CB-[CG] |==|  0.74857
USER: genes 18 Torsion [CA]-CB--CG-[OD1] |==|  0.80629
ROOT
ATOM      1  C   ASP D   0     -21.662 -19.259 -20.807  1.00 50.85 LIG 0.24  C 
ATOM      2 O    ASP D   0     -21.506 -19.833 -19.725  1.00 49.73 LIG-0.27  OA
ATOM      3  N   ASP D   1     -21.959 -19.907 -21.940  1.00 47.66 LIG-0.34  N 
ATOM      4 H    ASP D   1     -22.140 -19.511 -22.682  1.00 47.66 LIG 0.16  HD
ENDROOT
BRANCH 1 5
ATOM      5  CA  ASP D   0     -21.500 -17.738 -20.892  1.00 50.32 LIG 0.19  C 
BRANCH 5 6
ATOM      6  CB  ASP D   0     -22.697 -17.060 -20.216  1.00 50.50 LIG 0.15  C 
BRANCH 6 7
ATOM      7  CG  ASP D   0     -22.791 -15.584 -20.531  1.00 42.38 LIG 0.17  C 
ATOM      8 OD2  ASP D   0     -22.983 -15.239 -21.718  1.00 47.85 LIG-0.65  OA
ATOM      9 OD1  ASP D   0     -22.679 -14.769 -19.594  1.00 32.99 LIG-0.65  OA
ENDBRANCH 6 7
ENDBRANCH 5 6
BRANCH 5 10
ATOM     10  N   ASP D   0     -21.388 -17.255 -22.267  1.00 53.06 LIG-0.34  N 
ATOM     11 H    ASP D   0     -22.035 -16.745 -22.512  1.00 53.06 LIG 0.16  HD
ATOM     12  C   ASP D  -1     -20.369 -17.583 -23.061  1.00 52.15 LIG 0.25  C 
ATOM     13 O    ASP D  -1     -19.568 -18.491 -22.806  1.00 47.49 LIG-0.27  OA
BRANCH 12 14
ATOM     14  CA  ASP D  -1     -20.243 -16.764 -24.344  1.00 59.57 LIG 0.28  C 
BRANCH 14 15
ATOM     15  N   ASP D  -1     -21.415 -15.908 -24.508  1.00 50.06 LIG-0.07  N 
ATOM     16 H3   ASP D  -1     -21.206 -15.073 -24.284  1.00 50.06 LIG 0.28  HD
ATOM     17 H2   ASP D  -1     -22.072 -16.201 -23.983  1.00 50.06 LIG 0.28  HD
ATOM     18 H1   ASP D  -1     -21.681 -15.930 -25.357  1.00 50.06 LIG 0.28  HD
ENDBRANCH 14 15
BRANCH 14 19
ATOM     19  CB  ASP D  -1     -18.962 -15.928 -24.336  1.00 60.46 LIG 0.15  C 
BRANCH 19 20
ATOM     20  CG  ASP D  -1     -19.144 -14.585 -23.663  1.00 56.39 LIG 0.17  C 
ATOM     21 OD1  ASP D  -1     -18.200 -14.131 -22.978  1.00 65.47 LIG-0.65  OA
ATOM     22 OD2  ASP D  -1     -20.226 -13.977 -23.830  1.00 48.71 LIG-0.65  OA
ENDBRANCH 19 20
ENDBRANCH 14 19
ENDBRANCH 12 14
ENDBRANCH 5 10
ENDBRANCH 1 5
BRANCH 3 23
ATOM     23  CA  ASP D   1     -22.000 -21.379 -22.016  1.00 46.44 LIG 0.19  C 
BRANCH 23 24
ATOM     24  C   ASP D   1     -23.253 -21.935 -21.358  1.00 38.24 LIG 0.24  C 
ATOM     25 O    ASP D   1     -23.979 -22.719 -21.963  1.00 48.73 LIG-0.27  OA
ATOM     26  N   MET D   2     -23.483 -21.562 -20.105  1.00 47.06 LIG-0.35  N 
ATOM     27 H    MET D   2     -23.057 -20.936 -19.699  1.00 47.06 LIG 0.16  HD
BRANCH 26 28
ATOM     28  CA  MET D   2     -24.516 -22.219 -19.305  1.00 48.57 LIG 0.16  C 
BRANCH 28 29
ATOM     29  C   MET D   2     -25.181 -21.268 -18.317  1.00 49.60 LIG 0.22  C 
ATOM     30 O    MET D   2     -24.559 -20.308 -17.859  1.00 49.04 LIG-0.29  OA
ENDBRANCH 28 29
BRANCH 28 31
ATOM     31  CB  MET D   2     -23.918 -23.418 -18.558  1.00 43.71 LIG 0.04  C 
BRANCH 31 32
ATOM     32  CG  MET D   2     -22.407 -23.424 -18.478  1.00 45.96 LIG 0.08  C 
BRANCH 32 33
ATOM     33 SD   MET D   2     -21.690 -24.762 -19.456  1.00 73.43 LIG-0.17  SA
ATOM     34  CE  MET D   2     -23.104 -25.853 -19.615  1.00 57.46 LIG 0.09  C 
ENDBRANCH 32 33
ENDBRANCH 31 32
ENDBRANCH 28 31
ENDBRANCH 26 28
ENDBRANCH 23 24
BRANCH 23 35
ATOM     35  CB  ASP D   1     -20.787 -22.030 -21.329  1.00 44.28 LIG 0.15  C 
BRANCH 35 36
ATOM     36  CG  ASP D   1     -19.613 -22.254 -22.264  1.00 47.95 LIG 0.17  C 
ATOM     37 OD1  ASP D   1     -19.700 -23.122 -23.162  1.00 49.71 LIG-0.65  OA
ATOM     38 OD2  ASP D   1     -18.587 -21.553 -22.081  1.00 42.29 LIG-0.65  OA
ENDBRANCH 35 36
ENDBRANCH 23 35
ENDBRANCH 3 23
TORSDOF 17
ENDMDL
MODEL 85
USER: ADFR SOLUTION from run 100
USER: SCORE 11.265524 LL:  -1.932 LR: -10.235 RR:   0.000 FEB:  -5.164
USER: RMSD 8.422603
USER: SEED 99
USER: STATUS no improvement in best in 11 clusters for 5 generations
USER: GENES 19
USER: genes 0 Translation |==|  0.58154 0.50940 0.40662
USER: genes 1 Rotation |==|  0.70585 0.87542 0.63749 0.71859
USER: genes 2 Torsion [N]-C--CA-[N] |==|  0.23994
USER: genes 3 Torsion [C]-CA--CB-[CG] |==|  0.70736
USER: genes 4 Torsion [CA]-CB--CG-[OD2] |==|  0.17377
USER: genes 5 Torsion [C]-CA--N-[C] |==|  0.65790
USER: genes 6 Torsion [N]-C--CA-[N] |==|  0.67342
USER: genes 7 Torsion [C]-CA--N-[H3] |==|  0.16129
USER: genes 8 Torsion [C]-CA--CB-[CG] |==|  0.31432
USER: genes 9 Torsion [CA]-CB--CG-[OD2] |==|  0.52824
USER: genes 10 Torsion [C]-N--CA-[CB] |==|  0.54732
USER: genes 11 Torsion [N]-CA--C-[N] |==|  0.34705
USER: genes 12 Torsion [C]-N--CA-[C] |==|  0.66471
USER: genes 13 Torsion [N]-CA--C-[O] |==|  0.01399
USER: genes 14 Torsion [N]-CA--CB-[CG] |==|  0.28712
USER: genes 15 Torsion [CA]-CB--CG-[SD] |==|  0.82553
USER: genes 16 Torsion [CB]-CG--SD-[CE] |==|  0.40415
USER: genes 17 Torsion [N]-CA--CB-[CG] |==|  0.53532
USER: genes 18 Torsion [CA]-CB--CG-[OD1] |==|  0.25693
ROOT
ATOM      1  C   ASP D   0     -16.863 -18.016 -25.034  1.00 50.85 LIG 0.24  C 
ATOM      2 O    ASP D   0     -17.465 -18.713 -24.212  1.00 49.73 LIG-0.27  OA
ATOM      3  N   ASP D   1     -16.968 -16.682 -25.076  1.00 47.66 LIG-0.34  N 
ATOM      4 H    ASP D   1     -16.498 -16.183 -25.596  1.00 47.66 LIG 0.16  HD
ENDROOT
BRANCH 1 5
ATOM      5  CA  ASP D   0     -15.956 -18.679 -26.076  1.00 50.32 LIG 0.19  C 
BRANCH 5 6
ATOM      6  CB  ASP D   0     -16.460 -20.099 -26.358  1.00 50.50 LIG 0.15  C 
BRANCH 6 7
ATOM      7  CG  ASP D   0     -15.595 -21.166 -25.725  1.00 42.38 LIG 0.17  C 
ATOM      8 OD2  ASP D   0     -15.499 -21.194 -24.478  1.00 47.85 LIG-0.65  OA
ATOM      9 OD1  ASP D   0     -15.015 -21.979 -26.472  1.00 32.99 LIG-0.65  OA
ENDBRANCH 6 7
ENDBRANCH 5 6
BRANCH 5 10
ATOM     10  N   ASP D   0     -14.558 -18.739 -25.656  1.00 53.06 LIG-0.34  N 
ATOM     11 H    ASP D   0     -14.434 -19.145 -24.908  1.00 53.06 LIG 0.16  HD
ATOM     12  C   ASP D  -1     -13.570 -18.209 -26.376  1.00 52.15 LIG 0.25  C 
ATOM     13 O    ASP D  -1     -13.754 -17.429 -27.319  1.00 47.49 LIG-0.27  OA
BRANCH 12 14
ATOM     14  CA  ASP D  -1     -12.158 -18.617 -25.961  1.00 59.57 LIG 0.28  C 
BRANCH 14 15
ATOM     15  N   ASP D  -1     -11.407 -17.442 -25.526  1.00 50.06 LIG-0.07  N 
ATOM     16 H3   ASP D  -1     -11.834 -17.050 -24.850  1.00 50.06 LIG 0.28  HD
ATOM     17 H2   ASP D  -1     -11.334 -16.868 -26.203  1.00 50.06 LIG 0.28  HD
ATOM     18 H1   ASP D  -1     -10.595 -17.691 -25.259  1.00 50.06 LIG 0.28  HD
ENDBRANCH 14 15
BRANCH 14 19
ATOM     19  CB  ASP D  -1     -12.196 -19.672 -24.855  1.00 60.46 LIG 0.15  C 
BRANCH 19 20
ATOM     20  CG  ASP D  -1     -11.669 -21.017 -25.310  1.00 56.39 LIG 0.17  C 
ATOM     21 OD1  ASP D  -1     -11.084 -21.081 -26.415  1.00 65.47 LIG-0.65  OA
ATOM     22 OD2  ASP D  -1     -11.829 -22.004 -24.558  1.00 48.71 LIG-0.65  OA
ENDBRANCH 19 20
ENDBRANCH 14 19
ENDBRANCH 12 14
ENDBRANCH 5 10
ENDBRANCH 1 5
BRANCH 3 23
ATOM     23  CA  ASP D   1     -17.915 -15.941 -24.223  1.00 46.44 LIG 0.19  C 
BRANCH 23 24
ATOM     24  C   ASP D   1     -19.265 -16.637 -24.154  1.00 38.24 LIG 0.24  C 
ATOM     25 O    ASP D   1     -19.864 -16.939 -25.182  1.00 48.73 LIG-0.27  OA
ATOM     26  N   MET D   2     -19.725 -16.927 -22.943  1.00 47.06 LIG-0.35  N 
ATOM     27 H    MET D   2     -19.383 -16.632 -22.211  1.00 47.06 LIG 0.16  HD
BRANCH 26 28
ATOM     28  CA  MET D   2     -20.885 -17.801 -22.771  1.00 48.57 LIG 0.16  C 
BRANCH 28 29
ATOM     29  C   MET D   2     -22.029 -17.112 -22.035  1.00 49.60 LIG 0.22  C 
ATOM     30 O    MET D   2     -21.952 -15.919 -21.739  1.00 49.04 LIG-0.29  OA
ENDBRANCH 28 29
BRANCH 28 31
ATOM     31  CB  MET D   2     -20.475 -19.077 -22.025  1.00 43.71 LIG 0.04  C 
BRANCH 31 32
ATOM     32  CG  MET D   2     -20.878 -19.116 -20.567  1.00 45.96 LIG 0.08  C 
BRANCH 32 33
ATOM     33 SD   MET D   2     -20.080 -17.803 -19.617  1.00 73.43 LIG-0.17  SA
ATOM     34  CE  MET D   2     -21.373 -17.414 -18.436  1.00 57.46 LIG 0.09  C 
ENDBRANCH 32 33
ENDBRANCH 31 32
ENDBRANCH 28 31
ENDBRANCH 26 28
ENDBRANCH 23 24
BRANCH 23 35
ATOM     35  CB  ASP D   1     -18.156 -14.509 -24.731  1.00 44.28 LIG 0.15  C 
BRANCH 35 36
ATOM     36  CG  ASP D   1     -18.872 -13.624 -23.728  1.00 47.95 LIG 0.17  C 
ATOM     37 OD1  ASP D   1     -18.200 -12.922 -22.939  1.00 49.71 LIG-0.65  OA
ATOM     38 OD2  ASP D   1     -20.127 -13.649 -23.729  1.00 42.29 LIG-0.65  OA
ENDBRANCH 35 36
ENDBRANCH 23 35
ENDBRANCH 3 23
TORSDOF 17
ENDMDL
MODEL 86
USER: ADFR SOLUTION from run 47
USER: SCORE 12.959674 LL:  -3.185 LR: -10.227 RR:   0.000 FEB:  -5.156
USER: RMSD 6.355853
USER: SEED 46
USER: STATUS no improvement in best in 12 clusters for 5 generations
USER: GENES 19
USER: genes 0 Translation |==|  0.48304 0.53559 0.43027
USER: genes 1 Rotation |==|  0.36012 0.36826 0.13631 0.78427
USER: genes 2 Torsion [N]-C--CA-[N] |==|  0.38673
USER: genes 3 Torsion [C]-CA--CB-[CG] |==|  0.46915
USER: genes 4 Torsion [CA]-CB--CG-[OD2] |==|  0.19035
USER: genes 5 Torsion [C]-CA--N-[C] |==|  0.63807
USER: genes 6 Torsion [N]-C--CA-[N] |==|  0.59049
USER: genes 7 Torsion [C]-CA--N-[H3] |==|  0.35750
USER: genes 8 Torsion [C]-CA--CB-[CG] |==|  0.78297
USER: genes 9 Torsion [CA]-CB--CG-[OD2] |==|  0.80884
USER: genes 10 Torsion [C]-N--CA-[CB] |==|  0.76249
USER: genes 11 Torsion [N]-CA--C-[N] |==|  0.17516
USER: genes 12 Torsion [C]-N--CA-[C] |==|  0.57305
USER: genes 13 Torsion [N]-CA--C-[O] |==|  0.90611
USER: genes 14 Torsion [N]-CA--CB-[CG] |==|  0.64773
USER: genes 15 Torsion [CA]-CB--CG-[SD] |==|  0.26820
USER: genes 16 Torsion [CB]-CG--SD-[CE] |==|  0.21375
USER: genes 17 Torsion [N]-CA--CB-[CG] |==|  0.68176
USER: genes 18 Torsion [CA]-CB--CG-[OD1] |==|  0.58423
ROOT
ATOM      1  C   ASP D   0     -18.931 -17.564 -24.608  1.00 50.85 LIG 0.24  C 
ATOM      2 O    ASP D   0     -18.828 -17.710 -25.830  1.00 49.73 LIG-0.27  OA
ATOM      3  N   ASP D   1     -18.575 -18.507 -23.728  1.00 47.66 LIG-0.34  N 
ATOM      4 H    ASP D   1     -18.575 -18.388 -22.876  1.00 47.66 LIG 0.16  HD
ENDROOT
BRANCH 1 5
ATOM      5  CA  ASP D   0     -19.504 -16.260 -24.043  1.00 50.32 LIG 0.19  C 
BRANCH 5 6
ATOM      6  CB  ASP D   0     -21.034 -16.299 -24.124  1.00 50.50 LIG 0.15  C 
BRANCH 6 7
ATOM      7  CG  ASP D   0     -21.692 -15.179 -23.350  1.00 42.38 LIG 0.17  C 
ATOM      8 OD2  ASP D   0     -21.560 -14.007 -23.770  1.00 47.85 LIG-0.65  OA
ATOM      9 OD1  ASP D   0     -22.344 -15.468 -22.327  1.00 32.99 LIG-0.65  OA
ENDBRANCH 6 7
ENDBRANCH 5 6
BRANCH 5 10
ATOM     10  N   ASP D   0     -19.015 -15.075 -24.744  1.00 53.06 LIG-0.34  N 
ATOM     11 H    ASP D   0     -19.081 -15.123 -25.600  1.00 53.06 LIG 0.16  HD
ATOM     12  C   ASP D  -1     -18.515 -14.019 -24.104  1.00 52.15 LIG 0.25  C 
ATOM     13 O    ASP D  -1     -18.200 -14.031 -22.907  1.00 47.49 LIG-0.27  OA
BRANCH 12 14
ATOM     14  CA  ASP D  -1     -18.335 -12.759 -24.948  1.00 59.57 LIG 0.28  C 
BRANCH 14 15
ATOM     15  N   ASP D  -1     -17.176 -12.005 -24.478  1.00 50.06 LIG-0.07  N 
ATOM     16 H3   ASP D  -1     -16.642 -11.822 -25.166  1.00 50.06 LIG 0.28  HD
ATOM     17 H2   ASP D  -1     -16.730 -12.488 -23.877  1.00 50.06 LIG 0.28  HD
ATOM     18 H1   ASP D  -1     -17.448 -11.245 -24.104  1.00 50.06 LIG 0.28  HD
ENDBRANCH 14 15
BRANCH 14 19
ATOM     19  CB  ASP D  -1     -18.185 -13.110 -26.429  1.00 60.46 LIG 0.15  C 
BRANCH 19 20
ATOM     20  CG  ASP D  -1     -16.799 -13.611 -26.775  1.00 56.39 LIG 0.17  C 
ATOM     21 OD1  ASP D  -1     -16.667 -14.811 -27.105  1.00 65.47 LIG-0.65  OA
ATOM     22 OD2  ASP D  -1     -15.845 -12.802 -26.729  1.00 48.71 LIG-0.65  OA
ENDBRANCH 19 20
ENDBRANCH 14 19
ENDBRANCH 12 14
ENDBRANCH 5 10
ENDBRANCH 1 5
BRANCH 3 23
ATOM     23  CA  ASP D   1     -18.146 -19.854 -24.149  1.00 46.44 LIG 0.19  C 
BRANCH 23 24
ATOM     24  C   ASP D   1     -17.363 -19.807 -25.451  1.00 38.24 LIG 0.24  C 
ATOM     25 O    ASP D   1     -17.808 -20.336 -26.465  1.00 48.73 LIG-0.27  OA
ATOM     26  N   MET D   2     -16.216 -19.138 -25.433  1.00 47.06 LIG-0.35  N 
ATOM     27 H    MET D   2     -15.831 -18.855 -24.719  1.00 47.06 LIG 0.16  HD
BRANCH 26 28
ATOM     28  CA  MET D   2     -15.509 -18.828 -26.675  1.00 48.57 LIG 0.16  C 
BRANCH 28 29
ATOM     29  C   MET D   2     -14.009 -18.661 -26.466  1.00 49.60 LIG 0.22  C 
ATOM     30 O    MET D   2     -13.574 -18.178 -25.419  1.00 49.04 LIG-0.29  OA
ENDBRANCH 28 29
BRANCH 28 31
ATOM     31  CB  MET D   2     -16.095 -17.560 -27.310  1.00 43.71 LIG 0.04  C 
BRANCH 31 32
ATOM     32  CG  MET D   2     -16.518 -17.712 -28.754  1.00 45.96 LIG 0.08  C 
BRANCH 32 33
ATOM     33 SD   MET D   2     -18.286 -18.053 -28.901  1.00 73.43 LIG-0.17  SA
ATOM     34  CE  MET D   2     -18.965 -16.418 -28.617  1.00 57.46 LIG 0.09  C 
ENDBRANCH 32 33
ENDBRANCH 31 32
ENDBRANCH 28 31
ENDBRANCH 26 28
ENDBRANCH 23 24
BRANCH 23 35
ATOM     35  CB  ASP D   1     -19.338 -20.804 -24.358  1.00 44.28 LIG 0.15  C 
BRANCH 35 36
ATOM     36  CG  ASP D   1     -19.370 -21.958 -23.374  1.00 47.95 LIG 0.17  C 
ATOM     37 OD1  ASP D   1     -19.868 -23.052 -23.726  1.00 49.71 LIG-0.65  OA
ATOM     38 OD2  ASP D   1     -18.898 -21.753 -22.229  1.00 42.29 LIG-0.65  OA
ENDBRANCH 35 36
ENDBRANCH 23 35
ENDBRANCH 3 23
TORSDOF 17
ENDMDL
MODEL 87
USER: ADFR SOLUTION from run 139
USER: SCORE 12.159274 LL:  -2.639 LR: -10.224 RR:   0.000 FEB:  -5.152
USER: RMSD 5.768462
USER: SEED 138
USER: STATUS no improvement in best in 24 clusters for 5 generations
USER: GENES 19
USER: genes 0 Translation |==|  0.37349 0.37794 0.63652
USER: genes 1 Rotation |==|  0.38899 0.09268 0.76788 0.50330
USER: genes 2 Torsion [N]-C--CA-[N] |==|  0.85911
USER: genes 3 Torsion [C]-CA--CB-[CG] |==|  0.22286
USER: genes 4 Torsion [CA]-CB--CG-[OD2] |==|  0.38998
USER: genes 5 Torsion [C]-CA--N-[C] |==|  0.64786
USER: genes 6 Torsion [N]-C--CA-[N] |==|  0.50218
USER: genes 7 Torsion [C]-CA--N-[H3] |==|  0.87545
USER: genes 8 Torsion [C]-CA--CB-[CG] |==|  0.81998
USER: genes 9 Torsion [CA]-CB--CG-[OD2] |==|  0.30955
USER: genes 10 Torsion [C]-N--CA-[CB] |==|  0.84874
USER: genes 11 Torsion [N]-CA--C-[N] |==|  0.42293
USER: genes 12 Torsion [C]-N--CA-[C] |==|  0.73187
USER: genes 13 Torsion [N]-CA--C-[O] |==|  0.82503
USER: genes 14 Torsion [N]-CA--CB-[CG] |==|  0.91185
USER: genes 15 Torsion [CA]-CB--CG-[SD] |==|  0.27878
USER: genes 16 Torsion [CB]-CG--SD-[CE] |==|  0.98335
USER: genes 17 Torsion [N]-CA--CB-[CG] |==|  0.54312
USER: genes 18 Torsion [CA]-CB--CG-[OD1] |==|  0.52173
ROOT
ATOM      1  C   ASP D   0     -21.232 -20.284 -20.896  1.00 50.85 LIG 0.24  C 
ATOM      2 O    ASP D   0     -20.270 -19.728 -20.358  1.00 49.73 LIG-0.27  OA
ATOM      3  N   ASP D   1     -22.091 -19.642 -21.697  1.00 47.66 LIG-0.34  N 
ATOM      4 H    ASP D   1     -22.720 -20.035 -22.133  1.00 47.66 LIG 0.16  HD
ENDROOT
BRANCH 1 5
ATOM      5  CA  ASP D   0     -21.490 -21.772 -20.642  1.00 50.32 LIG 0.19  C 
BRANCH 5 6
ATOM      6  CB  ASP D   0     -21.181 -22.567 -21.916  1.00 50.50 LIG 0.15  C 
BRANCH 6 7
ATOM      7  CG  ASP D   0     -19.703 -22.826 -22.104  1.00 42.38 LIG 0.17  C 
ATOM      8 OD2  ASP D   0     -19.345 -23.943 -22.539  1.00 47.85 LIG-0.65  OA
ATOM      9 OD1  ASP D   0     -18.901 -21.915 -21.822  1.00 32.99 LIG-0.65  OA
ENDBRANCH 6 7
ENDBRANCH 5 6
BRANCH 5 10
ATOM     10  N   ASP D   0     -22.863 -22.047 -20.224  1.00 53.06 LIG-0.34  N 
ATOM     11 H    ASP D   0     -23.460 -21.728 -20.754  1.00 53.06 LIG 0.16  HD
ATOM     12  C   ASP D  -1     -23.152 -22.733 -19.119  1.00 52.15 LIG 0.25  C 
ATOM     13 O    ASP D  -1     -22.323 -22.989 -18.236  1.00 47.49 LIG-0.27  OA
BRANCH 12 14
ATOM     14  CA  ASP D  -1     -24.603 -23.191 -18.986  1.00 59.57 LIG 0.28  C 
BRANCH 14 15
ATOM     15  N   ASP D  -1     -24.786 -23.911 -17.728  1.00 50.06 LIG-0.07  N 
ATOM     16 H3   ASP D  -1     -24.113 -24.482 -17.612  1.00 50.06 LIG 0.28  HD
ATOM     17 H2   ASP D  -1     -25.555 -24.359 -17.751  1.00 50.06 LIG 0.28  HD
ATOM     18 H1   ASP D  -1     -24.802 -23.330 -17.054  1.00 50.06 LIG 0.28  HD
ENDBRANCH 14 15
BRANCH 14 19
ATOM     19  CB  ASP D  -1     -25.562 -22.002 -19.071  1.00 60.46 LIG 0.15  C 
BRANCH 19 20
ATOM     20  CG  ASP D  -1     -25.398 -21.034 -17.919  1.00 56.39 LIG 0.17  C 
ATOM     21 OD1  ASP D  -1     -25.727 -21.416 -16.773  1.00 65.47 LIG-0.65  OA
ATOM     22 OD2  ASP D  -1     -24.928 -19.899 -18.157  1.00 48.71 LIG-0.65  OA
ENDBRANCH 19 20
ENDBRANCH 14 19
ENDBRANCH 12 14
ENDBRANCH 5 10
ENDBRANCH 1 5
BRANCH 3 23
ATOM     23  CA  ASP D   1     -22.033 -18.184 -21.905  1.00 46.44 LIG 0.19  C 
BRANCH 23 24
ATOM     24  C   ASP D   1     -20.762 -17.775 -22.630  1.00 38.24 LIG 0.24  C 
ATOM     25 O    ASP D   1     -19.752 -18.469 -22.559  1.00 48.73 LIG-0.27  OA
ATOM     26  N   MET D   2     -20.823 -16.668 -23.362  1.00 47.06 LIG-0.35  N 
ATOM     27 H    MET D   2     -21.475 -16.109 -23.341  1.00 47.06 LIG 0.16  HD
BRANCH 26 28
ATOM     28  CA  MET D   2     -19.742 -16.317 -24.283  1.00 48.57 LIG 0.16  C 
BRANCH 28 29
ATOM     29  C   MET D   2     -18.750 -15.335 -23.671  1.00 49.60 LIG 0.22  C 
ATOM     30 O    MET D   2     -19.113 -14.206 -23.339  1.00 49.04 LIG-0.29  OA
ENDBRANCH 28 29
BRANCH 28 31
ATOM     31  CB  MET D   2     -20.325 -15.737 -25.577  1.00 43.71 LIG 0.04  C 
BRANCH 31 32
ATOM     32  CG  MET D   2     -21.674 -16.298 -25.972  1.00 45.96 LIG 0.08  C 
BRANCH 32 33
ATOM     33 SD   MET D   2     -23.021 -15.182 -25.521  1.00 73.43 LIG-0.17  SA
ATOM     34  CE  MET D   2     -22.122 -13.927 -24.608  1.00 57.46 LIG 0.09  C 
ENDBRANCH 32 33
ENDBRANCH 31 32
ENDBRANCH 28 31
ENDBRANCH 26 28
ENDBRANCH 23 24
BRANCH 23 35
ATOM     35  CB  ASP D   1     -22.080 -17.406 -20.577  1.00 44.28 LIG 0.15  C 
BRANCH 35 36
ATOM     36  CG  ASP D   1     -22.397 -15.933 -20.752  1.00 47.95 LIG 0.17  C 
ATOM     37 OD1  ASP D   1     -22.318 -15.167 -19.764  1.00 49.71 LIG-0.65  OA
ATOM     38 OD2  ASP D   1     -22.740 -15.548 -21.896  1.00 42.29 LIG-0.65  OA
ENDBRANCH 35 36
ENDBRANCH 23 35
ENDBRANCH 3 23
TORSDOF 17
ENDMDL
MODEL 88
USER: ADFR SOLUTION from run 136
USER: SCORE 11.348703 LL:  -2.581 LR: -10.224 RR:   0.000 FEB:  -5.153
USER: RMSD 4.706158
USER: SEED 135
USER: STATUS no improvement in best in 20 clusters for 5 generations
USER: GENES 19
USER: genes 0 Translation |==|  0.38106 0.57266 0.54541
USER: genes 1 Rotation |==|  0.59909 0.58645 0.30163 0.93972
USER: genes 2 Torsion [N]-C--CA-[N] |==|  0.88996
USER: genes 3 Torsion [C]-CA--CB-[CG] |==|  0.25830
USER: genes 4 Torsion [CA]-CB--CG-[OD2] |==|  0.85595
USER: genes 5 Torsion [C]-CA--N-[C] |==|  0.82778
USER: genes 6 Torsion [N]-C--CA-[N] |==|  0.59961
USER: genes 7 Torsion [C]-CA--N-[H3] |==|  0.34591
USER: genes 8 Torsion [C]-CA--CB-[CG] |==|  0.71985
USER: genes 9 Torsion [CA]-CB--CG-[OD2] |==|  0.82965
USER: genes 10 Torsion [C]-N--CA-[CB] |==|  0.26401
USER: genes 11 Torsion [N]-CA--C-[N] |==|  0.58409
USER: genes 12 Torsion [C]-N--CA-[C] |==|  0.71896
USER: genes 13 Torsion [N]-CA--C-[O] |==|  0.93232
USER: genes 14 Torsion [N]-CA--CB-[CG] |==|  0.90443
USER: genes 15 Torsion [CA]-CB--CG-[SD] |==|  0.29687
USER: genes 16 Torsion [CB]-CG--SD-[CE] |==|  0.65030
USER: genes 17 Torsion [N]-CA--CB-[CG] |==|  0.76253
USER: genes 18 Torsion [CA]-CB--CG-[OD1] |==|  0.97612
ROOT
ATOM      1  C   ASP D   0     -21.073 -16.925 -22.536  1.00 50.85 LIG 0.24  C 
ATOM      2 O    ASP D   0     -21.663 -15.937 -22.983  1.00 49.73 LIG-0.27  OA
ATOM      3  N   ASP D   1     -19.862 -17.306 -22.960  1.00 47.66 LIG-0.34  N 
ATOM      4 H    ASP D   1     -19.413 -17.948 -22.605  1.00 47.66 LIG 0.16  HD
ENDROOT
BRANCH 1 5
ATOM      5  CA  ASP D   0     -21.737 -17.783 -21.454  1.00 50.32 LIG 0.19  C 
BRANCH 5 6
ATOM      6  CB  ASP D   0     -21.192 -17.381 -20.079  1.00 50.50 LIG 0.15  C 
BRANCH 6 7
ATOM      7  CG  ASP D   0     -22.040 -16.332 -19.394  1.00 42.38 LIG 0.17  C 
ATOM      8 OD2  ASP D   0     -22.325 -15.291 -20.026  1.00 47.85 LIG-0.65  OA
ATOM      9 OD1  ASP D   0     -22.426 -16.551 -18.229  1.00 32.99 LIG-0.65  OA
ENDBRANCH 6 7
ENDBRANCH 5 6
BRANCH 5 10
ATOM     10  N   ASP D   0     -21.525 -19.215 -21.656  1.00 53.06 LIG-0.34  N 
ATOM     11 H    ASP D   0     -21.091 -19.597 -21.019  1.00 53.06 LIG 0.16  HD
ATOM     12  C   ASP D  -1     -21.967 -19.861 -22.733  1.00 52.15 LIG 0.25  C 
ATOM     13 O    ASP D  -1     -22.377 -19.290 -23.752  1.00 47.49 LIG-0.27  OA
BRANCH 12 14
ATOM     14  CA  ASP D  -1     -21.933 -21.385 -22.651  1.00 59.57 LIG 0.28  C 
BRANCH 14 15
ATOM     15  N   ASP D  -1     -21.600 -21.949 -23.957  1.00 50.06 LIG-0.07  N 
ATOM     16 H3   ASP D  -1     -20.888 -22.478 -23.879  1.00 50.06 LIG 0.28  HD
ATOM     17 H2   ASP D  -1     -21.418 -21.290 -24.527  1.00 50.06 LIG 0.28  HD
ATOM     18 H1   ASP D  -1     -22.289 -22.422 -24.260  1.00 50.06 LIG 0.28  HD
ENDBRANCH 14 15
BRANCH 14 19
ATOM     19  CB  ASP D  -1     -20.934 -21.853 -21.591  1.00 60.46 LIG 0.15  C 
BRANCH 19 20
ATOM     20  CG  ASP D  -1     -19.620 -22.311 -22.187  1.00 56.39 LIG 0.17  C 
ATOM     21 OD1  ASP D  -1     -18.575 -21.708 -21.855  1.00 65.47 LIG-0.65  OA
ATOM     22 OD2  ASP D  -1     -19.631 -23.283 -22.977  1.00 48.71 LIG-0.65  OA
ENDBRANCH 19 20
ENDBRANCH 14 19
ENDBRANCH 12 14
ENDBRANCH 5 10
ENDBRANCH 1 5
BRANCH 3 23
ATOM     23  CA  ASP D   1     -19.183 -16.648 -24.092  1.00 46.44 LIG 0.19  C 
BRANCH 23 24
ATOM     24  C   ASP D   1     -18.383 -17.644 -24.916  1.00 38.24 LIG 0.24  C 
ATOM     25 O    ASP D   1     -18.764 -18.805 -25.033  1.00 48.73 LIG-0.27  OA
ATOM     26  N   MET D   2     -17.296 -17.180 -25.521  1.00 47.06 LIG-0.35  N 
ATOM     27 H    MET D   2     -16.949 -16.408 -25.370  1.00 47.06 LIG 0.16  HD
BRANCH 26 28
ATOM     28  CA  MET D   2     -16.595 -17.983 -26.522  1.00 48.57 LIG 0.16  C 
BRANCH 28 29
ATOM     29  C   MET D   2     -15.346 -18.652 -25.962  1.00 49.60 LIG 0.22  C 
ATOM     30 O    MET D   2     -14.769 -18.178 -24.981  1.00 49.04 LIG-0.29  OA
ENDBRANCH 28 29
BRANCH 28 31
ATOM     31  CB  MET D   2     -16.226 -17.110 -27.729  1.00 43.71 LIG 0.04  C 
BRANCH 31 32
ATOM     32  CG  MET D   2     -17.232 -16.029 -28.060  1.00 45.96 LIG 0.08  C 
BRANCH 32 33
ATOM     33 SD   MET D   2     -16.625 -14.390 -27.607  1.00 73.43 LIG-0.17  SA
ATOM     34  CE  MET D   2     -17.971 -13.810 -26.573  1.00 57.46 LIG 0.09  C 
ENDBRANCH 32 33
ENDBRANCH 31 32
ENDBRANCH 28 31
ENDBRANCH 26 28
ENDBRANCH 23 24
BRANCH 23 35
ATOM     35  CB  ASP D   1     -18.214 -15.547 -23.627  1.00 44.28 LIG 0.15  C 
BRANCH 35 36
ATOM     36  CG  ASP D   1     -18.885 -14.203 -23.413  1.00 47.95 LIG 0.17  C 
ATOM     37 OD1  ASP D   1     -20.075 -14.047 -23.772  1.00 49.71 LIG-0.65  OA
ATOM     38 OD2  ASP D   1     -18.199 -13.292 -22.888  1.00 42.29 LIG-0.65  OA
ENDBRANCH 35 36
ENDBRANCH 23 35
ENDBRANCH 3 23
TORSDOF 17
ENDMDL
MODEL 89
USER: ADFR SOLUTION from run 107
USER: SCORE 12.297334 LL:  -2.627 LR: -10.222 RR:   0.000 FEB:  -5.151
USER: RMSD 9.704611
USER: SEED 106
USER: STATUS searching
USER: GENES 19
USER: genes 0 Translation |==|  0.74470 0.46522 0.30930
USER: genes 1 Rotation |==|  0.15098 0.77658 0.35663 0.67644
USER: genes 2 Torsion [N]-C--CA-[N] |==|  0.43889
USER: genes 3 Torsion [C]-CA--CB-[CG] |==|  0.93729
USER: genes 4 Torsion [CA]-CB--CG-[OD2] |==|  0.27262
USER: genes 5 Torsion [C]-CA--N-[C] |==|  0.75060
USER: genes 6 Torsion [N]-C--CA-[N] |==|  0.19034
USER: genes 7 Torsion [C]-CA--N-[H3] |==|  0.82504
USER: genes 8 Torsion [C]-CA--CB-[CG] |==|  0.66244
USER: genes 9 Torsion [CA]-CB--CG-[OD2] |==|  0.80013
USER: genes 10 Torsion [C]-N--CA-[CB] |==|  0.55058
USER: genes 11 Torsion [N]-CA--C-[N] |==|  0.32504
USER: genes 12 Torsion [C]-N--CA-[C] |==|  0.72074
USER: genes 13 Torsion [N]-CA--C-[O] |==|  0.40431
USER: genes 14 Torsion [N]-CA--CB-[CG] |==|  0.88343
USER: genes 15 Torsion [CA]-CB--CG-[SD] |==|  0.48666
USER: genes 16 Torsion [CB]-CG--SD-[CE] |==|  0.23059
USER: genes 17 Torsion [N]-CA--CB-[CG] |==|  0.49970
USER: genes 18 Torsion [CA]-CB--CG-[OD1] |==|  0.03065
ROOT
ATOM      1  C   ASP D   0     -13.436 -18.778 -26.786  1.00 50.85 LIG 0.24  C 
ATOM      2 O    ASP D   0     -14.394 -18.188 -26.277  1.00 49.73 LIG-0.27  OA
ATOM      3  N   ASP D   1     -13.518 -20.026 -27.264  1.00 47.66 LIG-0.34  N 
ATOM      4 H    ASP D   1     -12.878 -20.418 -27.684  1.00 47.66 LIG 0.16  HD
ENDROOT
BRANCH 1 5
ATOM      5  CA  ASP D   0     -12.074 -18.083 -26.874  1.00 50.32 LIG 0.19  C 
BRANCH 5 6
ATOM      6  CB  ASP D   0     -11.180 -18.567 -25.727  1.00 50.50 LIG 0.15  C 
BRANCH 6 7
ATOM      7  CG  ASP D   0     -11.968 -19.118 -24.560  1.00 42.38 LIG 0.17  C 
ATOM      8 OD2  ASP D   0     -12.111 -20.358 -24.470  1.00 47.85 LIG-0.65  OA
ATOM      9 OD1  ASP D   0     -12.439 -18.315 -23.731  1.00 32.99 LIG-0.65  OA
ENDBRANCH 6 7
ENDBRANCH 5 6
BRANCH 5 10
ATOM     10  N   ASP D   0     -12.176 -16.626 -26.823  1.00 53.06 LIG-0.34  N 
ATOM     11 H    ASP D   0     -12.134 -16.300 -26.028  1.00 53.06 LIG 0.16  HD
ATOM     12  C   ASP D  -1     -12.319 -15.878 -27.916  1.00 52.15 LIG 0.25  C 
ATOM     13 O    ASP D  -1     -12.615 -16.339 -29.026  1.00 47.49 LIG-0.27  OA
BRANCH 12 14
ATOM     14  CA  ASP D  -1     -12.106 -14.378 -27.724  1.00 59.57 LIG 0.28  C 
BRANCH 14 15
ATOM     15  N   ASP D  -1     -10.700 -14.107 -27.434  1.00 50.06 LIG-0.07  N 
ATOM     16 H3   ASP D  -1     -10.474 -14.499 -26.668  1.00 50.06 LIG 0.28  HD
ATOM     17 H2   ASP D  -1     -10.575 -13.228 -27.366  1.00 50.06 LIG 0.28  HD
ATOM     18 H1   ASP D  -1     -10.194 -14.429 -28.092  1.00 50.06 LIG 0.28  HD
ENDBRANCH 14 15
BRANCH 14 19
ATOM     19  CB  ASP D  -1     -12.562 -13.598 -28.958  1.00 60.46 LIG 0.15  C 
BRANCH 19 20
ATOM     20  CG  ASP D  -1     -11.452 -12.770 -29.570  1.00 56.39 LIG 0.17  C 
ATOM     21 OD1  ASP D  -1     -10.976 -13.137 -30.668  1.00 65.47 LIG-0.65  OA
ATOM     22 OD2  ASP D  -1     -11.067 -11.747 -28.961  1.00 48.71 LIG-0.65  OA
ENDBRANCH 19 20
ENDBRANCH 14 19
ENDBRANCH 12 14
ENDBRANCH 5 10
ENDBRANCH 1 5
BRANCH 3 23
ATOM     23  CA  ASP D   1     -14.731 -20.849 -27.108  1.00 46.44 LIG 0.19  C 
BRANCH 23 24
ATOM     24  C   ASP D   1     -15.338 -20.691 -25.723  1.00 38.24 LIG 0.24  C 
ATOM     25 O    ASP D   1     -14.697 -21.001 -24.723  1.00 48.73 LIG-0.27  OA
ATOM     26  N   MET D   2     -16.558 -20.171 -25.663  1.00 47.06 LIG-0.35  N 
ATOM     27 H    MET D   2     -17.067 -20.050 -26.345  1.00 47.06 LIG 0.16  HD
BRANCH 26 28
ATOM     28  CA  MET D   2     -17.134 -19.756 -24.384  1.00 48.57 LIG 0.16  C 
BRANCH 28 29
ATOM     29  C   MET D   2     -18.110 -20.784 -23.824  1.00 49.60 LIG 0.22  C 
ATOM     30 O    MET D   2     -18.200 -20.962 -22.608  1.00 49.04 LIG-0.29  OA
ENDBRANCH 28 29
BRANCH 28 31
ATOM     31  CB  MET D   2     -17.832 -18.399 -24.540  1.00 43.71 LIG 0.04  C 
BRANCH 31 32
ATOM     32  CG  MET D   2     -17.077 -17.391 -25.378  1.00 45.96 LIG 0.08  C 
BRANCH 32 33
ATOM     33 SD   MET D   2     -18.031 -15.877 -25.623  1.00 73.43 LIG-0.17  SA
ATOM     34  CE  MET D   2     -17.663 -15.001 -24.102  1.00 57.46 LIG 0.09  C 
ENDBRANCH 32 33
ENDBRANCH 31 32
ENDBRANCH 28 31
ENDBRANCH 26 28
ENDBRANCH 23 24
BRANCH 23 35
ATOM     35  CB  ASP D   1     -14.447 -22.346 -27.323  1.00 44.28 LIG 0.15  C 
BRANCH 35 36
ATOM     36  CG  ASP D   1     -15.676 -23.222 -27.167  1.00 47.95 LIG 0.17  C 
ATOM     37 OD1  ASP D   1     -16.807 -22.687 -27.097  1.00 49.71 LIG-0.65  OA
ATOM     38 OD2  ASP D   1     -15.496 -24.463 -27.103  1.00 42.29 LIG-0.65  OA
ENDBRANCH 35 36
ENDBRANCH 23 35
ENDBRANCH 3 23
TORSDOF 17
ENDMDL
MODEL 90
USER: ADFR SOLUTION from run 123
USER: SCORE 11.490971 LL:  -2.676 LR: -10.219 RR:   0.000 FEB:  -5.148
USER: RMSD 2.026792
USER: SEED 122
USER: STATUS no improvement in best in 11 clusters for 5 generations
USER: GENES 19
USER: genes 0 Translation |==|  0.43280 0.47418 0.48655
USER: genes 1 Rotation |==|  0.45322 0.39857 0.63867 0.96722
USER: genes 2 Torsion [N]-C--CA-[N] |==|  0.22981
USER: genes 3 Torsion [C]-CA--CB-[CG] |==|  0.25973
USER: genes 4 Torsion [CA]-CB--CG-[OD2] |==|  0.45652
USER: genes 5 Torsion [C]-CA--N-[C] |==|  0.77751
USER: genes 6 Torsion [N]-C--CA-[N] |==|  0.92114
USER: genes 7 Torsion [C]-CA--N-[H3] |==|  0.94606
USER: genes 8 Torsion [C]-CA--CB-[CG] |==|  0.69945
USER: genes 9 Torsion [CA]-CB--CG-[OD2] |==|  0.10581
USER: genes 10 Torsion [C]-N--CA-[CB] |==|  0.52541
USER: genes 11 Torsion [N]-CA--C-[N] |==|  0.86448
USER: genes 12 Torsion [C]-N--CA-[C] |==|  0.69093
USER: genes 13 Torsion [N]-CA--C-[O] |==|  0.74961
USER: genes 14 Torsion [N]-CA--CB-[CG] |==|  0.54286
USER: genes 15 Torsion [CA]-CB--CG-[SD] |==|  0.53220
USER: genes 16 Torsion [CB]-CG--SD-[CE] |==|  0.69912
USER: genes 17 Torsion [N]-CA--CB-[CG] |==|  0.79642
USER: genes 18 Torsion [CA]-CB--CG-[OD1] |==|  0.00196
ROOT
ATOM      1  C   ASP D   0     -19.986 -18.623 -23.595  1.00 50.85 LIG 0.24  C 
ATOM      2 O    ASP D   0     -20.200 -19.076 -24.724  1.00 49.73 LIG-0.27  OA
ATOM      3  N   ASP D   1     -19.365 -17.457 -23.382  1.00 47.66 LIG-0.34  N 
ATOM      4 H    ASP D   1     -19.276 -17.100 -22.604  1.00 47.66 LIG 0.16  HD
ENDROOT
BRANCH 1 5
ATOM      5  CA  ASP D   0     -20.426 -19.417 -22.361  1.00 50.32 LIG 0.19  C 
BRANCH 5 6
ATOM      6  CB  ASP D   0     -20.535 -20.903 -22.723  1.00 50.50 LIG 0.15  C 
BRANCH 6 7
ATOM      7  CG  ASP D   0     -19.268 -21.674 -22.426  1.00 42.38 LIG 0.17  C 
ATOM      8 OD2  ASP D   0     -19.325 -22.924 -22.395  1.00 47.85 LIG-0.65  OA
ATOM      9 OD1  ASP D   0     -18.217 -21.034 -22.228  1.00 32.99 LIG-0.65  OA
ENDBRANCH 6 7
ENDBRANCH 5 6
BRANCH 5 10
ATOM     10  N   ASP D   0     -21.704 -18.960 -21.817  1.00 53.06 LIG-0.34  N 
ATOM     11 H    ASP D   0     -22.375 -19.447 -22.047  1.00 53.06 LIG 0.16  HD
ATOM     12  C   ASP D  -1     -21.808 -17.885 -21.038  1.00 52.15 LIG 0.25  C 
ATOM     13 O    ASP D  -1     -20.903 -17.053 -20.896  1.00 47.49 LIG-0.27  OA
BRANCH 12 14
ATOM     14  CA  ASP D  -1     -23.142 -17.720 -20.314  1.00 59.57 LIG 0.28  C 
BRANCH 14 15
ATOM     15  N   ASP D  -1     -24.212 -18.342 -21.092  1.00 50.06 LIG-0.07  N 
ATOM     16 H3   ASP D  -1     -23.947 -18.440 -21.936  1.00 50.06 LIG 0.28  HD
ATOM     17 H2   ASP D  -1     -24.936 -17.825 -21.067  1.00 50.06 LIG 0.28  HD
ATOM     18 H1   ASP D  -1     -24.405 -19.139 -20.747  1.00 50.06 LIG 0.28  HD
ENDBRANCH 14 15
BRANCH 14 19
ATOM     19  CB  ASP D  -1     -23.080 -18.320 -18.908  1.00 60.46 LIG 0.15  C 
BRANCH 19 20
ATOM     20  CG  ASP D  -1     -23.876 -19.602 -18.783  1.00 56.39 LIG 0.17  C 
ATOM     21 OD1  ASP D  -1     -24.519 -19.800 -17.728  1.00 65.47 LIG-0.65  OA
ATOM     22 OD2  ASP D  -1     -23.869 -20.403 -19.744  1.00 48.71 LIG-0.65  OA
ENDBRANCH 19 20
ENDBRANCH 14 19
ENDBRANCH 12 14
ENDBRANCH 5 10
ENDBRANCH 1 5
BRANCH 3 23
ATOM     23  CA  ASP D   1     -18.770 -16.671 -24.479  1.00 46.44 LIG 0.19  C 
BRANCH 23 24
ATOM     24  C   ASP D   1     -17.870 -17.529 -25.353  1.00 38.24 LIG 0.24  C 
ATOM     25 O    ASP D   1     -17.957 -17.478 -26.576  1.00 48.73 LIG-0.27  OA
ATOM     26  N   MET D   2     -16.978 -18.288 -24.727  1.00 47.06 LIG-0.35  N 
ATOM     27 H    MET D   2     -16.969 -18.425 -23.878  1.00 47.06 LIG 0.16  HD
BRANCH 26 28
ATOM     28  CA  MET D   2     -15.914 -18.962 -25.470  1.00 48.57 LIG 0.16  C 
BRANCH 28 29
ATOM     29  C   MET D   2     -16.087 -20.476 -25.492  1.00 49.60 LIG 0.22  C 
ATOM     30 O    MET D   2     -15.584 -21.176 -24.611  1.00 49.04 LIG-0.29  OA
ENDBRANCH 28 29
BRANCH 28 31
ATOM     31  CB  MET D   2     -14.547 -18.599 -24.874  1.00 43.71 LIG 0.04  C 
BRANCH 31 32
ATOM     32  CG  MET D   2     -13.364 -18.927 -25.757  1.00 45.96 LIG 0.08  C 
BRANCH 32 33
ATOM     33 SD   MET D   2     -11.801 -18.786 -24.862  1.00 73.43 LIG-0.17  SA
ATOM     34  CE  MET D   2     -11.127 -17.298 -25.603  1.00 57.46 LIG 0.09  C 
ENDBRANCH 32 33
ENDBRANCH 31 32
ENDBRANCH 28 31
ENDBRANCH 26 28
ENDBRANCH 23 24
BRANCH 23 35
ATOM     35  CB  ASP D   1     -17.925 -15.495 -23.957  1.00 44.28 LIG 0.15  C 
BRANCH 35 36
ATOM     36  CG  ASP D   1     -18.757 -14.355 -23.400  1.00 47.95 LIG 0.17  C 
ATOM     37 OD1  ASP D   1     -20.006 -14.453 -23.392  1.00 49.71 LIG-0.65  OA
ATOM     38 OD2  ASP D   1     -18.143 -13.345 -22.978  1.00 42.29 LIG-0.65  OA
ENDBRANCH 35 36
ENDBRANCH 23 35
ENDBRANCH 3 23
TORSDOF 17
ENDMDL
MODEL 91
USER: ADFR SOLUTION from run 111
USER: SCORE 11.548593 LL:  -2.356 LR: -10.209 RR:   0.000 FEB:  -5.138
USER: RMSD 9.077546
USER: SEED 110
USER: STATUS no improvement in best in 16 clusters for 5 generations
USER: GENES 19
USER: genes 0 Translation |==|  0.39472 0.47624 0.64014
USER: genes 1 Rotation |==|  0.55708 0.01531 0.42714 0.58071
USER: genes 2 Torsion [N]-C--CA-[N] |==|  0.36209
USER: genes 3 Torsion [C]-CA--CB-[CG] |==|  0.78200
USER: genes 4 Torsion [CA]-CB--CG-[OD2] |==|  0.85049
USER: genes 5 Torsion [C]-CA--N-[C] |==|  0.72493
USER: genes 6 Torsion [N]-C--CA-[N] |==|  0.41198
USER: genes 7 Torsion [C]-CA--N-[H3] |==|  0.20445
USER: genes 8 Torsion [C]-CA--CB-[CG] |==|  0.80885
USER: genes 9 Torsion [CA]-CB--CG-[OD2] |==|  0.97888
USER: genes 10 Torsion [C]-N--CA-[CB] |==|  0.19443
USER: genes 11 Torsion [N]-CA--C-[N] |==|  0.52920
USER: genes 12 Torsion [C]-N--CA-[C] |==|  0.50051
USER: genes 13 Torsion [N]-CA--C-[O] |==|  0.99984
USER: genes 14 Torsion [N]-CA--CB-[CG] |==|  0.39657
USER: genes 15 Torsion [CA]-CB--CG-[SD] |==|  0.47162
USER: genes 16 Torsion [CB]-CG--SD-[CE] |==|  0.08135
USER: genes 17 Torsion [N]-CA--CB-[CG] |==|  0.19094
USER: genes 18 Torsion [CA]-CB--CG-[OD1] |==|  0.32157
ROOT
ATOM      1  C   ASP D   0     -20.786 -18.588 -20.831  1.00 50.85 LIG 0.24  C 
ATOM      2 O    ASP D   0     -19.743 -18.563 -20.171  1.00 49.73 LIG-0.27  OA
ATOM      3  N   ASP D   1     -21.990 -18.343 -20.300  1.00 47.66 LIG-0.34  N 
ATOM      4 H    ASP D   1     -22.713 -18.287 -20.764  1.00 47.66 LIG 0.16  HD
ENDROOT
BRANCH 1 5
ATOM      5  CA  ASP D   0     -20.735 -18.926 -22.324  1.00 50.32 LIG 0.19  C 
BRANCH 5 6
ATOM      6  CB  ASP D   0     -20.418 -20.416 -22.497  1.00 50.50 LIG 0.15  C 
BRANCH 6 7
ATOM      7  CG  ASP D   0     -18.951 -20.731 -22.307  1.00 42.38 LIG 0.17  C 
ATOM      8 OD2  ASP D   0     -18.112 -20.096 -22.984  1.00 47.85 LIG-0.65  OA
ATOM      9 OD1  ASP D   0     -18.635 -21.608 -21.478  1.00 32.99 LIG-0.65  OA
ENDBRANCH 6 7
ENDBRANCH 5 6
BRANCH 5 10
ATOM     10  N   ASP D   0     -19.744 -18.135 -23.052  1.00 53.06 LIG-0.34  N 
ATOM     11 H    ASP D   0     -18.940 -18.431 -22.980  1.00 53.06 LIG 0.16  HD
ATOM     12  C   ASP D  -1     -20.069 -17.055 -23.760  1.00 52.15 LIG 0.25  C 
ATOM     13 O    ASP D  -1     -21.168 -16.490 -23.680  1.00 47.49 LIG-0.27  OA
BRANCH 12 14
ATOM     14  CA  ASP D  -1     -18.984 -16.527 -24.696  1.00 59.57 LIG 0.28  C 
BRANCH 14 15
ATOM     15  N   ASP D  -1     -19.594 -15.920 -25.876  1.00 50.06 LIG-0.07  N 
ATOM     16 H3   ASP D  -1     -19.954 -15.137 -25.654  1.00 50.06 LIG 0.28  HD
ATOM     17 H2   ASP D  -1     -20.228 -16.459 -26.193  1.00 50.06 LIG 0.28  HD
ATOM     18 H1   ASP D  -1     -18.972 -15.794 -26.500  1.00 50.06 LIG 0.28  HD
ENDBRANCH 14 15
BRANCH 14 19
ATOM     19  CB  ASP D  -1     -18.084 -15.521 -23.976  1.00 60.46 LIG 0.15  C 
BRANCH 19 20
ATOM     20  CG  ASP D  -1     -18.798 -14.228 -23.647  1.00 56.39 LIG 0.17  C 
ATOM     21 OD1  ASP D  -1     -18.200 -13.383 -22.943  1.00 65.47 LIG-0.65  OA
ATOM     22 OD2  ASP D  -1     -19.950 -14.051 -24.103  1.00 48.71 LIG-0.65  OA
ENDBRANCH 19 20
ENDBRANCH 14 19
ENDBRANCH 12 14
ENDBRANCH 5 10
ENDBRANCH 1 5
BRANCH 3 23
ATOM     23  CA  ASP D   1     -22.187 -18.146 -18.852  1.00 46.44 LIG 0.19  C 
BRANCH 23 24
ATOM     24  C   ASP D   1     -23.662 -18.146 -18.485  1.00 38.24 LIG 0.24  C 
ATOM     25 O    ASP D   1     -24.505 -18.520 -19.294  1.00 48.73 LIG-0.27  OA
ATOM     26  N   MET D   2     -23.968 -17.765 -17.251  1.00 47.06 LIG-0.35  N 
ATOM     27 H    MET D   2     -23.415 -17.396 -16.706  1.00 47.06 LIG 0.16  HD
BRANCH 26 28
ATOM     28  CA  MET D   2     -25.318 -17.954 -16.721  1.00 48.57 LIG 0.16  C 
BRANCH 28 29
ATOM     29  C   MET D   2     -25.460 -17.445 -15.292  1.00 49.60 LIG 0.22  C 
ATOM     30 O    MET D   2     -24.498 -16.942 -14.709  1.00 49.04 LIG-0.29  OA
ENDBRANCH 28 29
BRANCH 28 31
ATOM     31  CB  MET D   2     -25.705 -19.437 -16.791  1.00 43.71 LIG 0.04  C 
BRANCH 31 32
ATOM     32  CG  MET D   2     -26.524 -19.933 -15.620  1.00 45.96 LIG 0.08  C 
BRANCH 32 33
ATOM     33 SD   MET D   2     -27.183 -21.588 -15.918  1.00 73.43 LIG-0.17  SA
ATOM     34  CE  MET D   2     -25.924 -22.257 -17.006  1.00 57.46 LIG 0.09  C 
ENDBRANCH 32 33
ENDBRANCH 31 32
ENDBRANCH 28 31
ENDBRANCH 26 28
ENDBRANCH 23 24
BRANCH 23 35
ATOM     35  CB  ASP D   1     -21.586 -16.818 -18.361  1.00 44.28 LIG 0.15  C 
BRANCH 35 36
ATOM     36  CG  ASP D   1     -22.325 -15.595 -18.871  1.00 47.95 LIG 0.17  C 
ATOM     37 OD1  ASP D   1     -22.909 -14.846 -18.056  1.00 49.71 LIG-0.65  OA
ATOM     38 OD2  ASP D   1     -22.325 -15.397 -20.111  1.00 42.29 LIG-0.65  OA
ENDBRANCH 35 36
ENDBRANCH 23 35
ENDBRANCH 3 23
TORSDOF 17
ENDMDL
MODEL 92
USER: ADFR SOLUTION from run 154
USER: SCORE 11.803022 LL:  -2.493 LR: -10.203 RR:   0.000 FEB:  -5.132
USER: RMSD 8.598752
USER: SEED 153
USER: STATUS no improvement in best in 10 clusters for 5 generations
USER: GENES 19
USER: genes 0 Translation |==|  0.44861 0.54281 0.46186
USER: genes 1 Rotation |==|  0.09166 0.59501 0.22968 0.53403
USER: genes 2 Torsion [N]-C--CA-[N] |==|  0.21882
USER: genes 3 Torsion [C]-CA--CB-[CG] |==|  0.22520
USER: genes 4 Torsion [CA]-CB--CG-[OD2] |==|  0.17300
USER: genes 5 Torsion [C]-CA--N-[C] |==|  0.78743
USER: genes 6 Torsion [N]-C--CA-[N] |==|  0.13812
USER: genes 7 Torsion [C]-CA--N-[H3] |==|  0.68385
USER: genes 8 Torsion [C]-CA--CB-[CG] |==|  0.79097
USER: genes 9 Torsion [CA]-CB--CG-[OD2] |==|  0.43136
USER: genes 10 Torsion [C]-N--CA-[CB] |==|  0.51116
USER: genes 11 Torsion [N]-CA--C-[N] |==|  0.39194
USER: genes 12 Torsion [C]-N--CA-[C] |==|  0.14950
USER: genes 13 Torsion [N]-CA--C-[O] |==|  0.70069
USER: genes 14 Torsion [N]-CA--CB-[CG] |==|  0.90887
USER: genes 15 Torsion [CA]-CB--CG-[SD] |==|  0.85445
USER: genes 16 Torsion [CB]-CG--SD-[CE] |==|  0.35235
USER: genes 17 Torsion [N]-CA--CB-[CG] |==|  0.84977
USER: genes 18 Torsion [CA]-CB--CG-[OD1] |==|  0.18314
ROOT
ATOM      1  C   ASP D   0     -19.654 -17.440 -24.039  1.00 50.85 LIG 0.24  C 
ATOM      2 O    ASP D   0     -20.801 -17.096 -24.341  1.00 49.73 LIG-0.27  OA
ATOM      3  N   ASP D   1     -19.391 -18.455 -23.208  1.00 47.66 LIG-0.34  N 
ATOM      4 H    ASP D   1     -18.598 -18.747 -23.048  1.00 47.66 LIG 0.16  HD
ENDROOT
BRANCH 1 5
ATOM      5  CA  ASP D   0     -18.456 -16.678 -24.615  1.00 50.32 LIG 0.19  C 
BRANCH 5 6
ATOM      6  CB  ASP D   0     -18.914 -15.296 -25.095  1.00 50.50 LIG 0.15  C 
BRANCH 6 7
ATOM      7  CG  ASP D   0     -19.025 -14.290 -23.971  1.00 42.38 LIG 0.17  C 
ATOM      8 OD2  ASP D   0     -17.990 -13.992 -23.334  1.00 47.85 LIG-0.65  OA
ATOM      9 OD1  ASP D   0     -20.143 -13.794 -23.728  1.00 32.99 LIG-0.65  OA
ENDBRANCH 6 7
ENDBRANCH 5 6
BRANCH 5 10
ATOM     10  N   ASP D   0     -17.812 -17.383 -25.721  1.00 53.06 LIG-0.34  N 
ATOM     11 H    ASP D   0     -18.000 -17.062 -26.497  1.00 53.06 LIG 0.16  HD
ATOM     12  C   ASP D  -1     -17.010 -18.430 -25.535  1.00 52.15 LIG 0.25  C 
ATOM     13 O    ASP D  -1     -16.921 -19.041 -24.462  1.00 47.49 LIG-0.27  OA
BRANCH 12 14
ATOM     14  CA  ASP D  -1     -16.188 -18.857 -26.749  1.00 59.57 LIG 0.28  C 
BRANCH 14 15
ATOM     15  N   ASP D  -1     -15.512 -17.698 -27.326  1.00 50.06 LIG-0.07  N 
ATOM     16 H3   ASP D  -1     -15.843 -17.534 -28.136  1.00 50.06 LIG 0.28  HD
ATOM     17 H2   ASP D  -1     -14.639 -17.864 -27.391  1.00 50.06 LIG 0.28  HD
ATOM     18 H1   ASP D  -1     -15.641 -16.989 -26.805  1.00 50.06 LIG 0.28  HD
ENDBRANCH 14 15
BRANCH 14 19
ATOM     19  CB  ASP D  -1     -15.174 -19.938 -26.370  1.00 60.46 LIG 0.15  C 
BRANCH 19 20
ATOM     20  CG  ASP D  -1     -13.989 -19.388 -25.607  1.00 56.39 LIG 0.17  C 
ATOM     21 OD1  ASP D  -1     -13.700 -18.179 -25.751  1.00 65.47 LIG-0.65  OA
ATOM     22 OD2  ASP D  -1     -13.355 -20.161 -24.853  1.00 48.71 LIG-0.65  OA
ENDBRANCH 19 20
ENDBRANCH 14 19
ENDBRANCH 12 14
ENDBRANCH 5 10
ENDBRANCH 1 5
BRANCH 3 23
ATOM     23  CA  ASP D   1     -20.455 -19.171 -22.481  1.00 46.44 LIG 0.19  C 
BRANCH 23 24
ATOM     24  C   ASP D   1     -21.311 -18.217 -21.664  1.00 38.24 LIG 0.24  C 
ATOM     25 O    ASP D   1     -20.804 -17.251 -21.102  1.00 48.73 LIG-0.27  OA
ATOM     26  N   MET D   2     -22.615 -18.465 -21.632  1.00 47.06 LIG-0.35  N 
ATOM     27 H    MET D   2     -22.979 -19.189 -21.921  1.00 47.06 LIG 0.16  HD
BRANCH 26 28
ATOM     28  CA  MET D   2     -23.552 -17.486 -21.081  1.00 48.57 LIG 0.16  C 
BRANCH 28 29
ATOM     29  C   MET D   2     -23.406 -16.113 -21.728  1.00 49.60 LIG 0.22  C 
ATOM     30 O    MET D   2     -22.902 -15.178 -21.103  1.00 49.04 LIG-0.29  OA
ENDBRANCH 28 29
BRANCH 28 31
ATOM     31  CB  MET D   2     -23.361 -17.374 -19.563  1.00 43.71 LIG 0.04  C 
BRANCH 31 32
ATOM     32  CG  MET D   2     -22.946 -18.659 -18.881  1.00 45.96 LIG 0.08  C 
BRANCH 32 33
ATOM     33 SD   MET D   2     -24.052 -20.025 -19.298  1.00 73.43 LIG-0.17  SA
ATOM     34  CE  MET D   2     -22.871 -21.248 -19.869  1.00 57.46 LIG 0.09  C 
ENDBRANCH 32 33
ENDBRANCH 31 32
ENDBRANCH 28 31
ENDBRANCH 26 28
ENDBRANCH 23 24
BRANCH 23 35
ATOM     35  CB  ASP D   1     -19.889 -20.228 -21.516  1.00 44.28 LIG 0.15  C 
BRANCH 35 36
ATOM     36  CG  ASP D   1     -18.949 -21.214 -22.185  1.00 47.95 LIG 0.17  C 
ATOM     37 OD1  ASP D   1     -17.857 -20.807 -22.644  1.00 49.71 LIG-0.65  OA
ATOM     38 OD2  ASP D   1     -19.325 -22.410 -22.259  1.00 42.29 LIG-0.65  OA
ENDBRANCH 35 36
ENDBRANCH 23 35
ENDBRANCH 3 23
TORSDOF 17
ENDMDL
