MODEL 1
USER: ADFR SOLUTION from run 71
USER: SCORE 9.447834 LL:  -1.368 LR:  -8.603 RR:   0.000 FEB:  -5.321
USER: RMSD 6.399259
USER: SEED 70
USER: STATUS no improvement in best in 28 clusters for 5 generations
USER: GENES 13
USER: genes 0 Translation |==|  0.59611 0.53201 0.30368
USER: genes 1 Rotation |==|  0.34216 0.10345 0.28173 0.64210
USER: genes 2 Torsion [C]-CA--N-[C] |==|  0.60071
USER: genes 3 Torsion [N]-C--CA-[N] |==|  0.97484
USER: genes 4 Torsion [C]-CA--N-[H1] |==|  0.34639
USER: genes 5 Torsion [C]-CA--CB-[OG] |==|  0.52436
USER: genes 6 Torsion [CA]-CB--OG-[HG] |==|  0.69414
USER: genes 7 Torsion [N]-CA--C-[N] |==|  0.00187
USER: genes 8 Torsion [C]-N--CA-[C] |==|  0.62538
USER: genes 9 Torsion [N]-CA--C-[O] |==|  0.20856
USER: genes 10 Torsion [N]-CA--CB-[CG] |==|  0.74906
USER: genes 11 Torsion [CA]-CB--CG-[CD2] |==|  0.42959
USER: genes 12 Torsion [CE2]-CZ--OH-[HH] |==|  0.80450
ROOT
ATOM      1  CA  TYR Z  -4       4.662  14.661   6.205  1.00 44.41 LIG 0.18  C 
ENDROOT
BRANCH 1 2
ATOM      2  N   TYR Z  -4       5.622  15.758   6.213  1.00 49.32 LIG-0.35  N 
ATOM      3 H    TYR Z  -4       5.545  16.302   5.551  1.00 49.32 LIG 0.16  HD
ATOM      4  C   SER Z  -5       6.529  15.883   7.175  1.00 53.16 LIG 0.25  C 
ATOM      5 O    SER Z  -5       6.684  15.045   8.066  1.00 46.54 LIG-0.27  OA
BRANCH 4 6
ATOM      6  CA  SER Z  -5       7.392  17.140   7.129  1.00 61.82 LIG 0.30  C 
BRANCH 6 7
ATOM      7  N   SER Z  -5       7.169  17.859   5.880  1.00 64.85 LIG-0.06  N 
ATOM      8 H1   SER Z  -5       6.931  18.698   6.058  1.00 64.85 LIG 0.28  HD
ATOM      9 H3   SER Z  -5       6.522  17.459   5.418  1.00 64.85 LIG 0.28  HD
ATOM     10 H2   SER Z  -5       7.919  17.860   5.400  1.00 64.85 LIG 0.28  HD
ENDBRANCH 6 7
BRANCH 6 11
ATOM     11  CB  SER Z  -5       7.094  18.042   8.332  1.00 66.88 LIG 0.21  C 
BRANCH 11 12
ATOM     12 OG   SER Z  -5       7.734  19.302   8.206  1.00 63.67 LIG-0.40  OA
ATOM     13 HG   SER Z  -5       8.355  19.359   8.770  1.00 63.67 LIG 0.21  HD
ENDBRANCH 11 12
ENDBRANCH 6 11
ENDBRANCH 4 6
ENDBRANCH 1 2
BRANCH 1 14
ATOM     14  C   TYR Z  -4       4.383  14.184   4.788  1.00 48.17 LIG 0.24  C 
ATOM     15  N   GLY Z  -3       5.043  14.810   3.821  1.00 50.01 LIG-0.35  N 
ATOM     16 H    GLY Z  -3       5.631  15.422   3.960  1.00 50.01 LIG 0.16  HD
ATOM     17 O    TYR Z  -4       3.574  13.282   4.573  1.00 57.82 LIG-0.27  OA
BRANCH 15 18
ATOM     18  CA  GLY Z  -3       4.819  14.500   2.422  1.00 64.94 LIG 0.21  C 
BRANCH 18 19
ATOM     19  C   GLY Z  -3       6.115  14.363   1.650  1.00 70.96 LIG 0.21  C 
ATOM     20 O    GLY Z  -3       6.818  13.359   1.776  1.00 75.87 LIG-0.29  OA
ENDBRANCH 18 19
ENDBRANCH 15 18
ENDBRANCH 1 14
BRANCH 1 21
ATOM     21  CB  TYR Z  -4       3.368  15.088   6.912  1.00 44.24 LIG 0.07  C 
BRANCH 21 22
ATOM     22  CG  TYR Z  -4       3.405  14.779   8.392  1.00 50.17 LIG-0.06  A 
ATOM     23  CD2 TYR Z  -4       2.635  15.504   9.294  1.00 45.93 LIG 0.01  A 
ATOM     24  CE2 TYR Z  -4       2.647  15.207  10.644  1.00 43.59 LIG 0.04  A 
ATOM     25  CZ  TYR Z  -4       3.430  14.171  11.109  1.00 44.55 LIG 0.07  A 
ATOM     26  CE1 TYR Z  -4       4.197  13.429  10.233  1.00 43.60 LIG 0.04  A 
ATOM     27  CD1 TYR Z  -4       4.178  13.733   8.883  1.00 43.85 LIG 0.01  A 
BRANCH 25 28
ATOM     28 OH   TYR Z  -4       3.446  13.874  12.452  1.00 43.23 LIG-0.36  OA
ATOM     29 HH   TYR Z  -4       3.845  14.485  12.870  1.00 43.23 LIG 0.22  HD
ENDBRANCH 25 28
ENDBRANCH 21 22
ENDBRANCH 1 21
TORSDOF 11
ENDMDL
MODEL 2
USER: ADFR SOLUTION from run 158
USER: SCORE 9.374256 LL:  -1.409 LR:  -8.302 RR:   0.000 FEB:  -5.021
USER: RMSD 5.659661
USER: SEED 157
USER: STATUS no improvement in best in 17 clusters for 5 generations
USER: GENES 13
USER: genes 0 Translation |==|  0.64221 0.60180 0.39293
USER: genes 1 Rotation |==|  0.27502 0.13777 0.66314 0.70387
USER: genes 2 Torsion [C]-CA--N-[C] |==|  0.18473
USER: genes 3 Torsion [N]-C--CA-[N] |==|  0.86524
USER: genes 4 Torsion [C]-CA--N-[H1] |==|  0.01851
USER: genes 5 Torsion [C]-CA--CB-[OG] |==|  0.67845
USER: genes 6 Torsion [CA]-CB--OG-[HG] |==|  0.11471
USER: genes 7 Torsion [N]-CA--C-[N] |==|  0.01667
USER: genes 8 Torsion [C]-N--CA-[C] |==|  0.37596
USER: genes 9 Torsion [N]-CA--C-[O] |==|  0.14161
USER: genes 10 Torsion [N]-CA--CB-[CG] |==|  0.69630
USER: genes 11 Torsion [CA]-CB--CG-[CD2] |==|  0.60900
USER: genes 12 Torsion [CE2]-CZ--OH-[HH] |==|  0.45728
ROOT
ATOM      1  CA  TYR Z  -4       5.422  15.865   7.544  1.00 44.41 LIG 0.18  C 
ENDROOT
BRANCH 1 2
ATOM      2  N   TYR Z  -4       5.272  15.930   6.095  1.00 49.32 LIG-0.35  N 
ATOM      3 H    TYR Z  -4       6.013  15.994   5.663  1.00 49.32 LIG 0.16  HD
ATOM      4  C   SER Z  -5       4.076  15.893   5.517  1.00 53.16 LIG 0.25  C 
ATOM      5 O    SER Z  -5       3.021  15.894   6.155  1.00 46.54 LIG-0.27  OA
BRANCH 4 6
ATOM      6  CA  SER Z  -5       4.065  15.847   3.993  1.00 61.82 LIG 0.30  C 
BRANCH 6 7
ATOM      7  N   SER Z  -5       4.951  16.871   3.451  1.00 64.85 LIG-0.06  N 
ATOM      8 H1   SER Z  -5       5.398  17.259   4.116  1.00 64.85 LIG 0.28  HD
ATOM      9 H3   SER Z  -5       4.469  17.483   3.021  1.00 64.85 LIG 0.28  HD
ATOM     10 H2   SER Z  -5       5.527  16.497   2.886  1.00 64.85 LIG 0.28  HD
ENDBRANCH 6 7
BRANCH 6 11
ATOM     11  CB  SER Z  -5       4.477  14.458   3.494  1.00 66.88 LIG 0.21  C 
BRANCH 11 12
ATOM     12 OG   SER Z  -5       5.693  14.509   2.765  1.00 63.67 LIG-0.40  OA
ATOM     13 HG   SER Z  -5       6.230  15.028   3.150  1.00 63.67 LIG 0.21  HD
ENDBRANCH 11 12
ENDBRANCH 6 11
ENDBRANCH 4 6
ENDBRANCH 1 2
BRANCH 1 14
ATOM     14  C   TYR Z  -4       4.991  14.510   8.082  1.00 48.17 LIG 0.24  C 
ATOM     15  N   GLY Z  -3       4.679  13.594   7.172  1.00 50.01 LIG-0.35  N 
ATOM     16 H    GLY Z  -3       4.747  13.717   6.324  1.00 50.01 LIG 0.16  HD
ATOM     17 O    TYR Z  -4       4.924  14.302   9.293  1.00 57.82 LIG-0.27  OA
BRANCH 15 18
ATOM     18  CA  GLY Z  -3       4.186  12.282   7.550  1.00 64.94 LIG 0.21  C 
BRANCH 18 19
ATOM     19  C   GLY Z  -3       3.000  11.852   6.711  1.00 70.96 LIG 0.21  C 
ATOM     20 O    GLY Z  -3       3.051  11.899   5.482  1.00 75.87 LIG-0.29  OA
ENDBRANCH 18 19
ENDBRANCH 15 18
ENDBRANCH 1 14
BRANCH 1 21
ATOM     21  CB  TYR Z  -4       4.633  17.002   8.207  1.00 44.24 LIG 0.07  C 
BRANCH 21 22
ATOM     22  CG  TYR Z  -4       5.547  18.055   8.794  1.00 50.17 LIG-0.06  A 
ATOM     23  CD2 TYR Z  -4       5.254  18.658  10.011  1.00 45.93 LIG 0.01  A 
ATOM     24  CE2 TYR Z  -4       6.100  19.604  10.563  1.00 43.59 LIG 0.04  A 
ATOM     25  CZ  TYR Z  -4       7.258  19.953   9.899  1.00 44.55 LIG 0.07  A 
ATOM     26  CE1 TYR Z  -4       7.576  19.363   8.693  1.00 43.60 LIG 0.04  A 
ATOM     27  CD1 TYR Z  -4       6.724  18.418   8.149  1.00 43.85 LIG 0.01  A 
BRANCH 25 28
ATOM     28 OH   TYR Z  -4       8.100  20.895  10.444  1.00 43.23 LIG-0.36  OA
ATOM     29 HH   TYR Z  -4       8.847  20.859  10.060  1.00 43.23 LIG 0.22  HD
ENDBRANCH 25 28
ENDBRANCH 21 22
ENDBRANCH 1 21
TORSDOF 11
ENDMDL
MODEL 3
USER: ADFR SOLUTION from run 189
USER: SCORE 9.025924 LL:  -1.421 LR:  -8.295 RR:   0.000 FEB:  -5.014
USER: RMSD 7.403407
USER: SEED 188
USER: STATUS no improvement in best in 34 clusters for 5 generations
USER: GENES 13
USER: genes 0 Translation |==|  0.57268 0.58793 0.28865
USER: genes 1 Rotation |==|  0.22212 0.77693 0.25188 0.68583
USER: genes 2 Torsion [C]-CA--N-[C] |==|  0.59714
USER: genes 3 Torsion [N]-C--CA-[N] |==|  0.89822
USER: genes 4 Torsion [C]-CA--N-[H1] |==|  0.37127
USER: genes 5 Torsion [C]-CA--CB-[OG] |==|  0.70631
USER: genes 6 Torsion [CA]-CB--OG-[HG] |==|  0.12585
USER: genes 7 Torsion [N]-CA--C-[N] |==|  0.89599
USER: genes 8 Torsion [C]-N--CA-[C] |==|  0.46073
USER: genes 9 Torsion [N]-CA--C-[O] |==|  0.86239
USER: genes 10 Torsion [N]-CA--CB-[CG] |==|  0.47179
USER: genes 11 Torsion [CA]-CB--CG-[CD2] |==|  0.18954
USER: genes 12 Torsion [CE2]-CZ--OH-[HH] |==|  0.68520
ROOT
ATOM      1  CA  TYR Z  -4       4.275  15.626   5.980  1.00 44.41 LIG 0.18  C 
ENDROOT
BRANCH 1 2
ATOM      2  N   TYR Z  -4       4.775  15.714   4.613  1.00 49.32 LIG-0.35  N 
ATOM      3 H    TYR Z  -4       5.604  15.932   4.551  1.00 49.32 LIG 0.16  HD
ATOM      4  C   SER Z  -5       3.990  15.473   3.568  1.00 53.16 LIG 0.25  C 
ATOM      5 O    SER Z  -5       2.782  15.252   3.672  1.00 46.54 LIG-0.27  OA
BRANCH 4 6
ATOM      6  CA  SER Z  -5       4.667  15.481   2.201  1.00 61.82 LIG 0.30  C 
BRANCH 6 7
ATOM      7  N   SER Z  -5       5.701  16.509   2.157  1.00 64.85 LIG-0.06  N 
ATOM      8 H1   SER Z  -5       6.443  16.169   1.801  1.00 64.85 LIG 0.28  HD
ATOM      9 H3   SER Z  -5       5.872  16.793   2.982  1.00 64.85 LIG 0.28  HD
ATOM     10 H2   SER Z  -5       5.420  17.191   1.660  1.00 64.85 LIG 0.28  HD
ENDBRANCH 6 7
BRANCH 6 11
ATOM     11  CB  SER Z  -5       5.260  14.104   1.886  1.00 66.88 LIG 0.21  C 
BRANCH 11 12
ATOM     12 OG   SER Z  -5       6.673  14.108   2.009  1.00 63.67 LIG-0.40  OA
ATOM     13 HG   SER Z  -5       6.892  14.503   2.718  1.00 63.67 LIG 0.21  HD
ENDBRANCH 11 12
ENDBRANCH 6 11
ENDBRANCH 4 6
ENDBRANCH 1 2
BRANCH 1 14
ATOM     14  C   TYR Z  -4       4.929  16.669   6.873  1.00 48.17 LIG 0.24  C 
ATOM     15  N   GLY Z  -3       6.214  16.912   6.641  1.00 50.01 LIG-0.35  N 
ATOM     16 H    GLY Z  -3       6.664  16.548   6.005  1.00 50.01 LIG 0.16  HD
ATOM     17 O    TYR Z  -4       4.290  17.228   7.763  1.00 57.82 LIG-0.27  OA
BRANCH 15 18
ATOM     18  CA  GLY Z  -3       6.975  17.833   7.464  1.00 64.94 LIG 0.21  C 
BRANCH 18 19
ATOM     19  C   GLY Z  -3       8.468  17.700   7.244  1.00 70.96 LIG 0.21  C 
ATOM     20 O    GLY Z  -3       9.011  16.595   7.275  1.00 75.87 LIG-0.29  OA
ENDBRANCH 18 19
ENDBRANCH 15 18
ENDBRANCH 1 14
BRANCH 1 21
ATOM     21  CB  TYR Z  -4       4.493  14.210   6.530  1.00 44.24 LIG 0.07  C 
BRANCH 21 22
ATOM     22  CG  TYR Z  -4       4.220  14.133   8.015  1.00 50.17 LIG-0.06  A 
ATOM     23  CD2 TYR Z  -4       2.932  14.284   8.514  1.00 45.93 LIG 0.01  A 
ATOM     24  CE2 TYR Z  -4       2.674  14.190   9.870  1.00 43.59 LIG 0.04  A 
ATOM     25  CZ  TYR Z  -4       3.710  13.936  10.745  1.00 44.55 LIG 0.07  A 
ATOM     26  CE1 TYR Z  -4       4.997  13.772  10.275  1.00 43.60 LIG 0.04  A 
ATOM     27  CD1 TYR Z  -4       5.245  13.868   8.916  1.00 43.85 LIG 0.01  A 
BRANCH 25 28
ATOM     28 OH   TYR Z  -4       3.458  13.843  12.094  1.00 43.23 LIG-0.36  OA
ATOM     29 HH   TYR Z  -4       3.826  14.484  12.494  1.00 43.23 LIG 0.22  HD
ENDBRANCH 25 28
ENDBRANCH 21 22
ENDBRANCH 1 21
TORSDOF 11
ENDMDL
MODEL 4
USER: ADFR SOLUTION from run 42
USER: SCORE 8.326686 LL:  -1.194 LR:  -8.128 RR:   0.000 FEB:  -4.847
USER: RMSD 7.397476
USER: SEED 41
USER: STATUS no improvement in best in 34 clusters for 5 generations
USER: GENES 13
USER: genes 0 Translation |==|  0.74309 0.74185 0.43710
USER: genes 1 Rotation |==|  0.46322 0.24681 0.17867 0.78511
USER: genes 2 Torsion [C]-CA--N-[C] |==|  0.21129
USER: genes 3 Torsion [N]-C--CA-[N] |==|  0.14239
USER: genes 4 Torsion [C]-CA--N-[H1] |==|  0.96193
USER: genes 5 Torsion [C]-CA--CB-[OG] |==|  0.28180
USER: genes 6 Torsion [CA]-CB--OG-[HG] |==|  0.82394
USER: genes 7 Torsion [N]-CA--C-[N] |==|  0.38889
USER: genes 8 Torsion [C]-N--CA-[C] |==|  0.69021
USER: genes 9 Torsion [N]-CA--C-[O] |==|  0.28355
USER: genes 10 Torsion [N]-CA--CB-[CG] |==|  0.55454
USER: genes 11 Torsion [CA]-CB--CG-[CD2] |==|  0.03071
USER: genes 12 Torsion [CE2]-CZ--OH-[HH] |==|  0.22863
ROOT
ATOM      1  CA  TYR Z  -4       7.087  18.281   8.206  1.00 44.41 LIG 0.18  C 
ENDROOT
BRANCH 1 2
ATOM      2  N   TYR Z  -4       7.775  19.269   9.029  1.00 49.32 LIG-0.35  N 
ATOM      3 H    TYR Z  -4       8.627  19.297   8.913  1.00 49.32 LIG 0.16  HD
ATOM      4  C   SER Z  -5       7.116  20.048   9.879  1.00 53.16 LIG 0.25  C 
ATOM      5 O    SER Z  -5       5.909  19.932  10.099  1.00 46.54 LIG-0.27  OA
BRANCH 4 6
ATOM      6  CA  SER Z  -5       7.938  21.119  10.588  1.00 61.82 LIG 0.30  C 
BRANCH 6 7
ATOM      7  N   SER Z  -5       8.701  21.895   9.617  1.00 64.85 LIG-0.06  N 
ATOM      8 H1   SER Z  -5       8.697  21.475   8.832  1.00 64.85 LIG 0.28  HD
ATOM      9 H3   SER Z  -5       9.540  21.984   9.900  1.00 64.85 LIG 0.28  HD
ATOM     10 H2   SER Z  -5       8.332  22.700   9.524  1.00 64.85 LIG 0.28  HD
ENDBRANCH 6 7
BRANCH 6 11
ATOM     11  CB  SER Z  -5       7.030  22.034  11.417  1.00 66.88 LIG 0.21  C 
BRANCH 11 12
ATOM     12 OG   SER Z  -5       7.074  21.697  12.794  1.00 63.67 LIG-0.40  OA
ATOM     13 HG   SER Z  -5       6.775  20.920  12.903  1.00 63.67 LIG 0.21  HD
ENDBRANCH 11 12
ENDBRANCH 6 11
ENDBRANCH 4 6
ENDBRANCH 1 2
BRANCH 1 14
ATOM     14  C   TYR Z  -4       6.363  18.941   7.044  1.00 48.17 LIG 0.24  C 
ATOM     15  N   GLY Z  -3       6.419  18.300   5.882  1.00 50.01 LIG-0.35  N 
ATOM     16 H    GLY Z  -3       6.798  17.537   5.773  1.00 50.01 LIG 0.16  HD
ATOM     17 O    TYR Z  -4       5.781  20.016   7.190  1.00 57.82 LIG-0.27  OA
BRANCH 15 18
ATOM     18  CA  GLY Z  -3       5.829  18.855   4.678  1.00 64.94 LIG 0.21  C 
BRANCH 18 19
ATOM     19  C   GLY Z  -3       4.625  18.062   4.212  1.00 70.96 LIG 0.21  C 
ATOM     20 O    GLY Z  -3       3.483  18.472   4.427  1.00 75.87 LIG-0.29  OA
ENDBRANCH 18 19
ENDBRANCH 15 18
ENDBRANCH 1 14
BRANCH 1 21
ATOM     21  CB  TYR Z  -4       6.118  17.461   9.069  1.00 44.24 LIG 0.07  C 
BRANCH 21 22
ATOM     22  CG  TYR Z  -4       5.745  16.152   8.409  1.00 50.17 LIG-0.06  A 
ATOM     23  CD2 TYR Z  -4       6.425  15.698   7.285  1.00 45.93 LIG 0.01  A 
ATOM     24  CE2 TYR Z  -4       6.103  14.490   6.694  1.00 43.59 LIG 0.04  A 
ATOM     25  CZ  TYR Z  -4       5.095  13.716   7.229  1.00 44.55 LIG 0.07  A 
ATOM     26  CE1 TYR Z  -4       4.410  14.139   8.349  1.00 43.60 LIG 0.04  A 
ATOM     27  CD1 TYR Z  -4       4.739  15.349   8.935  1.00 43.85 LIG 0.01  A 
BRANCH 25 28
ATOM     28 OH   TYR Z  -4       4.771  12.514   6.642  1.00 43.23 LIG-0.36  OA
ATOM     29 HH   TYR Z  -4       5.302  11.920   6.907  1.00 43.23 LIG 0.22  HD
ENDBRANCH 25 28
ENDBRANCH 21 22
ENDBRANCH 1 21
TORSDOF 11
ENDMDL
MODEL 5
USER: ADFR SOLUTION from run 77
USER: SCORE 9.169966 LL:  -1.290 LR:  -8.130 RR:   0.000 FEB:  -4.849
USER: RMSD 7.729836
USER: SEED 76
USER: STATUS no improvement in best in 25 clusters for 5 generations
USER: GENES 13
USER: genes 0 Translation |==|  0.55622 0.77011 0.62202
USER: genes 1 Rotation |==|  0.47852 0.71099 0.21116 0.84870
USER: genes 2 Torsion [C]-CA--N-[C] |==|  0.71134
USER: genes 3 Torsion [N]-C--CA-[N] |==|  0.31033
USER: genes 4 Torsion [C]-CA--N-[H1] |==|  0.70565
USER: genes 5 Torsion [C]-CA--CB-[OG] |==|  0.55029
USER: genes 6 Torsion [CA]-CB--OG-[HG] |==|  0.01197
USER: genes 7 Torsion [N]-CA--C-[N] |==|  0.92222
USER: genes 8 Torsion [C]-N--CA-[C] |==|  0.47147
USER: genes 9 Torsion [N]-CA--C-[O] |==|  0.95468
USER: genes 10 Torsion [N]-CA--CB-[CG] |==|  0.88911
USER: genes 11 Torsion [CA]-CB--CG-[CD2] |==|  0.41577
USER: genes 12 Torsion [CE2]-CZ--OH-[HH] |==|  0.39672
ROOT
ATOM      1  CA  TYR Z  -4       4.004  18.768  10.980  1.00 44.41 LIG 0.18  C 
ENDROOT
BRANCH 1 2
ATOM      2  N   TYR Z  -4       5.423  19.100  11.014  1.00 49.32 LIG-0.35  N 
ATOM      3 H    TYR Z  -4       5.909  18.541  11.451  1.00 49.32 LIG 0.16  HD
ATOM      4  C   SER Z  -5       5.899  20.184  10.410  1.00 53.16 LIG 0.25  C 
ATOM      5 O    SER Z  -5       5.177  21.022   9.866  1.00 46.54 LIG-0.27  OA
BRANCH 4 6
ATOM      6  CA  SER Z  -5       7.415  20.350  10.419  1.00 61.82 LIG 0.30  C 
BRANCH 6 7
ATOM      7  N   SER Z  -5       7.947  20.195   9.070  1.00 64.85 LIG-0.06  N 
ATOM      8 H1   SER Z  -5       8.355  19.407   9.000  1.00 64.85 LIG 0.28  HD
ATOM      9 H3   SER Z  -5       8.531  20.845   8.904  1.00 64.85 LIG 0.28  HD
ATOM     10 H2   SER Z  -5       7.281  20.237   8.481  1.00 64.85 LIG 0.28  HD
ENDBRANCH 6 7
BRANCH 6 11
ATOM     11  CB  SER Z  -5       7.804  21.713  11.000  1.00 66.88 LIG 0.21  C 
BRANCH 11 12
ATOM     12 OG   SER Z  -5       9.133  22.065  10.650  1.00 63.67 LIG-0.40  OA
ATOM     13 HG   SER Z  -5       9.451  21.483  10.134  1.00 63.67 LIG 0.21  HD
ENDBRANCH 11 12
ENDBRANCH 6 11
ENDBRANCH 4 6
ENDBRANCH 1 2
BRANCH 1 14
ATOM     14  C   TYR Z  -4       3.332  19.092  12.305  1.00 48.17 LIG 0.24  C 
ATOM     15  N   GLY Z  -3       4.110  19.045  13.381  1.00 50.01 LIG-0.35  N 
ATOM     16 H    GLY Z  -3       4.954  18.885  13.356  1.00 50.01 LIG 0.16  HD
ATOM     17 O    TYR Z  -4       2.132  19.362  12.357  1.00 57.82 LIG-0.27  OA
BRANCH 15 18
ATOM     18  CA  GLY Z  -3       3.580  19.265  14.714  1.00 64.94 LIG 0.21  C 
BRANCH 18 19
ATOM     19  C   GLY Z  -3       4.585  18.921  15.794  1.00 70.96 LIG 0.21  C 
ATOM     20 O    GLY Z  -3       5.576  18.237  15.534  1.00 75.87 LIG-0.29  OA
ENDBRANCH 18 19
ENDBRANCH 15 18
ENDBRANCH 1 14
BRANCH 1 21
ATOM     21  CB  TYR Z  -4       3.817  17.291  10.610  1.00 44.24 LIG 0.07  C 
BRANCH 21 22
ATOM     22  CG  TYR Z  -4       4.785  16.852   9.534  1.00 50.17 LIG-0.06  A 
ATOM     23  CD2 TYR Z  -4       5.242  15.541   9.474  1.00 45.93 LIG 0.01  A 
ATOM     24  CE2 TYR Z  -4       6.107  15.130   8.476  1.00 43.59 LIG 0.04  A 
ATOM     25  CZ  TYR Z  -4       6.521  16.032   7.518  1.00 44.55 LIG 0.07  A 
ATOM     26  CE1 TYR Z  -4       6.074  17.337   7.549  1.00 43.60 LIG 0.04  A 
ATOM     27  CD1 TYR Z  -4       5.209  17.739   8.551  1.00 43.85 LIG 0.01  A 
BRANCH 25 28
ATOM     28 OH   TYR Z  -4       7.383  15.627   6.525  1.00 43.23 LIG-0.36  OA
ATOM     29 HH   TYR Z  -4       7.178  16.006   5.803  1.00 43.23 LIG 0.22  HD
ENDBRANCH 25 28
ENDBRANCH 21 22
ENDBRANCH 1 21
TORSDOF 11
ENDMDL
MODEL 6
USER: ADFR SOLUTION from run 2
USER: SCORE 9.365652 LL:  -1.590 LR:  -8.129 RR:   0.000 FEB:  -4.847
USER: RMSD 6.195167
USER: SEED 282368
USER: STATUS no improvement in best in 18 clusters for 5 generations
USER: GENES 13
USER: genes 0 Translation |==|  0.63898 0.70224 0.42817
USER: genes 1 Rotation |==|  0.59088 0.62740 0.37215 0.95735
USER: genes 2 Torsion [C]-CA--N-[C] |==|  0.68889
USER: genes 3 Torsion [N]-C--CA-[N] |==|  0.13446
USER: genes 4 Torsion [C]-CA--N-[H1] |==|  0.42832
USER: genes 5 Torsion [C]-CA--CB-[OG] |==|  0.60392
USER: genes 6 Torsion [CA]-CB--OG-[HG] |==|  0.15754
USER: genes 7 Torsion [N]-CA--C-[N] |==|  0.88712
USER: genes 8 Torsion [C]-N--CA-[C] |==|  0.31742
USER: genes 9 Torsion [N]-CA--C-[O] |==|  0.09560
USER: genes 10 Torsion [N]-CA--CB-[CG] |==|  0.38741
USER: genes 11 Torsion [CA]-CB--CG-[CD2] |==|  0.23314
USER: genes 12 Torsion [CE2]-CZ--OH-[HH] |==|  0.40690
ROOT
ATOM      1  CA  TYR Z  -4       5.369  17.598   8.073  1.00 44.41 LIG 0.18  C 
ENDROOT
BRANCH 1 2
ATOM      2  N   TYR Z  -4       6.080  18.309   9.128  1.00 49.32 LIG-0.35  N 
ATOM      3 H    TYR Z  -4       6.437  17.799   9.722  1.00 49.32 LIG 0.16  HD
ATOM      4  C   SER Z  -5       6.155  19.635   9.146  1.00 53.16 LIG 0.25  C 
ATOM      5 O    SER Z  -5       5.562  20.353   8.338  1.00 46.54 LIG-0.27  OA
BRANCH 4 6
ATOM      6  CA  SER Z  -5       7.030  20.246  10.236  1.00 61.82 LIG 0.30  C 
BRANCH 6 7
ATOM      7  N   SER Z  -5       8.326  19.579  10.276  1.00 64.85 LIG-0.06  N 
ATOM      8 H1   SER Z  -5       8.936  20.134  10.611  1.00 64.85 LIG 0.28  HD
ATOM      9 H3   SER Z  -5       8.563  19.341   9.452  1.00 64.85 LIG 0.28  HD
ATOM     10 H2   SER Z  -5       8.271  18.854  10.790  1.00 64.85 LIG 0.28  HD
ENDBRANCH 6 7
BRANCH 6 11
ATOM     11  CB  SER Z  -5       7.203  21.751  10.006  1.00 66.88 LIG 0.21  C 
BRANCH 11 12
ATOM     12 OG   SER Z  -5       8.513  22.179  10.345  1.00 63.67 LIG-0.40  OA
ATOM     13 HG   SER Z  -5       9.076  21.739   9.902  1.00 63.67 LIG 0.21  HD
ENDBRANCH 11 12
ENDBRANCH 6 11
ENDBRANCH 4 6
ENDBRANCH 1 2
BRANCH 1 14
ATOM     14  C   TYR Z  -4       4.119  16.920   8.612  1.00 48.17 LIG 0.24  C 
ATOM     15  N   GLY Z  -3       4.238  16.336   9.799  1.00 50.01 LIG-0.35  N 
ATOM     16 H    GLY Z  -3       4.953  16.360  10.276  1.00 50.01 LIG 0.16  HD
ATOM     17 O    TYR Z  -4       3.075  16.909   7.960  1.00 57.82 LIG-0.27  OA
BRANCH 15 18
ATOM     18  CA  GLY Z  -3       3.143  15.596  10.396  1.00 64.94 LIG 0.21  C 
BRANCH 18 19
ATOM     19  C   GLY Z  -3       3.452  14.118  10.525  1.00 70.96 LIG 0.21  C 
ATOM     20 O    GLY Z  -3       4.598  13.736  10.763  1.00 75.87 LIG-0.29  OA
ENDBRANCH 18 19
ENDBRANCH 15 18
ENDBRANCH 1 14
BRANCH 1 21
ATOM     21  CB  TYR Z  -4       6.303  16.584   7.399  1.00 44.24 LIG 0.07  C 
BRANCH 21 22
ATOM     22  CG  TYR Z  -4       5.599  15.279   7.101  1.00 50.17 LIG-0.06  A 
ATOM     23  CD2 TYR Z  -4       4.842  15.122   5.946  1.00 45.93 LIG 0.01  A 
ATOM     24  CE2 TYR Z  -4       4.217  13.922   5.658  1.00 43.59 LIG 0.04  A 
ATOM     25  CZ  TYR Z  -4       4.350  12.858   6.526  1.00 44.55 LIG 0.07  A 
ATOM     26  CE1 TYR Z  -4       5.104  12.984   7.675  1.00 43.60 LIG 0.04  A 
ATOM     27  CD1 TYR Z  -4       5.726  14.189   7.955  1.00 43.85 LIG 0.01  A 
BRANCH 25 28
ATOM     28 OH   TYR Z  -4       3.729  11.664   6.244  1.00 43.23 LIG-0.36  OA
ATOM     29 HH   TYR Z  -4       4.201  11.028   6.525  1.00 43.23 LIG 0.22  HD
ENDBRANCH 25 28
ENDBRANCH 21 22
ENDBRANCH 1 21
TORSDOF 11
ENDMDL
MODEL 7
USER: ADFR SOLUTION from run 146
USER: SCORE 8.722105 LL:  -1.274 LR:  -8.131 RR:   0.000 FEB:  -4.850
USER: RMSD 6.335851
USER: SEED 145
USER: STATUS no improvement in best in 20 clusters for 5 generations
USER: GENES 13
USER: genes 0 Translation |==|  0.66742 0.62940 0.40119
USER: genes 1 Rotation |==|  0.29739 0.14488 0.69290 0.71360
USER: genes 2 Torsion [C]-CA--N-[C] |==|  0.15920
USER: genes 3 Torsion [N]-C--CA-[N] |==|  0.90562
USER: genes 4 Torsion [C]-CA--N-[H1] |==|  0.34302
USER: genes 5 Torsion [C]-CA--CB-[OG] |==|  0.65943
USER: genes 6 Torsion [CA]-CB--OG-[HG] |==|  0.15998
USER: genes 7 Torsion [N]-CA--C-[N] |==|  0.60000
USER: genes 8 Torsion [C]-N--CA-[C] |==|  0.62633
USER: genes 9 Torsion [N]-CA--C-[O] |==|  0.68032
USER: genes 10 Torsion [N]-CA--CB-[CG] |==|  0.68869
USER: genes 11 Torsion [CA]-CB--CG-[CD2] |==|  0.15079
USER: genes 12 Torsion [CE2]-CZ--OH-[HH] |==|  0.87458
ROOT
ATOM      1  CA  TYR Z  -4       5.838  16.341   7.668  1.00 44.41 LIG 0.18  C 
ENDROOT
BRANCH 1 2
ATOM      2  N   TYR Z  -4       5.509  16.325   6.248  1.00 49.32 LIG-0.35  N 
ATOM      3 H    TYR Z  -4       6.157  16.554   5.730  1.00 49.32 LIG 0.16  HD
ATOM      4  C   SER Z  -5       4.300  15.982   5.817  1.00 53.16 LIG 0.25  C 
ATOM      5 O    SER Z  -5       3.358  15.746   6.576  1.00 46.54 LIG-0.27  OA
BRANCH 4 6
ATOM      6  CA  SER Z  -5       4.124  15.891   4.305  1.00 61.82 LIG 0.30  C 
BRANCH 6 7
ATOM      7  N   SER Z  -5       4.951  16.891   3.639  1.00 64.85 LIG-0.06  N 
ATOM      8 H1   SER Z  -5       5.494  16.490   3.059  1.00 64.85 LIG 0.28  HD
ATOM      9 H3   SER Z  -5       5.436  17.326   4.245  1.00 64.85 LIG 0.28  HD
ATOM     10 H2   SER Z  -5       4.429  17.467   3.207  1.00 64.85 LIG 0.28  HD
ENDBRANCH 6 7
BRANCH 6 11
ATOM     11  CB  SER Z  -5       4.472  14.484   3.807  1.00 66.88 LIG 0.21  C 
BRANCH 11 12
ATOM     12 OG   SER Z  -5       5.500  14.520   2.830  1.00 63.67 LIG-0.40  OA
ATOM     13 HG   SER Z  -5       6.181  14.893   3.152  1.00 63.67 LIG 0.21  HD
ENDBRANCH 11 12
ENDBRANCH 6 11
ENDBRANCH 4 6
ENDBRANCH 1 2
BRANCH 1 14
ATOM     14  C   TYR Z  -4       5.598  14.981   8.303  1.00 48.17 LIG 0.24  C 
ATOM     15  N   GLY Z  -3       5.140  14.992   9.550  1.00 50.01 LIG-0.35  N 
ATOM     16 H    GLY Z  -3       4.943  15.708   9.982  1.00 50.01 LIG 0.16  HD
ATOM     17 O    TYR Z  -4       5.839  13.943   7.686  1.00 57.82 LIG-0.27  OA
BRANCH 15 18
ATOM     18  CA  GLY Z  -3       4.934  13.764  10.296  1.00 64.94 LIG 0.21  C 
BRANCH 18 19
ATOM     19  C   GLY Z  -3       3.602  13.751  11.019  1.00 70.96 LIG 0.21  C 
ATOM     20 O    GLY Z  -3       3.557  13.734  12.250  1.00 75.87 LIG-0.29  OA
ENDBRANCH 18 19
ENDBRANCH 15 18
ENDBRANCH 1 14
BRANCH 1 21
ATOM     21  CB  TYR Z  -4       5.036  17.437   8.383  1.00 44.24 LIG 0.07  C 
BRANCH 21 22
ATOM     22  CG  TYR Z  -4       5.924  18.559   8.871  1.00 50.17 LIG-0.06  A 
ATOM     23  CD2 TYR Z  -4       6.781  19.224   8.002  1.00 45.93 LIG 0.01  A 
ATOM     24  CE2 TYR Z  -4       7.576  20.267   8.440  1.00 43.59 LIG 0.04  A 
ATOM     25  CZ  TYR Z  -4       7.517  20.662   9.760  1.00 44.55 LIG 0.07  A 
ATOM     26  CE1 TYR Z  -4       6.668  20.025  10.642  1.00 43.60 LIG 0.04  A 
ATOM     27  CD1 TYR Z  -4       5.875  18.982  10.194  1.00 43.85 LIG 0.01  A 
BRANCH 25 28
ATOM     28 OH   TYR Z  -4       8.308  21.699  10.199  1.00 43.23 LIG-0.36  OA
ATOM     29 HH   TYR Z  -4       9.088  21.602   9.903  1.00 43.23 LIG 0.22  HD
ENDBRANCH 25 28
ENDBRANCH 21 22
ENDBRANCH 1 21
TORSDOF 11
ENDMDL
MODEL 8
USER: ADFR SOLUTION from run 110
USER: SCORE 9.286199 LL:  -1.607 LR:  -8.118 RR:   0.000 FEB:  -4.837
USER: RMSD 7.484517
USER: SEED 109
USER: STATUS no improvement in best in 23 clusters for 5 generations
USER: GENES 13
USER: genes 0 Translation |==|  0.66128 0.62232 0.38442
USER: genes 1 Rotation |==|  0.16663 0.80938 0.30917 0.58202
USER: genes 2 Torsion [C]-CA--N-[C] |==|  0.63528
USER: genes 3 Torsion [N]-C--CA-[N] |==|  0.84886
USER: genes 4 Torsion [C]-CA--N-[H1] |==|  0.66546
USER: genes 5 Torsion [C]-CA--CB-[OG] |==|  0.67405
USER: genes 6 Torsion [CA]-CB--OG-[HG] |==|  0.15401
USER: genes 7 Torsion [N]-CA--C-[N] |==|  0.94083
USER: genes 8 Torsion [C]-N--CA-[C] |==|  0.25401
USER: genes 9 Torsion [N]-CA--C-[O] |==|  0.02048
USER: genes 10 Torsion [N]-CA--CB-[CG] |==|  0.78269
USER: genes 11 Torsion [CA]-CB--CG-[CD2] |==|  0.76062
USER: genes 12 Torsion [CE2]-CZ--OH-[HH] |==|  0.11511
ROOT
ATOM      1  CA  TYR Z  -4       5.737  16.219   7.416  1.00 44.41 LIG 0.18  C 
ENDROOT
BRANCH 1 2
ATOM      2  N   TYR Z  -4       5.487  16.121   5.983  1.00 49.32 LIG-0.35  N 
ATOM      3 H    TYR Z  -4       6.197  16.062   5.502  1.00 49.32 LIG 0.16  HD
ATOM      4  C   SER Z  -5       4.253  16.125   5.490  1.00 53.16 LIG 0.25  C 
ATOM      5 O    SER Z  -5       3.252  16.302   6.186  1.00 46.54 LIG-0.27  OA
BRANCH 4 6
ATOM      6  CA  SER Z  -5       4.127  15.895   3.987  1.00 61.82 LIG 0.30  C 
BRANCH 6 7
ATOM      7  N   SER Z  -5       4.951  16.854   3.260  1.00 64.85 LIG-0.06  N 
ATOM      8 H1   SER Z  -5       4.436  17.338   2.719  1.00 64.85 LIG 0.28  HD
ATOM      9 H3   SER Z  -5       5.558  16.418   2.777  1.00 64.85 LIG 0.28  HD
ATOM     10 H2   SER Z  -5       5.362  17.391   3.838  1.00 64.85 LIG 0.28  HD
ENDBRANCH 6 7
BRANCH 6 11
ATOM     11  CB  SER Z  -5       4.525  14.459   3.628  1.00 66.88 LIG 0.21  C 
BRANCH 11 12
ATOM     12 OG   SER Z  -5       5.659  14.434   2.776  1.00 63.67 LIG-0.40  OA
ATOM     13 HG   SER Z  -5       6.290  14.855   3.137  1.00 63.67 LIG 0.21  HD
ENDBRANCH 11 12
ENDBRANCH 6 11
ENDBRANCH 4 6
ENDBRANCH 1 2
BRANCH 1 14
ATOM     14  C   TYR Z  -4       6.788  17.275   7.720  1.00 48.17 LIG 0.24  C 
ATOM     15  N   GLY Z  -3       7.595  17.601   6.717  1.00 50.01 LIG-0.35  N 
ATOM     16 H    GLY Z  -3       7.526  17.281   5.922  1.00 50.01 LIG 0.16  HD
ATOM     17 O    TYR Z  -4       6.877  17.773   8.842  1.00 57.82 LIG-0.27  OA
BRANCH 15 18
ATOM     18  CA  GLY Z  -3       8.684  18.544   6.892  1.00 64.94 LIG 0.21  C 
BRANCH 18 19
ATOM     19  C   GLY Z  -3       9.980  17.859   7.275  1.00 70.96 LIG 0.21  C 
ATOM     20 O    GLY Z  -3      10.064  16.630   7.275  1.00 75.87 LIG-0.29  OA
ENDBRANCH 18 19
ENDBRANCH 15 18
ENDBRANCH 1 14
BRANCH 1 21
ATOM     21  CB  TYR Z  -4       6.150  14.850   7.974  1.00 44.24 LIG 0.07  C 
BRANCH 21 22
ATOM     22  CG  TYR Z  -4       4.959  13.937   8.167  1.00 50.17 LIG-0.06  A 
ATOM     23  CD2 TYR Z  -4       4.214  13.974   9.340  1.00 45.93 LIG 0.01  A 
ATOM     24  CE2 TYR Z  -4       3.110  13.158   9.511  1.00 43.59 LIG 0.04  A 
ATOM     25  CZ  TYR Z  -4       2.734  12.297   8.501  1.00 44.55 LIG 0.07  A 
ATOM     26  CE1 TYR Z  -4       3.452  12.249   7.323  1.00 43.60 LIG 0.04  A 
ATOM     27  CD1 TYR Z  -4       4.555  13.068   7.161  1.00 43.85 LIG 0.01  A 
BRANCH 25 28
ATOM     28 OH   TYR Z  -4       1.638  11.484   8.668  1.00 43.23 LIG-0.36  OA
ATOM     29 HH   TYR Z  -4       1.021  11.917   9.041  1.00 43.23 LIG 0.22  HD
ENDBRANCH 25 28
ENDBRANCH 21 22
ENDBRANCH 1 21
TORSDOF 11
ENDMDL
MODEL 9
USER: ADFR SOLUTION from run 157
USER: SCORE 8.816030 LL:  -1.172 LR:  -8.124 RR:   0.000 FEB:  -4.843
USER: RMSD 8.541620
USER: SEED 156
USER: STATUS no improvement in best in 33 clusters for 5 generations
USER: GENES 13
USER: genes 0 Translation |==|  0.76777 0.74042 0.45337
USER: genes 1 Rotation |==|  0.49883 0.17740 0.15388 0.66164
USER: genes 2 Torsion [C]-CA--N-[C] |==|  0.20485
USER: genes 3 Torsion [N]-C--CA-[N] |==|  0.19596
USER: genes 4 Torsion [C]-CA--N-[H1] |==|  0.68174
USER: genes 5 Torsion [C]-CA--CB-[OG] |==|  0.25473
USER: genes 6 Torsion [CA]-CB--OG-[HG] |==|  0.92000
USER: genes 7 Torsion [N]-CA--C-[N] |==|  0.10801
USER: genes 8 Torsion [C]-N--CA-[C] |==|  0.64774
USER: genes 9 Torsion [N]-CA--C-[O] |==|  0.90402
USER: genes 10 Torsion [N]-CA--CB-[CG] |==|  0.59617
USER: genes 11 Torsion [CA]-CB--CG-[CD2] |==|  0.39482
USER: genes 12 Torsion [CE2]-CZ--OH-[HH] |==|  0.68725
ROOT
ATOM      1  CA  TYR Z  -4       7.494  18.256   8.451  1.00 44.41 LIG 0.18  C 
ENDROOT
BRANCH 1 2
ATOM      2  N   TYR Z  -4       7.964  19.155   9.498  1.00 49.32 LIG-0.35  N 
ATOM      3 H    TYR Z  -4       8.721  18.935   9.842  1.00 49.32 LIG 0.16  HD
ATOM      4  C   SER Z  -5       7.260  20.219   9.870  1.00 53.16 LIG 0.25  C 
ATOM      5 O    SER Z  -5       6.136  20.468   9.431  1.00 46.54 LIG-0.27  OA
BRANCH 4 6
ATOM      6  CA  SER Z  -5       7.921  21.141  10.890  1.00 61.82 LIG 0.30  C 
BRANCH 6 7
ATOM      7  N   SER Z  -5       9.032  21.859  10.275  1.00 64.85 LIG-0.06  N 
ATOM      8 H1   SER Z  -5       9.796  21.605  10.653  1.00 64.85 LIG 0.28  HD
ATOM      9 H3   SER Z  -5       8.921  22.734  10.391  1.00 64.85 LIG 0.28  HD
ATOM     10 H2   SER Z  -5       9.057  21.677   9.404  1.00 64.85 LIG 0.28  HD
ENDBRANCH 6 7
BRANCH 6 11
ATOM     11  CB  SER Z  -5       6.898  22.123  11.470  1.00 66.88 LIG 0.21  C 
BRANCH 11 12
ATOM     12 OG   SER Z  -5       6.299  21.610  12.649  1.00 63.67 LIG-0.40  OA
ATOM     13 HG   SER Z  -5       6.289  20.770  12.617  1.00 63.67 LIG 0.21  HD
ENDBRANCH 11 12
ENDBRANCH 6 11
ENDBRANCH 4 6
ENDBRANCH 1 2
BRANCH 1 14
ATOM     14  C   TYR Z  -4       7.634  18.892   7.076  1.00 48.17 LIG 0.24  C 
ATOM     15  N   GLY Z  -3       8.731  19.614   6.877  1.00 50.01 LIG-0.35  N 
ATOM     16 H    GLY Z  -3       9.361  19.700   7.455  1.00 50.01 LIG 0.16  HD
ATOM     17 O    TYR Z  -4       6.761  18.748   6.221  1.00 57.82 LIG-0.27  OA
BRANCH 15 18
ATOM     18  CA  GLY Z  -3       8.955  20.330   5.634  1.00 64.94 LIG 0.21  C 
BRANCH 18 19
ATOM     19  C   GLY Z  -3      10.294  19.992   5.012  1.00 70.96 LIG 0.21  C 
ATOM     20 O    GLY Z  -3      11.274  19.757   5.720  1.00 75.87 LIG-0.29  OA
ENDBRANCH 18 19
ENDBRANCH 15 18
ENDBRANCH 1 14
BRANCH 1 21
ATOM     21  CB  TYR Z  -4       6.042  17.842   8.725  1.00 44.24 LIG 0.07  C 
BRANCH 21 22
ATOM     22  CG  TYR Z  -4       5.769  16.419   8.288  1.00 50.17 LIG-0.06  A 
ATOM     23  CD2 TYR Z  -4       4.943  15.588   9.035  1.00 45.93 LIG 0.01  A 
ATOM     24  CE2 TYR Z  -4       4.672  14.295   8.626  1.00 43.59 LIG 0.04  A 
ATOM     25  CZ  TYR Z  -4       5.223  13.820   7.454  1.00 44.55 LIG 0.07  A 
ATOM     26  CE1 TYR Z  -4       6.039  14.628   6.689  1.00 43.60 LIG 0.04  A 
ATOM     27  CD1 TYR Z  -4       6.305  15.921   7.106  1.00 43.85 LIG 0.01  A 
BRANCH 25 28
ATOM     28 OH   TYR Z  -4       4.956  12.534   7.045  1.00 43.23 LIG-0.36  OA
ATOM     29 HH   TYR Z  -4       5.658  12.075   7.087  1.00 43.23 LIG 0.22  HD
ENDBRANCH 25 28
ENDBRANCH 21 22
ENDBRANCH 1 21
TORSDOF 11
ENDMDL
MODEL 10
USER: ADFR SOLUTION from run 3
USER: SCORE 9.383236 LL:  -1.470 LR:  -8.045 RR:   0.000 FEB:  -4.763
USER: RMSD 8.084453
USER: SEED 508899
USER: STATUS no improvement in best in 36 clusters for 5 generations
USER: GENES 13
USER: genes 0 Translation |==|  0.68211 0.71858 0.38361
USER: genes 1 Rotation |==|  0.12268 0.76751 0.32236 0.56717
USER: genes 2 Torsion [C]-CA--N-[C] |==|  0.67981
USER: genes 3 Torsion [N]-C--CA-[N] |==|  0.91147
USER: genes 4 Torsion [C]-CA--N-[H1] |==|  0.00682
USER: genes 5 Torsion [C]-CA--CB-[OG] |==|  0.68217
USER: genes 6 Torsion [CA]-CB--OG-[HG] |==|  0.12619
USER: genes 7 Torsion [N]-CA--C-[N] |==|  0.43285
USER: genes 8 Torsion [C]-N--CA-[C] |==|  0.56090
USER: genes 9 Torsion [N]-CA--C-[O] |==|  0.52026
USER: genes 10 Torsion [N]-CA--CB-[CG] |==|  0.84513
USER: genes 11 Torsion [CA]-CB--CG-[CD2] |==|  0.23384
USER: genes 12 Torsion [CE2]-CZ--OH-[HH] |==|  0.09719
ROOT
ATOM      1  CA  TYR Z  -4       6.081  17.880   7.404  1.00 44.41 LIG 0.18  C 
ENDROOT
BRANCH 1 2
ATOM      2  N   TYR Z  -4       5.714  17.576   6.026  1.00 49.32 LIG-0.35  N 
ATOM      3 H    TYR Z  -4       6.380  17.393   5.513  1.00 49.32 LIG 0.16  HD
ATOM      4  C   SER Z  -5       4.448  17.588   5.623  1.00 53.16 LIG 0.25  C 
ATOM      5 O    SER Z  -5       3.516  17.941   6.348  1.00 46.54 LIG-0.27  OA
BRANCH 4 6
ATOM      6  CA  SER Z  -5       4.192  17.135   4.189  1.00 61.82 LIG 0.30  C 
BRANCH 6 7
ATOM      7  N   SER Z  -5       5.326  17.484   3.341  1.00 64.85 LIG-0.06  N 
ATOM      8 H1   SER Z  -5       5.962  17.863   3.835  1.00 64.85 LIG 0.28  HD
ATOM      9 H3   SER Z  -5       5.061  18.054   2.711  1.00 64.85 LIG 0.28  HD
ATOM     10 H2   SER Z  -5       5.648  16.748   2.958  1.00 64.85 LIG 0.28  HD
ENDBRANCH 6 7
BRANCH 6 11
ATOM     11  CB  SER Z  -5       3.925  15.627   4.142  1.00 66.88 LIG 0.21  C 
BRANCH 11 12
ATOM     12 OG   SER Z  -5       4.950  14.942   3.439  1.00 63.67 LIG-0.40  OA
ATOM     13 HG   SER Z  -5       5.700  15.223   3.692  1.00 63.67 LIG 0.21  HD
ENDBRANCH 11 12
ENDBRANCH 6 11
ENDBRANCH 4 6
ENDBRANCH 1 2
BRANCH 1 14
ATOM     14  C   TYR Z  -4       6.911  19.151   7.485  1.00 48.17 LIG 0.24  C 
ATOM     15  N   GLY Z  -3       6.884  19.792   8.648  1.00 50.01 LIG-0.35  N 
ATOM     16 H    GLY Z  -3       6.466  19.508   9.343  1.00 50.01 LIG 0.16  HD
ATOM     17 O    TYR Z  -4       7.548  19.553   6.512  1.00 57.82 LIG-0.27  OA
BRANCH 15 18
ATOM     18  CA  GLY Z  -3       7.576  21.053   8.838  1.00 64.94 LIG 0.21  C 
BRANCH 18 19
ATOM     19  C   GLY Z  -3       7.865  21.333  10.299  1.00 70.96 LIG 0.21  C 
ATOM     20 O    GLY Z  -3       8.326  22.420  10.650  1.00 75.87 LIG-0.29  OA
ENDBRANCH 18 19
ENDBRANCH 15 18
ENDBRANCH 1 14
BRANCH 1 21
ATOM     21  CB  TYR Z  -4       6.826  16.690   8.025  1.00 44.24 LIG 0.07  C 
BRANCH 21 22
ATOM     22  CG  TYR Z  -4       6.020  15.413   7.941  1.00 50.17 LIG-0.06  A 
ATOM     23  CD2 TYR Z  -4       6.042  14.628   6.794  1.00 45.93 LIG 0.01  A 
ATOM     24  CE2 TYR Z  -4       5.326  13.447   6.722  1.00 43.59 LIG 0.04  A 
ATOM     25  CZ  TYR Z  -4       4.581  13.033   7.807  1.00 44.55 LIG 0.07  A 
ATOM     26  CE1 TYR Z  -4       4.550  13.790   8.961  1.00 43.60 LIG 0.04  A 
ATOM     27  CD1 TYR Z  -4       5.270  14.970   9.024  1.00 43.85 LIG 0.01  A 
BRANCH 25 28
ATOM     28 OH   TYR Z  -4       3.866  11.860   7.739  1.00 43.23 LIG-0.36  OA
ATOM     29 HH   TYR Z  -4       4.290  11.300   7.277  1.00 43.23 LIG 0.22  HD
ENDBRANCH 25 28
ENDBRANCH 21 22
ENDBRANCH 1 21
TORSDOF 11
ENDMDL
MODEL 11
USER: ADFR SOLUTION from run 144
USER: SCORE 8.916997 LL:  -1.432 LR:  -8.019 RR:   0.000 FEB:  -4.737
USER: RMSD 5.117978
USER: SEED 143
USER: STATUS no improvement in best in 39 clusters for 5 generations
USER: GENES 13
USER: genes 0 Translation |==|  0.40100 0.35988 0.40142
USER: genes 1 Rotation |==|  0.15516 0.32668 0.75139 0.69454
USER: genes 2 Torsion [C]-CA--N-[C] |==|  0.59451
USER: genes 3 Torsion [N]-C--CA-[N] |==|  0.48076
USER: genes 4 Torsion [C]-CA--N-[H1] |==|  0.74564
USER: genes 5 Torsion [C]-CA--CB-[OG] |==|  0.88712
USER: genes 6 Torsion [CA]-CB--OG-[HG] |==|  0.84398
USER: genes 7 Torsion [N]-CA--C-[N] |==|  0.09440
USER: genes 8 Torsion [C]-N--CA-[C] |==|  0.58022
USER: genes 9 Torsion [N]-CA--C-[O] |==|  0.09165
USER: genes 10 Torsion [N]-CA--CB-[CG] |==|  0.68163
USER: genes 11 Torsion [CA]-CB--CG-[CD2] |==|  0.80763
USER: genes 12 Torsion [CE2]-CZ--OH-[HH] |==|  0.58992
ROOT
ATOM      1  CA  TYR Z  -4       1.442  11.692   7.671  1.00 44.41 LIG 0.18  C 
ENDROOT
BRANCH 1 2
ATOM      2  N   TYR Z  -4       0.705  11.011   6.614  1.00 49.32 LIG-0.35  N 
ATOM      3 H    TYR Z  -4      -0.142  10.954   6.751  1.00 49.32 LIG 0.16  HD
ATOM      4  C   SER Z  -5       1.317  10.528   5.537  1.00 53.16 LIG 0.25  C 
ATOM      5 O    SER Z  -5       2.542  10.538   5.400  1.00 46.54 LIG-0.27  OA
BRANCH 4 6
ATOM      6  CA  SER Z  -5       0.415   9.948   4.453  1.00 61.82 LIG 0.30  C 
BRANCH 6 7
ATOM      7  N   SER Z  -5       1.200   9.609   3.272  1.00 64.85 LIG-0.06  N 
ATOM      8 H1   SER Z  -5       1.214  10.302   2.714  1.00 64.85 LIG 0.28  HD
ATOM      9 H3   SER Z  -5       0.835   8.908   2.863  1.00 64.85 LIG 0.28  HD
ATOM     10 H2   SER Z  -5       2.033   9.409   3.516  1.00 64.85 LIG 0.28  HD
ENDBRANCH 6 7
BRANCH 6 11
ATOM     11  CB  SER Z  -5      -0.332   8.717   4.977  1.00 66.88 LIG 0.21  C 
BRANCH 11 12
ATOM     12 OG   SER Z  -5       0.510   7.903   5.778  1.00 63.67 LIG-0.40  OA
ATOM     13 HG   SER Z  -5       1.191   7.685   5.337  1.00 63.67 LIG 0.21  HD
ENDBRANCH 11 12
ENDBRANCH 6 11
ENDBRANCH 4 6
ENDBRANCH 1 2
BRANCH 1 14
ATOM     14  C   TYR Z  -4       0.826  11.420   9.035  1.00 48.17 LIG 0.24  C 
ATOM     15  N   GLY Z  -3       0.290  10.216   9.202  1.00 50.01 LIG-0.35  N 
ATOM     16 H    GLY Z  -3       0.312   9.595   8.610  1.00 50.01 LIG 0.16  HD
ATOM     17 O    TYR Z  -4       0.821  12.285   9.910  1.00 57.82 LIG-0.27  OA
BRANCH 15 18
ATOM     18  CA  GLY Z  -3      -0.391   9.851  10.431  1.00 64.94 LIG 0.21  C 
BRANCH 18 19
ATOM     19  C   GLY Z  -3      -0.302   8.366  10.715  1.00 70.96 LIG 0.21  C 
ATOM     20 O    GLY Z  -3       0.694   7.721  10.384  1.00 75.87 LIG-0.29  OA
ENDBRANCH 18 19
ENDBRANCH 15 18
ENDBRANCH 1 14
BRANCH 1 21
ATOM     21  CB  TYR Z  -4       1.507  13.198   7.383  1.00 44.24 LIG 0.07  C 
BRANCH 21 22
ATOM     22  CG  TYR Z  -4       2.923  13.662   7.121  1.00 50.17 LIG-0.06  A 
ATOM     23  CD2 TYR Z  -4       3.867  13.689   8.141  1.00 45.93 LIG 0.01  A 
ATOM     24  CE2 TYR Z  -4       5.169  14.089   7.900  1.00 43.59 LIG 0.04  A 
ATOM     25  CZ  TYR Z  -4       5.543  14.462   6.625  1.00 44.55 LIG 0.07  A 
ATOM     26  CE1 TYR Z  -4       4.628  14.434   5.593  1.00 43.60 LIG 0.04  A 
ATOM     27  CD1 TYR Z  -4       3.327  14.033   5.844  1.00 43.85 LIG 0.01  A 
BRANCH 25 28
ATOM     28 OH   TYR Z  -4       6.837  14.861   6.382  1.00 43.23 LIG-0.36  OA
ATOM     29 HH   TYR Z  -4       6.842  15.441   5.774  1.00 43.23 LIG 0.22  HD
ENDBRANCH 25 28
ENDBRANCH 21 22
ENDBRANCH 1 21
TORSDOF 11
ENDMDL
MODEL 12
USER: ADFR SOLUTION from run 148
USER: SCORE 9.307750 LL:  -1.445 LR:  -7.948 RR:   0.000 FEB:  -4.667
USER: RMSD 8.093516
USER: SEED 147
USER: STATUS no improvement in best in 19 clusters for 5 generations
USER: GENES 13
USER: genes 0 Translation |==|  0.68490 0.71285 0.35887
USER: genes 1 Rotation |==|  0.12706 0.75910 0.29100 0.51024
USER: genes 2 Torsion [C]-CA--N-[C] |==|  0.76885
USER: genes 3 Torsion [N]-C--CA-[N] |==|  0.81603
USER: genes 4 Torsion [C]-CA--N-[H1] |==|  0.97242
USER: genes 5 Torsion [C]-CA--CB-[OG] |==|  0.71006
USER: genes 6 Torsion [CA]-CB--OG-[HG] |==|  0.12317
USER: genes 7 Torsion [N]-CA--C-[N] |==|  0.92440
USER: genes 8 Torsion [C]-N--CA-[C] |==|  0.24100
USER: genes 9 Torsion [N]-CA--C-[O] |==|  0.40920
USER: genes 10 Torsion [N]-CA--CB-[CG] |==|  0.87380
USER: genes 11 Torsion [CA]-CB--CG-[CD2] |==|  0.21263
USER: genes 12 Torsion [CE2]-CZ--OH-[HH] |==|  0.05746
ROOT
ATOM      1  CA  TYR Z  -4       6.127  17.781   7.033  1.00 44.41 LIG 0.18  C 
ENDROOT
BRANCH 1 2
ATOM      2  N   TYR Z  -4       5.701  17.179   5.775  1.00 49.32 LIG-0.35  N 
ATOM      3 H    TYR Z  -4       6.160  16.492   5.536  1.00 49.32 LIG 0.16  HD
ATOM      4  C   SER Z  -5       4.685  17.674   5.075  1.00 53.16 LIG 0.25  C 
ATOM      5 O    SER Z  -5       4.098  18.712   5.385  1.00 46.54 LIG-0.27  OA
BRANCH 4 6
ATOM      6  CA  SER Z  -5       4.267  16.880   3.842  1.00 61.82 LIG 0.30  C 
BRANCH 6 7
ATOM      7  N   SER Z  -5       5.326  16.908   2.840  1.00 64.85 LIG-0.06  N 
ATOM      8 H1   SER Z  -5       5.947  17.498   3.081  1.00 64.85 LIG 0.28  HD
ATOM      9 H3   SER Z  -5       4.984  17.143   2.053  1.00 64.85 LIG 0.28  HD
ATOM     10 H2   SER Z  -5       5.694  16.101   2.775  1.00 64.85 LIG 0.28  HD
ENDBRANCH 6 7
BRANCH 6 11
ATOM     11  CB  SER Z  -5       3.922  15.436   4.224  1.00 66.88 LIG 0.21  C 
BRANCH 11 12
ATOM     12 OG   SER Z  -5       4.956  14.540   3.845  1.00 63.67 LIG-0.40  OA
ATOM     13 HG   SER Z  -5       5.701  14.868   4.052  1.00 63.67 LIG 0.21  HD
ENDBRANCH 11 12
ENDBRANCH 6 11
ENDBRANCH 4 6
ENDBRANCH 1 2
BRANCH 1 14
ATOM     14  C   TYR Z  -4       7.056  18.960   6.792  1.00 48.17 LIG 0.24  C 
ATOM     15  N   GLY Z  -3       7.762  18.926   5.668  1.00 50.01 LIG-0.35  N 
ATOM     16 H    GLY Z  -3       7.689  18.310   5.074  1.00 50.01 LIG 0.16  HD
ATOM     17 O    TYR Z  -4       7.146  19.872   7.614  1.00 57.82 LIG-0.27  OA
BRANCH 15 18
ATOM     18  CA  GLY Z  -3       8.736  19.953   5.350  1.00 64.94 LIG 0.21  C 
BRANCH 18 19
ATOM     19  C   GLY Z  -3      10.099  19.653   5.939  1.00 70.96 LIG 0.21  C 
ATOM     20 O    GLY Z  -3      11.126  20.000   5.354  1.00 75.87 LIG-0.29  OA
ENDBRANCH 18 19
ENDBRANCH 15 18
ENDBRANCH 1 14
BRANCH 1 21
ATOM     21  CB  TYR Z  -4       6.792  16.723   7.924  1.00 44.24 LIG 0.07  C 
BRANCH 21 22
ATOM     22  CG  TYR Z  -4       5.998  15.436   7.960  1.00 50.17 LIG-0.06  A 
ATOM     23  CD2 TYR Z  -4       6.031  14.545   6.894  1.00 45.93 LIG 0.01  A 
ATOM     24  CE2 TYR Z  -4       5.327  13.355   6.933  1.00 43.59 LIG 0.04  A 
ATOM     25  CZ  TYR Z  -4       4.582  13.040   8.051  1.00 44.55 LIG 0.07  A 
ATOM     26  CE1 TYR Z  -4       4.539  13.903   9.127  1.00 43.60 LIG 0.04  A 
ATOM     27  CD1 TYR Z  -4       5.248  15.091   9.078  1.00 43.85 LIG 0.01  A 
BRANCH 25 28
ATOM     28 OH   TYR Z  -4       3.878  11.859   8.093  1.00 43.23 LIG-0.36  OA
ATOM     29 HH   TYR Z  -4       4.201  11.320   7.535  1.00 43.23 LIG 0.22  HD
ENDBRANCH 25 28
ENDBRANCH 21 22
ENDBRANCH 1 21
TORSDOF 11
ENDMDL
MODEL 13
USER: ADFR SOLUTION from run 109
USER: SCORE 9.030065 LL:  -1.275 LR:  -7.942 RR:   0.000 FEB:  -4.661
USER: RMSD 5.716164
USER: SEED 108
USER: STATUS no improvement in best in 21 clusters for 5 generations
USER: GENES 13
USER: genes 0 Translation |==|  0.61672 0.49359 0.30448
USER: genes 1 Rotation |==|  0.19099 0.31165 0.49000 0.84487
USER: genes 2 Torsion [C]-CA--N-[C] |==|  0.87121
USER: genes 3 Torsion [N]-C--CA-[N] |==|  0.95137
USER: genes 4 Torsion [C]-CA--N-[H1] |==|  0.60882
USER: genes 5 Torsion [C]-CA--CB-[OG] |==|  0.86378
USER: genes 6 Torsion [CA]-CB--OG-[HG] |==|  0.86204
USER: genes 7 Torsion [N]-CA--C-[N] |==|  0.37513
USER: genes 8 Torsion [C]-N--CA-[C] |==|  0.26566
USER: genes 9 Torsion [N]-CA--C-[O] |==|  0.98567
USER: genes 10 Torsion [N]-CA--CB-[CG] |==|  0.36432
USER: genes 11 Torsion [CA]-CB--CG-[CD2] |==|  0.22716
USER: genes 12 Torsion [CE2]-CZ--OH-[HH] |==|  0.22445
ROOT
ATOM      1  CA  TYR Z  -4       5.002  13.998   6.217  1.00 44.41 LIG 0.18  C 
ENDROOT
BRANCH 1 2
ATOM      2  N   TYR Z  -4       4.960  14.813   5.009  1.00 49.32 LIG-0.35  N 
ATOM      3 H    TYR Z  -4       5.430  15.532   5.048  1.00 49.32 LIG 0.16  HD
ATOM      4  C   SER Z  -5       4.246  14.450   3.948  1.00 53.16 LIG 0.25  C 
ATOM      5 O    SER Z  -5       3.507  13.463   3.942  1.00 46.54 LIG-0.27  OA
BRANCH 4 6
ATOM      6  CA  SER Z  -5       4.385  15.328   2.709  1.00 61.82 LIG 0.30  C 
BRANCH 6 7
ATOM      7  N   SER Z  -5       4.959  16.620   3.069  1.00 64.85 LIG-0.06  N 
ATOM      8 H1   SER Z  -5       4.558  17.263   2.602  1.00 64.85 LIG 0.28  HD
ATOM      9 H3   SER Z  -5       5.829  16.620   2.886  1.00 64.85 LIG 0.28  HD
ATOM     10 H2   SER Z  -5       4.839  16.766   3.938  1.00 64.85 LIG 0.28  HD
ENDBRANCH 6 7
BRANCH 6 11
ATOM     11  CB  SER Z  -5       5.246  14.631   1.650  1.00 66.88 LIG 0.21  C 
BRANCH 11 12
ATOM     12 OG   SER Z  -5       6.452  14.134   2.208  1.00 63.67 LIG-0.40  OA
ATOM     13 HG   SER Z  -5       6.825  14.739   2.655  1.00 63.67 LIG 0.21  HD
ENDBRANCH 11 12
ENDBRANCH 6 11
ENDBRANCH 4 6
ENDBRANCH 1 2
BRANCH 1 14
ATOM     14  C   TYR Z  -4       3.608  13.549   6.627  1.00 48.17 LIG 0.24  C 
ATOM     15  N   GLY Z  -3       3.485  12.274   6.975  1.00 50.01 LIG-0.35  N 
ATOM     16 H    GLY Z  -3       4.142  11.722   7.017  1.00 50.01 LIG 0.16  HD
ATOM     17 O    TYR Z  -4       2.661  14.335   6.611  1.00 57.82 LIG-0.27  OA
BRANCH 15 18
ATOM     18  CA  GLY Z  -3       2.197  11.700   7.321  1.00 64.94 LIG 0.21  C 
BRANCH 18 19
ATOM     19  C   GLY Z  -3       1.544  11.006   6.143  1.00 70.96 LIG 0.21  C 
ATOM     20 O    GLY Z  -3       2.056  11.054   5.024  1.00 75.87 LIG-0.29  OA
ENDBRANCH 18 19
ENDBRANCH 15 18
ENDBRANCH 1 14
BRANCH 1 21
ATOM     21  CB  TYR Z  -4       5.690  14.772   7.350  1.00 44.24 LIG 0.07  C 
BRANCH 21 22
ATOM     22  CG  TYR Z  -4       4.887  14.731   8.631  1.00 50.17 LIG-0.06  A 
ATOM     23  CD2 TYR Z  -4       4.955  13.636   9.484  1.00 45.93 LIG 0.01  A 
ATOM     24  CE2 TYR Z  -4       4.241  13.606  10.668  1.00 43.59 LIG 0.04  A 
ATOM     25  CZ  TYR Z  -4       3.451  14.682  11.015  1.00 44.55 LIG 0.07  A 
ATOM     26  CE1 TYR Z  -4       3.373  15.785  10.191  1.00 43.60 LIG 0.04  A 
ATOM     27  CD1 TYR Z  -4       4.091  15.807   9.008  1.00 43.85 LIG 0.01  A 
BRANCH 25 28
ATOM     28 OH   TYR Z  -4       2.738  14.655  12.192  1.00 43.23 LIG-0.36  OA
ATOM     29 HH   TYR Z  -4       3.244  14.858  12.831  1.00 43.23 LIG 0.22  HD
ENDBRANCH 25 28
ENDBRANCH 21 22
ENDBRANCH 1 21
TORSDOF 11
ENDMDL
MODEL 14
USER: ADFR SOLUTION from run 112
USER: SCORE 8.244722 LL:  -1.281 LR:  -7.893 RR:   0.000 FEB:  -4.612
USER: RMSD 5.074470
USER: SEED 111
USER: STATUS no improvement in best in 31 clusters for 5 generations
USER: GENES 13
USER: genes 0 Translation |==|  0.47543 0.37550 0.38179
USER: genes 1 Rotation |==|  0.24336 0.11935 0.32386 0.59064
USER: genes 2 Torsion [C]-CA--N-[C] |==|  0.21234
USER: genes 3 Torsion [N]-C--CA-[N] |==|  0.45824
USER: genes 4 Torsion [C]-CA--N-[H1] |==|  0.67436
USER: genes 5 Torsion [C]-CA--CB-[OG] |==|  0.60804
USER: genes 6 Torsion [CA]-CB--OG-[HG] |==|  0.91703
USER: genes 7 Torsion [N]-CA--C-[N] |==|  0.42493
USER: genes 8 Torsion [C]-N--CA-[C] |==|  0.42174
USER: genes 9 Torsion [N]-CA--C-[O] |==|  0.03797
USER: genes 10 Torsion [N]-CA--CB-[CG] |==|  0.79195
USER: genes 11 Torsion [CA]-CB--CG-[CD2] |==|  0.09016
USER: genes 12 Torsion [CE2]-CZ--OH-[HH] |==|  0.10191
ROOT
ATOM      1  CA  TYR Z  -4       2.671  11.961   7.377  1.00 44.41 LIG 0.18  C 
ENDROOT
BRANCH 1 2
ATOM      2  N   TYR Z  -4       3.948  12.578   7.042  1.00 49.32 LIG-0.35  N 
ATOM      3 H    TYR Z  -4       4.637  12.142   7.317  1.00 49.32 LIG 0.16  HD
ATOM      4  C   SER Z  -5       4.014  13.720   6.365  1.00 53.16 LIG 0.25  C 
ATOM      5 O    SER Z  -5       3.018  14.377   6.058  1.00 46.54 LIG-0.27  OA
BRANCH 4 6
ATOM      6  CA  SER Z  -5       5.411  14.193   5.976  1.00 61.82 LIG 0.30  C 
BRANCH 6 7
ATOM      7  N   SER Z  -5       5.326  15.234   4.958  1.00 64.85 LIG-0.06  N 
ATOM      8 H1   SER Z  -5       5.719  14.953   4.211  1.00 64.85 LIG 0.28  HD
ATOM      9 H3   SER Z  -5       5.736  15.968   5.249  1.00 64.85 LIG 0.28  HD
ATOM     10 H2   SER Z  -5       4.471  15.418   4.792  1.00 64.85 LIG 0.28  HD
ENDBRANCH 6 7
BRANCH 6 11
ATOM     11  CB  SER Z  -5       6.169  14.701   7.207  1.00 66.88 LIG 0.21  C 
BRANCH 11 12
ATOM     12 OG   SER Z  -5       6.945  15.849   6.900  1.00 63.67 LIG-0.40  OA
ATOM     13 HG   SER Z  -5       7.186  15.818   6.095  1.00 63.67 LIG 0.21  HD
ENDBRANCH 11 12
ENDBRANCH 6 11
ENDBRANCH 4 6
ENDBRANCH 1 2
BRANCH 1 14
ATOM     14  C   TYR Z  -4       2.057  11.274   6.167  1.00 48.17 LIG 0.24  C 
ATOM     15  N   GLY Z  -3       1.245  10.255   6.424  1.00 50.01 LIG-0.35  N 
ATOM     16 H    GLY Z  -3       1.028  10.003   7.217  1.00 50.01 LIG 0.16  HD
ATOM     17 O    TYR Z  -4       2.326  11.646   5.025  1.00 57.82 LIG-0.27  OA
BRANCH 15 18
ATOM     18  CA  GLY Z  -3       0.648   9.470   5.360  1.00 64.94 LIG 0.21  C 
BRANCH 18 19
ATOM     19  C   GLY Z  -3       0.358   8.047   5.791  1.00 70.96 LIG 0.21  C 
ATOM     20 O    GLY Z  -3       0.386   7.734   6.982  1.00 75.87 LIG-0.29  OA
ENDBRANCH 18 19
ENDBRANCH 15 18
ENDBRANCH 1 14
BRANCH 1 21
ATOM     21  CB  TYR Z  -4       1.716  13.012   7.961  1.00 44.24 LIG 0.07  C 
BRANCH 21 22
ATOM     22  CG  TYR Z  -4       2.083  13.379   9.382  1.00 50.17 LIG-0.06  A 
ATOM     23  CD2 TYR Z  -4       3.407  13.375   9.803  1.00 45.93 LIG 0.01  A 
ATOM     24  CE2 TYR Z  -4       3.749  13.734  11.094  1.00 43.59 LIG 0.04  A 
ATOM     25  CZ  TYR Z  -4       2.761  14.109  11.982  1.00 44.55 LIG 0.07  A 
ATOM     26  CE1 TYR Z  -4       1.439  14.130  11.586  1.00 43.60 LIG 0.04  A 
ATOM     27  CD1 TYR Z  -4       1.107  13.769  10.292  1.00 43.85 LIG 0.01  A 
BRANCH 25 28
ATOM     28 OH   TYR Z  -4       3.097  14.465  13.267  1.00 43.23 LIG-0.36  OA
ATOM     29 HH   TYR Z  -4       3.826  14.884  13.261  1.00 43.23 LIG 0.22  HD
ENDBRANCH 25 28
ENDBRANCH 21 22
ENDBRANCH 1 21
TORSDOF 11
ENDMDL
MODEL 15
USER: ADFR SOLUTION from run 167
USER: SCORE 8.423098 LL:  -1.500 LR:  -7.891 RR:   0.000 FEB:  -4.610
USER: RMSD 6.175920
USER: SEED 166
USER: STATUS no improvement in best in 32 clusters for 5 generations
USER: GENES 13
USER: genes 0 Translation |==|  0.70958 0.56816 0.35186
USER: genes 1 Rotation |==|  0.33887 0.28058 0.29395 0.86529
USER: genes 2 Torsion [C]-CA--N-[C] |==|  0.23191
USER: genes 3 Torsion [N]-C--CA-[N] |==|  0.59002
USER: genes 4 Torsion [C]-CA--N-[H1] |==|  0.16913
USER: genes 5 Torsion [C]-CA--CB-[OG] |==|  0.80481
USER: genes 6 Torsion [CA]-CB--OG-[HG] |==|  0.81165
USER: genes 7 Torsion [N]-CA--C-[N] |==|  0.40719
USER: genes 8 Torsion [C]-N--CA-[C] |==|  0.64372
USER: genes 9 Torsion [N]-CA--C-[O] |==|  0.89527
USER: genes 10 Torsion [N]-CA--CB-[CG] |==|  0.39016
USER: genes 11 Torsion [CA]-CB--CG-[CD2] |==|  0.74304
USER: genes 12 Torsion [CE2]-CZ--OH-[HH] |==|  0.00369
ROOT
ATOM      1  CA  TYR Z  -4       6.534  15.285   6.928  1.00 44.41 LIG 0.18  C 
ENDROOT
BRANCH 1 2
ATOM      2  N   TYR Z  -4       7.195  16.580   6.818  1.00 49.32 LIG-0.35  N 
ATOM      3 H    TYR Z  -4       7.739  16.646   6.155  1.00 49.32 LIG 0.16  HD
ATOM      4  C   SER Z  -5       6.958  17.558   7.685  1.00 53.16 LIG 0.25  C 
ATOM      5 O    SER Z  -5       6.246  17.416   8.681  1.00 46.54 LIG-0.27  OA
BRANCH 4 6
ATOM      6  CA  SER Z  -5       7.622  18.899   7.387  1.00 61.82 LIG 0.30  C 
BRANCH 6 7
ATOM      7  N   SER Z  -5       7.951  19.587   8.629  1.00 64.85 LIG-0.06  N 
ATOM      8 H1   SER Z  -5       8.520  19.092   9.102  1.00 64.85 LIG 0.28  HD
ATOM      9 H3   SER Z  -5       7.209  19.717   9.102  1.00 64.85 LIG 0.28  HD
ATOM     10 H2   SER Z  -5       8.326  20.372   8.444  1.00 64.85 LIG 0.28  HD
ENDBRANCH 6 7
BRANCH 6 11
ATOM     11  CB  SER Z  -5       8.877  18.698   6.531  1.00 66.88 LIG 0.21  C 
BRANCH 11 12
ATOM     12 OG   SER Z  -5       9.917  18.080   7.274  1.00 63.67 LIG-0.40  OA
ATOM     13 HG   SER Z  -5      10.190  18.609   7.867  1.00 63.67 LIG 0.21  HD
ENDBRANCH 11 12
ENDBRANCH 6 11
ENDBRANCH 4 6
ENDBRANCH 1 2
BRANCH 1 14
ATOM     14  C   TYR Z  -4       5.156  15.315   6.286  1.00 48.17 LIG 0.24  C 
ATOM     15  N   GLY Z  -3       4.757  14.187   5.710  1.00 50.01 LIG-0.35  N 
ATOM     16 H    GLY Z  -3       5.209  13.456   5.719  1.00 50.01 LIG 0.16  HD
ATOM     17 O    TYR Z  -4       4.476  16.340   6.296  1.00 57.82 LIG-0.27  OA
BRANCH 15 18
ATOM     18  CA  GLY Z  -3       3.493  14.100   5.002  1.00 64.94 LIG 0.21  C 
BRANCH 18 19
ATOM     19  C   GLY Z  -3       2.651  12.932   5.474  1.00 70.96 LIG 0.21  C 
ATOM     20 O    GLY Z  -3       3.176  11.859   5.772  1.00 75.87 LIG-0.29  OA
ENDBRANCH 18 19
ENDBRANCH 15 18
ENDBRANCH 1 14
BRANCH 1 21
ATOM     21  CB  TYR Z  -4       6.451  14.859   8.400  1.00 44.24 LIG 0.07  C 
BRANCH 21 22
ATOM     22  CG  TYR Z  -4       5.129  14.199   8.723  1.00 50.17 LIG-0.06  A 
ATOM     23  CD2 TYR Z  -4       4.058  14.941   9.205  1.00 45.93 LIG 0.01  A 
ATOM     24  CE2 TYR Z  -4       2.840  14.345   9.478  1.00 43.59 LIG 0.04  A 
ATOM     25  CZ  TYR Z  -4       2.679  12.992   9.263  1.00 44.55 LIG 0.07  A 
ATOM     26  CE1 TYR Z  -4       3.724  12.234   8.775  1.00 43.60 LIG 0.04  A 
ATOM     27  CD1 TYR Z  -4       4.939  12.839   8.505  1.00 43.85 LIG 0.01  A 
BRANCH 25 28
ATOM     28 OH   TYR Z  -4       1.469  12.396   9.534  1.00 43.23 LIG-0.36  OA
ATOM     29 HH   TYR Z  -4       0.924  12.976   9.804  1.00 43.23 LIG 0.22  HD
ENDBRANCH 25 28
ENDBRANCH 21 22
ENDBRANCH 1 21
TORSDOF 11
ENDMDL
MODEL 16
USER: ADFR SOLUTION from run 153
USER: SCORE 8.554007 LL:  -1.313 LR:  -7.815 RR:   0.000 FEB:  -4.534
USER: RMSD 7.031011
USER: SEED 152
USER: STATUS no improvement in best in 35 clusters for 5 generations
USER: GENES 13
USER: genes 0 Translation |==|  0.58623 0.68691 0.46717
USER: genes 1 Rotation |==|  0.27981 0.62394 0.27623 0.86889
USER: genes 2 Torsion [C]-CA--N-[C] |==|  0.15198
USER: genes 3 Torsion [N]-C--CA-[N] |==|  0.45642
USER: genes 4 Torsion [C]-CA--N-[H1] |==|  0.46060
USER: genes 5 Torsion [C]-CA--CB-[OG] |==|  0.83893
USER: genes 6 Torsion [CA]-CB--OG-[HG] |==|  0.85133
USER: genes 7 Torsion [N]-CA--C-[N] |==|  0.64450
USER: genes 8 Torsion [C]-N--CA-[C] |==|  0.69399
USER: genes 9 Torsion [N]-CA--C-[O] |==|  0.73015
USER: genes 10 Torsion [N]-CA--CB-[CG] |==|  0.70072
USER: genes 11 Torsion [CA]-CB--CG-[CD2] |==|  0.68921
USER: genes 12 Torsion [CE2]-CZ--OH-[HH] |==|  0.72551
ROOT
ATOM      1  CA  TYR Z  -4       4.499  17.333   8.658  1.00 44.41 LIG 0.18  C 
ENDROOT
BRANCH 1 2
ATOM      2  N   TYR Z  -4       5.461  18.210   8.001  1.00 49.32 LIG-0.35  N 
ATOM      3 H    TYR Z  -4       5.372  18.259   7.147  1.00 49.32 LIG 0.16  HD
ATOM      4  C   SER Z  -5       6.388  18.868   8.690  1.00 53.16 LIG 0.25  C 
ATOM      5 O    SER Z  -5       6.558  18.715   9.901  1.00 46.54 LIG-0.27  OA
BRANCH 4 6
ATOM      6  CA  SER Z  -5       7.251  19.843   7.897  1.00 61.82 LIG 0.30  C 
BRANCH 6 7
ATOM      7  N   SER Z  -5       7.951  20.748   8.802  1.00 64.85 LIG-0.06  N 
ATOM      8 H1   SER Z  -5       8.598  21.169   8.360  1.00 64.85 LIG 0.28  HD
ATOM      9 H3   SER Z  -5       8.305  20.282   9.473  1.00 64.85 LIG 0.28  HD
ATOM     10 H2   SER Z  -5       7.377  21.345   9.127  1.00 64.85 LIG 0.28  HD
ENDBRANCH 6 7
BRANCH 6 11
ATOM     11  CB  SER Z  -5       8.248  19.084   7.015  1.00 66.88 LIG 0.21  C 
BRANCH 11 12
ATOM     12 OG   SER Z  -5       9.080  18.233   7.788  1.00 63.67 LIG-0.40  OA
ATOM     13 HG   SER Z  -5       9.445  18.678   8.400  1.00 63.67 LIG 0.21  HD
ENDBRANCH 11 12
ENDBRANCH 6 11
ENDBRANCH 4 6
ENDBRANCH 1 2
BRANCH 1 14
ATOM     14  C   TYR Z  -4       3.748  18.066   9.758  1.00 48.17 LIG 0.24  C 
ATOM     15  N   GLY Z  -3       3.739  17.479  10.949  1.00 50.01 LIG-0.35  N 
ATOM     16 H    GLY Z  -3       4.158  16.751  11.128  1.00 50.01 LIG 0.16  HD
ATOM     17 O    TYR Z  -4       3.174  19.131   9.530  1.00 57.82 LIG-0.27  OA
BRANCH 15 18
ATOM     18  CA  GLY Z  -3       3.002  18.038  12.067  1.00 64.94 LIG 0.21  C 
BRANCH 18 19
ATOM     19  C   GLY Z  -3       3.919  18.590  13.140  1.00 70.96 LIG 0.21  C 
ATOM     20 O    GLY Z  -3       4.203  17.915  14.130  1.00 75.87 LIG-0.29  OA
ENDBRANCH 18 19
ENDBRANCH 15 18
ENDBRANCH 1 14
BRANCH 1 21
ATOM     21  CB  TYR Z  -4       5.210  16.089   9.206  1.00 44.24 LIG 0.07  C 
BRANCH 21 22
ATOM     22  CG  TYR Z  -4       4.885  14.851   8.399  1.00 50.17 LIG-0.06  A 
ATOM     23  CD2 TYR Z  -4       4.127  13.821   8.943  1.00 45.93 LIG 0.01  A 
ATOM     24  CE2 TYR Z  -4       3.807  12.700   8.200  1.00 43.59 LIG 0.04  A 
ATOM     25  CZ  TYR Z  -4       4.239  12.600   6.894  1.00 44.55 LIG 0.07  A 
ATOM     26  CE1 TYR Z  -4       4.985  13.613   6.327  1.00 43.60 LIG 0.04  A 
ATOM     27  CD1 TYR Z  -4       5.300  14.732   7.078  1.00 43.85 LIG 0.01  A 
BRANCH 25 28
ATOM     28 OH   TYR Z  -4       3.923  11.485   6.152  1.00 43.23 LIG-0.36  OA
ATOM     29 HH   TYR Z  -4       4.576  10.955   6.150  1.00 43.23 LIG 0.22  HD
ENDBRANCH 25 28
ENDBRANCH 21 22
ENDBRANCH 1 21
TORSDOF 11
ENDMDL
MODEL 17
USER: ADFR SOLUTION from run 173
USER: SCORE 8.738032 LL:  -1.472 LR:  -7.798 RR:   0.000 FEB:  -4.517
USER: RMSD 5.922629
USER: SEED 172
USER: STATUS no improvement in best in 35 clusters for 5 generations
USER: GENES 13
USER: genes 0 Translation |==|  0.58056 0.62540 0.51044
USER: genes 1 Rotation |==|  0.45403 0.56250 0.26356 0.93368
USER: genes 2 Torsion [C]-CA--N-[C] |==|  0.64069
USER: genes 3 Torsion [N]-C--CA-[N] |==|  0.42030
USER: genes 4 Torsion [C]-CA--N-[H1] |==|  0.66607
USER: genes 5 Torsion [C]-CA--CB-[OG] |==|  0.52923
USER: genes 6 Torsion [CA]-CB--OG-[HG] |==|  0.07631
USER: genes 7 Torsion [N]-CA--C-[N] |==|  0.82250
USER: genes 8 Torsion [C]-N--CA-[C] |==|  0.31624
USER: genes 9 Torsion [N]-CA--C-[O] |==|  0.03652
USER: genes 10 Torsion [N]-CA--CB-[CG] |==|  0.58330
USER: genes 11 Torsion [CA]-CB--CG-[CD2] |==|  0.72284
USER: genes 12 Torsion [CE2]-CZ--OH-[HH] |==|  0.08859
ROOT
ATOM      1  CA  TYR Z  -4       4.405  16.272   9.307  1.00 44.41 LIG 0.18  C 
ENDROOT
BRANCH 1 2
ATOM      2  N   TYR Z  -4       5.414  17.218   9.768  1.00 49.32 LIG-0.35  N 
ATOM      3 H    TYR Z  -4       5.495  17.262  10.623  1.00 49.32 LIG 0.16  HD
ATOM      4  C   SER Z  -5       6.135  17.939   8.916  1.00 53.16 LIG 0.25  C 
ATOM      5 O    SER Z  -5       5.942  17.930   7.699  1.00 46.54 LIG-0.27  OA
BRANCH 4 6
ATOM      6  CA  SER Z  -5       7.238  18.799   9.525  1.00 61.82 LIG 0.30  C 
BRANCH 6 7
ATOM      7  N   SER Z  -5       8.324  18.978   8.569  1.00 64.85 LIG-0.06  N 
ATOM      8 H1   SER Z  -5       9.078  18.653   8.911  1.00 64.85 LIG 0.28  HD
ATOM      9 H3   SER Z  -5       8.427  19.844   8.395  1.00 64.85 LIG 0.28  HD
ATOM     10 H2   SER Z  -5       8.130  18.546   7.815  1.00 64.85 LIG 0.28  HD
ENDBRANCH 6 7
BRANCH 6 11
ATOM     11  CB  SER Z  -5       6.679  20.155   9.969  1.00 66.88 LIG 0.21  C 
BRANCH 11 12
ATOM     12 OG   SER Z  -5       7.719  21.056  10.314  1.00 63.67 LIG-0.40  OA
ATOM     13 HG   SER Z  -5       8.415  20.859   9.885  1.00 63.67 LIG 0.21  HD
ENDBRANCH 11 12
ENDBRANCH 6 11
ENDBRANCH 4 6
ENDBRANCH 1 2
BRANCH 1 14
ATOM     14  C   TYR Z  -4       3.078  16.494  10.016  1.00 48.17 LIG 0.24  C 
ATOM     15  N   GLY Z  -3       3.076  16.285  11.327  1.00 50.01 LIG-0.35  N 
ATOM     16 H    GLY Z  -3       3.776  16.078  11.781  1.00 50.01 LIG 0.16  HD
ATOM     17 O    TYR Z  -4       2.074  16.829   9.388  1.00 57.82 LIG-0.27  OA
BRANCH 15 18
ATOM     18  CA  GLY Z  -3       1.861  16.395  12.113  1.00 64.94 LIG 0.21  C 
BRANCH 18 19
ATOM     19  C   GLY Z  -3       1.432  15.062  12.693  1.00 70.96 LIG 0.21  C 
ATOM     20 O    GLY Z  -3       2.200  14.099  12.689  1.00 75.87 LIG-0.29  OA
ENDBRANCH 18 19
ENDBRANCH 15 18
ENDBRANCH 1 14
BRANCH 1 21
ATOM     21  CB  TYR Z  -4       4.904  14.834   9.500  1.00 44.24 LIG 0.07  C 
BRANCH 21 22
ATOM     22  CG  TYR Z  -4       4.330  13.893   8.463  1.00 50.17 LIG-0.06  A 
ATOM     23  CD2 TYR Z  -4       3.248  13.074   8.762  1.00 45.93 LIG 0.01  A 
ATOM     24  CE2 TYR Z  -4       2.704  12.231   7.810  1.00 43.59 LIG 0.04  A 
ATOM     25  CZ  TYR Z  -4       3.238  12.204   6.538  1.00 44.55 LIG 0.07  A 
ATOM     26  CE1 TYR Z  -4       4.306  13.015   6.212  1.00 43.60 LIG 0.04  A 
ATOM     27  CD1 TYR Z  -4       4.843  13.856   7.172  1.00 43.85 LIG 0.01  A 
BRANCH 25 28
ATOM     28 OH   TYR Z  -4       2.701  11.366   5.589  1.00 43.23 LIG-0.36  OA
ATOM     29 HH   TYR Z  -4       1.877  11.278   5.726  1.00 43.23 LIG 0.22  HD
ENDBRANCH 25 28
ENDBRANCH 21 22
ENDBRANCH 1 21
TORSDOF 11
ENDMDL
MODEL 18
USER: ADFR SOLUTION from run 4
USER: SCORE 8.728343 LL:  -1.625 LR:  -7.769 RR:   0.000 FEB:  -4.488
USER: RMSD 5.174079
USER: SEED 37686
USER: STATUS no improvement in best in 28 clusters for 5 generations
USER: GENES 13
USER: genes 0 Translation |==|  0.44569 0.41751 0.42263
USER: genes 1 Rotation |==|  0.97260 0.35983 0.56417 0.55366
USER: genes 2 Torsion [C]-CA--N-[C] |==|  0.21082
USER: genes 3 Torsion [N]-C--CA-[N] |==|  0.50040
USER: genes 4 Torsion [C]-CA--N-[H1] |==|  0.48501
USER: genes 5 Torsion [C]-CA--CB-[OG] |==|  0.71833
USER: genes 6 Torsion [CA]-CB--OG-[HG] |==|  0.88346
USER: genes 7 Torsion [N]-CA--C-[N] |==|  0.86660
USER: genes 8 Torsion [C]-N--CA-[C] |==|  0.39321
USER: genes 9 Torsion [N]-CA--C-[O] |==|  0.04812
USER: genes 10 Torsion [N]-CA--CB-[CG] |==|  0.37908
USER: genes 11 Torsion [CA]-CB--CG-[CD2] |==|  0.23735
USER: genes 12 Torsion [CE2]-CZ--OH-[HH] |==|  0.53690
ROOT
ATOM      1  CA  TYR Z  -4       2.180  12.686   7.990  1.00 44.41 LIG 0.18  C 
ENDROOT
BRANCH 1 2
ATOM      2  N   TYR Z  -4       1.396  11.667   7.303  1.00 49.32 LIG-0.35  N 
ATOM      3 H    TYR Z  -4       0.654  11.468   7.691  1.00 49.32 LIG 0.16  HD
ATOM      4  C   SER Z  -5       1.816  11.108   6.173  1.00 53.16 LIG 0.25  C 
ATOM      5 O    SER Z  -5       2.922  11.339   5.680  1.00 46.54 LIG-0.27  OA
BRANCH 4 6
ATOM      6  CA  SER Z  -5       0.846  10.146   5.495  1.00 61.82 LIG 0.30  C 
BRANCH 6 7
ATOM      7  N   SER Z  -5       1.437   9.609   4.275  1.00 64.85 LIG-0.06  N 
ATOM      8 H1   SER Z  -5       0.897   8.991   3.930  1.00 64.85 LIG 0.28  HD
ATOM      9 H3   SER Z  -5       2.225   9.241   4.464  1.00 64.85 LIG 0.28  HD
ATOM     10 H2   SER Z  -5       1.550  10.266   3.686  1.00 64.85 LIG 0.28  HD
ENDBRANCH 6 7
BRANCH 6 11
ATOM     11  CB  SER Z  -5       0.457   9.013   6.451  1.00 66.88 LIG 0.21  C 
BRANCH 11 12
ATOM     12 OG   SER Z  -5       1.171   7.822   6.160  1.00 63.67 LIG-0.40  OA
ATOM     13 HG   SER Z  -5       1.205   7.711   5.328  1.00 63.67 LIG 0.21  HD
ENDBRANCH 11 12
ENDBRANCH 6 11
ENDBRANCH 4 6
ENDBRANCH 1 2
BRANCH 1 14
ATOM     14  C   TYR Z  -4       2.078  14.028   7.281  1.00 48.17 LIG 0.24  C 
ATOM     15  N   GLY Z  -3       2.263  14.009   5.967  1.00 50.01 LIG-0.35  N 
ATOM     16 H    GLY Z  -3       2.392  13.292   5.510  1.00 50.01 LIG 0.16  HD
ATOM     17 O    TYR Z  -4       1.855  15.060   7.913  1.00 57.82 LIG-0.27  OA
BRANCH 15 18
ATOM     18  CA  GLY Z  -3       2.260  15.229   5.180  1.00 64.94 LIG 0.21  C 
BRANCH 18 19
ATOM     19  C   GLY Z  -3       3.300  15.202   4.078  1.00 70.96 LIG 0.21  C 
ATOM     20 O    GLY Z  -3       3.805  14.138   3.717  1.00 75.87 LIG-0.29  OA
ENDBRANCH 18 19
ENDBRANCH 15 18
ENDBRANCH 1 14
BRANCH 1 21
ATOM     21  CB  TYR Z  -4       3.641  12.233   8.112  1.00 44.24 LIG 0.07  C 
BRANCH 21 22
ATOM     22  CG  TYR Z  -4       4.607  13.351   7.788  1.00 50.17 LIG-0.06  A 
ATOM     23  CD2 TYR Z  -4       4.997  14.263   8.762  1.00 45.93 LIG 0.01  A 
ATOM     24  CE2 TYR Z  -4       5.900  15.271   8.476  1.00 43.59 LIG 0.04  A 
ATOM     25  CZ  TYR Z  -4       6.430  15.374   7.207  1.00 44.55 LIG 0.07  A 
ATOM     26  CE1 TYR Z  -4       6.067  14.475   6.225  1.00 43.60 LIG 0.04  A 
ATOM     27  CD1 TYR Z  -4       5.163  13.469   6.520  1.00 43.85 LIG 0.01  A 
BRANCH 25 28
ATOM     28 OH   TYR Z  -4       7.327  16.376   6.919  1.00 43.23 LIG-0.36  OA
ATOM     29 HH   TYR Z  -4       7.426  16.434   6.087  1.00 43.23 LIG 0.22  HD
ENDBRANCH 25 28
ENDBRANCH 21 22
ENDBRANCH 1 21
TORSDOF 11
ENDMDL
MODEL 19
USER: ADFR SOLUTION from run 101
USER: SCORE 8.849559 LL:  -1.238 LR:  -7.739 RR:   0.000 FEB:  -4.458
USER: RMSD 6.059521
USER: SEED 100
USER: STATUS no improvement in best in 28 clusters for 5 generations
USER: GENES 13
USER: genes 0 Translation |==|  0.54522 0.64755 0.55376
USER: genes 1 Rotation |==|  0.15374 0.19739 0.62117 0.65443
USER: genes 2 Torsion [C]-CA--N-[C] |==|  0.72785
USER: genes 3 Torsion [N]-C--CA-[N] |==|  0.24003
USER: genes 4 Torsion [C]-CA--N-[H1] |==|  0.95537
USER: genes 5 Torsion [C]-CA--CB-[OG] |==|  0.14203
USER: genes 6 Torsion [CA]-CB--OG-[HG] |==|  0.54691
USER: genes 7 Torsion [N]-CA--C-[N] |==|  0.34526
USER: genes 8 Torsion [C]-N--CA-[C] |==|  0.60472
USER: genes 9 Torsion [N]-CA--C-[O] |==|  0.04885
USER: genes 10 Torsion [N]-CA--CB-[CG] |==|  0.76418
USER: genes 11 Torsion [CA]-CB--CG-[CD2] |==|  0.10171
USER: genes 12 Torsion [CE2]-CZ--OH-[HH] |==|  0.00049
ROOT
ATOM      1  CA  TYR Z  -4       3.822  16.654   9.956  1.00 44.41 LIG 0.18  C 
ENDROOT
BRANCH 1 2
ATOM      2  N   TYR Z  -4       4.030  16.342   8.548  1.00 49.32 LIG-0.35  N 
ATOM      3 H    TYR Z  -4       3.490  16.743   8.011  1.00 49.32 LIG 0.16  HD
ATOM      4  C   SER Z  -5       4.983  15.504   8.153  1.00 53.16 LIG 0.25  C 
ATOM      5 O    SER Z  -5       5.687  14.869   8.941  1.00 46.54 LIG-0.27  OA
BRANCH 4 6
ATOM      6  CA  SER Z  -5       5.171  15.358   6.647  1.00 61.82 LIG 0.30  C 
BRANCH 6 7
ATOM      7  N   SER Z  -5       6.076  16.389   6.150  1.00 64.85 LIG-0.06  N 
ATOM      8 H1   SER Z  -5       6.158  17.032   6.760  1.00 64.85 LIG 0.28  HD
ATOM      9 H3   SER Z  -5       5.749  16.734   5.398  1.00 64.85 LIG 0.28  HD
ATOM     10 H2   SER Z  -5       6.874  16.030   5.989  1.00 64.85 LIG 0.28  HD
ENDBRANCH 6 7
BRANCH 6 11
ATOM     11  CB  SER Z  -5       5.701  13.962   6.303  1.00 66.88 LIG 0.21  C 
BRANCH 11 12
ATOM     12 OG   SER Z  -5       4.913  12.947   6.904  1.00 63.67 LIG-0.40  OA
ATOM     13 HG   SER Z  -5       5.338  12.223   6.901  1.00 63.67 LIG 0.21  HD
ENDBRANCH 11 12
ENDBRANCH 6 11
ENDBRANCH 4 6
ENDBRANCH 1 2
BRANCH 1 14
ATOM     14  C   TYR Z  -4       2.695  15.820  10.544  1.00 48.17 LIG 0.24  C 
ATOM     15  N   GLY Z  -3       3.001  15.098  11.616  1.00 50.01 LIG-0.35  N 
ATOM     16 H    GLY Z  -3       3.769  15.113  12.002  1.00 50.01 LIG 0.16  HD
ATOM     17 O    TYR Z  -4       1.577  15.815  10.029  1.00 57.82 LIG-0.27  OA
BRANCH 15 18
ATOM     18  CA  GLY Z  -3       2.038  14.206  12.234  1.00 64.94 LIG 0.21  C 
BRANCH 18 19
ATOM     19  C   GLY Z  -3       2.145  14.205  13.745  1.00 70.96 LIG 0.21  C 
ATOM     20 O    GLY Z  -3       2.731  15.114  14.334  1.00 75.87 LIG-0.29  OA
ENDBRANCH 18 19
ENDBRANCH 15 18
ENDBRANCH 1 14
BRANCH 1 21
ATOM     21  CB  TYR Z  -4       3.549  18.155  10.129  1.00 44.24 LIG 0.07  C 
BRANCH 21 22
ATOM     22  CG  TYR Z  -4       4.830  18.954  10.220  1.00 50.17 LIG-0.06  A 
ATOM     23  CD2 TYR Z  -4       5.944  18.609   9.464  1.00 45.93 LIG 0.01  A 
ATOM     24  CE2 TYR Z  -4       7.109  19.352   9.526  1.00 43.59 LIG 0.04  A 
ATOM     25  CZ  TYR Z  -4       7.169  20.460  10.345  1.00 44.55 LIG 0.07  A 
ATOM     26  CE1 TYR Z  -4       6.074  20.830  11.099  1.00 43.60 LIG 0.04  A 
ATOM     27  CD1 TYR Z  -4       4.912  20.080  11.031  1.00 43.85 LIG 0.01  A 
BRANCH 25 28
ATOM     28 OH   TYR Z  -4       8.326  21.200  10.410  1.00 43.23 LIG-0.36  OA
ATOM     29 HH   TYR Z  -4       8.904  20.864   9.901  1.00 43.23 LIG 0.22  HD
ENDBRANCH 25 28
ENDBRANCH 21 22
ENDBRANCH 1 21
TORSDOF 11
ENDMDL
MODEL 20
USER: ADFR SOLUTION from run 64
USER: SCORE 9.304660 LL:  -1.625 LR:  -7.729 RR:   0.000 FEB:  -4.447
USER: RMSD 6.743245
USER: SEED 63
USER: STATUS no improvement in best in 30 clusters for 5 generations
USER: GENES 13
USER: genes 0 Translation |==|  0.72836 0.71150 0.36192
USER: genes 1 Rotation |==|  0.60914 0.44263 0.32330 0.95119
USER: genes 2 Torsion [C]-CA--N-[C] |==|  0.77802
USER: genes 3 Torsion [N]-C--CA-[N] |==|  0.10048
USER: genes 4 Torsion [C]-CA--N-[H1] |==|  0.37021
USER: genes 5 Torsion [C]-CA--CB-[OG] |==|  0.62187
USER: genes 6 Torsion [CA]-CB--OG-[HG] |==|  0.19894
USER: genes 7 Torsion [N]-CA--C-[N] |==|  0.44904
USER: genes 8 Torsion [C]-N--CA-[C] |==|  0.61641
USER: genes 9 Torsion [N]-CA--C-[O] |==|  0.22347
USER: genes 10 Torsion [N]-CA--CB-[CG] |==|  0.29028
USER: genes 11 Torsion [CA]-CB--CG-[CD2] |==|  0.27242
USER: genes 12 Torsion [CE2]-CZ--OH-[HH] |==|  0.14596
ROOT
ATOM      1  CA  TYR Z  -4       6.844  17.757   7.079  1.00 44.41 LIG 0.18  C 
ENDROOT
BRANCH 1 2
ATOM      2  N   TYR Z  -4       7.016  18.514   8.313  1.00 49.32 LIG-0.35  N 
ATOM      3 H    TYR Z  -4       7.172  18.031   9.007  1.00 49.32 LIG 0.16  HD
ATOM      4  C   SER Z  -5       6.933  19.840   8.334  1.00 53.16 LIG 0.25  C 
ATOM      5 O    SER Z  -5       6.618  20.509   7.348  1.00 46.54 LIG-0.27  OA
BRANCH 4 6
ATOM      6  CA  SER Z  -5       7.252  20.515   9.664  1.00 61.82 LIG 0.30  C 
BRANCH 6 7
ATOM      7  N   SER Z  -5       8.326  19.801  10.346  1.00 64.85 LIG-0.06  N 
ATOM      8 H1   SER Z  -5       8.929  20.385  10.642  1.00 64.85 LIG 0.28  HD
ATOM      9 H3   SER Z  -5       8.714  19.236   9.779  1.00 64.85 LIG 0.28  HD
ATOM     10 H2   SER Z  -5       7.991  19.347  11.034  1.00 64.85 LIG 0.28  HD
ENDBRANCH 6 7
BRANCH 6 11
ATOM     11  CB  SER Z  -5       7.632  21.983   9.446  1.00 66.88 LIG 0.21  C 
BRANCH 11 12
ATOM     12 OG   SER Z  -5       8.764  22.346  10.221  1.00 63.67 LIG-0.40  OA
ATOM     13 HG   SER Z  -5       9.452  21.984   9.900  1.00 63.67 LIG 0.21  HD
ENDBRANCH 11 12
ENDBRANCH 6 11
ENDBRANCH 4 6
ENDBRANCH 1 2
BRANCH 1 14
ATOM     14  C   TYR Z  -4       5.372  17.593   6.735  1.00 48.17 LIG 0.24  C 
ATOM     15  N   GLY Z  -3       5.100  17.266   5.477  1.00 50.01 LIG-0.35  N 
ATOM     16 H    GLY Z  -3       5.700  17.110   4.881  1.00 50.01 LIG 0.16  HD
ATOM     17 O    TYR Z  -4       4.500  17.776   7.584  1.00 57.82 LIG-0.27  OA
BRANCH 15 18
ATOM     18  CA  GLY Z  -3       3.735  17.146   5.000  1.00 64.94 LIG 0.21  C 
BRANCH 18 19
ATOM     19  C   GLY Z  -3       3.547  15.944   4.097  1.00 70.96 LIG 0.21  C 
ATOM     20 O    GLY Z  -3       3.400  14.818   4.575  1.00 75.87 LIG-0.29  OA
ENDBRANCH 18 19
ENDBRANCH 15 18
ENDBRANCH 1 14
BRANCH 1 21
ATOM     21  CB  TYR Z  -4       7.541  16.395   7.195  1.00 44.24 LIG 0.07  C 
BRANCH 21 22
ATOM     22  CG  TYR Z  -4       6.552  15.271   7.404  1.00 50.17 LIG-0.06  A 
ATOM     23  CD2 TYR Z  -4       6.125  14.486   6.339  1.00 45.93 LIG 0.01  A 
ATOM     24  CE2 TYR Z  -4       5.240  13.441   6.530  1.00 43.59 LIG 0.04  A 
ATOM     25  CZ  TYR Z  -4       4.774  13.165   7.799  1.00 44.55 LIG 0.07  A 
ATOM     26  CE1 TYR Z  -4       5.189  13.923   8.875  1.00 43.60 LIG 0.04  A 
ATOM     27  CD1 TYR Z  -4       6.076  14.967   8.674  1.00 43.85 LIG 0.01  A 
BRANCH 25 28
ATOM     28 OH   TYR Z  -4       3.892  12.127   7.993  1.00 43.23 LIG-0.36  OA
ATOM     29 HH   TYR Z  -4       4.205  11.425   7.652  1.00 43.23 LIG 0.22  HD
ENDBRANCH 25 28
ENDBRANCH 21 22
ENDBRANCH 1 21
TORSDOF 11
ENDMDL
MODEL 21
USER: ADFR SOLUTION from run 108
USER: SCORE 9.078447 LL:  -1.497 LR:  -7.721 RR:   0.000 FEB:  -4.440
USER: RMSD 4.831352
USER: SEED 107
USER: STATUS no improvement in best in 22 clusters for 5 generations
USER: GENES 13
USER: genes 0 Translation |==|  0.64047 0.49334 0.33418
USER: genes 1 Rotation |==|  0.26963 0.28215 0.47261 0.88564
USER: genes 2 Torsion [C]-CA--N-[C] |==|  0.13889
USER: genes 3 Torsion [N]-C--CA-[N] |==|  0.84538
USER: genes 4 Torsion [C]-CA--N-[H1] |==|  0.00475
USER: genes 5 Torsion [C]-CA--CB-[OG] |==|  0.70351
USER: genes 6 Torsion [CA]-CB--OG-[HG] |==|  0.11395
USER: genes 7 Torsion [N]-CA--C-[N] |==|  0.09505
USER: genes 8 Torsion [C]-N--CA-[C] |==|  0.83160
USER: genes 9 Torsion [N]-CA--C-[O] |==|  0.71465
USER: genes 10 Torsion [N]-CA--CB-[CG] |==|  0.96096
USER: genes 11 Torsion [CA]-CB--CG-[CD2] |==|  0.82315
USER: genes 12 Torsion [CE2]-CZ--OH-[HH] |==|  0.75866
ROOT
ATOM      1  CA  TYR Z  -4       5.394  13.994   6.663  1.00 44.41 LIG 0.18  C 
ENDROOT
BRANCH 1 2
ATOM      2  N   TYR Z  -4       5.277  15.158   5.793  1.00 49.32 LIG-0.35  N 
ATOM      3 H    TYR Z  -4       5.886  15.212   5.187  1.00 49.32 LIG 0.16  HD
ATOM      4  C   SER Z  -5       4.302  16.047   5.946  1.00 53.16 LIG 0.25  C 
ATOM      5 O    SER Z  -5       3.493  16.004   6.875  1.00 46.54 LIG-0.27  OA
BRANCH 4 6
ATOM      6  CA  SER Z  -5       4.224  17.151   4.896  1.00 61.82 LIG 0.30  C 
BRANCH 6 7
ATOM      7  N   SER Z  -5       5.497  17.859   4.814  1.00 64.85 LIG-0.06  N 
ATOM      8 H1   SER Z  -5       6.079  17.491   5.377  1.00 64.85 LIG 0.28  HD
ATOM      9 H3   SER Z  -5       5.375  18.714   5.029  1.00 64.85 LIG 0.28  HD
ATOM     10 H2   SER Z  -5       5.814  17.805   3.984  1.00 64.85 LIG 0.28  HD
ENDBRANCH 6 7
BRANCH 6 11
ATOM     11  CB  SER Z  -5       3.841  16.568   3.531  1.00 66.88 LIG 0.21  C 
BRANCH 11 12
ATOM     12 OG   SER Z  -5       4.951  16.547   2.647  1.00 63.67 LIG-0.40  OA
ATOM     13 HG   SER Z  -5       5.639  16.308   3.066  1.00 63.67 LIG 0.21  HD
ENDBRANCH 11 12
ENDBRANCH 6 11
ENDBRANCH 4 6
ENDBRANCH 1 2
BRANCH 1 14
ATOM     14  C   TYR Z  -4       4.070  13.253   6.769  1.00 48.17 LIG 0.24  C 
ATOM     15  N   GLY Z  -3       3.314  13.249   5.677  1.00 50.01 LIG-0.35  N 
ATOM     16 H    GLY Z  -3       3.551  13.600   4.929  1.00 50.01 LIG 0.16  HD
ATOM     17 O    TYR Z  -4       3.733  12.710   7.821  1.00 57.82 LIG-0.27  OA
BRANCH 15 18
ATOM     18  CA  GLY Z  -3       1.999  12.637   5.665  1.00 64.94 LIG 0.21  C 
BRANCH 18 19
ATOM     19  C   GLY Z  -3       2.053  11.155   5.979  1.00 70.96 LIG 0.21  C 
ATOM     20 O    GLY Z  -3       1.951  10.319   5.081  1.00 75.87 LIG-0.29  OA
ENDBRANCH 18 19
ENDBRANCH 15 18
ENDBRANCH 1 14
BRANCH 1 21
ATOM     21  CB  TYR Z  -4       5.904  14.419   8.046  1.00 44.24 LIG 0.07  C 
BRANCH 21 22
ATOM     22  CG  TYR Z  -4       6.463  15.825   8.034  1.00 50.17 LIG-0.06  A 
ATOM     23  CD2 TYR Z  -4       7.583  16.143   7.275  1.00 45.93 LIG 0.01  A 
ATOM     24  CE2 TYR Z  -4       8.082  17.432   7.242  1.00 43.59 LIG 0.04  A 
ATOM     25  CZ  TYR Z  -4       7.457  18.425   7.968  1.00 44.55 LIG 0.07  A 
ATOM     26  CE1 TYR Z  -4       6.337  18.138   8.722  1.00 43.60 LIG 0.04  A 
ATOM     27  CD1 TYR Z  -4       5.845  16.844   8.749  1.00 43.85 LIG 0.01  A 
BRANCH 25 28
ATOM     28 OH   TYR Z  -4       7.951  19.708   7.939  1.00 43.23 LIG-0.36  OA
ATOM     29 HH   TYR Z  -4       8.545  19.794   8.527  1.00 43.23 LIG 0.22  HD
ENDBRANCH 25 28
ENDBRANCH 21 22
ENDBRANCH 1 21
TORSDOF 11
ENDMDL
MODEL 22
USER: ADFR SOLUTION from run 69
USER: SCORE 8.827273 LL:  -1.194 LR:  -7.705 RR:   0.000 FEB:  -4.424
USER: RMSD 6.773315
USER: SEED 68
USER: STATUS no improvement in best in 16 clusters for 5 generations
USER: GENES 13
USER: genes 0 Translation |==|  0.58977 0.71243 0.56503
USER: genes 1 Rotation |==|  0.13976 0.17234 0.50888 0.61306
USER: genes 2 Torsion [C]-CA--N-[C] |==|  0.81205
USER: genes 3 Torsion [N]-C--CA-[N] |==|  0.74263
USER: genes 4 Torsion [C]-CA--N-[H1] |==|  0.99922
USER: genes 5 Torsion [C]-CA--CB-[OG] |==|  0.29037
USER: genes 6 Torsion [CA]-CB--OG-[HG] |==|  0.60004
USER: genes 7 Torsion [N]-CA--C-[N] |==|  0.34444
USER: genes 8 Torsion [C]-N--CA-[C] |==|  0.47648
USER: genes 9 Torsion [N]-CA--C-[O] |==|  0.00512
USER: genes 10 Torsion [N]-CA--CB-[CG] |==|  0.85287
USER: genes 11 Torsion [CA]-CB--CG-[CD2] |==|  0.50159
USER: genes 12 Torsion [CE2]-CZ--OH-[HH] |==|  0.57712
ROOT
ATOM      1  CA  TYR Z  -4       4.557  17.773  10.125  1.00 44.41 LIG 0.18  C 
ENDROOT
BRANCH 1 2
ATOM      2  N   TYR Z  -4       5.366  17.650   8.919  1.00 49.32 LIG-0.35  N 
ATOM      3 H    TYR Z  -4       5.438  18.376   8.463  1.00 49.32 LIG 0.16  HD
ATOM      4  C   SER Z  -5       5.932  16.498   8.574  1.00 53.16 LIG 0.25  C 
ATOM      5 O    SER Z  -5       5.743  15.446   9.189  1.00 46.54 LIG-0.27  OA
BRANCH 4 6
ATOM      6  CA  SER Z  -5       6.849  16.535   7.356  1.00 61.82 LIG 0.30  C 
BRANCH 6 7
ATOM      7  N   SER Z  -5       6.099  16.204   6.150  1.00 64.85 LIG-0.06  N 
ATOM      8 H1   SER Z  -5       5.250  16.041   6.363  1.00 64.85 LIG 0.28  HD
ATOM      9 H3   SER Z  -5       6.453  15.483   5.769  1.00 64.85 LIG 0.28  HD
ATOM     10 H2   SER Z  -5       6.135  16.888   5.581  1.00 64.85 LIG 0.28  HD
ENDBRANCH 6 7
BRANCH 6 11
ATOM     11  CB  SER Z  -5       7.509  17.911   7.222  1.00 66.88 LIG 0.21  C 
BRANCH 11 12
ATOM     12 OG   SER Z  -5       8.868  17.876   7.628  1.00 63.67 LIG-0.40  OA
ATOM     13 HG   SER Z  -5       9.065  18.597   8.012  1.00 63.67 LIG 0.21  HD
ENDBRANCH 11 12
ENDBRANCH 6 11
ENDBRANCH 4 6
ENDBRANCH 1 2
BRANCH 1 14
ATOM     14  C   TYR Z  -4       3.267  16.978  10.007  1.00 48.17 LIG 0.24  C 
ATOM     15  N   GLY Z  -3       3.047  16.078  10.958  1.00 50.01 LIG-0.35  N 
ATOM     16 H    GLY Z  -3       3.564  15.958  11.635  1.00 50.01 LIG 0.16  HD
ATOM     17 O    TYR Z  -4       2.495  17.162   9.066  1.00 57.82 LIG-0.27  OA
BRANCH 15 18
ATOM     18  CA  GLY Z  -3       1.888  15.205  10.927  1.00 64.94 LIG 0.21  C 
BRANCH 18 19
ATOM     19  C   GLY Z  -3       1.952  14.130  11.993  1.00 70.96 LIG 0.21  C 
ATOM     20 O    GLY Z  -3       2.894  14.087  12.786  1.00 75.87 LIG-0.29  OA
ENDBRANCH 18 19
ENDBRANCH 15 18
ENDBRANCH 1 14
BRANCH 1 21
ATOM     21  CB  TYR Z  -4       4.272  19.252  10.419  1.00 44.24 LIG 0.07  C 
BRANCH 21 22
ATOM     22  CG  TYR Z  -4       5.541  20.075  10.460  1.00 50.17 LIG-0.06  A 
ATOM     23  CD2 TYR Z  -4       5.501  21.439  10.723  1.00 45.93 LIG 0.01  A 
ATOM     24  CE2 TYR Z  -4       6.661  22.189  10.786  1.00 43.59 LIG 0.04  A 
ATOM     25  CZ  TYR Z  -4       7.882  21.576  10.590  1.00 44.55 LIG 0.07  A 
ATOM     26  CE1 TYR Z  -4       7.949  20.222  10.336  1.00 43.60 LIG 0.04  A 
ATOM     27  CD1 TYR Z  -4       6.783  19.479  10.275  1.00 43.85 LIG 0.01  A 
BRANCH 25 28
ATOM     28 OH   TYR Z  -4       9.037  22.320  10.650  1.00 43.23 LIG-0.36  OA
ATOM     29 HH   TYR Z  -4       9.626  21.963  10.168  1.00 43.23 LIG 0.22  HD
ENDBRANCH 25 28
ENDBRANCH 21 22
ENDBRANCH 1 21
TORSDOF 11
ENDMDL
MODEL 23
USER: ADFR SOLUTION from run 87
USER: SCORE 9.209762 LL:  -1.593 LR:  -7.678 RR:   0.000 FEB:  -4.397
USER: RMSD 8.836460
USER: SEED 86
USER: STATUS no improvement in best in 25 clusters for 5 generations
USER: GENES 13
USER: genes 0 Translation |==|  0.78339 0.72067 0.40661
USER: genes 1 Rotation |==|  0.01728 0.53879 0.61558 0.54604
USER: genes 2 Torsion [C]-CA--N-[C] |==|  0.79999
USER: genes 3 Torsion [N]-C--CA-[N] |==|  0.99716
USER: genes 4 Torsion [C]-CA--N-[H1] |==|  0.11473
USER: genes 5 Torsion [C]-CA--CB-[OG] |==|  0.58495
USER: genes 6 Torsion [CA]-CB--OG-[HG] |==|  0.49031
USER: genes 7 Torsion [N]-CA--C-[N] |==|  0.45962
USER: genes 8 Torsion [C]-N--CA-[C] |==|  0.46093
USER: genes 9 Torsion [N]-CA--C-[O] |==|  0.28996
USER: genes 10 Torsion [N]-CA--CB-[CG] |==|  0.25062
USER: genes 11 Torsion [CA]-CB--CG-[CD2] |==|  0.32160
USER: genes 12 Torsion [CE2]-CZ--OH-[HH] |==|  0.58828
ROOT
ATOM      1  CA  TYR Z  -4       7.752  17.916   7.749  1.00 44.41 LIG 0.18  C 
ENDROOT
BRANCH 1 2
ATOM      2  N   TYR Z  -4       6.894  16.970   7.046  1.00 49.32 LIG-0.35  N 
ATOM      3 H    TYR Z  -4       7.067  16.888   6.207  1.00 49.32 LIG 0.16  HD
ATOM      4  C   SER Z  -5       5.931  16.303   7.674  1.00 53.16 LIG 0.25  C 
ATOM      5 O    SER Z  -5       5.638  16.500   8.855  1.00 46.54 LIG-0.27  OA
BRANCH 4 6
ATOM      6  CA  SER Z  -5       5.187  15.258   6.849  1.00 61.82 LIG 0.30  C 
BRANCH 6 7
ATOM      7  N   SER Z  -5       5.701  15.233   5.485  1.00 64.85 LIG-0.06  N 
ATOM      8 H1   SER Z  -5       6.588  15.302   5.499  1.00 64.85 LIG 0.28  HD
ATOM      9 H3   SER Z  -5       5.359  15.913   5.025  1.00 64.85 LIG 0.28  HD
ATOM     10 H2   SER Z  -5       5.471  14.467   5.094  1.00 64.85 LIG 0.28  HD
ENDBRANCH 6 7
BRANCH 6 11
ATOM     11  CB  SER Z  -5       5.308  13.875   7.498  1.00 66.88 LIG 0.21  C 
BRANCH 11 12
ATOM     12 OG   SER Z  -5       5.282  12.842   6.525  1.00 63.67 LIG-0.40  OA
ATOM     13 HG   SER Z  -5       5.398  12.100   6.900  1.00 63.67 LIG 0.21  HD
ENDBRANCH 11 12
ENDBRANCH 6 11
ENDBRANCH 4 6
ENDBRANCH 1 2
BRANCH 1 14
ATOM     14  C   TYR Z  -4       6.994  19.183   8.111  1.00 48.17 LIG 0.24  C 
ATOM     15  N   GLY Z  -3       7.576  19.977   9.003  1.00 50.01 LIG-0.35  N 
ATOM     16 H    GLY Z  -3       8.353  19.830   9.340  1.00 50.01 LIG 0.16  HD
ATOM     17 O    TYR Z  -4       5.897  19.429   7.609  1.00 57.82 LIG-0.27  OA
BRANCH 15 18
ATOM     18  CA  GLY Z  -3       6.929  21.182   9.487  1.00 64.94 LIG 0.21  C 
BRANCH 18 19
ATOM     19  C   GLY Z  -3       7.605  21.738  10.723  1.00 70.96 LIG 0.21  C 
ATOM     20 O    GLY Z  -3       8.325  22.734  10.650  1.00 75.87 LIG-0.29  OA
ENDBRANCH 18 19
ENDBRANCH 15 18
ENDBRANCH 1 14
BRANCH 1 21
ATOM     21  CB  TYR Z  -4       8.991  18.234   6.901  1.00 44.24 LIG 0.07  C 
BRANCH 21 22
ATOM     22  CG  TYR Z  -4       8.763  19.422   5.993  1.00 50.17 LIG-0.06  A 
ATOM     23  CD2 TYR Z  -4       9.496  20.593   6.150  1.00 45.93 LIG 0.01  A 
ATOM     24  CE2 TYR Z  -4       9.308  21.673   5.306  1.00 43.59 LIG 0.04  A 
ATOM     25  CZ  TYR Z  -4       8.383  21.589   4.286  1.00 44.55 LIG 0.07  A 
ATOM     26  CE1 TYR Z  -4       7.649  20.435   4.103  1.00 43.60 LIG 0.04  A 
ATOM     27  CD1 TYR Z  -4       7.844  19.359   4.953  1.00 43.85 LIG 0.01  A 
BRANCH 25 28
ATOM     28 OH   TYR Z  -4       8.192  22.661   3.447  1.00 43.23 LIG-0.36  OA
ATOM     29 HH   TYR Z  -4       7.391  22.680   3.192  1.00 43.23 LIG 0.22  HD
ENDBRANCH 25 28
ENDBRANCH 21 22
ENDBRANCH 1 21
TORSDOF 11
ENDMDL
MODEL 24
USER: ADFR SOLUTION from run 60
USER: SCORE 8.297841 LL:  -1.295 LR:  -7.646 RR:   0.000 FEB:  -4.365
USER: RMSD 9.193157
USER: SEED 59
USER: STATUS no improvement in best in 26 clusters for 5 generations
USER: GENES 13
USER: genes 0 Translation |==|  0.82596 0.75321 0.34530
USER: genes 1 Rotation |==|  0.61281 0.18534 0.13977 0.59218
USER: genes 2 Torsion [C]-CA--N-[C] |==|  0.17162
USER: genes 3 Torsion [N]-C--CA-[N] |==|  0.99461
USER: genes 4 Torsion [C]-CA--N-[H1] |==|  0.99242
USER: genes 5 Torsion [C]-CA--CB-[OG] |==|  0.67178
USER: genes 6 Torsion [CA]-CB--OG-[HG] |==|  0.16545
USER: genes 7 Torsion [N]-CA--C-[N] |==|  0.61667
USER: genes 8 Torsion [C]-N--CA-[C] |==|  0.17596
USER: genes 9 Torsion [N]-CA--C-[O] |==|  0.27425
USER: genes 10 Torsion [N]-CA--CB-[CG] |==|  0.84092
USER: genes 11 Torsion [CA]-CB--CG-[CD2] |==|  0.75015
USER: genes 12 Torsion [CE2]-CZ--OH-[HH] |==|  0.35222
ROOT
ATOM      1  CA  TYR Z  -4       8.454  18.477   6.829  1.00 44.41 LIG 0.18  C 
ENDROOT
BRANCH 1 2
ATOM      2  N   TYR Z  -4       8.270  19.140   8.115  1.00 49.32 LIG-0.35  N 
ATOM      3 H    TYR Z  -4       8.687  18.769   8.769  1.00 49.32 LIG 0.16  HD
ATOM      4  C   SER Z  -5       7.514  20.226   8.236  1.00 53.16 LIG 0.25  C 
ATOM      5 O    SER Z  -5       6.852  20.691   7.307  1.00 46.54 LIG-0.27  OA
BRANCH 4 6
ATOM      6  CA  SER Z  -5       7.504  20.890   9.610  1.00 61.82 LIG 0.30  C 
BRANCH 6 7
ATOM      7  N   SER Z  -5       8.326  20.129  10.543  1.00 64.85 LIG-0.06  N 
ATOM      8 H1   SER Z  -5       8.642  19.403  10.138  1.00 64.85 LIG 0.28  HD
ATOM      9 H3   SER Z  -5       7.833  19.886  11.244  1.00 64.85 LIG 0.28  HD
ATOM     10 H2   SER Z  -5       9.005  20.633  10.820  1.00 64.85 LIG 0.28  HD
ENDBRANCH 6 7
BRANCH 6 11
ATOM     11  CB  SER Z  -5       7.996  22.337   9.511  1.00 66.88 LIG 0.21  C 
BRANCH 11 12
ATOM     12 OG   SER Z  -5       9.175  22.536  10.275  1.00 63.67 LIG-0.40  OA
ATOM     13 HG   SER Z  -5       9.780  22.025   9.995  1.00 63.67 LIG 0.21  HD
ENDBRANCH 11 12
ENDBRANCH 6 11
ENDBRANCH 4 6
ENDBRANCH 1 2
BRANCH 1 14
ATOM     14  C   TYR Z  -4       9.125  19.401   5.825  1.00 48.17 LIG 0.24  C 
ATOM     15  N   GLY Z  -3       8.634  19.375   4.591  1.00 50.01 LIG-0.35  N 
ATOM     16 H    GLY Z  -3       7.954  18.906   4.355  1.00 50.01 LIG 0.16  HD
ATOM     17 O    TYR Z  -4      10.076  20.109   6.155  1.00 57.82 LIG-0.27  OA
BRANCH 15 18
ATOM     18  CA  GLY Z  -3       9.226  20.157   3.521  1.00 64.94 LIG 0.21  C 
BRANCH 18 19
ATOM     19  C   GLY Z  -3      10.648  19.730   3.218  1.00 70.96 LIG 0.21  C 
ATOM     20 O    GLY Z  -3      10.889  18.974   2.276  1.00 75.87 LIG-0.29  OA
ENDBRANCH 18 19
ENDBRANCH 15 18
ENDBRANCH 1 14
BRANCH 1 21
ATOM     21  CB  TYR Z  -4       7.106  17.968   6.301  1.00 44.24 LIG 0.07  C 
BRANCH 21 22
ATOM     22  CG  TYR Z  -4       6.436  17.028   7.279  1.00 50.17 LIG-0.06  A 
ATOM     23  CD2 TYR Z  -4       6.669  15.659   7.229  1.00 45.93 LIG 0.01  A 
ATOM     24  CE2 TYR Z  -4       6.077  14.800   8.137  1.00 43.59 LIG 0.04  A 
ATOM     25  CZ  TYR Z  -4       5.245  15.306   9.113  1.00 44.55 LIG 0.07  A 
ATOM     26  CE1 TYR Z  -4       5.004  16.663   9.190  1.00 43.60 LIG 0.04  A 
ATOM     27  CD1 TYR Z  -4       5.601  17.515   8.278  1.00 43.85 LIG 0.01  A 
BRANCH 25 28
ATOM     28 OH   TYR Z  -4       4.653  14.454  10.017  1.00 43.23 LIG-0.36  OA
ATOM     29 HH   TYR Z  -4       4.816  14.716  10.799  1.00 43.23 LIG 0.22  HD
ENDBRANCH 25 28
ENDBRANCH 21 22
ENDBRANCH 1 21
TORSDOF 11
ENDMDL
MODEL 25
USER: ADFR SOLUTION from run 104
USER: SCORE 9.185545 LL:  -1.713 LR:  -7.638 RR:   0.000 FEB:  -4.357
USER: RMSD 5.628399
USER: SEED 103
USER: STATUS no improvement in best in 20 clusters for 5 generations
USER: GENES 13
USER: genes 0 Translation |==|  0.69185 0.56622 0.39159
USER: genes 1 Rotation |==|  0.22182 0.22383 0.63980 0.77713
USER: genes 2 Torsion [C]-CA--N-[C] |==|  0.15567
USER: genes 3 Torsion [N]-C--CA-[N] |==|  0.82508
USER: genes 4 Torsion [C]-CA--N-[H1] |==|  0.31830
USER: genes 5 Torsion [C]-CA--CB-[OG] |==|  0.68340
USER: genes 6 Torsion [CA]-CB--OG-[HG] |==|  0.14838
USER: genes 7 Torsion [N]-CA--C-[N] |==|  0.07370
USER: genes 8 Torsion [C]-N--CA-[C] |==|  0.40595
USER: genes 9 Torsion [N]-CA--C-[O] |==|  0.09746
USER: genes 10 Torsion [N]-CA--CB-[CG] |==|  0.85460
USER: genes 11 Torsion [CA]-CB--CG-[CD2] |==|  0.79146
USER: genes 12 Torsion [CE2]-CZ--OH-[HH] |==|  0.89016
ROOT
ATOM      1  CA  TYR Z  -4       6.241  15.251   7.524  1.00 44.41 LIG 0.18  C 
ENDROOT
BRANCH 1 2
ATOM      2  N   TYR Z  -4       5.800  15.452   6.149  1.00 49.32 LIG-0.35  N 
ATOM      3 H    TYR Z  -4       6.417  15.351   5.559  1.00 49.32 LIG 0.16  HD
ATOM      4  C   SER Z  -5       4.541  15.766   5.861  1.00 53.16 LIG 0.25  C 
ATOM      5 O    SER Z  -5       3.692  15.996   6.724  1.00 46.54 LIG-0.27  OA
BRANCH 4 6
ATOM      6  CA  SER Z  -5       4.185  15.829   4.379  1.00 61.82 LIG 0.30  C 
BRANCH 6 7
ATOM      7  N   SER Z  -5       4.951  16.880   3.720  1.00 64.85 LIG-0.06  N 
ATOM      8 H1   SER Z  -5       5.507  16.517   3.128  1.00 64.85 LIG 0.28  HD
ATOM      9 H3   SER Z  -5       5.419  17.332   4.328  1.00 64.85 LIG 0.28  HD
ATOM     10 H2   SER Z  -5       4.395  17.436   3.302  1.00 64.85 LIG 0.28  HD
ENDBRANCH 6 7
BRANCH 6 11
ATOM     11  CB  SER Z  -5       4.436  14.475   3.708  1.00 66.88 LIG 0.21  C 
BRANCH 11 12
ATOM     12 OG   SER Z  -5       5.485  14.557   2.755  1.00 63.67 LIG-0.40  OA
ATOM     13 HG   SER Z  -5       6.168  14.886   3.116  1.00 63.67 LIG 0.21  HD
ENDBRANCH 11 12
ENDBRANCH 6 11
ENDBRANCH 4 6
ENDBRANCH 1 2
BRANCH 1 14
ATOM     14  C   TYR Z  -4       5.409  14.185   8.219  1.00 48.17 LIG 0.24  C 
ATOM     15  N   GLY Z  -3       4.858  13.269   7.430  1.00 50.01 LIG-0.35  N 
ATOM     16 H    GLY Z  -3       4.981  13.232   6.580  1.00 50.01 LIG 0.16  HD
ATOM     17 O    TYR Z  -4       5.254  14.200   9.439  1.00 57.82 LIG-0.27  OA
BRANCH 15 18
ATOM     18  CA  GLY Z  -3       3.985  12.237   7.957  1.00 64.94 LIG 0.21  C 
BRANCH 18 19
ATOM     19  C   GLY Z  -3       2.887  11.863   6.982  1.00 70.96 LIG 0.21  C 
ATOM     20 O    GLY Z  -3       3.099  11.859   5.769  1.00 75.87 LIG-0.29  OA
ENDBRANCH 18 19
ENDBRANCH 15 18
ENDBRANCH 1 14
BRANCH 1 21
ATOM     21  CB  TYR Z  -4       6.195  16.579   8.292  1.00 44.24 LIG 0.07  C 
BRANCH 21 22
ATOM     22  CG  TYR Z  -4       6.938  17.678   7.565  1.00 50.17 LIG-0.06  A 
ATOM     23  CD2 TYR Z  -4       8.327  17.714   7.552  1.00 45.93 LIG 0.01  A 
ATOM     24  CE2 TYR Z  -4       9.011  18.703   6.868  1.00 43.59 LIG 0.04  A 
ATOM     25  CZ  TYR Z  -4       8.306  19.668   6.180  1.00 44.55 LIG 0.07  A 
ATOM     26  CE1 TYR Z  -4       6.926  19.650   6.170  1.00 43.60 LIG 0.04  A 
ATOM     27  CD1 TYR Z  -4       6.250  18.656   6.857  1.00 43.85 LIG 0.01  A 
BRANCH 25 28
ATOM     28 OH   TYR Z  -4       8.982  20.654   5.500  1.00 43.23 LIG-0.36  OA
ATOM     29 HH   TYR Z  -4       9.646  20.903   5.952  1.00 43.23 LIG 0.22  HD
ENDBRANCH 25 28
ENDBRANCH 21 22
ENDBRANCH 1 21
TORSDOF 11
ENDMDL
MODEL 26
USER: ADFR SOLUTION from run 185
USER: SCORE 8.937878 LL:  -1.384 LR:  -7.616 RR:   0.000 FEB:  -4.335
USER: RMSD 5.632737
USER: SEED 184
USER: STATUS no improvement in best in 18 clusters for 5 generations
USER: GENES 13
USER: genes 0 Translation |==|  0.64894 0.49703 0.30394
USER: genes 1 Rotation |==|  0.19019 0.35111 0.50687 0.86304
USER: genes 2 Torsion [C]-CA--N-[C] |==|  0.86056
USER: genes 3 Torsion [N]-C--CA-[N] |==|  0.93983
USER: genes 4 Torsion [C]-CA--N-[H1] |==|  0.65428
USER: genes 5 Torsion [C]-CA--CB-[OG] |==|  0.87991
USER: genes 6 Torsion [CA]-CB--OG-[HG] |==|  0.73022
USER: genes 7 Torsion [N]-CA--C-[N] |==|  0.36113
USER: genes 8 Torsion [C]-N--CA-[C] |==|  0.25799
USER: genes 9 Torsion [N]-CA--C-[O] |==|  0.02944
USER: genes 10 Torsion [N]-CA--CB-[CG] |==|  0.17841
USER: genes 11 Torsion [CA]-CB--CG-[CD2] |==|  0.27499
USER: genes 12 Torsion [CE2]-CZ--OH-[HH] |==|  0.88344
ROOT
ATOM      1  CA  TYR Z  -4       5.533  14.058   6.209  1.00 44.41 LIG 0.18  C 
ENDROOT
BRANCH 1 2
ATOM      2  N   TYR Z  -4       5.321  14.903   5.040  1.00 49.32 LIG-0.35  N 
ATOM      3 H    TYR Z  -4       5.791  15.624   5.033  1.00 49.32 LIG 0.16  HD
ATOM      4  C   SER Z  -5       4.467  14.564   4.081  1.00 53.16 LIG 0.25  C 
ATOM      5 O    SER Z  -5       3.736  13.574   4.151  1.00 46.54 LIG-0.27  OA
BRANCH 4 6
ATOM      6  CA  SER Z  -5       4.430  15.475   2.858  1.00 61.82 LIG 0.30  C 
BRANCH 6 7
ATOM      7  N   SER Z  -5       4.956  16.793   3.195  1.00 64.85 LIG-0.06  N 
ATOM      8 H1   SER Z  -5       4.352  17.414   2.993  1.00 64.85 LIG 0.28  HD
ATOM      9 H3   SER Z  -5       5.701  16.942   2.733  1.00 64.85 LIG 0.28  HD
ATOM     10 H2   SER Z  -5       5.135  16.827   4.066  1.00 64.85 LIG 0.28  HD
ENDBRANCH 6 7
BRANCH 6 11
ATOM     11  CB  SER Z  -5       5.223  14.856   1.702  1.00 66.88 LIG 0.21  C 
BRANCH 11 12
ATOM     12 OG   SER Z  -5       6.451  14.306   2.153  1.00 63.67 LIG-0.40  OA
ATOM     13 HG   SER Z  -5       7.070  14.859   2.025  1.00 63.67 LIG 0.21  HD
ENDBRANCH 11 12
ENDBRANCH 6 11
ENDBRANCH 4 6
ENDBRANCH 1 2
BRANCH 1 14
ATOM     14  C   TYR Z  -4       4.212  13.667   6.853  1.00 48.17 LIG 0.24  C 
ATOM     15  N   GLY Z  -3       4.045  12.374   7.103  1.00 50.01 LIG-0.35  N 
ATOM     16 H    GLY Z  -3       4.645  11.776   6.959  1.00 50.01 LIG 0.16  HD
ATOM     17 O    TYR Z  -4       3.356  14.515   7.102  1.00 57.82 LIG-0.27  OA
BRANCH 15 18
ATOM     18  CA  GLY Z  -3       2.804  11.859   7.651  1.00 64.94 LIG 0.21  C 
BRANCH 18 19
ATOM     19  C   GLY Z  -3       1.845  11.404   6.570  1.00 70.96 LIG 0.21  C 
ATOM     20 O    GLY Z  -3       2.217  11.308   5.400  1.00 75.87 LIG-0.29  OA
ENDBRANCH 18 19
ENDBRANCH 15 18
ENDBRANCH 1 14
BRANCH 1 21
ATOM     21  CB  TYR Z  -4       6.451  14.768   7.213  1.00 44.24 LIG 0.07  C 
BRANCH 21 22
ATOM     22  CG  TYR Z  -4       5.817  16.026   7.765  1.00 50.17 LIG-0.06  A 
ATOM     23  CD2 TYR Z  -4       5.193  16.027   9.007  1.00 45.93 LIG 0.01  A 
ATOM     24  CE2 TYR Z  -4       4.634  17.181   9.525  1.00 43.59 LIG 0.04  A 
ATOM     25  CZ  TYR Z  -4       4.701  18.355   8.804  1.00 44.55 LIG 0.07  A 
ATOM     26  CE1 TYR Z  -4       5.324  18.383   7.573  1.00 43.60 LIG 0.04  A 
ATOM     27  CD1 TYR Z  -4       5.880  17.223   7.062  1.00 43.85 LIG 0.01  A 
BRANCH 25 28
ATOM     28 OH   TYR Z  -4       4.145  19.504   9.316  1.00 43.23 LIG-0.36  OA
ATOM     29 HH   TYR Z  -4       3.402  19.325   9.666  1.00 43.23 LIG 0.22  HD
ENDBRANCH 25 28
ENDBRANCH 21 22
ENDBRANCH 1 21
TORSDOF 11
ENDMDL
MODEL 27
USER: ADFR SOLUTION from run 150
USER: SCORE 8.975682 LL:  -1.426 LR:  -7.589 RR:   0.000 FEB:  -4.307
USER: RMSD 6.042602
USER: SEED 149
USER: STATUS no improvement in best in 36 clusters for 5 generations
USER: GENES 13
USER: genes 0 Translation |==|  0.60354 0.49896 0.30288
USER: genes 1 Rotation |==|  0.13073 0.48846 0.40468 0.82314
USER: genes 2 Torsion [C]-CA--N-[C] |==|  0.79006
USER: genes 3 Torsion [N]-C--CA-[N] |==|  0.91193
USER: genes 4 Torsion [C]-CA--N-[H1] |==|  0.33797
USER: genes 5 Torsion [C]-CA--CB-[OG] |==|  0.78639
USER: genes 6 Torsion [CA]-CB--OG-[HG] |==|  0.79612
USER: genes 7 Torsion [N]-CA--C-[N] |==|  0.44182
USER: genes 8 Torsion [C]-N--CA-[C] |==|  0.73913
USER: genes 9 Torsion [N]-CA--C-[O] |==|  0.95052
USER: genes 10 Torsion [N]-CA--CB-[CG] |==|  0.18890
USER: genes 11 Torsion [CA]-CB--CG-[CD2] |==|  0.19748
USER: genes 12 Torsion [CE2]-CZ--OH-[HH] |==|  0.35164
ROOT
ATOM      1  CA  TYR Z  -4       4.784  14.091   6.193  1.00 44.41 LIG 0.18  C 
ENDROOT
BRANCH 1 2
ATOM      2  N   TYR Z  -4       5.007  14.724   4.899  1.00 49.32 LIG-0.35  N 
ATOM      3 H    TYR Z  -4       5.696  15.238   4.869  1.00 49.32 LIG 0.16  HD
ATOM      4  C   SER Z  -5       4.197  14.507   3.868  1.00 53.16 LIG 0.25  C 
ATOM      5 O    SER Z  -5       3.164  13.839   3.955  1.00 46.54 LIG-0.27  OA
BRANCH 4 6
ATOM      6  CA  SER Z  -5       4.612  15.134   2.541  1.00 61.82 LIG 0.30  C 
BRANCH 6 7
ATOM      7  N   SER Z  -5       5.326  16.383   2.775  1.00 64.85 LIG-0.06  N 
ATOM      8 H1   SER Z  -5       6.137  16.335   2.412  1.00 64.85 LIG 0.28  HD
ATOM      9 H3   SER Z  -5       5.401  16.523   3.650  1.00 64.85 LIG 0.28  HD
ATOM     10 H2   SER Z  -5       4.876  17.056   2.405  1.00 64.85 LIG 0.28  HD
ENDBRANCH 6 7
BRANCH 6 11
ATOM     11  CB  SER Z  -5       5.476  14.160   1.733  1.00 66.88 LIG 0.21  C 
BRANCH 11 12
ATOM     12 OG   SER Z  -5       6.802  14.106   2.236  1.00 63.67 LIG-0.40  OA
ATOM     13 HG   SER Z  -5       7.210  14.811   2.028  1.00 63.67 LIG 0.21  HD
ENDBRANCH 11 12
ENDBRANCH 6 11
ENDBRANCH 4 6
ENDBRANCH 1 2
BRANCH 1 14
ATOM     14  C   TYR Z  -4       3.637  14.754   6.939  1.00 48.17 LIG 0.24  C 
ATOM     15  N   GLY Z  -3       3.066  14.028   7.894  1.00 50.01 LIG-0.35  N 
ATOM     16 H    GLY Z  -3       3.334  13.246   8.127  1.00 50.01 LIG 0.16  HD
ATOM     17 O    TYR Z  -4       3.265  15.890   6.646  1.00 57.82 LIG-0.27  OA
BRANCH 15 18
ATOM     18  CA  GLY Z  -3       1.918  14.515   8.636  1.00 64.94 LIG 0.21  C 
BRANCH 18 19
ATOM     19  C   GLY Z  -3       2.318  15.200   9.927  1.00 70.96 LIG 0.21  C 
ATOM     20 O    GLY Z  -3       3.435  15.021  10.412  1.00 75.87 LIG-0.29  OA
ENDBRANCH 18 19
ENDBRANCH 15 18
ENDBRANCH 1 14
BRANCH 1 21
ATOM     21  CB  TYR Z  -4       6.075  14.119   7.023  1.00 44.24 LIG 0.07  C 
BRANCH 21 22
ATOM     22  CG  TYR Z  -4       6.449  15.525   7.437  1.00 50.17 LIG-0.06  A 
ATOM     23  CD2 TYR Z  -4       5.710  16.209   8.394  1.00 45.93 LIG 0.01  A 
ATOM     24  CE2 TYR Z  -4       6.064  17.485   8.794  1.00 43.59 LIG 0.04  A 
ATOM     25  CZ  TYR Z  -4       7.172  18.092   8.239  1.00 44.55 LIG 0.07  A 
ATOM     26  CE1 TYR Z  -4       7.928  17.431   7.293  1.00 43.60 LIG 0.04  A 
ATOM     27  CD1 TYR Z  -4       7.567  16.154   6.900  1.00 43.85 LIG 0.01  A 
BRANCH 25 28
ATOM     28 OH   TYR Z  -4       7.525  19.361   8.633  1.00 43.23 LIG-0.36  OA
ATOM     29 HH   TYR Z  -4       8.329  19.366   8.878  1.00 43.23 LIG 0.22  HD
ENDBRANCH 25 28
ENDBRANCH 21 22
ENDBRANCH 1 21
TORSDOF 11
ENDMDL
MODEL 28
USER: ADFR SOLUTION from run 66
USER: SCORE 8.454624 LL:  -1.614 LR:  -7.581 RR:   0.000 FEB:  -4.299
USER: RMSD 6.689292
USER: SEED 65
USER: STATUS no improvement in best in 26 clusters for 5 generations
USER: GENES 13
USER: genes 0 Translation |==|  0.51964 0.64467 0.55153
USER: genes 1 Rotation |==|  0.37413 0.67733 0.15801 0.79284
USER: genes 2 Torsion [C]-CA--N-[C] |==|  0.64444
USER: genes 3 Torsion [N]-C--CA-[N] |==|  0.43759
USER: genes 4 Torsion [C]-CA--N-[H1] |==|  0.40763
USER: genes 5 Torsion [C]-CA--CB-[OG] |==|  0.51755
USER: genes 6 Torsion [CA]-CB--OG-[HG] |==|  0.58848
USER: genes 7 Torsion [N]-CA--C-[N] |==|  0.72391
USER: genes 8 Torsion [C]-N--CA-[C] |==|  0.75227
USER: genes 9 Torsion [N]-CA--C-[O] |==|  0.75897
USER: genes 10 Torsion [N]-CA--CB-[CG] |==|  0.83178
USER: genes 11 Torsion [CA]-CB--CG-[CD2] |==|  0.24912
USER: genes 12 Torsion [CE2]-CZ--OH-[HH] |==|  0.02489
ROOT
ATOM      1  CA  TYR Z  -4       3.400  16.604   9.923  1.00 44.41 LIG 0.18  C 
ENDROOT
BRANCH 1 2
ATOM      2  N   TYR Z  -4       4.795  16.706   9.512  1.00 49.32 LIG-0.35  N 
ATOM      3 H    TYR Z  -4       5.361  16.640  10.156  1.00 49.32 LIG 0.16  HD
ATOM      4  C   SER Z  -5       5.135  16.884   8.239  1.00 53.16 LIG 0.25  C 
ATOM      5 O    SER Z  -5       4.309  17.066   7.343  1.00 46.54 LIG-0.27  OA
BRANCH 4 6
ATOM      6  CA  SER Z  -5       6.628  16.851   7.930  1.00 61.82 LIG 0.30  C 
BRANCH 6 7
ATOM      7  N   SER Z  -5       6.845  16.527   6.525  1.00 64.85 LIG-0.06  N 
ATOM      8 H1   SER Z  -5       7.571  16.950   6.230  1.00 64.85 LIG 0.28  HD
ATOM      9 H3   SER Z  -5       6.139  16.783   6.048  1.00 64.85 LIG 0.28  HD
ATOM     10 H2   SER Z  -5       6.959  15.648   6.437  1.00 64.85 LIG 0.28  HD
ENDBRANCH 6 7
BRANCH 6 11
ATOM     11  CB  SER Z  -5       7.279  18.193   8.282  1.00 66.88 LIG 0.21  C 
BRANCH 11 12
ATOM     12 OG   SER Z  -5       8.636  18.234   7.869  1.00 63.67 LIG-0.40  OA
ATOM     13 HG   SER Z  -5       9.077  18.713   8.400  1.00 63.67 LIG 0.21  HD
ENDBRANCH 11 12
ENDBRANCH 6 11
ENDBRANCH 4 6
ENDBRANCH 1 2
BRANCH 1 14
ATOM     14  C   TYR Z  -4       3.088  17.573  11.053  1.00 48.17 LIG 0.24  C 
ATOM     15  N   GLY Z  -3       3.076  17.058  12.277  1.00 50.01 LIG-0.35  N 
ATOM     16 H    GLY Z  -3       3.270  16.239  12.454  1.00 50.01 LIG 0.16  HD
ATOM     17 O    TYR Z  -4       2.846  18.758  10.821  1.00 57.82 LIG-0.27  OA
BRANCH 15 18
ATOM     18  CA  GLY Z  -3       2.726  17.857  13.436  1.00 64.94 LIG 0.21  C 
BRANCH 18 19
ATOM     19  C   GLY Z  -3       3.932  18.543  14.044  1.00 70.96 LIG 0.21  C 
ATOM     20 O    GLY Z  -3       4.627  17.965  14.881  1.00 75.87 LIG-0.29  OA
ENDBRANCH 18 19
ENDBRANCH 15 18
ENDBRANCH 1 14
BRANCH 1 21
ATOM     21  CB  TYR Z  -4       3.073  15.160  10.325  1.00 44.24 LIG 0.07  C 
BRANCH 21 22
ATOM     22  CG  TYR Z  -4       3.280  14.195   9.179  1.00 50.17 LIG-0.06  A 
ATOM     23  CD2 TYR Z  -4       4.510  13.582   8.973  1.00 45.93 LIG 0.01  A 
ATOM     24  CE2 TYR Z  -4       4.696  12.680   7.941  1.00 43.59 LIG 0.04  A 
ATOM     25  CZ  TYR Z  -4       3.643  12.376   7.103  1.00 44.55 LIG 0.07  A 
ATOM     26  CE1 TYR Z  -4       2.409  12.963   7.291  1.00 43.60 LIG 0.04  A 
ATOM     27  CD1 TYR Z  -4       2.232  13.865   8.327  1.00 43.85 LIG 0.01  A 
BRANCH 25 28
ATOM     28 OH   TYR Z  -4       3.825  11.480   6.074  1.00 43.23 LIG-0.36  OA
ATOM     29 HH   TYR Z  -4       4.577  11.112   6.152  1.00 43.23 LIG 0.22  HD
ENDBRANCH 25 28
ENDBRANCH 21 22
ENDBRANCH 1 21
TORSDOF 11
ENDMDL
MODEL 29
USER: ADFR SOLUTION from run 187
USER: SCORE 9.347933 LL:  -1.807 LR:  -7.566 RR:   0.000 FEB:  -4.284
USER: RMSD 5.884429
USER: SEED 186
USER: STATUS no improvement in best in 37 clusters for 5 generations
USER: GENES 13
USER: genes 0 Translation |==|  0.41332 0.37940 0.36812
USER: genes 1 Rotation |==|  0.79890 0.33094 0.82057 0.67120
USER: genes 2 Torsion [C]-CA--N-[C] |==|  0.82778
USER: genes 3 Torsion [N]-C--CA-[N] |==|  0.59919
USER: genes 4 Torsion [C]-CA--N-[H1] |==|  0.75161
USER: genes 5 Torsion [C]-CA--CB-[OG] |==|  0.60760
USER: genes 6 Torsion [CA]-CB--OG-[HG] |==|  0.18415
USER: genes 7 Torsion [N]-CA--C-[N] |==|  0.41347
USER: genes 8 Torsion [C]-N--CA-[C] |==|  0.73911
USER: genes 9 Torsion [N]-CA--C-[O] |==|  0.13402
USER: genes 10 Torsion [N]-CA--CB-[CG] |==|  0.46326
USER: genes 11 Torsion [CA]-CB--CG-[CD2] |==|  0.19749
USER: genes 12 Torsion [CE2]-CZ--OH-[HH] |==|  0.23272
ROOT
ATOM      1  CA  TYR Z  -4       1.646  12.029   7.172  1.00 44.41 LIG 0.18  C 
ENDROOT
BRANCH 1 2
ATOM      2  N   TYR Z  -4       1.085  10.720   6.857  1.00 49.32 LIG-0.35  N 
ATOM      3 H    TYR Z  -4       1.144  10.146   7.494  1.00 49.32 LIG 0.16  HD
ATOM      4  C   SER Z  -5       0.534  10.464   5.675  1.00 53.16 LIG 0.25  C 
ATOM      5 O    SER Z  -5       0.540  11.270   4.743  1.00 46.54 LIG-0.27  OA
BRANCH 4 6
ATOM      6  CA  SER Z  -5      -0.122   9.096   5.519  1.00 61.82 LIG 0.30  C 
BRANCH 6 7
ATOM      7  N   SER Z  -5       0.076   8.593   4.165  1.00 64.85 LIG-0.06  N 
ATOM      8 H1   SER Z  -5      -0.592   8.867   3.645  1.00 64.85 LIG 0.28  HD
ATOM      9 H3   SER Z  -5       0.095   7.704   4.178  1.00 64.85 LIG 0.28  HD
ATOM     10 H2   SER Z  -5       0.846   8.902   3.843  1.00 64.85 LIG 0.28  HD
ENDBRANCH 6 7
BRANCH 6 11
ATOM     11  CB  SER Z  -5       0.439   8.110   6.549  1.00 66.88 LIG 0.21  C 
BRANCH 11 12
ATOM     12 OG   SER Z  -5       0.604   6.816   5.991  1.00 63.67 LIG-0.40  OA
ATOM     13 HG   SER Z  -5       1.201   6.840   5.400  1.00 63.67 LIG 0.21  HD
ENDBRANCH 11 12
ENDBRANCH 6 11
ENDBRANCH 4 6
ENDBRANCH 1 2
BRANCH 1 14
ATOM     14  C   TYR Z  -4       2.803  12.368   6.246  1.00 48.17 LIG 0.24  C 
ATOM     15  N   GLY Z  -3       2.974  13.656   5.973  1.00 50.01 LIG-0.35  N 
ATOM     16 H    GLY Z  -3       2.500  14.286   6.317  1.00 50.01 LIG 0.16  HD
ATOM     17 O    TYR Z  -4       3.516  11.482   5.775  1.00 57.82 LIG-0.27  OA
BRANCH 15 18
ATOM     18  CA  GLY Z  -3       3.997  14.110   5.050  1.00 64.94 LIG 0.21  C 
BRANCH 18 19
ATOM     19  C   GLY Z  -3       5.283  14.484   5.760  1.00 70.96 LIG 0.21  C 
ATOM     20 O    GLY Z  -3       5.781  13.729   6.596  1.00 75.87 LIG-0.29  OA
ENDBRANCH 18 19
ENDBRANCH 15 18
ENDBRANCH 1 14
BRANCH 1 21
ATOM     21  CB  TYR Z  -4       2.080  12.076   8.643  1.00 44.24 LIG 0.07  C 
BRANCH 21 22
ATOM     22  CG  TYR Z  -4       2.950  13.278   8.937  1.00 50.17 LIG-0.06  A 
ATOM     23  CD2 TYR Z  -4       2.414  14.560   8.958  1.00 45.93 LIG 0.01  A 
ATOM     24  CE2 TYR Z  -4       3.201  15.659   9.251  1.00 43.59 LIG 0.04  A 
ATOM     25  CZ  TYR Z  -4       4.540  15.484   9.532  1.00 44.55 LIG 0.07  A 
ATOM     26  CE1 TYR Z  -4       5.095  14.220   9.527  1.00 43.60 LIG 0.04  A 
ATOM     27  CD1 TYR Z  -4       4.299  13.126   9.233  1.00 43.85 LIG 0.01  A 
BRANCH 25 28
ATOM     28 OH   TYR Z  -4       5.326  16.575   9.822  1.00 43.23 LIG-0.36  OA
ATOM     29 HH   TYR Z  -4       5.247  16.770  10.636  1.00 43.23 LIG 0.22  HD
ENDBRANCH 25 28
ENDBRANCH 21 22
ENDBRANCH 1 21
TORSDOF 11
ENDMDL
MODEL 30
USER: ADFR SOLUTION from run 107
USER: SCORE 8.811302 LL:  -1.310 LR:  -7.549 RR:   0.000 FEB:  -4.268
USER: RMSD 7.340311
USER: SEED 106
USER: STATUS no improvement in best in 31 clusters for 5 generations
USER: GENES 13
USER: genes 0 Translation |==|  0.68245 0.71295 0.49868
USER: genes 1 Rotation |==|  0.81042 0.33832 0.14427 0.53090
USER: genes 2 Torsion [C]-CA--N-[C] |==|  0.15756
USER: genes 3 Torsion [N]-C--CA-[N] |==|  0.89471
USER: genes 4 Torsion [C]-CA--N-[H1] |==|  0.37913
USER: genes 5 Torsion [C]-CA--CB-[OG] |==|  0.96854
USER: genes 6 Torsion [CA]-CB--OG-[HG] |==|  0.65452
USER: genes 7 Torsion [N]-CA--C-[N] |==|  0.10819
USER: genes 8 Torsion [C]-N--CA-[C] |==|  0.83961
USER: genes 9 Torsion [N]-CA--C-[O] |==|  0.51121
USER: genes 10 Torsion [N]-CA--CB-[CG] |==|  0.84941
USER: genes 11 Torsion [CA]-CB--CG-[CD2] |==|  0.94709
USER: genes 12 Torsion [CE2]-CZ--OH-[HH] |==|  0.85034
ROOT
ATOM      1  CA  TYR Z  -4       6.086  17.782   9.130  1.00 44.41 LIG 0.18  C 
ENDROOT
BRANCH 1 2
ATOM      2  N   TYR Z  -4       5.064  17.319  10.060  1.00 49.32 LIG-0.35  N 
ATOM      3 H    TYR Z  -4       5.302  16.651  10.547  1.00 49.32 LIG 0.16  HD
ATOM      4  C   SER Z  -5       3.870  17.899  10.129  1.00 53.16 LIG 0.25  C 
ATOM      5 O    SER Z  -5       3.514  18.795   9.362  1.00 46.54 LIG-0.27  OA
BRANCH 4 6
ATOM      6  CA  SER Z  -5       2.938  17.395  11.227  1.00 61.82 LIG 0.30  C 
BRANCH 6 7
ATOM      7  N   SER Z  -5       3.076  15.952  11.382  1.00 64.85 LIG-0.06  N 
ATOM      8 H1   SER Z  -5       3.104  15.747  12.247  1.00 64.85 LIG 0.28  HD
ATOM      9 H3   SER Z  -5       3.827  15.681  10.989  1.00 64.85 LIG 0.28  HD
ATOM     10 H2   SER Z  -5       2.381  15.545  11.003  1.00 64.85 LIG 0.28  HD
ENDBRANCH 6 7
BRANCH 6 11
ATOM     11  CB  SER Z  -5       3.230  18.111  12.550  1.00 66.88 LIG 0.21  C 
BRANCH 11 12
ATOM     12 OG   SER Z  -5       4.438  18.853  12.482  1.00 63.67 LIG-0.40  OA
ATOM     13 HG   SER Z  -5       4.951  18.610  13.101  1.00 63.67 LIG 0.21  HD
ENDBRANCH 11 12
ENDBRANCH 6 11
ENDBRANCH 4 6
ENDBRANCH 1 2
BRANCH 1 14
ATOM     14  C   TYR Z  -4       6.398  19.255   9.345  1.00 48.17 LIG 0.24  C 
ATOM     15  N   GLY Z  -3       6.427  19.667  10.607  1.00 50.01 LIG-0.35  N 
ATOM     16 H    GLY Z  -3       6.321  19.148  11.284  1.00 50.01 LIG 0.16  HD
ATOM     17 O    TYR Z  -4       6.592  20.006   8.389  1.00 57.82 LIG-0.27  OA
BRANCH 15 18
ATOM     18  CA  GLY Z  -3       6.645  21.061  10.948  1.00 64.94 LIG 0.21  C 
BRANCH 18 19
ATOM     19  C   GLY Z  -3       7.951  21.589  10.391  1.00 70.96 LIG 0.21  C 
ATOM     20 O    GLY Z  -3       8.326  22.733  10.650  1.00 75.87 LIG-0.29  OA
ENDBRANCH 18 19
ENDBRANCH 15 18
ENDBRANCH 1 14
BRANCH 1 21
ATOM     21  CB  TYR Z  -4       5.645  17.514   7.685  1.00 44.24 LIG 0.07  C 
BRANCH 21 22
ATOM     22  CG  TYR Z  -4       5.281  16.062   7.467  1.00 50.17 LIG-0.06  A 
ATOM     23  CD2 TYR Z  -4       5.718  15.076   8.343  1.00 45.93 LIG 0.01  A 
ATOM     24  CE2 TYR Z  -4       5.368  13.750   8.160  1.00 43.59 LIG 0.04  A 
ATOM     25  CZ  TYR Z  -4       4.565  13.397   7.095  1.00 44.55 LIG 0.07  A 
ATOM     26  CE1 TYR Z  -4       4.110  14.359   6.216  1.00 43.60 LIG 0.04  A 
ATOM     27  CD1 TYR Z  -4       4.466  15.683   6.407  1.00 43.85 LIG 0.01  A 
BRANCH 25 28
ATOM     28 OH   TYR Z  -4       4.216  12.080   6.910  1.00 43.23 LIG-0.36  OA
ATOM     29 HH   TYR Z  -4       4.909  11.606   6.889  1.00 43.23 LIG 0.22  HD
ENDBRANCH 25 28
ENDBRANCH 21 22
ENDBRANCH 1 21
TORSDOF 11
ENDMDL
MODEL 31
USER: ADFR SOLUTION from run 140
USER: SCORE 8.181792 LL:  -1.289 LR:  -7.552 RR:   0.000 FEB:  -4.270
USER: RMSD 5.615442
USER: SEED 139
USER: STATUS no improvement in best in 15 clusters for 5 generations
USER: GENES 13
USER: genes 0 Translation |==|  0.58211 0.57071 0.45917
USER: genes 1 Rotation |==|  0.17562 0.28200 0.59198 0.79798
USER: genes 2 Torsion [C]-CA--N-[C] |==|  0.69481
USER: genes 3 Torsion [N]-C--CA-[N] |==|  0.21317
USER: genes 4 Torsion [C]-CA--N-[H1] |==|  0.36232
USER: genes 5 Torsion [C]-CA--CB-[OG] |==|  0.65163
USER: genes 6 Torsion [CA]-CB--OG-[HG] |==|  0.16639
USER: genes 7 Torsion [N]-CA--C-[N] |==|  0.57375
USER: genes 8 Torsion [C]-N--CA-[C] |==|  0.49611
USER: genes 9 Torsion [N]-CA--C-[O] |==|  0.65010
USER: genes 10 Torsion [N]-CA--CB-[CG] |==|  0.83174
USER: genes 11 Torsion [CA]-CB--CG-[CD2] |==|  0.46177
USER: genes 12 Torsion [CE2]-CZ--OH-[HH] |==|  0.12865
ROOT
ATOM      1  CA  TYR Z  -4       4.431  15.329   8.538  1.00 44.41 LIG 0.18  C 
ENDROOT
BRANCH 1 2
ATOM      2  N   TYR Z  -4       4.063  15.657   7.166  1.00 49.32 LIG-0.35  N 
ATOM      3 H    TYR Z  -4       3.478  16.284   7.095  1.00 49.32 LIG 0.16  HD
ATOM      4  C   SER Z  -5       4.601  15.023   6.129  1.00 53.16 LIG 0.25  C 
ATOM      5 O    SER Z  -5       5.368  14.066   6.252  1.00 46.54 LIG-0.27  OA
BRANCH 4 6
ATOM      6  CA  SER Z  -5       4.220  15.546   4.748  1.00 61.82 LIG 0.30  C 
BRANCH 6 7
ATOM      7  N   SER Z  -5       4.951  16.772   4.453  1.00 64.85 LIG-0.06  N 
ATOM      8 H1   SER Z  -5       5.326  16.709   3.648  1.00 64.85 LIG 0.28  HD
ATOM      9 H3   SER Z  -5       5.584  16.896   5.066  1.00 64.85 LIG 0.28  HD
ATOM     10 H2   SER Z  -5       4.389  17.463   4.464  1.00 64.85 LIG 0.28  HD
ENDBRANCH 6 7
BRANCH 6 11
ATOM     11  CB  SER Z  -5       4.492  14.484   3.677  1.00 66.88 LIG 0.21  C 
BRANCH 11 12
ATOM     12 OG   SER Z  -5       5.326  14.989   2.647  1.00 63.67 LIG-0.40  OA
ATOM     13 HG   SER Z  -5       6.060  15.234   2.974  1.00 63.67 LIG 0.21  HD
ENDBRANCH 11 12
ENDBRANCH 6 11
ENDBRANCH 4 6
ENDBRANCH 1 2
BRANCH 1 14
ATOM     14  C   TYR Z  -4       3.288  14.636   9.263  1.00 48.17 LIG 0.24  C 
ATOM     15  N   GLY Z  -3       3.266  14.774  10.584  1.00 50.01 LIG-0.35  N 
ATOM     16 H    GLY Z  -3       3.826  15.255  11.025  1.00 50.01 LIG 0.16  HD
ATOM     17 O    TYR Z  -4       2.454  13.976   8.644  1.00 57.82 LIG-0.27  OA
BRANCH 15 18
ATOM     18  CA  GLY Z  -3       2.270  14.109  11.402  1.00 64.94 LIG 0.21  C 
BRANCH 18 19
ATOM     19  C   GLY Z  -3       2.463  14.387  12.879  1.00 70.96 LIG 0.21  C 
ATOM     20 O    GLY Z  -3       2.560  13.460  13.685  1.00 75.87 LIG-0.29  OA
ENDBRANCH 18 19
ENDBRANCH 15 18
ENDBRANCH 1 14
BRANCH 1 21
ATOM     21  CB  TYR Z  -4       4.873  16.596   9.282  1.00 44.24 LIG 0.07  C 
BRANCH 21 22
ATOM     22  CG  TYR Z  -4       6.076  17.242   8.631  1.00 50.17 LIG-0.06  A 
ATOM     23  CD2 TYR Z  -4       6.462  18.534   8.965  1.00 45.93 LIG 0.01  A 
ATOM     24  CE2 TYR Z  -4       7.576  19.119   8.391  1.00 43.59 LIG 0.04  A 
ATOM     25  CZ  TYR Z  -4       8.324  18.409   7.474  1.00 44.55 LIG 0.07  A 
ATOM     26  CE1 TYR Z  -4       7.967  17.120   7.132  1.00 43.60 LIG 0.04  A 
ATOM     27  CD1 TYR Z  -4       6.851  16.543   7.712  1.00 43.85 LIG 0.01  A 
BRANCH 25 28
ATOM     28 OH   TYR Z  -4       9.431  18.988   6.900  1.00 43.23 LIG-0.36  OA
ATOM     29 HH   TYR Z  -4       9.895  19.359   7.495  1.00 43.23 LIG 0.22  HD
ENDBRANCH 25 28
ENDBRANCH 21 22
ENDBRANCH 1 21
TORSDOF 11
ENDMDL
MODEL 32
USER: ADFR SOLUTION from run 131
USER: SCORE 8.854939 LL:  -1.459 LR:  -7.538 RR:   0.000 FEB:  -4.257
USER: RMSD 5.727674
USER: SEED 130
USER: STATUS no improvement in best in 41 clusters for 5 generations
USER: GENES 13
USER: genes 0 Translation |==|  0.34210 0.30446 0.40451
USER: genes 1 Rotation |==|  0.15875 0.27107 0.69388 0.70869
USER: genes 2 Torsion [C]-CA--N-[C] |==|  0.55267
USER: genes 3 Torsion [N]-C--CA-[N] |==|  0.56681
USER: genes 4 Torsion [C]-CA--N-[H1] |==|  0.37174
USER: genes 5 Torsion [C]-CA--CB-[OG] |==|  0.83957
USER: genes 6 Torsion [CA]-CB--OG-[HG] |==|  0.94159
USER: genes 7 Torsion [N]-CA--C-[N] |==|  0.46666
USER: genes 8 Torsion [C]-N--CA-[C] |==|  0.19880
USER: genes 9 Torsion [N]-CA--C-[O] |==|  0.08186
USER: genes 10 Torsion [N]-CA--CB-[CG] |==|  0.62520
USER: genes 11 Torsion [CA]-CB--CG-[CD2] |==|  0.63625
USER: genes 12 Torsion [CE2]-CZ--OH-[HH] |==|  0.94815
ROOT
ATOM      1  CA  TYR Z  -4       0.471  10.736   7.718  1.00 44.41 LIG 0.18  C 
ENDROOT
BRANCH 1 2
ATOM      2  N   TYR Z  -4       0.019  10.316   6.397  1.00 49.32 LIG-0.35  N 
ATOM      3 H    TYR Z  -4      -0.789  10.021   6.374  1.00 49.32 LIG 0.16  HD
ATOM      4  C   SER Z  -5       0.811  10.393   5.332  1.00 53.16 LIG 0.25  C 
ATOM      5 O    SER Z  -5       1.994  10.732   5.399  1.00 46.54 LIG-0.27  OA
BRANCH 4 6
ATOM      6  CA  SER Z  -5       0.176  10.035   3.993  1.00 61.82 LIG 0.30  C 
BRANCH 6 7
ATOM      7  N   SER Z  -5       1.201   9.609   3.046  1.00 64.85 LIG-0.06  N 
ATOM      8 H1   SER Z  -5       0.934   8.867   2.633  1.00 64.85 LIG 0.28  HD
ATOM      9 H3   SER Z  -5       1.959   9.449   3.483  1.00 64.85 LIG 0.28  HD
ATOM     10 H2   SER Z  -5       1.335  10.251   2.445  1.00 64.85 LIG 0.28  HD
ENDBRANCH 6 7
BRANCH 6 11
ATOM     11  CB  SER Z  -5      -0.881   8.940   4.174  1.00 66.88 LIG 0.21  C 
BRANCH 11 12
ATOM     12 OG   SER Z  -5      -0.325   7.777   4.766  1.00 63.67 LIG-0.40  OA
ATOM     13 HG   SER Z  -5       0.508   7.774   4.652  1.00 63.67 LIG 0.21  HD
ENDBRANCH 11 12
ENDBRANCH 6 11
ENDBRANCH 4 6
ENDBRANCH 1 2
BRANCH 1 14
ATOM     14  C   TYR Z  -4      -0.400  10.139   8.812  1.00 48.17 LIG 0.24  C 
ATOM     15  N   GLY Z  -3       0.063  10.251  10.052  1.00 50.01 LIG-0.35  N 
ATOM     16 H    GLY Z  -3       0.787  10.667  10.258  1.00 50.01 LIG 0.16  HD
ATOM     17 O    TYR Z  -4      -1.459   9.574   8.540  1.00 57.82 LIG-0.27  OA
BRANCH 15 18
ATOM     18  CA  GLY Z  -3      -0.635   9.666  11.181  1.00 64.94 LIG 0.21  C 
BRANCH 18 19
ATOM     19  C   GLY Z  -3      -0.532   8.154  11.197  1.00 70.96 LIG 0.21  C 
ATOM     20 O    GLY Z  -3       0.451   7.587  10.718  1.00 75.87 LIG-0.29  OA
ENDBRANCH 18 19
ENDBRANCH 15 18
ENDBRANCH 1 14
BRANCH 1 21
ATOM     21  CB  TYR Z  -4       0.496  12.268   7.803  1.00 44.24 LIG 0.07  C 
BRANCH 21 22
ATOM     22  CG  TYR Z  -4       1.766  12.777   8.448  1.00 50.17 LIG-0.06  A 
ATOM     23  CD2 TYR Z  -4       1.722  13.714   9.473  1.00 45.93 LIG 0.01  A 
ATOM     24  CE2 TYR Z  -4       2.880  14.162  10.082  1.00 43.59 LIG 0.04  A 
ATOM     25  CZ  TYR Z  -4       4.101  13.670   9.673  1.00 44.55 LIG 0.07  A 
ATOM     26  CE1 TYR Z  -4       4.172  12.732   8.663  1.00 43.60 LIG 0.04  A 
ATOM     27  CD1 TYR Z  -4       3.008  12.288   8.059  1.00 43.85 LIG 0.01  A 
BRANCH 25 28
ATOM     28 OH   TYR Z  -4       5.255  14.115  10.275  1.00 43.23 LIG-0.36  OA
ATOM     29 HH   TYR Z  -4       5.103  14.840  10.672  1.00 43.23 LIG 0.22  HD
ENDBRANCH 25 28
ENDBRANCH 21 22
ENDBRANCH 1 21
TORSDOF 11
ENDMDL
MODEL 33
USER: ADFR SOLUTION from run 114
USER: SCORE 8.303387 LL:  -1.435 LR:  -7.487 RR:   0.000 FEB:  -4.206
USER: RMSD 5.468390
USER: SEED 113
USER: STATUS no improvement in best in 33 clusters for 5 generations
USER: GENES 13
USER: genes 0 Translation |==|  0.44210 0.39902 0.41171
USER: genes 1 Rotation |==|  0.11841 0.41842 0.79340 0.60794
USER: genes 2 Torsion [C]-CA--N-[C] |==|  0.50332
USER: genes 3 Torsion [N]-C--CA-[N] |==|  0.47286
USER: genes 4 Torsion [C]-CA--N-[H1] |==|  0.76960
USER: genes 5 Torsion [C]-CA--CB-[OG] |==|  0.62152
USER: genes 6 Torsion [CA]-CB--OG-[HG] |==|  0.15882
USER: genes 7 Torsion [N]-CA--C-[N] |==|  0.50556
USER: genes 8 Torsion [C]-N--CA-[C] |==|  0.30540
USER: genes 9 Torsion [N]-CA--C-[O] |==|  0.56200
USER: genes 10 Torsion [N]-CA--CB-[CG] |==|  0.59108
USER: genes 11 Torsion [CA]-CB--CG-[CD2] |==|  0.07491
USER: genes 12 Torsion [CE2]-CZ--OH-[HH] |==|  0.35586
ROOT
ATOM      1  CA  TYR Z  -4       2.121  12.367   7.826  1.00 44.41 LIG 0.18  C 
ENDROOT
BRANCH 1 2
ATOM      2  N   TYR Z  -4       1.272  11.299   7.311  1.00 49.32 LIG-0.35  N 
ATOM      3 H    TYR Z  -4       0.593  11.115   7.806  1.00 49.32 LIG 0.16  HD
ATOM      4  C   SER Z  -5       1.548  10.679   6.169  1.00 53.16 LIG 0.25  C 
ATOM      5 O    SER Z  -5       2.573  10.893   5.519  1.00 46.54 LIG-0.27  OA
BRANCH 4 6
ATOM      6  CA  SER Z  -5       0.515   9.667   5.685  1.00 61.82 LIG 0.30  C 
BRANCH 6 7
ATOM      7  N   SER Z  -5       0.826   9.239   4.326  1.00 64.85 LIG-0.06  N 
ATOM      8 H1   SER Z  -5       0.505   9.834   3.746  1.00 64.85 LIG 0.28  HD
ATOM      9 H3   SER Z  -5       0.454   8.445   4.172  1.00 64.85 LIG 0.28  HD
ATOM     10 H2   SER Z  -5       1.708   9.177   4.228  1.00 64.85 LIG 0.28  HD
ENDBRANCH 6 7
BRANCH 6 11
ATOM     11  CB  SER Z  -5       0.458   8.463   6.631  1.00 66.88 LIG 0.21  C 
BRANCH 11 12
ATOM     12 OG   SER Z  -5       0.405   7.241   5.911  1.00 63.67 LIG-0.40  OA
ATOM     13 HG   SER Z  -5       1.070   7.187   5.400  1.00 63.67 LIG 0.21  HD
ENDBRANCH 11 12
ENDBRANCH 6 11
ENDBRANCH 4 6
ENDBRANCH 1 2
BRANCH 1 14
ATOM     14  C   TYR Z  -4       1.603  12.888   9.157  1.00 48.17 LIG 0.24  C 
ATOM     15  N   GLY Z  -3       2.284  13.894   9.694  1.00 50.01 LIG-0.35  N 
ATOM     16 H    GLY Z  -3       2.955  14.276   9.316  1.00 50.01 LIG 0.16  HD
ATOM     17 O    TYR Z  -4       0.621  12.379   9.696  1.00 57.82 LIG-0.27  OA
BRANCH 15 18
ATOM     18  CA  GLY Z  -3       1.938  14.439  10.994  1.00 64.94 LIG 0.21  C 
BRANCH 18 19
ATOM     19  C   GLY Z  -3       2.975  14.109  12.048  1.00 70.96 LIG 0.21  C 
ATOM     20 O    GLY Z  -3       2.680  14.119  13.244  1.00 75.87 LIG-0.29  OA
ENDBRANCH 18 19
ENDBRANCH 15 18
ENDBRANCH 1 14
BRANCH 1 21
ATOM     21  CB  TYR Z  -4       2.230  13.497   6.793  1.00 44.24 LIG 0.07  C 
BRANCH 21 22
ATOM     22  CG  TYR Z  -4       3.579  14.178   6.842  1.00 50.17 LIG-0.06  A 
ATOM     23  CD2 TYR Z  -4       4.708  13.498   7.284  1.00 45.93 LIG 0.01  A 
ATOM     24  CE2 TYR Z  -4       5.948  14.109   7.307  1.00 43.59 LIG 0.04  A 
ATOM     25  CZ  TYR Z  -4       6.074  15.414   6.878  1.00 44.55 LIG 0.07  A 
ATOM     26  CE1 TYR Z  -4       4.971  16.108   6.424  1.00 43.60 LIG 0.04  A 
ATOM     27  CD1 TYR Z  -4       3.733  15.488   6.405  1.00 43.85 LIG 0.01  A 
BRANCH 25 28
ATOM     28 OH   TYR Z  -4       7.306  16.025   6.900  1.00 43.23 LIG-0.36  OA
ATOM     29 HH   TYR Z  -4       7.469  16.357   6.145  1.00 43.23 LIG 0.22  HD
ENDBRANCH 25 28
ENDBRANCH 21 22
ENDBRANCH 1 21
TORSDOF 11
ENDMDL
MODEL 34
USER: ADFR SOLUTION from run 37
USER: SCORE 8.195195 LL:  -1.336 LR:  -7.475 RR:   0.000 FEB:  -4.193
USER: RMSD 6.615168
USER: SEED 36
USER: STATUS no improvement in best in 23 clusters for 5 generations
USER: GENES 13
USER: genes 0 Translation |==|  0.64074 0.69874 0.44368
USER: genes 1 Rotation |==|  0.61588 0.84431 0.59262 0.83083
USER: genes 2 Torsion [C]-CA--N-[C] |==|  0.56671
USER: genes 3 Torsion [N]-C--CA-[N] |==|  0.04955
USER: genes 4 Torsion [C]-CA--N-[H1] |==|  0.78150
USER: genes 5 Torsion [C]-CA--CB-[OG] |==|  0.57709
USER: genes 6 Torsion [CA]-CB--OG-[HG] |==|  0.13404
USER: genes 7 Torsion [N]-CA--C-[N] |==|  0.19520
USER: genes 8 Torsion [C]-N--CA-[C] |==|  0.83594
USER: genes 9 Torsion [N]-CA--C-[O] |==|  0.66108
USER: genes 10 Torsion [N]-CA--CB-[CG] |==|  0.08051
USER: genes 11 Torsion [CA]-CB--CG-[CD2] |==|  0.11922
USER: genes 12 Torsion [CE2]-CZ--OH-[HH] |==|  0.22804
ROOT
ATOM      1  CA  TYR Z  -4       5.398  17.537   8.305  1.00 44.41 LIG 0.18  C 
ENDROOT
BRANCH 1 2
ATOM      2  N   TYR Z  -4       6.274  18.285   9.199  1.00 49.32 LIG-0.35  N 
ATOM      3 H    TYR Z  -4       6.985  17.863   9.435  1.00 49.32 LIG 0.16  HD
ATOM      4  C   SER Z  -5       5.974  19.516   9.601  1.00 53.16 LIG 0.25  C 
ATOM      5 O    SER Z  -5       4.908  20.070   9.327  1.00 46.54 LIG-0.27  OA
BRANCH 4 6
ATOM      6  CA  SER Z  -5       7.032  20.229  10.436  1.00 61.82 LIG 0.30  C 
BRANCH 6 7
ATOM      7  N   SER Z  -5       8.326  19.577  10.275  1.00 64.85 LIG-0.06  N 
ATOM      8 H1   SER Z  -5       8.353  18.841  10.775  1.00 64.85 LIG 0.28  HD
ATOM      9 H3   SER Z  -5       8.973  20.132  10.530  1.00 64.85 LIG 0.28  HD
ATOM     10 H2   SER Z  -5       8.444  19.358   9.420  1.00 64.85 LIG 0.28  HD
ENDBRANCH 6 7
BRANCH 6 11
ATOM     11  CB  SER Z  -5       7.119  21.708  10.043  1.00 66.88 LIG 0.21  C 
BRANCH 11 12
ATOM     12 OG   SER Z  -5       8.416  22.231  10.284  1.00 63.67 LIG-0.40  OA
ATOM     13 HG   SER Z  -5       8.993  21.710   9.965  1.00 63.67 LIG 0.21  HD
ENDBRANCH 11 12
ENDBRANCH 6 11
ENDBRANCH 4 6
ENDBRANCH 1 2
BRANCH 1 14
ATOM     14  C   TYR Z  -4       5.611  16.039   8.453  1.00 48.17 LIG 0.24  C 
ATOM     15  N   GLY Z  -3       5.186  15.499   9.589  1.00 50.01 LIG-0.35  N 
ATOM     16 H    GLY Z  -3       4.775  15.936  10.204  1.00 50.01 LIG 0.16  HD
ATOM     17 O    TYR Z  -4       6.163  15.388   7.566  1.00 57.82 LIG-0.27  OA
BRANCH 15 18
ATOM     18  CA  GLY Z  -3       5.389  14.093   9.886  1.00 64.94 LIG 0.21  C 
BRANCH 18 19
ATOM     19  C   GLY Z  -3       4.748  13.190   8.851  1.00 70.96 LIG 0.21  C 
ATOM     20 O    GLY Z  -3       3.904  12.357   9.182  1.00 75.87 LIG-0.29  OA
ENDBRANCH 18 19
ENDBRANCH 15 18
ENDBRANCH 1 14
BRANCH 1 21
ATOM     21  CB  TYR Z  -4       5.617  17.988   6.855  1.00 44.24 LIG 0.07  C 
BRANCH 21 22
ATOM     22  CG  TYR Z  -4       7.028  18.482   6.624  1.00 50.17 LIG-0.06  A 
ATOM     23  CD2 TYR Z  -4       8.119  17.801   7.152  1.00 45.93 LIG 0.01  A 
ATOM     24  CE2 TYR Z  -4       9.412  18.235   6.922  1.00 43.59 LIG 0.04  A 
ATOM     25  CZ  TYR Z  -4       9.628  19.359   6.152  1.00 44.55 LIG 0.07  A 
ATOM     26  CE1 TYR Z  -4       8.563  20.048   5.609  1.00 43.60 LIG 0.04  A 
ATOM     27  CD1 TYR Z  -4       7.272  19.606   5.844  1.00 43.85 LIG 0.01  A 
BRANCH 25 28
ATOM     28 OH   TYR Z  -4      10.913  19.794   5.923  1.00 43.23 LIG-0.36  OA
ATOM     29 HH   TYR Z  -4      11.251  19.353   5.293  1.00 43.23 LIG 0.22  HD
ENDBRANCH 25 28
ENDBRANCH 21 22
ENDBRANCH 1 21
TORSDOF 11
ENDMDL
MODEL 35
USER: ADFR SOLUTION from run 102
USER: SCORE 8.529029 LL:  -1.124 LR:  -7.443 RR:   0.000 FEB:  -4.162
USER: RMSD 5.965659
USER: SEED 101
USER: STATUS no improvement in best in 23 clusters for 5 generations
USER: GENES 13
USER: genes 0 Translation |==|  0.59706 0.57065 0.50302
USER: genes 1 Rotation |==|  0.36571 0.03143 0.47997 0.60959
USER: genes 2 Torsion [C]-CA--N-[C] |==|  0.84207
USER: genes 3 Torsion [N]-C--CA-[N] |==|  0.82353
USER: genes 4 Torsion [C]-CA--N-[H1] |==|  0.90986
USER: genes 5 Torsion [C]-CA--CB-[OG] |==|  0.19445
USER: genes 6 Torsion [CA]-CB--OG-[HG] |==|  0.35243
USER: genes 7 Torsion [N]-CA--C-[N] |==|  0.89531
USER: genes 8 Torsion [C]-N--CA-[C] |==|  0.24826
USER: genes 9 Torsion [N]-CA--C-[O] |==|  0.45519
USER: genes 10 Torsion [N]-CA--CB-[CG] |==|  0.59821
USER: genes 11 Torsion [CA]-CB--CG-[CD2] |==|  0.87447
USER: genes 12 Torsion [CE2]-CZ--OH-[HH] |==|  0.08177
ROOT
ATOM      1  CA  TYR Z  -4       4.677  15.328   9.195  1.00 44.41 LIG 0.18  C 
ENDROOT
BRANCH 1 2
ATOM      2  N   TYR Z  -4       5.240  16.327   8.295  1.00 49.32 LIG-0.35  N 
ATOM      3 H    TYR Z  -4       4.708  16.976   8.107  1.00 49.32 LIG 0.16  HD
ATOM      4  C   SER Z  -5       6.475  16.218   7.817  1.00 53.16 LIG 0.25  C 
ATOM      5 O    SER Z  -5       7.190  15.236   8.023  1.00 46.54 LIG-0.27  OA
BRANCH 4 6
ATOM      6  CA  SER Z  -5       6.981  17.391   6.984  1.00 61.82 LIG 0.30  C 
BRANCH 6 7
ATOM      7  N   SER Z  -5       6.178  17.535   5.775  1.00 64.85 LIG-0.06  N 
ATOM      8 H1   SER Z  -5       5.900  16.734   5.506  1.00 64.85 LIG 0.28  HD
ATOM      9 H3   SER Z  -5       6.670  17.909   5.135  1.00 64.85 LIG 0.28  HD
ATOM     10 H2   SER Z  -5       5.473  18.050   5.947  1.00 64.85 LIG 0.28  HD
ENDBRANCH 6 7
BRANCH 6 11
ATOM     11  CB  SER Z  -5       6.958  18.684   7.806  1.00 66.88 LIG 0.21  C 
BRANCH 11 12
ATOM     12 OG   SER Z  -5       7.945  18.668   8.825  1.00 63.67 LIG-0.40  OA
ATOM     13 HG   SER Z  -5       8.419  19.359   8.767  1.00 63.67 LIG 0.21  HD
ENDBRANCH 11 12
ENDBRANCH 6 11
ENDBRANCH 4 6
ENDBRANCH 1 2
BRANCH 1 14
ATOM     14  C   TYR Z  -4       4.714  13.942   8.571  1.00 48.17 LIG 0.24  C 
ATOM     15  N   GLY Z  -3       4.466  13.883   7.267  1.00 50.01 LIG-0.35  N 
ATOM     16 H    GLY Z  -3       4.332  14.572   6.773  1.00 50.01 LIG 0.16  HD
ATOM     17 O    TYR Z  -4       4.944  12.946   9.256  1.00 57.82 LIG-0.27  OA
BRANCH 15 18
ATOM     18  CA  GLY Z  -3       4.403  12.616   6.562  1.00 64.94 LIG 0.21  C 
BRANCH 18 19
ATOM     19  C   GLY Z  -3       3.005  12.030   6.561  1.00 70.96 LIG 0.21  C 
ATOM     20 O    GLY Z  -3       2.702  11.132   5.775  1.00 75.87 LIG-0.29  OA
ENDBRANCH 18 19
ENDBRANCH 15 18
ENDBRANCH 1 14
BRANCH 1 21
ATOM     21  CB  TYR Z  -4       3.248  15.720   9.591  1.00 44.24 LIG 0.07  C 
BRANCH 21 22
ATOM     22  CG  TYR Z  -4       2.931  15.334  11.019  1.00 50.17 LIG-0.06  A 
ATOM     23  CD2 TYR Z  -4       3.274  14.082  11.514  1.00 45.93 LIG 0.01  A 
ATOM     24  CE2 TYR Z  -4       3.008  13.734  12.826  1.00 43.59 LIG 0.04  A 
ATOM     25  CZ  TYR Z  -4       2.399  14.645  13.663  1.00 44.55 LIG 0.07  A 
ATOM     26  CE1 TYR Z  -4       2.056  15.899  13.199  1.00 43.60 LIG 0.04  A 
ATOM     27  CD1 TYR Z  -4       2.326  16.238  11.884  1.00 43.85 LIG 0.01  A 
BRANCH 25 28
ATOM     28 OH   TYR Z  -4       2.132  14.302  14.968  1.00 43.23 LIG-0.36  OA
ATOM     29 HH   TYR Z  -4       2.701  13.744  15.234  1.00 43.23 LIG 0.22  HD
ENDBRANCH 25 28
ENDBRANCH 21 22
ENDBRANCH 1 21
TORSDOF 11
ENDMDL
MODEL 36
USER: ADFR SOLUTION from run 128
USER: SCORE 8.733078 LL:  -1.333 LR:  -7.419 RR:   0.000 FEB:  -4.138
USER: RMSD 6.507365
USER: SEED 127
USER: STATUS no improvement in best in 22 clusters for 5 generations
USER: GENES 13
USER: genes 0 Translation |==|  0.63886 0.59427 0.35741
USER: genes 1 Rotation |==|  0.47678 0.85691 0.40741 0.83690
USER: genes 2 Torsion [C]-CA--N-[C] |==|  0.85000
USER: genes 3 Torsion [N]-C--CA-[N] |==|  0.54584
USER: genes 4 Torsion [C]-CA--N-[H1] |==|  0.90147
USER: genes 5 Torsion [C]-CA--CB-[OG] |==|  0.74127
USER: genes 6 Torsion [CA]-CB--OG-[HG] |==|  0.80971
USER: genes 7 Torsion [N]-CA--C-[N] |==|  0.37629
USER: genes 8 Torsion [C]-N--CA-[C] |==|  0.45660
USER: genes 9 Torsion [N]-CA--C-[O] |==|  0.58215
USER: genes 10 Torsion [N]-CA--CB-[CG] |==|  0.52423
USER: genes 11 Torsion [CA]-CB--CG-[CD2] |==|  0.78490
USER: genes 12 Torsion [CE2]-CZ--OH-[HH] |==|  0.79175
ROOT
ATOM      1  CA  TYR Z  -4       5.367  15.735   7.011  1.00 44.41 LIG 0.18  C 
ENDROOT
BRANCH 1 2
ATOM      2  N   TYR Z  -4       6.382  16.778   6.919  1.00 49.32 LIG-0.35  N 
ATOM      3 H    TYR Z  -4       6.843  16.762   6.193  1.00 49.32 LIG 0.16  HD
ATOM      4  C   SER Z  -5       6.558  17.667   7.891  1.00 53.16 LIG 0.25  C 
ATOM      5 O    SER Z  -5       5.951  17.619   8.963  1.00 46.54 LIG-0.27  OA
BRANCH 4 6
ATOM      6  CA  SER Z  -5       7.568  18.776   7.616  1.00 61.82 LIG 0.30  C 
BRANCH 6 7
ATOM      7  N   SER Z  -5       7.951  19.430   8.861  1.00 64.85 LIG-0.06  N 
ATOM      8 H1   SER Z  -5       7.249  19.465   9.407  1.00 64.85 LIG 0.28  HD
ATOM      9 H3   SER Z  -5       8.233  20.256   8.689  1.00 64.85 LIG 0.28  HD
ATOM     10 H2   SER Z  -5       8.605  18.969   9.251  1.00 64.85 LIG 0.28  HD
ENDBRANCH 6 7
BRANCH 6 11
ATOM     11  CB  SER Z  -5       8.801  18.214   6.899  1.00 66.88 LIG 0.21  C 
BRANCH 11 12
ATOM     12 OG   SER Z  -5       9.819  17.859   7.822  1.00 63.67 LIG-0.40  OA
ATOM     13 HG   SER Z  -5      10.132  18.554   8.175  1.00 63.67 LIG 0.21  HD
ENDBRANCH 11 12
ENDBRANCH 6 11
ENDBRANCH 4 6
ENDBRANCH 1 2
BRANCH 1 14
ATOM     14  C   TYR Z  -4       5.519  14.932   8.293  1.00 48.17 LIG 0.24  C 
ATOM     15  N   GLY Z  -3       4.398  14.678   8.959  1.00 50.01 LIG-0.35  N 
ATOM     16 H    GLY Z  -3       3.616  14.905   8.685  1.00 50.01 LIG 0.16  HD
ATOM     17 O    TYR Z  -4       6.628  14.565   8.681  1.00 57.82 LIG-0.27  OA
BRANCH 15 18
ATOM     18  CA  GLY Z  -3       4.410  13.981  10.231  1.00 64.94 LIG 0.21  C 
BRANCH 18 19
ATOM     19  C   GLY Z  -3       3.102  14.132  10.980  1.00 70.96 LIG 0.21  C 
ATOM     20 O    GLY Z  -3       3.076  14.109  12.211  1.00 75.87 LIG-0.29  OA
ENDBRANCH 18 19
ENDBRANCH 15 18
ENDBRANCH 1 14
BRANCH 1 21
ATOM     21  CB  TYR Z  -4       5.432  14.826   5.776  1.00 44.24 LIG 0.07  C 
BRANCH 21 22
ATOM     22  CG  TYR Z  -4       4.268  13.862   5.724  1.00 50.17 LIG-0.06  A 
ATOM     23  CD2 TYR Z  -4       4.243  12.727   6.525  1.00 45.93 LIG 0.01  A 
ATOM     24  CE2 TYR Z  -4       3.169  11.856   6.498  1.00 43.59 LIG 0.04  A 
ATOM     25  CZ  TYR Z  -4       2.099  12.117   5.667  1.00 44.55 LIG 0.07  A 
ATOM     26  CE1 TYR Z  -4       2.095  13.243   4.868  1.00 43.60 LIG 0.04  A 
ATOM     27  CD1 TYR Z  -4       3.174  14.109   4.902  1.00 43.85 LIG 0.01  A 
BRANCH 25 28
ATOM     28 OH   TYR Z  -4       1.030  11.253   5.636  1.00 43.23 LIG-0.36  OA
ATOM     29 HH   TYR Z  -4       1.241  10.560   5.210  1.00 43.23 LIG 0.22  HD
ENDBRANCH 25 28
ENDBRANCH 21 22
ENDBRANCH 1 21
TORSDOF 11
ENDMDL
MODEL 37
USER: ADFR SOLUTION from run 12
USER: SCORE 7.845721 LL:  -1.230 LR:  -7.409 RR:   0.000 FEB:  -4.127
USER: RMSD 6.826989
USER: SEED 473638
USER: STATUS no improvement in best in 24 clusters for 5 generations
USER: GENES 13
USER: genes 0 Translation |==|  0.68559 0.58810 0.33455
USER: genes 1 Rotation |==|  0.34788 0.33195 0.25111 0.86969
USER: genes 2 Torsion [C]-CA--N-[C] |==|  0.18637
USER: genes 3 Torsion [N]-C--CA-[N] |==|  0.59193
USER: genes 4 Torsion [C]-CA--N-[H1] |==|  0.24407
USER: genes 5 Torsion [C]-CA--CB-[OG] |==|  0.80495
USER: genes 6 Torsion [CA]-CB--OG-[HG] |==|  0.81677
USER: genes 7 Torsion [N]-CA--C-[N] |==|  0.21604
USER: genes 8 Torsion [C]-N--CA-[C] |==|  0.32900
USER: genes 9 Torsion [N]-CA--C-[O] |==|  0.84440
USER: genes 10 Torsion [N]-CA--CB-[CG] |==|  0.45108
USER: genes 11 Torsion [CA]-CB--CG-[CD2] |==|  0.64355
USER: genes 12 Torsion [CE2]-CZ--OH-[HH] |==|  0.17711
ROOT
ATOM      1  CA  TYR Z  -4       6.138  15.629   6.668  1.00 44.41 LIG 0.18  C 
ENDROOT
BRANCH 1 2
ATOM      2  N   TYR Z  -4       7.006  16.798   6.729  1.00 49.32 LIG-0.35  N 
ATOM      3 H    TYR Z  -4       7.651  16.793   6.160  1.00 49.32 LIG 0.16  HD
ATOM      4  C   SER Z  -5       6.795  17.778   7.602  1.00 53.16 LIG 0.25  C 
ATOM      5 O    SER Z  -5       5.922  17.727   8.470  1.00 46.54 LIG-0.27  OA
BRANCH 4 6
ATOM      6  CA  SER Z  -5       7.703  18.997   7.480  1.00 61.82 LIG 0.30  C 
BRANCH 6 7
ATOM      7  N   SER Z  -5       7.951  19.576   8.795  1.00 64.85 LIG-0.06  N 
ATOM      8 H1   SER Z  -5       8.656  19.180   9.166  1.00 64.85 LIG 0.28  HD
ATOM      9 H3   SER Z  -5       7.237  19.455   9.312  1.00 64.85 LIG 0.28  HD
ATOM     10 H2   SER Z  -5       8.111  20.447   8.711  1.00 64.85 LIG 0.28  HD
ENDBRANCH 6 7
BRANCH 6 11
ATOM     11  CB  SER Z  -5       9.022  18.619   6.798  1.00 66.88 LIG 0.21  C 
BRANCH 11 12
ATOM     12 OG   SER Z  -5       9.826  17.808   7.641  1.00 63.67 LIG-0.40  OA
ATOM     13 HG   SER Z  -5      10.070  18.254   8.310  1.00 63.67 LIG 0.21  HD
ENDBRANCH 11 12
ENDBRANCH 6 11
ENDBRANCH 4 6
ENDBRANCH 1 2
BRANCH 1 14
ATOM     14  C   TYR Z  -4       4.745  16.003   6.188  1.00 48.17 LIG 0.24  C 
ATOM     15  N   GLY Z  -3       4.612  16.200   4.882  1.00 50.01 LIG-0.35  N 
ATOM     16 H    GLY Z  -3       5.246  16.090   4.312  1.00 50.01 LIG 0.16  HD
ATOM     17 O    TYR Z  -4       3.814  16.127   6.984  1.00 57.82 LIG-0.27  OA
BRANCH 15 18
ATOM     18  CA  GLY Z  -3       3.352  16.628   4.301  1.00 64.94 LIG 0.21  C 
BRANCH 18 19
ATOM     19  C   GLY Z  -3       3.467  17.971   3.609  1.00 70.96 LIG 0.21  C 
ATOM     20 O    GLY Z  -3       3.880  18.958   4.219  1.00 75.87 LIG-0.29  OA
ENDBRANCH 18 19
ENDBRANCH 15 18
ENDBRANCH 1 14
BRANCH 1 21
ATOM     21  CB  TYR Z  -4       6.086  14.939   8.038  1.00 44.24 LIG 0.07  C 
BRANCH 21 22
ATOM     22  CG  TYR Z  -4       4.903  14.004   8.155  1.00 50.17 LIG-0.06  A 
ATOM     23  CD2 TYR Z  -4       4.028  14.088   9.231  1.00 45.93 LIG 0.01  A 
ATOM     24  CE2 TYR Z  -4       2.931  13.251   9.328  1.00 43.59 LIG 0.04  A 
ATOM     25  CZ  TYR Z  -4       2.694  12.319   8.339  1.00 44.55 LIG 0.07  A 
ATOM     26  CE1 TYR Z  -4       3.543  12.221   7.255  1.00 43.60 LIG 0.04  A 
ATOM     27  CD1 TYR Z  -4       4.638  13.063   7.166  1.00 43.85 LIG 0.01  A 
BRANCH 25 28
ATOM     28 OH   TYR Z  -4       1.605  11.484   8.433  1.00 43.23 LIG-0.36  OA
ATOM     29 HH   TYR Z  -4       0.899  11.939   8.403  1.00 43.23 LIG 0.22  HD
ENDBRANCH 25 28
ENDBRANCH 21 22
ENDBRANCH 1 21
TORSDOF 11
ENDMDL
MODEL 38
USER: ADFR SOLUTION from run 3
USER: SCORE 7.953798 LL:  -1.321 LR:  -7.361 RR:   0.000 FEB:  -4.080
USER: RMSD 8.924182
USER: SEED 508899
USER: STATUS no improvement in best in 36 clusters for 5 generations
USER: GENES 13
USER: genes 0 Translation |==|  0.71519 0.77388 0.33633
USER: genes 1 Rotation |==|  0.85295 0.28082 0.76229 0.59269
USER: genes 2 Torsion [C]-CA--N-[C] |==|  0.62138
USER: genes 3 Torsion [N]-C--CA-[N] |==|  0.85592
USER: genes 4 Torsion [C]-CA--N-[H1] |==|  0.65919
USER: genes 5 Torsion [C]-CA--CB-[OG] |==|  0.87149
USER: genes 6 Torsion [CA]-CB--OG-[HG] |==|  0.91030
USER: genes 7 Torsion [N]-CA--C-[N] |==|  0.58321
USER: genes 8 Torsion [C]-N--CA-[C] |==|  0.79191
USER: genes 9 Torsion [N]-CA--C-[O] |==|  0.85752
USER: genes 10 Torsion [N]-CA--CB-[CG] |==|  0.62710
USER: genes 11 Torsion [CA]-CB--CG-[CD2] |==|  0.74077
USER: genes 12 Torsion [CE2]-CZ--OH-[HH] |==|  0.75484
ROOT
ATOM      1  CA  TYR Z  -4       6.627  18.833   6.695  1.00 44.41 LIG 0.18  C 
ENDROOT
BRANCH 1 2
ATOM      2  N   TYR Z  -4       6.097  17.760   5.862  1.00 49.32 LIG-0.35  N 
ATOM      3 H    TYR Z  -4       6.690  17.340   5.403  1.00 49.32 LIG 0.16  HD
ATOM      4  C   SER Z  -5       4.799  17.476   5.835  1.00 53.16 LIG 0.25  C 
ATOM      5 O    SER Z  -5       3.952  18.146   6.429  1.00 46.54 LIG-0.27  OA
BRANCH 4 6
ATOM      6  CA  SER Z  -5       4.393  16.254   5.017  1.00 61.82 LIG 0.30  C 
BRANCH 6 7
ATOM      7  N   SER Z  -5       4.951  16.340   3.672  1.00 64.85 LIG-0.06  N 
ATOM      8 H1   SER Z  -5       4.293  16.300   3.074  1.00 64.85 LIG 0.28  HD
ATOM      9 H3   SER Z  -5       5.513  15.664   3.540  1.00 64.85 LIG 0.28  HD
ATOM     10 H2   SER Z  -5       5.387  17.111   3.580  1.00 64.85 LIG 0.28  HD
ENDBRANCH 6 7
BRANCH 6 11
ATOM     11  CB  SER Z  -5       4.851  14.967   5.710  1.00 66.88 LIG 0.21  C 
BRANCH 11 12
ATOM     12 OG   SER Z  -5       6.196  15.067   6.151  1.00 63.67 LIG-0.40  OA
ATOM     13 HG   SER Z  -5       6.629  15.556   5.623  1.00 63.67 LIG 0.21  HD
ENDBRANCH 11 12
ENDBRANCH 6 11
ENDBRANCH 4 6
ENDBRANCH 1 2
BRANCH 1 14
ATOM     14  C   TYR Z  -4       7.650  19.664   5.936  1.00 48.17 LIG 0.24  C 
ATOM     15  N   GLY Z  -3       8.609  20.218   6.668  1.00 50.01 LIG-0.35  N 
ATOM     16 H    GLY Z  -3       8.697  20.099   7.514  1.00 50.01 LIG 0.16  HD
ATOM     17 O    TYR Z  -4       7.563  19.815   4.718  1.00 57.82 LIG-0.27  OA
BRANCH 15 18
ATOM     18  CA  GLY Z  -3       9.608  21.090   6.078  1.00 64.94 LIG 0.21  C 
BRANCH 18 19
ATOM     19  C   GLY Z  -3      10.644  20.320   5.284  1.00 70.96 LIG 0.21  C 
ATOM     20 O    GLY Z  -3      11.231  19.360   5.784  1.00 75.87 LIG-0.29  OA
ENDBRANCH 18 19
ENDBRANCH 15 18
ENDBRANCH 1 14
BRANCH 1 21
ATOM     21  CB  TYR Z  -4       7.228  18.253   7.982  1.00 44.24 LIG 0.07  C 
BRANCH 21 22
ATOM     22  CG  TYR Z  -4       6.796  19.029   9.206  1.00 50.17 LIG-0.06  A 
ATOM     23  CD2 TYR Z  -4       7.573  20.068   9.706  1.00 45.93 LIG 0.01  A 
ATOM     24  CE2 TYR Z  -4       7.170  20.796  10.810  1.00 43.59 LIG 0.04  A 
ATOM     25  CZ  TYR Z  -4       5.973  20.494  11.426  1.00 44.55 LIG 0.07  A 
ATOM     26  CE1 TYR Z  -4       5.178  19.474  10.945  1.00 43.60 LIG 0.04  A 
ATOM     27  CD1 TYR Z  -4       5.590  18.751   9.839  1.00 43.85 LIG 0.01  A 
BRANCH 25 28
ATOM     28 OH   TYR Z  -4       5.569  21.216  12.526  1.00 43.23 LIG-0.36  OA
ATOM     29 HH   TYR Z  -4       5.880  20.863  13.223  1.00 43.23 LIG 0.22  HD
ENDBRANCH 25 28
ENDBRANCH 21 22
ENDBRANCH 1 21
TORSDOF 11
ENDMDL
MODEL 39
USER: ADFR SOLUTION from run 59
USER: SCORE 8.696085 LL:  -1.520 LR:  -7.351 RR:   0.000 FEB:  -4.070
USER: RMSD 6.255326
USER: SEED 58
USER: STATUS no improvement in best in 33 clusters for 5 generations
USER: GENES 13
USER: genes 0 Translation |==|  0.45292 0.37640 0.32219
USER: genes 1 Rotation |==|  0.24412 0.43505 0.89270 0.66154
USER: genes 2 Torsion [C]-CA--N-[C] |==|  0.64742
USER: genes 3 Torsion [N]-C--CA-[N] |==|  0.39224
USER: genes 4 Torsion [C]-CA--N-[H1] |==|  0.98177
USER: genes 5 Torsion [C]-CA--CB-[OG] |==|  0.69131
USER: genes 6 Torsion [CA]-CB--OG-[HG] |==|  0.14687
USER: genes 7 Torsion [N]-CA--C-[N] |==|  0.35001
USER: genes 8 Torsion [C]-N--CA-[C] |==|  0.74625
USER: genes 9 Torsion [N]-CA--C-[O] |==|  0.85708
USER: genes 10 Torsion [N]-CA--CB-[CG] |==|  0.63721
USER: genes 11 Torsion [CA]-CB--CG-[CD2] |==|  0.30427
USER: genes 12 Torsion [CE2]-CZ--OH-[HH] |==|  0.46455
ROOT
ATOM      1  CA  TYR Z  -4       2.299  11.977   6.483  1.00 44.41 LIG 0.18  C 
ENDROOT
BRANCH 1 2
ATOM      2  N   TYR Z  -4       1.248  10.968   6.436  1.00 49.32 LIG-0.35  N 
ATOM      3 H    TYR Z  -4       0.571  11.136   6.939  1.00 49.32 LIG 0.16  HD
ATOM      4  C   SER Z  -5       1.353   9.888   5.670  1.00 53.16 LIG 0.25  C 
ATOM      5 O    SER Z  -5       2.368   9.617   5.025  1.00 46.54 LIG-0.27  OA
BRANCH 4 6
ATOM      6  CA  SER Z  -5       0.132   8.975   5.621  1.00 61.82 LIG 0.30  C 
BRANCH 6 7
ATOM      7  N   SER Z  -5      -0.063   8.464   4.269  1.00 64.85 LIG-0.06  N 
ATOM      8 H1   SER Z  -5       0.512   8.859   3.716  1.00 64.85 LIG 0.28  HD
ATOM      9 H3   SER Z  -5      -0.894   8.635   4.003  1.00 64.85 LIG 0.28  HD
ATOM     10 H2   SER Z  -5       0.076   7.585   4.261  1.00 64.85 LIG 0.28  HD
ENDBRANCH 6 7
BRANCH 6 11
ATOM     11  CB  SER Z  -5       0.283   7.821   6.618  1.00 66.88 LIG 0.21  C 
BRANCH 11 12
ATOM     12 OG   SER Z  -5       0.454   6.580   5.951  1.00 63.67 LIG-0.40  OA
ATOM     13 HG   SER Z  -5       1.085   6.641   5.400  1.00 63.67 LIG 0.21  HD
ENDBRANCH 11 12
ENDBRANCH 6 11
ENDBRANCH 4 6
ENDBRANCH 1 2
BRANCH 1 14
ATOM     14  C   TYR Z  -4       2.735  12.251   7.914  1.00 48.17 LIG 0.24  C 
ATOM     15  N   GLY Z  -3       4.035  12.135   8.160  1.00 50.01 LIG-0.35  N 
ATOM     16 H    GLY Z  -3       4.623  11.958   7.559  1.00 50.01 LIG 0.16  HD
ATOM     17 O    TYR Z  -4       1.911  12.545   8.780  1.00 57.82 LIG-0.27  OA
BRANCH 15 18
ATOM     18  CA  GLY Z  -3       4.574  12.302   9.497  1.00 64.94 LIG 0.21  C 
BRANCH 18 19
ATOM     19  C   GLY Z  -3       4.985  13.734   9.774  1.00 70.96 LIG 0.21  C 
ATOM     20 O    GLY Z  -3       5.725  14.336   8.994  1.00 75.87 LIG-0.29  OA
ENDBRANCH 18 19
ENDBRANCH 15 18
ENDBRANCH 1 14
BRANCH 1 21
ATOM     21  CB  TYR Z  -4       1.827  13.263   5.791  1.00 44.24 LIG 0.07  C 
BRANCH 21 22
ATOM     22  CG  TYR Z  -4       2.842  13.771   4.791  1.00 50.17 LIG-0.06  A 
ATOM     23  CD2 TYR Z  -4       2.595  13.705   3.425  1.00 45.93 LIG 0.01  A 
ATOM     24  CE2 TYR Z  -4       3.510  14.191   2.509  1.00 43.59 LIG 0.04  A 
ATOM     25  CZ  TYR Z  -4       4.686  14.758   2.954  1.00 44.55 LIG 0.07  A 
ATOM     26  CE1 TYR Z  -4       4.951  14.845   4.305  1.00 43.60 LIG 0.04  A 
ATOM     27  CD1 TYR Z  -4       4.030  14.355   5.215  1.00 43.85 LIG 0.01  A 
BRANCH 25 28
ATOM     28 OH   TYR Z  -4       5.598  15.242   2.045  1.00 43.23 LIG-0.36  OA
ATOM     29 HH   TYR Z  -4       6.173  15.708   2.445  1.00 43.23 LIG 0.22  HD
ENDBRANCH 25 28
ENDBRANCH 21 22
ENDBRANCH 1 21
TORSDOF 11
ENDMDL
MODEL 40
USER: ADFR SOLUTION from run 74
USER: SCORE 8.491258 LL:  -1.363 LR:  -7.340 RR:   0.000 FEB:  -4.059
USER: RMSD 6.999391
USER: SEED 73
USER: STATUS no improvement in best in 36 clusters for 5 generations
USER: GENES 13
USER: genes 0 Translation |==|  0.59659 0.72350 0.48262
USER: genes 1 Rotation |==|  0.09302 0.29147 0.68465 0.58235
USER: genes 2 Torsion [C]-CA--N-[C] |==|  0.75556
USER: genes 3 Torsion [N]-C--CA-[N] |==|  0.19014
USER: genes 4 Torsion [C]-CA--N-[H1] |==|  0.12184
USER: genes 5 Torsion [C]-CA--CB-[OG] |==|  0.36823
USER: genes 6 Torsion [CA]-CB--OG-[HG] |==|  0.42706
USER: genes 7 Torsion [N]-CA--C-[N] |==|  0.21372
USER: genes 8 Torsion [C]-N--CA-[C] |==|  0.73466
USER: genes 9 Torsion [N]-CA--C-[O] |==|  0.01630
USER: genes 10 Torsion [N]-CA--CB-[CG] |==|  0.64622
USER: genes 11 Torsion [CA]-CB--CG-[CD2] |==|  0.46063
USER: genes 12 Torsion [CE2]-CZ--OH-[HH] |==|  0.72629
ROOT
ATOM      1  CA  TYR Z  -4       4.670  17.964   8.889  1.00 44.41 LIG 0.18  C 
ENDROOT
BRANCH 1 2
ATOM      2  N   TYR Z  -4       4.624  16.961   7.833  1.00 49.32 LIG-0.35  N 
ATOM      3 H    TYR Z  -4       4.244  17.225   7.108  1.00 49.32 LIG 0.16  HD
ATOM      4  C   SER Z  -5       5.134  15.746   8.004  1.00 53.16 LIG 0.25  C 
ATOM      5 O    SER Z  -5       5.592  15.355   9.079  1.00 46.54 LIG-0.27  OA
BRANCH 4 6
ATOM      6  CA  SER Z  -5       5.128  14.834   6.781  1.00 61.82 LIG 0.30  C 
BRANCH 6 7
ATOM      7  N   SER Z  -5       6.059  15.333   5.776  1.00 64.85 LIG-0.06  N 
ATOM      8 H1   SER Z  -5       6.819  15.577   6.169  1.00 64.85 LIG 0.28  HD
ATOM      9 H3   SER Z  -5       5.701  16.034   5.361  1.00 64.85 LIG 0.28  HD
ATOM     10 H2   SER Z  -5       6.227  14.692   5.182  1.00 64.85 LIG 0.28  HD
ENDBRANCH 6 7
BRANCH 6 11
ATOM     11  CB  SER Z  -5       5.481  13.397   7.179  1.00 66.88 LIG 0.21  C 
BRANCH 11 12
ATOM     12 OG   SER Z  -5       4.577  12.465   6.609  1.00 63.67 LIG-0.40  OA
ATOM     13 HG   SER Z  -5       4.958  11.720   6.524  1.00 63.67 LIG 0.21  HD
ENDBRANCH 11 12
ENDBRANCH 6 11
ENDBRANCH 4 6
ENDBRANCH 1 2
BRANCH 1 14
ATOM     14  C   TYR Z  -4       3.461  17.855   9.805  1.00 48.17 LIG 0.24  C 
ATOM     15  N   GLY Z  -3       3.487  16.864  10.689  1.00 50.01 LIG-0.35  N 
ATOM     16 H    GLY Z  -3       4.151  16.328  10.790  1.00 50.01 LIG 0.16  HD
ATOM     17 O    TYR Z  -4       2.517  18.639   9.703  1.00 57.82 LIG-0.27  OA
BRANCH 15 18
ATOM     18  CA  GLY Z  -3       2.367  16.606  11.576  1.00 64.94 LIG 0.21  C 
BRANCH 18 19
ATOM     19  C   GLY Z  -3       2.546  17.263  12.930  1.00 70.96 LIG 0.21  C 
ATOM     20 O    GLY Z  -3       3.499  18.013  13.143  1.00 75.87 LIG-0.29  OA
ENDBRANCH 18 19
ENDBRANCH 15 18
ENDBRANCH 1 14
BRANCH 1 21
ATOM     21  CB  TYR Z  -4       4.777  19.368   8.278  1.00 44.24 LIG 0.07  C 
BRANCH 21 22
ATOM     22  CG  TYR Z  -4       5.936  20.148   8.857  1.00 50.17 LIG-0.06  A 
ATOM     23  CD2 TYR Z  -4       6.390  21.312   8.248  1.00 45.93 LIG 0.01  A 
ATOM     24  CE2 TYR Z  -4       7.434  22.042   8.788  1.00 43.59 LIG 0.04  A 
ATOM     25  CZ  TYR Z  -4       8.033  21.615   9.955  1.00 44.55 LIG 0.07  A 
ATOM     26  CE1 TYR Z  -4       7.595  20.468  10.585  1.00 43.60 LIG 0.04  A 
ATOM     27  CD1 TYR Z  -4       6.550  19.744  10.037  1.00 43.85 LIG 0.01  A 
BRANCH 25 28
ATOM     28 OH   TYR Z  -4       9.072  22.337  10.494  1.00 43.23 LIG-0.36  OA
ATOM     29 HH   TYR Z  -4       9.803  21.985  10.275  1.00 43.23 LIG 0.22  HD
ENDBRANCH 25 28
ENDBRANCH 21 22
ENDBRANCH 1 21
TORSDOF 11
ENDMDL
MODEL 41
USER: ADFR SOLUTION from run 128
USER: SCORE 9.048314 LL:  -1.815 LR:  -7.307 RR:   0.000 FEB:  -4.025
USER: RMSD 6.050180
USER: SEED 127
USER: STATUS no improvement in best in 22 clusters for 5 generations
USER: GENES 13
USER: genes 0 Translation |==|  0.66691 0.63503 0.44469
USER: genes 1 Rotation |==|  0.52148 0.25502 0.23603 0.84619
USER: genes 2 Torsion [C]-CA--N-[C] |==|  0.78781
USER: genes 3 Torsion [N]-C--CA-[N] |==|  0.52107
USER: genes 4 Torsion [C]-CA--N-[H1] |==|  0.95033
USER: genes 5 Torsion [C]-CA--CB-[OG] |==|  0.19334
USER: genes 6 Torsion [CA]-CB--OG-[HG] |==|  0.19464
USER: genes 7 Torsion [N]-CA--C-[N] |==|  0.34444
USER: genes 8 Torsion [C]-N--CA-[C] |==|  0.67250
USER: genes 9 Torsion [N]-CA--C-[O] |==|  0.01851
USER: genes 10 Torsion [N]-CA--CB-[CG] |==|  0.44977
USER: genes 11 Torsion [CA]-CB--CG-[CD2] |==|  0.69466
USER: genes 12 Torsion [CE2]-CZ--OH-[HH] |==|  0.12402
ROOT
ATOM      1  CA  TYR Z  -4       5.830  16.438   8.320  1.00 44.41 LIG 0.18  C 
ENDROOT
BRANCH 1 2
ATOM      2  N   TYR Z  -4       6.089  17.573   9.198  1.00 49.32 LIG-0.35  N 
ATOM      3 H    TYR Z  -4       5.670  17.545   9.949  1.00 49.32 LIG 0.16  HD
ATOM      4  C   SER Z  -5       6.910  18.555   8.843  1.00 53.16 LIG 0.25  C 
ATOM      5 O    SER Z  -5       7.431  18.625   7.728  1.00 46.54 LIG-0.27  OA
BRANCH 4 6
ATOM      6  CA  SER Z  -5       7.187  19.619   9.901  1.00 61.82 LIG 0.30  C 
BRANCH 6 7
ATOM      7  N   SER Z  -5       7.951  20.718   9.323  1.00 64.85 LIG-0.06  N 
ATOM      8 H1   SER Z  -5       8.326  20.452   8.562  1.00 64.85 LIG 0.28  HD
ATOM      9 H3   SER Z  -5       8.585  20.971   9.893  1.00 64.85 LIG 0.28  HD
ATOM     10 H2   SER Z  -5       7.407  21.405   9.162  1.00 64.85 LIG 0.28  HD
ENDBRANCH 6 7
BRANCH 6 11
ATOM     11  CB  SER Z  -5       5.875  20.130  10.505  1.00 66.88 LIG 0.21  C 
BRANCH 11 12
ATOM     12 OG   SER Z  -5       5.252  19.138  11.305  1.00 63.67 LIG-0.40  OA
ATOM     13 HG   SER Z  -5       5.701  19.018  12.005  1.00 63.67 LIG 0.21  HD
ENDBRANCH 11 12
ENDBRANCH 6 11
ENDBRANCH 4 6
ENDBRANCH 1 2
BRANCH 1 14
ATOM     14  C   TYR Z  -4       4.880  16.819   7.195  1.00 48.17 LIG 0.24  C 
ATOM     15  N   GLY Z  -3       5.321  16.603   5.962  1.00 50.01 LIG-0.35  N 
ATOM     16 H    GLY Z  -3       6.076  16.233   5.779  1.00 50.01 LIG 0.16  HD
ATOM     17 O    TYR Z  -4       3.780  17.314   7.438  1.00 57.82 LIG-0.27  OA
BRANCH 15 18
ATOM     18  CA  GLY Z  -3       4.543  16.984   4.798  1.00 64.94 LIG 0.21  C 
BRANCH 18 19
ATOM     19  C   GLY Z  -3       4.163  15.790   3.946  1.00 70.96 LIG 0.21  C 
ATOM     20 O    GLY Z  -3       4.404  14.644   4.329  1.00 75.87 LIG-0.29  OA
ENDBRANCH 18 19
ENDBRANCH 15 18
ENDBRANCH 1 14
BRANCH 1 21
ATOM     21  CB  TYR Z  -4       5.282  15.258   9.133  1.00 44.24 LIG 0.07  C 
BRANCH 21 22
ATOM     22  CG  TYR Z  -4       4.596  14.237   8.253  1.00 50.17 LIG-0.06  A 
ATOM     23  CD2 TYR Z  -4       3.217  14.069   8.294  1.00 45.93 LIG 0.01  A 
ATOM     24  CE2 TYR Z  -4       2.583  13.154   7.473  1.00 43.59 LIG 0.04  A 
ATOM     25  CZ  TYR Z  -4       3.328  12.397   6.592  1.00 44.55 LIG 0.07  A 
ATOM     26  CE1 TYR Z  -4       4.697  12.551   6.525  1.00 43.60 LIG 0.04  A 
ATOM     27  CD1 TYR Z  -4       5.323  13.469   7.351  1.00 43.85 LIG 0.01  A 
BRANCH 25 28
ATOM     28 OH   TYR Z  -4       2.701  11.485   5.775  1.00 43.23 LIG-0.36  OA
ATOM     29 HH   TYR Z  -4       2.013  11.833   5.441  1.00 43.23 LIG 0.22  HD
ENDBRANCH 25 28
ENDBRANCH 21 22
ENDBRANCH 1 21
TORSDOF 11
ENDMDL
MODEL 42
USER: ADFR SOLUTION from run 151
USER: SCORE 8.845341 LL:  -1.564 LR:  -7.288 RR:   0.000 FEB:  -4.006
USER: RMSD 5.517549
USER: SEED 150
USER: STATUS no improvement in best in 20 clusters for 5 generations
USER: GENES 13
USER: genes 0 Translation |==|  0.52244 0.44843 0.37109
USER: genes 1 Rotation |==|  0.39152 0.11060 0.27273 0.68694
USER: genes 2 Torsion [C]-CA--N-[C] |==|  0.80000
USER: genes 3 Torsion [N]-C--CA-[N] |==|  0.72647
USER: genes 4 Torsion [C]-CA--N-[H1] |==|  0.67233
USER: genes 5 Torsion [C]-CA--CB-[OG] |==|  0.15441
USER: genes 6 Torsion [CA]-CB--OG-[HG] |==|  0.48143
USER: genes 7 Torsion [N]-CA--C-[N] |==|  0.95619
USER: genes 8 Torsion [C]-N--CA-[C] |==|  0.61946
USER: genes 9 Torsion [N]-CA--C-[O] |==|  0.16486
USER: genes 10 Torsion [N]-CA--CB-[CG] |==|  0.85281
USER: genes 11 Torsion [CA]-CB--CG-[CD2] |==|  0.92052
USER: genes 12 Torsion [CE2]-CZ--OH-[HH] |==|  0.14403
ROOT
ATOM      1  CA  TYR Z  -4       3.446  13.219   7.216  1.00 44.41 LIG 0.18  C 
ENDROOT
BRANCH 1 2
ATOM      2  N   TYR Z  -4       4.153  14.486   7.363  1.00 49.32 LIG-0.35  N 
ATOM      3 H    TYR Z  -4       3.675  15.125   7.682  1.00 49.32 LIG 0.16  HD
ATOM      4  C   SER Z  -5       5.431  14.614   7.023  1.00 53.16 LIG 0.25  C 
ATOM      5 O    SER Z  -5       6.076  13.713   6.482  1.00 46.54 LIG-0.27  OA
BRANCH 4 6
ATOM      6  CA  SER Z  -5       6.082  15.957   7.339  1.00 61.82 LIG 0.30  C 
BRANCH 6 7
ATOM      7  N   SER Z  -5       6.101  16.801   6.150  1.00 64.85 LIG-0.06  N 
ATOM      8 H1   SER Z  -5       6.943  16.981   5.926  1.00 64.85 LIG 0.28  HD
ATOM      9 H3   SER Z  -5       5.670  17.561   6.318  1.00 64.85 LIG 0.28  HD
ATOM     10 H2   SER Z  -5       5.701  16.376   5.478  1.00 64.85 LIG 0.28  HD
ENDBRANCH 6 7
BRANCH 6 11
ATOM     11  CB  SER Z  -5       5.343  16.655   8.486  1.00 66.88 LIG 0.21  C 
BRANCH 11 12
ATOM     12 OG   SER Z  -5       5.276  15.828   9.637  1.00 63.67 LIG-0.40  OA
ATOM     13 HG   SER Z  -5       4.950  16.264  10.277  1.00 63.67 LIG 0.21  HD
ENDBRANCH 11 12
ENDBRANCH 6 11
ENDBRANCH 4 6
ENDBRANCH 1 2
BRANCH 1 14
ATOM     14  C   TYR Z  -4       3.176  12.906   5.753  1.00 48.17 LIG 0.24  C 
ATOM     15  N   GLY Z  -3       3.307  13.920   4.906  1.00 50.01 LIG-0.35  N 
ATOM     16 H    GLY Z  -3       3.567  14.707   5.135  1.00 50.01 LIG 0.16  HD
ATOM     17 O    TYR Z  -4       2.840  11.776   5.400  1.00 57.82 LIG-0.27  OA
BRANCH 15 18
ATOM     18  CA  GLY Z  -3       3.012  13.774   3.492  1.00 64.94 LIG 0.21  C 
BRANCH 18 19
ATOM     19  C   GLY Z  -3       4.051  14.447   2.618  1.00 70.96 LIG 0.21  C 
ATOM     20 O    GLY Z  -3       5.234  14.109   2.676  1.00 75.87 LIG-0.29  OA
ENDBRANCH 18 19
ENDBRANCH 15 18
ENDBRANCH 1 14
BRANCH 1 21
ATOM     21  CB  TYR Z  -4       2.144  13.246   8.027  1.00 44.24 LIG 0.07  C 
BRANCH 21 22
ATOM     22  CG  TYR Z  -4       2.384  13.636   9.469  1.00 50.17 LIG-0.06  A 
ATOM     23  CD2 TYR Z  -4       3.596  13.359  10.092  1.00 45.93 LIG 0.01  A 
ATOM     24  CE2 TYR Z  -4       3.829  13.736  11.402  1.00 43.59 LIG 0.04  A 
ATOM     25  CZ  TYR Z  -4       2.847  14.403  12.105  1.00 44.55 LIG 0.07  A 
ATOM     26  CE1 TYR Z  -4       1.639  14.699  11.507  1.00 43.60 LIG 0.04  A 
ATOM     27  CD1 TYR Z  -4       1.415  14.318  10.195  1.00 43.85 LIG 0.01  A 
BRANCH 25 28
ATOM     28 OH   TYR Z  -4       3.075  14.778  13.409  1.00 43.23 LIG-0.36  OA
ATOM     29 HH   TYR Z  -4       3.799  15.202  13.457  1.00 43.23 LIG 0.22  HD
ENDBRANCH 25 28
ENDBRANCH 21 22
ENDBRANCH 1 21
TORSDOF 11
ENDMDL
MODEL 43
USER: ADFR SOLUTION from run 171
USER: SCORE 8.588105 LL:  -1.438 LR:  -7.252 RR:   0.000 FEB:  -3.971
USER: RMSD 5.286731
USER: SEED 170
USER: STATUS no improvement in best in 25 clusters for 5 generations
USER: GENES 13
USER: genes 0 Translation |==|  0.56670 0.66745 0.52098
USER: genes 1 Rotation |==|  0.56978 0.57624 0.41424 0.98163
USER: genes 2 Torsion [C]-CA--N-[C] |==|  0.78405
USER: genes 3 Torsion [N]-C--CA-[N] |==|  0.85888
USER: genes 4 Torsion [C]-CA--N-[H1] |==|  0.12667
USER: genes 5 Torsion [C]-CA--CB-[OG] |==|  0.51893
USER: genes 6 Torsion [CA]-CB--OG-[HG] |==|  0.17465
USER: genes 7 Torsion [N]-CA--C-[N] |==|  0.88889
USER: genes 8 Torsion [C]-N--CA-[C] |==|  0.44522
USER: genes 9 Torsion [N]-CA--C-[O] |==|  0.05613
USER: genes 10 Torsion [N]-CA--CB-[CG] |==|  0.45085
USER: genes 11 Torsion [CA]-CB--CG-[CD2] |==|  0.25104
USER: genes 12 Torsion [CE2]-CZ--OH-[HH] |==|  0.28966
ROOT
ATOM      1  CA  TYR Z  -4       4.177  16.997   9.465  1.00 44.41 LIG 0.18  C 
ENDROOT
BRANCH 1 2
ATOM      2  N   TYR Z  -4       4.515  17.908  10.552  1.00 49.32 LIG-0.35  N 
ATOM      3 H    TYR Z  -4       5.178  17.652  11.037  1.00 49.32 LIG 0.16  HD
ATOM      4  C   SER Z  -5       3.837  19.033  10.754  1.00 53.16 LIG 0.25  C 
ATOM      5 O    SER Z  -5       2.834  19.339  10.107  1.00 46.54 LIG-0.27  OA
BRANCH 4 6
ATOM      6  CA  SER Z  -5       4.370  19.953  11.849  1.00 61.82 LIG 0.30  C 
BRANCH 6 7
ATOM      7  N   SER Z  -5       4.576  19.202  13.082  1.00 64.85 LIG-0.06  N 
ATOM      8 H1   SER Z  -5       4.992  18.437  12.898  1.00 64.85 LIG 0.28  HD
ATOM      9 H3   SER Z  -5       3.789  19.029  13.459  1.00 64.85 LIG 0.28  HD
ATOM     10 H2   SER Z  -5       5.074  19.682  13.642  1.00 64.85 LIG 0.28  HD
ENDBRANCH 6 7
BRANCH 6 11
ATOM     11  CB  SER Z  -5       5.672  20.624  11.400  1.00 66.88 LIG 0.21  C 
BRANCH 11 12
ATOM     12 OG   SER Z  -5       6.266  21.361  12.458  1.00 63.67 LIG-0.40  OA
ATOM     13 HG   SER Z  -5       6.475  20.838  13.081  1.00 63.67 LIG 0.21  HD
ENDBRANCH 11 12
ENDBRANCH 6 11
ENDBRANCH 4 6
ENDBRANCH 1 2
BRANCH 1 14
ATOM     14  C   TYR Z  -4       2.953  16.162   9.807  1.00 48.17 LIG 0.24  C 
ATOM     15  N   GLY Z  -3       2.879  15.722  11.058  1.00 50.01 LIG-0.35  N 
ATOM     16 H    GLY Z  -3       3.451  15.916  11.670  1.00 50.01 LIG 0.16  HD
ATOM     17 O    TYR Z  -4       2.104  15.906   8.955  1.00 57.82 LIG-0.27  OA
BRANCH 15 18
ATOM     18  CA  GLY Z  -3       1.799  14.858  11.499  1.00 64.94 LIG 0.21  C 
BRANCH 18 19
ATOM     19  C   GLY Z  -3       2.147  14.108  12.768  1.00 70.96 LIG 0.21  C 
ATOM     20 O    GLY Z  -3       3.046  14.509  13.508  1.00 75.87 LIG-0.29  OA
ENDBRANCH 18 19
ENDBRANCH 15 18
ENDBRANCH 1 14
BRANCH 1 21
ATOM     21  CB  TYR Z  -4       5.381  16.107   9.130  1.00 44.24 LIG 0.07  C 
BRANCH 21 22
ATOM     22  CG  TYR Z  -4       4.975  14.885   8.336  1.00 50.17 LIG-0.06  A 
ATOM     23  CD2 TYR Z  -4       4.956  14.909   6.946  1.00 45.93 LIG 0.01  A 
ATOM     24  CE2 TYR Z  -4       4.610  13.787   6.216  1.00 43.59 LIG 0.04  A 
ATOM     25  CZ  TYR Z  -4       4.284  12.619   6.873  1.00 44.55 LIG 0.07  A 
ATOM     26  CE1 TYR Z  -4       4.304  12.566   8.252  1.00 43.60 LIG 0.04  A 
ATOM     27  CD1 TYR Z  -4       4.651  13.694   8.975  1.00 43.85 LIG 0.01  A 
BRANCH 25 28
ATOM     28 OH   TYR Z  -4       3.937  11.501   6.150  1.00 43.23 LIG-0.36  OA
ATOM     29 HH   TYR Z  -4       4.578  10.957   6.150  1.00 43.23 LIG 0.22  HD
ENDBRANCH 25 28
ENDBRANCH 21 22
ENDBRANCH 1 21
TORSDOF 11
ENDMDL
MODEL 44
USER: ADFR SOLUTION from run 18
USER: SCORE 8.449490 LL:  -1.462 LR:  -7.253 RR:   0.000 FEB:  -3.972
USER: RMSD 7.458210
USER: SEED 17
USER: STATUS no improvement in best in 25 clusters for 5 generations
USER: GENES 13
USER: genes 0 Translation |==|  0.65635 0.63097 0.37534
USER: genes 1 Rotation |==|  0.18392 0.84302 0.35655 0.60886
USER: genes 2 Torsion [C]-CA--N-[C] |==|  0.73337
USER: genes 3 Torsion [N]-C--CA-[N] |==|  0.99551
USER: genes 4 Torsion [C]-CA--N-[H1] |==|  0.73926
USER: genes 5 Torsion [C]-CA--CB-[OG] |==|  0.66805
USER: genes 6 Torsion [CA]-CB--OG-[HG] |==|  0.45848
USER: genes 7 Torsion [N]-CA--C-[N] |==|  0.88816
USER: genes 8 Torsion [C]-N--CA-[C] |==|  0.66027
USER: genes 9 Torsion [N]-CA--C-[O] |==|  0.91079
USER: genes 10 Torsion [N]-CA--CB-[CG] |==|  0.85100
USER: genes 11 Torsion [CA]-CB--CG-[CD2] |==|  0.15317
USER: genes 12 Torsion [CE2]-CZ--OH-[HH] |==|  0.61266
ROOT
ATOM      1  CA  TYR Z  -4       5.656  16.368   7.280  1.00 44.41 LIG 0.18  C 
ENDROOT
BRANCH 1 2
ATOM      2  N   TYR Z  -4       5.332  16.647   5.886  1.00 49.32 LIG-0.35  N 
ATOM      3 H    TYR Z  -4       5.829  16.237   5.317  1.00 49.32 LIG 0.16  HD
ATOM      4  C   SER Z  -5       4.344  17.470   5.552  1.00 53.16 LIG 0.25  C 
ATOM      5 O    SER Z  -5       3.701  18.118   6.379  1.00 46.54 LIG-0.27  OA
BRANCH 4 6
ATOM      6  CA  SER Z  -5       4.032  17.579   4.062  1.00 61.82 LIG 0.30  C 
BRANCH 6 7
ATOM      7  N   SER Z  -5       4.951  16.748   3.293  1.00 64.85 LIG-0.06  N 
ATOM      8 H1   SER Z  -5       5.643  17.239   3.025  1.00 64.85 LIG 0.28  HD
ATOM      9 H3   SER Z  -5       4.529  16.418   2.583  1.00 64.85 LIG 0.28  HD
ATOM     10 H2   SER Z  -5       5.243  16.078   3.802  1.00 64.85 LIG 0.28  HD
ENDBRANCH 6 7
BRANCH 6 11
ATOM     11  CB  SER Z  -5       2.580  17.177   3.786  1.00 66.88 LIG 0.21  C 
BRANCH 11 12
ATOM     12 OG   SER Z  -5       2.508  16.064   2.909  1.00 63.67 LIG-0.40  OA
ATOM     13 HG   SER Z  -5       1.734  15.737   2.933  1.00 63.67 LIG 0.21  HD
ENDBRANCH 11 12
ENDBRANCH 6 11
ENDBRANCH 4 6
ENDBRANCH 1 2
BRANCH 1 14
ATOM     14  C   TYR Z  -4       6.788  17.258   7.770  1.00 48.17 LIG 0.24  C 
ATOM     15  N   GLY Z  -3       7.781  17.462   6.912  1.00 50.01 LIG-0.35  N 
ATOM     16 H    GLY Z  -3       7.792  17.158   6.109  1.00 50.01 LIG 0.16  HD
ATOM     17 O    TYR Z  -4       6.772  17.734   8.904  1.00 57.82 LIG-0.27  OA
BRANCH 15 18
ATOM     18  CA  GLY Z  -3       8.955  18.234   7.277  1.00 64.94 LIG 0.21  C 
BRANCH 18 19
ATOM     19  C   GLY Z  -3       9.171  19.417   6.356  1.00 70.96 LIG 0.21  C 
ATOM     20 O    GLY Z  -3       8.846  19.357   5.170  1.00 75.87 LIG-0.29  OA
ENDBRANCH 18 19
ENDBRANCH 15 18
ENDBRANCH 1 14
BRANCH 1 21
ATOM     21  CB  TYR Z  -4       6.002  14.883   7.454  1.00 44.24 LIG 0.07  C 
BRANCH 21 22
ATOM     22  CG  TYR Z  -4       4.914  13.983   6.912  1.00 50.17 LIG-0.06  A 
ATOM     23  CD2 TYR Z  -4       4.473  14.104   5.600  1.00 45.93 LIG 0.01  A 
ATOM     24  CE2 TYR Z  -4       3.496  13.266   5.094  1.00 43.59 LIG 0.04  A 
ATOM     25  CZ  TYR Z  -4       2.951  12.288   5.900  1.00 44.55 LIG 0.07  A 
ATOM     26  CE1 TYR Z  -4       3.378  12.141   7.204  1.00 43.60 LIG 0.04  A 
ATOM     27  CD1 TYR Z  -4       4.356  12.984   7.702  1.00 43.85 LIG 0.01  A 
BRANCH 25 28
ATOM     28 OH   TYR Z  -4       1.978  11.454   5.400  1.00 43.23 LIG-0.36  OA
ATOM     29 HH   TYR Z  -4       1.386  11.332   5.984  1.00 43.23 LIG 0.22  HD
ENDBRANCH 25 28
ENDBRANCH 21 22
ENDBRANCH 1 21
TORSDOF 11
ENDMDL
MODEL 45
USER: ADFR SOLUTION from run 46
USER: SCORE 9.029416 LL:  -1.801 LR:  -7.236 RR:   0.000 FEB:  -3.955
USER: RMSD 6.184353
USER: SEED 45
USER: STATUS no improvement in best in 28 clusters for 5 generations
USER: GENES 13
USER: genes 0 Translation |==|  0.41744 0.44149 0.35332
USER: genes 1 Rotation |==|  0.47578 0.31522 0.92474 0.68673
USER: genes 2 Torsion [C]-CA--N-[C] |==|  0.81985
USER: genes 3 Torsion [N]-C--CA-[N] |==|  0.41476
USER: genes 4 Torsion [C]-CA--N-[H1] |==|  0.44704
USER: genes 5 Torsion [C]-CA--CB-[OG] |==|  0.61893
USER: genes 6 Torsion [CA]-CB--OG-[HG] |==|  0.13193
USER: genes 7 Torsion [N]-CA--C-[N] |==|  0.40643
USER: genes 8 Torsion [C]-N--CA-[C] |==|  0.78814
USER: genes 9 Torsion [N]-CA--C-[O] |==|  0.15891
USER: genes 10 Torsion [N]-CA--CB-[CG] |==|  0.31907
USER: genes 11 Torsion [CA]-CB--CG-[CD2] |==|  0.26584
USER: genes 12 Torsion [CE2]-CZ--OH-[HH] |==|  0.86741
ROOT
ATOM      1  CA  TYR Z  -4       1.714  13.100   6.950  1.00 44.41 LIG 0.18  C 
ENDROOT
BRANCH 1 2
ATOM      2  N   TYR Z  -4       0.961  11.883   6.667  1.00 49.32 LIG-0.35  N 
ATOM      3 H    TYR Z  -4       0.194  11.842   7.054  1.00 49.32 LIG 0.16  HD
ATOM      4  C   SER Z  -5       1.445  10.934   5.873  1.00 53.16 LIG 0.25  C 
ATOM      5 O    SER Z  -5       2.583  10.969   5.400  1.00 46.54 LIG-0.27  OA
BRANCH 4 6
ATOM      6  CA  SER Z  -5       0.507   9.771   5.564  1.00 61.82 LIG 0.30  C 
BRANCH 6 7
ATOM      7  N   SER Z  -5       0.789   9.234   4.238  1.00 64.85 LIG-0.06  N 
ATOM      8 H1   SER Z  -5       0.451   8.414   4.171  1.00 64.85 LIG 0.28  HD
ATOM      9 H3   SER Z  -5       1.669   9.204   4.110  1.00 64.85 LIG 0.28  HD
ATOM     10 H2   SER Z  -5       0.418   9.758   3.621  1.00 64.85 LIG 0.28  HD
ENDBRANCH 6 7
BRANCH 6 11
ATOM     11  CB  SER Z  -5       0.639   8.677   6.629  1.00 66.88 LIG 0.21  C 
BRANCH 11 12
ATOM     12 OG   SER Z  -5       0.662   7.385   6.044  1.00 63.67 LIG-0.40  OA
ATOM     13 HG   SER Z  -5       1.203   7.378   5.400  1.00 63.67 LIG 0.21  HD
ENDBRANCH 11 12
ENDBRANCH 6 11
ENDBRANCH 4 6
ENDBRANCH 1 2
BRANCH 1 14
ATOM     14  C   TYR Z  -4       2.989  12.791   7.719  1.00 48.17 LIG 0.24  C 
ATOM     15  N   GLY Z  -3       4.032  13.570   7.455  1.00 50.01 LIG-0.35  N 
ATOM     16 H    GLY Z  -3       4.006  14.241   6.918  1.00 50.01 LIG 0.16  HD
ATOM     17 O    TYR Z  -4       3.033  11.859   8.521  1.00 57.82 LIG-0.27  OA
BRANCH 15 18
ATOM     18  CA  GLY Z  -3       5.327  13.341   8.068  1.00 64.94 LIG 0.21  C 
BRANCH 18 19
ATOM     19  C   GLY Z  -3       5.368  13.804   9.510  1.00 70.96 LIG 0.21  C 
ATOM     20 O    GLY Z  -3       4.569  13.359  10.335  1.00 75.87 LIG-0.29  OA
ENDBRANCH 18 19
ENDBRANCH 15 18
ENDBRANCH 1 14
BRANCH 1 21
ATOM     21  CB  TYR Z  -4       0.833  14.098   7.713  1.00 44.24 LIG 0.07  C 
BRANCH 21 22
ATOM     22  CG  TYR Z  -4       1.349  14.350   9.113  1.00 50.17 LIG-0.06  A 
ATOM     23  CD2 TYR Z  -4       2.167  15.440   9.388  1.00 45.93 LIG 0.01  A 
ATOM     24  CE2 TYR Z  -4       2.620  15.688  10.671  1.00 43.59 LIG 0.04  A 
ATOM     25  CZ  TYR Z  -4       2.252  14.845  11.699  1.00 44.55 LIG 0.07  A 
ATOM     26  CE1 TYR Z  -4       1.433  13.762  11.455  1.00 43.60 LIG 0.04  A 
ATOM     27  CD1 TYR Z  -4       0.984  13.522  10.167  1.00 43.85 LIG 0.01  A 
BRANCH 25 28
ATOM     28 OH   TYR Z  -4       2.702  15.088  12.976  1.00 43.23 LIG-0.36  OA
ATOM     29 HH   TYR Z  -4       3.529  15.234  12.960  1.00 43.23 LIG 0.22  HD
ENDBRANCH 25 28
ENDBRANCH 21 22
ENDBRANCH 1 21
TORSDOF 11
ENDMDL
MODEL 46
USER: ADFR SOLUTION from run 71
USER: SCORE 8.043313 LL:  -1.329 LR:  -7.237 RR:   0.000 FEB:  -3.955
USER: RMSD 6.704776
USER: SEED 70
USER: STATUS no improvement in best in 28 clusters for 5 generations
USER: GENES 13
USER: genes 0 Translation |==|  0.59499 0.53517 0.30148
USER: genes 1 Rotation |==|  0.34125 0.10244 0.28073 0.63663
USER: genes 2 Torsion [C]-CA--N-[C] |==|  0.60277
USER: genes 3 Torsion [N]-C--CA-[N] |==|  0.97563
USER: genes 4 Torsion [C]-CA--N-[H1] |==|  0.34374
USER: genes 5 Torsion [C]-CA--CB-[OG] |==|  0.52587
USER: genes 6 Torsion [CA]-CB--OG-[HG] |==|  0.69515
USER: genes 7 Torsion [N]-CA--C-[N] |==|  0.00219
USER: genes 8 Torsion [C]-N--CA-[C] |==|  0.62669
USER: genes 9 Torsion [N]-CA--C-[O] |==|  0.20837
USER: genes 10 Torsion [N]-CA--CB-[CG] |==|  0.57616
USER: genes 11 Torsion [CA]-CB--CG-[CD2] |==|  0.69888
USER: genes 12 Torsion [CE2]-CZ--OH-[HH] |==|  0.94002
ROOT
ATOM      1  CA  TYR Z  -4       4.643  14.716   6.172  1.00 44.41 LIG 0.18  C 
ENDROOT
BRANCH 1 2
ATOM      2  N   TYR Z  -4       5.617  15.801   6.190  1.00 49.32 LIG-0.35  N 
ATOM      3 H    TYR Z  -4       5.552  16.347   5.529  1.00 49.32 LIG 0.16  HD
ATOM      4  C   SER Z  -5       6.517  15.913   7.161  1.00 53.16 LIG 0.25  C 
ATOM      5 O    SER Z  -5       6.654  15.072   8.051  1.00 46.54 LIG-0.27  OA
BRANCH 4 6
ATOM      6  CA  SER Z  -5       7.396  17.159   7.124  1.00 61.82 LIG 0.30  C 
BRANCH 6 7
ATOM      7  N   SER Z  -5       7.187  17.887   5.878  1.00 64.85 LIG-0.06  N 
ATOM      8 H1   SER Z  -5       6.945  18.724   6.059  1.00 64.85 LIG 0.28  HD
ATOM      9 H3   SER Z  -5       6.547  17.489   5.405  1.00 64.85 LIG 0.28  HD
ATOM     10 H2   SER Z  -5       7.943  17.893   5.408  1.00 64.85 LIG 0.28  HD
ENDBRANCH 6 7
BRANCH 6 11
ATOM     11  CB  SER Z  -5       7.104  18.058   8.330  1.00 66.88 LIG 0.21  C 
BRANCH 11 12
ATOM     12 OG   SER Z  -5       7.750  19.316   8.207  1.00 63.67 LIG-0.40  OA
ATOM     13 HG   SER Z  -5       8.374  19.367   8.767  1.00 63.67 LIG 0.21  HD
ENDBRANCH 11 12
ENDBRANCH 6 11
ENDBRANCH 4 6
ENDBRANCH 1 2
BRANCH 1 14
ATOM     14  C   TYR Z  -4       4.384  14.233   4.754  1.00 48.17 LIG 0.24  C 
ATOM     15  N   GLY Z  -3       5.072  14.842   3.795  1.00 50.01 LIG-0.35  N 
ATOM     16 H    GLY Z  -3       5.665  15.447   3.941  1.00 50.01 LIG 0.16  HD
ATOM     17 O    TYR Z  -4       3.567  13.340   4.530  1.00 57.82 LIG-0.27  OA
BRANCH 15 18
ATOM     18  CA  GLY Z  -3       4.869  14.525   2.394  1.00 64.94 LIG 0.21  C 
BRANCH 18 19
ATOM     19  C   GLY Z  -3       6.178  14.353   1.650  1.00 70.96 LIG 0.21  C 
ATOM     20 O    GLY Z  -3       6.856  13.336   1.799  1.00 75.87 LIG-0.29  OA
ENDBRANCH 18 19
ENDBRANCH 15 18
ENDBRANCH 1 14
BRANCH 1 21
ATOM     21  CB  TYR Z  -4       3.343  15.163   6.852  1.00 44.24 LIG 0.07  C 
BRANCH 21 22
ATOM     22  CG  TYR Z  -4       2.589  13.997   7.453  1.00 50.17 LIG-0.06  A 
ATOM     23  CD2 TYR Z  -4       1.407  13.540   6.882  1.00 45.93 LIG 0.01  A 
ATOM     24  CE2 TYR Z  -4       0.729  12.458   7.414  1.00 43.59 LIG 0.04  A 
ATOM     25  CZ  TYR Z  -4       1.233  11.815   8.525  1.00 44.55 LIG 0.07  A 
ATOM     26  CE1 TYR Z  -4       2.410  12.243   9.105  1.00 43.60 LIG 0.04  A 
ATOM     27  CD1 TYR Z  -4       3.082  13.327   8.566  1.00 43.85 LIG 0.01  A 
BRANCH 25 28
ATOM     28 OH   TYR Z  -4       0.560  10.740   9.057  1.00 43.23 LIG-0.36  OA
ATOM     29 HH   TYR Z  -4      -0.245  10.766   8.818  1.00 43.23 LIG 0.22  HD
ENDBRANCH 25 28
ENDBRANCH 21 22
ENDBRANCH 1 21
TORSDOF 11
ENDMDL
MODEL 47
USER: ADFR SOLUTION from run 118
USER: SCORE 8.485230 LL:  -1.596 LR:  -7.235 RR:   0.000 FEB:  -3.954
USER: RMSD 8.688693
USER: SEED 117
USER: STATUS no improvement in best in 22 clusters for 5 generations
USER: GENES 13
USER: genes 0 Translation |==|  0.70382 0.70848 0.37722
USER: genes 1 Rotation |==|  0.30352 0.71733 0.33192 0.86866
USER: genes 2 Torsion [C]-CA--N-[C] |==|  0.20616
USER: genes 3 Torsion [N]-C--CA-[N] |==|  0.26784
USER: genes 4 Torsion [C]-CA--N-[H1] |==|  0.36292
USER: genes 5 Torsion [C]-CA--CB-[OG] |==|  0.30742
USER: genes 6 Torsion [CA]-CB--OG-[HG] |==|  0.55322
USER: genes 7 Torsion [N]-CA--C-[N] |==|  0.02340
USER: genes 8 Torsion [C]-N--CA-[C] |==|  0.42315
USER: genes 9 Torsion [N]-CA--C-[O] |==|  0.03179
USER: genes 10 Torsion [N]-CA--CB-[CG] |==|  0.57567
USER: genes 11 Torsion [CA]-CB--CG-[CD2] |==|  0.22598
USER: genes 12 Torsion [CE2]-CZ--OH-[HH] |==|  0.29992
ROOT
ATOM      1  CA  TYR Z  -4       6.439  17.705   7.308  1.00 44.41 LIG 0.18  C 
ENDROOT
BRANCH 1 2
ATOM      2  N   TYR Z  -4       7.201  18.758   6.648  1.00 49.32 LIG-0.35  N 
ATOM      3 H    TYR Z  -4       6.747  19.228   6.088  1.00 49.32 LIG 0.16  HD
ATOM      4  C   SER Z  -5       8.489  18.953   6.908  1.00 53.16 LIG 0.25  C 
ATOM      5 O    SER Z  -5       9.146  18.214   7.643  1.00 46.54 LIG-0.27  OA
BRANCH 4 6
ATOM      6  CA  SER Z  -5       9.136  20.163   6.240  1.00 61.82 LIG 0.30  C 
BRANCH 6 7
ATOM      7  N   SER Z  -5       9.150  21.297   7.156  1.00 64.85 LIG-0.06  N 
ATOM      8 H1   SER Z  -5       9.967  21.650   7.180  1.00 64.85 LIG 0.28  HD
ATOM      9 H3   SER Z  -5       8.923  21.023   7.971  1.00 64.85 LIG 0.28  HD
ATOM     10 H2   SER Z  -5       8.570  21.912   6.877  1.00 64.85 LIG 0.28  HD
ENDBRANCH 6 7
BRANCH 6 11
ATOM     11  CB  SER Z  -5      10.556  19.825   5.775  1.00 66.88 LIG 0.21  C 
BRANCH 11 12
ATOM     12 OG   SER Z  -5      10.640  19.778   4.359  1.00 63.67 LIG-0.40  OA
ATOM     13 HG   SER Z  -5      11.326  19.348   4.133  1.00 63.67 LIG 0.21  HD
ENDBRANCH 11 12
ENDBRANCH 6 11
ENDBRANCH 4 6
ENDBRANCH 1 2
BRANCH 1 14
ATOM     14  C   TYR Z  -4       6.134  18.071   8.752  1.00 48.17 LIG 0.24  C 
ATOM     15  N   GLY Z  -3       6.437  19.311   9.117  1.00 50.01 LIG-0.35  N 
ATOM     16 H    GLY Z  -3       6.749  19.906   8.581  1.00 50.01 LIG 0.16  HD
ATOM     17 O    TYR Z  -4       5.650  17.243   9.525  1.00 57.82 LIG-0.27  OA
BRANCH 15 18
ATOM     18  CA  GLY Z  -3       6.260  19.768  10.483  1.00 64.94 LIG 0.21  C 
BRANCH 18 19
ATOM     19  C   GLY Z  -3       7.224  20.880  10.844  1.00 70.96 LIG 0.21  C 
ATOM     20 O    GLY Z  -3       7.889  21.442   9.973  1.00 75.87 LIG-0.29  OA
ENDBRANCH 18 19
ENDBRANCH 15 18
ENDBRANCH 1 14
BRANCH 1 21
ATOM     21  CB  TYR Z  -4       7.197  16.373   7.221  1.00 44.24 LIG 0.07  C 
BRANCH 21 22
ATOM     22  CG  TYR Z  -4       6.259  15.187   7.263  1.00 50.17 LIG-0.06  A 
ATOM     23  CD2 TYR Z  -4       5.589  14.765   6.121  1.00 45.93 LIG 0.01  A 
ATOM     24  CE2 TYR Z  -4       4.750  13.665   6.150  1.00 43.59 LIG 0.04  A 
ATOM     25  CZ  TYR Z  -4       4.577  12.969   7.328  1.00 44.55 LIG 0.07  A 
ATOM     26  CE1 TYR Z  -4       5.238  13.362   8.474  1.00 43.60 LIG 0.04  A 
ATOM     27  CD1 TYR Z  -4       6.076  14.464   8.436  1.00 43.85 LIG 0.01  A 
BRANCH 25 28
ATOM     28 OH   TYR Z  -4       3.743  11.876   7.361  1.00 43.23 LIG-0.36  OA
ATOM     29 HH   TYR Z  -4       4.201  11.175   7.425  1.00 43.23 LIG 0.22  HD
ENDBRANCH 25 28
ENDBRANCH 21 22
ENDBRANCH 1 21
TORSDOF 11
ENDMDL
MODEL 48
USER: ADFR SOLUTION from run 47
USER: SCORE 7.881910 LL:  -1.207 LR:  -7.219 RR:   0.000 FEB:  -3.938
USER: RMSD 5.352503
USER: SEED 46
USER: STATUS no improvement in best in 30 clusters for 5 generations
USER: GENES 13
USER: genes 0 Translation |==|  0.49209 0.42516 0.34800
USER: genes 1 Rotation |==|  0.28391 0.09422 0.36265 0.64066
USER: genes 2 Torsion [C]-CA--N-[C] |==|  0.65857
USER: genes 3 Torsion [N]-C--CA-[N] |==|  0.01713
USER: genes 4 Torsion [C]-CA--N-[H1] |==|  0.42214
USER: genes 5 Torsion [C]-CA--CB-[OG] |==|  0.46519
USER: genes 6 Torsion [CA]-CB--OG-[HG] |==|  0.09307
USER: genes 7 Torsion [N]-CA--C-[N] |==|  0.80600
USER: genes 8 Torsion [C]-N--CA-[C] |==|  0.34153
USER: genes 9 Torsion [N]-CA--C-[O] |==|  0.00833
USER: genes 10 Torsion [N]-CA--CB-[CG] |==|  0.75112
USER: genes 11 Torsion [CA]-CB--CG-[CD2] |==|  0.08230
USER: genes 12 Torsion [CE2]-CZ--OH-[HH] |==|  0.06065
ROOT
ATOM      1  CA  TYR Z  -4       2.946  12.818   6.870  1.00 44.41 LIG 0.18  C 
ENDROOT
BRANCH 1 2
ATOM      2  N   TYR Z  -4       3.941  13.740   6.338  1.00 49.32 LIG-0.35  N 
ATOM      3 H    TYR Z  -4       3.652  14.252   5.710  1.00 49.32 LIG 0.16  HD
ATOM      4  C   SER Z  -5       5.186  13.766   6.803  1.00 53.16 LIG 0.25  C 
ATOM      5 O    SER Z  -5       5.607  12.965   7.639  1.00 46.54 LIG-0.27  OA
BRANCH 4 6
ATOM      6  CA  SER Z  -5       6.091  14.859   6.244  1.00 61.82 LIG 0.30  C 
BRANCH 6 7
ATOM      7  N   SER Z  -5       5.326  15.761   5.391  1.00 64.85 LIG-0.06  N 
ATOM      8 H1   SER Z  -5       5.701  16.568   5.400  1.00 64.85 LIG 0.28  HD
ATOM      9 H3   SER Z  -5       4.491  15.819   5.694  1.00 64.85 LIG 0.28  HD
ATOM     10 H2   SER Z  -5       5.319  15.448   4.559  1.00 64.85 LIG 0.28  HD
ENDBRANCH 6 7
BRANCH 6 11
ATOM     11  CB  SER Z  -5       6.765  15.633   7.382  1.00 66.88 LIG 0.21  C 
BRANCH 11 12
ATOM     12 OG   SER Z  -5       7.817  16.453   6.899  1.00 63.67 LIG-0.40  OA
ATOM     13 HG   SER Z  -5       7.623  16.736   6.132  1.00 63.67 LIG 0.21  HD
ENDBRANCH 11 12
ENDBRANCH 6 11
ENDBRANCH 4 6
ENDBRANCH 1 2
BRANCH 1 14
ATOM     14  C   TYR Z  -4       2.366  11.940   5.772  1.00 48.17 LIG 0.24  C 
ATOM     15  N   GLY Z  -3       1.582  12.550   4.890  1.00 50.01 LIG-0.35  N 
ATOM     16 H    GLY Z  -3       1.427  13.396   4.891  1.00 50.01 LIG 0.16  HD
ATOM     17 O    TYR Z  -4       2.609  10.734   5.732  1.00 57.82 LIG-0.27  OA
BRANCH 15 18
ATOM     18  CA  GLY Z  -3       0.911  11.817   3.833  1.00 64.94 LIG 0.21  C 
BRANCH 18 19
ATOM     19  C   GLY Z  -3      -0.592  12.007   3.869  1.00 70.96 LIG 0.21  C 
ATOM     20 O    GLY Z  -3      -1.110  12.761   4.694  1.00 75.87 LIG-0.29  OA
ENDBRANCH 18 19
ENDBRANCH 15 18
ENDBRANCH 1 14
BRANCH 1 21
ATOM     21  CB  TYR Z  -4       1.842  13.597   7.598  1.00 44.24 LIG 0.07  C 
BRANCH 21 22
ATOM     22  CG  TYR Z  -4       2.165  13.800   9.061  1.00 50.17 LIG-0.06  A 
ATOM     23  CD2 TYR Z  -4       3.482  13.892   9.496  1.00 45.93 LIG 0.01  A 
ATOM     24  CE2 TYR Z  -4       3.782  14.103  10.830  1.00 43.59 LIG 0.04  A 
ATOM     25  CZ  TYR Z  -4       2.759  14.231  11.747  1.00 44.55 LIG 0.07  A 
ATOM     26  CE1 TYR Z  -4       1.443  14.153  11.340  1.00 43.60 LIG 0.04  A 
ATOM     27  CD1 TYR Z  -4       1.153  13.942  10.003  1.00 43.85 LIG 0.01  A 
BRANCH 25 28
ATOM     28 OH   TYR Z  -4       3.053  14.439  13.074  1.00 43.23 LIG-0.36  OA
ATOM     29 HH   TYR Z  -4       3.828  14.758  13.144  1.00 43.23 LIG 0.22  HD
ENDBRANCH 25 28
ENDBRANCH 21 22
ENDBRANCH 1 21
TORSDOF 11
ENDMDL
MODEL 49
USER: ADFR SOLUTION from run 61
USER: SCORE 8.782688 LL:  -1.763 LR:  -7.214 RR:   0.000 FEB:  -3.932
USER: RMSD 8.224219
USER: SEED 60
USER: STATUS no improvement in best in 35 clusters for 5 generations
USER: GENES 13
USER: genes 0 Translation |==|  0.61691 0.75077 0.51878
USER: genes 1 Rotation |==|  0.37849 0.70781 0.12248 0.72254
USER: genes 2 Torsion [C]-CA--N-[C] |==|  0.69444
USER: genes 3 Torsion [N]-C--CA-[N] |==|  0.80158
USER: genes 4 Torsion [C]-CA--N-[H1] |==|  0.98582
USER: genes 5 Torsion [C]-CA--CB-[OG] |==|  0.56070
USER: genes 6 Torsion [CA]-CB--OG-[HG] |==|  0.59673
USER: genes 7 Torsion [N]-CA--C-[N] |==|  0.08213
USER: genes 8 Torsion [C]-N--CA-[C] |==|  0.58567
USER: genes 9 Torsion [N]-CA--C-[O] |==|  0.77012
USER: genes 10 Torsion [N]-CA--CB-[CG] |==|  0.90277
USER: genes 11 Torsion [CA]-CB--CG-[CD2] |==|  0.35082
USER: genes 12 Torsion [CE2]-CZ--OH-[HH] |==|  0.09565
ROOT
ATOM      1  CA  TYR Z  -4       5.005  18.435   9.432  1.00 44.41 LIG 0.18  C 
ENDROOT
BRANCH 1 2
ATOM      2  N   TYR Z  -4       6.300  18.096   8.855  1.00 49.32 LIG-0.35  N 
ATOM      3 H    TYR Z  -4       6.813  17.640   9.375  1.00 49.32 LIG 0.16  HD
ATOM      4  C   SER Z  -5       6.636  18.473   7.626  1.00 53.16 LIG 0.25  C 
ATOM      5 O    SER Z  -5       5.927  19.202   6.930  1.00 46.54 LIG-0.27  OA
BRANCH 4 6
ATOM      6  CA  SER Z  -5       7.970  17.950   7.101  1.00 61.82 LIG 0.30  C 
BRANCH 6 7
ATOM      7  N   SER Z  -5       9.075  18.609   7.787  1.00 64.85 LIG-0.06  N 
ATOM      8 H1   SER Z  -5       8.756  19.241   8.326  1.00 64.85 LIG 0.28  HD
ATOM      9 H3   SER Z  -5       9.619  18.978   7.187  1.00 64.85 LIG 0.28  HD
ATOM     10 H2   SER Z  -5       9.526  18.011   8.267  1.00 64.85 LIG 0.28  HD
ENDBRANCH 6 7
BRANCH 6 11
ATOM     11  CB  SER Z  -5       8.056  16.430   7.274  1.00 66.88 LIG 0.21  C 
BRANCH 11 12
ATOM     12 OG   SER Z  -5       9.404  15.985   7.275  1.00 63.67 LIG-0.40  OA
ATOM     13 HG   SER Z  -5       9.451  15.232   6.905  1.00 63.67 LIG 0.21  HD
ENDBRANCH 11 12
ENDBRANCH 6 11
ENDBRANCH 4 6
ENDBRANCH 1 2
BRANCH 1 14
ATOM     14  C   TYR Z  -4       5.150  19.461  10.544  1.00 48.17 LIG 0.24  C 
ATOM     15  N   GLY Z  -3       6.171  20.302  10.432  1.00 50.01 LIG-0.35  N 
ATOM     16 H    GLY Z  -3       6.710  20.317   9.763  1.00 50.01 LIG 0.16  HD
ATOM     17 O    TYR Z  -4       4.365  19.482  11.492  1.00 57.82 LIG-0.27  OA
BRANCH 15 18
ATOM     18  CA  GLY Z  -3       6.463  21.286  11.459  1.00 64.94 LIG 0.21  C 
BRANCH 18 19
ATOM     19  C   GLY Z  -3       7.091  22.541  10.888  1.00 70.96 LIG 0.21  C 
ATOM     20 O    GLY Z  -3       8.300  22.589  10.658  1.00 75.87 LIG-0.29  OA
ENDBRANCH 18 19
ENDBRANCH 15 18
ENDBRANCH 1 14
BRANCH 1 21
ATOM     21  CB  TYR Z  -4       4.304  17.166   9.936  1.00 44.24 LIG 0.07  C 
BRANCH 21 22
ATOM     22  CG  TYR Z  -4       4.597  15.972   9.055  1.00 50.17 LIG-0.06  A 
ATOM     23  CD2 TYR Z  -4       5.100  14.793   9.591  1.00 45.93 LIG 0.01  A 
ATOM     24  CE2 TYR Z  -4       5.346  13.691   8.793  1.00 43.59 LIG 0.04  A 
ATOM     25  CZ  TYR Z  -4       5.082  13.756   7.440  1.00 44.55 LIG 0.07  A 
ATOM     26  CE1 TYR Z  -4       4.573  14.911   6.884  1.00 43.60 LIG 0.04  A 
ATOM     27  CD1 TYR Z  -4       4.330  16.009   7.691  1.00 43.85 LIG 0.01  A 
BRANCH 25 28
ATOM     28 OH   TYR Z  -4       5.326  12.662   6.643  1.00 43.23 LIG-0.36  OA
ATOM     29 HH   TYR Z  -4       5.170  11.958   7.075  1.00 43.23 LIG 0.22  HD
ENDBRANCH 25 28
ENDBRANCH 21 22
ENDBRANCH 1 21
TORSDOF 11
ENDMDL
MODEL 50
USER: ADFR SOLUTION from run 64
USER: SCORE 8.157949 LL:  -1.558 LR:  -7.211 RR:   0.000 FEB:  -3.930
USER: RMSD 6.663393
USER: SEED 63
USER: STATUS no improvement in best in 30 clusters for 5 generations
USER: GENES 13
USER: genes 0 Translation |==|  0.66982 0.58321 0.40508
USER: genes 1 Rotation |==|  0.21404 0.73033 0.83782 0.53234
USER: genes 2 Torsion [C]-CA--N-[C] |==|  0.69011
USER: genes 3 Torsion [N]-C--CA-[N] |==|  0.58095
USER: genes 4 Torsion [C]-CA--N-[H1] |==|  0.61620
USER: genes 5 Torsion [C]-CA--CB-[OG] |==|  0.80372
USER: genes 6 Torsion [CA]-CB--OG-[HG] |==|  0.08641
USER: genes 7 Torsion [N]-CA--C-[N] |==|  0.56024
USER: genes 8 Torsion [C]-N--CA-[C] |==|  0.27930
USER: genes 9 Torsion [N]-CA--C-[O] |==|  0.02959
USER: genes 10 Torsion [N]-CA--CB-[CG] |==|  0.85872
USER: genes 11 Torsion [CA]-CB--CG-[CD2] |==|  0.41126
USER: genes 12 Torsion [CE2]-CZ--OH-[HH] |==|  0.21618
ROOT
ATOM      1  CA  TYR Z  -4       5.878  15.544   7.726  1.00 44.41 LIG 0.18  C 
ENDROOT
BRANCH 1 2
ATOM      2  N   TYR Z  -4       4.703  15.566   8.589  1.00 49.32 LIG-0.35  N 
ATOM      3 H    TYR Z  -4       4.110  16.148   8.368  1.00 49.32 LIG 0.16  HD
ATOM      4  C   SER Z  -5       4.584  14.742   9.625  1.00 53.16 LIG 0.25  C 
ATOM      5 O    SER Z  -5       5.483  13.977   9.981  1.00 46.54 LIG-0.27  OA
BRANCH 4 6
ATOM      6  CA  SER Z  -5       3.255  14.784  10.371  1.00 61.82 LIG 0.30  C 
BRANCH 6 7
ATOM      7  N   SER Z  -5       3.451  14.428  11.772  1.00 64.85 LIG-0.06  N 
ATOM      8 H1   SER Z  -5       2.792  13.892  12.038  1.00 64.85 LIG 0.28  HD
ATOM      9 H3   SER Z  -5       3.451  15.166  12.269  1.00 64.85 LIG 0.28  HD
ATOM     10 H2   SER Z  -5       4.230  14.008  11.865  1.00 64.85 LIG 0.28  HD
ENDBRANCH 6 7
BRANCH 6 11
ATOM     11  CB  SER Z  -5       2.615  16.172  10.251  1.00 66.88 LIG 0.21  C 
BRANCH 11 12
ATOM     12 OG   SER Z  -5       3.331  17.139  11.003  1.00 63.67 LIG-0.40  OA
ATOM     13 HG   SER Z  -5       4.145  16.932  11.025  1.00 63.67 LIG 0.21  HD
ENDBRANCH 11 12
ENDBRANCH 6 11
ENDBRANCH 4 6
ENDBRANCH 1 2
BRANCH 1 14
ATOM     14  C   TYR Z  -4       6.703  16.811   7.889  1.00 48.17 LIG 0.24  C 
ATOM     15  N   GLY Z  -3       7.512  17.114   6.881  1.00 50.01 LIG-0.35  N 
ATOM     16 H    GLY Z  -3       7.558  16.664   6.150  1.00 50.01 LIG 0.16  HD
ATOM     17 O    TYR Z  -4       6.623  17.491   8.912  1.00 57.82 LIG-0.27  OA
BRANCH 15 18
ATOM     18  CA  GLY Z  -3       8.404  18.258   6.937  1.00 64.94 LIG 0.21  C 
BRANCH 18 19
ATOM     19  C   GLY Z  -3       9.826  17.859   7.275  1.00 70.96 LIG 0.21  C 
ATOM     20 O    GLY Z  -3      10.163  16.674   7.275  1.00 75.87 LIG-0.29  OA
ENDBRANCH 18 19
ENDBRANCH 15 18
ENDBRANCH 1 14
BRANCH 1 21
ATOM     21  CB  TYR Z  -4       5.455  15.342   6.265  1.00 44.24 LIG 0.07  C 
BRANCH 21 22
ATOM     22  CG  TYR Z  -4       4.524  14.161   6.105  1.00 50.17 LIG-0.06  A 
ATOM     23  CD2 TYR Z  -4       3.538  14.155   5.126  1.00 45.93 LIG 0.01  A 
ATOM     24  CE2 TYR Z  -4       2.701  13.066   4.961  1.00 43.59 LIG 0.04  A 
ATOM     25  CZ  TYR Z  -4       2.848  11.962   5.775  1.00 44.55 LIG 0.07  A 
ATOM     26  CE1 TYR Z  -4       3.826  11.939   6.749  1.00 43.60 LIG 0.04  A 
ATOM     27  CD1 TYR Z  -4       4.659  13.033   6.907  1.00 43.85 LIG 0.01  A 
BRANCH 25 28
ATOM     28 OH   TYR Z  -4       2.017  10.878   5.614  1.00 43.23 LIG-0.36  OA
ATOM     29 HH   TYR Z  -4       2.267  10.428   4.950  1.00 43.23 LIG 0.22  HD
ENDBRANCH 25 28
ENDBRANCH 21 22
ENDBRANCH 1 21
TORSDOF 11
ENDMDL
MODEL 51
USER: ADFR SOLUTION from run 86
USER: SCORE 8.726575 LL:  -1.540 LR:  -7.188 RR:   0.000 FEB:  -3.906
USER: RMSD 6.490092
USER: SEED 85
USER: STATUS no improvement in best in 36 clusters for 5 generations
USER: GENES 13
USER: genes 0 Translation |==|  0.68848 0.71687 0.43631
USER: genes 1 Rotation |==|  0.56947 0.61205 0.35343 0.95949
USER: genes 2 Torsion [C]-CA--N-[C] |==|  0.82998
USER: genes 3 Torsion [N]-C--CA-[N] |==|  0.20339
USER: genes 4 Torsion [C]-CA--N-[H1] |==|  0.61357
USER: genes 5 Torsion [C]-CA--CB-[OG] |==|  0.39317
USER: genes 6 Torsion [CA]-CB--OG-[HG] |==|  0.79903
USER: genes 7 Torsion [N]-CA--C-[N] |==|  0.37460
USER: genes 8 Torsion [C]-N--CA-[C] |==|  0.17732
USER: genes 9 Torsion [N]-CA--C-[O] |==|  0.07615
USER: genes 10 Torsion [N]-CA--CB-[CG] |==|  0.40034
USER: genes 11 Torsion [CA]-CB--CG-[CD2] |==|  0.75430
USER: genes 12 Torsion [CE2]-CZ--OH-[HH] |==|  0.79090
ROOT
ATOM      1  CA  TYR Z  -4       6.186  17.850   8.195  1.00 44.41 LIG 0.18  C 
ENDROOT
BRANCH 1 2
ATOM      2  N   TYR Z  -4       6.916  18.638   9.180  1.00 49.32 LIG-0.35  N 
ATOM      3 H    TYR Z  -4       7.695  18.331   9.375  1.00 49.32 LIG 0.16  HD
ATOM      4  C   SER Z  -5       6.395  19.737   9.717  1.00 53.16 LIG 0.25  C 
ATOM      5 O    SER Z  -5       5.243  20.112   9.495  1.00 46.54 LIG-0.27  OA
BRANCH 4 6
ATOM      6  CA  SER Z  -5       7.310  20.533  10.643  1.00 61.82 LIG 0.30  C 
BRANCH 6 7
ATOM      7  N   SER Z  -5       8.326  21.234   9.867  1.00 64.85 LIG-0.06  N 
ATOM      8 H1   SER Z  -5       9.109  21.183  10.287  1.00 64.85 LIG 0.28  HD
ATOM      9 H3   SER Z  -5       8.094  22.088   9.776  1.00 64.85 LIG 0.28  HD
ATOM     10 H2   SER Z  -5       8.397  20.859   9.063  1.00 64.85 LIG 0.28  HD
ENDBRANCH 6 7
BRANCH 6 11
ATOM     11  CB  SER Z  -5       6.495  21.521  11.484  1.00 66.88 LIG 0.21  C 
BRANCH 11 12
ATOM     12 OG   SER Z  -5       6.996  21.609  12.809  1.00 63.67 LIG-0.40  OA
ATOM     13 HG   SER Z  -5       6.806  20.906  13.229  1.00 63.67 LIG 0.21  HD
ENDBRANCH 11 12
ENDBRANCH 6 11
ENDBRANCH 4 6
ENDBRANCH 1 2
BRANCH 1 14
ATOM     14  C   TYR Z  -4       4.889  17.307   8.775  1.00 48.17 LIG 0.24  C 
ATOM     15  N   GLY Z  -3       3.813  17.424   8.006  1.00 50.01 LIG-0.35  N 
ATOM     16 H    GLY Z  -3       3.825  17.744   7.209  1.00 50.01 LIG 0.16  HD
ATOM     17 O    TYR Z  -4       4.860  16.809   9.900  1.00 57.82 LIG-0.27  OA
BRANCH 15 18
ATOM     18  CA  GLY Z  -3       2.501  17.009   8.466  1.00 64.94 LIG 0.21  C 
BRANCH 18 19
ATOM     19  C   GLY Z  -3       2.023  17.826   9.650  1.00 70.96 LIG 0.21  C 
ATOM     20 O    GLY Z  -3       2.416  18.982   9.813  1.00 75.87 LIG-0.29  OA
ENDBRANCH 18 19
ENDBRANCH 15 18
ENDBRANCH 1 14
BRANCH 1 21
ATOM     21  CB  TYR Z  -4       7.074  16.716   7.665  1.00 44.24 LIG 0.07  C 
BRANCH 21 22
ATOM     22  CG  TYR Z  -4       6.280  15.458   7.393  1.00 50.17 LIG-0.06  A 
ATOM     23  CD2 TYR Z  -4       6.076  14.511   8.390  1.00 45.93 LIG 0.01  A 
ATOM     24  CE2 TYR Z  -4       5.330  13.371   8.152  1.00 43.59 LIG 0.04  A 
ATOM     25  CZ  TYR Z  -4       4.771  13.169   6.907  1.00 44.55 LIG 0.07  A 
ATOM     26  CE1 TYR Z  -4       4.951  14.098   5.902  1.00 43.60 LIG 0.04  A 
ATOM     27  CD1 TYR Z  -4       5.700  15.236   6.150  1.00 43.85 LIG 0.01  A 
BRANCH 25 28
ATOM     28 OH   TYR Z  -4       4.030  12.036   6.666  1.00 43.23 LIG-0.36  OA
ATOM     29 HH   TYR Z  -4       4.544  11.376   6.581  1.00 43.23 LIG 0.22  HD
ENDBRANCH 25 28
ENDBRANCH 21 22
ENDBRANCH 1 21
TORSDOF 11
ENDMDL
MODEL 52
USER: ADFR SOLUTION from run 106
USER: SCORE 8.312886 LL:  -1.563 LR:  -7.183 RR:   0.000 FEB:  -3.902
USER: RMSD 4.914608
USER: SEED 105
USER: STATUS no improvement in best in 25 clusters for 5 generations
USER: GENES 13
USER: genes 0 Translation |==|  0.47604 0.36794 0.33868
USER: genes 1 Rotation |==|  0.31440 0.14205 0.39474 0.77631
USER: genes 2 Torsion [C]-CA--N-[C] |==|  0.61111
USER: genes 3 Torsion [N]-C--CA-[N] |==|  0.48654
USER: genes 4 Torsion [C]-CA--N-[H1] |==|  0.24650
USER: genes 5 Torsion [C]-CA--CB-[OG] |==|  0.73316
USER: genes 6 Torsion [CA]-CB--OG-[HG] |==|  0.75935
USER: genes 7 Torsion [N]-CA--C-[N] |==|  0.52677
USER: genes 8 Torsion [C]-N--CA-[C] |==|  0.38306
USER: genes 9 Torsion [N]-CA--C-[O] |==|  0.27419
USER: genes 10 Torsion [N]-CA--CB-[CG] |==|  0.91512
USER: genes 11 Torsion [CA]-CB--CG-[CD2] |==|  0.77778
USER: genes 12 Torsion [CE2]-CZ--OH-[HH] |==|  0.89880
ROOT
ATOM      1  CA  TYR Z  -4       2.681  11.831   6.730  1.00 44.41 LIG 0.18  C 
ENDROOT
BRANCH 1 2
ATOM      2  N   TYR Z  -4       3.124  13.043   6.052  1.00 49.32 LIG-0.35  N 
ATOM      3 H    TYR Z  -4       2.512  13.438   5.594  1.00 49.32 LIG 0.16  HD
ATOM      4  C   SER Z  -5       4.376  13.478   6.150  1.00 53.16 LIG 0.25  C 
ATOM      5 O    SER Z  -5       5.261  12.851   6.736  1.00 46.54 LIG-0.27  OA
BRANCH 4 6
ATOM      6  CA  SER Z  -5       4.676  14.821   5.492  1.00 61.82 LIG 0.30  C 
BRANCH 6 7
ATOM      7  N   SER Z  -5       6.048  15.226   5.775  1.00 64.85 LIG-0.06  N 
ATOM      8 H1   SER Z  -5       6.590  14.896   5.151  1.00 64.85 LIG 0.28  HD
ATOM      9 H3   SER Z  -5       6.291  14.916   6.573  1.00 64.85 LIG 0.28  HD
ATOM     10 H2   SER Z  -5       6.102  16.114   5.774  1.00 64.85 LIG 0.28  HD
ENDBRANCH 6 7
BRANCH 6 11
ATOM     11  CB  SER Z  -5       4.436  14.744   3.980  1.00 66.88 LIG 0.21  C 
BRANCH 11 12
ATOM     12 OG   SER Z  -5       5.642  14.484   3.278  1.00 63.67 LIG-0.40  OA
ATOM     13 HG   SER Z  -5       6.035  15.209   3.118  1.00 63.67 LIG 0.21  HD
ENDBRANCH 11 12
ENDBRANCH 6 11
ENDBRANCH 4 6
ENDBRANCH 1 2
BRANCH 1 14
ATOM     14  C   TYR Z  -4       1.745  11.018   5.849  1.00 48.17 LIG 0.24  C 
ATOM     15  N   GLY Z  -3       1.127  10.001   6.438  1.00 50.01 LIG-0.35  N 
ATOM     16 H    GLY Z  -3       1.199   9.814   7.274  1.00 50.01 LIG 0.16  HD
ATOM     17 O    TYR Z  -4       1.598  11.295   4.659  1.00 57.82 LIG-0.27  OA
BRANCH 15 18
ATOM     18  CA  GLY Z  -3       0.260   9.105   5.695  1.00 64.94 LIG 0.21  C 
BRANCH 18 19
ATOM     19  C   GLY Z  -3       0.467   7.655   6.084  1.00 70.96 LIG 0.21  C 
ATOM     20 O    GLY Z  -3      -0.293   7.104   6.881  1.00 75.87 LIG-0.29  OA
ENDBRANCH 18 19
ENDBRANCH 15 18
ENDBRANCH 1 14
BRANCH 1 21
ATOM     21  CB  TYR Z  -4       2.015  12.189   8.066  1.00 44.24 LIG 0.07  C 
BRANCH 21 22
ATOM     22  CG  TYR Z  -4       2.601  13.445   8.670  1.00 50.17 LIG-0.06  A 
ATOM     23  CD2 TYR Z  -4       3.804  13.410   9.366  1.00 45.93 LIG 0.01  A 
ATOM     24  CE2 TYR Z  -4       4.356  14.561   9.898  1.00 43.59 LIG 0.04  A 
ATOM     25  CZ  TYR Z  -4       3.708  15.768   9.734  1.00 44.55 LIG 0.07  A 
ATOM     26  CE1 TYR Z  -4       2.517  15.831   9.040  1.00 43.60 LIG 0.04  A 
ATOM     27  CD1 TYR Z  -4       1.972  14.674   8.510  1.00 43.85 LIG 0.01  A 
BRANCH 25 28
ATOM     28 OH   TYR Z  -4       4.253  16.914  10.264  1.00 43.23 LIG-0.36  OA
ATOM     29 HH   TYR Z  -4       4.618  16.737  11.000  1.00 43.23 LIG 0.22  HD
ENDBRANCH 25 28
ENDBRANCH 21 22
ENDBRANCH 1 21
TORSDOF 11
ENDMDL
MODEL 53
USER: ADFR SOLUTION from run 77
USER: SCORE 8.257991 LL:  -1.209 LR:  -7.163 RR:   0.000 FEB:  -3.882
USER: RMSD 7.450128
USER: SEED 76
USER: STATUS no improvement in best in 25 clusters for 5 generations
USER: GENES 13
USER: genes 0 Translation |==|  0.54540 0.76325 0.61416
USER: genes 1 Rotation |==|  0.48732 0.68691 0.20922 0.86104
USER: genes 2 Torsion [C]-CA--N-[C] |==|  0.70556
USER: genes 3 Torsion [N]-C--CA-[N] |==|  0.31808
USER: genes 4 Torsion [C]-CA--N-[H1] |==|  0.67152
USER: genes 5 Torsion [C]-CA--CB-[OG] |==|  0.61464
USER: genes 6 Torsion [CA]-CB--OG-[HG] |==|  0.92206
USER: genes 7 Torsion [N]-CA--C-[N] |==|  0.42339
USER: genes 8 Torsion [C]-N--CA-[C] |==|  0.33657
USER: genes 9 Torsion [N]-CA--C-[O] |==|  0.53983
USER: genes 10 Torsion [N]-CA--CB-[CG] |==|  0.86940
USER: genes 11 Torsion [CA]-CB--CG-[CD2] |==|  0.92386
USER: genes 12 Torsion [CE2]-CZ--OH-[HH] |==|  0.89054
ROOT
ATOM      1  CA  TYR Z  -4       3.825  18.650  10.862  1.00 44.41 LIG 0.18  C 
ENDROOT
BRANCH 1 2
ATOM      2  N   TYR Z  -4       5.229  19.003  11.038  1.00 49.32 LIG-0.35  N 
ATOM      3 H    TYR Z  -4       5.663  18.481  11.566  1.00 49.32 LIG 0.16  HD
ATOM      4  C   SER Z  -5       5.766  20.051  10.422  1.00 53.16 LIG 0.25  C 
ATOM      5 O    SER Z  -5       5.108  20.840   9.742  1.00 46.54 LIG-0.27  OA
BRANCH 4 6
ATOM      6  CA  SER Z  -5       7.270  20.237  10.596  1.00 61.82 LIG 0.30  C 
BRANCH 6 7
ATOM      7  N   SER Z  -5       7.951  20.064   9.319  1.00 64.85 LIG-0.06  N 
ATOM      8 H1   SER Z  -5       8.512  19.376   9.371  1.00 64.85 LIG 0.28  HD
ATOM      9 H3   SER Z  -5       8.406  20.803   9.122  1.00 64.85 LIG 0.28  HD
ATOM     10 H2   SER Z  -5       7.350  19.908   8.681  1.00 64.85 LIG 0.28  HD
ENDBRANCH 6 7
BRANCH 6 11
ATOM     11  CB  SER Z  -5       7.575  21.616  11.190  1.00 66.88 LIG 0.21  C 
BRANCH 11 12
ATOM     12 OG   SER Z  -5       8.702  22.211  10.564  1.00 63.67 LIG-0.40  OA
ATOM     13 HG   SER Z  -5       9.216  21.609  10.282  1.00 63.67 LIG 0.21  HD
ENDBRANCH 11 12
ENDBRANCH 6 11
ENDBRANCH 4 6
ENDBRANCH 1 2
BRANCH 1 14
ATOM     14  C   TYR Z  -4       3.010  19.006  12.096  1.00 48.17 LIG 0.24  C 
ATOM     15  N   GLY Z  -3       1.725  19.273  11.889  1.00 50.01 LIG-0.35  N 
ATOM     16 H    GLY Z  -3       1.341  19.215  11.122  1.00 50.01 LIG 0.16  HD
ATOM     17 O    TYR Z  -4       3.535  19.055  13.208  1.00 57.82 LIG-0.27  OA
BRANCH 15 18
ATOM     18  CA  GLY Z  -3       0.852  19.692  12.969  1.00 64.94 LIG 0.21  C 
BRANCH 18 19
ATOM     19  C   GLY Z  -3       0.225  21.047  12.706  1.00 70.96 LIG 0.21  C 
ATOM     20 O    GLY Z  -3      -0.326  21.670  13.614  1.00 75.87 LIG-0.29  OA
ENDBRANCH 18 19
ENDBRANCH 15 18
ENDBRANCH 1 14
BRANCH 1 21
ATOM     21  CB  TYR Z  -4       3.696  17.159  10.523  1.00 44.24 LIG 0.07  C 
BRANCH 21 22
ATOM     22  CG  TYR Z  -4       4.669  16.739   9.444  1.00 50.17 LIG-0.06  A 
ATOM     23  CD2 TYR Z  -4       5.125  17.650   8.499  1.00 45.93 LIG 0.01  A 
ATOM     24  CE2 TYR Z  -4       6.034  17.276   7.526  1.00 43.59 LIG 0.04  A 
ATOM     25  CZ  TYR Z  -4       6.503  15.980   7.492  1.00 44.55 LIG 0.07  A 
ATOM     26  CE1 TYR Z  -4       6.073  15.058   8.425  1.00 43.60 LIG 0.04  A 
ATOM     27  CD1 TYR Z  -4       5.163  15.441   9.396  1.00 43.85 LIG 0.01  A 
BRANCH 25 28
ATOM     28 OH   TYR Z  -4       7.406  15.604   6.525  1.00 43.23 LIG-0.36  OA
ATOM     29 HH   TYR Z  -4       7.201  15.965   5.794  1.00 43.23 LIG 0.22  HD
ENDBRANCH 25 28
ENDBRANCH 21 22
ENDBRANCH 1 21
TORSDOF 11
ENDMDL
MODEL 54
USER: ADFR SOLUTION from run 35
USER: SCORE 8.494819 LL:  -1.441 LR:  -7.150 RR:   0.000 FEB:  -3.869
USER: RMSD 7.624362
USER: SEED 34
USER: STATUS no improvement in best in 26 clusters for 5 generations
USER: GENES 13
USER: genes 0 Translation |==|  0.60917 0.63989 0.33158
USER: genes 1 Rotation |==|  0.24084 0.85681 0.30037 0.62518
USER: genes 2 Torsion [C]-CA--N-[C] |==|  0.76873
USER: genes 3 Torsion [N]-C--CA-[N] |==|  0.96768
USER: genes 4 Torsion [C]-CA--N-[H1] |==|  0.07144
USER: genes 5 Torsion [C]-CA--CB-[OG] |==|  0.66103
USER: genes 6 Torsion [CA]-CB--OG-[HG] |==|  0.40258
USER: genes 7 Torsion [N]-CA--C-[N] |==|  0.91680
USER: genes 8 Torsion [C]-N--CA-[C] |==|  0.65198
USER: genes 9 Torsion [N]-CA--C-[O] |==|  0.63338
USER: genes 10 Torsion [N]-CA--CB-[CG] |==|  0.53419
USER: genes 11 Torsion [CA]-CB--CG-[CD2] |==|  0.17394
USER: genes 12 Torsion [CE2]-CZ--OH-[HH] |==|  0.70387
ROOT
ATOM      1  CA  TYR Z  -4       4.877  16.522   6.624  1.00 44.41 LIG 0.18  C 
ENDROOT
BRANCH 1 2
ATOM      2  N   TYR Z  -4       4.956  16.760   5.188  1.00 49.32 LIG-0.35  N 
ATOM      3 H    TYR Z  -4       5.321  16.122   4.741  1.00 49.32 LIG 0.16  HD
ATOM      4  C   SER Z  -5       4.493  17.879   4.640  1.00 53.16 LIG 0.25  C 
ATOM      5 O    SER Z  -5       4.056  18.821   5.305  1.00 46.54 LIG-0.27  OA
BRANCH 4 6
ATOM      6  CA  SER Z  -5       4.527  17.949   3.117  1.00 61.82 LIG 0.30  C 
BRANCH 6 7
ATOM      7  N   SER Z  -5       5.326  16.853   2.580  1.00 64.85 LIG-0.06  N 
ATOM      8 H1   SER Z  -5       5.326  16.175   3.156  1.00 64.85 LIG 0.28  HD
ATOM      9 H3   SER Z  -5       6.161  17.131   2.449  1.00 64.85 LIG 0.28  HD
ATOM     10 H2   SER Z  -5       4.979  16.584   1.806  1.00 64.85 LIG 0.28  HD
ENDBRANCH 6 7
BRANCH 6 11
ATOM     11  CB  SER Z  -5       3.106  17.912   2.545  1.00 66.88 LIG 0.21  C 
BRANCH 11 12
ATOM     12 OG   SER Z  -5       2.935  16.822   1.653  1.00 63.67 LIG-0.40  OA
ATOM     13 HG   SER Z  -5       2.153  16.522   1.723  1.00 63.67 LIG 0.21  HD
ENDBRANCH 11 12
ENDBRANCH 6 11
ENDBRANCH 4 6
ENDBRANCH 1 2
BRANCH 1 14
ATOM     14  C   TYR Z  -4       6.035  17.184   7.355  1.00 48.17 LIG 0.24  C 
ATOM     15  N   GLY Z  -3       7.168  17.297   6.671  1.00 50.01 LIG-0.35  N 
ATOM     16 H    GLY Z  -3       7.259  17.059   5.851  1.00 50.01 LIG 0.16  HD
ATOM     17 O    TYR Z  -4       5.911  17.568   8.518  1.00 57.82 LIG-0.27  OA
BRANCH 15 18
ATOM     18  CA  GLY Z  -3       8.368  17.847   7.274  1.00 64.94 LIG 0.21  C 
BRANCH 18 19
ATOM     19  C   GLY Z  -3       8.931  19.005   6.475  1.00 70.96 LIG 0.21  C 
ATOM     20 O    GLY Z  -3      10.130  19.051   6.197  1.00 75.87 LIG-0.29  OA
ENDBRANCH 18 19
ENDBRANCH 15 18
ENDBRANCH 1 14
BRANCH 1 21
ATOM     21  CB  TYR Z  -4       4.832  15.014   6.906  1.00 44.24 LIG 0.07  C 
BRANCH 21 22
ATOM     22  CG  TYR Z  -4       4.453  14.720   8.341  1.00 50.17 LIG-0.06  A 
ATOM     23  CD2 TYR Z  -4       3.214  15.098   8.845  1.00 45.93 LIG 0.01  A 
ATOM     24  CE2 TYR Z  -4       2.854  14.809  10.149  1.00 43.59 LIG 0.04  A 
ATOM     25  CZ  TYR Z  -4       3.734  14.128  10.965  1.00 44.55 LIG 0.07  A 
ATOM     26  CE1 TYR Z  -4       4.967  13.734  10.486  1.00 43.60 LIG 0.04  A 
ATOM     27  CD1 TYR Z  -4       5.318  14.028   9.180  1.00 43.85 LIG 0.01  A 
BRANCH 25 28
ATOM     28 OH   TYR Z  -4       3.380  13.841  12.262  1.00 43.23 LIG-0.36  OA
ATOM     29 HH   TYR Z  -4       3.806  14.340  12.787  1.00 43.23 LIG 0.22  HD
ENDBRANCH 25 28
ENDBRANCH 21 22
ENDBRANCH 1 21
TORSDOF 11
ENDMDL
MODEL 55
USER: ADFR SOLUTION from run 109
USER: SCORE 8.390778 LL:  -1.488 LR:  -7.154 RR:   0.000 FEB:  -3.873
USER: RMSD 6.445783
USER: SEED 108
USER: STATUS no improvement in best in 21 clusters for 5 generations
USER: GENES 13
USER: genes 0 Translation |==|  0.70138 0.53317 0.38970
USER: genes 1 Rotation |==|  0.42492 0.17961 0.36245 0.85042
USER: genes 2 Torsion [C]-CA--N-[C] |==|  0.64574
USER: genes 3 Torsion [N]-C--CA-[N] |==|  0.42298
USER: genes 4 Torsion [C]-CA--N-[H1] |==|  0.80280
USER: genes 5 Torsion [C]-CA--CB-[OG] |==|  0.13452
USER: genes 6 Torsion [CA]-CB--OG-[HG] |==|  0.76462
USER: genes 7 Torsion [N]-CA--C-[N] |==|  0.07026
USER: genes 8 Torsion [C]-N--CA-[C] |==|  0.60636
USER: genes 9 Torsion [N]-CA--C-[O] |==|  0.31380
USER: genes 10 Torsion [N]-CA--CB-[CG] |==|  0.20678
USER: genes 11 Torsion [CA]-CB--CG-[CD2] |==|  0.82436
USER: genes 12 Torsion [CE2]-CZ--OH-[HH] |==|  0.97991
ROOT
ATOM      1  CA  TYR Z  -4       6.399  14.681   7.495  1.00 44.41 LIG 0.18  C 
ENDROOT
BRANCH 1 2
ATOM      2  N   TYR Z  -4       6.433  16.138   7.444  1.00 49.32 LIG-0.35  N 
ATOM      3 H    TYR Z  -4       5.659  16.512   7.456  1.00 49.32 LIG 0.16  HD
ATOM      4  C   SER Z  -5       7.581  16.806   7.383  1.00 53.16 LIG 0.25  C 
ATOM      5 O    SER Z  -5       8.676  16.251   7.275  1.00 46.54 LIG-0.27  OA
BRANCH 4 6
ATOM      6  CA  SER Z  -5       7.480  18.326   7.457  1.00 61.82 LIG 0.30  C 
BRANCH 6 7
ATOM      7  N   SER Z  -5       8.701  18.885   8.025  1.00 64.85 LIG-0.06  N 
ATOM      8 H1   SER Z  -5       8.741  18.692   8.893  1.00 64.85 LIG 0.28  HD
ATOM      9 H3   SER Z  -5       8.701  19.768   7.918  1.00 64.85 LIG 0.28  HD
ATOM     10 H2   SER Z  -5       9.408  18.537   7.612  1.00 64.85 LIG 0.28  HD
ENDBRANCH 6 7
BRANCH 6 11
ATOM     11  CB  SER Z  -5       7.211  18.914   6.068  1.00 66.88 LIG 0.21  C 
BRANCH 11 12
ATOM     12 OG   SER Z  -5       6.152  18.234   5.413  1.00 63.67 LIG-0.40  OA
ATOM     13 HG   SER Z  -5       6.453  17.551   5.027  1.00 63.67 LIG 0.21  HD
ENDBRANCH 11 12
ENDBRANCH 6 11
ENDBRANCH 4 6
ENDBRANCH 1 2
BRANCH 1 14
ATOM     14  C   TYR Z  -4       5.486  14.114   6.419  1.00 48.17 LIG 0.24  C 
ATOM     15  N   GLY Z  -3       5.306  14.876   5.346  1.00 50.01 LIG-0.35  N 
ATOM     16 H    GLY Z  -3       5.701  15.629   5.221  1.00 50.01 LIG 0.16  HD
ATOM     17 O    TYR Z  -4       4.943  13.019   6.564  1.00 57.82 LIG-0.27  OA
BRANCH 15 18
ATOM     18  CA  GLY Z  -3       4.407  14.484   4.277  1.00 64.94 LIG 0.21  C 
BRANCH 18 19
ATOM     19  C   GLY Z  -3       4.951  14.845   2.910  1.00 70.96 LIG 0.21  C 
ATOM     20 O    GLY Z  -3       5.280  13.965   2.113  1.00 75.87 LIG-0.29  OA
ENDBRANCH 18 19
ENDBRANCH 15 18
ENDBRANCH 1 14
BRANCH 1 21
ATOM     21  CB  TYR Z  -4       5.967  14.214   8.892  1.00 44.24 LIG 0.07  C 
BRANCH 21 22
ATOM     22  CG  TYR Z  -4       4.485  14.417   9.122  1.00 50.17 LIG-0.06  A 
ATOM     23  CD2 TYR Z  -4       3.930  15.691   9.122  1.00 45.93 LIG 0.01  A 
ATOM     24  CE2 TYR Z  -4       2.572  15.879   9.307  1.00 43.59 LIG 0.04  A 
ATOM     25  CZ  TYR Z  -4       1.750  14.786   9.488  1.00 44.55 LIG 0.07  A 
ATOM     26  CE1 TYR Z  -4       2.275  13.510   9.483  1.00 43.60 LIG 0.04  A 
ATOM     27  CD1 TYR Z  -4       3.635  13.331   9.297  1.00 43.85 LIG 0.01  A 
BRANCH 25 28
ATOM     28 OH   TYR Z  -4       0.400  14.970   9.674  1.00 43.23 LIG-0.36  OA
ATOM     29 HH   TYR Z  -4       0.236  15.791   9.753  1.00 43.23 LIG 0.22  HD
ENDBRANCH 25 28
ENDBRANCH 21 22
ENDBRANCH 1 21
TORSDOF 11
ENDMDL
MODEL 56
USER: ADFR SOLUTION from run 141
USER: SCORE 8.534524 LL:  -1.481 LR:  -7.137 RR:   0.000 FEB:  -3.856
USER: RMSD 7.225169
USER: SEED 140
USER: STATUS no improvement in best in 23 clusters for 5 generations
USER: GENES 13
USER: genes 0 Translation |==|  0.70495 0.70954 0.39303
USER: genes 1 Rotation |==|  0.38416 0.67467 0.32440 0.91861
USER: genes 2 Torsion [C]-CA--N-[C] |==|  0.62908
USER: genes 3 Torsion [N]-C--CA-[N] |==|  0.89880
USER: genes 4 Torsion [C]-CA--N-[H1] |==|  0.77235
USER: genes 5 Torsion [C]-CA--CB-[OG] |==|  0.86599
USER: genes 6 Torsion [CA]-CB--OG-[HG] |==|  0.84089
USER: genes 7 Torsion [N]-CA--C-[N] |==|  0.43563
USER: genes 8 Torsion [C]-N--CA-[C] |==|  0.59137
USER: genes 9 Torsion [N]-CA--C-[O] |==|  0.21399
USER: genes 10 Torsion [N]-CA--CB-[CG] |==|  0.51461
USER: genes 11 Torsion [CA]-CB--CG-[CD2] |==|  0.23031
USER: genes 12 Torsion [CE2]-CZ--OH-[HH] |==|  0.24664
ROOT
ATOM      1  CA  TYR Z  -4       6.458  17.724   7.545  1.00 44.41 LIG 0.18  C 
ENDROOT
BRANCH 1 2
ATOM      2  N   TYR Z  -4       7.380  18.848   7.445  1.00 49.32 LIG-0.35  N 
ATOM      3 H    TYR Z  -4       7.851  18.985   8.151  1.00 49.32 LIG 0.16  HD
ATOM      4  C   SER Z  -5       7.465  19.583   6.341  1.00 53.16 LIG 0.25  C 
ATOM      5 O    SER Z  -5       6.719  19.429   5.372  1.00 46.54 LIG-0.27  OA
BRANCH 4 6
ATOM      6  CA  SER Z  -5       8.554  20.651   6.325  1.00 61.82 LIG 0.30  C 
BRANCH 6 7
ATOM      7  N   SER Z  -5       8.701  21.242   7.650  1.00 64.85 LIG-0.06  N 
ATOM      8 H1   SER Z  -5       8.079  21.867   7.768  1.00 64.85 LIG 0.28  HD
ATOM      9 H3   SER Z  -5       9.508  21.609   7.724  1.00 64.85 LIG 0.28  HD
ATOM     10 H2   SER Z  -5       8.605  20.610   8.269  1.00 64.85 LIG 0.28  HD
ENDBRANCH 6 7
BRANCH 6 11
ATOM     11  CB  SER Z  -5       9.883  20.056   5.848  1.00 66.88 LIG 0.21  C 
BRANCH 11 12
ATOM     12 OG   SER Z  -5      10.181  18.845   6.525  1.00 63.67 LIG-0.40  OA
ATOM     13 HG   SER Z  -5      10.199  18.984   7.354  1.00 63.67 LIG 0.21  HD
ENDBRANCH 11 12
ENDBRANCH 6 11
ENDBRANCH 4 6
ENDBRANCH 1 2
BRANCH 1 14
ATOM     14  C   TYR Z  -4       5.689  17.758   8.857  1.00 48.17 LIG 0.24  C 
ATOM     15  N   GLY Z  -3       4.529  17.112   8.871  1.00 50.01 LIG-0.35  N 
ATOM     16 H    GLY Z  -3       4.225  16.658   8.207  1.00 50.01 LIG 0.16  HD
ATOM     17 O    TYR Z  -4       6.127  18.370   9.831  1.00 57.82 LIG-0.27  OA
BRANCH 15 18
ATOM     18  CA  GLY Z  -3       3.665  17.123  10.036  1.00 64.94 LIG 0.21  C 
BRANCH 18 19
ATOM     19  C   GLY Z  -3       2.897  15.826  10.193  1.00 70.96 LIG 0.21  C 
ATOM     20 O    GLY Z  -3       3.451  14.819  10.635  1.00 75.87 LIG-0.29  OA
ENDBRANCH 18 19
ENDBRANCH 15 18
ENDBRANCH 1 14
BRANCH 1 21
ATOM     21  CB  TYR Z  -4       7.219  16.401   7.384  1.00 44.24 LIG 0.07  C 
BRANCH 21 22
ATOM     22  CG  TYR Z  -4       6.285  15.212   7.353  1.00 50.17 LIG-0.06  A 
ATOM     23  CD2 TYR Z  -4       5.645  14.835   6.179  1.00 45.93 LIG 0.01  A 
ATOM     24  CE2 TYR Z  -4       4.809  13.734   6.141  1.00 43.59 LIG 0.04  A 
ATOM     25  CZ  TYR Z  -4       4.610  12.989   7.285  1.00 44.55 LIG 0.07  A 
ATOM     26  CE1 TYR Z  -4       5.242  13.336   8.462  1.00 43.60 LIG 0.04  A 
ATOM     27  CD1 TYR Z  -4       6.076  14.440   8.490  1.00 43.85 LIG 0.01  A 
BRANCH 25 28
ATOM     28 OH   TYR Z  -4       3.779  11.894   7.252  1.00 43.23 LIG-0.36  OA
ATOM     29 HH   TYR Z  -4       4.220  11.212   7.036  1.00 43.23 LIG 0.22  HD
ENDBRANCH 25 28
ENDBRANCH 21 22
ENDBRANCH 1 21
TORSDOF 11
ENDMDL
MODEL 57
USER: ADFR SOLUTION from run 96
USER: SCORE 8.668801 LL:  -1.554 LR:  -7.128 RR:   0.000 FEB:  -3.847
USER: RMSD 7.259517
USER: SEED 95
USER: STATUS no improvement in best in 21 clusters for 5 generations
USER: GENES 13
USER: genes 0 Translation |==|  0.45208 0.48320 0.26232
USER: genes 1 Rotation |==|  0.51341 0.96028 0.30933 0.54009
USER: genes 2 Torsion [C]-CA--N-[C] |==|  0.83960
USER: genes 3 Torsion [N]-C--CA-[N] |==|  0.39895
USER: genes 4 Torsion [C]-CA--N-[H1] |==|  0.99243
USER: genes 5 Torsion [C]-CA--CB-[OG] |==|  0.70147
USER: genes 6 Torsion [CA]-CB--OG-[HG] |==|  0.09982
USER: genes 7 Torsion [N]-CA--C-[N] |==|  0.38375
USER: genes 8 Torsion [C]-N--CA-[C] |==|  0.34029
USER: genes 9 Torsion [N]-CA--C-[O] |==|  0.93262
USER: genes 10 Torsion [N]-CA--CB-[CG] |==|  0.27904
USER: genes 11 Torsion [CA]-CB--CG-[CD2] |==|  0.25898
USER: genes 12 Torsion [CE2]-CZ--OH-[HH] |==|  0.57532
ROOT
ATOM      1  CA  TYR Z  -4       2.285  13.819   5.585  1.00 44.41 LIG 0.18  C 
ENDROOT
BRANCH 1 2
ATOM      2  N   TYR Z  -4       2.842  14.106   4.268  1.00 49.32 LIG-0.35  N 
ATOM      3 H    TYR Z  -4       2.312  13.934   3.613  1.00 49.32 LIG 0.16  HD
ATOM      4  C   SER Z  -5       4.071  14.591   4.122  1.00 53.16 LIG 0.25  C 
ATOM      5 O    SER Z  -5       4.849  14.745   5.066  1.00 46.54 LIG-0.27  OA
BRANCH 4 6
ATOM      6  CA  SER Z  -5       4.485  14.960   2.701  1.00 61.82 LIG 0.30  C 
BRANCH 6 7
ATOM      7  N   SER Z  -5       5.326  16.151   2.714  1.00 64.85 LIG-0.06  N 
ATOM      8 H1   SER Z  -5       5.401  16.454   3.548  1.00 64.85 LIG 0.28  HD
ATOM      9 H3   SER Z  -5       4.958  16.780   2.203  1.00 64.85 LIG 0.28  HD
ATOM     10 H2   SER Z  -5       6.133  15.948   2.400  1.00 64.85 LIG 0.28  HD
ENDBRANCH 6 7
BRANCH 6 11
ATOM     11  CB  SER Z  -5       5.216  13.790   2.034  1.00 66.88 LIG 0.21  C 
BRANCH 11 12
ATOM     12 OG   SER Z  -5       6.606  14.049   1.913  1.00 63.67 LIG-0.40  OA
ATOM     13 HG   SER Z  -5       6.871  14.479   2.584  1.00 63.67 LIG 0.21  HD
ENDBRANCH 11 12
ENDBRANCH 6 11
ENDBRANCH 4 6
ENDBRANCH 1 2
BRANCH 1 14
ATOM     14  C   TYR Z  -4       3.153  12.828   6.345  1.00 48.17 LIG 0.24  C 
ATOM     15  N   GLY Z  -3       3.343  13.088   7.633  1.00 50.01 LIG-0.35  N 
ATOM     16 H    GLY Z  -3       2.977  13.745   8.049  1.00 50.01 LIG 0.16  HD
ATOM     17 O    TYR Z  -4       3.653  11.859   5.775  1.00 57.82 LIG-0.27  OA
BRANCH 15 18
ATOM     18  CA  GLY Z  -3       4.205  12.261   8.457  1.00 64.94 LIG 0.21  C 
BRANCH 18 19
ATOM     19  C   GLY Z  -3       5.319  13.060   9.103  1.00 70.96 LIG 0.21  C 
ATOM     20 O    GLY Z  -3       5.706  14.116   8.601  1.00 75.87 LIG-0.29  OA
ENDBRANCH 18 19
ENDBRANCH 15 18
ENDBRANCH 1 14
BRANCH 1 21
ATOM     21  CB  TYR Z  -4       0.846  13.305   5.447  1.00 44.24 LIG 0.07  C 
BRANCH 21 22
ATOM     22  CG  TYR Z  -4       0.771  11.799   5.567  1.00 50.17 LIG-0.06  A 
ATOM     23  CD2 TYR Z  -4       0.520  11.190   6.791  1.00 45.93 LIG 0.01  A 
ATOM     24  CE2 TYR Z  -4       0.426   9.815   6.900  1.00 43.59 LIG 0.04  A 
ATOM     25  CZ  TYR Z  -4       0.577   9.029   5.776  1.00 44.55 LIG 0.07  A 
ATOM     26  CE1 TYR Z  -4       0.817   9.609   4.547  1.00 43.60 LIG 0.04  A 
ATOM     27  CD1 TYR Z  -4       0.909  10.987   4.447  1.00 43.85 LIG 0.01  A 
BRANCH 25 28
ATOM     28 OH   TYR Z  -4       0.485   7.661   5.881  1.00 43.23 LIG-0.36  OA
ATOM     29 HH   TYR Z  -4       0.938   7.302   5.270  1.00 43.23 LIG 0.22  HD
ENDBRANCH 25 28
ENDBRANCH 21 22
ENDBRANCH 1 21
TORSDOF 11
ENDMDL
MODEL 58
USER: ADFR SOLUTION from run 139
USER: SCORE 8.605434 LL:  -1.504 LR:  -7.123 RR:   0.000 FEB:  -3.842
USER: RMSD 5.563420
USER: SEED 138
USER: STATUS no improvement in best in 23 clusters for 5 generations
USER: GENES 13
USER: genes 0 Translation |==|  0.51709 0.51396 0.48605
USER: genes 1 Rotation |==|  0.22322 0.11403 0.44615 0.64670
USER: genes 2 Torsion [C]-CA--N-[C] |==|  0.83332
USER: genes 3 Torsion [N]-C--CA-[N] |==|  0.85188
USER: genes 4 Torsion [C]-CA--N-[H1] |==|  0.69844
USER: genes 5 Torsion [C]-CA--CB-[OG] |==|  0.62980
USER: genes 6 Torsion [CA]-CB--OG-[HG] |==|  0.84357
USER: genes 7 Torsion [N]-CA--C-[N] |==|  0.90755
USER: genes 8 Torsion [C]-N--CA-[C] |==|  0.76011
USER: genes 9 Torsion [N]-CA--C-[O] |==|  0.98605
USER: genes 10 Torsion [N]-CA--CB-[CG] |==|  0.63016
USER: genes 11 Torsion [CA]-CB--CG-[CD2] |==|  0.43646
USER: genes 12 Torsion [CE2]-CZ--OH-[HH] |==|  0.61103
ROOT
ATOM      1  CA  TYR Z  -4       3.358  14.350   8.941  1.00 44.41 LIG 0.18  C 
ENDROOT
BRANCH 1 2
ATOM      2  N   TYR Z  -4       4.253  14.904   7.932  1.00 49.32 LIG-0.35  N 
ATOM      3 H    TYR Z  -4       4.179  15.753   7.819  1.00 49.32 LIG 0.16  HD
ATOM      4  C   SER Z  -5       5.103  14.136   7.258  1.00 53.16 LIG 0.25  C 
ATOM      5 O    SER Z  -5       5.131  12.909   7.367  1.00 46.54 LIG-0.27  OA
BRANCH 4 6
ATOM      6  CA  SER Z  -5       6.065  14.859   6.320  1.00 61.82 LIG 0.30  C 
BRANCH 6 7
ATOM      7  N   SER Z  -5       5.326  15.725   5.409  1.00 64.85 LIG-0.06  N 
ATOM      8 H1   SER Z  -5       5.346  15.381   4.589  1.00 64.85 LIG 0.28  HD
ATOM      9 H3   SER Z  -5       5.699  16.533   5.400  1.00 64.85 LIG 0.28  HD
ATOM     10 H2   SER Z  -5       4.481  15.792   5.682  1.00 64.85 LIG 0.28  HD
ENDBRANCH 6 7
BRANCH 6 11
ATOM     11  CB  SER Z  -5       7.091  15.666   7.121  1.00 66.88 LIG 0.21  C 
BRANCH 11 12
ATOM     12 OG   SER Z  -5       7.234  16.980   6.604  1.00 63.67 LIG-0.40  OA
ATOM     13 HG   SER Z  -5       7.442  16.941   5.791  1.00 63.67 LIG 0.21  HD
ENDBRANCH 11 12
ENDBRANCH 6 11
ENDBRANCH 4 6
ENDBRANCH 1 2
BRANCH 1 14
ATOM     14  C   TYR Z  -4       2.430  13.306   8.339  1.00 48.17 LIG 0.24  C 
ATOM     15  N   GLY Z  -3       2.056  13.513   7.082  1.00 50.01 LIG-0.35  N 
ATOM     16 H    GLY Z  -3       2.338  14.166   6.599  1.00 50.01 LIG 0.16  HD
ATOM     17 O    TYR Z  -4       2.048  12.343   9.003  1.00 57.82 LIG-0.27  OA
BRANCH 15 18
ATOM     18  CA  GLY Z  -3       1.119  12.631   6.411  1.00 64.94 LIG 0.21  C 
BRANCH 18 19
ATOM     19  C   GLY Z  -3       1.809  11.443   5.773  1.00 70.96 LIG 0.21  C 
ATOM     20 O    GLY Z  -3       3.037  11.354   5.775  1.00 75.87 LIG-0.29  OA
ENDBRANCH 18 19
ENDBRANCH 15 18
ENDBRANCH 1 14
BRANCH 1 21
ATOM     21  CB  TYR Z  -4       2.563  15.476   9.615  1.00 44.24 LIG 0.07  C 
BRANCH 21 22
ATOM     22  CG  TYR Z  -4       2.560  15.341  11.122  1.00 50.17 LIG-0.06  A 
ATOM     23  CD2 TYR Z  -4       2.331  16.443  11.938  1.00 45.93 LIG 0.01  A 
ATOM     24  CE2 TYR Z  -4       2.303  16.319  13.315  1.00 43.59 LIG 0.04  A 
ATOM     25  CZ  TYR Z  -4       2.500  15.082  13.893  1.00 44.55 LIG 0.07  A 
ATOM     26  CE1 TYR Z  -4       2.720  13.971  13.105  1.00 43.60 LIG 0.04  A 
ATOM     27  CD1 TYR Z  -4       2.746  14.104  11.727  1.00 43.85 LIG 0.01  A 
BRANCH 25 28
ATOM     28 OH   TYR Z  -4       2.475  14.955  15.262  1.00 43.23 LIG-0.36  OA
ATOM     29 HH   TYR Z  -4       3.077  14.422  15.506  1.00 43.23 LIG 0.22  HD
ENDBRANCH 25 28
ENDBRANCH 21 22
ENDBRANCH 1 21
TORSDOF 11
ENDMDL
MODEL 59
USER: ADFR SOLUTION from run 152
USER: SCORE 8.239388 LL:  -1.837 LR:  -7.118 RR:   0.000 FEB:  -3.836
USER: RMSD 6.758625
USER: SEED 151
USER: STATUS no improvement in best in 22 clusters for 5 generations
USER: GENES 13
USER: genes 0 Translation |==|  0.55385 0.79428 0.62759
USER: genes 1 Rotation |==|  0.62752 0.85928 0.34713 0.78511
USER: genes 2 Torsion [C]-CA--N-[C] |==|  0.56725
USER: genes 3 Torsion [N]-C--CA-[N] |==|  0.27690
USER: genes 4 Torsion [C]-CA--N-[H1] |==|  0.37293
USER: genes 5 Torsion [C]-CA--CB-[OG] |==|  0.62499
USER: genes 6 Torsion [CA]-CB--OG-[HG] |==|  0.83371
USER: genes 7 Torsion [N]-CA--C-[N] |==|  0.57769
USER: genes 8 Torsion [C]-N--CA-[C] |==|  0.72757
USER: genes 9 Torsion [N]-CA--C-[O] |==|  0.99281
USER: genes 10 Torsion [N]-CA--CB-[CG] |==|  0.08433
USER: genes 11 Torsion [CA]-CB--CG-[CD2] |==|  0.21688
USER: genes 12 Torsion [CE2]-CZ--OH-[HH] |==|  0.37942
ROOT
ATOM      1  CA  TYR Z  -4       3.964  19.185  11.064  1.00 44.41 LIG 0.18  C 
ENDROOT
BRANCH 1 2
ATOM      2  N   TYR Z  -4       5.404  19.414  11.083  1.00 49.32 LIG-0.35  N 
ATOM      3 H    TYR Z  -4       5.862  18.770  11.422  1.00 49.32 LIG 0.16  HD
ATOM      4  C   SER Z  -5       5.938  20.535  10.610  1.00 53.16 LIG 0.25  C 
ATOM      5 O    SER Z  -5       5.261  21.485  10.211  1.00 46.54 LIG-0.27  OA
BRANCH 4 6
ATOM      6  CA  SER Z  -5       7.462  20.596  10.579  1.00 61.82 LIG 0.30  C 
BRANCH 6 7
ATOM      7  N   SER Z  -5       7.951  20.305   9.236  1.00 64.85 LIG-0.06  N 
ATOM      8 H1   SER Z  -5       8.576  20.898   9.012  1.00 64.85 LIG 0.28  HD
ATOM      9 H3   SER Z  -5       7.277  20.352   8.658  1.00 64.85 LIG 0.28  HD
ATOM     10 H2   SER Z  -5       8.300  19.486   9.219  1.00 64.85 LIG 0.28  HD
ENDBRANCH 6 7
BRANCH 6 11
ATOM     11  CB  SER Z  -5       7.954  21.969  11.048  1.00 66.88 LIG 0.21  C 
BRANCH 11 12
ATOM     12 OG   SER Z  -5       8.975  22.470  10.199  1.00 63.67 LIG-0.40  OA
ATOM     13 HG   SER Z  -5       9.626  21.938  10.198  1.00 63.67 LIG 0.21  HD
ENDBRANCH 11 12
ENDBRANCH 6 11
ENDBRANCH 4 6
ENDBRANCH 1 2
BRANCH 1 14
ATOM     14  C   TYR Z  -4       3.552  18.187  12.134  1.00 48.17 LIG 0.24  C 
ATOM     15  N   GLY Z  -3       2.460  17.476  11.878  1.00 50.01 LIG-0.35  N 
ATOM     16 H    GLY Z  -3       2.016  17.525  11.143  1.00 50.01 LIG 0.16  HD
ATOM     17 O    TYR Z  -4       4.197  18.075  13.176  1.00 57.82 LIG-0.27  OA
BRANCH 15 18
ATOM     18  CA  GLY Z  -3       1.919  16.538  12.844  1.00 64.94 LIG 0.21  C 
BRANCH 18 19
ATOM     19  C   GLY Z  -3       2.345  15.112  12.559  1.00 70.96 LIG 0.21  C 
ATOM     20 O    GLY Z  -3       3.030  14.848  11.571  1.00 75.87 LIG-0.29  OA
ENDBRANCH 18 19
ENDBRANCH 15 18
ENDBRANCH 1 14
BRANCH 1 21
ATOM     21  CB  TYR Z  -4       3.524  18.718   9.670  1.00 44.24 LIG 0.07  C 
BRANCH 21 22
ATOM     22  CG  TYR Z  -4       4.613  17.939   8.966  1.00 50.17 LIG-0.06  A 
ATOM     23  CD2 TYR Z  -4       4.866  16.611   9.289  1.00 45.93 LIG 0.01  A 
ATOM     24  CE2 TYR Z  -4       5.844  15.889   8.630  1.00 43.59 LIG 0.04  A 
ATOM     25  CZ  TYR Z  -4       6.580  16.490   7.630  1.00 44.55 LIG 0.07  A 
ATOM     26  CE1 TYR Z  -4       6.342  17.805   7.283  1.00 43.60 LIG 0.04  A 
ATOM     27  CD1 TYR Z  -4       5.361  18.520   7.948  1.00 43.85 LIG 0.01  A 
BRANCH 25 28
ATOM     28 OH   TYR Z  -4       7.554  15.775   6.974  1.00 43.23 LIG-0.36  OA
ATOM     29 HH   TYR Z  -4       7.506  15.927   6.149  1.00 43.23 LIG 0.22  HD
ENDBRANCH 25 28
ENDBRANCH 21 22
ENDBRANCH 1 21
TORSDOF 11
ENDMDL
MODEL 60
USER: ADFR SOLUTION from run 26
USER: SCORE 8.714072 LL:  -1.750 LR:  -7.107 RR:   0.000 FEB:  -3.826
USER: RMSD 5.683950
USER: SEED 25
USER: STATUS no improvement in best in 20 clusters for 5 generations
USER: GENES 13
USER: genes 0 Translation |==|  0.68006 0.51747 0.38197
USER: genes 1 Rotation |==|  0.35175 0.24564 0.36927 0.88241
USER: genes 2 Torsion [C]-CA--N-[C] |==|  0.56378
USER: genes 3 Torsion [N]-C--CA-[N] |==|  0.84101
USER: genes 4 Torsion [C]-CA--N-[H1] |==|  0.73030
USER: genes 5 Torsion [C]-CA--CB-[OG] |==|  0.24015
USER: genes 6 Torsion [CA]-CB--OG-[HG] |==|  0.19443
USER: genes 7 Torsion [N]-CA--C-[N] |==|  0.46666
USER: genes 8 Torsion [C]-N--CA-[C] |==|  0.76753
USER: genes 9 Torsion [N]-CA--C-[O] |==|  0.95582
USER: genes 10 Torsion [N]-CA--CB-[CG] |==|  0.21779
USER: genes 11 Torsion [CA]-CB--CG-[CD2] |==|  0.35631
USER: genes 12 Torsion [CE2]-CZ--OH-[HH] |==|  0.27053
ROOT
ATOM      1  CA  TYR Z  -4       6.047  14.410   7.379  1.00 44.41 LIG 0.18  C 
ENDROOT
BRANCH 1 2
ATOM      2  N   TYR Z  -4       6.273  15.821   7.089  1.00 49.32 LIG-0.35  N 
ATOM      3 H    TYR Z  -4       5.560  16.266   6.911  1.00 49.32 LIG 0.16  HD
ATOM      4  C   SER Z  -5       7.493  16.349   7.107  1.00 53.16 LIG 0.25  C 
ATOM      5 O    SER Z  -5       8.513  15.678   7.275  1.00 46.54 LIG-0.27  OA
BRANCH 4 6
ATOM      6  CA  SER Z  -5       7.577  17.858   6.905  1.00 61.82 LIG 0.30  C 
BRANCH 6 7
ATOM      7  N   SER Z  -5       6.951  18.234   5.643  1.00 64.85 LIG-0.06  N 
ATOM      8 H1   SER Z  -5       7.576  18.317   5.014  1.00 64.85 LIG 0.28  HD
ATOM      9 H3   SER Z  -5       6.525  19.009   5.741  1.00 64.85 LIG 0.28  HD
ATOM     10 H2   SER Z  -5       6.370  17.605   5.400  1.00 64.85 LIG 0.28  HD
ENDBRANCH 6 7
BRANCH 6 11
ATOM     11  CB  SER Z  -5       6.917  18.595   8.075  1.00 66.88 LIG 0.21  C 
BRANCH 11 12
ATOM     12 OG   SER Z  -5       7.830  18.793   9.143  1.00 63.67 LIG-0.40  OA
ATOM     13 HG   SER Z  -5       8.408  19.359   8.917  1.00 63.67 LIG 0.21  HD
ENDBRANCH 11 12
ENDBRANCH 6 11
ENDBRANCH 4 6
ENDBRANCH 1 2
BRANCH 1 14
ATOM     14  C   TYR Z  -4       4.739  13.927   6.773  1.00 48.17 LIG 0.24  C 
ATOM     15  N   GLY Z  -3       4.552  12.612   6.761  1.00 50.01 LIG-0.35  N 
ATOM     16 H    GLY Z  -3       5.100  12.047   7.106  1.00 50.01 LIG 0.16  HD
ATOM     17 O    TYR Z  -4       3.925  14.725   6.309  1.00 57.82 LIG-0.27  OA
BRANCH 15 18
ATOM     18  CA  GLY Z  -3       3.379  12.016   6.150  1.00 64.94 LIG 0.21  C 
BRANCH 18 19
ATOM     19  C   GLY Z  -3       2.188  12.006   7.086  1.00 70.96 LIG 0.21  C 
ATOM     20 O    GLY Z  -3       2.337  12.192   8.294  1.00 75.87 LIG-0.29  OA
ENDBRANCH 18 19
ENDBRANCH 15 18
ENDBRANCH 1 14
BRANCH 1 21
ATOM     21  CB  TYR Z  -4       6.076  14.173   8.895  1.00 44.24 LIG 0.07  C 
BRANCH 21 22
ATOM     22  CG  TYR Z  -4       4.781  14.591   9.557  1.00 50.17 LIG-0.06  A 
ATOM     23  CD2 TYR Z  -4       4.095  13.722  10.397  1.00 45.93 LIG 0.01  A 
ATOM     24  CE2 TYR Z  -4       2.924  14.109  11.024  1.00 43.59 LIG 0.04  A 
ATOM     25  CZ  TYR Z  -4       2.428  15.380  10.818  1.00 44.55 LIG 0.07  A 
ATOM     26  CE1 TYR Z  -4       3.095  16.265   9.996  1.00 43.60 LIG 0.04  A 
ATOM     27  CD1 TYR Z  -4       4.267  15.869   9.373  1.00 43.85 LIG 0.01  A 
BRANCH 25 28
ATOM     28 OH   TYR Z  -4       1.263  15.767  11.438  1.00 43.23 LIG-0.36  OA
ATOM     29 HH   TYR Z  -4       1.446  16.199  12.136  1.00 43.23 LIG 0.22  HD
ENDBRANCH 25 28
ENDBRANCH 21 22
ENDBRANCH 1 21
TORSDOF 11
ENDMDL
MODEL 61
USER: ADFR SOLUTION from run 9
USER: SCORE 8.784253 LL:  -1.782 LR:  -7.103 RR:   0.000 FEB:  -3.822
USER: RMSD 5.713537
USER: SEED 103230
USER: STATUS no improvement in best in 26 clusters for 5 generations
USER: GENES 13
USER: genes 0 Translation |==|  0.49123 0.39901 0.27505
USER: genes 1 Rotation |==|  0.18666 0.44738 0.81908 0.71735
USER: genes 2 Torsion [C]-CA--N-[C] |==|  0.74063
USER: genes 3 Torsion [N]-C--CA-[N] |==|  0.33875
USER: genes 4 Torsion [C]-CA--N-[H1] |==|  0.99882
USER: genes 5 Torsion [C]-CA--CB-[OG] |==|  0.77661
USER: genes 6 Torsion [CA]-CB--OG-[HG] |==|  0.05308
USER: genes 7 Torsion [N]-CA--C-[N] |==|  0.38619
USER: genes 8 Torsion [C]-N--CA-[C] |==|  0.77080
USER: genes 9 Torsion [N]-CA--C-[O] |==|  0.79090
USER: genes 10 Torsion [N]-CA--CB-[CG] |==|  0.45632
USER: genes 11 Torsion [CA]-CB--CG-[CD2] |==|  0.66898
USER: genes 12 Torsion [CE2]-CZ--OH-[HH] |==|  0.73936
ROOT
ATOM      1  CA  TYR Z  -4       2.931  12.367   5.776  1.00 44.41 LIG 0.18  C 
ENDROOT
BRANCH 1 2
ATOM      2  N   TYR Z  -4       1.677  11.752   5.358  1.00 49.32 LIG-0.35  N 
ATOM      3 H    TYR Z  -4       1.027  12.306   5.255  1.00 49.32 LIG 0.16  HD
ATOM      4  C   SER Z  -5       1.576  10.442   5.160  1.00 53.16 LIG 0.25  C 
ATOM      5 O    SER Z  -5       2.492   9.653   5.400  1.00 46.54 LIG-0.27  OA
BRANCH 4 6
ATOM      6  CA  SER Z  -5       0.243   9.945   4.608  1.00 61.82 LIG 0.30  C 
BRANCH 6 7
ATOM      7  N   SER Z  -5       0.451   9.234   3.352  1.00 64.85 LIG-0.06  N 
ATOM      8 H1   SER Z  -5       1.318   9.235   3.150  1.00 64.85 LIG 0.28  HD
ATOM      9 H3   SER Z  -5      -0.005   9.638   2.703  1.00 64.85 LIG 0.28  HD
ATOM     10 H2   SER Z  -5       0.168   8.395   3.436  1.00 64.85 LIG 0.28  HD
ENDBRANCH 6 7
BRANCH 6 11
ATOM     11  CB  SER Z  -5      -0.459   9.044   5.630  1.00 66.88 LIG 0.21  C 
BRANCH 11 12
ATOM     12 OG   SER Z  -5       0.069   7.727   5.608  1.00 63.67 LIG-0.40  OA
ATOM     13 HG   SER Z  -5       0.826   7.734   5.242  1.00 63.67 LIG 0.21  HD
ENDBRANCH 11 12
ENDBRANCH 6 11
ENDBRANCH 4 6
ENDBRANCH 1 2
BRANCH 1 14
ATOM     14  C   TYR Z  -4       3.003  12.497   7.289  1.00 48.17 LIG 0.24  C 
ATOM     15  N   GLY Z  -3       4.176  12.217   7.844  1.00 50.01 LIG-0.35  N 
ATOM     16 H    GLY Z  -3       4.882  12.013   7.397  1.00 50.01 LIG 0.16  HD
ATOM     17 O    TYR Z  -4       2.013  12.826   7.943  1.00 57.82 LIG-0.27  OA
BRANCH 15 18
ATOM     18  CA  GLY Z  -3       4.362  12.236   9.283  1.00 64.94 LIG 0.21  C 
BRANCH 18 19
ATOM     19  C   GLY Z  -3       4.609  13.634   9.811  1.00 70.96 LIG 0.21  C 
ATOM     20 O    GLY Z  -3       5.701  14.181   9.651  1.00 75.87 LIG-0.29  OA
ENDBRANCH 18 19
ENDBRANCH 15 18
ENDBRANCH 1 14
BRANCH 1 21
ATOM     21  CB  TYR Z  -4       3.102  13.731   5.093  1.00 44.24 LIG 0.07  C 
BRANCH 21 22
ATOM     22  CG  TYR Z  -4       4.168  14.568   5.765  1.00 50.17 LIG-0.06  A 
ATOM     23  CD2 TYR Z  -4       3.859  15.798   6.333  1.00 45.93 LIG 0.01  A 
ATOM     24  CE2 TYR Z  -4       4.826  16.555   6.970  1.00 43.59 LIG 0.04  A 
ATOM     25  CZ  TYR Z  -4       6.119  16.082   7.050  1.00 44.55 LIG 0.07  A 
ATOM     26  CE1 TYR Z  -4       6.451  14.860   6.502  1.00 43.60 LIG 0.04  A 
ATOM     27  CD1 TYR Z  -4       5.477  14.109   5.866  1.00 43.85 LIG 0.01  A 
BRANCH 25 28
ATOM     28 OH   TYR Z  -4       7.084  16.833   7.680  1.00 43.23 LIG-0.36  OA
ATOM     29 HH   TYR Z  -4       7.489  17.304   7.114  1.00 43.23 LIG 0.22  HD
ENDBRANCH 25 28
ENDBRANCH 21 22
ENDBRANCH 1 21
TORSDOF 11
ENDMDL
MODEL 62
USER: ADFR SOLUTION from run 191
USER: SCORE 8.523685 LL:  -1.487 LR:  -7.105 RR:   0.000 FEB:  -3.824
USER: RMSD 4.920265
USER: SEED 190
USER: STATUS no improvement in best in 36 clusters for 5 generations
USER: GENES 13
USER: genes 0 Translation |==|  0.50825 0.56400 0.56966
USER: genes 1 Rotation |==|  0.45395 0.64675 0.39432 0.96387
USER: genes 2 Torsion [C]-CA--N-[C] |==|  0.84375
USER: genes 3 Torsion [N]-C--CA-[N] |==|  0.79941
USER: genes 4 Torsion [C]-CA--N-[H1] |==|  0.21736
USER: genes 5 Torsion [C]-CA--CB-[OG] |==|  0.68925
USER: genes 6 Torsion [CA]-CB--OG-[HG] |==|  0.86996
USER: genes 7 Torsion [N]-CA--C-[N] |==|  0.87967
USER: genes 8 Torsion [C]-N--CA-[C] |==|  0.60183
USER: genes 9 Torsion [N]-CA--C-[O] |==|  0.99762
USER: genes 10 Torsion [N]-CA--CB-[CG] |==|  0.74071
USER: genes 11 Torsion [CA]-CB--CG-[CD2] |==|  0.77912
USER: genes 12 Torsion [CE2]-CZ--OH-[HH] |==|  0.42624
ROOT
ATOM      1  CA  TYR Z  -4       3.212  15.213  10.195  1.00 44.41 LIG 0.18  C 
ENDROOT
BRANCH 1 2
ATOM      2  N   TYR Z  -4       3.826  16.455  10.650  1.00 49.32 LIG-0.35  N 
ATOM      3 H    TYR Z  -4       4.686  16.450  10.641  1.00 49.32 LIG 0.16  HD
ATOM      4  C   SER Z  -5       3.093  17.492  11.040  1.00 53.16 LIG 0.25  C 
ATOM      5 O    SER Z  -5       1.864  17.450  11.132  1.00 46.54 LIG-0.27  OA
BRANCH 4 6
ATOM      6  CA  SER Z  -5       3.856  18.769  11.376  1.00 61.82 LIG 0.30  C 
BRANCH 6 7
ATOM      7  N   SER Z  -5       4.576  18.610  12.634  1.00 64.85 LIG-0.06  N 
ATOM      8 H1   SER Z  -5       5.316  18.135  12.496  1.00 64.85 LIG 0.28  HD
ATOM      9 H3   SER Z  -5       4.058  18.186  13.221  1.00 64.85 LIG 0.28  HD
ATOM     10 H2   SER Z  -5       4.794  19.411  12.955  1.00 64.85 LIG 0.28  HD
ENDBRANCH 6 7
BRANCH 6 11
ATOM     11  CB  SER Z  -5       4.822  19.131  10.243  1.00 66.88 LIG 0.21  C 
BRANCH 11 12
ATOM     12 OG   SER Z  -5       6.174  18.984  10.648  1.00 63.67 LIG-0.40  OA
ATOM     13 HG   SER Z  -5       6.283  19.343  11.400  1.00 63.67 LIG 0.21  HD
ENDBRANCH 11 12
ENDBRANCH 6 11
ENDBRANCH 4 6
ENDBRANCH 1 2
BRANCH 1 14
ATOM     14  C   TYR Z  -4       2.275  14.644  11.249  1.00 48.17 LIG 0.24  C 
ATOM     15  N   GLY Z  -3       2.721  14.668  12.499  1.00 50.01 LIG-0.35  N 
ATOM     16 H    GLY Z  -3       3.471  15.015  12.735  1.00 50.01 LIG 0.16  HD
ATOM     17 O    TYR Z  -4       1.180  14.178  10.935  1.00 57.82 LIG-0.27  OA
BRANCH 15 18
ATOM     18  CA  GLY Z  -3       1.956  14.095  13.591  1.00 64.94 LIG 0.21  C 
BRANCH 18 19
ATOM     19  C   GLY Z  -3       2.083  14.903  14.866  1.00 70.96 LIG 0.21  C 
ATOM     20 O    GLY Z  -3       2.789  15.912  14.902  1.00 75.87 LIG-0.29  OA
ENDBRANCH 18 19
ENDBRANCH 15 18
ENDBRANCH 1 14
BRANCH 1 21
ATOM     21  CB  TYR Z  -4       4.298  14.198   9.812  1.00 44.24 LIG 0.07  C 
BRANCH 21 22
ATOM     22  CG  TYR Z  -4       4.631  14.256   8.338  1.00 50.17 LIG-0.06  A 
ATOM     23  CD2 TYR Z  -4       3.815  13.640   7.396  1.00 45.93 LIG 0.01  A 
ATOM     24  CE2 TYR Z  -4       4.103  13.712   6.045  1.00 43.59 LIG 0.04  A 
ATOM     25  CZ  TYR Z  -4       5.213  14.412   5.620  1.00 44.55 LIG 0.07  A 
ATOM     26  CE1 TYR Z  -4       6.033  15.041   6.534  1.00 43.60 LIG 0.04  A 
ATOM     27  CD1 TYR Z  -4       5.738  14.963   7.884  1.00 43.85 LIG 0.01  A 
BRANCH 25 28
ATOM     28 OH   TYR Z  -4       5.502  14.484   4.277  1.00 43.23 LIG-0.36  OA
ATOM     29 HH   TYR Z  -4       5.937  15.186   4.121  1.00 43.23 LIG 0.22  HD
ENDBRANCH 25 28
ENDBRANCH 21 22
ENDBRANCH 1 21
TORSDOF 11
ENDMDL
MODEL 63
USER: ADFR SOLUTION from run 200
USER: SCORE 8.093367 LL:  -1.536 LR:  -7.085 RR:   0.000 FEB:  -3.804
USER: RMSD 6.318038
USER: SEED 199
USER: STATUS no improvement in best in 24 clusters for 5 generations
USER: GENES 13
USER: genes 0 Translation |==|  0.60121 0.52887 0.30891
USER: genes 1 Rotation |==|  0.33929 0.11091 0.28108 0.65765
USER: genes 2 Torsion [C]-CA--N-[C] |==|  0.59322
USER: genes 3 Torsion [N]-C--CA-[N] |==|  0.98251
USER: genes 4 Torsion [C]-CA--N-[H1] |==|  0.34833
USER: genes 5 Torsion [C]-CA--CB-[OG] |==|  0.51405
USER: genes 6 Torsion [CA]-CB--OG-[HG] |==|  0.71471
USER: genes 7 Torsion [N]-CA--C-[N] |==|  0.02599
USER: genes 8 Torsion [C]-N--CA-[C] |==|  0.59761
USER: genes 9 Torsion [N]-CA--C-[O] |==|  0.22165
USER: genes 10 Torsion [N]-CA--CB-[CG] |==|  0.96678
USER: genes 11 Torsion [CA]-CB--CG-[CD2] |==|  0.73755
USER: genes 12 Torsion [CE2]-CZ--OH-[HH] |==|  0.77988
ROOT
ATOM      1  CA  TYR Z  -4       4.746  14.607   6.284  1.00 44.41 LIG 0.18  C 
ENDROOT
BRANCH 1 2
ATOM      2  N   TYR Z  -4       5.697  15.712   6.267  1.00 49.32 LIG-0.35  N 
ATOM      3 H    TYR Z  -4       5.599  16.255   5.607  1.00 49.32 LIG 0.16  HD
ATOM      4  C   SER Z  -5       6.629  15.844   7.205  1.00 53.16 LIG 0.25  C 
ATOM      5 O    SER Z  -5       6.813  15.007   8.090  1.00 46.54 LIG-0.27  OA
BRANCH 4 6
ATOM      6  CA  SER Z  -5       7.480  17.108   7.137  1.00 61.82 LIG 0.30  C 
BRANCH 6 7
ATOM      7  N   SER Z  -5       7.171  17.859   5.926  1.00 64.85 LIG-0.06  N 
ATOM      8 H1   SER Z  -5       6.950  18.694   6.141  1.00 64.85 LIG 0.28  HD
ATOM      9 H3   SER Z  -5       6.490  17.473   5.502  1.00 64.85 LIG 0.28  HD
ATOM     10 H2   SER Z  -5       7.883  17.870   5.393  1.00 64.85 LIG 0.28  HD
ENDBRANCH 6 7
BRANCH 6 11
ATOM     11  CB  SER Z  -5       7.257  17.973   8.381  1.00 66.88 LIG 0.21  C 
BRANCH 11 12
ATOM     12 OG   SER Z  -5       7.951  19.207   8.284  1.00 63.67 LIG-0.40  OA
ATOM     13 HG   SER Z  -5       8.646  19.177   8.756  1.00 63.67 LIG 0.21  HD
ENDBRANCH 11 12
ENDBRANCH 6 11
ENDBRANCH 4 6
ENDBRANCH 1 2
BRANCH 1 14
ATOM     14  C   TYR Z  -4       4.382  14.172   4.873  1.00 48.17 LIG 0.24  C 
ATOM     15  N   GLY Z  -3       5.105  14.705   3.894  1.00 50.01 LIG-0.35  N 
ATOM     16 H    GLY Z  -3       5.770  15.234   4.022  1.00 50.01 LIG 0.16  HD
ATOM     17 O    TYR Z  -4       3.458  13.385   4.672  1.00 57.82 LIG-0.27  OA
BRANCH 15 18
ATOM     18  CA  GLY Z  -3       4.818  14.428   2.499  1.00 64.94 LIG 0.21  C 
BRANCH 18 19
ATOM     19  C   GLY Z  -3       6.076  14.360   1.657  1.00 70.96 LIG 0.21  C 
ATOM     20 O    GLY Z  -3       6.772  13.344   1.650  1.00 75.87 LIG-0.29  OA
ENDBRANCH 18 19
ENDBRANCH 15 18
ENDBRANCH 1 14
BRANCH 1 21
ATOM     21  CB  TYR Z  -4       3.496  15.001   7.082  1.00 44.24 LIG 0.07  C 
BRANCH 21 22
ATOM     22  CG  TYR Z  -4       3.704  16.280   7.862  1.00 50.17 LIG-0.06  A 
ATOM     23  CD2 TYR Z  -4       4.109  16.249   9.191  1.00 45.93 LIG 0.01  A 
ATOM     24  CE2 TYR Z  -4       4.325  17.416   9.901  1.00 43.59 LIG 0.04  A 
ATOM     25  CZ  TYR Z  -4       4.141  18.635   9.281  1.00 44.55 LIG 0.07  A 
ATOM     26  CE1 TYR Z  -4       3.748  18.693   7.959  1.00 43.60 LIG 0.04  A 
ATOM     27  CD1 TYR Z  -4       3.535  17.519   7.257  1.00 43.85 LIG 0.01  A 
BRANCH 25 28
ATOM     28 OH   TYR Z  -4       4.353  19.798   9.984  1.00 43.23 LIG-0.36  OA
ATOM     29 HH   TYR Z  -4       3.686  19.958  10.470  1.00 43.23 LIG 0.22  HD
ENDBRANCH 25 28
ENDBRANCH 21 22
ENDBRANCH 1 21
TORSDOF 11
ENDMDL
MODEL 64
USER: ADFR SOLUTION from run 159
USER: SCORE 8.516917 LL:  -1.518 LR:  -7.083 RR:   0.000 FEB:  -3.802
USER: RMSD 7.819251
USER: SEED 158
USER: STATUS no improvement in best in 34 clusters for 5 generations
USER: GENES 13
USER: genes 0 Translation |==|  0.76393 0.70335 0.39865
USER: genes 1 Rotation |==|  0.85358 0.23102 0.32840 0.65227
USER: genes 2 Torsion [C]-CA--N-[C] |==|  0.75693
USER: genes 3 Torsion [N]-C--CA-[N] |==|  0.18803
USER: genes 4 Torsion [C]-CA--N-[H1] |==|  0.69043
USER: genes 5 Torsion [C]-CA--CB-[OG] |==|  0.77157
USER: genes 6 Torsion [CA]-CB--OG-[HG] |==|  0.26483
USER: genes 7 Torsion [N]-CA--C-[N] |==|  0.36908
USER: genes 8 Torsion [C]-N--CA-[C] |==|  0.63292
USER: genes 9 Torsion [N]-CA--C-[O] |==|  0.00501
USER: genes 10 Torsion [N]-CA--CB-[CG] |==|  0.95990
USER: genes 11 Torsion [CA]-CB--CG-[CD2] |==|  0.34816
USER: genes 12 Torsion [CE2]-CZ--OH-[HH] |==|  0.19299
ROOT
ATOM      1  CA  TYR Z  -4       7.431  17.617   7.630  1.00 44.41 LIG 0.18  C 
ENDROOT
BRANCH 1 2
ATOM      2  N   TYR Z  -4       6.078  17.611   8.174  1.00 49.32 LIG-0.35  N 
ATOM      3 H    TYR Z  -4       5.512  17.155   7.714  1.00 49.32 LIG 0.16  HD
ATOM      4  C   SER Z  -5       5.774  18.264   9.291  1.00 53.16 LIG 0.25  C 
ATOM      5 O    SER Z  -5       6.576  18.985   9.887  1.00 46.54 LIG-0.27  OA
BRANCH 4 6
ATOM      6  CA  SER Z  -5       4.354  18.076   9.815  1.00 61.82 LIG 0.30  C 
BRANCH 6 7
ATOM      7  N   SER Z  -5       4.163  16.706  10.275  1.00 64.85 LIG-0.06  N 
ATOM      8 H1   SER Z  -5       3.598  16.285   9.731  1.00 64.85 LIG 0.28  HD
ATOM      9 H3   SER Z  -5       3.829  16.713  11.100  1.00 64.85 LIG 0.28  HD
ATOM     10 H2   SER Z  -5       4.945  16.281  10.275  1.00 64.85 LIG 0.28  HD
ENDBRANCH 6 7
BRANCH 6 11
ATOM     11  CB  SER Z  -5       4.062  19.071  10.943  1.00 66.88 LIG 0.21  C 
BRANCH 11 12
ATOM     12 OG   SER Z  -5       4.566  18.607  12.186  1.00 63.67 LIG-0.40  OA
ATOM     13 HG   SER Z  -5       5.326  18.939  12.322  1.00 63.67 LIG 0.21  HD
ENDBRANCH 11 12
ENDBRANCH 6 11
ENDBRANCH 4 6
ENDBRANCH 1 2
BRANCH 1 14
ATOM     14  C   TYR Z  -4       7.649  18.809   6.711  1.00 48.17 LIG 0.24  C 
ATOM     15  N   GLY Z  -3       8.767  19.498   6.906  1.00 50.01 LIG-0.35  N 
ATOM     16 H    GLY Z  -3       9.370  19.283   7.480  1.00 50.01 LIG 0.16  HD
ATOM     17 O    TYR Z  -4       6.816  19.109   5.857  1.00 57.82 LIG-0.27  OA
BRANCH 15 18
ATOM     18  CA  GLY Z  -3       9.064  20.697   6.145  1.00 64.94 LIG 0.21  C 
BRANCH 18 19
ATOM     19  C   GLY Z  -3      10.475  20.689   5.590  1.00 70.96 LIG 0.21  C 
ATOM     20 O    GLY Z  -3      11.216  19.723   5.775  1.00 75.87 LIG-0.29  OA
ENDBRANCH 18 19
ENDBRANCH 15 18
ENDBRANCH 1 14
BRANCH 1 21
ATOM     21  CB  TYR Z  -4       7.711  16.296   6.900  1.00 44.24 LIG 0.07  C 
BRANCH 21 22
ATOM     22  CG  TYR Z  -4       6.682  15.238   7.233  1.00 50.17 LIG-0.06  A 
ATOM     23  CD2 TYR Z  -4       5.973  14.589   6.230  1.00 45.93 LIG 0.01  A 
ATOM     24  CE2 TYR Z  -4       5.050  13.604   6.529  1.00 43.59 LIG 0.04  A 
ATOM     25  CZ  TYR Z  -4       4.830  13.251   7.845  1.00 44.55 LIG 0.07  A 
ATOM     26  CE1 TYR Z  -4       5.529  13.874   8.859  1.00 43.60 LIG 0.04  A 
ATOM     27  CD1 TYR Z  -4       6.451  14.859   8.550  1.00 43.85 LIG 0.01  A 
BRANCH 25 28
ATOM     28 OH   TYR Z  -4       3.912  12.273   8.146  1.00 43.23 LIG-0.36  OA
ATOM     29 HH   TYR Z  -4       4.201  11.527   7.888  1.00 43.23 LIG 0.22  HD
ENDBRANCH 25 28
ENDBRANCH 21 22
ENDBRANCH 1 21
TORSDOF 11
ENDMDL
MODEL 65
USER: ADFR SOLUTION from run 33
USER: SCORE 8.626242 LL:  -1.568 LR:  -7.070 RR:   0.000 FEB:  -3.789
USER: RMSD 6.717395
USER: SEED 32
USER: STATUS no improvement in best in 22 clusters for 5 generations
USER: GENES 13
USER: genes 0 Translation |==|  0.60317 0.54470 0.32313
USER: genes 1 Rotation |==|  0.10161 0.51274 0.39899 0.78446
USER: genes 2 Torsion [C]-CA--N-[C] |==|  0.76691
USER: genes 3 Torsion [N]-C--CA-[N] |==|  0.92396
USER: genes 4 Torsion [C]-CA--N-[H1] |==|  0.65982
USER: genes 5 Torsion [C]-CA--CB-[OG] |==|  0.66476
USER: genes 6 Torsion [CA]-CB--OG-[HG] |==|  0.11440
USER: genes 7 Torsion [N]-CA--C-[N] |==|  0.97278
USER: genes 8 Torsion [C]-N--CA-[C] |==|  0.34845
USER: genes 9 Torsion [N]-CA--C-[O] |==|  0.89816
USER: genes 10 Torsion [N]-CA--CB-[CG] |==|  0.22553
USER: genes 11 Torsion [CA]-CB--CG-[CD2] |==|  0.73127
USER: genes 12 Torsion [CE2]-CZ--OH-[HH] |==|  0.80932
ROOT
ATOM      1  CA  TYR Z  -4       4.778  14.880   6.497  1.00 44.41 LIG 0.18  C 
ENDROOT
BRANCH 1 2
ATOM      2  N   TYR Z  -4       4.974  15.258   5.103  1.00 49.32 LIG-0.35  N 
ATOM      3 H    TYR Z  -4       5.653  15.767   4.964  1.00 49.32 LIG 0.16  HD
ATOM      4  C   SER Z  -5       4.155  14.835   4.145  1.00 53.16 LIG 0.25  C 
ATOM      5 O    SER Z  -5       3.135  14.182   4.373  1.00 46.54 LIG-0.27  OA
BRANCH 4 6
ATOM      6  CA  SER Z  -5       4.542  15.204   2.716  1.00 61.82 LIG 0.30  C 
BRANCH 6 7
ATOM      7  N   SER Z  -5       5.326  16.433   2.707  1.00 64.85 LIG-0.06  N 
ATOM      8 H1   SER Z  -5       4.924  17.038   2.193  1.00 64.85 LIG 0.28  HD
ATOM      9 H3   SER Z  -5       6.139  16.265   2.386  1.00 64.85 LIG 0.28  HD
ATOM     10 H2   SER Z  -5       5.395  16.748   3.537  1.00 64.85 LIG 0.28  HD
ENDBRANCH 6 7
BRANCH 6 11
ATOM     11  CB  SER Z  -5       5.322  14.060   2.059  1.00 66.88 LIG 0.21  C 
BRANCH 11 12
ATOM     12 OG   SER Z  -5       6.614  14.483   1.650  1.00 63.67 LIG-0.40  OA
ATOM     13 HG   SER Z  -5       6.948  14.977   2.241  1.00 63.67 LIG 0.21  HD
ENDBRANCH 11 12
ENDBRANCH 6 11
ENDBRANCH 4 6
ENDBRANCH 1 2
BRANCH 1 14
ATOM     14  C   TYR Z  -4       3.772  15.794   7.178  1.00 48.17 LIG 0.24  C 
ATOM     15  N   GLY Z  -3       3.403  16.870   6.492  1.00 50.01 LIG-0.35  N 
ATOM     16 H    GLY Z  -3       3.668  17.044   5.693  1.00 50.01 LIG 0.16  HD
ATOM     17 O    TYR Z  -4       3.350  15.540   8.306  1.00 57.82 LIG-0.27  OA
BRANCH 15 18
ATOM     18  CA  GLY Z  -3       2.502  17.858   7.054  1.00 64.94 LIG 0.21  C 
BRANCH 18 19
ATOM     19  C   GLY Z  -3       3.085  19.256   7.010  1.00 70.96 LIG 0.21  C 
ATOM     20 O    GLY Z  -3       4.288  19.440   7.198  1.00 75.87 LIG-0.29  OA
ENDBRANCH 18 19
ENDBRANCH 15 18
ENDBRANCH 1 14
BRANCH 1 21
ATOM     21  CB  TYR Z  -4       6.122  14.886   7.238  1.00 44.24 LIG 0.07  C 
BRANCH 21 22
ATOM     22  CG  TYR Z  -4       6.526  16.280   7.663  1.00 50.17 LIG-0.06  A 
ATOM     23  CD2 TYR Z  -4       7.400  17.038   6.893  1.00 45.93 LIG 0.01  A 
ATOM     24  CE2 TYR Z  -4       7.752  18.322   7.266  1.00 43.59 LIG 0.04  A 
ATOM     25  CZ  TYR Z  -4       7.225  18.867   8.418  1.00 44.55 LIG 0.07  A 
ATOM     26  CE1 TYR Z  -4       6.347  18.139   9.196  1.00 43.60 LIG 0.04  A 
ATOM     27  CD1 TYR Z  -4       6.000  16.855   8.815  1.00 43.85 LIG 0.01  A 
BRANCH 25 28
ATOM     28 OH   TYR Z  -4       7.574  20.144   8.793  1.00 43.23 LIG-0.36  OA
ATOM     29 HH   TYR Z  -4       8.382  20.158   9.024  1.00 43.23 LIG 0.22  HD
ENDBRANCH 25 28
ENDBRANCH 21 22
ENDBRANCH 1 21
TORSDOF 11
ENDMDL
MODEL 66
USER: ADFR SOLUTION from run 129
USER: SCORE 8.150017 LL:  -1.154 LR:  -7.073 RR:   0.000 FEB:  -3.792
USER: RMSD 5.828806
USER: SEED 128
USER: STATUS no improvement in best in 29 clusters for 5 generations
USER: GENES 13
USER: genes 0 Translation |==|  0.58056 0.57166 0.50573
USER: genes 1 Rotation |==|  0.30145 0.05694 0.49139 0.61915
USER: genes 2 Torsion [C]-CA--N-[C] |==|  0.79282
USER: genes 3 Torsion [N]-C--CA-[N] |==|  0.90089
USER: genes 4 Torsion [C]-CA--N-[H1] |==|  0.81859
USER: genes 5 Torsion [C]-CA--CB-[OG] |==|  0.30852
USER: genes 6 Torsion [CA]-CB--OG-[HG] |==|  0.51380
USER: genes 7 Torsion [N]-CA--C-[N] |==|  0.99281
USER: genes 8 Torsion [C]-N--CA-[C] |==|  0.26477
USER: genes 9 Torsion [N]-CA--C-[O] |==|  0.48114
USER: genes 10 Torsion [N]-CA--CB-[CG] |==|  0.77845
USER: genes 11 Torsion [CA]-CB--CG-[CD2] |==|  0.63800
USER: genes 12 Torsion [CE2]-CZ--OH-[HH] |==|  0.34456
ROOT
ATOM      1  CA  TYR Z  -4       4.405  15.345   9.236  1.00 44.41 LIG 0.18  C 
ENDROOT
BRANCH 1 2
ATOM      2  N   TYR Z  -4       5.116  16.097   8.208  1.00 49.32 LIG-0.35  N 
ATOM      3 H    TYR Z  -4       4.647  16.709   7.827  1.00 49.32 LIG 0.16  HD
ATOM      4  C   SER Z  -5       6.383  15.836   7.906  1.00 53.16 LIG 0.25  C 
ATOM      5 O    SER Z  -5       7.012  14.896   8.397  1.00 46.54 LIG-0.27  OA
BRANCH 4 6
ATOM      6  CA  SER Z  -5       7.043  16.774   6.900  1.00 61.82 LIG 0.30  C 
BRANCH 6 7
ATOM      7  N   SER Z  -5       6.076  17.192   5.891  1.00 64.85 LIG-0.06  N 
ATOM      8 H1   SER Z  -5       5.824  16.486   5.411  1.00 64.85 LIG 0.28  HD
ATOM      9 H3   SER Z  -5       6.448  17.797   5.356  1.00 64.85 LIG 0.28  HD
ATOM     10 H2   SER Z  -5       5.365  17.547   6.291  1.00 64.85 LIG 0.28  HD
ENDBRANCH 6 7
BRANCH 6 11
ATOM     11  CB  SER Z  -5       7.641  17.992   7.612  1.00 66.88 LIG 0.21  C 
BRANCH 11 12
ATOM     12 OG   SER Z  -5       9.059  17.970   7.572  1.00 63.67 LIG-0.40  OA
ATOM     13 HG   SER Z  -5       9.362  18.609   8.026  1.00 63.67 LIG 0.21  HD
ENDBRANCH 11 12
ENDBRANCH 6 11
ENDBRANCH 4 6
ENDBRANCH 1 2
BRANCH 1 14
ATOM     14  C   TYR Z  -4       4.036  13.954   8.744  1.00 48.17 LIG 0.24  C 
ATOM     15  N   GLY Z  -3       4.358  13.676   7.486  1.00 50.01 LIG-0.35  N 
ATOM     16 H    GLY Z  -3       4.787  14.214   6.970  1.00 50.01 LIG 0.16  HD
ATOM     17 O    TYR Z  -4       3.457  13.157   9.481  1.00 57.82 LIG-0.27  OA
BRANCH 15 18
ATOM     18  CA  GLY Z  -3       4.002  12.411   6.871  1.00 64.94 LIG 0.21  C 
BRANCH 18 19
ATOM     19  C   GLY Z  -3       2.709  12.499   6.086  1.00 70.96 LIG 0.21  C 
ATOM     20 O    GLY Z  -3       2.326  11.551   5.400  1.00 75.87 LIG-0.29  OA
ENDBRANCH 18 19
ENDBRANCH 15 18
ENDBRANCH 1 14
BRANCH 1 21
ATOM     21  CB  TYR Z  -4       3.162  16.121   9.691  1.00 44.24 LIG 0.07  C 
BRANCH 21 22
ATOM     22  CG  TYR Z  -4       3.508  17.217  10.674  1.00 50.17 LIG-0.06  A 
ATOM     23  CD2 TYR Z  -4       2.816  17.348  11.872  1.00 45.93 LIG 0.01  A 
ATOM     24  CE2 TYR Z  -4       3.146  18.333  12.785  1.00 43.59 LIG 0.04  A 
ATOM     25  CZ  TYR Z  -4       4.184  19.199  12.509  1.00 44.55 LIG 0.07  A 
ATOM     26  CE1 TYR Z  -4       4.894  19.084  11.331  1.00 43.60 LIG 0.04  A 
ATOM     27  CD1 TYR Z  -4       4.556  18.095  10.423  1.00 43.85 LIG 0.01  A 
BRANCH 25 28
ATOM     28 OH   TYR Z  -4       4.515  20.181  13.414  1.00 43.23 LIG-0.36  OA
ATOM     29 HH   TYR Z  -4       5.326  20.110  13.621  1.00 43.23 LIG 0.22  HD
ENDBRANCH 25 28
ENDBRANCH 21 22
ENDBRANCH 1 21
TORSDOF 11
ENDMDL
MODEL 67
USER: ADFR SOLUTION from run 153
USER: SCORE 8.725262 LL:  -1.740 LR:  -7.056 RR:   0.000 FEB:  -3.775
USER: RMSD 5.517879
USER: SEED 152
USER: STATUS no improvement in best in 35 clusters for 5 generations
USER: GENES 13
USER: genes 0 Translation |==|  0.47200 0.39431 0.41803
USER: genes 1 Rotation |==|  0.03038 0.56782 0.36250 0.57712
USER: genes 2 Torsion [C]-CA--N-[C] |==|  0.76413
USER: genes 3 Torsion [N]-C--CA-[N] |==|  0.33504
USER: genes 4 Torsion [C]-CA--N-[H1] |==|  0.36929
USER: genes 5 Torsion [C]-CA--CB-[OG] |==|  0.44757
USER: genes 6 Torsion [CA]-CB--OG-[HG] |==|  0.09555
USER: genes 7 Torsion [N]-CA--C-[N] |==|  0.46110
USER: genes 8 Torsion [C]-N--CA-[C] |==|  0.69691
USER: genes 9 Torsion [N]-CA--C-[O] |==|  0.93166
USER: genes 10 Torsion [N]-CA--CB-[CG] |==|  0.25320
USER: genes 11 Torsion [CA]-CB--CG-[CD2] |==|  0.81807
USER: genes 12 Torsion [CE2]-CZ--OH-[HH] |==|  0.04293
ROOT
ATOM      1  CA  TYR Z  -4       2.614  12.286   7.920  1.00 44.41 LIG 0.18  C 
ENDROOT
BRANCH 1 2
ATOM      2  N   TYR Z  -4       2.582  11.484   6.703  1.00 49.32 LIG-0.35  N 
ATOM      3 H    TYR Z  -4       3.336  11.431   6.293  1.00 49.32 LIG 0.16  HD
ATOM      4  C   SER Z  -5       1.467  10.894   6.286  1.00 53.16 LIG 0.25  C 
ATOM      5 O    SER Z  -5       0.376  11.055   6.837  1.00 46.54 LIG-0.27  OA
BRANCH 4 6
ATOM      6  CA  SER Z  -5       1.599   9.987   5.067  1.00 61.82 LIG 0.30  C 
BRANCH 6 7
ATOM      7  N   SER Z  -5       1.182   8.630   5.400  1.00 64.85 LIG-0.06  N 
ATOM      8 H1   SER Z  -5       0.634   8.324   4.769  1.00 64.85 LIG 0.28  HD
ATOM      9 H3   SER Z  -5       0.759   8.633   6.183  1.00 64.85 LIG 0.28  HD
ATOM     10 H2   SER Z  -5       1.898   8.104   5.452  1.00 64.85 LIG 0.28  HD
ENDBRANCH 6 7
BRANCH 6 11
ATOM     11  CB  SER Z  -5       0.774  10.535   3.898  1.00 66.88 LIG 0.21  C 
BRANCH 11 12
ATOM     12 OG   SER Z  -5       1.201   9.986   2.661  1.00 63.67 LIG-0.40  OA
ATOM     13 HG   SER Z  -5       1.449   9.191   2.777  1.00 63.67 LIG 0.21  HD
ENDBRANCH 11 12
ENDBRANCH 6 11
ENDBRANCH 4 6
ENDBRANCH 1 2
BRANCH 1 14
ATOM     14  C   TYR Z  -4       2.176  13.716   7.648  1.00 48.17 LIG 0.24  C 
ATOM     15  N   GLY Z  -3       1.890  14.452   8.716  1.00 50.01 LIG-0.35  N 
ATOM     16 H    GLY Z  -3       1.978  14.177   9.526  1.00 50.01 LIG 0.16  HD
ATOM     17 O    TYR Z  -4       2.081  14.140   6.497  1.00 57.82 LIG-0.27  OA
BRANCH 15 18
ATOM     18  CA  GLY Z  -3       1.395  15.810   8.594  1.00 64.94 LIG 0.21  C 
BRANCH 18 19
ATOM     19  C   GLY Z  -3       2.424  16.836   9.023  1.00 70.96 LIG 0.21  C 
ATOM     20 O    GLY Z  -3       3.320  16.535   9.812  1.00 75.87 LIG-0.29  OA
ENDBRANCH 18 19
ENDBRANCH 15 18
ENDBRANCH 1 14
BRANCH 1 21
ATOM     21  CB  TYR Z  -4       4.016  12.244   8.542  1.00 44.24 LIG 0.07  C 
BRANCH 21 22
ATOM     22  CG  TYR Z  -4       4.890  13.373   8.040  1.00 50.17 LIG-0.06  A 
ATOM     23  CD2 TYR Z  -4       5.274  13.441   6.706  1.00 45.93 LIG 0.01  A 
ATOM     24  CE2 TYR Z  -4       6.052  14.484   6.238  1.00 43.59 LIG 0.04  A 
ATOM     25  CZ  TYR Z  -4       6.451  15.480   7.105  1.00 44.55 LIG 0.07  A 
ATOM     26  CE1 TYR Z  -4       6.076  15.441   8.432  1.00 43.60 LIG 0.04  A 
ATOM     27  CD1 TYR Z  -4       5.297  14.393   8.892  1.00 43.85 LIG 0.01  A 
BRANCH 25 28
ATOM     28 OH   TYR Z  -4       7.226  16.518   6.643  1.00 43.23 LIG-0.36  OA
ATOM     29 HH   TYR Z  -4       7.202  16.535   5.803  1.00 43.23 LIG 0.22  HD
ENDBRANCH 25 28
ENDBRANCH 21 22
ENDBRANCH 1 21
TORSDOF 11
ENDMDL
MODEL 68
USER: ADFR SOLUTION from run 70
USER: SCORE 8.303283 LL:  -1.437 LR:  -7.060 RR:   0.000 FEB:  -3.778
USER: RMSD 8.277608
USER: SEED 69
USER: STATUS no improvement in best in 43 clusters for 5 generations
USER: GENES 13
USER: genes 0 Translation |==|  0.72553 0.70369 0.43792
USER: genes 1 Rotation |==|  0.15498 0.48380 0.86015 0.53147
USER: genes 2 Torsion [C]-CA--N-[C] |==|  0.55000
USER: genes 3 Torsion [N]-C--CA-[N] |==|  0.50718
USER: genes 4 Torsion [C]-CA--N-[H1] |==|  0.25049
USER: genes 5 Torsion [C]-CA--CB-[OG] |==|  0.20910
USER: genes 6 Torsion [CA]-CB--OG-[HG] |==|  0.72702
USER: genes 7 Torsion [N]-CA--C-[N] |==|  0.43200
USER: genes 8 Torsion [C]-N--CA-[C] |==|  0.67472
USER: genes 9 Torsion [N]-CA--C-[O] |==|  0.61854
USER: genes 10 Torsion [N]-CA--CB-[CG] |==|  0.60929
USER: genes 11 Torsion [CA]-CB--CG-[CD2] |==|  0.49970
USER: genes 12 Torsion [CE2]-CZ--OH-[HH] |==|  0.81448
ROOT
ATOM      1  CA  TYR Z  -4       6.797  17.623   8.219  1.00 44.41 LIG 0.18  C 
ENDROOT
BRANCH 1 2
ATOM      2  N   TYR Z  -4       5.972  16.438   8.424  1.00 49.32 LIG-0.35  N 
ATOM      3 H    TYR Z  -4       5.328  16.546   8.983  1.00 49.32 LIG 0.16  HD
ATOM      4  C   SER Z  -5       6.219  15.298   7.787  1.00 53.16 LIG 0.25  C 
ATOM      5 O    SER Z  -5       7.200  15.134   7.060  1.00 46.54 LIG-0.27  OA
BRANCH 4 6
ATOM      6  CA  SER Z  -5       5.210  14.175   8.000  1.00 61.82 LIG 0.30  C 
BRANCH 6 7
ATOM      7  N   SER Z  -5       5.637  12.972   7.295  1.00 64.85 LIG-0.06  N 
ATOM      8 H1   SER Z  -5       6.144  12.476   7.832  1.00 64.85 LIG 0.28  HD
ATOM      9 H3   SER Z  -5       6.106  13.202   6.574  1.00 64.85 LIG 0.28  HD
ATOM     10 H2   SER Z  -5       4.922  12.504   7.046  1.00 64.85 LIG 0.28  HD
ENDBRANCH 6 7
BRANCH 6 11
ATOM     11  CB  SER Z  -5       5.031  13.890   9.495  1.00 66.88 LIG 0.21  C 
BRANCH 11 12
ATOM     12 OG   SER Z  -5       4.248  14.892  10.124  1.00 63.67 LIG-0.40  OA
ATOM     13 HG   SER Z  -5       4.754  15.446  10.504  1.00 63.67 LIG 0.21  HD
ENDBRANCH 11 12
ENDBRANCH 6 11
ENDBRANCH 4 6
ENDBRANCH 1 2
BRANCH 1 14
ATOM     14  C   TYR Z  -4       6.607  18.627   9.345  1.00 48.17 LIG 0.24  C 
ATOM     15  N   GLY Z  -3       7.615  19.468   9.552  1.00 50.01 LIG-0.35  N 
ATOM     16 H    GLY Z  -3       8.325  19.494   9.069  1.00 50.01 LIG 0.16  HD
ATOM     17 O    TYR Z  -4       5.580  18.631  10.022  1.00 57.82 LIG-0.27  OA
BRANCH 15 18
ATOM     18  CA  GLY Z  -3       7.591  20.430  10.638  1.00 64.94 LIG 0.21  C 
BRANCH 18 19
ATOM     19  C   GLY Z  -3       7.615  21.860  10.137  1.00 70.96 LIG 0.21  C 
ATOM     20 O    GLY Z  -3       8.324  22.705  10.684  1.00 75.87 LIG-0.29  OA
ENDBRANCH 18 19
ENDBRANCH 15 18
ENDBRANCH 1 14
BRANCH 1 21
ATOM     21  CB  TYR Z  -4       6.484  18.253   6.855  1.00 44.24 LIG 0.07  C 
BRANCH 21 22
ATOM     22  CG  TYR Z  -4       7.732  18.757   6.166  1.00 50.17 LIG-0.06  A 
ATOM     23  CD2 TYR Z  -4       7.665  19.360   4.916  1.00 45.93 LIG 0.01  A 
ATOM     24  CE2 TYR Z  -4       8.801  19.845   4.294  1.00 43.59 LIG 0.04  A 
ATOM     25  CZ  TYR Z  -4      10.024  19.735   4.923  1.00 44.55 LIG 0.07  A 
ATOM     26  CE1 TYR Z  -4      10.117  19.148   6.169  1.00 43.60 LIG 0.04  A 
ATOM     27  CD1 TYR Z  -4       8.974  18.666   6.784  1.00 43.85 LIG 0.01  A 
BRANCH 25 28
ATOM     28 OH   TYR Z  -4      11.156  20.214   4.307  1.00 43.23 LIG-0.36  OA
ATOM     29 HH   TYR Z  -4      11.319  19.755   3.622  1.00 43.23 LIG 0.22  HD
ENDBRANCH 25 28
ENDBRANCH 21 22
ENDBRANCH 1 21
TORSDOF 11
ENDMDL
MODEL 69
USER: ADFR SOLUTION from run 160
USER: SCORE 8.194929 LL:  -1.151 LR:  -7.050 RR:   0.000 FEB:  -3.768
USER: RMSD 6.598070
USER: SEED 159
USER: STATUS no improvement in best in 27 clusters for 5 generations
USER: GENES 13
USER: genes 0 Translation |==|  0.57917 0.49702 0.27887
USER: genes 1 Rotation |==|  0.12746 0.41649 0.37953 0.79954
USER: genes 2 Torsion [C]-CA--N-[C] |==|  0.81048
USER: genes 3 Torsion [N]-C--CA-[N] |==|  0.90813
USER: genes 4 Torsion [C]-CA--N-[H1] |==|  0.00883
USER: genes 5 Torsion [C]-CA--CB-[OG] |==|  0.78764
USER: genes 6 Torsion [CA]-CB--OG-[HG] |==|  0.78866
USER: genes 7 Torsion [N]-CA--C-[N] |==|  0.95956
USER: genes 8 Torsion [C]-N--CA-[C] |==|  0.33444
USER: genes 9 Torsion [N]-CA--C-[O] |==|  0.67834
USER: genes 10 Torsion [N]-CA--CB-[CG] |==|  0.43459
USER: genes 11 Torsion [CA]-CB--CG-[CD2] |==|  0.25923
USER: genes 12 Torsion [CE2]-CZ--OH-[HH] |==|  0.30242
ROOT
ATOM      1  CA  TYR Z  -4       4.382  14.058   5.833  1.00 44.41 LIG 0.18  C 
ENDROOT
BRANCH 1 2
ATOM      2  N   TYR Z  -4       4.869  14.567   4.557  1.00 49.32 LIG-0.35  N 
ATOM      3 H    TYR Z  -4       5.546  15.094   4.619  1.00 49.32 LIG 0.16  HD
ATOM      4  C   SER Z  -5       4.294  14.229   3.407  1.00 53.16 LIG 0.25  C 
ATOM      5 O    SER Z  -5       3.270  13.547   3.343  1.00 46.54 LIG-0.27  OA
BRANCH 4 6
ATOM      6  CA  SER Z  -5       4.975  14.734   2.139  1.00 61.82 LIG 0.30  C 
BRANCH 6 7
ATOM      7  N   SER Z  -5       5.591  16.034   2.381  1.00 64.85 LIG-0.06  N 
ATOM      8 H1   SER Z  -5       5.488  16.258   3.236  1.00 64.85 LIG 0.28  HD
ATOM      9 H3   SER Z  -5       5.203  16.647   1.866  1.00 64.85 LIG 0.28  HD
ATOM     10 H2   SER Z  -5       6.459  15.992   2.189  1.00 64.85 LIG 0.28  HD
ENDBRANCH 6 7
BRANCH 6 11
ATOM     11  CB  SER Z  -5       6.019  13.724   1.651  1.00 66.88 LIG 0.21  C 
BRANCH 11 12
ATOM     12 OG   SER Z  -5       7.199  13.779   2.437  1.00 63.67 LIG-0.40  OA
ATOM     13 HG   SER Z  -5       7.647  14.457   2.224  1.00 63.67 LIG 0.21  HD
ENDBRANCH 11 12
ENDBRANCH 6 11
ENDBRANCH 4 6
ENDBRANCH 1 2
BRANCH 1 14
ATOM     14  C   TYR Z  -4       3.012  14.627   6.166  1.00 48.17 LIG 0.24  C 
ATOM     15  N   GLY Z  -3       2.627  15.676   5.449  1.00 50.01 LIG-0.35  N 
ATOM     16 H    GLY Z  -3       3.084  16.009   4.802  1.00 50.01 LIG 0.16  HD
ATOM     17 O    TYR Z  -4       2.326  14.139   7.064  1.00 57.82 LIG-0.27  OA
BRANCH 15 18
ATOM     18  CA  GLY Z  -3       1.372  16.357   5.711  1.00 64.94 LIG 0.21  C 
BRANCH 18 19
ATOM     19  C   GLY Z  -3       1.575  17.817   6.062  1.00 70.96 LIG 0.21  C 
ATOM     20 O    GLY Z  -3       1.270  18.243   7.177  1.00 75.87 LIG-0.29  OA
ENDBRANCH 18 19
ENDBRANCH 15 18
ENDBRANCH 1 14
BRANCH 1 21
ATOM     21  CB  TYR Z  -4       5.396  14.365   6.944  1.00 44.24 LIG 0.07  C 
BRANCH 21 22
ATOM     22  CG  TYR Z  -4       4.745  14.395   8.309  1.00 50.17 LIG-0.06  A 
ATOM     23  CD2 TYR Z  -4       4.712  13.260   9.110  1.00 45.93 LIG 0.01  A 
ATOM     24  CE2 TYR Z  -4       4.141  13.290  10.369  1.00 43.59 LIG 0.04  A 
ATOM     25  CZ  TYR Z  -4       3.598  14.465  10.845  1.00 44.55 LIG 0.07  A 
ATOM     26  CE1 TYR Z  -4       3.625  15.609  10.073  1.00 43.60 LIG 0.04  A 
ATOM     27  CD1 TYR Z  -4       4.200  15.570   8.814  1.00 43.85 LIG 0.01  A 
BRANCH 25 28
ATOM     28 OH   TYR Z  -4       3.027  14.498  12.095  1.00 43.23 LIG-0.36  OA
ATOM     29 HH   TYR Z  -4       3.517  14.939  12.617  1.00 43.23 LIG 0.22  HD
ENDBRANCH 25 28
ENDBRANCH 21 22
ENDBRANCH 1 21
TORSDOF 11
ENDMDL
MODEL 70
USER: ADFR SOLUTION from run 76
USER: SCORE 8.317827 LL:  -1.359 LR:  -7.052 RR:   0.000 FEB:  -3.771
USER: RMSD 6.240459
USER: SEED 75
USER: STATUS no improvement in best in 25 clusters for 5 generations
USER: GENES 13
USER: genes 0 Translation |==|  0.45209 0.42531 0.33293
USER: genes 1 Rotation |==|  0.84587 0.24028 0.69709 0.65517
USER: genes 2 Torsion [C]-CA--N-[C] |==|  0.17771
USER: genes 3 Torsion [N]-C--CA-[N] |==|  0.38895
USER: genes 4 Torsion [C]-CA--N-[H1] |==|  0.39097
USER: genes 5 Torsion [C]-CA--CB-[OG] |==|  0.83828
USER: genes 6 Torsion [CA]-CB--OG-[HG] |==|  0.85277
USER: genes 7 Torsion [N]-CA--C-[N] |==|  0.09899
USER: genes 8 Torsion [C]-N--CA-[C] |==|  0.41746
USER: genes 9 Torsion [N]-CA--C-[O] |==|  0.15714
USER: genes 10 Torsion [N]-CA--CB-[CG] |==|  0.64495
USER: genes 11 Torsion [CA]-CB--CG-[CD2] |==|  0.65789
USER: genes 12 Torsion [CE2]-CZ--OH-[HH] |==|  0.07852
ROOT
ATOM      1  CA  TYR Z  -4       2.285  12.821   6.644  1.00 44.41 LIG 0.18  C 
ENDROOT
BRANCH 1 2
ATOM      2  N   TYR Z  -4       1.271  12.002   5.990  1.00 49.32 LIG-0.35  N 
ATOM      3 H    TYR Z  -4       0.474  12.321   6.035  1.00 49.32 LIG 0.16  HD
ATOM      4  C   SER Z  -5       1.582  10.861   5.383  1.00 53.16 LIG 0.25  C 
ATOM      5 O    SER Z  -5       2.713  10.374   5.408  1.00 46.54 LIG-0.27  OA
BRANCH 4 6
ATOM      6  CA  SER Z  -5       0.448  10.165   4.637  1.00 61.82 LIG 0.30  C 
BRANCH 6 7
ATOM      7  N   SER Z  -5       0.938   9.612   3.379  1.00 64.85 LIG-0.06  N 
ATOM      8 H1   SER Z  -5       0.561   8.819   3.236  1.00 64.85 LIG 0.28  HD
ATOM      9 H3   SER Z  -5       1.821   9.517   3.421  1.00 64.85 LIG 0.28  HD
ATOM     10 H2   SER Z  -5       0.730  10.163   2.712  1.00 64.85 LIG 0.28  HD
ENDBRANCH 6 7
BRANCH 6 11
ATOM     11  CB  SER Z  -5      -0.173   9.066   5.505  1.00 66.88 LIG 0.21  C 
BRANCH 11 12
ATOM     12 OG   SER Z  -5       0.795   8.104   5.893  1.00 63.67 LIG-0.40  OA
ATOM     13 HG   SER Z  -5       1.194   7.816   5.211  1.00 63.67 LIG 0.21  HD
ENDBRANCH 11 12
ENDBRANCH 6 11
ENDBRANCH 4 6
ENDBRANCH 1 2
BRANCH 1 14
ATOM     14  C   TYR Z  -4       3.297  13.349   5.639  1.00 48.17 LIG 0.24  C 
ATOM     15  N   GLY Z  -3       2.819  13.664   4.441  1.00 50.01 LIG-0.35  N 
ATOM     16 H    GLY Z  -3       1.987  13.622   4.230  1.00 50.01 LIG 0.16  HD
ATOM     17 O    TYR Z  -4       4.487  13.454   5.936  1.00 57.82 LIG-0.27  OA
BRANCH 15 18
ATOM     18  CA  GLY Z  -3       3.688  14.115   3.370  1.00 64.94 LIG 0.21  C 
BRANCH 18 19
ATOM     19  C   GLY Z  -3       3.153  13.741   2.002  1.00 70.96 LIG 0.21  C 
ATOM     20 O    GLY Z  -3       2.027  14.096   1.650  1.00 75.87 LIG-0.29  OA
ENDBRANCH 18 19
ENDBRANCH 15 18
ENDBRANCH 1 14
BRANCH 1 21
ATOM     21  CB  TYR Z  -4       2.975  12.017   7.755  1.00 44.24 LIG 0.07  C 
BRANCH 21 22
ATOM     22  CG  TYR Z  -4       2.968  12.757   9.074  1.00 50.17 LIG-0.06  A 
ATOM     23  CD2 TYR Z  -4       4.153  13.036   9.744  1.00 45.93 LIG 0.01  A 
ATOM     24  CE2 TYR Z  -4       4.153  13.734  10.938  1.00 43.59 LIG 0.04  A 
ATOM     25  CZ  TYR Z  -4       2.958  14.169  11.474  1.00 44.55 LIG 0.07  A 
ATOM     26  CE1 TYR Z  -4       1.768  13.913  10.824  1.00 43.60 LIG 0.04  A 
ATOM     27  CD1 TYR Z  -4       1.778  13.214   9.629  1.00 43.85 LIG 0.01  A 
BRANCH 25 28
ATOM     28 OH   TYR Z  -4       2.954  14.862  12.662  1.00 43.23 LIG-0.36  OA
ATOM     29 HH   TYR Z  -4       3.681  15.274  12.749  1.00 43.23 LIG 0.22  HD
ENDBRANCH 25 28
ENDBRANCH 21 22
ENDBRANCH 1 21
TORSDOF 11
ENDMDL
MODEL 71
USER: ADFR SOLUTION from run 65
USER: SCORE 8.752328 LL:  -1.778 LR:  -7.036 RR:   0.000 FEB:  -3.755
USER: RMSD 5.896441
USER: SEED 64
USER: STATUS no improvement in best in 25 clusters for 5 generations
USER: GENES 13
USER: genes 0 Translation |==|  0.56921 0.66889 0.47339
USER: genes 1 Rotation |==|  0.56639 0.95682 0.45648 0.68713
USER: genes 2 Torsion [C]-CA--N-[C] |==|  0.76809
USER: genes 3 Torsion [N]-C--CA-[N] |==|  0.55791
USER: genes 4 Torsion [C]-CA--N-[H1] |==|  0.90057
USER: genes 5 Torsion [C]-CA--CB-[OG] |==|  0.74693
USER: genes 6 Torsion [CA]-CB--OG-[HG] |==|  0.82927
USER: genes 7 Torsion [N]-CA--C-[N] |==|  0.45484
USER: genes 8 Torsion [C]-N--CA-[C] |==|  0.79409
USER: genes 9 Torsion [N]-CA--C-[O] |==|  0.19232
USER: genes 10 Torsion [N]-CA--CB-[CG] |==|  0.31048
USER: genes 11 Torsion [CA]-CB--CG-[CD2] |==|  0.79460
USER: genes 12 Torsion [CE2]-CZ--OH-[HH] |==|  0.17480
ROOT
ATOM      1  CA  TYR Z  -4       4.218  17.022   8.751  1.00 44.41 LIG 0.18  C 
ENDROOT
BRANCH 1 2
ATOM      2  N   TYR Z  -4       5.327  17.884   8.361  1.00 49.32 LIG-0.35  N 
ATOM      3 H    TYR Z  -4       5.527  17.851   7.525  1.00 49.32 LIG 0.16  HD
ATOM      4  C   SER Z  -5       5.961  18.647   9.246  1.00 53.16 LIG 0.25  C 
ATOM      5 O    SER Z  -5       5.722  18.614  10.454  1.00 46.54 LIG-0.27  OA
BRANCH 4 6
ATOM      6  CA  SER Z  -5       7.021  19.590   8.685  1.00 61.82 LIG 0.30  C 
BRANCH 6 7
ATOM      7  N   SER Z  -5       7.951  19.985   9.737  1.00 64.85 LIG-0.06  N 
ATOM      8 H1   SER Z  -5       7.512  20.070  10.506  1.00 64.85 LIG 0.28  HD
ATOM      9 H3   SER Z  -5       8.328  20.762   9.524  1.00 64.85 LIG 0.28  HD
ATOM     10 H2   SER Z  -5       8.582  19.363   9.825  1.00 64.85 LIG 0.28  HD
ENDBRANCH 6 7
BRANCH 6 11
ATOM     11  CB  SER Z  -5       7.769  18.927   7.524  1.00 66.88 LIG 0.21  C 
BRANCH 11 12
ATOM     12 OG   SER Z  -5       8.921  18.234   7.978  1.00 63.67 LIG-0.40  OA
ATOM     13 HG   SER Z  -5       9.451  18.776   8.339  1.00 63.67 LIG 0.21  HD
ENDBRANCH 11 12
ENDBRANCH 6 11
ENDBRANCH 4 6
ENDBRANCH 1 2
BRANCH 1 14
ATOM     14  C   TYR Z  -4       4.719  15.699   9.307  1.00 48.17 LIG 0.24  C 
ATOM     15  N   GLY Z  -3       3.835  14.983   9.993  1.00 50.01 LIG-0.35  N 
ATOM     16 H    GLY Z  -3       3.013  15.208  10.098  1.00 50.01 LIG 0.16  HD
ATOM     17 O    TYR Z  -4       5.883  15.340   9.134  1.00 57.82 LIG-0.27  OA
BRANCH 15 18
ATOM     18  CA  GLY Z  -3       4.202  13.734  10.635  1.00 64.94 LIG 0.21  C 
BRANCH 18 19
ATOM     19  C   GLY Z  -3       4.379  12.607   9.638  1.00 70.96 LIG 0.21  C 
ATOM     20 O    GLY Z  -3       5.326  12.609   8.850  1.00 75.87 LIG-0.29  OA
ENDBRANCH 18 19
ENDBRANCH 15 18
ENDBRANCH 1 14
BRANCH 1 21
ATOM     21  CB  TYR Z  -4       3.278  16.802   7.558  1.00 44.24 LIG 0.07  C 
BRANCH 21 22
ATOM     22  CG  TYR Z  -4       3.317  15.373   7.064  1.00 50.17 LIG-0.06  A 
ATOM     23  CD2 TYR Z  -4       4.406  14.895   6.344  1.00 45.93 LIG 0.01  A 
ATOM     24  CE2 TYR Z  -4       4.457  13.582   5.912  1.00 43.59 LIG 0.04  A 
ATOM     25  CZ  TYR Z  -4       3.415  12.727   6.204  1.00 44.55 LIG 0.07  A 
ATOM     26  CE1 TYR Z  -4       2.326  13.174   6.926  1.00 43.60 LIG 0.04  A 
ATOM     27  CD1 TYR Z  -4       2.284  14.490   7.354  1.00 43.85 LIG 0.01  A 
BRANCH 25 28
ATOM     28 OH   TYR Z  -4       3.461  11.421   5.775  1.00 43.23 LIG-0.36  OA
ATOM     29 HH   TYR Z  -4       4.112  11.030   6.135  1.00 43.23 LIG 0.22  HD
ENDBRANCH 25 28
ENDBRANCH 21 22
ENDBRANCH 1 21
TORSDOF 11
ENDMDL
MODEL 72
USER: ADFR SOLUTION from run 5
USER: SCORE 8.252569 LL:  -1.347 LR:  -7.044 RR:   0.000 FEB:  -3.763
USER: RMSD 3.255220
USER: SEED 890729
USER: STATUS no improvement in best in 28 clusters for 5 generations
USER: GENES 13
USER: genes 0 Translation |==|  0.55558 0.51372 0.43165
USER: genes 1 Rotation |==|  0.64309 0.48292 0.58030 0.97200
USER: genes 2 Torsion [C]-CA--N-[C] |==|  0.18333
USER: genes 3 Torsion [N]-C--CA-[N] |==|  0.61677
USER: genes 4 Torsion [C]-CA--N-[H1] |==|  0.32340
USER: genes 5 Torsion [C]-CA--CB-[OG] |==|  0.80665
USER: genes 6 Torsion [CA]-CB--OG-[HG] |==|  0.02550
USER: genes 7 Torsion [N]-CA--C-[N] |==|  0.09170
USER: genes 8 Torsion [C]-N--CA-[C] |==|  0.82612
USER: genes 9 Torsion [N]-CA--C-[O] |==|  0.21830
USER: genes 10 Torsion [N]-CA--CB-[CG] |==|  0.77005
USER: genes 11 Torsion [CA]-CB--CG-[CD2] |==|  0.65185
USER: genes 12 Torsion [CE2]-CZ--OH-[HH] |==|  0.80913
ROOT
ATOM      1  CA  TYR Z  -4       3.993  14.346   8.125  1.00 44.41 LIG 0.18  C 
ENDROOT
BRANCH 1 2
ATOM      2  N   TYR Z  -4       3.320  14.747   9.354  1.00 49.32 LIG-0.35  N 
ATOM      3 H    TYR Z  -4       2.845  15.461   9.282  1.00 49.32 LIG 0.16  HD
ATOM      4  C   SER Z  -5       3.447  14.050  10.478  1.00 53.16 LIG 0.25  C 
ATOM      5 O    SER Z  -5       4.203  13.083  10.586  1.00 46.54 LIG-0.27  OA
BRANCH 4 6
ATOM      6  CA  SER Z  -5       2.595  14.509  11.656  1.00 61.82 LIG 0.30  C 
BRANCH 6 7
ATOM      7  N   SER Z  -5       3.375  14.474  12.887  1.00 64.85 LIG-0.06  N 
ATOM      8 H1   SER Z  -5       3.457  15.299  13.212  1.00 64.85 LIG 0.28  HD
ATOM      9 H3   SER Z  -5       4.183  14.141  12.718  1.00 64.85 LIG 0.28  HD
ATOM     10 H2   SER Z  -5       2.963  13.961  13.486  1.00 64.85 LIG 0.28  HD
ENDBRANCH 6 7
BRANCH 6 11
ATOM     11  CB  SER Z  -5       2.045  15.917  11.405  1.00 66.88 LIG 0.21  C 
BRANCH 11 12
ATOM     12 OG   SER Z  -5       3.076  16.891  11.448  1.00 63.67 LIG-0.40  OA
ATOM     13 HG   SER Z  -5       3.823  16.508  11.480  1.00 63.67 LIG 0.21  HD
ENDBRANCH 11 12
ENDBRANCH 6 11
ENDBRANCH 4 6
ENDBRANCH 1 2
BRANCH 1 14
ATOM     14  C   TYR Z  -4       3.449  13.024   7.606  1.00 48.17 LIG 0.24  C 
ATOM     15  N   GLY Z  -3       2.160  12.796   7.830  1.00 50.01 LIG-0.35  N 
ATOM     16 H    GLY Z  -3       1.631  13.359   8.206  1.00 50.01 LIG 0.16  HD
ATOM     17 O    TYR Z  -4       4.182  12.221   7.030  1.00 57.82 LIG-0.27  OA
BRANCH 15 18
ATOM     18  CA  GLY Z  -3       1.531  11.545   7.448  1.00 64.94 LIG 0.21  C 
BRANCH 18 19
ATOM     19  C   GLY Z  -3       1.567  11.320   5.950  1.00 70.96 LIG 0.21  C 
ATOM     20 O    GLY Z  -3       2.594  10.921   5.400  1.00 75.87 LIG-0.29  OA
ENDBRANCH 18 19
ENDBRANCH 15 18
ENDBRANCH 1 14
BRANCH 1 21
ATOM     21  CB  TYR Z  -4       5.508  14.269   8.355  1.00 44.24 LIG 0.07  C 
BRANCH 21 22
ATOM     22  CG  TYR Z  -4       6.166  15.626   8.239  1.00 50.17 LIG-0.06  A 
ATOM     23  CD2 TYR Z  -4       7.227  15.834   7.366  1.00 45.93 LIG 0.01  A 
ATOM     24  CE2 TYR Z  -4       7.815  17.080   7.239  1.00 43.59 LIG 0.04  A 
ATOM     25  CZ  TYR Z  -4       7.339  18.138   7.984  1.00 44.55 LIG 0.07  A 
ATOM     26  CE1 TYR Z  -4       6.280  17.961   8.852  1.00 43.60 LIG 0.04  A 
ATOM     27  CD1 TYR Z  -4       5.698  16.711   8.972  1.00 43.85 LIG 0.01  A 
BRANCH 25 28
ATOM     28 OH   TYR Z  -4       7.922  19.378   7.861  1.00 43.23 LIG-0.36  OA
ATOM     29 HH   TYR Z  -4       8.698  19.357   8.184  1.00 43.23 LIG 0.22  HD
ENDBRANCH 25 28
ENDBRANCH 21 22
ENDBRANCH 1 21
TORSDOF 11
ENDMDL
MODEL 73
USER: ADFR SOLUTION from run 152
USER: SCORE 7.864571 LL:  -1.708 LR:  -7.013 RR:   0.000 FEB:  -3.732
USER: RMSD 7.369130
USER: SEED 151
USER: STATUS no improvement in best in 22 clusters for 5 generations
USER: GENES 13
USER: genes 0 Translation |==|  0.54272 0.81595 0.63548
USER: genes 1 Rotation |==|  0.61427 0.82965 0.30797 0.80232
USER: genes 2 Torsion [C]-CA--N-[C] |==|  0.55676
USER: genes 3 Torsion [N]-C--CA-[N] |==|  0.31082
USER: genes 4 Torsion [C]-CA--N-[H1] |==|  0.34422
USER: genes 5 Torsion [C]-CA--CB-[OG] |==|  0.62199
USER: genes 6 Torsion [CA]-CB--OG-[HG] |==|  0.85867
USER: genes 7 Torsion [N]-CA--C-[N] |==|  0.98412
USER: genes 8 Torsion [C]-N--CA-[C] |==|  0.12826
USER: genes 9 Torsion [N]-CA--C-[O] |==|  0.19740
USER: genes 10 Torsion [N]-CA--CB-[CG] |==|  0.20097
USER: genes 11 Torsion [CA]-CB--CG-[CD2] |==|  0.25715
USER: genes 12 Torsion [CE2]-CZ--OH-[HH] |==|  0.84218
ROOT
ATOM      1  CA  TYR Z  -4       3.781  19.559  11.182  1.00 44.41 LIG 0.18  C 
ENDROOT
BRANCH 1 2
ATOM      2  N   TYR Z  -4       5.229  19.709  11.253  1.00 49.32 LIG-0.35  N 
ATOM      3 H    TYR Z  -4       5.619  19.152  11.780  1.00 49.32 LIG 0.16  HD
ATOM      4  C   SER Z  -5       5.869  20.638  10.549  1.00 53.16 LIG 0.25  C 
ATOM      5 O    SER Z  -5       5.286  21.485   9.870  1.00 46.54 LIG-0.27  OA
BRANCH 4 6
ATOM      6  CA  SER Z  -5       7.392  20.608  10.621  1.00 61.82 LIG 0.30  C 
BRANCH 6 7
ATOM      7  N   SER Z  -5       7.950  20.221   9.331  1.00 64.85 LIG-0.06  N 
ATOM      8 H1   SER Z  -5       8.518  20.847   9.053  1.00 64.85 LIG 0.28  HD
ATOM      9 H3   SER Z  -5       7.293  20.132   8.738  1.00 64.85 LIG 0.28  HD
ATOM     10 H2   SER Z  -5       8.381  19.447   9.414  1.00 64.85 LIG 0.28  HD
ENDBRANCH 6 7
BRANCH 6 11
ATOM     11  CB  SER Z  -5       7.936  21.972  11.058  1.00 66.88 LIG 0.21  C 
BRANCH 11 12
ATOM     12 OG   SER Z  -5       9.055  22.358  10.275  1.00 63.67 LIG-0.40  OA
ATOM     13 HG   SER Z  -5       9.615  21.733  10.258  1.00 63.67 LIG 0.21  HD
ENDBRANCH 11 12
ENDBRANCH 6 11
ENDBRANCH 4 6
ENDBRANCH 1 2
BRANCH 1 14
ATOM     14  C   TYR Z  -4       3.245  18.815  12.395  1.00 48.17 LIG 0.24  C 
ATOM     15  N   GLY Z  -3       4.156  18.332  13.233  1.00 50.01 LIG-0.35  N 
ATOM     16 H    GLY Z  -3       5.002  18.453  13.143  1.00 50.01 LIG 0.16  HD
ATOM     17 O    TYR Z  -4       2.035  18.666  12.562  1.00 57.82 LIG-0.27  OA
BRANCH 15 18
ATOM     18  CA  GLY Z  -3       3.782  17.545  14.392  1.00 64.94 LIG 0.21  C 
BRANCH 18 19
ATOM     19  C   GLY Z  -3       2.759  16.479  14.055  1.00 70.96 LIG 0.21  C 
ATOM     20 O    GLY Z  -3       3.076  15.494  13.387  1.00 75.87 LIG-0.29  OA
ENDBRANCH 18 19
ENDBRANCH 15 18
ENDBRANCH 1 14
BRANCH 1 21
ATOM     21  CB  TYR Z  -4       3.388  18.851   9.879  1.00 44.24 LIG 0.07  C 
BRANCH 21 22
ATOM     22  CG  TYR Z  -4       3.746  17.381   9.905  1.00 50.17 LIG-0.06  A 
ATOM     23  CD2 TYR Z  -4       2.827  16.428  10.328  1.00 45.93 LIG 0.01  A 
ATOM     24  CE2 TYR Z  -4       3.142  15.082  10.330  1.00 43.59 LIG 0.04  A 
ATOM     25  CZ  TYR Z  -4       4.387  14.672   9.900  1.00 44.55 LIG 0.07  A 
ATOM     26  CE1 TYR Z  -4       5.315  15.597   9.466  1.00 43.60 LIG 0.04  A 
ATOM     27  CD1 TYR Z  -4       4.990  16.942   9.468  1.00 43.85 LIG 0.01  A 
BRANCH 25 28
ATOM     28 OH   TYR Z  -4       4.704  13.333   9.902  1.00 43.23 LIG-0.36  OA
ATOM     29 HH   TYR Z  -4       4.608  13.023  10.677  1.00 43.23 LIG 0.22  HD
ENDBRANCH 25 28
ENDBRANCH 21 22
ENDBRANCH 1 21
TORSDOF 11
ENDMDL
MODEL 74
USER: ADFR SOLUTION from run 153
USER: SCORE 8.067110 LL:  -1.690 LR:  -7.015 RR:   0.000 FEB:  -3.733
USER: RMSD 6.602413
USER: SEED 152
USER: STATUS no improvement in best in 35 clusters for 5 generations
USER: GENES 13
USER: genes 0 Translation |==|  0.68180 0.59499 0.32692
USER: genes 1 Rotation |==|  0.35251 0.39518 0.26950 0.90513
USER: genes 2 Torsion [C]-CA--N-[C] |==|  0.20526
USER: genes 3 Torsion [N]-C--CA-[N] |==|  0.52481
USER: genes 4 Torsion [C]-CA--N-[H1] |==|  0.85187
USER: genes 5 Torsion [C]-CA--CB-[OG] |==|  0.82873
USER: genes 6 Torsion [CA]-CB--OG-[HG] |==|  0.79782
USER: genes 7 Torsion [N]-CA--C-[N] |==|  0.83245
USER: genes 8 Torsion [C]-N--CA-[C] |==|  0.37991
USER: genes 9 Torsion [N]-CA--C-[O] |==|  0.02963
USER: genes 10 Torsion [N]-CA--CB-[CG] |==|  0.42614
USER: genes 11 Torsion [CA]-CB--CG-[CD2] |==|  0.68023
USER: genes 12 Torsion [CE2]-CZ--OH-[HH] |==|  0.24581
ROOT
ATOM      1  CA  TYR Z  -4       6.076  15.748   6.554  1.00 44.41 LIG 0.18  C 
ENDROOT
BRANCH 1 2
ATOM      2  N   TYR Z  -4       6.891  16.955   6.594  1.00 49.32 LIG-0.35  N 
ATOM      3 H    TYR Z  -4       7.303  17.131   5.859  1.00 49.32 LIG 0.16  HD
ATOM      4  C   SER Z  -5       6.974  17.704   7.689  1.00 53.16 LIG 0.25  C 
ATOM      5 O    SER Z  -5       6.451  17.389   8.759  1.00 46.54 LIG-0.27  OA
BRANCH 4 6
ATOM      6  CA  SER Z  -5       7.763  19.003   7.559  1.00 61.82 LIG 0.30  C 
BRANCH 6 7
ATOM      7  N   SER Z  -5       7.951  19.612   8.870  1.00 64.85 LIG-0.06  N 
ATOM      8 H1   SER Z  -5       7.162  19.701   9.273  1.00 64.85 LIG 0.28  HD
ATOM      9 H3   SER Z  -5       8.326  20.413   8.775  1.00 64.85 LIG 0.28  HD
ATOM     10 H2   SER Z  -5       8.479  19.095   9.365  1.00 64.85 LIG 0.28  HD
ENDBRANCH 6 7
BRANCH 6 11
ATOM     11  CB  SER Z  -5       9.115  18.745   6.884  1.00 66.88 LIG 0.21  C 
BRANCH 11 12
ATOM     12 OG   SER Z  -5       9.915  17.859   7.650  1.00 63.67 LIG-0.40  OA
ATOM     13 HG   SER Z  -5      10.201  18.257   8.333  1.00 63.67 LIG 0.21  HD
ENDBRANCH 11 12
ENDBRANCH 6 11
ENDBRANCH 4 6
ENDBRANCH 1 2
BRANCH 1 14
ATOM     14  C   TYR Z  -4       4.595  16.086   6.491  1.00 48.17 LIG 0.24  C 
ATOM     15  N   GLY Z  -3       4.113  16.788   7.510  1.00 50.01 LIG-0.35  N 
ATOM     16 H    GLY Z  -3       4.593  17.083   8.159  1.00 50.01 LIG 0.16  HD
ATOM     17 O    TYR Z  -4       3.899  15.706   5.549  1.00 57.82 LIG-0.27  OA
BRANCH 15 18
ATOM     18  CA  GLY Z  -3       2.703  17.119   7.607  1.00 64.94 LIG 0.21  C 
BRANCH 18 19
ATOM     19  C   GLY Z  -3       2.165  16.926   9.011  1.00 70.96 LIG 0.21  C 
ATOM     20 O    GLY Z  -3       2.931  16.722   9.954  1.00 75.87 LIG-0.29  OA
ENDBRANCH 18 19
ENDBRANCH 15 18
ENDBRANCH 1 14
BRANCH 1 21
ATOM     21  CB  TYR Z  -4       6.390  14.859   7.765  1.00 44.24 LIG 0.07  C 
BRANCH 21 22
ATOM     22  CG  TYR Z  -4       5.217  13.983   8.142  1.00 50.17 LIG-0.06  A 
ATOM     23  CD2 TYR Z  -4       4.568  14.142   9.360  1.00 45.93 LIG 0.01  A 
ATOM     24  CE2 TYR Z  -4       3.479  13.359   9.698  1.00 43.59 LIG 0.04  A 
ATOM     25  CZ  TYR Z  -4       3.021  12.407   8.811  1.00 44.55 LIG 0.07  A 
ATOM     26  CE1 TYR Z  -4       3.642  12.235   7.591  1.00 43.60 LIG 0.04  A 
ATOM     27  CD1 TYR Z  -4       4.731  13.023   7.261  1.00 43.85 LIG 0.01  A 
BRANCH 25 28
ATOM     28 OH   TYR Z  -4       1.939  11.625   9.144  1.00 43.23 LIG-0.36  OA
ATOM     29 HH   TYR Z  -4       1.231  12.010   8.907  1.00 43.23 LIG 0.22  HD
ENDBRANCH 25 28
ENDBRANCH 21 22
ENDBRANCH 1 21
TORSDOF 11
ENDMDL
MODEL 75
USER: ADFR SOLUTION from run 193
USER: SCORE 7.969836 LL:  -1.123 LR:  -7.013 RR:   0.000 FEB:  -3.732
USER: RMSD 6.831713
USER: SEED 192
USER: STATUS no improvement in best in 31 clusters for 5 generations
USER: GENES 13
USER: genes 0 Translation |==|  0.66768 0.63857 0.40264
USER: genes 1 Rotation |==|  0.31182 0.04732 0.44218 0.57953
USER: genes 2 Torsion [C]-CA--N-[C] |==|  0.59062
USER: genes 3 Torsion [N]-C--CA-[N] |==|  0.37598
USER: genes 4 Torsion [C]-CA--N-[H1] |==|  0.50153
USER: genes 5 Torsion [C]-CA--CB-[OG] |==|  0.93348
USER: genes 6 Torsion [CA]-CB--OG-[HG] |==|  0.82520
USER: genes 7 Torsion [N]-CA--C-[N] |==|  0.46659
USER: genes 8 Torsion [C]-N--CA-[C] |==|  0.74399
USER: genes 9 Torsion [N]-CA--C-[O] |==|  0.47757
USER: genes 10 Torsion [N]-CA--CB-[CG] |==|  0.72473
USER: genes 11 Torsion [CA]-CB--CG-[CD2] |==|  0.19596
USER: genes 12 Torsion [CE2]-CZ--OH-[HH] |==|  0.82674
ROOT
ATOM      1  CA  TYR Z  -4       5.843  16.499   7.690  1.00 44.41 LIG 0.18  C 
ENDROOT
BRANCH 1 2
ATOM      2  N   TYR Z  -4       6.755  17.361   6.947  1.00 49.32 LIG-0.35  N 
ATOM      3 H    TYR Z  -4       6.706  17.278   6.093  1.00 49.32 LIG 0.16  HD
ATOM      4  C   SER Z  -5       7.585  18.195   7.566  1.00 53.16 LIG 0.25  C 
ATOM      5 O    SER Z  -5       7.707  18.234   8.792  1.00 46.54 LIG-0.27  OA
BRANCH 4 6
ATOM      6  CA  SER Z  -5       8.398  19.124   6.671  1.00 61.82 LIG 0.30  C 
BRANCH 6 7
ATOM      7  N   SER Z  -5       8.389  20.479   7.210  1.00 64.85 LIG-0.06  N 
ATOM      8 H1   SER Z  -5       8.859  21.014   6.677  1.00 64.85 LIG 0.28  HD
ATOM      9 H3   SER Z  -5       8.752  20.477   8.023  1.00 64.85 LIG 0.28  HD
ATOM     10 H2   SER Z  -5       7.551  20.773   7.261  1.00 64.85 LIG 0.28  HD
ENDBRANCH 6 7
BRANCH 6 11
ATOM     11  CB  SER Z  -5       9.834  18.609   6.525  1.00 66.88 LIG 0.21  C 
BRANCH 11 12
ATOM     12 OG   SER Z  -5      10.201  17.784   7.619  1.00 63.67 LIG-0.40  OA
ATOM     13 HG   SER Z  -5      10.186  18.234   8.328  1.00 63.67 LIG 0.21  HD
ENDBRANCH 11 12
ENDBRANCH 6 11
ENDBRANCH 4 6
ENDBRANCH 1 2
BRANCH 1 14
ATOM     14  C   TYR Z  -4       5.617  15.182   6.964  1.00 48.17 LIG 0.24  C 
ATOM     15  N   GLY Z  -3       5.007  14.230   7.661  1.00 50.01 LIG-0.35  N 
ATOM     16 H    GLY Z  -3       4.709  14.336   8.460  1.00 50.01 LIG 0.16  HD
ATOM     17 O    TYR Z  -4       6.002  15.024   5.806  1.00 57.82 LIG-0.27  OA
BRANCH 15 18
ATOM     18  CA  GLY Z  -3       4.792  12.904   7.111  1.00 64.94 LIG 0.21  C 
BRANCH 18 19
ATOM     19  C   GLY Z  -3       3.447  12.781   6.423  1.00 70.96 LIG 0.21  C 
ATOM     20 O    GLY Z  -3       3.164  11.773   5.775  1.00 75.87 LIG-0.29  OA
ENDBRANCH 18 19
ENDBRANCH 15 18
ENDBRANCH 1 14
BRANCH 1 21
ATOM     21  CB  TYR Z  -4       4.516  17.229   7.940  1.00 44.24 LIG 0.07  C 
BRANCH 21 22
ATOM     22  CG  TYR Z  -4       4.450  17.818   9.331  1.00 50.17 LIG-0.06  A 
ATOM     23  CD2 TYR Z  -4       5.234  18.910   9.684  1.00 45.93 LIG 0.01  A 
ATOM     24  CE2 TYR Z  -4       5.158  19.467  10.947  1.00 43.59 LIG 0.04  A 
ATOM     25  CZ  TYR Z  -4       4.286  18.937  11.875  1.00 44.55 LIG 0.07  A 
ATOM     26  CE1 TYR Z  -4       3.489  17.859  11.548  1.00 43.60 LIG 0.04  A 
ATOM     27  CD1 TYR Z  -4       3.572  17.308  10.281  1.00 43.85 LIG 0.01  A 
BRANCH 25 28
ATOM     28 OH   TYR Z  -4       4.209  19.488  13.134  1.00 43.23 LIG-0.36  OA
ATOM     29 HH   TYR Z  -4       4.951  19.410  13.520  1.00 43.23 LIG 0.22  HD
ENDBRANCH 25 28
ENDBRANCH 21 22
ENDBRANCH 1 21
TORSDOF 11
ENDMDL
MODEL 76
USER: ADFR SOLUTION from run 52
USER: SCORE 8.471151 LL:  -1.561 LR:  -7.001 RR:   0.000 FEB:  -3.720
USER: RMSD 6.604151
USER: SEED 51
USER: STATUS no improvement in best in 29 clusters for 5 generations
USER: GENES 13
USER: genes 0 Translation |==|  0.58716 0.67452 0.50195
USER: genes 1 Rotation |==|  0.18402 0.73248 0.32274 0.75434
USER: genes 2 Torsion [C]-CA--N-[C] |==|  0.62736
USER: genes 3 Torsion [N]-C--CA-[N] |==|  0.07749
USER: genes 4 Torsion [C]-CA--N-[H1] |==|  0.14793
USER: genes 5 Torsion [C]-CA--CB-[OG] |==|  0.79380
USER: genes 6 Torsion [CA]-CB--OG-[HG] |==|  0.76802
USER: genes 7 Torsion [N]-CA--C-[N] |==|  0.45544
USER: genes 8 Torsion [C]-N--CA-[C] |==|  0.55775
USER: genes 9 Torsion [N]-CA--C-[O] |==|  0.96266
USER: genes 10 Torsion [N]-CA--CB-[CG] |==|  0.81520
USER: genes 11 Torsion [CA]-CB--CG-[CD2] |==|  0.24749
USER: genes 12 Torsion [CE2]-CZ--OH-[HH] |==|  0.19723
ROOT
ATOM      1  CA  TYR Z  -4       4.514  17.119   9.179  1.00 44.41 LIG 0.18  C 
ENDROOT
BRANCH 1 2
ATOM      2  N   TYR Z  -4       4.864  17.620   7.855  1.00 49.32 LIG-0.35  N 
ATOM      3 H    TYR Z  -4       5.609  18.048   7.823  1.00 49.32 LIG 0.16  HD
ATOM      4  C   SER Z  -5       4.077  17.417   6.804  1.00 53.16 LIG 0.25  C 
ATOM      5 O    SER Z  -5       2.971  16.881   6.886  1.00 46.54 LIG-0.27  OA
BRANCH 4 6
ATOM      6  CA  SER Z  -5       4.618  17.887   5.457  1.00 61.82 LIG 0.30  C 
BRANCH 6 7
ATOM      7  N   SER Z  -5       6.076  17.859   5.461  1.00 64.85 LIG-0.06  N 
ATOM      8 H1   SER Z  -5       6.358  17.052   5.709  1.00 64.85 LIG 0.28  HD
ATOM      9 H3   SER Z  -5       6.383  18.468   6.033  1.00 64.85 LIG 0.28  HD
ATOM     10 H2   SER Z  -5       6.379  18.040   4.644  1.00 64.85 LIG 0.28  HD
ENDBRANCH 6 7
BRANCH 6 11
ATOM     11  CB  SER Z  -5       4.064  17.018   4.323  1.00 66.88 LIG 0.21  C 
BRANCH 11 12
ATOM     12 OG   SER Z  -5       4.682  15.741   4.300  1.00 63.67 LIG-0.40  OA
ATOM     13 HG   SER Z  -5       5.410  15.789   3.882  1.00 63.67 LIG 0.21  HD
ENDBRANCH 11 12
ENDBRANCH 6 11
ENDBRANCH 4 6
ENDBRANCH 1 2
BRANCH 1 14
ATOM     14  C   TYR Z  -4       4.724  18.185  10.243  1.00 48.17 LIG 0.24  C 
ATOM     15  N   GLY Z  -3       4.138  17.964  11.414  1.00 50.01 LIG-0.35  N 
ATOM     16 H    GLY Z  -3       3.695  17.251  11.602  1.00 50.01 LIG 0.16  HD
ATOM     17 O    TYR Z  -4       5.387  19.194  10.005  1.00 57.82 LIG-0.27  OA
BRANCH 15 18
ATOM     18  CA  GLY Z  -3       4.201  18.933  12.493  1.00 64.94 LIG 0.21  C 
BRANCH 18 19
ATOM     19  C   GLY Z  -3       3.928  18.305  13.844  1.00 70.96 LIG 0.21  C 
ATOM     20 O    GLY Z  -3       3.450  17.172  13.925  1.00 75.87 LIG-0.29  OA
ENDBRANCH 18 19
ENDBRANCH 15 18
ENDBRANCH 1 14
BRANCH 1 21
ATOM     21  CB  TYR Z  -4       5.323  15.854   9.495  1.00 44.24 LIG 0.07  C 
BRANCH 21 22
ATOM     22  CG  TYR Z  -4       4.942  14.701   8.593  1.00 50.17 LIG-0.06  A 
ATOM     23  CD2 TYR Z  -4       5.581  14.504   7.375  1.00 45.93 LIG 0.01  A 
ATOM     24  CE2 TYR Z  -4       5.253  13.437   6.559  1.00 43.59 LIG 0.04  A 
ATOM     25  CZ  TYR Z  -4       4.278  12.546   6.960  1.00 44.55 LIG 0.07  A 
ATOM     26  CE1 TYR Z  -4       3.635  12.714   8.169  1.00 43.60 LIG 0.04  A 
ATOM     27  CD1 TYR Z  -4       3.970  13.785   8.979  1.00 43.85 LIG 0.01  A 
BRANCH 25 28
ATOM     28 OH   TYR Z  -4       3.948  11.484   6.150  1.00 43.23 LIG-0.36  OA
ATOM     29 HH   TYR Z  -4       4.576  10.926   6.148  1.00 43.23 LIG 0.22  HD
ENDBRANCH 25 28
ENDBRANCH 21 22
ENDBRANCH 1 21
TORSDOF 11
ENDMDL
MODEL 77
USER: ADFR SOLUTION from run 74
USER: SCORE 8.321663 LL:  -1.351 LR:  -7.002 RR:   0.000 FEB:  -3.721
USER: RMSD 7.502304
USER: SEED 73
USER: STATUS no improvement in best in 36 clusters for 5 generations
USER: GENES 13
USER: genes 0 Translation |==|  0.66922 0.73084 0.49508
USER: genes 1 Rotation |==|  0.08452 0.33403 0.68999 0.61718
USER: genes 2 Torsion [C]-CA--N-[C] |==|  0.79747
USER: genes 3 Torsion [N]-C--CA-[N] |==|  0.12675
USER: genes 4 Torsion [C]-CA--N-[H1] |==|  0.71872
USER: genes 5 Torsion [C]-CA--CB-[OG] |==|  0.40875
USER: genes 6 Torsion [CA]-CB--OG-[HG] |==|  0.48196
USER: genes 7 Torsion [N]-CA--C-[N] |==|  0.43883
USER: genes 8 Torsion [C]-N--CA-[C] |==|  0.64977
USER: genes 9 Torsion [N]-CA--C-[O] |==|  0.96152
USER: genes 10 Torsion [N]-CA--CB-[CG] |==|  0.81294
USER: genes 11 Torsion [CA]-CB--CG-[CD2] |==|  0.97865
USER: genes 12 Torsion [CE2]-CZ--OH-[HH] |==|  0.23932
ROOT
ATOM      1  CA  TYR Z  -4       5.868  18.091   9.076  1.00 44.41 LIG 0.18  C 
ENDROOT
BRANCH 1 2
ATOM      2  N   TYR Z  -4       5.530  17.165   8.002  1.00 49.32 LIG-0.35  N 
ATOM      3 H    TYR Z  -4       5.342  17.543   7.253  1.00 49.32 LIG 0.16  HD
ATOM      4  C   SER Z  -5       5.519  15.850   8.194  1.00 53.16 LIG 0.25  C 
ATOM      5 O    SER Z  -5       5.701  15.330   9.297  1.00 46.54 LIG-0.27  OA
BRANCH 4 6
ATOM      6  CA  SER Z  -5       5.267  14.991   6.959  1.00 61.82 LIG 0.30  C 
BRANCH 6 7
ATOM      7  N   SER Z  -5       6.076  15.464   5.842  1.00 64.85 LIG-0.06  N 
ATOM      8 H1   SER Z  -5       5.570  15.947   5.292  1.00 64.85 LIG 0.28  HD
ATOM      9 H3   SER Z  -5       6.410  14.767   5.401  1.00 64.85 LIG 0.28  HD
ATOM     10 H2   SER Z  -5       6.742  15.967   6.150  1.00 64.85 LIG 0.28  HD
ENDBRANCH 6 7
BRANCH 6 11
ATOM     11  CB  SER Z  -5       5.567  13.518   7.259  1.00 66.88 LIG 0.21  C 
BRANCH 11 12
ATOM     12 OG   SER Z  -5       4.711  12.656   6.525  1.00 63.67 LIG-0.40  OA
ATOM     13 HG   SER Z  -5       4.953  11.859   6.637  1.00 63.67 LIG 0.21  HD
ENDBRANCH 11 12
ENDBRANCH 6 11
ENDBRANCH 4 6
ENDBRANCH 1 2
BRANCH 1 14
ATOM     14  C   TYR Z  -4       4.746  18.182  10.098  1.00 48.17 LIG 0.24  C 
ATOM     15  N   GLY Z  -3       5.091  18.609  11.307  1.00 50.01 LIG-0.35  N 
ATOM     16 H    GLY Z  -3       5.885  18.866  11.517  1.00 50.01 LIG 0.16  HD
ATOM     17 O    TYR Z  -4       3.596  17.856   9.805  1.00 57.82 LIG-0.27  OA
BRANCH 15 18
ATOM     18  CA  GLY Z  -3       4.132  18.677  12.394  1.00 64.94 LIG 0.21  C 
BRANCH 18 19
ATOM     19  C   GLY Z  -3       4.078  20.053  13.025  1.00 70.96 LIG 0.21  C 
ATOM     20 O    GLY Z  -3       4.957  20.885  12.794  1.00 75.87 LIG-0.29  OA
ENDBRANCH 18 19
ENDBRANCH 15 18
ENDBRANCH 1 14
BRANCH 1 21
ATOM     21  CB  TYR Z  -4       6.202  19.472   8.495  1.00 44.24 LIG 0.07  C 
BRANCH 21 22
ATOM     22  CG  TYR Z  -4       7.480  19.449   7.685  1.00 50.17 LIG-0.06  A 
ATOM     23  CD2 TYR Z  -4       8.291  18.321   7.661  1.00 45.93 LIG 0.01  A 
ATOM     24  CE2 TYR Z  -4       9.447  18.288   6.903  1.00 43.59 LIG 0.04  A 
ATOM     25  CZ  TYR Z  -4       9.801  19.388   6.150  1.00 44.55 LIG 0.07  A 
ATOM     26  CE1 TYR Z  -4       9.008  20.517   6.149  1.00 43.60 LIG 0.04  A 
ATOM     27  CD1 TYR Z  -4       7.853  20.541   6.911  1.00 43.85 LIG 0.01  A 
BRANCH 25 28
ATOM     28 OH   TYR Z  -4      10.951  19.359   5.395  1.00 43.23 LIG-0.36  OA
ATOM     29 HH   TYR Z  -4      10.786  19.017   4.646  1.00 43.23 LIG 0.22  HD
ENDBRANCH 25 28
ENDBRANCH 21 22
ENDBRANCH 1 21
TORSDOF 11
ENDMDL
MODEL 78
USER: ADFR SOLUTION from run 17
USER: SCORE 8.053089 LL:  -1.442 LR:  -7.002 RR:   0.000 FEB:  -3.720
USER: RMSD 8.465923
USER: SEED 16
USER: STATUS no improvement in best in 21 clusters for 5 generations
USER: GENES 13
USER: genes 0 Translation |==|  0.69987 0.72195 0.40366
USER: genes 1 Rotation |==|  0.20916 0.72639 0.32216 0.78729
USER: genes 2 Torsion [C]-CA--N-[C] |==|  0.69150
USER: genes 3 Torsion [N]-C--CA-[N] |==|  0.32178
USER: genes 4 Torsion [C]-CA--N-[H1] |==|  0.26955
USER: genes 5 Torsion [C]-CA--CB-[OG] |==|  0.72442
USER: genes 6 Torsion [CA]-CB--OG-[HG] |==|  0.32110
USER: genes 7 Torsion [N]-CA--C-[N] |==|  0.85556
USER: genes 8 Torsion [C]-N--CA-[C] |==|  0.70463
USER: genes 9 Torsion [N]-CA--C-[O] |==|  0.53724
USER: genes 10 Torsion [N]-CA--CB-[CG] |==|  0.70542
USER: genes 11 Torsion [CA]-CB--CG-[CD2] |==|  0.68329
USER: genes 12 Torsion [CE2]-CZ--OH-[HH] |==|  0.74795
ROOT
ATOM      1  CA  TYR Z  -4       6.374  17.938   7.705  1.00 44.41 LIG 0.18  C 
ENDROOT
BRANCH 1 2
ATOM      2  N   TYR Z  -4       6.856  18.602   6.500  1.00 49.32 LIG-0.35  N 
ATOM      3 H    TYR Z  -4       7.701  18.763   6.497  1.00 49.32 LIG 0.16  HD
ATOM      4  C   SER Z  -5       6.035  18.922   5.505  1.00 53.16 LIG 0.25  C 
ATOM      5 O    SER Z  -5       4.814  18.766   5.565  1.00 46.54 LIG-0.27  OA
BRANCH 4 6
ATOM      6  CA  SER Z  -5       6.687  19.503   4.254  1.00 61.82 LIG 0.30  C 
BRANCH 6 7
ATOM      7  N   SER Z  -5       6.487  18.609   3.120  1.00 64.85 LIG-0.06  N 
ATOM      8 H1   SER Z  -5       5.790  18.885   2.642  1.00 64.85 LIG 0.28  HD
ATOM      9 H3   SER Z  -5       6.335  17.783   3.415  1.00 64.85 LIG 0.28  HD
ATOM     10 H2   SER Z  -5       7.216  18.611   2.608  1.00 64.85 LIG 0.28  HD
ENDBRANCH 6 7
BRANCH 6 11
ATOM     11  CB  SER Z  -5       6.122  20.895   3.951  1.00 66.88 LIG 0.21  C 
BRANCH 11 12
ATOM     12 OG   SER Z  -5       5.125  20.841   2.943  1.00 63.67 LIG-0.40  OA
ATOM     13 HG   SER Z  -5       4.386  21.075   3.267  1.00 63.67 LIG 0.21  HD
ENDBRANCH 11 12
ENDBRANCH 6 11
ENDBRANCH 4 6
ENDBRANCH 1 2
BRANCH 1 14
ATOM     14  C   TYR Z  -4       6.443  18.864   8.909  1.00 48.17 LIG 0.24  C 
ATOM     15  N   GLY Z  -3       7.615  19.449   9.128  1.00 50.01 LIG-0.35  N 
ATOM     16 H    GLY Z  -3       8.298  19.362   8.614  1.00 50.01 LIG 0.16  HD
ATOM     17 O    TYR Z  -4       5.463  19.031   9.635  1.00 57.82 LIG-0.27  OA
BRANCH 15 18
ATOM     18  CA  GLY Z  -3       7.836  20.302  10.281  1.00 64.94 LIG 0.21  C 
BRANCH 18 19
ATOM     19  C   GLY Z  -3       7.894  21.769   9.906  1.00 70.96 LIG 0.21  C 
ATOM     20 O    GLY Z  -3       8.314  22.605  10.706  1.00 75.87 LIG-0.29  OA
ENDBRANCH 18 19
ENDBRANCH 15 18
ENDBRANCH 1 14
BRANCH 1 21
ATOM     21  CB  TYR Z  -4       7.170  16.649   7.950  1.00 44.24 LIG 0.07  C 
BRANCH 21 22
ATOM     22  CG  TYR Z  -4       6.360  15.414   7.620  1.00 50.17 LIG-0.06  A 
ATOM     23  CD2 TYR Z  -4       5.986  14.518   8.614  1.00 45.93 LIG 0.01  A 
ATOM     24  CE2 TYR Z  -4       5.224  13.401   8.320  1.00 43.59 LIG 0.04  A 
ATOM     25  CZ  TYR Z  -4       4.822  13.172   7.021  1.00 44.55 LIG 0.07  A 
ATOM     26  CE1 TYR Z  -4       5.173  14.051   6.016  1.00 43.60 LIG 0.04  A 
ATOM     27  CD1 TYR Z  -4       5.935  15.166   6.320  1.00 43.85 LIG 0.01  A 
BRANCH 25 28
ATOM     28 OH   TYR Z  -4       4.067  12.062   6.725  1.00 43.23 LIG-0.36  OA
ATOM     29 HH   TYR Z  -4       4.574  11.422   6.523  1.00 43.23 LIG 0.22  HD
ENDBRANCH 25 28
ENDBRANCH 21 22
ENDBRANCH 1 21
TORSDOF 11
ENDMDL
MODEL 79
USER: ADFR SOLUTION from run 169
USER: SCORE 8.150106 LL:  -1.500 LR:  -6.997 RR:   0.000 FEB:  -3.716
USER: RMSD 6.166975
USER: SEED 168
USER: STATUS no improvement in best in 32 clusters for 5 generations
USER: GENES 13
USER: genes 0 Translation |==|  0.61913 0.69213 0.53232
USER: genes 1 Rotation |==|  0.65358 0.95422 0.58408 0.61414
USER: genes 2 Torsion [C]-CA--N-[C] |==|  0.55135
USER: genes 3 Torsion [N]-C--CA-[N] |==|  0.12398
USER: genes 4 Torsion [C]-CA--N-[H1] |==|  0.10103
USER: genes 5 Torsion [C]-CA--CB-[OG] |==|  0.47180
USER: genes 6 Torsion [CA]-CB--OG-[HG] |==|  0.02623
USER: genes 7 Torsion [N]-CA--C-[N] |==|  0.38355
USER: genes 8 Torsion [C]-N--CA-[C] |==|  0.82653
USER: genes 9 Torsion [N]-CA--C-[O] |==|  0.74476
USER: genes 10 Torsion [N]-CA--CB-[CG] |==|  0.23520
USER: genes 11 Torsion [CA]-CB--CG-[CD2] |==|  0.79036
USER: genes 12 Torsion [CE2]-CZ--OH-[HH] |==|  0.13310
ROOT
ATOM      1  CA  TYR Z  -4       5.042  17.423   9.635  1.00 44.41 LIG 0.18  C 
ENDROOT
BRANCH 1 2
ATOM      2  N   TYR Z  -4       6.252  18.236   9.606  1.00 49.32 LIG-0.35  N 
ATOM      3 H    TYR Z  -4       6.888  17.910   9.128  1.00 49.32 LIG 0.16  HD
ATOM      4  C   SER Z  -5       6.337  19.382  10.274  1.00 53.16 LIG 0.25  C 
ATOM      5 O    SER Z  -5       5.450  19.788  11.027  1.00 46.54 LIG-0.27  OA
BRANCH 4 6
ATOM      6  CA  SER Z  -5       7.613  20.191  10.062  1.00 61.82 LIG 0.30  C 
BRANCH 6 7
ATOM      7  N   SER Z  -5       7.951  20.237   8.645  1.00 64.85 LIG-0.06  N 
ATOM      8 H1   SER Z  -5       7.205  20.286   8.162  1.00 64.85 LIG 0.28  HD
ATOM      9 H3   SER Z  -5       8.400  19.502   8.422  1.00 64.85 LIG 0.28  HD
ATOM     10 H2   SER Z  -5       8.455  20.953   8.483  1.00 64.85 LIG 0.28  HD
ENDBRANCH 6 7
BRANCH 6 11
ATOM     11  CB  SER Z  -5       7.450  21.607  10.626  1.00 66.88 LIG 0.21  C 
BRANCH 11 12
ATOM     12 OG   SER Z  -5       8.688  22.300  10.650  1.00 63.67 LIG-0.40  OA
ATOM     13 HG   SER Z  -5       9.267  21.856  10.232  1.00 63.67 LIG 0.21  HD
ENDBRANCH 11 12
ENDBRANCH 6 11
ENDBRANCH 4 6
ENDBRANCH 1 2
BRANCH 1 14
ATOM     14  C   TYR Z  -4       5.327  15.996   9.195  1.00 48.17 LIG 0.24  C 
ATOM     15  N   GLY Z  -3       4.735  15.039   9.900  1.00 50.01 LIG-0.35  N 
ATOM     16 H    GLY Z  -3       4.186  15.187  10.544  1.00 50.01 LIG 0.16  HD
ATOM     17 O    TYR Z  -4       6.080  15.764   8.249  1.00 57.82 LIG-0.27  OA
BRANCH 15 18
ATOM     18  CA  GLY Z  -3       4.976  13.634   9.629  1.00 64.94 LIG 0.21  C 
BRANCH 18 19
ATOM     19  C   GLY Z  -3       4.530  13.234   8.237  1.00 70.96 LIG 0.21  C 
ATOM     20 O    GLY Z  -3       3.395  12.798   8.043  1.00 75.87 LIG-0.29  OA
ENDBRANCH 18 19
ENDBRANCH 15 18
ENDBRANCH 1 14
BRANCH 1 21
ATOM     21  CB  TYR Z  -4       3.955  18.066   8.762  1.00 44.24 LIG 0.07  C 
BRANCH 21 22
ATOM     22  CG  TYR Z  -4       4.097  17.676   7.307  1.00 50.17 LIG-0.06  A 
ATOM     23  CD2 TYR Z  -4       5.086  18.239   6.509  1.00 45.93 LIG 0.01  A 
ATOM     24  CE2 TYR Z  -4       5.234  17.867   5.185  1.00 43.59 LIG 0.04  A 
ATOM     25  CZ  TYR Z  -4       4.392  16.917   4.645  1.00 44.55 LIG 0.07  A 
ATOM     26  CE1 TYR Z  -4       3.408  16.336   5.418  1.00 43.60 LIG 0.04  A 
ATOM     27  CD1 TYR Z  -4       3.267  16.715   6.742  1.00 43.85 LIG 0.01  A 
BRANCH 25 28
ATOM     28 OH   TYR Z  -4       4.536  16.546   3.328  1.00 43.23 LIG-0.36  OA
ATOM     29 HH   TYR Z  -4       5.345  16.386   3.168  1.00 43.23 LIG 0.22  HD
ENDBRANCH 25 28
ENDBRANCH 21 22
ENDBRANCH 1 21
TORSDOF 11
ENDMDL
MODEL 80
USER: ADFR SOLUTION from run 121
USER: SCORE 7.475129 LL:  -1.368 LR:  -6.990 RR:   0.000 FEB:  -3.709
USER: RMSD 7.255714
USER: SEED 120
USER: STATUS no improvement in best in 34 clusters for 5 generations
USER: GENES 13
USER: genes 0 Translation |==|  0.70132 0.70811 0.36959
USER: genes 1 Rotation |==|  0.31347 0.12534 0.66073 0.72136
USER: genes 2 Torsion [C]-CA--N-[C] |==|  0.53922
USER: genes 3 Torsion [N]-C--CA-[N] |==|  0.94145
USER: genes 4 Torsion [C]-CA--N-[H1] |==|  0.71430
USER: genes 5 Torsion [C]-CA--CB-[OG] |==|  0.70343
USER: genes 6 Torsion [CA]-CB--OG-[HG] |==|  0.28979
USER: genes 7 Torsion [N]-CA--C-[N] |==|  0.03620
USER: genes 8 Torsion [C]-N--CA-[C] |==|  0.31427
USER: genes 9 Torsion [N]-CA--C-[O] |==|  0.45591
USER: genes 10 Torsion [N]-CA--CB-[CG] |==|  0.69099
USER: genes 11 Torsion [CA]-CB--CG-[CD2] |==|  0.29739
USER: genes 12 Torsion [CE2]-CZ--OH-[HH] |==|  0.69902
ROOT
ATOM      1  CA  TYR Z  -4       6.398  17.699   7.194  1.00 44.41 LIG 0.18  C 
ENDROOT
BRANCH 1 2
ATOM      2  N   TYR Z  -4       6.123  17.910   5.778  1.00 49.32 LIG-0.35  N 
ATOM      3 H    TYR Z  -4       5.687  17.271   5.401  1.00 49.32 LIG 0.16  HD
ATOM      4  C   SER Z  -5       6.524  19.008   5.146  1.00 53.16 LIG 0.25  C 
ATOM      5 O    SER Z  -5       7.226  19.871   5.678  1.00 46.54 LIG-0.27  OA
BRANCH 4 6
ATOM      6  CA  SER Z  -5       6.066  19.159   3.699  1.00 61.82 LIG 0.30  C 
BRANCH 6 7
ATOM      7  N   SER Z  -5       5.701  17.859   3.148  1.00 64.85 LIG-0.06  N 
ATOM      8 H1   SER Z  -5       6.353  17.566   2.618  1.00 64.85 LIG 0.28  HD
ATOM      9 H3   SER Z  -5       4.950  17.936   2.677  1.00 64.85 LIG 0.28  HD
ATOM     10 H2   SER Z  -5       5.576  17.279   3.812  1.00 64.85 LIG 0.28  HD
ENDBRANCH 6 7
BRANCH 6 11
ATOM     11  CB  SER Z  -5       4.889  20.135   3.606  1.00 66.88 LIG 0.21  C 
BRANCH 11 12
ATOM     12 OG   SER Z  -5       3.670  19.454   3.353  1.00 63.67 LIG-0.40  OA
ATOM     13 HG   SER Z  -5       3.216  19.421   4.059  1.00 63.67 LIG 0.21  HD
ENDBRANCH 11 12
ENDBRANCH 6 11
ENDBRANCH 4 6
ENDBRANCH 1 2
BRANCH 1 14
ATOM     14  C   TYR Z  -4       6.152  16.252   7.592  1.00 48.17 LIG 0.24  C 
ATOM     15  N   GLY Z  -3       6.006  15.389   6.594  1.00 50.01 LIG-0.35  N 
ATOM     16 H    GLY Z  -3       6.081  15.598   5.763  1.00 50.01 LIG 0.16  HD
ATOM     17 O    TYR Z  -4       6.080  15.926   8.777  1.00 57.82 LIG-0.27  OA
BRANCH 15 18
ATOM     18  CA  GLY Z  -3       5.699  13.991   6.835  1.00 64.94 LIG 0.21  C 
BRANCH 18 19
ATOM     19  C   GLY Z  -3       4.317  13.615   6.340  1.00 70.96 LIG 0.21  C 
ATOM     20 O    GLY Z  -3       4.003  12.432   6.195  1.00 75.87 LIG-0.29  OA
ENDBRANCH 18 19
ENDBRANCH 15 18
ENDBRANCH 1 14
BRANCH 1 21
ATOM     21  CB  TYR Z  -4       5.554  18.659   8.043  1.00 44.24 LIG 0.07  C 
BRANCH 21 22
ATOM     22  CG  TYR Z  -4       6.406  19.707   8.725  1.00 50.17 LIG-0.06  A 
ATOM     23  CD2 TYR Z  -4       6.398  21.027   8.292  1.00 45.93 LIG 0.01  A 
ATOM     24  CE2 TYR Z  -4       7.156  21.993   8.929  1.00 43.59 LIG 0.04  A 
ATOM     25  CZ  TYR Z  -4       7.931  21.646  10.016  1.00 44.55 LIG 0.07  A 
ATOM     26  CE1 TYR Z  -4       7.950  20.343  10.471  1.00 43.60 LIG 0.04  A 
ATOM     27  CD1 TYR Z  -4       7.187  19.383   9.828  1.00 43.85 LIG 0.01  A 
BRANCH 25 28
ATOM     28 OH   TYR Z  -4       8.688  22.603  10.650  1.00 43.23 LIG-0.36  OA
ATOM     29 HH   TYR Z  -4       9.501  22.476  10.481  1.00 43.23 LIG 0.22  HD
ENDBRANCH 25 28
ENDBRANCH 21 22
ENDBRANCH 1 21
TORSDOF 11
ENDMDL
MODEL 81
USER: ADFR SOLUTION from run 14
USER: SCORE 7.934314 LL:  -1.771 LR:  -6.992 RR:   0.000 FEB:  -3.711
USER: RMSD 4.567954
USER: SEED 311274
USER: STATUS no improvement in best in 30 clusters for 5 generations
USER: GENES 13
USER: genes 0 Translation |==|  0.50393 0.36956 0.36665
USER: genes 1 Rotation |==|  0.23610 0.21836 0.28623 0.73524
USER: genes 2 Torsion [C]-CA--N-[C] |==|  0.10176
USER: genes 3 Torsion [N]-C--CA-[N] |==|  0.49237
USER: genes 4 Torsion [C]-CA--N-[H1] |==|  0.98509
USER: genes 5 Torsion [C]-CA--CB-[OG] |==|  0.65900
USER: genes 6 Torsion [CA]-CB--OG-[HG] |==|  0.81923
USER: genes 7 Torsion [N]-CA--C-[N] |==|  0.66666
USER: genes 8 Torsion [C]-N--CA-[C] |==|  0.72293
USER: genes 9 Torsion [N]-CA--C-[O] |==|  0.02481
USER: genes 10 Torsion [N]-CA--CB-[CG] |==|  0.02278
USER: genes 11 Torsion [CA]-CB--CG-[CD2] |==|  0.77820
USER: genes 12 Torsion [CE2]-CZ--OH-[HH] |==|  0.82481
ROOT
ATOM      1  CA  TYR Z  -4       3.141  11.859   7.150  1.00 44.41 LIG 0.18  C 
ENDROOT
BRANCH 1 2
ATOM      2  N   TYR Z  -4       4.258  12.655   6.657  1.00 49.32 LIG-0.35  N 
ATOM      3 H    TYR Z  -4       5.034  12.337   6.850  1.00 49.32 LIG 0.16  HD
ATOM      4  C   SER Z  -5       4.066  13.775   5.968  1.00 53.16 LIG 0.25  C 
ATOM      5 O    SER Z  -5       2.950  14.264   5.779  1.00 46.54 LIG-0.27  OA
BRANCH 4 6
ATOM      6  CA  SER Z  -5       5.316  14.445   5.408  1.00 61.82 LIG 0.30  C 
BRANCH 6 7
ATOM      7  N   SER Z  -5       4.951  15.620   4.625  1.00 64.85 LIG-0.06  N 
ATOM      8 H1   SER Z  -5       4.065  15.673   4.563  1.00 64.85 LIG 0.28  HD
ATOM      9 H3   SER Z  -5       5.302  15.555   3.810  1.00 64.85 LIG 0.28  HD
ATOM     10 H2   SER Z  -5       5.263  16.352   5.025  1.00 64.85 LIG 0.28  HD
ENDBRANCH 6 7
BRANCH 6 11
ATOM     11  CB  SER Z  -5       6.275  14.827   6.541  1.00 66.88 LIG 0.21  C 
BRANCH 11 12
ATOM     12 OG   SER Z  -5       6.563  16.216   6.529  1.00 63.67 LIG-0.40  OA
ATOM     13 HG   SER Z  -5       6.982  16.410   5.827  1.00 63.67 LIG 0.21  HD
ENDBRANCH 11 12
ENDBRANCH 6 11
ENDBRANCH 4 6
ENDBRANCH 1 2
BRANCH 1 14
ATOM     14  C   TYR Z  -4       1.986  11.859   6.160  1.00 48.17 LIG 0.24  C 
ATOM     15  N   GLY Z  -3       0.835  12.348   6.607  1.00 50.01 LIG-0.35  N 
ATOM     16 H    GLY Z  -3       0.730  12.688   7.389  1.00 50.01 LIG 0.16  HD
ATOM     17 O    TYR Z  -4       2.129  11.412   5.022  1.00 57.82 LIG-0.27  OA
BRANCH 15 18
ATOM     18  CA  GLY Z  -3      -0.363  12.343   5.788  1.00 64.94 LIG 0.21  C 
BRANCH 18 19
ATOM     19  C   GLY Z  -3      -0.621  13.690   5.144  1.00 70.96 LIG 0.21  C 
ATOM     20 O    GLY Z  -3       0.222  14.586   5.203  1.00 75.87 LIG-0.29  OA
ENDBRANCH 18 19
ENDBRANCH 15 18
ENDBRANCH 1 14
BRANCH 1 21
ATOM     21  CB  TYR Z  -4       2.693  12.374   8.524  1.00 44.24 LIG 0.07  C 
BRANCH 21 22
ATOM     22  CG  TYR Z  -4       3.386  13.667   8.895  1.00 50.17 LIG-0.06  A 
ATOM     23  CD2 TYR Z  -4       4.682  13.665   9.398  1.00 45.93 LIG 0.01  A 
ATOM     24  CE2 TYR Z  -4       5.327  14.846   9.715  1.00 43.59 LIG 0.04  A 
ATOM     25  CZ  TYR Z  -4       4.681  16.050   9.524  1.00 44.55 LIG 0.07  A 
ATOM     26  CE1 TYR Z  -4       3.397  16.080   9.018  1.00 43.60 LIG 0.04  A 
ATOM     27  CD1 TYR Z  -4       2.759  14.892   8.703  1.00 43.85 LIG 0.01  A 
BRANCH 25 28
ATOM     28 OH   TYR Z  -4       5.319  17.227   9.840  1.00 43.23 LIG-0.36  OA
ATOM     29 HH   TYR Z  -4       5.480  17.247  10.665  1.00 43.23 LIG 0.22  HD
ENDBRANCH 25 28
ENDBRANCH 21 22
ENDBRANCH 1 21
TORSDOF 11
ENDMDL
MODEL 82
USER: ADFR SOLUTION from run 157
USER: SCORE 8.498481 LL:  -1.609 LR:  -6.976 RR:   0.000 FEB:  -3.695
USER: RMSD 6.743671
USER: SEED 156
USER: STATUS no improvement in best in 33 clusters for 5 generations
USER: GENES 13
USER: genes 0 Translation |==|  0.55039 0.75623 0.47456
USER: genes 1 Rotation |==|  0.61551 0.74873 0.29156 0.86242
USER: genes 2 Torsion [C]-CA--N-[C] |==|  0.76161
USER: genes 3 Torsion [N]-C--CA-[N] |==|  0.17430
USER: genes 4 Torsion [C]-CA--N-[H1] |==|  0.98703
USER: genes 5 Torsion [C]-CA--CB-[OG] |==|  0.60868
USER: genes 6 Torsion [CA]-CB--OG-[HG] |==|  0.94155
USER: genes 7 Torsion [N]-CA--C-[N] |==|  0.92778
USER: genes 8 Torsion [C]-N--CA-[C] |==|  0.67492
USER: genes 9 Torsion [N]-CA--C-[O] |==|  0.98184
USER: genes 10 Torsion [N]-CA--CB-[CG] |==|  0.18529
USER: genes 11 Torsion [CA]-CB--CG-[CD2] |==|  0.26693
USER: genes 12 Torsion [CE2]-CZ--OH-[HH] |==|  0.28270
ROOT
ATOM      1  CA  TYR Z  -4       3.907  18.529   8.768  1.00 44.41 LIG 0.18  C 
ENDROOT
BRANCH 1 2
ATOM      2  N   TYR Z  -4       5.257  18.710   9.289  1.00 49.32 LIG-0.35  N 
ATOM      3 H    TYR Z  -4       5.770  18.027   9.191  1.00 49.32 LIG 0.16  HD
ATOM      4  C   SER Z  -5       5.636  19.848   9.863  1.00 53.16 LIG 0.25  C 
ATOM      5 O    SER Z  -5       4.861  20.782  10.076  1.00 46.54 LIG-0.27  OA
BRANCH 4 6
ATOM      6  CA  SER Z  -5       7.106  19.948  10.254  1.00 61.82 LIG 0.30  C 
BRANCH 6 7
ATOM      7  N   SER Z  -5       7.951  19.869   9.068  1.00 64.85 LIG-0.06  N 
ATOM      8 H1   SER Z  -5       7.445  19.710   8.353  1.00 64.85 LIG 0.28  HD
ATOM      9 H3   SER Z  -5       8.540  19.210   9.166  1.00 64.85 LIG 0.28  HD
ATOM     10 H2   SER Z  -5       8.382  20.639   8.959  1.00 64.85 LIG 0.28  HD
ENDBRANCH 6 7
BRANCH 6 11
ATOM     11  CB  SER Z  -5       7.371  21.248  11.020  1.00 66.88 LIG 0.21  C 
BRANCH 11 12
ATOM     12 OG   SER Z  -5       8.614  21.823  10.650  1.00 63.67 LIG-0.40  OA
ATOM     13 HG   SER Z  -5       9.106  21.233  10.310  1.00 63.67 LIG 0.21  HD
ENDBRANCH 11 12
ENDBRANCH 6 11
ENDBRANCH 4 6
ENDBRANCH 1 2
BRANCH 1 14
ATOM     14  C   TYR Z  -4       2.955  18.062   9.858  1.00 48.17 LIG 0.24  C 
ATOM     15  N   GLY Z  -3       3.506  17.400  10.870  1.00 50.01 LIG-0.35  N 
ATOM     16 H    GLY Z  -3       4.351  17.265  10.951  1.00 50.01 LIG 0.16  HD
ATOM     17 O    TYR Z  -4       1.747  18.280   9.778  1.00 57.82 LIG-0.27  OA
BRANCH 15 18
ATOM     18  CA  GLY Z  -3       2.702  16.841  11.940  1.00 64.94 LIG 0.21  C 
BRANCH 18 19
ATOM     19  C   GLY Z  -3       3.022  17.466  13.283  1.00 70.96 LIG 0.21  C 
ATOM     20 O    GLY Z  -3       3.959  18.257  13.400  1.00 75.87 LIG-0.29  OA
ENDBRANCH 18 19
ENDBRANCH 15 18
ENDBRANCH 1 14
BRANCH 1 21
ATOM     21  CB  TYR Z  -4       3.925  17.547   7.589  1.00 44.24 LIG 0.07  C 
BRANCH 21 22
ATOM     22  CG  TYR Z  -4       4.298  16.148   8.026  1.00 50.17 LIG-0.06  A 
ATOM     23  CD2 TYR Z  -4       3.320  15.199   8.301  1.00 45.93 LIG 0.01  A 
ATOM     24  CE2 TYR Z  -4       3.658  13.912   8.677  1.00 43.59 LIG 0.04  A 
ATOM     25  CZ  TYR Z  -4       4.987  13.556   8.775  1.00 44.55 LIG 0.07  A 
ATOM     26  CE1 TYR Z  -4       5.977  14.476   8.499  1.00 43.60 LIG 0.04  A 
ATOM     27  CD1 TYR Z  -4       5.630  15.762   8.123  1.00 43.85 LIG 0.01  A 
BRANCH 25 28
ATOM     28 OH   TYR Z  -4       5.326  12.277   9.150  1.00 43.23 LIG-0.36  OA
ATOM     29 HH   TYR Z  -4       5.548  11.835   8.471  1.00 43.23 LIG 0.22  HD
ENDBRANCH 25 28
ENDBRANCH 21 22
ENDBRANCH 1 21
TORSDOF 11
ENDMDL
MODEL 83
USER: ADFR SOLUTION from run 51
USER: SCORE 8.278306 LL:  -1.438 LR:  -6.951 RR:   0.000 FEB:  -3.670
USER: RMSD 4.085075
USER: SEED 50
USER: STATUS no improvement in best in 39 clusters for 5 generations
USER: GENES 13
USER: genes 0 Translation |==|  0.60864 0.58410 0.44608
USER: genes 1 Rotation |==|  0.60343 0.55803 0.59473 0.97640
USER: genes 2 Torsion [C]-CA--N-[C] |==|  0.72427
USER: genes 3 Torsion [N]-C--CA-[N] |==|  0.84864
USER: genes 4 Torsion [C]-CA--N-[H1] |==|  0.72091
USER: genes 5 Torsion [C]-CA--CB-[OG] |==|  0.60724
USER: genes 6 Torsion [CA]-CB--OG-[HG] |==|  0.39958
USER: genes 7 Torsion [N]-CA--C-[N] |==|  0.44989
USER: genes 8 Torsion [C]-N--CA-[C] |==|  0.30744
USER: genes 9 Torsion [N]-CA--C-[O] |==|  0.45059
USER: genes 10 Torsion [N]-CA--CB-[CG] |==|  0.82543
USER: genes 11 Torsion [CA]-CB--CG-[CD2] |==|  0.65834
USER: genes 12 Torsion [CE2]-CZ--OH-[HH] |==|  0.75003
ROOT
ATOM      1  CA  TYR Z  -4       4.869  15.560   8.341  1.00 44.41 LIG 0.18  C 
ENDROOT
BRANCH 1 2
ATOM      2  N   TYR Z  -4       4.435  16.146   9.603  1.00 49.32 LIG-0.35  N 
ATOM      3 H    TYR Z  -4       4.938  15.956  10.275  1.00 49.32 LIG 0.16  HD
ATOM      4  C   SER Z  -5       3.349  16.907   9.681  1.00 53.16 LIG 0.25  C 
ATOM      5 O    SER Z  -5       2.590  17.094   8.728  1.00 46.54 LIG-0.27  OA
BRANCH 4 6
ATOM      6  CA  SER Z  -5       3.076  17.556  11.034  1.00 61.82 LIG 0.30  C 
BRANCH 6 7
ATOM      7  N   SER Z  -5       3.039  16.542  12.082  1.00 64.85 LIG-0.06  N 
ATOM      8 H1   SER Z  -5       2.194  16.349  12.281  1.00 64.85 LIG 0.28  HD
ATOM      9 H3   SER Z  -5       3.451  16.850  12.808  1.00 64.85 LIG 0.28  HD
ATOM     10 H2   SER Z  -5       3.451  15.806  11.797  1.00 64.85 LIG 0.28  HD
ENDBRANCH 6 7
BRANCH 6 11
ATOM     11  CB  SER Z  -5       4.136  18.617  11.346  1.00 66.88 LIG 0.21  C 
BRANCH 11 12
ATOM     12 OG   SER Z  -5       4.494  18.604  12.719  1.00 63.67 LIG-0.40  OA
ATOM     13 HG   SER Z  -5       5.315  18.769  12.797  1.00 63.67 LIG 0.21  HD
ENDBRANCH 11 12
ENDBRANCH 6 11
ENDBRANCH 4 6
ENDBRANCH 1 2
BRANCH 1 14
ATOM     14  C   TYR Z  -4       4.433  14.107   8.231  1.00 48.17 LIG 0.24  C 
ATOM     15  N   GLY Z  -3       4.438  13.587   7.009  1.00 50.01 LIG-0.35  N 
ATOM     16 H    GLY Z  -3       4.705  14.009   6.310  1.00 50.01 LIG 0.16  HD
ATOM     17 O    TYR Z  -4       4.084  13.475   9.228  1.00 57.82 LIG-0.27  OA
BRANCH 15 18
ATOM     18  CA  GLY Z  -3       3.980  12.234   6.756  1.00 64.94 LIG 0.21  C 
BRANCH 18 19
ATOM     19  C   GLY Z  -3       2.680  12.205   5.979  1.00 70.96 LIG 0.21  C 
ATOM     20 O    GLY Z  -3       2.317  11.180   5.400  1.00 75.87 LIG-0.29  OA
ENDBRANCH 18 19
ENDBRANCH 15 18
ENDBRANCH 1 14
BRANCH 1 21
ATOM     21  CB  TYR Z  -4       6.390  15.696   8.192  1.00 44.24 LIG 0.07  C 
BRANCH 21 22
ATOM     22  CG  TYR Z  -4       6.825  17.143   8.140  1.00 50.17 LIG-0.06  A 
ATOM     23  CD2 TYR Z  -4       7.552  17.633   7.062  1.00 45.93 LIG 0.01  A 
ATOM     24  CE2 TYR Z  -4       7.930  18.962   6.999  1.00 43.59 LIG 0.04  A 
ATOM     25  CZ  TYR Z  -4       7.576  19.822   8.018  1.00 44.55 LIG 0.07  A 
ATOM     26  CE1 TYR Z  -4       6.846  19.363   9.095  1.00 43.60 LIG 0.04  A 
ATOM     27  CD1 TYR Z  -4       6.472  18.031   9.150  1.00 43.85 LIG 0.01  A 
BRANCH 25 28
ATOM     28 OH   TYR Z  -4       7.952  21.143   7.959  1.00 43.23 LIG-0.36  OA
ATOM     29 HH   TYR Z  -4       8.701  21.239   8.328  1.00 43.23 LIG 0.22  HD
ENDBRANCH 25 28
ENDBRANCH 21 22
ENDBRANCH 1 21
TORSDOF 11
ENDMDL
MODEL 84
USER: ADFR SOLUTION from run 120
USER: SCORE 8.273307 LL:  -1.416 LR:  -6.954 RR:   0.000 FEB:  -3.672
USER: RMSD 6.517886
USER: SEED 119
USER: STATUS no improvement in best in 22 clusters for 5 generations
USER: GENES 13
USER: genes 0 Translation |==|  0.69415 0.67185 0.38874
USER: genes 1 Rotation |==|  0.13928 0.29956 0.68583 0.71255
USER: genes 2 Torsion [C]-CA--N-[C] |==|  0.17530
USER: genes 3 Torsion [N]-C--CA-[N] |==|  0.79663
USER: genes 4 Torsion [C]-CA--N-[H1] |==|  0.37255
USER: genes 5 Torsion [C]-CA--CB-[OG] |==|  0.78857
USER: genes 6 Torsion [CA]-CB--OG-[HG] |==|  0.96077
USER: genes 7 Torsion [N]-CA--C-[N] |==|  0.10027
USER: genes 8 Torsion [C]-N--CA-[C] |==|  0.66163
USER: genes 9 Torsion [N]-CA--C-[O] |==|  0.95778
USER: genes 10 Torsion [N]-CA--CB-[CG] |==|  0.80817
USER: genes 11 Torsion [CA]-CB--CG-[CD2] |==|  0.79222
USER: genes 12 Torsion [CE2]-CZ--OH-[HH] |==|  0.14742
ROOT
ATOM      1  CA  TYR Z  -4       6.280  17.073   7.481  1.00 44.41 LIG 0.18  C 
ENDROOT
BRANCH 1 2
ATOM      2  N   TYR Z  -4       5.768  16.650   6.183  1.00 49.32 LIG-0.35  N 
ATOM      3 H    TYR Z  -4       6.270  16.087   5.770  1.00 49.32 LIG 0.16  HD
ATOM      4  C   SER Z  -5       4.618  17.111   5.703  1.00 53.16 LIG 0.25  C 
ATOM      5 O    SER Z  -5       3.957  17.986   6.267  1.00 46.54 LIG-0.27  OA
BRANCH 4 6
ATOM      6  CA  SER Z  -5       4.140  16.496   4.392  1.00 61.82 LIG 0.30  C 
BRANCH 6 7
ATOM      7  N   SER Z  -5       4.951  16.983   3.281  1.00 64.85 LIG-0.06  N 
ATOM      8 H1   SER Z  -5       5.183  16.299   2.761  1.00 64.85 LIG 0.28  HD
ATOM      9 H3   SER Z  -5       5.684  17.375   3.598  1.00 64.85 LIG 0.28  HD
ATOM     10 H2   SER Z  -5       4.482  17.571   2.806  1.00 64.85 LIG 0.28  HD
ENDBRANCH 6 7
BRANCH 6 11
ATOM     11  CB  SER Z  -5       4.188  14.967   4.466  1.00 66.88 LIG 0.21  C 
BRANCH 11 12
ATOM     12 OG   SER Z  -5       5.516  14.484   4.343  1.00 63.67 LIG-0.40  OA
ATOM     13 HG   SER Z  -5       6.014  15.099   4.060  1.00 63.67 LIG 0.21  HD
ENDBRANCH 11 12
ENDBRANCH 6 11
ENDBRANCH 4 6
ENDBRANCH 1 2
BRANCH 1 14
ATOM     14  C   TYR Z  -4       5.344  16.654   8.604  1.00 48.17 LIG 0.24  C 
ATOM     15  N   GLY Z  -3       4.740  15.481   8.453  1.00 50.01 LIG-0.35  N 
ATOM     16 H    GLY Z  -3       4.881  14.951   7.791  1.00 50.01 LIG 0.16  HD
ATOM     17 O    TYR Z  -4       5.160  17.383   9.579  1.00 57.82 LIG-0.27  OA
BRANCH 15 18
ATOM     18  CA  GLY Z  -3       3.771  14.994   9.417  1.00 64.94 LIG 0.21  C 
BRANCH 18 19
ATOM     19  C   GLY Z  -3       4.173  13.657  10.007  1.00 70.96 LIG 0.21  C 
ATOM     20 O    GLY Z  -3       5.051  12.976   9.477  1.00 75.87 LIG-0.29  OA
ENDBRANCH 18 19
ENDBRANCH 15 18
ENDBRANCH 1 14
BRANCH 1 21
ATOM     21  CB  TYR Z  -4       6.508  18.591   7.487  1.00 44.24 LIG 0.07  C 
BRANCH 21 22
ATOM     22  CG  TYR Z  -4       7.659  18.992   6.591  1.00 50.17 LIG-0.06  A 
ATOM     23  CD2 TYR Z  -4       8.976  18.769   6.976  1.00 45.93 LIG 0.01  A 
ATOM     24  CE2 TYR Z  -4      10.030  19.111   6.149  1.00 43.59 LIG 0.04  A 
ATOM     25  CZ  TYR Z  -4       9.775  19.679   4.917  1.00 44.55 LIG 0.07  A 
ATOM     26  CE1 TYR Z  -4       8.476  19.903   4.508  1.00 43.60 LIG 0.04  A 
ATOM     27  CD1 TYR Z  -4       7.427  19.556   5.342  1.00 43.85 LIG 0.01  A 
BRANCH 25 28
ATOM     28 OH   TYR Z  -4      10.821  20.022   4.093  1.00 43.23 LIG-0.36  OA
ATOM     29 HH   TYR Z  -4      11.326  19.359   3.989  1.00 43.23 LIG 0.22  HD
ENDBRANCH 25 28
ENDBRANCH 21 22
ENDBRANCH 1 21
TORSDOF 11
ENDMDL
MODEL 85
USER: ADFR SOLUTION from run 133
USER: SCORE 8.352293 LL:  -1.847 LR:  -6.943 RR:   0.000 FEB:  -3.662
USER: RMSD 4.821421
USER: SEED 132
USER: STATUS no improvement in best in 41 clusters for 5 generations
USER: GENES 13
USER: genes 0 Translation |==|  0.54551 0.42406 0.29395
USER: genes 1 Rotation |==|  0.34670 0.33101 0.43506 0.94014
USER: genes 2 Torsion [C]-CA--N-[C] |==|  0.65688
USER: genes 3 Torsion [N]-C--CA-[N] |==|  0.26149
USER: genes 4 Torsion [C]-CA--N-[H1] |==|  0.02098
USER: genes 5 Torsion [C]-CA--CB-[OG] |==|  0.69380
USER: genes 6 Torsion [CA]-CB--OG-[HG] |==|  0.17500
USER: genes 7 Torsion [N]-CA--C-[N] |==|  0.85000
USER: genes 8 Torsion [C]-N--CA-[C] |==|  0.26763
USER: genes 9 Torsion [N]-CA--C-[O] |==|  0.04435
USER: genes 10 Torsion [N]-CA--CB-[CG] |==|  0.03324
USER: genes 11 Torsion [CA]-CB--CG-[CD2] |==|  0.75909
USER: genes 12 Torsion [CE2]-CZ--OH-[HH] |==|  0.64857
ROOT
ATOM      1  CA  TYR Z  -4       3.827  12.799   6.059  1.00 44.41 LIG 0.18  C 
ENDROOT
BRANCH 1 2
ATOM      2  N   TYR Z  -4       3.694  14.219   5.759  1.00 49.32 LIG-0.35  N 
ATOM      3 H    TYR Z  -4       3.177  14.649   6.296  1.00 49.32 LIG 0.16  HD
ATOM      4  C   SER Z  -5       4.330  14.778   4.735  1.00 53.16 LIG 0.25  C 
ATOM      5 O    SER Z  -5       4.993  14.130   3.922  1.00 46.54 LIG-0.27  OA
BRANCH 4 6
ATOM      6  CA  SER Z  -5       4.200  16.292   4.605  1.00 61.82 LIG 0.30  C 
BRANCH 6 7
ATOM      7  N   SER Z  -5       5.325  16.952   5.259  1.00 64.85 LIG-0.06  N 
ATOM      8 H1   SER Z  -5       5.922  16.343   5.510  1.00 64.85 LIG 0.28  HD
ATOM      9 H3   SER Z  -5       5.034  17.395   5.974  1.00 64.85 LIG 0.28  HD
ATOM     10 H2   SER Z  -5       5.705  17.523   4.691  1.00 64.85 LIG 0.28  HD
ENDBRANCH 6 7
BRANCH 6 11
ATOM     11  CB  SER Z  -5       4.117  16.700   3.131  1.00 66.88 LIG 0.21  C 
BRANCH 11 12
ATOM     12 OG   SER Z  -5       5.292  17.379   2.714  1.00 63.67 LIG-0.40  OA
ATOM     13 HG   SER Z  -5       5.951  16.862   2.775  1.00 63.67 LIG 0.21  HD
ENDBRANCH 11 12
ENDBRANCH 6 11
ENDBRANCH 4 6
ENDBRANCH 1 2
BRANCH 1 14
ATOM     14  C   TYR Z  -4       2.471  12.112   6.082  1.00 48.17 LIG 0.24  C 
ATOM     15  N   GLY Z  -3       1.557  12.650   6.882  1.00 50.01 LIG-0.35  N 
ATOM     16 H    GLY Z  -3       1.683  13.367   7.339  1.00 50.01 LIG 0.16  HD
ATOM     17 O    TYR Z  -4       2.260  11.107   5.403  1.00 57.82 LIG-0.27  OA
BRANCH 15 18
ATOM     18  CA  GLY Z  -3       0.245  12.053   7.049  1.00 64.94 LIG 0.21  C 
BRANCH 18 19
ATOM     19  C   GLY Z  -3       0.170  11.168   8.276  1.00 70.96 LIG 0.21  C 
ATOM     20 O    GLY Z  -3       1.030  11.239   9.155  1.00 75.87 LIG-0.29  OA
ENDBRANCH 18 19
ENDBRANCH 15 18
ENDBRANCH 1 14
BRANCH 1 21
ATOM     21  CB  TYR Z  -4       4.567  12.609   7.390  1.00 44.24 LIG 0.07  C 
BRANCH 21 22
ATOM     22  CG  TYR Z  -4       4.693  13.907   8.156  1.00 50.17 LIG-0.06  A 
ATOM     23  CD2 TYR Z  -4       5.755  14.774   7.924  1.00 45.93 LIG 0.01  A 
ATOM     24  CE2 TYR Z  -4       5.861  15.973   8.604  1.00 43.59 LIG 0.04  A 
ATOM     25  CZ  TYR Z  -4       4.895  16.323   9.525  1.00 44.55 LIG 0.07  A 
ATOM     26  CE1 TYR Z  -4       3.826  15.485   9.767  1.00 43.60 LIG 0.04  A 
ATOM     27  CD1 TYR Z  -4       3.728  14.287   9.081  1.00 43.85 LIG 0.01  A 
BRANCH 25 28
ATOM     28 OH   TYR Z  -4       4.998  17.515  10.204  1.00 43.23 LIG-0.36  OA
ATOM     29 HH   TYR Z  -4       4.951  17.372  11.031  1.00 43.23 LIG 0.22  HD
ENDBRANCH 25 28
ENDBRANCH 21 22
ENDBRANCH 1 21
TORSDOF 11
ENDMDL
MODEL 86
USER: ADFR SOLUTION from run 67
USER: SCORE 7.617804 LL:  -1.494 LR:  -6.940 RR:   0.000 FEB:  -3.659
USER: RMSD 6.762248
USER: SEED 66
USER: STATUS no improvement in best in 32 clusters for 5 generations
USER: GENES 13
USER: genes 0 Translation |==|  0.66220 0.66174 0.47279
USER: genes 1 Rotation |==|  0.28544 0.75424 0.87243 0.52499
USER: genes 2 Torsion [C]-CA--N-[C] |==|  0.18244
USER: genes 3 Torsion [N]-C--CA-[N] |==|  0.91386
USER: genes 4 Torsion [C]-CA--N-[H1] |==|  0.67293
USER: genes 5 Torsion [C]-CA--CB-[OG] |==|  0.67792
USER: genes 6 Torsion [CA]-CB--OG-[HG] |==|  0.29693
USER: genes 7 Torsion [N]-CA--C-[N] |==|  0.56667
USER: genes 8 Torsion [C]-N--CA-[C] |==|  0.29708
USER: genes 9 Torsion [N]-CA--C-[O] |==|  0.92930
USER: genes 10 Torsion [N]-CA--CB-[CG] |==|  0.73823
USER: genes 11 Torsion [CA]-CB--CG-[CD2] |==|  0.51139
USER: genes 12 Torsion [CE2]-CZ--OH-[HH] |==|  0.37019
ROOT
ATOM      1  CA  TYR Z  -4       5.752  16.899   8.742  1.00 44.41 LIG 0.18  C 
ENDROOT
BRANCH 1 2
ATOM      2  N   TYR Z  -4       4.893  17.082   9.906  1.00 49.32 LIG-0.35  N 
ATOM      3 H    TYR Z  -4       4.981  16.477  10.511  1.00 49.32 LIG 0.16  HD
ATOM      4  C   SER Z  -5       4.053  18.107   9.997  1.00 53.16 LIG 0.25  C 
ATOM      5 O    SER Z  -5       3.874  18.913   9.082  1.00 46.54 LIG-0.27  OA
BRANCH 4 6
ATOM      6  CA  SER Z  -5       3.302  18.247  11.317  1.00 61.82 LIG 0.30  C 
BRANCH 6 7
ATOM      7  N   SER Z  -5       3.076  16.935  11.911  1.00 64.85 LIG-0.06  N 
ATOM      8 H1   SER Z  -5       2.201  16.782  11.971  1.00 64.85 LIG 0.28  HD
ATOM      9 H3   SER Z  -5       3.438  16.909  12.723  1.00 64.85 LIG 0.28  HD
ATOM     10 H2   SER Z  -5       3.450  16.309  11.400  1.00 64.85 LIG 0.28  HD
ENDBRANCH 6 7
BRANCH 6 11
ATOM     11  CB  SER Z  -5       4.076  19.151  12.283  1.00 66.88 LIG 0.21  C 
BRANCH 11 12
ATOM     12 OG   SER Z  -5       4.498  18.437  13.434  1.00 63.67 LIG-0.40  OA
ATOM     13 HG   SER Z  -5       5.327  18.306  13.395  1.00 63.67 LIG 0.21  HD
ENDBRANCH 11 12
ENDBRANCH 6 11
ENDBRANCH 4 6
ENDBRANCH 1 2
BRANCH 1 14
ATOM     14  C   TYR Z  -4       6.776  18.018   8.632  1.00 48.17 LIG 0.24  C 
ATOM     15  N   GLY Z  -3       7.262  18.247   7.418  1.00 50.01 LIG-0.35  N 
ATOM     16 H    GLY Z  -3       7.002  17.833   6.711  1.00 50.01 LIG 0.16  HD
ATOM     17 O    TYR Z  -4       7.131  18.649   9.627  1.00 57.82 LIG-0.27  OA
BRANCH 15 18
ATOM     18  CA  GLY Z  -3       8.295  19.240   7.186  1.00 64.94 LIG 0.21  C 
BRANCH 18 19
ATOM     19  C   GLY Z  -3       9.641  18.609   6.897  1.00 70.96 LIG 0.21  C 
ATOM     20 O    GLY Z  -3       9.908  17.481   7.313  1.00 75.87 LIG-0.29  OA
ENDBRANCH 18 19
ENDBRANCH 15 18
ENDBRANCH 1 14
BRANCH 1 21
ATOM     21  CB  TYR Z  -4       4.901  16.800   7.469  1.00 44.24 LIG 0.07  C 
BRANCH 21 22
ATOM     22  CG  TYR Z  -4       4.595  15.364   7.105  1.00 50.17 LIG-0.06  A 
ATOM     23  CD2 TYR Z  -4       3.907  15.053   5.938  1.00 45.93 LIG 0.01  A 
ATOM     24  CE2 TYR Z  -4       3.648  13.740   5.589  1.00 43.59 LIG 0.04  A 
ATOM     25  CZ  TYR Z  -4       4.083  12.718   6.407  1.00 44.55 LIG 0.07  A 
ATOM     26  CE1 TYR Z  -4       4.777  12.999   7.566  1.00 43.60 LIG 0.04  A 
ATOM     27  CD1 TYR Z  -4       5.032  14.316   7.907  1.00 43.85 LIG 0.01  A 
BRANCH 25 28
ATOM     28 OH   TYR Z  -4       3.826  11.411   6.064  1.00 43.23 LIG-0.36  OA
ATOM     29 HH   TYR Z  -4       4.526  10.954   6.150  1.00 43.23 LIG 0.22  HD
ENDBRANCH 25 28
ENDBRANCH 21 22
ENDBRANCH 1 21
TORSDOF 11
ENDMDL
MODEL 87
USER: ADFR SOLUTION from run 114
USER: SCORE 8.627352 LL:  -1.756 LR:  -6.932 RR:   0.000 FEB:  -3.650
USER: RMSD 7.551828
USER: SEED 113
USER: STATUS no improvement in best in 33 clusters for 5 generations
USER: GENES 13
USER: genes 0 Translation |==|  0.57512 0.73469 0.52154
USER: genes 1 Rotation |==|  0.29901 0.80060 0.18064 0.63133
USER: genes 2 Torsion [C]-CA--N-[C] |==|  0.69763
USER: genes 3 Torsion [N]-C--CA-[N] |==|  0.93759
USER: genes 4 Torsion [C]-CA--N-[H1] |==|  0.62007
USER: genes 5 Torsion [C]-CA--CB-[OG] |==|  0.66873
USER: genes 6 Torsion [CA]-CB--OG-[HG] |==|  0.77381
USER: genes 7 Torsion [N]-CA--C-[N] |==|  0.02876
USER: genes 8 Torsion [C]-N--CA-[C] |==|  0.70290
USER: genes 9 Torsion [N]-CA--C-[O] |==|  0.45511
USER: genes 10 Torsion [N]-CA--CB-[CG] |==|  0.98230
USER: genes 11 Torsion [CA]-CB--CG-[CD2] |==|  0.77466
USER: genes 12 Torsion [CE2]-CZ--OH-[HH] |==|  0.49907
ROOT
ATOM      1  CA  TYR Z  -4       4.316  18.157   9.473  1.00 44.41 LIG 0.18  C 
ENDROOT
BRANCH 1 2
ATOM      2  N   TYR Z  -4       4.970  17.827   8.213  1.00 49.32 LIG-0.35  N 
ATOM      3 H    TYR Z  -4       5.591  17.235   8.280  1.00 49.32 LIG 0.16  HD
ATOM      4  C   SER Z  -5       4.616  18.407   7.071  1.00 53.16 LIG 0.25  C 
ATOM      5 O    SER Z  -5       3.787  19.317   7.009  1.00 46.54 LIG-0.27  OA
BRANCH 4 6
ATOM      6  CA  SER Z  -5       5.296  17.883   5.810  1.00 61.82 LIG 0.30  C 
BRANCH 6 7
ATOM      7  N   SER Z  -5       6.557  17.233   6.150  1.00 64.85 LIG-0.06  N 
ATOM      8 H1   SER Z  -5       7.184  17.478   5.569  1.00 64.85 LIG 0.28  HD
ATOM      9 H3   SER Z  -5       6.453  16.350   6.119  1.00 64.85 LIG 0.28  HD
ATOM     10 H2   SER Z  -5       6.803  17.474   6.970  1.00 64.85 LIG 0.28  HD
ENDBRANCH 6 7
BRANCH 6 11
ATOM     11  CB  SER Z  -5       4.373  16.915   5.064  1.00 66.88 LIG 0.21  C 
BRANCH 11 12
ATOM     12 OG   SER Z  -5       4.951  15.623   4.961  1.00 63.67 LIG-0.40  OA
ATOM     13 HG   SER Z  -5       5.495  15.609   4.321  1.00 63.67 LIG 0.21  HD
ENDBRANCH 11 12
ENDBRANCH 6 11
ENDBRANCH 4 6
ENDBRANCH 1 2
BRANCH 1 14
ATOM     14  C   TYR Z  -4       5.240  18.954  10.381  1.00 48.17 LIG 0.24  C 
ATOM     15  N   GLY Z  -3       6.363  19.395   9.827  1.00 50.01 LIG-0.35  N 
ATOM     16 H    GLY Z  -3       6.563  19.288   8.998  1.00 50.01 LIG 0.16  HD
ATOM     17 O    TYR Z  -4       4.951  19.151  11.561  1.00 57.82 LIG-0.27  OA
BRANCH 15 18
ATOM     18  CA  GLY Z  -3       7.363  20.109  10.599  1.00 64.94 LIG 0.21  C 
BRANCH 18 19
ATOM     19  C   GLY Z  -3       7.389  21.589  10.274  1.00 70.96 LIG 0.21  C 
ATOM     20 O    GLY Z  -3       7.951  22.386  11.025  1.00 75.87 LIG-0.29  OA
ENDBRANCH 18 19
ENDBRANCH 15 18
ENDBRANCH 1 14
BRANCH 1 21
ATOM     21  CB  TYR Z  -4       3.827  16.877  10.165  1.00 44.24 LIG 0.07  C 
BRANCH 21 22
ATOM     22  CG  TYR Z  -4       4.016  15.657   9.291  1.00 50.17 LIG-0.06  A 
ATOM     23  CD2 TYR Z  -4       3.105  15.347   8.289  1.00 45.93 LIG 0.01  A 
ATOM     24  CE2 TYR Z  -4       3.287  14.246   7.472  1.00 43.59 LIG 0.04  A 
ATOM     25  CZ  TYR Z  -4       4.394  13.442   7.647  1.00 44.55 LIG 0.07  A 
ATOM     26  CE1 TYR Z  -4       5.318  13.733   8.629  1.00 43.60 LIG 0.04  A 
ATOM     27  CD1 TYR Z  -4       5.128  14.837   9.442  1.00 43.85 LIG 0.01  A 
BRANCH 25 28
ATOM     28 OH   TYR Z  -4       4.577  12.345   6.838  1.00 43.23 LIG-0.36  OA
ATOM     29 HH   TYR Z  -4       5.289  11.953   7.052  1.00 43.23 LIG 0.22  HD
ENDBRANCH 25 28
ENDBRANCH 21 22
ENDBRANCH 1 21
TORSDOF 11
ENDMDL
MODEL 88
USER: ADFR SOLUTION from run 102
USER: SCORE 8.574376 LL:  -1.658 LR:  -6.920 RR:   0.000 FEB:  -3.639
USER: RMSD 7.111731
USER: SEED 101
USER: STATUS no improvement in best in 23 clusters for 5 generations
USER: GENES 13
USER: genes 0 Translation |==|  0.65253 0.64420 0.35767
USER: genes 1 Rotation |==|  0.43831 0.62465 0.27735 0.92554
USER: genes 2 Torsion [C]-CA--N-[C] |==|  0.80708
USER: genes 3 Torsion [N]-C--CA-[N] |==|  0.76407
USER: genes 4 Torsion [C]-CA--N-[H1] |==|  0.90244
USER: genes 5 Torsion [C]-CA--CB-[OG] |==|  0.77663
USER: genes 6 Torsion [CA]-CB--OG-[HG] |==|  0.79996
USER: genes 7 Torsion [N]-CA--C-[N] |==|  0.94707
USER: genes 8 Torsion [C]-N--CA-[C] |==|  0.55826
USER: genes 9 Torsion [N]-CA--C-[O] |==|  0.99912
USER: genes 10 Torsion [N]-CA--CB-[CG] |==|  0.51715
USER: genes 11 Torsion [CA]-CB--CG-[CD2] |==|  0.15947
USER: genes 12 Torsion [CE2]-CZ--OH-[HH] |==|  0.94785
ROOT
ATOM      1  CA  TYR Z  -4       5.593  16.596   7.015  1.00 44.41 LIG 0.18  C 
ENDROOT
BRANCH 1 2
ATOM      2  N   TYR Z  -4       6.677  17.536   7.271  1.00 49.32 LIG-0.35  N 
ATOM      3 H    TYR Z  -4       7.409  17.171   7.538  1.00 49.32 LIG 0.16  HD
ATOM      4  C   SER Z  -5       6.521  18.844   7.099  1.00 53.16 LIG 0.25  C 
ATOM      5 O    SER Z  -5       5.440  19.359   6.805  1.00 46.54 LIG-0.27  OA
BRANCH 4 6
ATOM      6  CA  SER Z  -5       7.768  19.703   7.286  1.00 61.82 LIG 0.30  C 
BRANCH 6 7
ATOM      7  N   SER Z  -5       7.951  20.026   8.696  1.00 64.85 LIG-0.06  N 
ATOM      8 H1   SER Z  -5       7.156  20.136   9.082  1.00 64.85 LIG 0.28  HD
ATOM      9 H3   SER Z  -5       8.422  20.778   8.770  1.00 64.85 LIG 0.28  HD
ATOM     10 H2   SER Z  -5       8.386  19.363   9.099  1.00 64.85 LIG 0.28  HD
ENDBRANCH 6 7
BRANCH 6 11
ATOM     11  CB  SER Z  -5       9.003  18.984   6.732  1.00 66.88 LIG 0.21  C 
BRANCH 11 12
ATOM     12 OG   SER Z  -5       9.498  18.022   7.650  1.00 63.67 LIG-0.40  OA
ATOM     13 HG   SER Z  -5       9.861  18.414   8.299  1.00 63.67 LIG 0.21  HD
ENDBRANCH 11 12
ENDBRANCH 6 11
ENDBRANCH 4 6
ENDBRANCH 1 2
BRANCH 1 14
ATOM     14  C   TYR Z  -4       4.487  16.738   8.049  1.00 48.17 LIG 0.24  C 
ATOM     15  N   GLY Z  -3       4.820  17.348   9.180  1.00 50.01 LIG-0.35  N 
ATOM     16 H    GLY Z  -3       5.594  17.689   9.331  1.00 50.01 LIG 0.16  HD
ATOM     17 O    TYR Z  -4       3.360  16.290   7.835  1.00 57.82 LIG-0.27  OA
BRANCH 15 18
ATOM     18  CA  GLY Z  -3       3.879  17.487  10.276  1.00 64.94 LIG 0.21  C 
BRANCH 18 19
ATOM     19  C   GLY Z  -3       4.261  18.609  11.220  1.00 70.96 LIG 0.21  C 
ATOM     20 O    GLY Z  -3       5.274  19.280  11.020  1.00 75.87 LIG-0.29  OA
ENDBRANCH 18 19
ENDBRANCH 15 18
ENDBRANCH 1 14
BRANCH 1 21
ATOM     21  CB  TYR Z  -4       6.137  15.162   6.977  1.00 44.24 LIG 0.07  C 
BRANCH 21 22
ATOM     22  CG  TYR Z  -4       5.075  14.166   6.566  1.00 50.17 LIG-0.06  A 
ATOM     23  CD2 TYR Z  -4       4.404  14.295   5.356  1.00 45.93 LIG 0.01  A 
ATOM     24  CE2 TYR Z  -4       3.450  13.373   4.965  1.00 43.59 LIG 0.04  A 
ATOM     25  CZ  TYR Z  -4       3.160  12.302   5.785  1.00 44.55 LIG 0.07  A 
ATOM     26  CE1 TYR Z  -4       3.819  12.146   6.987  1.00 43.60 LIG 0.04  A 
ATOM     27  CD1 TYR Z  -4       4.772  13.073   7.370  1.00 43.85 LIG 0.01  A 
BRANCH 25 28
ATOM     28 OH   TYR Z  -4       2.211  11.384   5.400  1.00 43.23 LIG-0.36  OA
ATOM     29 HH   TYR Z  -4       1.721  11.719   4.804  1.00 43.23 LIG 0.22  HD
ENDBRANCH 25 28
ENDBRANCH 21 22
ENDBRANCH 1 21
TORSDOF 11
ENDMDL
MODEL 89
USER: ADFR SOLUTION from run 168
USER: SCORE 7.731921 LL:  -1.499 LR:  -6.921 RR:   0.000 FEB:  -3.640
USER: RMSD 6.669776
USER: SEED 167
USER: STATUS no improvement in best in 25 clusters for 5 generations
USER: GENES 13
USER: genes 0 Translation |==|  0.56839 0.71997 0.54275
USER: genes 1 Rotation |==|  0.40867 0.72395 0.21318 0.83052
USER: genes 2 Torsion [C]-CA--N-[C] |==|  0.66674
USER: genes 3 Torsion [N]-C--CA-[N] |==|  0.85227
USER: genes 4 Torsion [C]-CA--N-[H1] |==|  0.31894
USER: genes 5 Torsion [C]-CA--CB-[OG] |==|  0.51529
USER: genes 6 Torsion [CA]-CB--OG-[HG] |==|  0.14032
USER: genes 7 Torsion [N]-CA--C-[N] |==|  0.65788
USER: genes 8 Torsion [C]-N--CA-[C] |==|  0.50201
USER: genes 9 Torsion [N]-CA--C-[O] |==|  0.99955
USER: genes 10 Torsion [N]-CA--CB-[CG] |==|  0.84678
USER: genes 11 Torsion [CA]-CB--CG-[CD2] |==|  0.78084
USER: genes 12 Torsion [CE2]-CZ--OH-[HH] |==|  0.26173
ROOT
ATOM      1  CA  TYR Z  -4       4.204  17.903   9.791  1.00 44.41 LIG 0.18  C 
ENDROOT
BRANCH 1 2
ATOM      2  N   TYR Z  -4       5.557  18.320   9.442  1.00 49.32 LIG-0.35  N 
ATOM      3 H    TYR Z  -4       6.166  18.038   9.979  1.00 49.32 LIG 0.16  HD
ATOM      4  C   SER Z  -5       5.800  19.075   8.375  1.00 53.16 LIG 0.25  C 
ATOM      5 O    SER Z  -5       4.907  19.546   7.668  1.00 46.54 LIG-0.27  OA
BRANCH 4 6
ATOM      6  CA  SER Z  -5       7.268  19.338   8.056  1.00 61.82 LIG 0.30  C 
BRANCH 6 7
ATOM      7  N   SER Z  -5       7.951  19.873   9.228  1.00 64.85 LIG-0.06  N 
ATOM      8 H1   SER Z  -5       8.566  19.292   9.505  1.00 64.85 LIG 0.28  HD
ATOM      9 H3   SER Z  -5       7.360  20.011   9.879  1.00 64.85 LIG 0.28  HD
ATOM     10 H2   SER Z  -5       8.345  20.642   9.017  1.00 64.85 LIG 0.28  HD
ENDBRANCH 6 7
BRANCH 6 11
ATOM     11  CB  SER Z  -5       7.951  18.055   7.571  1.00 66.88 LIG 0.21  C 
BRANCH 11 12
ATOM     12 OG   SER Z  -5       9.345  18.248   7.388  1.00 63.67 LIG-0.40  OA
ATOM     13 HG   SER Z  -5       9.672  18.599   8.078  1.00 63.67 LIG 0.21  HD
ENDBRANCH 11 12
ENDBRANCH 6 11
ENDBRANCH 4 6
ENDBRANCH 1 2
BRANCH 1 14
ATOM     14  C   TYR Z  -4       3.812  18.410  11.170  1.00 48.17 LIG 0.24  C 
ATOM     15  N   GLY Z  -3       3.440  17.484  12.047  1.00 50.01 LIG-0.35  N 
ATOM     16 H    GLY Z  -3       3.451  16.640  11.887  1.00 50.01 LIG 0.16  HD
ATOM     17 O    TYR Z  -4       3.828  19.612  11.430  1.00 57.82 LIG-0.27  OA
BRANCH 15 18
ATOM     18  CA  GLY Z  -3       2.976  17.837  13.376  1.00 64.94 LIG 0.21  C 
BRANCH 18 19
ATOM     19  C   GLY Z  -3       2.625  16.618  14.204  1.00 70.96 LIG 0.21  C 
ATOM     20 O    GLY Z  -3       2.743  15.485  13.734  1.00 75.87 LIG-0.29  OA
ENDBRANCH 18 19
ENDBRANCH 15 18
ENDBRANCH 1 14
BRANCH 1 21
ATOM     21  CB  TYR Z  -4       4.086  16.376   9.707  1.00 44.24 LIG 0.07  C 
BRANCH 21 22
ATOM     22  CG  TYR Z  -4       4.500  15.852   8.349  1.00 50.17 LIG-0.06  A 
ATOM     23  CD2 TYR Z  -4       3.638  15.925   7.261  1.00 45.93 LIG 0.01  A 
ATOM     24  CE2 TYR Z  -4       4.022  15.470   6.013  1.00 43.59 LIG 0.04  A 
ATOM     25  CZ  TYR Z  -4       5.283  14.939   5.838  1.00 44.55 LIG 0.07  A 
ATOM     26  CE1 TYR Z  -4       6.162  14.864   6.900  1.00 43.60 LIG 0.04  A 
ATOM     27  CD1 TYR Z  -4       5.768  15.322   8.146  1.00 43.85 LIG 0.01  A 
BRANCH 25 28
ATOM     28 OH   TYR Z  -4       5.668  14.484   4.599  1.00 43.23 LIG-0.36  OA
ATOM     29 HH   TYR Z  -4       6.076  15.094   4.190  1.00 43.23 LIG 0.22  HD
ENDBRANCH 25 28
ENDBRANCH 21 22
ENDBRANCH 1 21
TORSDOF 11
ENDMDL
MODEL 90
USER: ADFR SOLUTION from run 187
USER: SCORE 8.490303 LL:  -1.622 LR:  -6.897 RR:   0.000 FEB:  -3.616
USER: RMSD 6.777720
USER: SEED 186
USER: STATUS no improvement in best in 37 clusters for 5 generations
USER: GENES 13
USER: genes 0 Translation |==|  0.68124 0.65122 0.33386
USER: genes 1 Rotation |==|  0.60690 0.34259 0.21523 0.86428
USER: genes 2 Torsion [C]-CA--N-[C] |==|  0.81517
USER: genes 3 Torsion [N]-C--CA-[N] |==|  0.44205
USER: genes 4 Torsion [C]-CA--N-[H1] |==|  0.29082
USER: genes 5 Torsion [C]-CA--CB-[OG] |==|  0.27922
USER: genes 6 Torsion [CA]-CB--OG-[HG] |==|  0.24102
USER: genes 7 Torsion [N]-CA--C-[N] |==|  0.43333
USER: genes 8 Torsion [C]-N--CA-[C] |==|  0.22860
USER: genes 9 Torsion [N]-CA--C-[O] |==|  0.98005
USER: genes 10 Torsion [N]-CA--CB-[CG] |==|  0.08577
USER: genes 11 Torsion [CA]-CB--CG-[CD2] |==|  0.14276
USER: genes 12 Torsion [CE2]-CZ--OH-[HH] |==|  0.76133
ROOT
ATOM      1  CA  TYR Z  -4       6.066  16.717   6.658  1.00 44.41 LIG 0.18  C 
ENDROOT
BRANCH 1 2
ATOM      2  N   TYR Z  -4       6.287  17.381   7.937  1.00 49.32 LIG-0.35  N 
ATOM      3 H    TYR Z  -4       6.103  16.898   8.625  1.00 49.32 LIG 0.16  HD
ATOM      4  C   SER Z  -5       6.735  18.630   8.006  1.00 53.16 LIG 0.25  C 
ATOM      5 O    SER Z  -5       6.906  19.338   7.011  1.00 46.54 LIG-0.27  OA
BRANCH 4 6
ATOM      6  CA  SER Z  -5       7.037  19.162   9.403  1.00 61.82 LIG 0.30  C 
BRANCH 6 7
ATOM      7  N   SER Z  -5       7.951  20.296   9.325  1.00 64.85 LIG-0.06  N 
ATOM      8 H1   SER Z  -5       7.501  21.051   9.465  1.00 64.85 LIG 0.28  HD
ATOM      9 H3   SER Z  -5       8.326  20.320   8.518  1.00 64.85 LIG 0.28  HD
ATOM     10 H2   SER Z  -5       8.584  20.210   9.944  1.00 64.85 LIG 0.28  HD
ENDBRANCH 6 7
BRANCH 6 11
ATOM     11  CB  SER Z  -5       5.742  19.561  10.118  1.00 66.88 LIG 0.21  C 
BRANCH 11 12
ATOM     12 OG   SER Z  -5       5.326  18.559  11.033  1.00 63.67 LIG-0.40  OA
ATOM     13 HG   SER Z  -5       5.702  18.684  11.775  1.00 63.67 LIG 0.21  HD
ENDBRANCH 11 12
ENDBRANCH 6 11
ENDBRANCH 4 6
ENDBRANCH 1 2
BRANCH 1 14
ATOM     14  C   TYR Z  -4       4.931  17.372   5.887  1.00 48.17 LIG 0.24  C 
ATOM     15  N   GLY Z  -3       4.951  17.210   4.569  1.00 50.01 LIG-0.35  N 
ATOM     16 H    GLY Z  -3       5.534  16.735   4.153  1.00 50.01 LIG 0.16  HD
ATOM     17 O    TYR Z  -4       4.065  18.024   6.470  1.00 57.82 LIG-0.27  OA
BRANCH 15 18
ATOM     18  CA  GLY Z  -3       3.965  17.839   3.710  1.00 64.94 LIG 0.21  C 
BRANCH 18 19
ATOM     19  C   GLY Z  -3       4.314  19.280   3.397  1.00 70.96 LIG 0.21  C 
ATOM     20 O    GLY Z  -3       5.261  19.833   3.958  1.00 75.87 LIG-0.29  OA
ENDBRANCH 18 19
ENDBRANCH 15 18
ENDBRANCH 1 14
BRANCH 1 21
ATOM     21  CB  TYR Z  -4       5.797  15.223   6.879  1.00 44.24 LIG 0.07  C 
BRANCH 21 22
ATOM     22  CG  TYR Z  -4       5.110  14.963   8.201  1.00 50.17 LIG-0.06  A 
ATOM     23  CD2 TYR Z  -4       3.960  15.658   8.558  1.00 45.93 LIG 0.01  A 
ATOM     24  CE2 TYR Z  -4       3.314  15.405   9.755  1.00 43.59 LIG 0.04  A 
ATOM     25  CZ  TYR Z  -4       3.813  14.445  10.610  1.00 44.55 LIG 0.07  A 
ATOM     26  CE1 TYR Z  -4       4.948  13.734  10.275  1.00 43.60 LIG 0.04  A 
ATOM     27  CD1 TYR Z  -4       5.587  13.994   9.075  1.00 43.85 LIG 0.01  A 
BRANCH 25 28
ATOM     28 OH   TYR Z  -4       3.174  14.192  11.801  1.00 43.23 LIG-0.36  OA
ATOM     29 HH   TYR Z  -4       3.451  14.727  12.388  1.00 43.23 LIG 0.22  HD
ENDBRANCH 25 28
ENDBRANCH 21 22
ENDBRANCH 1 21
TORSDOF 11
ENDMDL
MODEL 91
USER: ADFR SOLUTION from run 102
USER: SCORE 8.221639 LL:  -1.345 LR:  -6.893 RR:   0.000 FEB:  -3.611
USER: RMSD 8.205365
USER: SEED 101
USER: STATUS no improvement in best in 23 clusters for 5 generations
USER: GENES 13
USER: genes 0 Translation |==|  0.73823 0.73086 0.34631
USER: genes 1 Rotation |==|  0.36338 0.31710 0.24251 0.86274
USER: genes 2 Torsion [C]-CA--N-[C] |==|  0.84170
USER: genes 3 Torsion [N]-C--CA-[N] |==|  0.91410
USER: genes 4 Torsion [C]-CA--N-[H1] |==|  0.09211
USER: genes 5 Torsion [C]-CA--CB-[OG] |==|  0.02186
USER: genes 6 Torsion [CA]-CB--OG-[HG] |==|  0.40078
USER: genes 7 Torsion [N]-CA--C-[N] |==|  0.36116
USER: genes 8 Torsion [C]-N--CA-[C] |==|  0.22947
USER: genes 9 Torsion [N]-CA--C-[O] |==|  0.00825
USER: genes 10 Torsion [N]-CA--CB-[CG] |==|  0.52688
USER: genes 11 Torsion [CA]-CB--CG-[CD2] |==|  0.08545
USER: genes 12 Torsion [CE2]-CZ--OH-[HH] |==|  0.11947
ROOT
ATOM      1  CA  TYR Z  -4       7.007  18.091   6.845  1.00 44.41 LIG 0.18  C 
ENDROOT
BRANCH 1 2
ATOM      2  N   TYR Z  -4       7.865  19.258   7.010  1.00 49.32 LIG-0.35  N 
ATOM      3 H    TYR Z  -4       8.137  19.388   7.816  1.00 49.32 LIG 0.16  HD
ATOM      4  C   SER Z  -5       8.184  20.040   5.984  1.00 53.16 LIG 0.25  C 
ATOM      5 O    SER Z  -5       7.712  19.891   4.855  1.00 46.54 LIG-0.27  OA
BRANCH 4 6
ATOM      6  CA  SER Z  -5       9.184  21.154   6.271  1.00 61.82 LIG 0.30  C 
BRANCH 6 7
ATOM      7  N   SER Z  -5       9.051  21.609   7.650  1.00 64.85 LIG-0.06  N 
ATOM      8 H1   SER Z  -5       8.819  20.924   8.168  1.00 64.85 LIG 0.28  HD
ATOM      9 H3   SER Z  -5       8.426  22.240   7.696  1.00 64.85 LIG 0.28  HD
ATOM     10 H2   SER Z  -5       9.828  21.941   7.930  1.00 64.85 LIG 0.28  HD
ENDBRANCH 6 7
BRANCH 6 11
ATOM     11  CB  SER Z  -5      10.614  20.678   5.995  1.00 66.88 LIG 0.21  C 
BRANCH 11 12
ATOM     12 OG   SER Z  -5      10.624  19.399   5.379  1.00 63.67 LIG-0.40  OA
ATOM     13 HG   SER Z  -5      11.255  19.359   4.826  1.00 63.67 LIG 0.21  HD
ENDBRANCH 11 12
ENDBRANCH 6 11
ENDBRANCH 4 6
ENDBRANCH 1 2
BRANCH 1 14
ATOM     14  C   TYR Z  -4       5.665  18.476   6.242  1.00 48.17 LIG 0.24  C 
ATOM     15  N   GLY Z  -3       5.267  17.760   5.197  1.00 50.01 LIG-0.35  N 
ATOM     16 H    GLY Z  -3       5.701  17.087   4.884  1.00 50.01 LIG 0.16  HD
ATOM     17 O    TYR Z  -4       5.011  19.412   6.702  1.00 57.82 LIG-0.27  OA
BRANCH 15 18
ATOM     18  CA  GLY Z  -3       4.040  18.066   4.487  1.00 64.94 LIG 0.21  C 
BRANCH 18 19
ATOM     19  C   GLY Z  -3       4.228  19.173   3.469  1.00 70.96 LIG 0.21  C 
ATOM     20 O    GLY Z  -3       5.339  19.669   3.279  1.00 75.87 LIG-0.29  OA
ENDBRANCH 18 19
ENDBRANCH 15 18
ENDBRANCH 1 14
BRANCH 1 21
ATOM     21  CB  TYR Z  -4       6.826  17.375   8.190  1.00 44.24 LIG 0.07  C 
BRANCH 21 22
ATOM     22  CG  TYR Z  -4       6.142  16.036   8.029  1.00 50.17 LIG-0.06  A 
ATOM     23  CD2 TYR Z  -4       6.305  15.284   6.871  1.00 45.93 LIG 0.01  A 
ATOM     24  CE2 TYR Z  -4       5.701  14.048   6.731  1.00 43.59 LIG 0.04  A 
ATOM     25  CZ  TYR Z  -4       4.928  13.545   7.757  1.00 44.55 LIG 0.07  A 
ATOM     26  CE1 TYR Z  -4       4.758  14.267   8.920  1.00 43.60 LIG 0.04  A 
ATOM     27  CD1 TYR Z  -4       5.366  15.504   9.052  1.00 43.85 LIG 0.01  A 
BRANCH 25 28
ATOM     28 OH   TYR Z  -4       4.325  12.317   7.619  1.00 43.23 LIG-0.36  OA
ATOM     29 HH   TYR Z  -4       4.866  11.775   7.274  1.00 43.23 LIG 0.22  HD
ENDBRANCH 25 28
ENDBRANCH 21 22
ENDBRANCH 1 21
TORSDOF 11
ENDMDL
MODEL 92
USER: ADFR SOLUTION from run 108
USER: SCORE 8.185873 LL:  -1.386 LR:  -6.889 RR:   0.000 FEB:  -3.608
USER: RMSD 7.852831
USER: SEED 107
USER: STATUS no improvement in best in 22 clusters for 5 generations
USER: GENES 13
USER: genes 0 Translation |==|  0.60895 0.70198 0.48282
USER: genes 1 Rotation |==|  0.22753 0.69985 0.24548 0.76654
USER: genes 2 Torsion [C]-CA--N-[C] |==|  0.15129
USER: genes 3 Torsion [N]-C--CA-[N] |==|  0.94821
USER: genes 4 Torsion [C]-CA--N-[H1] |==|  0.21718
USER: genes 5 Torsion [C]-CA--CB-[OG] |==|  0.07102
USER: genes 6 Torsion [CA]-CB--OG-[HG] |==|  0.13120
USER: genes 7 Torsion [N]-CA--C-[N] |==|  0.08889
USER: genes 8 Torsion [C]-N--CA-[C] |==|  0.25616
USER: genes 9 Torsion [N]-CA--C-[O] |==|  0.63804
USER: genes 10 Torsion [N]-CA--CB-[CG] |==|  0.80110
USER: genes 11 Torsion [CA]-CB--CG-[CD2] |==|  0.70038
USER: genes 12 Torsion [CE2]-CZ--OH-[HH] |==|  0.72330
ROOT
ATOM      1  CA  TYR Z  -4       4.874  17.593   8.892  1.00 44.41 LIG 0.18  C 
ENDROOT
BRANCH 1 2
ATOM      2  N   TYR Z  -4       5.717  17.921   7.749  1.00 49.32 LIG-0.35  N 
ATOM      3 H    TYR Z  -4       5.321  17.864   6.987  1.00 49.32 LIG 0.16  HD
ATOM      4  C   SER Z  -5       6.989  18.276   7.900  1.00 53.16 LIG 0.25  C 
ATOM      5 O    SER Z  -5       7.564  18.264   8.990  1.00 46.54 LIG-0.27  OA
BRANCH 4 6
ATOM      6  CA  SER Z  -5       7.722  18.709   6.635  1.00 61.82 LIG 0.30  C 
BRANCH 6 7
ATOM      7  N   SER Z  -5       7.013  18.234   5.453  1.00 64.85 LIG-0.06  N 
ATOM      8 H1   SER Z  -5       6.311  18.759   5.296  1.00 64.85 LIG 0.28  HD
ATOM      9 H3   SER Z  -5       6.734  17.400   5.589  1.00 64.85 LIG 0.28  HD
ATOM     10 H2   SER Z  -5       7.559  18.253   4.751  1.00 64.85 LIG 0.28  HD
ENDBRANCH 6 7
BRANCH 6 11
ATOM     11  CB  SER Z  -5       7.876  20.233   6.598  1.00 66.88 LIG 0.21  C 
BRANCH 11 12
ATOM     12 OG   SER Z  -5       7.858  20.787   7.904  1.00 63.67 LIG-0.40  OA
ATOM     13 HG   SER Z  -5       8.372  20.347   8.402  1.00 63.67 LIG 0.21  HD
ENDBRANCH 11 12
ENDBRANCH 6 11
ENDBRANCH 4 6
ENDBRANCH 1 2
BRANCH 1 14
ATOM     14  C   TYR Z  -4       4.870  18.719   9.914  1.00 48.17 LIG 0.24  C 
ATOM     15  N   GLY Z  -3       4.999  19.949   9.428  1.00 50.01 LIG-0.35  N 
ATOM     16 H    GLY Z  -3       5.042  20.131   8.589  1.00 50.01 LIG 0.16  HD
ATOM     17 O    TYR Z  -4       4.770  18.481  11.117  1.00 57.82 LIG-0.27  OA
BRANCH 15 18
ATOM     18  CA  GLY Z  -3       5.080  21.107  10.298  1.00 64.94 LIG 0.21  C 
BRANCH 18 19
ATOM     19  C   GLY Z  -3       6.511  21.467  10.641  1.00 70.96 LIG 0.21  C 
ATOM     20 O    GLY Z  -3       6.847  21.657  11.811  1.00 75.87 LIG-0.29  OA
ENDBRANCH 18 19
ENDBRANCH 15 18
ENDBRANCH 1 14
BRANCH 1 21
ATOM     21  CB  TYR Z  -4       5.334  16.273   9.524  1.00 44.24 LIG 0.07  C 
BRANCH 21 22
ATOM     22  CG  TYR Z  -4       4.998  15.083   8.652  1.00 50.17 LIG-0.06  A 
ATOM     23  CD2 TYR Z  -4       3.988  14.197   9.009  1.00 45.93 LIG 0.01  A 
ATOM     24  CE2 TYR Z  -4       3.662  13.122   8.202  1.00 43.59 LIG 0.04  A 
ATOM     25  CZ  TYR Z  -4       4.344  12.925   7.019  1.00 44.55 LIG 0.07  A 
ATOM     26  CE1 TYR Z  -4       5.345  13.795   6.638  1.00 43.60 LIG 0.04  A 
ATOM     27  CD1 TYR Z  -4       5.664  14.868   7.452  1.00 43.85 LIG 0.01  A 
BRANCH 25 28
ATOM     28 OH   TYR Z  -4       4.023  11.857   6.215  1.00 43.23 LIG-0.36  OA
ATOM     29 HH   TYR Z  -4       4.575  11.235   6.340  1.00 43.23 LIG 0.22  HD
ENDBRANCH 25 28
ENDBRANCH 21 22
ENDBRANCH 1 21
TORSDOF 11
ENDMDL
MODEL 93
USER: ADFR SOLUTION from run 32
USER: SCORE 8.252947 LL:  -1.504 LR:  -6.867 RR:   0.000 FEB:  -3.586
USER: RMSD 6.309713
USER: SEED 31
USER: STATUS no improvement in best in 17 clusters for 5 generations
USER: GENES 13
USER: genes 0 Translation |==|  0.52689 0.59144 0.56117
USER: genes 1 Rotation |==|  0.19803 0.16457 0.68230 0.61430
USER: genes 2 Torsion [C]-CA--N-[C] |==|  0.60011
USER: genes 3 Torsion [N]-C--CA-[N] |==|  0.40210
USER: genes 4 Torsion [C]-CA--N-[H1] |==|  0.58753
USER: genes 5 Torsion [C]-CA--CB-[OG] |==|  0.22067
USER: genes 6 Torsion [CA]-CB--OG-[HG] |==|  0.53383
USER: genes 7 Torsion [N]-CA--C-[N] |==|  0.42244
USER: genes 8 Torsion [C]-N--CA-[C] |==|  0.59566
USER: genes 9 Torsion [N]-CA--C-[O] |==|  0.93991
USER: genes 10 Torsion [N]-CA--CB-[CG] |==|  0.62614
USER: genes 11 Torsion [CA]-CB--CG-[CD2] |==|  0.28033
USER: genes 12 Torsion [CE2]-CZ--OH-[HH] |==|  0.71894
ROOT
ATOM      1  CA  TYR Z  -4       3.520  15.686  10.068  1.00 44.41 LIG 0.18  C 
ENDROOT
BRANCH 1 2
ATOM      2  N   TYR Z  -4       3.749  15.201   8.712  1.00 49.32 LIG-0.35  N 
ATOM      3 H    TYR Z  -4       3.101  14.742   8.384  1.00 49.32 LIG 0.16  HD
ATOM      4  C   SER Z  -5       4.878  15.462   8.061  1.00 53.16 LIG 0.25  C 
ATOM      5 O    SER Z  -5       5.833  16.044   8.579  1.00 46.54 LIG-0.27  OA
BRANCH 4 6
ATOM      6  CA  SER Z  -5       4.941  15.000   6.609  1.00 61.82 LIG 0.30  C 
BRANCH 6 7
ATOM      7  N   SER Z  -5       5.701  15.952   5.808  1.00 64.85 LIG-0.06  N 
ATOM      8 H1   SER Z  -5       5.382  15.965   4.978  1.00 64.85 LIG 0.28  HD
ATOM      9 H3   SER Z  -5       6.557  15.711   5.792  1.00 64.85 LIG 0.28  HD
ATOM     10 H2   SER Z  -5       5.629  16.764   6.165  1.00 64.85 LIG 0.28  HD
ENDBRANCH 6 7
BRANCH 6 11
ATOM     11  CB  SER Z  -5       5.559  13.601   6.516  1.00 66.88 LIG 0.21  C 
BRANCH 11 12
ATOM     12 OG   SER Z  -5       4.614  12.594   6.844  1.00 63.67 LIG-0.40  OA
ATOM     13 HG   SER Z  -5       5.010  11.861   6.949  1.00 63.67 LIG 0.21  HD
ENDBRANCH 11 12
ENDBRANCH 6 11
ENDBRANCH 4 6
ENDBRANCH 1 2
BRANCH 1 14
ATOM     14  C   TYR Z  -4       2.740  14.673  10.890  1.00 48.17 LIG 0.24  C 
ATOM     15  N   GLY Z  -3       2.951  14.698  12.201  1.00 50.01 LIG-0.35  N 
ATOM     16 H    GLY Z  -3       3.460  15.268  12.594  1.00 50.01 LIG 0.16  HD
ATOM     17 O    TYR Z  -4       1.976  13.873  10.349  1.00 57.82 LIG-0.27  OA
BRANCH 15 18
ATOM     18  CA  GLY Z  -3       2.323  13.740  13.092  1.00 64.94 LIG 0.21  C 
BRANCH 18 19
ATOM     19  C   GLY Z  -3       1.983  14.348  14.437  1.00 70.96 LIG 0.21  C 
ATOM     20 O    GLY Z  -3       2.562  15.359  14.835  1.00 75.87 LIG-0.29  OA
ENDBRANCH 18 19
ENDBRANCH 15 18
ENDBRANCH 1 14
BRANCH 1 21
ATOM     21  CB  TYR Z  -4       2.798  17.040  10.027  1.00 44.24 LIG 0.07  C 
BRANCH 21 22
ATOM     22  CG  TYR Z  -4       3.419  18.039  10.978  1.00 50.17 LIG-0.06  A 
ATOM     23  CD2 TYR Z  -4       4.283  19.025  10.517  1.00 45.93 LIG 0.01  A 
ATOM     24  CE2 TYR Z  -4       4.833  19.956  11.380  1.00 43.59 LIG 0.04  A 
ATOM     25  CZ  TYR Z  -4       4.516  19.912  12.722  1.00 44.55 LIG 0.07  A 
ATOM     26  CE1 TYR Z  -4       3.654  18.949  13.204  1.00 43.60 LIG 0.04  A 
ATOM     27  CD1 TYR Z  -4       3.108  18.022  12.333  1.00 43.85 LIG 0.01  A 
BRANCH 25 28
ATOM     28 OH   TYR Z  -4       5.063  20.835  13.583  1.00 43.23 LIG-0.36  OA
ATOM     29 HH   TYR Z  -4       5.701  20.484  14.003  1.00 43.23 LIG 0.22  HD
ENDBRANCH 25 28
ENDBRANCH 21 22
ENDBRANCH 1 21
TORSDOF 11
ENDMDL
MODEL 94
USER: ADFR SOLUTION from run 157
USER: SCORE 8.441229 LL:  -1.641 LR:  -6.861 RR:   0.000 FEB:  -3.579
USER: RMSD 9.257921
USER: SEED 156
USER: STATUS no improvement in best in 33 clusters for 5 generations
USER: GENES 13
USER: genes 0 Translation |==|  0.79755 0.81277 0.29775
USER: genes 1 Rotation |==|  0.83124 0.20557 0.70531 0.60695
USER: genes 2 Torsion [C]-CA--N-[C] |==|  0.78566
USER: genes 3 Torsion [N]-C--CA-[N] |==|  0.83341
USER: genes 4 Torsion [C]-CA--N-[H1] |==|  0.31307
USER: genes 5 Torsion [C]-CA--CB-[OG] |==|  0.83546
USER: genes 6 Torsion [CA]-CB--OG-[HG] |==|  0.87156
USER: genes 7 Torsion [N]-CA--C-[N] |==|  0.92673
USER: genes 8 Torsion [C]-N--CA-[C] |==|  0.55064
USER: genes 9 Torsion [N]-CA--C-[O] |==|  0.99906
USER: genes 10 Torsion [N]-CA--CB-[CG] |==|  0.83946
USER: genes 11 Torsion [CA]-CB--CG-[CD2] |==|  0.78994
USER: genes 12 Torsion [CE2]-CZ--OH-[HH] |==|  0.76773
ROOT
ATOM      1  CA  TYR Z  -4       7.986  19.504   6.116  1.00 44.41 LIG 0.18  C 
ENDROOT
BRANCH 1 2
ATOM      2  N   TYR Z  -4       7.094  18.848   5.167  1.00 49.32 LIG-0.35  N 
ATOM      3 H    TYR Z  -4       7.158  17.990   5.154  1.00 49.32 LIG 0.16  HD
ATOM      4  C   SER Z  -5       6.262  19.542   4.399  1.00 53.16 LIG 0.25  C 
ATOM      5 O    SER Z  -5       6.248  20.774   4.365  1.00 46.54 LIG-0.27  OA
BRANCH 4 6
ATOM      6  CA  SER Z  -5       5.300  18.728   3.539  1.00 61.82 LIG 0.30  C 
BRANCH 6 7
ATOM      7  N   SER Z  -5       6.045  17.864   2.630  1.00 64.85 LIG-0.06  N 
ATOM      8 H1   SER Z  -5       5.918  17.013   2.857  1.00 64.85 LIG 0.28  HD
ATOM      9 H3   SER Z  -5       6.912  18.058   2.680  1.00 64.85 LIG 0.28  HD
ATOM     10 H2   SER Z  -5       5.760  17.994   1.797  1.00 64.85 LIG 0.28  HD
ENDBRANCH 6 7
BRANCH 6 11
ATOM     11  CB  SER Z  -5       4.360  17.901   4.421  1.00 66.88 LIG 0.21  C 
BRANCH 11 12
ATOM     12 OG   SER Z  -5       5.083  17.010   5.257  1.00 63.67 LIG-0.40  OA
ATOM     13 HG   SER Z  -5       5.670  16.615   4.804  1.00 63.67 LIG 0.21  HD
ENDBRANCH 11 12
ENDBRANCH 6 11
ENDBRANCH 4 6
ENDBRANCH 1 2
BRANCH 1 14
ATOM     14  C   TYR Z  -4       9.183  20.120   5.410  1.00 48.17 LIG 0.24  C 
ATOM     15  N   GLY Z  -3       9.537  19.555   4.262  1.00 50.01 LIG-0.35  N 
ATOM     16 H    GLY Z  -3       9.109  18.907   3.894  1.00 50.01 LIG 0.16  HD
ATOM     17 O    TYR Z  -4       9.785  21.074   5.902  1.00 57.82 LIG-0.27  OA
BRANCH 15 18
ATOM     18  CA  GLY Z  -3      10.703  20.001   3.521  1.00 64.94 LIG 0.21  C 
BRANCH 18 19
ATOM     19  C   GLY Z  -3      10.672  19.547   2.076  1.00 70.96 LIG 0.21  C 
ATOM     20 O    GLY Z  -3       9.734  18.873   1.650  1.00 75.87 LIG-0.29  OA
ENDBRANCH 18 19
ENDBRANCH 15 18
ENDBRANCH 1 14
BRANCH 1 21
ATOM     21  CB  TYR Z  -4       8.430  18.509   7.197  1.00 44.24 LIG 0.07  C 
BRANCH 21 22
ATOM     22  CG  TYR Z  -4       7.251  17.913   7.934  1.00 50.17 LIG-0.06  A 
ATOM     23  CD2 TYR Z  -4       6.557  18.650   8.887  1.00 45.93 LIG 0.01  A 
ATOM     24  CE2 TYR Z  -4       5.464  18.117   9.545  1.00 43.59 LIG 0.04  A 
ATOM     25  CZ  TYR Z  -4       5.047  16.836   9.250  1.00 44.55 LIG 0.07  A 
ATOM     26  CE1 TYR Z  -4       5.713  16.087   8.301  1.00 43.60 LIG 0.04  A 
ATOM     27  CD1 TYR Z  -4       6.806  16.628   7.647  1.00 43.85 LIG 0.01  A 
BRANCH 25 28
ATOM     28 OH   TYR Z  -4       3.961  16.302   9.904  1.00 43.23 LIG-0.36  OA
ATOM     29 HH   TYR Z  -4       4.206  15.985  10.643  1.00 43.23 LIG 0.22  HD
ENDBRANCH 25 28
ENDBRANCH 21 22
ENDBRANCH 1 21
TORSDOF 11
ENDMDL
MODEL 95
USER: ADFR SOLUTION from run 173
USER: SCORE 8.485125 LL:  -1.685 LR:  -6.845 RR:   0.000 FEB:  -3.564
USER: RMSD 7.582097
USER: SEED 172
USER: STATUS no improvement in best in 35 clusters for 5 generations
USER: GENES 13
USER: genes 0 Translation |==|  0.54653 0.74695 0.57949
USER: genes 1 Rotation |==|  0.44040 0.74101 0.19212 0.80590
USER: genes 2 Torsion [C]-CA--N-[C] |==|  0.72259
USER: genes 3 Torsion [N]-C--CA-[N] |==|  0.78876
USER: genes 4 Torsion [C]-CA--N-[H1] |==|  0.01978
USER: genes 5 Torsion [C]-CA--CB-[OG] |==|  0.49105
USER: genes 6 Torsion [CA]-CB--OG-[HG] |==|  0.07828
USER: genes 7 Torsion [N]-CA--C-[N] |==|  0.99555
USER: genes 8 Torsion [C]-N--CA-[C] |==|  0.63486
USER: genes 9 Torsion [N]-CA--C-[O] |==|  0.96272
USER: genes 10 Torsion [N]-CA--CB-[CG] |==|  0.91099
USER: genes 11 Torsion [CA]-CB--CG-[CD2] |==|  0.83899
USER: genes 12 Torsion [CE2]-CZ--OH-[HH] |==|  0.08859
ROOT
ATOM      1  CA  TYR Z  -4       3.844  18.369  10.342  1.00 44.41 LIG 0.18  C 
ENDROOT
BRANCH 1 2
ATOM      2  N   TYR Z  -4       5.251  18.557  10.012  1.00 49.32 LIG-0.35  N 
ATOM      3 H    TYR Z  -4       5.774  17.950  10.324  1.00 49.32 LIG 0.16  HD
ATOM      4  C   SER Z  -5       5.664  19.591   9.287  1.00 53.16 LIG 0.25  C 
ATOM      5 O    SER Z  -5       4.914  20.500   8.925  1.00 46.54 LIG-0.27  OA
BRANCH 4 6
ATOM      6  CA  SER Z  -5       7.143  19.604   8.912  1.00 61.82 LIG 0.30  C 
BRANCH 6 7
ATOM      7  N   SER Z  -5       7.951  19.993  10.062  1.00 64.85 LIG-0.06  N 
ATOM      8 H1   SER Z  -5       7.434  20.048  10.784  1.00 64.85 LIG 0.28  HD
ATOM      9 H3   SER Z  -5       8.327  20.785   9.906  1.00 64.85 LIG 0.28  HD
ATOM     10 H2   SER Z  -5       8.586  19.385  10.198  1.00 64.85 LIG 0.28  HD
ENDBRANCH 6 7
BRANCH 6 11
ATOM     11  CB  SER Z  -5       7.576  18.231   8.387  1.00 66.88 LIG 0.21  C 
BRANCH 11 12
ATOM     12 OG   SER Z  -5       8.930  18.242   7.964  1.00 63.67 LIG-0.40  OA
ATOM     13 HG   SER Z  -5       9.356  18.821   8.400  1.00 63.67 LIG 0.21  HD
ENDBRANCH 11 12
ENDBRANCH 6 11
ENDBRANCH 4 6
ENDBRANCH 1 2
BRANCH 1 14
ATOM     14  C   TYR Z  -4       3.542  18.844  11.755  1.00 48.17 LIG 0.24  C 
ATOM     15  N   GLY Z  -3       4.576  19.305  12.449  1.00 50.01 LIG-0.35  N 
ATOM     16 H    GLY Z  -3       5.371  19.382  12.131  1.00 50.01 LIG 0.16  HD
ATOM     17 O    TYR Z  -4       2.402  18.778  12.214  1.00 57.82 LIG-0.27  OA
BRANCH 15 18
ATOM     18  CA  GLY Z  -3       4.439  19.726  13.831  1.00 64.94 LIG 0.21  C 
BRANCH 18 19
ATOM     19  C   GLY Z  -3       5.066  21.082  14.082  1.00 70.96 LIG 0.21  C 
ATOM     20 O    GLY Z  -3       5.819  21.589  13.250  1.00 75.87 LIG-0.29  OA
ENDBRANCH 18 19
ENDBRANCH 15 18
ENDBRANCH 1 14
BRANCH 1 21
ATOM     21  CB  TYR Z  -4       3.451  16.897  10.157  1.00 44.24 LIG 0.07  C 
BRANCH 21 22
ATOM     22  CG  TYR Z  -4       4.234  16.241   9.041  1.00 50.17 LIG-0.06  A 
ATOM     23  CD2 TYR Z  -4       4.197  16.747   7.747  1.00 45.93 LIG 0.01  A 
ATOM     24  CE2 TYR Z  -4       4.931  16.165   6.730  1.00 43.59 LIG 0.04  A 
ATOM     25  CZ  TYR Z  -4       5.720  15.067   7.000  1.00 44.55 LIG 0.07  A 
ATOM     26  CE1 TYR Z  -4       5.782  14.550   8.278  1.00 43.60 LIG 0.04  A 
ATOM     27  CD1 TYR Z  -4       5.044  15.139   9.290  1.00 43.85 LIG 0.01  A 
BRANCH 25 28
ATOM     28 OH   TYR Z  -4       6.450  14.484   5.990  1.00 43.23 LIG-0.36  OA
ATOM     29 HH   TYR Z  -4       6.682  15.072   5.436  1.00 43.23 LIG 0.22  HD
ENDBRANCH 25 28
ENDBRANCH 21 22
ENDBRANCH 1 21
TORSDOF 11
ENDMDL
MODEL 96
USER: ADFR SOLUTION from run 180
USER: SCORE 8.167669 LL:  -1.333 LR:  -6.843 RR:   0.000 FEB:  -3.561
USER: RMSD 7.739519
USER: SEED 179
USER: STATUS no improvement in best in 30 clusters for 5 generations
USER: GENES 13
USER: genes 0 Translation |==|  0.62073 0.76346 0.62892
USER: genes 1 Rotation |==|  0.36546 0.08761 0.30343 0.65228
USER: genes 2 Torsion [C]-CA--N-[C] |==|  0.84349
USER: genes 3 Torsion [N]-C--CA-[N] |==|  0.64520
USER: genes 4 Torsion [C]-CA--N-[H1] |==|  0.26875
USER: genes 5 Torsion [C]-CA--CB-[OG] |==|  0.20474
USER: genes 6 Torsion [CA]-CB--OG-[HG] |==|  0.91546
USER: genes 7 Torsion [N]-CA--C-[N] |==|  0.38313
USER: genes 8 Torsion [C]-N--CA-[C] |==|  0.45900
USER: genes 9 Torsion [N]-CA--C-[O] |==|  0.01704
USER: genes 10 Torsion [N]-CA--CB-[CG] |==|  0.62138
USER: genes 11 Torsion [CA]-CB--CG-[CD2] |==|  0.75452
USER: genes 12 Torsion [CE2]-CZ--OH-[HH] |==|  0.27028
ROOT
ATOM      1  CA  TYR Z  -4       5.068  18.654  11.084  1.00 44.41 LIG 0.18  C 
ENDROOT
BRANCH 1 2
ATOM      2  N   TYR Z  -4       5.870  19.870  11.024  1.00 49.32 LIG-0.35  N 
ATOM      3 H    TYR Z  -4       5.494  20.561  11.371  1.00 49.32 LIG 0.16  HD
ATOM      4  C   SER Z  -5       7.079  19.881  10.473  1.00 53.16 LIG 0.25  C 
ATOM      5 O    SER Z  -5       7.565  18.904   9.900  1.00 46.54 LIG-0.27  OA
BRANCH 4 6
ATOM      6  CA  SER Z  -5       7.859  21.187  10.585  1.00 61.82 LIG 0.30  C 
BRANCH 6 7
ATOM      7  N   SER Z  -5       8.326  21.609   9.269  1.00 64.85 LIG-0.06  N 
ATOM      8 H1   SER Z  -5       7.759  22.205   8.929  1.00 64.85 LIG 0.28  HD
ATOM      9 H3   SER Z  -5       8.373  20.903   8.730  1.00 64.85 LIG 0.28  HD
ATOM     10 H2   SER Z  -5       9.132  21.978   9.345  1.00 64.85 LIG 0.28  HD
ENDBRANCH 6 7
BRANCH 6 11
ATOM     11  CB  SER Z  -5       6.993  22.276  11.226  1.00 66.88 LIG 0.21  C 
BRANCH 11 12
ATOM     12 OG   SER Z  -5       6.835  22.059  12.619  1.00 63.67 LIG-0.40  OA
ATOM     13 HG   SER Z  -5       6.860  21.234  12.779  1.00 63.67 LIG 0.21  HD
ENDBRANCH 11 12
ENDBRANCH 6 11
ENDBRANCH 4 6
ENDBRANCH 1 2
BRANCH 1 14
ATOM     14  C   TYR Z  -4       4.860  18.063   9.698  1.00 48.17 LIG 0.24  C 
ATOM     15  N   GLY Z  -3       4.971  16.743   9.604  1.00 50.01 LIG-0.35  N 
ATOM     16 H    GLY Z  -3       5.109  16.224  10.275  1.00 50.01 LIG 0.16  HD
ATOM     17 O    TYR Z  -4       4.623  18.787   8.732  1.00 57.82 LIG-0.27  OA
BRANCH 15 18
ATOM     18  CA  GLY Z  -3       4.863  16.059   8.329  1.00 64.94 LIG 0.21  C 
BRANCH 18 19
ATOM     19  C   GLY Z  -3       5.368  14.632   8.399  1.00 70.96 LIG 0.21  C 
ATOM     20 O    GLY Z  -3       5.700  14.137   9.477  1.00 75.87 LIG-0.29  OA
ENDBRANCH 18 19
ENDBRANCH 15 18
ENDBRANCH 1 14
BRANCH 1 21
ATOM     21  CB  TYR Z  -4       3.726  18.941  11.771  1.00 44.24 LIG 0.07  C 
BRANCH 21 22
ATOM     22  CG  TYR Z  -4       3.357  17.858  12.761  1.00 50.17 LIG-0.06  A 
ATOM     23  CD2 TYR Z  -4       2.642  16.736  12.360  1.00 45.93 LIG 0.01  A 
ATOM     24  CE2 TYR Z  -4       2.323  15.733  13.257  1.00 43.59 LIG 0.04  A 
ATOM     25  CZ  TYR Z  -4       2.725  15.840  14.572  1.00 44.55 LIG 0.07  A 
ATOM     26  CE1 TYR Z  -4       3.444  16.940  14.994  1.00 43.60 LIG 0.04  A 
ATOM     27  CD1 TYR Z  -4       3.759  17.939  14.089  1.00 43.85 LIG 0.01  A 
BRANCH 25 28
ATOM     28 OH   TYR Z  -4       2.409  14.845  15.467  1.00 43.23 LIG-0.36  OA
ATOM     29 HH   TYR Z  -4       3.062  14.322  15.548  1.00 43.23 LIG 0.22  HD
ENDBRANCH 25 28
ENDBRANCH 21 22
ENDBRANCH 1 21
TORSDOF 11
ENDMDL
MODEL 97
USER: ADFR SOLUTION from run 194
USER: SCORE 7.977148 LL:  -1.352 LR:  -6.843 RR:   0.000 FEB:  -3.562
USER: RMSD 6.293553
USER: SEED 193
USER: STATUS no improvement in best in 37 clusters for 5 generations
USER: GENES 13
USER: genes 0 Translation |==|  0.63211 0.61691 0.44472
USER: genes 1 Rotation |==|  0.34747 0.03987 0.40476 0.57708
USER: genes 2 Torsion [C]-CA--N-[C] |==|  0.54453
USER: genes 3 Torsion [N]-C--CA-[N] |==|  0.53577
USER: genes 4 Torsion [C]-CA--N-[H1] |==|  0.50504
USER: genes 5 Torsion [C]-CA--CB-[OG] |==|  0.80888
USER: genes 6 Torsion [CA]-CB--OG-[HG] |==|  0.82818
USER: genes 7 Torsion [N]-CA--C-[N] |==|  0.48312
USER: genes 8 Torsion [C]-N--CA-[C] |==|  0.75246
USER: genes 9 Torsion [N]-CA--C-[O] |==|  0.57801
USER: genes 10 Torsion [N]-CA--CB-[CG] |==|  0.64121
USER: genes 11 Torsion [CA]-CB--CG-[CD2] |==|  0.31374
USER: genes 12 Torsion [CE2]-CZ--OH-[HH] |==|  0.74150
ROOT
ATOM      1  CA  TYR Z  -4       5.256  16.126   8.321  1.00 44.41 LIG 0.18  C 
ENDROOT
BRANCH 1 2
ATOM      2  N   TYR Z  -4       6.112  17.185   7.801  1.00 49.32 LIG-0.35  N 
ATOM      3 H    TYR Z  -4       6.320  17.100   6.971  1.00 49.32 LIG 0.16  HD
ATOM      4  C   SER Z  -5       6.522  18.189   8.569  1.00 53.16 LIG 0.25  C 
ATOM      5 O    SER Z  -5       6.290  18.248   9.778  1.00 46.54 LIG-0.27  OA
BRANCH 4 6
ATOM      6  CA  SER Z  -5       7.311  19.292   7.872  1.00 61.82 LIG 0.30  C 
BRANCH 6 7
ATOM      7  N   SER Z  -5       7.951  20.155   8.858  1.00 64.85 LIG-0.06  N 
ATOM      8 H1   SER Z  -5       8.387  20.810   8.443  1.00 64.85 LIG 0.28  HD
ATOM      9 H3   SER Z  -5       8.525  19.679   9.343  1.00 64.85 LIG 0.28  HD
ATOM     10 H2   SER Z  -5       7.332  20.505   9.393  1.00 64.85 LIG 0.28  HD
ENDBRANCH 6 7
BRANCH 6 11
ATOM     11  CB  SER Z  -5       8.354  18.690   6.924  1.00 66.88 LIG 0.21  C 
BRANCH 11 12
ATOM     12 OG   SER Z  -5       9.389  18.035   7.641  1.00 63.67 LIG-0.40  OA
ATOM     13 HG   SER Z  -5       9.790  18.592   8.125  1.00 63.67 LIG 0.21  HD
ENDBRANCH 11 12
ENDBRANCH 6 11
ENDBRANCH 4 6
ENDBRANCH 1 2
BRANCH 1 14
ATOM     14  C   TYR Z  -4       5.248  14.920   7.394  1.00 48.17 LIG 0.24  C 
ATOM     15  N   GLY Z  -3       4.599  13.849   7.835  1.00 50.01 LIG-0.35  N 
ATOM     16 H    GLY Z  -3       4.165  13.823   8.576  1.00 50.01 LIG 0.16  HD
ATOM     17 O    TYR Z  -4       5.832  14.952   6.311  1.00 57.82 LIG-0.27  OA
BRANCH 15 18
ATOM     18  CA  GLY Z  -3       4.573  12.611   7.080  1.00 64.94 LIG 0.21  C 
BRANCH 18 19
ATOM     19  C   GLY Z  -3       3.416  12.560   6.103  1.00 70.96 LIG 0.21  C 
ATOM     20 O    GLY Z  -3       2.923  11.481   5.769  1.00 75.87 LIG-0.29  OA
ENDBRANCH 18 19
ENDBRANCH 15 18
ENDBRANCH 1 14
BRANCH 1 21
ATOM     21  CB  TYR Z  -4       3.835  16.660   8.548  1.00 44.24 LIG 0.07  C 
BRANCH 21 22
ATOM     22  CG  TYR Z  -4       3.327  16.340   9.936  1.00 50.17 LIG-0.06  A 
ATOM     23  CD2 TYR Z  -4       3.100  17.348  10.865  1.00 45.93 LIG 0.01  A 
ATOM     24  CE2 TYR Z  -4       2.612  17.061  12.127  1.00 43.59 LIG 0.04  A 
ATOM     25  CZ  TYR Z  -4       2.337  15.754  12.471  1.00 44.55 LIG 0.07  A 
ATOM     26  CE1 TYR Z  -4       2.544  14.735  11.564  1.00 43.60 LIG 0.04  A 
ATOM     27  CD1 TYR Z  -4       3.033  15.032  10.304  1.00 43.85 LIG 0.01  A 
BRANCH 25 28
ATOM     28 OH   TYR Z  -4       1.853  15.465  13.726  1.00 43.23 LIG-0.36  OA
ATOM     29 HH   TYR Z  -4       2.493  15.280  14.238  1.00 43.23 LIG 0.22  HD
ENDBRANCH 25 28
ENDBRANCH 21 22
ENDBRANCH 1 21
TORSDOF 11
ENDMDL
MODEL 98
USER: ADFR SOLUTION from run 8
USER: SCORE 7.959088 LL:  -1.585 LR:  -6.827 RR:   0.000 FEB:  -3.545
USER: RMSD 2.629862
USER: SEED 15872
USER: STATUS no improvement in best in 17 clusters for 5 generations
USER: GENES 13
USER: genes 0 Translation |==|  0.39106 0.41147 0.42792
USER: genes 1 Rotation |==|  0.64897 0.66882 0.42894 0.94075
USER: genes 2 Torsion [C]-CA--N-[C] |==|  0.63560
USER: genes 3 Torsion [N]-C--CA-[N] |==|  0.44780
USER: genes 4 Torsion [C]-CA--N-[H1] |==|  0.71801
USER: genes 5 Torsion [C]-CA--CB-[OG] |==|  0.58203
USER: genes 6 Torsion [CA]-CB--OG-[HG] |==|  0.84481
USER: genes 7 Torsion [N]-CA--C-[N] |==|  0.90563
USER: genes 8 Torsion [C]-N--CA-[C] |==|  0.32392
USER: genes 9 Torsion [N]-CA--C-[O] |==|  0.27028
USER: genes 10 Torsion [N]-CA--CB-[CG] |==|  0.87654
USER: genes 11 Torsion [CA]-CB--CG-[CD2] |==|  0.23078
USER: genes 12 Torsion [CE2]-CZ--OH-[HH] |==|  0.46847
ROOT
ATOM      1  CA  TYR Z  -4       1.278  12.582   8.069  1.00 44.41 LIG 0.18  C 
ENDROOT
BRANCH 1 2
ATOM      2  N   TYR Z  -4       1.972  13.036   9.268  1.00 49.32 LIG-0.35  N 
ATOM      3 H    TYR Z  -4       2.234  12.403   9.788  1.00 49.32 LIG 0.16  HD
ATOM      4  C   SER Z  -5       2.168  14.327   9.513  1.00 53.16 LIG 0.25  C 
ATOM      5 O    SER Z  -5       1.706  15.223   8.804  1.00 46.54 LIG-0.27  OA
BRANCH 4 6
ATOM      6  CA  SER Z  -5       3.011  14.660  10.740  1.00 61.82 LIG 0.30  C 
BRANCH 6 7
ATOM      7  N   SER Z  -5       3.515  16.026  10.650  1.00 64.85 LIG-0.06  N 
ATOM      8 H1   SER Z  -5       4.366  16.013  10.392  1.00 64.85 LIG 0.28  HD
ATOM      9 H3   SER Z  -5       3.453  16.418  11.446  1.00 64.85 LIG 0.28  HD
ATOM     10 H2   SER Z  -5       3.033  16.482  10.057  1.00 64.85 LIG 0.28  HD
ENDBRANCH 6 7
BRANCH 6 11
ATOM     11  CB  SER Z  -5       2.194  14.469  12.022  1.00 66.88 LIG 0.21  C 
BRANCH 11 12
ATOM     12 OG   SER Z  -5       2.629  15.345  13.049  1.00 63.67 LIG-0.40  OA
ATOM     13 HG   SER Z  -5       3.451  15.234  13.184  1.00 63.67 LIG 0.21  HD
ENDBRANCH 11 12
ENDBRANCH 6 11
ENDBRANCH 4 6
ENDBRANCH 1 2
BRANCH 1 14
ATOM     14  C   TYR Z  -4       0.198  11.567   8.408  1.00 48.17 LIG 0.24  C 
ATOM     15  N   GLY Z  -3       0.458  10.758   9.429  1.00 50.01 LIG-0.35  N 
ATOM     16 H    GLY Z  -3       1.167  10.808   9.913  1.00 50.01 LIG 0.16  HD
ATOM     17 O    TYR Z  -4      -0.840  11.505   7.751  1.00 57.82 LIG-0.27  OA
BRANCH 15 18
ATOM     18  CA  GLY Z  -3      -0.457   9.700   9.814  1.00 64.94 LIG 0.21  C 
BRANCH 18 19
ATOM     19  C   GLY Z  -3       0.157   8.324   9.654  1.00 70.96 LIG 0.21  C 
ATOM     20 O    GLY Z  -3       0.658   7.744  10.618  1.00 75.87 LIG-0.29  OA
ENDBRANCH 18 19
ENDBRANCH 15 18
ENDBRANCH 1 14
BRANCH 1 21
ATOM     21  CB  TYR Z  -4       2.286  12.005   7.065  1.00 44.24 LIG 0.07  C 
BRANCH 21 22
ATOM     22  CG  TYR Z  -4       3.514  12.878   6.933  1.00 50.17 LIG-0.06  A 
ATOM     23  CD2 TYR Z  -4       4.563  12.777   7.840  1.00 45.93 LIG 0.01  A 
ATOM     24  CE2 TYR Z  -4       5.699  13.556   7.708  1.00 43.59 LIG 0.04  A 
ATOM     25  CZ  TYR Z  -4       5.799  14.445   6.658  1.00 44.55 LIG 0.07  A 
ATOM     26  CE1 TYR Z  -4       4.776  14.557   5.739  1.00 43.60 LIG 0.04  A 
ATOM     27  CD1 TYR Z  -4       3.643  13.773   5.878  1.00 43.85 LIG 0.01  A 
BRANCH 25 28
ATOM     28 OH   TYR Z  -4       6.926  15.222   6.525  1.00 43.23 LIG-0.36  OA
ATOM     29 HH   TYR Z  -4       6.923  15.595   5.772  1.00 43.23 LIG 0.22  HD
ENDBRANCH 25 28
ENDBRANCH 21 22
ENDBRANCH 1 21
TORSDOF 11
ENDMDL
MODEL 99
USER: ADFR SOLUTION from run 144
USER: SCORE 8.306602 LL:  -1.554 LR:  -6.821 RR:   0.000 FEB:  -3.539
USER: RMSD 5.828117
USER: SEED 143
USER: STATUS no improvement in best in 39 clusters for 5 generations
USER: GENES 13
USER: genes 0 Translation |==|  0.44285 0.37941 0.30180
USER: genes 1 Rotation |==|  0.96488 0.40338 0.60615 0.61525
USER: genes 2 Torsion [C]-CA--N-[C] |==|  0.78902
USER: genes 3 Torsion [N]-C--CA-[N] |==|  0.81649
USER: genes 4 Torsion [C]-CA--N-[H1] |==|  0.76805
USER: genes 5 Torsion [C]-CA--CB-[OG] |==|  0.57539
USER: genes 6 Torsion [CA]-CB--OG-[HG] |==|  0.20369
USER: genes 7 Torsion [N]-CA--C-[N] |==|  0.91320
USER: genes 8 Torsion [C]-N--CA-[C] |==|  0.20286
USER: genes 9 Torsion [N]-CA--C-[O] |==|  0.07094
USER: genes 10 Torsion [N]-CA--CB-[CG] |==|  0.54983
USER: genes 11 Torsion [CA]-CB--CG-[CD2] |==|  0.21739
USER: genes 12 Torsion [CE2]-CZ--OH-[HH] |==|  0.96290
ROOT
ATOM      1  CA  TYR Z  -4       2.133  12.029   6.177  1.00 44.41 LIG 0.18  C 
ENDROOT
BRANCH 1 2
ATOM      2  N   TYR Z  -4       1.556  10.746   5.796  1.00 49.32 LIG-0.35  N 
ATOM      3 H    TYR Z  -4       2.131  10.155   5.551  1.00 49.32 LIG 0.16  HD
ATOM      4  C   SER Z  -5       0.244  10.533   5.835  1.00 53.16 LIG 0.25  C 
ATOM      5 O    SER Z  -5      -0.572  11.417   6.101  1.00 46.54 LIG-0.27  OA
BRANCH 4 6
ATOM      6  CA  SER Z  -5      -0.217   9.112   5.527  1.00 61.82 LIG 0.30  C 
BRANCH 6 7
ATOM      7  N   SER Z  -5       0.076   8.775   4.139  1.00 64.85 LIG-0.06  N 
ATOM      8 H1   SER Z  -5      -0.573   9.085   3.614  1.00 64.85 LIG 0.28  HD
ATOM      9 H3   SER Z  -5       0.131   7.892   4.052  1.00 64.85 LIG 0.28  HD
ATOM     10 H2   SER Z  -5       0.850   9.145   3.901  1.00 64.85 LIG 0.28  HD
ENDBRANCH 6 7
BRANCH 6 11
ATOM     11  CB  SER Z  -5       0.451   8.112   6.478  1.00 66.88 LIG 0.21  C 
BRANCH 11 12
ATOM     12 OG   SER Z  -5       0.561   6.828   5.884  1.00 63.67 LIG-0.40  OA
ATOM     13 HG   SER Z  -5       1.163   6.840   5.298  1.00 63.67 LIG 0.21  HD
ENDBRANCH 11 12
ENDBRANCH 6 11
ENDBRANCH 4 6
ENDBRANCH 1 2
BRANCH 1 14
ATOM     14  C   TYR Z  -4       1.927  13.070   5.088  1.00 48.17 LIG 0.24  C 
ATOM     15  N   GLY Z  -3       1.899  12.612   3.841  1.00 50.01 LIG-0.35  N 
ATOM     16 H    GLY Z  -3       1.949  11.779   3.635  1.00 50.01 LIG 0.16  HD
ATOM     17 O    TYR Z  -4       1.814  14.263   5.367  1.00 57.82 LIG-0.27  OA
BRANCH 15 18
ATOM     18  CA  GLY Z  -3       1.778  13.506   2.705  1.00 64.94 LIG 0.21  C 
BRANCH 18 19
ATOM     19  C   GLY Z  -3       3.056  14.277   2.444  1.00 70.96 LIG 0.21  C 
ATOM     20 O    GLY Z  -3       4.145  13.826   2.800  1.00 75.87 LIG-0.29  OA
ENDBRANCH 18 19
ENDBRANCH 15 18
ENDBRANCH 1 14
BRANCH 1 21
ATOM     21  CB  TYR Z  -4       3.622  11.859   6.508  1.00 44.24 LIG 0.07  C 
BRANCH 21 22
ATOM     22  CG  TYR Z  -4       4.159  13.024   7.309  1.00 50.17 LIG-0.06  A 
ATOM     23  CD2 TYR Z  -4       3.911  13.130   8.673  1.00 45.93 LIG 0.01  A 
ATOM     24  CE2 TYR Z  -4       4.420  14.180   9.413  1.00 43.59 LIG 0.04  A 
ATOM     25  CZ  TYR Z  -4       5.194  15.140   8.794  1.00 44.55 LIG 0.07  A 
ATOM     26  CE1 TYR Z  -4       5.463  15.054   7.443  1.00 43.60 LIG 0.04  A 
ATOM     27  CD1 TYR Z  -4       4.948  13.998   6.710  1.00 43.85 LIG 0.01  A 
BRANCH 25 28
ATOM     28 OH   TYR Z  -4       5.701  16.187   9.527  1.00 43.23 LIG-0.36  OA
ATOM     29 HH   TYR Z  -4       5.319  16.218  10.275  1.00 43.23 LIG 0.22  HD
ENDBRANCH 25 28
ENDBRANCH 21 22
ENDBRANCH 1 21
TORSDOF 11
ENDMDL
MODEL 100
USER: ADFR SOLUTION from run 34
USER: SCORE 8.195189 LL:  -1.373 LR:  -6.822 RR:   0.000 FEB:  -3.541
USER: RMSD 6.698278
USER: SEED 33
USER: STATUS no improvement in best in 32 clusters for 5 generations
USER: GENES 13
USER: genes 0 Translation |==|  0.60678 0.67725 0.53330
USER: genes 1 Rotation |==|  0.23124 0.09793 0.49454 0.62679
USER: genes 2 Torsion [C]-CA--N-[C] |==|  0.82959
USER: genes 3 Torsion [N]-C--CA-[N] |==|  0.83026
USER: genes 4 Torsion [C]-CA--N-[H1] |==|  0.17496
USER: genes 5 Torsion [C]-CA--CB-[OG] |==|  0.05619
USER: genes 6 Torsion [CA]-CB--OG-[HG] |==|  0.41727
USER: genes 7 Torsion [N]-CA--C-[N] |==|  0.38821
USER: genes 8 Torsion [C]-N--CA-[C] |==|  0.22917
USER: genes 9 Torsion [N]-CA--C-[O] |==|  0.03170
USER: genes 10 Torsion [N]-CA--CB-[CG] |==|  0.79915
USER: genes 11 Torsion [CA]-CB--CG-[CD2] |==|  0.12404
USER: genes 12 Torsion [CE2]-CZ--OH-[HH] |==|  0.70905
ROOT
ATOM      1  CA  TYR Z  -4       4.838  17.167   9.650  1.00 44.41 LIG 0.18  C 
ENDROOT
BRANCH 1 2
ATOM      2  N   TYR Z  -4       5.653  17.609   8.525  1.00 49.32 LIG-0.35  N 
ATOM      3 H    TYR Z  -4       5.473  18.402   8.245  1.00 49.32 LIG 0.16  HD
ATOM      4  C   SER Z  -5       6.592  16.831   7.996  1.00 53.16 LIG 0.25  C 
ATOM      5 O    SER Z  -5       6.775  15.665   8.350  1.00 46.54 LIG-0.27  OA
BRANCH 4 6
ATOM      6  CA  SER Z  -5       7.453  17.460   6.905  1.00 61.82 LIG 0.30  C 
BRANCH 6 7
ATOM      7  N   SER Z  -5       6.622  17.859   5.775  1.00 64.85 LIG-0.06  N 
ATOM      8 H1   SER Z  -5       6.045  18.484   6.036  1.00 64.85 LIG 0.28  HD
ATOM      9 H3   SER Z  -5       6.176  17.153   5.470  1.00 64.85 LIG 0.28  HD
ATOM     10 H2   SER Z  -5       7.139  18.185   5.128  1.00 64.85 LIG 0.28  HD
ENDBRANCH 6 7
BRANCH 6 11
ATOM     11  CB  SER Z  -5       8.228  18.660   7.458  1.00 66.88 LIG 0.21  C 
BRANCH 11 12
ATOM     12 OG   SER Z  -5       8.323  18.609   8.872  1.00 63.67 LIG-0.40  OA
ATOM     13 HG   SER Z  -5       9.033  18.984   9.120  1.00 63.67 LIG 0.21  HD
ENDBRANCH 11 12
ENDBRANCH 6 11
ENDBRANCH 4 6
ENDBRANCH 1 2
BRANCH 1 14
ATOM     14  C   TYR Z  -4       4.023  15.935   9.287  1.00 48.17 LIG 0.24  C 
ATOM     15  N   GLY Z  -3       3.930  15.000  10.226  1.00 50.01 LIG-0.35  N 
ATOM     16 H    GLY Z  -3       4.264  15.077  11.014  1.00 50.01 LIG 0.16  HD
ATOM     17 O    TYR Z  -4       3.505  15.824   8.176  1.00 57.82 LIG-0.27  OA
BRANCH 15 18
ATOM     18  CA  GLY Z  -3       3.240  13.746   9.986  1.00 64.94 LIG 0.21  C 
BRANCH 18 19
ATOM     19  C   GLY Z  -3       4.117  12.737   9.273  1.00 70.96 LIG 0.21  C 
ATOM     20 O    GLY Z  -3       5.326  12.934   9.148  1.00 75.87 LIG-0.29  OA
ENDBRANCH 18 19
ENDBRANCH 15 18
ENDBRANCH 1 14
BRANCH 1 21
ATOM     21  CB  TYR Z  -4       3.932  18.310  10.126  1.00 44.24 LIG 0.07  C 
BRANCH 21 22
ATOM     22  CG  TYR Z  -4       4.713  19.386  10.847  1.00 50.17 LIG-0.06  A 
ATOM     23  CD2 TYR Z  -4       5.920  19.855  10.341  1.00 45.93 LIG 0.01  A 
ATOM     24  CE2 TYR Z  -4       6.625  20.856  10.985  1.00 43.59 LIG 0.04  A 
ATOM     25  CZ  TYR Z  -4       6.122  21.406  12.146  1.00 44.55 LIG 0.07  A 
ATOM     26  CE1 TYR Z  -4       4.922  20.965  12.664  1.00 43.60 LIG 0.04  A 
ATOM     27  CD1 TYR Z  -4       4.223  19.962  12.013  1.00 43.85 LIG 0.01  A 
BRANCH 25 28
ATOM     28 OH   TYR Z  -4       6.822  22.400  12.790  1.00 43.23 LIG-0.36  OA
ATOM     29 HH   TYR Z  -4       7.194  22.084  13.474  1.00 43.23 LIG 0.22  HD
ENDBRANCH 25 28
ENDBRANCH 21 22
ENDBRANCH 1 21
TORSDOF 11
ENDMDL
MODEL 101
USER: ADFR SOLUTION from run 132
USER: SCORE 8.209278 LL:  -1.676 LR:  -6.792 RR:   0.000 FEB:  -3.510
USER: RMSD 7.517592
USER: SEED 131
USER: STATUS no improvement in best in 21 clusters for 5 generations
USER: GENES 13
USER: genes 0 Translation |==|  0.60941 0.73653 0.51857
USER: genes 1 Rotation |==|  0.38003 0.72846 0.12537 0.70752
USER: genes 2 Torsion [C]-CA--N-[C] |==|  0.77103
USER: genes 3 Torsion [N]-C--CA-[N] |==|  0.71335
USER: genes 4 Torsion [C]-CA--N-[H1] |==|  0.12081
USER: genes 5 Torsion [C]-CA--CB-[OG] |==|  0.19238
USER: genes 6 Torsion [CA]-CB--OG-[HG] |==|  0.10854
USER: genes 7 Torsion [N]-CA--C-[N] |==|  0.50550
USER: genes 8 Torsion [C]-N--CA-[C] |==|  0.71738
USER: genes 9 Torsion [N]-CA--C-[O] |==|  0.01619
USER: genes 10 Torsion [N]-CA--CB-[CG] |==|  0.91386
USER: genes 11 Torsion [CA]-CB--CG-[CD2] |==|  0.31222
USER: genes 12 Torsion [CE2]-CZ--OH-[HH] |==|  0.01393
ROOT
ATOM      1  CA  TYR Z  -4       4.881  18.189   9.429  1.00 44.41 LIG 0.18  C 
ENDROOT
BRANCH 1 2
ATOM      2  N   TYR Z  -4       6.116  17.805   8.756  1.00 49.32 LIG-0.35  N 
ATOM      3 H    TYR Z  -4       6.437  17.048   9.007  1.00 49.32 LIG 0.16  HD
ATOM      4  C   SER Z  -5       6.678  18.581   7.835  1.00 53.16 LIG 0.25  C 
ATOM      5 O    SER Z  -5       6.255  19.703   7.553  1.00 46.54 LIG-0.27  OA
BRANCH 4 6
ATOM      6  CA  SER Z  -5       7.900  18.006   7.124  1.00 61.82 LIG 0.30  C 
BRANCH 6 7
ATOM      7  N   SER Z  -5       9.119  18.609   7.650  1.00 64.85 LIG-0.06  N 
ATOM      8 H1   SER Z  -5       9.071  18.652   8.538  1.00 64.85 LIG 0.28  HD
ATOM      9 H3   SER Z  -5       9.212  19.430   7.319  1.00 64.85 LIG 0.28  HD
ATOM     10 H2   SER Z  -5       9.820  18.114   7.415  1.00 64.85 LIG 0.28  HD
ENDBRANCH 6 7
BRANCH 6 11
ATOM     11  CB  SER Z  -5       7.942  16.482   7.275  1.00 66.88 LIG 0.21  C 
BRANCH 11 12
ATOM     12 OG   SER Z  -5       6.900  15.860   6.539  1.00 63.67 LIG-0.40  OA
ATOM     13 HG   SER Z  -5       6.799  16.257   5.805  1.00 63.67 LIG 0.21  HD
ENDBRANCH 11 12
ENDBRANCH 6 11
ENDBRANCH 4 6
ENDBRANCH 1 2
BRANCH 1 14
ATOM     14  C   TYR Z  -4       5.156  19.140  10.583  1.00 48.17 LIG 0.24  C 
ATOM     15  N   GLY Z  -3       4.098  19.520  11.290  1.00 50.01 LIG-0.35  N 
ATOM     16 H    GLY Z  -3       3.300  19.231  11.153  1.00 50.01 LIG 0.16  HD
ATOM     17 O    TYR Z  -4       6.298  19.535  10.819  1.00 57.82 LIG-0.27  OA
BRANCH 15 18
ATOM     18  CA  GLY Z  -3       4.212  20.477  12.375  1.00 64.94 LIG 0.21  C 
BRANCH 18 19
ATOM     19  C   GLY Z  -3       4.197  19.808  13.734  1.00 70.96 LIG 0.21  C 
ATOM     20 O    GLY Z  -3       4.204  18.580  13.829  1.00 75.87 LIG-0.29  OA
ENDBRANCH 18 19
ENDBRANCH 15 18
ENDBRANCH 1 14
BRANCH 1 21
ATOM     21  CB  TYR Z  -4       4.131  16.939   9.906  1.00 44.24 LIG 0.07  C 
BRANCH 21 22
ATOM     22  CG  TYR Z  -4       4.373  15.754   8.998  1.00 50.17 LIG-0.06  A 
ATOM     23  CD2 TYR Z  -4       5.089  14.648   9.440  1.00 45.93 LIG 0.01  A 
ATOM     24  CE2 TYR Z  -4       5.291  13.553   8.620  1.00 43.59 LIG 0.04  A 
ATOM     25  CZ  TYR Z  -4       4.769  13.550   7.343  1.00 44.55 LIG 0.07  A 
ATOM     26  CE1 TYR Z  -4       4.045  14.631   6.883  1.00 43.60 LIG 0.04  A 
ATOM     27  CD1 TYR Z  -4       3.848  15.723   7.711  1.00 43.85 LIG 0.01  A 
BRANCH 25 28
ATOM     28 OH   TYR Z  -4       4.969  12.463   6.525  1.00 43.23 LIG-0.36  OA
ATOM     29 HH   TYR Z  -4       5.362  11.856   6.955  1.00 43.23 LIG 0.22  HD
ENDBRANCH 25 28
ENDBRANCH 21 22
ENDBRANCH 1 21
TORSDOF 11
ENDMDL
MODEL 102
USER: ADFR SOLUTION from run 160
USER: SCORE 8.394751 LL:  -1.809 LR:  -6.794 RR:   0.000 FEB:  -3.512
USER: RMSD 5.058161
USER: SEED 159
USER: STATUS no improvement in best in 27 clusters for 5 generations
USER: GENES 13
USER: genes 0 Translation |==|  0.51478 0.65414 0.51060
USER: genes 1 Rotation |==|  0.61317 0.73580 0.77920 0.82193
USER: genes 2 Torsion [C]-CA--N-[C] |==|  0.65000
USER: genes 3 Torsion [N]-C--CA-[N] |==|  0.80198
USER: genes 4 Torsion [C]-CA--N-[H1] |==|  0.01228
USER: genes 5 Torsion [C]-CA--CB-[OG] |==|  0.64717
USER: genes 6 Torsion [CA]-CB--OG-[HG] |==|  0.38661
USER: genes 7 Torsion [N]-CA--C-[N] |==|  0.02797
USER: genes 8 Torsion [C]-N--CA-[C] |==|  0.80294
USER: genes 9 Torsion [N]-CA--C-[O] |==|  0.73308
USER: genes 10 Torsion [N]-CA--CB-[CG] |==|  0.12526
USER: genes 11 Torsion [CA]-CB--CG-[CD2] |==|  0.24785
USER: genes 12 Torsion [CE2]-CZ--OH-[HH] |==|  0.09271
ROOT
ATOM      1  CA  TYR Z  -4       3.320  16.768   9.309  1.00 44.41 LIG 0.18  C 
ENDROOT
BRANCH 1 2
ATOM      2  N   TYR Z  -4       3.420  16.968  10.750  1.00 49.32 LIG-0.35  N 
ATOM      3 H    TYR Z  -4       4.223  17.071  11.040  1.00 49.32 LIG 0.16  HD
ATOM      4  C   SER Z  -5       2.342  16.984  11.527  1.00 53.16 LIG 0.25  C 
ATOM      5 O    SER Z  -5       1.208  16.744  11.108  1.00 46.54 LIG-0.27  OA
BRANCH 4 6
ATOM      6  CA  SER Z  -5       2.575  17.323  12.996  1.00 61.82 LIG 0.30  C 
BRANCH 6 7
ATOM      7  N   SER Z  -5       3.253  16.219  13.666  1.00 64.85 LIG-0.06  N 
ATOM      8 H1   SER Z  -5       3.455  15.589  13.071  1.00 64.85 LIG 0.28  HD
ATOM      9 H3   SER Z  -5       2.718  15.877  14.290  1.00 64.85 LIG 0.28  HD
ATOM     10 H2   SER Z  -5       4.000  16.517  14.047  1.00 64.85 LIG 0.28  HD
ENDBRANCH 6 7
BRANCH 6 11
ATOM     11  CB  SER Z  -5       3.388  18.615  13.127  1.00 66.88 LIG 0.21  C 
BRANCH 11 12
ATOM     12 OG   SER Z  -5       4.528  18.429  13.951  1.00 63.67 LIG-0.40  OA
ATOM     13 HG   SER Z  -5       5.185  18.833  13.617  1.00 63.67 LIG 0.21  HD
ENDBRANCH 11 12
ENDBRANCH 6 11
ENDBRANCH 4 6
ENDBRANCH 1 2
BRANCH 1 14
ATOM     14  C   TYR Z  -4       4.202  15.617   8.851  1.00 48.17 LIG 0.24  C 
ATOM     15  N   GLY Z  -3       4.733  14.871   9.813  1.00 50.01 LIG-0.35  N 
ATOM     16 H    GLY Z  -3       4.573  14.982  10.650  1.00 50.01 LIG 0.16  HD
ATOM     17 O    TYR Z  -4       4.412  15.419   7.655  1.00 57.82 LIG-0.27  OA
BRANCH 15 18
ATOM     18  CA  GLY Z  -3       5.648  13.785   9.515  1.00 64.94 LIG 0.21  C 
BRANCH 18 19
ATOM     19  C   GLY Z  -3       4.949  12.608   8.865  1.00 70.96 LIG 0.21  C 
ATOM     20 O    GLY Z  -3       4.572  11.650   9.541  1.00 75.87 LIG-0.29  OA
ENDBRANCH 18 19
ENDBRANCH 15 18
ENDBRANCH 1 14
BRANCH 1 21
ATOM     21  CB  TYR Z  -4       3.674  18.066   8.571  1.00 44.24 LIG 0.07  C 
BRANCH 21 22
ATOM     22  CG  TYR Z  -4       4.914  18.718   9.141  1.00 50.17 LIG-0.06  A 
ATOM     23  CD2 TYR Z  -4       6.177  18.397   8.657  1.00 45.93 LIG 0.01  A 
ATOM     24  CE2 TYR Z  -4       7.312  19.009   9.158  1.00 43.59 LIG 0.04  A 
ATOM     25  CZ  TYR Z  -4       7.192  19.961  10.150  1.00 44.55 LIG 0.07  A 
ATOM     26  CE1 TYR Z  -4       5.949  20.305  10.641  1.00 43.60 LIG 0.04  A 
ATOM     27  CD1 TYR Z  -4       4.819  19.687  10.133  1.00 43.85 LIG 0.01  A 
BRANCH 25 28
ATOM     28 OH   TYR Z  -4       8.319  20.570  10.652  1.00 43.23 LIG-0.36  OA
ATOM     29 HH   TYR Z  -4       8.891  20.649  10.041  1.00 43.23 LIG 0.22  HD
ENDBRANCH 25 28
ENDBRANCH 21 22
ENDBRANCH 1 21
TORSDOF 11
ENDMDL
MODEL 103
USER: ADFR SOLUTION from run 77
USER: SCORE 7.736984 LL:  -1.396 LR:  -6.784 RR:   0.000 FEB:  -3.502
USER: RMSD 8.279823
USER: SEED 76
USER: STATUS no improvement in best in 25 clusters for 5 generations
USER: GENES 13
USER: genes 0 Translation |==|  0.55387 0.76180 0.62600
USER: genes 1 Rotation |==|  0.51042 0.75283 0.25889 0.85754
USER: genes 2 Torsion [C]-CA--N-[C] |==|  0.63334
USER: genes 3 Torsion [N]-C--CA-[N] |==|  0.33505
USER: genes 4 Torsion [C]-CA--N-[H1] |==|  0.72585
USER: genes 5 Torsion [C]-CA--CB-[OG] |==|  0.56068
USER: genes 6 Torsion [CA]-CB--OG-[HG] |==|  0.98357
USER: genes 7 Torsion [N]-CA--C-[N] |==|  0.92392
USER: genes 8 Torsion [C]-N--CA-[C] |==|  0.55684
USER: genes 9 Torsion [N]-CA--C-[O] |==|  0.05669
USER: genes 10 Torsion [N]-CA--CB-[CG] |==|  0.43454
USER: genes 11 Torsion [CA]-CB--CG-[CD2] |==|  0.71143
USER: genes 12 Torsion [CE2]-CZ--OH-[HH] |==|  0.43934
ROOT
ATOM      1  CA  TYR Z  -4       3.965  18.625  11.040  1.00 44.41 LIG 0.18  C 
ENDROOT
BRANCH 1 2
ATOM      2  N   TYR Z  -4       5.350  19.072  11.127  1.00 49.32 LIG-0.35  N 
ATOM      3 H    TYR Z  -4       5.823  18.652  11.710  1.00 49.32 LIG 0.16  HD
ATOM      4  C   SER Z  -5       5.816  20.050  10.358  1.00 53.16 LIG 0.25  C 
ATOM      5 O    SER Z  -5       5.102  20.702   9.594  1.00 46.54 LIG-0.27  OA
BRANCH 4 6
ATOM      6  CA  SER Z  -5       7.310  20.337  10.464  1.00 61.82 LIG 0.30  C 
BRANCH 6 7
ATOM      7  N   SER Z  -5       7.951  20.162   9.166  1.00 64.85 LIG-0.06  N 
ATOM      8 H1   SER Z  -5       8.334  19.360   9.128  1.00 64.85 LIG 0.28  HD
ATOM      9 H3   SER Z  -5       8.570  20.791   9.053  1.00 64.85 LIG 0.28  HD
ATOM     10 H2   SER Z  -5       7.340  20.228   8.522  1.00 64.85 LIG 0.28  HD
ENDBRANCH 6 7
BRANCH 6 11
ATOM     11  CB  SER Z  -5       7.549  21.753  10.998  1.00 66.88 LIG 0.21  C 
BRANCH 11 12
ATOM     12 OG   SER Z  -5       8.840  22.227  10.650  1.00 63.67 LIG-0.40  OA
ATOM     13 HG   SER Z  -5       9.275  21.611  10.279  1.00 63.67 LIG 0.21  HD
ENDBRANCH 11 12
ENDBRANCH 6 11
ENDBRANCH 4 6
ENDBRANCH 1 2
BRANCH 1 14
ATOM     14  C   TYR Z  -4       3.332  18.522  12.419  1.00 48.17 LIG 0.24  C 
ATOM     15  N   GLY Z  -3       4.164  18.281  13.426  1.00 50.01 LIG-0.35  N 
ATOM     16 H    GLY Z  -3       5.017  18.224  13.340  1.00 50.01 LIG 0.16  HD
ATOM     17 O    TYR Z  -4       2.116  18.641  12.567  1.00 57.82 LIG-0.27  OA
BRANCH 15 18
ATOM     18  CA  GLY Z  -3       3.683  18.092  14.782  1.00 64.94 LIG 0.21  C 
BRANCH 18 19
ATOM     19  C   GLY Z  -3       4.769  18.325  15.813  1.00 70.96 LIG 0.21  C 
ATOM     20 O    GLY Z  -3       5.772  18.981  15.530  1.00 75.87 LIG-0.29  OA
ENDBRANCH 18 19
ENDBRANCH 15 18
ENDBRANCH 1 14
BRANCH 1 21
ATOM     21  CB  TYR Z  -4       3.890  17.286  10.294  1.00 44.24 LIG 0.07  C 
BRANCH 21 22
ATOM     22  CG  TYR Z  -4       2.642  16.510  10.652  1.00 50.17 LIG-0.06  A 
ATOM     23  CD2 TYR Z  -4       2.700  15.418  11.511  1.00 45.93 LIG 0.01  A 
ATOM     24  CE2 TYR Z  -4       1.558  14.721  11.860  1.00 43.59 LIG 0.04  A 
ATOM     25  CZ  TYR Z  -4       0.336  15.116  11.356  1.00 44.55 LIG 0.07  A 
ATOM     26  CE1 TYR Z  -4       0.249  16.203  10.509  1.00 43.60 LIG 0.04  A 
ATOM     27  CD1 TYR Z  -4       1.398  16.894  10.165  1.00 43.85 LIG 0.01  A 
BRANCH 25 28
ATOM     28 OH   TYR Z  -4      -0.802  14.425  11.700  1.00 43.23 LIG-0.36  OA
ATOM     29 HH   TYR Z  -4      -1.474  14.916  11.587  1.00 43.23 LIG 0.22  HD
ENDBRANCH 25 28
ENDBRANCH 21 22
ENDBRANCH 1 21
TORSDOF 11
ENDMDL
MODEL 104
USER: ADFR SOLUTION from run 7
USER: SCORE 8.382738 LL:  -1.609 LR:  -6.775 RR:   0.000 FEB:  -3.494
USER: RMSD 5.026872
USER: SEED 866240
USER: STATUS no improvement in best in 39 clusters for 5 generations
USER: GENES 13
USER: genes 0 Translation |==|  0.60852 0.42286 0.40454
USER: genes 1 Rotation |==|  0.41823 0.19163 0.29417 0.82535
USER: genes 2 Torsion [C]-CA--N-[C] |==|  0.82767
USER: genes 3 Torsion [N]-C--CA-[N] |==|  0.58345
USER: genes 4 Torsion [C]-CA--N-[H1] |==|  0.05977
USER: genes 5 Torsion [C]-CA--CB-[OG] |==|  0.18062
USER: genes 6 Torsion [CA]-CB--OG-[HG] |==|  0.42774
USER: genes 7 Torsion [N]-CA--C-[N] |==|  0.93553
USER: genes 8 Torsion [C]-N--CA-[C] |==|  0.13300
USER: genes 9 Torsion [N]-CA--C-[O] |==|  0.74264
USER: genes 10 Torsion [N]-CA--CB-[CG] |==|  0.12193
USER: genes 11 Torsion [CA]-CB--CG-[CD2] |==|  0.72042
USER: genes 12 Torsion [CE2]-CZ--OH-[HH] |==|  0.56897
ROOT
ATOM      1  CA  TYR Z  -4       4.867  12.778   7.718  1.00 44.41 LIG 0.18  C 
ENDROOT
BRANCH 1 2
ATOM      2  N   TYR Z  -4       5.248  14.173   7.903  1.00 49.32 LIG-0.35  N 
ATOM      3 H    TYR Z  -4       4.997  14.514   8.651  1.00 49.32 LIG 0.16  HD
ATOM      4  C   SER Z  -5       5.926  14.839   6.974  1.00 53.16 LIG 0.25  C 
ATOM      5 O    SER Z  -5       6.198  14.363   5.870  1.00 46.54 LIG-0.27  OA
BRANCH 4 6
ATOM      6  CA  SER Z  -5       6.366  16.252   7.343  1.00 61.82 LIG 0.30  C 
BRANCH 6 7
ATOM      7  N   SER Z  -5       6.430  17.088   6.150  1.00 64.85 LIG-0.06  N 
ATOM      8 H1   SER Z  -5       5.922  16.734   5.511  1.00 64.85 LIG 0.28  HD
ATOM      9 H3   SER Z  -5       7.272  17.137   5.866  1.00 64.85 LIG 0.28  HD
ATOM     10 H2   SER Z  -5       6.135  17.905   6.344  1.00 64.85 LIG 0.28  HD
ENDBRANCH 6 7
BRANCH 6 11
ATOM     11  CB  SER Z  -5       5.411  16.859   8.377  1.00 66.88 LIG 0.21  C 
BRANCH 11 12
ATOM     12 OG   SER Z  -5       5.464  16.153   9.607  1.00 63.67 LIG-0.40  OA
ATOM     13 HG   SER Z  -5       5.242  16.665  10.235  1.00 63.67 LIG 0.21  HD
ENDBRANCH 11 12
ENDBRANCH 6 11
ENDBRANCH 4 6
ENDBRANCH 1 2
BRANCH 1 14
ATOM     14  C   TYR Z  -4       3.938  12.615   6.525  1.00 48.17 LIG 0.24  C 
ATOM     15  N   GLY Z  -3       3.258  13.697   6.163  1.00 50.01 LIG-0.35  N 
ATOM     16 H    GLY Z  -3       3.347  14.466   6.535  1.00 50.01 LIG 0.16  HD
ATOM     17 O    TYR Z  -4       3.826  11.530   5.955  1.00 57.82 LIG-0.27  OA
BRANCH 15 18
ATOM     18  CA  GLY Z  -3       2.287  13.660   5.085  1.00 64.94 LIG 0.21  C 
BRANCH 18 19
ATOM     19  C   GLY Z  -3       1.334  12.488   5.212  1.00 70.96 LIG 0.21  C 
ATOM     20 O    GLY Z  -3       1.576  11.419   4.650  1.00 75.87 LIG-0.29  OA
ENDBRANCH 18 19
ENDBRANCH 15 18
ENDBRANCH 1 14
BRANCH 1 21
ATOM     21  CB  TYR Z  -4       4.223  12.234   9.001  1.00 44.24 LIG 0.07  C 
BRANCH 21 22
ATOM     22  CG  TYR Z  -4       3.238  13.215   9.597  1.00 50.17 LIG-0.06  A 
ATOM     23  CD2 TYR Z  -4       3.591  14.015  10.678  1.00 45.93 LIG 0.01  A 
ATOM     24  CE2 TYR Z  -4       2.701  14.930  11.210  1.00 43.59 LIG 0.04  A 
ATOM     25  CZ  TYR Z  -4       1.443  15.059  10.660  1.00 44.55 LIG 0.07  A 
ATOM     26  CE1 TYR Z  -4       1.071  14.283   9.581  1.00 43.60 LIG 0.04  A 
ATOM     27  CD1 TYR Z  -4       1.968  13.370   9.054  1.00 43.85 LIG 0.01  A 
BRANCH 25 28
ATOM     28 OH   TYR Z  -4       0.555  15.967  11.188  1.00 43.23 LIG-0.36  OA
ATOM     29 HH   TYR Z  -4      -0.231  15.725  11.014  1.00 43.23 LIG 0.22  HD
ENDBRANCH 25 28
ENDBRANCH 21 22
ENDBRANCH 1 21
TORSDOF 11
ENDMDL
MODEL 105
USER: ADFR SOLUTION from run 116
USER: SCORE 8.583468 LL:  -1.809 LR:  -6.776 RR:   0.000 FEB:  -3.494
USER: RMSD 6.565224
USER: SEED 115
USER: STATUS no improvement in best in 28 clusters for 5 generations
USER: GENES 13
USER: genes 0 Translation |==|  0.58534 0.70972 0.27900
USER: genes 1 Rotation |==|  0.60385 0.77904 0.30145 0.84918
USER: genes 2 Torsion [C]-CA--N-[C] |==|  0.81745
USER: genes 3 Torsion [N]-C--CA-[N] |==|  0.54517
USER: genes 4 Torsion [C]-CA--N-[H1] |==|  0.65459
USER: genes 5 Torsion [C]-CA--CB-[OG] |==|  0.52424
USER: genes 6 Torsion [CA]-CB--OG-[HG] |==|  0.09630
USER: genes 7 Torsion [N]-CA--C-[N] |==|  0.94115
USER: genes 8 Torsion [C]-N--CA-[C] |==|  0.41306
USER: genes 9 Torsion [N]-CA--C-[O] |==|  0.99406
USER: genes 10 Torsion [N]-CA--CB-[CG] |==|  0.26998
USER: genes 11 Torsion [CA]-CB--CG-[CD2] |==|  0.82492
USER: genes 12 Torsion [CE2]-CZ--OH-[HH] |==|  0.97873
ROOT
ATOM      1  CA  TYR Z  -4       4.484  17.727   5.835  1.00 44.41 LIG 0.18  C 
ENDROOT
BRANCH 1 2
ATOM      2  N   TYR Z  -4       5.876  17.966   6.195  1.00 49.32 LIG-0.35  N 
ATOM      3 H    TYR Z  -4       6.442  17.473   5.775  1.00 49.32 LIG 0.16  HD
ATOM      4  C   SER Z  -5       6.215  18.877   7.101  1.00 53.16 LIG 0.25  C 
ATOM      5 O    SER Z  -5       5.388  19.510   7.759  1.00 46.54 LIG-0.27  OA
BRANCH 4 6
ATOM      6  CA  SER Z  -5       7.710  19.111   7.295  1.00 61.82 LIG 0.30  C 
BRANCH 6 7
ATOM      7  N   SER Z  -5       7.951  19.821   8.546  1.00 64.85 LIG-0.06  N 
ATOM      8 H1   SER Z  -5       8.414  20.563   8.382  1.00 64.85 LIG 0.28  HD
ATOM      9 H3   SER Z  -5       8.413  19.300   9.099  1.00 64.85 LIG 0.28  HD
ATOM     10 H2   SER Z  -5       7.173  20.036   8.920  1.00 64.85 LIG 0.28  HD
ENDBRANCH 6 7
BRANCH 6 11
ATOM     11  CB  SER Z  -5       8.469  17.780   7.275  1.00 66.88 LIG 0.21  C 
BRANCH 11 12
ATOM     12 OG   SER Z  -5       9.827  17.953   7.650  1.00 63.67 LIG-0.40  OA
ATOM     13 HG   SER Z  -5       9.882  18.556   8.233  1.00 63.67 LIG 0.21  HD
ENDBRANCH 11 12
ENDBRANCH 6 11
ENDBRANCH 4 6
ENDBRANCH 1 2
BRANCH 1 14
ATOM     14  C   TYR Z  -4       3.703  17.154   7.008  1.00 48.17 LIG 0.24  C 
ATOM     15  N   GLY Z  -3       4.423  16.569   7.958  1.00 50.01 LIG-0.35  N 
ATOM     16 H    GLY Z  -3       5.282  16.537   7.958  1.00 50.01 LIG 0.16  HD
ATOM     17 O    TYR Z  -4       2.475  17.226   7.044  1.00 57.82 LIG-0.27  OA
BRANCH 15 18
ATOM     18  CA  GLY Z  -3       3.799  15.922   9.097  1.00 64.94 LIG 0.21  C 
BRANCH 18 19
ATOM     19  C   GLY Z  -3       4.610  14.747   9.604  1.00 70.96 LIG 0.21  C 
ATOM     20 O    GLY Z  -3       5.650  14.411   9.037  1.00 75.87 LIG-0.29  OA
ENDBRANCH 18 19
ENDBRANCH 15 18
ENDBRANCH 1 14
BRANCH 1 21
ATOM     21  CB  TYR Z  -4       4.407  16.801   4.613  1.00 44.24 LIG 0.07  C 
BRANCH 21 22
ATOM     22  CG  TYR Z  -4       4.176  15.360   5.010  1.00 50.17 LIG-0.06  A 
ATOM     23  CD2 TYR Z  -4       5.113  14.669   5.770  1.00 45.93 LIG 0.01  A 
ATOM     24  CE2 TYR Z  -4       4.894  13.359   6.156  1.00 43.59 LIG 0.04  A 
ATOM     25  CZ  TYR Z  -4       3.725  12.725   5.789  1.00 44.55 LIG 0.07  A 
ATOM     26  CE1 TYR Z  -4       2.775  13.392   5.043  1.00 43.60 LIG 0.04  A 
ATOM     27  CD1 TYR Z  -4       3.002  14.703   4.661  1.00 43.85 LIG 0.01  A 
BRANCH 25 28
ATOM     28 OH   TYR Z  -4       3.505  11.422   6.170  1.00 43.23 LIG-0.36  OA
ATOM     29 HH   TYR Z  -4       4.201  11.112   6.524  1.00 43.23 LIG 0.22  HD
ENDBRANCH 25 28
ENDBRANCH 21 22
ENDBRANCH 1 21
TORSDOF 11
ENDMDL
MODEL 106
USER: ADFR SOLUTION from run 29
USER: SCORE 8.517964 LL:  -1.754 LR:  -6.779 RR:   0.000 FEB:  -3.497
USER: RMSD 5.690286
USER: SEED 28
USER: STATUS no improvement in best in 35 clusters for 5 generations
USER: GENES 13
USER: genes 0 Translation |==|  0.61931 0.50008 0.24255
USER: genes 1 Rotation |==|  0.28919 0.37299 0.45497 0.93290
USER: genes 2 Torsion [C]-CA--N-[C] |==|  0.82921
USER: genes 3 Torsion [N]-C--CA-[N] |==|  0.15909
USER: genes 4 Torsion [C]-CA--N-[H1] |==|  0.09823
USER: genes 5 Torsion [C]-CA--CB-[OG] |==|  0.39345
USER: genes 6 Torsion [CA]-CB--OG-[HG] |==|  0.65382
USER: genes 7 Torsion [N]-CA--C-[N] |==|  0.91165
USER: genes 8 Torsion [C]-N--CA-[C] |==|  0.19550
USER: genes 9 Torsion [N]-CA--C-[O] |==|  0.80143
USER: genes 10 Torsion [N]-CA--CB-[CG] |==|  0.28203
USER: genes 11 Torsion [CA]-CB--CG-[CD2] |==|  0.27940
USER: genes 12 Torsion [CE2]-CZ--OH-[HH] |==|  0.32230
ROOT
ATOM      1  CA  TYR Z  -4       5.045  14.110   5.288  1.00 44.41 LIG 0.18  C 
ENDROOT
BRANCH 1 2
ATOM      2  N   TYR Z  -4       4.914  15.443   4.713  1.00 49.32 LIG-0.35  N 
ATOM      3 H    TYR Z  -4       5.333  16.059   5.143  1.00 49.32 LIG 0.16  HD
ATOM      4  C   SER Z  -5       4.200  15.660   3.613  1.00 53.16 LIG 0.25  C 
ATOM      5 O    SER Z  -5       3.532  14.783   3.062  1.00 46.54 LIG-0.27  OA
BRANCH 4 6
ATOM      6  CA  SER Z  -5       4.244  17.077   3.049  1.00 61.82 LIG 0.30  C 
BRANCH 6 7
ATOM      7  N   SER Z  -5       5.621  17.463   2.764  1.00 64.85 LIG-0.06  N 
ATOM      8 H1   SER Z  -5       6.076  16.754   2.476  1.00 64.85 LIG 0.28  HD
ATOM      9 H3   SER Z  -5       6.001  17.777   3.504  1.00 64.85 LIG 0.28  HD
ATOM     10 H2   SER Z  -5       5.629  18.094   2.136  1.00 64.85 LIG 0.28  HD
ENDBRANCH 6 7
BRANCH 6 11
ATOM     11  CB  SER Z  -5       3.382  17.180   1.787  1.00 66.88 LIG 0.21  C 
BRANCH 11 12
ATOM     12 OG   SER Z  -5       2.693  18.420   1.731  1.00 63.67 LIG-0.40  OA
ATOM     13 HG   SER Z  -5       1.869  18.280   1.650  1.00 63.67 LIG 0.21  HD
ENDBRANCH 11 12
ENDBRANCH 6 11
ENDBRANCH 4 6
ENDBRANCH 1 2
BRANCH 1 14
ATOM     14  C   TYR Z  -4       3.692  13.558   5.710  1.00 48.17 LIG 0.24  C 
ATOM     15  N   GLY Z  -3       2.800  14.452   6.121  1.00 50.01 LIG-0.35  N 
ATOM     16 H    GLY Z  -3       2.935  15.300   6.121  1.00 50.01 LIG 0.16  HD
ATOM     17 O    TYR Z  -4       3.466  12.349   5.680  1.00 57.82 LIG-0.27  OA
BRANCH 15 18
ATOM     18  CA  GLY Z  -3       1.495  14.052   6.615  1.00 64.94 LIG 0.21  C 
BRANCH 18 19
ATOM     19  C   GLY Z  -3       1.578  13.365   7.963  1.00 70.96 LIG 0.21  C 
ATOM     20 O    GLY Z  -3       2.045  12.230   8.061  1.00 75.87 LIG-0.29  OA
ENDBRANCH 18 19
ENDBRANCH 15 18
ENDBRANCH 1 14
BRANCH 1 21
ATOM     21  CB  TYR Z  -4       6.024  14.141   6.470  1.00 44.24 LIG 0.07  C 
BRANCH 21 22
ATOM     22  CG  TYR Z  -4       5.303  14.144   7.800  1.00 50.17 LIG-0.06  A 
ATOM     23  CD2 TYR Z  -4       5.175  12.980   8.547  1.00 45.93 LIG 0.01  A 
ATOM     24  CE2 TYR Z  -4       4.538  12.984   9.775  1.00 43.59 LIG 0.04  A 
ATOM     25  CZ  TYR Z  -4       4.027  14.164  10.274  1.00 44.55 LIG 0.07  A 
ATOM     26  CE1 TYR Z  -4       4.150  15.336   9.556  1.00 43.60 LIG 0.04  A 
ATOM     27  CD1 TYR Z  -4       4.788  15.322   8.328  1.00 43.85 LIG 0.01  A 
BRANCH 25 28
ATOM     28 OH   TYR Z  -4       3.392  14.172  11.494  1.00 43.23 LIG-0.36  OA
ATOM     29 HH   TYR Z  -4       3.826  14.648  12.034  1.00 43.23 LIG 0.22  HD
ENDBRANCH 25 28
ENDBRANCH 21 22
ENDBRANCH 1 21
TORSDOF 11
ENDMDL
MODEL 107
USER: ADFR SOLUTION from run 118
USER: SCORE 8.228890 LL:  -1.489 LR:  -6.757 RR:   0.000 FEB:  -3.475
USER: RMSD 5.889957
USER: SEED 117
USER: STATUS no improvement in best in 22 clusters for 5 generations
USER: GENES 13
USER: genes 0 Translation |==|  0.59373 0.66903 0.46511
USER: genes 1 Rotation |==|  0.27776 0.16761 0.62492 0.77298
USER: genes 2 Torsion [C]-CA--N-[C] |==|  0.81111
USER: genes 3 Torsion [N]-C--CA-[N] |==|  0.49260
USER: genes 4 Torsion [C]-CA--N-[H1] |==|  0.01832
USER: genes 5 Torsion [C]-CA--CB-[OG] |==|  0.27875
USER: genes 6 Torsion [CA]-CB--OG-[HG] |==|  0.75353
USER: genes 7 Torsion [N]-CA--C-[N] |==|  0.42585
USER: genes 8 Torsion [C]-N--CA-[C] |==|  0.18893
USER: genes 9 Torsion [N]-CA--C-[O] |==|  0.09259
USER: genes 10 Torsion [N]-CA--CB-[CG] |==|  0.73918
USER: genes 11 Torsion [CA]-CB--CG-[CD2] |==|  0.01495
USER: genes 12 Torsion [CE2]-CZ--OH-[HH] |==|  0.00290
ROOT
ATOM      1  CA  TYR Z  -4       4.623  17.025   8.627  1.00 44.41 LIG 0.18  C 
ENDROOT
BRANCH 1 2
ATOM      2  N   TYR Z  -4       4.258  17.427   7.274  1.00 49.32 LIG-0.35  N 
ATOM      3 H    TYR Z  -4       3.739  18.112   7.234  1.00 49.32 LIG 0.16  HD
ATOM      4  C   SER Z  -5       4.704  16.771   6.208  1.00 53.16 LIG 0.25  C 
ATOM      5 O    SER Z  -5       5.372  15.738   6.286  1.00 46.54 LIG-0.27  OA
BRANCH 4 6
ATOM      6  CA  SER Z  -5       4.346  17.368   4.850  1.00 61.82 LIG 0.30  C 
BRANCH 6 7
ATOM      7  N   SER Z  -5       4.951  16.585   3.780  1.00 64.85 LIG-0.06  N 
ATOM      8 H1   SER Z  -5       5.332  15.857   4.122  1.00 64.85 LIG 0.28  HD
ATOM      9 H3   SER Z  -5       5.567  17.074   3.365  1.00 64.85 LIG 0.28  HD
ATOM     10 H2   SER Z  -5       4.323  16.343   3.197  1.00 64.85 LIG 0.28  HD
ENDBRANCH 6 7
BRANCH 6 11
ATOM     11  CB  SER Z  -5       2.825  17.435   4.678  1.00 66.88 LIG 0.21  C 
BRANCH 11 12
ATOM     12 OG   SER Z  -5       2.333  18.742   4.928  1.00 63.67 LIG-0.40  OA
ATOM     13 HG   SER Z  -5       2.157  18.824   5.746  1.00 63.67 LIG 0.21  HD
ENDBRANCH 11 12
ENDBRANCH 6 11
ENDBRANCH 4 6
ENDBRANCH 1 2
BRANCH 1 14
ATOM     14  C   TYR Z  -4       4.003  15.684   8.988  1.00 48.17 LIG 0.24  C 
ATOM     15  N   GLY Z  -3       4.653  14.967   9.898  1.00 50.01 LIG-0.35  N 
ATOM     16 H    GLY Z  -3       5.360  15.237  10.305  1.00 50.01 LIG 0.16  HD
ATOM     17 O    TYR Z  -4       2.969  15.298   8.443  1.00 57.82 LIG-0.27  OA
BRANCH 15 18
ATOM     18  CA  GLY Z  -3       4.208  13.641  10.282  1.00 64.94 LIG 0.21  C 
BRANCH 18 19
ATOM     19  C   GLY Z  -3       4.369  12.635   9.161  1.00 70.96 LIG 0.21  C 
ATOM     20 O    GLY Z  -3       5.304  12.727   8.364  1.00 75.87 LIG-0.29  OA
ENDBRANCH 18 19
ENDBRANCH 15 18
ENDBRANCH 1 14
BRANCH 1 21
ATOM     21  CB  TYR Z  -4       4.212  18.113   9.628  1.00 44.24 LIG 0.07  C 
BRANCH 21 22
ATOM     22  CG  TYR Z  -4       5.346  19.073   9.913  1.00 50.17 LIG-0.06  A 
ATOM     23  CD2 TYR Z  -4       6.547  18.989   9.219  1.00 45.93 LIG 0.01  A 
ATOM     24  CE2 TYR Z  -4       7.576  19.881   9.460  1.00 43.59 LIG 0.04  A 
ATOM     25  CZ  TYR Z  -4       7.410  20.877  10.399  1.00 44.55 LIG 0.07  A 
ATOM     26  CE1 TYR Z  -4       6.224  20.989  11.096  1.00 43.60 LIG 0.04  A 
ATOM     27  CD1 TYR Z  -4       5.199  20.091  10.848  1.00 43.85 LIG 0.01  A 
BRANCH 25 28
ATOM     28 OH   TYR Z  -4       8.432  21.765  10.642  1.00 43.23 LIG-0.36  OA
ATOM     29 HH   TYR Z  -4       9.083  21.589  10.140  1.00 43.23 LIG 0.22  HD
ENDBRANCH 25 28
ENDBRANCH 21 22
ENDBRANCH 1 21
TORSDOF 11
ENDMDL
MODEL 108
USER: ADFR SOLUTION from run 197
USER: SCORE 7.966117 LL:  -1.745 LR:  -6.753 RR:   0.000 FEB:  -3.472
USER: RMSD 5.126785
USER: SEED 196
USER: STATUS no improvement in best in 24 clusters for 5 generations
USER: GENES 13
USER: genes 0 Translation |==|  0.60189 0.47988 0.30996
USER: genes 1 Rotation |==|  0.30891 0.29343 0.47862 0.91274
USER: genes 2 Torsion [C]-CA--N-[C] |==|  0.77222
USER: genes 3 Torsion [N]-C--CA-[N] |==|  0.35305
USER: genes 4 Torsion [C]-CA--N-[H1] |==|  0.01386
USER: genes 5 Torsion [C]-CA--CB-[OG] |==|  0.59993
USER: genes 6 Torsion [CA]-CB--OG-[HG] |==|  0.53225
USER: genes 7 Torsion [N]-CA--C-[N] |==|  0.81708
USER: genes 8 Torsion [C]-N--CA-[C] |==|  0.35890
USER: genes 9 Torsion [N]-CA--C-[O] |==|  0.98944
USER: genes 10 Torsion [N]-CA--CB-[CG] |==|  0.93581
USER: genes 11 Torsion [CA]-CB--CG-[CD2] |==|  0.30249
USER: genes 12 Torsion [CE2]-CZ--OH-[HH] |==|  0.35207
ROOT
ATOM      1  CA  TYR Z  -4       4.757  13.762   6.299  1.00 44.41 LIG 0.18  C 
ENDROOT
BRANCH 1 2
ATOM      2  N   TYR Z  -4       4.488  15.037   5.646  1.00 49.32 LIG-0.35  N 
ATOM      3 H    TYR Z  -4       4.359  15.693   6.187  1.00 49.32 LIG 0.16  HD
ATOM      4  C   SER Z  -5       4.450  15.147   4.322  1.00 53.16 LIG 0.25  C 
ATOM      5 O    SER Z  -5       4.547  14.180   3.565  1.00 46.54 LIG-0.27  OA
BRANCH 4 6
ATOM      6  CA  SER Z  -5       4.279  16.558   3.768  1.00 61.82 LIG 0.30  C 
BRANCH 6 7
ATOM      7  N   SER Z  -5       5.326  16.848   2.795  1.00 64.85 LIG-0.06  N 
ATOM      8 H1   SER Z  -5       5.819  16.119   2.662  1.00 64.85 LIG 0.28  HD
ATOM      9 H3   SER Z  -5       5.844  17.503   3.103  1.00 64.85 LIG 0.28  HD
ATOM     10 H2   SER Z  -5       4.956  17.100   2.026  1.00 64.85 LIG 0.28  HD
ENDBRANCH 6 7
BRANCH 6 11
ATOM     11  CB  SER Z  -5       2.893  16.722   3.135  1.00 66.88 LIG 0.21  C 
BRANCH 11 12
ATOM     12 OG   SER Z  -5       2.943  17.556   1.988  1.00 63.67 LIG-0.40  OA
ATOM     13 HG   SER Z  -5       2.162  17.760   1.755  1.00 63.67 LIG 0.21  HD
ENDBRANCH 11 12
ENDBRANCH 6 11
ENDBRANCH 4 6
ENDBRANCH 1 2
BRANCH 1 14
ATOM     14  C   TYR Z  -4       3.500  12.911   6.385  1.00 48.17 LIG 0.24  C 
ATOM     15  N   GLY Z  -3       2.529  13.382   7.159  1.00 50.01 LIG-0.35  N 
ATOM     16 H    GLY Z  -3       2.563  14.138   7.566  1.00 50.01 LIG 0.16  HD
ATOM     17 O    TYR Z  -4       3.416  11.844   5.778  1.00 57.82 LIG-0.27  OA
BRANCH 15 18
ATOM     18  CA  GLY Z  -3       1.304  12.636   7.382  1.00 64.94 LIG 0.21  C 
BRANCH 18 19
ATOM     19  C   GLY Z  -3       0.972  12.507   8.855  1.00 70.96 LIG 0.21  C 
ATOM     20 O    GLY Z  -3       1.741  12.944   9.712  1.00 75.87 LIG-0.29  OA
ENDBRANCH 18 19
ENDBRANCH 15 18
ENDBRANCH 1 14
BRANCH 1 21
ATOM     21  CB  TYR Z  -4       5.361  14.000   7.690  1.00 44.24 LIG 0.07  C 
BRANCH 21 22
ATOM     22  CG  TYR Z  -4       6.021  15.358   7.794  1.00 50.17 LIG-0.06  A 
ATOM     23  CD2 TYR Z  -4       5.453  16.372   8.556  1.00 45.93 LIG 0.01  A 
ATOM     24  CE2 TYR Z  -4       6.066  17.606   8.673  1.00 43.59 LIG 0.04  A 
ATOM     25  CZ  TYR Z  -4       7.264  17.838   8.030  1.00 44.55 LIG 0.07  A 
ATOM     26  CE1 TYR Z  -4       7.853  16.844   7.274  1.00 43.60 LIG 0.04  A 
ATOM     27  CD1 TYR Z  -4       7.233  15.612   7.163  1.00 43.85 LIG 0.01  A 
BRANCH 25 28
ATOM     28 OH   TYR Z  -4       7.875  19.065   8.143  1.00 43.23 LIG-0.36  OA
ATOM     29 HH   TYR Z  -4       8.668  18.961   8.401  1.00 43.23 LIG 0.22  HD
ENDBRANCH 25 28
ENDBRANCH 21 22
ENDBRANCH 1 21
TORSDOF 11
ENDMDL
MODEL 109
USER: ADFR SOLUTION from run 74
USER: SCORE 8.304845 LL:  -1.638 LR:  -6.739 RR:   0.000 FEB:  -3.458
USER: RMSD 3.409416
USER: SEED 73
USER: STATUS no improvement in best in 36 clusters for 5 generations
USER: GENES 13
USER: genes 0 Translation |==|  0.50144 0.54321 0.52606
USER: genes 1 Rotation |==|  0.70946 0.67776 0.67499 0.87935
USER: genes 2 Torsion [C]-CA--N-[C] |==|  0.81354
USER: genes 3 Torsion [N]-C--CA-[N] |==|  0.13282
USER: genes 4 Torsion [C]-CA--N-[H1] |==|  0.99474
USER: genes 5 Torsion [C]-CA--CB-[OG] |==|  0.42692
USER: genes 6 Torsion [CA]-CB--OG-[HG] |==|  0.00548
USER: genes 7 Torsion [N]-CA--C-[N] |==|  0.34506
USER: genes 8 Torsion [C]-N--CA-[C] |==|  0.73165
USER: genes 9 Torsion [N]-CA--C-[O] |==|  0.26254
USER: genes 10 Torsion [N]-CA--CB-[CG] |==|  0.42398
USER: genes 11 Torsion [CA]-CB--CG-[CD2] |==|  0.21011
USER: genes 12 Torsion [CE2]-CZ--OH-[HH] |==|  0.27961
ROOT
ATOM      1  CA  TYR Z  -4       3.100  14.854   9.541  1.00 44.41 LIG 0.18  C 
ENDROOT
BRANCH 1 2
ATOM      2  N   TYR Z  -4       3.311  14.754  10.980  1.00 49.32 LIG-0.35  N 
ATOM      3 H    TYR Z  -4       4.056  15.087  11.254  1.00 49.32 LIG 0.16  HD
ATOM      4  C   SER Z  -5       2.411  14.191  11.779  1.00 53.16 LIG 0.25  C 
ATOM      5 O    SER Z  -5       1.392  13.639  11.359  1.00 46.54 LIG-0.27  OA
BRANCH 4 6
ATOM      6  CA  SER Z  -5       2.701  14.260  13.275  1.00 61.82 LIG 0.30  C 
BRANCH 6 7
ATOM      7  N   SER Z  -5       3.076  15.617  13.654  1.00 64.85 LIG-0.06  N 
ATOM      8 H1   SER Z  -5       3.089  16.135  12.931  1.00 64.85 LIG 0.28  HD
ATOM      9 H3   SER Z  -5       3.884  15.609  14.027  1.00 64.85 LIG 0.28  HD
ATOM     10 H2   SER Z  -5       2.484  15.937  14.236  1.00 64.85 LIG 0.28  HD
ENDBRANCH 6 7
BRANCH 6 11
ATOM     11  CB  SER Z  -5       1.485  13.790  14.080  1.00 66.88 LIG 0.21  C 
BRANCH 11 12
ATOM     12 OG   SER Z  -5       1.869  13.275  15.345  1.00 63.67 LIG-0.40  OA
ATOM     13 HG   SER Z  -5       2.702  13.346  15.436  1.00 63.67 LIG 0.21  HD
ENDBRANCH 11 12
ENDBRANCH 6 11
ENDBRANCH 4 6
ENDBRANCH 1 2
BRANCH 1 14
ATOM     14  C   TYR Z  -4       3.111  13.482   8.887  1.00 48.17 LIG 0.24  C 
ATOM     15  N   GLY Z  -3       2.035  13.166   8.175  1.00 50.01 LIG-0.35  N 
ATOM     16 H    GLY Z  -3       1.375  13.700   8.041  1.00 50.01 LIG 0.16  HD
ATOM     17 O    TYR Z  -4       4.065  12.718   9.036  1.00 57.82 LIG-0.27  OA
BRANCH 15 18
ATOM     18  CA  GLY Z  -3       1.888  11.862   7.556  1.00 64.94 LIG 0.21  C 
BRANCH 18 19
ATOM     19  C   GLY Z  -3       2.308  11.868   6.100  1.00 70.96 LIG 0.21  C 
ATOM     20 O    GLY Z  -3       3.451  11.544   5.775  1.00 75.87 LIG-0.29  OA
ENDBRANCH 18 19
ENDBRANCH 15 18
ENDBRANCH 1 14
BRANCH 1 21
ATOM     21  CB  TYR Z  -4       4.156  15.775   8.916  1.00 44.24 LIG 0.07  C 
BRANCH 21 22
ATOM     22  CG  TYR Z  -4       4.427  15.424   7.470  1.00 50.17 LIG-0.06  A 
ATOM     23  CD2 TYR Z  -4       3.525  15.768   6.470  1.00 45.93 LIG 0.01  A 
ATOM     24  CE2 TYR Z  -4       3.780  15.471   5.143  1.00 43.59 LIG 0.04  A 
ATOM     25  CZ  TYR Z  -4       4.951  14.828   4.801  1.00 44.55 LIG 0.07  A 
ATOM     26  CE1 TYR Z  -4       5.868  14.484   5.774  1.00 43.60 LIG 0.04  A 
ATOM     27  CD1 TYR Z  -4       5.604  14.785   7.099  1.00 43.85 LIG 0.01  A 
BRANCH 25 28
ATOM     28 OH   TYR Z  -4       5.207  14.530   3.483  1.00 43.23 LIG-0.36  OA
ATOM     29 HH   TYR Z  -4       5.740  15.097   3.165  1.00 43.23 LIG 0.22  HD
ENDBRANCH 25 28
ENDBRANCH 21 22
ENDBRANCH 1 21
TORSDOF 11
ENDMDL
MODEL 110
USER: ADFR SOLUTION from run 147
USER: SCORE 8.202616 LL:  -1.529 LR:  -6.735 RR:   0.000 FEB:  -3.454
USER: RMSD 5.526577
USER: SEED 146
USER: STATUS no improvement in best in 29 clusters for 5 generations
USER: GENES 13
USER: genes 0 Translation |==|  0.65433 0.56458 0.47690
USER: genes 1 Rotation |==|  0.56170 0.21842 0.31753 0.86553
USER: genes 2 Torsion [C]-CA--N-[C] |==|  0.81508
USER: genes 3 Torsion [N]-C--CA-[N] |==|  0.02550
USER: genes 4 Torsion [C]-CA--N-[H1] |==|  0.31275
USER: genes 5 Torsion [C]-CA--CB-[OG] |==|  0.91070
USER: genes 6 Torsion [CA]-CB--OG-[HG] |==|  0.41688
USER: genes 7 Torsion [N]-CA--C-[N] |==|  0.44799
USER: genes 8 Torsion [C]-N--CA-[C] |==|  0.79830
USER: genes 9 Torsion [N]-CA--C-[O] |==|  0.76820
USER: genes 10 Torsion [N]-CA--CB-[CG] |==|  0.23639
USER: genes 11 Torsion [CA]-CB--CG-[CD2] |==|  0.77122
USER: genes 12 Torsion [CE2]-CZ--OH-[HH] |==|  0.73017
ROOT
ATOM      1  CA  TYR Z  -4       5.623  15.223   8.803  1.00 44.41 LIG 0.18  C 
ENDROOT
BRANCH 1 2
ATOM      2  N   TYR Z  -4       5.339  16.459   9.524  1.00 49.32 LIG-0.35  N 
ATOM      3 H    TYR Z  -4       4.936  16.348  10.275  1.00 49.32 LIG 0.16  HD
ATOM      4  C   SER Z  -5       5.687  17.645   9.035  1.00 53.16 LIG 0.25  C 
ATOM      5 O    SER Z  -5       6.182  17.792   7.916  1.00 46.54 LIG-0.27  OA
BRANCH 4 6
ATOM      6  CA  SER Z  -5       5.441  18.845   9.943  1.00 61.82 LIG 0.30  C 
BRANCH 6 7
ATOM      7  N   SER Z  -5       5.058  18.399  11.278  1.00 64.85 LIG-0.06  N 
ATOM      8 H1   SER Z  -5       5.701  18.607  11.857  1.00 64.85 LIG 0.28  HD
ATOM      9 H3   SER Z  -5       4.939  17.517  11.273  1.00 64.85 LIG 0.28  HD
ATOM     10 H2   SER Z  -5       4.301  18.799  11.519  1.00 64.85 LIG 0.28  HD
ENDBRANCH 6 7
BRANCH 6 11
ATOM     11  CB  SER Z  -5       6.688  19.735  10.008  1.00 66.88 LIG 0.21  C 
BRANCH 11 12
ATOM     12 OG   SER Z  -5       7.876  18.969   9.887  1.00 63.67 LIG-0.40  OA
ATOM     13 HG   SER Z  -5       8.475  19.435   9.525  1.00 63.67 LIG 0.21  HD
ENDBRANCH 11 12
ENDBRANCH 6 11
ENDBRANCH 4 6
ENDBRANCH 1 2
BRANCH 1 14
ATOM     14  C   TYR Z  -4       4.821  15.142   7.514  1.00 48.17 LIG 0.24  C 
ATOM     15  N   GLY Z  -3       5.265  14.282   6.604  1.00 50.01 LIG-0.35  N 
ATOM     16 H    GLY Z  -3       5.936  13.759   6.726  1.00 50.01 LIG 0.16  HD
ATOM     17 O    TYR Z  -4       3.833  15.855   7.338  1.00 57.82 LIG-0.27  OA
BRANCH 15 18
ATOM     18  CA  GLY Z  -3       4.633  14.156   5.304  1.00 64.94 LIG 0.21  C 
BRANCH 18 19
ATOM     19  C   GLY Z  -3       3.288  13.463   5.385  1.00 70.96 LIG 0.21  C 
ATOM     20 O    GLY Z  -3       3.214  12.234   5.400  1.00 75.87 LIG-0.29  OA
ENDBRANCH 18 19
ENDBRANCH 15 18
ENDBRANCH 1 14
BRANCH 1 21
ATOM     21  CB  TYR Z  -4       5.346  14.013   9.705  1.00 44.24 LIG 0.07  C 
BRANCH 21 22
ATOM     22  CG  TYR Z  -4       3.890  13.604   9.670  1.00 50.17 LIG-0.06  A 
ATOM     23  CD2 TYR Z  -4       2.945  14.253  10.456  1.00 45.93 LIG 0.01  A 
ATOM     24  CE2 TYR Z  -4       1.609  13.899  10.408  1.00 43.59 LIG 0.04  A 
ATOM     25  CZ  TYR Z  -4       1.201  12.889   9.563  1.00 44.55 LIG 0.07  A 
ATOM     26  CE1 TYR Z  -4       2.117  12.234   8.765  1.00 43.60 LIG 0.04  A 
ATOM     27  CD1 TYR Z  -4       3.453  12.595   8.819  1.00 43.85 LIG 0.01  A 
BRANCH 25 28
ATOM     28 OH   TYR Z  -4      -0.126  12.532   9.514  1.00 43.23 LIG-0.36  OA
ATOM     29 HH   TYR Z  -4      -0.257  11.865  10.007  1.00 43.23 LIG 0.22  HD
ENDBRANCH 25 28
ENDBRANCH 21 22
ENDBRANCH 1 21
TORSDOF 11
ENDMDL
MODEL 111
USER: ADFR SOLUTION from run 76
USER: SCORE 8.466143 LL:  -1.816 LR:  -6.743 RR:   0.000 FEB:  -3.462
USER: RMSD 6.519973
USER: SEED 75
USER: STATUS no improvement in best in 25 clusters for 5 generations
USER: GENES 13
USER: genes 0 Translation |==|  0.62372 0.64284 0.31105
USER: genes 1 Rotation |==|  0.61865 0.92486 0.53203 0.73322
USER: genes 2 Torsion [C]-CA--N-[C] |==|  0.74452
USER: genes 3 Torsion [N]-C--CA-[N] |==|  0.54596
USER: genes 4 Torsion [C]-CA--N-[H1] |==|  0.31583
USER: genes 5 Torsion [C]-CA--CB-[OG] |==|  0.69397
USER: genes 6 Torsion [CA]-CB--OG-[HG] |==|  0.86200
USER: genes 7 Torsion [N]-CA--C-[N] |==|  0.39165
USER: genes 8 Torsion [C]-N--CA-[C] |==|  0.64601
USER: genes 9 Torsion [N]-CA--C-[O] |==|  0.22230
USER: genes 10 Torsion [N]-CA--CB-[CG] |==|  0.43172
USER: genes 11 Torsion [CA]-CB--CG-[CD2] |==|  0.70789
USER: genes 12 Torsion [CE2]-CZ--OH-[HH] |==|  0.25691
ROOT
ATOM      1  CA  TYR Z  -4       5.117  16.573   6.316  1.00 44.41 LIG 0.18  C 
ENDROOT
BRANCH 1 2
ATOM      2  N   TYR Z  -4       6.320  17.371   6.522  1.00 49.32 LIG-0.35  N 
ATOM      3 H    TYR Z  -4       6.805  17.471   5.819  1.00 49.32 LIG 0.16  HD
ATOM      4  C   SER Z  -5       6.616  17.891   7.709  1.00 53.16 LIG 0.25  C 
ATOM      5 O    SER Z  -5       5.957  17.663   8.725  1.00 46.54 LIG-0.27  OA
BRANCH 4 6
ATOM      6  CA  SER Z  -5       7.837  18.804   7.759  1.00 61.82 LIG 0.30  C 
BRANCH 6 7
ATOM      7  N   SER Z  -5       8.276  18.984   9.137  1.00 64.85 LIG-0.06  N 
ATOM      8 H1   SER Z  -5       9.076  18.609   9.246  1.00 64.85 LIG 0.28  HD
ATOM      9 H3   SER Z  -5       7.692  18.600   9.688  1.00 64.85 LIG 0.28  HD
ATOM     10 H2   SER Z  -5       8.329  19.853   9.321  1.00 64.85 LIG 0.28  HD
ENDBRANCH 6 7
BRANCH 6 11
ATOM     11  CB  SER Z  -5       8.970  18.234   6.900  1.00 66.88 LIG 0.21  C 
BRANCH 11 12
ATOM     12 OG   SER Z  -5      10.044  17.770   7.703  1.00 63.67 LIG-0.40  OA
ATOM     13 HG   SER Z  -5      10.257  18.364   8.258  1.00 63.67 LIG 0.21  HD
ENDBRANCH 11 12
ENDBRANCH 6 11
ENDBRANCH 4 6
ENDBRANCH 1 2
BRANCH 1 14
ATOM     14  C   TYR Z  -4       5.398  15.093   6.524  1.00 48.17 LIG 0.24  C 
ATOM     15  N   GLY Z  -3       4.447  14.401   7.142  1.00 50.01 LIG-0.35  N 
ATOM     16 H    GLY Z  -3       3.692  14.733   7.384  1.00 50.01 LIG 0.16  HD
ATOM     17 O    TYR Z  -4       6.457  14.592   6.150  1.00 57.82 LIG-0.27  OA
BRANCH 15 18
ATOM     18  CA  GLY Z  -3       4.617  12.996   7.465  1.00 64.94 LIG 0.21  C 
BRANCH 18 19
ATOM     19  C   GLY Z  -3       3.468  12.149   6.956  1.00 70.96 LIG 0.21  C 
ATOM     20 O    GLY Z  -3       3.419  11.803   5.775  1.00 75.87 LIG-0.29  OA
ENDBRANCH 18 19
ENDBRANCH 15 18
ENDBRANCH 1 14
BRANCH 1 21
ATOM     21  CB  TYR Z  -4       4.543  16.837   4.917  1.00 44.24 LIG 0.07  C 
BRANCH 21 22
ATOM     22  CG  TYR Z  -4       3.711  15.676   4.420  1.00 50.17 LIG-0.06  A 
ATOM     23  CD2 TYR Z  -4       4.199  14.812   3.447  1.00 45.93 LIG 0.01  A 
ATOM     24  CE2 TYR Z  -4       3.451  13.734   3.008  1.00 43.59 LIG 0.04  A 
ATOM     25  CZ  TYR Z  -4       2.202  13.505   3.547  1.00 44.55 LIG 0.07  A 
ATOM     26  CE1 TYR Z  -4       1.699  14.342   4.522  1.00 43.60 LIG 0.04  A 
ATOM     27  CD1 TYR Z  -4       2.454  15.418   4.955  1.00 43.85 LIG 0.01  A 
BRANCH 25 28
ATOM     28 OH   TYR Z  -4       1.455  12.435   3.112  1.00 43.23 LIG-0.36  OA
ATOM     29 HH   TYR Z  -4       1.603  11.770   3.604  1.00 43.23 LIG 0.22  HD
ENDBRANCH 25 28
ENDBRANCH 21 22
ENDBRANCH 1 21
TORSDOF 11
ENDMDL
MODEL 112
USER: ADFR SOLUTION from run 200
USER: SCORE 7.590709 LL:  -1.495 LR:  -6.727 RR:   0.000 FEB:  -3.445
USER: RMSD 6.576037
USER: SEED 199
USER: STATUS no improvement in best in 24 clusters for 5 generations
USER: GENES 13
USER: genes 0 Translation |==|  0.60710 0.52790 0.31826
USER: genes 1 Rotation |==|  0.33626 0.11048 0.28891 0.66403
USER: genes 2 Torsion [C]-CA--N-[C] |==|  0.57222
USER: genes 3 Torsion [N]-C--CA-[N] |==|  0.98990
USER: genes 4 Torsion [C]-CA--N-[H1] |==|  0.34556
USER: genes 5 Torsion [C]-CA--CB-[OG] |==|  0.51592
USER: genes 6 Torsion [CA]-CB--OG-[HG] |==|  0.71416
USER: genes 7 Torsion [N]-CA--C-[N] |==|  0.01599
USER: genes 8 Torsion [C]-N--CA-[C] |==|  0.60267
USER: genes 9 Torsion [N]-CA--C-[O] |==|  0.23344
USER: genes 10 Torsion [N]-CA--CB-[CG] |==|  0.19937
USER: genes 11 Torsion [CA]-CB--CG-[CD2] |==|  0.81231
USER: genes 12 Torsion [CE2]-CZ--OH-[HH] |==|  0.68032
ROOT
ATOM      1  CA  TYR Z  -4       4.843  14.590   6.424  1.00 44.41 LIG 0.18  C 
ENDROOT
BRANCH 1 2
ATOM      2  N   TYR Z  -4       5.779  15.706   6.351  1.00 49.32 LIG-0.35  N 
ATOM      3 H    TYR Z  -4       5.718  16.175   5.633  1.00 49.32 LIG 0.16  HD
ATOM      4  C   SER Z  -5       6.644  15.954   7.329  1.00 53.16 LIG 0.25  C 
ATOM      5 O    SER Z  -5       6.780  15.218   8.308  1.00 46.54 LIG-0.27  OA
BRANCH 4 6
ATOM      6  CA  SER Z  -5       7.482  17.220   7.181  1.00 61.82 LIG 0.30  C 
BRANCH 6 7
ATOM      7  N   SER Z  -5       7.198  17.867   5.906  1.00 64.85 LIG-0.06  N 
ATOM      8 H1   SER Z  -5       6.948  18.709   6.049  1.00 64.85 LIG 0.28  HD
ATOM      9 H3   SER Z  -5       6.544  17.431   5.490  1.00 64.85 LIG 0.28  HD
ATOM     10 H2   SER Z  -5       7.929  17.859   5.399  1.00 64.85 LIG 0.28  HD
ENDBRANCH 6 7
BRANCH 6 11
ATOM     11  CB  SER Z  -5       7.215  18.179   8.346  1.00 66.88 LIG 0.21  C 
BRANCH 11 12
ATOM     12 OG   SER Z  -5       7.884  19.417   8.161  1.00 63.67 LIG-0.40  OA
ATOM     13 HG   SER Z  -5       8.568  19.442   8.649  1.00 63.67 LIG 0.21  HD
ENDBRANCH 11 12
ENDBRANCH 6 11
ENDBRANCH 4 6
ENDBRANCH 1 2
BRANCH 1 14
ATOM     14  C   TYR Z  -4       4.437  14.122   5.036  1.00 48.17 LIG 0.24  C 
ATOM     15  N   GLY Z  -3       5.067  14.697   4.018  1.00 50.01 LIG-0.35  N 
ATOM     16 H    GLY Z  -3       5.699  15.272   4.109  1.00 50.01 LIG 0.16  HD
ATOM     17 O    TYR Z  -4       3.560  13.271   4.887  1.00 57.82 LIG-0.27  OA
BRANCH 15 18
ATOM     18  CA  GLY Z  -3       4.726  14.391   2.641  1.00 64.94 LIG 0.21  C 
BRANCH 18 19
ATOM     19  C   GLY Z  -3       5.946  14.362   1.742  1.00 70.96 LIG 0.21  C 
ATOM     20 O    GLY Z  -3       6.637  13.347   1.654  1.00 75.87 LIG-0.29  OA
ENDBRANCH 18 19
ENDBRANCH 15 18
ENDBRANCH 1 14
BRANCH 1 21
ATOM     21  CB  TYR Z  -4       3.616  14.986   7.257  1.00 44.24 LIG 0.07  C 
BRANCH 21 22
ATOM     22  CG  TYR Z  -4       2.730  15.968   6.525  1.00 50.17 LIG-0.06  A 
ATOM     23  CD2 TYR Z  -4       3.161  17.262   6.260  1.00 45.93 LIG 0.01  A 
ATOM     24  CE2 TYR Z  -4       2.363  18.155   5.569  1.00 43.59 LIG 0.04  A 
ATOM     25  CZ  TYR Z  -4       1.119  17.757   5.127  1.00 44.55 LIG 0.07  A 
ATOM     26  CE1 TYR Z  -4       0.670  16.475   5.368  1.00 43.60 LIG 0.04  A 
ATOM     27  CD1 TYR Z  -4       1.476  15.588   6.060  1.00 43.85 LIG 0.01  A 
BRANCH 25 28
ATOM     28 OH   TYR Z  -4       0.321  18.643   4.440  1.00 43.23 LIG-0.36  OA
ATOM     29 HH   TYR Z  -4      -0.369  18.807   4.891  1.00 43.23 LIG 0.22  HD
ENDBRANCH 25 28
ENDBRANCH 21 22
ENDBRANCH 1 21
TORSDOF 11
ENDMDL
MODEL 113
USER: ADFR SOLUTION from run 111
USER: SCORE 7.809242 LL:  -1.563 LR:  -6.718 RR:   0.000 FEB:  -3.436
USER: RMSD 8.703561
USER: SEED 110
USER: STATUS no improvement in best in 24 clusters for 5 generations
USER: GENES 13
USER: genes 0 Translation |==|  0.76487 0.74156 0.44725
USER: genes 1 Rotation |==|  0.07540 0.48075 0.74088 0.60641
USER: genes 2 Torsion [C]-CA--N-[C] |==|  0.59214
USER: genes 3 Torsion [N]-C--CA-[N] |==|  0.19674
USER: genes 4 Torsion [C]-CA--N-[H1] |==|  0.95997
USER: genes 5 Torsion [C]-CA--CB-[OG] |==|  0.32812
USER: genes 6 Torsion [CA]-CB--OG-[HG] |==|  0.44994
USER: genes 7 Torsion [N]-CA--C-[N] |==|  0.53685
USER: genes 8 Torsion [C]-N--CA-[C] |==|  0.59092
USER: genes 9 Torsion [N]-CA--C-[O] |==|  0.88935
USER: genes 10 Torsion [N]-CA--CB-[CG] |==|  0.11290
USER: genes 11 Torsion [CA]-CB--CG-[CD2] |==|  0.17184
USER: genes 12 Torsion [CE2]-CZ--OH-[HH] |==|  0.33501
ROOT
ATOM      1  CA  TYR Z  -4       7.446  18.276   8.359  1.00 44.41 LIG 0.18  C 
ENDROOT
BRANCH 1 2
ATOM      2  N   TYR Z  -4       6.450  17.369   7.803  1.00 49.32 LIG-0.35  N 
ATOM      3 H    TYR Z  -4       5.649  17.683   7.793  1.00 49.32 LIG 0.16  HD
ATOM      4  C   SER Z  -5       6.779  16.161   7.356  1.00 53.16 LIG 0.25  C 
ATOM      5 O    SER Z  -5       7.914  15.693   7.462  1.00 46.54 LIG-0.27  OA
BRANCH 4 6
ATOM      6  CA  SER Z  -5       5.663  15.362   6.690  1.00 61.82 LIG 0.30  C 
BRANCH 6 7
ATOM      7  N   SER Z  -5       5.326  15.947   5.398  1.00 64.85 LIG-0.06  N 
ATOM      8 H1   SER Z  -5       5.679  16.762   5.339  1.00 64.85 LIG 0.28  HD
ATOM      9 H3   SER Z  -5       4.442  16.001   5.318  1.00 64.85 LIG 0.28  HD
ATOM     10 H2   SER Z  -5       5.652  15.436   4.746  1.00 64.85 LIG 0.28  HD
ENDBRANCH 6 7
BRANCH 6 11
ATOM     11  CB  SER Z  -5       6.076  13.895   6.529  1.00 66.88 LIG 0.21  C 
BRANCH 11 12
ATOM     12 OG   SER Z  -5       5.215  13.032   7.255  1.00 63.67 LIG-0.40  OA
ATOM     13 HG   SER Z  -5       5.296  12.247   6.966  1.00 63.67 LIG 0.21  HD
ENDBRANCH 11 12
ENDBRANCH 6 11
ENDBRANCH 4 6
ENDBRANCH 1 2
BRANCH 1 14
ATOM     14  C   TYR Z  -4       6.853  19.134   9.465  1.00 48.17 LIG 0.24  C 
ATOM     15  N   GLY Z  -3       7.583  20.174   9.852  1.00 50.01 LIG-0.35  N 
ATOM     16 H    GLY Z  -3       8.330  20.398   9.489  1.00 50.01 LIG 0.16  HD
ATOM     17 O    TYR Z  -4       5.767  18.852   9.970  1.00 57.82 LIG-0.27  OA
BRANCH 15 18
ATOM     18  CA  GLY Z  -3       7.165  21.033  10.944  1.00 64.94 LIG 0.21  C 
BRANCH 18 19
ATOM     19  C   GLY Z  -3       7.600  22.471  10.740  1.00 70.96 LIG 0.21  C 
ATOM     20 O    GLY Z  -3       8.711  22.730  10.275  1.00 75.87 LIG-0.29  OA
ENDBRANCH 18 19
ENDBRANCH 15 18
ENDBRANCH 1 14
BRANCH 1 21
ATOM     21  CB  TYR Z  -4       8.047  19.144   7.245  1.00 44.24 LIG 0.07  C 
BRANCH 21 22
ATOM     22  CG  TYR Z  -4       6.996  19.606   6.260  1.00 50.17 LIG-0.06  A 
ATOM     23  CD2 TYR Z  -4       5.939  20.411   6.668  1.00 45.93 LIG 0.01  A 
ATOM     24  CE2 TYR Z  -4       4.989  20.855   5.766  1.00 43.59 LIG 0.04  A 
ATOM     25  CZ  TYR Z  -4       5.093  20.502   4.437  1.00 44.55 LIG 0.07  A 
ATOM     26  CE1 TYR Z  -4       6.138  19.712   4.004  1.00 43.60 LIG 0.04  A 
ATOM     27  CD1 TYR Z  -4       7.084  19.271   4.914  1.00 43.85 LIG 0.01  A 
BRANCH 25 28
ATOM     28 OH   TYR Z  -4       4.149  20.941   3.537  1.00 43.23 LIG-0.36  OA
ATOM     29 HH   TYR Z  -4       4.523  21.396   2.937  1.00 43.23 LIG 0.22  HD
ENDBRANCH 25 28
ENDBRANCH 21 22
ENDBRANCH 1 21
TORSDOF 11
ENDMDL
MODEL 114
USER: ADFR SOLUTION from run 13
USER: SCORE 7.553956 LL:  -1.551 LR:  -6.714 RR:   0.000 FEB:  -3.432
USER: RMSD 6.065711
USER: SEED 276555
USER: STATUS no improvement in best in 18 clusters for 5 generations
USER: GENES 13
USER: genes 0 Translation |==|  0.61413 0.61462 0.50170
USER: genes 1 Rotation |==|  0.37428 0.01687 0.47580 0.51383
USER: genes 2 Torsion [C]-CA--N-[C] |==|  0.58338
USER: genes 3 Torsion [N]-C--CA-[N] |==|  0.59388
USER: genes 4 Torsion [C]-CA--N-[H1] |==|  0.18640
USER: genes 5 Torsion [C]-CA--CB-[OG] |==|  0.23556
USER: genes 6 Torsion [CA]-CB--OG-[HG] |==|  0.61181
USER: genes 7 Torsion [N]-CA--C-[N] |==|  0.82025
USER: genes 8 Torsion [C]-N--CA-[C] |==|  0.27976
USER: genes 9 Torsion [N]-CA--C-[O] |==|  0.33838
USER: genes 10 Torsion [N]-CA--CB-[CG] |==|  0.48139
USER: genes 11 Torsion [CA]-CB--CG-[CD2] |==|  0.68647
USER: genes 12 Torsion [CE2]-CZ--OH-[HH] |==|  0.69907
ROOT
ATOM      1  CA  TYR Z  -4       4.959  16.086   9.175  1.00 44.41 LIG 0.18  C 
ENDROOT
BRANCH 1 2
ATOM      2  N   TYR Z  -4       5.803  17.038   8.464  1.00 49.32 LIG-0.35  N 
ATOM      3 H    TYR Z  -4       6.024  16.793   7.670  1.00 49.32 LIG 0.16  HD
ATOM      4  C   SER Z  -5       6.184  18.183   9.021  1.00 53.16 LIG 0.25  C 
ATOM      5 O    SER Z  -5       5.934  18.477  10.191  1.00 46.54 LIG-0.27  OA
BRANCH 4 6
ATOM      6  CA  SER Z  -5       6.963  19.141   8.126  1.00 61.82 LIG 0.30  C 
BRANCH 6 7
ATOM      7  N   SER Z  -5       7.951  19.874   8.910  1.00 64.85 LIG-0.06  N 
ATOM      8 H1   SER Z  -5       8.577  19.312   9.200  1.00 64.85 LIG 0.28  HD
ATOM      9 H3   SER Z  -5       7.552  20.257   9.607  1.00 64.85 LIG 0.28  HD
ATOM     10 H2   SER Z  -5       8.328  20.500   8.402  1.00 64.85 LIG 0.28  HD
ENDBRANCH 6 7
BRANCH 6 11
ATOM     11  CB  SER Z  -5       7.639  18.379   6.982  1.00 66.88 LIG 0.21  C 
BRANCH 11 12
ATOM     12 OG   SER Z  -5       6.753  18.190   5.890  1.00 63.67 LIG-0.40  OA
ATOM     13 HG   SER Z  -5       6.856  17.418   5.574  1.00 63.67 LIG 0.21  HD
ENDBRANCH 11 12
ENDBRANCH 6 11
ENDBRANCH 4 6
ENDBRANCH 1 2
BRANCH 1 14
ATOM     14  C   TYR Z  -4       5.243  14.660   8.730  1.00 48.17 LIG 0.24  C 
ATOM     15  N   GLY Z  -3       4.954  14.375   7.466  1.00 50.01 LIG-0.35  N 
ATOM     16 H    GLY Z  -3       4.662  14.952   6.899  1.00 50.01 LIG 0.16  HD
ATOM     17 O    TYR Z  -4       5.697  13.830   9.518  1.00 57.82 LIG-0.27  OA
BRANCH 15 18
ATOM     18  CA  GLY Z  -3       5.112  13.035   6.932  1.00 64.94 LIG 0.21  C 
BRANCH 18 19
ATOM     19  C   GLY Z  -3       3.794  12.291   6.852  1.00 70.96 LIG 0.21  C 
ATOM     20 O    GLY Z  -3       3.384  11.855   5.775  1.00 75.87 LIG-0.29  OA
ENDBRANCH 18 19
ENDBRANCH 15 18
ENDBRANCH 1 14
BRANCH 1 21
ATOM     21  CB  TYR Z  -4       3.480  16.445   8.980  1.00 44.24 LIG 0.07  C 
BRANCH 21 22
ATOM     22  CG  TYR Z  -4       2.562  15.393   9.564  1.00 50.17 LIG-0.06  A 
ATOM     23  CD2 TYR Z  -4       1.759  14.610   8.744  1.00 45.93 LIG 0.01  A 
ATOM     24  CE2 TYR Z  -4       0.937  13.631   9.272  1.00 43.59 LIG 0.04  A 
ATOM     25  CZ  TYR Z  -4       0.916  13.420  10.635  1.00 44.55 LIG 0.07  A 
ATOM     26  CE1 TYR Z  -4       1.712  14.177  11.471  1.00 43.60 LIG 0.04  A 
ATOM     27  CD1 TYR Z  -4       2.531  15.155  10.933  1.00 43.85 LIG 0.01  A 
BRANCH 25 28
ATOM     28 OH   TYR Z  -4       0.099  12.448  11.165  1.00 43.23 LIG-0.36  OA
ATOM     29 HH   TYR Z  -4      -0.541  12.810  11.571  1.00 43.23 LIG 0.22  HD
ENDBRANCH 25 28
ENDBRANCH 21 22
ENDBRANCH 1 21
TORSDOF 11
ENDMDL
MODEL 115
USER: ADFR SOLUTION from run 81
USER: SCORE 8.138743 LL:  -1.489 LR:  -6.698 RR:   0.000 FEB:  -3.417
USER: RMSD 7.449253
USER: SEED 80
USER: STATUS no improvement in best in 24 clusters for 5 generations
USER: GENES 13
USER: genes 0 Translation |==|  0.71556 0.67704 0.45000
USER: genes 1 Rotation |==|  0.30346 0.07571 0.51784 0.67615
USER: genes 2 Torsion [C]-CA--N-[C] |==|  0.71316
USER: genes 3 Torsion [N]-C--CA-[N] |==|  0.92810
USER: genes 4 Torsion [C]-CA--N-[H1] |==|  0.54953
USER: genes 5 Torsion [C]-CA--CB-[OG] |==|  0.90045
USER: genes 6 Torsion [CA]-CB--OG-[HG] |==|  0.28290
USER: genes 7 Torsion [N]-CA--C-[N] |==|  0.00936
USER: genes 8 Torsion [C]-N--CA-[C] |==|  0.16125
USER: genes 9 Torsion [N]-CA--C-[O] |==|  0.52876
USER: genes 10 Torsion [N]-CA--CB-[CG] |==|  0.81272
USER: genes 11 Torsion [CA]-CB--CG-[CD2] |==|  0.94542
USER: genes 12 Torsion [CE2]-CZ--OH-[HH] |==|  0.94457
ROOT
ATOM      1  CA  TYR Z  -4       6.633  17.163   8.400  1.00 44.41 LIG 0.18  C 
ENDROOT
BRANCH 1 2
ATOM      2  N   TYR Z  -4       7.047  17.918   7.224  1.00 49.32 LIG-0.35  N 
ATOM      3 H    TYR Z  -4       6.398  18.226   6.752  1.00 49.32 LIG 0.16  HD
ATOM      4  C   SER Z  -5       8.330  18.100   6.930  1.00 53.16 LIG 0.25  C 
ATOM      5 O    SER Z  -5       9.246  17.575   7.566  1.00 46.54 LIG-0.27  OA
BRANCH 4 6
ATOM      6  CA  SER Z  -5       8.627  19.009   5.741  1.00 61.82 LIG 0.30  C 
BRANCH 6 7
ATOM      7  N   SER Z  -5       7.501  19.011   4.815  1.00 64.85 LIG-0.06  N 
ATOM      8 H1   SER Z  -5       7.767  19.320   4.024  1.00 64.85 LIG 0.28  HD
ATOM      9 H3   SER Z  -5       6.855  19.533   5.134  1.00 64.85 LIG 0.28  HD
ATOM     10 H2   SER Z  -5       7.193  18.182   4.720  1.00 64.85 LIG 0.28  HD
ENDBRANCH 6 7
BRANCH 6 11
ATOM     11  CB  SER Z  -5       8.938  20.432   6.218  1.00 66.88 LIG 0.21  C 
BRANCH 11 12
ATOM     12 OG   SER Z  -5       8.151  20.784   7.345  1.00 63.67 LIG-0.40  OA
ATOM     13 HG   SER Z  -5       8.616  20.722   8.042  1.00 63.67 LIG 0.21  HD
ENDBRANCH 11 12
ENDBRANCH 6 11
ENDBRANCH 4 6
ENDBRANCH 1 2
BRANCH 1 14
ATOM     14  C   TYR Z  -4       6.157  15.770   8.020  1.00 48.17 LIG 0.24  C 
ATOM     15  N   GLY Z  -3       6.259  15.449   6.735  1.00 50.01 LIG-0.35  N 
ATOM     16 H    GLY Z  -3       6.607  15.961   6.139  1.00 50.01 LIG 0.16  HD
ATOM     17 O    TYR Z  -4       5.692  15.007   8.867  1.00 57.82 LIG-0.27  OA
BRANCH 15 18
ATOM     18  CA  GLY Z  -3       5.779  14.177   6.227  1.00 64.94 LIG 0.21  C 
BRANCH 18 19
ATOM     19  C   GLY Z  -3       4.304  13.970   6.505  1.00 70.96 LIG 0.21  C 
ATOM     20 O    GLY Z  -3       3.778  12.873   6.314  1.00 75.87 LIG-0.29  OA
ENDBRANCH 18 19
ENDBRANCH 15 18
ENDBRANCH 1 14
BRANCH 1 21
ATOM     21  CB  TYR Z  -4       5.545  17.931   9.162  1.00 44.24 LIG 0.07  C 
BRANCH 21 22
ATOM     22  CG  TYR Z  -4       6.080  19.203   9.781  1.00 50.17 LIG-0.06  A 
ATOM     23  CD2 TYR Z  -4       7.443  19.378   9.991  1.00 45.93 LIG 0.01  A 
ATOM     24  CE2 TYR Z  -4       7.939  20.549  10.533  1.00 43.59 LIG 0.04  A 
ATOM     25  CZ  TYR Z  -4       7.071  21.568  10.867  1.00 44.55 LIG 0.07  A 
ATOM     26  CE1 TYR Z  -4       5.714  21.424  10.660  1.00 43.60 LIG 0.04  A 
ATOM     27  CD1 TYR Z  -4       5.227  20.248  10.117  1.00 43.85 LIG 0.01  A 
BRANCH 25 28
ATOM     28 OH   TYR Z  -4       7.560  22.734  11.408  1.00 43.23 LIG-0.36  OA
ATOM     29 HH   TYR Z  -4       8.326  22.596  11.727  1.00 43.23 LIG 0.22  HD
ENDBRANCH 25 28
ENDBRANCH 21 22
ENDBRANCH 1 21
TORSDOF 11
ENDMDL
MODEL 116
USER: ADFR SOLUTION from run 39
USER: SCORE 8.015755 LL:  -1.449 LR:  -6.670 RR:   0.000 FEB:  -3.389
USER: RMSD 8.017206
USER: SEED 38
USER: STATUS no improvement in best in 29 clusters for 5 generations
USER: GENES 13
USER: genes 0 Translation |==|  0.55511 0.74543 0.62883
USER: genes 1 Rotation |==|  0.73016 0.90352 0.68457 0.51165
USER: genes 2 Torsion [C]-CA--N-[C] |==|  0.16042
USER: genes 3 Torsion [N]-C--CA-[N] |==|  0.40354
USER: genes 4 Torsion [C]-CA--N-[H1] |==|  0.68999
USER: genes 5 Torsion [C]-CA--CB-[OG] |==|  0.55726
USER: genes 6 Torsion [CA]-CB--OG-[HG] |==|  0.97848
USER: genes 7 Torsion [N]-CA--C-[N] |==|  0.13805
USER: genes 8 Torsion [C]-N--CA-[C] |==|  0.65332
USER: genes 9 Torsion [N]-CA--C-[O] |==|  0.89282
USER: genes 10 Torsion [N]-CA--CB-[CG] |==|  0.82867
USER: genes 11 Torsion [CA]-CB--CG-[CD2] |==|  0.71674
USER: genes 12 Torsion [CE2]-CZ--OH-[HH] |==|  0.26351
ROOT
ATOM      1  CA  TYR Z  -4       3.985  18.343  11.082  1.00 44.41 LIG 0.18  C 
ENDROOT
BRANCH 1 2
ATOM      2  N   TYR Z  -4       5.331  18.901  11.142  1.00 49.32 LIG-0.35  N 
ATOM      3 H    TYR Z  -4       5.753  18.733  11.873  1.00 49.32 LIG 0.16  HD
ATOM      4  C   SER Z  -5       5.837  19.608  10.137  1.00 53.16 LIG 0.25  C 
ATOM      5 O    SER Z  -5       5.185  19.915   9.137  1.00 46.54 LIG-0.27  OA
BRANCH 4 6
ATOM      6  CA  SER Z  -5       7.296  20.030  10.278  1.00 61.82 LIG 0.30  C 
BRANCH 6 7
ATOM      7  N   SER Z  -5       7.951  20.024   8.975  1.00 64.85 LIG-0.06  N 
ATOM      8 H1   SER Z  -5       8.554  19.370   8.949  1.00 64.85 LIG 0.28  HD
ATOM      9 H3   SER Z  -5       8.356  20.805   8.843  1.00 64.85 LIG 0.28  HD
ATOM     10 H2   SER Z  -5       7.344  19.892   8.338  1.00 64.85 LIG 0.28  HD
ENDBRANCH 6 7
BRANCH 6 11
ATOM     11  CB  SER Z  -5       7.394  21.416  10.925  1.00 66.88 LIG 0.21  C 
BRANCH 11 12
ATOM     12 OG   SER Z  -5       8.643  22.029  10.650  1.00 63.67 LIG-0.40  OA
ATOM     13 HG   SER Z  -5       9.149  21.477  10.268  1.00 63.67 LIG 0.21  HD
ENDBRANCH 11 12
ENDBRANCH 6 11
ENDBRANCH 4 6
ENDBRANCH 1 2
BRANCH 1 14
ATOM     14  C   TYR Z  -4       3.825  17.421   9.884  1.00 48.17 LIG 0.24  C 
ATOM     15  N   GLY Z  -3       4.767  16.497   9.728  1.00 50.01 LIG-0.35  N 
ATOM     16 H    GLY Z  -3       5.416  16.376  10.279  1.00 50.01 LIG 0.16  HD
ATOM     17 O    TYR Z  -4       2.880  17.553   9.106  1.00 57.82 LIG-0.27  OA
BRANCH 15 18
ATOM     18  CA  GLY Z  -3       4.771  15.599   8.589  1.00 64.94 LIG 0.21  C 
BRANCH 18 19
ATOM     19  C   GLY Z  -3       4.797  14.143   9.008  1.00 70.96 LIG 0.21  C 
ATOM     20 O    GLY Z  -3       5.472  13.779   9.971  1.00 75.87 LIG-0.29  OA
ENDBRANCH 18 19
ENDBRANCH 15 18
ENDBRANCH 1 14
BRANCH 1 21
ATOM     21  CB  TYR Z  -4       2.947  19.472  11.056  1.00 44.24 LIG 0.07  C 
BRANCH 21 22
ATOM     22  CG  TYR Z  -4       3.006  20.322  12.306  1.00 50.17 LIG-0.06  A 
ATOM     23  CD2 TYR Z  -4       2.074  20.163  13.324  1.00 45.93 LIG 0.01  A 
ATOM     24  CE2 TYR Z  -4       2.139  20.921  14.479  1.00 43.59 LIG 0.04  A 
ATOM     25  CZ  TYR Z  -4       3.149  21.849  14.630  1.00 44.55 LIG 0.07  A 
ATOM     26  CE1 TYR Z  -4       4.093  22.020  13.638  1.00 43.60 LIG 0.04  A 
ATOM     27  CD1 TYR Z  -4       4.020  21.256  12.486  1.00 43.85 LIG 0.01  A 
BRANCH 25 28
ATOM     28 OH   TYR Z  -4       3.216  22.606  15.776  1.00 43.23 LIG-0.36  OA
ATOM     29 HH   TYR Z  -4       3.740  22.241  16.324  1.00 43.23 LIG 0.22  HD
ENDBRANCH 25 28
ENDBRANCH 21 22
ENDBRANCH 1 21
TORSDOF 11
ENDMDL
MODEL 117
USER: ADFR SOLUTION from run 54
USER: SCORE 7.887878 LL:  -1.434 LR:  -6.665 RR:   0.000 FEB:  -3.384
USER: RMSD 6.267195
USER: SEED 53
USER: STATUS no improvement in best in 22 clusters for 5 generations
USER: GENES 13
USER: genes 0 Translation |==|  0.62146 0.71799 0.52091
USER: genes 1 Rotation |==|  0.07031 0.30764 0.62991 0.60717
USER: genes 2 Torsion [C]-CA--N-[C] |==|  0.75738
USER: genes 3 Torsion [N]-C--CA-[N] |==|  0.16132
USER: genes 4 Torsion [C]-CA--N-[H1] |==|  0.44678
USER: genes 5 Torsion [C]-CA--CB-[OG] |==|  0.36315
USER: genes 6 Torsion [CA]-CB--OG-[HG] |==|  0.51118
USER: genes 7 Torsion [N]-CA--C-[N] |==|  0.21007
USER: genes 8 Torsion [C]-N--CA-[C] |==|  0.49784
USER: genes 9 Torsion [N]-CA--C-[O] |==|  0.98155
USER: genes 10 Torsion [N]-CA--CB-[CG] |==|  0.86919
USER: genes 11 Torsion [CA]-CB--CG-[CD2] |==|  0.92966
USER: genes 12 Torsion [CE2]-CZ--OH-[HH] |==|  0.66077
ROOT
ATOM      1  CA  TYR Z  -4       5.080  17.869   9.464  1.00 44.41 LIG 0.18  C 
ENDROOT
BRANCH 1 2
ATOM      2  N   TYR Z  -4       5.062  17.022   8.278  1.00 49.32 LIG-0.35  N 
ATOM      3 H    TYR Z  -4       4.864  17.434   7.549  1.00 49.32 LIG 0.16  HD
ATOM      4  C   SER Z  -5       5.334  15.723   8.346  1.00 53.16 LIG 0.25  C 
ATOM      5 O    SER Z  -5       5.526  15.132   9.410  1.00 46.54 LIG-0.27  OA
BRANCH 4 6
ATOM      6  CA  SER Z  -5       5.399  14.977   7.016  1.00 61.82 LIG 0.30  C 
BRANCH 6 7
ATOM      7  N   SER Z  -5       6.406  15.579   6.150  1.00 64.85 LIG-0.06  N 
ATOM      8 H1   SER Z  -5       6.637  14.999   5.515  1.00 64.85 LIG 0.28  HD
ATOM      9 H3   SER Z  -5       7.124  15.791   6.631  1.00 64.85 LIG 0.28  HD
ATOM     10 H2   SER Z  -5       6.074  16.313   5.773  1.00 64.85 LIG 0.28  HD
ENDBRANCH 6 7
BRANCH 6 11
ATOM     11  CB  SER Z  -5       5.701  13.493   7.247  1.00 66.88 LIG 0.21  C 
BRANCH 11 12
ATOM     12 OG   SER Z  -5       4.798  12.664   6.532  1.00 63.67 LIG-0.40  OA
ATOM     13 HG   SER Z  -5       4.949  11.858   6.718  1.00 63.67 LIG 0.21  HD
ENDBRANCH 11 12
ENDBRANCH 6 11
ENDBRANCH 4 6
ENDBRANCH 1 2
BRANCH 1 14
ATOM     14  C   TYR Z  -4       3.731  17.862  10.165  1.00 48.17 LIG 0.24  C 
ATOM     15  N   GLY Z  -3       3.446  16.772  10.869  1.00 50.01 LIG-0.35  N 
ATOM     16 H    GLY Z  -3       3.987  16.113  10.973  1.00 50.01 LIG 0.16  HD
ATOM     17 O    TYR Z  -4       2.958  18.814  10.059  1.00 57.82 LIG-0.27  OA
BRANCH 15 18
ATOM     18  CA  GLY Z  -3       2.165  16.607  11.530  1.00 64.94 LIG 0.21  C 
BRANCH 18 19
ATOM     19  C   GLY Z  -3       2.060  15.280  12.254  1.00 70.96 LIG 0.21  C 
ATOM     20 O    GLY Z  -3       2.945  14.431  12.139  1.00 75.87 LIG-0.29  OA
ENDBRANCH 18 19
ENDBRANCH 15 18
ENDBRANCH 1 14
BRANCH 1 21
ATOM     21  CB  TYR Z  -4       5.500  19.296   9.085  1.00 44.24 LIG 0.07  C 
BRANCH 21 22
ATOM     22  CG  TYR Z  -4       6.723  19.306   8.194  1.00 50.17 LIG-0.06  A 
ATOM     23  CD2 TYR Z  -4       7.632  18.256   8.215  1.00 45.93 LIG 0.01  A 
ATOM     24  CE2 TYR Z  -4       8.738  18.250   7.384  1.00 43.59 LIG 0.04  A 
ATOM     25  CZ  TYR Z  -4       8.942  19.300   6.513  1.00 44.55 LIG 0.07  A 
ATOM     26  CE1 TYR Z  -4       8.049  20.351   6.465  1.00 43.60 LIG 0.04  A 
ATOM     27  CD1 TYR Z  -4       6.945  20.348   7.301  1.00 43.85 LIG 0.01  A 
BRANCH 25 28
ATOM     28 OH   TYR Z  -4      10.041  19.298   5.686  1.00 43.23 LIG-0.36  OA
ATOM     29 HH   TYR Z  -4      10.499  19.989   5.826  1.00 43.23 LIG 0.22  HD
ENDBRANCH 25 28
ENDBRANCH 21 22
ENDBRANCH 1 21
TORSDOF 11
ENDMDL
MODEL 118
USER: ADFR SOLUTION from run 186
USER: SCORE 8.428489 LL:  -1.854 LR:  -6.669 RR:   0.000 FEB:  -3.388
USER: RMSD 6.077111
USER: SEED 185
USER: STATUS no improvement in best in 26 clusters for 5 generations
USER: GENES 13
USER: genes 0 Translation |==|  0.56800 0.47817 0.24480
USER: genes 1 Rotation |==|  0.40195 0.22926 0.14722 0.70648
USER: genes 2 Torsion [C]-CA--N-[C] |==|  0.15571
USER: genes 3 Torsion [N]-C--CA-[N] |==|  0.29792
USER: genes 4 Torsion [C]-CA--N-[H1] |==|  0.01355
USER: genes 5 Torsion [C]-CA--CB-[OG] |==|  0.22675
USER: genes 6 Torsion [CA]-CB--OG-[HG] |==|  0.50785
USER: genes 7 Torsion [N]-CA--C-[N] |==|  0.08352
USER: genes 8 Torsion [C]-N--CA-[C] |==|  0.36362
USER: genes 9 Torsion [N]-CA--C-[O] |==|  0.86212
USER: genes 10 Torsion [N]-CA--CB-[CG] |==|  0.93547
USER: genes 11 Torsion [CA]-CB--CG-[CD2] |==|  0.34554
USER: genes 12 Torsion [CE2]-CZ--OH-[HH] |==|  0.92048
ROOT
ATOM      1  CA  TYR Z  -4       4.198  13.732   5.322  1.00 44.41 LIG 0.18  C 
ENDROOT
BRANCH 1 2
ATOM      2  N   TYR Z  -4       5.197  14.496   6.059  1.00 49.32 LIG-0.35  N 
ATOM      3 H    TYR Z  -4       5.917  14.060   6.238  1.00 49.32 LIG 0.16  HD
ATOM      4  C   SER Z  -5       4.987  15.760   6.412  1.00 53.16 LIG 0.25  C 
ATOM      5 O    SER Z  -5       3.916  16.340   6.227  1.00 46.54 LIG-0.27  OA
BRANCH 4 6
ATOM      6  CA  SER Z  -5       6.160  16.479   7.071  1.00 61.82 LIG 0.30  C 
BRANCH 6 7
ATOM      7  N   SER Z  -5       6.739  17.450   6.150  1.00 64.85 LIG-0.06  N 
ATOM      8 H1   SER Z  -5       6.251  17.483   5.407  1.00 64.85 LIG 0.28  HD
ATOM      9 H3   SER Z  -5       7.571  17.207   5.947  1.00 64.85 LIG 0.28  HD
ATOM     10 H2   SER Z  -5       6.750  18.253   6.533  1.00 64.85 LIG 0.28  HD
ENDBRANCH 6 7
BRANCH 6 11
ATOM     11  CB  SER Z  -5       5.710  17.165   8.366  1.00 66.88 LIG 0.21  C 
BRANCH 11 12
ATOM     12 OG   SER Z  -5       5.665  16.248   9.448  1.00 63.67 LIG-0.40  OA
ATOM     13 HG   SER Z  -5       5.380  16.639  10.135  1.00 63.67 LIG 0.21  HD
ENDBRANCH 11 12
ENDBRANCH 6 11
ENDBRANCH 4 6
ENDBRANCH 1 2
BRANCH 1 14
ATOM     14  C   TYR Z  -4       3.812  14.435   4.030  1.00 48.17 LIG 0.24  C 
ATOM     15  N   GLY Z  -3       4.757  15.178   3.465  1.00 50.01 LIG-0.35  N 
ATOM     16 H    GLY Z  -3       5.559  15.244   3.766  1.00 50.01 LIG 0.16  HD
ATOM     17 O    TYR Z  -4       2.679  14.321   3.562  1.00 57.82 LIG-0.27  OA
BRANCH 15 18
ATOM     18  CA  GLY Z  -3       4.499  15.955   2.267  1.00 64.94 LIG 0.21  C 
BRANCH 18 19
ATOM     19  C   GLY Z  -3       4.973  17.388   2.400  1.00 70.96 LIG 0.21  C 
ATOM     20 O    GLY Z  -3       4.667  18.061   3.385  1.00 75.87 LIG-0.29  OA
ENDBRANCH 18 19
ENDBRANCH 15 18
ENDBRANCH 1 14
BRANCH 1 21
ATOM     21  CB  TYR Z  -4       2.969  13.483   6.206  1.00 44.24 LIG 0.07  C 
BRANCH 21 22
ATOM     22  CG  TYR Z  -4       3.307  13.562   7.678  1.00 50.17 LIG-0.06  A 
ATOM     23  CD2 TYR Z  -4       2.625  14.430   8.523  1.00 45.93 LIG 0.01  A 
ATOM     24  CE2 TYR Z  -4       2.914  14.488   9.874  1.00 43.59 LIG 0.04  A 
ATOM     25  CZ  TYR Z  -4       3.891  13.667  10.398  1.00 44.55 LIG 0.07  A 
ATOM     26  CE1 TYR Z  -4       4.576  12.789   9.583  1.00 43.60 LIG 0.04  A 
ATOM     27  CD1 TYR Z  -4       4.280  12.739   8.232  1.00 43.85 LIG 0.01  A 
BRANCH 25 28
ATOM     28 OH   TYR Z  -4       4.182  13.723  11.742  1.00 43.23 LIG-0.36  OA
ATOM     29 HH   TYR Z  -4       4.020  14.494  12.033  1.00 43.23 LIG 0.22  HD
ENDBRANCH 25 28
ENDBRANCH 21 22
ENDBRANCH 1 21
TORSDOF 11
ENDMDL
MODEL 119
USER: ADFR SOLUTION from run 60
USER: SCORE 7.834872 LL:  -1.476 LR:  -6.673 RR:   0.000 FEB:  -3.392
USER: RMSD 7.390069
USER: SEED 59
USER: STATUS no improvement in best in 26 clusters for 5 generations
USER: GENES 13
USER: genes 0 Translation |==|  0.32463 0.41006 0.35779
USER: genes 1 Rotation |==|  0.40343 0.76514 0.09078 0.55400
USER: genes 2 Torsion [C]-CA--N-[C] |==|  0.64029
USER: genes 3 Torsion [N]-C--CA-[N] |==|  0.13421
USER: genes 4 Torsion [C]-CA--N-[H1] |==|  0.01306
USER: genes 5 Torsion [C]-CA--CB-[OG] |==|  0.45531
USER: genes 6 Torsion [CA]-CB--OG-[HG] |==|  0.10935
USER: genes 7 Torsion [N]-CA--C-[N] |==|  0.98333
USER: genes 8 Torsion [C]-N--CA-[C] |==|  0.60506
USER: genes 9 Torsion [N]-CA--C-[O] |==|  0.01817
USER: genes 10 Torsion [N]-CA--CB-[CG] |==|  0.13818
USER: genes 11 Torsion [CA]-CB--CG-[CD2] |==|  0.27819
USER: genes 12 Torsion [CE2]-CZ--OH-[HH] |==|  0.60911
ROOT
ATOM      1  CA  TYR Z  -4       0.182  12.557   7.017  1.00 44.41 LIG 0.18  C 
ENDROOT
BRANCH 1 2
ATOM      2  N   TYR Z  -4       0.786  11.545   6.159  1.00 49.32 LIG-0.35  N 
ATOM      3 H    TYR Z  -4       1.249  10.954   6.578  1.00 49.32 LIG 0.16  HD
ATOM      4  C   SER Z  -5       0.617  11.559   4.841  1.00 53.16 LIG 0.25  C 
ATOM      5 O    SER Z  -5       0.027  12.464   4.248  1.00 46.54 LIG-0.27  OA
BRANCH 4 6
ATOM      6  CA  SER Z  -5       1.201  10.376   4.074  1.00 61.82 LIG 0.30  C 
BRANCH 6 7
ATOM      7  N   SER Z  -5       0.812   9.122   4.710  1.00 64.85 LIG-0.06  N 
ATOM      8 H1   SER Z  -5       0.253   9.290   5.382  1.00 64.85 LIG 0.28  HD
ATOM      9 H3   SER Z  -5       1.536   8.710   5.022  1.00 64.85 LIG 0.28  HD
ATOM     10 H2   SER Z  -5       0.408   8.600   4.113  1.00 64.85 LIG 0.28  HD
ENDBRANCH 6 7
BRANCH 6 11
ATOM     11  CB  SER Z  -5       0.745  10.405   2.612  1.00 66.88 LIG 0.21  C 
BRANCH 11 12
ATOM     12 OG   SER Z  -5       1.544   9.556   1.803  1.00 63.67 LIG-0.40  OA
ATOM     13 HG   SER Z  -5       1.719   8.850   2.225  1.00 63.67 LIG 0.21  HD
ENDBRANCH 11 12
ENDBRANCH 6 11
ENDBRANCH 4 6
ENDBRANCH 1 2
BRANCH 1 14
ATOM     14  C   TYR Z  -4       1.211  13.166   7.956  1.00 48.17 LIG 0.24  C 
ATOM     15  N   GLY Z  -3       2.418  12.613   7.937  1.00 50.01 LIG-0.35  N 
ATOM     16 H    GLY Z  -3       2.646  11.976   7.407  1.00 50.01 LIG 0.16  HD
ATOM     17 O    TYR Z  -4       0.915  14.105   8.695  1.00 57.82 LIG-0.27  OA
BRANCH 15 18
ATOM     18  CA  GLY Z  -3       3.472  13.053   8.833  1.00 64.94 LIG 0.21  C 
BRANCH 18 19
ATOM     19  C   GLY Z  -3       4.830  13.055   8.163  1.00 70.96 LIG 0.21  C 
ATOM     20 O    GLY Z  -3       4.936  12.825   6.957  1.00 75.87 LIG-0.29  OA
ENDBRANCH 18 19
ENDBRANCH 15 18
ENDBRANCH 1 14
BRANCH 1 21
ATOM     21  CB  TYR Z  -4      -0.993  11.954   7.797  1.00 44.24 LIG 0.07  C 
BRANCH 21 22
ATOM     22  CG  TYR Z  -4      -0.612  10.657   8.477  1.00 50.17 LIG-0.06  A 
ATOM     23  CD2 TYR Z  -4      -0.299  10.624   9.830  1.00 45.93 LIG 0.01  A 
ATOM     24  CE2 TYR Z  -4       0.025   9.436  10.461  1.00 43.59 LIG 0.04  A 
ATOM     25  CZ  TYR Z  -4       0.033   8.261   9.739  1.00 44.55 LIG 0.07  A 
ATOM     26  CE1 TYR Z  -4      -0.283   8.265   8.396  1.00 43.60 LIG 0.04  A 
ATOM     27  CD1 TYR Z  -4      -0.607   9.458   7.773  1.00 43.85 LIG 0.01  A 
BRANCH 25 28
ATOM     28 OH   TYR Z  -4       0.356   7.078  10.362  1.00 43.23 LIG-0.36  OA
ATOM     29 HH   TYR Z  -4       0.827   6.609   9.848  1.00 43.23 LIG 0.22  HD
ENDBRANCH 25 28
ENDBRANCH 21 22
ENDBRANCH 1 21
TORSDOF 11
ENDMDL
MODEL 120
USER: ADFR SOLUTION from run 170
USER: SCORE 8.174868 LL:  -1.551 LR:  -6.675 RR:   0.000 FEB:  -3.393
USER: RMSD 5.938803
USER: SEED 169
USER: STATUS no improvement in best in 29 clusters for 5 generations
USER: GENES 13
USER: genes 0 Translation |==|  0.55372 0.56900 0.54999
USER: genes 1 Rotation |==|  0.34367 0.04449 0.52438 0.63221
USER: genes 2 Torsion [C]-CA--N-[C] |==|  0.83561
USER: genes 3 Torsion [N]-C--CA-[N] |==|  0.50272
USER: genes 4 Torsion [C]-CA--N-[H1] |==|  0.83625
USER: genes 5 Torsion [C]-CA--CB-[OG] |==|  0.79023
USER: genes 6 Torsion [CA]-CB--OG-[HG] |==|  0.74483
USER: genes 7 Torsion [N]-CA--C-[N] |==|  0.88458
USER: genes 8 Torsion [C]-N--CA-[C] |==|  0.60700
USER: genes 9 Torsion [N]-CA--C-[O] |==|  0.60910
USER: genes 10 Torsion [N]-CA--CB-[CG] |==|  0.49066
USER: genes 11 Torsion [CA]-CB--CG-[CD2] |==|  0.69462
USER: genes 12 Torsion [CE2]-CZ--OH-[HH] |==|  0.69559
ROOT
ATOM      1  CA  TYR Z  -4       3.962  15.299   9.900  1.00 44.41 LIG 0.18  C 
ENDROOT
BRANCH 1 2
ATOM      2  N   TYR Z  -4       4.424  16.108   8.778  1.00 49.32 LIG-0.35  N 
ATOM      3 H    TYR Z  -4       3.882  16.735   8.545  1.00 49.32 LIG 0.16  HD
ATOM      4  C   SER Z  -5       5.589  15.874   8.183  1.00 53.16 LIG 0.25  C 
ATOM      5 O    SER Z  -5       6.309  14.917   8.470  1.00 46.54 LIG-0.27  OA
BRANCH 4 6
ATOM      6  CA  SER Z  -5       6.006  16.868   7.104  1.00 61.82 LIG 0.30  C 
BRANCH 6 7
ATOM      7  N   SER Z  -5       7.286  16.477   6.525  1.00 64.85 LIG-0.06  N 
ATOM      8 H1   SER Z  -5       7.904  16.446   7.164  1.00 64.85 LIG 0.28  HD
ATOM      9 H3   SER Z  -5       7.527  17.070   5.908  1.00 64.85 LIG 0.28  HD
ATOM     10 H2   SER Z  -5       7.208  15.674   6.149  1.00 64.85 LIG 0.28  HD
ENDBRANCH 6 7
BRANCH 6 11
ATOM     11  CB  SER Z  -5       4.929  16.966   6.018  1.00 66.88 LIG 0.21  C 
BRANCH 11 12
ATOM     12 OG   SER Z  -5       4.950  15.833   5.164  1.00 63.67 LIG-0.40  OA
ATOM     13 HG   SER Z  -5       5.449  15.987   4.505  1.00 63.67 LIG 0.21  HD
ENDBRANCH 11 12
ENDBRANCH 6 11
ENDBRANCH 4 6
ENDBRANCH 1 2
BRANCH 1 14
ATOM     14  C   TYR Z  -4       3.846  13.834   9.510  1.00 48.17 LIG 0.24  C 
ATOM     15  N   GLY Z  -3       3.328  13.589   8.312  1.00 50.01 LIG-0.35  N 
ATOM     16 H    GLY Z  -3       3.102  14.201   7.753  1.00 50.01 LIG 0.16  HD
ATOM     17 O    TYR Z  -4       4.201  12.944  10.283  1.00 57.82 LIG-0.27  OA
BRANCH 15 18
ATOM     18  CA  GLY Z  -3       3.098  12.234   7.845  1.00 64.94 LIG 0.21  C 
BRANCH 18 19
ATOM     19  C   GLY Z  -3       3.414  12.074   6.372  1.00 70.96 LIG 0.21  C 
ATOM     20 O    GLY Z  -3       2.702  11.376   5.649  1.00 75.87 LIG-0.29  OA
ENDBRANCH 18 19
ENDBRANCH 15 18
ENDBRANCH 1 14
BRANCH 1 21
ATOM     21  CB  TYR Z  -4       2.626  15.841  10.426  1.00 44.24 LIG 0.07  C 
BRANCH 21 22
ATOM     22  CG  TYR Z  -4       2.068  14.983  11.539  1.00 50.17 LIG-0.06  A 
ATOM     23  CD2 TYR Z  -4       0.935  14.203  11.342  1.00 45.93 LIG 0.01  A 
ATOM     24  CE2 TYR Z  -4       0.436  13.398  12.349  1.00 43.59 LIG 0.04  A 
ATOM     25  CZ  TYR Z  -4       1.075  13.360  13.571  1.00 44.55 LIG 0.07  A 
ATOM     26  CE1 TYR Z  -4       2.207  14.117  13.791  1.00 43.60 LIG 0.04  A 
ATOM     27  CD1 TYR Z  -4       2.699  14.920  12.776  1.00 43.85 LIG 0.01  A 
BRANCH 25 28
ATOM     28 OH   TYR Z  -4       0.580  12.561  14.576  1.00 43.23 LIG-0.36  OA
ATOM     29 HH   TYR Z  -4       0.251  13.043  15.181  1.00 43.23 LIG 0.22  HD
ENDBRANCH 25 28
ENDBRANCH 21 22
ENDBRANCH 1 21
TORSDOF 11
ENDMDL
MODEL 121
USER: ADFR SOLUTION from run 58
USER: SCORE 7.916817 LL:  -1.357 LR:  -6.671 RR:   0.000 FEB:  -3.390
USER: RMSD 3.996488
USER: SEED 57
USER: STATUS no improvement in best in 36 clusters for 5 generations
USER: GENES 13
USER: genes 0 Translation |==|  0.48740 0.57109 0.51320
USER: genes 1 Rotation |==|  0.64854 0.73093 0.82515 0.76246
USER: genes 2 Torsion [C]-CA--N-[C] |==|  0.71667
USER: genes 3 Torsion [N]-C--CA-[N] |==|  0.10686
USER: genes 4 Torsion [C]-CA--N-[H1] |==|  0.63438
USER: genes 5 Torsion [C]-CA--CB-[OG] |==|  0.47329
USER: genes 6 Torsion [CA]-CB--OG-[HG] |==|  0.85997
USER: genes 7 Torsion [N]-CA--C-[N] |==|  0.44331
USER: genes 8 Torsion [C]-N--CA-[C] |==|  0.26507
USER: genes 9 Torsion [N]-CA--C-[O] |==|  0.23661
USER: genes 10 Torsion [N]-CA--CB-[CG] |==|  0.17058
USER: genes 11 Torsion [CA]-CB--CG-[CD2] |==|  0.21508
USER: genes 12 Torsion [CE2]-CZ--OH-[HH] |==|  0.08457
ROOT
ATOM      1  CA  TYR Z  -4       2.868  15.335   9.348  1.00 44.41 LIG 0.18  C 
ENDROOT
BRANCH 1 2
ATOM      2  N   TYR Z  -4       3.159  15.219  10.772  1.00 49.32 LIG-0.35  N 
ATOM      3 H    TYR Z  -4       3.825  15.694  11.039  1.00 49.32 LIG 0.16  HD
ATOM      4  C   SER Z  -5       2.439  14.436  11.568  1.00 53.16 LIG 0.25  C 
ATOM      5 O    SER Z  -5       1.548  13.693  11.153  1.00 46.54 LIG-0.27  OA
BRANCH 4 6
ATOM      6  CA  SER Z  -5       2.772  14.498  13.055  1.00 61.82 LIG 0.30  C 
BRANCH 6 7
ATOM      7  N   SER Z  -5       3.076  15.870  13.447  1.00 64.85 LIG-0.06  N 
ATOM      8 H1   SER Z  -5       3.830  15.885  13.919  1.00 64.85 LIG 0.28  HD
ATOM      9 H3   SER Z  -5       2.411  16.192  13.942  1.00 64.85 LIG 0.28  HD
ATOM     10 H2   SER Z  -5       3.173  16.372  12.719  1.00 64.85 LIG 0.28  HD
ENDBRANCH 6 7
BRANCH 6 11
ATOM     11  CB  SER Z  -5       1.614  13.942  13.890  1.00 66.88 LIG 0.21  C 
BRANCH 11 12
ATOM     12 OG   SER Z  -5       1.984  13.787  15.251  1.00 63.67 LIG-0.40  OA
ATOM     13 HG   SER Z  -5       2.708  13.362  15.298  1.00 63.67 LIG 0.21  HD
ENDBRANCH 11 12
ENDBRANCH 6 11
ENDBRANCH 4 6
ENDBRANCH 1 2
BRANCH 1 14
ATOM     14  C   TYR Z  -4       3.841  14.512   8.519  1.00 48.17 LIG 0.24  C 
ATOM     15  N   GLY Z  -3       3.442  14.200   7.291  1.00 50.01 LIG-0.35  N 
ATOM     16 H    GLY Z  -3       2.702  14.467   6.944  1.00 50.01 LIG 0.16  HD
ATOM     17 O    TYR Z  -4       4.922  14.153   8.984  1.00 57.82 LIG-0.27  OA
BRANCH 15 18
ATOM     18  CA  GLY Z  -3       4.245  13.362   6.420  1.00 64.94 LIG 0.21  C 
BRANCH 18 19
ATOM     19  C   GLY Z  -3       3.826  11.907   6.479  1.00 70.96 LIG 0.21  C 
ATOM     20 O    GLY Z  -3       2.906  11.489   5.775  1.00 75.87 LIG-0.29  OA
ENDBRANCH 18 19
ENDBRANCH 15 18
ENDBRANCH 1 14
BRANCH 1 21
ATOM     21  CB  TYR Z  -4       2.888  16.810   8.925  1.00 44.24 LIG 0.07  C 
BRANCH 21 22
ATOM     22  CG  TYR Z  -4       4.245  17.442   9.147  1.00 50.17 LIG-0.06  A 
ATOM     23  CD2 TYR Z  -4       5.297  17.204   8.271  1.00 45.93 LIG 0.01  A 
ATOM     24  CE2 TYR Z  -4       6.531  17.800   8.457  1.00 43.59 LIG 0.04  A 
ATOM     25  CZ  TYR Z  -4       6.724  18.651   9.525  1.00 44.55 LIG 0.07  A 
ATOM     26  CE1 TYR Z  -4       5.693  18.912  10.405  1.00 43.60 LIG 0.04  A 
ATOM     27  CD1 TYR Z  -4       4.461  18.311  10.211  1.00 43.85 LIG 0.01  A 
BRANCH 25 28
ATOM     28 OH   TYR Z  -4       7.951  19.244   9.714  1.00 43.23 LIG-0.36  OA
ATOM     29 HH   TYR Z  -4       8.325  19.358   8.970  1.00 43.23 LIG 0.22  HD
ENDBRANCH 25 28
ENDBRANCH 21 22
ENDBRANCH 1 21
TORSDOF 11
ENDMDL
MODEL 122
USER: ADFR SOLUTION from run 104
USER: SCORE 8.178409 LL:  -1.627 LR:  -6.668 RR:   0.000 FEB:  -3.386
USER: RMSD 4.864493
USER: SEED 103
USER: STATUS no improvement in best in 20 clusters for 5 generations
USER: GENES 13
USER: genes 0 Translation |==|  0.51682 0.40639 0.27500
USER: genes 1 Rotation |==|  0.35392 0.30731 0.41274 0.92886
USER: genes 2 Torsion [C]-CA--N-[C] |==|  0.71159
USER: genes 3 Torsion [N]-C--CA-[N] |==|  0.21894
USER: genes 4 Torsion [C]-CA--N-[H1] |==|  0.37523
USER: genes 5 Torsion [C]-CA--CB-[OG] |==|  0.66777
USER: genes 6 Torsion [CA]-CB--OG-[HG] |==|  0.14701
USER: genes 7 Torsion [N]-CA--C-[N] |==|  0.44289
USER: genes 8 Torsion [C]-N--CA-[C] |==|  0.24741
USER: genes 9 Torsion [N]-CA--C-[O] |==|  0.00245
USER: genes 10 Torsion [N]-CA--CB-[CG] |==|  0.99814
USER: genes 11 Torsion [CA]-CB--CG-[CD2] |==|  0.26834
USER: genes 12 Torsion [CE2]-CZ--OH-[HH] |==|  0.09909
ROOT
ATOM      1  CA  TYR Z  -4       3.354  12.494   5.775  1.00 44.41 LIG 0.18  C 
ENDROOT
BRANCH 1 2
ATOM      2  N   TYR Z  -4       3.323  13.927   5.506  1.00 49.32 LIG-0.35  N 
ATOM      3 H    TYR Z  -4       2.978  14.399   6.137  1.00 49.32 LIG 0.16  HD
ATOM      4  C   SER Z  -5       3.795  14.433   4.372  1.00 53.16 LIG 0.25  C 
ATOM      5 O    SER Z  -5       4.201  13.734   3.442  1.00 46.54 LIG-0.27  OA
BRANCH 4 6
ATOM      6  CA  SER Z  -5       3.813  15.955   4.270  1.00 61.82 LIG 0.30  C 
BRANCH 6 7
ATOM      7  N   SER Z  -5       4.951  16.496   5.003  1.00 64.85 LIG-0.06  N 
ATOM      8 H1   SER Z  -5       5.352  17.120   4.511  1.00 64.85 LIG 0.28  HD
ATOM      9 H3   SER Z  -5       5.528  15.843   5.180  1.00 64.85 LIG 0.28  HD
ATOM     10 H2   SER Z  -5       4.668  16.858   5.766  1.00 64.85 LIG 0.28  HD
ENDBRANCH 6 7
BRANCH 6 11
ATOM     11  CB  SER Z  -5       3.857  16.394   2.802  1.00 66.88 LIG 0.21  C 
BRANCH 11 12
ATOM     12 OG   SER Z  -5       5.021  17.157   2.525  1.00 63.67 LIG-0.40  OA
ATOM     13 HG   SER Z  -5       5.701  16.731   2.775  1.00 63.67 LIG 0.21  HD
ENDBRANCH 11 12
ENDBRANCH 6 11
ENDBRANCH 4 6
ENDBRANCH 1 2
BRANCH 1 14
ATOM     14  C   TYR Z  -4       1.977  11.872   5.600  1.00 48.17 LIG 0.24  C 
ATOM     15  N   GLY Z  -3       1.951  10.559   5.400  1.00 50.01 LIG-0.35  N 
ATOM     16 H    GLY Z  -3       2.651  10.059   5.405  1.00 50.01 LIG 0.16  HD
ATOM     17 O    TYR Z  -4       0.961  12.566   5.628  1.00 57.82 LIG-0.27  OA
BRANCH 15 18
ATOM     18  CA  GLY Z  -3       0.710   9.852   5.150  1.00 64.94 LIG 0.21  C 
BRANCH 18 19
ATOM     19  C   GLY Z  -3       0.366   9.799   3.676  1.00 70.96 LIG 0.21  C 
ATOM     20 O    GLY Z  -3       1.114  10.306   2.839  1.00 75.87 LIG-0.29  OA
ENDBRANCH 18 19
ENDBRANCH 15 18
ENDBRANCH 1 14
BRANCH 1 21
ATOM     21  CB  TYR Z  -4       3.905  12.234   7.183  1.00 44.24 LIG 0.07  C 
BRANCH 21 22
ATOM     22  CG  TYR Z  -4       4.275  13.519   7.890  1.00 50.17 LIG-0.06  A 
ATOM     23  CD2 TYR Z  -4       3.395  14.127   8.777  1.00 45.93 LIG 0.01  A 
ATOM     24  CE2 TYR Z  -4       3.739  15.288   9.444  1.00 43.59 LIG 0.04  A 
ATOM     25  CZ  TYR Z  -4       4.980  15.853   9.234  1.00 44.55 LIG 0.07  A 
ATOM     26  CE1 TYR Z  -4       5.877  15.264   8.367  1.00 43.60 LIG 0.04  A 
ATOM     27  CD1 TYR Z  -4       5.523  14.102   7.703  1.00 43.85 LIG 0.01  A 
BRANCH 25 28
ATOM     28 OH   TYR Z  -4       5.326  17.009   9.895  1.00 43.23 LIG-0.36  OA
ATOM     29 HH   TYR Z  -4       4.995  17.001  10.668  1.00 43.23 LIG 0.22  HD
ENDBRANCH 25 28
ENDBRANCH 21 22
ENDBRANCH 1 21
TORSDOF 11
ENDMDL
MODEL 123
USER: ADFR SOLUTION from run 152
USER: SCORE 8.273810 LL:  -1.663 LR:  -6.656 RR:   0.000 FEB:  -3.374
USER: RMSD 7.315061
USER: SEED 151
USER: STATUS no improvement in best in 22 clusters for 5 generations
USER: GENES 13
USER: genes 0 Translation |==|  0.68243 0.66536 0.47501
USER: genes 1 Rotation |==|  0.52694 0.11779 0.22458 0.66533
USER: genes 2 Torsion [C]-CA--N-[C] |==|  0.84267
USER: genes 3 Torsion [N]-C--CA-[N] |==|  0.57804
USER: genes 4 Torsion [C]-CA--N-[H1] |==|  0.02916
USER: genes 5 Torsion [C]-CA--CB-[OG] |==|  0.39260
USER: genes 6 Torsion [CA]-CB--OG-[HG] |==|  0.82776
USER: genes 7 Torsion [N]-CA--C-[N] |==|  0.89081
USER: genes 8 Torsion [C]-N--CA-[C] |==|  0.75409
USER: genes 9 Torsion [N]-CA--C-[O] |==|  0.98825
USER: genes 10 Torsion [N]-CA--CB-[CG] |==|  0.49971
USER: genes 11 Torsion [CA]-CB--CG-[CD2] |==|  0.25316
USER: genes 12 Torsion [CE2]-CZ--OH-[HH] |==|  0.85314
ROOT
ATOM      1  CA  TYR Z  -4       6.086  16.961   8.775  1.00 44.41 LIG 0.18  C 
ENDROOT
BRANCH 1 2
ATOM      2  N   TYR Z  -4       6.233  18.201   9.529  1.00 49.32 LIG-0.35  N 
ATOM      3 H    TYR Z  -4       5.536  18.428   9.978  1.00 49.32 LIG 0.16  HD
ATOM      4  C   SER Z  -5       7.362  18.901   9.505  1.00 53.16 LIG 0.25  C 
ATOM      5 O    SER Z  -5       8.318  18.609   8.784  1.00 46.54 LIG-0.27  OA
BRANCH 4 6
ATOM      6  CA  SER Z  -5       7.424  20.111  10.432  1.00 61.82 LIG 0.30  C 
BRANCH 6 7
ATOM      7  N   SER Z  -5       8.324  21.120   9.884  1.00 64.85 LIG-0.06  N 
ATOM      8 H1   SER Z  -5       8.542  20.902   9.049  1.00 64.85 LIG 0.28  HD
ATOM      9 H3   SER Z  -5       9.061  21.162  10.381  1.00 64.85 LIG 0.28  HD
ATOM     10 H2   SER Z  -5       7.918  21.912   9.887  1.00 64.85 LIG 0.28  HD
ENDBRANCH 6 7
BRANCH 6 11
ATOM     11  CB  SER Z  -5       6.025  20.695  10.648  1.00 66.88 LIG 0.21  C 
BRANCH 11 12
ATOM     12 OG   SER Z  -5       5.844  21.125  11.988  1.00 63.67 LIG-0.40  OA
ATOM     13 HG   SER Z  -5       5.916  20.467  12.506  1.00 63.67 LIG 0.21  HD
ENDBRANCH 11 12
ENDBRANCH 6 11
ENDBRANCH 4 6
ENDBRANCH 1 2
BRANCH 1 14
ATOM     14  C   TYR Z  -4       6.360  17.182   7.296  1.00 48.17 LIG 0.24  C 
ATOM     15  N   GLY Z  -3       5.898  18.315   6.779  1.00 50.01 LIG-0.35  N 
ATOM     16 H    GLY Z  -3       5.502  18.924   7.238  1.00 50.01 LIG 0.16  HD
ATOM     17 O    TYR Z  -4       6.961  16.337   6.632  1.00 57.82 LIG-0.27  OA
BRANCH 15 18
ATOM     18  CA  GLY Z  -3       6.032  18.617   5.366  1.00 64.94 LIG 0.21  C 
BRANCH 18 19
ATOM     19  C   GLY Z  -3       7.336  19.322   5.052  1.00 70.96 LIG 0.21  C 
ATOM     20 O    GLY Z  -3       8.108  19.645   5.955  1.00 75.87 LIG-0.29  OA
ENDBRANCH 18 19
ENDBRANCH 15 18
ENDBRANCH 1 14
BRANCH 1 21
ATOM     21  CB  TYR Z  -4       4.687  16.372   8.998  1.00 44.24 LIG 0.07  C 
BRANCH 21 22
ATOM     22  CG  TYR Z  -4       4.489  15.083   8.231  1.00 50.17 LIG-0.06  A 
ATOM     23  CD2 TYR Z  -4       4.782  13.854   8.810  1.00 45.93 LIG 0.01  A 
ATOM     24  CE2 TYR Z  -4       4.579  12.673   8.121  1.00 43.59 LIG 0.04  A 
ATOM     25  CZ  TYR Z  -4       4.070  12.709   6.839  1.00 44.55 LIG 0.07  A 
ATOM     26  CE1 TYR Z  -4       3.762  13.916   6.245  1.00 43.60 LIG 0.04  A 
ATOM     27  CD1 TYR Z  -4       3.968  15.093   6.942  1.00 43.85 LIG 0.01  A 
BRANCH 25 28
ATOM     28 OH   TYR Z  -4       3.868  11.536   6.150  1.00 43.23 LIG-0.36  OA
ATOM     29 HH   TYR Z  -4       4.576  11.083   6.152  1.00 43.23 LIG 0.22  HD
ENDBRANCH 25 28
ENDBRANCH 21 22
ENDBRANCH 1 21
TORSDOF 11
ENDMDL
MODEL 124
USER: ADFR SOLUTION from run 92
USER: SCORE 8.116201 LL:  -1.466 LR:  -6.656 RR:   0.000 FEB:  -3.375
USER: RMSD 6.395247
USER: SEED 91
USER: STATUS no improvement in best in 36 clusters for 5 generations
USER: GENES 13
USER: genes 0 Translation |==|  0.45578 0.37395 0.42218
USER: genes 1 Rotation |==|  0.52735 0.13290 0.17022 0.57569
USER: genes 2 Torsion [C]-CA--N-[C] |==|  0.81108
USER: genes 3 Torsion [N]-C--CA-[N] |==|  0.73927
USER: genes 4 Torsion [C]-CA--N-[H1] |==|  0.08249
USER: genes 5 Torsion [C]-CA--CB-[OG] |==|  0.46078
USER: genes 6 Torsion [CA]-CB--OG-[HG] |==|  0.98737
USER: genes 7 Torsion [N]-CA--C-[N] |==|  0.96005
USER: genes 8 Torsion [C]-N--CA-[C] |==|  0.68143
USER: genes 9 Torsion [N]-CA--C-[O] |==|  0.00075
USER: genes 10 Torsion [N]-CA--CB-[CG] |==|  0.59909
USER: genes 11 Torsion [CA]-CB--CG-[CD2] |==|  0.78517
USER: genes 12 Torsion [CE2]-CZ--OH-[HH] |==|  0.99483
ROOT
ATOM      1  CA  TYR Z  -4       2.346  11.935   7.983  1.00 44.41 LIG 0.18  C 
ENDROOT
BRANCH 1 2
ATOM      2  N   TYR Z  -4       2.570  12.921   9.032  1.00 49.32 LIG-0.35  N 
ATOM      3 H    TYR Z  -4       1.868  13.363   9.261  1.00 49.32 LIG 0.16  HD
ATOM      4  C   SER Z  -5       3.770  13.102   9.574  1.00 53.16 LIG 0.25  C 
ATOM      5 O    SER Z  -5       4.783  12.526   9.171  1.00 46.54 LIG-0.27  OA
BRANCH 4 6
ATOM      6  CA  SER Z  -5       3.842  14.078  10.744  1.00 61.82 LIG 0.30  C 
BRANCH 6 7
ATOM      7  N   SER Z  -5       4.194  15.411  10.268  1.00 64.85 LIG-0.06  N 
ATOM      8 H1   SER Z  -5       3.891  15.520   9.438  1.00 64.85 LIG 0.28  HD
ATOM      9 H3   SER Z  -5       5.078  15.505  10.275  1.00 64.85 LIG 0.28  HD
ATOM     10 H2   SER Z  -5       3.826  16.023  10.799  1.00 64.85 LIG 0.28  HD
ENDBRANCH 6 7
BRANCH 6 11
ATOM     11  CB  SER Z  -5       2.510  14.109  11.500  1.00 66.88 LIG 0.21  C 
BRANCH 11 12
ATOM     12 OG   SER Z  -5       2.644  14.748  12.760  1.00 63.67 LIG-0.40  OA
ATOM     13 HG   SER Z  -5       3.451  14.942  12.892  1.00 63.67 LIG 0.21  HD
ENDBRANCH 11 12
ENDBRANCH 6 11
ENDBRANCH 4 6
ENDBRANCH 1 2
BRANCH 1 14
ATOM     14  C   TYR Z  -4       3.049  12.333   6.694  1.00 48.17 LIG 0.24  C 
ATOM     15  N   GLY Z  -3       3.473  13.590   6.626  1.00 50.01 LIG-0.35  N 
ATOM     16 H    GLY Z  -3       3.407  14.154   7.271  1.00 50.01 LIG 0.16  HD
ATOM     17 O    TYR Z  -4       3.188  11.527   5.775  1.00 57.82 LIG-0.27  OA
BRANCH 15 18
ATOM     18  CA  GLY Z  -3       4.098  14.118   5.427  1.00 64.94 LIG 0.21  C 
BRANCH 18 19
ATOM     19  C   GLY Z  -3       5.551  14.484   5.652  1.00 70.96 LIG 0.21  C 
ATOM     20 O    GLY Z  -3       6.077  14.319   6.753  1.00 75.87 LIG-0.29  OA
ENDBRANCH 18 19
ENDBRANCH 15 18
ENDBRANCH 1 14
BRANCH 1 21
ATOM     21  CB  TYR Z  -4       0.841  11.739   7.756  1.00 44.24 LIG 0.07  C 
BRANCH 21 22
ATOM     22  CG  TYR Z  -4       0.503  10.303   7.422  1.00 50.17 LIG-0.06  A 
ATOM     23  CD2 TYR Z  -4       0.736   9.791   6.151  1.00 45.93 LIG 0.01  A 
ATOM     24  CE2 TYR Z  -4       0.451   8.472   5.848  1.00 43.59 LIG 0.04  A 
ATOM     25  CZ  TYR Z  -4      -0.068   7.645   6.823  1.00 44.55 LIG 0.07  A 
ATOM     26  CE1 TYR Z  -4      -0.300   8.126   8.095  1.00 43.60 LIG 0.04  A 
ATOM     27  CD1 TYR Z  -4      -0.011   9.448   8.389  1.00 43.85 LIG 0.01  A 
BRANCH 25 28
ATOM     28 OH   TYR Z  -4      -0.354   6.333   6.525  1.00 43.23 LIG-0.36  OA
ATOM     29 HH   TYR Z  -4      -0.187   6.186   5.714  1.00 43.23 LIG 0.22  HD
ENDBRANCH 25 28
ENDBRANCH 21 22
ENDBRANCH 1 21
TORSDOF 11
ENDMDL
MODEL 125
USER: ADFR SOLUTION from run 72
USER: SCORE 8.439845 LL:  -1.783 LR:  -6.661 RR:   0.000 FEB:  -3.380
USER: RMSD 5.434679
USER: SEED 71
USER: STATUS no improvement in best in 24 clusters for 5 generations
USER: GENES 13
USER: genes 0 Translation |==|  0.60843 0.48748 0.45936
USER: genes 1 Rotation |==|  0.29496 0.20111 0.53794 0.84232
USER: genes 2 Torsion [C]-CA--N-[C] |==|  0.82213
USER: genes 3 Torsion [N]-C--CA-[N] |==|  0.16371
USER: genes 4 Torsion [C]-CA--N-[H1] |==|  0.07697
USER: genes 5 Torsion [C]-CA--CB-[OG] |==|  0.58594
USER: genes 6 Torsion [CA]-CB--OG-[HG] |==|  0.26133
USER: genes 7 Torsion [N]-CA--C-[N] |==|  0.94933
USER: genes 8 Torsion [C]-N--CA-[C] |==|  0.71096
USER: genes 9 Torsion [N]-CA--C-[O] |==|  0.05704
USER: genes 10 Torsion [N]-CA--CB-[CG] |==|  0.22586
USER: genes 11 Torsion [CA]-CB--CG-[CD2] |==|  0.32144
USER: genes 12 Torsion [CE2]-CZ--OH-[HH] |==|  0.05534
ROOT
ATOM      1  CA  TYR Z  -4       4.865  13.893   8.540  1.00 44.41 LIG 0.18  C 
ENDROOT
BRANCH 1 2
ATOM      2  N   TYR Z  -4       4.540  14.837   7.478  1.00 49.32 LIG-0.35  N 
ATOM      3 H    TYR Z  -4       4.289  15.612   7.756  1.00 49.32 LIG 0.16  HD
ATOM      4  C   SER Z  -5       4.632  14.502   6.196  1.00 53.16 LIG 0.25  C 
ATOM      5 O    SER Z  -5       4.905  13.361   5.818  1.00 46.54 LIG-0.27  OA
BRANCH 4 6
ATOM      6  CA  SER Z  -5       4.381  15.619   5.188  1.00 61.82 LIG 0.30  C 
BRANCH 6 7
ATOM      7  N   SER Z  -5       5.326  16.709   5.396  1.00 64.85 LIG-0.06  N 
ATOM      8 H1   SER Z  -5       6.076  16.389   5.752  1.00 64.85 LIG 0.28  HD
ATOM      9 H3   SER Z  -5       4.970  17.310   5.947  1.00 64.85 LIG 0.28  HD
ATOM     10 H2   SER Z  -5       5.511  17.096   4.616  1.00 64.85 LIG 0.28  HD
ENDBRANCH 6 7
BRANCH 6 11
ATOM     11  CB  SER Z  -5       4.481  15.083   3.756  1.00 66.88 LIG 0.21  C 
BRANCH 11 12
ATOM     12 OG   SER Z  -5       4.951  16.079   2.862  1.00 63.67 LIG-0.40  OA
ATOM     13 HG   SER Z  -5       5.785  16.012   2.779  1.00 63.67 LIG 0.21  HD
ENDBRANCH 11 12
ENDBRANCH 6 11
ENDBRANCH 4 6
ENDBRANCH 1 2
BRANCH 1 14
ATOM     14  C   TYR Z  -4       3.913  12.708   8.533  1.00 48.17 LIG 0.24  C 
ATOM     15  N   GLY Z  -3       2.772  12.880   7.874  1.00 50.01 LIG-0.35  N 
ATOM     16 H    GLY Z  -3       2.575  13.591   7.435  1.00 50.01 LIG 0.16  HD
ATOM     17 O    TYR Z  -4       4.196  11.666   9.124  1.00 57.82 LIG-0.27  OA
BRANCH 15 18
ATOM     18  CA  GLY Z  -3       1.747  11.853   7.846  1.00 64.94 LIG 0.21  C 
BRANCH 18 19
ATOM     19  C   GLY Z  -3       1.712  11.115   6.524  1.00 70.96 LIG 0.21  C 
ATOM     20 O    GLY Z  -3       2.689  11.122   5.774  1.00 75.87 LIG-0.29  OA
ENDBRANCH 18 19
ENDBRANCH 15 18
ENDBRANCH 1 14
BRANCH 1 21
ATOM     21  CB  TYR Z  -4       4.853  14.605   9.900  1.00 44.24 LIG 0.07  C 
BRANCH 21 22
ATOM     22  CG  TYR Z  -4       3.452  14.749  10.450  1.00 50.17 LIG-0.06  A 
ATOM     23  CD2 TYR Z  -4       3.075  14.109  11.624  1.00 45.93 LIG 0.01  A 
ATOM     24  CE2 TYR Z  -4       1.801  14.258  12.143  1.00 43.59 LIG 0.04  A 
ATOM     25  CZ  TYR Z  -4       0.888  15.060  11.491  1.00 44.55 LIG 0.07  A 
ATOM     26  CE1 TYR Z  -4       1.240  15.714  10.327  1.00 43.60 LIG 0.04  A 
ATOM     27  CD1 TYR Z  -4       2.517  15.559   9.816  1.00 43.85 LIG 0.01  A 
BRANCH 25 28
ATOM     28 OH   TYR Z  -4      -0.380  15.210  12.003  1.00 43.23 LIG-0.36  OA
ATOM     29 HH   TYR Z  -4      -0.380  15.000  12.817  1.00 43.23 LIG 0.22  HD
ENDBRANCH 25 28
ENDBRANCH 21 22
ENDBRANCH 1 21
TORSDOF 11
ENDMDL
MODEL 126
USER: ADFR SOLUTION from run 182
USER: SCORE 7.895143 LL:  -1.263 LR:  -6.636 RR:   0.000 FEB:  -3.355
USER: RMSD 7.261239
USER: SEED 181
USER: STATUS no improvement in best in 35 clusters for 5 generations
USER: GENES 13
USER: genes 0 Translation |==|  0.59408 0.71712 0.57169
USER: genes 1 Rotation |==|  0.27927 0.08868 0.42452 0.66247
USER: genes 2 Torsion [C]-CA--N-[C] |==|  0.83495
USER: genes 3 Torsion [N]-C--CA-[N] |==|  0.18182
USER: genes 4 Torsion [C]-CA--N-[H1] |==|  0.19014
USER: genes 5 Torsion [C]-CA--CB-[OG] |==|  0.78772
USER: genes 6 Torsion [CA]-CB--OG-[HG] |==|  0.82623
USER: genes 7 Torsion [N]-CA--C-[N] |==|  0.36973
USER: genes 8 Torsion [C]-N--CA-[C] |==|  0.35645
USER: genes 9 Torsion [N]-CA--C-[O] |==|  0.00731
USER: genes 10 Torsion [N]-CA--CB-[CG] |==|  0.61293
USER: genes 11 Torsion [CA]-CB--CG-[CD2] |==|  0.76624
USER: genes 12 Torsion [CE2]-CZ--OH-[HH] |==|  0.92451
ROOT
ATOM      1  CA  TYR Z  -4       4.628  17.854  10.225  1.00 44.41 LIG 0.18  C 
ENDROOT
BRANCH 1 2
ATOM      2  N   TYR Z  -4       5.421  18.735   9.375  1.00 49.32 LIG-0.35  N 
ATOM      3 H    TYR Z  -4       5.177  19.559   9.392  1.00 49.32 LIG 0.16  HD
ATOM      4  C   SER Z  -5       6.431  18.274   8.645  1.00 53.16 LIG 0.25  C 
ATOM      5 O    SER Z  -5       6.708  17.076   8.563  1.00 46.54 LIG-0.27  OA
BRANCH 4 6
ATOM      6  CA  SER Z  -5       7.252  19.318   7.895  1.00 61.82 LIG 0.30  C 
BRANCH 6 7
ATOM      7  N   SER Z  -5       7.951  20.182   8.839  1.00 64.85 LIG-0.06  N 
ATOM      8 H1   SER Z  -5       8.582  19.716   9.259  1.00 64.85 LIG 0.28  HD
ATOM      9 H3   SER Z  -5       7.372  20.501   9.435  1.00 64.85 LIG 0.28  HD
ATOM     10 H2   SER Z  -5       8.327  20.859   8.400  1.00 64.85 LIG 0.28  HD
ENDBRANCH 6 7
BRANCH 6 11
ATOM     11  CB  SER Z  -5       8.245  18.641   6.945  1.00 66.88 LIG 0.21  C 
BRANCH 11 12
ATOM     12 OG   SER Z  -5       9.358  18.112   7.650  1.00 63.67 LIG-0.40  OA
ATOM     13 HG   SER Z  -5       9.776  18.738   8.024  1.00 63.67 LIG 0.21  HD
ENDBRANCH 11 12
ENDBRANCH 6 11
ENDBRANCH 4 6
ENDBRANCH 1 2
BRANCH 1 14
ATOM     14  C   TYR Z  -4       3.967  16.753   9.412  1.00 48.17 LIG 0.24  C 
ATOM     15  N   GLY Z  -3       4.071  15.523   9.901  1.00 50.01 LIG-0.35  N 
ATOM     16 H    GLY Z  -3       4.448  15.335  10.650  1.00 50.01 LIG 0.16  HD
ATOM     17 O    TYR Z  -4       3.388  17.008   8.356  1.00 57.82 LIG-0.27  OA
BRANCH 15 18
ATOM     18  CA  GLY Z  -3       3.545  14.374   9.189  1.00 64.94 LIG 0.21  C 
BRANCH 18 19
ATOM     19  C   GLY Z  -3       4.576  13.275   9.032  1.00 70.96 LIG 0.21  C 
ATOM     20 O    GLY Z  -3       5.699  13.393   9.525  1.00 75.87 LIG-0.29  OA
ENDBRANCH 18 19
ENDBRANCH 15 18
ENDBRANCH 1 14
BRANCH 1 21
ATOM     21  CB  TYR Z  -4       3.588  18.671  11.004  1.00 44.24 LIG 0.07  C 
BRANCH 21 22
ATOM     22  CG  TYR Z  -4       3.453  18.196  12.434  1.00 50.17 LIG-0.06  A 
ATOM     23  CD2 TYR Z  -4       2.628  17.125  12.757  1.00 45.93 LIG 0.01  A 
ATOM     24  CE2 TYR Z  -4       2.521  16.673  14.060  1.00 43.59 LIG 0.04  A 
ATOM     25  CZ  TYR Z  -4       3.249  17.287  15.057  1.00 44.55 LIG 0.07  A 
ATOM     26  CE1 TYR Z  -4       4.083  18.346  14.761  1.00 43.60 LIG 0.04  A 
ATOM     27  CD1 TYR Z  -4       4.183  18.792  13.455  1.00 43.85 LIG 0.01  A 
BRANCH 25 28
ATOM     28 OH   TYR Z  -4       3.144  16.840  16.354  1.00 43.23 LIG-0.36  OA
ATOM     29 HH   TYR Z  -4       2.390  16.487  16.469  1.00 43.23 LIG 0.22  HD
ENDBRANCH 25 28
ENDBRANCH 21 22
ENDBRANCH 1 21
TORSDOF 11
ENDMDL
MODEL 127
USER: ADFR SOLUTION from run 128
USER: SCORE 8.350008 LL:  -1.765 LR:  -6.635 RR:   0.000 FEB:  -3.354
USER: RMSD 7.555776
USER: SEED 127
USER: STATUS no improvement in best in 22 clusters for 5 generations
USER: GENES 13
USER: genes 0 Translation |==|  0.35550 0.38220 0.27016
USER: genes 1 Rotation |==|  0.59863 0.19874 0.86385 0.63087
USER: genes 2 Torsion [C]-CA--N-[C] |==|  0.78419
USER: genes 3 Torsion [N]-C--CA-[N] |==|  0.78857
USER: genes 4 Torsion [C]-CA--N-[H1] |==|  0.11532
USER: genes 5 Torsion [C]-CA--CB-[OG] |==|  0.69453
USER: genes 6 Torsion [CA]-CB--OG-[HG] |==|  0.26419
USER: genes 7 Torsion [N]-CA--C-[N] |==|  0.45556
USER: genes 8 Torsion [C]-N--CA-[C] |==|  0.67873
USER: genes 9 Torsion [N]-CA--C-[O] |==|  0.17825
USER: genes 10 Torsion [N]-CA--CB-[CG] |==|  0.19690
USER: genes 11 Torsion [CA]-CB--CG-[CD2] |==|  0.35923
USER: genes 12 Torsion [CE2]-CZ--OH-[HH] |==|  0.69751
ROOT
ATOM      1  CA  TYR Z  -4       0.692  12.077   5.702  1.00 44.41 LIG 0.18  C 
ENDROOT
BRANCH 1 2
ATOM      2  N   TYR Z  -4       0.198  11.098   4.742  1.00 49.32 LIG-0.35  N 
ATOM      3 H    TYR Z  -4      -0.291  10.479   5.084  1.00 49.32 LIG 0.16  HD
ATOM      4  C   SER Z  -5       0.494  11.180   3.449  1.00 53.16 LIG 0.25  C 
ATOM      5 O    SER Z  -5       1.269  12.021   2.989  1.00 46.54 LIG-0.27  OA
BRANCH 4 6
ATOM      6  CA  SER Z  -5      -0.185  10.164   2.536  1.00 61.82 LIG 0.30  C 
BRANCH 6 7
ATOM      7  N   SER Z  -5       0.451   8.859   2.673  1.00 64.85 LIG-0.06  N 
ATOM      8 H1   SER Z  -5       0.626   8.702   3.531  1.00 64.85 LIG 0.28  HD
ATOM      9 H3   SER Z  -5       1.210   8.849   2.209  1.00 64.85 LIG 0.28  HD
ATOM     10 H2   SER Z  -5      -0.094   8.229   2.361  1.00 64.85 LIG 0.28  HD
ENDBRANCH 6 7
BRANCH 6 11
ATOM     11  CB  SER Z  -5      -1.682  10.072   2.854  1.00 66.88 LIG 0.21  C 
BRANCH 11 12
ATOM     12 OG   SER Z  -5      -2.005   8.833   3.465  1.00 63.67 LIG-0.40  OA
ATOM     13 HG   SER Z  -5      -2.006   8.923   4.300  1.00 63.67 LIG 0.21  HD
ENDBRANCH 11 12
ENDBRANCH 6 11
ENDBRANCH 4 6
ENDBRANCH 1 2
BRANCH 1 14
ATOM     14  C   TYR Z  -4       2.149  11.818   6.051  1.00 48.17 LIG 0.24  C 
ATOM     15  N   GLY Z  -3       2.792  12.816   6.646  1.00 50.01 LIG-0.35  N 
ATOM     16 H    GLY Z  -3       2.423  13.559   6.871  1.00 50.01 LIG 0.16  HD
ATOM     17 O    TYR Z  -4       2.685  10.746   5.773  1.00 57.82 LIG-0.27  OA
BRANCH 15 18
ATOM     18  CA  GLY Z  -3       4.204  12.725   6.971  1.00 64.94 LIG 0.21  C 
BRANCH 18 19
ATOM     19  C   GLY Z  -3       4.452  12.762   8.465  1.00 70.96 LIG 0.21  C 
ATOM     20 O    GLY Z  -3       4.031  11.863   9.194  1.00 75.87 LIG-0.29  OA
ENDBRANCH 18 19
ENDBRANCH 15 18
ENDBRANCH 1 14
BRANCH 1 21
ATOM     21  CB  TYR Z  -4      -0.189  12.072   6.959  1.00 44.24 LIG 0.07  C 
BRANCH 21 22
ATOM     22  CG  TYR Z  -4       0.004  10.816   7.779  1.00 50.17 LIG-0.06  A 
ATOM     23  CD2 TYR Z  -4       0.264  10.884   9.142  1.00 45.93 LIG 0.01  A 
ATOM     24  CE2 TYR Z  -4       0.417   9.737   9.900  1.00 43.59 LIG 0.04  A 
ATOM     25  CZ  TYR Z  -4       0.304   8.501   9.297  1.00 44.55 LIG 0.07  A 
ATOM     26  CE1 TYR Z  -4       0.037   8.406   7.947  1.00 43.60 LIG 0.04  A 
ATOM     27  CD1 TYR Z  -4      -0.115   9.559   7.197  1.00 43.85 LIG 0.01  A 
BRANCH 25 28
ATOM     28 OH   TYR Z  -4       0.456   7.359  10.047  1.00 43.23 LIG-0.36  OA
ATOM     29 HH   TYR Z  -4       1.182   6.986   9.847  1.00 43.23 LIG 0.22  HD
ENDBRANCH 25 28
ENDBRANCH 21 22
ENDBRANCH 1 21
TORSDOF 11
ENDMDL
MODEL 128
USER: ADFR SOLUTION from run 46
USER: SCORE 7.909511 LL:  -1.366 LR:  -6.628 RR:   0.000 FEB:  -3.346
USER: RMSD 5.319020
USER: SEED 45
USER: STATUS no improvement in best in 28 clusters for 5 generations
USER: GENES 13
USER: genes 0 Translation |==|  0.53363 0.59213 0.56021
USER: genes 1 Rotation |==|  0.10753 0.27071 0.65684 0.63710
USER: genes 2 Torsion [C]-CA--N-[C] |==|  0.75339
USER: genes 3 Torsion [N]-C--CA-[N] |==|  0.37783
USER: genes 4 Torsion [C]-CA--N-[H1] |==|  0.05458
USER: genes 5 Torsion [C]-CA--CB-[OG] |==|  0.52858
USER: genes 6 Torsion [CA]-CB--OG-[HG] |==|  0.63364
USER: genes 7 Torsion [N]-CA--C-[N] |==|  0.38477
USER: genes 8 Torsion [C]-N--CA-[C] |==|  0.36406
USER: genes 9 Torsion [N]-CA--C-[O] |==|  0.51874
USER: genes 10 Torsion [N]-CA--CB-[CG] |==|  0.80907
USER: genes 11 Torsion [CA]-CB--CG-[CD2] |==|  0.63142
USER: genes 12 Torsion [CE2]-CZ--OH-[HH] |==|  0.07183
ROOT
ATOM      1  CA  TYR Z  -4       3.631  15.698  10.053  1.00 44.41 LIG 0.18  C 
ENDROOT
BRANCH 1 2
ATOM      2  N   TYR Z  -4       3.568  15.007   8.771  1.00 49.32 LIG-0.35  N 
ATOM      3 H    TYR Z  -4       3.176  15.451   8.147  1.00 49.32 LIG 0.16  HD
ATOM      4  C   SER Z  -5       4.083  13.793   8.608  1.00 53.16 LIG 0.25  C 
ATOM      5 O    SER Z  -5       4.560  13.136   9.535  1.00 46.54 LIG-0.27  OA
BRANCH 4 6
ATOM      6  CA  SER Z  -5       4.058  13.235   7.189  1.00 61.82 LIG 0.30  C 
BRANCH 6 7
ATOM      7  N   SER Z  -5       5.336  12.609   6.870  1.00 64.85 LIG-0.06  N 
ATOM      8 H1   SER Z  -5       5.769  12.418   7.623  1.00 64.85 LIG 0.28  HD
ATOM      9 H3   SER Z  -5       5.826  13.167   6.380  1.00 64.85 LIG 0.28  HD
ATOM     10 H2   SER Z  -5       5.193  11.859   6.412  1.00 64.85 LIG 0.28  HD
ENDBRANCH 6 7
BRANCH 6 11
ATOM     11  CB  SER Z  -5       2.909  12.234   7.025  1.00 66.88 LIG 0.21  C 
BRANCH 11 12
ATOM     12 OG   SER Z  -5       3.007  11.531   5.796  1.00 63.67 LIG-0.40  OA
ATOM     13 HG   SER Z  -5       2.261  11.539   5.408  1.00 63.67 LIG 0.21  HD
ENDBRANCH 11 12
ENDBRANCH 6 11
ENDBRANCH 4 6
ENDBRANCH 1 2
BRANCH 1 14
ATOM     14  C   TYR Z  -4       2.428  15.360  10.920  1.00 48.17 LIG 0.24  C 
ATOM     15  N   GLY Z  -3       2.677  15.151  12.207  1.00 50.01 LIG-0.35  N 
ATOM     16 H    GLY Z  -3       3.453  15.235  12.566  1.00 50.01 LIG 0.16  HD
ATOM     17 O    TYR Z  -4       1.302  15.272  10.431  1.00 57.82 LIG-0.27  OA
BRANCH 15 18
ATOM     18  CA  GLY Z  -3       1.630  14.753  13.130  1.00 64.94 LIG 0.21  C 
BRANCH 18 19
ATOM     19  C   GLY Z  -3       2.034  13.564  13.978  1.00 70.96 LIG 0.21  C 
ATOM     20 O    GLY Z  -3       1.220  13.021  14.725  1.00 75.87 LIG-0.29  OA
ENDBRANCH 18 19
ENDBRANCH 15 18
ENDBRANCH 1 14
BRANCH 1 21
ATOM     21  CB  TYR Z  -4       3.746  17.212   9.831  1.00 44.24 LIG 0.07  C 
BRANCH 21 22
ATOM     22  CG  TYR Z  -4       5.082  17.595   9.236  1.00 50.17 LIG-0.06  A 
ATOM     23  CD2 TYR Z  -4       5.824  18.647   9.761  1.00 45.93 LIG 0.01  A 
ATOM     24  CE2 TYR Z  -4       7.058  18.984   9.236  1.00 43.59 LIG 0.04  A 
ATOM     25  CZ  TYR Z  -4       7.569  18.264   8.176  1.00 44.55 LIG 0.07  A 
ATOM     26  CE1 TYR Z  -4       6.857  17.210   7.642  1.00 43.60 LIG 0.04  A 
ATOM     27  CD1 TYR Z  -4       5.622  16.879   8.174  1.00 43.85 LIG 0.01  A 
BRANCH 25 28
ATOM     28 OH   TYR Z  -4       8.795  18.598   7.650  1.00 43.23 LIG-0.36  OA
ATOM     29 HH   TYR Z  -4       9.259  18.978   8.239  1.00 43.23 LIG 0.22  HD
ENDBRANCH 25 28
ENDBRANCH 21 22
ENDBRANCH 1 21
TORSDOF 11
ENDMDL
MODEL 129
USER: ADFR SOLUTION from run 12
USER: SCORE 8.079301 LL:  -1.541 LR:  -6.622 RR:   0.000 FEB:  -3.341
USER: RMSD 2.271838
USER: SEED 473638
USER: STATUS no improvement in best in 24 clusters for 5 generations
USER: GENES 13
USER: genes 0 Translation |==|  0.47958 0.46768 0.50291
USER: genes 1 Rotation |==|  0.66193 0.50439 0.51098 0.97291
USER: genes 2 Torsion [C]-CA--N-[C] |==|  0.62601
USER: genes 3 Torsion [N]-C--CA-[N] |==|  0.15507
USER: genes 4 Torsion [C]-CA--N-[H1] |==|  0.00663
USER: genes 5 Torsion [C]-CA--CB-[OG] |==|  0.75687
USER: genes 6 Torsion [CA]-CB--OG-[HG] |==|  0.16078
USER: genes 7 Torsion [N]-CA--C-[N] |==|  0.43690
USER: genes 8 Torsion [C]-N--CA-[C] |==|  0.62900
USER: genes 9 Torsion [N]-CA--C-[O] |==|  0.99322
USER: genes 10 Torsion [N]-CA--CB-[CG] |==|  0.71082
USER: genes 11 Torsion [CA]-CB--CG-[CD2] |==|  0.69099
USER: genes 12 Torsion [CE2]-CZ--OH-[HH] |==|  0.07566
ROOT
ATOM      1  CA  TYR Z  -4       2.739  13.552   9.194  1.00 44.41 LIG 0.18  C 
ENDROOT
BRANCH 1 2
ATOM      2  N   TYR Z  -4       2.390  13.989  10.540  1.00 49.32 LIG-0.35  N 
ATOM      3 H    TYR Z  -4       2.246  13.349  11.096  1.00 49.32 LIG 0.16  HD
ATOM      4  C   SER Z  -5       2.310  15.278  10.854  1.00 53.16 LIG 0.25  C 
ATOM      5 O    SER Z  -5       2.431  16.181  10.024  1.00 46.54 LIG-0.27  OA
BRANCH 4 6
ATOM      6  CA  SER Z  -5       2.055  15.598  12.324  1.00 61.82 LIG 0.30  C 
BRANCH 6 7
ATOM      7  N   SER Z  -5       3.076  14.976  13.160  1.00 64.85 LIG-0.06  N 
ATOM      8 H1   SER Z  -5       3.669  14.559  12.644  1.00 64.85 LIG 0.28  HD
ATOM      9 H3   SER Z  -5       2.694  14.388  13.707  1.00 64.85 LIG 0.28  HD
ATOM     10 H2   SER Z  -5       3.489  15.602  13.639  1.00 64.85 LIG 0.28  HD
ENDBRANCH 6 7
BRANCH 6 11
ATOM     11  CB  SER Z  -5       2.024  17.113  12.546  1.00 66.88 LIG 0.21  C 
BRANCH 11 12
ATOM     12 OG   SER Z  -5       3.323  17.628  12.792  1.00 63.67 LIG-0.40  OA
ATOM     13 HG   SER Z  -5       3.827  17.440  12.146  1.00 63.67 LIG 0.21  HD
ENDBRANCH 11 12
ENDBRANCH 6 11
ENDBRANCH 4 6
ENDBRANCH 1 2
BRANCH 1 14
ATOM     14  C   TYR Z  -4       1.819  12.437   8.722  1.00 48.17 LIG 0.24  C 
ATOM     15  N   GLY Z  -3       1.718  12.281   7.407  1.00 50.01 LIG-0.35  N 
ATOM     16 H    GLY Z  -3       2.166  12.739   6.833  1.00 50.01 LIG 0.16  HD
ATOM     17 O    TYR Z  -4       1.199  11.744   9.529  1.00 57.82 LIG-0.27  OA
BRANCH 15 18
ATOM     18  CA  GLY Z  -3       0.822  11.300   6.823  1.00 64.94 LIG 0.21  C 
BRANCH 18 19
ATOM     19  C   GLY Z  -3       1.493  10.489   5.733  1.00 70.96 LIG 0.21  C 
ATOM     20 O    GLY Z  -3       2.655  10.724   5.400  1.00 75.87 LIG-0.29  OA
ENDBRANCH 18 19
ENDBRANCH 15 18
ENDBRANCH 1 14
BRANCH 1 21
ATOM     21  CB  TYR Z  -4       4.209  13.114   9.146  1.00 44.24 LIG 0.07  C 
BRANCH 21 22
ATOM     22  CG  TYR Z  -4       5.085  14.151   8.479  1.00 50.17 LIG-0.06  A 
ATOM     23  CD2 TYR Z  -4       5.669  13.904   7.242  1.00 45.93 LIG 0.01  A 
ATOM     24  CE2 TYR Z  -4       6.451  14.859   6.617  1.00 43.59 LIG 0.04  A 
ATOM     25  CZ  TYR Z  -4       6.652  16.081   7.225  1.00 44.55 LIG 0.07  A 
ATOM     26  CE1 TYR Z  -4       6.076  16.354   8.449  1.00 43.60 LIG 0.04  A 
ATOM     27  CD1 TYR Z  -4       5.295  15.392   9.067  1.00 43.85 LIG 0.01  A 
BRANCH 25 28
ATOM     28 OH   TYR Z  -4       7.430  17.032   6.607  1.00 43.23 LIG-0.36  OA
ATOM     29 HH   TYR Z  -4       7.405  16.918   5.775  1.00 43.23 LIG 0.22  HD
ENDBRANCH 25 28
ENDBRANCH 21 22
ENDBRANCH 1 21
TORSDOF 11
ENDMDL
MODEL 130
USER: ADFR SOLUTION from run 108
USER: SCORE 8.352076 LL:  -1.761 LR:  -6.613 RR:   0.000 FEB:  -3.332
USER: RMSD 5.930979
USER: SEED 107
USER: STATUS no improvement in best in 22 clusters for 5 generations
USER: GENES 13
USER: genes 0 Translation |==|  0.67543 0.52248 0.44123
USER: genes 1 Rotation |==|  0.38827 0.12349 0.35631 0.77407
USER: genes 2 Torsion [C]-CA--N-[C] |==|  0.80132
USER: genes 3 Torsion [N]-C--CA-[N] |==|  0.70203
USER: genes 4 Torsion [C]-CA--N-[H1] |==|  0.04320
USER: genes 5 Torsion [C]-CA--CB-[OG] |==|  0.44069
USER: genes 6 Torsion [CA]-CB--OG-[HG] |==|  0.80332
USER: genes 7 Torsion [N]-CA--C-[N] |==|  0.93383
USER: genes 8 Torsion [C]-N--CA-[C] |==|  0.16869
USER: genes 9 Torsion [N]-CA--C-[O] |==|  0.72352
USER: genes 10 Torsion [N]-CA--CB-[CG] |==|  0.30673
USER: genes 11 Torsion [CA]-CB--CG-[CD2] |==|  0.25494
USER: genes 12 Torsion [CE2]-CZ--OH-[HH] |==|  0.74908
ROOT
ATOM      1  CA  TYR Z  -4       5.971  14.497   8.268  1.00 44.41 LIG 0.18  C 
ENDROOT
BRANCH 1 2
ATOM      2  N   TYR Z  -4       6.293  15.891   7.991  1.00 49.32 LIG-0.35  N 
ATOM      3 H    TYR Z  -4       5.793  16.460   8.399  1.00 49.32 LIG 0.16  HD
ATOM      4  C   SER Z  -5       7.284  16.227   7.171  1.00 53.16 LIG 0.25  C 
ATOM      5 O    SER Z  -5       7.930  15.401   6.525  1.00 46.54 LIG-0.27  OA
BRANCH 4 6
ATOM      6  CA  SER Z  -5       7.593  17.717   7.063  1.00 61.82 LIG 0.30  C 
BRANCH 6 7
ATOM      7  N   SER Z  -5       7.140  18.234   5.777  1.00 64.85 LIG-0.06  N 
ATOM      8 H1   SER Z  -5       6.581  17.652   5.403  1.00 64.85 LIG 0.28  HD
ATOM      9 H3   SER Z  -5       7.841  18.356   5.243  1.00 64.85 LIG 0.28  HD
ATOM     10 H2   SER Z  -5       6.722  19.010   5.899  1.00 64.85 LIG 0.28  HD
ENDBRANCH 6 7
BRANCH 6 11
ATOM     11  CB  SER Z  -5       6.938  18.487   8.215  1.00 66.88 LIG 0.21  C 
BRANCH 11 12
ATOM     12 OG   SER Z  -5       7.576  19.736   8.431  1.00 63.67 LIG-0.40  OA
ATOM     13 HG   SER Z  -5       8.338  19.609   8.763  1.00 63.67 LIG 0.21  HD
ENDBRANCH 11 12
ENDBRANCH 6 11
ENDBRANCH 4 6
ENDBRANCH 1 2
BRANCH 1 14
ATOM     14  C   TYR Z  -4       5.325  13.831   7.063  1.00 48.17 LIG 0.24  C 
ATOM     15  N   GLY Z  -3       4.722  14.643   6.202  1.00 50.01 LIG-0.35  N 
ATOM     16 H    GLY Z  -3       4.716  15.500   6.274  1.00 50.01 LIG 0.16  HD
ATOM     17 O    TYR Z  -4       5.357  12.609   6.923  1.00 57.82 LIG-0.27  OA
BRANCH 15 18
ATOM     18  CA  GLY Z  -3       4.008  14.132   5.046  1.00 64.94 LIG 0.21  C 
BRANCH 18 19
ATOM     19  C   GLY Z  -3       2.857  13.228   5.437  1.00 70.96 LIG 0.21  C 
ATOM     20 O    GLY Z  -3       2.981  12.003   5.400  1.00 75.87 LIG-0.29  OA
ENDBRANCH 18 19
ENDBRANCH 15 18
ENDBRANCH 1 14
BRANCH 1 21
ATOM     21  CB  TYR Z  -4       5.067  14.401   9.505  1.00 44.24 LIG 0.07  C 
BRANCH 21 22
ATOM     22  CG  TYR Z  -4       3.662  13.971   9.145  1.00 50.17 LIG-0.06  A 
ATOM     23  CD2 TYR Z  -4       3.301  12.629   9.151  1.00 45.93 LIG 0.01  A 
ATOM     24  CE2 TYR Z  -4       2.011  12.234   8.847  1.00 43.59 LIG 0.04  A 
ATOM     25  CZ  TYR Z  -4       1.061  13.185   8.537  1.00 44.55 LIG 0.07  A 
ATOM     26  CE1 TYR Z  -4       1.391  14.525   8.533  1.00 43.60 LIG 0.04  A 
ATOM     27  CD1 TYR Z  -4       2.685  14.911   8.839  1.00 43.85 LIG 0.01  A 
BRANCH 25 28
ATOM     28 OH   TYR Z  -4      -0.223  12.796   8.233  1.00 43.23 LIG-0.36  OA
ATOM     29 HH   TYR Z  -4      -0.289  12.669   7.405  1.00 43.23 LIG 0.22  HD
ENDBRANCH 25 28
ENDBRANCH 21 22
ENDBRANCH 1 21
TORSDOF 11
ENDMDL
MODEL 131
USER: ADFR SOLUTION from run 138
USER: SCORE 8.155692 LL:  -1.553 LR:  -6.614 RR:   0.000 FEB:  -3.333
USER: RMSD 6.010943
USER: SEED 137
USER: STATUS no improvement in best in 34 clusters for 5 generations
USER: GENES 13
USER: genes 0 Translation |==|  0.71040 0.54979 0.36412
USER: genes 1 Rotation |==|  0.14622 0.43253 0.62216 0.82460
USER: genes 2 Torsion [C]-CA--N-[C] |==|  0.81675
USER: genes 3 Torsion [N]-C--CA-[N] |==|  0.08790
USER: genes 4 Torsion [C]-CA--N-[H1] |==|  0.17074
USER: genes 5 Torsion [C]-CA--CB-[OG] |==|  0.16172
USER: genes 6 Torsion [CA]-CB--OG-[HG] |==|  0.91470
USER: genes 7 Torsion [N]-CA--C-[N] |==|  0.92024
USER: genes 8 Torsion [C]-N--CA-[C] |==|  0.85117
USER: genes 9 Torsion [N]-CA--C-[O] |==|  0.29845
USER: genes 10 Torsion [N]-CA--CB-[CG] |==|  0.16233
USER: genes 11 Torsion [CA]-CB--CG-[CD2] |==|  0.24191
USER: genes 12 Torsion [CE2]-CZ--OH-[HH] |==|  0.30031
ROOT
ATOM      1  CA  TYR Z  -4       6.548  14.968   7.112  1.00 44.41 LIG 0.18  C 
ENDROOT
BRANCH 1 2
ATOM      2  N   TYR Z  -4       5.710  15.326   5.974  1.00 49.32 LIG-0.35  N 
ATOM      3 H    TYR Z  -4       5.874  16.103   5.642  1.00 49.32 LIG 0.16  HD
ATOM      4  C   SER Z  -5       4.777  14.502   5.508  1.00 53.16 LIG 0.25  C 
ATOM      5 O    SER Z  -5       4.495  13.432   6.051  1.00 46.54 LIG-0.27  OA
BRANCH 4 6
ATOM      6  CA  SER Z  -5       4.056  14.948   4.241  1.00 61.82 LIG 0.30  C 
BRANCH 6 7
ATOM      7  N   SER Z  -5       4.951  15.735   3.401  1.00 64.85 LIG-0.06  N 
ATOM      8 H1   SER Z  -5       5.646  15.236   3.157  1.00 64.85 LIG 0.28  HD
ATOM      9 H3   SER Z  -5       5.240  16.443   3.856  1.00 64.85 LIG 0.28  HD
ATOM     10 H2   SER Z  -5       4.514  16.008   2.675  1.00 64.85 LIG 0.28  HD
ENDBRANCH 6 7
BRANCH 6 11
ATOM     11  CB  SER Z  -5       3.520  13.736   3.472  1.00 66.88 LIG 0.21  C 
BRANCH 11 12
ATOM     12 OG   SER Z  -5       2.635  12.966   4.270  1.00 63.67 LIG-0.40  OA
ATOM     13 HG   SER Z  -5       2.861  13.026   5.078  1.00 63.67 LIG 0.21  HD
ENDBRANCH 11 12
ENDBRANCH 6 11
ENDBRANCH 4 6
ENDBRANCH 1 2
BRANCH 1 14
ATOM     14  C   TYR Z  -4       5.725  14.851   8.385  1.00 48.17 LIG 0.24  C 
ATOM     15  N   GLY Z  -3       4.635  15.607   8.447  1.00 50.01 LIG-0.35  N 
ATOM     16 H    GLY Z  -3       4.362  16.109   7.805  1.00 50.01 LIG 0.16  HD
ATOM     17 O    TYR Z  -4       6.078  14.107   9.300  1.00 57.82 LIG-0.27  OA
BRANCH 15 18
ATOM     18  CA  GLY Z  -3       3.799  15.642   9.632  1.00 64.94 LIG 0.21  C 
BRANCH 18 19
ATOM     19  C   GLY Z  -3       3.361  14.258  10.066  1.00 70.96 LIG 0.21  C 
ATOM     20 O    GLY Z  -3       3.843  13.734  11.072  1.00 75.87 LIG-0.29  OA
ENDBRANCH 18 19
ENDBRANCH 15 18
ENDBRANCH 1 14
BRANCH 1 21
ATOM     21  CB  TYR Z  -4       7.680  15.991   7.275  1.00 44.24 LIG 0.07  C 
BRANCH 21 22
ATOM     22  CG  TYR Z  -4       7.150  17.393   7.472  1.00 50.17 LIG-0.06  A 
ATOM     23  CD2 TYR Z  -4       6.827  17.865   8.739  1.00 45.93 LIG 0.01  A 
ATOM     24  CE2 TYR Z  -4       6.365  19.155   8.925  1.00 43.59 LIG 0.04  A 
ATOM     25  CZ  TYR Z  -4       6.227  19.994   7.839  1.00 44.55 LIG 0.07  A 
ATOM     26  CE1 TYR Z  -4       6.549  19.554   6.572  1.00 43.60 LIG 0.04  A 
ATOM     27  CD1 TYR Z  -4       7.011  18.261   6.394  1.00 43.85 LIG 0.01  A 
BRANCH 25 28
ATOM     28 OH   TYR Z  -4       5.766  21.278   8.021  1.00 43.23 LIG-0.36  OA
ATOM     29 HH   TYR Z  -4       6.398  21.821   7.912  1.00 43.23 LIG 0.22  HD
ENDBRANCH 25 28
ENDBRANCH 21 22
ENDBRANCH 1 21
TORSDOF 11
ENDMDL
MODEL 132
USER: ADFR SOLUTION from run 157
USER: SCORE 8.179363 LL:  -1.576 LR:  -6.615 RR:   0.000 FEB:  -3.333
USER: RMSD 5.584351
USER: SEED 156
USER: STATUS no improvement in best in 33 clusters for 5 generations
USER: GENES 13
USER: genes 0 Translation |==|  0.57210 0.63489 0.54542
USER: genes 1 Rotation |==|  0.17757 0.17092 0.59432 0.66986
USER: genes 2 Torsion [C]-CA--N-[C] |==|  0.77150
USER: genes 3 Torsion [N]-C--CA-[N] |==|  0.39801
USER: genes 4 Torsion [C]-CA--N-[H1] |==|  0.39647
USER: genes 5 Torsion [C]-CA--CB-[OG] |==|  0.54731
USER: genes 6 Torsion [CA]-CB--OG-[HG] |==|  0.89133
USER: genes 7 Torsion [N]-CA--C-[N] |==|  0.98664
USER: genes 8 Torsion [C]-N--CA-[C] |==|  0.64682
USER: genes 9 Torsion [N]-CA--C-[O] |==|  0.01283
USER: genes 10 Torsion [N]-CA--CB-[CG] |==|  0.79665
USER: genes 11 Torsion [CA]-CB--CG-[CD2] |==|  0.56507
USER: genes 12 Torsion [CE2]-CZ--OH-[HH] |==|  0.48475
ROOT
ATOM      1  CA  TYR Z  -4       4.266  16.436   9.831  1.00 44.41 LIG 0.18  C 
ENDROOT
BRANCH 1 2
ATOM      2  N   TYR Z  -4       4.555  16.377   8.404  1.00 49.32 LIG-0.35  N 
ATOM      3 H    TYR Z  -4       4.150  16.972   7.934  1.00 49.32 LIG 0.16  HD
ATOM      4  C   SER Z  -5       5.382  15.467   7.898  1.00 53.16 LIG 0.25  C 
ATOM      5 O    SER Z  -5       5.882  14.565   8.573  1.00 46.54 LIG-0.27  OA
BRANCH 4 6
ATOM      6  CA  SER Z  -5       5.691  15.591   6.410  1.00 61.82 LIG 0.30  C 
BRANCH 6 7
ATOM      7  N   SER Z  -5       7.082  15.234   6.152  1.00 64.85 LIG-0.06  N 
ATOM      8 H1   SER Z  -5       7.138  14.795   5.380  1.00 64.85 LIG 0.28  HD
ATOM      9 H3   SER Z  -5       7.382  14.716   6.810  1.00 64.85 LIG 0.28  HD
ATOM     10 H2   SER Z  -5       7.575  15.973   6.109  1.00 64.85 LIG 0.28  HD
ENDBRANCH 6 7
BRANCH 6 11
ATOM     11  CB  SER Z  -5       4.746  14.709   5.588  1.00 66.88 LIG 0.21  C 
BRANCH 11 12
ATOM     12 OG   SER Z  -5       5.242  14.499   4.276  1.00 63.67 LIG-0.40  OA
ATOM     13 HG   SER Z  -5       5.589  15.209   3.990  1.00 63.67 LIG 0.21  HD
ENDBRANCH 11 12
ENDBRANCH 6 11
ENDBRANCH 4 6
ENDBRANCH 1 2
BRANCH 1 14
ATOM     14  C   TYR Z  -4       3.192  15.430  10.217  1.00 48.17 LIG 0.24  C 
ATOM     15  N   GLY Z  -3       2.638  14.756   9.216  1.00 50.01 LIG-0.35  N 
ATOM     16 H    GLY Z  -3       2.879  14.832   8.395  1.00 50.01 LIG 0.16  HD
ATOM     17 O    TYR Z  -4       2.860  15.280  11.393  1.00 57.82 LIG-0.27  OA
BRANCH 15 18
ATOM     18  CA  GLY Z  -3       1.555  13.817   9.439  1.00 64.94 LIG 0.21  C 
BRANCH 18 19
ATOM     19  C   GLY Z  -3       1.844  12.456   8.840  1.00 70.96 LIG 0.21  C 
ATOM     20 O    GLY Z  -3       2.935  12.218   8.319  1.00 75.87 LIG-0.29  OA
ENDBRANCH 18 19
ENDBRANCH 15 18
ENDBRANCH 1 14
BRANCH 1 21
ATOM     21  CB  TYR Z  -4       3.858  17.862  10.227  1.00 44.24 LIG 0.07  C 
BRANCH 21 22
ATOM     22  CG  TYR Z  -4       5.040  18.805  10.237  1.00 50.17 LIG-0.06  A 
ATOM     23  CD2 TYR Z  -4       5.022  19.967  10.998  1.00 45.93 LIG 0.01  A 
ATOM     24  CE2 TYR Z  -4       6.111  20.819  11.029  1.00 43.59 LIG 0.04  A 
ATOM     25  CZ  TYR Z  -4       7.239  20.511  10.298  1.00 44.55 LIG 0.07  A 
ATOM     26  CE1 TYR Z  -4       7.287  19.358   9.542  1.00 43.60 LIG 0.04  A 
ATOM     27  CD1 TYR Z  -4       6.193  18.511   9.517  1.00 43.85 LIG 0.01  A 
BRANCH 25 28
ATOM     28 OH   TYR Z  -4       8.324  21.357  10.325  1.00 43.23 LIG-0.36  OA
ATOM     29 HH   TYR Z  -4       8.961  21.011   9.900  1.00 43.23 LIG 0.22  HD
ENDBRANCH 25 28
ENDBRANCH 21 22
ENDBRANCH 1 21
TORSDOF 11
ENDMDL
