MODEL 1
USER: ADFR SOLUTION from run 146
USER: SCORE 22.271722 LL:  -4.726 LR: -19.560 RR:   0.000 FEB: -13.296
USER: RMSD 2.914175
USER: SEED 145
USER: STATUS no improvement in best in 5 clusters for 5 generations
USER: GENES 23
USER: genes 0 Translation |==|  0.38487 0.55472 0.58335
USER: genes 1 Rotation |==|  0.52252 0.49597 0.42218 0.99338
USER: genes 2 Torsion [C]-N--CA-[CB] |==|  0.49444
USER: genes 3 Torsion [N]-CA--CB-[CG] |==|  0.66401
USER: genes 4 Torsion [CA]-CB--CG-[CD1] |==|  0.67189
USER: genes 5 Torsion [N]-CA--C-[N] |==|  0.89782
USER: genes 6 Torsion [C]-N--CA-[CB] |==|  0.84995
USER: genes 7 Torsion [N]-CA--C-[N] |==|  0.40539
USER: genes 8 Torsion [C]-N--CA-[C] |==|  0.19234
USER: genes 9 Torsion [N]-CA--C-[N] |==|  0.03567
USER: genes 10 Torsion [N]-CA--CB-[CG] |==|  0.87421
USER: genes 11 Torsion [CA]-CB--CG-[CD2] |==|  0.32736
USER: genes 12 Torsion [N]-C--CA-[N] |==|  0.41191
USER: genes 13 Torsion [C]-CA--N-[C] |==|  0.56557
USER: genes 14 Torsion [N]-C--CA-[N] |==|  0.45869
USER: genes 15 Torsion [C]-CA--CB-[CG] |==|  0.84652
USER: genes 16 Torsion [CA]-CB--CG-[CD] |==|  0.45610
USER: genes 17 Torsion [CB]-CG--CD-[OE1] |==|  0.86691
USER: genes 18 Torsion [C]-CA--N-[C] |==|  0.62122
USER: genes 19 Torsion [N]-C--CA-[N] |==|  0.53859
USER: genes 20 Torsion [C]-CA--N-[C] |==|  0.20576
USER: genes 21 Torsion [N]-C--CA-[N] |==|  0.98253
USER: genes 22 Torsion [C]-CA--N-[C] |==|  0.73333
ROOT
ATOM      1  C   ALA B   4     -13.565 -13.756  18.175  1.00 18.54 LIG 0.24  C 
ATOM      2 O    ALA B   4     -13.005 -12.979  18.974  1.00 17.25 LIG-0.27  OA
ATOM      3  N   LEU B   5     -14.540 -14.612  18.505  1.00 18.87 LIG-0.35  N 
ATOM      4 H    LEU B   5     -15.012 -15.054  17.937  1.00 18.87 LIG 0.16  HD
ENDROOT
BRANCH 3 5
ATOM      5  CA  LEU B   5     -14.879 -14.861  19.920  1.00 18.34 LIG 0.18  C 
BRANCH 5 6
ATOM      6  CB  LEU B   5     -16.044 -15.828  20.002  1.00 23.26 LIG 0.04  C 
BRANCH 6 7
ATOM      7  CG  LEU B   5     -17.277 -15.301  20.723  1.00 28.17 LIG-0.02  C 
ATOM      8  CD1 LEU B   5     -17.535 -16.181  21.949  1.00 29.22 LIG 0.01  C 
ATOM      9  CD2 LEU B   5     -17.120 -13.845  21.133  1.00 30.00 LIG 0.01  C 
ENDBRANCH 6 7
ENDBRANCH 5 6
BRANCH 5 10
ATOM     10  C   LEU B   5     -13.683 -15.453  20.647  1.00 16.86 LIG 0.24  C 
ATOM     11 O    LEU B   5     -13.419 -15.110  21.760  1.00 19.60 LIG-0.27  OA
ATOM     12  N   ALA B   6     -12.923 -16.306  19.964  1.00 16.13 LIG-0.35  N 
ATOM     13 H    ALA B   6     -13.110 -16.563  19.165  1.00 16.13 LIG 0.16  HD
BRANCH 12 14
ATOM     14  CA  ALA B   6     -11.693 -16.899  20.500  1.00 17.44 LIG 0.17  C 
ATOM     15  CB  ALA B   6     -10.777 -15.777  20.973  1.00 18.99 LIG 0.04  C 
BRANCH 14 16
ATOM     16  C   ALA B   6     -11.996 -17.828  21.678  1.00 24.46 LIG 0.24  C 
ATOM     17 O    ALA B   6     -12.871 -17.520  22.480  1.00 27.52 LIG-0.27  OA
ATOM     18  N   TRP B   7     -11.243 -18.916  21.854  1.00 32.31 LIG-0.35  N 
ATOM     19 H    TRP B   7     -10.684 -19.232  21.283  1.00 32.31 LIG 0.16  HD
BRANCH 18 20
ATOM     20  CA  TRP B   7     -11.358 -19.682  23.153  1.00 35.59 LIG 0.18  C 
BRANCH 20 21
ATOM     21  C   TRP B   7     -12.659 -20.441  23.407  1.00 36.87 LIG 0.25  C 
ATOM     22 N    NH2 B   8     -13.550 -20.611  22.312  1.00 48.35 LIG-0.06  NA
ATOM     23 O    TRP B   7     -12.912 -20.913  24.505  1.00 43.64 LIG-0.28  OA
ENDBRANCH 20 21
BRANCH 20 24
ATOM     24  CB  TRP B   7     -11.086 -18.775  24.341  1.00 36.27 LIG 0.07  C 
BRANCH 24 25
ATOM     25  CG  TRP B   7      -9.892 -17.897  24.170  1.00 35.16 LIG-0.03  A 
ATOM     26  CD2 TRP B   7      -9.875 -16.472  24.145  1.00 33.00 LIG-0.00  A 
ATOM     27  CE3 TRP B   7     -10.866 -15.482  24.233  1.00 33.14 LIG 0.01  A 
ATOM     28  CE2 TRP B   7      -8.530 -16.076  23.971  1.00 37.76 LIG 0.04  A 
ATOM     29  CZ3 TRP B   7     -10.481 -14.145  24.166  1.00 39.74 LIG 0.00  A 
ATOM     30  CH2 TRP B   7      -9.126 -13.781  23.993  1.00 37.98 LIG 0.00  A 
ATOM     31  CZ2 TRP B   7      -8.143 -14.723  23.879  1.00 35.74 LIG 0.03  A 
ATOM     32  NE1 TRP B   7      -7.778 -17.220  23.899  1.00 36.87 LIG-0.36  N 
ATOM     33  CD1 TRP B   7      -8.606 -18.306  24.010  1.00 32.46 LIG 0.10  A 
ATOM     34 HE1  TRP B   7      -6.924 -17.250  23.800  1.00 36.87 LIG 0.17  HD
ENDBRANCH 24 25
ENDBRANCH 20 24
ENDBRANCH 18 20
ENDBRANCH 14 16
ENDBRANCH 12 14
ENDBRANCH 5 10
ENDBRANCH 3 5
BRANCH 1 35
ATOM     35  CA  ALA B   4     -13.179 -13.772  16.725  1.00 18.93 LIG 0.17  C 
ATOM     36  CB  ALA B   4     -12.089 -14.798  16.503  1.00 20.14 LIG 0.04  C 
BRANCH 35 37
ATOM     37  N   ALA B   4     -12.746 -12.462  16.292  1.00 16.93 LIG-0.35  N 
ATOM     38  C   GLU B   3     -12.798 -12.102  15.015  1.00 16.00 LIG 0.24  C 
ATOM     39 O    GLU B   3     -13.278 -12.810  14.145  1.00 18.04 LIG-0.27  OA
ATOM     40 H    ALA B   4     -12.459 -11.954  16.924  1.00 16.93 LIG 0.16  HD
BRANCH 38 41
ATOM     41  CA  GLU B   3     -12.237 -10.722  14.678  1.00 15.64 LIG 0.18  C 
BRANCH 41 42
ATOM     42  CB  GLU B   3     -13.155  -9.588  15.185  1.00 16.94 LIG 0.04  C 
BRANCH 42 43
ATOM     43  CG  GLU B   3     -14.579  -9.696  14.684  1.00 17.50 LIG 0.12  C 
BRANCH 43 44
ATOM     44  CD  GLU B   3     -15.593  -8.853  15.427  1.00 19.64 LIG 0.17  C 
ATOM     45 OE1  GLU B   3     -15.580  -8.898  16.676  1.00 22.12 LIG-0.65  OA
ATOM     46 OE2  GLU B   3     -16.394  -8.155  14.783  1.00 20.68 LIG-0.65  OA
ENDBRANCH 43 44
ENDBRANCH 42 43
ENDBRANCH 41 42
BRANCH 41 47
ATOM     47  N   GLU B   3     -12.048 -10.643  13.219  1.00 14.76 LIG-0.35  N 
ATOM     48 H    GLU B   3     -12.707 -10.966  12.772  1.00 14.76 LIG 0.16  HD
ATOM     49  C   GLY B   2     -10.975 -10.129  12.643  1.00 15.24 LIG 0.24  C 
ATOM     50 O    GLY B   2     -10.039  -9.655  13.274  1.00 16.96 LIG-0.27  OA
BRANCH 49 51
ATOM     51  CA  GLY B   2     -10.961 -10.140  11.113  1.00 16.40 LIG 0.23  C 
BRANCH 51 52
ATOM     52  N   GLY B   2      -9.637  -9.864  10.515  1.00 16.09 LIG-0.35  N 
ATOM     53 H    GLY B   2      -9.565  -9.080  10.169  1.00 16.09 LIG 0.16  HD
ATOM     54  C   GLY B   1      -8.656 -10.754  10.518  1.00 19.38 LIG 0.23  C 
ATOM     55 O    GLY B   1      -8.903 -11.888  11.029  1.00 21.51 LIG-0.27  OA
BRANCH 54 56
ATOM     56  CA  GLY B   1      -7.399 -10.805   9.852  1.00 21.19 LIG 0.23  C 
BRANCH 56 57
ATOM     57  N   GLY B   1      -7.740  -9.623   9.111  1.00 20.21 LIG-0.35  N 
ATOM     58  C   ACE B   0      -8.262  -9.675   7.875  1.00 20.42 LIG 0.21  C 
ATOM     59 O    ACE B   0      -8.796 -10.668   7.479  1.00 26.00 LIG-0.27  OA
ATOM     60  CH3 ACE B   0      -8.237  -8.467   6.976  1.00 26.85 LIG 0.12  C 
ATOM     61 H    GLY B   1      -7.581  -8.889   9.529  1.00 20.21 LIG 0.16  HD
ENDBRANCH 56 57
ENDBRANCH 54 56
ENDBRANCH 51 52
ENDBRANCH 49 51
ENDBRANCH 41 47
ENDBRANCH 38 41
ENDBRANCH 35 37
ENDBRANCH 1 35
TORSDOF 21
ENDMDL
MODEL 2
USER: ADFR SOLUTION from run 99
USER: SCORE 20.834917 LL:  -4.156 LR: -18.434 RR:   0.000 FEB: -12.169
USER: RMSD 2.507183
USER: SEED 98
USER: STATUS no improvement in best in 7 clusters for 5 generations
USER: GENES 23
USER: genes 0 Translation |==|  0.45535 0.52358 0.56604
USER: genes 1 Rotation |==|  0.75023 0.63196 0.09462 0.57509
USER: genes 2 Torsion [C]-N--CA-[CB] |==|  0.85944
USER: genes 3 Torsion [N]-CA--CB-[CG] |==|  0.59073
USER: genes 4 Torsion [CA]-CB--CG-[CD1] |==|  0.69254
USER: genes 5 Torsion [N]-CA--C-[N] |==|  0.36051
USER: genes 6 Torsion [C]-N--CA-[CB] |==|  0.85068
USER: genes 7 Torsion [N]-CA--C-[N] |==|  0.32379
USER: genes 8 Torsion [C]-N--CA-[C] |==|  0.19795
USER: genes 9 Torsion [N]-CA--C-[N] |==|  0.81815
USER: genes 10 Torsion [N]-CA--CB-[CG] |==|  0.49540
USER: genes 11 Torsion [CA]-CB--CG-[CD2] |==|  0.14233
USER: genes 12 Torsion [N]-C--CA-[N] |==|  0.83091
USER: genes 13 Torsion [C]-CA--N-[C] |==|  0.67265
USER: genes 14 Torsion [N]-C--CA-[N] |==|  0.44397
USER: genes 15 Torsion [C]-CA--CB-[CG] |==|  0.49767
USER: genes 16 Torsion [CA]-CB--CG-[CD] |==|  0.75806
USER: genes 17 Torsion [CB]-CG--CD-[OE1] |==|  0.56002
USER: genes 18 Torsion [C]-CA--N-[C] |==|  0.77592
USER: genes 19 Torsion [N]-C--CA-[N] |==|  0.55395
USER: genes 20 Torsion [C]-CA--N-[C] |==|  0.20810
USER: genes 21 Torsion [N]-C--CA-[N] |==|  0.95006
USER: genes 22 Torsion [C]-CA--N-[C] |==|  0.73989
ROOT
ATOM      1  C   ALA B   4     -12.085 -14.410  17.708  1.00 18.54 LIG 0.24  C 
ATOM      2 O    ALA B   4     -12.241 -15.615  17.429  1.00 17.25 LIG-0.27  OA
ATOM      3  N   LEU B   5     -12.647 -13.792  18.755  1.00 18.87 LIG-0.35  N 
ATOM      4 H    LEU B   5     -12.441 -13.000  19.020  1.00 18.87 LIG 0.16  HD
ENDROOT
BRANCH 3 5
ATOM      5  CA  LEU B   5     -13.699 -14.459  19.548  1.00 18.34 LIG 0.18  C 
BRANCH 5 6
ATOM      6  CB  LEU B   5     -14.773 -14.994  18.620  1.00 23.26 LIG 0.04  C 
BRANCH 6 7
ATOM      7  CG  LEU B   5     -16.184 -14.990  19.191  1.00 28.17 LIG-0.02  C 
ATOM      8  CD1 LEU B   5     -16.615 -16.441  19.429  1.00 29.22 LIG 0.01  C 
ATOM      9  CD2 LEU B   5     -16.278 -14.186  20.478  1.00 30.00 LIG 0.01  C 
ENDBRANCH 6 7
ENDBRANCH 5 6
BRANCH 5 10
ATOM     10  C   LEU B   5     -13.102 -15.609  20.342  1.00 16.86 LIG 0.24  C 
ATOM     11 O    LEU B   5     -12.461 -16.455  19.796  1.00 19.60 LIG-0.27  OA
ATOM     12  N   ALA B   6     -13.384 -15.656  21.642  1.00 16.13 LIG-0.35  N 
ATOM     13 H    ALA B   6     -13.840 -15.047  22.044  1.00 16.13 LIG 0.16  HD
BRANCH 12 14
ATOM     14  CA  ALA B   6     -12.950 -16.744  22.524  1.00 17.44 LIG 0.17  C 
ATOM     15  CB  ALA B   6     -13.404 -18.070  21.924  1.00 18.99 LIG 0.04  C 
BRANCH 14 16
ATOM     16  C   ALA B   6     -11.427 -16.758  22.674  1.00 24.46 LIG 0.24  C 
ATOM     17 O    ALA B   6     -10.727 -17.042  21.708  1.00 27.52 LIG-0.27  OA
ATOM     18  N   TRP B   7     -10.893 -16.540  23.878  1.00 32.31 LIG-0.35  N 
ATOM     19 H    TRP B   7     -11.319 -16.247  24.565  1.00 32.31 LIG 0.16  HD
BRANCH 18 20
ATOM     20  CA  TRP B   7      -9.421 -16.819  24.087  1.00 35.59 LIG 0.18  C 
BRANCH 20 21
ATOM     21  C   TRP B   7      -8.426 -15.868  23.427  1.00 36.87 LIG 0.25  C 
ATOM     22 N    NH2 B   8      -8.383 -15.837  22.005  1.00 48.35 LIG-0.06  NA
ATOM     23 O    TRP B   7      -7.713 -15.135  24.094  1.00 43.64 LIG-0.28  OA
ENDBRANCH 20 21
BRANCH 20 24
ATOM     24  CB  TRP B   7      -9.078 -18.240  23.677  1.00 36.27 LIG 0.07  C 
BRANCH 24 25
ATOM     25  CG  TRP B   7      -7.632 -18.579  23.819  1.00 35.16 LIG-0.03  A 
ATOM     26  CD2 TRP B   7      -6.818 -18.390  24.974  1.00 33.00 LIG-0.00  A 
ATOM     27  CE3 TRP B   7      -7.044 -17.852  26.249  1.00 33.14 LIG 0.01  A 
ATOM     28  CE2 TRP B   7      -5.525 -18.859  24.652  1.00 37.76 LIG 0.04  A 
ATOM     29  CZ3 TRP B   7      -5.988 -17.819  27.157  1.00 39.74 LIG 0.00  A 
ATOM     30  CH2 TRP B   7      -4.706 -18.300  26.805  1.00 37.98 LIG 0.00  A 
ATOM     31  CZ2 TRP B   7      -4.449 -18.805  25.562  1.00 35.74 LIG 0.03  A 
ATOM     32  NE1 TRP B   7      -5.570 -19.312  23.358  1.00 36.87 LIG-0.36  N 
ATOM     33  CD1 TRP B   7      -6.835 -19.131  22.865  1.00 32.46 LIG 0.10  A 
ATOM     34 HE1  TRP B   7      -4.910 -19.655  22.926  1.00 36.87 LIG 0.17  HD
ENDBRANCH 24 25
ENDBRANCH 20 24
ENDBRANCH 18 20
ENDBRANCH 14 16
ENDBRANCH 12 14
ENDBRANCH 5 10
ENDBRANCH 3 5
BRANCH 1 35
ATOM     35  CA  ALA B   4     -11.203 -13.537  16.865  1.00 18.93 LIG 0.17  C 
ATOM     36  CB  ALA B   4     -10.049 -13.026  17.700  1.00 20.14 LIG 0.04  C 
BRANCH 35 37
ATOM     37  N   ALA B   4     -11.953 -12.437  16.300  1.00 16.93 LIG-0.35  N 
ATOM     38  C   GLU B   3     -12.091 -12.292  14.988  1.00 16.00 LIG 0.24  C 
ATOM     39 O    GLU B   3     -11.666 -13.104  14.183  1.00 18.04 LIG-0.27  OA
ATOM     40 H    ALA B   4     -12.292 -11.901  16.882  1.00 16.93 LIG 0.16  HD
BRANCH 38 41
ATOM     41  CA  GLU B   3     -12.839 -11.046  14.519  1.00 15.64 LIG 0.18  C 
BRANCH 41 42
ATOM     42  CB  GLU B   3     -14.367 -11.193  14.692  1.00 16.94 LIG 0.04  C 
BRANCH 42 43
ATOM     43  CG  GLU B   3     -15.144  -9.970  14.257  1.00 17.50 LIG 0.12  C 
BRANCH 43 44
ATOM     44  CD  GLU B   3     -15.323  -8.905  15.318  1.00 19.64 LIG 0.17  C 
ATOM     45 OE1  GLU B   3     -16.266  -8.097  15.175  1.00 22.12 LIG-0.65  OA
ATOM     46 OE2  GLU B   3     -14.540  -8.867  16.282  1.00 20.68 LIG-0.65  OA
ENDBRANCH 43 44
ENDBRANCH 42 43
ENDBRANCH 41 42
BRANCH 41 47
ATOM     47  N   GLU B   3     -12.484 -10.794  13.112  1.00 14.76 LIG-0.35  N 
ATOM     48 H    GLU B   3     -13.075 -11.079  12.555  1.00 14.76 LIG 0.16  HD
ATOM     49  C   GLY B   2     -11.371 -10.192  12.730  1.00 15.24 LIG 0.24  C 
ATOM     50 O    GLY B   2     -10.533  -9.774  13.519  1.00 16.96 LIG-0.27  OA
BRANCH 49 51
ATOM     51  CA  GLY B   2     -11.178 -10.026  11.222  1.00 16.40 LIG 0.23  C 
BRANCH 51 52
ATOM     52  N   GLY B   2      -9.778  -9.780  10.811  1.00 16.09 LIG-0.35  N 
ATOM     53 H    GLY B   2      -9.617  -8.965  10.586  1.00 16.09 LIG 0.16  HD
ATOM     54  C   GLY B   1      -8.864 -10.736  10.795  1.00 19.38 LIG 0.23  C 
ATOM     55 O    GLY B   1      -9.239 -11.905  11.116  1.00 21.51 LIG-0.27  OA
BRANCH 54 56
ATOM     56  CA  GLY B   1      -7.544 -10.799  10.265  1.00 21.19 LIG 0.23  C 
BRANCH 56 57
ATOM     57  N   GLY B   1      -7.820  -9.662   9.434  1.00 20.21 LIG-0.35  N 
ATOM     58  C   ACE B   0      -8.255  -9.783   8.169  1.00 20.42 LIG 0.21  C 
ATOM     59 O    ACE B   0      -8.770 -10.795   7.796  1.00 26.00 LIG-0.27  OA
ATOM     60  CH3 ACE B   0      -8.155  -8.631   7.205  1.00 26.85 LIG 0.12  C 
ATOM     61 H    GLY B   1      -7.683  -8.905   9.818  1.00 20.21 LIG 0.16  HD
ENDBRANCH 56 57
ENDBRANCH 54 56
ENDBRANCH 51 52
ENDBRANCH 49 51
ENDBRANCH 41 47
ENDBRANCH 38 41
ENDBRANCH 35 37
ENDBRANCH 1 35
TORSDOF 21
ENDMDL
MODEL 3
USER: ADFR SOLUTION from run 102
USER: SCORE 20.613324 LL:  -4.405 LR: -18.390 RR:   0.000 FEB: -12.126
USER: RMSD 2.907763
USER: SEED 101
USER: STATUS no improvement in best in 5 clusters for 5 generations
USER: GENES 23
USER: genes 0 Translation |==|  0.40318 0.56005 0.58366
USER: genes 1 Rotation |==|  0.42432 0.46896 0.69912 0.95129
USER: genes 2 Torsion [C]-N--CA-[CB] |==|  0.20963
USER: genes 3 Torsion [N]-CA--CB-[CG] |==|  0.07945
USER: genes 4 Torsion [CA]-CB--CG-[CD1] |==|  0.20273
USER: genes 5 Torsion [N]-CA--C-[N] |==|  0.57222
USER: genes 6 Torsion [C]-N--CA-[CB] |==|  0.87063
USER: genes 7 Torsion [N]-CA--C-[N] |==|  0.88429
USER: genes 8 Torsion [C]-N--CA-[C] |==|  0.63636
USER: genes 9 Torsion [N]-CA--C-[N] |==|  0.42407
USER: genes 10 Torsion [N]-CA--CB-[CG] |==|  0.72382
USER: genes 11 Torsion [CA]-CB--CG-[CD2] |==|  0.22643
USER: genes 12 Torsion [N]-C--CA-[N] |==|  0.57856
USER: genes 13 Torsion [C]-CA--N-[C] |==|  0.63638
USER: genes 14 Torsion [N]-C--CA-[N] |==|  0.42041
USER: genes 15 Torsion [C]-CA--CB-[CG] |==|  0.84438
USER: genes 16 Torsion [CA]-CB--CG-[CD] |==|  0.45538
USER: genes 17 Torsion [CB]-CG--CD-[OE1] |==|  0.85614
USER: genes 18 Torsion [C]-CA--N-[C] |==|  0.63358
USER: genes 19 Torsion [N]-C--CA-[N] |==|  0.52421
USER: genes 20 Torsion [C]-CA--N-[C] |==|  0.20619
USER: genes 21 Torsion [N]-C--CA-[N] |==|  0.99775
USER: genes 22 Torsion [C]-CA--N-[C] |==|  0.72371
ROOT
ATOM      1  C   ALA B   4     -13.180 -13.644  18.184  1.00 18.54 LIG 0.24  C 
ATOM      2 O    ALA B   4     -13.833 -12.642  18.538  1.00 17.25 LIG-0.27  OA
ATOM      3  N   LEU B   5     -12.973 -14.725  18.946  1.00 18.87 LIG-0.35  N 
ATOM      4 H    LEU B   5     -12.635 -15.463  18.661  1.00 18.87 LIG 0.16  HD
ENDROOT
BRANCH 3 5
ATOM      5  CA  LEU B   5     -13.325 -14.716  20.380  1.00 18.34 LIG 0.18  C 
BRANCH 5 6
ATOM      6  CB  LEU B   5     -14.829 -14.835  20.535  1.00 23.26 LIG 0.04  C 
BRANCH 6 7
ATOM      7  CG  LEU B   5     -15.540 -15.585  19.417  1.00 28.17 LIG-0.02  C 
ATOM      8  CD1 LEU B   5     -15.227 -17.078  19.560  1.00 29.22 LIG 0.01  C 
ATOM      9  CD2 LEU B   5     -17.041 -15.349  19.435  1.00 30.00 LIG 0.01  C 
ENDBRANCH 6 7
ENDBRANCH 5 6
BRANCH 5 10
ATOM     10  C   LEU B   5     -12.653 -15.879  21.090  1.00 16.86 LIG 0.24  C 
ATOM     11 O    LEU B   5     -11.673 -16.385  20.631  1.00 19.60 LIG-0.27  OA
ATOM     12  N   ALA B   6     -13.242 -16.335  22.192  1.00 16.13 LIG-0.35  N 
ATOM     13 H    ALA B   6     -13.944 -15.973  22.532  1.00 16.13 LIG 0.16  HD
BRANCH 12 14
ATOM     14  CA  ALA B   6     -12.760 -17.500  22.943  1.00 17.44 LIG 0.17  C 
ATOM     15  CB  ALA B   6     -12.464 -18.626  21.960  1.00 18.99 LIG 0.04  C 
BRANCH 14 16
ATOM     16  C   ALA B   6     -11.485 -17.165  23.720  1.00 24.46 LIG 0.24  C 
ATOM     17 O    ALA B   6     -11.382 -17.517  24.891  1.00 27.52 LIG-0.27  OA
ATOM     18  N   TRP B   7     -10.544 -16.424  23.132  1.00 32.31 LIG-0.35  N 
ATOM     19 H    TRP B   7     -10.515 -16.228  22.295  1.00 32.31 LIG 0.16  HD
BRANCH 18 20
ATOM     20  CA  TRP B   7      -9.419 -15.865  23.976  1.00 35.59 LIG 0.18  C 
BRANCH 20 21
ATOM     21  C   TRP B   7      -9.101 -14.380  23.825  1.00 36.87 LIG 0.25  C 
ATOM     22 N    NH2 B   8      -8.524 -13.710  24.940  1.00 48.35 LIG-0.06  NA
ATOM     23 O    TRP B   7      -9.304 -13.792  22.774  1.00 43.64 LIG-0.28  OA
ENDBRANCH 20 21
BRANCH 20 24
ATOM     24  CB  TRP B   7      -8.141 -16.659  23.765  1.00 36.27 LIG 0.07  C 
BRANCH 24 25
ATOM     25  CG  TRP B   7      -7.871 -17.666  24.832  1.00 35.16 LIG-0.03  A 
ATOM     26  CD2 TRP B   7      -8.434 -18.972  24.939  1.00 33.00 LIG-0.00  A 
ATOM     27  CE3 TRP B   7      -9.364 -19.698  24.180  1.00 33.14 LIG 0.01  A 
ATOM     28  CE2 TRP B   7      -7.887 -19.567  26.097  1.00 37.76 LIG 0.04  A 
ATOM     29  CZ3 TRP B   7      -9.697 -20.987  24.589  1.00 39.74 LIG 0.00  A 
ATOM     30  CH2 TRP B   7      -9.130 -21.556  25.752  1.00 37.98 LIG 0.00  A 
ATOM     31  CZ2 TRP B   7      -8.241 -20.863  26.525  1.00 35.74 LIG 0.03  A 
ATOM     32  NE1 TRP B   7      -7.030 -18.652  26.655  1.00 36.87 LIG-0.36  N 
ATOM     33  CD1 TRP B   7      -7.036 -17.513  25.894  1.00 32.46 LIG 0.10  A 
ATOM     34 HE1  TRP B   7      -6.565 -18.774  27.368  1.00 36.87 LIG 0.17  HD
ENDBRANCH 24 25
ENDBRANCH 20 24
ENDBRANCH 18 20
ENDBRANCH 14 16
ENDBRANCH 12 14
ENDBRANCH 5 10
ENDBRANCH 3 5
BRANCH 1 35
ATOM     35  CA  ALA B   4     -12.572 -13.716  16.814  1.00 18.93 LIG 0.17  C 
ATOM     36  CB  ALA B   4     -11.337 -14.590  16.855  1.00 20.14 LIG 0.04  C 
BRANCH 35 37
ATOM     37  N   ALA B   4     -12.249 -12.395  16.323  1.00 16.93 LIG-0.35  N 
ATOM     38  C   GLU B   3     -12.614 -11.997  15.110  1.00 16.00 LIG 0.24  C 
ATOM     39 O    GLU B   3     -13.302 -12.679  14.368  1.00 18.04 LIG-0.27  OA
ATOM     40 H    ALA B   4     -11.809 -11.905  16.877  1.00 16.93 LIG 0.16  HD
BRANCH 38 41
ATOM     41  CA  GLU B   3     -12.143 -10.609  14.682  1.00 15.64 LIG 0.18  C 
BRANCH 41 42
ATOM     42  CB  GLU B   3     -13.107  -9.502  15.161  1.00 16.94 LIG 0.04  C 
BRANCH 42 43
ATOM     43  CG  GLU B   3     -14.534  -9.704  14.702  1.00 17.50 LIG 0.12  C 
BRANCH 43 44
ATOM     44  CD  GLU B   3     -15.574  -8.885  15.437  1.00 19.64 LIG 0.17  C 
ATOM     45 OE1  GLU B   3     -15.576  -8.937  16.685  1.00 22.12 LIG-0.65  OA
ATOM     46 OE2  GLU B   3     -16.380  -8.199  14.787  1.00 20.68 LIG-0.65  OA
ENDBRANCH 43 44
ENDBRANCH 42 43
ENDBRANCH 41 42
BRANCH 41 47
ATOM     47  N   GLU B   3     -12.006 -10.598  13.215  1.00 14.76 LIG-0.35  N 
ATOM     48 H    GLU B   3     -12.688 -10.926  12.807  1.00 14.76 LIG 0.16  HD
ATOM     49  C   GLY B   2     -10.945 -10.134  12.578  1.00 15.24 LIG 0.24  C 
ATOM     50 O    GLY B   2      -9.976  -9.655  13.154  1.00 16.96 LIG-0.27  OA
BRANCH 49 51
ATOM     51  CA  GLY B   2     -10.988 -10.213  11.051  1.00 16.40 LIG 0.23  C 
BRANCH 51 52
ATOM     52  N   GLY B   2      -9.709  -9.875  10.389  1.00 16.09 LIG-0.35  N 
ATOM     53 H    GLY B   2      -9.704  -9.103  10.010  1.00 16.09 LIG 0.16  HD
ATOM     54  C   GLY B   1      -8.671 -10.696  10.387  1.00 19.38 LIG 0.23  C 
ATOM     55 O    GLY B   1      -8.820 -11.823  10.952  1.00 21.51 LIG-0.27  OA
BRANCH 54 56
ATOM     56  CA  GLY B   1      -7.439 -10.692   9.673  1.00 21.19 LIG 0.23  C 
BRANCH 56 57
ATOM     57  N   GLY B   1      -7.833  -9.488   8.996  1.00 20.21 LIG-0.35  N 
ATOM     58  C   ACE B   0      -8.337  -9.494   7.752  1.00 20.42 LIG 0.21  C 
ATOM     59 O    ACE B   0      -8.815 -10.488   7.293  1.00 26.00 LIG-0.27  OA
ATOM     60  CH3 ACE B   0      -8.365  -8.235   6.925  1.00 26.85 LIG 0.12  C 
ATOM     61 H    GLY B   1      -7.716  -8.772   9.458  1.00 20.21 LIG 0.16  HD
ENDBRANCH 56 57
ENDBRANCH 54 56
ENDBRANCH 51 52
ENDBRANCH 49 51
ENDBRANCH 41 47
ENDBRANCH 38 41
ENDBRANCH 35 37
ENDBRANCH 1 35
TORSDOF 21
ENDMDL
MODEL 4
USER: ADFR SOLUTION from run 102
USER: SCORE 21.322670 LL:  -5.181 LR: -18.290 RR:   0.000 FEB: -12.026
USER: RMSD 2.813082
USER: SEED 101
USER: STATUS no improvement in best in 5 clusters for 5 generations
USER: GENES 23
USER: genes 0 Translation |==|  0.40743 0.56172 0.58087
USER: genes 1 Rotation |==|  0.41452 0.46029 0.70049 0.94824
USER: genes 2 Torsion [C]-N--CA-[CB] |==|  0.20348
USER: genes 3 Torsion [N]-CA--CB-[CG] |==|  0.08614
USER: genes 4 Torsion [CA]-CB--CG-[CD1] |==|  0.19705
USER: genes 5 Torsion [N]-CA--C-[N] |==|  0.55887
USER: genes 6 Torsion [C]-N--CA-[CB] |==|  0.87580
USER: genes 7 Torsion [N]-CA--C-[N] |==|  0.90065
USER: genes 8 Torsion [C]-N--CA-[C] |==|  0.62526
USER: genes 9 Torsion [N]-CA--C-[N] |==|  0.43342
USER: genes 10 Torsion [N]-CA--CB-[CG] |==|  0.05364
USER: genes 11 Torsion [CA]-CB--CG-[CD2] |==|  0.14200
USER: genes 12 Torsion [N]-C--CA-[N] |==|  0.57678
USER: genes 13 Torsion [C]-CA--N-[C] |==|  0.65642
USER: genes 14 Torsion [N]-C--CA-[N] |==|  0.41119
USER: genes 15 Torsion [C]-CA--CB-[CG] |==|  0.84896
USER: genes 16 Torsion [CA]-CB--CG-[CD] |==|  0.45046
USER: genes 17 Torsion [CB]-CG--CD-[OE1] |==|  0.35898
USER: genes 18 Torsion [C]-CA--N-[C] |==|  0.63070
USER: genes 19 Torsion [N]-C--CA-[N] |==|  0.52522
USER: genes 20 Torsion [C]-CA--N-[C] |==|  0.20089
USER: genes 21 Torsion [N]-C--CA-[N] |==|  0.02477
USER: genes 22 Torsion [C]-CA--N-[C] |==|  0.71712
ROOT
ATOM      1  C   ALA B   4     -13.091 -13.609  18.108  1.00 18.54 LIG 0.24  C 
ATOM      2 O    ALA B   4     -13.772 -12.608  18.407  1.00 17.25 LIG-0.27  OA
ATOM      3  N   LEU B   5     -12.906 -14.669  18.905  1.00 18.87 LIG-0.35  N 
ATOM      4 H    LEU B   5     -12.547 -15.409  18.655  1.00 18.87 LIG 0.16  HD
ENDROOT
BRANCH 3 5
ATOM      5  CA  LEU B   5     -13.326 -14.631  20.320  1.00 18.34 LIG 0.18  C 
BRANCH 5 6
ATOM      6  CB  LEU B   5     -14.838 -14.711  20.405  1.00 23.26 LIG 0.04  C 
BRANCH 6 7
ATOM      7  CG  LEU B   5     -15.509 -15.508  19.296  1.00 28.17 LIG-0.02  C 
ATOM      8  CD1 LEU B   5     -15.195 -16.993  19.507  1.00 29.22 LIG 0.01  C 
ATOM      9  CD2 LEU B   5     -17.011 -15.280  19.256  1.00 30.00 LIG 0.01  C 
ENDBRANCH 6 7
ENDBRANCH 5 6
BRANCH 5 10
ATOM     10  C   LEU B   5     -12.717 -15.800  21.077  1.00 16.86 LIG 0.24  C 
ATOM     11 O    LEU B   5     -11.781 -16.391  20.629  1.00 19.60 LIG-0.27  OA
ATOM     12  N   ALA B   6     -13.314 -16.163  22.209  1.00 16.13 LIG-0.35  N 
ATOM     13 H    ALA B   6     -13.985 -15.739  22.542  1.00 16.13 LIG 0.16  HD
BRANCH 12 14
ATOM     14  CA  ALA B   6     -12.894 -17.319  23.009  1.00 17.44 LIG 0.17  C 
ATOM     15  CB  ALA B   6     -12.646 -18.495  22.073  1.00 18.99 LIG 0.04  C 
BRANCH 14 16
ATOM     16  C   ALA B   6     -11.611 -17.015  23.785  1.00 24.46 LIG 0.24  C 
ATOM     17 O    ALA B   6     -11.491 -17.421  24.936  1.00 27.52 LIG-0.27  OA
ATOM     18  N   TRP B   7     -10.680 -16.243  23.221  1.00 32.31 LIG-0.35  N 
ATOM     19 H    TRP B   7     -10.663 -16.008  22.394  1.00 32.31 LIG 0.16  HD
BRANCH 18 20
ATOM     20  CA  TRP B   7      -9.547 -15.719  24.075  1.00 35.59 LIG 0.18  C 
BRANCH 20 21
ATOM     21  C   TRP B   7      -9.175 -14.247  23.921  1.00 36.87 LIG 0.25  C 
ATOM     22 N    NH2 B   8      -8.522 -13.611  25.014  1.00 48.35 LIG-0.06  NA
ATOM     23 O    TRP B   7      -9.400 -13.642  22.885  1.00 43.64 LIG-0.28  OA
ENDBRANCH 20 21
BRANCH 20 24
ATOM     24  CB  TRP B   7      -8.295 -16.558  23.885  1.00 36.27 LIG 0.07  C 
BRANCH 24 25
ATOM     25  CG  TRP B   7      -8.295 -17.369  22.632  1.00 35.16 LIG-0.03  A 
ATOM     26  CD2 TRP B   7      -8.556 -16.902  21.310  1.00 33.00 LIG-0.00  A 
ATOM     27  CE3 TRP B   7      -8.897 -15.655  20.766  1.00 33.14 LIG 0.01  A 
ATOM     28  CE2 TRP B   7      -8.438 -18.014  20.447  1.00 37.76 LIG 0.04  A 
ATOM     29  CZ3 TRP B   7      -9.088 -15.558  19.389  1.00 39.74 LIG 0.00  A 
ATOM     30  CH2 TRP B   7      -8.960 -16.689  18.551  1.00 37.98 LIG 0.00  A 
ATOM     31  CZ2 TRP B   7      -8.654 -17.921  19.056  1.00 35.74 LIG 0.03  A 
ATOM     32  NE1 TRP B   7      -8.117 -19.097  21.224  1.00 36.87 LIG-0.36  N 
ATOM     33  CD1 TRP B   7      -8.043 -18.701  22.533  1.00 32.46 LIG 0.10  A 
ATOM     34 HE1  TRP B   7      -7.984 -19.896  20.935  1.00 36.87 LIG 0.17  HD
ENDBRANCH 24 25
ENDBRANCH 20 24
ENDBRANCH 18 20
ENDBRANCH 14 16
ENDBRANCH 12 14
ENDBRANCH 5 10
ENDBRANCH 3 5
BRANCH 1 35
ATOM     35  CA  ALA B   4     -12.418 -13.705  16.771  1.00 18.93 LIG 0.17  C 
ATOM     36  CB  ALA B   4     -11.167 -14.548  16.893  1.00 20.14 LIG 0.04  C 
BRANCH 35 37
ATOM     37  N   ALA B   4     -12.102 -12.391  16.256  1.00 16.93 LIG-0.35  N 
ATOM     38  C   GLU B   3     -12.541 -11.986  15.071  1.00 16.00 LIG 0.24  C 
ATOM     39 O    GLU B   3     -13.292 -12.653  14.379  1.00 18.04 LIG-0.27  OA
ATOM     40 H    ALA B   4     -11.615 -11.911  16.779  1.00 16.93 LIG 0.16  HD
BRANCH 38 41
ATOM     41  CA  GLU B   3     -12.072 -10.608  14.610  1.00 15.64 LIG 0.18  C 
BRANCH 41 42
ATOM     42  CB  GLU B   3     -13.023  -9.487  15.084  1.00 16.94 LIG 0.04  C 
BRANCH 42 43
ATOM     43  CG  GLU B   3     -14.465  -9.712  14.685  1.00 17.50 LIG 0.12  C 
BRANCH 43 44
ATOM     44  CD  GLU B   3     -15.484  -8.902  15.457  1.00 19.64 LIG 0.17  C 
ATOM     45 OE1  GLU B   3     -16.328  -8.254  14.800  1.00 22.12 LIG-0.65  OA
ATOM     46 OE2  GLU B   3     -15.451  -8.905  16.699  1.00 20.68 LIG-0.65  OA
ENDBRANCH 43 44
ENDBRANCH 42 43
ENDBRANCH 41 42
BRANCH 41 47
ATOM     47  N   GLU B   3     -11.958 -10.625  13.141  1.00 14.76 LIG-0.35  N 
ATOM     48 H    GLU B   3     -12.642 -10.970  12.751  1.00 14.76 LIG 0.16  HD
ATOM     49  C   GLY B   2     -10.913 -10.159  12.478  1.00 15.24 LIG 0.24  C 
ATOM     50 O    GLY B   2      -9.943  -9.655  13.028  1.00 16.96 LIG-0.27  OA
BRANCH 49 51
ATOM     51  CA  GLY B   2     -10.980 -10.270  10.954  1.00 16.40 LIG 0.23  C 
BRANCH 51 52
ATOM     52  N   GLY B   2      -9.713  -9.936  10.265  1.00 16.09 LIG-0.35  N 
ATOM     53 H    GLY B   2      -9.729  -9.183   9.848  1.00 16.09 LIG 0.16  HD
ATOM     54  C   GLY B   1      -8.657 -10.732  10.294  1.00 19.38 LIG 0.23  C 
ATOM     55 O    GLY B   1      -8.776 -11.833  10.915  1.00 21.51 LIG-0.27  OA
BRANCH 54 56
ATOM     56  CA  GLY B   1      -7.431 -10.735   9.570  1.00 21.19 LIG 0.23  C 
BRANCH 56 57
ATOM     57  N   GLY B   1      -7.751  -9.449   9.018  1.00 20.21 LIG-0.35  N 
ATOM     58  C   ACE B   0      -8.218  -9.298   7.768  1.00 20.42 LIG 0.21  C 
ATOM     59 O    ACE B   0      -8.725 -10.214   7.192  1.00 26.00 LIG-0.27  OA
ATOM     60  CH3 ACE B   0      -8.166  -7.958   7.082  1.00 26.85 LIG 0.12  C 
ATOM     61 H    GLY B   1      -7.617  -8.793   9.557  1.00 20.21 LIG 0.16  HD
ENDBRANCH 56 57
ENDBRANCH 54 56
ENDBRANCH 51 52
ENDBRANCH 49 51
ENDBRANCH 41 47
ENDBRANCH 38 41
ENDBRANCH 35 37
ENDBRANCH 1 35
TORSDOF 21
ENDMDL
MODEL 5
USER: ADFR SOLUTION from run 146
USER: SCORE 22.232470 LL:  -5.980 LR: -18.097 RR:   0.000 FEB: -11.832
USER: RMSD 3.820755
USER: SEED 145
USER: STATUS no improvement in best in 5 clusters for 5 generations
USER: GENES 23
USER: genes 0 Translation |==|  0.38284 0.55450 0.58239
USER: genes 1 Rotation |==|  0.52657 0.49297 0.40816 0.99072
USER: genes 2 Torsion [C]-N--CA-[CB] |==|  0.50062
USER: genes 3 Torsion [N]-CA--CB-[CG] |==|  0.65930
USER: genes 4 Torsion [CA]-CB--CG-[CD1] |==|  0.66529
USER: genes 5 Torsion [N]-CA--C-[N] |==|  0.33889
USER: genes 6 Torsion [C]-N--CA-[CB] |==|  0.85861
USER: genes 7 Torsion [N]-CA--C-[N] |==|  0.95593
USER: genes 8 Torsion [C]-N--CA-[C] |==|  0.63945
USER: genes 9 Torsion [N]-CA--C-[N] |==|  0.10689
USER: genes 10 Torsion [N]-CA--CB-[CG] |==|  0.95639
USER: genes 11 Torsion [CA]-CB--CG-[CD2] |==|  0.24231
USER: genes 12 Torsion [N]-C--CA-[N] |==|  0.40266
USER: genes 13 Torsion [C]-CA--N-[C] |==|  0.56679
USER: genes 14 Torsion [N]-C--CA-[N] |==|  0.45911
USER: genes 15 Torsion [C]-CA--CB-[CG] |==|  0.84710
USER: genes 16 Torsion [CA]-CB--CG-[CD] |==|  0.45493
USER: genes 17 Torsion [CB]-CG--CD-[OE1] |==|  0.86699
USER: genes 18 Torsion [C]-CA--N-[C] |==|  0.62046
USER: genes 19 Torsion [N]-C--CA-[N] |==|  0.53839
USER: genes 20 Torsion [C]-CA--N-[C] |==|  0.20472
USER: genes 21 Torsion [N]-C--CA-[N] |==|  0.98312
USER: genes 22 Torsion [C]-CA--N-[C] |==|  0.73333
ROOT
ATOM      1  C   ALA B   4     -13.607 -13.760  18.150  1.00 18.54 LIG 0.24  C 
ATOM      2 O    ALA B   4     -13.014 -13.029  18.966  1.00 17.25 LIG-0.27  OA
ATOM      3  N   LEU B   5     -14.634 -14.564  18.454  1.00 18.87 LIG-0.35  N 
ATOM      4 H    LEU B   5     -15.124 -14.969  17.875  1.00 18.87 LIG 0.16  HD
ENDROOT
BRANCH 3 5
ATOM      5  CA  LEU B   5     -15.004 -14.813  19.862  1.00 18.34 LIG 0.18  C 
BRANCH 5 6
ATOM      6  CB  LEU B   5     -16.190 -15.757  19.916  1.00 23.26 LIG 0.04  C 
BRANCH 6 7
ATOM      7  CG  LEU B   5     -17.411 -15.224  20.653  1.00 28.17 LIG-0.02  C 
ATOM      8  CD1 LEU B   5     -17.724 -16.167  21.819  1.00 29.22 LIG 0.01  C 
ATOM      9  CD2 LEU B   5     -17.201 -13.805  21.155  1.00 30.00 LIG 0.01  C 
ENDBRANCH 6 7
ENDBRANCH 5 6
BRANCH 5 10
ATOM     10  C   LEU B   5     -13.834 -15.434  20.607  1.00 16.86 LIG 0.24  C 
ATOM     11 O    LEU B   5     -13.388 -16.488  20.266  1.00 19.60 LIG-0.27  OA
ATOM     12  N   ALA B   6     -13.385 -14.782  21.677  1.00 16.13 LIG-0.35  N 
ATOM     13 H    ALA B   6     -13.696 -14.019  21.925  1.00 16.13 LIG 0.16  HD
BRANCH 12 14
ATOM     14  CA  ALA B   6     -12.318 -15.292  22.544  1.00 17.44 LIG 0.17  C 
ATOM     15  CB  ALA B   6     -12.656 -16.722  22.946  1.00 18.99 LIG 0.04  C 
BRANCH 14 16
ATOM     16  C   ALA B   6     -10.968 -15.280  21.822  1.00 24.46 LIG 0.24  C 
ATOM     17 O    ALA B   6      -9.932 -15.314  22.478  1.00 27.52 LIG-0.27  OA
ATOM     18  N   TRP B   7     -10.946 -15.149  20.494  1.00 32.31 LIG-0.35  N 
ATOM     19 H    TRP B   7     -11.629 -15.214  19.976  1.00 32.31 LIG 0.16  HD
BRANCH 18 20
ATOM     20  CA  TRP B   7      -9.627 -14.864  19.809  1.00 35.59 LIG 0.18  C 
BRANCH 20 21
ATOM     21  C   TRP B   7      -9.588 -13.702  18.820  1.00 36.87 LIG 0.25  C 
ATOM     22 N    NH2 B   8     -10.329 -12.531  19.144  1.00 48.35 LIG-0.06  NA
ATOM     23 O    TRP B   7      -8.919 -13.761  17.800  1.00 43.64 LIG-0.28  OA
ENDBRANCH 20 21
BRANCH 20 24
ATOM     24  CB  TRP B   7      -9.099 -16.108  19.117  1.00 36.27 LIG 0.07  C 
BRANCH 24 25
ATOM     25  CG  TRP B   7      -9.758 -17.372  19.556  1.00 35.16 LIG-0.03  A 
ATOM     26  CD2 TRP B   7     -10.951 -17.946  19.025  1.00 33.00 LIG-0.00  A 
ATOM     27  CE3 TRP B   7     -11.855 -17.562  18.024  1.00 33.14 LIG 0.01  A 
ATOM     28  CE2 TRP B   7     -11.192 -19.140  19.740  1.00 37.76 LIG 0.04  A 
ATOM     29  CZ3 TRP B   7     -12.948 -18.385  17.760  1.00 39.74 LIG 0.00  A 
ATOM     30  CH2 TRP B   7     -13.161 -19.575  18.493  1.00 37.98 LIG 0.00  A 
ATOM     31  CZ2 TRP B   7     -12.311 -19.961  19.490  1.00 35.74 LIG 0.03  A 
ATOM     32  NE1 TRP B   7     -10.182 -19.272  20.658  1.00 36.87 LIG-0.36  N 
ATOM     33  CD1 TRP B   7      -9.333 -18.202  20.546  1.00 32.46 LIG 0.10  A 
ATOM     34 HE1  TRP B   7     -10.095 -19.922  21.215  1.00 36.87 LIG 0.17  HD
ENDBRANCH 24 25
ENDBRANCH 20 24
ENDBRANCH 18 20
ENDBRANCH 14 16
ENDBRANCH 12 14
ENDBRANCH 5 10
ENDBRANCH 3 5
BRANCH 1 35
ATOM     35  CA  ALA B   4     -13.206 -13.778  16.704  1.00 18.93 LIG 0.17  C 
ATOM     36  CB  ALA B   4     -12.114 -14.805  16.495  1.00 20.14 LIG 0.04  C 
BRANCH 35 37
ATOM     37  N   ALA B   4     -12.766 -12.468  16.275  1.00 16.93 LIG-0.35  N 
ATOM     38  C   GLU B   3     -12.811 -12.105  14.999  1.00 16.00 LIG 0.24  C 
ATOM     39 O    GLU B   3     -13.289 -12.809  14.126  1.00 18.04 LIG-0.27  OA
ATOM     40 H    ALA B   4     -12.480 -11.962  16.909  1.00 16.93 LIG 0.16  HD
BRANCH 38 41
ATOM     41  CA  GLU B   3     -12.244 -10.726  14.667  1.00 15.64 LIG 0.18  C 
BRANCH 41 42
ATOM     42  CB  GLU B   3     -13.158  -9.591  15.176  1.00 16.94 LIG 0.04  C 
BRANCH 42 43
ATOM     43  CG  GLU B   3     -14.583  -9.694  14.675  1.00 17.50 LIG 0.12  C 
BRANCH 43 44
ATOM     44  CD  GLU B   3     -15.595  -8.856  15.427  1.00 19.64 LIG 0.17  C 
ATOM     45 OE1  GLU B   3     -15.580  -8.910  16.675  1.00 22.12 LIG-0.65  OA
ATOM     46 OE2  GLU B   3     -16.397  -8.153  14.789  1.00 20.68 LIG-0.65  OA
ENDBRANCH 43 44
ENDBRANCH 42 43
ENDBRANCH 41 42
BRANCH 41 47
ATOM     47  N   GLU B   3     -12.051 -10.644  13.209  1.00 14.76 LIG-0.35  N 
ATOM     48 H    GLU B   3     -12.710 -10.966  12.760  1.00 14.76 LIG 0.16  HD
ATOM     49  C   GLY B   2     -10.977 -10.127  12.636  1.00 15.24 LIG 0.24  C 
ATOM     50 O    GLY B   2     -10.043  -9.655  13.271  1.00 16.96 LIG-0.27  OA
BRANCH 49 51
ATOM     51  CA  GLY B   2     -10.960 -10.135  11.107  1.00 16.40 LIG 0.23  C 
BRANCH 51 52
ATOM     52  N   GLY B   2      -9.635  -9.855  10.512  1.00 16.09 LIG-0.35  N 
ATOM     53 H    GLY B   2      -9.565  -9.072  10.164  1.00 16.09 LIG 0.16  HD
ATOM     54  C   GLY B   1      -8.651 -10.740  10.521  1.00 19.38 LIG 0.23  C 
ATOM     55 O    GLY B   1      -8.894 -11.874  11.036  1.00 21.51 LIG-0.27  OA
BRANCH 54 56
ATOM     56  CA  GLY B   1      -7.391 -10.788   9.860  1.00 21.19 LIG 0.23  C 
BRANCH 56 57
ATOM     57  N   GLY B   1      -7.733  -9.608   9.118  1.00 20.21 LIG-0.35  N 
ATOM     58  C   ACE B   0      -8.249  -9.661   7.879  1.00 20.42 LIG 0.21  C 
ATOM     59 O    ACE B   0      -8.779 -10.656   7.482  1.00 26.00 LIG-0.27  OA
ATOM     60  CH3 ACE B   0      -8.225  -8.453   6.981  1.00 26.85 LIG 0.12  C 
ATOM     61 H    GLY B   1      -7.577  -8.873   9.536  1.00 20.21 LIG 0.16  HD
ENDBRANCH 56 57
ENDBRANCH 54 56
ENDBRANCH 51 52
ENDBRANCH 49 51
ENDBRANCH 41 47
ENDBRANCH 38 41
ENDBRANCH 35 37
ENDBRANCH 1 35
TORSDOF 21
ENDMDL
MODEL 6
USER: ADFR SOLUTION from run 182
USER: SCORE 21.438241 LL:  -4.974 LR: -18.060 RR:   0.000 FEB: -11.796
USER: RMSD 3.508262
USER: SEED 181
USER: STATUS no improvement in best in 14 clusters for 5 generations
USER: GENES 23
USER: genes 0 Translation |==|  0.42301 0.56503 0.57389
USER: genes 1 Rotation |==|  0.45422 0.40062 0.69847 0.94569
USER: genes 2 Torsion [C]-N--CA-[CB] |==|  0.24351
USER: genes 3 Torsion [N]-CA--CB-[CG] |==|  0.63388
USER: genes 4 Torsion [CA]-CB--CG-[CD1] |==|  0.08941
USER: genes 5 Torsion [N]-CA--C-[N] |==|  0.85556
USER: genes 6 Torsion [C]-N--CA-[CB] |==|  0.51916
USER: genes 7 Torsion [N]-CA--C-[N] |==|  0.42486
USER: genes 8 Torsion [C]-N--CA-[C] |==|  0.65011
USER: genes 9 Torsion [N]-CA--C-[N] |==|  0.36675
USER: genes 10 Torsion [N]-CA--CB-[CG] |==|  0.85044
USER: genes 11 Torsion [CA]-CB--CG-[CD2] |==|  0.23233
USER: genes 12 Torsion [N]-C--CA-[N] |==|  0.44955
USER: genes 13 Torsion [C]-CA--N-[C] |==|  0.60163
USER: genes 14 Torsion [N]-C--CA-[N] |==|  0.45280
USER: genes 15 Torsion [C]-CA--CB-[CG] |==|  0.20584
USER: genes 16 Torsion [CA]-CB--CG-[CD] |==|  0.23653
USER: genes 17 Torsion [CB]-CG--CD-[OE1] |==|  0.28129
USER: genes 18 Torsion [C]-CA--N-[C] |==|  0.76227
USER: genes 19 Torsion [N]-C--CA-[N] |==|  0.49080
USER: genes 20 Torsion [C]-CA--N-[C] |==|  0.24441
USER: genes 21 Torsion [N]-C--CA-[N] |==|  0.96334
USER: genes 22 Torsion [C]-CA--N-[C] |==|  0.76497
ROOT
ATOM      1  C   ALA B   4     -12.764 -13.539  17.920  1.00 18.54 LIG 0.24  C 
ATOM      2 O    ALA B   4     -13.547 -12.661  18.331  1.00 17.25 LIG-0.27  OA
ATOM      3  N   LEU B   5     -12.625 -14.753  18.470  1.00 18.87 LIG-0.35  N 
ATOM      4 H    LEU B   5     -12.184 -15.400  18.115  1.00 18.87 LIG 0.16  HD
ENDROOT
BRANCH 3 5
ATOM      5  CA  LEU B   5     -13.247 -15.066  19.772  1.00 18.34 LIG 0.18  C 
BRANCH 5 6
ATOM      6  CB  LEU B   5     -14.665 -15.558  19.553  1.00 23.26 LIG 0.04  C 
BRANCH 6 7
ATOM      7  CG  LEU B   5     -15.721 -14.906  20.433  1.00 28.17 LIG-0.02  C 
ATOM      8  CD1 LEU B   5     -15.297 -13.459  20.708  1.00 29.22 LIG 0.01  C 
ATOM      9  CD2 LEU B   5     -17.101 -14.945  19.795  1.00 30.00 LIG 0.01  C 
ENDBRANCH 6 7
ENDBRANCH 5 6
BRANCH 5 10
ATOM     10  C   LEU B   5     -12.446 -16.142  20.487  1.00 16.86 LIG 0.24  C 
ATOM     11 O    LEU B   5     -12.032 -15.956  21.591  1.00 19.60 LIG-0.27  OA
ATOM     12  N   ALA B   6     -12.182 -17.252  19.803  1.00 16.13 LIG-0.35  N 
ATOM     13 H    ALA B   6     -12.481 -17.397  19.010  1.00 16.13 LIG 0.16  HD
BRANCH 12 14
ATOM     14  CA  ALA B   6     -11.355 -18.345  20.327  1.00 17.44 LIG 0.17  C 
ATOM     15  CB  ALA B   6     -11.130 -19.363  19.216  1.00 18.99 LIG 0.04  C 
BRANCH 14 16
ATOM     16  C   ALA B   6      -9.999 -17.826  20.813  1.00 24.46 LIG 0.24  C 
ATOM     17 O    ALA B   6      -9.493 -16.853  20.263  1.00 27.52 LIG-0.27  OA
ATOM     18  N   TRP B   7      -9.357 -18.494  21.773  1.00 32.31 LIG-0.35  N 
ATOM     19 H    TRP B   7      -9.696 -19.119  22.257  1.00 32.31 LIG 0.16  HD
BRANCH 18 20
ATOM     20  CA  TRP B   7      -7.913 -18.150  22.063  1.00 35.59 LIG 0.18  C 
BRANCH 20 21
ATOM     21  C   TRP B   7      -6.900 -19.291  22.031  1.00 36.87 LIG 0.25  C 
ATOM     22 N    NH2 B   8      -5.697 -19.089  21.297  1.00 48.35 LIG-0.06  NA
ATOM     23 O    TRP B   7      -7.098 -20.331  22.639  1.00 43.64 LIG-0.28  OA
ENDBRANCH 20 21
BRANCH 20 24
ATOM     24  CB  TRP B   7      -7.786 -17.428  23.393  1.00 36.27 LIG 0.07  C 
BRANCH 24 25
ATOM     25  CG  TRP B   7      -8.660 -16.224  23.514  1.00 35.16 LIG-0.03  A 
ATOM     26  CD2 TRP B   7     -10.034 -16.198  23.895  1.00 33.00 LIG-0.00  A 
ATOM     27  CE3 TRP B   7     -10.971 -17.186  24.233  1.00 33.14 LIG 0.01  A 
ATOM     28  CE2 TRP B   7     -10.443 -14.846  23.879  1.00 37.76 LIG 0.04  A 
ATOM     29  CZ3 TRP B   7     -12.267 -16.792  24.559  1.00 39.74 LIG 0.00  A 
ATOM     30  CH2 TRP B   7     -12.646 -15.430  24.536  1.00 37.98 LIG 0.00  A 
ATOM     31  CZ2 TRP B   7     -11.761 -14.449  24.187  1.00 35.74 LIG 0.03  A 
ATOM     32  NE1 TRP B   7      -9.356 -14.098  23.507  1.00 36.87 LIG-0.36  N 
ATOM     33  CD1 TRP B   7      -8.295 -14.935  23.281  1.00 32.46 LIG 0.10  A 
ATOM     34 HE1  TRP B   7      -9.343 -13.242  23.427  1.00 36.87 LIG 0.17  HD
ENDBRANCH 24 25
ENDBRANCH 20 24
ENDBRANCH 18 20
ENDBRANCH 14 16
ENDBRANCH 12 14
ENDBRANCH 5 10
ENDBRANCH 3 5
BRANCH 1 35
ATOM     35  CA  ALA B   4     -11.899 -13.293  16.719  1.00 18.93 LIG 0.17  C 
ATOM     36  CB  ALA B   4     -10.473 -13.050  17.163  1.00 20.14 LIG 0.04  C 
BRANCH 35 37
ATOM     37  N   ALA B   4     -12.393 -12.172  15.949  1.00 16.93 LIG-0.35  N 
ATOM     38  C   GLU B   3     -12.336 -12.163  14.622  1.00 16.00 LIG 0.24  C 
ATOM     39 O    GLU B   3     -11.939 -13.115  13.970  1.00 18.04 LIG-0.27  OA
ATOM     40 H    ALA B   4     -12.719 -11.531  16.420  1.00 16.93 LIG 0.16  HD
BRANCH 38 41
ATOM     41  CA  GLU B   3     -12.818 -10.889  13.932  1.00 15.64 LIG 0.18  C 
BRANCH 41 42
ATOM     42  CB  GLU B   3     -14.357 -10.765  13.965  1.00 16.94 LIG 0.04  C 
BRANCH 42 43
ATOM     43  CG  GLU B   3     -14.903 -10.389  15.325  1.00 17.50 LIG 0.12  C 
BRANCH 43 44
ATOM     44  CD  GLU B   3     -14.929  -8.905  15.625  1.00 19.64 LIG 0.17  C 
ATOM     45 OE1  GLU B   3     -16.023  -8.311  15.515  1.00 22.12 LIG-0.65  OA
ATOM     46 OE2  GLU B   3     -13.880  -8.334  15.965  1.00 20.68 LIG-0.65  OA
ENDBRANCH 43 44
ENDBRANCH 42 43
ENDBRANCH 41 42
BRANCH 41 47
ATOM     47  N   GLU B   3     -12.312 -10.892  12.549  1.00 14.76 LIG-0.35  N 
ATOM     48 H    GLU B   3     -12.873 -11.214  11.982  1.00 14.76 LIG 0.16  HD
ATOM     49  C   GLY B   2     -11.117 -10.446  12.201  1.00 15.24 LIG 0.24  C 
ATOM     50 O    GLY B   2     -10.320  -9.975  13.003  1.00 16.96 LIG-0.27  OA
BRANCH 49 51
ATOM     51  CA  GLY B   2     -10.771 -10.537  10.714  1.00 16.40 LIG 0.23  C 
BRANCH 51 52
ATOM     52  N   GLY B   2      -9.457  -9.957  10.359  1.00 16.09 LIG-0.35  N 
ATOM     53 H    GLY B   2      -9.490  -9.129  10.127  1.00 16.09 LIG 0.16  HD
ATOM     54  C   GLY B   1      -8.336 -10.660  10.399  1.00 19.38 LIG 0.23  C 
ATOM     55 O    GLY B   1      -8.429 -11.884  10.723  1.00 21.51 LIG-0.27  OA
BRANCH 54 56
ATOM     56  CA  GLY B   1      -7.018 -10.401   9.927  1.00 21.19 LIG 0.23  C 
BRANCH 56 57
ATOM     57  N   GLY B   1      -7.509  -9.294   9.156  1.00 20.21 LIG-0.35  N 
ATOM     58  C   ACE B   0      -8.031  -9.449   7.928  1.00 20.42 LIG 0.21  C 
ATOM     59 O    ACE B   0      -8.443 -10.512   7.570  1.00 26.00 LIG-0.27  OA
ATOM     60  CH3 ACE B   0      -8.164  -8.276   6.993  1.00 26.85 LIG 0.12  C 
ATOM     61 H    GLY B   1      -7.437  -8.533   9.549  1.00 20.21 LIG 0.16  HD
ENDBRANCH 56 57
ENDBRANCH 54 56
ENDBRANCH 51 52
ENDBRANCH 49 51
ENDBRANCH 41 47
ENDBRANCH 38 41
ENDBRANCH 35 37
ENDBRANCH 1 35
TORSDOF 21
ENDMDL
MODEL 7
USER: ADFR SOLUTION from run 150
USER: SCORE 18.496289 LL:  -4.115 LR: -18.012 RR:   0.000 FEB: -11.747
USER: RMSD 3.885007
USER: SEED 149
USER: STATUS 1 or 2 clusters left
USER: GENES 23
USER: genes 0 Translation |==|  0.40919 0.55349 0.58563
USER: genes 1 Rotation |==|  0.47653 0.54003 0.72015 0.94652
USER: genes 2 Torsion [C]-N--CA-[CB] |==|  0.22778
USER: genes 3 Torsion [N]-CA--CB-[CG] |==|  0.97220
USER: genes 4 Torsion [CA]-CB--CG-[CD1] |==|  0.33415
USER: genes 5 Torsion [N]-CA--C-[N] |==|  0.01464
USER: genes 6 Torsion [C]-N--CA-[CB] |==|  0.35006
USER: genes 7 Torsion [N]-CA--C-[N] |==|  0.62566
USER: genes 8 Torsion [C]-N--CA-[C] |==|  0.75837
USER: genes 9 Torsion [N]-CA--C-[N] |==|  0.94994
USER: genes 10 Torsion [N]-CA--CB-[CG] |==|  0.93162
USER: genes 11 Torsion [CA]-CB--CG-[CD2] |==|  0.30202
USER: genes 12 Torsion [N]-C--CA-[N] |==|  0.61411
USER: genes 13 Torsion [C]-CA--N-[C] |==|  0.54071
USER: genes 14 Torsion [N]-C--CA-[N] |==|  0.45433
USER: genes 15 Torsion [C]-CA--CB-[CG] |==|  0.84204
USER: genes 16 Torsion [CA]-CB--CG-[CD] |==|  0.45920
USER: genes 17 Torsion [CB]-CG--CD-[OE1] |==|  0.86398
USER: genes 18 Torsion [C]-CA--N-[C] |==|  0.63064
USER: genes 19 Torsion [N]-C--CA-[N] |==|  0.53690
USER: genes 20 Torsion [C]-CA--N-[C] |==|  0.20741
USER: genes 21 Torsion [N]-C--CA-[N] |==|  0.00406
USER: genes 22 Torsion [C]-CA--N-[C] |==|  0.72387
ROOT
ATOM      1  C   ALA B   4     -13.054 -13.782  18.237  1.00 18.54 LIG 0.24  C 
ATOM      2 O    ALA B   4     -13.584 -12.846  18.868  1.00 17.25 LIG-0.27  OA
ATOM      3  N   LEU B   5     -12.551 -14.889  18.797  1.00 18.87 LIG-0.35  N 
ATOM      4 H    LEU B   5     -12.303 -15.586  18.359  1.00 18.87 LIG 0.16  HD
ENDROOT
BRANCH 3 5
ATOM      5  CA  LEU B   5     -12.383 -14.983  20.261  1.00 18.34 LIG 0.18  C 
BRANCH 5 6
ATOM      6  CB  LEU B   5     -13.704 -15.367  20.901  1.00 23.26 LIG 0.04  C 
BRANCH 6 7
ATOM      7  CG  LEU B   5     -14.910 -15.330  19.973  1.00 28.17 LIG-0.02  C 
ATOM      8  CD1 LEU B   5     -15.525 -16.732  19.922  1.00 29.22 LIG 0.01  C 
ATOM      9  CD2 LEU B   5     -15.943 -14.308  20.418  1.00 30.00 LIG 0.01  C 
ENDBRANCH 6 7
ENDBRANCH 5 6
BRANCH 5 10
ATOM     10  C   LEU B   5     -11.337 -16.033  20.600  1.00 16.86 LIG 0.24  C 
ATOM     11 O    LEU B   5     -11.082 -16.288  21.738  1.00 19.60 LIG-0.27  OA
ATOM     12  N   ALA B   6     -10.689 -16.591  19.581  1.00 16.13 LIG-0.35  N 
ATOM     13 H    ALA B   6     -10.872 -16.417  18.758  1.00 16.13 LIG 0.16  HD
BRANCH 12 14
ATOM     14  CA  ALA B   6      -9.600 -17.558  19.749  1.00 17.44 LIG 0.17  C 
ATOM     15  CB  ALA B   6      -9.931 -18.812  18.949  1.00 18.99 LIG 0.04  C 
BRANCH 14 16
ATOM     16  C   ALA B   6      -8.271 -16.983  19.253  1.00 24.46 LIG 0.24  C 
ATOM     17 O    ALA B   6      -7.989 -15.815  19.498  1.00 27.52 LIG-0.27  OA
ATOM     18  N   TRP B   7      -7.481 -17.742  18.490  1.00 32.31 LIG-0.35  N 
ATOM     19 H    TRP B   7      -7.577 -18.587  18.362  1.00 32.31 LIG 0.16  HD
BRANCH 18 20
ATOM     20  CA  TRP B   7      -6.313 -17.098  17.778  1.00 35.59 LIG 0.18  C 
BRANCH 20 21
ATOM     21  C   TRP B   7      -6.580 -16.485  16.406  1.00 36.87 LIG 0.25  C 
ATOM     22 N    NH2 B   8      -7.761 -16.885  15.720  1.00 48.35 LIG-0.06  NA
ATOM     23 O    TRP B   7      -5.824 -15.655  15.925  1.00 43.64 LIG-0.28  OA
ENDBRANCH 20 21
BRANCH 20 24
ATOM     24  CB  TRP B   7      -5.152 -18.070  17.657  1.00 36.27 LIG 0.07  C 
BRANCH 24 25
ATOM     25  CG  TRP B   7      -5.150 -19.143  18.693  1.00 35.16 LIG-0.03  A 
ATOM     26  CD2 TRP B   7      -5.436 -20.526  18.495  1.00 33.00 LIG-0.00  A 
ATOM     27  CE3 TRP B   7      -5.809 -21.295  17.382  1.00 33.14 LIG 0.01  A 
ATOM     28  CE2 TRP B   7      -5.306 -21.161  19.750  1.00 37.76 LIG 0.04  A 
ATOM     29  CZ3 TRP B   7      -6.018 -22.661  17.555  1.00 39.74 LIG 0.00  A 
ATOM     30  CH2 TRP B   7      -5.877 -23.268  18.825  1.00 37.98 LIG 0.00  A 
ATOM     31  CZ2 TRP B   7      -5.540 -22.540  19.930  1.00 35.74 LIG 0.03  A 
ATOM     32  NE1 TRP B   7      -4.954 -20.195  20.657  1.00 36.87 LIG-0.36  N 
ATOM     33  CD1 TRP B   7      -4.872 -18.988  20.015  1.00 32.46 LIG 0.10  A 
ATOM     34 HE1  TRP B   7      -4.808 -20.326  21.494  1.00 36.87 LIG 0.17  HD
ENDBRANCH 24 25
ENDBRANCH 20 24
ENDBRANCH 18 20
ENDBRANCH 14 16
ENDBRANCH 12 14
ENDBRANCH 5 10
ENDBRANCH 3 5
BRANCH 1 35
ATOM     35  CA  ALA B   4     -12.957 -13.737  16.741  1.00 18.93 LIG 0.17  C 
ATOM     36  CB  ALA B   4     -11.957 -14.770  16.267  1.00 20.14 LIG 0.04  C 
BRANCH 35 37
ATOM     37  N   ALA B   4     -12.581 -12.416  16.287  1.00 16.93 LIG-0.35  N 
ATOM     38  C   GLU B   3     -12.710 -12.056  15.016  1.00 16.00 LIG 0.24  C 
ATOM     39 O    GLU B   3     -13.217 -12.776  14.171  1.00 18.04 LIG-0.27  OA
ATOM     40 H    ALA B   4     -12.274 -11.900  16.904  1.00 16.93 LIG 0.16  HD
BRANCH 38 41
ATOM     41  CA  GLU B   3     -12.205 -10.662  14.652  1.00 15.64 LIG 0.18  C 
BRANCH 41 42
ATOM     42  CB  GLU B   3     -13.144  -9.554  15.175  1.00 16.94 LIG 0.04  C 
BRANCH 42 43
ATOM     43  CG  GLU B   3     -14.569  -9.690  14.685  1.00 17.50 LIG 0.12  C 
BRANCH 43 44
ATOM     44  CD  GLU B   3     -15.593  -8.857  15.426  1.00 19.64 LIG 0.17  C 
ATOM     45 OE1  GLU B   3     -15.584  -8.905  16.675  1.00 22.12 LIG-0.65  OA
ATOM     46 OE2  GLU B   3     -16.397  -8.163  14.781  1.00 20.68 LIG-0.65  OA
ENDBRANCH 43 44
ENDBRANCH 42 43
ENDBRANCH 41 42
BRANCH 41 47
ATOM     47  N   GLU B   3     -12.059 -10.589  13.188  1.00 14.76 LIG-0.35  N 
ATOM     48 H    GLU B   3     -12.740 -10.896  12.762  1.00 14.76 LIG 0.16  HD
ATOM     49  C   GLY B   2     -10.991 -10.104  12.577  1.00 15.24 LIG 0.24  C 
ATOM     50 O    GLY B   2     -10.024  -9.655  13.178  1.00 16.96 LIG-0.27  OA
BRANCH 49 51
ATOM     51  CA  GLY B   2     -11.026 -10.118  11.048  1.00 16.40 LIG 0.23  C 
BRANCH 51 52
ATOM     52  N   GLY B   2      -9.716  -9.863  10.408  1.00 16.09 LIG-0.35  N 
ATOM     53 H    GLY B   2      -9.640  -9.078  10.066  1.00 16.09 LIG 0.16  HD
ATOM     54  C   GLY B   1      -8.755 -10.772  10.372  1.00 19.38 LIG 0.23  C 
ATOM     55 O    GLY B   1      -9.007 -11.906  10.882  1.00 21.51 LIG-0.27  OA
BRANCH 54 56
ATOM     56  CA  GLY B   1      -7.522 -10.843   9.664  1.00 21.19 LIG 0.23  C 
BRANCH 56 57
ATOM     57  N   GLY B   1      -7.775  -9.553   9.087  1.00 20.21 LIG-0.35  N 
ATOM     58  C   ACE B   0      -8.264  -9.403   7.845  1.00 20.42 LIG 0.21  C 
ATOM     59 O    ACE B   0      -8.841 -10.299   7.306  1.00 26.00 LIG-0.27  OA
ATOM     60  CH3 ACE B   0      -8.147  -8.087   7.124  1.00 26.85 LIG 0.12  C 
ATOM     61 H    GLY B   1      -7.587  -8.893   9.606  1.00 20.21 LIG 0.16  HD
ENDBRANCH 56 57
ENDBRANCH 54 56
ENDBRANCH 51 52
ENDBRANCH 49 51
ENDBRANCH 41 47
ENDBRANCH 38 41
ENDBRANCH 35 37
ENDBRANCH 1 35
TORSDOF 21
ENDMDL
MODEL 8
USER: ADFR SOLUTION from run 35
USER: SCORE 19.994312 LL:  -5.428 LR: -17.958 RR:   0.000 FEB: -11.693
USER: RMSD 4.169814
USER: SEED 34
USER: STATUS no improvement in best in 3 clusters for 5 generations
USER: GENES 23
USER: genes 0 Translation |==|  0.39854 0.55680 0.57515
USER: genes 1 Rotation |==|  0.48093 0.44143 0.54596 0.99406
USER: genes 2 Torsion [C]-N--CA-[CB] |==|  0.38732
USER: genes 3 Torsion [N]-CA--CB-[CG] |==|  0.68420
USER: genes 4 Torsion [CA]-CB--CG-[CD1] |==|  0.61423
USER: genes 5 Torsion [N]-CA--C-[N] |==|  0.09771
USER: genes 6 Torsion [C]-N--CA-[CB] |==|  0.14365
USER: genes 7 Torsion [N]-CA--C-[N] |==|  0.89397
USER: genes 8 Torsion [C]-N--CA-[C] |==|  0.73591
USER: genes 9 Torsion [N]-CA--C-[N] |==|  0.03433
USER: genes 10 Torsion [N]-CA--CB-[CG] |==|  0.71187
USER: genes 11 Torsion [CA]-CB--CG-[CD2] |==|  0.14388
USER: genes 12 Torsion [N]-C--CA-[N] |==|  0.47005
USER: genes 13 Torsion [C]-CA--N-[C] |==|  0.61884
USER: genes 14 Torsion [N]-C--CA-[N] |==|  0.45619
USER: genes 15 Torsion [C]-CA--CB-[CG] |==|  0.88890
USER: genes 16 Torsion [CA]-CB--CG-[CD] |==|  0.48397
USER: genes 17 Torsion [CB]-CG--CD-[OE1] |==|  0.80478
USER: genes 18 Torsion [C]-CA--N-[C] |==|  0.63815
USER: genes 19 Torsion [N]-C--CA-[N] |==|  0.96537
USER: genes 20 Torsion [C]-CA--N-[C] |==|  0.81064
USER: genes 21 Torsion [N]-C--CA-[N] |==|  0.97778
USER: genes 22 Torsion [C]-CA--N-[C] |==|  0.74445
ROOT
ATOM      1  C   ALA B   4     -13.278 -13.712  17.954  1.00 18.54 LIG 0.24  C 
ATOM      2 O    ALA B   4     -13.335 -12.656  18.615  1.00 17.25 LIG-0.27  OA
ATOM      3  N   LEU B   5     -13.828 -14.874  18.328  1.00 18.87 LIG-0.35  N 
ATOM      4 H    LEU B   5     -13.900 -15.564  17.819  1.00 18.87 LIG 0.16  HD
ENDROOT
BRANCH 3 5
ATOM      5  CA  LEU B   5     -14.368 -15.049  19.691  1.00 18.34 LIG 0.18  C 
BRANCH 5 6
ATOM      6  CB  LEU B   5     -15.668 -15.828  19.627  1.00 23.26 LIG 0.04  C 
BRANCH 6 7
ATOM      7  CG  LEU B   5     -16.911 -15.050  20.035  1.00 28.17 LIG-0.02  C 
ATOM      8  CD1 LEU B   5     -17.800 -15.967  20.882  1.00 29.22 LIG 0.01  C 
ATOM      9  CD2 LEU B   5     -16.568 -13.783  20.800  1.00 30.00 LIG 0.01  C 
ENDBRANCH 6 7
ENDBRANCH 5 6
BRANCH 5 10
ATOM     10  C   LEU B   5     -13.371 -15.804  20.554  1.00 16.86 LIG 0.24  C 
ATOM     11 O    LEU B   5     -13.750 -16.529  21.424  1.00 19.60 LIG-0.27  OA
ATOM     12  N   ALA B   6     -12.080 -15.567  20.334  1.00 16.13 LIG-0.35  N 
ATOM     13 H    ALA B   6     -11.799 -15.051  19.705  1.00 16.13 LIG 0.16  HD
BRANCH 12 14
ATOM     14  CA  ALA B   6     -11.003 -16.157  21.136  1.00 17.44 LIG 0.17  C 
ATOM     15  CB  ALA B   6     -11.208 -17.665  21.196  1.00 18.99 LIG 0.04  C 
BRANCH 14 16
ATOM     16  C   ALA B   6      -9.633 -15.861  20.521  1.00 24.46 LIG 0.24  C 
ATOM     17 O    ALA B   6      -8.701 -15.539  21.251  1.00 27.52 LIG-0.27  OA
ATOM     18  N   TRP B   7      -9.502 -15.878  19.193  1.00 32.31 LIG-0.35  N 
ATOM     19 H    TRP B   7     -10.085 -16.183  18.640  1.00 32.31 LIG 0.16  HD
BRANCH 18 20
ATOM     20  CA  TRP B   7      -8.237 -15.326  18.575  1.00 35.59 LIG 0.18  C 
BRANCH 20 21
ATOM     21  C   TRP B   7      -8.262 -13.873  18.107  1.00 36.87 LIG 0.25  C 
ATOM     22 N    NH2 B   8      -9.357 -13.063  18.518  1.00 48.35 LIG-0.06  NA
ATOM     23 O    TRP B   7      -7.357 -13.410  17.430  1.00 43.64 LIG-0.28  OA
ENDBRANCH 20 21
BRANCH 20 24
ATOM     24  CB  TRP B   7      -7.773 -16.198  17.422  1.00 36.27 LIG 0.07  C 
BRANCH 24 25
ATOM     25  CG  TRP B   7      -6.610 -17.072  17.754  1.00 35.16 LIG-0.03  A 
ATOM     26  CD2 TRP B   7      -6.496 -17.961  18.863  1.00 33.00 LIG-0.00  A 
ATOM     27  CE3 TRP B   7      -7.330 -18.284  19.944  1.00 33.14 LIG 0.01  A 
ATOM     28  CE2 TRP B   7      -5.231 -18.583  18.769  1.00 37.76 LIG 0.04  A 
ATOM     29  CZ3 TRP B   7      -6.886 -19.222  20.873  1.00 39.74 LIG 0.00  A 
ATOM     30  CH2 TRP B   7      -5.615 -19.829  20.749  1.00 37.98 LIG 0.00  A 
ATOM     31  CZ2 TRP B   7      -4.771 -19.515  19.722  1.00 35.74 LIG 0.03  A 
ATOM     32  NE1 TRP B   7      -4.619 -18.086  17.647  1.00 36.87 LIG-0.36  N 
ATOM     33  CD1 TRP B   7      -5.451 -17.174  17.051  1.00 32.46 LIG 0.10  A 
ATOM     34 HE1  TRP B   7      -3.840 -18.311  17.363  1.00 36.87 LIG 0.17  HD
ENDBRANCH 24 25
ENDBRANCH 20 24
ENDBRANCH 18 20
ENDBRANCH 14 16
ENDBRANCH 12 14
ENDBRANCH 5 10
ENDBRANCH 3 5
BRANCH 1 35
ATOM     35  CA  ALA B   4     -12.573 -13.749  16.630  1.00 18.93 LIG 0.17  C 
ATOM     36  CB  ALA B   4     -11.334 -14.611  16.741  1.00 20.14 LIG 0.04  C 
BRANCH 35 37
ATOM     37  N   ALA B   4     -12.231 -12.415  16.189  1.00 16.93 LIG-0.35  N 
ATOM     38  C   GLU B   3     -12.401 -12.036  14.928  1.00 16.00 LIG 0.24  C 
ATOM     39 O    GLU B   3     -12.920 -12.749  14.086  1.00 18.04 LIG-0.27  OA
ATOM     40 H    ALA B   4     -11.916 -11.905  16.807  1.00 16.93 LIG 0.16  HD
BRANCH 38 41
ATOM     41  CA  GLU B   3     -11.928 -10.627  14.575  1.00 15.64 LIG 0.18  C 
BRANCH 41 42
ATOM     42  CB  GLU B   3     -12.862  -9.544  15.158  1.00 16.94 LIG 0.04  C 
BRANCH 42 43
ATOM     43  CG  GLU B   3     -14.329  -9.900  15.066  1.00 17.50 LIG 0.12  C 
BRANCH 43 44
ATOM     44  CD  GLU B   3     -15.275  -8.932  15.746  1.00 19.64 LIG 0.17  C 
ATOM     45 OE1  GLU B   3     -15.269  -8.897  16.995  1.00 22.12 LIG-0.65  OA
ATOM     46 OE2  GLU B   3     -16.015  -8.215  15.052  1.00 20.68 LIG-0.65  OA
ENDBRANCH 43 44
ENDBRANCH 42 43
ENDBRANCH 41 42
BRANCH 41 47
ATOM     47  N   GLU B   3     -11.840 -10.523  13.109  1.00 14.76 LIG-0.35  N 
ATOM     48 H    GLU B   3     -12.548 -10.796  12.704  1.00 14.76 LIG 0.16  HD
ATOM     49  C   GLY B   2     -10.782 -10.058  12.466  1.00 15.24 LIG 0.24  C 
ATOM     50 O    GLY B   2      -9.776  -9.656  13.037  1.00 16.96 LIG-0.27  OA
BRANCH 49 51
ATOM     51  CA  GLY B   2     -10.879 -10.032  10.940  1.00 16.40 LIG 0.23  C 
BRANCH 51 52
ATOM     52  N   GLY B   2     -12.022 -10.795  10.390  1.00 16.09 LIG-0.35  N 
ATOM     53 H    GLY B   2     -12.628 -10.306  10.026  1.00 16.09 LIG 0.16  HD
ATOM     54  C   GLY B   1     -12.093 -12.115  10.459  1.00 19.38 LIG 0.23  C 
ATOM     55 O    GLY B   1     -11.149 -12.718  11.055  1.00 21.51 LIG-0.27  OA
BRANCH 54 56
ATOM     56  CA  GLY B   1     -13.144 -13.039  10.197  1.00 21.19 LIG 0.23  C 
BRANCH 56 57
ATOM     57  N   GLY B   1     -14.067 -11.949  10.045  1.00 20.21 LIG-0.35  N 
ATOM     58  C   ACE B   0     -14.795 -11.475  11.069  1.00 20.42 LIG 0.21  C 
ATOM     59 O    ACE B   0     -14.461 -11.676  12.199  1.00 26.00 LIG-0.27  OA
ATOM     60  CH3 ACE B   0     -16.017 -10.631  10.821  1.00 26.85 LIG 0.12  C 
ATOM     61 H    GLY B   1     -14.109 -11.634   9.246  1.00 20.21 LIG 0.16  HD
ENDBRANCH 56 57
ENDBRANCH 54 56
ENDBRANCH 51 52
ENDBRANCH 49 51
ENDBRANCH 41 47
ENDBRANCH 38 41
ENDBRANCH 35 37
ENDBRANCH 1 35
TORSDOF 21
ENDMDL
MODEL 9
USER: ADFR SOLUTION from run 99
USER: SCORE 21.227379 LL:  -4.700 LR: -17.694 RR:   0.000 FEB: -11.430
USER: RMSD 3.497333
USER: SEED 98
USER: STATUS no improvement in best in 7 clusters for 5 generations
USER: GENES 23
USER: genes 0 Translation |==|  0.46558 0.50322 0.54257
USER: genes 1 Rotation |==|  0.85604 0.60080 0.22710 0.69647
USER: genes 2 Torsion [C]-N--CA-[CB] |==|  0.85260
USER: genes 3 Torsion [N]-CA--CB-[CG] |==|  0.86452
USER: genes 4 Torsion [CA]-CB--CG-[CD1] |==|  0.37442
USER: genes 5 Torsion [N]-CA--C-[N] |==|  0.33889
USER: genes 6 Torsion [C]-N--CA-[CB] |==|  0.79852
USER: genes 7 Torsion [N]-CA--C-[N] |==|  0.17926
USER: genes 8 Torsion [C]-N--CA-[C] |==|  0.61896
USER: genes 9 Torsion [N]-CA--C-[N] |==|  0.34085
USER: genes 10 Torsion [N]-CA--CB-[CG] |==|  0.55020
USER: genes 11 Torsion [CA]-CB--CG-[CD2] |==|  0.11136
USER: genes 12 Torsion [N]-C--CA-[N] |==|  0.93644
USER: genes 13 Torsion [C]-CA--N-[C] |==|  0.78846
USER: genes 14 Torsion [N]-C--CA-[N] |==|  0.41889
USER: genes 15 Torsion [C]-CA--CB-[CG] |==|  0.54207
USER: genes 16 Torsion [CA]-CB--CG-[CD] |==|  0.65221
USER: genes 17 Torsion [CB]-CG--CD-[OE1] |==|  0.55067
USER: genes 18 Torsion [C]-CA--N-[C] |==|  0.74119
USER: genes 19 Torsion [N]-C--CA-[N] |==|  0.56317
USER: genes 20 Torsion [C]-CA--N-[C] |==|  0.21334
USER: genes 21 Torsion [N]-C--CA-[N] |==|  0.95035
USER: genes 22 Torsion [C]-CA--N-[C] |==|  0.72978
ROOT
ATOM      1  C   ALA B   4     -11.870 -14.837  17.074  1.00 18.54 LIG 0.24  C 
ATOM      2 O    ALA B   4     -11.512 -16.032  17.063  1.00 17.25 LIG-0.27  OA
ATOM      3  N   LEU B   5     -13.124 -14.420  17.288  1.00 18.87 LIG-0.35  N 
ATOM      4 H    LEU B   5     -13.349 -13.601  17.422  1.00 18.87 LIG 0.16  HD
ENDROOT
BRANCH 3 5
ATOM      5  CA  LEU B   5     -14.245 -15.381  17.306  1.00 18.34 LIG 0.18  C 
BRANCH 5 6
ATOM      6  CB  LEU B   5     -14.226 -16.210  16.036  1.00 23.26 LIG 0.04  C 
BRANCH 6 7
ATOM      7  CG  LEU B   5     -14.089 -15.416  14.745  1.00 28.17 LIG-0.02  C 
ATOM      8  CD1 LEU B   5     -13.047 -16.107  13.859  1.00 29.22 LIG 0.01  C 
ATOM      9  CD2 LEU B   5     -15.413 -15.286  14.011  1.00 30.00 LIG 0.01  C 
ENDBRANCH 6 7
ENDBRANCH 5 6
BRANCH 5 10
ATOM     10  C   LEU B   5     -14.123 -16.302  18.509  1.00 16.86 LIG 0.24  C 
ATOM     11 O    LEU B   5     -13.172 -17.013  18.634  1.00 19.60 LIG-0.27  OA
ATOM     12  N   ALA B   6     -15.144 -16.320  19.362  1.00 16.13 LIG-0.35  N 
ATOM     13 H    ALA B   6     -15.830 -15.807  19.283  1.00 16.13 LIG 0.16  HD
BRANCH 12 14
ATOM     14  CA  ALA B   6     -15.209 -17.213  20.524  1.00 17.44 LIG 0.17  C 
ATOM     15  CB  ALA B   6     -15.471 -18.632  20.036  1.00 18.99 LIG 0.04  C 
BRANCH 14 16
ATOM     16  C   ALA B   6     -13.898 -17.188  21.313  1.00 24.46 LIG 0.24  C 
ATOM     17 O    ALA B   6     -13.255 -18.225  21.449  1.00 27.52 LIG-0.27  OA
ATOM     18  N   TRP B   7     -13.521 -16.055  21.908  1.00 32.31 LIG-0.35  N 
ATOM     19 H    TRP B   7     -13.874 -15.282  21.775  1.00 32.31 LIG 0.16  HD
BRANCH 18 20
ATOM     20  CA  TRP B   7     -12.383 -16.094  22.904  1.00 35.59 LIG 0.18  C 
BRANCH 20 21
ATOM     21  C   TRP B   7     -12.550 -15.291  24.191  1.00 36.87 LIG 0.25  C 
ATOM     22 N    NH2 B   8     -12.446 -15.990  25.426  1.00 48.35 LIG-0.06  NA
ATOM     23 O    TRP B   7     -12.733 -14.084  24.165  1.00 43.64 LIG-0.28  OA
ENDBRANCH 20 21
BRANCH 20 24
ATOM     24  CB  TRP B   7     -11.076 -15.689  22.245  1.00 36.27 LIG 0.07  C 
BRANCH 24 25
ATOM     25  CG  TRP B   7      -9.861 -16.099  23.008  1.00 35.16 LIG-0.03  A 
ATOM     26  CD2 TRP B   7      -9.656 -17.333  23.693  1.00 33.00 LIG-0.00  A 
ATOM     27  CE3 TRP B   7     -10.443 -18.476  23.901  1.00 33.14 LIG 0.01  A 
ATOM     28  CE2 TRP B   7      -8.365 -17.282  24.263  1.00 37.76 LIG 0.04  A 
ATOM     29  CZ3 TRP B   7      -9.912 -19.526  24.646  1.00 39.74 LIG 0.00  A 
ATOM     30  CH2 TRP B   7      -8.614 -19.446  25.201  1.00 37.98 LIG 0.00  A 
ATOM     31  CZ2 TRP B   7      -7.835 -18.335  25.037  1.00 35.74 LIG 0.03  A 
ATOM     32  NE1 TRP B   7      -7.822 -16.068  23.928  1.00 36.87 LIG-0.36  N 
ATOM     33  CD1 TRP B   7      -8.731 -15.363  23.184  1.00 32.46 LIG 0.10  A 
ATOM     34 HE1  TRP B   7      -7.038 -15.794  24.149  1.00 36.87 LIG 0.17  HD
ENDBRANCH 24 25
ENDBRANCH 20 24
ENDBRANCH 18 20
ENDBRANCH 14 16
ENDBRANCH 12 14
ENDBRANCH 5 10
ENDBRANCH 3 5
BRANCH 1 35
ATOM     35  CA  ALA B   4     -10.872 -13.738  16.857  1.00 18.93 LIG 0.17  C 
ATOM     36  CB  ALA B   4     -10.112 -13.484  18.141  1.00 20.14 LIG 0.04  C 
BRANCH 35 37
ATOM     37  N   ALA B   4     -11.526 -12.530  16.402  1.00 16.93 LIG-0.35  N 
ATOM     38  C   GLU B   3     -11.949 -12.401  15.150  1.00 16.00 LIG 0.24  C 
ATOM     39 O    GLU B   3     -11.887 -13.304  14.333  1.00 18.04 LIG-0.27  OA
ATOM     40 H    ALA B   4     -11.611 -11.922  17.004  1.00 16.93 LIG 0.16  HD
BRANCH 38 41
ATOM     41  CA  GLU B   3     -12.552 -11.048  14.776  1.00 15.64 LIG 0.18  C 
BRANCH 41 42
ATOM     42  CB  GLU B   3     -14.057 -10.976  15.111  1.00 16.94 LIG 0.04  C 
BRANCH 42 43
ATOM     43  CG  GLU B   3     -14.770  -9.821  14.442  1.00 17.50 LIG 0.12  C 
BRANCH 43 44
ATOM     44  CD  GLU B   3     -15.525  -8.897  15.373  1.00 19.64 LIG 0.17  C 
ATOM     45 OE1  GLU B   3     -16.397  -8.156  14.873  1.00 22.12 LIG-0.65  OA
ATOM     46 OE2  GLU B   3     -15.257  -8.905  16.587  1.00 20.68 LIG-0.65  OA
ENDBRANCH 43 44
ENDBRANCH 42 43
ENDBRANCH 41 42
BRANCH 41 47
ATOM     47  N   GLU B   3     -12.313 -10.816  13.341  1.00 14.76 LIG-0.35  N 
ATOM     48 H    GLU B   3     -12.922 -11.154  12.836  1.00 14.76 LIG 0.16  HD
ATOM     49  C   GLY B   2     -11.271 -10.158  12.865  1.00 15.24 LIG 0.24  C 
ATOM     50 O    GLY B   2     -10.408  -9.665  13.580  1.00 16.96 LIG-0.27  OA
BRANCH 49 51
ATOM     51  CA  GLY B   2     -11.196 -10.025  11.343  1.00 16.40 LIG 0.23  C 
BRANCH 51 52
ATOM     52  N   GLY B   2      -9.834  -9.780  10.820  1.00 16.09 LIG-0.35  N 
ATOM     53 H    GLY B   2      -9.688  -8.964  10.589  1.00 16.09 LIG 0.16  HD
ATOM     54  C   GLY B   1      -8.928 -10.740  10.721  1.00 19.38 LIG 0.23  C 
ATOM     55 O    GLY B   1      -9.281 -11.910  11.061  1.00 21.51 LIG-0.27  OA
BRANCH 54 56
ATOM     56  CA  GLY B   1      -7.656 -10.803  10.083  1.00 21.19 LIG 0.23  C 
BRANCH 56 57
ATOM     57  N   GLY B   1      -7.995  -9.656   9.289  1.00 20.21 LIG-0.35  N 
ATOM     58  C   ACE B   0      -8.466  -9.762   8.036  1.00 20.42 LIG 0.21  C 
ATOM     59 O    ACE B   0      -8.961 -10.780   7.655  1.00 26.00 LIG-0.27  OA
ATOM     60  CH3 ACE B   0      -8.433  -8.585   7.097  1.00 26.85 LIG 0.12  C 
ATOM     61 H    GLY B   1      -7.868  -8.904   9.687  1.00 20.21 LIG 0.16  HD
ENDBRANCH 56 57
ENDBRANCH 54 56
ENDBRANCH 51 52
ENDBRANCH 49 51
ENDBRANCH 41 47
ENDBRANCH 38 41
ENDBRANCH 35 37
ENDBRANCH 1 35
TORSDOF 21
ENDMDL
MODEL 10
USER: ADFR SOLUTION from run 146
USER: SCORE 20.910911 LL:  -4.672 LR: -17.666 RR:   0.000 FEB: -11.401
USER: RMSD 3.136169
USER: SEED 145
USER: STATUS no improvement in best in 5 clusters for 5 generations
USER: GENES 23
USER: genes 0 Translation |==|  0.37656 0.55247 0.58123
USER: genes 1 Rotation |==|  0.53400 0.50025 0.38238 0.98478
USER: genes 2 Torsion [C]-N--CA-[CB] |==|  0.50724
USER: genes 3 Torsion [N]-CA--CB-[CG] |==|  0.65157
USER: genes 4 Torsion [CA]-CB--CG-[CD1] |==|  0.68259
USER: genes 5 Torsion [N]-CA--C-[N] |==|  0.31422
USER: genes 6 Torsion [C]-N--CA-[CB] |==|  0.84111
USER: genes 7 Torsion [N]-CA--C-[N] |==|  0.37470
USER: genes 8 Torsion [C]-N--CA-[C] |==|  0.17378
USER: genes 9 Torsion [N]-CA--C-[N] |==|  0.07778
USER: genes 10 Torsion [N]-CA--CB-[CG] |==|  0.88757
USER: genes 11 Torsion [CA]-CB--CG-[CD2] |==|  0.33224
USER: genes 12 Torsion [N]-C--CA-[N] |==|  0.39265
USER: genes 13 Torsion [C]-CA--N-[C] |==|  0.55775
USER: genes 14 Torsion [N]-C--CA-[N] |==|  0.46072
USER: genes 15 Torsion [C]-CA--CB-[CG] |==|  0.85087
USER: genes 16 Torsion [CA]-CB--CG-[CD] |==|  0.45281
USER: genes 17 Torsion [CB]-CG--CD-[OE1] |==|  0.86724
USER: genes 18 Torsion [C]-CA--N-[C] |==|  0.61291
USER: genes 19 Torsion [N]-C--CA-[N] |==|  0.53859
USER: genes 20 Torsion [C]-CA--N-[C] |==|  0.20576
USER: genes 21 Torsion [N]-C--CA-[N] |==|  0.98253
USER: genes 22 Torsion [C]-CA--N-[C] |==|  0.73889
ROOT
ATOM      1  C   ALA B   4     -13.739 -13.803  18.118  1.00 18.54 LIG 0.24  C 
ATOM      2 O    ALA B   4     -13.051 -13.168  18.942  1.00 17.25 LIG-0.27  OA
ATOM      3  N   LEU B   5     -14.836 -14.508  18.425  1.00 18.87 LIG-0.35  N 
ATOM      4 H    LEU B   5     -15.380 -14.838  17.846  1.00 18.87 LIG 0.16  HD
ENDROOT
BRANCH 3 5
ATOM      5  CA  LEU B   5     -15.193 -14.772  19.833  1.00 18.34 LIG 0.18  C 
BRANCH 5 6
ATOM      6  CB  LEU B   5     -16.435 -15.640  19.889  1.00 23.26 LIG 0.04  C 
BRANCH 6 7
ATOM      7  CG  LEU B   5     -17.581 -15.080  20.720  1.00 28.17 LIG-0.02  C 
ATOM      8  CD1 LEU B   5     -17.797 -15.999  21.927  1.00 29.22 LIG 0.01  C 
ATOM      9  CD2 LEU B   5     -17.314 -13.655  21.175  1.00 30.00 LIG 0.01  C 
ENDBRANCH 6 7
ENDBRANCH 5 6
BRANCH 5 10
ATOM     10  C   LEU B   5     -14.050 -15.486  20.536  1.00 16.86 LIG 0.24  C 
ATOM     11 O    LEU B   5     -13.783 -16.617  20.263  1.00 19.60 LIG-0.27  OA
ATOM     12  N   ALA B   6     -13.419 -14.816  21.497  1.00 16.13 LIG-0.35  N 
ATOM     13 H    ALA B   6     -13.601 -13.999  21.695  1.00 16.13 LIG 0.16  HD
BRANCH 12 14
ATOM     14  CA  ALA B   6     -12.351 -15.396  22.319  1.00 17.44 LIG 0.17  C 
ATOM     15  CB  ALA B   6     -12.889 -16.643  23.009  1.00 18.99 LIG 0.04  C 
BRANCH 14 16
ATOM     16  C   ALA B   6     -11.143 -15.779  21.461  1.00 24.46 LIG 0.24  C 
ATOM     17 O    ALA B   6     -11.312 -16.440  20.442  1.00 27.52 LIG-0.27  OA
ATOM     18  N   TRP B   7      -9.919 -15.458  21.886  1.00 32.31 LIG-0.35  N 
ATOM     19 H    TRP B   7      -9.743 -14.923  22.536  1.00 32.31 LIG 0.16  HD
BRANCH 18 20
ATOM     20  CA  TRP B   7      -8.721 -16.066  21.192  1.00 35.59 LIG 0.18  C 
BRANCH 20 21
ATOM     21  C   TRP B   7      -8.522 -15.732  19.715  1.00 36.87 LIG 0.25  C 
ATOM     22 N    NH2 B   8      -9.028 -14.489  19.243  1.00 48.35 LIG-0.06  NA
ATOM     23 O    TRP B   7      -7.922 -16.491  18.970  1.00 43.64 LIG-0.28  OA
ENDBRANCH 20 21
BRANCH 20 24
ATOM     24  CB  TRP B   7      -8.711 -17.575  21.354  1.00 36.27 LIG 0.07  C 
BRANCH 24 25
ATOM     25  CG  TRP B   7      -9.112 -18.041  22.713  1.00 35.16 LIG-0.03  A 
ATOM     26  CD2 TRP B   7     -10.218 -18.880  23.039  1.00 33.00 LIG-0.00  A 
ATOM     27  CE3 TRP B   7     -11.236 -19.487  22.289  1.00 33.14 LIG 0.01  A 
ATOM     28  CE2 TRP B   7     -10.203 -19.062  24.440  1.00 37.76 LIG 0.04  A 
ATOM     29  CZ3 TRP B   7     -12.184 -20.262  22.954  1.00 39.74 LIG 0.00  A 
ATOM     30  CH2 TRP B   7     -12.141 -20.426  24.357  1.00 37.98 LIG 0.00  A 
ATOM     31  CZ2 TRP B   7     -11.176 -19.827  25.116  1.00 35.74 LIG 0.03  A 
ATOM     32  NE1 TRP B   7      -9.130 -18.361  24.927  1.00 36.87 LIG-0.36  N 
ATOM     33  CD1 TRP B   7      -8.488 -17.745  23.884  1.00 32.46 LIG 0.10  A 
ATOM     34 HE1  TRP B   7      -8.897 -18.315  25.753  1.00 36.87 LIG 0.17  HD
ENDBRANCH 24 25
ENDBRANCH 20 24
ENDBRANCH 18 20
ENDBRANCH 14 16
ENDBRANCH 12 14
ENDBRANCH 5 10
ENDBRANCH 3 5
BRANCH 1 35
ATOM     35  CA  ALA B   4     -13.380 -13.806  16.662  1.00 18.93 LIG 0.17  C 
ATOM     36  CB  ALA B   4     -12.340 -14.874  16.399  1.00 20.14 LIG 0.04  C 
BRANCH 35 37
ATOM     37  N   ALA B   4     -12.896 -12.507  16.247  1.00 16.93 LIG-0.35  N 
ATOM     38  C   GLU B   3     -12.903 -12.139  14.972  1.00 16.00 LIG 0.24  C 
ATOM     39 O    GLU B   3     -13.380 -12.828  14.085  1.00 18.04 LIG-0.27  OA
ATOM     40 H    ALA B   4     -12.611 -12.010  16.890  1.00 16.93 LIG 0.16  HD
BRANCH 38 41
ATOM     41  CA  GLU B   3     -12.292 -10.775  14.657  1.00 15.64 LIG 0.18  C 
BRANCH 41 42
ATOM     42  CB  GLU B   3     -13.181  -9.617  15.162  1.00 16.94 LIG 0.04  C 
BRANCH 42 43
ATOM     43  CG  GLU B   3     -14.609  -9.694  14.668  1.00 17.50 LIG 0.12  C 
BRANCH 43 44
ATOM     44  CD  GLU B   3     -15.605  -8.844  15.430  1.00 19.64 LIG 0.17  C 
ATOM     45 OE1  GLU B   3     -15.583  -8.905  16.678  1.00 22.12 LIG-0.65  OA
ATOM     46 OE2  GLU B   3     -16.399  -8.126  14.800  1.00 20.68 LIG-0.65  OA
ENDBRANCH 43 44
ENDBRANCH 42 43
ENDBRANCH 41 42
BRANCH 41 47
ATOM     47  N   GLU B   3     -12.078 -10.688  13.203  1.00 14.76 LIG-0.35  N 
ATOM     48 H    GLU B   3     -12.723 -11.022  12.743  1.00 14.76 LIG 0.16  HD
ATOM     49  C   GLY B   2     -11.004 -10.151  12.647  1.00 15.24 LIG 0.24  C 
ATOM     50 O    GLY B   2     -10.089  -9.662  13.298  1.00 16.96 LIG-0.27  OA
BRANCH 49 51
ATOM     51  CA  GLY B   2     -10.963 -10.158  11.118  1.00 16.40 LIG 0.23  C 
BRANCH 51 52
ATOM     52  N   GLY B   2      -9.633  -9.855  10.545  1.00 16.09 LIG-0.35  N 
ATOM     53 H    GLY B   2      -9.570  -9.068  10.203  1.00 16.09 LIG 0.16  HD
ATOM     54  C   GLY B   1      -8.636 -10.725  10.564  1.00 19.38 LIG 0.23  C 
ATOM     55 O    GLY B   1      -8.870 -11.866  11.067  1.00 21.51 LIG-0.27  OA
BRANCH 54 56
ATOM     56  CA  GLY B   1      -7.366 -10.750   9.921  1.00 21.19 LIG 0.23  C 
BRANCH 56 57
ATOM     57  N   GLY B   1      -7.716  -9.573   9.177  1.00 20.21 LIG-0.35  N 
ATOM     58  C   ACE B   0      -8.250  -9.632   7.947  1.00 20.42 LIG 0.21  C 
ATOM     59 O    ACE B   0      -8.787 -10.628   7.562  1.00 26.00 LIG-0.27  OA
ATOM     60  CH3 ACE B   0      -8.236  -8.429   7.041  1.00 26.85 LIG 0.12  C 
ATOM     61 H    GLY B   1      -7.553  -8.836   9.590  1.00 20.21 LIG 0.16  HD
ENDBRANCH 56 57
ENDBRANCH 54 56
ENDBRANCH 51 52
ENDBRANCH 49 51
ENDBRANCH 41 47
ENDBRANCH 38 41
ENDBRANCH 35 37
ENDBRANCH 1 35
TORSDOF 21
ENDMDL
MODEL 11
USER: ADFR SOLUTION from run 102
USER: SCORE 19.906035 LL:  -5.054 LR: -17.648 RR:   0.000 FEB: -11.384
USER: RMSD 2.750081
USER: SEED 101
USER: STATUS no improvement in best in 5 clusters for 5 generations
USER: GENES 23
USER: genes 0 Translation |==|  0.38908 0.55231 0.58028
USER: genes 1 Rotation |==|  0.47837 0.47526 0.58115 0.99227
USER: genes 2 Torsion [C]-N--CA-[CB] |==|  0.48918
USER: genes 3 Torsion [N]-CA--CB-[CG] |==|  0.21440
USER: genes 4 Torsion [CA]-CB--CG-[CD1] |==|  0.39615
USER: genes 5 Torsion [N]-CA--C-[N] |==|  0.51335
USER: genes 6 Torsion [C]-N--CA-[CB] |==|  0.56562
USER: genes 7 Torsion [N]-CA--C-[N] |==|  0.83632
USER: genes 8 Torsion [C]-N--CA-[C] |==|  0.79647
USER: genes 9 Torsion [N]-CA--C-[N] |==|  0.87123
USER: genes 10 Torsion [N]-CA--CB-[CG] |==|  0.72203
USER: genes 11 Torsion [CA]-CB--CG-[CD2] |==|  0.11081
USER: genes 12 Torsion [N]-C--CA-[N] |==|  0.50537
USER: genes 13 Torsion [C]-CA--N-[C] |==|  0.59523
USER: genes 14 Torsion [N]-C--CA-[N] |==|  0.44763
USER: genes 15 Torsion [C]-CA--CB-[CG] |==|  0.84511
USER: genes 16 Torsion [CA]-CB--CG-[CD] |==|  0.46579
USER: genes 17 Torsion [CB]-CG--CD-[OE1] |==|  0.85782
USER: genes 18 Torsion [C]-CA--N-[C] |==|  0.63137
USER: genes 19 Torsion [N]-C--CA-[N] |==|  0.53210
USER: genes 20 Torsion [C]-CA--N-[C] |==|  0.19713
USER: genes 21 Torsion [N]-C--CA-[N] |==|  0.98904
USER: genes 22 Torsion [C]-CA--N-[C] |==|  0.72883
ROOT
ATOM      1  C   ALA B   4     -13.476 -13.806  18.093  1.00 18.54 LIG 0.24  C 
ATOM      2 O    ALA B   4     -13.587 -12.736  18.723  1.00 17.25 LIG-0.27  OA
ATOM      3  N   LEU B   5     -13.810 -15.011  18.574  1.00 18.87 LIG-0.35  N 
ATOM      4 H    LEU B   5     -13.855 -15.728  18.101  1.00 18.87 LIG 0.16  HD
ENDROOT
BRANCH 3 5
ATOM      5  CA  LEU B   5     -14.133 -15.188  20.003  1.00 18.34 LIG 0.18  C 
BRANCH 5 6
ATOM      6  CB  LEU B   5     -14.565 -16.620  20.253  1.00 23.26 LIG 0.04  C 
BRANCH 6 7
ATOM      7  CG  LEU B   5     -13.436 -17.638  20.311  1.00 28.17 LIG-0.02  C 
ATOM      8  CD1 LEU B   5     -13.771 -18.674  21.389  1.00 29.22 LIG 0.01  C 
ATOM      9  CD2 LEU B   5     -13.209 -18.317  18.969  1.00 30.00 LIG 0.01  C 
ENDBRANCH 6 7
ENDBRANCH 5 6
BRANCH 5 10
ATOM     10  C   LEU B   5     -12.915 -14.874  20.857  1.00 16.86 LIG 0.24  C 
ATOM     11 O    LEU B   5     -11.897 -14.512  20.350  1.00 19.60 LIG-0.27  OA
ATOM     12  N   ALA B   6     -13.025 -15.085  22.166  1.00 16.13 LIG-0.35  N 
ATOM     13 H    ALA B   6     -13.757 -15.340  22.540  1.00 16.13 LIG 0.16  HD
BRANCH 12 14
ATOM     14  CA  ALA B   6     -11.915 -14.906  23.108  1.00 17.44 LIG 0.17  C 
ATOM     15  CB  ALA B   6     -12.182 -15.756  24.345  1.00 18.99 LIG 0.04  C 
BRANCH 14 16
ATOM     16  C   ALA B   6     -10.586 -15.335  22.482  1.00 24.46 LIG 0.24  C 
ATOM     17 O    ALA B   6      -9.699 -14.504  22.320  1.00 27.52 LIG-0.27  OA
ATOM     18  N   TRP B   7     -10.450 -16.590  22.048  1.00 32.31 LIG-0.35  N 
ATOM     19 H    TRP B   7     -10.993 -17.236  22.215  1.00 32.31 LIG 0.16  HD
BRANCH 18 20
ATOM     20  CA  TRP B   7      -9.254 -16.942  21.191  1.00 35.59 LIG 0.18  C 
BRANCH 20 21
ATOM     21  C   TRP B   7      -9.253 -16.441  19.749  1.00 36.87 LIG 0.25  C 
ATOM     22 N    NH2 B   8     -10.442 -16.613  18.987  1.00 48.35 LIG-0.06  NA
ATOM     23 O    TRP B   7      -8.277 -15.881  19.274  1.00 43.64 LIG-0.28  OA
ENDBRANCH 20 21
BRANCH 20 24
ATOM     24  CB  TRP B   7      -9.019 -18.442  21.183  1.00 36.27 LIG 0.07  C 
BRANCH 24 25
ATOM     25  CG  TRP B   7      -7.936 -18.891  22.105  1.00 35.16 LIG-0.03  A 
ATOM     26  CD2 TRP B   7      -7.671 -18.399  23.417  1.00 33.00 LIG-0.00  A 
ATOM     27  CE3 TRP B   7      -8.249 -17.406  24.222  1.00 33.14 LIG 0.01  A 
ATOM     28  CE2 TRP B   7      -6.561 -19.118  23.914  1.00 37.76 LIG 0.04  A 
ATOM     29  CZ3 TRP B   7      -7.717 -17.181  25.490  1.00 39.74 LIG 0.00  A 
ATOM     30  CH2 TRP B   7      -6.607 -17.920  25.959  1.00 37.98 LIG 0.00  A 
ATOM     31  CZ2 TRP B   7      -6.007 -18.875  25.188  1.00 35.74 LIG 0.03  A 
ATOM     32  NE1 TRP B   7      -6.183 -20.004  22.937  1.00 36.87 LIG-0.36  N 
ATOM     33  CD1 TRP B   7      -7.009 -19.853  21.854  1.00 32.46 LIG 0.10  A 
ATOM     34 HE1  TRP B   7      -5.534 -20.564  22.996  1.00 36.87 LIG 0.17  HD
ENDBRANCH 24 25
ENDBRANCH 20 24
ENDBRANCH 18 20
ENDBRANCH 14 16
ENDBRANCH 12 14
ENDBRANCH 5 10
ENDBRANCH 3 5
BRANCH 1 35
ATOM     35  CA  ALA B   4     -12.957 -13.816  16.685  1.00 18.93 LIG 0.17  C 
ATOM     36  CB  ALA B   4     -11.780 -14.761  16.586  1.00 20.14 LIG 0.04  C 
BRANCH 35 37
ATOM     37  N   ALA B   4     -12.581 -12.483  16.265  1.00 16.93 LIG-0.35  N 
ATOM     38  C   GLU B   3     -12.738 -12.082  15.009  1.00 16.00 LIG 0.24  C 
ATOM     39 O    GLU B   3     -13.272 -12.770  14.155  1.00 18.04 LIG-0.27  OA
ATOM     40 H    ALA B   4     -12.255 -11.991  16.890  1.00 16.93 LIG 0.16  HD
BRANCH 38 41
ATOM     41  CA  GLU B   3     -12.229 -10.681  14.678  1.00 15.64 LIG 0.18  C 
BRANCH 41 42
ATOM     42  CB  GLU B   3     -13.177  -9.584  15.208  1.00 16.94 LIG 0.04  C 
BRANCH 42 43
ATOM     43  CG  GLU B   3     -14.601  -9.728  14.716  1.00 17.50 LIG 0.12  C 
BRANCH 43 44
ATOM     44  CD  GLU B   3     -15.622  -8.865  15.426  1.00 19.64 LIG 0.17  C 
ATOM     45 OE1  GLU B   3     -15.647  -8.905  16.675  1.00 22.12 LIG-0.65  OA
ATOM     46 OE2  GLU B   3     -16.392  -8.156  14.756  1.00 20.68 LIG-0.65  OA
ENDBRANCH 43 44
ENDBRANCH 42 43
ENDBRANCH 41 42
BRANCH 41 47
ATOM     47  N   GLU B   3     -12.063 -10.582  13.217  1.00 14.76 LIG-0.35  N 
ATOM     48 H    GLU B   3     -12.740 -10.878  12.777  1.00 14.76 LIG 0.16  HD
ATOM     49  C   GLY B   2     -10.985 -10.090  12.630  1.00 15.24 LIG 0.24  C 
ATOM     50 O    GLY B   2     -10.025  -9.655  13.253  1.00 16.96 LIG-0.27  OA
BRANCH 49 51
ATOM     51  CA  GLY B   2     -10.999 -10.075  11.101  1.00 16.40 LIG 0.23  C 
BRANCH 51 52
ATOM     52  N   GLY B   2      -9.689  -9.773  10.484  1.00 16.09 LIG-0.35  N 
ATOM     53 H    GLY B   2      -9.646  -8.998  10.114  1.00 16.09 LIG 0.16  HD
ATOM     54  C   GLY B   1      -8.679 -10.629  10.507  1.00 19.38 LIG 0.23  C 
ATOM     55 O    GLY B   1      -8.884 -11.755  11.055  1.00 21.51 LIG-0.27  OA
BRANCH 54 56
ATOM     56  CA  GLY B   1      -7.425 -10.659   9.833  1.00 21.19 LIG 0.23  C 
BRANCH 56 57
ATOM     57  N   GLY B   1      -7.788  -9.478   9.100  1.00 20.21 LIG-0.35  N 
ATOM     58  C   ACE B   0      -8.286  -9.530   7.854  1.00 20.42 LIG 0.21  C 
ATOM     59 O    ACE B   0      -8.785 -10.533   7.438  1.00 26.00 LIG-0.27  OA
ATOM     60  CH3 ACE B   0      -8.282  -8.311   6.971  1.00 26.85 LIG 0.12  C 
ATOM     61 H    GLY B   1      -7.657  -8.745   9.530  1.00 20.21 LIG 0.16  HD
ENDBRANCH 56 57
ENDBRANCH 54 56
ENDBRANCH 51 52
ENDBRANCH 49 51
ENDBRANCH 41 47
ENDBRANCH 38 41
ENDBRANCH 35 37
ENDBRANCH 1 35
TORSDOF 21
ENDMDL
