MODEL 1
USER: ADFR SOLUTION from run 150
USER: SCORE 16.710871 LL:  -4.419 LR: -14.509 RR:   0.000 FEB:  -7.051
USER: RMSD 4.623854
USER: SEED 149
USER: STATUS 1 or 2 clusters left
USER: GENES 27
USER: genes 0 Translation |==|  0.48533 0.44362 0.40526
USER: genes 1 Rotation |==|  0.24662 0.73738 0.55223 0.85597
USER: genes 2 Torsion [C]-N--CA-[CB] |==|  0.87697
USER: genes 3 Torsion [N]-CA--C-[N] |==|  0.93650
USER: genes 4 Torsion [C]-N--CA-[C] |==|  0.62023
USER: genes 5 Torsion [N]-CA--CB-[OG] |==|  0.94353
USER: genes 6 Torsion [CA]-CB--OG-[HG] |==|  0.16830
USER: genes 7 Torsion [N]-CA--C-[N] |==|  0.60520
USER: genes 8 Torsion [C]-N--CA-[CB] |==|  0.83425
USER: genes 9 Torsion [N]-CA--C-[O] |==|  0.02817
USER: genes 10 Torsion [N]-CA--CB-[CG] |==|  0.38668
USER: genes 11 Torsion [CA]-CB--CG-[CD] |==|  0.48202
USER: genes 12 Torsion [CB]-CG--CD-[NE2] |==|  0.67182
USER: genes 13 Torsion [N]-CA--CB-[CG] |==|  0.49235
USER: genes 14 Torsion [CA]-CB--CG-[OD1] |==|  0.30999
USER: genes 15 Torsion [N]-C--CA-[N] |==|  0.93231
USER: genes 16 Torsion [C]-CA--N-[C] |==|  0.61120
USER: genes 17 Torsion [N]-C--CA-[N] |==|  0.24480
USER: genes 18 Torsion [C]-CA--CB-[OG] |==|  0.56199
USER: genes 19 Torsion [CA]-CB--OG-[HG] |==|  0.29361
USER: genes 20 Torsion [C]-CA--N-[C] |==|  0.74677
USER: genes 21 Torsion [N]-C--CA-[N] |==|  0.23393
USER: genes 22 Torsion [C]-CA--CB-[CG] |==|  0.28678
USER: genes 23 Torsion [CA]-CB--CG-[CD] |==|  0.76889
USER: genes 24 Torsion [CB]-CG--CD-[OE1] |==|  0.52383
USER: genes 25 Torsion [C]-CA--CB-[OG] |==|  0.89617
USER: genes 26 Torsion [CA]-CB--OG-[HG] |==|  0.71715
ROOT
ATOM      1  C   SER C 503      79.018  25.174 -16.320  1.00 42.27 LIG 0.24  C 
ATOM      2 O    SER C 503      79.310  25.052 -17.508  1.00 46.84 LIG-0.27  OA
ATOM      3  N   ASP C 504      79.301  24.261 -15.401  1.00 51.15 LIG-0.34  N 
ATOM      4 H    ASP C 504      79.185  24.387 -14.558  1.00 51.15 LIG 0.16  HD
ENDROOT
BRANCH 3 5
ATOM      5  CA  ASP C 504      79.841  22.944 -15.734  1.00 56.79 LIG 0.19  C 
BRANCH 5 6
ATOM      6  C   ASP C 504      81.343  23.047 -16.039  1.00 67.42 LIG 0.24  C 
ATOM      7  N   SER C 505      81.783  24.244 -16.417  1.00 81.52 LIG-0.34  N 
ATOM      8 H    SER C 505      81.277  24.933 -16.504  1.00 81.52 LIG 0.16  HD
ATOM      9 O    ASP C 504      82.083  22.067 -15.929  1.00 66.01 LIG-0.27  OA
BRANCH 7 10
ATOM     10  CA  SER C 505      83.190  24.491 -16.722  1.00 90.64 LIG 0.20  C 
BRANCH 10 11
ATOM     11  CB  SER C 505      83.420  24.501 -18.230  1.00 89.01 LIG 0.20  C 
BRANCH 11 12
ATOM     12 OG   SER C 505      82.367  23.828 -18.893  1.00 87.22 LIG-0.40  OA
ATOM     13 HG   SER C 505      81.641  24.217 -18.731  1.00 87.22 LIG 0.21  HD
ENDBRANCH 11 12
ENDBRANCH 10 11
BRANCH 10 14
ATOM     14  C   SER C 505      83.642  25.813 -16.109  1.00 98.93 LIG 0.24  C 
ATOM     15  N   GLN C 506      84.485  26.542 -16.834  1.00110.12 LIG-0.35  N 
ATOM     16 H    GLN C 506      84.664  26.388 -17.661  1.00110.12 LIG 0.16  HD
ATOM     17 O    SER C 505      83.223  26.170 -15.006  1.00 94.47 LIG-0.27  OA
BRANCH 15 18
ATOM     18  CA  GLN C 506      85.188  27.686 -16.266  1.00115.19 LIG 0.16  C 
BRANCH 18 19
ATOM     19  C   GLN C 506      86.136  27.280 -15.139  1.00118.66 LIG 0.22  C 
ATOM     20 O    GLN C 506      86.388  26.094 -14.919  1.00117.46 LIG-0.29  OA
ENDBRANCH 18 19
BRANCH 18 21
ATOM     21  CB  GLN C 506      84.170  28.717 -15.767  1.00118.15 LIG 0.04  C 
BRANCH 21 22
ATOM     22  CG  GLN C 506      84.552  29.358 -14.424  1.00119.48 LIG 0.10  C 
BRANCH 22 23
ATOM     23  CD  GLN C 506      83.625  30.497 -13.998  1.00116.76 LIG 0.21  C 
ATOM     24  NE2 GLN C 506      84.179  31.697 -13.868  1.00111.94 LIG-0.37  N 
ATOM     25 21HE GLN C 506      85.019  31.802 -14.019  1.00111.94 LIG 0.16  HD
ATOM     26 22HE GLN C 506      83.697  32.370 -13.633  1.00111.94 LIG 0.16  HD
ATOM     27 OE1  GLN C 506      82.427  30.296 -13.794  1.00116.06 LIG-0.27  OA
ENDBRANCH 22 23
ENDBRANCH 21 22
ENDBRANCH 18 21
ENDBRANCH 15 18
ENDBRANCH 10 14
ENDBRANCH 7 10
ENDBRANCH 5 6
BRANCH 5 28
ATOM     28  CB  ASP C 504      79.078  22.355 -16.933  1.00 57.84 LIG 0.15  C 
BRANCH 28 29
ATOM     29  CG  ASP C 504      79.621  21.006 -17.392  1.00 60.92 LIG 0.17  C 
ATOM     30 OD2  ASP C 504      80.759  20.975 -17.919  1.00 60.43 LIG-0.65  OA
ATOM     31 OD1  ASP C 504      78.923  19.983 -17.227  1.00 59.69 LIG-0.65  OA
ENDBRANCH 28 29
ENDBRANCH 5 28
ENDBRANCH 3 5
BRANCH 1 32
ATOM     32  CA  SER C 503      78.312  26.421 -15.822  1.00 44.19 LIG 0.20  C 
BRANCH 32 33
ATOM     33  N   SER C 503      77.584  26.145 -14.581  1.00 47.77 LIG-0.34  N 
ATOM     34 H    SER C 503      78.000  25.632 -14.029  1.00 47.77 LIG 0.16  HD
ATOM     35  C   SER C 502      76.377  26.662 -14.357  1.00 50.79 LIG 0.24  C 
ATOM     36 O    SER C 502      75.925  27.603 -14.994  1.00 48.58 LIG-0.27  OA
BRANCH 35 37
ATOM     37  CA  SER C 502      75.554  26.015 -13.257  1.00 60.54 LIG 0.20  C 
BRANCH 37 38
ATOM     38  CB  SER C 502      74.071  26.095 -13.578  1.00 53.64 LIG 0.20  C 
BRANCH 38 39
ATOM     39 OG   SER C 502      73.285  25.983 -12.414  1.00 59.09 LIG-0.40  OA
ATOM     40 HG   SER C 502      72.973  26.736 -12.213  1.00 59.09 LIG 0.21  HD
ENDBRANCH 38 39
ENDBRANCH 37 38
BRANCH 37 41
ATOM     41  N   SER C 502      75.886  26.666 -11.996  1.00 72.56 LIG-0.34  N 
ATOM     42 H    SER C 502      75.412  27.358 -11.806  1.00 72.56 LIG 0.16  HD
ATOM     43  C   GLU C 501      76.860  26.183 -11.231  1.00101.90 LIG 0.26  C 
ATOM     44 O    GLU C 501      77.265  25.025 -11.335  1.00103.22 LIG-0.27  OA
BRANCH 43 45
ATOM     45  CA  GLU C 501      77.458  27.125 -10.177  1.00101.55 LIG 0.40  C 
ATOM     46  N   GLU C 501      76.646  27.108  -8.964  1.00100.94 LIG 0.61  N 
BRANCH 45 47
ATOM     47  CB  GLU C 501      78.901  26.726  -9.853  1.00104.94 LIG 0.06  C 
BRANCH 47 48
ATOM     48  CG  GLU C 501      79.950  27.617 -10.493  1.00111.45 LIG 0.12  C 
BRANCH 48 49
ATOM     49  CD  GLU C 501      80.254  27.221 -11.924  1.00115.68 LIG 0.17  C 
ATOM     50 OE1  GLU C 501      81.213  27.771 -12.508  1.00117.56 LIG-0.65  OA
ATOM     51 OE2  GLU C 501      79.529  26.358 -12.463  1.00122.11 LIG-0.65  OA
ENDBRANCH 48 49
ENDBRANCH 47 48
ENDBRANCH 45 47
ENDBRANCH 43 45
ENDBRANCH 37 41
ENDBRANCH 35 37
ENDBRANCH 32 33
BRANCH 32 52
ATOM     52  CB  SER C 503      79.333  27.533 -15.621  1.00 49.05 LIG 0.20  C 
BRANCH 52 53
ATOM     53 OG   SER C 503      80.545  27.005 -15.114  1.00 54.59 LIG-0.40  OA
ATOM     54 HG   SER C 503      80.593  27.155 -14.288  1.00 54.59 LIG 0.21  HD
ENDBRANCH 52 53
ENDBRANCH 32 52
ENDBRANCH 1 32
TORSDOF 25
ENDMDL
MODEL 2
USER: ADFR SOLUTION from run 165
USER: SCORE 16.775012 LL:  -4.546 LR: -14.450 RR:   0.000 FEB:  -6.992
USER: RMSD 5.825883
USER: SEED 164
USER: STATUS 1 or 2 clusters left
USER: GENES 27
USER: genes 0 Translation |==|  0.63506 0.49834 0.49877
USER: genes 1 Rotation |==|  0.65705 0.18934 0.48714 0.85870
USER: genes 2 Torsion [C]-N--CA-[CB] |==|  0.34792
USER: genes 3 Torsion [N]-CA--C-[N] |==|  0.96455
USER: genes 4 Torsion [C]-N--CA-[C] |==|  0.74778
USER: genes 5 Torsion [N]-CA--CB-[OG] |==|  0.91667
USER: genes 6 Torsion [CA]-CB--OG-[HG] |==|  0.95614
USER: genes 7 Torsion [N]-CA--C-[N] |==|  0.22054
USER: genes 8 Torsion [C]-N--CA-[CB] |==|  0.12770
USER: genes 9 Torsion [N]-CA--C-[O] |==|  0.71774
USER: genes 10 Torsion [N]-CA--CB-[CG] |==|  0.65112
USER: genes 11 Torsion [CA]-CB--CG-[CD] |==|  0.48197
USER: genes 12 Torsion [CB]-CG--CD-[NE2] |==|  0.37135
USER: genes 13 Torsion [N]-CA--CB-[CG] |==|  0.08167
USER: genes 14 Torsion [CA]-CB--CG-[OD1] |==|  0.16051
USER: genes 15 Torsion [N]-C--CA-[N] |==|  0.36745
USER: genes 16 Torsion [C]-CA--N-[C] |==|  0.86542
USER: genes 17 Torsion [N]-C--CA-[N] |==|  0.92987
USER: genes 18 Torsion [C]-CA--CB-[OG] |==|  0.53622
USER: genes 19 Torsion [CA]-CB--OG-[HG] |==|  0.57904
USER: genes 20 Torsion [C]-CA--N-[C] |==|  0.65753
USER: genes 21 Torsion [N]-C--CA-[N] |==|  0.35467
USER: genes 22 Torsion [C]-CA--CB-[CG] |==|  0.18218
USER: genes 23 Torsion [CA]-CB--CG-[CD] |==|  0.15500
USER: genes 24 Torsion [CB]-CG--CD-[OE1] |==|  0.95975
USER: genes 25 Torsion [C]-CA--CB-[OG] |==|  0.63899
USER: genes 26 Torsion [CA]-CB--OG-[HG] |==|  0.35628
ROOT
ATOM      1  C   SER C 503      81.601  26.323 -14.567  1.00 42.27 LIG 0.24  C 
ATOM      2 O    SER C 503      81.657  26.232 -13.343  1.00 46.84 LIG-0.27  OA
ATOM      3  N   ASP C 504      82.459  25.727 -15.384  1.00 51.15 LIG-0.34  N 
ATOM      4 H    ASP C 504      82.365  25.710 -16.238  1.00 51.15 LIG 0.16  HD
ENDROOT
BRANCH 3 5
ATOM      5  CA  ASP C 504      83.658  25.039 -14.907  1.00 56.79 LIG 0.19  C 
BRANCH 5 6
ATOM      6  C   ASP C 504      84.918  25.797 -15.350  1.00 67.42 LIG 0.24  C 
ATOM      7  N   SER C 505      84.740  26.741 -16.270  1.00 81.52 LIG-0.34  N 
ATOM      8 H    SER C 505      83.978  26.929 -16.621  1.00 81.52 LIG 0.16  HD
ATOM      9 O    ASP C 504      86.020  25.535 -14.865  1.00 66.01 LIG-0.27  OA
BRANCH 7 10
ATOM     10  CA  SER C 505      85.847  27.552 -16.772  1.00 90.64 LIG 0.20  C 
BRANCH 10 11
ATOM     11  CB  SER C 505      85.631  27.910 -18.238  1.00 89.01 LIG 0.20  C 
BRANCH 11 12
ATOM     12 OG   SER C 505      84.892  26.895 -18.889  1.00 87.22 LIG-0.40  OA
ATOM     13 HG   SER C 505      84.896  26.200 -18.418  1.00 87.22 LIG 0.21  HD
ENDBRANCH 11 12
ENDBRANCH 10 11
BRANCH 10 14
ATOM     14  C   SER C 505      85.998  28.819 -15.933  1.00 98.93 LIG 0.24  C 
ATOM     15  N   GLN C 506      86.625  28.682 -14.768  1.00110.12 LIG-0.35  N 
ATOM     16 H    GLN C 506      87.065  27.980 -14.538  1.00110.12 LIG 0.16  HD
ATOM     17 O    SER C 505      85.567  29.899 -16.341  1.00 94.47 LIG-0.27  OA
BRANCH 15 18
ATOM     18  CA  GLN C 506      86.611  29.741 -13.766  1.00115.19 LIG 0.16  C 
BRANCH 18 19
ATOM     19  C   GLN C 506      87.160  29.269 -12.420  1.00118.66 LIG 0.22  C 
ATOM     20 O    GLN C 506      86.400  28.983 -11.492  1.00117.46 LIG-0.29  OA
ENDBRANCH 18 19
BRANCH 18 21
ATOM     21  CB  GLN C 506      85.185  30.277 -13.606  1.00118.15 LIG 0.04  C 
BRANCH 21 22
ATOM     22  CG  GLN C 506      85.075  31.798 -13.792  1.00119.48 LIG 0.10  C 
BRANCH 22 23
ATOM     23  CD  GLN C 506      83.637  32.318 -13.789  1.00116.76 LIG 0.21  C 
ATOM     24  NE2 GLN C 506      83.395  33.393 -13.045  1.00111.94 LIG-0.37  N 
ATOM     25 21HE GLN C 506      84.031  33.757 -12.595  1.00111.94 LIG 0.16  HD
ATOM     26 22HE GLN C 506      82.602  33.724 -13.014  1.00111.94 LIG 0.16  HD
ATOM     27 OE1  GLN C 506      82.761  31.762 -14.451  1.00116.06 LIG-0.27  OA
ENDBRANCH 22 23
ENDBRANCH 21 22
ENDBRANCH 18 21
ENDBRANCH 15 18
ENDBRANCH 10 14
ENDBRANCH 7 10
ENDBRANCH 5 6
BRANCH 5 28
ATOM     28  CB  ASP C 504      83.674  23.594 -15.436  1.00 57.84 LIG 0.15  C 
BRANCH 28 29
ATOM     29  CG  ASP C 504      82.964  23.433 -16.775  1.00 60.92 LIG 0.17  C 
ATOM     30 OD2  ASP C 504      82.008  22.624 -16.845  1.00 60.43 LIG-0.65  OA
ATOM     31 OD1  ASP C 504      83.352  24.108 -17.753  1.00 59.69 LIG-0.65  OA
ENDBRANCH 28 29
ENDBRANCH 5 28
ENDBRANCH 3 5
BRANCH 1 32
ATOM     32  CA  SER C 503      80.502  27.131 -15.233  1.00 44.19 LIG 0.20  C 
BRANCH 32 33
ATOM     33  N   SER C 503      79.196  26.806 -14.655  1.00 47.77 LIG-0.34  N 
ATOM     34 H    SER C 503      78.721  27.489 -14.437  1.00 47.77 LIG 0.16  HD
ATOM     35  C   SER C 502      78.806  25.542 -14.493  1.00 50.79 LIG 0.24  C 
ATOM     36 O    SER C 502      79.342  24.600 -15.058  1.00 48.58 LIG-0.27  OA
BRANCH 35 37
ATOM     37  CA  SER C 502      77.645  25.305 -13.544  1.00 60.54 LIG 0.20  C 
BRANCH 37 38
ATOM     38  CB  SER C 502      76.343  25.158 -14.312  1.00 53.64 LIG 0.20  C 
BRANCH 38 39
ATOM     39 OG   SER C 502      75.227  25.233 -13.456  1.00 59.09 LIG-0.40  OA
ATOM     40 HG   SER C 502      74.594  24.788 -13.781  1.00 59.09 LIG 0.21  HD
ENDBRANCH 38 39
ENDBRANCH 37 38
BRANCH 37 41
ATOM     41  N   SER C 502      77.605  26.405 -12.587  1.00 72.56 LIG-0.34  N 
ATOM     42 H    SER C 502      77.542  27.188 -12.935  1.00 72.56 LIG 0.16  HD
ATOM     43  C   GLU C 501      77.666  26.158 -11.282  1.00101.90 LIG 0.26  C 
ATOM     44 O    GLU C 501      77.396  25.054 -10.808  1.00103.22 LIG-0.27  OA
BRANCH 43 45
ATOM     45  CA  GLU C 501      78.065  27.322 -10.366  1.00101.55 LIG 0.40  C 
ATOM     46  N   GLU C 501      77.085  27.483  -9.296  1.00100.94 LIG 0.61  N 
BRANCH 45 47
ATOM     47  CB  GLU C 501      79.459  27.090  -9.775  1.00104.94 LIG 0.06  C 
BRANCH 47 48
ATOM     48  CG  GLU C 501      80.578  27.098 -10.802  1.00111.45 LIG 0.12  C 
BRANCH 48 49
ATOM     49  CD  GLU C 501      80.608  28.373 -11.619  1.00115.68 LIG 0.17  C 
ATOM     50 OE1  GLU C 501      79.612  29.130 -11.586  1.00117.56 LIG-0.65  OA
ATOM     51 OE2  GLU C 501      81.630  28.617 -12.294  1.00122.11 LIG-0.65  OA
ENDBRANCH 48 49
ENDBRANCH 47 48
ENDBRANCH 45 47
ENDBRANCH 43 45
ENDBRANCH 37 41
ENDBRANCH 35 37
ENDBRANCH 32 33
BRANCH 32 52
ATOM     52  CB  SER C 503      80.809  28.615 -15.090  1.00 49.05 LIG 0.20  C 
BRANCH 52 53
ATOM     53 OG   SER C 503      79.679  29.308 -14.591  1.00 54.59 LIG-0.40  OA
ATOM     54 HG   SER C 503      79.905  29.769 -13.926  1.00 54.59 LIG 0.21  HD
ENDBRANCH 52 53
ENDBRANCH 32 52
ENDBRANCH 1 32
TORSDOF 25
ENDMDL
MODEL 3
USER: ADFR SOLUTION from run 137
USER: SCORE 16.254180 LL:  -3.082 LR: -14.377 RR:   0.000 FEB:  -6.920
USER: RMSD 3.234609
USER: SEED 136
USER: STATUS searching
USER: GENES 27
USER: genes 0 Translation |==|  0.43229 0.41084 0.50992
USER: genes 1 Rotation |==|  0.50279 0.48191 0.47450 0.99901
USER: genes 2 Torsion [C]-N--CA-[CB] |==|  0.57286
USER: genes 3 Torsion [N]-CA--C-[N] |==|  0.85871
USER: genes 4 Torsion [C]-N--CA-[C] |==|  0.85510
USER: genes 5 Torsion [N]-CA--CB-[OG] |==|  0.98995
USER: genes 6 Torsion [CA]-CB--OG-[HG] |==|  0.58501
USER: genes 7 Torsion [N]-CA--C-[N] |==|  0.35556
USER: genes 8 Torsion [C]-N--CA-[CB] |==|  0.84564
USER: genes 9 Torsion [N]-CA--C-[O] |==|  0.32839
USER: genes 10 Torsion [N]-CA--CB-[CG] |==|  0.62020
USER: genes 11 Torsion [CA]-CB--CG-[CD] |==|  0.97855
USER: genes 12 Torsion [CB]-CG--CD-[NE2] |==|  0.31873
USER: genes 13 Torsion [N]-CA--CB-[CG] |==|  0.54047
USER: genes 14 Torsion [CA]-CB--CG-[OD1] |==|  0.89369
USER: genes 15 Torsion [N]-C--CA-[N] |==|  0.46051
USER: genes 16 Torsion [C]-CA--N-[C] |==|  0.78223
USER: genes 17 Torsion [N]-C--CA-[N] |==|  0.17409
USER: genes 18 Torsion [C]-CA--CB-[OG] |==|  0.73765
USER: genes 19 Torsion [CA]-CB--OG-[HG] |==|  0.82369
USER: genes 20 Torsion [C]-CA--N-[C] |==|  0.76101
USER: genes 21 Torsion [N]-C--CA-[N] |==|  0.92806
USER: genes 22 Torsion [C]-CA--CB-[CG] |==|  0.29646
USER: genes 23 Torsion [CA]-CB--CG-[CD] |==|  0.85691
USER: genes 24 Torsion [CB]-CG--CD-[OE1] |==|  0.74834
USER: genes 25 Torsion [C]-CA--CB-[OG] |==|  0.36159
USER: genes 26 Torsion [CA]-CB--OG-[HG] |==|  0.86599
ROOT
ATOM      1  C   SER C 503      78.103  24.486 -14.358  1.00 42.27 LIG 0.24  C 
ATOM      2 O    SER C 503      79.266  24.866 -14.246  1.00 46.84 LIG-0.27  OA
ATOM      3  N   ASP C 504      77.760  23.348 -14.948  1.00 51.15 LIG-0.34  N 
ATOM      4 H    ASP C 504      76.960  23.034 -14.942  1.00 51.15 LIG 0.16  HD
ENDROOT
BRANCH 3 5
ATOM      5  CA  ASP C 504      78.717  22.512 -15.672  1.00 56.79 LIG 0.19  C 
BRANCH 5 6
ATOM      6  C   ASP C 504      79.809  23.384 -16.308  1.00 67.42 LIG 0.24  C 
ATOM      7  N   SER C 505      79.387  24.413 -17.036  1.00 81.52 LIG-0.34  N 
ATOM      8 H    SER C 505      78.558  24.597 -17.169  1.00 81.52 LIG 0.16  HD
ATOM      9 O    ASP C 504      81.004  23.132 -16.137  1.00 66.01 LIG-0.27  OA
BRANCH 7 10
ATOM     10  CA  SER C 505      80.315  25.337 -17.685  1.00 90.64 LIG 0.20  C 
BRANCH 10 11
ATOM     11  CB  SER C 505      79.560  26.489 -18.337  1.00 89.01 LIG 0.20  C 
BRANCH 11 12
ATOM     12 OG   SER C 505      78.164  26.301 -18.204  1.00 87.22 LIG-0.40  OA
ATOM     13 HG   SER C 505      77.771  26.646 -18.861  1.00 87.22 LIG 0.21  HD
ENDBRANCH 11 12
ENDBRANCH 10 11
BRANCH 10 14
ATOM     14  C   SER C 505      81.326  25.870 -16.675  1.00 98.93 LIG 0.24  C 
ATOM     15  N   GLN C 506      82.609  25.758 -17.010  1.00110.12 LIG-0.35  N 
ATOM     16 H    GLN C 506      82.883  25.550 -17.798  1.00110.12 LIG 0.16  HD
ATOM     17 O    SER C 505      80.951  26.383 -15.619  1.00 94.47 LIG-0.27  OA
BRANCH 15 18
ATOM     18  CA  GLN C 506      83.674  25.987 -16.041  1.00115.19 LIG 0.16  C 
BRANCH 18 19
ATOM     19  C   GLN C 506      83.703  24.917 -14.951  1.00118.66 LIG 0.22  C 
ATOM     20 O    GLN C 506      84.687  24.190 -14.804  1.00117.46 LIG-0.29  OA
ENDBRANCH 18 19
BRANCH 18 21
ATOM     21  CB  GLN C 506      83.513  27.380 -15.422  1.00118.15 LIG 0.04  C 
BRANCH 21 22
ATOM     22  CG  GLN C 506      84.835  28.153 -15.294  1.00119.48 LIG 0.10  C 
BRANCH 22 23
ATOM     23  CD  GLN C 506      86.072  27.320 -15.632  1.00116.76 LIG 0.21  C 
ATOM     24  NE2 GLN C 506      86.765  27.693 -16.703  1.00111.94 LIG-0.37  N 
ATOM     25 21HE GLN C 506      86.509  28.371 -17.167  1.00111.94 LIG 0.16  HD
ATOM     26 22HE GLN C 506      87.470  27.258 -16.932  1.00111.94 LIG 0.16  HD
ATOM     27 OE1  GLN C 506      86.398  26.359 -14.936  1.00116.06 LIG-0.27  OA
ENDBRANCH 22 23
ENDBRANCH 21 22
ENDBRANCH 18 21
ENDBRANCH 15 18
ENDBRANCH 10 14
ENDBRANCH 7 10
ENDBRANCH 5 6
BRANCH 5 28
ATOM     28  CB  ASP C 504      77.983  21.686 -16.742  1.00 57.84 LIG 0.15  C 
BRANCH 28 29
ATOM     29  CG  ASP C 504      78.820  20.542 -17.302  1.00 60.92 LIG 0.17  C 
ATOM     30 OD2  ASP C 504      78.245  19.456 -17.555  1.00 60.43 LIG-0.65  OA
ATOM     31 OD1  ASP C 504      80.043  20.721 -17.492  1.00 59.69 LIG-0.65  OA
ENDBRANCH 28 29
ENDBRANCH 5 28
ENDBRANCH 3 5
BRANCH 1 32
ATOM     32  CA  SER C 503      76.961  25.311 -13.795  1.00 44.19 LIG 0.20  C 
BRANCH 32 33
ATOM     33  N   SER C 503      77.467  26.347 -12.891  1.00 47.77 LIG-0.34  N 
ATOM     34 H    SER C 503      77.503  27.135 -13.235  1.00 47.77 LIG 0.16  HD
ATOM     35  C   SER C 502      77.832  26.059 -11.643  1.00 50.79 LIG 0.24  C 
ATOM     36 O    SER C 502      77.512  25.024 -11.076  1.00 48.58 LIG-0.27  OA
BRANCH 35 37
ATOM     37  CA  SER C 502      78.697  27.085 -10.933  1.00 60.54 LIG 0.20  C 
BRANCH 37 38
ATOM     38  CB  SER C 502      79.163  26.557  -9.587  1.00 53.64 LIG 0.20  C 
BRANCH 38 39
ATOM     39 OG   SER C 502      78.307  26.969  -8.547  1.00 59.09 LIG-0.40  OA
ATOM     40 HG   SER C 502      78.328  27.806  -8.481  1.00 59.09 LIG 0.21  HD
ENDBRANCH 38 39
ENDBRANCH 37 38
BRANCH 37 41
ATOM     41  N   SER C 502      77.932  28.320 -10.811  1.00 72.56 LIG-0.34  N 
ATOM     42 H    SER C 502      77.504  28.413 -10.071  1.00 72.56 LIG 0.16  HD
ATOM     43  C   GLU C 501      77.930  29.206 -11.803  1.00101.90 LIG 0.26  C 
ATOM     44 O    GLU C 501      78.806  29.226 -12.668  1.00103.22 LIG-0.27  OA
BRANCH 43 45
ATOM     45  CA  GLU C 501      76.794  30.237 -11.821  1.00101.55 LIG 0.40  C 
ATOM     46  N   GLU C 501      75.620  29.710 -11.133  1.00100.94 LIG 0.61  N 
BRANCH 45 47
ATOM     47  CB  GLU C 501      77.244  31.548 -11.170  1.00104.94 LIG 0.06  C 
BRANCH 47 48
ATOM     48  CG  GLU C 501      77.487  32.679 -12.154  1.00111.45 LIG 0.12  C 
BRANCH 48 49
ATOM     49  CD  GLU C 501      78.408  32.275 -13.288  1.00115.68 LIG 0.17  C 
ATOM     50 OE1  GLU C 501      79.639  32.451 -13.152  1.00117.56 LIG-0.65  OA
ATOM     51 OE2  GLU C 501      77.896  31.780 -14.314  1.00122.11 LIG-0.65  OA
ENDBRANCH 48 49
ENDBRANCH 47 48
ENDBRANCH 45 47
ENDBRANCH 43 45
ENDBRANCH 37 41
ENDBRANCH 35 37
ENDBRANCH 32 33
BRANCH 32 52
ATOM     52  CB  SER C 503      76.168  25.924 -14.941  1.00 49.05 LIG 0.20  C 
BRANCH 52 53
ATOM     53 OG   SER C 503      74.784  25.679 -14.771  1.00 54.59 LIG-0.40  OA
ATOM     54 HG   SER C 503      74.662  24.867 -14.595  1.00 54.59 LIG 0.21  HD
ENDBRANCH 52 53
ENDBRANCH 32 52
ENDBRANCH 1 32
TORSDOF 25
ENDMDL
MODEL 4
USER: ADFR SOLUTION from run 99
USER: SCORE 16.592874 LL:  -3.491 LR: -14.362 RR:   0.000 FEB:  -6.904
USER: RMSD 4.550506
USER: SEED 98
USER: STATUS searching
USER: GENES 27
USER: genes 0 Translation |==|  0.40623 0.40348 0.50473
USER: genes 1 Rotation |==|  0.85492 0.24975 0.27513 0.60412
USER: genes 2 Torsion [C]-N--CA-[CB] |==|  0.15880
USER: genes 3 Torsion [N]-CA--C-[N] |==|  0.64127
USER: genes 4 Torsion [C]-N--CA-[C] |==|  0.11888
USER: genes 5 Torsion [N]-CA--CB-[OG] |==|  0.97196
USER: genes 6 Torsion [CA]-CB--OG-[HG] |==|  0.17153
USER: genes 7 Torsion [N]-CA--C-[N] |==|  0.12532
USER: genes 8 Torsion [C]-N--CA-[CB] |==|  0.51002
USER: genes 9 Torsion [N]-CA--C-[O] |==|  0.48029
USER: genes 10 Torsion [N]-CA--CB-[CG] |==|  0.94068
USER: genes 11 Torsion [CA]-CB--CG-[CD] |==|  0.47344
USER: genes 12 Torsion [CB]-CG--CD-[NE2] |==|  0.48817
USER: genes 13 Torsion [N]-CA--CB-[CG] |==|  0.55222
USER: genes 14 Torsion [CA]-CB--CG-[OD1] |==|  0.81847
USER: genes 15 Torsion [N]-C--CA-[N] |==|  0.89322
USER: genes 16 Torsion [C]-CA--N-[C] |==|  0.76755
USER: genes 17 Torsion [N]-C--CA-[N] |==|  0.19776
USER: genes 18 Torsion [C]-CA--CB-[OG] |==|  0.74358
USER: genes 19 Torsion [CA]-CB--OG-[HG] |==|  0.19453
USER: genes 20 Torsion [C]-CA--N-[C] |==|  0.76499
USER: genes 21 Torsion [N]-C--CA-[N] |==|  0.96640
USER: genes 22 Torsion [C]-CA--CB-[CG] |==|  0.45018
USER: genes 23 Torsion [CA]-CB--CG-[CD] |==|  0.16550
USER: genes 24 Torsion [CB]-CG--CD-[OE1] |==|  0.75989
USER: genes 25 Torsion [C]-CA--CB-[OG] |==|  0.36358
USER: genes 26 Torsion [CA]-CB--OG-[HG] |==|  0.86216
ROOT
ATOM      1  C   SER C 503      77.653  24.331 -14.455  1.00 42.27 LIG 0.24  C 
ATOM      2 O    SER C 503      77.479  23.121 -14.579  1.00 46.84 LIG-0.27  OA
ATOM      3  N   ASP C 504      78.713  24.969 -14.935  1.00 51.15 LIG-0.34  N 
ATOM      4 H    ASP C 504      78.790  25.825 -14.934  1.00 51.15 LIG 0.16  HD
ENDROOT
BRANCH 3 5
ATOM      5  CA  ASP C 504      79.861  24.272 -15.514  1.00 56.79 LIG 0.19  C 
BRANCH 5 6
ATOM      6  C   ASP C 504      80.914  25.285 -15.986  1.00 67.42 LIG 0.24  C 
ATOM      7  N   SER C 505      81.353  25.135 -17.232  1.00 81.52 LIG-0.34  N 
ATOM      8 H    SER C 505      81.088  24.510 -17.760  1.00 81.52 LIG 0.16  HD
ATOM      9 O    ASP C 504      81.312  26.181 -15.240  1.00 66.01 LIG-0.27  OA
BRANCH 7 10
ATOM     10  CA  SER C 505      82.342  26.036 -17.819  1.00 90.64 LIG 0.20  C 
BRANCH 10 11
ATOM     11  CB  SER C 505      81.683  27.332 -18.280  1.00 89.01 LIG 0.20  C 
BRANCH 11 12
ATOM     12 OG   SER C 505      80.274  27.213 -18.225  1.00 87.22 LIG-0.40  OA
ATOM     13 HG   SER C 505      80.035  27.075 -17.433  1.00 87.22 LIG 0.21  HD
ENDBRANCH 11 12
ENDBRANCH 10 11
BRANCH 10 14
ATOM     14  C   SER C 505      83.451  26.334 -16.815  1.00 98.93 LIG 0.24  C 
ATOM     15  N   GLN C 506      83.936  25.291 -16.146  1.00110.12 LIG-0.35  N 
ATOM     16 H    GLN C 506      83.772  24.471 -16.349  1.00110.12 LIG 0.16  HD
ATOM     17 O    SER C 505      83.868  27.483 -16.659  1.00 94.47 LIG-0.27  OA
BRANCH 15 18
ATOM     18  CA  GLN C 506      84.804  25.463 -14.988  1.00115.19 LIG 0.16  C 
BRANCH 18 19
ATOM     19  C   GLN C 506      86.005  26.358 -15.294  1.00118.66 LIG 0.22  C 
ATOM     20 O    GLN C 506      86.771  26.717 -14.398  1.00117.46 LIG-0.29  OA
ENDBRANCH 18 19
BRANCH 18 21
ATOM     21  CB  GLN C 506      85.271  24.092 -14.489  1.00118.15 LIG 0.04  C 
BRANCH 21 22
ATOM     22  CG  GLN C 506      84.364  22.934 -14.932  1.00119.48 LIG 0.10  C 
BRANCH 22 23
ATOM     23  CD  GLN C 506      84.941  21.549 -14.638  1.00116.76 LIG 0.21  C 
ATOM     24  NE2 GLN C 506      84.164  20.509 -14.919  1.00111.94 LIG-0.37  N 
ATOM     25 21HE GLN C 506      83.379  20.635 -15.247  1.00111.94 LIG 0.16  HD
ATOM     26 22HE GLN C 506      84.446  19.710 -14.773  1.00111.94 LIG 0.16  HD
ATOM     27 OE1  GLN C 506      86.072  21.421 -14.169  1.00116.06 LIG-0.27  OA
ENDBRANCH 22 23
ENDBRANCH 21 22
ENDBRANCH 18 21
ENDBRANCH 15 18
ENDBRANCH 10 14
ENDBRANCH 7 10
ENDBRANCH 5 6
BRANCH 5 28
ATOM     28  CB  ASP C 504      79.396  23.381 -16.680  1.00 57.84 LIG 0.15  C 
BRANCH 28 29
ATOM     29  CG  ASP C 504      80.400  22.294 -17.047  1.00 60.92 LIG 0.17  C 
ATOM     30 OD2  ASP C 504      80.067  21.097 -16.871  1.00 60.43 LIG-0.65  OA
ATOM     31 OD1  ASP C 504      81.512  22.626 -17.509  1.00 59.69 LIG-0.65  OA
ENDBRANCH 28 29
ENDBRANCH 5 28
ENDBRANCH 3 5
BRANCH 1 32
ATOM     32  CA  SER C 503      76.627  25.192 -13.742  1.00 44.19 LIG 0.20  C 
BRANCH 32 33
ATOM     33  N   SER C 503      77.285  26.232 -12.947  1.00 47.77 LIG-0.34  N 
ATOM     34 H    SER C 503      77.348  26.996 -13.338  1.00 47.77 LIG 0.16  HD
ATOM     35  C   SER C 502      77.739  25.981 -11.720  1.00 50.79 LIG 0.24  C 
ATOM     36 O    SER C 502      77.396  25.005 -11.067  1.00 48.58 LIG-0.27  OA
BRANCH 35 37
ATOM     37  CA  SER C 502      78.735  26.973 -11.147  1.00 60.54 LIG 0.20  C 
BRANCH 37 38
ATOM     38  CB  SER C 502      79.434  26.392  -9.930  1.00 53.64 LIG 0.20  C 
BRANCH 38 39
ATOM     39 OG   SER C 502      78.764  26.733  -8.738  1.00 59.09 LIG-0.40  OA
ATOM     40 HG   SER C 502      78.033  26.322  -8.701  1.00 59.09 LIG 0.21  HD
ENDBRANCH 38 39
ENDBRANCH 37 38
BRANCH 37 41
ATOM     41  N   SER C 502      78.025  28.210 -10.843  1.00 72.56 LIG-0.34  N 
ATOM     42 H    SER C 502      77.760  28.287 -10.029  1.00 72.56 LIG 0.16  HD
ATOM     43  C   GLU C 501      77.828  29.118 -11.793  1.00101.90 LIG 0.26  C 
ATOM     44 O    GLU C 501      78.508  29.154 -12.820  1.00103.22 LIG-0.27  OA
BRANCH 43 45
ATOM     45  CA  GLU C 501      76.724  30.157 -11.555  1.00101.55 LIG 0.40  C 
ATOM     46  N   GLU C 501      75.896  29.763 -10.419  1.00100.94 LIG 0.61  N 
BRANCH 45 47
ATOM     47  CB  GLU C 501      77.329  31.543 -11.313  1.00104.94 LIG 0.06  C 
BRANCH 47 48
ATOM     48  CG  GLU C 501      76.349  32.688 -11.493  1.00111.45 LIG 0.12  C 
BRANCH 48 49
ATOM     49  CD  GLU C 501      75.163  32.590 -10.555  1.00115.68 LIG 0.17  C 
ATOM     50 OE1  GLU C 501      74.174  31.910 -10.908  1.00117.56 LIG-0.65  OA
ATOM     51 OE2  GLU C 501      75.222  33.196  -9.464  1.00122.11 LIG-0.65  OA
ENDBRANCH 48 49
ENDBRANCH 47 48
ENDBRANCH 45 47
ENDBRANCH 43 45
ENDBRANCH 37 41
ENDBRANCH 35 37
ENDBRANCH 32 33
BRANCH 32 52
ATOM     52  CB  SER C 503      75.682  25.803 -14.767  1.00 49.05 LIG 0.20  C 
BRANCH 52 53
ATOM     53 OG   SER C 503      74.335  25.608 -14.375  1.00 54.59 LIG-0.40  OA
ATOM     54 HG   SER C 503      74.215  24.800 -14.177  1.00 54.59 LIG 0.21  HD
ENDBRANCH 52 53
ENDBRANCH 32 52
ENDBRANCH 1 32
TORSDOF 25
ENDMDL
MODEL 5
USER: ADFR SOLUTION from run 198
USER: SCORE 15.852449 LL:  -3.535 LR: -14.351 RR:   0.000 FEB:  -6.894
USER: RMSD 7.088119
USER: SEED 197
USER: STATUS no improvement in best in 15 clusters for 5 generations
USER: GENES 27
USER: genes 0 Translation |==|  0.70334 0.35123 0.41506
USER: genes 1 Rotation |==|  0.46439 0.59232 0.09122 0.77039
USER: genes 2 Torsion [C]-N--CA-[CB] |==|  0.15647
USER: genes 3 Torsion [N]-CA--C-[N] |==|  0.64439
USER: genes 4 Torsion [C]-N--CA-[C] |==|  0.63028
USER: genes 5 Torsion [N]-CA--CB-[OG] |==|  0.09498
USER: genes 6 Torsion [CA]-CB--OG-[HG] |==|  0.22611
USER: genes 7 Torsion [N]-CA--C-[N] |==|  0.49444
USER: genes 8 Torsion [C]-N--CA-[CB] |==|  0.20593
USER: genes 9 Torsion [N]-CA--C-[O] |==|  0.21191
USER: genes 10 Torsion [N]-CA--CB-[CG] |==|  0.74603
USER: genes 11 Torsion [CA]-CB--CG-[CD] |==|  0.61216
USER: genes 12 Torsion [CB]-CG--CD-[NE2] |==|  0.12583
USER: genes 13 Torsion [N]-CA--CB-[CG] |==|  0.66388
USER: genes 14 Torsion [CA]-CB--CG-[OD1] |==|  0.62413
USER: genes 15 Torsion [N]-C--CA-[N] |==|  0.90945
USER: genes 16 Torsion [C]-CA--N-[C] |==|  0.22909
USER: genes 17 Torsion [N]-C--CA-[N] |==|  0.17888
USER: genes 18 Torsion [C]-CA--CB-[OG] |==|  0.34050
USER: genes 19 Torsion [CA]-CB--OG-[HG] |==|  0.86979
USER: genes 20 Torsion [C]-CA--N-[C] |==|  0.74279
USER: genes 21 Torsion [N]-C--CA-[N] |==|  0.56203
USER: genes 22 Torsion [C]-CA--CB-[CG] |==|  0.67505
USER: genes 23 Torsion [CA]-CB--CG-[CD] |==|  0.20504
USER: genes 24 Torsion [CB]-CG--CD-[OE1] |==|  0.77118
USER: genes 25 Torsion [C]-CA--CB-[OG] |==|  0.46854
USER: genes 26 Torsion [CA]-CB--OG-[HG] |==|  0.28294
ROOT
ATOM      1  C   SER C 503      82.779  23.234 -16.137  1.00 42.27 LIG 0.24  C 
ATOM      2 O    SER C 503      82.759  22.033 -16.397  1.00 46.84 LIG-0.27  OA
ATOM      3  N   ASP C 504      81.703  24.009 -16.181  1.00 51.15 LIG-0.34  N 
ATOM      4 H    ASP C 504      81.695  24.824 -15.907  1.00 51.15 LIG 0.16  HD
ENDROOT
BRANCH 3 5
ATOM      5  CA  ASP C 504      80.417  23.548 -16.704  1.00 56.79 LIG 0.19  C 
BRANCH 5 6
ATOM      6  C   ASP C 504      79.368  24.664 -16.590  1.00 67.42 LIG 0.24  C 
ATOM      7  N   SER C 505      78.227  24.335 -15.992  1.00 81.52 LIG-0.34  N 
ATOM      8 H    SER C 505      78.056  23.550 -15.687  1.00 81.52 LIG 0.16  HD
ATOM      9 O    ASP C 504      79.592  25.794 -17.029  1.00 66.01 LIG-0.27  OA
BRANCH 7 10
ATOM     10  CA  SER C 505      77.147  25.300 -15.798  1.00 90.64 LIG 0.20  C 
BRANCH 10 11
ATOM     11  CB  SER C 505      76.016  25.048 -16.788  1.00 89.01 LIG 0.20  C 
BRANCH 11 12
ATOM     12 OG   SER C 505      75.885  23.662 -17.043  1.00 87.22 LIG-0.40  OA
ATOM     13 HG   SER C 505      75.443  23.304 -16.426  1.00 87.22 LIG 0.21  HD
ENDBRANCH 11 12
ENDBRANCH 10 11
BRANCH 10 14
ATOM     14  C   SER C 505      76.624  25.232 -14.366  1.00 98.93 LIG 0.24  C 
ATOM     15  N   GLN C 506      75.663  26.094 -14.049  1.00110.12 LIG-0.35  N 
ATOM     16 H    GLN C 506      75.230  26.566 -14.624  1.00110.12 LIG 0.16  HD
ATOM     17 O    SER C 505      77.075  24.406 -13.570  1.00 94.47 LIG-0.27  OA
BRANCH 15 18
ATOM     18  CA  GLN C 506      75.258  26.310 -12.665  1.00115.19 LIG 0.16  C 
BRANCH 18 19
ATOM     19  C   GLN C 506      73.895  26.995 -12.561  1.00118.66 LIG 0.22  C 
ATOM     20 O    GLN C 506      72.854  26.366 -12.760  1.00117.46 LIG-0.29  OA
ENDBRANCH 18 19
BRANCH 18 21
ATOM     21  CB  GLN C 506      76.328  27.133 -11.940  1.00118.15 LIG 0.04  C 
BRANCH 21 22
ATOM     22  CG  GLN C 506      77.395  26.275 -11.242  1.00119.48 LIG 0.10  C 
BRANCH 22 23
ATOM     23  CD  GLN C 506      77.811  26.804  -9.869  1.00116.76 LIG 0.21  C 
ATOM     24  NE2 GLN C 506      76.830  27.185  -9.057  1.00111.94 LIG-0.37  N 
ATOM     25 21HE GLN C 506      76.012  27.129  -9.316  1.00111.94 LIG 0.16  HD
ATOM     26 22HE GLN C 506      77.014  27.487  -8.273  1.00111.94 LIG 0.16  HD
ATOM     27 OE1  GLN C 506      78.997  26.864  -9.545  1.00116.06 LIG-0.27  OA
ENDBRANCH 22 23
ENDBRANCH 21 22
ENDBRANCH 18 21
ENDBRANCH 15 18
ENDBRANCH 10 14
ENDBRANCH 7 10
ENDBRANCH 5 6
BRANCH 5 28
ATOM     28  CB  ASP C 504      79.965  22.290 -15.942  1.00 57.84 LIG 0.15  C 
BRANCH 28 29
ATOM     29  CG  ASP C 504      79.762  21.078 -16.844  1.00 60.92 LIG 0.17  C 
ATOM     30 OD2  ASP C 504      80.634  20.833 -17.712  1.00 60.43 LIG-0.65  OA
ATOM     31 OD1  ASP C 504      78.742  20.372 -16.691  1.00 59.69 LIG-0.65  OA
ENDBRANCH 28 29
ENDBRANCH 5 28
ENDBRANCH 3 5
BRANCH 1 32
ATOM     32  CA  SER C 503      84.070  23.914 -15.720  1.00 44.19 LIG 0.20  C 
BRANCH 32 33
ATOM     33  N   SER C 503      84.092  25.307 -16.173  1.00 47.77 LIG-0.34  N 
ATOM     34 H    SER C 503      84.521  25.438 -16.907  1.00 47.77 LIG 0.16  HD
ATOM     35  C   SER C 502      83.485  26.269 -15.479  1.00 50.79 LIG 0.24  C 
ATOM     36 O    SER C 502      82.648  26.045 -14.617  1.00 48.58 LIG-0.27  OA
BRANCH 35 37
ATOM     37  CA  SER C 502      83.891  27.697 -15.799  1.00 60.54 LIG 0.20  C 
BRANCH 37 38
ATOM     38  CB  SER C 502      83.273  28.667 -14.806  1.00 53.64 LIG 0.20  C 
BRANCH 38 39
ATOM     39 OG   SER C 502      84.258  29.430 -14.149  1.00 59.09 LIG-0.40  OA
ATOM     40 HG   SER C 502      84.875  28.925 -13.885  1.00 59.09 LIG 0.21  HD
ENDBRANCH 38 39
ENDBRANCH 37 38
BRANCH 37 41
ATOM     41  N   SER C 502      83.502  27.985 -17.174  1.00 72.56 LIG-0.34  N 
ATOM     42 H    SER C 502      82.700  28.278 -17.272  1.00 72.56 LIG 0.16  HD
ATOM     43  C   GLU C 501      84.365  27.793 -18.167  1.00101.90 LIG 0.26  C 
ATOM     44 O    GLU C 501      85.580  27.727 -17.979  1.00103.22 LIG-0.27  OA
BRANCH 43 45
ATOM     45  CA  GLU C 501      83.790  27.678 -19.585  1.00101.55 LIG 0.40  C 
ATOM     46  N   GLU C 501      84.723  26.968 -20.454  1.00100.94 LIG 0.61  N 
BRANCH 45 47
ATOM     47  CB  GLU C 501      82.437  26.960 -19.563  1.00104.94 LIG 0.06  C 
BRANCH 47 48
ATOM     48  CG  GLU C 501      82.419  25.646 -20.323  1.00111.45 LIG 0.12  C 
BRANCH 48 49
ATOM     49  CD  GLU C 501      83.152  24.541 -19.590  1.00115.68 LIG 0.17  C 
ATOM     50 OE1  GLU C 501      84.397  24.474 -19.695  1.00117.56 LIG-0.65  OA
ATOM     51 OE2  GLU C 501      82.479  23.739 -18.908  1.00122.11 LIG-0.65  OA
ENDBRANCH 48 49
ENDBRANCH 47 48
ENDBRANCH 45 47
ENDBRANCH 43 45
ENDBRANCH 37 41
ENDBRANCH 35 37
ENDBRANCH 32 33
BRANCH 32 52
ATOM     52  CB  SER C 503      84.220  23.828 -14.208  1.00 49.05 LIG 0.20  C 
BRANCH 52 53
ATOM     53 OG   SER C 503      85.525  24.218 -13.817  1.00 54.59 LIG-0.40  OA
ATOM     54 HG   SER C 503      85.505  25.003 -13.518  1.00 54.59 LIG 0.21  HD
ENDBRANCH 52 53
ENDBRANCH 32 52
ENDBRANCH 1 32
TORSDOF 25
ENDMDL
MODEL 6
USER: ADFR SOLUTION from run 138
USER: SCORE 17.447026 LL:  -4.446 LR: -14.299 RR:   0.000 FEB:  -6.842
USER: RMSD 3.767526
USER: SEED 137
USER: STATUS 1 or 2 clusters left
USER: GENES 27
USER: genes 0 Translation |==|  0.42243 0.37708 0.47900
USER: genes 1 Rotation |==|  0.82602 0.20688 0.26256 0.53763
USER: genes 2 Torsion [C]-N--CA-[CB] |==|  0.16593
USER: genes 3 Torsion [N]-CA--C-[N] |==|  0.12301
USER: genes 4 Torsion [C]-N--CA-[C] |==|  0.17216
USER: genes 5 Torsion [N]-CA--CB-[OG] |==|  0.77727
USER: genes 6 Torsion [CA]-CB--OG-[HG] |==|  0.88956
USER: genes 7 Torsion [N]-CA--C-[N] |==|  0.57339
USER: genes 8 Torsion [C]-N--CA-[CB] |==|  0.36928
USER: genes 9 Torsion [N]-CA--C-[O] |==|  0.04312
USER: genes 10 Torsion [N]-CA--CB-[CG] |==|  0.85945
USER: genes 11 Torsion [CA]-CB--CG-[CD] |==|  0.27000
USER: genes 12 Torsion [CB]-CG--CD-[NE2] |==|  0.43416
USER: genes 13 Torsion [N]-CA--CB-[CG] |==|  0.61126
USER: genes 14 Torsion [CA]-CB--CG-[OD1] |==|  0.23041
USER: genes 15 Torsion [N]-C--CA-[N] |==|  0.92890
USER: genes 16 Torsion [C]-CA--N-[C] |==|  0.70047
USER: genes 17 Torsion [N]-C--CA-[N] |==|  0.07222
USER: genes 18 Torsion [C]-CA--CB-[OG] |==|  0.63358
USER: genes 19 Torsion [CA]-CB--OG-[HG] |==|  0.33368
USER: genes 20 Torsion [C]-CA--N-[C] |==|  0.71018
USER: genes 21 Torsion [N]-C--CA-[N] |==|  0.89370
USER: genes 22 Torsion [C]-CA--CB-[CG] |==|  0.65324
USER: genes 23 Torsion [CA]-CB--CG-[CD] |==|  0.22134
USER: genes 24 Torsion [CB]-CG--CD-[OE1] |==|  0.36626
USER: genes 25 Torsion [C]-CA--CB-[OG] |==|  0.35472
USER: genes 26 Torsion [CA]-CB--OG-[HG] |==|  0.87025
ROOT
ATOM      1  C   SER C 503      77.933  23.777 -14.938  1.00 42.27 LIG 0.24  C 
ATOM      2 O    SER C 503      77.415  22.699 -15.221  1.00 46.84 LIG-0.27  OA
ATOM      3  N   ASP C 504      79.177  24.098 -15.268  1.00 51.15 LIG-0.34  N 
ATOM      4 H    ASP C 504      79.507  24.885 -15.156  1.00 51.15 LIG 0.16  HD
ENDROOT
BRANCH 3 5
ATOM      5  CA  ASP C 504      80.112  23.141 -15.856  1.00 56.79 LIG 0.19  C 
BRANCH 5 6
ATOM      6  C   ASP C 504      81.482  23.802 -16.073  1.00 67.42 LIG 0.24  C 
ATOM      7  N   SER C 505      81.938  24.548 -15.072  1.00 81.52 LIG-0.34  N 
ATOM      8 H    SER C 505      81.508  24.678 -14.339  1.00 81.52 LIG 0.16  HD
ATOM      9 O    ASP C 504      82.109  23.633 -17.121  1.00 66.01 LIG-0.27  OA
BRANCH 7 10
ATOM     10  CA  SER C 505      83.233  25.221 -15.134  1.00 90.64 LIG 0.20  C 
BRANCH 10 11
ATOM     11  CB  SER C 505      84.359  24.207 -15.305  1.00 89.01 LIG 0.20  C 
BRANCH 11 12
ATOM     12 OG   SER C 505      84.683  23.617 -14.060  1.00 87.22 LIG-0.40  OA
ATOM     13 HG   SER C 505      84.661  24.202 -13.459  1.00 87.22 LIG 0.21  HD
ENDBRANCH 11 12
ENDBRANCH 10 11
BRANCH 10 14
ATOM     14  C   SER C 505      83.252  26.231 -16.278  1.00 98.93 LIG 0.24  C 
ATOM     15  N   GLN C 506      84.443  26.508 -16.800  1.00110.12 LIG-0.35  N 
ATOM     16 H    GLN C 506      85.156  26.055 -16.638  1.00110.12 LIG 0.16  HD
ATOM     17 O    SER C 505      82.205  26.739 -16.686  1.00 94.47 LIG-0.27  OA
BRANCH 15 18
ATOM     18  CA  GLN C 506      84.635  27.630 -17.710  1.00115.19 LIG 0.16  C 
BRANCH 18 19
ATOM     19  C   GLN C 506      84.764  27.179 -19.165  1.00118.66 LIG 0.22  C 
ATOM     20 O    GLN C 506      84.427  26.044 -19.508  1.00117.46 LIG-0.29  OA
ENDBRANCH 18 19
BRANCH 18 21
ATOM     21  CB  GLN C 506      85.871  28.429 -17.285  1.00118.15 LIG 0.04  C 
BRANCH 21 22
ATOM     22  CG  GLN C 506      85.876  28.810 -15.797  1.00119.48 LIG 0.10  C 
BRANCH 22 23
ATOM     23  CD  GLN C 506      86.693  27.861 -14.919  1.00116.76 LIG 0.21  C 
ATOM     24  NE2 GLN C 506      87.146  28.354 -13.771  1.00111.94 LIG-0.37  N 
ATOM     25 21HE GLN C 506      86.976  29.170 -13.557  1.00111.94 LIG 0.16  HD
ATOM     26 22HE GLN C 506      87.608  27.858 -13.243  1.00111.94 LIG 0.16  HD
ATOM     27 OE1  GLN C 506      86.909  26.701 -15.271  1.00116.06 LIG-0.27  OA
ENDBRANCH 22 23
ENDBRANCH 21 22
ENDBRANCH 18 21
ENDBRANCH 15 18
ENDBRANCH 10 14
ENDBRANCH 7 10
ENDBRANCH 5 6
BRANCH 5 28
ATOM     28  CB  ASP C 504      79.545  22.606 -17.182  1.00 57.84 LIG 0.15  C 
BRANCH 28 29
ATOM     29  CG  ASP C 504      79.787  21.114 -17.384  1.00 60.92 LIG 0.17  C 
ATOM     30 OD2  ASP C 504      80.772  20.762 -18.077  1.00 60.43 LIG-0.65  OA
ATOM     31 OD1  ASP C 504      79.005  20.295 -16.855  1.00 59.69 LIG-0.65  OA
ENDBRANCH 28 29
ENDBRANCH 5 28
ENDBRANCH 3 5
BRANCH 1 32
ATOM     32  CA  SER C 503      77.149  24.838 -14.189  1.00 44.19 LIG 0.20  C 
BRANCH 32 33
ATOM     33  N   SER C 503      78.052  25.735 -13.463  1.00 47.77 LIG-0.34  N 
ATOM     34 H    SER C 503      78.496  26.277 -13.963  1.00 47.77 LIG 0.16  HD
ATOM     35  C   SER C 502      78.153  25.690 -12.136  1.00 50.79 LIG 0.24  C 
ATOM     36 O    SER C 502      77.327  25.139 -11.422  1.00 48.58 LIG-0.27  OA
BRANCH 35 37
ATOM     37  CA  SER C 502      79.372  26.355 -11.524  1.00 60.54 LIG 0.20  C 
BRANCH 37 38
ATOM     38  CB  SER C 502      79.053  26.893 -10.139  1.00 53.64 LIG 0.20  C 
BRANCH 38 39
ATOM     39 OG   SER C 502      79.498  28.221  -9.986  1.00 59.09 LIG-0.40  OA
ATOM     40 HG   SER C 502      78.844  28.717  -9.811  1.00 59.09 LIG 0.21  HD
ENDBRANCH 38 39
ENDBRANCH 37 38
BRANCH 37 41
ATOM     41  N   SER C 502      79.828  27.399 -12.434  1.00 72.56 LIG-0.34  N 
ATOM     42 H    SER C 502      79.352  28.115 -12.435  1.00 72.56 LIG 0.16  HD
ATOM     43  C   GLU C 501      80.908  27.206 -13.185  1.00101.90 LIG 0.26  C 
ATOM     44 O    GLU C 501      81.755  26.355 -12.913  1.00103.22 LIG-0.27  OA
BRANCH 43 45
ATOM     45  CA  GLU C 501      81.081  28.112 -14.411  1.00101.55 LIG 0.40  C 
ATOM     46  N   GLU C 501      79.790  28.355 -15.048  1.00100.94 LIG 0.61  N 
BRANCH 45 47
ATOM     47  CB  GLU C 501      81.733  29.439 -14.015  1.00104.94 LIG 0.06  C 
BRANCH 47 48
ATOM     48  CG  GLU C 501      80.938  30.668 -14.421  1.00111.45 LIG 0.12  C 
BRANCH 48 49
ATOM     49  CD  GLU C 501      79.792  30.957 -13.473  1.00115.68 LIG 0.17  C 
ATOM     50 OE1  GLU C 501      79.646  32.124 -13.047  1.00117.56 LIG-0.65  OA
ATOM     51 OE2  GLU C 501      79.037  30.014 -13.155  1.00122.11 LIG-0.65  OA
ENDBRANCH 48 49
ENDBRANCH 47 48
ENDBRANCH 45 47
ENDBRANCH 43 45
ENDBRANCH 37 41
ENDBRANCH 35 37
ENDBRANCH 32 33
BRANCH 32 52
ATOM     52  CB  SER C 503      76.282  25.613 -15.172  1.00 49.05 LIG 0.20  C 
BRANCH 52 53
ATOM     53 OG   SER C 503      74.936  25.637 -14.732  1.00 54.59 LIG-0.40  OA
ATOM     54 HG   SER C 503      74.703  24.864 -14.499  1.00 54.59 LIG 0.21  HD
ENDBRANCH 52 53
ENDBRANCH 32 52
ENDBRANCH 1 32
TORSDOF 25
ENDMDL
MODEL 7
USER: ADFR SOLUTION from run 77
USER: SCORE 16.385080 LL:  -4.336 LR: -14.259 RR:   0.000 FEB:  -6.801
USER: RMSD 7.218344
USER: SEED 76
USER: STATUS no improvement in best in 4 clusters for 5 generations
USER: GENES 27
USER: genes 0 Translation |==|  0.64125 0.48078 0.49574
USER: genes 1 Rotation |==|  0.59121 0.22795 0.54434 0.90707
USER: genes 2 Torsion [C]-N--CA-[CB] |==|  0.41345
USER: genes 3 Torsion [N]-CA--C-[N] |==|  0.96432
USER: genes 4 Torsion [C]-N--CA-[C] |==|  0.80956
USER: genes 5 Torsion [N]-CA--CB-[OG] |==|  0.19831
USER: genes 6 Torsion [CA]-CB--OG-[HG] |==|  0.80687
USER: genes 7 Torsion [N]-CA--C-[N] |==|  0.38114
USER: genes 8 Torsion [C]-N--CA-[CB] |==|  0.79027
USER: genes 9 Torsion [N]-CA--C-[O] |==|  0.07144
USER: genes 10 Torsion [N]-CA--CB-[CG] |==|  0.25586
USER: genes 11 Torsion [CA]-CB--CG-[CD] |==|  0.27507
USER: genes 12 Torsion [CB]-CG--CD-[NE2] |==|  0.19840
USER: genes 13 Torsion [N]-CA--CB-[CG] |==|  0.02133
USER: genes 14 Torsion [CA]-CB--CG-[OD1] |==|  0.63130
USER: genes 15 Torsion [N]-C--CA-[N] |==|  0.31585
USER: genes 16 Torsion [C]-CA--N-[C] |==|  0.52801
USER: genes 17 Torsion [N]-C--CA-[N] |==|  0.86195
USER: genes 18 Torsion [C]-CA--CB-[OG] |==|  0.72118
USER: genes 19 Torsion [CA]-CB--OG-[HG] |==|  0.05648
USER: genes 20 Torsion [C]-CA--N-[C] |==|  0.79075
USER: genes 21 Torsion [N]-C--CA-[N] |==|  0.36480
USER: genes 22 Torsion [C]-CA--CB-[CG] |==|  0.76375
USER: genes 23 Torsion [CA]-CB--CG-[CD] |==|  0.76022
USER: genes 24 Torsion [CB]-CG--CD-[OE1] |==|  0.22692
USER: genes 25 Torsion [C]-CA--CB-[OG] |==|  0.14808
USER: genes 26 Torsion [CA]-CB--OG-[HG] |==|  0.76808
ROOT
ATOM      1  C   SER C 503      81.708  25.954 -14.624  1.00 42.27 LIG 0.24  C 
ATOM      2 O    SER C 503      81.957  26.341 -13.485  1.00 46.84 LIG-0.27  OA
ATOM      3  N   ASP C 504      82.480  25.109 -15.293  1.00 51.15 LIG-0.34  N 
ATOM      4 H    ASP C 504      82.259  24.763 -16.049  1.00 51.15 LIG 0.16  HD
ENDROOT
BRANCH 3 5
ATOM      5  CA  ASP C 504      83.791  24.681 -14.808  1.00 56.79 LIG 0.19  C 
BRANCH 5 6
ATOM      6  C   ASP C 504      84.879  25.650 -15.293  1.00 67.42 LIG 0.24  C 
ATOM      7  N   SER C 505      84.519  26.506 -16.245  1.00 81.52 LIG-0.34  N 
ATOM      8 H    SER C 505      83.734  26.531 -16.593  1.00 81.52 LIG 0.16  HD
ATOM      9 O    ASP C 504      86.014  25.623 -14.812  1.00 66.01 LIG-0.27  OA
BRANCH 7 10
ATOM     10  CA  SER C 505      85.447  27.496 -16.788  1.00 90.64 LIG 0.20  C 
BRANCH 10 11
ATOM     11  CB  SER C 505      84.863  28.153 -18.034  1.00 89.01 LIG 0.20  C 
BRANCH 11 12
ATOM     12 OG   SER C 505      83.799  29.016 -17.682  1.00 87.22 LIG-0.40  OA
ATOM     13 HG   SER C 505      83.145  28.560 -17.418  1.00 87.22 LIG 0.21  HD
ENDBRANCH 11 12
ENDBRANCH 10 11
BRANCH 10 14
ATOM     14  C   SER C 505      85.773  28.551 -15.735  1.00 98.93 LIG 0.24  C 
ATOM     15  N   GLN C 506      87.048  28.919 -15.646  1.00110.12 LIG-0.35  N 
ATOM     16 H    GLN C 506      87.649  28.715 -16.227  1.00110.12 LIG 0.16  HD
ATOM     17 O    SER C 505      84.885  29.031 -15.028  1.00 94.47 LIG-0.27  OA
BRANCH 15 18
ATOM     18  CA  GLN C 506      87.536  29.715 -14.527  1.00115.19 LIG 0.16  C 
BRANCH 18 19
ATOM     19  C   GLN C 506      87.068  29.167 -13.180  1.00118.66 LIG 0.22  C 
ATOM     20 O    GLN C 506      86.786  27.975 -13.045  1.00117.46 LIG-0.29  OA
ENDBRANCH 18 19
BRANCH 18 21
ATOM     21  CB  GLN C 506      87.087  31.170 -14.700  1.00118.15 LIG 0.04  C 
BRANCH 21 22
ATOM     22  CG  GLN C 506      85.751  31.488 -14.011  1.00119.48 LIG 0.10  C 
BRANCH 22 23
ATOM     23  CD  GLN C 506      85.904  32.168 -12.650  1.00116.76 LIG 0.21  C 
ATOM     24  NE2 GLN C 506      86.321  33.430 -12.661  1.00111.94 LIG-0.37  N 
ATOM     25 21HE GLN C 506      86.491  33.821 -13.408  1.00111.94 LIG 0.16  HD
ATOM     26 22HE GLN C 506      86.419  33.856 -11.920  1.00111.94 LIG 0.16  HD
ATOM     27 OE1  GLN C 506      85.646  31.566 -11.608  1.00116.06 LIG-0.27  OA
ENDBRANCH 22 23
ENDBRANCH 21 22
ENDBRANCH 18 21
ENDBRANCH 15 18
ENDBRANCH 10 14
ENDBRANCH 7 10
ENDBRANCH 5 6
BRANCH 5 28
ATOM     28  CB  ASP C 504      84.081  23.247 -15.286  1.00 57.84 LIG 0.15  C 
BRANCH 28 29
ATOM     29  CG  ASP C 504      83.046  22.719 -16.273  1.00 60.92 LIG 0.17  C 
ATOM     30 OD2  ASP C 504      82.711  23.456 -17.231  1.00 60.43 LIG-0.65  OA
ATOM     31 OD1  ASP C 504      82.570  21.576 -16.100  1.00 59.69 LIG-0.65  OA
ENDBRANCH 28 29
ENDBRANCH 5 28
ENDBRANCH 3 5
BRANCH 1 32
ATOM     32  CA  SER C 503      80.456  26.422 -15.343  1.00 44.19 LIG 0.20  C 
BRANCH 32 33
ATOM     33  N   SER C 503      79.254  25.924 -14.670  1.00 47.77 LIG-0.34  N 
ATOM     34 H    SER C 503      79.397  25.562 -13.903  1.00 47.77 LIG 0.16  HD
ATOM     35  C   SER C 502      78.050  26.039 -15.229  1.00 50.79 LIG 0.24  C 
ATOM     36 O    SER C 502      77.815  26.797 -16.160  1.00 48.58 LIG-0.27  OA
BRANCH 35 37
ATOM     37  CA  SER C 502      76.950  25.160 -14.661  1.00 60.54 LIG 0.20  C 
BRANCH 37 38
ATOM     38  CB  SER C 502      76.493  25.678 -13.308  1.00 53.64 LIG 0.20  C 
BRANCH 38 39
ATOM     39 OG   SER C 502      77.068  24.943 -12.253  1.00 59.09 LIG-0.40  OA
ATOM     40 HG   SER C 502      77.754  24.547 -12.529  1.00 59.09 LIG 0.21  HD
ENDBRANCH 38 39
ENDBRANCH 37 38
BRANCH 37 41
ATOM     41  N   SER C 502      77.448  23.792 -14.593  1.00 72.56 LIG-0.34  N 
ATOM     42 H    SER C 502      77.657  23.518 -13.805  1.00 72.56 LIG 0.16  HD
ATOM     43  C   GLU C 501      77.551  23.063 -15.700  1.00101.90 LIG 0.26  C 
ATOM     44 O    GLU C 501      76.927  23.333 -16.727  1.00103.22 LIG-0.27  OA
BRANCH 43 45
ATOM     45  CA  GLU C 501      78.471  21.836 -15.649  1.00101.55 LIG 0.40  C 
ATOM     46  N   GLU C 501      77.784  20.665 -16.186  1.00100.94 LIG 0.61  N 
BRANCH 45 47
ATOM     47  CB  GLU C 501      79.762  22.096 -16.431  1.00104.94 LIG 0.06  C 
BRANCH 47 48
ATOM     48  CG  GLU C 501      79.653  21.819 -17.920  1.00111.45 LIG 0.12  C 
BRANCH 48 49
ATOM     49  CD  GLU C 501      79.923  20.368 -18.262  1.00115.68 LIG 0.17  C 
ATOM     50 OE1  GLU C 501      78.998  19.537 -18.124  1.00117.56 LIG-0.65  OA
ATOM     51 OE2  GLU C 501      81.063  20.060 -18.669  1.00122.11 LIG-0.65  OA
ENDBRANCH 48 49
ENDBRANCH 47 48
ENDBRANCH 45 47
ENDBRANCH 43 45
ENDBRANCH 37 41
ENDBRANCH 35 37
ENDBRANCH 32 33
BRANCH 32 52
ATOM     52  CB  SER C 503      80.453  27.943 -15.414  1.00 49.05 LIG 0.20  C 
BRANCH 52 53
ATOM     53 OG   SER C 503      81.663  28.414 -15.980  1.00 54.59 LIG-0.40  OA
ATOM     54 HG   SER C 503      82.254  28.456 -15.384  1.00 54.59 LIG 0.21  HD
ENDBRANCH 52 53
ENDBRANCH 32 52
ENDBRANCH 1 32
TORSDOF 25
ENDMDL
MODEL 8
USER: ADFR SOLUTION from run 77
USER: SCORE 16.433726 LL:  -4.069 LR: -14.214 RR:   0.000 FEB:  -6.756
USER: RMSD 6.583636
USER: SEED 76
USER: STATUS no improvement in best in 4 clusters for 5 generations
USER: GENES 27
USER: genes 0 Translation |==|  0.64077 0.48240 0.50010
USER: genes 1 Rotation |==|  0.59072 0.23443 0.53728 0.91213
USER: genes 2 Torsion [C]-N--CA-[CB] |==|  0.41836
USER: genes 3 Torsion [N]-CA--C-[N] |==|  0.95867
USER: genes 4 Torsion [C]-N--CA-[C] |==|  0.80790
USER: genes 5 Torsion [N]-CA--CB-[OG] |==|  0.21034
USER: genes 6 Torsion [CA]-CB--OG-[HG] |==|  0.80634
USER: genes 7 Torsion [N]-CA--C-[N] |==|  0.38343
USER: genes 8 Torsion [C]-N--CA-[CB] |==|  0.78030
USER: genes 9 Torsion [N]-CA--C-[O] |==|  0.10587
USER: genes 10 Torsion [N]-CA--CB-[CG] |==|  0.25774
USER: genes 11 Torsion [CA]-CB--CG-[CD] |==|  0.26834
USER: genes 12 Torsion [CB]-CG--CD-[NE2] |==|  0.20856
USER: genes 13 Torsion [N]-CA--CB-[CG] |==|  0.03509
USER: genes 14 Torsion [CA]-CB--CG-[OD1] |==|  0.66644
USER: genes 15 Torsion [N]-C--CA-[N] |==|  0.27647
USER: genes 16 Torsion [C]-CA--N-[C] |==|  0.74575
USER: genes 17 Torsion [N]-C--CA-[N] |==|  0.16300
USER: genes 18 Torsion [C]-CA--CB-[OG] |==|  0.80630
USER: genes 19 Torsion [CA]-CB--OG-[HG] |==|  0.77643
USER: genes 20 Torsion [C]-CA--N-[C] |==|  0.75155
USER: genes 21 Torsion [N]-C--CA-[N] |==|  0.60059
USER: genes 22 Torsion [C]-CA--CB-[CG] |==|  0.23094
USER: genes 23 Torsion [CA]-CB--CG-[CD] |==|  0.16784
USER: genes 24 Torsion [CB]-CG--CD-[OE1] |==|  0.39794
USER: genes 25 Torsion [C]-CA--CB-[OG] |==|  0.16892
USER: genes 26 Torsion [CA]-CB--OG-[HG] |==|  0.77672
ROOT
ATOM      1  C   SER C 503      81.699  25.989 -14.542  1.00 42.27 LIG 0.24  C 
ATOM      2 O    SER C 503      81.999  26.361 -13.410  1.00 46.84 LIG-0.27  OA
ATOM      3  N   ASP C 504      82.428  25.132 -15.246  1.00 51.15 LIG-0.34  N 
ATOM      4 H    ASP C 504      82.172  24.798 -15.995  1.00 51.15 LIG 0.16  HD
ENDROOT
BRANCH 3 5
ATOM      5  CA  ASP C 504      83.747  24.673 -14.813  1.00 56.79 LIG 0.19  C 
BRANCH 5 6
ATOM      6  C   ASP C 504      84.833  25.647 -15.294  1.00 67.42 LIG 0.24  C 
ATOM      7  N   SER C 505      84.468  26.513 -16.234  1.00 81.52 LIG-0.34  N 
ATOM      8 H    SER C 505      83.681  26.542 -16.578  1.00 81.52 LIG 0.16  HD
ATOM      9 O    ASP C 504      85.970  25.615 -14.819  1.00 66.01 LIG-0.27  OA
BRANCH 7 10
ATOM     10  CA  SER C 505      85.393  27.508 -16.772  1.00 90.64 LIG 0.20  C 
BRANCH 10 11
ATOM     11  CB  SER C 505      84.809  28.168 -18.017  1.00 89.01 LIG 0.20  C 
BRANCH 11 12
ATOM     12 OG   SER C 505      83.808  29.100 -17.656  1.00 87.22 LIG-0.40  OA
ATOM     13 HG   SER C 505      83.136  28.690 -17.363  1.00 87.22 LIG 0.21  HD
ENDBRANCH 11 12
ENDBRANCH 10 11
BRANCH 10 14
ATOM     14  C   SER C 505      85.714  28.560 -15.715  1.00 98.93 LIG 0.24  C 
ATOM     15  N   GLN C 506      86.984  28.945 -15.633  1.00110.12 LIG-0.35  N 
ATOM     16 H    GLN C 506      87.583  28.754 -16.220  1.00110.12 LIG 0.16  HD
ATOM     17 O    SER C 505      84.825  29.023 -14.997  1.00 94.47 LIG-0.27  OA
BRANCH 15 18
ATOM     18  CA  GLN C 506      87.471  29.740 -14.513  1.00115.19 LIG 0.16  C 
BRANCH 18 19
ATOM     19  C   GLN C 506      86.949  29.228 -13.171  1.00118.66 LIG 0.22  C 
ATOM     20 O    GLN C 506      86.837  28.020 -12.955  1.00117.46 LIG-0.29  OA
ENDBRANCH 18 19
BRANCH 18 21
ATOM     21  CB  GLN C 506      87.077  31.207 -14.717  1.00118.15 LIG 0.04  C 
BRANCH 21 22
ATOM     22  CG  GLN C 506      85.743  31.585 -14.054  1.00119.48 LIG 0.10  C 
BRANCH 22 23
ATOM     23  CD  GLN C 506      85.899  32.230 -12.677  1.00116.76 LIG 0.21  C 
ATOM     24  NE2 GLN C 506      86.313  33.493 -12.656  1.00111.94 LIG-0.37  N 
ATOM     25 21HE GLN C 506      86.480  33.903 -13.393  1.00111.94 LIG 0.16  HD
ATOM     26 22HE GLN C 506      86.413  33.900 -11.905  1.00111.94 LIG 0.16  HD
ATOM     27 OE1  GLN C 506      85.646  31.601 -11.650  1.00116.06 LIG-0.27  OA
ENDBRANCH 22 23
ENDBRANCH 21 22
ENDBRANCH 18 21
ENDBRANCH 15 18
ENDBRANCH 10 14
ENDBRANCH 7 10
ENDBRANCH 5 6
BRANCH 5 28
ATOM     28  CB  ASP C 504      84.007  23.254 -15.349  1.00 57.84 LIG 0.15  C 
BRANCH 28 29
ATOM     29  CG  ASP C 504      83.006  22.819 -16.414  1.00 60.92 LIG 0.17  C 
ATOM     30 OD2  ASP C 504      82.929  23.498 -17.466  1.00 60.43 LIG-0.65  OA
ATOM     31 OD1  ASP C 504      82.303  21.806 -16.209  1.00 59.69 LIG-0.65  OA
ENDBRANCH 28 29
ENDBRANCH 5 28
ENDBRANCH 3 5
BRANCH 1 32
ATOM     32  CA  SER C 503      80.432  26.488 -15.211  1.00 44.19 LIG 0.20  C 
BRANCH 32 33
ATOM     33  N   SER C 503      79.262  25.756 -14.720  1.00 47.77 LIG-0.34  N 
ATOM     34 H    SER C 503      78.897  26.094 -14.018  1.00 47.77 LIG 0.16  HD
ATOM     35  C   SER C 502      78.826  24.657 -15.334  1.00 50.79 LIG 0.24  C 
ATOM     36 O    SER C 502      79.156  24.351 -16.470  1.00 48.58 LIG-0.27  OA
BRANCH 35 37
ATOM     37  CA  SER C 502      77.884  23.765 -14.544  1.00 60.54 LIG 0.20  C 
BRANCH 37 38
ATOM     38  CB  SER C 502      77.517  22.528 -15.345  1.00 53.64 LIG 0.20  C 
BRANCH 38 39
ATOM     39 OG   SER C 502      76.687  22.848 -16.438  1.00 59.09 LIG-0.40  OA
ATOM     40 HG   SER C 502      75.895  22.935 -16.172  1.00 59.09 LIG 0.21  HD
ENDBRANCH 38 39
ENDBRANCH 37 38
BRANCH 37 41
ATOM     41  N   SER C 502      76.716  24.553 -14.170  1.00 72.56 LIG-0.34  N 
ATOM     42 H    SER C 502      76.067  24.532 -14.733  1.00 72.56 LIG 0.16  HD
ATOM     43  C   GLU C 501      76.707  25.235 -13.029  1.00101.90 LIG 0.26  C 
ATOM     44 O    GLU C 501      77.468  24.969 -12.098  1.00103.22 LIG-0.27  OA
BRANCH 43 45
ATOM     45  CA  GLU C 501      75.682  26.369 -12.896  1.00101.55 LIG 0.40  C 
ATOM     46  N   GLU C 501      76.252  27.481 -12.142  1.00100.94 LIG 0.61  N 
BRANCH 45 47
ATOM     47  CB  GLU C 501      75.223  26.846 -14.277  1.00104.94 LIG 0.06  C 
BRANCH 47 48
ATOM     48  CG  GLU C 501      74.117  26.004 -14.889  1.00111.45 LIG 0.12  C 
BRANCH 48 49
ATOM     49  CD  GLU C 501      72.861  25.990 -14.041  1.00115.68 LIG 0.17  C 
ATOM     50 OE1  GLU C 501      71.750  25.987 -14.615  1.00117.56 LIG-0.65  OA
ATOM     51 OE2  GLU C 501      72.989  25.981 -12.799  1.00122.11 LIG-0.65  OA
ENDBRANCH 48 49
ENDBRANCH 47 48
ENDBRANCH 45 47
ENDBRANCH 43 45
ENDBRANCH 37 41
ENDBRANCH 35 37
ENDBRANCH 32 33
BRANCH 32 52
ATOM     52  CB  SER C 503      80.286  27.983 -14.962  1.00 49.05 LIG 0.20  C 
BRANCH 52 53
ATOM     53 OG   SER C 503      81.387  28.685 -15.510  1.00 54.59 LIG-0.40  OA
ATOM     54 HG   SER C 503      82.041  28.635 -14.984  1.00 54.59 LIG 0.21  HD
ENDBRANCH 52 53
ENDBRANCH 32 52
ENDBRANCH 1 32
TORSDOF 25
ENDMDL
MODEL 9
USER: ADFR SOLUTION from run 137
USER: SCORE 16.023695 LL:  -2.997 LR: -14.157 RR:   0.000 FEB:  -6.699
USER: RMSD 3.609683
USER: SEED 136
USER: STATUS searching
USER: GENES 27
USER: genes 0 Translation |==|  0.43574 0.42001 0.51577
USER: genes 1 Rotation |==|  0.52892 0.50846 0.50922 0.99901
USER: genes 2 Torsion [C]-N--CA-[CB] |==|  0.55556
USER: genes 3 Torsion [N]-CA--C-[N] |==|  0.27365
USER: genes 4 Torsion [C]-N--CA-[C] |==|  0.79475
USER: genes 5 Torsion [N]-CA--CB-[OG] |==|  0.84094
USER: genes 6 Torsion [CA]-CB--OG-[HG] |==|  0.56422
USER: genes 7 Torsion [N]-CA--C-[N] |==|  0.35262
USER: genes 8 Torsion [C]-N--CA-[CB] |==|  0.82922
USER: genes 9 Torsion [N]-CA--C-[O] |==|  0.90698
USER: genes 10 Torsion [N]-CA--CB-[CG] |==|  0.72460
USER: genes 11 Torsion [CA]-CB--CG-[CD] |==|  0.18678
USER: genes 12 Torsion [CB]-CG--CD-[NE2] |==|  0.09539
USER: genes 13 Torsion [N]-CA--CB-[CG] |==|  0.57831
USER: genes 14 Torsion [CA]-CB--CG-[OD1] |==|  0.90397
USER: genes 15 Torsion [N]-C--CA-[N] |==|  0.46547
USER: genes 16 Torsion [C]-CA--N-[C] |==|  0.78481
USER: genes 17 Torsion [N]-C--CA-[N] |==|  0.13186
USER: genes 18 Torsion [C]-CA--CB-[OG] |==|  0.78098
USER: genes 19 Torsion [CA]-CB--OG-[HG] |==|  0.83605
USER: genes 20 Torsion [C]-CA--N-[C] |==|  0.75366
USER: genes 21 Torsion [N]-C--CA-[N] |==|  0.91999
USER: genes 22 Torsion [C]-CA--CB-[CG] |==|  0.29851
USER: genes 23 Torsion [CA]-CB--CG-[CD] |==|  0.87662
USER: genes 24 Torsion [CB]-CG--CD-[OE1] |==|  0.74743
USER: genes 25 Torsion [C]-CA--CB-[OG] |==|  0.39168
USER: genes 26 Torsion [CA]-CB--OG-[HG] |==|  0.84657
ROOT
ATOM      1  C   SER C 503      78.162  24.678 -14.248  1.00 42.27 LIG 0.24  C 
ATOM      2 O    SER C 503      79.268  25.213 -14.202  1.00 46.84 LIG-0.27  OA
ATOM      3  N   ASP C 504      77.918  23.565 -14.927  1.00 51.15 LIG-0.34  N 
ATOM      4 H    ASP C 504      77.173  23.138 -14.882  1.00 51.15 LIG 0.16  HD
ENDROOT
BRANCH 3 5
ATOM      5  CA  ASP C 504      78.897  22.954 -15.824  1.00 56.79 LIG 0.19  C 
BRANCH 5 6
ATOM      6  C   ASP C 504      79.682  24.041 -16.574  1.00 67.42 LIG 0.24  C 
ATOM      7  N   SER C 505      80.877  24.348 -16.079  1.00 81.52 LIG-0.34  N 
ATOM      8 H    SER C 505      81.211  23.983 -15.376  1.00 81.52 LIG 0.16  HD
ATOM      9 O    ASP C 504      79.215  24.581 -17.579  1.00 66.01 LIG-0.27  OA
BRANCH 7 10
ATOM     10  CA  SER C 505      81.739  25.350 -16.701  1.00 90.64 LIG 0.20  C 
BRANCH 10 11
ATOM     11  CB  SER C 505      82.835  25.789 -15.737  1.00 89.01 LIG 0.20  C 
BRANCH 11 12
ATOM     12 OG   SER C 505      82.268  26.293 -14.542  1.00 87.22 LIG-0.40  OA
ATOM     13 HG   SER C 505      82.817  26.805 -14.166  1.00 87.22 LIG 0.21  HD
ENDBRANCH 11 12
ENDBRANCH 10 11
BRANCH 10 14
ATOM     14  C   SER C 505      82.351  24.800 -17.985  1.00 98.93 LIG 0.24  C 
ATOM     15  N   GLN C 506      82.189  25.539 -19.079  1.00110.12 LIG-0.35  N 
ATOM     16 H    GLN C 506      81.902  26.350 -19.073  1.00110.12 LIG 0.16  HD
ATOM     17 O    SER C 505      82.970  23.734 -17.982  1.00 94.47 LIG-0.27  OA
BRANCH 15 18
ATOM     18  CA  GLN C 506      82.494  25.017 -20.405  1.00115.19 LIG 0.16  C 
BRANCH 18 19
ATOM     19  C   GLN C 506      81.628  23.810 -20.765  1.00118.66 LIG 0.22  C 
ATOM     20 O    GLN C 506      81.266  23.011 -19.899  1.00117.46 LIG-0.29  OA
ENDBRANCH 18 19
BRANCH 18 21
ATOM     21  CB  GLN C 506      83.981  24.653 -20.484  1.00118.15 LIG 0.04  C 
BRANCH 21 22
ATOM     22  CG  GLN C 506      84.842  25.726 -21.166  1.00119.48 LIG 0.10  C 
BRANCH 22 23
ATOM     23  CD  GLN C 506      84.946  27.030 -20.374  1.00116.76 LIG 0.21  C 
ATOM     24  NE2 GLN C 506      84.958  26.921 -19.049  1.00111.94 LIG-0.37  N 
ATOM     25 21HE GLN C 506      84.906  26.145 -18.681  1.00111.94 LIG 0.16  HD
ATOM     26 22HE GLN C 506      85.019  27.626 -18.561  1.00111.94 LIG 0.16  HD
ATOM     27 OE1  GLN C 506      85.019  28.117 -20.948  1.00116.06 LIG-0.27  OA
ENDBRANCH 22 23
ENDBRANCH 21 22
ENDBRANCH 18 21
ENDBRANCH 15 18
ENDBRANCH 10 14
ENDBRANCH 7 10
ENDBRANCH 5 6
BRANCH 5 28
ATOM     28  CB  ASP C 504      78.184  22.013 -16.811  1.00 57.84 LIG 0.15  C 
BRANCH 28 29
ATOM     29  CG  ASP C 504      79.064  20.865 -17.294  1.00 60.92 LIG 0.17  C 
ATOM     30 OD2  ASP C 504      78.521  19.757 -17.517  1.00 60.43 LIG-0.65  OA
ATOM     31 OD1  ASP C 504      80.287  21.064 -17.454  1.00 59.69 LIG-0.65  OA
ENDBRANCH 28 29
ENDBRANCH 5 28
ENDBRANCH 3 5
BRANCH 1 32
ATOM     32  CA  SER C 503      76.985  25.268 -13.494  1.00 44.19 LIG 0.20  C 
BRANCH 32 33
ATOM     33  N   SER C 503      77.433  26.305 -12.561  1.00 47.77 LIG-0.34  N 
ATOM     34 H    SER C 503      77.297  27.111 -12.829  1.00 47.77 LIG 0.16  HD
ATOM     35  C   SER C 502      78.002  25.990 -11.398  1.00 50.79 LIG 0.24  C 
ATOM     36 O    SER C 502      77.930  24.876 -10.899  1.00 48.58 LIG-0.27  OA
BRANCH 35 37
ATOM     37  CA  SER C 502      78.777  27.093 -10.700  1.00 60.54 LIG 0.20  C 
BRANCH 37 38
ATOM     38  CB  SER C 502      79.181  26.663  -9.300  1.00 53.64 LIG 0.20  C 
BRANCH 38 39
ATOM     39 OG   SER C 502      78.106  26.771  -8.396  1.00 59.09 LIG-0.40  OA
ATOM     40 HG   SER C 502      77.838  27.566  -8.375  1.00 59.09 LIG 0.21  HD
ENDBRANCH 38 39
ENDBRANCH 37 38
BRANCH 37 41
ATOM     41  N   SER C 502      77.955  28.297 -10.696  1.00 72.56 LIG-0.34  N 
ATOM     42 H    SER C 502      77.452  28.393 -10.005  1.00 72.56 LIG 0.16  HD
ATOM     43  C   GLU C 501      78.016  29.151 -11.713  1.00101.90 LIG 0.26  C 
ATOM     44 O    GLU C 501      78.972  29.183 -12.488  1.00103.22 LIG-0.27  OA
BRANCH 43 45
ATOM     45  CA  GLU C 501      76.847  30.131 -11.878  1.00101.55 LIG 0.40  C 
ATOM     46  N   GLU C 501      75.617  29.546 -11.352  1.00100.94 LIG 0.61  N 
BRANCH 45 47
ATOM     47  CB  GLU C 501      77.148  31.455 -11.169  1.00104.94 LIG 0.06  C 
BRANCH 47 48
ATOM     48  CG  GLU C 501      77.449  32.608 -12.109  1.00111.45 LIG 0.12  C 
BRANCH 48 49
ATOM     49  CD  GLU C 501      78.390  32.214 -13.229  1.00115.68 LIG 0.17  C 
ATOM     50 OE1  GLU C 501      79.621  32.357 -13.057  1.00117.56 LIG-0.65  OA
ATOM     51 OE2  GLU C 501      77.895  31.760 -14.283  1.00122.11 LIG-0.65  OA
ENDBRANCH 48 49
ENDBRANCH 47 48
ENDBRANCH 45 47
ENDBRANCH 43 45
ENDBRANCH 37 41
ENDBRANCH 35 37
ENDBRANCH 32 33
BRANCH 32 52
ATOM     52  CB  SER C 503      75.977  25.826 -14.489  1.00 49.05 LIG 0.20  C 
BRANCH 52 53
ATOM     53 OG   SER C 503      74.655  25.559 -14.056  1.00 54.59 LIG-0.40  OA
ATOM     54 HG   SER C 503      74.563  24.734 -13.928  1.00 54.59 LIG 0.21  HD
ENDBRANCH 52 53
ENDBRANCH 32 52
ENDBRANCH 1 32
TORSDOF 25
ENDMDL
MODEL 10
USER: ADFR SOLUTION from run 71
USER: SCORE 16.047632 LL:  -4.038 LR: -14.147 RR:   0.000 FEB:  -6.689
USER: RMSD 5.353943
USER: SEED 70
USER: STATUS no improvement in best in 3 clusters for 5 generations
USER: GENES 27
USER: genes 0 Translation |==|  0.62386 0.46558 0.49977
USER: genes 1 Rotation |==|  0.50795 0.50601 0.41249 0.99218
USER: genes 2 Torsion [C]-N--CA-[CB] |==|  0.50815
USER: genes 3 Torsion [N]-CA--C-[N] |==|  0.93494
USER: genes 4 Torsion [C]-N--CA-[C] |==|  0.80074
USER: genes 5 Torsion [N]-CA--CB-[OG] |==|  0.89632
USER: genes 6 Torsion [CA]-CB--OG-[HG] |==|  0.96830
USER: genes 7 Torsion [N]-CA--C-[N] |==|  0.92292
USER: genes 8 Torsion [C]-N--CA-[CB] |==|  0.34255
USER: genes 9 Torsion [N]-CA--C-[O] |==|  0.98256
USER: genes 10 Torsion [N]-CA--CB-[CG] |==|  0.53627
USER: genes 11 Torsion [CA]-CB--CG-[CD] |==|  0.69536
USER: genes 12 Torsion [CB]-CG--CD-[NE2] |==|  0.68523
USER: genes 13 Torsion [N]-CA--CB-[CG] |==|  0.42881
USER: genes 14 Torsion [CA]-CB--CG-[OD1] |==|  0.81341
USER: genes 15 Torsion [N]-C--CA-[N] |==|  0.04606
USER: genes 16 Torsion [C]-CA--N-[C] |==|  0.78538
USER: genes 17 Torsion [N]-C--CA-[N] |==|  0.21667
USER: genes 18 Torsion [C]-CA--CB-[OG] |==|  0.28917
USER: genes 19 Torsion [CA]-CB--OG-[HG] |==|  0.20926
USER: genes 20 Torsion [C]-CA--N-[C] |==|  0.77931
USER: genes 21 Torsion [N]-C--CA-[N] |==|  0.63338
USER: genes 22 Torsion [C]-CA--CB-[CG] |==|  0.30992
USER: genes 23 Torsion [CA]-CB--CG-[CD] |==|  0.87275
USER: genes 24 Torsion [CB]-CG--CD-[OE1] |==|  0.84428
USER: genes 25 Torsion [C]-CA--CB-[OG] |==|  0.81221
USER: genes 26 Torsion [CA]-CB--OG-[HG] |==|  0.25669
ROOT
ATOM      1  C   SER C 503      81.408  25.635 -14.548  1.00 42.27 LIG 0.24  C 
ATOM      2 O    SER C 503      82.634  25.715 -14.544  1.00 46.84 LIG-0.27  OA
ATOM      3  N   ASP C 504      80.743  24.644 -15.127  1.00 51.15 LIG-0.34  N 
ATOM      4 H    ASP C 504      79.893  24.535 -15.048  1.00 51.15 LIG 0.16  HD
ENDROOT
BRANCH 3 5
ATOM      5  CA  ASP C 504      81.394  23.635 -15.960  1.00 56.79 LIG 0.19  C 
BRANCH 5 6
ATOM      6  C   ASP C 504      82.192  24.309 -17.086  1.00 67.42 LIG 0.24  C 
ATOM      7  N   SER C 505      81.804  25.534 -17.426  1.00 81.52 LIG-0.34  N 
ATOM      8 H    SER C 505      81.142  25.944 -17.061  1.00 81.52 LIG 0.16  HD
ATOM      9 O    ASP C 504      83.139  23.733 -17.626  1.00 66.01 LIG-0.27  OA
BRANCH 7 10
ATOM     10  CA  SER C 505      82.483  26.301 -18.467  1.00 90.64 LIG 0.20  C 
BRANCH 10 11
ATOM     11  CB  SER C 505      81.639  27.499 -18.891  1.00 89.01 LIG 0.20  C 
BRANCH 11 12
ATOM     12 OG   SER C 505      80.267  27.156 -18.898  1.00 87.22 LIG-0.40  OA
ATOM     13 HG   SER C 505      80.185  26.324 -18.820  1.00 87.22 LIG 0.21  HD
ENDBRANCH 11 12
ENDBRANCH 10 11
BRANCH 10 14
ATOM     14  C   SER C 505      83.852  26.764 -17.978  1.00 98.93 LIG 0.24  C 
ATOM     15  N   GLN C 506      83.981  26.937 -16.666  1.00110.12 LIG-0.35  N 
ATOM     16 H    GLN C 506      83.405  26.669 -16.086  1.00110.12 LIG 0.16  HD
ATOM     17 O    SER C 505      84.776  26.947 -18.773  1.00 94.47 LIG-0.27  OA
BRANCH 15 18
ATOM     18  CA  GLN C 506      85.139  27.615 -16.096  1.00115.19 LIG 0.16  C 
BRANCH 18 19
ATOM     19  C   GLN C 506      86.007  26.673 -15.261  1.00118.66 LIG 0.22  C 
ATOM     20 O    GLN C 506      85.646  25.517 -15.031  1.00117.46 LIG-0.29  OA
ENDBRANCH 18 19
BRANCH 18 21
ATOM     21  CB  GLN C 506      84.673  28.804 -15.250  1.00118.15 LIG 0.04  C 
BRANCH 21 22
ATOM     22  CG  GLN C 506      85.806  29.768 -14.866  1.00119.48 LIG 0.10  C 
BRANCH 22 23
ATOM     23  CD  GLN C 506      86.171  29.731 -13.382  1.00116.76 LIG 0.21  C 
ATOM     24  NE2 GLN C 506      85.909  30.827 -12.677  1.00111.94 LIG-0.37  N 
ATOM     25 21HE GLN C 506      85.554  31.510 -13.061  1.00111.94 LIG 0.16  HD
ATOM     26 22HE GLN C 506      86.094  30.853 -11.838  1.00111.94 LIG 0.16  HD
ATOM     27 OE1  GLN C 506      86.678  28.728 -12.879  1.00116.06 LIG-0.27  OA
ENDBRANCH 22 23
ENDBRANCH 21 22
ENDBRANCH 18 21
ENDBRANCH 15 18
ENDBRANCH 10 14
ENDBRANCH 7 10
ENDBRANCH 5 6
BRANCH 5 28
ATOM     28  CB  ASP C 504      80.338  22.675 -16.537  1.00 57.84 LIG 0.15  C 
BRANCH 28 29
ATOM     29  CG  ASP C 504      80.771  22.014 -17.841  1.00 60.92 LIG 0.17  C 
ATOM     30 OD2  ASP C 504      80.976  20.776 -17.839  1.00 60.43 LIG-0.65  OA
ATOM     31 OD1  ASP C 504      80.905  22.720 -18.864  1.00 59.69 LIG-0.65  OA
ENDBRANCH 28 29
ENDBRANCH 5 28
ENDBRANCH 3 5
BRANCH 1 32
ATOM     32  CA  SER C 503      80.561  26.687 -13.856  1.00 44.19 LIG 0.20  C 
BRANCH 32 33
ATOM     33  N   SER C 503      79.200  26.194 -13.633  1.00 47.77 LIG-0.34  N 
ATOM     34 H    SER C 503      79.037  25.947 -12.825  1.00 47.77 LIG 0.16  HD
ATOM     35  C   SER C 502      78.311  26.145 -14.623  1.00 50.79 LIG 0.24  C 
ATOM     36 O    SER C 502      78.447  26.755 -15.674  1.00 48.58 LIG-0.27  OA
BRANCH 35 37
ATOM     37  CA  SER C 502      77.091  25.269 -14.399  1.00 60.54 LIG 0.20  C 
BRANCH 37 38
ATOM     38  CB  SER C 502      76.459  24.878 -15.724  1.00 53.64 LIG 0.20  C 
BRANCH 38 39
ATOM     39 OG   SER C 502      76.756  23.543 -16.064  1.00 59.09 LIG-0.40  OA
ATOM     40 HG   SER C 502      76.293  23.025 -15.594  1.00 59.09 LIG 0.21  HD
ENDBRANCH 38 39
ENDBRANCH 37 38
BRANCH 37 41
ATOM     41  N   SER C 502      76.165  25.988 -13.533  1.00 72.56 LIG-0.34  N 
ATOM     42 H    SER C 502      75.508  26.367 -13.936  1.00 72.56 LIG 0.16  HD
ATOM     43  C   GLU C 501      76.370  26.023 -12.219  1.00101.90 LIG 0.26  C 
ATOM     44 O    GLU C 501      77.081  25.200 -11.642  1.00103.22 LIG-0.27  OA
BRANCH 43 45
ATOM     45  CA  GLU C 501      75.657  27.127 -11.427  1.00101.55 LIG 0.40  C 
ATOM     46  N   GLU C 501      76.596  27.795 -10.532  1.00100.94 LIG 0.61  N 
BRANCH 45 47
ATOM     47  CB  GLU C 501      75.015  28.144 -12.375  1.00104.94 LIG 0.06  C 
BRANCH 47 48
ATOM     48  CG  GLU C 501      73.497  28.127 -12.369  1.00111.45 LIG 0.12  C 
BRANCH 48 49
ATOM     49  CD  GLU C 501      72.932  26.723 -12.439  1.00115.68 LIG 0.17  C 
ATOM     50 OE1  GLU C 501      73.273  25.986 -13.391  1.00117.56 LIG-0.65  OA
ATOM     51 OE2  GLU C 501      72.146  26.358 -11.540  1.00122.11 LIG-0.65  OA
ENDBRANCH 48 49
ENDBRANCH 47 48
ENDBRANCH 45 47
ENDBRANCH 43 45
ENDBRANCH 37 41
ENDBRANCH 35 37
ENDBRANCH 32 33
BRANCH 32 52
ATOM     52  CB  SER C 503      81.222  27.083 -12.543  1.00 49.05 LIG 0.20  C 
BRANCH 52 53
ATOM     53 OG   SER C 503      81.189  26.002 -11.628  1.00 54.59 LIG-0.40  OA
ATOM     54 HG   SER C 503      81.896  25.553 -11.698  1.00 54.59 LIG 0.21  HD
ENDBRANCH 52 53
ENDBRANCH 32 52
ENDBRANCH 1 32
TORSDOF 25
ENDMDL
MODEL 11
USER: ADFR SOLUTION from run 64
USER: SCORE 16.208613 LL:  -3.754 LR: -14.113 RR:   0.000 FEB:  -6.655
USER: RMSD 6.648816
USER: SEED 63
USER: STATUS searching
USER: GENES 27
USER: genes 0 Translation |==|  0.69355 0.35733 0.42117
USER: genes 1 Rotation |==|  0.44848 0.64026 0.11615 0.78343
USER: genes 2 Torsion [C]-N--CA-[CB] |==|  0.13156
USER: genes 3 Torsion [N]-CA--C-[N] |==|  0.16422
USER: genes 4 Torsion [C]-N--CA-[C] |==|  0.20483
USER: genes 5 Torsion [N]-CA--CB-[OG] |==|  0.25019
USER: genes 6 Torsion [CA]-CB--OG-[HG] |==|  0.67652
USER: genes 7 Torsion [N]-CA--C-[N] |==|  0.03657
USER: genes 8 Torsion [C]-N--CA-[CB] |==|  0.75927
USER: genes 9 Torsion [N]-CA--C-[O] |==|  0.11306
USER: genes 10 Torsion [N]-CA--CB-[CG] |==|  0.02100
USER: genes 11 Torsion [CA]-CB--CG-[CD] |==|  0.36378
USER: genes 12 Torsion [CB]-CG--CD-[NE2] |==|  0.93381
USER: genes 13 Torsion [N]-CA--CB-[CG] |==|  0.67035
USER: genes 14 Torsion [CA]-CB--CG-[OD1] |==|  0.66246
USER: genes 15 Torsion [N]-C--CA-[N] |==|  0.88324
USER: genes 16 Torsion [C]-CA--N-[C] |==|  0.22213
USER: genes 17 Torsion [N]-C--CA-[N] |==|  0.16693
USER: genes 18 Torsion [C]-CA--CB-[OG] |==|  0.70183
USER: genes 19 Torsion [CA]-CB--OG-[HG] |==|  0.78182
USER: genes 20 Torsion [C]-CA--N-[C] |==|  0.76339
USER: genes 21 Torsion [N]-C--CA-[N] |==|  0.54531
USER: genes 22 Torsion [C]-CA--CB-[CG] |==|  0.67171
USER: genes 23 Torsion [CA]-CB--CG-[CD] |==|  0.20405
USER: genes 24 Torsion [CB]-CG--CD-[OE1] |==|  0.75582
USER: genes 25 Torsion [C]-CA--CB-[OG] |==|  0.41771
USER: genes 26 Torsion [CA]-CB--OG-[HG] |==|  0.05656
ROOT
ATOM      1  C   SER C 503      82.610  23.362 -16.022  1.00 42.27 LIG 0.24  C 
ATOM      2 O    SER C 503      82.648  22.213 -16.454  1.00 46.84 LIG-0.27  OA
ATOM      3  N   ASP C 504      81.480  24.018 -15.792  1.00 51.15 LIG-0.34  N 
ATOM      4 H    ASP C 504      81.449  24.783 -15.400  1.00 51.15 LIG 0.16  HD
ENDROOT
BRANCH 3 5
ATOM      5  CA  ASP C 504      80.171  23.501 -16.186  1.00 56.79 LIG 0.19  C 
BRANCH 5 6
ATOM      6  C   ASP C 504      79.054  24.353 -15.564  1.00 67.42 LIG 0.24  C 
ATOM      7  N   SER C 505      79.056  25.644 -15.883  1.00 81.52 LIG-0.34  N 
ATOM      8 H    SER C 505      79.642  26.009 -16.395  1.00 81.52 LIG 0.16  HD
ATOM      9 O    ASP C 504      78.211  23.849 -14.820  1.00 66.01 LIG-0.27  OA
BRANCH 7 10
ATOM     10  CA  SER C 505      78.043  26.568 -15.378  1.00 90.64 LIG 0.20  C 
BRANCH 10 11
ATOM     11  CB  SER C 505      76.645  25.993 -15.574  1.00 89.01 LIG 0.20  C 
BRANCH 11 12
ATOM     12 OG   SER C 505      76.262  25.233 -14.444  1.00 87.22 LIG-0.40  OA
ATOM     13 HG   SER C 505      76.156  24.431 -14.669  1.00 87.22 LIG 0.21  HD
ENDBRANCH 11 12
ENDBRANCH 10 11
BRANCH 10 14
ATOM     14  C   SER C 505      78.289  26.871 -13.903  1.00 98.93 LIG 0.24  C 
ATOM     15  N   GLN C 506      79.470  26.501 -13.415  1.00110.12 LIG-0.35  N 
ATOM     16 H    GLN C 506      80.133  26.248 -13.900  1.00110.12 LIG 0.16  HD
ATOM     17 O    SER C 505      77.432  27.441 -13.226  1.00 94.47 LIG-0.27  OA
BRANCH 15 18
ATOM     18  CA  GLN C 506      79.735  26.497 -11.981  1.00115.19 LIG 0.16  C 
BRANCH 18 19
ATOM     19  C   GLN C 506      78.514  26.069 -11.169  1.00118.66 LIG 0.22  C 
ATOM     20 O    GLN C 506      77.792  25.146 -11.549  1.00117.46 LIG-0.29  OA
ENDBRANCH 18 19
BRANCH 18 21
ATOM     21  CB  GLN C 506      80.211  27.886 -11.544  1.00118.15 LIG 0.04  C 
BRANCH 21 22
ATOM     22  CG  GLN C 506      80.111  28.948 -12.650  1.00119.48 LIG 0.10  C 
BRANCH 22 23
ATOM     23  CD  GLN C 506      79.428  30.241 -12.205  1.00116.76 LIG 0.21  C 
ATOM     24  NE2 GLN C 506      78.600  30.150 -11.169  1.00111.94 LIG-0.37  N 
ATOM     25 21HE GLN C 506      78.471  29.390 -10.788  1.00111.94 LIG 0.16  HD
ATOM     26 22HE GLN C 506      78.194  30.851 -10.880  1.00111.94 LIG 0.16  HD
ATOM     27 OE1  GLN C 506      79.648  31.305 -12.783  1.00116.06 LIG-0.27  OA
ENDBRANCH 22 23
ENDBRANCH 21 22
ENDBRANCH 18 21
ENDBRANCH 15 18
ENDBRANCH 10 14
ENDBRANCH 7 10
ENDBRANCH 5 6
BRANCH 5 28
ATOM     28  CB  ASP C 504      80.040  22.029 -15.756  1.00 57.84 LIG 0.15  C 
BRANCH 28 29
ATOM     29  CG  ASP C 504      79.836  21.074 -16.927  1.00 60.92 LIG 0.17  C 
ATOM     30 OD2  ASP C 504      80.711  21.042 -17.825  1.00 60.43 LIG-0.65  OA
ATOM     31 OD1  ASP C 504      78.812  20.357 -16.953  1.00 59.69 LIG-0.65  OA
ENDBRANCH 28 29
ENDBRANCH 5 28
ENDBRANCH 3 5
BRANCH 1 32
ATOM     32  CA  SER C 503      83.890  24.111 -15.700  1.00 44.19 LIG 0.20  C 
BRANCH 32 33
ATOM     33  N   SER C 503      83.801  25.504 -16.143  1.00 47.77 LIG-0.34  N 
ATOM     34 H    SER C 503      84.195  25.668 -16.890  1.00 47.77 LIG 0.16  HD
ATOM     35  C   SER C 502      83.155  26.420 -15.422  1.00 50.79 LIG 0.24  C 
ATOM     36 O    SER C 502      82.365  26.134 -14.533  1.00 48.58 LIG-0.27  OA
BRANCH 35 37
ATOM     37  CA  SER C 502      83.451  27.873 -15.745  1.00 60.54 LIG 0.20  C 
BRANCH 37 38
ATOM     38  CB  SER C 502      82.718  28.797 -14.788  1.00 53.64 LIG 0.20  C 
BRANCH 38 39
ATOM     39 OG   SER C 502      81.641  29.448 -15.423  1.00 59.09 LIG-0.40  OA
ATOM     40 HG   SER C 502      81.933  30.086 -15.885  1.00 59.09 LIG 0.21  HD
ENDBRANCH 38 39
ENDBRANCH 37 38
BRANCH 37 41
ATOM     41  N   SER C 502      83.091  28.114 -17.137  1.00 72.56 LIG-0.34  N 
ATOM     42 H    SER C 502      82.302  28.432 -17.260  1.00 72.56 LIG 0.16  HD
ATOM     43  C   GLU C 501      83.958  27.844 -18.108  1.00101.90 LIG 0.26  C 
ATOM     44 O    GLU C 501      85.167  27.740 -17.900  1.00103.22 LIG-0.27  OA
BRANCH 43 45
ATOM     45  CA  GLU C 501      83.396  27.688 -19.528  1.00101.55 LIG 0.40  C 
ATOM     46  N   GLU C 501      84.373  27.029 -20.389  1.00100.94 LIG 0.61  N 
BRANCH 45 47
ATOM     47  CB  GLU C 501      82.088  26.893 -19.507  1.00104.94 LIG 0.06  C 
BRANCH 47 48
ATOM     48  CG  GLU C 501      82.141  25.589 -20.283  1.00111.45 LIG 0.12  C 
BRANCH 48 49
ATOM     49  CD  GLU C 501      82.949  24.522 -19.573  1.00115.68 LIG 0.17  C 
ATOM     50 OE1  GLU C 501      84.182  24.469 -19.776  1.00117.56 LIG-0.65  OA
ATOM     51 OE2  GLU C 501      82.347  23.737 -18.810  1.00122.11 LIG-0.65  OA
ENDBRANCH 48 49
ENDBRANCH 47 48
ENDBRANCH 45 47
ENDBRANCH 43 45
ENDBRANCH 37 41
ENDBRANCH 35 37
ENDBRANCH 32 33
BRANCH 32 52
ATOM     52  CB  SER C 503      84.160  24.029 -14.204  1.00 49.05 LIG 0.20  C 
BRANCH 52 53
ATOM     53 OG   SER C 503      85.552  24.077 -13.949  1.00 54.59 LIG-0.40  OA
ATOM     54 HG   SER C 503      85.947  24.414 -14.610  1.00 54.59 LIG 0.21  HD
ENDBRANCH 52 53
ENDBRANCH 32 52
ENDBRANCH 1 32
TORSDOF 25
ENDMDL
MODEL 12
USER: ADFR SOLUTION from run 4
USER: SCORE 16.716182 LL:  -3.424 LR: -14.061 RR:   0.000 FEB:  -6.603
USER: RMSD 7.564297
USER: SEED 326298
USER: STATUS no improvement in best in 2 clusters for 5 generations
USER: GENES 27
USER: genes 0 Translation |==|  0.58614 0.37992 0.25348
USER: genes 1 Rotation |==|  0.27534 0.32726 0.18557 0.76613
USER: genes 2 Torsion [C]-N--CA-[CB] |==|  0.77331
USER: genes 3 Torsion [N]-CA--C-[N] |==|  0.21854
USER: genes 4 Torsion [C]-N--CA-[C] |==|  0.55018
USER: genes 5 Torsion [N]-CA--CB-[OG] |==|  0.14831
USER: genes 6 Torsion [CA]-CB--OG-[HG] |==|  0.28860
USER: genes 7 Torsion [N]-CA--C-[N] |==|  0.43346
USER: genes 8 Torsion [C]-N--CA-[CB] |==|  0.76036
USER: genes 9 Torsion [N]-CA--C-[O] |==|  0.41639
USER: genes 10 Torsion [N]-CA--CB-[CG] |==|  0.89177
USER: genes 11 Torsion [CA]-CB--CG-[CD] |==|  0.84932
USER: genes 12 Torsion [CB]-CG--CD-[NE2] |==|  0.67141
USER: genes 13 Torsion [N]-CA--CB-[CG] |==|  0.13886
USER: genes 14 Torsion [CA]-CB--CG-[OD1] |==|  0.24537
USER: genes 15 Torsion [N]-C--CA-[N] |==|  0.42244
USER: genes 16 Torsion [C]-CA--N-[C] |==|  0.78338
USER: genes 17 Torsion [N]-C--CA-[N] |==|  0.86435
USER: genes 18 Torsion [C]-CA--CB-[OG] |==|  0.54108
USER: genes 19 Torsion [CA]-CB--OG-[HG] |==|  0.11928
USER: genes 20 Torsion [C]-CA--N-[C] |==|  0.72911
USER: genes 21 Torsion [N]-C--CA-[N] |==|  0.77213
USER: genes 22 Torsion [C]-CA--CB-[CG] |==|  0.48062
USER: genes 23 Torsion [CA]-CB--CG-[CD] |==|  0.23101
USER: genes 24 Torsion [CB]-CG--CD-[OE1] |==|  0.45296
USER: genes 25 Torsion [C]-CA--CB-[OG] |==|  0.68043
USER: genes 26 Torsion [CA]-CB--OG-[HG] |==|  0.66740
ROOT
ATOM      1  C   SER C 503      80.757  23.836 -19.166  1.00 42.27 LIG 0.24  C 
ATOM      2 O    SER C 503      81.216  23.358 -18.132  1.00 46.84 LIG-0.27  OA
ATOM      3  N   ASP C 504      79.504  23.654 -19.561  1.00 51.15 LIG-0.34  N 
ATOM      4 H    ASP C 504      79.155  24.065 -20.231  1.00 51.15 LIG 0.16  HD
ENDROOT
BRANCH 3 5
ATOM      5  CA  ASP C 504      78.590  22.730 -18.892  1.00 56.79 LIG 0.19  C 
BRANCH 5 6
ATOM      6  C   ASP C 504      78.763  22.820 -17.369  1.00 67.42 LIG 0.24  C 
ATOM      7  N   SER C 505      78.179  23.856 -16.774  1.00 81.52 LIG-0.34  N 
ATOM      8 H    SER C 505      77.734  24.460 -17.194  1.00 81.52 LIG 0.16  HD
ATOM      9 O    ASP C 504      79.405  21.969 -16.751  1.00 66.01 LIG-0.27  OA
BRANCH 7 10
ATOM     10  CA  SER C 505      78.246  24.059 -15.329  1.00 90.64 LIG 0.20  C 
BRANCH 10 11
ATOM     11  CB  SER C 505      79.620  24.581 -14.922  1.00 89.01 LIG 0.20  C 
BRANCH 11 12
ATOM     12 OG   SER C 505      79.949  25.735 -15.671  1.00 87.22 LIG-0.40  OA
ATOM     13 HG   SER C 505      79.853  26.417 -15.191  1.00 87.22 LIG 0.21  HD
ENDBRANCH 11 12
ENDBRANCH 10 11
BRANCH 10 14
ATOM     14  C   SER C 505      77.156  25.026 -14.877  1.00 98.93 LIG 0.24  C 
ATOM     15  N   GLN C 506      76.775  24.932 -13.606  1.00110.12 LIG-0.35  N 
ATOM     16 H    GLN C 506      77.197  24.479 -13.010  1.00110.12 LIG 0.16  HD
ATOM     17 O    SER C 505      76.680  25.849 -15.661  1.00 94.47 LIG-0.27  OA
BRANCH 15 18
ATOM     18  CA  GLN C 506      75.580  25.608 -13.116  1.00115.19 LIG 0.16  C 
BRANCH 18 19
ATOM     19  C   GLN C 506      74.452  25.609 -14.147  1.00118.66 LIG 0.22  C 
ATOM     20 O    GLN C 506      73.271  25.608 -13.793  1.00117.46 LIG-0.29  OA
ENDBRANCH 18 19
BRANCH 18 21
ATOM     21  CB  GLN C 506      75.934  27.042 -12.707  1.00118.15 LIG 0.04  C 
BRANCH 21 22
ATOM     22  CG  GLN C 506      77.297  27.164 -12.009  1.00119.48 LIG 0.10  C 
BRANCH 22 23
ATOM     23  CD  GLN C 506      77.455  26.243 -10.798  1.00116.76 LIG 0.21  C 
ATOM     24  NE2 GLN C 506      77.652  26.834  -9.624  1.00111.94 LIG-0.37  N 
ATOM     25 21HE GLN C 506      77.687  27.692  -9.575  1.00111.94 LIG 0.16  HD
ATOM     26 22HE GLN C 506      77.744  26.358  -8.914  1.00111.94 LIG 0.16  HD
ATOM     27 OE1  GLN C 506      77.396  25.020 -10.921  1.00116.06 LIG-0.27  OA
ENDBRANCH 22 23
ENDBRANCH 21 22
ENDBRANCH 18 21
ENDBRANCH 15 18
ENDBRANCH 10 14
ENDBRANCH 7 10
ENDBRANCH 5 6
BRANCH 5 28
ATOM     28  CB  ASP C 504      78.844  21.295 -19.388  1.00 57.84 LIG 0.15  C 
BRANCH 28 29
ATOM     29  CG  ASP C 504      80.314  20.892 -19.341  1.00 60.92 LIG 0.17  C 
ATOM     30 OD2  ASP C 504      81.015  21.089 -20.363  1.00 60.43 LIG-0.65  OA
ATOM     31 OD1  ASP C 504      80.771  20.385 -18.294  1.00 59.69 LIG-0.65  OA
ENDBRANCH 28 29
ENDBRANCH 5 28
ENDBRANCH 3 5
BRANCH 1 32
ATOM     32  CA  SER C 503      81.617  24.703 -20.067  1.00 44.19 LIG 0.20  C 
BRANCH 32 33
ATOM     33  N   SER C 503      82.670  25.369 -19.296  1.00 47.77 LIG-0.34  N 
ATOM     34 H    SER C 503      83.448  25.009 -19.368  1.00 47.77 LIG 0.16  HD
ATOM     35  C   SER C 502      82.408  26.442 -18.552  1.00 50.79 LIG 0.24  C 
ATOM     36 O    SER C 502      81.392  27.111 -18.678  1.00 48.58 LIG-0.27  OA
BRANCH 35 37
ATOM     37  CA  SER C 502      83.441  26.811 -17.502  1.00 60.54 LIG 0.20  C 
BRANCH 37 38
ATOM     38  CB  SER C 502      84.663  27.442 -18.148  1.00 53.64 LIG 0.20  C 
BRANCH 38 39
ATOM     39 OG   SER C 502      85.754  27.483 -17.257  1.00 59.09 LIG-0.40  OA
ATOM     40 HG   SER C 502      85.806  26.754 -16.844  1.00 59.09 LIG 0.21  HD
ENDBRANCH 38 39
ENDBRANCH 37 38
BRANCH 37 41
ATOM     41  N   SER C 502      83.771  25.609 -16.745  1.00 72.56 LIG-0.34  N 
ATOM     42 H    SER C 502      84.354  25.095 -17.112  1.00 72.56 LIG 0.16  HD
ATOM     43  C   GLU C 501      83.184  25.374 -15.576  1.00101.90 LIG 0.26  C 
ATOM     44 O    GLU C 501      82.648  26.267 -14.917  1.00103.22 LIG-0.27  OA
BRANCH 43 45
ATOM     45  CA  GLU C 501      83.217  23.933 -15.050  1.00101.55 LIG 0.40  C 
ATOM     46  N   GLU C 501      82.157  23.143 -15.669  1.00100.94 LIG 0.61  N 
BRANCH 45 47
ATOM     47  CB  GLU C 501      84.581  23.291 -15.320  1.00104.94 LIG 0.06  C 
BRANCH 47 48
ATOM     48  CG  GLU C 501      84.760  21.923 -14.686  1.00111.45 LIG 0.12  C 
BRANCH 48 49
ATOM     49  CD  GLU C 501      84.167  20.811 -15.526  1.00115.68 LIG 0.17  C 
ATOM     50 OE1  GLU C 501      84.516  19.633 -15.294  1.00117.56 LIG-0.65  OA
ATOM     51 OE2  GLU C 501      83.350  21.119 -16.419  1.00122.11 LIG-0.65  OA
ENDBRANCH 48 49
ENDBRANCH 47 48
ENDBRANCH 45 47
ENDBRANCH 43 45
ENDBRANCH 37 41
ENDBRANCH 35 37
ENDBRANCH 32 33
BRANCH 32 52
ATOM     52  CB  SER C 503      82.211  23.844 -21.175  1.00 49.05 LIG 0.20  C 
BRANCH 52 53
ATOM     53 OG   SER C 503      83.621  23.786 -21.054  1.00 54.59 LIG-0.40  OA
ATOM     54 HG   SER C 503      83.976  24.100 -21.748  1.00 54.59 LIG 0.21  HD
ENDBRANCH 52 53
ENDBRANCH 32 52
ENDBRANCH 1 32
TORSDOF 25
ENDMDL
MODEL 13
USER: ADFR SOLUTION from run 176
USER: SCORE 16.214052 LL:  -4.273 LR: -13.893 RR:   0.000 FEB:  -6.436
USER: RMSD 4.604718
USER: SEED 175
USER: STATUS no improvement in best in 2 clusters for 5 generations
USER: GENES 27
USER: genes 0 Translation |==|  0.49444 0.46858 0.46536
USER: genes 1 Rotation |==|  0.72543 0.18185 0.34448 0.77161
USER: genes 2 Torsion [C]-N--CA-[CB] |==|  0.28406
USER: genes 3 Torsion [N]-CA--C-[N] |==|  0.75977
USER: genes 4 Torsion [C]-N--CA-[C] |==|  0.78470
USER: genes 5 Torsion [N]-CA--CB-[OG] |==|  0.58504
USER: genes 6 Torsion [CA]-CB--OG-[HG] |==|  0.05510
USER: genes 7 Torsion [N]-CA--C-[N] |==|  0.38658
USER: genes 8 Torsion [C]-N--CA-[CB] |==|  0.23034
USER: genes 9 Torsion [N]-CA--C-[O] |==|  0.92979
USER: genes 10 Torsion [N]-CA--CB-[CG] |==|  0.05588
USER: genes 11 Torsion [CA]-CB--CG-[CD] |==|  0.24024
USER: genes 12 Torsion [CB]-CG--CD-[NE2] |==|  0.14973
USER: genes 13 Torsion [N]-CA--CB-[CG] |==|  0.53756
USER: genes 14 Torsion [CA]-CB--CG-[OD1] |==|  0.43323
USER: genes 15 Torsion [N]-C--CA-[N] |==|  0.47554
USER: genes 16 Torsion [C]-CA--N-[C] |==|  0.77163
USER: genes 17 Torsion [N]-C--CA-[N] |==|  0.03889
USER: genes 18 Torsion [C]-CA--CB-[OG] |==|  0.22872
USER: genes 19 Torsion [CA]-CB--OG-[HG] |==|  0.04634
USER: genes 20 Torsion [C]-CA--N-[C] |==|  0.75120
USER: genes 21 Torsion [N]-C--CA-[N] |==|  0.18631
USER: genes 22 Torsion [C]-CA--CB-[CG] |==|  0.34289
USER: genes 23 Torsion [CA]-CB--CG-[CD] |==|  0.86829
USER: genes 24 Torsion [CB]-CG--CD-[OE1] |==|  0.80187
USER: genes 25 Torsion [C]-CA--CB-[OG] |==|  0.62009
USER: genes 26 Torsion [CA]-CB--OG-[HG] |==|  0.29814
ROOT
ATOM      1  C   SER C 503      79.175  25.698 -15.193  1.00 42.27 LIG 0.24  C 
ATOM      2 O    SER C 503      79.031  24.871 -14.296  1.00 46.84 LIG-0.27  OA
ATOM      3  N   ASP C 504      79.992  25.523 -16.223  1.00 51.15 LIG-0.34  N 
ATOM      4 H    ASP C 504      80.023  26.054 -16.899  1.00 51.15 LIG 0.16  HD
ENDROOT
BRANCH 3 5
ATOM      5  CA  ASP C 504      80.928  24.403 -16.310  1.00 56.79 LIG 0.19  C 
BRANCH 5 6
ATOM      6  C   ASP C 504      82.304  24.895 -16.781  1.00 67.42 LIG 0.24  C 
ATOM      7  N   SER C 505      82.480  24.968 -18.097  1.00 81.52 LIG-0.34  N 
ATOM      8 H    SER C 505      81.880  24.749 -18.673  1.00 81.52 LIG 0.16  HD
ATOM      9 O    ASP C 504      83.180  25.204 -15.971  1.00 66.01 LIG-0.27  OA
BRANCH 7 10
ATOM     10  CA  SER C 505      83.733  25.436 -18.686  1.00 90.64 LIG 0.20  C 
BRANCH 10 11
ATOM     11  CB  SER C 505      83.853  24.971 -20.133  1.00 89.01 LIG 0.20  C 
BRANCH 11 12
ATOM     12 OG   SER C 505      85.212  24.779 -20.477  1.00 87.22 LIG-0.40  OA
ATOM     13 HG   SER C 505      85.668  24.690 -19.778  1.00 87.22 LIG 0.21  HD
ENDBRANCH 11 12
ENDBRANCH 10 11
BRANCH 10 14
ATOM     14  C   SER C 505      83.820  26.957 -18.609  1.00 98.93 LIG 0.24  C 
ATOM     15  N   GLN C 506      85.007  27.464 -18.289  1.00110.12 LIG-0.35  N 
ATOM     16 H    GLN C 506      85.736  27.008 -18.272  1.00110.12 LIG 0.16  HD
ATOM     17 O    SER C 505      82.834  27.657 -18.848  1.00 94.47 LIG-0.27  OA
BRANCH 15 18
ATOM     18  CA  GLN C 506      85.166  28.869 -17.932  1.00115.19 LIG 0.16  C 
BRANCH 18 19
ATOM     19  C   GLN C 506      86.577  29.381 -18.218  1.00118.66 LIG 0.22  C 
ATOM     20 O    GLN C 506      87.537  28.610 -18.247  1.00117.46 LIG-0.29  OA
ENDBRANCH 18 19
BRANCH 18 21
ATOM     21  CB  GLN C 506      84.814  29.065 -16.453  1.00118.15 LIG 0.04  C 
BRANCH 21 22
ATOM     22  CG  GLN C 506      84.873  27.769 -15.629  1.00119.48 LIG 0.10  C 
BRANCH 22 23
ATOM     23  CD  GLN C 506      86.264  27.449 -15.081  1.00116.76 LIG 0.21  C 
ATOM     24  NE2 GLN C 506      86.857  28.403 -14.370  1.00111.94 LIG-0.37  N 
ATOM     25 21HE GLN C 506      86.458  29.154 -14.242  1.00111.94 LIG 0.16  HD
ATOM     26 22HE GLN C 506      87.639  28.269 -14.039  1.00111.94 LIG 0.16  HD
ATOM     27 OE1  GLN C 506      86.792  26.357 -15.291  1.00116.06 LIG-0.27  OA
ENDBRANCH 22 23
ENDBRANCH 21 22
ENDBRANCH 18 21
ENDBRANCH 15 18
ENDBRANCH 10 14
ENDBRANCH 7 10
ENDBRANCH 5 6
BRANCH 5 28
ATOM     28  CB  ASP C 504      80.372  23.332 -17.265  1.00 57.84 LIG 0.15  C 
BRANCH 28 29
ATOM     29  CG  ASP C 504      81.105  21.998 -17.170  1.00 60.92 LIG 0.17  C 
ATOM     30 OD2  ASP C 504      82.283  22.000 -16.739  1.00 60.43 LIG-0.65  OA
ATOM     31 OD1  ASP C 504      80.513  20.954 -17.518  1.00 59.69 LIG-0.65  OA
ENDBRANCH 28 29
ENDBRANCH 5 28
ENDBRANCH 3 5
BRANCH 1 32
ATOM     32  CA  SER C 503      78.390  26.997 -15.183  1.00 44.19 LIG 0.20  C 
BRANCH 32 33
ATOM     33  N   SER C 503      77.380  26.984 -14.122  1.00 47.77 LIG-0.34  N 
ATOM     34 H    SER C 503      77.616  27.384 -13.398  1.00 47.77 LIG 0.16  HD
ATOM     35  C   SER C 502      76.200  26.389 -14.297  1.00 50.79 LIG 0.24  C 
ATOM     36 O    SER C 502      75.763  26.085 -15.398  1.00 48.58 LIG-0.27  OA
BRANCH 35 37
ATOM     37  CA  SER C 502      75.400  26.084 -13.044  1.00 60.54 LIG 0.20  C 
BRANCH 37 38
ATOM     38  CB  SER C 502      73.931  26.415 -13.250  1.00 53.64 LIG 0.20  C 
BRANCH 38 39
ATOM     39 OG   SER C 502      73.256  25.371 -13.912  1.00 59.09 LIG-0.40  OA
ATOM     40 HG   SER C 502      73.716  24.670 -13.873  1.00 59.09 LIG 0.21  HD
ENDBRANCH 38 39
ENDBRANCH 37 38
BRANCH 37 41
ATOM     41  N   SER C 502      75.987  26.827 -11.935  1.00 72.56 LIG-0.34  N 
ATOM     42 H    SER C 502      75.659  27.612 -11.808  1.00 72.56 LIG 0.16  HD
ATOM     43  C   GLU C 501      76.956  26.284 -11.205  1.00101.90 LIG 0.26  C 
ATOM     44 O    GLU C 501      77.150  25.068 -11.170  1.00103.22 LIG-0.27  OA
BRANCH 43 45
ATOM     45  CA  GLU C 501      77.825  27.235 -10.372  1.00101.55 LIG 0.40  C 
ATOM     46  N   GLU C 501      77.032  27.844  -9.308  1.00100.94 LIG 0.61  N 
BRANCH 45 47
ATOM     47  CB  GLU C 501      79.024  26.490  -9.778  1.00104.94 LIG 0.06  C 
BRANCH 47 48
ATOM     48  CG  GLU C 501      80.370  27.088 -10.145  1.00111.45 LIG 0.12  C 
BRANCH 48 49
ATOM     49  CD  GLU C 501      80.489  27.386 -11.626  1.00115.68 LIG 0.17  C 
ATOM     50 OE1  GLU C 501      80.590  26.428 -12.424  1.00117.56 LIG-0.65  OA
ATOM     51 OE2  GLU C 501      80.481  28.581 -11.989  1.00122.11 LIG-0.65  OA
ENDBRANCH 48 49
ENDBRANCH 47 48
ENDBRANCH 45 47
ENDBRANCH 43 45
ENDBRANCH 37 41
ENDBRANCH 35 37
ENDBRANCH 32 33
BRANCH 32 52
ATOM     52  CB  SER C 503      79.350  28.165 -15.010  1.00 49.05 LIG 0.20  C 
BRANCH 52 53
ATOM     53 OG   SER C 503      78.828  29.100 -14.082  1.00 54.59 LIG-0.40  OA
ATOM     54 HG   SER C 503      79.262  29.054 -13.363  1.00 54.59 LIG 0.21  HD
ENDBRANCH 52 53
ENDBRANCH 32 52
ENDBRANCH 1 32
TORSDOF 25
ENDMDL
MODEL 14
USER: ADFR SOLUTION from run 51
USER: SCORE 15.731004 LL:  -4.082 LR: -13.853 RR:   0.000 FEB:  -6.395
USER: RMSD 6.380290
USER: SEED 50
USER: STATUS no improvement in best in 3 clusters for 5 generations
USER: GENES 27
USER: genes 0 Translation |==|  0.65025 0.38997 0.42322
USER: genes 1 Rotation |==|  0.29663 0.17522 0.18164 0.54244
USER: genes 2 Torsion [C]-N--CA-[CB] |==|  0.74601
USER: genes 3 Torsion [N]-CA--C-[N] |==|  0.23389
USER: genes 4 Torsion [C]-N--CA-[C] |==|  0.19440
USER: genes 5 Torsion [N]-CA--CB-[OG] |==|  0.90460
USER: genes 6 Torsion [CA]-CB--OG-[HG] |==|  0.42262
USER: genes 7 Torsion [N]-CA--C-[N] |==|  0.66486
USER: genes 8 Torsion [C]-N--CA-[CB] |==|  0.44639
USER: genes 9 Torsion [N]-CA--C-[O] |==|  0.05749
USER: genes 10 Torsion [N]-CA--CB-[CG] |==|  0.16731
USER: genes 11 Torsion [CA]-CB--CG-[CD] |==|  0.73066
USER: genes 12 Torsion [CB]-CG--CD-[NE2] |==|  0.83828
USER: genes 13 Torsion [N]-CA--CB-[CG] |==|  0.82068
USER: genes 14 Torsion [CA]-CB--CG-[OD1] |==|  0.62289
USER: genes 15 Torsion [N]-C--CA-[N] |==|  0.27778
USER: genes 16 Torsion [C]-CA--N-[C] |==|  0.16916
USER: genes 17 Torsion [N]-C--CA-[N] |==|  0.47547
USER: genes 18 Torsion [C]-CA--CB-[OG] |==|  0.42984
USER: genes 19 Torsion [CA]-CB--OG-[HG] |==|  0.44902
USER: genes 20 Torsion [C]-CA--N-[C] |==|  0.75028
USER: genes 21 Torsion [N]-C--CA-[N] |==|  0.88549
USER: genes 22 Torsion [C]-CA--CB-[CG] |==|  0.90780
USER: genes 23 Torsion [CA]-CB--CG-[CD] |==|  0.77292
USER: genes 24 Torsion [CB]-CG--CD-[OE1] |==|  0.23659
USER: genes 25 Torsion [C]-CA--CB-[OG] |==|  0.59764
USER: genes 26 Torsion [CA]-CB--OG-[HG] |==|  0.92931
ROOT
ATOM      1  C   SER C 503      81.863  24.047 -15.984  1.00 42.27 LIG 0.24  C 
ATOM      2 O    SER C 503      81.454  24.470 -14.905  1.00 46.84 LIG-0.27  OA
ATOM      3  N   ASP C 504      81.063  23.605 -16.945  1.00 51.15 LIG-0.34  N 
ATOM      4 H    ASP C 504      81.339  23.400 -17.733  1.00 51.15 LIG 0.16  HD
ENDROOT
BRANCH 3 5
ATOM      5  CA  ASP C 504      79.625  23.420 -16.755  1.00 56.79 LIG 0.19  C 
BRANCH 5 6
ATOM      6  C   ASP C 504      79.088  24.440 -15.740  1.00 67.42 LIG 0.24  C 
ATOM      7  N   SER C 505      78.779  25.639 -16.223  1.00 81.52 LIG-0.34  N 
ATOM      8 H    SER C 505      78.874  25.861 -17.048  1.00 81.52 LIG 0.16  HD
ATOM      9 O    ASP C 504      78.952  24.142 -14.551  1.00 66.01 LIG-0.27  OA
BRANCH 7 10
ATOM     10  CA  SER C 505      78.241  26.701 -15.376  1.00 90.64 LIG 0.20  C 
BRANCH 10 11
ATOM     11  CB  SER C 505      77.030  26.204 -14.593  1.00 89.01 LIG 0.20  C 
BRANCH 11 12
ATOM     12 OG   SER C 505      76.293  25.275 -15.365  1.00 87.22 LIG-0.40  OA
ATOM     13 HG   SER C 505      75.893  24.742 -14.854  1.00 87.22 LIG 0.21  HD
ENDBRANCH 11 12
ENDBRANCH 10 11
BRANCH 10 14
ATOM     14  C   SER C 505      79.315  27.214 -14.421  1.00 98.93 LIG 0.24  C 
ATOM     15  N   GLN C 506      79.048  27.108 -13.123  1.00110.12 LIG-0.35  N 
ATOM     16 H    GLN C 506      78.397  26.647 -12.801  1.00110.12 LIG 0.16  HD
ATOM     17 O    SER C 505      80.370  27.683 -14.854  1.00 94.47 LIG-0.27  OA
BRANCH 15 18
ATOM     18  CA  GLN C 506      79.862  27.784 -12.119  1.00115.19 LIG 0.16  C 
BRANCH 18 19
ATOM     19  C   GLN C 506      81.197  27.079 -11.887  1.00118.66 LIG 0.22  C 
ATOM     20 O    GLN C 506      81.664  26.313 -12.732  1.00117.46 LIG-0.29  OA
ENDBRANCH 18 19
BRANCH 18 21
ATOM     21  CB  GLN C 506      79.075  27.889 -10.808  1.00118.15 LIG 0.04  C 
BRANCH 21 22
ATOM     22  CG  GLN C 506      78.672  26.527 -10.222  1.00119.48 LIG 0.10  C 
BRANCH 22 23
ATOM     23  CD  GLN C 506      77.245  26.103 -10.573  1.00116.76 LIG 0.21  C 
ATOM     24  NE2 GLN C 506      76.271  26.927 -10.201  1.00111.94 LIG-0.37  N 
ATOM     25 21HE GLN C 506      76.460  27.655  -9.783  1.00111.94 LIG 0.16  HD
ATOM     26 22HE GLN C 506      75.453  26.733 -10.378  1.00111.94 LIG 0.16  HD
ATOM     27 OE1  GLN C 506      77.027  25.050 -11.173  1.00116.06 LIG-0.27  OA
ENDBRANCH 22 23
ENDBRANCH 21 22
ENDBRANCH 18 21
ENDBRANCH 15 18
ENDBRANCH 10 14
ENDBRANCH 7 10
ENDBRANCH 5 6
BRANCH 5 28
ATOM     28  CB  ASP C 504      79.342  21.981 -16.287  1.00 57.84 LIG 0.15  C 
BRANCH 28 29
ATOM     29  CG  ASP C 504      79.708  20.926 -17.325  1.00 60.92 LIG 0.17  C 
ATOM     30 OD2  ASP C 504      80.803  21.041 -17.926  1.00 60.43 LIG-0.65  OA
ATOM     31 OD1  ASP C 504      78.913  19.986 -17.542  1.00 59.69 LIG-0.65  OA
ENDBRANCH 28 29
ENDBRANCH 5 28
ENDBRANCH 3 5
BRANCH 1 32
ATOM     32  CA  SER C 503      83.348  24.024 -16.294  1.00 44.19 LIG 0.20  C 
BRANCH 32 33
ATOM     33  N   SER C 503      83.817  25.355 -16.688  1.00 47.77 LIG-0.34  N 
ATOM     34 H    SER C 503      84.145  25.397 -17.482  1.00 47.77 LIG 0.16  HD
ATOM     35  C   SER C 502      83.727  26.394 -15.859  1.00 50.79 LIG 0.24  C 
ATOM     36 O    SER C 502      83.011  26.398 -14.868  1.00 48.58 LIG-0.27  OA
BRANCH 35 37
ATOM     37  CA  SER C 502      84.581  27.604 -16.192  1.00 60.54 LIG 0.20  C 
BRANCH 37 38
ATOM     38  CB  SER C 502      86.058  27.268 -16.080  1.00 53.64 LIG 0.20  C 
BRANCH 38 39
ATOM     39 OG   SER C 502      86.842  28.112 -16.891  1.00 59.09 LIG-0.40  OA
ATOM     40 HG   SER C 502      87.641  28.085 -16.634  1.00 59.09 LIG 0.21  HD
ENDBRANCH 38 39
ENDBRANCH 37 38
BRANCH 37 41
ATOM     41  N   SER C 502      84.191  28.695 -15.306  1.00 72.56 LIG-0.34  N 
ATOM     42 H    SER C 502      84.626  28.737 -14.566  1.00 72.56 LIG 0.16  HD
ATOM     43  C   GLU C 501      83.226  29.536 -15.667  1.00101.90 LIG 0.26  C 
ATOM     44 O    GLU C 501      82.882  29.677 -16.841  1.00103.22 LIG-0.27  OA
BRANCH 43 45
ATOM     45  CA  GLU C 501      82.560  30.358 -14.556  1.00101.55 LIG 0.40  C 
ATOM     46  N   GLU C 501      82.338  29.529 -13.375  1.00100.94 LIG 0.61  N 
BRANCH 45 47
ATOM     47  CB  GLU C 501      83.419  31.573 -14.195  1.00104.94 LIG 0.06  C 
BRANCH 47 48
ATOM     48  CG  GLU C 501      84.914  31.336 -14.319  1.00111.45 LIG 0.12  C 
BRANCH 48 49
ATOM     49  CD  GLU C 501      85.494  30.635 -13.108  1.00115.68 LIG 0.17  C 
ATOM     50 OE1  GLU C 501      85.446  29.386 -13.059  1.00117.56 LIG-0.65  OA
ATOM     51 OE2  GLU C 501      85.997  31.336 -12.205  1.00122.11 LIG-0.65  OA
ENDBRANCH 48 49
ENDBRANCH 47 48
ENDBRANCH 45 47
ENDBRANCH 43 45
ENDBRANCH 37 41
ENDBRANCH 35 37
ENDBRANCH 32 33
BRANCH 32 52
ATOM     52  CB  SER C 503      84.109  23.515 -15.077  1.00 49.05 LIG 0.20  C 
BRANCH 52 53
ATOM     53 OG   SER C 503      85.357  24.175 -14.962  1.00 54.59 LIG-0.40  OA
ATOM     54 HG   SER C 503      85.603  24.444 -15.719  1.00 54.59 LIG 0.21  HD
ENDBRANCH 52 53
ENDBRANCH 32 52
ENDBRANCH 1 32
TORSDOF 25
ENDMDL
MODEL 15
USER: ADFR SOLUTION from run 179
USER: SCORE 16.742963 LL:  -5.404 LR: -13.787 RR:   0.000 FEB:  -6.329
USER: RMSD 6.373243
USER: SEED 178
USER: STATUS no improvement in best in 3 clusters for 5 generations
USER: GENES 27
USER: genes 0 Translation |==|  0.68036 0.43502 0.44487
USER: genes 1 Rotation |==|  0.36507 0.18800 0.13440 0.52807
USER: genes 2 Torsion [C]-N--CA-[CB] |==|  0.79444
USER: genes 3 Torsion [N]-CA--C-[N] |==|  0.69874
USER: genes 4 Torsion [C]-N--CA-[C] |==|  0.79803
USER: genes 5 Torsion [N]-CA--CB-[OG] |==|  0.94709
USER: genes 6 Torsion [CA]-CB--OG-[HG] |==|  0.73055
USER: genes 7 Torsion [N]-CA--C-[N] |==|  0.82437
USER: genes 8 Torsion [C]-N--CA-[CB] |==|  0.41371
USER: genes 9 Torsion [N]-CA--C-[O] |==|  0.01621
USER: genes 10 Torsion [N]-CA--CB-[CG] |==|  0.71925
USER: genes 11 Torsion [CA]-CB--CG-[CD] |==|  0.17257
USER: genes 12 Torsion [CB]-CG--CD-[NE2] |==|  0.61820
USER: genes 13 Torsion [N]-CA--CB-[CG] |==|  0.85121
USER: genes 14 Torsion [CA]-CB--CG-[OD1] |==|  0.21041
USER: genes 15 Torsion [N]-C--CA-[N] |==|  0.30202
USER: genes 16 Torsion [C]-CA--N-[C] |==|  0.52446
USER: genes 17 Torsion [N]-C--CA-[N] |==|  0.02643
USER: genes 18 Torsion [C]-CA--CB-[OG] |==|  0.91789
USER: genes 19 Torsion [CA]-CB--OG-[HG] |==|  0.33075
USER: genes 20 Torsion [C]-CA--N-[C] |==|  0.76644
USER: genes 21 Torsion [N]-C--CA-[N] |==|  0.72379
USER: genes 22 Torsion [C]-CA--CB-[CG] |==|  0.48146
USER: genes 23 Torsion [CA]-CB--CG-[CD] |==|  0.94465
USER: genes 24 Torsion [CB]-CG--CD-[OE1] |==|  0.75041
USER: genes 25 Torsion [C]-CA--CB-[OG] |==|  0.39454
USER: genes 26 Torsion [CA]-CB--OG-[HG] |==|  0.97859
ROOT
ATOM      1  C   SER C 503      82.382  24.993 -15.578  1.00 42.27 LIG 0.24  C 
ATOM      2 O    SER C 503      81.646  25.195 -14.615  1.00 46.84 LIG-0.27  OA
ATOM      3  N   ASP C 504      81.935  24.655 -16.780  1.00 51.15 LIG-0.34  N 
ATOM      4 H    ASP C 504      82.439  24.609 -17.476  1.00 51.15 LIG 0.16  HD
ENDROOT
BRANCH 3 5
ATOM      5  CA  ASP C 504      80.535  24.325 -17.040  1.00 56.79 LIG 0.19  C 
BRANCH 5 6
ATOM      6  C   ASP C 504      79.616  25.393 -16.428  1.00 67.42 LIG 0.24  C 
ATOM      7  N   SER C 505      78.922  25.024 -15.356  1.00 81.52 LIG-0.34  N 
ATOM      8 H    SER C 505      78.959  24.237 -15.010  1.00 81.52 LIG 0.16  HD
ATOM      9 O    ASP C 504      79.544  26.523 -16.915  1.00 66.01 LIG-0.27  OA
BRANCH 7 10
ATOM     10  CA  SER C 505      78.022  25.942 -14.661  1.00 90.64 LIG 0.20  C 
BRANCH 10 11
ATOM     11  CB  SER C 505      77.093  25.178 -13.723  1.00 89.01 LIG 0.20  C 
BRANCH 11 12
ATOM     12 OG   SER C 505      77.042  23.812 -14.087  1.00 87.22 LIG-0.40  OA
ATOM     13 HG   SER C 505      76.365  23.675 -14.564  1.00 87.22 LIG 0.21  HD
ENDBRANCH 11 12
ENDBRANCH 10 11
BRANCH 10 14
ATOM     14  C   SER C 505      78.823  26.982 -13.883  1.00 98.93 LIG 0.24  C 
ATOM     15  N   GLN C 506      79.593  26.520 -12.903  1.00110.12 LIG-0.35  N 
ATOM     16 H    GLN C 506      79.776  25.688 -12.786  1.00110.12 LIG 0.16  HD
ATOM     17 O    SER C 505      78.753  28.178 -14.175  1.00 94.47 LIG-0.27  OA
BRANCH 15 18
ATOM     18  CA  GLN C 506      80.204  27.414 -11.926  1.00115.19 LIG 0.16  C 
BRANCH 18 19
ATOM     19  C   GLN C 506      81.561  27.940 -12.393  1.00118.66 LIG 0.22  C 
ATOM     20 O    GLN C 506      81.980  27.693 -13.526  1.00117.46 LIG-0.29  OA
ENDBRANCH 18 19
BRANCH 18 21
ATOM     21  CB  GLN C 506      80.343  26.688 -10.584  1.00118.15 LIG 0.04  C 
BRANCH 21 22
ATOM     22  CG  GLN C 506      79.258  27.067  -9.564  1.00119.48 LIG 0.10  C 
BRANCH 22 23
ATOM     23  CD  GLN C 506      77.840  26.711 -10.012  1.00116.76 LIG 0.21  C 
ATOM     24  NE2 GLN C 506      76.898  27.621  -9.783  1.00111.94 LIG-0.37  N 
ATOM     25 21HE GLN C 506      77.102  28.363  -9.398  1.00111.94 LIG 0.16  HD
ATOM     26 22HE GLN C 506      76.086  27.468 -10.019  1.00111.94 LIG 0.16  HD
ATOM     27 OE1  GLN C 506      77.599  25.635 -10.559  1.00116.06 LIG-0.27  OA
ENDBRANCH 22 23
ENDBRANCH 21 22
ENDBRANCH 18 21
ENDBRANCH 15 18
ENDBRANCH 10 14
ENDBRANCH 7 10
ENDBRANCH 5 6
BRANCH 5 28
ATOM     28  CB  ASP C 504      80.213  22.933 -16.469  1.00 57.84 LIG 0.15  C 
BRANCH 28 29
ATOM     29  CG  ASP C 504      81.163  21.845 -16.958  1.00 60.92 LIG 0.17  C 
ATOM     30 OD2  ASP C 504      80.750  21.049 -17.835  1.00 60.43 LIG-0.65  OA
ATOM     31 OD1  ASP C 504      82.314  21.784 -16.476  1.00 59.69 LIG-0.65  OA
ENDBRANCH 28 29
ENDBRANCH 5 28
ENDBRANCH 3 5
BRANCH 1 32
ATOM     32  CA  SER C 503      83.887  25.143 -15.446  1.00 44.19 LIG 0.20  C 
BRANCH 32 33
ATOM     33  N   SER C 503      84.257  26.552 -15.294  1.00 47.77 LIG-0.34  N 
ATOM     34 H    SER C 503      83.593  27.086 -15.179  1.00 47.77 LIG 0.16  HD
ATOM     35  C   SER C 502      85.531  26.940 -15.335  1.00 50.79 LIG 0.24  C 
ATOM     36 O    SER C 502      86.470  26.168 -15.207  1.00 48.58 LIG-0.27  OA
BRANCH 35 37
ATOM     37  CA  SER C 502      85.783  28.419 -15.567  1.00 60.54 LIG 0.20  C 
BRANCH 37 38
ATOM     38  CB  SER C 502      86.814  28.949 -14.585  1.00 53.64 LIG 0.20  C 
BRANCH 38 39
ATOM     39 OG   SER C 502      86.783  28.238 -13.370  1.00 59.09 LIG-0.40  OA
ATOM     40 HG   SER C 502      87.527  27.871 -13.241  1.00 59.09 LIG 0.21  HD
ENDBRANCH 38 39
ENDBRANCH 37 38
BRANCH 37 41
ATOM     41  N   SER C 502      84.509  29.121 -15.467  1.00 72.56 LIG-0.34  N 
ATOM     42 H    SER C 502      84.341  29.466 -14.698  1.00 72.56 LIG 0.16  HD
ATOM     43  C   GLU C 501      83.701  29.193 -16.521  1.00101.90 LIG 0.26  C 
ATOM     44 O    GLU C 501      84.104  29.019 -17.672  1.00103.22 LIG-0.27  OA
BRANCH 43 45
ATOM     45  CA  GLU C 501      82.229  29.531 -16.256  1.00101.55 LIG 0.40  C 
ATOM     46  N   GLU C 501      81.420  28.316 -16.263  1.00100.94 LIG 0.61  N 
BRANCH 45 47
ATOM     47  CB  GLU C 501      82.074  30.260 -14.917  1.00104.94 LIG 0.06  C 
BRANCH 47 48
ATOM     48  CG  GLU C 501      80.671  30.774 -14.648  1.00111.45 LIG 0.12  C 
BRANCH 48 49
ATOM     49  CD  GLU C 501      79.846  30.898 -15.913  1.00115.68 LIG 0.17  C 
ATOM     50 OE1  GLU C 501      79.874  31.977 -16.544  1.00117.56 LIG-0.65  OA
ATOM     51 OE2  GLU C 501      79.168  29.912 -16.272  1.00122.11 LIG-0.65  OA
ENDBRANCH 48 49
ENDBRANCH 47 48
ENDBRANCH 45 47
ENDBRANCH 43 45
ENDBRANCH 37 41
ENDBRANCH 35 37
ENDBRANCH 32 33
BRANCH 32 52
ATOM     52  CB  SER C 503      84.374  24.318 -14.263  1.00 49.05 LIG 0.20  C 
BRANCH 52 53
ATOM     53 OG   SER C 503      85.621  23.715 -14.561  1.00 54.59 LIG-0.40  OA
ATOM     54 HG   SER C 503      85.807  23.840 -15.371  1.00 54.59 LIG 0.21  HD
ENDBRANCH 52 53
ENDBRANCH 32 52
ENDBRANCH 1 32
TORSDOF 25
ENDMDL
MODEL 16
USER: ADFR SOLUTION from run 35
USER: SCORE 17.270409 LL:  -4.114 LR: -13.773 RR:   0.000 FEB:  -6.316
USER: RMSD 3.786581
USER: SEED 34
USER: STATUS no improvement in best in 4 clusters for 5 generations
USER: GENES 27
USER: genes 0 Translation |==|  0.43658 0.42811 0.49922
USER: genes 1 Rotation |==|  0.52678 0.41732 0.47402 0.99170
USER: genes 2 Torsion [C]-N--CA-[CB] |==|  0.57304
USER: genes 3 Torsion [N]-CA--C-[N] |==|  0.38388
USER: genes 4 Torsion [C]-N--CA-[C] |==|  0.83955
USER: genes 5 Torsion [N]-CA--CB-[OG] |==|  0.53780
USER: genes 6 Torsion [CA]-CB--OG-[HG] |==|  0.84712
USER: genes 7 Torsion [N]-CA--C-[N] |==|  0.43701
USER: genes 8 Torsion [C]-N--CA-[CB] |==|  0.45932
USER: genes 9 Torsion [N]-CA--C-[O] |==|  0.26801
USER: genes 10 Torsion [N]-CA--CB-[CG] |==|  0.90741
USER: genes 11 Torsion [CA]-CB--CG-[CD] |==|  0.29956
USER: genes 12 Torsion [CB]-CG--CD-[NE2] |==|  0.96337
USER: genes 13 Torsion [N]-CA--CB-[CG] |==|  0.56903
USER: genes 14 Torsion [CA]-CB--CG-[OD1] |==|  0.34436
USER: genes 15 Torsion [N]-C--CA-[N] |==|  0.44953
USER: genes 16 Torsion [C]-CA--N-[C] |==|  0.81916
USER: genes 17 Torsion [N]-C--CA-[N] |==|  0.93163
USER: genes 18 Torsion [C]-CA--CB-[OG] |==|  0.31593
USER: genes 19 Torsion [CA]-CB--OG-[HG] |==|  0.21152
USER: genes 20 Torsion [C]-CA--N-[C] |==|  0.81400
USER: genes 21 Torsion [N]-C--CA-[N] |==|  0.98901
USER: genes 22 Torsion [C]-CA--CB-[CG] |==|  0.32195
USER: genes 23 Torsion [CA]-CB--CG-[CD] |==|  0.95510
USER: genes 24 Torsion [CB]-CG--CD-[OE1] |==|  0.23534
USER: genes 25 Torsion [C]-CA--CB-[OG] |==|  0.87628
USER: genes 26 Torsion [CA]-CB--OG-[HG] |==|  0.16513
ROOT
ATOM      1  C   SER C 503      78.177  24.848 -14.559  1.00 42.27 LIG 0.24  C 
ATOM      2 O    SER C 503      79.267  25.204 -14.116  1.00 46.84 LIG-0.27  OA
ATOM      3  N   ASP C 504      78.011  23.767 -15.309  1.00 51.15 LIG-0.34  N 
ATOM      4 H    ASP C 504      77.240  23.464 -15.538  1.00 51.15 LIG 0.16  HD
ENDROOT
BRANCH 3 5
ATOM      5  CA  ASP C 504      79.132  22.982 -15.824  1.00 56.79 LIG 0.19  C 
BRANCH 5 6
ATOM      6  C   ASP C 504      80.345  23.889 -16.077  1.00 67.42 LIG 0.24  C 
ATOM      7  N   SER C 505      81.527  23.404 -15.710  1.00 81.52 LIG-0.34  N 
ATOM      8 H    SER C 505      81.633  22.635 -15.340  1.00 81.52 LIG 0.16  HD
ATOM      9 O    ASP C 504      80.210  24.999 -16.598  1.00 66.01 LIG-0.27  OA
BRANCH 7 10
ATOM     10  CA  SER C 505      82.767  24.151 -15.907  1.00 90.64 LIG 0.20  C 
BRANCH 10 11
ATOM     11  CB  SER C 505      83.961  23.357 -15.390  1.00 89.01 LIG 0.20  C 
BRANCH 11 12
ATOM     12 OG   SER C 505      85.101  24.190 -15.294  1.00 87.22 LIG-0.40  OA
ATOM     13 HG   SER C 505      85.246  24.553 -16.036  1.00 87.22 LIG 0.21  HD
ENDBRANCH 11 12
ENDBRANCH 10 11
BRANCH 10 14
ATOM     14  C   SER C 505      82.953  24.488 -17.384  1.00 98.93 LIG 0.24  C 
ATOM     15  N   GLN C 506      83.743  25.523 -17.656  1.00110.12 LIG-0.35  N 
ATOM     16 H    GLN C 506      84.255  25.902 -17.078  1.00110.12 LIG 0.16  HD
ATOM     17 O    SER C 505      82.402  23.816 -18.258  1.00 94.47 LIG-0.27  OA
BRANCH 15 18
ATOM     18  CA  GLN C 506      83.803  26.107 -18.991  1.00115.19 LIG 0.16  C 
BRANCH 18 19
ATOM     19  C   GLN C 506      84.517  25.197 -19.989  1.00118.66 LIG 0.22  C 
ATOM     20 O    GLN C 506      83.879  24.446 -20.729  1.00117.46 LIG-0.29  OA
ENDBRANCH 18 19
BRANCH 18 21
ATOM     21  CB  GLN C 506      84.493  27.474 -18.921  1.00118.15 LIG 0.04  C 
BRANCH 21 22
ATOM     22  CG  GLN C 506      84.223  28.234 -17.614  1.00119.48 LIG 0.10  C 
BRANCH 22 23
ATOM     23  CD  GLN C 506      85.428  28.296 -16.675  1.00116.76 LIG 0.21  C 
ATOM     24  NE2 GLN C 506      86.441  27.483 -16.955  1.00111.94 LIG-0.37  N 
ATOM     25 21HE GLN C 506      86.396  26.957 -17.634  1.00111.94 LIG 0.16  HD
ATOM     26 22HE GLN C 506      87.142  27.483 -16.457  1.00111.94 LIG 0.16  HD
ATOM     27 OE1  GLN C 506      85.445  29.067 -15.716  1.00116.06 LIG-0.27  OA
ENDBRANCH 22 23
ENDBRANCH 21 22
ENDBRANCH 18 21
ENDBRANCH 15 18
ENDBRANCH 10 14
ENDBRANCH 7 10
ENDBRANCH 5 6
BRANCH 5 28
ATOM     28  CB  ASP C 504      78.711  22.257 -17.114  1.00 57.84 LIG 0.15  C 
BRANCH 28 29
ATOM     29  CG  ASP C 504      79.528  21.000 -17.395  1.00 60.92 LIG 0.17  C 
ATOM     30 OD2  ASP C 504      80.776  21.108 -17.463  1.00 60.43 LIG-0.65  OA
ATOM     31 OD1  ASP C 504      78.934  19.911 -17.544  1.00 59.69 LIG-0.65  OA
ENDBRANCH 28 29
ENDBRANCH 5 28
ENDBRANCH 3 5
BRANCH 1 32
ATOM     32  CA  SER C 503      76.920  25.639 -14.247  1.00 44.19 LIG 0.20  C 
BRANCH 32 33
ATOM     33  N   SER C 503      77.134  26.525 -13.100  1.00 47.77 LIG-0.34  N 
ATOM     34 H    SER C 503      77.092  27.364 -13.283  1.00 47.77 LIG 0.16  HD
ATOM     35  C   SER C 502      77.374  26.036 -11.884  1.00 50.79 LIG 0.24  C 
ATOM     36 O    SER C 502      77.147  24.875 -11.574  1.00 48.58 LIG-0.27  OA
BRANCH 35 37
ATOM     37  CA  SER C 502      77.966  26.997 -10.869  1.00 60.54 LIG 0.20  C 
BRANCH 37 38
ATOM     38  CB  SER C 502      76.886  27.546  -9.953  1.00 53.64 LIG 0.20  C 
BRANCH 38 39
ATOM     39 OG   SER C 502      77.061  27.105  -8.627  1.00 59.09 LIG-0.40  OA
ATOM     40 HG   SER C 502      77.687  27.536  -8.269  1.00 59.09 LIG 0.21  HD
ENDBRANCH 38 39
ENDBRANCH 37 38
BRANCH 37 41
ATOM     41  N   SER C 502      78.669  28.049 -11.594  1.00 72.56 LIG-0.34  N 
ATOM     42 H    SER C 502      78.321  28.832 -11.528  1.00 72.56 LIG 0.16  HD
ATOM     43  C   GLU C 501      79.765  27.764 -12.290  1.00101.90 LIG 0.26  C 
ATOM     44 O    GLU C 501      80.431  26.749 -12.082  1.00103.22 LIG-0.27  OA
BRANCH 43 45
ATOM     45  CA  GLU C 501      80.197  28.770 -13.365  1.00101.55 LIG 0.40  C 
ATOM     46  N   GLU C 501      79.218  29.848 -13.471  1.00100.94 LIG 0.61  N 
BRANCH 45 47
ATOM     47  CB  GLU C 501      81.580  29.343 -13.044  1.00104.94 LIG 0.06  C 
BRANCH 47 48
ATOM     48  CG  GLU C 501      82.649  28.993 -14.064  1.00111.45 LIG 0.12  C 
BRANCH 48 49
ATOM     49  CD  GLU C 501      82.237  27.847 -14.967  1.00115.68 LIG 0.17  C 
ATOM     50 OE1  GLU C 501      81.547  28.099 -15.979  1.00117.56 LIG-0.65  OA
ATOM     51 OE2  GLU C 501      82.606  26.694 -14.660  1.00122.11 LIG-0.65  OA
ENDBRANCH 48 49
ENDBRANCH 47 48
ENDBRANCH 45 47
ENDBRANCH 43 45
ENDBRANCH 37 41
ENDBRANCH 35 37
ENDBRANCH 32 33
BRANCH 32 52
ATOM     52  CB  SER C 503      76.504  26.431 -15.479  1.00 49.05 LIG 0.20  C 
BRANCH 52 53
ATOM     53 OG   SER C 503      77.630  27.055 -16.069  1.00 54.59 LIG-0.40  OA
ATOM     54 HG   SER C 503      78.192  26.470 -16.289  1.00 54.59 LIG 0.21  HD
ENDBRANCH 52 53
ENDBRANCH 32 52
ENDBRANCH 1 32
TORSDOF 25
ENDMDL
MODEL 17
USER: ADFR SOLUTION from run 34
USER: SCORE 16.361728 LL:  -4.116 LR: -13.763 RR:   0.000 FEB:  -6.305
USER: RMSD 6.990707
USER: SEED 33
USER: STATUS searching
USER: GENES 27
USER: genes 0 Translation |==|  0.59739 0.53770 0.52751
USER: genes 1 Rotation |==|  0.66466 0.36581 0.41797 0.94514
USER: genes 2 Torsion [C]-N--CA-[CB] |==|  0.49460
USER: genes 3 Torsion [N]-CA--C-[N] |==|  0.49444
USER: genes 4 Torsion [C]-N--CA-[C] |==|  0.20229
USER: genes 5 Torsion [N]-CA--CB-[OG] |==|  0.85471
USER: genes 6 Torsion [CA]-CB--OG-[HG] |==|  0.12979
USER: genes 7 Torsion [N]-CA--C-[N] |==|  0.67181
USER: genes 8 Torsion [C]-N--CA-[CB] |==|  0.39203
USER: genes 9 Torsion [N]-CA--C-[O] |==|  0.61795
USER: genes 10 Torsion [N]-CA--CB-[CG] |==|  0.13885
USER: genes 11 Torsion [CA]-CB--CG-[CD] |==|  0.23692
USER: genes 12 Torsion [CB]-CG--CD-[NE2] |==|  0.22363
USER: genes 13 Torsion [N]-CA--CB-[CG] |==|  0.63220
USER: genes 14 Torsion [CA]-CB--CG-[OD1] |==|  0.41570
USER: genes 15 Torsion [N]-C--CA-[N] |==|  0.07961
USER: genes 16 Torsion [C]-CA--N-[C] |==|  0.17726
USER: genes 17 Torsion [N]-C--CA-[N] |==|  0.36708
USER: genes 18 Torsion [C]-CA--CB-[OG] |==|  0.52088
USER: genes 19 Torsion [CA]-CB--OG-[HG] |==|  0.21404
USER: genes 20 Torsion [C]-CA--N-[C] |==|  0.84608
USER: genes 21 Torsion [N]-C--CA-[N] |==|  0.52257
USER: genes 22 Torsion [C]-CA--CB-[CG] |==|  0.66779
USER: genes 23 Torsion [CA]-CB--CG-[CD] |==|  0.80254
USER: genes 24 Torsion [CB]-CG--CD-[OE1] |==|  0.90293
USER: genes 25 Torsion [C]-CA--CB-[OG] |==|  0.49038
USER: genes 26 Torsion [CA]-CB--OG-[HG] |==|  0.60277
ROOT
ATOM      1  C   SER C 503      80.951  27.150 -14.028  1.00 42.27 LIG 0.24  C 
ATOM      2 O    SER C 503      81.895  26.974 -13.262  1.00 46.84 LIG-0.27  OA
ATOM      3  N   ASP C 504      80.927  26.694 -15.274  1.00 51.15 LIG-0.34  N 
ATOM      4 H    ASP C 504      80.231  26.731 -15.778  1.00 51.15 LIG 0.16  HD
ENDROOT
BRANCH 3 5
ATOM      5  CA  ASP C 504      82.090  26.081 -15.914  1.00 56.79 LIG 0.19  C 
BRANCH 5 6
ATOM      6  C   ASP C 504      83.261  27.074 -15.952  1.00 67.42 LIG 0.24  C 
ATOM      7  N   SER C 505      84.396  26.621 -16.476  1.00 81.52 LIG-0.34  N 
ATOM      8 H    SER C 505      84.499  25.821 -16.773  1.00 81.52 LIG 0.16  HD
ATOM      9 O    ASP C 504      83.134  28.222 -15.522  1.00 66.01 LIG-0.27  OA
BRANCH 7 10
ATOM     10  CA  SER C 505      85.585  27.462 -16.591  1.00 90.64 LIG 0.20  C 
BRANCH 10 11
ATOM     11  CB  SER C 505      85.238  28.800 -17.235  1.00 89.01 LIG 0.20  C 
BRANCH 11 12
ATOM     12 OG   SER C 505      84.545  28.596 -18.451  1.00 87.22 LIG-0.40  OA
ATOM     13 HG   SER C 505      83.940  28.025 -18.336  1.00 87.22 LIG 0.21  HD
ENDBRANCH 11 12
ENDBRANCH 10 11
BRANCH 10 14
ATOM     14  C   SER C 505      86.216  27.681 -15.219  1.00 98.93 LIG 0.24  C 
ATOM     15  N   GLN C 506      86.269  28.938 -14.789  1.00110.12 LIG-0.35  N 
ATOM     16 H    GLN C 506      85.848  29.591 -15.159  1.00110.12 LIG 0.16  HD
ATOM     17 O    SER C 505      86.634  26.727 -14.559  1.00 94.47 LIG-0.27  OA
BRANCH 15 18
ATOM     18  CA  GLN C 506      87.066  29.315 -13.628  1.00115.19 LIG 0.16  C 
BRANCH 18 19
ATOM     19  C   GLN C 506      86.235  29.359 -12.346  1.00118.66 LIG 0.22  C 
ATOM     20 O    GLN C 506      86.375  30.274 -11.532  1.00117.46 LIG-0.29  OA
ENDBRANCH 18 19
BRANCH 18 21
ATOM     21  CB  GLN C 506      87.733  30.671 -13.882  1.00118.15 LIG 0.04  C 
BRANCH 21 22
ATOM     22  CG  GLN C 506      86.760  31.752 -14.378  1.00119.48 LIG 0.10  C 
BRANCH 22 23
ATOM     23  CD  GLN C 506      86.026  32.484 -13.254  1.00116.76 LIG 0.21  C 
ATOM     24  NE2 GLN C 506      86.695  33.454 -12.640  1.00111.94 LIG-0.37  N 
ATOM     25 21HE GLN C 506      87.500  33.639 -12.880  1.00111.94 LIG 0.16  HD
ATOM     26 22HE GLN C 506      86.324  33.897 -12.003  1.00111.94 LIG 0.16  HD
ATOM     27 OE1  GLN C 506      84.872  32.182 -12.948  1.00116.06 LIG-0.27  OA
ENDBRANCH 22 23
ENDBRANCH 21 22
ENDBRANCH 18 21
ENDBRANCH 15 18
ENDBRANCH 10 14
ENDBRANCH 7 10
ENDBRANCH 5 6
BRANCH 5 28
ATOM     28  CB  ASP C 504      81.719  25.618 -17.334  1.00 57.84 LIG 0.15  C 
BRANCH 28 29
ATOM     29  CG  ASP C 504      82.173  24.196 -17.643  1.00 60.92 LIG 0.17  C 
ATOM     30 OD2  ASP C 504      83.207  23.768 -17.077  1.00 60.43 LIG-0.65  OA
ATOM     31 OD1  ASP C 504      81.504  23.505 -18.442  1.00 59.69 LIG-0.65  OA
ENDBRANCH 28 29
ENDBRANCH 5 28
ENDBRANCH 3 5
BRANCH 1 32
ATOM     32  CA  SER C 503      79.715  27.904 -13.573  1.00 44.19 LIG 0.20  C 
BRANCH 32 33
ATOM     33  N   SER C 503      78.526  27.430 -14.287  1.00 47.77 LIG-0.34  N 
ATOM     34 H    SER C 503      78.151  28.021 -14.787  1.00 47.77 LIG 0.16  HD
ATOM     35  C   SER C 502      78.090  26.180 -14.150  1.00 50.79 LIG 0.24  C 
ATOM     36 O    SER C 502      78.774  25.280 -13.683  1.00 48.58 LIG-0.27  OA
BRANCH 35 37
ATOM     37  CA  SER C 502      76.665  25.904 -14.596  1.00 60.54 LIG 0.20  C 
BRANCH 37 38
ATOM     38  CB  SER C 502      75.742  25.769 -13.397  1.00 53.64 LIG 0.20  C 
BRANCH 38 39
ATOM     39 OG   SER C 502      74.455  25.346 -13.782  1.00 59.09 LIG-0.40  OA
ATOM     40 HG   SER C 502      74.467  24.523 -13.944  1.00 59.09 LIG 0.21  HD
ENDBRANCH 38 39
ENDBRANCH 37 38
BRANCH 37 41
ATOM     41  N   SER C 502      76.671  24.708 -15.430  1.00 72.56 LIG-0.34  N 
ATOM     42 H    SER C 502      76.143  24.081 -15.172  1.00 72.56 LIG 0.16  HD
ATOM     43  C   GLU C 501      77.457  24.644 -16.501  1.00101.90 LIG 0.26  C 
ATOM     44 O    GLU C 501      77.914  25.651 -17.042  1.00103.22 LIG-0.27  OA
BRANCH 43 45
ATOM     45  CA  GLU C 501      77.760  23.250 -17.067  1.00101.55 LIG 0.40  C 
ATOM     46  N   GLU C 501      78.778  23.338 -18.109  1.00100.94 LIG 0.61  N 
BRANCH 45 47
ATOM     47  CB  GLU C 501      78.222  22.304 -15.955  1.00104.94 LIG 0.06  C 
BRANCH 47 48
ATOM     48  CG  GLU C 501      79.619  21.744 -16.157  1.00111.45 LIG 0.12  C 
BRANCH 48 49
ATOM     49  CD  GLU C 501      79.682  20.734 -17.285  1.00115.68 LIG 0.17  C 
ATOM     50 OE1  GLU C 501      78.700  19.983 -17.473  1.00117.56 LIG-0.65  OA
ATOM     51 OE2  GLU C 501      80.717  20.695 -17.983  1.00122.11 LIG-0.65  OA
ENDBRANCH 48 49
ENDBRANCH 47 48
ENDBRANCH 45 47
ENDBRANCH 43 45
ENDBRANCH 37 41
ENDBRANCH 35 37
ENDBRANCH 32 33
BRANCH 32 52
ATOM     52  CB  SER C 503      79.550  27.742 -12.069  1.00 49.05 LIG 0.20  C 
BRANCH 52 53
ATOM     53 OG   SER C 503      78.448  28.502 -11.607  1.00 54.59 LIG-0.40  OA
ATOM     54 HG   SER C 503      78.628  28.827 -10.853  1.00 54.59 LIG 0.21  HD
ENDBRANCH 52 53
ENDBRANCH 32 52
ENDBRANCH 1 32
TORSDOF 25
ENDMDL
MODEL 18
USER: ADFR SOLUTION from run 198
USER: SCORE 15.379180 LL:  -3.661 LR: -13.730 RR:   0.000 FEB:  -6.272
USER: RMSD 6.909780
USER: SEED 197
USER: STATUS no improvement in best in 15 clusters for 5 generations
USER: GENES 27
USER: genes 0 Translation |==|  0.70094 0.35239 0.41091
USER: genes 1 Rotation |==|  0.47000 0.63690 0.10790 0.77679
USER: genes 2 Torsion [C]-N--CA-[CB] |==|  0.16111
USER: genes 3 Torsion [N]-CA--C-[N] |==|  0.83543
USER: genes 4 Torsion [C]-N--CA-[C] |==|  0.64327
USER: genes 5 Torsion [N]-CA--CB-[OG] |==|  0.22756
USER: genes 6 Torsion [CA]-CB--OG-[HG] |==|  0.06350
USER: genes 7 Torsion [N]-CA--C-[N] |==|  0.43618
USER: genes 8 Torsion [C]-N--CA-[CB] |==|  0.76463
USER: genes 9 Torsion [N]-CA--C-[O] |==|  0.31513
USER: genes 10 Torsion [N]-CA--CB-[CG] |==|  0.22293
USER: genes 11 Torsion [CA]-CB--CG-[CD] |==|  0.68838
USER: genes 12 Torsion [CB]-CG--CD-[NE2] |==|  0.81220
USER: genes 13 Torsion [N]-CA--CB-[CG] |==|  0.67681
USER: genes 14 Torsion [CA]-CB--CG-[OD1] |==|  0.63830
USER: genes 15 Torsion [N]-C--CA-[N] |==|  0.87609
USER: genes 16 Torsion [C]-CA--N-[C] |==|  0.23216
USER: genes 17 Torsion [N]-C--CA-[N] |==|  0.17521
USER: genes 18 Torsion [C]-CA--CB-[OG] |==|  0.33143
USER: genes 19 Torsion [CA]-CB--OG-[HG] |==|  0.87525
USER: genes 20 Torsion [C]-CA--N-[C] |==|  0.73685
USER: genes 21 Torsion [N]-C--CA-[N] |==|  0.57507
USER: genes 22 Torsion [C]-CA--CB-[CG] |==|  0.67578
USER: genes 23 Torsion [CA]-CB--CG-[CD] |==|  0.21213
USER: genes 24 Torsion [CB]-CG--CD-[OE1] |==|  0.78871
USER: genes 25 Torsion [C]-CA--CB-[OG] |==|  0.42581
USER: genes 26 Torsion [CA]-CB--OG-[HG] |==|  0.27562
ROOT
ATOM      1  C   SER C 503      82.737  23.258 -16.215  1.00 42.27 LIG 0.24  C 
ATOM      2 O    SER C 503      82.736  22.119 -16.676  1.00 46.84 LIG-0.27  OA
ATOM      3  N   ASP C 504      81.636  23.978 -16.044  1.00 51.15 LIG-0.34  N 
ATOM      4 H    ASP C 504      81.624  24.734 -15.633  1.00 51.15 LIG 0.16  HD
ENDROOT
BRANCH 3 5
ATOM      5  CA  ASP C 504      80.329  23.554 -16.542  1.00 56.79 LIG 0.19  C 
BRANCH 5 6
ATOM      6  C   ASP C 504      79.262  24.603 -16.195  1.00 67.42 LIG 0.24  C 
ATOM      7  N   SER C 505      79.099  24.867 -14.903  1.00 81.52 LIG-0.34  N 
ATOM      8 H    SER C 505      79.542  24.480 -14.276  1.00 81.52 LIG 0.16  HD
ATOM      9 O    ASP C 504      78.610  25.162 -17.080  1.00 66.01 LIG-0.27  OA
BRANCH 7 10
ATOM     10  CA  SER C 505      78.132  25.856 -14.430  1.00 90.64 LIG 0.20  C 
BRANCH 10 11
ATOM     11  CB  SER C 505      76.958  25.173 -13.737  1.00 89.01 LIG 0.20  C 
BRANCH 11 12
ATOM     12 OG   SER C 505      77.292  24.858 -12.399  1.00 87.22 LIG-0.40  OA
ATOM     13 HG   SER C 505      77.914  25.358 -12.141  1.00 87.22 LIG 0.21  HD
ENDBRANCH 11 12
ENDBRANCH 10 11
BRANCH 10 14
ATOM     14  C   SER C 505      78.805  26.844 -13.482  1.00 98.93 LIG 0.24  C 
ATOM     15  N   GLN C 506      78.216  28.029 -13.351  1.00110.12 LIG-0.35  N 
ATOM     16 H    GLN C 506      77.426  28.209 -13.641  1.00110.12 LIG 0.16  HD
ATOM     17 O    SER C 505      79.830  26.533 -12.872  1.00 94.47 LIG-0.27  OA
BRANCH 15 18
ATOM     18  CA  GLN C 506      78.882  29.144 -12.687  1.00115.19 LIG 0.16  C 
BRANCH 18 19
ATOM     19  C   GLN C 506      80.374  29.201 -13.011  1.00118.66 LIG 0.22  C 
ATOM     20 O    GLN C 506      80.844  30.133 -13.666  1.00117.46 LIG-0.29  OA
ENDBRANCH 18 19
BRANCH 18 21
ATOM     21  CB  GLN C 506      78.665  29.043 -11.173  1.00118.15 LIG 0.04  C 
BRANCH 21 22
ATOM     22  CG  GLN C 506      79.606  28.044 -10.482  1.00119.48 LIG 0.10  C 
BRANCH 22 23
ATOM     23  CD  GLN C 506      78.896  26.810  -9.926  1.00116.76 LIG 0.21  C 
ATOM     24  NE2 GLN C 506      78.071  27.009  -8.903  1.00111.94 LIG-0.37  N 
ATOM     25 21HE GLN C 506      77.962  27.802  -8.587  1.00111.94 LIG 0.16  HD
ATOM     26 22HE GLN C 506      77.646  26.346  -8.558  1.00111.94 LIG 0.16  HD
ATOM     27 OE1  GLN C 506      79.085  25.696 -10.414  1.00116.06 LIG-0.27  OA
ENDBRANCH 22 23
ENDBRANCH 21 22
ENDBRANCH 18 21
ENDBRANCH 15 18
ENDBRANCH 10 14
ENDBRANCH 7 10
ENDBRANCH 5 6
BRANCH 5 28
ATOM     28  CB  ASP C 504      79.963  22.184 -15.944  1.00 57.84 LIG 0.15  C 
BRANCH 28 29
ATOM     29  CG  ASP C 504      79.836  21.083 -16.991  1.00 60.92 LIG 0.17  C 
ATOM     30 OD2  ASP C 504      80.768  20.943 -17.820  1.00 60.43 LIG-0.65  OA
ATOM     31 OD1  ASP C 504      78.818  20.358 -16.989  1.00 59.69 LIG-0.65  OA
ENDBRANCH 28 29
ENDBRANCH 5 28
ENDBRANCH 3 5
BRANCH 1 32
ATOM     32  CA  SER C 503      84.035  23.917 -15.784  1.00 44.19 LIG 0.20  C 
BRANCH 32 33
ATOM     33  N   SER C 503      84.089  25.307 -16.245  1.00 47.77 LIG-0.34  N 
ATOM     34 H    SER C 503      84.518  25.423 -16.981  1.00 47.77 LIG 0.16  HD
ATOM     35  C   SER C 502      83.509  26.288 -15.554  1.00 50.79 LIG 0.24  C 
ATOM     36 O    SER C 502      82.670  26.089 -14.687  1.00 48.58 LIG-0.27  OA
BRANCH 35 37
ATOM     37  CA  SER C 502      83.948  27.703 -15.884  1.00 60.54 LIG 0.20  C 
BRANCH 37 38
ATOM     38  CB  SER C 502      83.332  28.697 -14.915  1.00 53.64 LIG 0.20  C 
BRANCH 38 39
ATOM     39 OG   SER C 502      84.320  29.397 -14.196  1.00 59.09 LIG-0.40  OA
ATOM     40 HG   SER C 502      84.906  28.859 -13.928  1.00 59.09 LIG 0.21  HD
ENDBRANCH 38 39
ENDBRANCH 37 38
BRANCH 37 41
ATOM     41  N   SER C 502      83.588  27.981 -17.269  1.00 72.56 LIG-0.34  N 
ATOM     42 H    SER C 502      82.784  28.261 -17.388  1.00 72.56 LIG 0.16  HD
ATOM     43  C   GLU C 501      84.478  27.800 -18.240  1.00101.90 LIG 0.26  C 
ATOM     44 O    GLU C 501      85.690  27.754 -18.022  1.00103.22 LIG-0.27  OA
BRANCH 43 45
ATOM     45  CA  GLU C 501      83.940  27.673 -19.671  1.00101.55 LIG 0.40  C 
ATOM     46  N   GLU C 501      84.855  26.880 -20.487  1.00100.94 LIG 0.61  N 
BRANCH 45 47
ATOM     47  CB  GLU C 501      82.547  27.038 -19.670  1.00104.94 LIG 0.06  C 
BRANCH 47 48
ATOM     48  CG  GLU C 501      82.474  25.700 -20.384  1.00111.45 LIG 0.12  C 
BRANCH 48 49
ATOM     49  CD  GLU C 501      83.059  24.570 -19.560  1.00115.68 LIG 0.17  C 
ATOM     50 OE1  GLU C 501      84.303  24.473 -19.475  1.00117.56 LIG-0.65  OA
ATOM     51 OE2  GLU C 501      82.270  23.780 -18.999  1.00122.11 LIG-0.65  OA
ENDBRANCH 48 49
ENDBRANCH 47 48
ENDBRANCH 45 47
ENDBRANCH 43 45
ENDBRANCH 37 41
ENDBRANCH 35 37
ENDBRANCH 32 33
BRANCH 32 52
ATOM     52  CB  SER C 503      84.162  23.838 -14.269  1.00 49.05 LIG 0.20  C 
BRANCH 52 53
ATOM     53 OG   SER C 503      85.525  23.857 -13.885  1.00 54.59 LIG-0.40  OA
ATOM     54 HG   SER C 503      85.738  24.634 -13.645  1.00 54.59 LIG 0.21  HD
ENDBRANCH 52 53
ENDBRANCH 32 52
ENDBRANCH 1 32
TORSDOF 25
ENDMDL
MODEL 19
USER: ADFR SOLUTION from run 51
USER: SCORE 17.120031 LL:  -4.582 LR: -13.677 RR:   0.000 FEB:  -6.220
USER: RMSD 7.046803
USER: SEED 50
USER: STATUS no improvement in best in 3 clusters for 5 generations
USER: GENES 27
USER: genes 0 Translation |==|  0.63284 0.39617 0.38614
USER: genes 1 Rotation |==|  0.69420 0.93761 0.61156 0.59133
USER: genes 2 Torsion [C]-N--CA-[CB] |==|  0.56111
USER: genes 3 Torsion [N]-CA--C-[N] |==|  0.37896
USER: genes 4 Torsion [C]-N--CA-[C] |==|  0.15836
USER: genes 5 Torsion [N]-CA--CB-[OG] |==|  0.73226
USER: genes 6 Torsion [CA]-CB--OG-[HG] |==|  0.29376
USER: genes 7 Torsion [N]-CA--C-[N] |==|  0.71109
USER: genes 8 Torsion [C]-N--CA-[CB] |==|  0.37289
USER: genes 9 Torsion [N]-CA--C-[O] |==|  0.09144
USER: genes 10 Torsion [N]-CA--CB-[CG] |==|  0.13403
USER: genes 11 Torsion [CA]-CB--CG-[CD] |==|  0.72149
USER: genes 12 Torsion [CB]-CG--CD-[NE2] |==|  0.84355
USER: genes 13 Torsion [N]-CA--CB-[CG] |==|  0.86741
USER: genes 14 Torsion [CA]-CB--CG-[OD1] |==|  0.60140
USER: genes 15 Torsion [N]-C--CA-[N] |==|  0.36369
USER: genes 16 Torsion [C]-CA--N-[C] |==|  0.85520
USER: genes 17 Torsion [N]-C--CA-[N] |==|  0.98040
USER: genes 18 Torsion [C]-CA--CB-[OG] |==|  0.52798
USER: genes 19 Torsion [CA]-CB--OG-[HG] |==|  0.42785
USER: genes 20 Torsion [C]-CA--N-[C] |==|  0.75959
USER: genes 21 Torsion [N]-C--CA-[N] |==|  0.54493
USER: genes 22 Torsion [C]-CA--CB-[CG] |==|  0.41207
USER: genes 23 Torsion [CA]-CB--CG-[CD] |==|  0.13966
USER: genes 24 Torsion [CB]-CG--CD-[OE1] |==|  0.81456
USER: genes 25 Torsion [C]-CA--CB-[OG] |==|  0.55458
USER: genes 26 Torsion [CA]-CB--OG-[HG] |==|  0.98952
ROOT
ATOM      1  C   SER C 503      81.562  24.178 -16.679  1.00 42.27 LIG 0.24  C 
ATOM      2 O    SER C 503      81.163  25.337 -16.598  1.00 46.84 LIG-0.27  OA
ATOM      3  N   ASP C 504      80.754  23.133 -16.803  1.00 51.15 LIG-0.34  N 
ATOM      4 H    ASP C 504      81.033  22.335 -16.956  1.00 51.15 LIG 0.16  HD
ENDROOT
BRANCH 3 5
ATOM      5  CA  ASP C 504      79.300  23.241 -16.689  1.00 56.79 LIG 0.19  C 
BRANCH 5 6
ATOM      6  C   ASP C 504      78.926  24.291 -15.634  1.00 67.42 LIG 0.24  C 
ATOM      7  N   SER C 505      77.942  25.124 -15.959  1.00 81.52 LIG-0.34  N 
ATOM      8 H    SER C 505      77.530  25.105 -16.713  1.00 81.52 LIG 0.16  HD
ATOM      9 O    ASP C 504      79.512  24.340 -14.550  1.00 66.01 LIG-0.27  OA
BRANCH 7 10
ATOM     10  CA  SER C 505      77.470  26.162 -15.045  1.00 90.64 LIG 0.20  C 
BRANCH 10 11
ATOM     11  CB  SER C 505      76.829  25.540 -13.810  1.00 89.01 LIG 0.20  C 
BRANCH 11 12
ATOM     12 OG   SER C 505      75.424  25.476 -13.964  1.00 87.22 LIG-0.40  OA
ATOM     13 HG   SER C 505      75.195  24.682 -14.114  1.00 87.22 LIG 0.21  HD
ENDBRANCH 11 12
ENDBRANCH 10 11
BRANCH 10 14
ATOM     14  C   SER C 505      78.623  27.077 -14.641  1.00 98.93 LIG 0.24  C 
ATOM     15  N   GLN C 506      79.118  26.895 -13.420  1.00110.12 LIG-0.35  N 
ATOM     16 H    GLN C 506      78.934  26.218 -12.922  1.00110.12 LIG 0.16  HD
ATOM     17 O    SER C 505      79.062  27.920 -15.425  1.00 94.47 LIG-0.27  OA
BRANCH 15 18
ATOM     18  CA  GLN C 506      80.034  27.856 -12.817  1.00115.19 LIG 0.16  C 
BRANCH 18 19
ATOM     19  C   GLN C 506      81.484  27.377 -12.860  1.00118.66 LIG 0.22  C 
ATOM     20 O    GLN C 506      81.896  26.687 -13.795  1.00117.46 LIG-0.29  OA
ENDBRANCH 18 19
BRANCH 18 21
ATOM     21  CB  GLN C 506      79.604  28.138 -11.374  1.00118.15 LIG 0.04  C 
BRANCH 21 22
ATOM     22  CG  GLN C 506      79.321  26.869 -10.557  1.00119.48 LIG 0.10  C 
BRANCH 22 23
ATOM     23  CD  GLN C 506      77.833  26.536 -10.429  1.00116.76 LIG 0.21  C 
ATOM     24  NE2 GLN C 506      77.055  27.482  -9.913  1.00111.94 LIG-0.37  N 
ATOM     25 21HE GLN C 506      77.395  28.233  -9.669  1.00111.94 LIG 0.16  HD
ATOM     26 22HE GLN C 506      76.211  27.343  -9.824  1.00111.94 LIG 0.16  HD
ATOM     27 OE1  GLN C 506      77.395  25.446 -10.795  1.00116.06 LIG-0.27  OA
ENDBRANCH 22 23
ENDBRANCH 21 22
ENDBRANCH 18 21
ENDBRANCH 15 18
ENDBRANCH 10 14
ENDBRANCH 7 10
ENDBRANCH 5 6
BRANCH 5 28
ATOM     28  CB  ASP C 504      78.703  21.868 -16.331  1.00 57.84 LIG 0.15  C 
BRANCH 28 29
ATOM     29  CG  ASP C 504      79.237  20.733 -17.198  1.00 60.92 LIG 0.17  C 
ATOM     30 OD2  ASP C 504      80.442  20.769 -17.544  1.00 60.43 LIG-0.65  OA
ATOM     31 OD1  ASP C 504      78.464  19.809 -17.531  1.00 59.69 LIG-0.65  OA
ENDBRANCH 28 29
ENDBRANCH 5 28
ENDBRANCH 3 5
BRANCH 1 32
ATOM     32  CA  SER C 503      83.048  23.868 -16.659  1.00 44.19 LIG 0.20  C 
BRANCH 32 33
ATOM     33  N   SER C 503      83.771  24.733 -17.595  1.00 47.77 LIG-0.34  N 
ATOM     34 H    SER C 503      84.441  25.149 -17.252  1.00 47.77 LIG 0.16  HD
ATOM     35  C   SER C 502      83.394  24.843 -18.867  1.00 50.79 LIG 0.24  C 
ATOM     36 O    SER C 502      82.642  24.047 -19.413  1.00 48.58 LIG-0.27  OA
BRANCH 35 37
ATOM     37  CA  SER C 502      83.936  26.034 -19.637  1.00 60.54 LIG 0.20  C 
BRANCH 37 38
ATOM     38  CB  SER C 502      84.819  25.575 -20.786  1.00 53.64 LIG 0.20  C 
BRANCH 38 39
ATOM     39 OG   SER C 502      85.511  26.655 -21.368  1.00 59.09 LIG-0.40  OA
ATOM     40 HG   SER C 502      86.217  26.375 -21.725  1.00 59.09 LIG 0.21  HD
ENDBRANCH 38 39
ENDBRANCH 37 38
BRANCH 37 41
ATOM     41  N   SER C 502      84.647  26.897 -18.701  1.00 72.56 LIG-0.34  N 
ATOM     42 H    SER C 502      85.492  26.753 -18.641  1.00 72.56 LIG 0.16  HD
ATOM     43  C   GLU C 501      83.987  27.824 -18.014  1.00101.90 LIG 0.26  C 
ATOM     44 O    GLU C 501      82.885  28.246 -18.369  1.00103.22 LIG-0.27  OA
BRANCH 43 45
ATOM     45  CA  GLU C 501      84.664  28.382 -16.756  1.00101.55 LIG 0.40  C 
ATOM     46  N   GLU C 501      83.689  29.079 -15.922  1.00100.94 LIG 0.61  N 
BRANCH 45 47
ATOM     47  CB  GLU C 501      85.332  27.257 -15.959  1.00104.94 LIG 0.06  C 
BRANCH 47 48
ATOM     48  CG  GLU C 501      86.581  27.685 -15.208  1.00111.45 LIG 0.12  C 
BRANCH 48 49
ATOM     49  CD  GLU C 501      86.360  28.931 -14.376  1.00115.68 LIG 0.17  C 
ATOM     50 OE1  GLU C 501      86.135  30.013 -14.963  1.00117.56 LIG-0.65  OA
ATOM     51 OE2  GLU C 501      86.411  28.826 -13.132  1.00122.11 LIG-0.65  OA
ENDBRANCH 48 49
ENDBRANCH 47 48
ENDBRANCH 45 47
ENDBRANCH 43 45
ENDBRANCH 37 41
ENDBRANCH 35 37
ENDBRANCH 32 33
BRANCH 32 52
ATOM     52  CB  SER C 503      83.578  24.031 -15.241  1.00 49.05 LIG 0.20  C 
BRANCH 52 53
ATOM     53 OG   SER C 503      84.985  24.196 -15.256  1.00 54.59 LIG-0.40  OA
ATOM     54 HG   SER C 503      85.268  24.121 -16.043  1.00 54.59 LIG 0.21  HD
ENDBRANCH 52 53
ENDBRANCH 32 52
ENDBRANCH 1 32
TORSDOF 25
ENDMDL
MODEL 20
USER: ADFR SOLUTION from run 39
USER: SCORE 15.695952 LL:  -4.089 LR: -13.645 RR:   0.000 FEB:  -6.188
USER: RMSD 4.587327
USER: SEED 38
USER: STATUS 1 or 2 clusters left
USER: GENES 27
USER: genes 0 Translation |==|  0.42541 0.39788 0.48041
USER: genes 1 Rotation |==|  0.77331 0.15118 0.27841 0.56726
USER: genes 2 Torsion [C]-N--CA-[CB] |==|  0.18889
USER: genes 3 Torsion [N]-CA--C-[N] |==|  0.95149
USER: genes 4 Torsion [C]-N--CA-[C] |==|  0.61423
USER: genes 5 Torsion [N]-CA--CB-[OG] |==|  0.90869
USER: genes 6 Torsion [CA]-CB--OG-[HG] |==|  0.81890
USER: genes 7 Torsion [N]-CA--C-[N] |==|  0.53732
USER: genes 8 Torsion [C]-N--CA-[CB] |==|  0.40728
USER: genes 9 Torsion [N]-CA--C-[O] |==|  0.93226
USER: genes 10 Torsion [N]-CA--CB-[CG] |==|  0.45559
USER: genes 11 Torsion [CA]-CB--CG-[CD] |==|  0.14197
USER: genes 12 Torsion [CB]-CG--CD-[NE2] |==|  0.61542
USER: genes 13 Torsion [N]-CA--CB-[CG] |==|  0.52307
USER: genes 14 Torsion [CA]-CB--CG-[OD1] |==|  0.30276
USER: genes 15 Torsion [N]-C--CA-[N] |==|  0.86271
USER: genes 16 Torsion [C]-CA--N-[C] |==|  0.23333
USER: genes 17 Torsion [N]-C--CA-[N] |==|  0.92087
USER: genes 18 Torsion [C]-CA--CB-[OG] |==|  0.75193
USER: genes 19 Torsion [CA]-CB--OG-[HG] |==|  0.43723
USER: genes 20 Torsion [C]-CA--N-[C] |==|  0.79742
USER: genes 21 Torsion [N]-C--CA-[N] |==|  0.47725
USER: genes 22 Torsion [C]-CA--CB-[CG] |==|  0.28009
USER: genes 23 Torsion [CA]-CB--CG-[CD] |==|  0.73964
USER: genes 24 Torsion [CB]-CG--CD-[OE1] |==|  0.29080
USER: genes 25 Torsion [C]-CA--CB-[OG] |==|  0.48238
USER: genes 26 Torsion [CA]-CB--OG-[HG] |==|  0.22458
ROOT
ATOM      1  C   SER C 503      77.984  24.214 -14.911  1.00 42.27 LIG 0.24  C 
ATOM      2 O    SER C 503      77.236  23.239 -14.877  1.00 46.84 LIG-0.27  OA
ATOM      3  N   ASP C 504      79.211  24.175 -15.415  1.00 51.15 LIG-0.34  N 
ATOM      4 H    ASP C 504      79.698  24.875 -15.528  1.00 51.15 LIG 0.16  HD
ENDROOT
BRANCH 3 5
ATOM      5  CA  ASP C 504      79.858  22.931 -15.829  1.00 56.79 LIG 0.19  C 
BRANCH 5 6
ATOM      6  C   ASP C 504      81.345  23.178 -16.121  1.00 67.42 LIG 0.24  C 
ATOM      7  N   SER C 505      81.703  24.444 -16.311  1.00 81.52 LIG-0.34  N 
ATOM      8 H    SER C 505      81.153  25.105 -16.288  1.00 81.52 LIG 0.16  HD
ATOM      9 O    ASP C 504      82.147  22.242 -16.167  1.00 66.01 LIG-0.27  OA
BRANCH 7 10
ATOM     10  CA  SER C 505      83.087  24.827 -16.580  1.00 90.64 LIG 0.20  C 
BRANCH 10 11
ATOM     11  CB  SER C 505      83.307  25.032 -18.075  1.00 89.01 LIG 0.20  C 
BRANCH 11 12
ATOM     12 OG   SER C 505      82.490  24.150 -18.819  1.00 87.22 LIG-0.40  OA
ATOM     13 HG   SER C 505      82.728  23.358 -18.675  1.00 87.22 LIG 0.21  HD
ENDBRANCH 11 12
ENDBRANCH 10 11
BRANCH 10 14
ATOM     14  C   SER C 505      83.446  26.095 -15.812  1.00 98.93 LIG 0.24  C 
ATOM     15  N   GLN C 506      84.571  26.705 -16.174  1.00110.12 LIG-0.35  N 
ATOM     16 H    GLN C 506      85.011  26.517 -16.889  1.00110.12 LIG 0.16  HD
ATOM     17 O    SER C 505      82.711  26.519 -14.918  1.00 94.47 LIG-0.27  OA
BRANCH 15 18
ATOM     18  CA  GLN C 506      85.159  27.766 -15.366  1.00115.19 LIG 0.16  C 
BRANCH 18 19
ATOM     19  C   GLN C 506      84.645  29.149 -15.764  1.00118.66 LIG 0.22  C 
ATOM     20 O    GLN C 506      84.207  29.359 -16.897  1.00117.46 LIG-0.29  OA
ENDBRANCH 18 19
BRANCH 18 21
ATOM     21  CB  GLN C 506      86.686  27.708 -15.477  1.00118.15 LIG 0.04  C 
BRANCH 21 22
ATOM     22  CG  GLN C 506      87.387  28.988 -14.994  1.00119.48 LIG 0.10  C 
BRANCH 22 23
ATOM     23  CD  GLN C 506      86.946  29.447 -13.604  1.00116.76 LIG 0.21  C 
ATOM     24  NE2 GLN C 506      86.760  30.752 -13.440  1.00111.94 LIG-0.37  N 
ATOM     25 21HE GLN C 506      86.890  31.291 -14.098  1.00111.94 LIG 0.16  HD
ATOM     26 22HE GLN C 506      86.509  31.059 -12.677  1.00111.94 LIG 0.16  HD
ATOM     27 OE1  GLN C 506      86.772  28.636 -12.695  1.00116.06 LIG-0.27  OA
ENDBRANCH 22 23
ENDBRANCH 21 22
ENDBRANCH 18 21
ENDBRANCH 15 18
ENDBRANCH 10 14
ENDBRANCH 7 10
ENDBRANCH 5 6
BRANCH 5 28
ATOM     28  CB  ASP C 504      79.144  22.359 -17.066  1.00 57.84 LIG 0.15  C 
BRANCH 28 29
ATOM     29  CG  ASP C 504      79.622  20.962 -17.447  1.00 60.92 LIG 0.17  C 
ATOM     30 OD2  ASP C 504      80.773  20.843 -17.933  1.00 60.43 LIG-0.65  OA
ATOM     31 OD1  ASP C 504      78.861  19.989 -17.262  1.00 59.69 LIG-0.65  OA
ENDBRANCH 28 29
ENDBRANCH 5 28
ENDBRANCH 3 5
BRANCH 1 32
ATOM     32  CA  SER C 503      77.526  25.560 -14.380  1.00 44.19 LIG 0.20  C 
BRANCH 32 33
ATOM     33  N   SER C 503      78.533  26.134 -13.485  1.00 47.77 LIG-0.34  N 
ATOM     34 H    SER C 503      78.394  25.986 -12.649  1.00 47.77 LIG 0.16  HD
ATOM     35  C   SER C 502      79.568  26.824 -13.960  1.00 50.79 LIG 0.24  C 
ATOM     36 O    SER C 502      79.917  26.784 -15.131  1.00 48.58 LIG-0.27  OA
BRANCH 35 37
ATOM     37  CA  SER C 502      80.316  27.698 -12.968  1.00 60.54 LIG 0.20  C 
BRANCH 37 38
ATOM     38  CB  SER C 502      81.521  26.964 -12.405  1.00 53.64 LIG 0.20  C 
BRANCH 38 39
ATOM     39 OG   SER C 502      81.185  26.231 -11.250  1.00 59.09 LIG-0.40  OA
ATOM     40 HG   SER C 502      81.743  25.614 -11.137  1.00 59.09 LIG 0.21  HD
ENDBRANCH 38 39
ENDBRANCH 37 38
BRANCH 37 41
ATOM     41  N   SER C 502      79.381  28.111 -11.928  1.00 72.56 LIG-0.34  N 
ATOM     42 H    SER C 502      79.490  27.728 -11.166  1.00 72.56 LIG 0.16  HD
ATOM     43  C   GLU C 501      78.445  29.017 -12.193  1.00101.90 LIG 0.26  C 
ATOM     44 O    GLU C 501      78.532  29.794 -13.145  1.00103.22 LIG-0.27  OA
BRANCH 43 45
ATOM     45  CA  GLU C 501      77.243  29.084 -11.241  1.00101.55 LIG 0.40  C 
ATOM     46  N   GLU C 501      76.415  30.245 -11.552  1.00100.94 LIG 0.61  N 
BRANCH 45 47
ATOM     47  CB  GLU C 501      76.411  27.802 -11.331  1.00104.94 LIG 0.06  C 
BRANCH 47 48
ATOM     48  CG  GLU C 501      76.660  26.819 -10.201  1.00111.45 LIG 0.12  C 
BRANCH 48 49
ATOM     49  CD  GLU C 501      77.707  25.782 -10.554  1.00115.68 LIG 0.17  C 
ATOM     50 OE1  GLU C 501      78.850  25.890 -10.057  1.00117.56 LIG-0.65  OA
ATOM     51 OE2  GLU C 501      77.382  24.857 -11.329  1.00122.11 LIG-0.65  OA
ENDBRANCH 48 49
ENDBRANCH 47 48
ENDBRANCH 45 47
ENDBRANCH 43 45
ENDBRANCH 37 41
ENDBRANCH 35 37
ENDBRANCH 32 33
BRANCH 32 52
ATOM     52  CB  SER C 503      77.239  26.492 -15.549  1.00 49.05 LIG 0.20  C 
BRANCH 52 53
ATOM     53 OG   SER C 503      76.672  27.705 -15.087  1.00 54.59 LIG-0.40  OA
ATOM     54 HG   SER C 503      77.282  28.211 -14.807  1.00 54.59 LIG 0.21  HD
ENDBRANCH 52 53
ENDBRANCH 32 52
ENDBRANCH 1 32
TORSDOF 25
ENDMDL
MODEL 21
USER: ADFR SOLUTION from run 143
USER: SCORE 15.190639 LL:  -4.597 LR: -13.649 RR:   0.000 FEB:  -6.192
USER: RMSD 5.200035
USER: SEED 142
USER: STATUS no improvement in best in 4 clusters for 5 generations
USER: GENES 27
USER: genes 0 Translation |==|  0.60928 0.50256 0.49112
USER: genes 1 Rotation |==|  0.52659 0.39870 0.38839 0.97600
USER: genes 2 Torsion [C]-N--CA-[CB] |==|  0.42547
USER: genes 3 Torsion [N]-CA--C-[N] |==|  0.03217
USER: genes 4 Torsion [C]-N--CA-[C] |==|  0.74391
USER: genes 5 Torsion [N]-CA--CB-[OG] |==|  0.00327
USER: genes 6 Torsion [CA]-CB--OG-[HG] |==|  0.55066
USER: genes 7 Torsion [N]-CA--C-[N] |==|  0.95000
USER: genes 8 Torsion [C]-N--CA-[CB] |==|  0.28984
USER: genes 9 Torsion [N]-CA--C-[O] |==|  0.00824
USER: genes 10 Torsion [N]-CA--CB-[CG] |==|  0.20980
USER: genes 11 Torsion [CA]-CB--CG-[CD] |==|  0.29481
USER: genes 12 Torsion [CB]-CG--CD-[NE2] |==|  0.27793
USER: genes 13 Torsion [N]-CA--CB-[CG] |==|  0.51554
USER: genes 14 Torsion [CA]-CB--CG-[OD1] |==|  0.07379
USER: genes 15 Torsion [N]-C--CA-[N] |==|  0.27278
USER: genes 16 Torsion [C]-CA--N-[C] |==|  0.20935
USER: genes 17 Torsion [N]-C--CA-[N] |==|  0.06754
USER: genes 18 Torsion [C]-CA--CB-[OG] |==|  0.55035
USER: genes 19 Torsion [CA]-CB--OG-[HG] |==|  0.81156
USER: genes 20 Torsion [C]-CA--N-[C] |==|  0.70998
USER: genes 21 Torsion [N]-C--CA-[N] |==|  0.45747
USER: genes 22 Torsion [C]-CA--CB-[CG] |==|  0.41853
USER: genes 23 Torsion [CA]-CB--CG-[CD] |==|  0.17628
USER: genes 24 Torsion [CB]-CG--CD-[OE1] |==|  0.84177
USER: genes 25 Torsion [C]-CA--CB-[OG] |==|  0.16002
USER: genes 26 Torsion [CA]-CB--OG-[HG] |==|  0.11701
ROOT
ATOM      1  C   SER C 503      81.156  26.412 -14.711  1.00 42.27 LIG 0.24  C 
ATOM      2 O    SER C 503      82.266  26.355 -14.187  1.00 46.84 LIG-0.27  OA
ATOM      3  N   ASP C 504      80.692  25.485 -15.538  1.00 51.15 LIG-0.34  N 
ATOM      4 H    ASP C 504      79.882  25.473 -15.828  1.00 51.15 LIG 0.16  HD
ENDROOT
BRANCH 3 5
ATOM      5  CA  ASP C 504      81.517  24.388 -16.041  1.00 56.79 LIG 0.19  C 
BRANCH 5 6
ATOM      6  C   ASP C 504      82.314  24.844 -17.272  1.00 67.42 LIG 0.24  C 
ATOM      7  N   SER C 505      82.319  26.152 -17.515  1.00 81.52 LIG-0.34  N 
ATOM      8 H    SER C 505      81.900  26.728 -17.035  1.00 81.52 LIG 0.16  HD
ATOM      9 O    ASP C 504      82.915  24.031 -17.977  1.00 66.01 LIG-0.27  OA
BRANCH 7 10
ATOM     10  CA  SER C 505      83.050  26.728 -18.641  1.00 90.64 LIG 0.20  C 
BRANCH 10 11
ATOM     11  CB  SER C 505      82.302  27.926 -19.213  1.00 89.01 LIG 0.20  C 
BRANCH 11 12
ATOM     12 OG   SER C 505      81.118  28.165 -18.476  1.00 87.22 LIG-0.40  OA
ATOM     13 HG   SER C 505      80.598  28.645 -18.928  1.00 87.22 LIG 0.21  HD
ENDBRANCH 11 12
ENDBRANCH 10 11
BRANCH 10 14
ATOM     14  C   SER C 505      84.455  27.137 -18.208  1.00 98.93 LIG 0.24  C 
ATOM     15  N   GLN C 506      84.653  27.266 -16.899  1.00110.12 LIG-0.35  N 
ATOM     16 H    GLN C 506      84.099  26.995 -16.300  1.00110.12 LIG 0.16  HD
ATOM     17 O    SER C 505      85.343  27.320 -19.042  1.00 94.47 LIG-0.27  OA
BRANCH 15 18
ATOM     18  CA  GLN C 506      85.857  27.893 -16.367  1.00115.19 LIG 0.16  C 
BRANCH 18 19
ATOM     19  C   GLN C 506      86.491  27.070 -15.247  1.00118.66 LIG 0.22  C 
ATOM     20 O    GLN C 506      86.021  25.979 -14.919  1.00117.46 LIG-0.29  OA
ENDBRANCH 18 19
BRANCH 18 21
ATOM     21  CB  GLN C 506      85.524  29.305 -15.873  1.00118.15 LIG 0.04  C 
BRANCH 21 22
ATOM     22  CG  GLN C 506      84.770  29.327 -14.535  1.00119.48 LIG 0.10  C 
BRANCH 22 23
ATOM     23  CD  GLN C 506      85.628  29.770 -13.350  1.00116.76 LIG 0.21  C 
ATOM     24  NE2 GLN C 506      85.491  31.031 -12.955  1.00111.94 LIG-0.37  N 
ATOM     25 21HE GLN C 506      84.942  31.552 -13.363  1.00111.94 LIG 0.16  HD
ATOM     26 22HE GLN C 506      85.950  31.326 -12.290  1.00111.94 LIG 0.16  HD
ATOM     27 OE1  GLN C 506      86.399  28.985 -12.798  1.00116.06 LIG-0.27  OA
ENDBRANCH 22 23
ENDBRANCH 21 22
ENDBRANCH 18 21
ENDBRANCH 15 18
ENDBRANCH 10 14
ENDBRANCH 7 10
ENDBRANCH 5 6
BRANCH 5 28
ATOM     28  CB  ASP C 504      80.626  23.180 -16.383  1.00 57.84 LIG 0.15  C 
BRANCH 28 29
ATOM     29  CG  ASP C 504      81.418  21.942 -16.788  1.00 60.92 LIG 0.17  C 
ATOM     30 OD2  ASP C 504      80.866  21.108 -17.546  1.00 60.43 LIG-0.65  OA
ATOM     31 OD1  ASP C 504      82.583  21.799 -16.358  1.00 59.69 LIG-0.65  OA
ENDBRANCH 28 29
ENDBRANCH 5 28
ENDBRANCH 3 5
BRANCH 1 32
ATOM     32  CA  SER C 503      80.220  27.569 -14.417  1.00 44.19 LIG 0.20  C 
BRANCH 32 33
ATOM     33  N   SER C 503      79.520  27.361 -13.147  1.00 47.77 LIG-0.34  N 
ATOM     34 H    SER C 503      78.697  27.124 -13.226  1.00 47.77 LIG 0.16  HD
ATOM     35  C   SER C 502      80.139  27.535 -11.980  1.00 50.79 LIG 0.24  C 
ATOM     36 O    SER C 502      81.356  27.583 -11.870  1.00 48.58 LIG-0.27  OA
BRANCH 35 37
ATOM     37  CA  SER C 502      79.253  27.687 -10.756  1.00 60.54 LIG 0.20  C 
BRANCH 37 38
ATOM     38  CB  SER C 502      79.932  27.109  -9.526  1.00 53.64 LIG 0.20  C 
BRANCH 38 39
ATOM     39 OG   SER C 502      79.005  26.862  -8.494  1.00 59.09 LIG-0.40  OA
ATOM     40 HG   SER C 502      78.708  27.592  -8.203  1.00 59.09 LIG 0.21  HD
ENDBRANCH 38 39
ENDBRANCH 37 38
BRANCH 37 41
ATOM     41  N   SER C 502      77.973  27.047 -11.037  1.00 72.56 LIG-0.34  N 
ATOM     42 H    SER C 502      77.981  26.188 -11.011  1.00 72.56 LIG 0.16  HD
ATOM     43  C   GLU C 501      76.902  27.786 -11.308  1.00101.90 LIG 0.26  C 
ATOM     44 O    GLU C 501      76.826  28.974 -10.992  1.00103.22 LIG-0.27  OA
BRANCH 43 45
ATOM     45  CA  GLU C 501      75.732  27.093 -12.017  1.00101.55 LIG 0.40  C 
ATOM     46  N   GLU C 501      74.525  27.909 -11.919  1.00100.94 LIG 0.61  N 
BRANCH 45 47
ATOM     47  CB  GLU C 501      76.072  26.827 -13.487  1.00104.94 LIG 0.06  C 
BRANCH 47 48
ATOM     48  CG  GLU C 501      75.380  25.610 -14.074  1.00111.45 LIG 0.12  C 
BRANCH 48 49
ATOM     49  CD  GLU C 501      73.872  25.756 -14.102  1.00115.68 LIG 0.17  C 
ATOM     50 OE1  GLU C 501      73.271  25.983 -13.028  1.00117.56 LIG-0.65  OA
ATOM     51 OE2  GLU C 501      73.289  25.644 -15.201  1.00122.11 LIG-0.65  OA
ENDBRANCH 48 49
ENDBRANCH 47 48
ENDBRANCH 45 47
ENDBRANCH 43 45
ENDBRANCH 37 41
ENDBRANCH 35 37
ENDBRANCH 32 33
BRANCH 32 52
ATOM     52  CB  SER C 503      81.014  28.868 -14.398  1.00 49.05 LIG 0.20  C 
BRANCH 52 53
ATOM     53 OG   SER C 503      81.682  29.057 -15.632  1.00 54.59 LIG-0.40  OA
ATOM     54 HG   SER C 503      81.168  28.850 -16.264  1.00 54.59 LIG 0.21  HD
ENDBRANCH 52 53
ENDBRANCH 32 52
ENDBRANCH 1 32
TORSDOF 25
ENDMDL
MODEL 22
USER: ADFR SOLUTION from run 53
USER: SCORE 16.041601 LL:  -3.850 LR: -13.641 RR:   0.000 FEB:  -6.183
USER: RMSD 5.765914
USER: SEED 52
USER: STATUS no improvement in best in 4 clusters for 5 generations
USER: GENES 27
USER: genes 0 Translation |==|  0.59919 0.59655 0.44623
USER: genes 1 Rotation |==|  0.37976 0.46478 0.37177 0.96676
USER: genes 2 Torsion [C]-N--CA-[CB] |==|  0.76381
USER: genes 3 Torsion [N]-CA--C-[N] |==|  0.65556
USER: genes 4 Torsion [C]-N--CA-[C] |==|  0.70825
USER: genes 5 Torsion [N]-CA--CB-[OG] |==|  0.59941
USER: genes 6 Torsion [CA]-CB--OG-[HG] |==|  0.88291
USER: genes 7 Torsion [N]-CA--C-[N] |==|  0.06648
USER: genes 8 Torsion [C]-N--CA-[CB] |==|  0.82465
USER: genes 9 Torsion [N]-CA--C-[O] |==|  0.37800
USER: genes 10 Torsion [N]-CA--CB-[CG] |==|  0.75683
USER: genes 11 Torsion [CA]-CB--CG-[CD] |==|  0.35531
USER: genes 12 Torsion [CB]-CG--CD-[NE2] |==|  0.48855
USER: genes 13 Torsion [N]-CA--CB-[CG] |==|  0.53985
USER: genes 14 Torsion [CA]-CB--CG-[OD1] |==|  0.68354
USER: genes 15 Torsion [N]-C--CA-[N] |==|  0.12713
USER: genes 16 Torsion [C]-CA--N-[C] |==|  0.17222
USER: genes 17 Torsion [N]-C--CA-[N] |==|  0.44416
USER: genes 18 Torsion [C]-CA--CB-[OG] |==|  0.62449
USER: genes 19 Torsion [CA]-CB--OG-[HG] |==|  0.99726
USER: genes 20 Torsion [C]-CA--N-[C] |==|  0.70901
USER: genes 21 Torsion [N]-C--CA-[N] |==|  0.38405
USER: genes 22 Torsion [C]-CA--CB-[CG] |==|  0.02993
USER: genes 23 Torsion [CA]-CB--CG-[CD] |==|  0.71400
USER: genes 24 Torsion [CB]-CG--CD-[OE1] |==|  0.49038
USER: genes 25 Torsion [C]-CA--CB-[OG] |==|  0.56534
USER: genes 26 Torsion [CA]-CB--OG-[HG] |==|  0.19629
ROOT
ATOM      1  C   SER C 503      80.982  28.386 -15.552  1.00 42.27 LIG 0.24  C 
ATOM      2 O    SER C 503      82.201  28.272 -15.451  1.00 46.84 LIG-0.27  OA
ATOM      3  N   ASP C 504      80.156  27.350 -15.620  1.00 51.15 LIG-0.34  N 
ATOM      4 H    ASP C 504      79.300  27.426 -15.594  1.00 51.15 LIG 0.16  HD
ENDROOT
BRANCH 3 5
ATOM      5  CA  ASP C 504      80.624  25.971 -15.749  1.00 56.79 LIG 0.19  C 
BRANCH 5 6
ATOM      6  C   ASP C 504      81.900  25.764 -14.919  1.00 67.42 LIG 0.24  C 
ATOM      7  N   SER C 505      82.960  25.307 -15.579  1.00 81.52 LIG-0.34  N 
ATOM      8 H    SER C 505      82.956  25.119 -16.417  1.00 81.52 LIG 0.16  HD
ATOM      9 O    ASP C 504      81.921  26.019 -13.713  1.00 66.01 LIG-0.27  OA
BRANCH 7 10
ATOM     10  CA  SER C 505      84.244  25.080 -14.920  1.00 90.64 LIG 0.20  C 
BRANCH 10 11
ATOM     11  CB  SER C 505      84.806  23.712 -15.292  1.00 89.01 LIG 0.20  C 
BRANCH 11 12
ATOM     12 OG   SER C 505      85.482  23.140 -14.189  1.00 87.22 LIG-0.40  OA
ATOM     13 HG   SER C 505      85.941  23.729 -13.806  1.00 87.22 LIG 0.21  HD
ENDBRANCH 11 12
ENDBRANCH 10 11
BRANCH 10 14
ATOM     14  C   SER C 505      85.234  26.179 -15.293  1.00 98.93 LIG 0.24  C 
ATOM     15  N   GLN C 506      84.708  27.337 -15.682  1.00110.12 LIG-0.35  N 
ATOM     16 H    GLN C 506      83.877  27.543 -15.593  1.00110.12 LIG 0.16  HD
ATOM     17 O    SER C 505      86.448  25.985 -15.218  1.00 94.47 LIG-0.27  OA
BRANCH 15 18
ATOM     18  CA  GLN C 506      85.522  28.374 -16.305  1.00115.19 LIG 0.16  C 
BRANCH 18 19
ATOM     19  C   GLN C 506      86.179  27.894 -17.598  1.00118.66 LIG 0.22  C 
ATOM     20 O    GLN C 506      86.193  28.607 -18.603  1.00117.46 LIG-0.29  OA
ENDBRANCH 18 19
BRANCH 18 21
ATOM     21  CB  GLN C 506      86.583  28.859 -15.311  1.00118.15 LIG 0.04  C 
BRANCH 21 22
ATOM     22  CG  GLN C 506      86.099  29.996 -14.399  1.00119.48 LIG 0.10  C 
BRANCH 22 23
ATOM     23  CD  GLN C 506      86.321  29.730 -12.910  1.00116.76 LIG 0.21  C 
ATOM     24  NE2 GLN C 506      86.000  30.714 -12.076  1.00111.94 LIG-0.37  N 
ATOM     25 21HE GLN C 506      85.687  31.454 -12.384  1.00111.94 LIG 0.16  HD
ATOM     26 22HE GLN C 506      86.104  30.611 -11.229  1.00111.94 LIG 0.16  HD
ATOM     27 OE1  GLN C 506      86.770  28.653 -12.519  1.00116.06 LIG-0.27  OA
ENDBRANCH 22 23
ENDBRANCH 21 22
ENDBRANCH 18 21
ENDBRANCH 15 18
ENDBRANCH 10 14
ENDBRANCH 7 10
ENDBRANCH 5 6
BRANCH 5 28
ATOM     28  CB  ASP C 504      80.875  25.642 -17.231  1.00 57.84 LIG 0.15  C 
BRANCH 28 29
ATOM     29  CG  ASP C 504      81.028  24.149 -17.500  1.00 60.92 LIG 0.17  C 
ATOM     30 OD2  ASP C 504      80.030  23.410 -17.323  1.00 60.43 LIG-0.65  OA
ATOM     31 OD1  ASP C 504      82.133  23.712 -17.888  1.00 59.69 LIG-0.65  OA
ENDBRANCH 28 29
ENDBRANCH 5 28
ENDBRANCH 3 5
BRANCH 1 32
ATOM     32  CA  SER C 503      80.332  29.757 -15.588  1.00 44.19 LIG 0.20  C 
BRANCH 32 33
ATOM     33  N   SER C 503      79.179  29.808 -14.687  1.00 47.77 LIG-0.34  N 
ATOM     34 H    SER C 503      78.427  29.962 -15.076  1.00 47.77 LIG 0.16  HD
ATOM     35  C   SER C 502      79.317  29.626 -13.375  1.00 50.79 LIG 0.24  C 
ATOM     36 O    SER C 502      80.314  29.127 -12.871  1.00 48.58 LIG-0.27  OA
BRANCH 35 37
ATOM     37  CA  SER C 502      78.165  30.085 -12.499  1.00 60.54 LIG 0.20  C 
BRANCH 37 38
ATOM     38  CB  SER C 502      78.172  31.596 -12.348  1.00 53.64 LIG 0.20  C 
BRANCH 38 39
ATOM     39 OG   SER C 502      77.955  31.982 -11.011  1.00 59.09 LIG-0.40  OA
ATOM     40 HG   SER C 502      77.847  31.298 -10.536  1.00 59.09 LIG 0.21  HD
ENDBRANCH 38 39
ENDBRANCH 37 38
BRANCH 37 41
ATOM     41  N   SER C 502      78.264  29.397 -11.217  1.00 72.56 LIG-0.34  N 
ATOM     42 H    SER C 502      78.877  29.692 -10.692  1.00 72.56 LIG 0.16  HD
ATOM     43  C   GLU C 501      77.440  28.394 -10.932  1.00101.90 LIG 0.26  C 
ATOM     44 O    GLU C 501      76.370  28.233 -11.521  1.00103.22 LIG-0.27  OA
BRANCH 43 45
ATOM     45  CA  GLU C 501      77.860  27.439  -9.806  1.00101.55 LIG 0.40  C 
ATOM     46  N   GLU C 501      76.712  27.110  -8.967  1.00100.94 LIG 0.61  N 
BRANCH 45 47
ATOM     47  CB  GLU C 501      78.476  26.161 -10.383  1.00104.94 LIG 0.06  C 
BRANCH 47 48
ATOM     48  CG  GLU C 501      78.768  26.230 -11.872  1.00111.45 LIG 0.12  C 
BRANCH 48 49
ATOM     49  CD  GLU C 501      77.744  25.483 -12.701  1.00115.68 LIG 0.17  C 
ATOM     50 OE1  GLU C 501      77.838  25.520 -13.947  1.00117.56 LIG-0.65  OA
ATOM     51 OE2  GLU C 501      76.844  24.857 -12.101  1.00122.11 LIG-0.65  OA
ENDBRANCH 48 49
ENDBRANCH 47 48
ENDBRANCH 45 47
ENDBRANCH 43 45
ENDBRANCH 37 41
ENDBRANCH 35 37
ENDBRANCH 32 33
BRANCH 32 52
ATOM     52  CB  SER C 503      81.364  30.813 -15.217  1.00 49.05 LIG 0.20  C 
BRANCH 52 53
ATOM     53 OG   SER C 503      80.724  31.976 -14.721  1.00 54.59 LIG-0.40  OA
ATOM     54 HG   SER C 503      80.399  31.815 -13.963  1.00 54.59 LIG 0.21  HD
ENDBRANCH 52 53
ENDBRANCH 32 52
ENDBRANCH 1 32
TORSDOF 25
ENDMDL
MODEL 23
USER: ADFR SOLUTION from run 198
USER: SCORE 16.300566 LL:  -4.426 LR: -13.624 RR:   0.000 FEB:  -6.167
USER: RMSD 7.252196
USER: SEED 197
USER: STATUS no improvement in best in 15 clusters for 5 generations
USER: GENES 27
USER: genes 0 Translation |==|  0.67833 0.33899 0.40705
USER: genes 1 Rotation |==|  0.43637 0.57717 0.08187 0.75527
USER: genes 2 Torsion [C]-N--CA-[CB] |==|  0.15175
USER: genes 3 Torsion [N]-CA--C-[N] |==|  0.65847
USER: genes 4 Torsion [C]-N--CA-[C] |==|  0.60570
USER: genes 5 Torsion [N]-CA--CB-[OG] |==|  0.00824
USER: genes 6 Torsion [CA]-CB--OG-[HG] |==|  0.47214
USER: genes 7 Torsion [N]-CA--C-[N] |==|  0.49029
USER: genes 8 Torsion [C]-N--CA-[CB] |==|  0.28066
USER: genes 9 Torsion [N]-CA--C-[O] |==|  0.10088
USER: genes 10 Torsion [N]-CA--CB-[CG] |==|  0.76954
USER: genes 11 Torsion [CA]-CB--CG-[CD] |==|  0.84968
USER: genes 12 Torsion [CB]-CG--CD-[NE2] |==|  0.71785
USER: genes 13 Torsion [N]-CA--CB-[CG] |==|  0.66354
USER: genes 14 Torsion [CA]-CB--CG-[OD1] |==|  0.13108
USER: genes 15 Torsion [N]-C--CA-[N] |==|  0.89962
USER: genes 16 Torsion [C]-CA--N-[C] |==|  0.86628
USER: genes 17 Torsion [N]-C--CA-[N] |==|  0.13982
USER: genes 18 Torsion [C]-CA--CB-[OG] |==|  0.78055
USER: genes 19 Torsion [CA]-CB--OG-[HG] |==|  0.90680
USER: genes 20 Torsion [C]-CA--N-[C] |==|  0.55000
USER: genes 21 Torsion [N]-C--CA-[N] |==|  0.72843
USER: genes 22 Torsion [C]-CA--CB-[CG] |==|  0.68919
USER: genes 23 Torsion [CA]-CB--CG-[CD] |==|  0.20034
USER: genes 24 Torsion [CB]-CG--CD-[OE1] |==|  0.84033
USER: genes 25 Torsion [C]-CA--CB-[OG] |==|  0.39964
USER: genes 26 Torsion [CA]-CB--OG-[HG] |==|  0.27410
ROOT
ATOM      1  C   SER C 503      82.347  22.977 -16.287  1.00 42.27 LIG 0.24  C 
ATOM      2 O    SER C 503      82.261  21.756 -16.396  1.00 46.84 LIG-0.27  OA
ATOM      3  N   ASP C 504      81.303  23.792 -16.356  1.00 51.15 LIG-0.34  N 
ATOM      4 H    ASP C 504      81.348  24.633 -16.184  1.00 51.15 LIG 0.16  HD
ENDROOT
BRANCH 3 5
ATOM      5  CA  ASP C 504      79.967  23.336 -16.735  1.00 56.79 LIG 0.19  C 
BRANCH 5 6
ATOM      6  C   ASP C 504      78.965  24.497 -16.650  1.00 67.42 LIG 0.24  C 
ATOM      7  N   SER C 505      77.916  24.309 -15.855  1.00 81.52 LIG-0.34  N 
ATOM      8 H    SER C 505      77.776  23.586 -15.412  1.00 81.52 LIG 0.16  HD
ATOM      9 O    ASP C 504      79.145  25.538 -17.286  1.00 66.01 LIG-0.27  OA
BRANCH 7 10
ATOM     10  CA  SER C 505      76.894  25.335 -15.666  1.00 90.64 LIG 0.20  C 
BRANCH 10 11
ATOM     11  CB  SER C 505      75.714  25.099 -16.602  1.00 89.01 LIG 0.20  C 
BRANCH 11 12
ATOM     12 OG   SER C 505      75.907  23.912 -17.348  1.00 87.22 LIG-0.40  OA
ATOM     13 HG   SER C 505      75.199  23.719 -17.755  1.00 87.22 LIG 0.21  HD
ENDBRANCH 11 12
ENDBRANCH 10 11
BRANCH 10 14
ATOM     14  C   SER C 505      76.423  25.353 -14.214  1.00 98.93 LIG 0.24  C 
ATOM     15  N   GLN C 506      75.541  26.295 -13.893  1.00110.12 LIG-0.35  N 
ATOM     16 H    GLN C 506      75.123  26.779 -14.468  1.00110.12 LIG 0.16  HD
ATOM     17 O    SER C 505      76.841  24.522 -13.406  1.00 94.47 LIG-0.27  OA
BRANCH 15 18
ATOM     18  CA  GLN C 506      75.207  26.586 -12.504  1.00115.19 LIG 0.16  C 
BRANCH 18 19
ATOM     19  C   GLN C 506      73.702  26.754 -12.294  1.00118.66 LIG 0.22  C 
ATOM     20 O    GLN C 506      72.895  26.064 -12.920  1.00117.46 LIG-0.29  OA
ENDBRANCH 18 19
BRANCH 18 21
ATOM     21  CB  GLN C 506      75.955  27.844 -12.050  1.00118.15 LIG 0.04  C 
BRANCH 21 22
ATOM     22  CG  GLN C 506      77.399  27.572 -11.600  1.00119.48 LIG 0.10  C 
BRANCH 22 23
ATOM     23  CD  GLN C 506      77.517  26.497 -10.519  1.00116.76 LIG 0.21  C 
ATOM     24  NE2 GLN C 506      77.697  26.925  -9.273  1.00111.94 LIG-0.37  N 
ATOM     25 21HE GLN C 506      77.744  27.768  -9.111  1.00111.94 LIG 0.16  HD
ATOM     26 22HE GLN C 506      77.766  26.358  -8.630  1.00111.94 LIG 0.16  HD
ATOM     27 OE1  GLN C 506      77.442  25.302 -10.803  1.00116.06 LIG-0.27  OA
ENDBRANCH 22 23
ENDBRANCH 21 22
ENDBRANCH 18 21
ENDBRANCH 15 18
ENDBRANCH 10 14
ENDBRANCH 7 10
ENDBRANCH 5 6
BRANCH 5 28
ATOM     28  CB  ASP C 504      79.535  22.173 -15.824  1.00 57.84 LIG 0.15  C 
BRANCH 28 29
ATOM     29  CG  ASP C 504      79.221  20.892 -16.588  1.00 60.92 LIG 0.17  C 
ATOM     30 OD2  ASP C 504      78.160  20.282 -16.310  1.00 60.43 LIG-0.65  OA
ATOM     31 OD1  ASP C 504      80.021  20.494 -17.462  1.00 59.69 LIG-0.65  OA
ENDBRANCH 28 29
ENDBRANCH 5 28
ENDBRANCH 3 5
BRANCH 1 32
ATOM     32  CA  SER C 503      83.691  23.638 -16.041  1.00 44.19 LIG 0.20  C 
BRANCH 32 33
ATOM     33  N   SER C 503      83.768  24.928 -16.731  1.00 47.77 LIG-0.34  N 
ATOM     34 H    SER C 503      84.054  25.577 -16.245  1.00 47.77 LIG 0.16  HD
ATOM     35  C   SER C 502      83.416  25.051 -18.010  1.00 50.79 LIG 0.24  C 
ATOM     36 O    SER C 502      83.294  24.095 -18.764  1.00 48.58 LIG-0.27  OA
BRANCH 35 37
ATOM     37  CA  SER C 502      83.152  26.459 -18.511  1.00 60.54 LIG 0.20  C 
BRANCH 37 38
ATOM     38  CB  SER C 502      82.907  26.460 -20.010  1.00 53.64 LIG 0.20  C 
BRANCH 38 39
ATOM     39 OG   SER C 502      84.115  26.375 -20.730  1.00 59.09 LIG-0.40  OA
ATOM     40 HG   SER C 502      84.721  26.779 -20.311  1.00 59.09 LIG 0.21  HD
ENDBRANCH 38 39
ENDBRANCH 37 38
BRANCH 37 41
ATOM     41  N   SER C 502      84.283  27.298 -18.132  1.00 72.56 LIG-0.34  N 
ATOM     42 H    SER C 502      85.000  26.871 -17.924  1.00 72.56 LIG 0.16  HD
ATOM     43  C   GLU C 501      84.161  28.621 -18.125  1.00101.90 LIG 0.26  C 
ATOM     44 O    GLU C 501      83.277  29.204 -18.754  1.00103.22 LIG-0.27  OA
BRANCH 43 45
ATOM     45  CA  GLU C 501      85.192  29.418 -17.314  1.00101.55 LIG 0.40  C 
ATOM     46  N   GLU C 501      84.650  29.759 -16.002  1.00100.94 LIG 0.61  N 
BRANCH 45 47
ATOM     47  CB  GLU C 501      86.490  28.620 -17.158  1.00104.94 LIG 0.06  C 
BRANCH 47 48
ATOM     48  CG  GLU C 501      86.771  28.162 -15.738  1.00111.45 LIG 0.12  C 
BRANCH 48 49
ATOM     49  CD  GLU C 501      85.849  27.045 -15.294  1.00115.68 LIG 0.17  C 
ATOM     50 OE1  GLU C 501      84.614  27.240 -15.324  1.00117.56 LIG-0.65  OA
ATOM     51 OE2  GLU C 501      86.363  25.971 -14.916  1.00122.11 LIG-0.65  OA
ENDBRANCH 48 49
ENDBRANCH 47 48
ENDBRANCH 45 47
ENDBRANCH 43 45
ENDBRANCH 37 41
ENDBRANCH 35 37
ENDBRANCH 32 33
BRANCH 32 52
ATOM     52  CB  SER C 503      83.904  23.806 -14.543  1.00 49.05 LIG 0.20  C 
BRANCH 52 53
ATOM     53 OG   SER C 503      85.267  23.610 -14.212  1.00 54.59 LIG-0.40  OA
ATOM     54 HG   SER C 503      85.647  24.356 -14.136  1.00 54.59 LIG 0.21  HD
ENDBRANCH 52 53
ENDBRANCH 32 52
ENDBRANCH 1 32
TORSDOF 25
ENDMDL
MODEL 24
USER: ADFR SOLUTION from run 114
USER: SCORE 15.194430 LL:  -4.465 LR: -13.614 RR:   0.000 FEB:  -6.156
USER: RMSD 7.146517
USER: SEED 113
USER: STATUS searching
USER: GENES 27
USER: genes 0 Translation |==|  0.40123 0.46856 0.68139
USER: genes 1 Rotation |==|  0.52365 0.39397 0.05752 0.70593
USER: genes 2 Torsion [C]-N--CA-[CB] |==|  0.36585
USER: genes 3 Torsion [N]-CA--C-[N] |==|  0.23408
USER: genes 4 Torsion [C]-N--CA-[C] |==|  0.57537
USER: genes 5 Torsion [N]-CA--CB-[OG] |==|  0.80370
USER: genes 6 Torsion [CA]-CB--OG-[HG] |==|  0.00116
USER: genes 7 Torsion [N]-CA--C-[N] |==|  0.49365
USER: genes 8 Torsion [C]-N--CA-[CB] |==|  0.19417
USER: genes 9 Torsion [N]-CA--C-[O] |==|  0.13871
USER: genes 10 Torsion [N]-CA--CB-[CG] |==|  0.48837
USER: genes 11 Torsion [CA]-CB--CG-[CD] |==|  0.35009
USER: genes 12 Torsion [CB]-CG--CD-[NE2] |==|  0.71028
USER: genes 13 Torsion [N]-CA--CB-[CG] |==|  0.61892
USER: genes 14 Torsion [CA]-CB--CG-[OD1] |==|  0.82572
USER: genes 15 Torsion [N]-C--CA-[N] |==|  0.92315
USER: genes 16 Torsion [C]-CA--N-[C] |==|  0.73582
USER: genes 17 Torsion [N]-C--CA-[N] |==|  0.65220
USER: genes 18 Torsion [C]-CA--CB-[OG] |==|  0.37608
USER: genes 19 Torsion [CA]-CB--OG-[HG] |==|  0.98729
USER: genes 20 Torsion [C]-CA--N-[C] |==|  0.63386
USER: genes 21 Torsion [N]-C--CA-[N] |==|  0.37837
USER: genes 22 Torsion [C]-CA--CB-[CG] |==|  0.39255
USER: genes 23 Torsion [CA]-CB--CG-[CD] |==|  0.08363
USER: genes 24 Torsion [CB]-CG--CD-[OE1] |==|  0.62400
USER: genes 25 Torsion [C]-CA--CB-[OG] |==|  0.35945
USER: genes 26 Torsion [CA]-CB--OG-[HG] |==|  0.46638
ROOT
ATOM      1  C   SER C 503      77.567  25.698 -11.143  1.00 42.27 LIG 0.24  C 
ATOM      2 O    SER C 503      77.177  24.580 -10.813  1.00 46.84 LIG-0.27  OA
ATOM      3  N   ASP C 504      77.052  26.381 -12.156  1.00 51.15 LIG-0.34  N 
ATOM      4 H    ASP C 504      77.256  27.199 -12.328  1.00 51.15 LIG 0.16  HD
ENDROOT
BRANCH 3 5
ATOM      5  CA  ASP C 504      76.082  25.806 -13.087  1.00 56.79 LIG 0.19  C 
BRANCH 5 6
ATOM      6  C   ASP C 504      76.751  25.510 -14.437  1.00 67.42 LIG 0.24  C 
ATOM      7  N   SER C 505      77.392  24.349 -14.530  1.00 81.52 LIG-0.34  N 
ATOM      8 H    SER C 505      77.453  23.783 -13.886  1.00 81.52 LIG 0.16  HD
ATOM      9 O    ASP C 504      76.681  26.313 -15.370  1.00 66.01 LIG-0.27  OA
BRANCH 7 10
ATOM     10  CA  SER C 505      78.059  23.929 -15.761  1.00 90.64 LIG 0.20  C 
BRANCH 10 11
ATOM     11  CB  SER C 505      79.466  24.512 -15.837  1.00 89.01 LIG 0.20  C 
BRANCH 11 12
ATOM     12 OG   SER C 505      79.408  25.908 -16.062  1.00 87.22 LIG-0.40  OA
ATOM     13 HG   SER C 505      78.606  26.152 -16.106  1.00 87.22 LIG 0.21  HD
ENDBRANCH 11 12
ENDBRANCH 10 11
BRANCH 10 14
ATOM     14  C   SER C 505      78.112  22.406 -15.843  1.00 98.93 LIG 0.24  C 
ATOM     15  N   GLN C 506      78.655  21.894 -16.943  1.00110.12 LIG-0.35  N 
ATOM     16 H    GLN C 506      79.098  22.354 -17.520  1.00110.12 LIG 0.16  HD
ATOM     17 O    SER C 505      77.680  21.711 -14.921  1.00 94.47 LIG-0.27  OA
BRANCH 15 18
ATOM     18  CA  GLN C 506      78.537  20.477 -17.264  1.00115.19 LIG 0.16  C 
BRANCH 18 19
ATOM     19  C   GLN C 506      79.489  20.056 -18.384  1.00118.66 LIG 0.22  C 
ATOM     20 O    GLN C 506      80.685  20.349 -18.340  1.00117.46 LIG-0.29  OA
ENDBRANCH 18 19
BRANCH 18 21
ATOM     21  CB  GLN C 506      77.087  20.156 -17.644  1.00118.15 LIG 0.04  C 
BRANCH 21 22
ATOM     22  CG  GLN C 506      76.878  18.704 -18.099  1.00119.48 LIG 0.10  C 
BRANCH 22 23
ATOM     23  CD  GLN C 506      75.781  17.968 -17.329  1.00116.76 LIG 0.21  C 
ATOM     24  NE2 GLN C 506      76.182  17.086 -16.419  1.00111.94 LIG-0.37  N 
ATOM     25 21HE GLN C 506      77.022  16.953 -16.291  1.00111.94 LIG 0.16  HD
ATOM     26 22HE GLN C 506      75.602  16.649 -15.959  1.00111.94 LIG 0.16  HD
ATOM     27 OE1  GLN C 506      74.591  18.194 -17.549  1.00116.06 LIG-0.27  OA
ENDBRANCH 22 23
ENDBRANCH 21 22
ENDBRANCH 18 21
ENDBRANCH 15 18
ENDBRANCH 10 14
ENDBRANCH 7 10
ENDBRANCH 5 6
BRANCH 5 28
ATOM     28  CB  ASP C 504      74.895  26.769 -13.263  1.00 57.84 LIG 0.15  C 
BRANCH 28 29
ATOM     29  CG  ASP C 504      73.541  26.068 -13.258  1.00 60.92 LIG 0.17  C 
ATOM     30 OD2  ASP C 504      72.729  26.355 -12.346  1.00 60.43 LIG-0.65  OA
ATOM     31 OD1  ASP C 504      73.285  25.237 -14.155  1.00 59.69 LIG-0.65  OA
ENDBRANCH 28 29
ENDBRANCH 5 28
ENDBRANCH 3 5
BRANCH 1 32
ATOM     32  CA  SER C 503      78.681  26.387 -10.375  1.00 44.19 LIG 0.20  C 
BRANCH 32 33
ATOM     33  N   SER C 503      79.400  27.327 -11.238  1.00 47.77 LIG-0.34  N 
ATOM     34 H    SER C 503      79.041  28.107 -11.294  1.00 47.77 LIG 0.16  HD
ATOM     35  C   SER C 502      80.518  26.972 -11.868  1.00 50.79 LIG 0.24  C 
ATOM     36 O    SER C 502      81.172  25.985 -11.563  1.00 48.58 LIG-0.27  OA
BRANCH 35 37
ATOM     37  CA  SER C 502      80.959  27.855 -13.022  1.00 60.54 LIG 0.20  C 
BRANCH 37 38
ATOM     38  CB  SER C 502      79.967  28.984 -13.244  1.00 53.64 LIG 0.20  C 
BRANCH 38 39
ATOM     39 OG   SER C 502      80.623  30.215 -13.440  1.00 59.09 LIG-0.40  OA
ATOM     40 HG   SER C 502      81.450  30.112 -13.336  1.00 59.09 LIG 0.21  HD
ENDBRANCH 38 39
ENDBRANCH 37 38
BRANCH 37 41
ATOM     41  N   SER C 502      81.119  27.016 -14.203  1.00 72.56 LIG-0.34  N 
ATOM     42 H    SER C 502      80.464  26.482 -14.364  1.00 72.56 LIG 0.16  HD
ATOM     43  C   GLU C 501      82.218  27.109 -14.945  1.00101.90 LIG 0.26  C 
ATOM     44 O    GLU C 501      82.952  28.098 -14.913  1.00103.22 LIG-0.27  OA
BRANCH 43 45
ATOM     45  CA  GLU C 501      82.537  25.934 -15.880  1.00101.55 LIG 0.40  C 
ATOM     46  N   GLU C 501      82.955  26.428 -17.188  1.00100.94 LIG 0.61  N 
BRANCH 45 47
ATOM     47  CB  GLU C 501      83.628  25.045 -15.277  1.00104.94 LIG 0.06  C 
BRANCH 47 48
ATOM     48  CG  GLU C 501      83.414  23.559 -15.504  1.00111.45 LIG 0.12  C 
BRANCH 48 49
ATOM     49  CD  GLU C 501      82.673  23.269 -16.793  1.00115.68 LIG 0.17  C 
ATOM     50 OE1  GLU C 501      81.747  22.428 -16.777  1.00117.56 LIG-0.65  OA
ATOM     51 OE2  GLU C 501      83.020  23.885 -17.823  1.00122.11 LIG-0.65  OA
ENDBRANCH 48 49
ENDBRANCH 47 48
ENDBRANCH 45 47
ENDBRANCH 43 45
ENDBRANCH 37 41
ENDBRANCH 35 37
ENDBRANCH 32 33
BRANCH 32 52
ATOM     52  CB  SER C 503      78.094  27.095  -9.163  1.00 49.05 LIG 0.20  C 
BRANCH 52 53
ATOM     53 OG   SER C 503      78.809  26.746  -7.991  1.00 54.59 LIG-0.40  OA
ATOM     54 HG   SER C 503      78.589  27.261  -7.364  1.00 54.59 LIG 0.21  HD
ENDBRANCH 52 53
ENDBRANCH 32 52
ENDBRANCH 1 32
TORSDOF 25
ENDMDL
MODEL 25
USER: ADFR SOLUTION from run 14
USER: SCORE 17.594496 LL:  -4.908 LR: -13.538 RR:   0.000 FEB:  -6.081
USER: RMSD 7.329812
USER: SEED 190785
USER: STATUS no improvement in best in 1 clusters for 5 generations
USER: GENES 27
USER: genes 0 Translation |==|  0.61391 0.46612 0.31355
USER: genes 1 Rotation |==|  0.54934 0.99515 0.45831 0.52566
USER: genes 2 Torsion [C]-N--CA-[CB] |==|  0.51265
USER: genes 3 Torsion [N]-CA--C-[N] |==|  0.44825
USER: genes 4 Torsion [C]-N--CA-[C] |==|  0.75282
USER: genes 5 Torsion [N]-CA--CB-[OG] |==|  0.20557
USER: genes 6 Torsion [CA]-CB--OG-[HG] |==|  0.67259
USER: genes 7 Torsion [N]-CA--C-[N] |==|  0.34929
USER: genes 8 Torsion [C]-N--CA-[CB] |==|  0.40167
USER: genes 9 Torsion [N]-CA--C-[O] |==|  0.09569
USER: genes 10 Torsion [N]-CA--CB-[CG] |==|  0.82978
USER: genes 11 Torsion [CA]-CB--CG-[CD] |==|  0.25729
USER: genes 12 Torsion [CB]-CG--CD-[NE2] |==|  0.04353
USER: genes 13 Torsion [N]-CA--CB-[CG] |==|  0.78137
USER: genes 14 Torsion [CA]-CB--CG-[OD1] |==|  0.66634
USER: genes 15 Torsion [N]-C--CA-[N] |==|  0.85561
USER: genes 16 Torsion [C]-CA--N-[C] |==|  0.78167
USER: genes 17 Torsion [N]-C--CA-[N] |==|  0.95978
USER: genes 18 Torsion [C]-CA--CB-[OG] |==|  0.61439
USER: genes 19 Torsion [CA]-CB--OG-[HG] |==|  0.76969
USER: genes 20 Torsion [C]-CA--N-[C] |==|  0.78014
USER: genes 21 Torsion [N]-C--CA-[N] |==|  0.77336
USER: genes 22 Torsion [C]-CA--CB-[CG] |==|  0.43827
USER: genes 23 Torsion [CA]-CB--CG-[CD] |==|  0.08648
USER: genes 24 Torsion [CB]-CG--CD-[OE1] |==|  0.68265
USER: genes 25 Torsion [C]-CA--CB-[OG] |==|  0.65640
USER: genes 26 Torsion [CA]-CB--OG-[HG] |==|  0.89937
ROOT
ATOM      1  C   SER C 503      81.236  25.646 -18.040  1.00 42.27 LIG 0.24  C 
ATOM      2 O    SER C 503      80.244  26.334 -18.273  1.00 46.84 LIG-0.27  OA
ATOM      3  N   ASP C 504      81.208  24.558 -17.282  1.00 51.15 LIG-0.34  N 
ATOM      4 H    ASP C 504      81.877  24.024 -17.197  1.00 51.15 LIG 0.16  HD
ENDROOT
BRANCH 3 5
ATOM      5  CA  ASP C 504      80.031  24.159 -16.513  1.00 56.79 LIG 0.19  C 
BRANCH 5 6
ATOM      6  C   ASP C 504      79.553  25.323 -15.631  1.00 67.42 LIG 0.24  C 
ATOM      7  N   SER C 505      78.304  25.243 -15.183  1.00 81.52 LIG-0.34  N 
ATOM      8 H    SER C 505      77.770  24.595 -15.368  1.00 81.52 LIG 0.16  HD
ATOM      9 O    ASP C 504      80.302  26.265 -15.362  1.00 66.01 LIG-0.27  OA
BRANCH 7 10
ATOM     10  CA  SER C 505      77.723  26.270 -14.320  1.00 90.64 LIG 0.20  C 
BRANCH 10 11
ATOM     11  CB  SER C 505      76.224  26.395 -14.567  1.00 89.01 LIG 0.20  C 
BRANCH 11 12
ATOM     12 OG   SER C 505      75.539  25.294 -14.002  1.00 87.22 LIG-0.40  OA
ATOM     13 HG   SER C 505      75.151  24.864 -14.610  1.00 87.22 LIG 0.21  HD
ENDBRANCH 11 12
ENDBRANCH 10 11
BRANCH 10 14
ATOM     14  C   SER C 505      77.994  25.946 -12.854  1.00 98.93 LIG 0.24  C 
ATOM     15  N   GLN C 506      78.584  26.900 -12.139  1.00110.12 LIG-0.35  N 
ATOM     16 H    GLN C 506      78.680  27.711 -12.407  1.00110.12 LIG 0.16  HD
ATOM     17 O    SER C 505      77.663  24.858 -12.377  1.00 94.47 LIG-0.27  OA
BRANCH 15 18
ATOM     18  CA  GLN C 506      79.127  26.634 -10.812  1.00115.19 LIG 0.16  C 
BRANCH 18 19
ATOM     19  C   GLN C 506      78.114  26.920  -9.705  1.00118.66 LIG 0.22  C 
ATOM     20 O    GLN C 506      76.911  26.711  -9.878  1.00117.46 LIG-0.29  OA
ENDBRANCH 18 19
BRANCH 18 21
ATOM     21  CB  GLN C 506      80.398  27.464 -10.603  1.00118.15 LIG 0.04  C 
BRANCH 21 22
ATOM     22  CG  GLN C 506      81.519  27.136 -11.602  1.00119.48 LIG 0.10  C 
BRANCH 22 23
ATOM     23  CD  GLN C 506      81.514  28.022 -12.848  1.00116.76 LIG 0.21  C 
ATOM     24  NE2 GLN C 506      80.791  29.136 -12.783  1.00111.94 LIG-0.37  N 
ATOM     25 21HE GLN C 506      80.356  29.324 -12.066  1.00111.94 LIG 0.16  HD
ATOM     26 22HE GLN C 506      80.759  29.668 -13.458  1.00111.94 LIG 0.16  HD
ATOM     27 OE1  GLN C 506      82.155  27.709 -13.851  1.00116.06 LIG-0.27  OA
ENDBRANCH 22 23
ENDBRANCH 21 22
ENDBRANCH 18 21
ENDBRANCH 15 18
ENDBRANCH 10 14
ENDBRANCH 7 10
ENDBRANCH 5 6
BRANCH 5 28
ATOM     28  CB  ASP C 504      80.361  22.924 -15.657  1.00 57.84 LIG 0.15  C 
BRANCH 28 29
ATOM     29  CG  ASP C 504      80.352  21.621 -16.449  1.00 60.92 LIG 0.17  C 
ATOM     30 OD2  ASP C 504      81.148  21.507 -17.411  1.00 60.43 LIG-0.65  OA
ATOM     31 OD1  ASP C 504      79.559  20.714 -16.115  1.00 59.69 LIG-0.65  OA
ENDBRANCH 28 29
ENDBRANCH 5 28
ENDBRANCH 3 5
BRANCH 1 32
ATOM     32  CA  SER C 503      82.584  26.005 -18.638  1.00 44.19 LIG 0.20  C 
BRANCH 32 33
ATOM     33  N   SER C 503      83.616  26.053 -17.600  1.00 47.77 LIG-0.34  N 
ATOM     34 H    SER C 503      84.122  25.358 -17.566  1.00 47.77 LIG 0.16  HD
ATOM     35  C   SER C 502      83.735  27.105 -16.792  1.00 50.79 LIG 0.24  C 
ATOM     36 O    SER C 502      83.221  28.190 -17.026  1.00 48.58 LIG-0.27  OA
BRANCH 35 37
ATOM     37  CA  SER C 502      84.545  26.901 -15.524  1.00 60.54 LIG 0.20  C 
BRANCH 37 38
ATOM     38  CB  SER C 502      85.866  27.646 -15.604  1.00 53.64 LIG 0.20  C 
BRANCH 38 39
ATOM     39 OG   SER C 502      86.924  26.878 -15.080  1.00 59.09 LIG-0.40  OA
ATOM     40 HG   SER C 502      86.943  26.959 -14.245  1.00 59.09 LIG 0.21  HD
ENDBRANCH 38 39
ENDBRANCH 37 38
BRANCH 37 41
ATOM     41  N   SER C 502      84.726  25.468 -15.325  1.00 72.56 LIG-0.34  N 
ATOM     42 H    SER C 502      85.494  25.161 -15.561  1.00 72.56 LIG 0.16  HD
ATOM     43  C   GLU C 501      83.743  24.735 -14.811  1.00101.90 LIG 0.26  C 
ATOM     44 O    GLU C 501      82.822  25.232 -14.162  1.00103.22 LIG-0.27  OA
BRANCH 43 45
ATOM     45  CA  GLU C 501      83.808  23.218 -15.033  1.00101.55 LIG 0.40  C 
ATOM     46  N   GLU C 501      83.296  22.878 -16.357  1.00100.94 LIG 0.61  N 
BRANCH 45 47
ATOM     47  CB  GLU C 501      85.244  22.710 -14.875  1.00104.94 LIG 0.06  C 
BRANCH 47 48
ATOM     48  CG  GLU C 501      85.347  21.231 -14.548  1.00111.45 LIG 0.12  C 
BRANCH 48 49
ATOM     49  CD  GLU C 501      84.215  20.423 -15.149  1.00115.68 LIG 0.17  C 
ATOM     50 OE1  GLU C 501      83.396  19.873 -14.380  1.00117.56 LIG-0.65  OA
ATOM     51 OE2  GLU C 501      84.146  20.340 -16.394  1.00122.11 LIG-0.65  OA
ENDBRANCH 48 49
ENDBRANCH 47 48
ENDBRANCH 45 47
ENDBRANCH 43 45
ENDBRANCH 37 41
ENDBRANCH 35 37
ENDBRANCH 32 33
BRANCH 32 52
ATOM     52  CB  SER C 503      82.941  24.992 -19.718  1.00 49.05 LIG 0.20  C 
BRANCH 52 53
ATOM     53 OG   SER C 503      84.192  24.391 -19.437  1.00 54.59 LIG-0.40  OA
ATOM     54 HG   SER C 503      84.707  24.960 -19.094  1.00 54.59 LIG 0.21  HD
ENDBRANCH 52 53
ENDBRANCH 32 52
ENDBRANCH 1 32
TORSDOF 25
ENDMDL
MODEL 26
USER: ADFR SOLUTION from run 53
USER: SCORE 16.705178 LL:  -4.607 LR: -13.517 RR:   0.000 FEB:  -6.060
USER: RMSD 5.623243
USER: SEED 52
USER: STATUS no improvement in best in 4 clusters for 5 generations
USER: GENES 27
USER: genes 0 Translation |==|  0.60285 0.59902 0.44840
USER: genes 1 Rotation |==|  0.38083 0.47142 0.36817 0.96648
USER: genes 2 Torsion [C]-N--CA-[CB] |==|  0.77179
USER: genes 3 Torsion [N]-CA--C-[N] |==|  0.62777
USER: genes 4 Torsion [C]-N--CA-[C] |==|  0.72511
USER: genes 5 Torsion [N]-CA--CB-[OG] |==|  0.54579
USER: genes 6 Torsion [CA]-CB--OG-[HG] |==|  0.90902
USER: genes 7 Torsion [N]-CA--C-[N] |==|  0.04588
USER: genes 8 Torsion [C]-N--CA-[CB] |==|  0.43711
USER: genes 9 Torsion [N]-CA--C-[O] |==|  0.03838
USER: genes 10 Torsion [N]-CA--CB-[CG] |==|  0.89269
USER: genes 11 Torsion [CA]-CB--CG-[CD] |==|  0.75057
USER: genes 12 Torsion [CB]-CG--CD-[NE2] |==|  0.28153
USER: genes 13 Torsion [N]-CA--CB-[CG] |==|  0.54106
USER: genes 14 Torsion [CA]-CB--CG-[OD1] |==|  0.67941
USER: genes 15 Torsion [N]-C--CA-[N] |==|  0.12166
USER: genes 16 Torsion [C]-CA--N-[C] |==|  0.17163
USER: genes 17 Torsion [N]-C--CA-[N] |==|  0.44732
USER: genes 18 Torsion [C]-CA--CB-[OG] |==|  0.62545
USER: genes 19 Torsion [CA]-CB--OG-[HG] |==|  0.99754
USER: genes 20 Torsion [C]-CA--N-[C] |==|  0.71082
USER: genes 21 Torsion [N]-C--CA-[N] |==|  0.38421
USER: genes 22 Torsion [C]-CA--CB-[CG] |==|  0.02960
USER: genes 23 Torsion [CA]-CB--CG-[CD] |==|  0.71383
USER: genes 24 Torsion [CB]-CG--CD-[OE1] |==|  0.48959
USER: genes 25 Torsion [C]-CA--CB-[OG] |==|  0.56545
USER: genes 26 Torsion [CA]-CB--OG-[HG] |==|  0.20081
ROOT
ATOM      1  C   SER C 503      81.045  28.437 -15.511  1.00 42.27 LIG 0.24  C 
ATOM      2 O    SER C 503      82.264  28.299 -15.436  1.00 46.84 LIG-0.27  OA
ATOM      3  N   ASP C 504      80.197  27.419 -15.574  1.00 51.15 LIG-0.34  N 
ATOM      4 H    ASP C 504      79.343  27.511 -15.530  1.00 51.15 LIG 0.16  HD
ENDROOT
BRANCH 3 5
ATOM      5  CA  ASP C 504      80.636  26.033 -15.728  1.00 56.79 LIG 0.19  C 
BRANCH 5 6
ATOM      6  C   ASP C 504      81.882  25.772 -14.870  1.00 67.42 LIG 0.24  C 
ATOM      7  N   SER C 505      82.875  25.117 -15.464  1.00 81.52 LIG-0.34  N 
ATOM      8 H    SER C 505      82.844  24.836 -16.276  1.00 81.52 LIG 0.16  HD
ATOM      9 O    ASP C 504      81.942  26.160 -13.701  1.00 66.01 LIG-0.27  OA
BRANCH 7 10
ATOM     10  CA  SER C 505      84.127  24.816 -14.774  1.00 90.64 LIG 0.20  C 
BRANCH 10 11
ATOM     11  CB  SER C 505      84.597  23.403 -15.103  1.00 89.01 LIG 0.20  C 
BRANCH 11 12
ATOM     12 OG   SER C 505      85.571  22.978 -14.169  1.00 87.22 LIG-0.40  OA
ATOM     13 HG   SER C 505      86.024  23.638 -13.917  1.00 87.22 LIG 0.21  HD
ENDBRANCH 11 12
ENDBRANCH 10 11
BRANCH 10 14
ATOM     14  C   SER C 505      85.200  25.833 -15.152  1.00 98.93 LIG 0.24  C 
ATOM     15  N   GLN C 506      84.773  26.956 -15.721  1.00110.12 LIG-0.35  N 
ATOM     16 H    GLN C 506      83.947  27.198 -15.748  1.00110.12 LIG 0.16  HD
ATOM     17 O    SER C 505      86.390  25.608 -14.921  1.00 94.47 LIG-0.27  OA
BRANCH 15 18
ATOM     18  CA  GLN C 506      85.695  27.888 -16.359  1.00115.19 LIG 0.16  C 
BRANCH 18 19
ATOM     19  C   GLN C 506      86.415  28.775 -15.344  1.00118.66 LIG 0.22  C 
ATOM     20 O    GLN C 506      86.394  28.505 -14.142  1.00117.46 LIG-0.29  OA
ENDBRANCH 18 19
BRANCH 18 21
ATOM     21  CB  GLN C 506      84.935  28.745 -17.377  1.00118.15 LIG 0.04  C 
BRANCH 21 22
ATOM     22  CG  GLN C 506      83.866  27.968 -18.160  1.00119.48 LIG 0.10  C 
BRANCH 22 23
ATOM     23  CD  GLN C 506      84.385  27.332 -19.449  1.00116.76 LIG 0.21  C 
ATOM     24  NE2 GLN C 506      84.648  26.029 -19.406  1.00111.94 LIG-0.37  N 
ATOM     25 21HE GLN C 506      84.525  25.590 -18.677  1.00111.94 LIG 0.16  HD
ATOM     26 22HE GLN C 506      84.939  25.626 -20.107  1.00111.94 LIG 0.16  HD
ATOM     27 OE1  GLN C 506      84.543  28.004 -20.469  1.00116.06 LIG-0.27  OA
ENDBRANCH 22 23
ENDBRANCH 21 22
ENDBRANCH 18 21
ENDBRANCH 15 18
ENDBRANCH 10 14
ENDBRANCH 7 10
ENDBRANCH 5 6
BRANCH 5 28
ATOM     28  CB  ASP C 504      80.920  25.737 -17.211  1.00 57.84 LIG 0.15  C 
BRANCH 28 29
ATOM     29  CG  ASP C 504      81.033  24.248 -17.519  1.00 60.92 LIG 0.17  C 
ATOM     30 OD2  ASP C 504      80.014  23.533 -17.365  1.00 60.43 LIG-0.65  OA
ATOM     31 OD1  ASP C 504      82.127  23.792 -17.915  1.00 59.69 LIG-0.65  OA
ENDBRANCH 28 29
ENDBRANCH 5 28
ENDBRANCH 3 5
BRANCH 1 32
ATOM     32  CA  SER C 503      80.422  29.821 -15.519  1.00 44.19 LIG 0.20  C 
BRANCH 32 33
ATOM     33  N   SER C 503      79.260  29.872 -14.629  1.00 47.77 LIG-0.34  N 
ATOM     34 H    SER C 503      78.516  30.054 -15.022  1.00 47.77 LIG 0.16  HD
ATOM     35  C   SER C 502      79.379  29.649 -13.321  1.00 50.79 LIG 0.24  C 
ATOM     36 O    SER C 502      80.359  29.115 -12.821  1.00 48.58 LIG-0.27  OA
BRANCH 35 37
ATOM     37  CA  SER C 502      78.227  30.107 -12.445  1.00 60.54 LIG 0.20  C 
BRANCH 37 38
ATOM     38  CB  SER C 502      78.249  31.617 -12.273  1.00 53.64 LIG 0.20  C 
BRANCH 38 39
ATOM     39 OG   SER C 502      78.037  31.986 -10.930  1.00 59.09 LIG-0.40  OA
ATOM     40 HG   SER C 502      77.923  31.297 -10.465  1.00 59.09 LIG 0.21  HD
ENDBRANCH 38 39
ENDBRANCH 37 38
BRANCH 37 41
ATOM     41  N   SER C 502      78.312  29.401 -11.173  1.00 72.56 LIG-0.34  N 
ATOM     42 H    SER C 502      78.920  29.688 -10.637  1.00 72.56 LIG 0.16  HD
ATOM     43  C   GLU C 501      77.485  28.394 -10.910  1.00101.90 LIG 0.26  C 
ATOM     44 O    GLU C 501      76.422  28.242 -11.513  1.00103.22 LIG-0.27  OA
BRANCH 43 45
ATOM     45  CA  GLU C 501      77.893  27.423  -9.795  1.00101.55 LIG 0.40  C 
ATOM     46  N   GLU C 501      76.736  27.081  -8.973  1.00100.94 LIG 0.61  N 
BRANCH 45 47
ATOM     47  CB  GLU C 501      78.516  26.154 -10.384  1.00104.94 LIG 0.06  C 
BRANCH 47 48
ATOM     48  CG  GLU C 501      78.823  26.244 -11.868  1.00111.45 LIG 0.12  C 
BRANCH 48 49
ATOM     49  CD  GLU C 501      77.808  25.506 -12.717  1.00115.68 LIG 0.17  C 
ATOM     50 OE1  GLU C 501      77.911  25.565 -13.962  1.00117.56 LIG-0.65  OA
ATOM     51 OE2  GLU C 501      76.907  24.866 -12.135  1.00122.11 LIG-0.65  OA
ENDBRANCH 48 49
ENDBRANCH 47 48
ENDBRANCH 45 47
ENDBRANCH 43 45
ENDBRANCH 37 41
ENDBRANCH 35 37
ENDBRANCH 32 33
BRANCH 32 52
ATOM     52  CB  SER C 503      81.470  30.848 -15.109  1.00 49.05 LIG 0.20  C 
BRANCH 52 53
ATOM     53 OG   SER C 503      80.847  32.009 -14.589  1.00 54.59 LIG-0.40  OA
ATOM     54 HG   SER C 503      80.529  31.840 -13.829  1.00 54.59 LIG 0.21  HD
ENDBRANCH 52 53
ENDBRANCH 32 52
ENDBRANCH 1 32
TORSDOF 25
ENDMDL
MODEL 27
USER: ADFR SOLUTION from run 25
USER: SCORE 17.035736 LL:  -4.769 LR: -13.497 RR:   0.000 FEB:  -6.040
USER: RMSD 4.937716
USER: SEED 24
USER: STATUS 1 or 2 clusters left
USER: GENES 27
USER: genes 0 Translation |==|  0.41720 0.42441 0.49377
USER: genes 1 Rotation |==|  0.51247 0.41457 0.54329 0.99058
USER: genes 2 Torsion [C]-N--CA-[CB] |==|  0.58459
USER: genes 3 Torsion [N]-CA--C-[N] |==|  0.37885
USER: genes 4 Torsion [C]-N--CA-[C] |==|  0.20515
USER: genes 5 Torsion [N]-CA--CB-[OG] |==|  0.85856
USER: genes 6 Torsion [CA]-CB--OG-[HG] |==|  0.14838
USER: genes 7 Torsion [N]-CA--C-[N] |==|  0.08197
USER: genes 8 Torsion [C]-N--CA-[CB] |==|  0.17402
USER: genes 9 Torsion [N]-CA--C-[O] |==|  0.29608
USER: genes 10 Torsion [N]-CA--CB-[CG] |==|  0.66123
USER: genes 11 Torsion [CA]-CB--CG-[CD] |==|  0.73751
USER: genes 12 Torsion [CB]-CG--CD-[NE2] |==|  0.06612
USER: genes 13 Torsion [N]-CA--CB-[CG] |==|  0.52258
USER: genes 14 Torsion [CA]-CB--CG-[OD1] |==|  0.89710
USER: genes 15 Torsion [N]-C--CA-[N] |==|  0.45318
USER: genes 16 Torsion [C]-CA--N-[C] |==|  0.82778
USER: genes 17 Torsion [N]-C--CA-[N] |==|  0.14392
USER: genes 18 Torsion [C]-CA--CB-[OG] |==|  0.16733
USER: genes 19 Torsion [CA]-CB--OG-[HG] |==|  0.70830
USER: genes 20 Torsion [C]-CA--N-[C] |==|  0.73873
USER: genes 21 Torsion [N]-C--CA-[N] |==|  0.63864
USER: genes 22 Torsion [C]-CA--CB-[CG] |==|  0.67224
USER: genes 23 Torsion [CA]-CB--CG-[CD] |==|  0.20693
USER: genes 24 Torsion [CB]-CG--CD-[OE1] |==|  0.73999
USER: genes 25 Torsion [C]-CA--CB-[OG] |==|  0.35514
USER: genes 26 Torsion [CA]-CB--OG-[HG] |==|  0.03773
ROOT
ATOM      1  C   SER C 503      77.843  24.771 -14.661  1.00 42.27 LIG 0.24  C 
ATOM      2 O    SER C 503      78.786  25.440 -14.247  1.00 46.84 LIG-0.27  OA
ATOM      3  N   ASP C 504      77.990  23.615 -15.296  1.00 51.15 LIG-0.34  N 
ATOM      4 H    ASP C 504      77.331  23.100 -15.499  1.00 51.15 LIG 0.16  HD
ENDROOT
BRANCH 3 5
ATOM      5  CA  ASP C 504      79.293  23.103 -15.714  1.00 56.79 LIG 0.19  C 
BRANCH 5 6
ATOM      6  C   ASP C 504      80.270  24.264 -15.950  1.00 67.42 LIG 0.24  C 
ATOM      7  N   SER C 505      81.498  24.103 -15.467  1.00 81.52 LIG-0.34  N 
ATOM      8 H    SER C 505      81.755  23.405 -15.036  1.00 81.52 LIG 0.16  HD
ATOM      9 O    ASP C 504      79.918  25.277 -16.559  1.00 66.01 LIG-0.27  OA
BRANCH 7 10
ATOM     10  CA  SER C 505      82.536  25.119 -15.633  1.00 90.64 LIG 0.20  C 
BRANCH 10 11
ATOM     11  CB  SER C 505      82.609  25.581 -17.084  1.00 89.01 LIG 0.20  C 
BRANCH 11 12
ATOM     12 OG   SER C 505      82.704  24.467 -17.951  1.00 87.22 LIG-0.40  OA
ATOM     13 HG   SER C 505      82.076  23.933 -17.791  1.00 87.22 LIG 0.21  HD
ENDBRANCH 11 12
ENDBRANCH 10 11
BRANCH 10 14
ATOM     14  C   SER C 505      82.269  26.305 -14.712  1.00 98.93 LIG 0.24  C 
ATOM     15  N   GLN C 506      81.631  26.037 -13.576  1.00110.12 LIG-0.35  N 
ATOM     16 H    GLN C 506      81.500  25.243 -13.274  1.00110.12 LIG 0.16  HD
ATOM     17 O    SER C 505      82.645  27.438 -15.019  1.00 94.47 LIG-0.27  OA
BRANCH 15 18
ATOM     18  CA  GLN C 506      81.090  27.099 -12.735  1.00115.19 LIG 0.16  C 
BRANCH 18 19
ATOM     19  C   GLN C 506      80.527  26.564 -11.419  1.00118.66 LIG 0.22  C 
ATOM     20 O    GLN C 506      81.126  26.740 -10.357  1.00117.46 LIG-0.29  OA
ENDBRANCH 18 19
BRANCH 18 21
ATOM     21  CB  GLN C 506      80.011  27.865 -13.508  1.00118.15 LIG 0.04  C 
BRANCH 21 22
ATOM     22  CG  GLN C 506      80.301  29.367 -13.644  1.00119.48 LIG 0.10  C 
BRANCH 22 23
ATOM     23  CD  GLN C 506      79.641  30.224 -12.563  1.00116.76 LIG 0.21  C 
ATOM     24  NE2 GLN C 506      79.341  29.613 -11.421  1.00111.94 LIG-0.37  N 
ATOM     25 21HE GLN C 506      79.518  28.777 -11.322  1.00111.94 LIG 0.16  HD
ATOM     26 22HE GLN C 506      78.972  30.053 -10.782  1.00111.94 LIG 0.16  HD
ATOM     27 OE1  GLN C 506      79.410  31.418 -12.753  1.00116.06 LIG-0.27  OA
ENDBRANCH 22 23
ENDBRANCH 21 22
ENDBRANCH 18 21
ENDBRANCH 15 18
ENDBRANCH 10 14
ENDBRANCH 7 10
ENDBRANCH 5 6
BRANCH 5 28
ATOM     28  CB  ASP C 504      79.135  22.254 -16.988  1.00 57.84 LIG 0.15  C 
BRANCH 28 29
ATOM     29  CG  ASP C 504      80.409  21.518 -17.386  1.00 60.92 LIG 0.17  C 
ATOM     30 OD2  ASP C 504      80.301  20.365 -17.868  1.00 60.43 LIG-0.65  OA
ATOM     31 OD1  ASP C 504      81.512  22.083 -17.223  1.00 59.69 LIG-0.65  OA
ENDBRANCH 28 29
ENDBRANCH 5 28
ENDBRANCH 3 5
BRANCH 1 32
ATOM     32  CA  SER C 503      76.413  25.233 -14.446  1.00 44.19 LIG 0.20  C 
BRANCH 32 33
ATOM     33  N   SER C 503      76.354  26.274 -13.417  1.00 47.77 LIG-0.34  N 
ATOM     34 H    SER C 503      76.058  27.033 -13.694  1.00 47.77 LIG 0.16  HD
ATOM     35  C   SER C 502      76.734  26.031 -12.164  1.00 50.79 LIG 0.24  C 
ATOM     36 O    SER C 502      76.871  24.902 -11.714  1.00 48.58 LIG-0.27  OA
BRANCH 35 37
ATOM     37  CA  SER C 502      77.011  27.242 -11.291  1.00 60.54 LIG 0.20  C 
BRANCH 37 38
ATOM     38  CB  SER C 502      77.325  26.817  -9.866  1.00 53.64 LIG 0.20  C 
BRANCH 38 39
ATOM     39 OG   SER C 502      78.461  25.985  -9.814  1.00 59.09 LIG-0.40  OA
ATOM     40 HG   SER C 502      78.220  25.191  -9.685  1.00 59.09 LIG 0.21  HD
ENDBRANCH 38 39
ENDBRANCH 37 38
BRANCH 37 41
ATOM     41  N   SER C 502      75.859  28.132 -11.365  1.00 72.56 LIG-0.34  N 
ATOM     42 H    SER C 502      75.226  27.955 -10.811  1.00 72.56 LIG 0.16  HD
ATOM     43  C   GLU C 501      75.840  29.129 -12.244  1.00101.90 LIG 0.26  C 
ATOM     44 O    GLU C 501      76.868  29.574 -12.755  1.00103.22 LIG-0.27  OA
BRANCH 43 45
ATOM     45  CA  GLU C 501      74.474  29.736 -12.587  1.00101.55 LIG 0.40  C 
ATOM     46  N   GLU C 501      74.303  29.812 -14.035  1.00100.94 LIG 0.61  N 
BRANCH 45 47
ATOM     47  CB  GLU C 501      73.344  28.912 -11.964  1.00104.94 LIG 0.06  C 
BRANCH 47 48
ATOM     48  CG  GLU C 501      72.395  28.294 -12.976  1.00111.45 LIG 0.12  C 
BRANCH 48 49
ATOM     49  CD  GLU C 501      73.004  27.108 -13.695  1.00115.68 LIG 0.17  C 
ATOM     50 OE1  GLU C 501      73.576  27.301 -14.790  1.00117.56 LIG-0.65  OA
ATOM     51 OE2  GLU C 501      72.909  25.983 -13.161  1.00122.11 LIG-0.65  OA
ENDBRANCH 48 49
ENDBRANCH 47 48
ENDBRANCH 45 47
ENDBRANCH 43 45
ENDBRANCH 37 41
ENDBRANCH 35 37
ENDBRANCH 32 33
BRANCH 32 52
ATOM     52  CB  SER C 503      75.841  25.733 -15.765  1.00 49.05 LIG 0.20  C 
BRANCH 52 53
ATOM     53 OG   SER C 503      74.605  25.099 -16.041  1.00 54.59 LIG-0.40  OA
ATOM     54 HG   SER C 503      74.329  24.711 -15.348  1.00 54.59 LIG 0.21  HD
ENDBRANCH 52 53
ENDBRANCH 32 52
ENDBRANCH 1 32
TORSDOF 25
ENDMDL
MODEL 28
USER: ADFR SOLUTION from run 99
USER: SCORE 15.351826 LL:  -3.379 LR: -13.460 RR:   0.000 FEB:  -6.003
USER: RMSD 4.270146
USER: SEED 98
USER: STATUS searching
USER: GENES 27
USER: genes 0 Translation |==|  0.39134 0.39738 0.51082
USER: genes 1 Rotation |==|  0.84167 0.22750 0.28503 0.61310
USER: genes 2 Torsion [C]-N--CA-[CB] |==|  0.16667
USER: genes 3 Torsion [N]-CA--C-[N] |==|  0.36924
USER: genes 4 Torsion [C]-N--CA-[C] |==|  0.82532
USER: genes 5 Torsion [N]-CA--CB-[OG] |==|  0.22471
USER: genes 6 Torsion [CA]-CB--OG-[HG] |==|  0.20450
USER: genes 7 Torsion [N]-CA--C-[N] |==|  0.40878
USER: genes 8 Torsion [C]-N--CA-[CB] |==|  0.46246
USER: genes 9 Torsion [N]-CA--C-[O] |==|  0.25933
USER: genes 10 Torsion [N]-CA--CB-[CG] |==|  0.03436
USER: genes 11 Torsion [CA]-CB--CG-[CD] |==|  0.23723
USER: genes 12 Torsion [CB]-CG--CD-[NE2] |==|  0.64870
USER: genes 13 Torsion [N]-CA--CB-[CG] |==|  0.59397
USER: genes 14 Torsion [CA]-CB--CG-[OD1] |==|  0.74431
USER: genes 15 Torsion [N]-C--CA-[N] |==|  0.88909
USER: genes 16 Torsion [C]-CA--N-[C] |==|  0.78910
USER: genes 17 Torsion [N]-C--CA-[N] |==|  0.20170
USER: genes 18 Torsion [C]-CA--CB-[OG] |==|  0.77161
USER: genes 19 Torsion [CA]-CB--OG-[HG] |==|  0.20372
USER: genes 20 Torsion [C]-CA--N-[C] |==|  0.76233
USER: genes 21 Torsion [N]-C--CA-[N] |==|  0.95325
USER: genes 22 Torsion [C]-CA--CB-[CG] |==|  0.43603
USER: genes 23 Torsion [CA]-CB--CG-[CD] |==|  0.15321
USER: genes 24 Torsion [CB]-CG--CD-[OE1] |==|  0.78832
USER: genes 25 Torsion [C]-CA--CB-[OG] |==|  0.34761
USER: genes 26 Torsion [CA]-CB--OG-[HG] |==|  0.87314
ROOT
ATOM      1  C   SER C 503      77.397  24.203 -14.341  1.00 42.27 LIG 0.24  C 
ATOM      2 O    SER C 503      77.143  23.001 -14.350  1.00 46.84 LIG-0.27  OA
ATOM      3  N   ASP C 504      78.497  24.721 -14.871  1.00 51.15 LIG-0.34  N 
ATOM      4 H    ASP C 504      78.629  25.567 -14.953  1.00 51.15 LIG 0.16  HD
ENDROOT
BRANCH 3 5
ATOM      5  CA  ASP C 504      79.597  23.899 -15.372  1.00 56.79 LIG 0.19  C 
BRANCH 5 6
ATOM      6  C   ASP C 504      80.745  24.791 -15.866  1.00 67.42 LIG 0.24  C 
ATOM      7  N   SER C 505      81.965  24.457 -15.455  1.00 81.52 LIG-0.34  N 
ATOM      8 H    SER C 505      82.129  23.793 -14.935  1.00 81.52 LIG 0.16  HD
ATOM      9 O    ASP C 504      80.528  25.753 -16.606  1.00 66.01 LIG-0.27  OA
BRANCH 7 10
ATOM     10  CA  SER C 505      83.151  25.207 -15.862  1.00 90.64 LIG 0.20  C 
BRANCH 10 11
ATOM     11  CB  SER C 505      84.390  24.685 -15.142  1.00 89.01 LIG 0.20  C 
BRANCH 11 12
ATOM     12 OG   SER C 505      84.878  23.521 -15.782  1.00 87.22 LIG-0.40  OA
ATOM     13 HG   SER C 505      85.249  23.733 -16.504  1.00 87.22 LIG 0.21  HD
ENDBRANCH 11 12
ENDBRANCH 10 11
BRANCH 10 14
ATOM     14  C   SER C 505      83.341  25.120 -17.374  1.00 98.93 LIG 0.24  C 
ATOM     15  N   GLN C 506      83.874  26.187 -17.962  1.00110.12 LIG-0.35  N 
ATOM     16 H    GLN C 506      84.244  26.837 -17.536  1.00110.12 LIG 0.16  HD
ATOM     17 O    SER C 505      83.022  24.103 -17.991  1.00 94.47 LIG-0.27  OA
BRANCH 15 18
ATOM     18  CA  GLN C 506      83.873  26.340 -19.412  1.00115.19 LIG 0.16  C 
BRANCH 18 19
ATOM     19  C   GLN C 506      84.824  25.359 -20.097  1.00118.66 LIG 0.22  C 
ATOM     20 O    GLN C 506      84.421  24.270 -20.510  1.00117.46 LIG-0.29  OA
ENDBRANCH 18 19
BRANCH 18 21
ATOM     21  CB  GLN C 506      84.237  27.783 -19.776  1.00118.15 LIG 0.04  C 
BRANCH 21 22
ATOM     22  CG  GLN C 506      84.792  28.594 -18.595  1.00119.48 LIG 0.10  C 
BRANCH 22 23
ATOM     23  CD  GLN C 506      86.296  28.422 -18.381  1.00116.76 LIG 0.21  C 
ATOM     24  NE2 GLN C 506      86.686  28.061 -17.163  1.00111.94 LIG-0.37  N 
ATOM     25 21HE GLN C 506      86.102  27.939 -16.543  1.00111.94 LIG 0.16  HD
ATOM     26 22HE GLN C 506      87.522  27.949 -16.994  1.00111.94 LIG 0.16  HD
ATOM     27 OE1  GLN C 506      87.093  28.608 -19.301  1.00116.06 LIG-0.27  OA
ENDBRANCH 22 23
ENDBRANCH 21 22
ENDBRANCH 18 21
ENDBRANCH 15 18
ENDBRANCH 10 14
ENDBRANCH 7 10
ENDBRANCH 5 6
BRANCH 5 28
ATOM     28  CB  ASP C 504      79.091  22.982 -16.499  1.00 57.84 LIG 0.15  C 
BRANCH 28 29
ATOM     29  CG  ASP C 504      79.788  21.626 -16.533  1.00 60.92 LIG 0.17  C 
ATOM     30 OD2  ASP C 504      79.311  20.697 -15.838  1.00 60.43 LIG-0.65  OA
ATOM     31 OD1  ASP C 504      80.803  21.483 -17.249  1.00 59.69 LIG-0.65  OA
ENDBRANCH 28 29
ENDBRANCH 5 28
ENDBRANCH 3 5
BRANCH 1 32
ATOM     32  CA  SER C 503      76.428  25.194 -13.722  1.00 44.19 LIG 0.20  C 
BRANCH 32 33
ATOM     33  N   SER C 503      77.150  26.241 -12.996  1.00 47.77 LIG-0.34  N 
ATOM     34 H    SER C 503      77.187  26.998 -13.402  1.00 47.77 LIG 0.16  HD
ATOM     35  C   SER C 502      77.694  26.006 -11.803  1.00 50.79 LIG 0.24  C 
ATOM     36 O    SER C 502      77.397  25.042 -11.111  1.00 48.58 LIG-0.27  OA
BRANCH 35 37
ATOM     37  CA  SER C 502      78.737  26.999 -11.323  1.00 60.54 LIG 0.20  C 
BRANCH 37 38
ATOM     38  CB  SER C 502      79.546  26.419 -10.176  1.00 53.64 LIG 0.20  C 
BRANCH 38 39
ATOM     39 OG   SER C 502      78.872  26.558  -8.946  1.00 59.09 LIG-0.40  OA
ATOM     40 HG   SER C 502      78.232  26.015  -8.914  1.00 59.09 LIG 0.21  HD
ENDBRANCH 38 39
ENDBRANCH 37 38
BRANCH 37 41
ATOM     41  N   SER C 502      78.055  28.234 -10.953  1.00 72.56 LIG-0.34  N 
ATOM     42 H    SER C 502      77.854  28.305 -10.120  1.00 72.56 LIG 0.16  HD
ATOM     43  C   GLU C 501      77.787  29.152 -11.877  1.00101.90 LIG 0.26  C 
ATOM     44 O    GLU C 501      78.384  29.196 -12.953  1.00103.22 LIG-0.27  OA
BRANCH 43 45
ATOM     45  CA  GLU C 501      76.707  30.189 -11.544  1.00101.55 LIG 0.40  C 
ATOM     46  N   GLU C 501      75.896  29.733 -10.419  1.00100.94 LIG 0.61  N 
BRANCH 45 47
ATOM     47  CB  GLU C 501      77.341  31.545 -11.222  1.00104.94 LIG 0.06  C 
BRANCH 47 48
ATOM     48  CG  GLU C 501      76.411  32.729 -11.420  1.00111.45 LIG 0.12  C 
BRANCH 48 49
ATOM     49  CD  GLU C 501      75.121  32.591 -10.637  1.00115.68 LIG 0.17  C 
ATOM     50 OE1  GLU C 501      74.241  31.812 -11.065  1.00117.56 LIG-0.65  OA
ATOM     51 OE2  GLU C 501      74.991  33.264  -9.593  1.00122.11 LIG-0.65  OA
ENDBRANCH 48 49
ENDBRANCH 47 48
ENDBRANCH 45 47
ENDBRANCH 43 45
ENDBRANCH 37 41
ENDBRANCH 35 37
ENDBRANCH 32 33
BRANCH 32 52
ATOM     52  CB  SER C 503      75.551  25.791 -14.813  1.00 49.05 LIG 0.20  C 
BRANCH 52 53
ATOM     53 OG   SER C 503      74.181  25.611 -14.501  1.00 54.59 LIG-0.40  OA
ATOM     54 HG   SER C 503      74.053  24.822 -14.243  1.00 54.59 LIG 0.21  HD
ENDBRANCH 52 53
ENDBRANCH 32 52
ENDBRANCH 1 32
TORSDOF 25
ENDMDL
MODEL 29
USER: ADFR SOLUTION from run 28
USER: SCORE 16.524388 LL:  -4.367 LR: -13.453 RR:   0.000 FEB:  -5.995
USER: RMSD 5.002136
USER: SEED 27
USER: STATUS no improvement in best in 4 clusters for 5 generations
USER: GENES 27
USER: genes 0 Translation |==|  0.42714 0.40600 0.48110
USER: genes 1 Rotation |==|  0.92342 0.28890 0.37036 0.59667
USER: genes 2 Torsion [C]-N--CA-[CB] |==|  0.26667
USER: genes 3 Torsion [N]-CA--C-[N] |==|  0.96171
USER: genes 4 Torsion [C]-N--CA-[C] |==|  0.16333
USER: genes 5 Torsion [N]-CA--CB-[OG] |==|  0.92025
USER: genes 6 Torsion [CA]-CB--OG-[HG] |==|  0.99133
USER: genes 7 Torsion [N]-CA--C-[N] |==|  0.06222
USER: genes 8 Torsion [C]-N--CA-[CB] |==|  0.33280
USER: genes 9 Torsion [N]-CA--C-[O] |==|  0.98792
USER: genes 10 Torsion [N]-CA--CB-[CG] |==|  0.80779
USER: genes 11 Torsion [CA]-CB--CG-[CD] |==|  0.78087
USER: genes 12 Torsion [CB]-CG--CD-[NE2] |==|  0.94264
USER: genes 13 Torsion [N]-CA--CB-[CG] |==|  0.65570
USER: genes 14 Torsion [CA]-CB--CG-[OD1] |==|  0.62339
USER: genes 15 Torsion [N]-C--CA-[N] |==|  0.87779
USER: genes 16 Torsion [C]-CA--N-[C] |==|  0.81822
USER: genes 17 Torsion [N]-C--CA-[N] |==|  0.20911
USER: genes 18 Torsion [C]-CA--CB-[OG] |==|  0.59409
USER: genes 19 Torsion [CA]-CB--OG-[HG] |==|  0.85742
USER: genes 20 Torsion [C]-CA--N-[C] |==|  0.76230
USER: genes 21 Torsion [N]-C--CA-[N] |==|  0.27186
USER: genes 22 Torsion [C]-CA--CB-[CG] |==|  0.15354
USER: genes 23 Torsion [CA]-CB--CG-[CD] |==|  0.18071
USER: genes 24 Torsion [CB]-CG--CD-[OE1] |==|  0.29421
USER: genes 25 Torsion [C]-CA--CB-[OG] |==|  0.44871
USER: genes 26 Torsion [CA]-CB--OG-[HG] |==|  0.92506
ROOT
ATOM      1  C   SER C 503      78.014  24.384 -14.898  1.00 42.27 LIG 0.24  C 
ATOM      2 O    SER C 503      78.265  23.183 -14.955  1.00 46.84 LIG-0.27  OA
ATOM      3  N   ASP C 504      78.936  25.329 -15.028  1.00 51.15 LIG-0.34  N 
ATOM      4 H    ASP C 504      78.749  26.167 -15.086  1.00 51.15 LIG 0.16  HD
ENDROOT
BRANCH 3 5
ATOM      5  CA  ASP C 504      80.367  25.037 -15.086  1.00 56.79 LIG 0.19  C 
BRANCH 5 6
ATOM      6  C   ASP C 504      81.159  26.106 -14.319  1.00 67.42 LIG 0.24  C 
ATOM      7  N   SER C 505      80.494  27.213 -14.002  1.00 81.52 LIG-0.34  N 
ATOM      8 H    SER C 505      79.672  27.353 -14.211  1.00 81.52 LIG 0.16  HD
ATOM      9 O    ASP C 504      82.341  25.927 -14.018  1.00 66.01 LIG-0.27  OA
BRANCH 7 10
ATOM     10  CA  SER C 505      81.116  28.305 -13.258  1.00 90.64 LIG 0.20  C 
BRANCH 10 11
ATOM     11  CB  SER C 505      81.518  27.844 -11.861  1.00 89.01 LIG 0.20  C 
BRANCH 11 12
ATOM     12 OG   SER C 505      80.662  26.808 -11.420  1.00 87.22 LIG-0.40  OA
ATOM     13 HG   SER C 505      80.067  26.672 -11.995  1.00 87.22 LIG 0.21  HD
ENDBRANCH 11 12
ENDBRANCH 10 11
BRANCH 10 14
ATOM     14  C   SER C 505      82.333  28.835 -14.012  1.00 98.93 LIG 0.24  C 
ATOM     15  N   GLN C 506      82.362  28.601 -15.320  1.00110.12 LIG-0.35  N 
ATOM     16 H    GLN C 506      81.690  28.313 -15.773  1.00110.12 LIG 0.16  HD
ATOM     17 O    SER C 505      83.219  29.454 -13.420  1.00 94.47 LIG-0.27  OA
BRANCH 15 18
ATOM     18  CA  GLN C 506      83.569  28.821 -16.108  1.00115.19 LIG 0.16  C 
BRANCH 18 19
ATOM     19  C   GLN C 506      83.377  29.903 -17.171  1.00118.66 LIG 0.22  C 
ATOM     20 O    GLN C 506      82.276  30.428 -17.347  1.00117.46 LIG-0.29  OA
ENDBRANCH 18 19
BRANCH 18 21
ATOM     21  CB  GLN C 506      84.005  27.503 -16.757  1.00118.15 LIG 0.04  C 
BRANCH 21 22
ATOM     22  CG  GLN C 506      84.530  26.467 -15.752  1.00119.48 LIG 0.10  C 
BRANCH 22 23
ATOM     23  CD  GLN C 506      85.968  26.719 -15.299  1.00116.76 LIG 0.21  C 
ATOM     24  NE2 GLN C 506      86.715  27.483 -16.089  1.00111.94 LIG-0.37  N 
ATOM     25 21HE GLN C 506      86.383  27.805 -16.815  1.00111.94 LIG 0.16  HD
ATOM     26 22HE GLN C 506      87.530  27.656 -15.875  1.00111.94 LIG 0.16  HD
ATOM     27 OE1  GLN C 506      86.396  26.236 -14.251  1.00116.06 LIG-0.27  OA
ENDBRANCH 22 23
ENDBRANCH 21 22
ENDBRANCH 18 21
ENDBRANCH 15 18
ENDBRANCH 10 14
ENDBRANCH 7 10
ENDBRANCH 5 6
BRANCH 5 28
ATOM     28  CB  ASP C 504      80.825  24.963 -16.553  1.00 57.84 LIG 0.15  C 
BRANCH 28 29
ATOM     29  CG  ASP C 504      81.502  23.644 -16.909  1.00 60.92 LIG 0.17  C 
ATOM     30 OD2  ASP C 504      80.972  22.580 -16.508  1.00 60.43 LIG-0.65  OA
ATOM     31 OD1  ASP C 504      82.552  23.663 -17.585  1.00 59.69 LIG-0.65  OA
ENDBRANCH 28 29
ENDBRANCH 5 28
ENDBRANCH 3 5
BRANCH 1 32
ATOM     32  CA  SER C 503      76.591  24.868 -14.689  1.00 44.19 LIG 0.20  C 
BRANCH 32 33
ATOM     33  N   SER C 503      76.553  25.963 -13.717  1.00 47.77 LIG-0.34  N 
ATOM     34 H    SER C 503      76.304  26.720 -14.040  1.00 47.77 LIG 0.16  HD
ATOM     35  C   SER C 502      76.885  25.768 -12.442  1.00 50.79 LIG 0.24  C 
ATOM     36 O    SER C 502      76.953  24.659 -11.931  1.00 48.58 LIG-0.27  OA
BRANCH 35 37
ATOM     37  CA  SER C 502      77.197  27.008 -11.622  1.00 60.54 LIG 0.20  C 
BRANCH 37 38
ATOM     38  CB  SER C 502      77.987  26.645 -10.377  1.00 53.64 LIG 0.20  C 
BRANCH 38 39
ATOM     39 OG   SER C 502      77.656  27.482  -9.293  1.00 59.09 LIG-0.40  OA
ATOM     40 HG   SER C 502      77.714  28.285  -9.532  1.00 59.09 LIG 0.21  HD
ENDBRANCH 38 39
ENDBRANCH 37 38
BRANCH 37 41
ATOM     41  N   SER C 502      75.939  27.675 -11.308  1.00 72.56 LIG-0.34  N 
ATOM     42 H    SER C 502      75.597  27.468 -10.547  1.00 72.56 LIG 0.16  HD
ATOM     43  C   GLU C 501      75.404  28.533 -12.171  1.00101.90 LIG 0.26  C 
ATOM     44 O    GLU C 501      76.066  29.074 -13.057  1.00103.22 LIG-0.27  OA
BRANCH 43 45
ATOM     45  CA  GLU C 501      73.912  28.853 -12.009  1.00101.55 LIG 0.40  C 
ATOM     46  N   GLU C 501      73.739  30.102 -11.274  1.00100.94 LIG 0.61  N 
BRANCH 45 47
ATOM     47  CB  GLU C 501      73.228  28.945 -13.377  1.00104.94 LIG 0.06  C 
BRANCH 47 48
ATOM     48  CG  GLU C 501      73.404  27.711 -14.243  1.00111.45 LIG 0.12  C 
BRANCH 48 49
ATOM     49  CD  GLU C 501      72.733  26.487 -13.653  1.00115.68 LIG 0.17  C 
ATOM     50 OE1  GLU C 501      71.672  26.076 -14.172  1.00117.56 LIG-0.65  OA
ATOM     51 OE2  GLU C 501      73.271  25.937 -12.669  1.00122.11 LIG-0.65  OA
ENDBRANCH 48 49
ENDBRANCH 47 48
ENDBRANCH 45 47
ENDBRANCH 43 45
ENDBRANCH 37 41
ENDBRANCH 35 37
ENDBRANCH 32 33
BRANCH 32 52
ATOM     52  CB  SER C 503      76.004  25.302 -16.025  1.00 49.05 LIG 0.20  C 
BRANCH 52 53
ATOM     53 OG   SER C 503      74.591  25.353 -15.951  1.00 54.59 LIG-0.40  OA
ATOM     54 HG   SER C 503      74.321  24.814 -15.366  1.00 54.59 LIG 0.21  HD
ENDBRANCH 52 53
ENDBRANCH 32 52
ENDBRANCH 1 32
TORSDOF 25
ENDMDL
MODEL 30
USER: ADFR SOLUTION from run 99
USER: SCORE 16.854423 LL:  -4.756 LR: -13.435 RR:   0.000 FEB:  -5.977
USER: RMSD 4.054971
USER: SEED 98
USER: STATUS searching
USER: GENES 27
USER: genes 0 Translation |==|  0.40700 0.39690 0.50200
USER: genes 1 Rotation |==|  0.86224 0.25038 0.28707 0.60553
USER: genes 2 Torsion [C]-N--CA-[CB] |==|  0.15791
USER: genes 3 Torsion [N]-CA--C-[N] |==|  0.66442
USER: genes 4 Torsion [C]-N--CA-[C] |==|  0.10561
USER: genes 5 Torsion [N]-CA--CB-[OG] |==|  0.02584
USER: genes 6 Torsion [CA]-CB--OG-[HG] |==|  0.29845
USER: genes 7 Torsion [N]-CA--C-[N] |==|  0.13016
USER: genes 8 Torsion [C]-N--CA-[CB] |==|  0.50104
USER: genes 9 Torsion [N]-CA--C-[O] |==|  0.48079
USER: genes 10 Torsion [N]-CA--CB-[CG] |==|  0.94729
USER: genes 11 Torsion [CA]-CB--CG-[CD] |==|  0.47404
USER: genes 12 Torsion [CB]-CG--CD-[NE2] |==|  0.49241
USER: genes 13 Torsion [N]-CA--CB-[CG] |==|  0.54486
USER: genes 14 Torsion [CA]-CB--CG-[OD1] |==|  0.87559
USER: genes 15 Torsion [N]-C--CA-[N] |==|  0.86961
USER: genes 16 Torsion [C]-CA--N-[C] |==|  0.76922
USER: genes 17 Torsion [N]-C--CA-[N] |==|  0.97390
USER: genes 18 Torsion [C]-CA--CB-[OG] |==|  0.79348
USER: genes 19 Torsion [CA]-CB--OG-[HG] |==|  0.70701
USER: genes 20 Torsion [C]-CA--N-[C] |==|  0.73361
USER: genes 21 Torsion [N]-C--CA-[N] |==|  0.98268
USER: genes 22 Torsion [C]-CA--CB-[CG] |==|  0.43980
USER: genes 23 Torsion [CA]-CB--CG-[CD] |==|  0.16206
USER: genes 24 Torsion [CB]-CG--CD-[OE1] |==|  0.78620
USER: genes 25 Torsion [C]-CA--CB-[OG] |==|  0.36985
USER: genes 26 Torsion [CA]-CB--OG-[HG] |==|  0.87341
ROOT
ATOM      1  C   SER C 503      77.667  24.193 -14.507  1.00 42.27 LIG 0.24  C 
ATOM      2 O    SER C 503      77.532  22.976 -14.612  1.00 46.84 LIG-0.27  OA
ATOM      3  N   ASP C 504      78.728  24.851 -14.953  1.00 51.15 LIG-0.34  N 
ATOM      4 H    ASP C 504      78.780  25.710 -14.968  1.00 51.15 LIG 0.16  HD
ENDROOT
BRANCH 3 5
ATOM      5  CA  ASP C 504      79.919  24.177 -15.467  1.00 56.79 LIG 0.19  C 
BRANCH 5 6
ATOM      6  C   ASP C 504      80.960  25.211 -15.922  1.00 67.42 LIG 0.24  C 
ATOM      7  N   SER C 505      81.327  25.149 -17.198  1.00 81.52 LIG-0.34  N 
ATOM      8 H    SER C 505      81.024  24.569 -17.755  1.00 81.52 LIG 0.16  HD
ATOM      9 O    ASP C 504      81.412  26.045 -15.135  1.00 66.01 LIG-0.27  OA
BRANCH 7 10
ATOM     10  CA  SER C 505      82.295  26.081 -17.772  1.00 90.64 LIG 0.20  C 
BRANCH 10 11
ATOM     11  CB  SER C 505      81.608  27.371 -18.207  1.00 89.01 LIG 0.20  C 
BRANCH 11 12
ATOM     12 OG   SER C 505      80.272  27.397 -17.744  1.00 87.22 LIG-0.40  OA
ATOM     13 HG   SER C 505      80.203  27.950 -17.116  1.00 87.22 LIG 0.21  HD
ENDBRANCH 11 12
ENDBRANCH 10 11
BRANCH 10 14
ATOM     14  C   SER C 505      83.402  26.383 -16.766  1.00 98.93 LIG 0.24  C 
ATOM     15  N   GLN C 506      83.935  25.334 -16.145  1.00110.12 LIG-0.35  N 
ATOM     16 H    GLN C 506      83.802  24.518 -16.379  1.00110.12 LIG 0.16  HD
ATOM     17 O    SER C 505      83.774  27.541 -16.567  1.00 94.47 LIG-0.27  OA
BRANCH 15 18
ATOM     18  CA  GLN C 506      84.808  25.495 -14.988  1.00115.19 LIG 0.16  C 
BRANCH 18 19
ATOM     19  C   GLN C 506      86.011  26.387 -15.292  1.00118.66 LIG 0.22  C 
ATOM     20 O    GLN C 506      86.784  26.733 -14.396  1.00117.46 LIG-0.29  OA
ENDBRANCH 18 19
BRANCH 18 21
ATOM     21  CB  GLN C 506      85.270  24.118 -14.499  1.00118.15 LIG 0.04  C 
BRANCH 21 22
ATOM     22  CG  GLN C 506      84.389  22.962 -14.995  1.00119.48 LIG 0.10  C 
BRANCH 22 23
ATOM     23  CD  GLN C 506      84.966  21.576 -14.703  1.00116.76 LIG 0.21  C 
ATOM     24  NE2 GLN C 506      84.221  20.535 -15.059  1.00111.94 LIG-0.37  N 
ATOM     25 21HE GLN C 506      83.456  20.660 -15.430  1.00111.94 LIG 0.16  HD
ATOM     26 22HE GLN C 506      84.505  19.735 -14.917  1.00111.94 LIG 0.16  HD
ATOM     27 OE1  GLN C 506      86.068  21.449 -14.169  1.00116.06 LIG-0.27  OA
ENDBRANCH 22 23
ENDBRANCH 21 22
ENDBRANCH 18 21
ENDBRANCH 15 18
ENDBRANCH 10 14
ENDBRANCH 7 10
ENDBRANCH 5 6
BRANCH 5 28
ATOM     28  CB  ASP C 504      79.530  23.244 -16.627  1.00 57.84 LIG 0.15  C 
BRANCH 28 29
ATOM     29  CG  ASP C 504      80.609  22.221 -16.967  1.00 60.92 LIG 0.17  C 
ATOM     30 OD2  ASP C 504      80.258  21.033 -17.163  1.00 60.43 LIG-0.65  OA
ATOM     31 OD1  ASP C 504      81.799  22.596 -17.042  1.00 59.69 LIG-0.65  OA
ENDBRANCH 28 29
ENDBRANCH 5 28
ENDBRANCH 3 5
BRANCH 1 32
ATOM     32  CA  SER C 503      76.586  25.038 -13.857  1.00 44.19 LIG 0.20  C 
BRANCH 32 33
ATOM     33  N   SER C 503      77.170  25.982 -12.901  1.00 47.77 LIG-0.34  N 
ATOM     34 H    SER C 503      77.299  26.773 -13.213  1.00 47.77 LIG 0.16  HD
ATOM     35  C   SER C 502      77.466  25.612 -11.656  1.00 50.79 LIG 0.24  C 
ATOM     36 O    SER C 502      77.022  24.597 -11.137  1.00 48.58 LIG-0.27  OA
BRANCH 35 37
ATOM     37  CA  SER C 502      78.411  26.515 -10.884  1.00 60.54 LIG 0.20  C 
BRANCH 37 38
ATOM     38  CB  SER C 502      77.699  27.159  -9.707  1.00 53.64 LIG 0.20  C 
BRANCH 38 39
ATOM     39 OG   SER C 502      76.828  28.183 -10.129  1.00 59.09 LIG-0.40  OA
ATOM     40 HG   SER C 502      77.165  28.930  -9.948  1.00 59.09 LIG 0.21  HD
ENDBRANCH 38 39
ENDBRANCH 37 38
BRANCH 37 41
ATOM     41  N   SER C 502      78.959  27.499 -11.810  1.00 72.56 LIG-0.34  N 
ATOM     42 H    SER C 502      78.466  28.191 -11.940  1.00 72.56 LIG 0.16  HD
ATOM     43  C   GLU C 501      80.141  27.292 -12.383  1.00101.90 LIG 0.26  C 
ATOM     44 O    GLU C 501      80.967  26.504 -11.922  1.00103.22 LIG-0.27  OA
BRANCH 43 45
ATOM     45  CA  GLU C 501      80.459  28.101 -13.647  1.00101.55 LIG 0.40  C 
ATOM     46  N   GLU C 501      79.289  28.868 -14.066  1.00100.94 LIG 0.61  N 
BRANCH 45 47
ATOM     47  CB  GLU C 501      81.646  29.038 -13.405  1.00104.94 LIG 0.06  C 
BRANCH 47 48
ATOM     48  CG  GLU C 501      82.358  29.479 -14.672  1.00111.45 LIG 0.12  C 
BRANCH 48 49
ATOM     49  CD  GLU C 501      81.435  30.192 -15.638  1.00115.68 LIG 0.17  C 
ATOM     50 OE1  GLU C 501      80.641  29.509 -16.323  1.00117.56 LIG-0.65  OA
ATOM     51 OE2  GLU C 501      81.505  31.437 -15.711  1.00122.11 LIG-0.65  OA
ENDBRANCH 48 49
ENDBRANCH 47 48
ENDBRANCH 45 47
ENDBRANCH 43 45
ENDBRANCH 37 41
ENDBRANCH 35 37
ENDBRANCH 32 33
BRANCH 32 52
ATOM     52  CB  SER C 503      75.800  25.768 -14.936  1.00 49.05 LIG 0.20  C 
BRANCH 52 53
ATOM     53 OG   SER C 503      74.408  25.643 -14.705  1.00 54.59 LIG-0.40  OA
ATOM     54 HG   SER C 503      74.226  24.844 -14.518  1.00 54.59 LIG 0.21  HD
ENDBRANCH 52 53
ENDBRANCH 32 52
ENDBRANCH 1 32
TORSDOF 25
ENDMDL
MODEL 31
USER: ADFR SOLUTION from run 35
USER: SCORE 17.389101 LL:  -4.781 LR: -13.402 RR:   0.000 FEB:  -5.944
USER: RMSD 4.205674
USER: SEED 34
USER: STATUS no improvement in best in 4 clusters for 5 generations
USER: GENES 27
USER: genes 0 Translation |==|  0.40202 0.43274 0.45498
USER: genes 1 Rotation |==|  0.59825 0.26110 0.43804 0.92359
USER: genes 2 Torsion [C]-N--CA-[CB] |==|  0.49506
USER: genes 3 Torsion [N]-CA--C-[N] |==|  0.47688
USER: genes 4 Torsion [C]-N--CA-[C] |==|  0.84971
USER: genes 5 Torsion [N]-CA--CB-[OG] |==|  0.51575
USER: genes 6 Torsion [CA]-CB--OG-[HG] |==|  0.75385
USER: genes 7 Torsion [N]-CA--C-[N] |==|  0.36833
USER: genes 8 Torsion [C]-N--CA-[CB] |==|  0.49772
USER: genes 9 Torsion [N]-CA--C-[O] |==|  0.71777
USER: genes 10 Torsion [N]-CA--CB-[CG] |==|  0.00267
USER: genes 11 Torsion [CA]-CB--CG-[CD] |==|  0.26009
USER: genes 12 Torsion [CB]-CG--CD-[NE2] |==|  0.92328
USER: genes 13 Torsion [N]-CA--CB-[CG] |==|  0.56675
USER: genes 14 Torsion [CA]-CB--CG-[OD1] |==|  0.26807
USER: genes 15 Torsion [N]-C--CA-[N] |==|  0.47190
USER: genes 16 Torsion [C]-CA--N-[C] |==|  0.72492
USER: genes 17 Torsion [N]-C--CA-[N] |==|  0.96869
USER: genes 18 Torsion [C]-CA--CB-[OG] |==|  0.32805
USER: genes 19 Torsion [CA]-CB--OG-[HG] |==|  0.22507
USER: genes 20 Torsion [C]-CA--N-[C] |==|  0.79046
USER: genes 21 Torsion [N]-C--CA-[N] |==|  0.15379
USER: genes 22 Torsion [C]-CA--CB-[CG] |==|  0.47628
USER: genes 23 Torsion [CA]-CB--CG-[CD] |==|  0.87076
USER: genes 24 Torsion [CB]-CG--CD-[OE1] |==|  0.20407
USER: genes 25 Torsion [C]-CA--CB-[OG] |==|  0.87620
USER: genes 26 Torsion [CA]-CB--OG-[HG] |==|  0.16395
ROOT
ATOM      1  C   SER C 503      77.581  24.946 -15.388  1.00 42.27 LIG 0.24  C 
ATOM      2 O    SER C 503      78.147  24.938 -14.298  1.00 46.84 LIG-0.27  OA
ATOM      3  N   ASP C 504      77.895  24.122 -16.380  1.00 51.15 LIG-0.34  N 
ATOM      4 H    ASP C 504      77.438  24.060 -17.106  1.00 51.15 LIG 0.16  HD
ENDROOT
BRANCH 3 5
ATOM      5  CA  ASP C 504      79.056  23.235 -16.334  1.00 56.79 LIG 0.19  C 
BRANCH 5 6
ATOM      6  C   ASP C 504      80.344  24.054 -16.165  1.00 67.42 LIG 0.24  C 
ATOM      7  N   SER C 505      81.454  23.359 -15.938  1.00 81.52 LIG-0.34  N 
ATOM      8 H    SER C 505      81.477  22.502 -15.873  1.00 81.52 LIG 0.16  HD
ATOM      9 O    ASP C 504      80.329  25.284 -16.246  1.00 66.01 LIG-0.27  OA
BRANCH 7 10
ATOM     10  CA  SER C 505      82.754  24.007 -15.775  1.00 90.64 LIG 0.20  C 
BRANCH 10 11
ATOM     11  CB  SER C 505      83.857  22.966 -15.612  1.00 89.01 LIG 0.20  C 
BRANCH 11 12
ATOM     12 OG   SER C 505      85.090  23.597 -15.326  1.00 87.22 LIG-0.40  OA
ATOM     13 HG   SER C 505      85.483  23.784 -16.044  1.00 87.22 LIG 0.21  HD
ENDBRANCH 11 12
ENDBRANCH 10 11
BRANCH 10 14
ATOM     14  C   SER C 505      83.050  24.910 -16.968  1.00 98.93 LIG 0.24  C 
ATOM     15  N   GLN C 506      83.486  26.135 -16.686  1.00110.12 LIG-0.35  N 
ATOM     16 H    GLN C 506      83.744  26.385 -15.905  1.00110.12 LIG 0.16  HD
ATOM     17 O    SER C 505      82.898  24.501 -18.121  1.00 94.47 LIG-0.27  OA
BRANCH 15 18
ATOM     18  CA  GLN C 506      83.559  27.173 -17.707  1.00115.19 LIG 0.16  C 
BRANCH 18 19
ATOM     19  C   GLN C 506      84.438  26.762 -18.888  1.00118.66 LIG 0.22  C 
ATOM     20 O    GLN C 506      85.590  27.185 -18.997  1.00117.46 LIG-0.29  OA
ENDBRANCH 18 19
BRANCH 18 21
ATOM     21  CB  GLN C 506      84.076  28.472 -17.081  1.00118.15 LIG 0.04  C 
BRANCH 21 22
ATOM     22  CG  GLN C 506      84.399  28.348 -15.584  1.00119.48 LIG 0.10  C 
BRANCH 22 23
ATOM     23  CD  GLN C 506      85.863  28.013 -15.294  1.00116.76 LIG 0.21  C 
ATOM     24  NE2 GLN C 506      86.515  27.337 -16.234  1.00111.94 LIG-0.37  N 
ATOM     25 21HE GLN C 506      86.111  27.109 -16.958  1.00111.94 LIG 0.16  HD
ATOM     26 22HE GLN C 506      87.341  27.128 -16.118  1.00111.94 LIG 0.16  HD
ATOM     27 OE1  GLN C 506      86.396  28.363 -14.241  1.00116.06 LIG-0.27  OA
ENDBRANCH 22 23
ENDBRANCH 21 22
ENDBRANCH 18 21
ENDBRANCH 15 18
ENDBRANCH 10 14
ENDBRANCH 7 10
ENDBRANCH 5 6
BRANCH 5 28
ATOM     28  CB  ASP C 504      79.112  22.384 -17.615  1.00 57.84 LIG 0.15  C 
BRANCH 28 29
ATOM     29  CG  ASP C 504      79.880  21.078 -17.439  1.00 60.92 LIG 0.17  C 
ATOM     30 OD2  ASP C 504      81.130  21.108 -17.544  1.00 60.43 LIG-0.65  OA
ATOM     31 OD1  ASP C 504      79.246  20.029 -17.194  1.00 59.69 LIG-0.65  OA
ENDBRANCH 28 29
ENDBRANCH 5 28
ENDBRANCH 3 5
BRANCH 1 32
ATOM     32  CA  SER C 503      76.445  25.914 -15.663  1.00 44.19 LIG 0.20  C 
BRANCH 32 33
ATOM     33  N   SER C 503      76.035  26.596 -14.434  1.00 47.77 LIG-0.34  N 
ATOM     34 H    SER C 503      76.532  27.261 -14.211  1.00 47.77 LIG 0.16  HD
ATOM     35  C   SER C 502      74.972  26.192 -13.740  1.00 50.79 LIG 0.24  C 
ATOM     36 O    SER C 502      74.115  25.451 -14.202  1.00 48.58 LIG-0.27  OA
BRANCH 35 37
ATOM     37  CA  SER C 502      74.864  26.689 -12.310  1.00 60.54 LIG 0.20  C 
BRANCH 37 38
ATOM     38  CB  SER C 502      73.692  27.643 -12.158  1.00 53.64 LIG 0.20  C 
BRANCH 38 39
ATOM     39 OG   SER C 502      72.736  27.146 -11.251  1.00 59.09 LIG-0.40  OA
ATOM     40 HG   SER C 502      72.985  27.308 -10.465  1.00 59.09 LIG 0.21  HD
ENDBRANCH 38 39
ENDBRANCH 37 38
BRANCH 37 41
ATOM     41  N   SER C 502      76.134  27.305 -11.944  1.00 72.56 LIG-0.34  N 
ATOM     42 H    SER C 502      76.130  28.164 -11.924  1.00 72.56 LIG 0.16  HD
ATOM     43  C   GLU C 501      77.191  26.546 -11.670  1.00101.90 LIG 0.26  C 
ATOM     44 O    GLU C 501      77.085  25.360 -11.357  1.00103.22 LIG-0.27  OA
BRANCH 43 45
ATOM     45  CA  GLU C 501      78.570  27.214 -11.733  1.00101.55 LIG 0.40  C 
ATOM     46  N   GLU C 501      78.606  28.385 -10.861  1.00100.94 LIG 0.61  N 
BRANCH 45 47
ATOM     47  CB  GLU C 501      79.669  26.224 -11.334  1.00104.94 LIG 0.06  C 
BRANCH 47 48
ATOM     48  CG  GLU C 501      81.080  26.737 -11.564  1.00111.45 LIG 0.12  C 
BRANCH 48 49
ATOM     49  CD  GLU C 501      81.253  27.370 -12.929  1.00115.68 LIG 0.17  C 
ATOM     50 OE1  GLU C 501      80.747  28.496 -13.136  1.00117.56 LIG-0.65  OA
ATOM     51 OE2  GLU C 501      81.896  26.740 -13.794  1.00122.11 LIG-0.65  OA
ENDBRANCH 48 49
ENDBRANCH 47 48
ENDBRANCH 45 47
ENDBRANCH 43 45
ENDBRANCH 37 41
ENDBRANCH 35 37
ENDBRANCH 32 33
BRANCH 32 52
ATOM     52  CB  SER C 503      76.881  26.914 -16.725  1.00 49.05 LIG 0.20  C 
BRANCH 52 53
ATOM     53 OG   SER C 503      78.189  27.385 -16.453  1.00 54.59 LIG-0.40  OA
ATOM     54 HG   SER C 503      78.723  26.736 -16.438  1.00 54.59 LIG 0.21  HD
ENDBRANCH 52 53
ENDBRANCH 32 52
ENDBRANCH 1 32
TORSDOF 25
ENDMDL
MODEL 32
USER: ADFR SOLUTION from run 112
USER: SCORE 15.225300 LL:  -4.330 LR: -13.381 RR:   0.000 FEB:  -5.923
USER: RMSD 6.882286
USER: SEED 111
USER: STATUS no improvement in best in 8 clusters for 5 generations
USER: GENES 27
USER: genes 0 Translation |==|  0.50330 0.45311 0.45155
USER: genes 1 Rotation |==|  0.55048 0.19361 0.13849 0.65128
USER: genes 2 Torsion [C]-N--CA-[CB] |==|  0.82704
USER: genes 3 Torsion [N]-CA--C-[N] |==|  0.14970
USER: genes 4 Torsion [C]-N--CA-[C] |==|  0.19980
USER: genes 5 Torsion [N]-CA--CB-[OG] |==|  0.74770
USER: genes 6 Torsion [CA]-CB--OG-[HG] |==|  0.31491
USER: genes 7 Torsion [N]-CA--C-[N] |==|  0.07219
USER: genes 8 Torsion [C]-N--CA-[CB] |==|  0.50182
USER: genes 9 Torsion [N]-CA--C-[O] |==|  0.28936
USER: genes 10 Torsion [N]-CA--CB-[CG] |==|  0.44847
USER: genes 11 Torsion [CA]-CB--CG-[CD] |==|  0.30406
USER: genes 12 Torsion [CB]-CG--CD-[NE2] |==|  0.40575
USER: genes 13 Torsion [N]-CA--CB-[CG] |==|  0.74772
USER: genes 14 Torsion [CA]-CB--CG-[OD1] |==|  0.11231
USER: genes 15 Torsion [N]-C--CA-[N] |==|  0.91893
USER: genes 16 Torsion [C]-CA--N-[C] |==|  0.55753
USER: genes 17 Torsion [N]-C--CA-[N] |==|  0.86132
USER: genes 18 Torsion [C]-CA--CB-[OG] |==|  0.62669
USER: genes 19 Torsion [CA]-CB--OG-[HG] |==|  0.94324
USER: genes 20 Torsion [C]-CA--N-[C] |==|  0.70040
USER: genes 21 Torsion [N]-C--CA-[N] |==|  0.66767
USER: genes 22 Torsion [C]-CA--CB-[CG] |==|  0.55060
USER: genes 23 Torsion [CA]-CB--CG-[CD] |==|  0.85788
USER: genes 24 Torsion [CB]-CG--CD-[OE1] |==|  0.17868
USER: genes 25 Torsion [C]-CA--CB-[OG] |==|  0.73840
USER: genes 26 Torsion [CA]-CB--OG-[HG] |==|  0.64359
ROOT
ATOM      1  C   SER C 503      79.328  25.373 -15.452  1.00 42.27 LIG 0.24  C 
ATOM      2 O    SER C 503      78.577  24.730 -14.723  1.00 46.84 LIG-0.27  OA
ATOM      3  N   ASP C 504      79.458  25.142 -16.752  1.00 51.15 LIG-0.34  N 
ATOM      4 H    ASP C 504      79.907  25.651 -17.280  1.00 51.15 LIG 0.16  HD
ENDROOT
BRANCH 3 5
ATOM      5  CA  ASP C 504      78.847  23.992 -17.416  1.00 56.79 LIG 0.19  C 
BRANCH 5 6
ATOM      6  C   ASP C 504      77.320  24.034 -17.254  1.00 67.42 LIG 0.24  C 
ATOM      7  N   SER C 505      76.721  25.157 -17.640  1.00 81.52 LIG-0.34  N 
ATOM      8 H    SER C 505      77.140  25.838 -17.955  1.00 81.52 LIG 0.16  HD
ATOM      9 O    ASP C 504      76.703  23.070 -16.796  1.00 66.01 LIG-0.27  OA
BRANCH 7 10
ATOM     10  CA  SER C 505      75.272  25.329 -17.559  1.00 90.64 LIG 0.20  C 
BRANCH 10 11
ATOM     11  CB  SER C 505      74.553  24.150 -18.205  1.00 89.01 LIG 0.20  C 
BRANCH 11 12
ATOM     12 OG   SER C 505      74.315  24.409 -19.575  1.00 87.22 LIG-0.40  OA
ATOM     13 HG   SER C 505      74.770  23.882 -20.044  1.00 87.22 LIG 0.21  HD
ENDBRANCH 11 12
ENDBRANCH 10 11
BRANCH 10 14
ATOM     14  C   SER C 505      74.837  25.484 -16.105  1.00 98.93 LIG 0.24  C 
ATOM     15  N   GLN C 506      75.748  25.967 -15.266  1.00110.12 LIG-0.35  N 
ATOM     16 H    GLN C 506      76.490  26.325 -15.514  1.00110.12 LIG 0.16  HD
ATOM     17 O    SER C 505      73.694  25.184 -15.755  1.00 94.47 LIG-0.27  OA
BRANCH 15 18
ATOM     18  CA  GLN C 506      75.554  25.925 -13.821  1.00115.19 LIG 0.16  C 
BRANCH 18 19
ATOM     19  C   GLN C 506      74.258  26.612 -13.392  1.00118.66 LIG 0.22  C 
ATOM     20 O    GLN C 506      73.271  25.952 -13.060  1.00117.46 LIG-0.29  OA
ENDBRANCH 18 19
BRANCH 18 21
ATOM     21  CB  GLN C 506      76.758  26.566 -13.123  1.00118.15 LIG 0.04  C 
BRANCH 21 22
ATOM     22  CG  GLN C 506      76.477  26.983 -11.671  1.00119.48 LIG 0.10  C 
BRANCH 22 23
ATOM     23  CD  GLN C 506      77.192  26.120 -10.632  1.00116.76 LIG 0.21  C 
ATOM     24  NE2 GLN C 506      77.591  26.733  -9.522  1.00111.94 LIG-0.37  N 
ATOM     25 21HE GLN C 506      77.444  27.574  -9.420  1.00111.94 LIG 0.16  HD
ATOM     26 22HE GLN C 506      77.995  26.289  -8.907  1.00111.94 LIG 0.16  HD
ATOM     27 OE1  GLN C 506      77.378  24.918 -10.825  1.00116.06 LIG-0.27  OA
ENDBRANCH 22 23
ENDBRANCH 21 22
ENDBRANCH 18 21
ENDBRANCH 15 18
ENDBRANCH 10 14
ENDBRANCH 7 10
ENDBRANCH 5 6
BRANCH 5 28
ATOM     28  CB  ASP C 504      79.423  22.688 -16.836  1.00 57.84 LIG 0.15  C 
BRANCH 28 29
ATOM     29  CG  ASP C 504      80.652  22.185 -17.586  1.00 60.92 LIG 0.17  C 
ATOM     30 OD2  ASP C 504      80.756  20.952 -17.793  1.00 60.43 LIG-0.65  OA
ATOM     31 OD1  ASP C 504      81.508  23.010 -17.972  1.00 59.69 LIG-0.65  OA
ENDBRANCH 28 29
ENDBRANCH 5 28
ENDBRANCH 3 5
BRANCH 1 32
ATOM     32  CA  SER C 503      80.159  26.514 -14.895  1.00 44.19 LIG 0.20  C 
BRANCH 32 33
ATOM     33  N   SER C 503      81.392  26.684 -15.668  1.00 47.77 LIG-0.34  N 
ATOM     34 H    SER C 503      81.367  26.347 -16.458  1.00 47.77 LIG 0.16  HD
ATOM     35  C   SER C 502      82.447  27.316 -15.156  1.00 50.79 LIG 0.24  C 
ATOM     36 O    SER C 502      82.382  28.034 -14.169  1.00 48.58 LIG-0.27  OA
BRANCH 35 37
ATOM     37  CA  SER C 502      83.776  27.096 -15.857  1.00 60.54 LIG 0.20  C 
BRANCH 37 38
ATOM     38  CB  SER C 502      83.820  27.849 -17.176  1.00 53.64 LIG 0.20  C 
BRANCH 38 39
ATOM     39 OG   SER C 502      84.328  27.043 -18.213  1.00 59.09 LIG-0.40  OA
ATOM     40 HG   SER C 502      84.768  26.407 -17.884  1.00 59.09 LIG 0.21  HD
ENDBRANCH 38 39
ENDBRANCH 37 38
BRANCH 37 41
ATOM     41  N   SER C 502      83.970  25.662 -16.028  1.00 72.56 LIG-0.34  N 
ATOM     42 H    SER C 502      83.469  25.294 -16.622  1.00 72.56 LIG 0.16  HD
ATOM     43  C   GLU C 501      84.872  25.017 -15.294  1.00101.90 LIG 0.26  C 
ATOM     44 O    GLU C 501      85.801  25.599 -14.733  1.00103.22 LIG-0.27  OA
BRANCH 43 45
ATOM     45  CA  GLU C 501      84.730  23.493 -15.187  1.00101.55 LIG 0.40  C 
ATOM     46  N   GLU C 501      84.544  23.098 -13.794  1.00100.94 LIG 0.61  N 
BRANCH 45 47
ATOM     47  CB  GLU C 501      83.557  22.998 -16.038  1.00104.94 LIG 0.06  C 
BRANCH 47 48
ATOM     48  CG  GLU C 501      83.065  21.609 -15.671  1.00111.45 LIG 0.12  C 
BRANCH 48 49
ATOM     49  CD  GLU C 501      84.187  20.593 -15.613  1.00115.68 LIG 0.17  C 
ATOM     50 OE1  GLU C 501      85.080  20.734 -14.749  1.00117.56 LIG-0.65  OA
ATOM     51 OE2  GLU C 501      84.173  19.652 -16.434  1.00122.11 LIG-0.65  OA
ENDBRANCH 48 49
ENDBRANCH 47 48
ENDBRANCH 45 47
ENDBRANCH 43 45
ENDBRANCH 37 41
ENDBRANCH 35 37
ENDBRANCH 32 33
BRANCH 32 52
ATOM     52  CB  SER C 503      79.330  27.791 -14.899  1.00 49.05 LIG 0.20  C 
BRANCH 52 53
ATOM     53 OG   SER C 503      79.571  28.533 -16.081  1.00 54.59 LIG-0.40  OA
ATOM     54 HG   SER C 503      79.766  29.325 -15.880  1.00 54.59 LIG 0.21  HD
ENDBRANCH 52 53
ENDBRANCH 32 52
ENDBRANCH 1 32
TORSDOF 25
ENDMDL
MODEL 33
USER: ADFR SOLUTION from run 28
USER: SCORE 15.287268 LL:  -4.222 LR: -13.365 RR:   0.000 FEB:  -5.908
USER: RMSD 4.221143
USER: SEED 27
USER: STATUS no improvement in best in 4 clusters for 5 generations
USER: GENES 27
USER: genes 0 Translation |==|  0.44149 0.41913 0.41966
USER: genes 1 Rotation |==|  0.93317 0.27082 0.40474 0.52760
USER: genes 2 Torsion [C]-N--CA-[CB] |==|  0.24614
USER: genes 3 Torsion [N]-CA--C-[N] |==|  0.99271
USER: genes 4 Torsion [C]-N--CA-[C] |==|  0.17587
USER: genes 5 Torsion [N]-CA--CB-[OG] |==|  0.90119
USER: genes 6 Torsion [CA]-CB--OG-[HG] |==|  0.98657
USER: genes 7 Torsion [N]-CA--C-[N] |==|  0.06148
USER: genes 8 Torsion [C]-N--CA-[CB] |==|  0.34463
USER: genes 9 Torsion [N]-CA--C-[O] |==|  0.98889
USER: genes 10 Torsion [N]-CA--CB-[CG] |==|  0.82099
USER: genes 11 Torsion [CA]-CB--CG-[CD] |==|  0.76864
USER: genes 12 Torsion [CB]-CG--CD-[NE2] |==|  0.95059
USER: genes 13 Torsion [N]-CA--CB-[CG] |==|  0.66537
USER: genes 14 Torsion [CA]-CB--CG-[OD1] |==|  0.73044
USER: genes 15 Torsion [N]-C--CA-[N] |==|  0.73889
USER: genes 16 Torsion [C]-CA--N-[C] |==|  0.21969
USER: genes 17 Torsion [N]-C--CA-[N] |==|  0.49686
USER: genes 18 Torsion [C]-CA--CB-[OG] |==|  0.25724
USER: genes 19 Torsion [CA]-CB--OG-[HG] |==|  0.81289
USER: genes 20 Torsion [C]-CA--N-[C] |==|  0.79916
USER: genes 21 Torsion [N]-C--CA-[N] |==|  0.44615
USER: genes 22 Torsion [C]-CA--CB-[CG] |==|  0.24889
USER: genes 23 Torsion [CA]-CB--CG-[CD] |==|  0.51384
USER: genes 24 Torsion [CB]-CG--CD-[OE1] |==|  0.26018
USER: genes 25 Torsion [C]-CA--CB-[OG] |==|  0.44864
USER: genes 26 Torsion [CA]-CB--OG-[HG] |==|  0.81408
ROOT
ATOM      1  C   SER C 503      78.262  24.660 -16.050  1.00 42.27 LIG 0.24  C 
ATOM      2 O    SER C 503      78.437  23.460 -16.252  1.00 46.84 LIG-0.27  OA
ATOM      3  N   ASP C 504      79.247  25.507 -15.782  1.00 51.15 LIG-0.34  N 
ATOM      4 H    ASP C 504      79.138  26.359 -15.737  1.00 51.15 LIG 0.16  HD
ENDROOT
BRANCH 3 5
ATOM      5  CA  ASP C 504      80.620  25.071 -15.535  1.00 56.79 LIG 0.19  C 
BRANCH 5 6
ATOM      6  C   ASP C 504      81.314  26.031 -14.558  1.00 67.42 LIG 0.24  C 
ATOM      7  N   SER C 505      80.601  27.081 -14.162  1.00 81.52 LIG-0.34  N 
ATOM      8 H    SER C 505      79.801  27.243 -14.430  1.00 81.52 LIG 0.16  HD
ATOM      9 O    ASP C 504      82.465  25.819 -14.170  1.00 66.01 LIG-0.27  OA
BRANCH 7 10
ATOM     10  CA  SER C 505      81.129  28.066 -13.221  1.00 90.64 LIG 0.20  C 
BRANCH 10 11
ATOM     11  CB  SER C 505      81.507  27.400 -11.902  1.00 89.01 LIG 0.20  C 
BRANCH 11 12
ATOM     12 OG   SER C 505      80.601  26.357 -11.599  1.00 87.22 LIG-0.40  OA
ATOM     13 HG   SER C 505      79.987  26.345 -12.171  1.00 87.22 LIG 0.21  HD
ENDBRANCH 11 12
ENDBRANCH 10 11
BRANCH 10 14
ATOM     14  C   SER C 505      82.337  28.779 -13.820  1.00 98.93 LIG 0.24  C 
ATOM     15  N   GLN C 506      82.431  28.764 -15.147  1.00110.12 LIG-0.35  N 
ATOM     16 H    GLN C 506      81.796  28.516 -15.671  1.00110.12 LIG 0.16  HD
ATOM     17 O    SER C 505      83.160  29.342 -13.096  1.00 94.47 LIG-0.27  OA
BRANCH 15 18
ATOM     18  CA  GLN C 506      83.651  29.177 -15.830  1.00115.19 LIG 0.16  C 
BRANCH 18 19
ATOM     19  C   GLN C 506      83.457  30.465 -16.630  1.00118.66 LIG 0.22  C 
ATOM     20 O    GLN C 506      82.350  30.999 -16.712  1.00117.46 LIG-0.29  OA
ENDBRANCH 18 19
BRANCH 18 21
ATOM     21  CB  GLN C 506      84.135  28.046 -16.744  1.00118.15 LIG 0.04  C 
BRANCH 21 22
ATOM     22  CG  GLN C 506      84.552  26.777 -15.984  1.00119.48 LIG 0.10  C 
BRANCH 22 23
ATOM     23  CD  GLN C 506      85.983  26.823 -15.445  1.00116.76 LIG 0.21  C 
ATOM     24  NE2 GLN C 506      86.791  27.731 -15.982  1.00111.94 LIG-0.37  N 
ATOM     25 21HE GLN C 506      86.501  28.253 -16.601  1.00111.94 LIG 0.16  HD
ATOM     26 22HE GLN C 506      87.604  27.797 -15.710  1.00111.94 LIG 0.16  HD
ATOM     27 OE1  GLN C 506      86.350  26.054 -14.557  1.00116.06 LIG-0.27  OA
ENDBRANCH 22 23
ENDBRANCH 21 22
ENDBRANCH 18 21
ENDBRANCH 15 18
ENDBRANCH 10 14
ENDBRANCH 7 10
ENDBRANCH 5 6
BRANCH 5 28
ATOM     28  CB  ASP C 504      81.389  24.993 -16.866  1.00 57.84 LIG 0.15  C 
BRANCH 28 29
ATOM     29  CG  ASP C 504      81.931  23.600 -17.170  1.00 60.92 LIG 0.17  C 
ATOM     30 OD2  ASP C 504      81.157  22.767 -17.698  1.00 60.43 LIG-0.65  OA
ATOM     31 OD1  ASP C 504      83.119  23.336 -16.887  1.00 59.69 LIG-0.65  OA
ENDBRANCH 28 29
ENDBRANCH 5 28
ENDBRANCH 3 5
BRANCH 1 32
ATOM     32  CA  SER C 503      76.869  25.260 -16.117  1.00 44.19 LIG 0.20  C 
BRANCH 32 33
ATOM     33  N   SER C 503      76.193  25.147 -14.823  1.00 47.77 LIG-0.34  N 
ATOM     34 H    SER C 503      75.624  24.504 -14.772  1.00 47.77 LIG 0.16  HD
ATOM     35  C   SER C 502      76.461  25.989 -13.826  1.00 50.79 LIG 0.24  C 
ATOM     36 O    SER C 502      77.456  26.700 -13.801  1.00 48.58 LIG-0.27  OA
BRANCH 35 37
ATOM     37  CA  SER C 502      75.451  26.047 -12.694  1.00 60.54 LIG 0.20  C 
BRANCH 37 38
ATOM     38  CB  SER C 502      74.073  26.409 -13.220  1.00 53.64 LIG 0.20  C 
BRANCH 38 39
ATOM     39 OG   SER C 502      73.316  25.258 -13.518  1.00 59.09 LIG-0.40  OA
ATOM     40 HG   SER C 502      73.659  24.858 -14.171  1.00 59.09 LIG 0.21  HD
ENDBRANCH 38 39
ENDBRANCH 37 38
BRANCH 37 41
ATOM     41  N   SER C 502      75.934  26.997 -11.700  1.00 72.56 LIG-0.34  N 
ATOM     42 H    SER C 502      75.503  27.740 -11.666  1.00 72.56 LIG 0.16  HD
ATOM     43  C   GLU C 501      76.969  26.686 -10.925  1.00101.90 LIG 0.26  C 
ATOM     44 O    GLU C 501      77.326  25.522 -10.741  1.00103.22 LIG-0.27  OA
BRANCH 43 45
ATOM     45  CA  GLU C 501      77.703  27.844 -10.235  1.00101.55 LIG 0.40  C 
ATOM     46  N   GLU C 501      78.479  27.348  -9.103  1.00100.94 LIG 0.61  N 
BRANCH 45 47
ATOM     47  CB  GLU C 501      78.617  28.571 -11.226  1.00104.94 LIG 0.06  C 
BRANCH 47 48
ATOM     48  CG  GLU C 501      77.946  29.715 -11.965  1.00111.45 LIG 0.12  C 
BRANCH 48 49
ATOM     49  CD  GLU C 501      78.844  30.330 -13.020  1.00115.68 LIG 0.17  C 
ATOM     50 OE1  GLU C 501      78.761  29.912 -14.196  1.00117.56 LIG-0.65  OA
ATOM     51 OE2  GLU C 501      79.632  31.233 -12.669  1.00122.11 LIG-0.65  OA
ENDBRANCH 48 49
ENDBRANCH 47 48
ENDBRANCH 45 47
ENDBRANCH 43 45
ENDBRANCH 37 41
ENDBRANCH 35 37
ENDBRANCH 32 33
BRANCH 32 52
ATOM     52  CB  SER C 503      76.968  26.714 -16.558  1.00 49.05 LIG 0.20  C 
BRANCH 52 53
ATOM     53 OG   SER C 503      75.715  27.173 -17.034  1.00 54.59 LIG-0.40  OA
ATOM     54 HG   SER C 503      75.520  26.768 -17.745  1.00 54.59 LIG 0.21  HD
ENDBRANCH 52 53
ENDBRANCH 32 52
ENDBRANCH 1 32
TORSDOF 25
ENDMDL
MODEL 34
USER: ADFR SOLUTION from run 70
USER: SCORE 16.418967 LL:  -3.632 LR: -13.368 RR:   0.000 FEB:  -5.911
USER: RMSD 5.602479
USER: SEED 69
USER: STATUS no improvement in best in 6 clusters for 5 generations
USER: GENES 27
USER: genes 0 Translation |==|  0.56963 0.52157 0.66210
USER: genes 1 Rotation |==|  0.63215 0.47656 0.25986 0.91751
USER: genes 2 Torsion [C]-N--CA-[CB] |==|  0.53377
USER: genes 3 Torsion [N]-CA--C-[N] |==|  0.43223
USER: genes 4 Torsion [C]-N--CA-[C] |==|  0.65398
USER: genes 5 Torsion [N]-CA--CB-[OG] |==|  0.58103
USER: genes 6 Torsion [CA]-CB--OG-[HG] |==|  0.79285
USER: genes 7 Torsion [N]-CA--C-[N] |==|  0.37932
USER: genes 8 Torsion [C]-N--CA-[CB] |==|  0.49135
USER: genes 9 Torsion [N]-CA--C-[O] |==|  0.26116
USER: genes 10 Torsion [N]-CA--CB-[CG] |==|  0.88057
USER: genes 11 Torsion [CA]-CB--CG-[CD] |==|  0.31714
USER: genes 12 Torsion [CB]-CG--CD-[NE2] |==|  0.82005
USER: genes 13 Torsion [N]-CA--CB-[CG] |==|  0.54545
USER: genes 14 Torsion [CA]-CB--CG-[OD1] |==|  0.03346
USER: genes 15 Torsion [N]-C--CA-[N] |==|  0.94837
USER: genes 16 Torsion [C]-CA--N-[C] |==|  0.83810
USER: genes 17 Torsion [N]-C--CA-[N] |==|  0.94531
USER: genes 18 Torsion [C]-CA--CB-[OG] |==|  0.75836
USER: genes 19 Torsion [CA]-CB--OG-[HG] |==|  0.13880
USER: genes 20 Torsion [C]-CA--N-[C] |==|  0.75000
USER: genes 21 Torsion [N]-C--CA-[N] |==|  0.87998
USER: genes 22 Torsion [C]-CA--CB-[CG] |==|  0.26485
USER: genes 23 Torsion [CA]-CB--CG-[CD] |==|  0.22817
USER: genes 24 Torsion [CB]-CG--CD-[OE1] |==|  0.78173
USER: genes 25 Torsion [C]-CA--CB-[OG] |==|  0.72684
USER: genes 26 Torsion [CA]-CB--OG-[HG] |==|  0.69550
ROOT
ATOM      1  C   SER C 503      80.472  26.811 -11.505  1.00 42.27 LIG 0.24  C 
ATOM      2 O    SER C 503      81.451  26.071 -11.439  1.00 46.84 LIG-0.27  OA
ATOM      3  N   ASP C 504      79.601  26.782 -12.504  1.00 51.15 LIG-0.34  N 
ATOM      4 H    ASP C 504      78.866  27.229 -12.504  1.00 51.15 LIG 0.16  HD
ENDROOT
BRANCH 3 5
ATOM      5  CA  ASP C 504      79.808  25.983 -13.711  1.00 56.79 LIG 0.19  C 
BRANCH 5 6
ATOM      6  C   ASP C 504      81.245  26.156 -14.223  1.00 67.42 LIG 0.24  C 
ATOM      7  N   SER C 505      81.727  25.162 -14.963  1.00 81.52 LIG-0.34  N 
ATOM      8 H    SER C 505      81.285  24.449 -15.152  1.00 81.52 LIG 0.16  HD
ATOM      9 O    ASP C 504      81.898  27.167 -13.956  1.00 66.01 LIG-0.27  OA
BRANCH 7 10
ATOM     10  CA  SER C 505      83.073  25.200 -15.531  1.00 90.64 LIG 0.20  C 
BRANCH 10 11
ATOM     11  CB  SER C 505      83.957  24.136 -14.890  1.00 89.01 LIG 0.20  C 
BRANCH 11 12
ATOM     12 OG   SER C 505      85.309  24.552 -14.892  1.00 87.22 LIG-0.40  OA
ATOM     13 HG   SER C 505      85.621  24.487 -15.669  1.00 87.22 LIG 0.21  HD
ENDBRANCH 11 12
ENDBRANCH 10 11
BRANCH 10 14
ATOM     14  C   SER C 505      83.017  25.003 -17.043  1.00 98.93 LIG 0.24  C 
ATOM     15  N   GLN C 506      83.792  25.803 -17.770  1.00110.12 LIG-0.35  N 
ATOM     16 H    GLN C 506      84.411  26.302 -17.441  1.00110.12 LIG 0.16  HD
ATOM     17 O    SER C 505      82.297  24.134 -17.538  1.00 94.47 LIG-0.27  OA
BRANCH 15 18
ATOM     18  CA  GLN C 506      83.646  25.897 -19.217  1.00115.19 LIG 0.16  C 
BRANCH 18 19
ATOM     19  C   GLN C 506      83.869  24.553 -19.910  1.00118.66 LIG 0.22  C 
ATOM     20 O    GLN C 506      82.921  23.812 -20.173  1.00117.46 LIG-0.29  OA
ENDBRANCH 18 19
BRANCH 18 21
ATOM     21  CB  GLN C 506      84.617  26.950 -19.763  1.00118.15 LIG 0.04  C 
BRANCH 21 22
ATOM     22  CG  GLN C 506      84.677  28.230 -18.915  1.00119.48 LIG 0.10  C 
BRANCH 22 23
ATOM     23  CD  GLN C 506      86.028  28.458 -18.237  1.00116.76 LIG 0.21  C 
ATOM     24  NE2 GLN C 506      86.392  27.567 -17.321  1.00111.94 LIG-0.37  N 
ATOM     25 21HE GLN C 506      85.874  26.905 -17.135  1.00111.94 LIG 0.16  HD
ATOM     26 22HE GLN C 506      87.145  27.651 -16.914  1.00111.94 LIG 0.16  HD
ATOM     27 OE1  GLN C 506      86.734  29.421 -18.538  1.00116.06 LIG-0.27  OA
ENDBRANCH 22 23
ENDBRANCH 21 22
ENDBRANCH 18 21
ENDBRANCH 15 18
ENDBRANCH 10 14
ENDBRANCH 7 10
ENDBRANCH 5 6
BRANCH 5 28
ATOM     28  CB  ASP C 504      78.790  26.395 -14.790  1.00 57.84 LIG 0.15  C 
BRANCH 28 29
ATOM     29  CG  ASP C 504      78.659  25.377 -15.917  1.00 60.92 LIG 0.17  C 
ATOM     30 OD2  ASP C 504      78.039  25.717 -16.953  1.00 60.43 LIG-0.65  OA
ATOM     31 OD1  ASP C 504      79.172  24.246 -15.775  1.00 59.69 LIG-0.65  OA
ENDBRANCH 28 29
ENDBRANCH 5 28
ENDBRANCH 3 5
BRANCH 1 32
ATOM     32  CA  SER C 503      80.186  27.816 -10.404  1.00 44.19 LIG 0.20  C 
BRANCH 32 33
ATOM     33  N   SER C 503      79.256  28.846 -10.871  1.00 47.77 LIG-0.34  N 
ATOM     34 H    SER C 503      78.531  28.909 -10.411  1.00 47.77 LIG 0.16  HD
ATOM     35  C   SER C 502      79.540  29.608 -11.926  1.00 50.79 LIG 0.24  C 
ATOM     36 O    SER C 502      80.667  29.717 -12.387  1.00 48.58 LIG-0.27  OA
BRANCH 35 37
ATOM     37  CA  SER C 502      78.378  30.349 -12.562  1.00 60.54 LIG 0.20  C 
BRANCH 37 38
ATOM     38  CB  SER C 502      78.406  31.820 -12.184  1.00 53.64 LIG 0.20  C 
BRANCH 38 39
ATOM     39 OG   SER C 502      77.734  32.053 -10.968  1.00 59.09 LIG-0.40  OA
ATOM     40 HG   SER C 502      78.012  31.515 -10.386  1.00 59.09 LIG 0.21  HD
ENDBRANCH 38 39
ENDBRANCH 37 38
BRANCH 37 41
ATOM     41  N   SER C 502      77.141  29.694 -12.155  1.00 72.56 LIG-0.34  N 
ATOM     42 H    SER C 502      76.788  29.997 -11.432  1.00 72.56 LIG 0.16  HD
ATOM     43  C   GLU C 501      76.637  28.704 -12.886  1.00101.90 LIG 0.26  C 
ATOM     44 O    GLU C 501      76.944  28.537 -14.067  1.00103.22 LIG-0.27  OA
BRANCH 43 45
ATOM     45  CA  GLU C 501      75.622  27.776 -12.207  1.00101.55 LIG 0.40  C 
ATOM     46  N   GLU C 501      76.071  27.433 -10.861  1.00100.94 LIG 0.61  N 
BRANCH 45 47
ATOM     47  CB  GLU C 501      74.240  28.433 -12.152  1.00104.94 LIG 0.06  C 
BRANCH 47 48
ATOM     48  CG  GLU C 501      73.320  28.042 -13.294  1.00111.45 LIG 0.12  C 
BRANCH 48 49
ATOM     49  CD  GLU C 501      72.628  26.715 -13.054  1.00115.68 LIG 0.17  C 
ATOM     50 OE1  GLU C 501      73.271  25.660 -13.249  1.00117.56 LIG-0.65  OA
ATOM     51 OE2  GLU C 501      71.440  26.731 -12.670  1.00122.11 LIG-0.65  OA
ENDBRANCH 48 49
ENDBRANCH 47 48
ENDBRANCH 45 47
ENDBRANCH 43 45
ENDBRANCH 37 41
ENDBRANCH 35 37
ENDBRANCH 32 33
BRANCH 32 52
ATOM     52  CB  SER C 503      79.630  27.087  -9.188  1.00 49.05 LIG 0.20  C 
BRANCH 52 53
ATOM     53 OG   SER C 503      78.217  27.177  -9.161  1.00 54.59 LIG-0.40  OA
ATOM     54 HG   SER C 503      77.980  27.682  -8.532  1.00 54.59 LIG 0.21  HD
ENDBRANCH 52 53
ENDBRANCH 32 52
ENDBRANCH 1 32
TORSDOF 25
ENDMDL
MODEL 35
USER: ADFR SOLUTION from run 160
USER: SCORE 15.915161 LL:  -4.508 LR: -13.321 RR:   0.000 FEB:  -5.863
USER: RMSD 6.161223
USER: SEED 159
USER: STATUS searching
USER: GENES 27
USER: genes 0 Translation |==|  0.66154 0.41402 0.43970
USER: genes 1 Rotation |==|  0.30516 0.18895 0.16278 0.53963
USER: genes 2 Torsion [C]-N--CA-[CB] |==|  0.78889
USER: genes 3 Torsion [N]-CA--C-[N] |==|  0.54922
USER: genes 4 Torsion [C]-N--CA-[C] |==|  0.69658
USER: genes 5 Torsion [N]-CA--CB-[OG] |==|  0.05691
USER: genes 6 Torsion [CA]-CB--OG-[HG] |==|  0.24492
USER: genes 7 Torsion [N]-CA--C-[N] |==|  0.35382
USER: genes 8 Torsion [C]-N--CA-[CB] |==|  0.30135
USER: genes 9 Torsion [N]-CA--C-[O] |==|  0.39109
USER: genes 10 Torsion [N]-CA--CB-[CG] |==|  0.24984
USER: genes 11 Torsion [CA]-CB--CG-[CD] |==|  0.79673
USER: genes 12 Torsion [CB]-CG--CD-[NE2] |==|  0.30166
USER: genes 13 Torsion [N]-CA--CB-[CG] |==|  0.82304
USER: genes 14 Torsion [CA]-CB--CG-[OD1] |==|  0.12967
USER: genes 15 Torsion [N]-C--CA-[N] |==|  0.25332
USER: genes 16 Torsion [C]-CA--N-[C] |==|  0.15822
USER: genes 17 Torsion [N]-C--CA-[N] |==|  0.46505
USER: genes 18 Torsion [C]-CA--CB-[OG] |==|  0.73706
USER: genes 19 Torsion [CA]-CB--OG-[HG] |==|  0.48864
USER: genes 20 Torsion [C]-CA--N-[C] |==|  0.74784
USER: genes 21 Torsion [N]-C--CA-[N] |==|  0.46853
USER: genes 22 Torsion [C]-CA--CB-[CG] |==|  0.65148
USER: genes 23 Torsion [CA]-CB--CG-[CD] |==|  0.81263
USER: genes 24 Torsion [CB]-CG--CD-[OE1] |==|  0.76221
USER: genes 25 Torsion [C]-CA--CB-[OG] |==|  0.54761
USER: genes 26 Torsion [CA]-CB--OG-[HG] |==|  0.94615
ROOT
ATOM      1  C   SER C 503      82.057  24.552 -15.675  1.00 42.27 LIG 0.24  C 
ATOM      2 O    SER C 503      81.595  24.892 -14.588  1.00 46.84 LIG-0.27  OA
ATOM      3  N   ASP C 504      81.307  24.203 -16.711  1.00 51.15 LIG-0.34  N 
ATOM      4 H    ASP C 504      81.624  24.059 -17.497  1.00 51.15 LIG 0.16  HD
ENDROOT
BRANCH 3 5
ATOM      5  CA  ASP C 504      79.859  24.026 -16.615  1.00 56.79 LIG 0.19  C 
BRANCH 5 6
ATOM      6  C   ASP C 504      79.229  25.202 -15.855  1.00 67.42 LIG 0.24  C 
ATOM      7  N   SER C 505      78.003  25.004 -15.381  1.00 81.52 LIG-0.34  N 
ATOM      8 H    SER C 505      77.562  24.274 -15.488  1.00 81.52 LIG 0.16  HD
ATOM      9 O    ASP C 504      79.844  26.260 -15.699  1.00 66.01 LIG-0.27  OA
BRANCH 7 10
ATOM     10  CA  SER C 505      77.290  26.029 -14.623  1.00 90.64 LIG 0.20  C 
BRANCH 10 11
ATOM     11  CB  SER C 505      75.902  26.264 -15.208  1.00 89.01 LIG 0.20  C 
BRANCH 11 12
ATOM     12 OG   SER C 505      75.502  25.152 -15.987  1.00 87.22 LIG-0.40  OA
ATOM     13 HG   SER C 505      75.119  24.590 -15.495  1.00 87.22 LIG 0.21  HD
ENDBRANCH 11 12
ENDBRANCH 10 11
BRANCH 10 14
ATOM     14  C   SER C 505      77.185  25.627 -13.154  1.00 98.93 LIG 0.24  C 
ATOM     15  N   GLN C 506      77.607  26.523 -12.267  1.00110.12 LIG-0.35  N 
ATOM     16 H    GLN C 506      77.787  27.342 -12.458  1.00110.12 LIG 0.16  HD
ATOM     17 O    SER C 505      76.719  24.532 -12.833  1.00 94.47 LIG-0.27  OA
BRANCH 15 18
ATOM     18  CA  GLN C 506      77.802  26.175 -10.864  1.00115.19 LIG 0.16  C 
BRANCH 18 19
ATOM     19  C   GLN C 506      77.083  27.141  -9.924  1.00118.66 LIG 0.22  C 
ATOM     20 O    GLN C 506      76.516  26.732  -8.909  1.00117.46 LIG-0.29  OA
ENDBRANCH 18 19
BRANCH 18 21
ATOM     21  CB  GLN C 506      79.301  26.134 -10.550  1.00118.15 LIG 0.04  C 
BRANCH 21 22
ATOM     22  CG  GLN C 506      79.868  27.483 -10.081  1.00119.48 LIG 0.10  C 
BRANCH 22 23
ATOM     23  CD  GLN C 506      80.004  28.517 -11.199  1.00116.76 LIG 0.21  C 
ATOM     24  NE2 GLN C 506      79.151  29.536 -11.173  1.00111.94 LIG-0.37  N 
ATOM     25 21HE GLN C 506      78.560  29.586 -10.550  1.00111.94 LIG 0.16  HD
ATOM     26 22HE GLN C 506      79.190  30.144 -11.779  1.00111.94 LIG 0.16  HD
ATOM     27 OE1  GLN C 506      80.868  28.401 -12.068  1.00116.06 LIG-0.27  OA
ENDBRANCH 22 23
ENDBRANCH 21 22
ENDBRANCH 18 21
ENDBRANCH 15 18
ENDBRANCH 10 14
ENDBRANCH 7 10
ENDBRANCH 5 6
BRANCH 5 28
ATOM     28  CB  ASP C 504      79.542  22.691 -15.919  1.00 57.84 LIG 0.15  C 
BRANCH 28 29
ATOM     29  CG  ASP C 504      80.021  21.473 -16.701  1.00 60.92 LIG 0.17  C 
ATOM     30 OD2  ASP C 504      79.227  20.513 -16.849  1.00 60.43 LIG-0.65  OA
ATOM     31 OD1  ASP C 504      81.180  21.470 -17.169  1.00 59.69 LIG-0.65  OA
ENDBRANCH 28 29
ENDBRANCH 5 28
ENDBRANCH 3 5
BRANCH 1 32
ATOM     32  CA  SER C 503      83.558  24.531 -15.904  1.00 44.19 LIG 0.20  C 
BRANCH 32 33
ATOM     33  N   SER C 503      84.031  25.838 -16.365  1.00 47.77 LIG-0.34  N 
ATOM     34 H    SER C 503      84.447  25.823 -17.117  1.00 47.77 LIG 0.16  HD
ATOM     35  C   SER C 502      83.817  26.942 -15.651  1.00 50.79 LIG 0.24  C 
ATOM     36 O    SER C 502      82.990  27.007 -14.752  1.00 48.58 LIG-0.27  OA
BRANCH 35 37
ATOM     37  CA  SER C 502      84.668  28.151 -15.996  1.00 60.54 LIG 0.20  C 
BRANCH 37 38
ATOM     38  CB  SER C 502      86.117  27.918 -15.603  1.00 53.64 LIG 0.20  C 
BRANCH 38 39
ATOM     39 OG   SER C 502      86.396  28.441 -14.324  1.00 59.09 LIG-0.40  OA
ATOM     40 HG   SER C 502      87.184  28.250 -14.109  1.00 59.09 LIG 0.21  HD
ENDBRANCH 38 39
ENDBRANCH 37 38
BRANCH 37 41
ATOM     41  N   SER C 502      84.094  29.317 -15.336  1.00 72.56 LIG-0.34  N 
ATOM     42 H    SER C 502      84.387  29.468 -14.542  1.00 72.56 LIG 0.16  HD
ATOM     43  C   GLU C 501      83.186  30.060 -15.961  1.00101.90 LIG 0.26  C 
ATOM     44 O    GLU C 501      83.054  30.044 -17.186  1.00103.22 LIG-0.27  OA
BRANCH 43 45
ATOM     45  CA  GLU C 501      82.308  30.973 -15.096  1.00101.55 LIG 0.40  C 
ATOM     46  N   GLU C 501      81.562  31.904 -15.937  1.00100.94 LIG 0.61  N 
BRANCH 45 47
ATOM     47  CB  GLU C 501      81.344  30.144 -14.242  1.00104.94 LIG 0.06  C 
BRANCH 47 48
ATOM     48  CG  GLU C 501      79.883  30.527 -14.406  1.00111.45 LIG 0.12  C 
BRANCH 48 49
ATOM     49  CD  GLU C 501      79.580  31.907 -13.860  1.00115.68 LIG 0.17  C 
ATOM     50 OE1  GLU C 501      79.317  32.027 -12.643  1.00117.56 LIG-0.65  OA
ATOM     51 OE2  GLU C 501      79.606  32.873 -14.653  1.00122.11 LIG-0.65  OA
ENDBRANCH 48 49
ENDBRANCH 47 48
ENDBRANCH 45 47
ENDBRANCH 43 45
ENDBRANCH 37 41
ENDBRANCH 35 37
ENDBRANCH 32 33
BRANCH 32 52
ATOM     52  CB  SER C 503      84.259  24.118 -14.617  1.00 49.05 LIG 0.20  C 
BRANCH 52 53
ATOM     53 OG   SER C 503      85.632  24.460 -14.670  1.00 54.59 LIG-0.40  OA
ATOM     54 HG   SER C 503      85.861  24.577 -15.470  1.00 54.59 LIG 0.21  HD
ENDBRANCH 52 53
ENDBRANCH 32 52
ENDBRANCH 1 32
TORSDOF 25
ENDMDL
MODEL 36
USER: ADFR SOLUTION from run 198
USER: SCORE 15.425783 LL:  -4.457 LR: -13.320 RR:   0.000 FEB:  -5.863
USER: RMSD 5.366121
USER: SEED 197
USER: STATUS no improvement in best in 15 clusters for 5 generations
USER: GENES 27
USER: genes 0 Translation |==|  0.41612 0.48682 0.68310
USER: genes 1 Rotation |==|  0.51347 0.47077 0.08606 0.77861
USER: genes 2 Torsion [C]-N--CA-[CB] |==|  0.43940
USER: genes 3 Torsion [N]-CA--C-[N] |==|  0.32664
USER: genes 4 Torsion [C]-N--CA-[C] |==|  0.20508
USER: genes 5 Torsion [N]-CA--CB-[OG] |==|  0.90480
USER: genes 6 Torsion [CA]-CB--OG-[HG] |==|  0.95789
USER: genes 7 Torsion [N]-CA--C-[N] |==|  0.81371
USER: genes 8 Torsion [C]-N--CA-[CB] |==|  0.28048
USER: genes 9 Torsion [N]-CA--C-[O] |==|  0.36631
USER: genes 10 Torsion [N]-CA--CB-[CG] |==|  0.54891
USER: genes 11 Torsion [CA]-CB--CG-[CD] |==|  0.12717
USER: genes 12 Torsion [CB]-CG--CD-[NE2] |==|  0.64751
USER: genes 13 Torsion [N]-CA--CB-[CG] |==|  0.59001
USER: genes 14 Torsion [CA]-CB--CG-[OD1] |==|  0.82318
USER: genes 15 Torsion [N]-C--CA-[N] |==|  0.97350
USER: genes 16 Torsion [C]-CA--N-[C] |==|  0.78399
USER: genes 17 Torsion [N]-C--CA-[N] |==|  0.01436
USER: genes 18 Torsion [C]-CA--CB-[OG] |==|  0.55034
USER: genes 19 Torsion [CA]-CB--OG-[HG] |==|  0.91638
USER: genes 20 Torsion [C]-CA--N-[C] |==|  0.67315
USER: genes 21 Torsion [N]-C--CA-[N] |==|  0.12888
USER: genes 22 Torsion [C]-CA--CB-[CG] |==|  0.69408
USER: genes 23 Torsion [CA]-CB--CG-[CD] |==|  0.19944
USER: genes 24 Torsion [CB]-CG--CD-[OE1] |==|  0.81564
USER: genes 25 Torsion [C]-CA--CB-[OG] |==|  0.85303
USER: genes 26 Torsion [CA]-CB--OG-[HG] |==|  0.78028
ROOT
ATOM      1  C   SER C 503      77.824  26.081 -11.111  1.00 42.27 LIG 0.24  C 
ATOM      2 O    SER C 503      77.855  24.858 -11.001  1.00 46.84 LIG-0.27  OA
ATOM      3  N   ASP C 504      76.905  26.728 -11.816  1.00 51.15 LIG-0.34  N 
ATOM      4 H    ASP C 504      76.824  27.584 -11.815  1.00 51.15 LIG 0.16  HD
ENDROOT
BRANCH 3 5
ATOM      5  CA  ASP C 504      75.935  26.043 -12.668  1.00 56.79 LIG 0.19  C 
BRANCH 5 6
ATOM      6  C   ASP C 504      76.586  25.647 -14.002  1.00 67.42 LIG 0.24  C 
ATOM      7  N   SER C 505      76.646  24.344 -14.261  1.00 81.52 LIG-0.34  N 
ATOM      8 H    SER C 505      76.356  23.737 -13.726  1.00 81.52 LIG 0.16  HD
ATOM      9 O    ASP C 504      77.016  26.504 -14.777  1.00 66.01 LIG-0.27  OA
BRANCH 7 10
ATOM     10  CA  SER C 505      77.223  23.826 -15.499  1.00 90.64 LIG 0.20  C 
BRANCH 10 11
ATOM     11  CB  SER C 505      76.657  24.565 -16.707  1.00 89.01 LIG 0.20  C 
BRANCH 11 12
ATOM     12 OG   SER C 505      75.306  24.918 -16.479  1.00 87.22 LIG-0.40  OA
ATOM     13 HG   SER C 505      75.010  24.484 -15.824  1.00 87.22 LIG 0.21  HD
ENDBRANCH 11 12
ENDBRANCH 10 11
BRANCH 10 14
ATOM     14  C   SER C 505      78.744  23.948 -15.468  1.00 98.93 LIG 0.24  C 
ATOM     15  N   GLN C 506      79.236  25.184 -15.484  1.00110.12 LIG-0.35  N 
ATOM     16 H    GLN C 506      78.763  25.891 -15.362  1.00110.12 LIG 0.16  HD
ATOM     17 O    SER C 505      79.455  22.943 -15.418  1.00 94.47 LIG-0.27  OA
BRANCH 15 18
ATOM     18  CA  GLN C 506      80.653  25.438 -15.715  1.00115.19 LIG 0.16  C 
BRANCH 18 19
ATOM     19  C   GLN C 506      81.217  26.483 -14.753  1.00118.66 LIG 0.22  C 
ATOM     20 O    GLN C 506      82.271  26.281 -14.147  1.00117.46 LIG-0.29  OA
ENDBRANCH 18 19
BRANCH 18 21
ATOM     21  CB  GLN C 506      80.864  25.877 -17.168  1.00118.15 LIG 0.04  C 
BRANCH 21 22
ATOM     22  CG  GLN C 506      82.321  25.758 -17.641  1.00119.48 LIG 0.10  C 
BRANCH 22 23
ATOM     23  CD  GLN C 506      82.988  24.436 -17.261  1.00116.76 LIG 0.21  C 
ATOM     24  NE2 GLN C 506      84.146  24.518 -16.614  1.00111.94 LIG-0.37  N 
ATOM     25 21HE GLN C 506      84.483  25.288 -16.433  1.00111.94 LIG 0.16  HD
ATOM     26 22HE GLN C 506      84.558  23.802 -16.377  1.00111.94 LIG 0.16  HD
ATOM     27 OE1  GLN C 506      82.464  23.358 -17.543  1.00116.06 LIG-0.27  OA
ENDBRANCH 22 23
ENDBRANCH 21 22
ENDBRANCH 18 21
ENDBRANCH 15 18
ENDBRANCH 10 14
ENDBRANCH 7 10
ENDBRANCH 5 6
BRANCH 5 28
ATOM     28  CB  ASP C 504      74.714  26.950 -12.903  1.00 57.84 LIG 0.15  C 
BRANCH 28 29
ATOM     29  CG  ASP C 504      73.408  26.178 -13.054  1.00 60.92 LIG 0.17  C 
ATOM     30 OD2  ASP C 504      72.511  26.358 -12.196  1.00 60.43 LIG-0.65  OA
ATOM     31 OD1  ASP C 504      73.273  25.399 -14.022  1.00 59.69 LIG-0.65  OA
ENDBRANCH 28 29
ENDBRANCH 5 28
ENDBRANCH 3 5
BRANCH 1 32
ATOM     32  CA  SER C 503      78.855  26.948 -10.411  1.00 44.19 LIG 0.20  C 
BRANCH 32 33
ATOM     33  N   SER C 503      78.746  28.341 -10.850  1.00 47.77 LIG-0.34  N 
ATOM     34 H    SER C 503      78.346  28.861 -10.294  1.00 47.77 LIG 0.16  HD
ATOM     35  C   SER C 502      79.238  28.737 -12.023  1.00 50.79 LIG 0.24  C 
ATOM     36 O    SER C 502      80.046  28.080 -12.665  1.00 48.58 LIG-0.27  OA
BRANCH 35 37
ATOM     37  CA  SER C 502      78.738  30.067 -12.556  1.00 60.54 LIG 0.20  C 
BRANCH 37 38
ATOM     38  CB  SER C 502      79.902  30.964 -12.943  1.00 53.64 LIG 0.20  C 
BRANCH 38 39
ATOM     39 OG   SER C 502      79.503  32.311 -13.045  1.00 59.09 LIG-0.40  OA
ATOM     40 HG   SER C 502      78.699  32.349 -13.281  1.00 59.09 LIG 0.21  HD
ENDBRANCH 38 39
ENDBRANCH 37 38
BRANCH 37 41
ATOM     41  N   SER C 502      77.883  30.673 -11.542  1.00 72.56 LIG-0.34  N 
ATOM     42 H    SER C 502      78.273  30.857 -10.798  1.00 72.56 LIG 0.16  HD
ATOM     43  C   GLU C 501      76.599  30.903 -11.801  1.00101.90 LIG 0.26  C 
ATOM     44 O    GLU C 501      76.162  30.971 -12.951  1.00103.22 LIG-0.27  OA
BRANCH 43 45
ATOM     45  CA  GLU C 501      75.667  31.112 -10.601  1.00101.55 LIG 0.40  C 
ATOM     46  N   GLU C 501      76.270  32.037  -9.646  1.00100.94 LIG 0.61  N 
BRANCH 45 47
ATOM     47  CB  GLU C 501      74.305  31.639 -11.060  1.00104.94 LIG 0.06  C 
BRANCH 47 48
ATOM     48  CG  GLU C 501      74.034  33.082 -10.671  1.00111.45 LIG 0.12  C 
BRANCH 48 49
ATOM     49  CD  GLU C 501      74.865  34.065 -11.469  1.00115.68 LIG 0.17  C 
ATOM     50 OE1  GLU C 501      76.106  34.069 -11.310  1.00117.56 LIG-0.65  OA
ATOM     51 OE2  GLU C 501      74.274  34.833 -12.257  1.00122.11 LIG-0.65  OA
ENDBRANCH 48 49
ENDBRANCH 47 48
ENDBRANCH 45 47
ENDBRANCH 43 45
ENDBRANCH 37 41
ENDBRANCH 35 37
ENDBRANCH 32 33
BRANCH 32 52
ATOM     52  CB  SER C 503      78.670  26.833  -8.904  1.00 49.05 LIG 0.20  C 
BRANCH 52 53
ATOM     53 OG   SER C 503      77.327  27.108  -8.548  1.00 54.59 LIG-0.40  OA
ATOM     54 HG   SER C 503      77.202  27.939  -8.543  1.00 54.59 LIG 0.21  HD
ENDBRANCH 52 53
ENDBRANCH 32 52
ENDBRANCH 1 32
TORSDOF 25
ENDMDL
MODEL 37
USER: ADFR SOLUTION from run 152
USER: SCORE 15.929023 LL:  -4.423 LR: -13.323 RR:   0.000 FEB:  -5.865
USER: RMSD 6.964205
USER: SEED 151
USER: STATUS no improvement in best in 12 clusters for 5 generations
USER: GENES 27
USER: genes 0 Translation |==|  0.62303 0.51510 0.48916
USER: genes 1 Rotation |==|  0.72845 0.38569 0.36179 0.90699
USER: genes 2 Torsion [C]-N--CA-[CB] |==|  0.40453
USER: genes 3 Torsion [N]-CA--C-[N] |==|  0.00250
USER: genes 4 Torsion [C]-N--CA-[C] |==|  0.83409
USER: genes 5 Torsion [N]-CA--CB-[OG] |==|  0.95227
USER: genes 6 Torsion [CA]-CB--OG-[HG] |==|  0.82914
USER: genes 7 Torsion [N]-CA--C-[N] |==|  0.92260
USER: genes 8 Torsion [C]-N--CA-[CB] |==|  0.29604
USER: genes 9 Torsion [N]-CA--C-[O] |==|  0.93658
USER: genes 10 Torsion [N]-CA--CB-[CG] |==|  0.78553
USER: genes 11 Torsion [CA]-CB--CG-[CD] |==|  0.37899
USER: genes 12 Torsion [CB]-CG--CD-[NE2] |==|  0.69249
USER: genes 13 Torsion [N]-CA--CB-[CG] |==|  0.69297
USER: genes 14 Torsion [CA]-CB--CG-[OD1] |==|  0.45072
USER: genes 15 Torsion [N]-C--CA-[N] |==|  0.11564
USER: genes 16 Torsion [C]-CA--N-[C] |==|  0.15339
USER: genes 17 Torsion [N]-C--CA-[N] |==|  0.42702
USER: genes 18 Torsion [C]-CA--CB-[OG] |==|  0.74868
USER: genes 19 Torsion [CA]-CB--OG-[HG] |==|  0.84607
USER: genes 20 Torsion [C]-CA--N-[C] |==|  0.82753
USER: genes 21 Torsion [N]-C--CA-[N] |==|  0.54784
USER: genes 22 Torsion [C]-CA--CB-[CG] |==|  0.69256
USER: genes 23 Torsion [CA]-CB--CG-[CD] |==|  0.79248
USER: genes 24 Torsion [CB]-CG--CD-[OE1] |==|  0.42840
USER: genes 25 Torsion [C]-CA--CB-[OG] |==|  0.13890
USER: genes 26 Torsion [CA]-CB--OG-[HG] |==|  0.69672
ROOT
ATOM      1  C   SER C 503      81.393  26.675 -14.747  1.00 42.27 LIG 0.24  C 
ATOM      2 O    SER C 503      82.332  26.134 -14.168  1.00 46.84 LIG-0.27  OA
ATOM      3  N   ASP C 504      81.259  26.688 -16.067  1.00 51.15 LIG-0.34  N 
ATOM      4 H    ASP C 504      80.557  26.980 -16.468  1.00 51.15 LIG 0.16  HD
ENDROOT
BRANCH 3 5
ATOM      5  CA  ASP C 504      82.300  26.205 -16.973  1.00 56.79 LIG 0.19  C 
BRANCH 5 6
ATOM      6  C   ASP C 504      83.223  27.361 -17.386  1.00 67.42 LIG 0.24  C 
ATOM      7  N   SER C 505      82.945  28.549 -16.859  1.00 81.52 LIG-0.34  N 
ATOM      8 H    SER C 505      82.287  28.693 -16.325  1.00 81.52 LIG 0.16  HD
ATOM      9 O    ASP C 504      84.166  27.175 -18.158  1.00 66.01 LIG-0.27  OA
BRANCH 7 10
ATOM     10  CA  SER C 505      83.750  29.734 -17.150  1.00 90.64 LIG 0.20  C 
BRANCH 10 11
ATOM     11  CB  SER C 505      83.172  30.961 -16.455  1.00 89.01 LIG 0.20  C 
BRANCH 11 12
ATOM     12 OG   SER C 505      81.836  30.719 -16.057  1.00 87.22 LIG-0.40  OA
ATOM     13 HG   SER C 505      81.366  30.562 -16.735  1.00 87.22 LIG 0.21  HD
ENDBRANCH 11 12
ENDBRANCH 10 11
BRANCH 10 14
ATOM     14  C   SER C 505      85.196  29.511 -16.718  1.00 98.93 LIG 0.24  C 
ATOM     15  N   GLN C 506      85.387  28.662 -15.713  1.00110.12 LIG-0.35  N 
ATOM     16 H    GLN C 506      84.779  28.137 -15.404  1.00110.12 LIG 0.16  HD
ATOM     17 O    SER C 505      86.121  30.088 -17.294  1.00 94.47 LIG-0.27  OA
BRANCH 15 18
ATOM     18  CA  GLN C 506      86.675  28.555 -15.038  1.00115.19 LIG 0.16  C 
BRANCH 18 19
ATOM     19  C   GLN C 506      87.146  27.106 -14.919  1.00118.66 LIG 0.22  C 
ATOM     20 O    GLN C 506      86.342  26.173 -14.965  1.00117.46 LIG-0.29  OA
ENDBRANCH 18 19
BRANCH 18 21
ATOM     21  CB  GLN C 506      86.584  29.205 -13.653  1.00118.15 LIG 0.04  C 
BRANCH 21 22
ATOM     22  CG  GLN C 506      86.632  30.740 -13.690  1.00119.48 LIG 0.10  C 
BRANCH 22 23
ATOM     23  CD  GLN C 506      85.611  31.411 -12.770  1.00116.76 LIG 0.21  C 
ATOM     24  NE2 GLN C 506      84.610  32.053 -13.362  1.00111.94 LIG-0.37  N 
ATOM     25 21HE GLN C 506      84.562  32.077 -14.221  1.00111.94 LIG 0.16  HD
ATOM     26 22HE GLN C 506      84.009  32.445 -12.887  1.00111.94 LIG 0.16  HD
ATOM     27 OE1  GLN C 506      85.723  31.348 -11.546  1.00116.06 LIG-0.27  OA
ENDBRANCH 22 23
ENDBRANCH 21 22
ENDBRANCH 18 21
ENDBRANCH 15 18
ENDBRANCH 10 14
ENDBRANCH 7 10
ENDBRANCH 5 6
BRANCH 5 28
ATOM     28  CB  ASP C 504      81.654  25.552 -18.207  1.00 57.84 LIG 0.15  C 
BRANCH 28 29
ATOM     29  CG  ASP C 504      81.844  24.040 -18.259  1.00 60.92 LIG 0.17  C 
ATOM     30 OD2  ASP C 504      82.740  23.531 -17.544  1.00 60.43 LIG-0.65  OA
ATOM     31 OD1  ASP C 504      81.105  23.360 -19.003  1.00 59.69 LIG-0.65  OA
ENDBRANCH 28 29
ENDBRANCH 5 28
ENDBRANCH 3 5
BRANCH 1 32
ATOM     32  CA  SER C 503      80.292  27.363 -13.961  1.00 44.19 LIG 0.20  C 
BRANCH 32 33
ATOM     33  N   SER C 503      78.978  27.052 -14.528  1.00 47.77 LIG-0.34  N 
ATOM     34 H    SER C 503      78.507  27.740 -14.739  1.00 47.77 LIG 0.16  HD
ATOM     35  C   SER C 502      78.575  25.792 -14.690  1.00 50.79 LIG 0.24  C 
ATOM     36 O    SER C 502      79.339  24.838 -14.666  1.00 48.58 LIG-0.27  OA
BRANCH 35 37
ATOM     37  CA  SER C 502      77.087  25.576 -14.900  1.00 60.54 LIG 0.20  C 
BRANCH 37 38
ATOM     38  CB  SER C 502      76.353  25.558 -13.571  1.00 53.64 LIG 0.20  C 
BRANCH 38 39
ATOM     39 OG   SER C 502      76.271  24.253 -13.044  1.00 59.09 LIG-0.40  OA
ATOM     40 HG   SER C 502      75.914  23.745 -13.609  1.00 59.09 LIG 0.21  HD
ENDBRANCH 38 39
ENDBRANCH 37 38
BRANCH 37 41
ATOM     41  N   SER C 502      76.907  24.340 -15.652  1.00 72.56 LIG-0.34  N 
ATOM     42 H    SER C 502      76.469  23.724 -15.242  1.00 72.56 LIG 0.16  HD
ATOM     43  C   GLU C 501      77.405  24.225 -16.879  1.00101.90 LIG 0.26  C 
ATOM     44 O    GLU C 501      77.699  25.206 -17.564  1.00103.22 LIG-0.27  OA
BRANCH 43 45
ATOM     45  CA  GLU C 501      77.582  22.806 -17.435  1.00101.55 LIG 0.40  C 
ATOM     46  N   GLU C 501      78.489  22.820 -18.579  1.00100.94 LIG 0.61  N 
BRANCH 45 47
ATOM     47  CB  GLU C 501      78.113  21.863 -16.352  1.00104.94 LIG 0.06  C 
BRANCH 47 48
ATOM     48  CG  GLU C 501      79.541  21.398 -16.578  1.00111.45 LIG 0.12  C 
BRANCH 48 49
ATOM     49  CD  GLU C 501      79.646  20.358 -17.675  1.00115.68 LIG 0.17  C 
ATOM     50 OE1  GLU C 501      80.727  20.247 -18.294  1.00117.56 LIG-0.65  OA
ATOM     51 OE2  GLU C 501      78.644  19.652 -17.916  1.00122.11 LIG-0.65  OA
ENDBRANCH 48 49
ENDBRANCH 47 48
ENDBRANCH 45 47
ENDBRANCH 43 45
ENDBRANCH 37 41
ENDBRANCH 35 37
ENDBRANCH 32 33
BRANCH 32 52
ATOM     52  CB  SER C 503      80.373  26.937 -12.502  1.00 49.05 LIG 0.20  C 
BRANCH 52 53
ATOM     53 OG   SER C 503      81.696  27.085 -12.016  1.00 54.59 LIG-0.40  OA
ATOM     54 HG   SER C 503      82.038  26.326 -11.900  1.00 54.59 LIG 0.21  HD
ENDBRANCH 52 53
ENDBRANCH 32 52
ENDBRANCH 1 32
TORSDOF 25
ENDMDL
MODEL 38
USER: ADFR SOLUTION from run 142
USER: SCORE 15.777458 LL:  -4.546 LR: -13.291 RR:   0.000 FEB:  -5.833
USER: RMSD 4.876942
USER: SEED 141
USER: STATUS no improvement in best in 3 clusters for 5 generations
USER: GENES 27
USER: genes 0 Translation |==|  0.61734 0.46840 0.50777
USER: genes 1 Rotation |==|  0.53143 0.45140 0.36016 0.97655
USER: genes 2 Torsion [C]-N--CA-[CB] |==|  0.52226
USER: genes 3 Torsion [N]-CA--C-[N] |==|  0.93591
USER: genes 4 Torsion [C]-N--CA-[C] |==|  0.67541
USER: genes 5 Torsion [N]-CA--CB-[OG] |==|  0.86606
USER: genes 6 Torsion [CA]-CB--OG-[HG] |==|  0.98488
USER: genes 7 Torsion [N]-CA--C-[N] |==|  0.44021
USER: genes 8 Torsion [C]-N--CA-[CB] |==|  0.84067
USER: genes 9 Torsion [N]-CA--C-[O] |==|  0.02264
USER: genes 10 Torsion [N]-CA--CB-[CG] |==|  0.49496
USER: genes 11 Torsion [CA]-CB--CG-[CD] |==|  0.70997
USER: genes 12 Torsion [CB]-CG--CD-[NE2] |==|  0.62403
USER: genes 13 Torsion [N]-CA--CB-[CG] |==|  0.44813
USER: genes 14 Torsion [CA]-CB--CG-[OD1] |==|  0.27752
USER: genes 15 Torsion [N]-C--CA-[N] |==|  0.12778
USER: genes 16 Torsion [C]-CA--N-[C] |==|  0.76095
USER: genes 17 Torsion [N]-C--CA-[N] |==|  0.17889
USER: genes 18 Torsion [C]-CA--CB-[OG] |==|  0.78795
USER: genes 19 Torsion [CA]-CB--OG-[HG] |==|  0.05889
USER: genes 20 Torsion [C]-CA--N-[C] |==|  0.78168
USER: genes 21 Torsion [N]-C--CA-[N] |==|  0.55968
USER: genes 22 Torsion [C]-CA--CB-[CG] |==|  0.90290
USER: genes 23 Torsion [CA]-CB--CG-[CD] |==|  0.78257
USER: genes 24 Torsion [CB]-CG--CD-[OE1] |==|  0.12116
USER: genes 25 Torsion [C]-CA--CB-[OG] |==|  0.81113
USER: genes 26 Torsion [CA]-CB--OG-[HG] |==|  0.21052
ROOT
ATOM      1  C   SER C 503      81.295  25.694 -14.398  1.00 42.27 LIG 0.24  C 
ATOM      2 O    SER C 503      82.475  25.497 -14.120  1.00 46.84 LIG-0.27  OA
ATOM      3  N   ASP C 504      80.586  24.894 -15.183  1.00 51.15 LIG-0.34  N 
ATOM      4 H    ASP C 504      79.738  24.977 -15.301  1.00 51.15 LIG 0.16  HD
ENDROOT
BRANCH 3 5
ATOM      5  CA  ASP C 504      81.182  23.787 -15.929  1.00 56.79 LIG 0.19  C 
BRANCH 5 6
ATOM      6  C   ASP C 504      82.420  24.270 -16.699  1.00 67.42 LIG 0.24  C 
ATOM      7  N   SER C 505      82.472  25.571 -16.966  1.00 81.52 LIG-0.34  N 
ATOM      8 H    SER C 505      81.858  26.130 -16.743  1.00 81.52 LIG 0.16  HD
ATOM      9 O    ASP C 504      83.306  23.482 -17.035  1.00 66.01 LIG-0.27  OA
BRANCH 7 10
ATOM     10  CA  SER C 505      83.599  26.172 -17.676  1.00 90.64 LIG 0.20  C 
BRANCH 10 11
ATOM     11  CB  SER C 505      83.128  26.851 -18.957  1.00 89.01 LIG 0.20  C 
BRANCH 11 12
ATOM     12 OG   SER C 505      82.281  25.986 -19.690  1.00 87.22 LIG-0.40  OA
ATOM     13 HG   SER C 505      82.258  25.234 -19.316  1.00 87.22 LIG 0.21  HD
ENDBRANCH 11 12
ENDBRANCH 10 11
BRANCH 10 14
ATOM     14  C   SER C 505      84.318  27.175 -16.778  1.00 98.93 LIG 0.24  C 
ATOM     15  N   GLN C 506      85.576  27.459 -17.102  1.00110.12 LIG-0.35  N 
ATOM     16 H    GLN C 506      85.943  27.235 -17.847  1.00110.12 LIG 0.16  HD
ATOM     17 O    SER C 505      83.739  27.689 -15.819  1.00 94.47 LIG-0.27  OA
BRANCH 15 18
ATOM     18  CA  GLN C 506      86.451  28.192 -16.195  1.00115.19 LIG 0.16  C 
BRANCH 18 19
ATOM     19  C   GLN C 506      86.754  27.404 -14.921  1.00118.66 LIG 0.22  C 
ATOM     20 O    GLN C 506      86.405  26.228 -14.807  1.00117.46 LIG-0.29  OA
ENDBRANCH 18 19
BRANCH 18 21
ATOM     21  CB  GLN C 506      85.815  29.544 -15.851  1.00118.15 LIG 0.04  C 
BRANCH 21 22
ATOM     22  CG  GLN C 506      86.642  30.379 -14.862  1.00119.48 LIG 0.10  C 
BRANCH 22 23
ATOM     23  CD  GLN C 506      86.075  30.393 -13.442  1.00116.76 LIG 0.21  C 
ATOM     24  NE2 GLN C 506      86.036  31.572 -12.829  1.00111.94 LIG-0.37  N 
ATOM     25 21HE GLN C 506      86.323  32.276 -13.232  1.00111.94 LIG 0.16  HD
ATOM     26 22HE GLN C 506      85.722  31.631 -12.031  1.00111.94 LIG 0.16  HD
ATOM     27 OE1  GLN C 506      85.675  29.358 -12.908  1.00116.06 LIG-0.27  OA
ENDBRANCH 22 23
ENDBRANCH 21 22
ENDBRANCH 18 21
ENDBRANCH 15 18
ENDBRANCH 10 14
ENDBRANCH 7 10
ENDBRANCH 5 6
BRANCH 5 28
ATOM     28  CB  ASP C 504      80.140  23.185 -16.889  1.00 57.84 LIG 0.15  C 
BRANCH 28 29
ATOM     29  CG  ASP C 504      80.759  22.354 -18.008  1.00 60.92 LIG 0.17  C 
ATOM     30 OD2  ASP C 504      81.239  22.957 -18.997  1.00 60.43 LIG-0.65  OA
ATOM     31 OD1  ASP C 504      80.771  21.108 -17.902  1.00 59.69 LIG-0.65  OA
ENDBRANCH 28 29
ENDBRANCH 5 28
ENDBRANCH 3 5
BRANCH 1 32
ATOM     32  CA  SER C 503      80.556  26.891 -13.829  1.00 44.19 LIG 0.20  C 
BRANCH 32 33
ATOM     33  N   SER C 503      79.249  26.491 -13.302  1.00 47.77 LIG-0.34  N 
ATOM     34 H    SER C 503      79.242  26.311 -12.461  1.00 47.77 LIG 0.16  HD
ATOM     35  C   SER C 502      78.177  26.422 -14.090  1.00 50.79 LIG 0.24  C 
ATOM     36 O    SER C 502      78.123  26.948 -15.193  1.00 48.58 LIG-0.27  OA
BRANCH 35 37
ATOM     37  CA  SER C 502      76.993  25.633 -13.561  1.00 60.54 LIG 0.20  C 
BRANCH 37 38
ATOM     38  CB  SER C 502      75.930  25.473 -14.634  1.00 53.64 LIG 0.20  C 
BRANCH 38 39
ATOM     39 OG   SER C 502      75.195  26.661 -14.814  1.00 59.09 LIG-0.40  OA
ATOM     40 HG   SER C 502      75.639  27.312 -14.525  1.00 59.09 LIG 0.21  HD
ENDBRANCH 38 39
ENDBRANCH 37 38
BRANCH 37 41
ATOM     41  N   SER C 502      76.487  26.311 -12.374  1.00 72.56 LIG-0.34  N 
ATOM     42 H    SER C 502      75.781  26.786 -12.498  1.00 72.56 LIG 0.16  HD
ATOM     43  C   GLU C 501      77.110  26.172 -11.207  1.00101.90 LIG 0.26  C 
ATOM     44 O    GLU C 501      77.873  25.233 -10.978  1.00103.22 LIG-0.27  OA
BRANCH 43 45
ATOM     45  CA  GLU C 501      76.823  27.223 -10.128  1.00101.55 LIG 0.40  C 
ATOM     46  N   GLU C 501      77.903  27.249  -9.146  1.00100.94 LIG 0.61  N 
BRANCH 45 47
ATOM     47  CB  GLU C 501      76.646  28.608 -10.756  1.00104.94 LIG 0.06  C 
BRANCH 47 48
ATOM     48  CG  GLU C 501      77.531  28.860 -11.964  1.00111.45 LIG 0.12  C 
BRANCH 48 49
ATOM     49  CD  GLU C 501      78.958  29.192 -11.579  1.00115.68 LIG 0.17  C 
ATOM     50 OE1  GLU C 501      79.510  28.518 -10.682  1.00117.56 LIG-0.65  OA
ATOM     51 OE2  GLU C 501      79.527  30.130 -12.177  1.00122.11 LIG-0.65  OA
ENDBRANCH 48 49
ENDBRANCH 47 48
ENDBRANCH 45 47
ENDBRANCH 43 45
ENDBRANCH 37 41
ENDBRANCH 35 37
ENDBRANCH 32 33
BRANCH 32 52
ATOM     52  CB  SER C 503      81.406  27.541 -12.746  1.00 49.05 LIG 0.20  C 
BRANCH 52 53
ATOM     53 OG   SER C 503      81.514  26.685 -11.622  1.00 54.59 LIG-0.40  OA
ATOM     54 HG   SER C 503      82.054  26.065 -11.793  1.00 54.59 LIG 0.21  HD
ENDBRANCH 52 53
ENDBRANCH 32 52
ENDBRANCH 1 32
TORSDOF 25
ENDMDL
MODEL 39
USER: ADFR SOLUTION from run 99
USER: SCORE 16.248539 LL:  -4.210 LR: -13.275 RR:   0.000 FEB:  -5.818
USER: RMSD 4.287202
USER: SEED 98
USER: STATUS searching
USER: GENES 27
USER: genes 0 Translation |==|  0.43216 0.41380 0.49851
USER: genes 1 Rotation |==|  0.86926 0.25231 0.27420 0.53623
USER: genes 2 Torsion [C]-N--CA-[CB] |==|  0.21488
USER: genes 3 Torsion [N]-CA--C-[N] |==|  0.47979
USER: genes 4 Torsion [C]-N--CA-[C] |==|  0.78463
USER: genes 5 Torsion [N]-CA--CB-[OG] |==|  0.84978
USER: genes 6 Torsion [CA]-CB--OG-[HG] |==|  0.15570
USER: genes 7 Torsion [N]-CA--C-[N] |==|  0.45326
USER: genes 8 Torsion [C]-N--CA-[CB] |==|  0.25428
USER: genes 9 Torsion [N]-CA--C-[O] |==|  0.34769
USER: genes 10 Torsion [N]-CA--CB-[CG] |==|  0.06270
USER: genes 11 Torsion [CA]-CB--CG-[CD] |==|  0.23136
USER: genes 12 Torsion [CB]-CG--CD-[NE2] |==|  0.25003
USER: genes 13 Torsion [N]-CA--CB-[CG] |==|  0.54459
USER: genes 14 Torsion [CA]-CB--CG-[OD1] |==|  0.70176
USER: genes 15 Torsion [N]-C--CA-[N] |==|  0.91237
USER: genes 16 Torsion [C]-CA--N-[C] |==|  0.75576
USER: genes 17 Torsion [N]-C--CA-[N] |==|  0.06111
USER: genes 18 Torsion [C]-CA--CB-[OG] |==|  0.82945
USER: genes 19 Torsion [CA]-CB--OG-[HG] |==|  0.63136
USER: genes 20 Torsion [C]-CA--N-[C] |==|  0.70203
USER: genes 21 Torsion [N]-C--CA-[N] |==|  0.11478
USER: genes 22 Torsion [C]-CA--CB-[CG] |==|  0.44189
USER: genes 23 Torsion [CA]-CB--CG-[CD] |==|  0.19256
USER: genes 24 Torsion [CB]-CG--CD-[OE1] |==|  0.53083
USER: genes 25 Torsion [C]-CA--CB-[OG] |==|  0.32309
USER: genes 26 Torsion [CA]-CB--OG-[HG] |==|  0.91520
ROOT
ATOM      1  C   SER C 503      78.101  24.548 -14.572  1.00 42.27 LIG 0.24  C 
ATOM      2 O    SER C 503      77.865  23.412 -14.978  1.00 46.84 LIG-0.27  OA
ATOM      3  N   ASP C 504      79.267  25.157 -14.742  1.00 51.15 LIG-0.34  N 
ATOM      4 H    ASP C 504      79.402  25.983 -14.546  1.00 51.15 LIG 0.16  HD
ENDROOT
BRANCH 3 5
ATOM      5  CA  ASP C 504      80.443  24.478 -15.284  1.00 56.79 LIG 0.19  C 
BRANCH 5 6
ATOM      6  C   ASP C 504      81.718  25.248 -14.914  1.00 67.42 LIG 0.24  C 
ATOM      7  N   SER C 505      82.869  24.656 -15.218  1.00 81.52 LIG-0.34  N 
ATOM      8 H    SER C 505      82.925  23.883 -15.591  1.00 81.52 LIG 0.16  HD
ATOM      9 O    ASP C 504      81.658  26.354 -14.372  1.00 66.01 LIG-0.27  OA
BRANCH 7 10
ATOM     10  CA  SER C 505      84.160  25.281 -14.940  1.00 90.64 LIG 0.20  C 
BRANCH 10 11
ATOM     11  CB  SER C 505      85.271  24.237 -14.921  1.00 89.01 LIG 0.20  C 
BRANCH 11 12
ATOM     12 OG   SER C 505      84.953  23.197 -14.017  1.00 87.22 LIG-0.40  OA
ATOM     13 HG   SER C 505      84.210  22.865 -14.222  1.00 87.22 LIG 0.21  HD
ENDBRANCH 11 12
ENDBRANCH 10 11
BRANCH 10 14
ATOM     14  C   SER C 505      84.462  26.358 -15.978  1.00 98.93 LIG 0.24  C 
ATOM     15  N   GLN C 506      85.414  27.231 -15.661  1.00110.12 LIG-0.35  N 
ATOM     16 H    GLN C 506      85.952  27.136 -14.996  1.00110.12 LIG 0.16  HD
ATOM     17 O    SER C 505      83.854  26.388 -17.050  1.00 94.47 LIG-0.27  OA
BRANCH 15 18
ATOM     18  CA  GLN C 506      85.623  28.448 -16.436  1.00115.19 LIG 0.16  C 
BRANCH 18 19
ATOM     19  C   GLN C 506      87.098  28.839 -16.513  1.00118.66 LIG 0.22  C 
ATOM     20 O    GLN C 506      87.651  29.013 -17.600  1.00117.46 LIG-0.29  OA
ENDBRANCH 18 19
BRANCH 18 21
ATOM     21  CB  GLN C 506      84.796  29.589 -15.833  1.00118.15 LIG 0.04  C 
BRANCH 21 22
ATOM     22  CG  GLN C 506      84.433  29.371 -14.356  1.00119.48 LIG 0.10  C 
BRANCH 22 23
ATOM     23  CD  GLN C 506      85.536  29.786 -13.382  1.00116.76 LIG 0.21  C 
ATOM     24  NE2 GLN C 506      85.509  31.044 -12.953  1.00111.94 LIG-0.37  N 
ATOM     25 21HE GLN C 506      84.893  31.578 -13.227  1.00111.94 LIG 0.16  HD
ATOM     26 22HE GLN C 506      86.107  31.323 -12.402  1.00111.94 LIG 0.16  HD
ATOM     27 OE1  GLN C 506      86.396  28.983 -13.019  1.00116.06 LIG-0.27  OA
ENDBRANCH 22 23
ENDBRANCH 21 22
ENDBRANCH 18 21
ENDBRANCH 15 18
ENDBRANCH 10 14
ENDBRANCH 7 10
ENDBRANCH 5 6
BRANCH 5 28
ATOM     28  CB  ASP C 504      80.308  24.341 -16.811  1.00 57.84 LIG 0.15  C 
BRANCH 28 29
ATOM     29  CG  ASP C 504      81.272  23.325 -17.413  1.00 60.92 LIG 0.17  C 
ATOM     30 OD2  ASP C 504      81.045  22.106 -17.218  1.00 60.43 LIG-0.65  OA
ATOM     31 OD1  ASP C 504      82.247  23.733 -18.079  1.00 59.69 LIG-0.65  OA
ENDBRANCH 28 29
ENDBRANCH 5 28
ENDBRANCH 3 5
BRANCH 1 32
ATOM     32  CA  SER C 503      77.034  25.347 -13.847  1.00 44.19 LIG 0.20  C 
BRANCH 32 33
ATOM     33  N   SER C 503      77.639  26.254 -12.868  1.00 47.77 LIG-0.34  N 
ATOM     34 H    SER C 503      77.809  27.042 -13.168  1.00 47.77 LIG 0.16  HD
ATOM     35  C   SER C 502      77.894  25.856 -11.623  1.00 50.79 LIG 0.24  C 
ATOM     36 O    SER C 502      77.396  24.856 -11.126  1.00 48.58 LIG-0.27  OA
BRANCH 35 37
ATOM     37  CA  SER C 502      78.863  26.708 -10.822  1.00 60.54 LIG 0.20  C 
BRANCH 37 38
ATOM     38  CB  SER C 502      78.470  26.733  -9.354  1.00 53.64 LIG 0.20  C 
BRANCH 38 39
ATOM     39 OG   SER C 502      77.191  27.295  -9.172  1.00 59.09 LIG-0.40  OA
ATOM     40 HG   SER C 502      77.219  27.859  -8.551  1.00 59.09 LIG 0.21  HD
ENDBRANCH 38 39
ENDBRANCH 37 38
BRANCH 37 41
ATOM     41  N   SER C 502      78.894  28.041 -11.412  1.00 72.56 LIG-0.34  N 
ATOM     42 H    SER C 502      78.193  28.518 -11.271  1.00 72.56 LIG 0.16  HD
ATOM     43  C   GLU C 501      79.955  28.439 -12.108  1.00101.90 LIG 0.26  C 
ATOM     44 O    GLU C 501      81.057  27.900 -11.992  1.00103.22 LIG-0.27  OA
BRANCH 43 45
ATOM     45  CA  GLU C 501      79.766  29.628 -13.057  1.00101.55 LIG 0.40  C 
ATOM     46  N   GLU C 501      78.939  30.653 -12.427  1.00100.94 LIG 0.61  N 
BRANCH 45 47
ATOM     47  CB  GLU C 501      81.120  30.217 -13.462  1.00104.94 LIG 0.06  C 
BRANCH 47 48
ATOM     48  CG  GLU C 501      81.085  31.034 -14.742  1.00111.45 LIG 0.12  C 
BRANCH 48 49
ATOM     49  CD  GLU C 501      80.327  32.336 -14.579  1.00115.68 LIG 0.17  C 
ATOM     50 OE1  GLU C 501      80.045  32.997 -15.602  1.00117.56 LIG-0.65  OA
ATOM     51 OE2  GLU C 501      80.014  32.695 -13.424  1.00122.11 LIG-0.65  OA
ENDBRANCH 48 49
ENDBRANCH 47 48
ENDBRANCH 45 47
ENDBRANCH 43 45
ENDBRANCH 37 41
ENDBRANCH 35 37
ENDBRANCH 32 33
BRANCH 32 52
ATOM     52  CB  SER C 503      76.202  26.117 -14.864  1.00 49.05 LIG 0.20  C 
BRANCH 52 53
ATOM     53 OG   SER C 503      74.858  25.670 -14.844  1.00 54.59 LIG-0.40  OA
ATOM     54 HG   SER C 503      74.836  24.858 -14.630  1.00 54.59 LIG 0.21  HD
ENDBRANCH 52 53
ENDBRANCH 32 52
ENDBRANCH 1 32
TORSDOF 25
ENDMDL
MODEL 40
USER: ADFR SOLUTION from run 74
USER: SCORE 16.163095 LL:  -4.424 LR: -13.276 RR:   0.000 FEB:  -5.818
USER: RMSD 4.438164
USER: SEED 73
USER: STATUS no improvement in best in 8 clusters for 5 generations
USER: GENES 27
USER: genes 0 Translation |==|  0.42545 0.38065 0.47333
USER: genes 1 Rotation |==|  0.79661 0.19300 0.26347 0.60877
USER: genes 2 Torsion [C]-N--CA-[CB] |==|  0.18710
USER: genes 3 Torsion [N]-CA--C-[N] |==|  0.05177
USER: genes 4 Torsion [C]-N--CA-[C] |==|  0.53751
USER: genes 5 Torsion [N]-CA--CB-[OG] |==|  0.64976
USER: genes 6 Torsion [CA]-CB--OG-[HG] |==|  0.99501
USER: genes 7 Torsion [N]-CA--C-[N] |==|  0.54787
USER: genes 8 Torsion [C]-N--CA-[CB] |==|  0.40621
USER: genes 9 Torsion [N]-CA--C-[O] |==|  0.28592
USER: genes 10 Torsion [N]-CA--CB-[CG] |==|  0.99059
USER: genes 11 Torsion [CA]-CB--CG-[CD] |==|  0.22168
USER: genes 12 Torsion [CB]-CG--CD-[NE2] |==|  0.64476
USER: genes 13 Torsion [N]-CA--CB-[CG] |==|  0.57532
USER: genes 14 Torsion [CA]-CB--CG-[OD1] |==|  0.79635
USER: genes 15 Torsion [N]-C--CA-[N] |==|  0.83050
USER: genes 16 Torsion [C]-CA--N-[C] |==|  0.21247
USER: genes 17 Torsion [N]-C--CA-[N] |==|  0.94568
USER: genes 18 Torsion [C]-CA--CB-[OG] |==|  0.68745
USER: genes 19 Torsion [CA]-CB--OG-[HG] |==|  0.50623
USER: genes 20 Torsion [C]-CA--N-[C] |==|  0.76365
USER: genes 21 Torsion [N]-C--CA-[N] |==|  0.45638
USER: genes 22 Torsion [C]-CA--CB-[CG] |==|  0.74041
USER: genes 23 Torsion [CA]-CB--CG-[CD] |==|  0.48562
USER: genes 24 Torsion [CB]-CG--CD-[OE1] |==|  0.82141
USER: genes 25 Torsion [C]-CA--CB-[OG] |==|  0.50153
USER: genes 26 Torsion [CA]-CB--OG-[HG] |==|  0.81758
ROOT
ATOM      1  C   SER C 503      77.985  23.852 -15.044  1.00 42.27 LIG 0.24  C 
ATOM      2 O    SER C 503      77.478  22.735 -14.967  1.00 46.84 LIG-0.27  OA
ATOM      3  N   ASP C 504      79.112  24.099 -15.698  1.00 51.15 LIG-0.34  N 
ATOM      4 H    ASP C 504      79.416  24.892 -15.834  1.00 51.15 LIG 0.16  HD
ENDROOT
BRANCH 3 5
ATOM      5  CA  ASP C 504      79.954  23.040 -16.252  1.00 56.79 LIG 0.19  C 
BRANCH 5 6
ATOM      6  C   ASP C 504      81.293  23.621 -16.729  1.00 67.42 LIG 0.24  C 
ATOM      7  N   SER C 505      81.624  24.811 -16.238  1.00 81.52 LIG-0.34  N 
ATOM      8 H    SER C 505      81.131  25.256 -15.692  1.00 81.52 LIG 0.16  HD
ATOM      9 O    ASP C 504      82.010  23.000 -17.518  1.00 66.01 LIG-0.27  OA
BRANCH 7 10
ATOM     10  CA  SER C 505      82.877  25.475 -16.591  1.00 90.64 LIG 0.20  C 
BRANCH 10 11
ATOM     11  CB  SER C 505      82.839  25.962 -18.035  1.00 89.01 LIG 0.20  C 
BRANCH 11 12
ATOM     12 OG   SER C 505      83.955  25.467 -18.750  1.00 87.22 LIG-0.40  OA
ATOM     13 HG   SER C 505      84.441  25.017 -18.235  1.00 87.22 LIG 0.21  HD
ENDBRANCH 11 12
ENDBRANCH 10 11
BRANCH 10 14
ATOM     14  C   SER C 505      83.144  26.641 -15.644  1.00 98.93 LIG 0.24  C 
ATOM     15  N   GLN C 506      84.040  27.536 -16.051  1.00110.12 LIG-0.35  N 
ATOM     16 H    GLN C 506      84.352  27.575 -16.852  1.00110.12 LIG 0.16  HD
ATOM     17 O    SER C 505      82.542  26.733 -14.573  1.00 94.47 LIG-0.27  OA
BRANCH 15 18
ATOM     18  CA  GLN C 506      84.574  28.547 -15.146  1.00115.19 LIG 0.16  C 
BRANCH 18 19
ATOM     19  C   GLN C 506      83.749  29.833 -15.164  1.00118.66 LIG 0.22  C 
ATOM     20 O    GLN C 506      82.963  30.093 -14.252  1.00117.46 LIG-0.29  OA
ENDBRANCH 18 19
BRANCH 18 21
ATOM     21  CB  GLN C 506      86.034  28.840 -15.510  1.00118.15 LIG 0.04  C 
BRANCH 21 22
ATOM     22  CG  GLN C 506      86.573  27.960 -16.648  1.00119.48 LIG 0.10  C 
BRANCH 22 23
ATOM     23  CD  GLN C 506      86.153  28.427 -18.042  1.00116.76 LIG 0.21  C 
ATOM     24  NE2 GLN C 506      85.591  27.516 -18.830  1.00111.94 LIG-0.37  N 
ATOM     25 21HE GLN C 506      85.482  26.711 -18.547  1.00111.94 LIG 0.16  HD
ATOM     26 22HE GLN C 506      85.335  27.732 -19.622  1.00111.94 LIG 0.16  HD
ATOM     27 OE1  GLN C 506      86.329  29.592 -18.400  1.00116.06 LIG-0.27  OA
ENDBRANCH 22 23
ENDBRANCH 21 22
ENDBRANCH 18 21
ENDBRANCH 15 18
ENDBRANCH 10 14
ENDBRANCH 7 10
ENDBRANCH 5 6
BRANCH 5 28
ATOM     28  CB  ASP C 504      79.217  22.341 -17.409  1.00 57.84 LIG 0.15  C 
BRANCH 28 29
ATOM     29  CG  ASP C 504      79.653  20.894 -17.615  1.00 60.92 LIG 0.17  C 
ATOM     30 OD2  ASP C 504      78.865  19.983 -17.266  1.00 60.43 LIG-0.65  OA
ATOM     31 OD1  ASP C 504      80.771  20.664 -18.125  1.00 59.69 LIG-0.65  OA
ENDBRANCH 28 29
ENDBRANCH 5 28
ENDBRANCH 3 5
BRANCH 1 32
ATOM     32  CA  SER C 503      77.320  25.050 -14.391  1.00 44.19 LIG 0.20  C 
BRANCH 32 33
ATOM     33  N   SER C 503      78.203  25.652 -13.390  1.00 47.77 LIG-0.34  N 
ATOM     34 H    SER C 503      77.996  25.470 -12.575  1.00 47.77 LIG 0.16  HD
ATOM     35  C   SER C 502      79.235  26.415 -13.748  1.00 50.79 LIG 0.24  C 
ATOM     36 O    SER C 502      79.692  26.432 -14.882  1.00 48.58 LIG-0.27  OA
BRANCH 35 37
ATOM     37  CA  SER C 502      79.833  27.299 -12.668  1.00 60.54 LIG 0.20  C 
BRANCH 37 38
ATOM     38  CB  SER C 502      81.145  26.721 -12.166  1.00 53.64 LIG 0.20  C 
BRANCH 38 39
ATOM     39 OG   SER C 502      81.039  26.283 -10.831  1.00 59.09 LIG-0.40  OA
ATOM     40 HG   SER C 502      81.784  25.997 -10.570  1.00 59.09 LIG 0.21  HD
ENDBRANCH 38 39
ENDBRANCH 37 38
BRANCH 37 41
ATOM     41  N   SER C 502      78.848  27.449 -11.604  1.00 72.56 LIG-0.34  N 
ATOM     42 H    SER C 502      78.932  26.899 -10.949  1.00 72.56 LIG 0.16  HD
ATOM     43  C   GLU C 501      77.910  28.388 -11.689  1.00101.90 LIG 0.26  C 
ATOM     44 O    GLU C 501      78.025  29.367 -12.426  1.00103.22 LIG-0.27  OA
BRANCH 43 45
ATOM     45  CA  GLU C 501      76.668  28.221 -10.803  1.00101.55 LIG 0.40  C 
ATOM     46  N   GLU C 501      75.929  29.478 -10.727  1.00100.94 LIG 0.61  N 
BRANCH 45 47
ATOM     47  CB  GLU C 501      75.766  27.108 -11.342  1.00104.94 LIG 0.06  C 
BRANCH 47 48
ATOM     48  CG  GLU C 501      74.670  27.594 -12.274  1.00111.45 LIG 0.12  C 
BRANCH 48 49
ATOM     49  CD  GLU C 501      73.878  26.454 -12.884  1.00115.68 LIG 0.17  C 
ATOM     50 OE1  GLU C 501      74.466  25.658 -13.648  1.00117.56 LIG-0.65  OA
ATOM     51 OE2  GLU C 501      72.667  26.358 -12.595  1.00122.11 LIG-0.65  OA
ENDBRANCH 48 49
ENDBRANCH 47 48
ENDBRANCH 45 47
ENDBRANCH 43 45
ENDBRANCH 37 41
ENDBRANCH 35 37
ENDBRANCH 32 33
BRANCH 32 52
ATOM     52  CB  SER C 503      76.938  26.061 -15.464  1.00 49.05 LIG 0.20  C 
BRANCH 52 53
ATOM     53 OG   SER C 503      76.326  27.196 -14.878  1.00 54.59 LIG-0.40  OA
ATOM     54 HG   SER C 503      75.593  26.972 -14.532  1.00 54.59 LIG 0.21  HD
ENDBRANCH 52 53
ENDBRANCH 32 52
ENDBRANCH 1 32
TORSDOF 25
ENDMDL
MODEL 41
USER: ADFR SOLUTION from run 172
USER: SCORE 15.380811 LL:  -4.545 LR: -13.270 RR:   0.000 FEB:  -5.813
USER: RMSD 5.638830
USER: SEED 171
USER: STATUS no improvement in best in 8 clusters for 5 generations
USER: GENES 27
USER: genes 0 Translation |==|  0.42352 0.48706 0.67696
USER: genes 1 Rotation |==|  0.55483 0.46715 0.10087 0.79430
USER: genes 2 Torsion [C]-N--CA-[CB] |==|  0.44018
USER: genes 3 Torsion [N]-CA--C-[N] |==|  0.44155
USER: genes 4 Torsion [C]-N--CA-[C] |==|  0.18387
USER: genes 5 Torsion [N]-CA--CB-[OG] |==|  0.87474
USER: genes 6 Torsion [CA]-CB--OG-[HG] |==|  0.12252
USER: genes 7 Torsion [N]-CA--C-[N] |==|  0.57454
USER: genes 8 Torsion [C]-N--CA-[CB] |==|  0.79353
USER: genes 9 Torsion [N]-CA--C-[O] |==|  0.29054
USER: genes 10 Torsion [N]-CA--CB-[CG] |==|  0.46071
USER: genes 11 Torsion [CA]-CB--CG-[CD] |==|  0.42035
USER: genes 12 Torsion [CB]-CG--CD-[NE2] |==|  0.85109
USER: genes 13 Torsion [N]-CA--CB-[CG] |==|  0.54294
USER: genes 14 Torsion [CA]-CB--CG-[OD1] |==|  0.28699
USER: genes 15 Torsion [N]-C--CA-[N] |==|  0.94835
USER: genes 16 Torsion [C]-CA--N-[C] |==|  0.80248
USER: genes 17 Torsion [N]-C--CA-[N] |==|  0.05259
USER: genes 18 Torsion [C]-CA--CB-[OG] |==|  0.53808
USER: genes 19 Torsion [CA]-CB--OG-[HG] |==|  0.98775
USER: genes 20 Torsion [C]-CA--N-[C] |==|  0.59047
USER: genes 21 Torsion [N]-C--CA-[N] |==|  0.82207
USER: genes 22 Torsion [C]-CA--CB-[CG] |==|  0.41857
USER: genes 23 Torsion [CA]-CB--CG-[CD] |==|  0.00496
USER: genes 24 Torsion [CB]-CG--CD-[OE1] |==|  0.70177
USER: genes 25 Torsion [C]-CA--CB-[OG] |==|  0.41249
USER: genes 26 Torsion [CA]-CB--OG-[HG] |==|  0.40939
ROOT
ATOM      1  C   SER C 503      77.952  26.086 -11.226  1.00 42.27 LIG 0.24  C 
ATOM      2 O    SER C 503      78.089  24.866 -11.196  1.00 46.84 LIG-0.27  OA
ATOM      3  N   ASP C 504      77.080  26.704 -12.012  1.00 51.15 LIG-0.34  N 
ATOM      4 H    ASP C 504      76.915  27.547 -11.964  1.00 51.15 LIG 0.16  HD
ENDROOT
BRANCH 3 5
ATOM      5  CA  ASP C 504      76.310  26.008 -13.041  1.00 56.79 LIG 0.19  C 
BRANCH 5 6
ATOM      6  C   ASP C 504      77.178  25.775 -14.287  1.00 67.42 LIG 0.24  C 
ATOM      7  N   SER C 505      76.780  24.806 -15.106  1.00 81.52 LIG-0.34  N 
ATOM      8 H    SER C 505      76.088  24.316 -14.965  1.00 81.52 LIG 0.16  HD
ATOM      9 O    ASP C 504      78.179  26.462 -14.501  1.00 66.01 LIG-0.27  OA
BRANCH 7 10
ATOM     10  CA  SER C 505      77.500  24.487 -16.337  1.00 90.64 LIG 0.20  C 
BRANCH 10 11
ATOM     11  CB  SER C 505      77.619  25.720 -17.225  1.00 89.01 LIG 0.20  C 
BRANCH 11 12
ATOM     12 OG   SER C 505      76.380  26.400 -17.292  1.00 87.22 LIG-0.40  OA
ATOM     13 HG   SER C 505      76.045  26.448 -16.524  1.00 87.22 LIG 0.21  HD
ENDBRANCH 11 12
ENDBRANCH 10 11
BRANCH 10 14
ATOM     14  C   SER C 505      78.883  23.931 -16.013  1.00 98.93 LIG 0.24  C 
ATOM     15  N   GLN C 506      79.821  24.111 -16.939  1.00110.12 LIG-0.35  N 
ATOM     16 H    GLN C 506      79.735  24.634 -17.616  1.00110.12 LIG 0.16  HD
ATOM     17 O    SER C 505      79.098  23.362 -14.941  1.00 94.47 LIG-0.27  OA
BRANCH 15 18
ATOM     18  CA  GLN C 506      81.101  23.415 -16.874  1.00115.19 LIG 0.16  C 
BRANCH 18 19
ATOM     19  C   GLN C 506      80.932  21.916 -16.630  1.00118.66 LIG 0.22  C 
ATOM     20 O    GLN C 506      81.091  21.104 -17.544  1.00117.46 LIG-0.29  OA
ENDBRANCH 18 19
BRANCH 18 21
ATOM     21  CB  GLN C 506      81.970  24.042 -15.779  1.00118.15 LIG 0.04  C 
BRANCH 21 22
ATOM     22  CG  GLN C 506      83.184  23.185 -15.391  1.00119.48 LIG 0.10  C 
BRANCH 22 23
ATOM     23  CD  GLN C 506      84.376  23.997 -14.882  1.00116.76 LIG 0.21  C 
ATOM     24  NE2 GLN C 506      84.807  24.977 -15.669  1.00111.94 LIG-0.37  N 
ATOM     25 21HE GLN C 506      84.420  25.125 -16.423  1.00111.94 LIG 0.16  HD
ATOM     26 22HE GLN C 506      85.473  25.463 -15.425  1.00111.94 LIG 0.16  HD
ATOM     27 OE1  GLN C 506      84.896  23.745 -13.795  1.00116.06 LIG-0.27  OA
ENDBRANCH 22 23
ENDBRANCH 21 22
ENDBRANCH 18 21
ENDBRANCH 15 18
ENDBRANCH 10 14
ENDBRANCH 7 10
ENDBRANCH 5 6
BRANCH 5 28
ATOM     28  CB  ASP C 504      75.054  26.823 -13.394  1.00 57.84 LIG 0.15  C 
BRANCH 28 29
ATOM     29  CG  ASP C 504      74.011  26.022 -14.166  1.00 60.92 LIG 0.17  C 
ATOM     30 OD2  ASP C 504      74.215  25.805 -15.385  1.00 60.43 LIG-0.65  OA
ATOM     31 OD1  ASP C 504      72.997  25.608 -13.565  1.00 59.69 LIG-0.65  OA
ENDBRANCH 28 29
ENDBRANCH 5 28
ENDBRANCH 3 5
BRANCH 1 32
ATOM     32  CA  SER C 503      78.784  26.981 -10.326  1.00 44.19 LIG 0.20  C 
BRANCH 32 33
ATOM     33  N   SER C 503      78.770  28.363 -10.811  1.00 47.77 LIG-0.34  N 
ATOM     34 H    SER C 503      78.319  28.909 -10.323  1.00 47.77 LIG 0.16  HD
ATOM     35  C   SER C 502      79.415  28.712 -11.923  1.00 50.79 LIG 0.24  C 
ATOM     36 O    SER C 502      80.277  28.017 -12.442  1.00 48.58 LIG-0.27  OA
BRANCH 35 37
ATOM     37  CA  SER C 502      79.022  30.038 -12.549  1.00 60.54 LIG 0.20  C 
BRANCH 37 38
ATOM     38  CB  SER C 502      80.240  30.747 -13.117  1.00 53.64 LIG 0.20  C 
BRANCH 38 39
ATOM     39 OG   SER C 502      79.960  32.094 -13.418  1.00 59.09 LIG-0.40  OA
ATOM     40 HG   SER C 502      79.145  32.248 -13.283  1.00 59.09 LIG 0.21  HD
ENDBRANCH 38 39
ENDBRANCH 37 38
BRANCH 37 41
ATOM     41  N   SER C 502      78.337  30.835 -11.538  1.00 72.56 LIG-0.34  N 
ATOM     42 H    SER C 502      78.610  30.714 -10.731  1.00 72.56 LIG 0.16  HD
ATOM     43  C   GLU C 501      77.368  31.673 -11.892  1.00101.90 LIG 0.26  C 
ATOM     44 O    GLU C 501      77.247  32.090 -13.044  1.00103.22 LIG-0.27  OA
BRANCH 43 45
ATOM     45  CA  GLU C 501      76.403  32.135 -10.792  1.00101.55 LIG 0.40  C 
ATOM     46  N   GLU C 501      75.644  31.000 -10.275  1.00100.94 LIG 0.61  N 
BRANCH 45 47
ATOM     47  CB  GLU C 501      77.166  32.822  -9.657  1.00104.94 LIG 0.06  C 
BRANCH 47 48
ATOM     48  CG  GLU C 501      76.365  33.882  -8.922  1.00111.45 LIG 0.12  C 
BRANCH 48 49
ATOM     49  CD  GLU C 501      74.949  34.008  -9.446  1.00115.68 LIG 0.17  C 
ATOM     50 OE1  GLU C 501      74.648  35.014 -10.126  1.00117.56 LIG-0.65  OA
ATOM     51 OE2  GLU C 501      74.138  33.097  -9.177  1.00122.11 LIG-0.65  OA
ENDBRANCH 48 49
ENDBRANCH 47 48
ENDBRANCH 45 47
ENDBRANCH 43 45
ENDBRANCH 37 41
ENDBRANCH 35 37
ENDBRANCH 32 33
BRANCH 32 52
ATOM     52  CB  SER C 503      78.254  26.896  -8.901  1.00 49.05 LIG 0.20  C 
BRANCH 52 53
ATOM     53 OG   SER C 503      79.308  27.068  -7.970  1.00 54.59 LIG-0.40  OA
ATOM     54 HG   SER C 503      79.015  27.454  -7.283  1.00 54.59 LIG 0.21  HD
ENDBRANCH 52 53
ENDBRANCH 32 52
ENDBRANCH 1 32
TORSDOF 25
ENDMDL
MODEL 42
USER: ADFR SOLUTION from run 197
USER: SCORE 14.901872 LL:  -3.659 LR: -13.266 RR:   0.000 FEB:  -5.808
USER: RMSD 5.845888
USER: SEED 196
USER: STATUS no improvement in best in 3 clusters for 5 generations
USER: GENES 27
USER: genes 0 Translation |==|  0.64658 0.51676 0.50822
USER: genes 1 Rotation |==|  0.34100 0.67451 0.68459 0.90024
USER: genes 2 Torsion [C]-N--CA-[CB] |==|  0.88879
USER: genes 3 Torsion [N]-CA--C-[N] |==|  0.81667
USER: genes 4 Torsion [C]-N--CA-[C] |==|  0.69357
USER: genes 5 Torsion [N]-CA--CB-[OG] |==|  0.93830
USER: genes 6 Torsion [CA]-CB--OG-[HG] |==|  0.88210
USER: genes 7 Torsion [N]-CA--C-[N] |==|  0.82637
USER: genes 8 Torsion [C]-N--CA-[CB] |==|  0.19634
USER: genes 9 Torsion [N]-CA--C-[O] |==|  0.96165
USER: genes 10 Torsion [N]-CA--CB-[CG] |==|  0.35738
USER: genes 11 Torsion [CA]-CB--CG-[CD] |==|  0.21267
USER: genes 12 Torsion [CB]-CG--CD-[NE2] |==|  0.10426
USER: genes 13 Torsion [N]-CA--CB-[CG] |==|  0.65159
USER: genes 14 Torsion [CA]-CB--CG-[OD1] |==|  0.00734
USER: genes 15 Torsion [N]-C--CA-[N] |==|  0.70474
USER: genes 16 Torsion [C]-CA--N-[C] |==|  0.14533
USER: genes 17 Torsion [N]-C--CA-[N] |==|  0.94770
USER: genes 18 Torsion [C]-CA--CB-[OG] |==|  0.43312
USER: genes 19 Torsion [CA]-CB--OG-[HG] |==|  0.06019
USER: genes 20 Torsion [C]-CA--N-[C] |==|  0.79156
USER: genes 21 Torsion [N]-C--CA-[N] |==|  0.46797
USER: genes 22 Torsion [C]-CA--CB-[CG] |==|  0.29569
USER: genes 23 Torsion [CA]-CB--CG-[CD] |==|  0.58747
USER: genes 24 Torsion [CB]-CG--CD-[OE1] |==|  0.67932
USER: genes 25 Torsion [C]-CA--CB-[OG] |==|  0.55126
USER: genes 26 Torsion [CA]-CB--OG-[HG] |==|  0.82284
ROOT
ATOM      1  C   SER C 503      81.800  26.710 -14.390  1.00 42.27 LIG 0.24  C 
ATOM      2 O    SER C 503      81.946  27.404 -15.393  1.00 46.84 LIG-0.27  OA
ATOM      3  N   ASP C 504      82.446  25.569 -14.191  1.00 51.15 LIG-0.34  N 
ATOM      4 H    ASP C 504      82.419  25.133 -13.450  1.00 51.15 LIG 0.16  HD
ENDROOT
BRANCH 3 5
ATOM      5  CA  ASP C 504      83.273  24.939 -15.219  1.00 56.79 LIG 0.19  C 
BRANCH 5 6
ATOM      6  C   ASP C 504      84.669  25.579 -15.244  1.00 67.42 LIG 0.24  C 
ATOM      7  N   SER C 505      84.723  26.852 -15.622  1.00 81.52 LIG-0.34  N 
ATOM      8 H    SER C 505      84.034  27.311 -15.854  1.00 81.52 LIG 0.16  HD
ATOM      9 O    ASP C 504      85.669  24.933 -14.923  1.00 66.01 LIG-0.27  OA
BRANCH 7 10
ATOM     10  CA  SER C 505      85.981  27.592 -15.675  1.00 90.64 LIG 0.20  C 
BRANCH 10 11
ATOM     11  CB  SER C 505      86.167  28.241 -17.042  1.00 89.01 LIG 0.20  C 
BRANCH 11 12
ATOM     12 OG   SER C 505      85.388  27.571 -18.015  1.00 87.22 LIG-0.40  OA
ATOM     13 HG   SER C 505      85.447  26.742 -17.898  1.00 87.22 LIG 0.21  HD
ENDBRANCH 11 12
ENDBRANCH 10 11
BRANCH 10 14
ATOM     14  C   SER C 505      86.022  28.650 -14.576  1.00 98.93 LIG 0.24  C 
ATOM     15  N   GLN C 506      85.097  29.604 -14.643  1.00110.12 LIG-0.35  N 
ATOM     16 H    GLN C 506      84.412  29.574 -15.161  1.00110.12 LIG 0.16  HD
ATOM     17 O    SER C 505      86.866  28.595 -13.680  1.00 94.47 LIG-0.27  OA
BRANCH 15 18
ATOM     18  CA  GLN C 506      85.177  30.803 -13.818  1.00115.19 LIG 0.16  C 
BRANCH 18 19
ATOM     19  C   GLN C 506      83.865  31.586 -13.806  1.00118.66 LIG 0.22  C 
ATOM     20 O    GLN C 506      82.977  31.344 -14.626  1.00117.46 LIG-0.29  OA
ENDBRANCH 18 19
BRANCH 18 21
ATOM     21  CB  GLN C 506      86.326  31.689 -14.313  1.00118.15 LIG 0.04  C 
BRANCH 21 22
ATOM     22  CG  GLN C 506      85.913  33.148 -14.566  1.00119.48 LIG 0.10  C 
BRANCH 22 23
ATOM     23  CD  GLN C 506      85.757  33.975 -13.289  1.00116.76 LIG 0.21  C 
ATOM     24  NE2 GLN C 506      86.629  33.735 -12.315  1.00111.94 LIG-0.37  N 
ATOM     25 21HE GLN C 506      87.238  33.137 -12.421  1.00111.94 LIG 0.16  HD
ATOM     26 22HE GLN C 506      86.583  34.177 -11.579  1.00111.94 LIG 0.16  HD
ATOM     27 OE1  GLN C 506      84.868  34.820 -13.186  1.00116.06 LIG-0.27  OA
ENDBRANCH 22 23
ENDBRANCH 21 22
ENDBRANCH 18 21
ENDBRANCH 15 18
ENDBRANCH 10 14
ENDBRANCH 7 10
ENDBRANCH 5 6
BRANCH 5 28
ATOM     28  CB  ASP C 504      82.587  25.067 -16.590  1.00 57.84 LIG 0.15  C 
BRANCH 28 29
ATOM     29  CG  ASP C 504      82.399  23.729 -17.299  1.00 60.92 LIG 0.17  C 
ATOM     30 OD2  ASP C 504      81.897  23.734 -18.448  1.00 60.43 LIG-0.65  OA
ATOM     31 OD1  ASP C 504      82.752  22.680 -16.718  1.00 59.69 LIG-0.65  OA
ENDBRANCH 28 29
ENDBRANCH 5 28
ENDBRANCH 3 5
BRANCH 1 32
ATOM     32  CA  SER C 503      80.857  27.140 -13.281  1.00 44.19 LIG 0.20  C 
BRANCH 32 33
ATOM     33  N   SER C 503      79.461  26.945 -13.682  1.00 47.77 LIG-0.34  N 
ATOM     34 H    SER C 503      78.962  27.640 -13.590  1.00 47.77 LIG 0.16  HD
ATOM     35  C   SER C 502      79.033  25.773 -14.146  1.00 50.79 LIG 0.24  C 
ATOM     36 O    SER C 502      79.786  24.896 -14.544  1.00 48.58 LIG-0.27  OA
BRANCH 35 37
ATOM     37  CA  SER C 502      77.531  25.552 -14.154  1.00 60.54 LIG 0.20  C 
BRANCH 37 38
ATOM     38  CB  SER C 502      76.977  25.670 -15.564  1.00 53.64 LIG 0.20  C 
BRANCH 38 39
ATOM     39 OG   SER C 502      75.765  24.966 -15.703  1.00 59.09 LIG-0.40  OA
ATOM     40 HG   SER C 502      75.415  24.859 -14.947  1.00 59.09 LIG 0.21  HD
ENDBRANCH 38 39
ENDBRANCH 37 38
BRANCH 37 41
ATOM     41  N   SER C 502      76.924  26.509 -13.237  1.00 72.56 LIG-0.34  N 
ATOM     42 H    SER C 502      76.521  27.169 -13.612  1.00 72.56 LIG 0.16  HD
ATOM     43  C   GLU C 501      77.018  26.327 -11.923  1.00101.90 LIG 0.26  C 
ATOM     44 O    GLU C 501      77.270  25.228 -11.428  1.00103.22 LIG-0.27  OA
BRANCH 43 45
ATOM     45  CA  GLU C 501      76.771  27.547 -11.025  1.00101.55 LIG 0.40  C 
ATOM     46  N   GLU C 501      76.640  27.132  -9.632  1.00100.94 LIG 0.61  N 
BRANCH 45 47
ATOM     47  CB  GLU C 501      77.907  28.563 -11.170  1.00104.94 LIG 0.06  C 
BRANCH 47 48
ATOM     48  CG  GLU C 501      77.533  29.805 -11.959  1.00111.45 LIG 0.12  C 
BRANCH 48 49
ATOM     49  CD  GLU C 501      78.707  30.383 -12.724  1.00115.68 LIG 0.17  C 
ATOM     50 OE1  GLU C 501      79.125  31.520 -12.412  1.00117.56 LIG-0.65  OA
ATOM     51 OE2  GLU C 501      79.211  29.696 -13.637  1.00122.11 LIG-0.65  OA
ENDBRANCH 48 49
ENDBRANCH 47 48
ENDBRANCH 45 47
ENDBRANCH 43 45
ENDBRANCH 37 41
ENDBRANCH 35 37
ENDBRANCH 32 33
BRANCH 32 52
ATOM     52  CB  SER C 503      81.177  26.358 -12.015  1.00 49.05 LIG 0.20  C 
BRANCH 52 53
ATOM     53 OG   SER C 503      80.087  26.411 -11.112  1.00 54.59 LIG-0.40  OA
ATOM     54 HG   SER C 503      79.964  27.206 -10.867  1.00 54.59 LIG 0.21  HD
ENDBRANCH 52 53
ENDBRANCH 32 52
ENDBRANCH 1 32
TORSDOF 25
ENDMDL
MODEL 43
USER: ADFR SOLUTION from run 67
USER: SCORE 15.658992 LL:  -4.197 LR: -13.258 RR:   0.000 FEB:  -5.800
USER: RMSD 6.118359
USER: SEED 66
USER: STATUS no improvement in best in 8 clusters for 5 generations
USER: GENES 27
USER: genes 0 Translation |==|  0.52605 0.48661 0.44211
USER: genes 1 Rotation |==|  0.52112 0.12498 0.18761 0.60644
USER: genes 2 Torsion [C]-N--CA-[CB] |==|  0.77005
USER: genes 3 Torsion [N]-CA--C-[N] |==|  0.16420
USER: genes 4 Torsion [C]-N--CA-[C] |==|  0.20260
USER: genes 5 Torsion [N]-CA--CB-[OG] |==|  0.87104
USER: genes 6 Torsion [CA]-CB--OG-[HG] |==|  0.20177
USER: genes 7 Torsion [N]-CA--C-[N] |==|  0.78528
USER: genes 8 Torsion [C]-N--CA-[CB] |==|  0.79261
USER: genes 9 Torsion [N]-CA--C-[O] |==|  0.14009
USER: genes 10 Torsion [N]-CA--CB-[CG] |==|  0.70982
USER: genes 11 Torsion [CA]-CB--CG-[CD] |==|  0.56557
USER: genes 12 Torsion [CB]-CG--CD-[NE2] |==|  0.13132
USER: genes 13 Torsion [N]-CA--CB-[CG] |==|  0.75620
USER: genes 14 Torsion [CA]-CB--CG-[OD1] |==|  0.15868
USER: genes 15 Torsion [N]-C--CA-[N] |==|  0.88448
USER: genes 16 Torsion [C]-CA--N-[C] |==|  0.80336
USER: genes 17 Torsion [N]-C--CA-[N] |==|  0.23939
USER: genes 18 Torsion [C]-CA--CB-[OG] |==|  0.69523
USER: genes 19 Torsion [CA]-CB--OG-[HG] |==|  0.70605
USER: genes 20 Torsion [C]-CA--N-[C] |==|  0.80556
USER: genes 21 Torsion [N]-C--CA-[N] |==|  0.31251
USER: genes 22 Torsion [C]-CA--CB-[CG] |==|  0.26426
USER: genes 23 Torsion [CA]-CB--CG-[CD] |==|  0.17164
USER: genes 24 Torsion [CB]-CG--CD-[OE1] |==|  0.85241
USER: genes 25 Torsion [C]-CA--CB-[OG] |==|  0.58350
USER: genes 26 Torsion [CA]-CB--OG-[HG] |==|  0.97984
ROOT
ATOM      1  C   SER C 503      79.720  26.077 -15.629  1.00 42.27 LIG 0.24  C 
ATOM      2 O    SER C 503      78.795  25.836 -14.857  1.00 46.84 LIG-0.27  OA
ATOM      3  N   ASP C 504      79.930  25.401 -16.751  1.00 51.15 LIG-0.34  N 
ATOM      4 H    ASP C 504      80.515  25.629 -17.338  1.00 51.15 LIG 0.16  HD
ENDROOT
BRANCH 3 5
ATOM      5  CA  ASP C 504      79.180  24.195 -17.100  1.00 56.79 LIG 0.19  C 
BRANCH 5 6
ATOM      6  C   ASP C 504      77.704  24.355 -16.708  1.00 67.42 LIG 0.24  C 
ATOM      7  N   SER C 505      77.056  25.371 -17.269  1.00 81.52 LIG-0.34  N 
ATOM      8 H    SER C 505      77.420  25.927 -17.814  1.00 81.52 LIG 0.16  HD
ATOM      9 O    ASP C 504      77.167  23.572 -15.921  1.00 66.01 LIG-0.27  OA
BRANCH 7 10
ATOM     10  CA  SER C 505      75.644  25.632 -17.002  1.00 90.64 LIG 0.20  C 
BRANCH 10 11
ATOM     11  CB  SER C 505      74.820  24.360 -17.169  1.00 89.01 LIG 0.20  C 
BRANCH 11 12
ATOM     12 OG   SER C 505      75.176  23.697 -18.367  1.00 87.22 LIG-0.40  OA
ATOM     13 HG   SER C 505      75.932  23.345 -18.278  1.00 87.22 LIG 0.21  HD
ENDBRANCH 11 12
ENDBRANCH 10 11
BRANCH 10 14
ATOM     14  C   SER C 505      75.466  26.198 -15.596  1.00 98.93 LIG 0.24  C 
ATOM     15  N   GLN C 506      75.536  25.324 -14.596  1.00110.12 LIG-0.35  N 
ATOM     16 H    GLN C 506      75.816  24.515 -14.683  1.00110.12 LIG 0.16  HD
ATOM     17 O    SER C 505      75.282  27.404 -15.421  1.00 94.47 LIG-0.27  OA
BRANCH 15 18
ATOM     18  CA  GLN C 506      75.134  25.680 -13.241  1.00115.19 LIG 0.16  C 
BRANCH 18 19
ATOM     19  C   GLN C 506      73.769  26.366 -13.205  1.00118.66 LIG 0.22  C 
ATOM     20 O    GLN C 506      72.796  25.871 -13.777  1.00117.46 LIG-0.29  OA
ENDBRANCH 18 19
BRANCH 18 21
ATOM     21  CB  GLN C 506      76.202  26.577 -12.608  1.00118.15 LIG 0.04  C 
BRANCH 21 22
ATOM     22  CG  GLN C 506      77.083  25.853 -11.578  1.00119.48 LIG 0.10  C 
BRANCH 22 23
ATOM     23  CD  GLN C 506      77.732  26.787 -10.555  1.00116.76 LIG 0.21  C 
ATOM     24  NE2 GLN C 506      76.939  27.688  -9.986  1.00111.94 LIG-0.37  N 
ATOM     25 21HE GLN C 506      76.107  27.726 -10.201  1.00111.94 LIG 0.16  HD
ATOM     26 22HE GLN C 506      77.257  28.234  -9.403  1.00111.94 LIG 0.16  HD
ATOM     27 OE1  GLN C 506      78.928  26.692 -10.281  1.00116.06 LIG-0.27  OA
ENDBRANCH 22 23
ENDBRANCH 21 22
ENDBRANCH 18 21
ENDBRANCH 15 18
ENDBRANCH 10 14
ENDBRANCH 7 10
ENDBRANCH 5 6
BRANCH 5 28
ATOM     28  CB  ASP C 504      79.804  22.974 -16.400  1.00 57.84 LIG 0.15  C 
BRANCH 28 29
ATOM     29  CG  ASP C 504      80.924  22.324 -17.204  1.00 60.92 LIG 0.17  C 
ATOM     30 OD2  ASP C 504      80.814  21.110 -17.501  1.00 60.43 LIG-0.65  OA
ATOM     31 OD1  ASP C 504      81.909  23.016 -17.542  1.00 59.69 LIG-0.65  OA
ENDBRANCH 28 29
ENDBRANCH 5 28
ENDBRANCH 3 5
BRANCH 1 32
ATOM     32  CA  SER C 503      80.693  27.206 -15.343  1.00 44.19 LIG 0.20  C 
BRANCH 32 33
ATOM     33  N   SER C 503      82.064  26.804 -15.666  1.00 47.77 LIG-0.34  N 
ATOM     34 H    SER C 503      82.396  27.188 -16.361  1.00 47.77 LIG 0.16  HD
ATOM     35  C   SER C 502      82.717  25.912 -14.922  1.00 50.79 LIG 0.24  C 
ATOM     36 O    SER C 502      82.363  25.595 -13.796  1.00 48.58 LIG-0.27  OA
BRANCH 35 37
ATOM     37  CA  SER C 502      83.945  25.275 -15.546  1.00 60.54 LIG 0.20  C 
BRANCH 37 38
ATOM     38  CB  SER C 502      84.153  23.868 -15.010  1.00 53.64 LIG 0.20  C 
BRANCH 38 39
ATOM     39 OG   SER C 502      85.281  23.799 -14.169  1.00 59.09 LIG-0.40  OA
ATOM     40 HG   SER C 502      85.907  23.410 -14.571  1.00 59.09 LIG 0.21  HD
ENDBRANCH 38 39
ENDBRANCH 37 38
BRANCH 37 41
ATOM     41  N   SER C 502      85.089  26.142 -15.291  1.00 72.56 LIG-0.34  N 
ATOM     42 H    SER C 502      85.665  25.831 -14.733  1.00 72.56 LIG 0.16  HD
ATOM     43  C   GLU C 501      85.186  27.318 -15.903  1.00101.90 LIG 0.26  C 
ATOM     44 O    GLU C 501      84.564  27.576 -16.935  1.00103.22 LIG-0.27  OA
BRANCH 43 45
ATOM     45  CA  GLU C 501      86.132  28.356 -15.285  1.00101.55 LIG 0.40  C 
ATOM     46  N   GLU C 501      87.271  28.591 -16.168  1.00100.94 LIG 0.61  N 
BRANCH 45 47
ATOM     47  CB  GLU C 501      85.393  29.669 -15.014  1.00104.94 LIG 0.06  C 
BRANCH 47 48
ATOM     48  CG  GLU C 501      84.864  29.803 -13.597  1.00111.45 LIG 0.12  C 
BRANCH 48 49
ATOM     49  CD  GLU C 501      85.970  29.785 -12.561  1.00115.68 LIG 0.17  C 
ATOM     50 OE1  GLU C 501      86.787  28.838 -12.572  1.00117.56 LIG-0.65  OA
ATOM     51 OE2  GLU C 501      86.019  30.721 -11.736  1.00122.11 LIG-0.65  OA
ENDBRANCH 48 49
ENDBRANCH 47 48
ENDBRANCH 45 47
ENDBRANCH 43 45
ENDBRANCH 37 41
ENDBRANCH 35 37
ENDBRANCH 32 33
BRANCH 32 52
ATOM     52  CB  SER C 503      80.283  28.438 -16.138  1.00 49.05 LIG 0.20  C 
BRANCH 52 53
ATOM     53 OG   SER C 503      81.420  29.218 -16.463  1.00 54.59 LIG-0.40  OA
ATOM     54 HG   SER C 503      82.096  28.906 -16.072  1.00 54.59 LIG 0.21  HD
ENDBRANCH 52 53
ENDBRANCH 32 52
ENDBRANCH 1 32
TORSDOF 25
ENDMDL
MODEL 44
USER: ADFR SOLUTION from run 99
USER: SCORE 15.959659 LL:  -3.997 LR: -13.235 RR:   0.000 FEB:  -5.778
USER: RMSD 4.812259
USER: SEED 98
USER: STATUS searching
USER: GENES 27
USER: genes 0 Translation |==|  0.43145 0.41288 0.49596
USER: genes 1 Rotation |==|  0.87087 0.24911 0.28146 0.54176
USER: genes 2 Torsion [C]-N--CA-[CB] |==|  0.21589
USER: genes 3 Torsion [N]-CA--C-[N] |==|  0.48333
USER: genes 4 Torsion [C]-N--CA-[C] |==|  0.78666
USER: genes 5 Torsion [N]-CA--CB-[OG] |==|  0.84904
USER: genes 6 Torsion [CA]-CB--OG-[HG] |==|  0.15549
USER: genes 7 Torsion [N]-CA--C-[N] |==|  0.45527
USER: genes 8 Torsion [C]-N--CA-[CB] |==|  0.25520
USER: genes 9 Torsion [N]-CA--C-[O] |==|  0.34751
USER: genes 10 Torsion [N]-CA--CB-[CG] |==|  0.06289
USER: genes 11 Torsion [CA]-CB--CG-[CD] |==|  0.23061
USER: genes 12 Torsion [CB]-CG--CD-[NE2] |==|  0.24962
USER: genes 13 Torsion [N]-CA--CB-[CG] |==|  0.56355
USER: genes 14 Torsion [CA]-CB--CG-[OD1] |==|  0.71567
USER: genes 15 Torsion [N]-C--CA-[N] |==|  0.93130
USER: genes 16 Torsion [C]-CA--N-[C] |==|  0.76753
USER: genes 17 Torsion [N]-C--CA-[N] |==|  0.20487
USER: genes 18 Torsion [C]-CA--CB-[OG] |==|  0.77705
USER: genes 19 Torsion [CA]-CB--OG-[HG] |==|  0.21361
USER: genes 20 Torsion [C]-CA--N-[C] |==|  0.77170
USER: genes 21 Torsion [N]-C--CA-[N] |==|  0.95373
USER: genes 22 Torsion [C]-CA--CB-[CG] |==|  0.43823
USER: genes 23 Torsion [CA]-CB--CG-[CD] |==|  0.15877
USER: genes 24 Torsion [CB]-CG--CD-[OE1] |==|  0.78723
USER: genes 25 Torsion [C]-CA--CB-[OG] |==|  0.36000
USER: genes 26 Torsion [CA]-CB--OG-[HG] |==|  0.86659
ROOT
ATOM      1  C   SER C 503      78.089  24.528 -14.620  1.00 42.27 LIG 0.24  C 
ATOM      2 O    SER C 503      77.865  23.378 -14.988  1.00 46.84 LIG-0.27  OA
ATOM      3  N   ASP C 504      79.253  25.138 -14.795  1.00 51.15 LIG-0.34  N 
ATOM      4 H    ASP C 504      79.381  25.972 -14.627  1.00 51.15 LIG 0.16  HD
ENDROOT
BRANCH 3 5
ATOM      5  CA  ASP C 504      80.441  24.447 -15.295  1.00 56.79 LIG 0.19  C 
BRANCH 5 6
ATOM      6  C   ASP C 504      81.708  25.233 -14.928  1.00 67.42 LIG 0.24  C 
ATOM      7  N   SER C 505      82.865  24.648 -15.218  1.00 81.52 LIG-0.34  N 
ATOM      8 H    SER C 505      82.930  23.871 -15.580  1.00 81.52 LIG 0.16  HD
ATOM      9 O    ASP C 504      81.634  26.345 -14.400  1.00 66.01 LIG-0.27  OA
BRANCH 7 10
ATOM     10  CA  SER C 505      84.149  25.288 -14.940  1.00 90.64 LIG 0.20  C 
BRANCH 10 11
ATOM     11  CB  SER C 505      85.272  24.257 -14.918  1.00 89.01 LIG 0.20  C 
BRANCH 11 12
ATOM     12 OG   SER C 505      84.968  23.217 -14.009  1.00 87.22 LIG-0.40  OA
ATOM     13 HG   SER C 505      84.227  22.876 -14.210  1.00 87.22 LIG 0.21  HD
ENDBRANCH 11 12
ENDBRANCH 10 11
BRANCH 10 14
ATOM     14  C   SER C 505      84.440  26.367 -15.979  1.00 98.93 LIG 0.24  C 
ATOM     15  N   GLN C 506      85.391  27.242 -15.668  1.00110.12 LIG-0.35  N 
ATOM     16 H    GLN C 506      85.935  27.148 -15.008  1.00110.12 LIG 0.16  HD
ATOM     17 O    SER C 505      83.822  26.397 -17.045  1.00 94.47 LIG-0.27  OA
BRANCH 15 18
ATOM     18  CA  GLN C 506      85.590  28.461 -16.444  1.00115.19 LIG 0.16  C 
BRANCH 18 19
ATOM     19  C   GLN C 506      87.065  28.851 -16.539  1.00118.66 LIG 0.22  C 
ATOM     20 O    GLN C 506      87.604  29.026 -17.634  1.00117.46 LIG-0.29  OA
ENDBRANCH 18 19
BRANCH 18 21
ATOM     21  CB  GLN C 506      84.772  29.600 -15.828  1.00118.15 LIG 0.04  C 
BRANCH 21 22
ATOM     22  CG  GLN C 506      84.430  29.381 -14.346  1.00119.48 LIG 0.10  C 
BRANCH 22 23
ATOM     23  CD  GLN C 506      85.549  29.788 -13.387  1.00116.76 LIG 0.21  C 
ATOM     24  NE2 GLN C 506      85.535  31.046 -12.958  1.00111.94 LIG-0.37  N 
ATOM     25 21HE GLN C 506      84.919  31.584 -13.223  1.00111.94 LIG 0.16  HD
ATOM     26 22HE GLN C 506      86.142  31.322 -12.415  1.00111.94 LIG 0.16  HD
ATOM     27 OE1  GLN C 506      86.409  28.980 -13.037  1.00116.06 LIG-0.27  OA
ENDBRANCH 22 23
ENDBRANCH 21 22
ENDBRANCH 18 21
ENDBRANCH 15 18
ENDBRANCH 10 14
ENDBRANCH 7 10
ENDBRANCH 5 6
BRANCH 5 28
ATOM     28  CB  ASP C 504      80.334  24.263 -16.820  1.00 57.84 LIG 0.15  C 
BRANCH 28 29
ATOM     29  CG  ASP C 504      81.190  23.119 -17.351  1.00 60.92 LIG 0.17  C 
ATOM     30 OD2  ASP C 504      80.772  21.946 -17.200  1.00 60.43 LIG-0.65  OA
ATOM     31 OD1  ASP C 504      82.272  23.384 -17.919  1.00 59.69 LIG-0.65  OA
ENDBRANCH 28 29
ENDBRANCH 5 28
ENDBRANCH 3 5
BRANCH 1 32
ATOM     32  CA  SER C 503      77.007  25.347 -13.940  1.00 44.19 LIG 0.20  C 
BRANCH 32 33
ATOM     33  N   SER C 503      77.597  26.399 -13.108  1.00 47.77 LIG-0.34  N 
ATOM     34 H    SER C 503      77.650  27.168 -13.489  1.00 47.77 LIG 0.16  HD
ATOM     35  C   SER C 502      78.010  26.149 -11.866  1.00 50.79 LIG 0.24  C 
ATOM     36 O    SER C 502      77.674  25.155 -11.238  1.00 48.58 LIG-0.27  OA
BRANCH 35 37
ATOM     37  CA  SER C 502      78.949  27.167 -11.244  1.00 60.54 LIG 0.20  C 
BRANCH 37 38
ATOM     38  CB  SER C 502      79.664  26.574 -10.042  1.00 53.64 LIG 0.20  C 
BRANCH 38 39
ATOM     39 OG   SER C 502      78.846  26.590  -8.895  1.00 59.09 LIG-0.40  OA
ATOM     40 HG   SER C 502      78.281  25.972  -8.945  1.00 59.09 LIG 0.21  HD
ENDBRANCH 38 39
ENDBRANCH 37 38
BRANCH 37 41
ATOM     41  N   SER C 502      78.173  28.353 -10.900  1.00 72.56 LIG-0.34  N 
ATOM     42 H    SER C 502      77.925  28.401 -10.079  1.00 72.56 LIG 0.16  HD
ATOM     43  C   GLU C 501      77.899  29.264 -11.829  1.00101.90 LIG 0.26  C 
ATOM     44 O    GLU C 501      78.550  29.358 -12.870  1.00103.22 LIG-0.27  OA
BRANCH 43 45
ATOM     45  CA  GLU C 501      76.741  30.230 -11.545  1.00101.55 LIG 0.40  C 
ATOM     46  N   GLU C 501      75.904  29.713 -10.467  1.00100.94 LIG 0.61  N 
BRANCH 45 47
ATOM     47  CB  GLU C 501      77.274  31.619 -11.181  1.00104.94 LIG 0.06  C 
BRANCH 47 48
ATOM     48  CG  GLU C 501      76.277  32.743 -11.401  1.00111.45 LIG 0.12  C 
BRANCH 48 49
ATOM     49  CD  GLU C 501      74.987  32.534 -10.633  1.00115.68 LIG 0.17  C 
ATOM     50 OE1  GLU C 501      74.157  31.706 -11.069  1.00117.56 LIG-0.65  OA
ATOM     51 OE2  GLU C 501      74.807  33.201  -9.592  1.00122.11 LIG-0.65  OA
ENDBRANCH 48 49
ENDBRANCH 47 48
ENDBRANCH 45 47
ENDBRANCH 43 45
ENDBRANCH 37 41
ENDBRANCH 35 37
ENDBRANCH 32 33
BRANCH 32 52
ATOM     52  CB  SER C 503      76.083  25.939 -14.995  1.00 49.05 LIG 0.20  C 
BRANCH 52 53
ATOM     53 OG   SER C 503      74.730  25.668 -14.676  1.00 54.59 LIG-0.40  OA
ATOM     54 HG   SER C 503      74.644  24.855 -14.482  1.00 54.59 LIG 0.21  HD
ENDBRANCH 52 53
ENDBRANCH 32 52
ENDBRANCH 1 32
TORSDOF 25
ENDMDL
MODEL 45
USER: ADFR SOLUTION from run 149
USER: SCORE 16.198185 LL:  -4.687 LR: -13.226 RR:   0.000 FEB:  -5.768
USER: RMSD 8.464473
USER: SEED 148
USER: STATUS searching
USER: GENES 27
USER: genes 0 Translation |==|  0.58847 0.59234 0.48374
USER: genes 1 Rotation |==|  0.25753 0.80814 0.18975 0.50056
USER: genes 2 Torsion [C]-N--CA-[CB] |==|  0.79426
USER: genes 3 Torsion [N]-CA--C-[N] |==|  0.59681
USER: genes 4 Torsion [C]-N--CA-[C] |==|  0.74995
USER: genes 5 Torsion [N]-CA--CB-[OG] |==|  0.74233
USER: genes 6 Torsion [CA]-CB--OG-[HG] |==|  0.43252
USER: genes 7 Torsion [N]-CA--C-[N] |==|  0.04444
USER: genes 8 Torsion [C]-N--CA-[CB] |==|  0.29221
USER: genes 9 Torsion [N]-CA--C-[O] |==|  0.05726
USER: genes 10 Torsion [N]-CA--CB-[CG] |==|  0.59363
USER: genes 11 Torsion [CA]-CB--CG-[CD] |==|  0.32597
USER: genes 12 Torsion [CB]-CG--CD-[NE2] |==|  0.96296
USER: genes 13 Torsion [N]-CA--CB-[CG] |==|  0.87004
USER: genes 14 Torsion [CA]-CB--CG-[OD1] |==|  0.21795
USER: genes 15 Torsion [N]-C--CA-[N] |==|  0.21519
USER: genes 16 Torsion [C]-CA--N-[C] |==|  0.76893
USER: genes 17 Torsion [N]-C--CA-[N] |==|  0.02358
USER: genes 18 Torsion [C]-CA--CB-[OG] |==|  0.34674
USER: genes 19 Torsion [CA]-CB--OG-[HG] |==|  0.27849
USER: genes 20 Torsion [C]-CA--N-[C] |==|  0.64336
USER: genes 21 Torsion [N]-C--CA-[N] |==|  0.48069
USER: genes 22 Torsion [C]-CA--CB-[CG] |==|  0.36766
USER: genes 23 Torsion [CA]-CB--CG-[CD] |==|  0.18092
USER: genes 24 Torsion [CB]-CG--CD-[OE1] |==|  0.94524
USER: genes 25 Torsion [C]-CA--CB-[OG] |==|  0.78100
USER: genes 26 Torsion [CA]-CB--OG-[HG] |==|  0.17741
ROOT
ATOM      1  C   SER C 503      80.797  28.297 -14.849  1.00 42.27 LIG 0.24  C 
ATOM      2 O    SER C 503      79.920  27.486 -14.561  1.00 46.84 LIG-0.27  OA
ATOM      3  N   ASP C 504      81.304  29.163 -13.981  1.00 51.15 LIG-0.34  N 
ATOM      4 H    ASP C 504      81.982  29.663 -14.153  1.00 51.15 LIG 0.16  HD
ENDROOT
BRANCH 3 5
ATOM      5  CA  ASP C 504      80.754  29.353 -12.640  1.00 56.79 LIG 0.19  C 
BRANCH 5 6
ATOM      6  C   ASP C 504      80.545  27.994 -11.954  1.00 67.42 LIG 0.24  C 
ATOM      7  N   SER C 505      79.490  27.900 -11.151  1.00 81.52 LIG-0.34  N 
ATOM      8 H    SER C 505      78.946  28.548 -10.998  1.00 81.52 LIG 0.16  HD
ATOM      9 O    ASP C 504      81.319  27.056 -12.155  1.00 66.01 LIG-0.27  OA
BRANCH 7 10
ATOM     10  CA  SER C 505      79.159  26.663 -10.448  1.00 90.64 LIG 0.20  C 
BRANCH 10 11
ATOM     11  CB  SER C 505      78.512  26.965  -9.101  1.00 89.01 LIG 0.20  C 
BRANCH 11 12
ATOM     12 OG   SER C 505      79.492  27.007  -8.082  1.00 87.22 LIG-0.40  OA
ATOM     13 HG   SER C 505      79.214  27.479  -7.445  1.00 87.22 LIG 0.21  HD
ENDBRANCH 11 12
ENDBRANCH 10 11
BRANCH 10 14
ATOM     14  C   SER C 505      78.233  25.800 -11.300  1.00 98.93 LIG 0.24  C 
ATOM     15  N   GLN C 506      78.155  26.115 -12.589  1.00110.12 LIG-0.35  N 
ATOM     16 H    GLN C 506      78.691  26.659 -12.985  1.00110.12 LIG 0.16  HD
ATOM     17 O    SER C 505      77.612  24.859 -10.800  1.00 94.47 LIG-0.27  OA
BRANCH 15 18
ATOM     18  CA  GLN C 506      77.127  25.546 -13.453  1.00115.19 LIG 0.16  C 
BRANCH 18 19
ATOM     19  C   GLN C 506      77.706  25.003 -14.759  1.00118.66 LIG 0.22  C 
ATOM     20 O    GLN C 506      78.901  24.719 -14.852  1.00117.46 LIG-0.29  OA
ENDBRANCH 18 19
BRANCH 18 21
ATOM     21  CB  GLN C 506      76.056  26.603 -13.739  1.00118.15 LIG 0.04  C 
BRANCH 21 22
ATOM     22  CG  GLN C 506      74.641  26.022 -13.884  1.00119.48 LIG 0.10  C 
BRANCH 22 23
ATOM     23  CD  GLN C 506      73.657  26.523 -12.826  1.00116.76 LIG 0.21  C 
ATOM     24  NE2 GLN C 506      74.179  27.154 -11.779  1.00111.94 LIG-0.37  N 
ATOM     25 21HE GLN C 506      75.031  27.260 -11.723  1.00111.94 LIG 0.16  HD
ATOM     26 22HE GLN C 506      73.666  27.456 -11.160  1.00111.94 LIG 0.16  HD
ATOM     27 OE1  GLN C 506      72.445  26.347 -12.954  1.00116.06 LIG-0.27  OA
ENDBRANCH 22 23
ENDBRANCH 21 22
ENDBRANCH 18 21
ENDBRANCH 15 18
ENDBRANCH 10 14
ENDBRANCH 7 10
ENDBRANCH 5 6
BRANCH 5 28
ATOM     28  CB  ASP C 504      79.430  30.133 -12.725  1.00 57.84 LIG 0.15  C 
BRANCH 28 29
ATOM     29  CG  ASP C 504      79.509  31.360 -13.626  1.00 60.92 LIG 0.17  C 
ATOM     30 OD2  ASP C 504      79.632  32.485 -13.085  1.00 60.43 LIG-0.65  OA
ATOM     31 OD1  ASP C 504      79.453  31.207 -14.865  1.00 59.69 LIG-0.65  OA
ENDBRANCH 28 29
ENDBRANCH 5 28
ENDBRANCH 3 5
BRANCH 1 32
ATOM     32  CA  SER C 503      81.380  28.343 -16.249  1.00 44.19 LIG 0.20  C 
BRANCH 32 33
ATOM     33  N   SER C 503      82.686  27.680 -16.290  1.00 47.77 LIG-0.34  N 
ATOM     34 H    SER C 503      82.664  26.863 -16.557  1.00 47.77 LIG 0.16  HD
ATOM     35  C   SER C 502      83.798  28.322 -15.934  1.00 50.79 LIG 0.24  C 
ATOM     36 O    SER C 502      83.866  29.539 -15.840  1.00 48.58 LIG-0.27  OA
BRANCH 35 37
ATOM     37  CA  SER C 502      85.012  27.461 -15.630  1.00 60.54 LIG 0.20  C 
BRANCH 37 38
ATOM     38  CB  SER C 502      86.242  27.995 -16.345  1.00 53.64 LIG 0.20  C 
BRANCH 38 39
ATOM     39 OG   SER C 502      87.296  28.242 -15.443  1.00 59.09 LIG-0.40  OA
ATOM     40 HG   SER C 502      87.843  27.606 -15.471  1.00 59.09 LIG 0.21  HD
ENDBRANCH 38 39
ENDBRANCH 37 38
BRANCH 37 41
ATOM     41  N   SER C 502      84.703  26.087 -16.006  1.00 72.56 LIG-0.34  N 
ATOM     42 H    SER C 502      84.400  25.986 -16.805  1.00 72.56 LIG 0.16  HD
ATOM     43  C   GLU C 501      84.894  25.098 -15.138  1.00101.90 LIG 0.26  C 
ATOM     44 O    GLU C 501      85.644  25.210 -14.168  1.00103.22 LIG-0.27  OA
BRANCH 43 45
ATOM     45  CA  GLU C 501      84.157  23.779 -15.404  1.00101.55 LIG 0.40  C 
ATOM     46  N   GLU C 501      84.598  22.754 -14.463  1.00100.94 LIG 0.61  N 
BRANCH 45 47
ATOM     47  CB  GLU C 501      82.642  23.976 -15.298  1.00104.94 LIG 0.06  C 
BRANCH 47 48
ATOM     48  CG  GLU C 501      81.856  23.376 -16.451  1.00111.45 LIG 0.12  C 
BRANCH 48 49
ATOM     49  CD  GLU C 501      81.958  21.865 -16.500  1.00115.68 LIG 0.17  C 
ATOM     50 OE1  GLU C 501      82.905  21.309 -15.901  1.00117.56 LIG-0.65  OA
ATOM     51 OE2  GLU C 501      81.089  21.236 -17.138  1.00122.11 LIG-0.65  OA
ENDBRANCH 48 49
ENDBRANCH 47 48
ENDBRANCH 45 47
ENDBRANCH 43 45
ENDBRANCH 37 41
ENDBRANCH 35 37
ENDBRANCH 32 33
BRANCH 32 52
ATOM     52  CB  SER C 503      80.407  27.692 -17.222  1.00 49.05 LIG 0.20  C 
BRANCH 52 53
ATOM     53 OG   SER C 503      80.499  26.281 -17.145  1.00 54.59 LIG-0.40  OA
ATOM     54 HG   SER C 503      80.262  26.026 -16.379  1.00 54.59 LIG 0.21  HD
ENDBRANCH 52 53
ENDBRANCH 32 52
ENDBRANCH 1 32
TORSDOF 25
ENDMDL
MODEL 46
USER: ADFR SOLUTION from run 163
USER: SCORE 16.674925 LL:  -4.158 LR: -13.223 RR:   0.000 FEB:  -5.766
USER: RMSD 6.829199
USER: SEED 162
USER: STATUS no improvement in best in 4 clusters for 5 generations
USER: GENES 27
USER: genes 0 Translation |==|  0.45346 0.54859 0.60474
USER: genes 1 Rotation |==|  0.08207 0.60789 0.73400 0.59454
USER: genes 2 Torsion [C]-N--CA-[CB] |==|  0.86402
USER: genes 3 Torsion [N]-CA--C-[N] |==|  0.40145
USER: genes 4 Torsion [C]-N--CA-[C] |==|  0.67920
USER: genes 5 Torsion [N]-CA--CB-[OG] |==|  0.13119
USER: genes 6 Torsion [CA]-CB--OG-[HG] |==|  0.65061
USER: genes 7 Torsion [N]-CA--C-[N] |==|  0.97348
USER: genes 8 Torsion [C]-N--CA-[CB] |==|  0.30857
USER: genes 9 Torsion [N]-CA--C-[O] |==|  0.69337
USER: genes 10 Torsion [N]-CA--CB-[CG] |==|  0.89831
USER: genes 11 Torsion [CA]-CB--CG-[CD] |==|  0.30970
USER: genes 12 Torsion [CB]-CG--CD-[NE2] |==|  0.50126
USER: genes 13 Torsion [N]-CA--CB-[CG] |==|  0.30097
USER: genes 14 Torsion [CA]-CB--CG-[OD1] |==|  0.21788
USER: genes 15 Torsion [N]-C--CA-[N] |==|  0.47035
USER: genes 16 Torsion [C]-CA--N-[C] |==|  0.80385
USER: genes 17 Torsion [N]-C--CA-[N] |==|  0.87222
USER: genes 18 Torsion [C]-CA--CB-[OG] |==|  0.80369
USER: genes 19 Torsion [CA]-CB--OG-[HG] |==|  0.85925
USER: genes 20 Torsion [C]-CA--N-[C] |==|  0.82235
USER: genes 21 Torsion [N]-C--CA-[N] |==|  0.98280
USER: genes 22 Torsion [C]-CA--CB-[CG] |==|  0.39995
USER: genes 23 Torsion [CA]-CB--CG-[CD] |==|  0.34195
USER: genes 24 Torsion [CB]-CG--CD-[OE1] |==|  0.88934
USER: genes 25 Torsion [C]-CA--CB-[OG] |==|  0.80589
USER: genes 26 Torsion [CA]-CB--OG-[HG] |==|  0.44449
ROOT
ATOM      1  C   SER C 503      78.468  27.378 -12.580  1.00 42.27 LIG 0.24  C 
ATOM      2 O    SER C 503      78.710  26.769 -13.619  1.00 46.84 LIG-0.27  OA
ATOM      3  N   ASP C 504      79.364  28.121 -11.944  1.00 51.15 LIG-0.34  N 
ATOM      4 H    ASP C 504      79.171  28.624 -11.274  1.00 51.15 LIG 0.16  HD
ENDROOT
BRANCH 3 5
ATOM      5  CA  ASP C 504      80.776  28.156 -12.323  1.00 56.79 LIG 0.19  C 
BRANCH 5 6
ATOM      6  C   ASP C 504      80.956  28.950 -13.625  1.00 67.42 LIG 0.24  C 
ATOM      7  N   SER C 505      82.067  29.675 -13.720  1.00 81.52 LIG-0.34  N 
ATOM      8 H    SER C 505      82.661  29.722 -13.101  1.00 81.52 LIG 0.16  HD
ATOM      9 O    ASP C 504      80.111  28.901 -14.522  1.00 66.01 LIG-0.27  OA
BRANCH 7 10
ATOM     10  CA  SER C 505      82.378  30.465 -14.909  1.00 90.64 LIG 0.20  C 
BRANCH 10 11
ATOM     11  CB  SER C 505      82.562  31.934 -14.546  1.00 89.01 LIG 0.20  C 
BRANCH 11 12
ATOM     12 OG   SER C 505      83.408  32.061 -13.419  1.00 87.22 LIG-0.40  OA
ATOM     13 HG   SER C 505      83.021  32.514 -12.828  1.00 87.22 LIG 0.21  HD
ENDBRANCH 11 12
ENDBRANCH 10 11
BRANCH 10 14
ATOM     14  C   SER C 505      83.632  29.927 -15.592  1.00 98.93 LIG 0.24  C 
ATOM     15  N   GLN C 506      84.319  29.008 -14.920  1.00110.12 LIG-0.35  N 
ATOM     16 H    GLN C 506      84.027  28.605 -14.219  1.00110.12 LIG 0.16  HD
ATOM     17 O    SER C 505      83.961  30.327 -16.710  1.00 94.47 LIG-0.27  OA
BRANCH 15 18
ATOM     18  CA  GLN C 506      85.657  28.602 -15.334  1.00115.19 LIG 0.16  C 
BRANCH 18 19
ATOM     19  C   GLN C 506      85.770  27.090 -15.524  1.00118.66 LIG 0.22  C 
ATOM     20 O    GLN C 506      86.435  26.402 -14.746  1.00117.46 LIG-0.29  OA
ENDBRANCH 18 19
BRANCH 18 21
ATOM     21  CB  GLN C 506      86.682  29.092 -14.305  1.00118.15 LIG 0.04  C 
BRANCH 21 22
ATOM     22  CG  GLN C 506      86.347  30.468 -13.709  1.00119.48 LIG 0.10  C 
BRANCH 22 23
ATOM     23  CD  GLN C 506      85.957  30.422 -12.232  1.00116.76 LIG 0.21  C 
ATOM     24  NE2 GLN C 506      85.647  31.583 -11.663  1.00111.94 LIG-0.37  N 
ATOM     25 21HE GLN C 506      85.675  32.308 -12.124  1.00111.94 LIG 0.16  HD
ATOM     26 22HE GLN C 506      85.419  31.608 -10.834  1.00111.94 LIG 0.16  HD
ATOM     27 OE1  GLN C 506      85.933  29.357 -11.615  1.00116.06 LIG-0.27  OA
ENDBRANCH 22 23
ENDBRANCH 21 22
ENDBRANCH 18 21
ENDBRANCH 15 18
ENDBRANCH 10 14
ENDBRANCH 7 10
ENDBRANCH 5 6
BRANCH 5 28
ATOM     28  CB  ASP C 504      81.310  26.721 -12.478  1.00 57.84 LIG 0.15  C 
BRANCH 28 29
ATOM     29  CG  ASP C 504      81.571  26.328 -13.928  1.00 60.92 LIG 0.17  C 
ATOM     30 OD2  ASP C 504      80.723  25.608 -14.508  1.00 60.43 LIG-0.65  OA
ATOM     31 OD1  ASP C 504      82.612  26.733 -14.489  1.00 59.69 LIG-0.65  OA
ENDBRANCH 28 29
ENDBRANCH 5 28
ENDBRANCH 3 5
BRANCH 1 32
ATOM     32  CA  SER C 503      77.085  27.329 -11.958  1.00 44.19 LIG 0.20  C 
BRANCH 32 33
ATOM     33  N   SER C 503      76.128  26.697 -12.869  1.00 47.77 LIG-0.34  N 
ATOM     34 H    SER C 503      75.861  25.917 -12.623  1.00 47.77 LIG 0.16  HD
ATOM     35  C   SER C 502      75.725  27.308 -13.982  1.00 50.79 LIG 0.24  C 
ATOM     36 O    SER C 502      75.873  28.506 -14.177  1.00 48.58 LIG-0.27  OA
BRANCH 35 37
ATOM     37  CA  SER C 502      75.066  26.436 -15.036  1.00 60.54 LIG 0.20  C 
BRANCH 37 38
ATOM     38  CB  SER C 502      73.631  26.121 -14.653  1.00 53.64 LIG 0.20  C 
BRANCH 38 39
ATOM     39 OG   SER C 502      73.572  25.233 -13.560  1.00 59.09 LIG-0.40  OA
ATOM     40 HG   SER C 502      74.062  24.569 -13.712  1.00 59.09 LIG 0.21  HD
ENDBRANCH 38 39
ENDBRANCH 37 38
BRANCH 37 41
ATOM     41  N   SER C 502      75.874  25.234 -15.204  1.00 72.56 LIG-0.34  N 
ATOM     42 H    SER C 502      75.484  24.499 -14.986  1.00 72.56 LIG 0.16  HD
ATOM     43  C   GLU C 501      77.117  25.324 -15.667  1.00101.90 LIG 0.26  C 
ATOM     44 O    GLU C 501      77.516  26.304 -16.297  1.00103.22 LIG-0.27  OA
BRANCH 43 45
ATOM     45  CA  GLU C 501      78.050  24.134 -15.407  1.00101.55 LIG 0.40  C 
ATOM     46  N   GLU C 501      77.396  23.156 -14.544  1.00100.94 LIG 0.61  N 
BRANCH 45 47
ATOM     47  CB  GLU C 501      78.469  23.478 -16.727  1.00104.94 LIG 0.06  C 
BRANCH 47 48
ATOM     48  CG  GLU C 501      79.896  22.961 -16.737  1.00111.45 LIG 0.12  C 
BRANCH 48 49
ATOM     49  CD  GLU C 501      79.976  21.483 -17.063  1.00115.68 LIG 0.17  C 
ATOM     50 OE1  GLU C 501      79.117  20.715 -16.576  1.00117.56 LIG-0.65  OA
ATOM     51 OE2  GLU C 501      80.900  21.093 -17.808  1.00122.11 LIG-0.65  OA
ENDBRANCH 48 49
ENDBRANCH 47 48
ENDBRANCH 45 47
ENDBRANCH 43 45
ENDBRANCH 37 41
ENDBRANCH 35 37
ENDBRANCH 32 33
BRANCH 32 52
ATOM     52  CB  SER C 503      77.154  26.583 -10.633  1.00 49.05 LIG 0.20  C 
BRANCH 52 53
ATOM     53 OG   SER C 503      77.396  25.205 -10.854  1.00 54.59 LIG-0.40  OA
ATOM     54 HG   SER C 503      77.700  24.857 -10.151  1.00 54.59 LIG 0.21  HD
ENDBRANCH 52 53
ENDBRANCH 32 52
ENDBRANCH 1 32
TORSDOF 25
ENDMDL
MODEL 47
USER: ADFR SOLUTION from run 198
USER: SCORE 15.104414 LL:  -3.492 LR: -13.202 RR:   0.000 FEB:  -5.744
USER: RMSD 6.692371
USER: SEED 197
USER: STATUS no improvement in best in 15 clusters for 5 generations
USER: GENES 27
USER: genes 0 Translation |==|  0.70364 0.36912 0.41007
USER: genes 1 Rotation |==|  0.46367 0.58975 0.10593 0.79212
USER: genes 2 Torsion [C]-N--CA-[CB] |==|  0.15883
USER: genes 3 Torsion [N]-CA--C-[N] |==|  0.66200
USER: genes 4 Torsion [C]-N--CA-[C] |==|  0.62945
USER: genes 5 Torsion [N]-CA--CB-[OG] |==|  0.07746
USER: genes 6 Torsion [CA]-CB--OG-[HG] |==|  0.21952
USER: genes 7 Torsion [N]-CA--C-[N] |==|  0.48128
USER: genes 8 Torsion [C]-N--CA-[CB] |==|  0.20134
USER: genes 9 Torsion [N]-CA--C-[O] |==|  0.21013
USER: genes 10 Torsion [N]-CA--CB-[CG] |==|  0.74029
USER: genes 11 Torsion [CA]-CB--CG-[CD] |==|  0.60647
USER: genes 12 Torsion [CB]-CG--CD-[NE2] |==|  0.12400
USER: genes 13 Torsion [N]-CA--CB-[CG] |==|  0.65625
USER: genes 14 Torsion [CA]-CB--CG-[OD1] |==|  0.61999
USER: genes 15 Torsion [N]-C--CA-[N] |==|  0.93321
USER: genes 16 Torsion [C]-CA--N-[C] |==|  0.21376
USER: genes 17 Torsion [N]-C--CA-[N] |==|  0.97141
USER: genes 18 Torsion [C]-CA--CB-[OG] |==|  0.56856
USER: genes 19 Torsion [CA]-CB--OG-[HG] |==|  0.89145
USER: genes 20 Torsion [C]-CA--N-[C] |==|  0.75991
USER: genes 21 Torsion [N]-C--CA-[N] |==|  0.02712
USER: genes 22 Torsion [C]-CA--CB-[CG] |==|  0.87240
USER: genes 23 Torsion [CA]-CB--CG-[CD] |==|  0.83647
USER: genes 24 Torsion [CB]-CG--CD-[OE1] |==|  0.73773
USER: genes 25 Torsion [C]-CA--CB-[OG] |==|  0.39432
USER: genes 26 Torsion [CA]-CB--OG-[HG] |==|  0.43983
ROOT
ATOM      1  C   SER C 503      82.784  23.610 -16.230  1.00 42.27 LIG 0.24  C 
ATOM      2 O    SER C 503      82.893  22.415 -16.498  1.00 46.84 LIG-0.27  OA
ATOM      3  N   ASP C 504      81.634  24.269 -16.286  1.00 51.15 LIG-0.34  N 
ATOM      4 H    ASP C 504      81.538  25.076 -16.007  1.00 51.15 LIG 0.16  HD
ENDROOT
BRANCH 3 5
ATOM      5  CA  ASP C 504      80.411  23.682 -16.832  1.00 56.79 LIG 0.19  C 
BRANCH 5 6
ATOM      6  C   ASP C 504      79.255  24.688 -16.746  1.00 67.42 LIG 0.24  C 
ATOM      7  N   SER C 505      78.188  24.298 -16.055  1.00 81.52 LIG-0.34  N 
ATOM      8 H    SER C 505      78.119  23.529 -15.677  1.00 81.52 LIG 0.16  HD
ATOM      9 O    ASP C 504      79.332  25.792 -17.290  1.00 66.01 LIG-0.27  OA
BRANCH 7 10
ATOM     10  CA  SER C 505      77.022  25.160 -15.877  1.00 90.64 LIG 0.20  C 
BRANCH 10 11
ATOM     11  CB  SER C 505      75.877  24.710 -16.778  1.00 89.01 LIG 0.20  C 
BRANCH 11 12
ATOM     12 OG   SER C 505      75.968  23.322 -17.033  1.00 87.22 LIG-0.40  OA
ATOM     13 HG   SER C 505      75.674  22.896 -16.373  1.00 87.22 LIG 0.21  HD
ENDBRANCH 11 12
ENDBRANCH 10 11
BRANCH 10 14
ATOM     14  C   SER C 505      76.579  25.158 -14.416  1.00 98.93 LIG 0.24  C 
ATOM     15  N   GLN C 506      75.612  26.012 -14.093  1.00110.12 LIG-0.35  N 
ATOM     16 H    GLN C 506      75.137  26.440 -14.668  1.00110.12 LIG 0.16  HD
ATOM     17 O    SER C 505      77.095  24.389 -13.603  1.00 94.47 LIG-0.27  OA
BRANCH 15 18
ATOM     18  CA  GLN C 506      75.277  26.295 -12.703  1.00115.19 LIG 0.16  C 
BRANCH 18 19
ATOM     19  C   GLN C 506      73.921  26.986 -12.564  1.00118.66 LIG 0.22  C 
ATOM     20 O    GLN C 506      72.872  26.353 -12.692  1.00117.46 LIG-0.29  OA
ENDBRANCH 18 19
BRANCH 18 21
ATOM     21  CB  GLN C 506      76.382  27.149 -12.072  1.00118.15 LIG 0.04  C 
BRANCH 21 22
ATOM     22  CG  GLN C 506      77.456  26.326 -11.345  1.00119.48 LIG 0.10  C 
BRANCH 22 23
ATOM     23  CD  GLN C 506      77.958  26.971 -10.053  1.00116.76 LIG 0.21  C 
ATOM     24  NE2 GLN C 506      77.033  27.476  -9.242  1.00111.94 LIG-0.37  N 
ATOM     25 21HE GLN C 506      76.202  27.432  -9.459  1.00111.94 LIG 0.16  HD
ATOM     26 22HE GLN C 506      77.266  27.846  -8.502  1.00111.94 LIG 0.16  HD
ATOM     27 OE1  GLN C 506      79.160  27.008  -9.788  1.00116.06 LIG-0.27  OA
ENDBRANCH 22 23
ENDBRANCH 21 22
ENDBRANCH 18 21
ENDBRANCH 15 18
ENDBRANCH 10 14
ENDBRANCH 7 10
ENDBRANCH 5 6
BRANCH 5 28
ATOM     28  CB  ASP C 504      80.069  22.388 -16.071  1.00 57.84 LIG 0.15  C 
BRANCH 28 29
ATOM     29  CG  ASP C 504      79.939  21.170 -16.978  1.00 60.92 LIG 0.17  C 
ATOM     30 OD2  ASP C 504      80.794  21.012 -17.882  1.00 60.43 LIG-0.65  OA
ATOM     31 OD1  ASP C 504      78.995  20.373 -16.792  1.00 59.69 LIG-0.65  OA
ENDBRANCH 28 29
ENDBRANCH 5 28
ENDBRANCH 3 5
BRANCH 1 32
ATOM     32  CA  SER C 503      83.991  24.417 -15.790  1.00 44.19 LIG 0.20  C 
BRANCH 32 33
ATOM     33  N   SER C 503      83.785  25.843 -16.053  1.00 47.77 LIG-0.34  N 
ATOM     34 H    SER C 503      84.203  26.144 -16.742  1.00 47.77 LIG 0.16  HD
ATOM     35  C   SER C 502      83.007  26.586 -15.267  1.00 50.79 LIG 0.24  C 
ATOM     36 O    SER C 502      82.201  26.109 -14.481  1.00 48.58 LIG-0.27  OA
BRANCH 35 37
ATOM     37  CA  SER C 502      83.171  28.092 -15.376  1.00 60.54 LIG 0.20  C 
BRANCH 37 38
ATOM     38  CB  SER C 502      81.919  28.728 -15.955  1.00 53.64 LIG 0.20  C 
BRANCH 38 39
ATOM     39 OG   SER C 502      82.206  29.960 -16.575  1.00 59.09 LIG-0.40  OA
ATOM     40 HG   SER C 502      82.777  30.376 -16.122  1.00 59.09 LIG 0.21  HD
ENDBRANCH 38 39
ENDBRANCH 37 38
BRANCH 37 41
ATOM     41  N   SER C 502      84.356  28.365 -16.179  1.00 72.56 LIG-0.34  N 
ATOM     42 H    SER C 502      84.209  28.483 -17.018  1.00 72.56 LIG 0.16  HD
ATOM     43  C   GLU C 501      85.555  28.419 -15.606  1.00101.90 LIG 0.26  C 
ATOM     44 O    GLU C 501      85.698  28.607 -14.397  1.00103.22 LIG-0.27  OA
BRANCH 43 45
ATOM     45  CA  GLU C 501      86.777  28.262 -16.519  1.00101.55 LIG 0.40  C 
ATOM     46  N   GLU C 501      86.372  28.308 -17.921  1.00100.94 LIG 0.61  N 
BRANCH 45 47
ATOM     47  CB  GLU C 501      87.810  29.356 -16.232  1.00104.94 LIG 0.06  C 
BRANCH 47 48
ATOM     48  CG  GLU C 501      87.221  30.750 -16.113  1.00111.45 LIG 0.12  C 
BRANCH 48 49
ATOM     49  CD  GLU C 501      86.488  31.180 -17.368  1.00115.68 LIG 0.17  C 
ATOM     50 OE1  GLU C 501      87.108  31.850 -18.224  1.00117.56 LIG-0.65  OA
ATOM     51 OE2  GLU C 501      85.292  30.846 -17.495  1.00122.11 LIG-0.65  OA
ENDBRANCH 48 49
ENDBRANCH 47 48
ENDBRANCH 45 47
ENDBRANCH 43 45
ENDBRANCH 37 41
ENDBRANCH 35 37
ENDBRANCH 32 33
BRANCH 32 52
ATOM     52  CB  SER C 503      84.254  24.166 -14.311  1.00 49.05 LIG 0.20  C 
BRANCH 52 53
ATOM     53 OG   SER C 503      85.646  24.108 -14.059  1.00 54.59 LIG-0.40  OA
ATOM     54 HG   SER C 503      85.791  24.266 -13.247  1.00 54.59 LIG 0.21  HD
ENDBRANCH 52 53
ENDBRANCH 32 52
ENDBRANCH 1 32
TORSDOF 25
ENDMDL
MODEL 48
USER: ADFR SOLUTION from run 30
USER: SCORE 15.736997 LL:  -5.431 LR: -13.196 RR:   0.000 FEB:  -5.738
USER: RMSD 6.308392
USER: SEED 29
USER: STATUS no improvement in best in 15 clusters for 5 generations
USER: GENES 27
USER: genes 0 Translation |==|  0.39708 0.47163 0.68359
USER: genes 1 Rotation |==|  0.51733 0.47117 0.06190 0.73862
USER: genes 2 Torsion [C]-N--CA-[CB] |==|  0.40219
USER: genes 3 Torsion [N]-CA--C-[N] |==|  0.48330
USER: genes 4 Torsion [C]-N--CA-[C] |==|  0.16982
USER: genes 5 Torsion [N]-CA--CB-[OG] |==|  0.23843
USER: genes 6 Torsion [CA]-CB--OG-[HG] |==|  0.12507
USER: genes 7 Torsion [N]-CA--C-[N] |==|  0.05272
USER: genes 8 Torsion [C]-N--CA-[CB] |==|  0.80102
USER: genes 9 Torsion [N]-CA--C-[O] |==|  0.12444
USER: genes 10 Torsion [N]-CA--CB-[CG] |==|  0.43190
USER: genes 11 Torsion [CA]-CB--CG-[CD] |==|  0.64913
USER: genes 12 Torsion [CB]-CG--CD-[NE2] |==|  0.10694
USER: genes 13 Torsion [N]-CA--CB-[CG] |==|  0.58767
USER: genes 14 Torsion [CA]-CB--CG-[OD1] |==|  0.80781
USER: genes 15 Torsion [N]-C--CA-[N] |==|  0.87323
USER: genes 16 Torsion [C]-CA--N-[C] |==|  0.73333
USER: genes 17 Torsion [N]-C--CA-[N] |==|  0.65466
USER: genes 18 Torsion [C]-CA--CB-[OG] |==|  0.38068
USER: genes 19 Torsion [CA]-CB--OG-[HG] |==|  0.08973
USER: genes 20 Torsion [C]-CA--N-[C] |==|  0.66599
USER: genes 21 Torsion [N]-C--CA-[N] |==|  0.29515
USER: genes 22 Torsion [C]-CA--CB-[CG] |==|  0.34101
USER: genes 23 Torsion [CA]-CB--CG-[CD] |==|  0.17295
USER: genes 24 Torsion [CB]-CG--CD-[OE1] |==|  0.99140
USER: genes 25 Torsion [C]-CA--CB-[OG] |==|  0.36175
USER: genes 26 Torsion [CA]-CB--OG-[HG] |==|  0.47230
ROOT
ATOM      1  C   SER C 503      77.496  25.762 -11.102  1.00 42.27 LIG 0.24  C 
ATOM      2 O    SER C 503      77.299  24.552 -11.018  1.00 46.84 LIG-0.27  OA
ATOM      3  N   ASP C 504      76.726  26.580 -11.808  1.00 51.15 LIG-0.34  N 
ATOM      4 H    ASP C 504      76.804  27.436 -11.790  1.00 51.15 LIG 0.16  HD
ENDROOT
BRANCH 3 5
ATOM      5  CA  ASP C 504      75.664  26.101 -12.691  1.00 56.79 LIG 0.19  C 
BRANCH 5 6
ATOM      6  C   ASP C 504      76.198  25.932 -14.121  1.00 67.42 LIG 0.24  C 
ATOM      7  N   SER C 505      75.362  25.384 -14.997  1.00 81.52 LIG-0.34  N 
ATOM      8 H    SER C 505      74.568  25.120 -14.800  1.00 81.52 LIG 0.16  HD
ATOM      9 O    ASP C 504      77.338  26.296 -14.421  1.00 66.01 LIG-0.27  OA
BRANCH 7 10
ATOM     10  CA  SER C 505      75.731  25.179 -16.396  1.00 90.64 LIG 0.20  C 
BRANCH 10 11
ATOM     11  CB  SER C 505      76.037  26.510 -17.073  1.00 89.01 LIG 0.20  C 
BRANCH 11 12
ATOM     12 OG   SER C 505      77.387  26.874 -16.858  1.00 87.22 LIG-0.40  OA
ATOM     13 HG   SER C 505      77.880  26.206 -16.986  1.00 87.22 LIG 0.21  HD
ENDBRANCH 11 12
ENDBRANCH 10 11
BRANCH 10 14
ATOM     14  C   SER C 505      76.933  24.245 -16.497  1.00 98.93 LIG 0.24  C 
ATOM     15  N   GLN C 506      77.185  23.492 -15.430  1.00110.12 LIG-0.35  N 
ATOM     16 H    GLN C 506      76.641  23.394 -14.771  1.00110.12 LIG 0.16  HD
ATOM     17 O    SER C 505      77.611  24.199 -17.526  1.00 94.47 LIG-0.27  OA
BRANCH 15 18
ATOM     18  CA  GLN C 506      78.435  22.754 -15.294  1.00115.19 LIG 0.16  C 
BRANCH 18 19
ATOM     19  C   GLN C 506      79.658  23.644 -15.512  1.00118.66 LIG 0.22  C 
ATOM     20 O    GLN C 506      79.729  24.761 -14.994  1.00117.46 LIG-0.29  OA
ENDBRANCH 18 19
BRANCH 18 21
ATOM     21  CB  GLN C 506      78.446  21.578 -16.276  1.00118.15 LIG 0.04  C 
BRANCH 21 22
ATOM     22  CG  GLN C 506      79.858  21.108 -16.658  1.00119.48 LIG 0.10  C 
BRANCH 22 23
ATOM     23  CD  GLN C 506      80.105  21.058 -18.166  1.00116.76 LIG 0.21  C 
ATOM     24  NE2 GLN C 506      79.570  22.037 -18.889  1.00111.94 LIG-0.37  N 
ATOM     25 21HE GLN C 506      79.111  22.654 -18.504  1.00111.94 LIG 0.16  HD
ATOM     26 22HE GLN C 506      79.684  22.054 -19.741  1.00111.94 LIG 0.16  HD
ATOM     27 OE1  GLN C 506      80.771  20.153 -18.669  1.00116.06 LIG-0.27  OA
ENDBRANCH 22 23
ENDBRANCH 21 22
ENDBRANCH 18 21
ENDBRANCH 15 18
ENDBRANCH 10 14
ENDBRANCH 7 10
ENDBRANCH 5 6
BRANCH 5 28
ATOM     28  CB  ASP C 504      74.479  27.083 -12.662  1.00 57.84 LIG 0.15  C 
BRANCH 28 29
ATOM     29  CG  ASP C 504      73.129  26.406 -12.867  1.00 60.92 LIG 0.17  C 
ATOM     30 OD2  ASP C 504      72.337  26.358 -11.896  1.00 60.43 LIG-0.65  OA
ATOM     31 OD1  ASP C 504      72.854  25.927 -13.988  1.00 59.69 LIG-0.65  OA
ENDBRANCH 28 29
ENDBRANCH 5 28
ENDBRANCH 3 5
BRANCH 1 32
ATOM     32  CA  SER C 503      78.654  26.411 -10.366  1.00 44.19 LIG 0.20  C 
BRANCH 32 33
ATOM     33  N   SER C 503      79.361  27.352 -11.238  1.00 47.77 LIG-0.34  N 
ATOM     34 H    SER C 503      79.011  28.137 -11.275  1.00 47.77 LIG 0.16  HD
ATOM     35  C   SER C 502      80.455  26.988 -11.905  1.00 50.79 LIG 0.24  C 
ATOM     36 O    SER C 502      81.104  25.989 -11.631  1.00 48.58 LIG-0.27  OA
BRANCH 35 37
ATOM     37  CA  SER C 502      80.873  27.879 -13.061  1.00 60.54 LIG 0.20  C 
BRANCH 37 38
ATOM     38  CB  SER C 502      79.904  29.037 -13.227  1.00 53.64 LIG 0.20  C 
BRANCH 38 39
ATOM     39 OG   SER C 502      80.582  30.248 -13.466  1.00 59.09 LIG-0.40  OA
ATOM     40 HG   SER C 502      81.287  30.094 -13.896  1.00 59.09 LIG 0.21  HD
ENDBRANCH 38 39
ENDBRANCH 37 38
BRANCH 37 41
ATOM     41  N   SER C 502      80.967  27.056 -14.261  1.00 72.56 LIG-0.34  N 
ATOM     42 H    SER C 502      80.239  26.661 -14.490  1.00 72.56 LIG 0.16  HD
ATOM     43  C   GLU C 501      82.120  26.958 -14.916  1.00101.90 LIG 0.26  C 
ATOM     44 O    GLU C 501      83.021  27.788 -14.789  1.00103.22 LIG-0.27  OA
BRANCH 43 45
ATOM     45  CA  GLU C 501      82.286  25.769 -15.871  1.00101.55 LIG 0.40  C 
ATOM     46  N   GLU C 501      82.197  26.218 -17.258  1.00100.94 LIG 0.61  N 
BRANCH 45 47
ATOM     47  CB  GLU C 501      83.624  25.064 -15.629  1.00104.94 LIG 0.06  C 
BRANCH 47 48
ATOM     48  CG  GLU C 501      83.496  23.589 -15.294  1.00111.45 LIG 0.12  C 
BRANCH 48 49
ATOM     49  CD  GLU C 501      82.870  22.790 -16.419  1.00115.68 LIG 0.17  C 
ATOM     50 OE1  GLU C 501      82.480  23.397 -17.441  1.00117.56 LIG-0.65  OA
ATOM     51 OE2  GLU C 501      82.769  21.553 -16.278  1.00122.11 LIG-0.65  OA
ENDBRANCH 48 49
ENDBRANCH 47 48
ENDBRANCH 45 47
ENDBRANCH 43 45
ENDBRANCH 37 41
ENDBRANCH 35 37
ENDBRANCH 32 33
BRANCH 32 52
ATOM     52  CB  SER C 503      78.131  27.108  -9.118  1.00 49.05 LIG 0.20  C 
BRANCH 52 53
ATOM     53 OG   SER C 503      78.896  26.734  -7.986  1.00 54.59 LIG-0.40  OA
ATOM     54 HG   SER C 503      78.690  27.223  -7.334  1.00 54.59 LIG 0.21  HD
ENDBRANCH 52 53
ENDBRANCH 32 52
ENDBRANCH 1 32
TORSDOF 25
ENDMDL
MODEL 49
USER: ADFR SOLUTION from run 194
USER: SCORE 16.002542 LL:  -4.957 LR: -13.196 RR:   0.000 FEB:  -5.738
USER: RMSD 5.774246
USER: SEED 193
USER: STATUS no improvement in best in 3 clusters for 5 generations
USER: GENES 27
USER: genes 0 Translation |==|  0.59162 0.39547 0.36168
USER: genes 1 Rotation |==|  0.54611 0.56247 0.23065 0.91403
USER: genes 2 Torsion [C]-N--CA-[CB] |==|  0.18108
USER: genes 3 Torsion [N]-CA--C-[N] |==|  0.89861
USER: genes 4 Torsion [C]-N--CA-[C] |==|  0.63052
USER: genes 5 Torsion [N]-CA--CB-[OG] |==|  0.95195
USER: genes 6 Torsion [CA]-CB--OG-[HG] |==|  0.85255
USER: genes 7 Torsion [N]-CA--C-[N] |==|  0.77855
USER: genes 8 Torsion [C]-N--CA-[CB] |==|  0.43468
USER: genes 9 Torsion [N]-CA--C-[O] |==|  0.66693
USER: genes 10 Torsion [N]-CA--CB-[CG] |==|  0.53572
USER: genes 11 Torsion [CA]-CB--CG-[CD] |==|  0.64415
USER: genes 12 Torsion [CB]-CG--CD-[NE2] |==|  0.24666
USER: genes 13 Torsion [N]-CA--CB-[CG] |==|  0.66839
USER: genes 14 Torsion [CA]-CB--CG-[OD1] |==|  0.96201
USER: genes 15 Torsion [N]-C--CA-[N] |==|  0.17026
USER: genes 16 Torsion [C]-CA--N-[C] |==|  0.74460
USER: genes 17 Torsion [N]-C--CA-[N] |==|  0.31991
USER: genes 18 Torsion [C]-CA--CB-[OG] |==|  0.19401
USER: genes 19 Torsion [CA]-CB--OG-[HG] |==|  0.39132
USER: genes 20 Torsion [C]-CA--N-[C] |==|  0.57778
USER: genes 21 Torsion [N]-C--CA-[N] |==|  0.35341
USER: genes 22 Torsion [C]-CA--CB-[CG] |==|  0.25364
USER: genes 23 Torsion [CA]-CB--CG-[CD] |==|  0.91207
USER: genes 24 Torsion [CB]-CG--CD-[OE1] |==|  0.71926
USER: genes 25 Torsion [C]-CA--CB-[OG] |==|  0.53240
USER: genes 26 Torsion [CA]-CB--OG-[HG] |==|  0.16279
ROOT
ATOM      1  C   SER C 503      80.851  24.163 -17.137  1.00 42.27 LIG 0.24  C 
ATOM      2 O    SER C 503      81.746  23.380 -17.450  1.00 46.84 LIG-0.27  OA
ATOM      3  N   ASP C 504      79.613  24.080 -17.605  1.00 51.15 LIG-0.34  N 
ATOM      4 H    ASP C 504      78.965  24.565 -17.315  1.00 51.15 LIG 0.16  HD
ENDROOT
BRANCH 3 5
ATOM      5  CA  ASP C 504      79.229  23.152 -18.667  1.00 56.79 LIG 0.19  C 
BRANCH 5 6
ATOM      6  C   ASP C 504      77.785  23.425 -19.115  1.00 67.42 LIG 0.24  C 
ATOM      7  N   SER C 505      76.933  23.784 -18.159  1.00 81.52 LIG-0.34  N 
ATOM      8 H    SER C 505      77.148  23.856 -17.330  1.00 81.52 LIG 0.16  HD
ATOM      9 O    ASP C 504      77.457  23.319 -20.299  1.00 66.01 LIG-0.27  OA
BRANCH 7 10
ATOM     10  CA  SER C 505      75.534  24.092 -18.444  1.00 90.64 LIG 0.20  C 
BRANCH 10 11
ATOM     11  CB  SER C 505      74.630  22.947 -18.001  1.00 89.01 LIG 0.20  C 
BRANCH 11 12
ATOM     12 OG   SER C 505      75.387  21.767 -17.810  1.00 87.22 LIG-0.40  OA
ATOM     13 HG   SER C 505      75.836  21.608 -18.501  1.00 87.22 LIG 0.21  HD
ENDBRANCH 11 12
ENDBRANCH 10 11
BRANCH 10 14
ATOM     14  C   SER C 505      75.125  25.389 -17.754  1.00 98.93 LIG 0.24  C 
ATOM     15  N   GLN C 506      74.836  25.301 -16.458  1.00110.12 LIG-0.35  N 
ATOM     16 H    GLN C 506      75.006  24.611 -15.973  1.00110.12 LIG 0.16  HD
ATOM     17 O    SER C 505      75.084  26.450 -18.379  1.00 94.47 LIG-0.27  OA
BRANCH 15 18
ATOM     18  CA  GLN C 506      74.191  26.396 -15.744  1.00115.19 LIG 0.16  C 
BRANCH 18 19
ATOM     19  C   GLN C 506      75.182  27.489 -15.344  1.00118.66 LIG 0.22  C 
ATOM     20 O    GLN C 506      75.353  27.786 -14.160  1.00117.46 LIG-0.29  OA
ENDBRANCH 18 19
BRANCH 18 21
ATOM     21  CB  GLN C 506      73.470  25.847 -14.508  1.00118.15 LIG 0.04  C 
BRANCH 21 22
ATOM     22  CG  GLN C 506      72.506  26.853 -13.861  1.00119.48 LIG 0.10  C 
BRANCH 22 23
ATOM     23  CD  GLN C 506      72.727  27.043 -12.360  1.00116.76 LIG 0.21  C 
ATOM     24  NE2 GLN C 506      73.599  27.980 -12.002  1.00111.94 LIG-0.37  N 
ATOM     25 21HE GLN C 506      74.006  28.441 -12.603  1.00111.94 LIG 0.16  HD
ATOM     26 22HE GLN C 506      73.755  28.126 -11.169  1.00111.94 LIG 0.16  HD
ATOM     27 OE1  GLN C 506      72.119  26.358 -11.538  1.00116.06 LIG-0.27  OA
ENDBRANCH 22 23
ENDBRANCH 21 22
ENDBRANCH 18 21
ENDBRANCH 15 18
ENDBRANCH 10 14
ENDBRANCH 7 10
ENDBRANCH 5 6
BRANCH 5 28
ATOM     28  CB  ASP C 504      79.383  21.702 -18.173  1.00 57.84 LIG 0.15  C 
BRANCH 28 29
ATOM     29  CG  ASP C 504      80.378  20.888 -18.993  1.00 60.92 LIG 0.17  C 
ATOM     30 OD2  ASP C 504      80.771  19.791 -18.528  1.00 60.43 LIG-0.65  OA
ATOM     31 OD1  ASP C 504      80.766  21.334 -20.094  1.00 59.69 LIG-0.65  OA
ENDBRANCH 28 29
ENDBRANCH 5 28
ENDBRANCH 3 5
BRANCH 1 32
ATOM     32  CA  SER C 503      81.117  25.290 -16.156  1.00 44.19 LIG 0.20  C 
BRANCH 32 33
ATOM     33  N   SER C 503      80.284  25.143 -14.960  1.00 47.77 LIG-0.34  N 
ATOM     34 H    SER C 503      80.631  24.658 -14.340  1.00 47.77 LIG 0.16  HD
ATOM     35  C   SER C 502      79.090  25.726 -14.873  1.00 50.79 LIG 0.24  C 
ATOM     36 O    SER C 502      78.733  26.632 -15.613  1.00 48.58 LIG-0.27  OA
BRANCH 35 37
ATOM     37  CA  SER C 502      78.154  25.204 -13.797  1.00 60.54 LIG 0.20  C 
BRANCH 37 38
ATOM     38  CB  SER C 502      76.860  24.697 -14.410  1.00 53.64 LIG 0.20  C 
BRANCH 38 39
ATOM     39 OG   SER C 502      77.065  23.513 -15.145  1.00 59.09 LIG-0.40  OA
ATOM     40 HG   SER C 502      76.420  22.990 -15.021  1.00 59.09 LIG 0.21  HD
ENDBRANCH 38 39
ENDBRANCH 37 38
BRANCH 37 41
ATOM     41  N   SER C 502      77.931  26.270 -12.829  1.00 72.56 LIG-0.34  N 
ATOM     42 H    SER C 502      77.999  27.068 -13.142  1.00 72.56 LIG 0.16  HD
ATOM     43  C   GLU C 501      77.646  25.976 -11.564  1.00101.90 LIG 0.26  C 
ATOM     44 O    GLU C 501      77.208  24.875 -11.228  1.00103.22 LIG-0.27  OA
BRANCH 43 45
ATOM     45  CA  GLU C 501      77.860  27.079 -10.520  1.00101.55 LIG 0.40  C 
ATOM     46  N   GLU C 501      76.648  27.272  -9.731  1.00100.94 LIG 0.61  N 
BRANCH 45 47
ATOM     47  CB  GLU C 501      79.038  26.735  -9.604  1.00104.94 LIG 0.06  C 
BRANCH 47 48
ATOM     48  CG  GLU C 501      80.375  27.274 -10.082  1.00111.45 LIG 0.12  C 
BRANCH 48 49
ATOM     49  CD  GLU C 501      80.466  27.343 -11.593  1.00115.68 LIG 0.17  C 
ATOM     50 OE1  GLU C 501      81.093  26.446 -12.198  1.00117.56 LIG-0.65  OA
ATOM     51 OE2  GLU C 501      79.908  28.298 -12.174  1.00122.11 LIG-0.65  OA
ENDBRANCH 48 49
ENDBRANCH 47 48
ENDBRANCH 45 47
ENDBRANCH 43 45
ENDBRANCH 37 41
ENDBRANCH 35 37
ENDBRANCH 32 33
BRANCH 32 52
ATOM     52  CB  SER C 503      82.595  25.306 -15.794  1.00 49.05 LIG 0.20  C 
BRANCH 52 53
ATOM     53 OG   SER C 503      82.825  26.162 -14.689  1.00 54.59 LIG-0.40  OA
ATOM     54 HG   SER C 503      82.370  25.901 -14.033  1.00 54.59 LIG 0.21  HD
ENDBRANCH 52 53
ENDBRANCH 32 52
ENDBRANCH 1 32
TORSDOF 25
ENDMDL
MODEL 50
USER: ADFR SOLUTION from run 63
USER: SCORE 15.254841 LL:  -3.916 LR: -13.151 RR:   0.000 FEB:  -5.694
USER: RMSD 7.296441
USER: SEED 62
USER: STATUS no improvement in best in 21 clusters for 5 generations
USER: GENES 27
USER: genes 0 Translation |==|  0.76413 0.48060 0.43118
USER: genes 1 Rotation |==|  0.50684 0.08790 0.26907 0.66371
USER: genes 2 Torsion [C]-N--CA-[CB] |==|  0.86892
USER: genes 3 Torsion [N]-CA--C-[N] |==|  0.75026
USER: genes 4 Torsion [C]-N--CA-[C] |==|  0.57858
USER: genes 5 Torsion [N]-CA--CB-[OG] |==|  0.82650
USER: genes 6 Torsion [CA]-CB--OG-[HG] |==|  0.98544
USER: genes 7 Torsion [N]-CA--C-[N] |==|  0.52222
USER: genes 8 Torsion [C]-N--CA-[CB] |==|  0.45959
USER: genes 9 Torsion [N]-CA--C-[O] |==|  0.80443
USER: genes 10 Torsion [N]-CA--CB-[CG] |==|  0.53022
USER: genes 11 Torsion [CA]-CB--CG-[CD] |==|  0.68213
USER: genes 12 Torsion [CB]-CG--CD-[NE2] |==|  0.34718
USER: genes 13 Torsion [N]-CA--CB-[CG] |==|  0.65413
USER: genes 14 Torsion [CA]-CB--CG-[OD1] |==|  0.85133
USER: genes 15 Torsion [N]-C--CA-[N] |==|  0.41440
USER: genes 16 Torsion [C]-CA--N-[C] |==|  0.58175
USER: genes 17 Torsion [N]-C--CA-[N] |==|  0.34716
USER: genes 18 Torsion [C]-CA--CB-[OG] |==|  0.66782
USER: genes 19 Torsion [CA]-CB--OG-[HG] |==|  0.54756
USER: genes 20 Torsion [C]-CA--N-[C] |==|  0.70803
USER: genes 21 Torsion [N]-C--CA-[N] |==|  0.50443
USER: genes 22 Torsion [C]-CA--CB-[CG] |==|  0.91047
USER: genes 23 Torsion [CA]-CB--CG-[CD] |==|  0.79866
USER: genes 24 Torsion [CB]-CG--CD-[OE1] |==|  0.97623
USER: genes 25 Torsion [C]-CA--CB-[OG] |==|  0.03693
USER: genes 26 Torsion [CA]-CB--OG-[HG] |==|  0.13215
ROOT
ATOM      1  C   SER C 503      83.827  25.951 -15.834  1.00 42.27 LIG 0.24  C 
ATOM      2 O    SER C 503      83.072  25.889 -14.867  1.00 46.84 LIG-0.27  OA
ATOM      3  N   ASP C 504      84.014  24.946 -16.680  1.00 51.15 LIG-0.34  N 
ATOM      4 H    ASP C 504      84.465  25.019 -17.409  1.00 51.15 LIG 0.16  HD
ENDROOT
BRANCH 3 5
ATOM      5  CA  ASP C 504      83.467  23.609 -16.454  1.00 56.79 LIG 0.19  C 
BRANCH 5 6
ATOM      6  C   ASP C 504      81.958  23.597 -16.739  1.00 67.42 LIG 0.24  C 
ATOM      7  N   SER C 505      81.166  23.876 -15.708  1.00 81.52 LIG-0.34  N 
ATOM      8 H    SER C 505      81.453  24.046 -14.916  1.00 81.52 LIG 0.16  HD
ATOM      9 O    ASP C 504      81.526  23.347 -17.866  1.00 66.01 LIG-0.27  OA
BRANCH 7 10
ATOM     10  CA  SER C 505      79.711  23.918 -15.838  1.00 90.64 LIG 0.20  C 
BRANCH 10 11
ATOM     11  CB  SER C 505      79.115  22.525 -15.664  1.00 89.01 LIG 0.20  C 
BRANCH 11 12
ATOM     12 OG   SER C 505      79.583  21.659 -16.680  1.00 87.22 LIG-0.40  OA
ATOM     13 HG   SER C 505      80.045  22.095 -17.229  1.00 87.22 LIG 0.21  HD
ENDBRANCH 11 12
ENDBRANCH 10 11
BRANCH 10 14
ATOM     14  C   SER C 505      79.114  24.882 -14.817  1.00 98.93 LIG 0.24  C 
ATOM     15  N   GLN C 506      77.788  24.889 -14.719  1.00110.12 LIG-0.35  N 
ATOM     16 H    GLN C 506      77.276  24.297 -15.075  1.00110.12 LIG 0.16  HD
ATOM     17 O    SER C 505      79.842  25.594 -14.124  1.00 94.47 LIG-0.27  OA
BRANCH 15 18
ATOM     18  CA  GLN C 506      77.083  25.929 -13.980  1.00115.19 LIG 0.16  C 
BRANCH 18 19
ATOM     19  C   GLN C 506      77.275  25.797 -12.470  1.00118.66 LIG 0.22  C 
ATOM     20 O    GLN C 506      76.752  24.873 -11.843  1.00117.46 LIG-0.29  OA
ENDBRANCH 18 19
BRANCH 18 21
ATOM     21  CB  GLN C 506      75.593  25.891 -14.336  1.00118.15 LIG 0.04  C 
BRANCH 21 22
ATOM     22  CG  GLN C 506      74.806  27.105 -13.820  1.00119.48 LIG 0.10  C 
BRANCH 22 23
ATOM     23  CD  GLN C 506      73.761  26.758 -12.759  1.00116.76 LIG 0.21  C 
ATOM     24  NE2 GLN C 506      73.844  27.415 -11.606  1.00111.94 LIG-0.37  N 
ATOM     25 21HE GLN C 506      74.464  27.998 -11.488  1.00111.94 LIG 0.16  HD
ATOM     26 22HE GLN C 506      73.277  27.256 -10.980  1.00111.94 LIG 0.16  HD
ATOM     27 OE1  GLN C 506      72.892  25.914 -12.978  1.00116.06 LIG-0.27  OA
ENDBRANCH 22 23
ENDBRANCH 21 22
ENDBRANCH 18 21
ENDBRANCH 15 18
ENDBRANCH 10 14
ENDBRANCH 7 10
ENDBRANCH 5 6
BRANCH 5 28
ATOM     28  CB  ASP C 504      83.755  23.166 -15.009  1.00 57.84 LIG 0.15  C 
BRANCH 28 29
ATOM     29  CG  ASP C 504      84.498  21.837 -14.922  1.00 60.92 LIG 0.17  C 
ATOM     30 OD2  ASP C 504      85.558  21.793 -14.252  1.00 60.43 LIG-0.65  OA
ATOM     31 OD1  ASP C 504      84.030  20.840 -15.514  1.00 59.69 LIG-0.65  OA
ENDBRANCH 28 29
ENDBRANCH 5 28
ENDBRANCH 3 5
BRANCH 1 32
ATOM     32  CA  SER C 503      84.598  27.223 -16.134  1.00 44.19 LIG 0.20  C 
BRANCH 32 33
ATOM     33  N   SER C 503      83.853  28.400 -15.681  1.00 47.77 LIG-0.34  N 
ATOM     34 H    SER C 503      83.342  28.261 -15.004  1.00 47.77 LIG 0.16  HD
ATOM     35  C   SER C 502      83.981  29.577 -16.292  1.00 50.79 LIG 0.24  C 
ATOM     36 O    SER C 502      84.906  29.840 -17.048  1.00 48.58 LIG-0.27  OA
BRANCH 35 37
ATOM     37  CA  SER C 502      82.900  30.607 -16.018  1.00 60.54 LIG 0.20  C 
BRANCH 37 38
ATOM     38  CB  SER C 502      82.061  30.850 -17.260  1.00 53.64 LIG 0.20  C 
BRANCH 38 39
ATOM     39 OG   SER C 502      82.130  32.194 -17.675  1.00 59.09 LIG-0.40  OA
ATOM     40 HG   SER C 502      81.496  32.358 -18.200  1.00 59.09 LIG 0.21  HD
ENDBRANCH 38 39
ENDBRANCH 37 38
BRANCH 37 41
ATOM     41  N   SER C 502      83.542  31.823 -15.533  1.00 72.56 LIG-0.34  N 
ATOM     42 H    SER C 502      83.942  32.289 -16.135  1.00 72.56 LIG 0.16  HD
ATOM     43  C   GLU C 501      83.480  32.143 -14.244  1.00101.90 LIG 0.26  C 
ATOM     44 O    GLU C 501      82.625  31.677 -13.491  1.00103.22 LIG-0.27  OA
BRANCH 43 45
ATOM     45  CA  GLU C 501      84.513  33.150 -13.721  1.00101.55 LIG 0.40  C 
ATOM     46  N   GLU C 501      84.333  33.362 -12.288  1.00100.94 LIG 0.61  N 
BRANCH 45 47
ATOM     47  CB  GLU C 501      85.936  32.663 -14.008  1.00104.94 LIG 0.06  C 
BRANCH 47 48
ATOM     48  CG  GLU C 501      86.093  31.153 -13.984  1.00111.45 LIG 0.12  C 
BRANCH 48 49
ATOM     49  CD  GLU C 501      86.023  30.584 -12.582  1.00115.68 LIG 0.17  C 
ATOM     50 OE1  GLU C 501      86.016  31.376 -11.613  1.00117.56 LIG-0.65  OA
ATOM     51 OE2  GLU C 501      85.976  29.343 -12.451  1.00122.11 LIG-0.65  OA
ENDBRANCH 48 49
ENDBRANCH 47 48
ENDBRANCH 45 47
ENDBRANCH 43 45
ENDBRANCH 37 41
ENDBRANCH 35 37
ENDBRANCH 32 33
BRANCH 32 52
ATOM     52  CB  SER C 503      85.966  27.152 -15.469  1.00 49.05 LIG 0.20  C 
BRANCH 52 53
ATOM     53 OG   SER C 503      86.238  25.831 -15.036  1.00 54.59 LIG-0.40  OA
ATOM     54 HG   SER C 503      86.063  25.291 -15.656  1.00 54.59 LIG 0.21  HD
ENDBRANCH 52 53
ENDBRANCH 32 52
ENDBRANCH 1 32
TORSDOF 25
ENDMDL
MODEL 51
USER: ADFR SOLUTION from run 146
USER: SCORE 14.640777 LL:  -4.086 LR: -13.139 RR:   0.000 FEB:  -5.682
USER: RMSD 5.174649
USER: SEED 145
USER: STATUS no improvement in best in 9 clusters for 5 generations
USER: GENES 27
USER: genes 0 Translation |==|  0.60656 0.51198 0.51496
USER: genes 1 Rotation |==|  0.48426 0.41296 0.38060 0.97741
USER: genes 2 Torsion [C]-N--CA-[CB] |==|  0.53263
USER: genes 3 Torsion [N]-CA--C-[N] |==|  0.90422
USER: genes 4 Torsion [C]-N--CA-[C] |==|  0.66802
USER: genes 5 Torsion [N]-CA--CB-[OG] |==|  0.66921
USER: genes 6 Torsion [CA]-CB--OG-[HG] |==|  0.89265
USER: genes 7 Torsion [N]-CA--C-[N] |==|  0.29820
USER: genes 8 Torsion [C]-N--CA-[CB] |==|  0.13599
USER: genes 9 Torsion [N]-CA--C-[O] |==|  0.68832
USER: genes 10 Torsion [N]-CA--CB-[CG] |==|  0.53916
USER: genes 11 Torsion [CA]-CB--CG-[CD] |==|  0.34955
USER: genes 12 Torsion [CB]-CG--CD-[NE2] |==|  0.38847
USER: genes 13 Torsion [N]-CA--CB-[CG] |==|  0.41801
USER: genes 14 Torsion [CA]-CB--CG-[OD1] |==|  0.80886
USER: genes 15 Torsion [N]-C--CA-[N] |==|  0.23041
USER: genes 16 Torsion [C]-CA--N-[C] |==|  0.18471
USER: genes 17 Torsion [N]-C--CA-[N] |==|  0.09846
USER: genes 18 Torsion [C]-CA--CB-[OG] |==|  0.60441
USER: genes 19 Torsion [CA]-CB--OG-[HG] |==|  0.78520
USER: genes 20 Torsion [C]-CA--N-[C] |==|  0.70000
USER: genes 21 Torsion [N]-C--CA-[N] |==|  0.46487
USER: genes 22 Torsion [C]-CA--CB-[CG] |==|  0.32130
USER: genes 23 Torsion [CA]-CB--CG-[CD] |==|  0.79256
USER: genes 24 Torsion [CB]-CG--CD-[OE1] |==|  0.69296
USER: genes 25 Torsion [C]-CA--CB-[OG] |==|  0.56356
USER: genes 26 Torsion [CA]-CB--OG-[HG] |==|  0.24395
ROOT
ATOM      1  C   SER C 503      81.109  26.610 -14.264  1.00 42.27 LIG 0.24  C 
ATOM      2 O    SER C 503      82.261  26.553 -13.839  1.00 46.84 LIG-0.27  OA
ATOM      3  N   ASP C 504      80.517  25.610 -14.903  1.00 51.15 LIG-0.34  N 
ATOM      4 H    ASP C 504      79.683  25.611 -15.114  1.00 51.15 LIG 0.16  HD
ENDROOT
BRANCH 3 5
ATOM      5  CA  ASP C 504      81.230  24.401 -15.315  1.00 56.79 LIG 0.19  C 
BRANCH 5 6
ATOM      6  C   ASP C 504      82.565  24.771 -15.976  1.00 67.42 LIG 0.24  C 
ATOM      7  N   SER C 505      82.574  25.892 -16.691  1.00 81.52 LIG-0.34  N 
ATOM      8 H    SER C 505      81.885  26.393 -16.803  1.00 81.52 LIG 0.16  HD
ATOM      9 O    ASP C 504      83.563  24.060 -15.834  1.00 66.01 LIG-0.27  OA
BRANCH 7 10
ATOM     10  CA  SER C 505      83.780  26.375 -17.361  1.00 90.64 LIG 0.20  C 
BRANCH 10 11
ATOM     11  CB  SER C 505      83.574  26.426 -18.870  1.00 89.01 LIG 0.20  C 
BRANCH 11 12
ATOM     12 OG   SER C 505      84.494  25.573 -19.523  1.00 87.22 LIG-0.40  OA
ATOM     13 HG   SER C 505      85.238  25.616 -19.136  1.00 87.22 LIG 0.21  HD
ENDBRANCH 11 12
ENDBRANCH 10 11
BRANCH 10 14
ATOM     14  C   SER C 505      84.166  27.753 -16.831  1.00 98.93 LIG 0.24  C 
ATOM     15  N   GLN C 506      85.235  27.802 -16.043  1.00110.12 LIG-0.35  N 
ATOM     16 H    GLN C 506      85.789  27.152 -15.941  1.00110.12 LIG 0.16  HD
ATOM     17 O    SER C 505      83.514  28.752 -17.142  1.00 94.47 LIG-0.27  OA
BRANCH 15 18
ATOM     18  CA  GLN C 506      85.559  28.996 -15.270  1.00115.19 LIG 0.16  C 
BRANCH 18 19
ATOM     19  C   GLN C 506      86.713  28.758 -14.296  1.00118.66 LIG 0.22  C 
ATOM     20 O    GLN C 506      86.524  28.765 -13.078  1.00117.46 LIG-0.29  OA
ENDBRANCH 18 19
BRANCH 18 21
ATOM     21  CB  GLN C 506      84.312  29.473 -14.518  1.00118.15 LIG 0.04  C 
BRANCH 21 22
ATOM     22  CG  GLN C 506      84.441  30.896 -13.953  1.00119.48 LIG 0.10  C 
BRANCH 22 23
ATOM     23  CD  GLN C 506      83.315  31.836 -14.385  1.00116.76 LIG 0.21  C 
ATOM     24  NE2 GLN C 506      82.848  32.668 -13.459  1.00111.94 LIG-0.37  N 
ATOM     25 21HE GLN C 506      83.178  32.656 -12.665  1.00111.94 LIG 0.16  HD
ATOM     26 22HE GLN C 506      82.217  33.218 -13.655  1.00111.94 LIG 0.16  HD
ATOM     27 OE1  GLN C 506      82.878  31.815 -15.535  1.00116.06 LIG-0.27  OA
ENDBRANCH 22 23
ENDBRANCH 21 22
ENDBRANCH 18 21
ENDBRANCH 15 18
ENDBRANCH 10 14
ENDBRANCH 7 10
ENDBRANCH 5 6
BRANCH 5 28
ATOM     28  CB  ASP C 504      80.352  23.580 -16.276  1.00 57.84 LIG 0.15  C 
BRANCH 28 29
ATOM     29  CG  ASP C 504      81.157  22.763 -17.280  1.00 60.92 LIG 0.17  C 
ATOM     30 OD2  ASP C 504      81.146  21.513 -17.170  1.00 60.43 LIG-0.65  OA
ATOM     31 OD1  ASP C 504      81.795  23.358 -18.175  1.00 59.69 LIG-0.65  OA
ENDBRANCH 28 29
ENDBRANCH 5 28
ENDBRANCH 3 5
BRANCH 1 32
ATOM     32  CA  SER C 503      80.268  27.856 -14.057  1.00 44.19 LIG 0.20  C 
BRANCH 32 33
ATOM     33  N   SER C 503      79.408  27.713 -12.880  1.00 47.77 LIG-0.34  N 
ATOM     34 H    SER C 503      78.566  27.683 -13.054  1.00 47.77 LIG 0.16  HD
ATOM     35  C   SER C 502      79.922  27.637 -11.653  1.00 50.79 LIG 0.24  C 
ATOM     36 O    SER C 502      81.099  27.389 -11.436  1.00 48.58 LIG-0.27  OA
BRANCH 35 37
ATOM     37  CA  SER C 502      78.967  27.890 -10.500  1.00 60.54 LIG 0.20  C 
BRANCH 37 38
ATOM     38  CB  SER C 502      79.508  27.291  -9.213  1.00 53.64 LIG 0.20  C 
BRANCH 38 39
ATOM     39 OG   SER C 502      78.476  26.741  -8.427  1.00 59.09 LIG-0.40  OA
ATOM     40 HG   SER C 502      78.063  27.358  -8.035  1.00 59.09 LIG 0.21  HD
ENDBRANCH 38 39
ENDBRANCH 37 38
BRANCH 37 41
ATOM     41  N   SER C 502      77.663  27.349 -10.860  1.00 72.56 LIG-0.34  N 
ATOM     42 H    SER C 502      77.612  26.490 -10.864  1.00 72.56 LIG 0.16  HD
ATOM     43  C   GLU C 501      76.657  28.167 -11.153  1.00101.90 LIG 0.26  C 
ATOM     44 O    GLU C 501      76.645  29.347 -10.799  1.00103.22 LIG-0.27  OA
BRANCH 43 45
ATOM     45  CA  GLU C 501      75.477  27.579 -11.938  1.00101.55 LIG 0.40  C 
ATOM     46  N   GLU C 501      74.345  28.500 -11.918  1.00100.94 LIG 0.61  N 
BRANCH 45 47
ATOM     47  CB  GLU C 501      75.887  27.276 -13.382  1.00104.94 LIG 0.06  C 
BRANCH 47 48
ATOM     48  CG  GLU C 501      75.848  25.802 -13.743  1.00111.45 LIG 0.12  C 
BRANCH 48 49
ATOM     49  CD  GLU C 501      77.005  25.026 -13.146  1.00115.68 LIG 0.17  C 
ATOM     50 OE1  GLU C 501      77.891  24.587 -13.912  1.00117.56 LIG-0.65  OA
ATOM     51 OE2  GLU C 501      77.026  24.858 -11.909  1.00122.11 LIG-0.65  OA
ENDBRANCH 48 49
ENDBRANCH 47 48
ENDBRANCH 45 47
ENDBRANCH 43 45
ENDBRANCH 37 41
ENDBRANCH 35 37
ENDBRANCH 32 33
BRANCH 32 52
ATOM     52  CB  SER C 503      81.184  29.065 -13.922  1.00 49.05 LIG 0.20  C 
BRANCH 52 53
ATOM     53 OG   SER C 503      80.524  30.110 -13.229  1.00 54.59 LIG-0.40  OA
ATOM     54 HG   SER C 503      80.642  30.016 -12.402  1.00 54.59 LIG 0.21  HD
ENDBRANCH 52 53
ENDBRANCH 32 52
ENDBRANCH 1 32
TORSDOF 25
ENDMDL
MODEL 52
USER: ADFR SOLUTION from run 123
USER: SCORE 16.530748 LL:  -4.917 LR: -13.135 RR:   0.000 FEB:  -5.677
USER: RMSD 5.862377
USER: SEED 122
USER: STATUS no improvement in best in 7 clusters for 5 generations
USER: GENES 27
USER: genes 0 Translation |==|  0.51798 0.52039 0.65386
USER: genes 1 Rotation |==|  0.68726 0.22282 0.14574 0.61228
USER: genes 2 Torsion [C]-N--CA-[CB] |==|  0.23980
USER: genes 3 Torsion [N]-CA--C-[N] |==|  0.41789
USER: genes 4 Torsion [C]-N--CA-[C] |==|  0.65753
USER: genes 5 Torsion [N]-CA--CB-[OG] |==|  0.65640
USER: genes 6 Torsion [CA]-CB--OG-[HG] |==|  0.79253
USER: genes 7 Torsion [N]-CA--C-[N] |==|  0.37093
USER: genes 8 Torsion [C]-N--CA-[CB] |==|  0.26639
USER: genes 9 Torsion [N]-CA--C-[O] |==|  0.29937
USER: genes 10 Torsion [N]-CA--CB-[CG] |==|  0.72839
USER: genes 11 Torsion [CA]-CB--CG-[CD] |==|  0.98846
USER: genes 12 Torsion [CB]-CG--CD-[NE2] |==|  0.30839
USER: genes 13 Torsion [N]-CA--CB-[CG] |==|  0.47409
USER: genes 14 Torsion [CA]-CB--CG-[OD1] |==|  0.13697
USER: genes 15 Torsion [N]-C--CA-[N] |==|  0.22712
USER: genes 16 Torsion [C]-CA--N-[C] |==|  0.79444
USER: genes 17 Torsion [N]-C--CA-[N] |==|  0.94414
USER: genes 18 Torsion [C]-CA--CB-[OG] |==|  0.77257
USER: genes 19 Torsion [CA]-CB--OG-[HG] |==|  0.12541
USER: genes 20 Torsion [C]-CA--N-[C] |==|  0.80372
USER: genes 21 Torsion [N]-C--CA-[N] |==|  0.20396
USER: genes 22 Torsion [C]-CA--CB-[CG] |==|  0.76457
USER: genes 23 Torsion [CA]-CB--CG-[CD] |==|  0.72733
USER: genes 24 Torsion [CB]-CG--CD-[OE1] |==|  0.54526
USER: genes 25 Torsion [C]-CA--CB-[OG] |==|  0.78747
USER: genes 26 Torsion [CA]-CB--OG-[HG] |==|  0.68839
ROOT
ATOM      1  C   SER C 503      79.581  26.786 -11.659  1.00 42.27 LIG 0.24  C 
ATOM      2 O    SER C 503      78.819  25.836 -11.498  1.00 46.84 LIG-0.27  OA
ATOM      3  N   ASP C 504      80.292  26.973 -12.763  1.00 51.15 LIG-0.34  N 
ATOM      4 H    ASP C 504      80.750  27.685 -12.916  1.00 51.15 LIG 0.16  HD
ENDROOT
BRANCH 3 5
ATOM      5  CA  ASP C 504      80.369  25.979 -13.833  1.00 56.79 LIG 0.19  C 
BRANCH 5 6
ATOM      6  C   ASP C 504      81.710  26.095 -14.571  1.00 67.42 LIG 0.24  C 
ATOM      7  N   SER C 505      82.185  24.973 -15.103  1.00 81.52 LIG-0.34  N 
ATOM      8 H    SER C 505      81.790  24.212 -15.043  1.00 81.52 LIG 0.16  HD
ATOM      9 O    ASP C 504      82.296  27.177 -14.659  1.00 66.01 LIG-0.27  OA
BRANCH 7 10
ATOM     10  CA  SER C 505      83.442  24.939 -15.848  1.00 90.64 LIG 0.20  C 
BRANCH 10 11
ATOM     11  CB  SER C 505      84.482  24.102 -15.112  1.00 89.01 LIG 0.20  C 
BRANCH 11 12
ATOM     12 OG   SER C 505      85.647  24.867 -14.871  1.00 87.22 LIG-0.40  OA
ATOM     13 HG   SER C 505      86.079  24.953 -15.586  1.00 87.22 LIG 0.21  HD
ENDBRANCH 11 12
ENDBRANCH 10 11
BRANCH 10 14
ATOM     14  C   SER C 505      83.212  24.385 -17.251  1.00 98.93 LIG 0.24  C 
ATOM     15  N   GLN C 506      83.771  25.062 -18.250  1.00110.12 LIG-0.35  N 
ATOM     16 H    GLN C 506      84.357  25.682 -18.142  1.00110.12 LIG 0.16  HD
ATOM     17 O    SER C 505      82.552  23.358 -17.422  1.00 94.47 LIG-0.27  OA
BRANCH 15 18
ATOM     18  CA  GLN C 506      83.423  24.796 -19.641  1.00115.19 LIG 0.16  C 
BRANCH 18 19
ATOM     19  C   GLN C 506      84.639  24.863 -20.564  1.00118.66 LIG 0.22  C 
ATOM     20 O    GLN C 506      85.120  23.839 -21.053  1.00117.46 LIG-0.29  OA
ENDBRANCH 18 19
BRANCH 18 21
ATOM     21  CB  GLN C 506      82.347  25.786 -20.098  1.00118.15 LIG 0.04  C 
BRANCH 21 22
ATOM     22  CG  GLN C 506      80.921  25.217 -20.037  1.00119.48 LIG 0.10  C 
BRANCH 22 23
ATOM     23  CD  GLN C 506      80.861  23.745 -19.629  1.00116.76 LIG 0.21  C 
ATOM     24  NE2 GLN C 506      80.339  23.480 -18.435  1.00111.94 LIG-0.37  N 
ATOM     25 21HE GLN C 506      80.059  24.122 -17.936  1.00111.94 LIG 0.16  HD
ATOM     26 22HE GLN C 506      80.281  22.667 -18.162  1.00111.94 LIG 0.16  HD
ATOM     27 OE1  GLN C 506      81.275  22.862 -20.379  1.00116.06 LIG-0.27  OA
ENDBRANCH 22 23
ENDBRANCH 21 22
ENDBRANCH 18 21
ENDBRANCH 15 18
ENDBRANCH 10 14
ENDBRANCH 7 10
ENDBRANCH 5 6
BRANCH 5 28
ATOM     28  CB  ASP C 504      79.191  26.169 -14.805  1.00 57.84 LIG 0.15  C 
BRANCH 28 29
ATOM     29  CG  ASP C 504      79.311  25.327 -16.071  1.00 60.92 LIG 0.17  C 
ATOM     30 OD2  ASP C 504      79.147  25.895 -17.177  1.00 60.43 LIG-0.65  OA
ATOM     31 OD1  ASP C 504      79.570  24.109 -15.967  1.00 59.69 LIG-0.65  OA
ENDBRANCH 28 29
ENDBRANCH 5 28
ENDBRANCH 3 5
BRANCH 1 32
ATOM     32  CA  SER C 503      79.742  27.841 -10.580  1.00 44.19 LIG 0.20  C 
BRANCH 32 33
ATOM     33  N   SER C 503      78.901  29.006 -10.863  1.00 47.77 LIG-0.34  N 
ATOM     34 H    SER C 503      78.204  29.074 -10.364  1.00 47.77 LIG 0.16  HD
ATOM     35  C   SER C 502      79.220  29.872 -11.824  1.00 50.79 LIG 0.24  C 
ATOM     36 O    SER C 502      80.335  29.936 -12.322  1.00 48.58 LIG-0.27  OA
BRANCH 35 37
ATOM     37  CA  SER C 502      78.114  30.796 -12.302  1.00 60.54 LIG 0.20  C 
BRANCH 37 38
ATOM     38  CB  SER C 502      78.295  32.192 -11.731  1.00 53.64 LIG 0.20  C 
BRANCH 38 39
ATOM     39 OG   SER C 502      77.791  32.282 -10.419  1.00 59.09 LIG-0.40  OA
ATOM     40 HG   SER C 502      78.042  31.614  -9.975  1.00 59.09 LIG 0.21  HD
ENDBRANCH 38 39
ENDBRANCH 37 38
BRANCH 37 41
ATOM     41  N   SER C 502      76.834  30.205 -11.931  1.00 72.56 LIG-0.34  N 
ATOM     42 H    SER C 502      76.411  30.614 -11.304  1.00 72.56 LIG 0.16  HD
ATOM     43  C   GLU C 501      76.398  29.112 -12.550  1.00101.90 LIG 0.26  C 
ATOM     44 O    GLU C 501      76.824  28.766 -13.653  1.00103.22 LIG-0.27  OA
BRANCH 43 45
ATOM     45  CA  GLU C 501      75.307  28.294 -11.846  1.00101.55 LIG 0.40  C 
ATOM     46  N   GLU C 501      74.025  28.989 -11.921  1.00100.94 LIG 0.61  N 
BRANCH 45 47
ATOM     47  CB  GLU C 501      75.190  26.901 -12.470  1.00104.94 LIG 0.06  C 
BRANCH 47 48
ATOM     48  CG  GLU C 501      74.299  26.842 -13.698  1.00111.45 LIG 0.12  C 
BRANCH 48 49
ATOM     49  CD  GLU C 501      72.900  26.357 -13.379  1.00115.68 LIG 0.17  C 
ATOM     50 OE1  GLU C 501      72.170  25.971 -14.318  1.00117.56 LIG-0.65  OA
ATOM     51 OE2  GLU C 501      72.533  26.362 -12.185  1.00122.11 LIG-0.65  OA
ENDBRANCH 48 49
ENDBRANCH 47 48
ENDBRANCH 45 47
ENDBRANCH 43 45
ENDBRANCH 37 41
ENDBRANCH 35 37
ENDBRANCH 32 33
BRANCH 32 52
ATOM     52  CB  SER C 503      79.397  27.234  -9.227  1.00 49.05 LIG 0.20  C 
BRANCH 52 53
ATOM     53 OG   SER C 503      77.993  27.115  -9.081  1.00 54.59 LIG-0.40  OA
ATOM     54 HG   SER C 503      77.727  27.645  -8.486  1.00 54.59 LIG 0.21  HD
ENDBRANCH 52 53
ENDBRANCH 32 52
ENDBRANCH 1 32
TORSDOF 25
ENDMDL
MODEL 53
USER: ADFR SOLUTION from run 105
USER: SCORE 14.826102 LL:  -4.454 LR: -13.110 RR:   0.000 FEB:  -5.652
USER: RMSD 6.405882
USER: SEED 104
USER: STATUS no improvement in best in 5 clusters for 5 generations
USER: GENES 27
USER: genes 0 Translation |==|  0.75215 0.48690 0.44406
USER: genes 1 Rotation |==|  0.53492 0.09064 0.26406 0.65979
USER: genes 2 Torsion [C]-N--CA-[CB] |==|  0.86408
USER: genes 3 Torsion [N]-CA--C-[N] |==|  0.77222
USER: genes 4 Torsion [C]-N--CA-[C] |==|  0.58021
USER: genes 5 Torsion [N]-CA--CB-[OG] |==|  0.86855
USER: genes 6 Torsion [CA]-CB--OG-[HG] |==|  0.94073
USER: genes 7 Torsion [N]-CA--C-[N] |==|  0.99208
USER: genes 8 Torsion [C]-N--CA-[CB] |==|  0.12422
USER: genes 9 Torsion [N]-CA--C-[O] |==|  0.08524
USER: genes 10 Torsion [N]-CA--CB-[CG] |==|  0.55042
USER: genes 11 Torsion [CA]-CB--CG-[CD] |==|  0.76222
USER: genes 12 Torsion [CB]-CG--CD-[NE2] |==|  0.50750
USER: genes 13 Torsion [N]-CA--CB-[CG] |==|  0.64309
USER: genes 14 Torsion [CA]-CB--CG-[OD1] |==|  0.84015
USER: genes 15 Torsion [N]-C--CA-[N] |==|  0.45451
USER: genes 16 Torsion [C]-CA--N-[C] |==|  0.53696
USER: genes 17 Torsion [N]-C--CA-[N] |==|  0.02234
USER: genes 18 Torsion [C]-CA--CB-[OG] |==|  0.44189
USER: genes 19 Torsion [CA]-CB--OG-[HG] |==|  0.35915
USER: genes 20 Torsion [C]-CA--N-[C] |==|  0.54245
USER: genes 21 Torsion [N]-C--CA-[N] |==|  0.36748
USER: genes 22 Torsion [C]-CA--CB-[CG] |==|  0.09335
USER: genes 23 Torsion [CA]-CB--CG-[CD] |==|  0.20702
USER: genes 24 Torsion [CB]-CG--CD-[OE1] |==|  0.32911
USER: genes 25 Torsion [C]-CA--CB-[OG] |==|  0.00800
USER: genes 26 Torsion [CA]-CB--OG-[HG] |==|  0.18469
ROOT
ATOM      1  C   SER C 503      83.621  26.083 -15.593  1.00 42.27 LIG 0.24  C 
ATOM      2 O    SER C 503      82.817  25.905 -14.681  1.00 46.84 LIG-0.27  OA
ATOM      3  N   ASP C 504      83.937  25.149 -16.480  1.00 51.15 LIG-0.34  N 
ATOM      4 H    ASP C 504      84.423  25.301 -17.174  1.00 51.15 LIG 0.16  HD
ENDROOT
BRANCH 3 5
ATOM      5  CA  ASP C 504      83.487  23.763 -16.365  1.00 56.79 LIG 0.19  C 
BRANCH 5 6
ATOM      6  C   ASP C 504      81.993  23.659 -16.702  1.00 67.42 LIG 0.24  C 
ATOM      7  N   SER C 505      81.148  23.966 -15.722  1.00 81.52 LIG-0.34  N 
ATOM      8 H    SER C 505      81.396  24.200 -14.933  1.00 81.52 LIG 0.16  HD
ATOM      9 O    ASP C 504      81.617  23.315 -17.825  1.00 66.01 LIG-0.27  OA
BRANCH 7 10
ATOM     10  CA  SER C 505      79.699  23.928 -15.907  1.00 90.64 LIG 0.20  C 
BRANCH 10 11
ATOM     11  CB  SER C 505      79.160  22.526 -15.648  1.00 89.01 LIG 0.20  C 
BRANCH 11 12
ATOM     12 OG   SER C 505      79.945  21.563 -16.325  1.00 87.22 LIG-0.40  OA
ATOM     13 HG   SER C 505      80.359  21.933 -16.955  1.00 87.22 LIG 0.21  HD
ENDBRANCH 11 12
ENDBRANCH 10 11
BRANCH 10 14
ATOM     14  C   SER C 505      79.020  24.936 -14.985  1.00 98.93 LIG 0.24  C 
ATOM     15  N   GLN C 506      79.816  25.609 -14.159  1.00110.12 LIG-0.35  N 
ATOM     16 H    GLN C 506      80.675  25.617 -14.219  1.00110.12 LIG 0.16  HD
ATOM     17 O    SER C 505      77.801  25.110 -15.032  1.00 94.47 LIG-0.27  OA
BRANCH 15 18
ATOM     18  CA  GLN C 506      79.281  26.404 -13.061  1.00115.19 LIG 0.16  C 
BRANCH 18 19
ATOM     19  C   GLN C 506      80.367  26.839 -12.079  1.00118.66 LIG 0.22  C 
ATOM     20 O    GLN C 506      81.522  27.039 -12.460  1.00117.46 LIG-0.29  OA
ENDBRANCH 18 19
BRANCH 18 21
ATOM     21  CB  GLN C 506      78.189  25.608 -12.337  1.00118.15 LIG 0.04  C 
BRANCH 21 22
ATOM     22  CG  GLN C 506      77.266  26.478 -11.471  1.00119.48 LIG 0.10  C 
BRANCH 22 23
ATOM     23  CD  GLN C 506      77.803  26.736 -10.063  1.00116.76 LIG 0.21  C 
ATOM     24  NE2 GLN C 506      77.021  27.437  -9.248  1.00111.94 LIG-0.37  N 
ATOM     25 21HE GLN C 506      76.258  27.722  -9.524  1.00111.94 LIG 0.16  HD
ATOM     26 22HE GLN C 506      77.278  27.606  -8.445  1.00111.94 LIG 0.16  HD
ATOM     27 OE1  GLN C 506      78.903  26.307  -9.715  1.00116.06 LIG-0.27  OA
ENDBRANCH 22 23
ENDBRANCH 21 22
ENDBRANCH 18 21
ENDBRANCH 15 18
ENDBRANCH 10 14
ENDBRANCH 7 10
ENDBRANCH 5 6
BRANCH 5 28
ATOM     28  CB  ASP C 504      83.765  23.242 -14.944  1.00 57.84 LIG 0.15  C 
BRANCH 28 29
ATOM     29  CG  ASP C 504      84.521  21.918 -14.923  1.00 60.92 LIG 0.17  C 
ATOM     30 OD2  ASP C 504      85.614  21.870 -14.308  1.00 60.43 LIG-0.65  OA
ATOM     31 OD1  ASP C 504      84.032  20.930 -15.512  1.00 59.69 LIG-0.65  OA
ENDBRANCH 28 29
ENDBRANCH 5 28
ENDBRANCH 3 5
BRANCH 1 32
ATOM     32  CA  SER C 503      84.303  27.427 -15.772  1.00 44.19 LIG 0.20  C 
BRANCH 32 33
ATOM     33  N   SER C 503      83.611  28.466 -15.006  1.00 47.77 LIG-0.34  N 
ATOM     34 H    SER C 503      83.044  28.169 -14.430  1.00 47.77 LIG 0.16  HD
ATOM     35  C   SER C 502      83.861  29.758 -15.210  1.00 50.79 LIG 0.24  C 
ATOM     36 O    SER C 502      84.852  30.161 -15.803  1.00 48.58 LIG-0.27  OA
BRANCH 35 37
ATOM     37  CA  SER C 502      82.837  30.743 -14.675  1.00 60.54 LIG 0.20  C 
BRANCH 37 38
ATOM     38  CB  SER C 502      83.516  31.854 -13.892  1.00 53.64 LIG 0.20  C 
BRANCH 38 39
ATOM     39 OG   SER C 502      82.694  32.994 -13.796  1.00 59.09 LIG-0.40  OA
ATOM     40 HG   SER C 502      82.645  33.237 -12.994  1.00 59.09 LIG 0.21  HD
ENDBRANCH 38 39
ENDBRANCH 37 38
BRANCH 37 41
ATOM     41  N   SER C 502      81.873  30.004 -13.868  1.00 72.56 LIG-0.34  N 
ATOM     42 H    SER C 502      82.117  29.212 -13.642  1.00 72.56 LIG 0.16  HD
ATOM     43  C   GLU C 501      80.713  30.563 -13.535  1.00101.90 LIG 0.26  C 
ATOM     44 O    GLU C 501      80.541  31.783 -13.556  1.00103.22 LIG-0.27  OA
BRANCH 43 45
ATOM     45  CA  GLU C 501      79.583  29.625 -13.091  1.00101.55 LIG 0.40  C 
ATOM     46  N   GLU C 501      78.969  30.118 -11.862  1.00100.94 LIG 0.61  N 
BRANCH 45 47
ATOM     47  CB  GLU C 501      78.528  29.492 -14.193  1.00104.94 LIG 0.06  C 
BRANCH 47 48
ATOM     48  CG  GLU C 501      79.089  29.556 -15.602  1.00111.45 LIG 0.12  C 
BRANCH 48 49
ATOM     49  CD  GLU C 501      79.813  28.285 -15.998  1.00115.68 LIG 0.17  C 
ATOM     50 OE1  GLU C 501      79.380  27.626 -16.969  1.00117.56 LIG-0.65  OA
ATOM     51 OE2  GLU C 501      80.816  27.947 -15.335  1.00122.11 LIG-0.65  OA
ENDBRANCH 48 49
ENDBRANCH 47 48
ENDBRANCH 45 47
ENDBRANCH 43 45
ENDBRANCH 37 41
ENDBRANCH 35 37
ENDBRANCH 32 33
BRANCH 32 52
ATOM     52  CB  SER C 503      85.760  27.313 -15.346  1.00 49.05 LIG 0.20  C 
BRANCH 52 53
ATOM     53 OG   SER C 503      86.064  25.980 -14.974  1.00 54.59 LIG-0.40  OA
ATOM     54 HG   SER C 503      86.016  25.483 -15.650  1.00 54.59 LIG 0.21  HD
ENDBRANCH 52 53
ENDBRANCH 32 52
ENDBRANCH 1 32
TORSDOF 25
ENDMDL
MODEL 54
USER: ADFR SOLUTION from run 64
USER: SCORE 16.941974 LL:  -5.198 LR: -13.095 RR:   0.000 FEB:  -5.638
USER: RMSD 6.244275
USER: SEED 63
USER: STATUS searching
USER: GENES 27
USER: genes 0 Translation |==|  0.68378 0.38446 0.40243
USER: genes 1 Rotation |==|  0.41169 0.64838 0.14192 0.80325
USER: genes 2 Torsion [C]-N--CA-[CB] |==|  0.14062
USER: genes 3 Torsion [N]-CA--C-[N] |==|  0.13502
USER: genes 4 Torsion [C]-N--CA-[C] |==|  0.20464
USER: genes 5 Torsion [N]-CA--CB-[OG] |==|  0.27592
USER: genes 6 Torsion [CA]-CB--OG-[HG] |==|  0.75077
USER: genes 7 Torsion [N]-CA--C-[N] |==|  0.02264
USER: genes 8 Torsion [C]-N--CA-[CB] |==|  0.76413
USER: genes 9 Torsion [N]-CA--C-[O] |==|  0.11457
USER: genes 10 Torsion [N]-CA--CB-[CG] |==|  0.96000
USER: genes 11 Torsion [CA]-CB--CG-[CD] |==|  0.37745
USER: genes 12 Torsion [CB]-CG--CD-[NE2] |==|  0.99431
USER: genes 13 Torsion [N]-CA--CB-[CG] |==|  0.66696
USER: genes 14 Torsion [CA]-CB--CG-[OD1] |==|  0.68442
USER: genes 15 Torsion [N]-C--CA-[N] |==|  0.94444
USER: genes 16 Torsion [C]-CA--N-[C] |==|  0.21987
USER: genes 17 Torsion [N]-C--CA-[N] |==|  0.89340
USER: genes 18 Torsion [C]-CA--CB-[OG] |==|  0.52871
USER: genes 19 Torsion [CA]-CB--OG-[HG] |==|  0.78743
USER: genes 20 Torsion [C]-CA--N-[C] |==|  0.73518
USER: genes 21 Torsion [N]-C--CA-[N] |==|  0.76983
USER: genes 22 Torsion [C]-CA--CB-[CG] |==|  0.65568
USER: genes 23 Torsion [CA]-CB--CG-[CD] |==|  0.23212
USER: genes 24 Torsion [CB]-CG--CD-[OE1] |==|  0.37357
USER: genes 25 Torsion [C]-CA--CB-[OG] |==|  0.47080
USER: genes 26 Torsion [CA]-CB--OG-[HG] |==|  0.94284
ROOT
ATOM      1  C   SER C 503      82.441  23.932 -16.373  1.00 42.27 LIG 0.24  C 
ATOM      2 O    SER C 503      82.610  22.789 -16.794  1.00 46.84 LIG-0.27  OA
ATOM      3  N   ASP C 504      81.257  24.411 -16.016  1.00 51.15 LIG-0.34  N 
ATOM      4 H    ASP C 504      81.152  25.174 -15.633  1.00 51.15 LIG 0.16  HD
ENDROOT
BRANCH 3 5
ATOM      5  CA  ASP C 504      80.008  23.685 -16.243  1.00 56.79 LIG 0.19  C 
BRANCH 5 6
ATOM      6  C   ASP C 504      78.839  24.417 -15.568  1.00 67.42 LIG 0.24  C 
ATOM      7  N   SER C 505      78.752  25.723 -15.802  1.00 81.52 LIG-0.34  N 
ATOM      8 H    SER C 505      79.310  26.159 -16.289  1.00 81.52 LIG 0.16  HD
ATOM      9 O    ASP C 504      78.034  23.809 -14.859  1.00 66.01 LIG-0.27  OA
BRANCH 7 10
ATOM     10  CA  SER C 505      77.680  26.541 -15.240  1.00 90.64 LIG 0.20  C 
BRANCH 10 11
ATOM     11  CB  SER C 505      76.323  25.887 -15.476  1.00 89.01 LIG 0.20  C 
BRANCH 11 12
ATOM     12 OG   SER C 505      75.898  25.201 -14.314  1.00 87.22 LIG-0.40  OA
ATOM     13 HG   SER C 505      76.178  24.410 -14.338  1.00 87.22 LIG 0.21  HD
ENDBRANCH 11 12
ENDBRANCH 10 11
BRANCH 10 14
ATOM     14  C   SER C 505      77.909  26.763 -13.747  1.00 98.93 LIG 0.24  C 
ATOM     15  N   GLN C 506      79.075  26.347 -13.262  1.00110.12 LIG-0.35  N 
ATOM     16 H    GLN C 506      79.742  26.107 -13.751  1.00110.12 LIG 0.16  HD
ATOM     17 O    SER C 505      77.051  27.312 -13.053  1.00 94.47 LIG-0.27  OA
BRANCH 15 18
ATOM     18  CA  GLN C 506      79.319  26.262 -11.827  1.00115.19 LIG 0.16  C 
BRANCH 18 19
ATOM     19  C   GLN C 506      78.091  25.774 -11.060  1.00118.66 LIG 0.22  C 
ATOM     20 O    GLN C 506      77.392  24.858 -11.500  1.00117.46 LIG-0.29  OA
ENDBRANCH 18 19
BRANCH 18 21
ATOM     21  CB  GLN C 506      79.770  27.629 -11.303  1.00118.15 LIG 0.04  C 
BRANCH 21 22
ATOM     22  CG  GLN C 506      80.186  28.608 -12.412  1.00119.48 LIG 0.10  C 
BRANCH 22 23
ATOM     23  CD  GLN C 506      79.640  30.024 -12.223  1.00116.76 LIG 0.21  C 
ATOM     24  NE2 GLN C 506      78.855  30.222 -11.169  1.00111.94 LIG-0.37  N 
ATOM     25 21HE GLN C 506      78.676  29.570 -10.637  1.00111.94 LIG 0.16  HD
ATOM     26 22HE GLN C 506      78.527  31.002 -11.019  1.00111.94 LIG 0.16  HD
ATOM     27 OE1  GLN C 506      79.927  30.924 -13.012  1.00116.06 LIG-0.27  OA
ENDBRANCH 22 23
ENDBRANCH 21 22
ENDBRANCH 18 21
ENDBRANCH 15 18
ENDBRANCH 10 14
ENDBRANCH 7 10
ENDBRANCH 5 6
BRANCH 5 28
ATOM     28  CB  ASP C 504      80.137  22.248 -15.709  1.00 57.84 LIG 0.15  C 
BRANCH 28 29
ATOM     29  CG  ASP C 504      79.942  21.184 -16.784  1.00 60.92 LIG 0.17  C 
ATOM     30 OD2  ASP C 504      80.797  21.103 -17.698  1.00 60.43 LIG-0.65  OA
ATOM     31 OD1  ASP C 504      78.946  20.432 -16.719  1.00 59.69 LIG-0.65  OA
ENDBRANCH 28 29
ENDBRANCH 5 28
ENDBRANCH 3 5
BRANCH 1 32
ATOM     32  CA  SER C 503      83.616  24.880 -16.217  1.00 44.19 LIG 0.20  C 
BRANCH 32 33
ATOM     33  N   SER C 503      83.156  26.269 -16.151  1.00 47.77 LIG-0.34  N 
ATOM     34 H    SER C 503      83.240  26.709 -16.885  1.00 47.77 LIG 0.16  HD
ATOM     35  C   SER C 502      82.654  26.778 -15.027  1.00 50.79 LIG 0.24  C 
ATOM     36 O    SER C 502      82.271  26.088 -14.093  1.00 48.58 LIG-0.27  OA
BRANCH 35 37
ATOM     37  CA  SER C 502      82.582  28.292 -14.939  1.00 60.54 LIG 0.20  C 
BRANCH 37 38
ATOM     38  CB  SER C 502      81.306  28.808 -15.582  1.00 53.64 LIG 0.20  C 
BRANCH 38 39
ATOM     39 OG   SER C 502      81.328  30.210 -15.720  1.00 59.09 LIG-0.40  OA
ATOM     40 HG   SER C 502      81.179  30.568 -14.975  1.00 59.09 LIG 0.21  HD
ENDBRANCH 38 39
ENDBRANCH 37 38
BRANCH 37 41
ATOM     41  N   SER C 502      83.780  28.843 -15.561  1.00 72.56 LIG-0.34  N 
ATOM     42 H    SER C 502      83.737  28.936 -16.415  1.00 72.56 LIG 0.16  HD
ATOM     43  C   GLU C 501      84.834  29.161 -14.816  1.00101.90 LIG 0.26  C 
ATOM     44 O    GLU C 501      84.746  29.358 -13.603  1.00103.22 LIG-0.27  OA
BRANCH 43 45
ATOM     45  CA  GLU C 501      86.183  29.304 -15.532  1.00101.55 LIG 0.40  C 
ATOM     46  N   GLU C 501      86.804  27.995 -15.707  1.00100.94 LIG 0.61  N 
BRANCH 45 47
ATOM     47  CB  GLU C 501      86.004  29.990 -16.889  1.00104.94 LIG 0.06  C 
BRANCH 47 48
ATOM     48  CG  GLU C 501      86.538  29.190 -18.064  1.00111.45 LIG 0.12  C 
BRANCH 48 49
ATOM     49  CD  GLU C 501      85.546  28.158 -18.562  1.00115.68 LIG 0.17  C 
ATOM     50 OE1  GLU C 501      85.355  28.055 -19.794  1.00117.56 LIG-0.65  OA
ATOM     51 OE2  GLU C 501      84.959  27.449 -17.717  1.00122.11 LIG-0.65  OA
ENDBRANCH 48 49
ENDBRANCH 47 48
ENDBRANCH 45 47
ENDBRANCH 43 45
ENDBRANCH 37 41
ENDBRANCH 35 37
ENDBRANCH 32 33
BRANCH 32 52
ATOM     52  CB  SER C 503      84.405  24.504 -14.971  1.00 49.05 LIG 0.20  C 
BRANCH 52 53
ATOM     53 OG   SER C 503      85.632  25.210 -14.931  1.00 54.59 LIG-0.40  OA
ATOM     54 HG   SER C 503      85.828  25.477 -15.703  1.00 54.59 LIG 0.21  HD
ENDBRANCH 52 53
ENDBRANCH 32 52
ENDBRANCH 1 32
TORSDOF 25
ENDMDL
MODEL 55
USER: ADFR SOLUTION from run 35
USER: SCORE 16.849990 LL:  -5.477 LR: -13.081 RR:   0.000 FEB:  -5.623
USER: RMSD 4.948537
USER: SEED 34
USER: STATUS no improvement in best in 4 clusters for 5 generations
USER: GENES 27
USER: genes 0 Translation |==|  0.48181 0.50518 0.48198
USER: genes 1 Rotation |==|  0.73039 0.19233 0.31537 0.76110
USER: genes 2 Torsion [C]-N--CA-[CB] |==|  0.46458
USER: genes 3 Torsion [N]-CA--C-[N] |==|  0.50932
USER: genes 4 Torsion [C]-N--CA-[C] |==|  0.79192
USER: genes 5 Torsion [N]-CA--CB-[OG] |==|  0.99465
USER: genes 6 Torsion [CA]-CB--OG-[HG] |==|  0.87019
USER: genes 7 Torsion [N]-CA--C-[N] |==|  0.02752
USER: genes 8 Torsion [C]-N--CA-[CB] |==|  0.49931
USER: genes 9 Torsion [N]-CA--C-[O] |==|  0.82803
USER: genes 10 Torsion [N]-CA--CB-[CG] |==|  0.99843
USER: genes 11 Torsion [CA]-CB--CG-[CD] |==|  0.25037
USER: genes 12 Torsion [CB]-CG--CD-[NE2] |==|  0.91550
USER: genes 13 Torsion [N]-CA--CB-[CG] |==|  0.52737
USER: genes 14 Torsion [CA]-CB--CG-[OD1] |==|  0.07708
USER: genes 15 Torsion [N]-C--CA-[N] |==|  0.45229
USER: genes 16 Torsion [C]-CA--N-[C] |==|  0.82000
USER: genes 17 Torsion [N]-C--CA-[N] |==|  0.98190
USER: genes 18 Torsion [C]-CA--CB-[OG] |==|  0.35912
USER: genes 19 Torsion [CA]-CB--OG-[HG] |==|  0.22263
USER: genes 20 Torsion [C]-CA--N-[C] |==|  0.80560
USER: genes 21 Torsion [N]-C--CA-[N] |==|  0.15834
USER: genes 22 Torsion [C]-CA--CB-[CG] |==|  0.35656
USER: genes 23 Torsion [CA]-CB--CG-[CD] |==|  0.88982
USER: genes 24 Torsion [CB]-CG--CD-[OE1] |==|  0.20408
USER: genes 25 Torsion [C]-CA--CB-[OG] |==|  0.55999
USER: genes 26 Torsion [CA]-CB--OG-[HG] |==|  0.36310
ROOT
ATOM      1  C   SER C 503      78.957  26.467 -14.882  1.00 42.27 LIG 0.24  C 
ATOM      2 O    SER C 503      78.810  25.547 -14.081  1.00 46.84 LIG-0.27  OA
ATOM      3  N   ASP C 504      79.724  26.380 -15.961  1.00 51.15 LIG-0.34  N 
ATOM      4 H    ASP C 504      79.752  26.985 -16.571  1.00 51.15 LIG 0.16  HD
ENDROOT
BRANCH 3 5
ATOM      5  CA  ASP C 504      80.601  25.239 -16.218  1.00 56.79 LIG 0.19  C 
BRANCH 5 6
ATOM      6  C   ASP C 504      81.780  25.242 -15.233  1.00 67.42 LIG 0.24  C 
ATOM      7  N   SER C 505      82.691  24.290 -15.407  1.00 81.52 LIG-0.34  N 
ATOM      8 H    SER C 505      82.643  23.689 -16.020  1.00 81.52 LIG 0.16  HD
ATOM      9 O    ASP C 504      81.861  26.091 -14.343  1.00 66.01 LIG-0.27  OA
BRANCH 7 10
ATOM     10  CA  SER C 505      83.874  24.184 -14.556  1.00 90.64 LIG 0.20  C 
BRANCH 10 11
ATOM     11  CB  SER C 505      84.507  22.803 -14.683  1.00 89.01 LIG 0.20  C 
BRANCH 11 12
ATOM     12 OG   SER C 505      83.747  21.992 -15.559  1.00 87.22 LIG-0.40  OA
ATOM     13 HG   SER C 505      82.934  22.055 -15.363  1.00 87.22 LIG 0.21  HD
ENDBRANCH 11 12
ENDBRANCH 10 11
BRANCH 10 14
ATOM     14  C   SER C 505      84.886  25.267 -14.916  1.00 98.93 LIG 0.24  C 
ATOM     15  N   GLN C 506      84.465  26.212 -15.752  1.00110.12 LIG-0.35  N 
ATOM     16 H    GLN C 506      83.642  26.327 -15.973  1.00110.12 LIG 0.16  HD
ATOM     17 O    SER C 505      86.021  25.254 -14.436  1.00 94.47 LIG-0.27  OA
BRANCH 15 18
ATOM     18  CA  GLN C 506      85.393  27.149 -16.375  1.00115.19 LIG 0.16  C 
BRANCH 18 19
ATOM     19  C   GLN C 506      86.205  27.930 -15.343  1.00118.66 LIG 0.22  C 
ATOM     20 O    GLN C 506      85.650  28.674 -14.531  1.00117.46 LIG-0.29  OA
ENDBRANCH 18 19
BRANCH 18 21
ATOM     21  CB  GLN C 506      84.618  28.108 -17.285  1.00118.15 LIG 0.04  C 
BRANCH 21 22
ATOM     22  CG  GLN C 506      83.107  27.837 -17.321  1.00119.48 LIG 0.10  C 
BRANCH 22 23
ATOM     23  CD  GLN C 506      82.317  28.606 -16.261  1.00116.76 LIG 0.21  C 
ATOM     24  NE2 GLN C 506      82.951  28.873 -15.124  1.00111.94 LIG-0.37  N 
ATOM     25 21HE GLN C 506      83.764  28.613 -15.014  1.00111.94 LIG 0.16  HD
ATOM     26 22HE GLN C 506      82.549  29.305 -14.499  1.00111.94 LIG 0.16  HD
ATOM     27 OE1  GLN C 506      81.155  28.956 -16.467  1.00116.06 LIG-0.27  OA
ENDBRANCH 22 23
ENDBRANCH 21 22
ENDBRANCH 18 21
ENDBRANCH 15 18
ENDBRANCH 10 14
ENDBRANCH 7 10
ENDBRANCH 5 6
BRANCH 5 28
ATOM     28  CB  ASP C 504      81.102  25.284 -17.672  1.00 57.84 LIG 0.15  C 
BRANCH 28 29
ATOM     29  CG  ASP C 504      81.828  24.013 -18.100  1.00 60.92 LIG 0.17  C 
ATOM     30 OD2  ASP C 504      82.704  24.104 -18.994  1.00 60.43 LIG-0.65  OA
ATOM     31 OD1  ASP C 504      81.531  22.930 -17.551  1.00 59.69 LIG-0.65  OA
ENDBRANCH 28 29
ENDBRANCH 5 28
ENDBRANCH 3 5
BRANCH 1 32
ATOM     32  CA  SER C 503      78.235  27.787 -14.686  1.00 44.19 LIG 0.20  C 
BRANCH 32 33
ATOM     33  N   SER C 503      77.135  27.640 -13.729  1.00 47.77 LIG-0.34  N 
ATOM     34 H    SER C 503      77.232  28.089 -13.002  1.00 47.77 LIG 0.16  HD
ATOM     35  C   SER C 502      76.085  26.866 -13.997  1.00 50.79 LIG 0.24  C 
ATOM     36 O    SER C 502      75.814  26.472 -15.122  1.00 48.58 LIG-0.27  OA
BRANCH 35 37
ATOM     37  CA  SER C 502      75.216  26.467 -12.817  1.00 60.54 LIG 0.20  C 
BRANCH 37 38
ATOM     38  CB  SER C 502      73.809  27.019 -12.975  1.00 53.64 LIG 0.20  C 
BRANCH 38 39
ATOM     39 OG   SER C 502      72.838  26.014 -12.795  1.00 59.09 LIG-0.40  OA
ATOM     40 HG   SER C 502      72.720  25.882 -11.975  1.00 59.09 LIG 0.21  HD
ENDBRANCH 38 39
ENDBRANCH 37 38
BRANCH 37 41
ATOM     41  N   SER C 502      75.862  26.933 -11.596  1.00 72.56 LIG-0.34  N 
ATOM     42 H    SER C 502      75.464  27.582 -11.197  1.00 72.56 LIG 0.16  HD
ATOM     43  C   GLU C 501      76.985  26.360 -11.174  1.00101.90 LIG 0.26  C 
ATOM     44 O    GLU C 501      77.329  25.236 -11.542  1.00103.22 LIG-0.27  OA
BRANCH 43 45
ATOM     45  CA  GLU C 501      77.844  27.149 -10.176  1.00101.55 LIG 0.40  C 
ATOM     46  N   GLU C 501      77.061  27.487  -8.992  1.00100.94 LIG 0.61  N 
BRANCH 45 47
ATOM     47  CB  GLU C 501      79.084  26.344  -9.778  1.00104.94 LIG 0.06  C 
BRANCH 47 48
ATOM     48  CG  GLU C 501      80.391  27.103  -9.927  1.00111.45 LIG 0.12  C 
BRANCH 48 49
ATOM     49  CD  GLU C 501      80.427  27.958 -11.178  1.00115.68 LIG 0.17  C 
ATOM     50 OE1  GLU C 501      79.746  29.007 -11.207  1.00117.56 LIG-0.65  OA
ATOM     51 OE2  GLU C 501      81.138  27.577 -12.132  1.00122.11 LIG-0.65  OA
ENDBRANCH 48 49
ENDBRANCH 47 48
ENDBRANCH 45 47
ENDBRANCH 43 45
ENDBRANCH 37 41
ENDBRANCH 35 37
ENDBRANCH 32 33
BRANCH 32 52
ATOM     52  CB  SER C 503      79.229  28.841 -14.219  1.00 49.05 LIG 0.20  C 
BRANCH 52 53
ATOM     53 OG   SER C 503      78.555  29.902 -13.566  1.00 54.59 LIG-0.40  OA
ATOM     54 HG   SER C 503      78.930  30.064 -12.832  1.00 54.59 LIG 0.21  HD
ENDBRANCH 52 53
ENDBRANCH 32 52
ENDBRANCH 1 32
TORSDOF 25
ENDMDL
MODEL 56
USER: ADFR SOLUTION from run 160
USER: SCORE 15.257756 LL:  -4.192 LR: -13.063 RR:   0.000 FEB:  -5.605
USER: RMSD 6.241539
USER: SEED 159
USER: STATUS searching
USER: GENES 27
USER: genes 0 Translation |==|  0.64850 0.39036 0.41049
USER: genes 1 Rotation |==|  0.31061 0.20775 0.14382 0.54310
USER: genes 2 Torsion [C]-N--CA-[CB] |==|  0.80556
USER: genes 3 Torsion [N]-CA--C-[N] |==|  0.54443
USER: genes 4 Torsion [C]-N--CA-[C] |==|  0.76054
USER: genes 5 Torsion [N]-CA--CB-[OG] |==|  0.01067
USER: genes 6 Torsion [CA]-CB--OG-[HG] |==|  0.42627
USER: genes 7 Torsion [N]-CA--C-[N] |==|  0.30088
USER: genes 8 Torsion [C]-N--CA-[CB] |==|  0.52359
USER: genes 9 Torsion [N]-CA--C-[O] |==|  0.25100
USER: genes 10 Torsion [N]-CA--CB-[CG] |==|  0.16489
USER: genes 11 Torsion [CA]-CB--CG-[CD] |==|  0.57606
USER: genes 12 Torsion [CB]-CG--CD-[NE2] |==|  0.61263
USER: genes 13 Torsion [N]-CA--CB-[CG] |==|  0.83571
USER: genes 14 Torsion [CA]-CB--CG-[OD1] |==|  0.13960
USER: genes 15 Torsion [N]-C--CA-[N] |==|  0.25464
USER: genes 16 Torsion [C]-CA--N-[C] |==|  0.18057
USER: genes 17 Torsion [N]-C--CA-[N] |==|  0.47457
USER: genes 18 Torsion [C]-CA--CB-[OG] |==|  0.76867
USER: genes 19 Torsion [CA]-CB--OG-[HG] |==|  0.82814
USER: genes 20 Torsion [C]-CA--N-[C] |==|  0.75571
USER: genes 21 Torsion [N]-C--CA-[N] |==|  0.89261
USER: genes 22 Torsion [C]-CA--CB-[CG] |==|  0.91194
USER: genes 23 Torsion [CA]-CB--CG-[CD] |==|  0.77973
USER: genes 24 Torsion [CB]-CG--CD-[OE1] |==|  0.78638
USER: genes 25 Torsion [C]-CA--CB-[OG] |==|  0.57947
USER: genes 26 Torsion [CA]-CB--OG-[HG] |==|  0.97319
ROOT
ATOM      1  C   SER C 503      81.833  24.056 -16.222  1.00 42.27 LIG 0.24  C 
ATOM      2 O    SER C 503      81.341  24.286 -15.120  1.00 46.84 LIG-0.27  OA
ATOM      3  N   ASP C 504      81.110  23.827 -17.311  1.00 51.15 LIG-0.34  N 
ATOM      4 H    ASP C 504      81.449  23.762 -18.099  1.00 51.15 LIG 0.16  HD
ENDROOT
BRANCH 3 5
ATOM      5  CA  ASP C 504      79.658  23.661 -17.276  1.00 56.79 LIG 0.19  C 
BRANCH 5 6
ATOM      6  C   ASP C 504      79.006  24.841 -16.542  1.00 67.42 LIG 0.24  C 
ATOM      7  N   SER C 505      77.748  24.665 -16.150  1.00 81.52 LIG-0.34  N 
ATOM      8 H    SER C 505      77.298  23.947 -16.296  1.00 81.52 LIG 0.16  HD
ATOM      9 O    ASP C 504      79.632  25.883 -16.331  1.00 66.01 LIG-0.27  OA
BRANCH 7 10
ATOM     10  CA  SER C 505      77.009  25.697 -15.425  1.00 90.64 LIG 0.20  C 
BRANCH 10 11
ATOM     11  CB  SER C 505      75.515  25.586 -15.705  1.00 89.01 LIG 0.20  C 
BRANCH 11 12
ATOM     12 OG   SER C 505      75.248  24.460 -16.520  1.00 87.22 LIG-0.40  OA
ATOM     13 HG   SER C 505      74.466  24.192 -16.379  1.00 87.22 LIG 0.21  HD
ENDBRANCH 11 12
ENDBRANCH 10 11
BRANCH 10 14
ATOM     14  C   SER C 505      77.278  25.587 -13.927  1.00 98.93 LIG 0.24  C 
ATOM     15  N   GLN C 506      78.035  26.542 -13.394  1.00110.12 LIG-0.35  N 
ATOM     16 H    GLN C 506      78.247  27.270 -13.799  1.00110.12 LIG 0.16  HD
ATOM     17 O    SER C 505      76.797  24.664 -13.267  1.00 94.47 LIG-0.27  OA
BRANCH 15 18
ATOM     18  CA  GLN C 506      78.576  26.422 -12.045  1.00115.19 LIG 0.16  C 
BRANCH 18 19
ATOM     19  C   GLN C 506      77.513  26.004 -11.030  1.00118.66 LIG 0.22  C 
ATOM     20 O    GLN C 506      77.304  24.814 -10.787  1.00117.46 LIG-0.29  OA
ENDBRANCH 18 19
BRANCH 18 21
ATOM     21  CB  GLN C 506      79.221  27.749 -11.632  1.00118.15 LIG 0.04  C 
BRANCH 21 22
ATOM     22  CG  GLN C 506      78.246  28.936 -11.643  1.00119.48 LIG 0.10  C 
BRANCH 22 23
ATOM     23  CD  GLN C 506      78.919  30.286 -11.892  1.00116.76 LIG 0.21  C 
ATOM     24  NE2 GLN C 506      78.480  31.312 -11.170  1.00111.94 LIG-0.37  N 
ATOM     25 21HE GLN C 506      77.846  31.196 -10.600  1.00111.94 LIG 0.16  HD
ATOM     26 22HE GLN C 506      78.829  32.091 -11.272  1.00111.94 LIG 0.16  HD
ATOM     27 OE1  GLN C 506      79.824  30.400 -12.719  1.00116.06 LIG-0.27  OA
ENDBRANCH 22 23
ENDBRANCH 21 22
ENDBRANCH 18 21
ENDBRANCH 15 18
ENDBRANCH 10 14
ENDBRANCH 7 10
ENDBRANCH 5 6
BRANCH 5 28
ATOM     28  CB  ASP C 504      79.301  22.328 -16.596  1.00 57.84 LIG 0.15  C 
BRANCH 28 29
ATOM     29  CG  ASP C 504      79.898  21.113 -17.298  1.00 60.92 LIG 0.17  C 
ATOM     30 OD2  ASP C 504      79.135  20.157 -17.577  1.00 60.43 LIG-0.65  OA
ATOM     31 OD1  ASP C 504      81.117  21.109 -17.574  1.00 59.69 LIG-0.65  OA
ENDBRANCH 28 29
ENDBRANCH 5 28
ENDBRANCH 3 5
BRANCH 1 32
ATOM     32  CA  SER C 503      83.339  24.037 -16.409  1.00 44.19 LIG 0.20  C 
BRANCH 32 33
ATOM     33  N   SER C 503      83.841  25.381 -16.705  1.00 47.77 LIG-0.34  N 
ATOM     34 H    SER C 503      84.184  25.470 -17.489  1.00 47.77 LIG 0.16  HD
ATOM     35  C   SER C 502      83.758  26.363 -15.809  1.00 50.79 LIG 0.24  C 
ATOM     36 O    SER C 502      83.024  26.316 -14.832  1.00 48.58 LIG-0.27  OA
BRANCH 35 37
ATOM     37  CA  SER C 502      84.642  27.575 -16.045  1.00 60.54 LIG 0.20  C 
BRANCH 37 38
ATOM     38  CB  SER C 502      86.109  27.202 -15.924  1.00 53.64 LIG 0.20  C 
BRANCH 38 39
ATOM     39 OG   SER C 502      86.533  27.203 -14.580  1.00 59.09 LIG-0.40  OA
ATOM     40 HG   SER C 502      86.450  27.975 -14.261  1.00 59.09 LIG 0.21  HD
ENDBRANCH 38 39
ENDBRANCH 37 38
BRANCH 37 41
ATOM     41  N   SER C 502      84.253  28.614 -15.099  1.00 72.56 LIG-0.34  N 
ATOM     42 H    SER C 502      84.690  28.616 -14.359  1.00 72.56 LIG 0.16  HD
ATOM     43  C   GLU C 501      83.285  29.472 -15.409  1.00101.90 LIG 0.26  C 
ATOM     44 O    GLU C 501      82.937  29.678 -16.573  1.00103.22 LIG-0.27  OA
BRANCH 43 45
ATOM     45  CA  GLU C 501      82.622  30.231 -14.253  1.00101.55 LIG 0.40  C 
ATOM     46  N   GLU C 501      82.460  29.354 -13.098  1.00100.94 LIG 0.61  N 
BRANCH 45 47
ATOM     47  CB  GLU C 501      83.448  31.462 -13.870  1.00104.94 LIG 0.06  C 
BRANCH 47 48
ATOM     48  CG  GLU C 501      84.944  31.295 -14.075  1.00111.45 LIG 0.12  C 
BRANCH 48 49
ATOM     49  CD  GLU C 501      85.598  30.508 -12.958  1.00115.68 LIG 0.17  C 
ATOM     50 OE1  GLU C 501      85.812  31.080 -11.866  1.00117.56 LIG-0.65  OA
ATOM     51 OE2  GLU C 501      85.898  29.315 -13.174  1.00122.11 LIG-0.65  OA
ENDBRANCH 48 49
ENDBRANCH 47 48
ENDBRANCH 45 47
ENDBRANCH 43 45
ENDBRANCH 37 41
ENDBRANCH 35 37
ENDBRANCH 32 33
BRANCH 32 52
ATOM     52  CB  SER C 503      83.995  23.471 -15.158  1.00 49.05 LIG 0.20  C 
BRANCH 52 53
ATOM     53 OG   SER C 503      85.295  24.009 -14.994  1.00 54.59 LIG-0.40  OA
ATOM     54 HG   SER C 503      85.510  24.437 -15.685  1.00 54.59 LIG 0.21  HD
ENDBRANCH 52 53
ENDBRANCH 32 52
ENDBRANCH 1 32
TORSDOF 25
ENDMDL
MODEL 57
USER: ADFR SOLUTION from run 58
USER: SCORE 16.073225 LL:  -4.343 LR: -13.048 RR:   0.000 FEB:  -5.591
USER: RMSD 5.785990
USER: SEED 57
USER: STATUS no improvement in best in 7 clusters for 5 generations
USER: GENES 27
USER: genes 0 Translation |==|  0.43440 0.39124 0.47933
USER: genes 1 Rotation |==|  0.77699 0.17125 0.26766 0.60593
USER: genes 2 Torsion [C]-N--CA-[CB] |==|  0.20016
USER: genes 3 Torsion [N]-CA--C-[N] |==|  0.85677
USER: genes 4 Torsion [C]-N--CA-[C] |==|  0.62989
USER: genes 5 Torsion [N]-CA--CB-[OG] |==|  0.55303
USER: genes 6 Torsion [CA]-CB--OG-[HG] |==|  0.93732
USER: genes 7 Torsion [N]-CA--C-[N] |==|  0.47650
USER: genes 8 Torsion [C]-N--CA-[CB] |==|  0.19486
USER: genes 9 Torsion [N]-CA--C-[O] |==|  0.03926
USER: genes 10 Torsion [N]-CA--CB-[CG] |==|  0.36139
USER: genes 11 Torsion [CA]-CB--CG-[CD] |==|  0.68371
USER: genes 12 Torsion [CB]-CG--CD-[NE2] |==|  0.21483
USER: genes 13 Torsion [N]-CA--CB-[CG] |==|  0.54852
USER: genes 14 Torsion [CA]-CB--CG-[OD1] |==|  0.80733
USER: genes 15 Torsion [N]-C--CA-[N] |==|  0.38836
USER: genes 16 Torsion [C]-CA--N-[C] |==|  0.63189
USER: genes 17 Torsion [N]-C--CA-[N] |==|  0.88061
USER: genes 18 Torsion [C]-CA--CB-[OG] |==|  0.81285
USER: genes 19 Torsion [CA]-CB--OG-[HG] |==|  0.96313
USER: genes 20 Torsion [C]-CA--N-[C] |==|  0.71279
USER: genes 21 Torsion [N]-C--CA-[N] |==|  0.50853
USER: genes 22 Torsion [C]-CA--CB-[CG] |==|  0.89008
USER: genes 23 Torsion [CA]-CB--CG-[CD] |==|  0.75966
USER: genes 24 Torsion [CB]-CG--CD-[OE1] |==|  0.09512
USER: genes 25 Torsion [C]-CA--CB-[OG] |==|  0.75379
USER: genes 26 Torsion [CA]-CB--OG-[HG] |==|  0.88067
ROOT
ATOM      1  C   SER C 503      78.139  24.074 -14.932  1.00 42.27 LIG 0.24  C 
ATOM      2 O    SER C 503      77.523  23.021 -14.787  1.00 46.84 LIG-0.27  OA
ATOM      3  N   ASP C 504      79.283  24.165 -15.597  1.00 51.15 LIG-0.34  N 
ATOM      4 H    ASP C 504      79.665  24.913 -15.781  1.00 51.15 LIG 0.16  HD
ENDROOT
BRANCH 3 5
ATOM      5  CA  ASP C 504      80.011  22.994 -16.084  1.00 56.79 LIG 0.19  C 
BRANCH 5 6
ATOM      6  C   ASP C 504      81.441  23.385 -16.484  1.00 67.42 LIG 0.24  C 
ATOM      7  N   SER C 505      81.555  24.418 -17.314  1.00 81.52 LIG-0.34  N 
ATOM      8 H    SER C 505      80.884  24.851 -17.632  1.00 81.52 LIG 0.16  HD
ATOM      9 O    ASP C 504      82.414  22.769 -16.045  1.00 66.01 LIG-0.27  OA
BRANCH 7 10
ATOM     10  CA  SER C 505      82.855  24.910 -17.764  1.00 90.64 LIG 0.20  C 
BRANCH 10 11
ATOM     11  CB  SER C 505      83.126  24.478 -19.201  1.00 89.01 LIG 0.20  C 
BRANCH 11 12
ATOM     12 OG   SER C 505      84.509  24.561 -19.487  1.00 87.22 LIG-0.40  OA
ATOM     13 HG   SER C 505      84.872  25.101 -18.958  1.00 87.22 LIG 0.21  HD
ENDBRANCH 11 12
ENDBRANCH 10 11
BRANCH 10 14
ATOM     14  C   SER C 505      82.915  26.430 -17.647  1.00 98.93 LIG 0.24  C 
ATOM     15  N   GLN C 506      84.103  26.990 -17.860  1.00110.12 LIG-0.35  N 
ATOM     16 H    GLN C 506      84.777  26.575 -18.195  1.00110.12 LIG 0.16  HD
ATOM     17 O    SER C 505      81.903  27.082 -17.383  1.00 94.47 LIG-0.27  OA
BRANCH 15 18
ATOM     18  CA  GLN C 506      84.357  28.388 -17.532  1.00115.19 LIG 0.16  C 
BRANCH 18 19
ATOM     19  C   GLN C 506      85.659  28.899 -18.148  1.00118.66 LIG 0.22  C 
ATOM     20 O    GLN C 506      86.233  28.262 -19.034  1.00117.46 LIG-0.29  OA
ENDBRANCH 18 19
BRANCH 18 21
ATOM     21  CB  GLN C 506      84.381  28.561 -16.009  1.00118.15 LIG 0.04  C 
BRANCH 21 22
ATOM     22  CG  GLN C 506      85.612  29.322 -15.495  1.00119.48 LIG 0.10  C 
BRANCH 22 23
ATOM     23  CD  GLN C 506      86.553  28.470 -14.642  1.00116.76 LIG 0.21  C 
ATOM     24  NE2 GLN C 506      87.348  27.628 -15.294  1.00111.94 LIG-0.37  N 
ATOM     25 21HE GLN C 506      87.313  27.581 -16.152  1.00111.94 LIG 0.16  HD
ATOM     26 22HE GLN C 506      87.896  27.129 -14.858  1.00111.94 LIG 0.16  HD
ATOM     27 OE1  GLN C 506      86.565  28.574 -13.415  1.00116.06 LIG-0.27  OA
ENDBRANCH 22 23
ENDBRANCH 21 22
ENDBRANCH 18 21
ENDBRANCH 15 18
ENDBRANCH 10 14
ENDBRANCH 7 10
ENDBRANCH 5 6
BRANCH 5 28
ATOM     28  CB  ASP C 504      79.260  22.371 -17.274  1.00 57.84 LIG 0.15  C 
BRANCH 28 29
ATOM     29  CG  ASP C 504      79.689  20.940 -17.578  1.00 60.92 LIG 0.17  C 
ATOM     30 OD2  ASP C 504      78.873  20.016 -17.348  1.00 60.43 LIG-0.65  OA
ATOM     31 OD1  ASP C 504      80.831  20.735 -18.044  1.00 59.69 LIG-0.65  OA
ENDBRANCH 28 29
ENDBRANCH 5 28
ENDBRANCH 3 5
BRANCH 1 32
ATOM     32  CA  SER C 503      77.602  25.371 -14.355  1.00 44.19 LIG 0.20  C 
BRANCH 32 33
ATOM     33  N   SER C 503      76.148  25.447 -14.516  1.00 47.77 LIG-0.34  N 
ATOM     34 H    SER C 503      75.724  24.736 -14.280  1.00 47.77 LIG 0.16  HD
ATOM     35  C   SER C 502      75.561  26.544 -14.992  1.00 50.79 LIG 0.24  C 
ATOM     36 O    SER C 502      76.120  27.630 -15.048  1.00 48.58 LIG-0.27  OA
BRANCH 35 37
ATOM     37  CA  SER C 502      74.135  26.391 -15.489  1.00 60.54 LIG 0.20  C 
BRANCH 37 38
ATOM     38  CB  SER C 502      73.155  26.413 -14.328  1.00 53.64 LIG 0.20  C 
BRANCH 38 39
ATOM     39 OG   SER C 502      73.299  25.276 -13.509  1.00 59.09 LIG-0.40  OA
ATOM     40 HG   SER C 502      73.771  24.704 -13.904  1.00 59.09 LIG 0.21  HD
ENDBRANCH 38 39
ENDBRANCH 37 38
BRANCH 37 41
ATOM     41  N   SER C 502      74.051  25.158 -16.264  1.00 72.56 LIG-0.34  N 
ATOM     42 H    SER C 502      74.026  24.436 -15.798  1.00 72.56 LIG 0.16  HD
ATOM     43  C   GLU C 501      74.017  25.204 -17.592  1.00101.90 LIG 0.26  C 
ATOM     44 O    GLU C 501      73.694  26.222 -18.206  1.00103.22 LIG-0.27  OA
BRANCH 43 45
ATOM     45  CA  GLU C 501      74.375  23.919 -18.349  1.00101.55 LIG 0.40  C 
ATOM     46  N   GLU C 501      74.360  24.158 -19.789  1.00100.94 LIG 0.61  N 
BRANCH 45 47
ATOM     47  CB  GLU C 501      75.749  23.401 -17.913  1.00104.94 LIG 0.06  C 
BRANCH 47 48
ATOM     48  CG  GLU C 501      76.783  24.491 -17.693  1.00111.45 LIG 0.12  C 
BRANCH 48 49
ATOM     49  CD  GLU C 501      77.508  24.869 -18.969  1.00115.68 LIG 0.17  C 
ATOM     50 OE1  GLU C 501      76.878  24.837 -20.049  1.00117.56 LIG-0.65  OA
ATOM     51 OE2  GLU C 501      78.710  25.198 -18.887  1.00122.11 LIG-0.65  OA
ENDBRANCH 48 49
ENDBRANCH 47 48
ENDBRANCH 45 47
ENDBRANCH 43 45
ENDBRANCH 37 41
ENDBRANCH 35 37
ENDBRANCH 32 33
BRANCH 32 52
ATOM     52  CB  SER C 503      77.996  25.473 -12.888  1.00 49.05 LIG 0.20  C 
BRANCH 52 53
ATOM     53 OG   SER C 503      77.016  24.860 -12.069  1.00 54.59 LIG-0.40  OA
ATOM     54 HG   SER C 503      76.250  25.074 -12.340  1.00 54.59 LIG 0.21  HD
ENDBRANCH 52 53
ENDBRANCH 32 52
ENDBRANCH 1 32
TORSDOF 25
ENDMDL
MODEL 58
USER: ADFR SOLUTION from run 76
USER: SCORE 14.564784 LL:  -4.281 LR: -13.041 RR:   0.000 FEB:  -5.583
USER: RMSD 6.316031
USER: SEED 75
USER: STATUS no improvement in best in 12 clusters for 5 generations
USER: GENES 27
USER: genes 0 Translation |==|  0.74604 0.48271 0.43820
USER: genes 1 Rotation |==|  0.53532 0.10996 0.25133 0.68650
USER: genes 2 Torsion [C]-N--CA-[CB] |==|  0.88253
USER: genes 3 Torsion [N]-CA--C-[N] |==|  0.75445
USER: genes 4 Torsion [C]-N--CA-[C] |==|  0.58839
USER: genes 5 Torsion [N]-CA--CB-[OG] |==|  0.89211
USER: genes 6 Torsion [CA]-CB--OG-[HG] |==|  0.15250
USER: genes 7 Torsion [N]-CA--C-[N] |==|  0.56032
USER: genes 8 Torsion [C]-N--CA-[CB] |==|  0.84048
USER: genes 9 Torsion [N]-CA--C-[O] |==|  0.80690
USER: genes 10 Torsion [N]-CA--CB-[CG] |==|  0.48035
USER: genes 11 Torsion [CA]-CB--CG-[CD] |==|  0.53485
USER: genes 12 Torsion [CB]-CG--CD-[NE2] |==|  0.48120
USER: genes 13 Torsion [N]-CA--CB-[CG] |==|  0.59769
USER: genes 14 Torsion [CA]-CB--CG-[OD1] |==|  0.36126
USER: genes 15 Torsion [N]-C--CA-[N] |==|  0.42423
USER: genes 16 Torsion [C]-CA--N-[C] |==|  0.53598
USER: genes 17 Torsion [N]-C--CA-[N] |==|  0.10118
USER: genes 18 Torsion [C]-CA--CB-[OG] |==|  0.57476
USER: genes 19 Torsion [CA]-CB--OG-[HG] |==|  0.29282
USER: genes 20 Torsion [C]-CA--N-[C] |==|  0.55349
USER: genes 21 Torsion [N]-C--CA-[N] |==|  0.45300
USER: genes 22 Torsion [C]-CA--CB-[CG] |==|  0.30132
USER: genes 23 Torsion [CA]-CB--CG-[CD] |==|  0.98599
USER: genes 24 Torsion [CB]-CG--CD-[OE1] |==|  0.32937
USER: genes 25 Torsion [C]-CA--CB-[OG] |==|  0.03388
USER: genes 26 Torsion [CA]-CB--OG-[HG] |==|  0.18802
ROOT
ATOM      1  C   SER C 503      83.515  25.995 -15.703  1.00 42.27 LIG 0.24  C 
ATOM      2 O    SER C 503      82.830  25.719 -14.721  1.00 46.84 LIG-0.27  OA
ATOM      3  N   ASP C 504      83.760  25.139 -16.687  1.00 51.15 LIG-0.34  N 
ATOM      4 H    ASP C 504      84.156  25.360 -17.417  1.00 51.15 LIG 0.16  HD
ENDROOT
BRANCH 3 5
ATOM      5  CA  ASP C 504      83.378  23.730 -16.623  1.00 56.79 LIG 0.19  C 
BRANCH 5 6
ATOM      6  C   ASP C 504      81.889  23.567 -16.959  1.00 67.42 LIG 0.24  C 
ATOM      7  N   SER C 505      81.043  23.665 -15.937  1.00 81.52 LIG-0.34  N 
ATOM      8 H    SER C 505      81.289  23.800 -15.125  1.00 81.52 LIG 0.16  HD
ATOM      9 O    ASP C 504      81.518  23.364 -18.117  1.00 66.01 LIG-0.27  OA
BRANCH 7 10
ATOM     10  CA  SER C 505      79.598  23.549 -16.114  1.00 90.64 LIG 0.20  C 
BRANCH 10 11
ATOM     11  CB  SER C 505      79.155  22.095 -15.986  1.00 89.01 LIG 0.20  C 
BRANCH 11 12
ATOM     12 OG   SER C 505      80.100  21.237 -16.597  1.00 87.22 LIG-0.40  OA
ATOM     13 HG   SER C 505      80.860  21.380 -16.270  1.00 87.22 LIG 0.21  HD
ENDBRANCH 11 12
ENDBRANCH 10 11
BRANCH 10 14
ATOM     14  C   SER C 505      78.867  24.417 -15.094  1.00 98.93 LIG 0.24  C 
ATOM     15  N   GLN C 506      77.605  24.086 -14.835  1.00110.12 LIG-0.35  N 
ATOM     16 H    GLN C 506      77.240  23.349 -15.086  1.00110.12 LIG 0.16  HD
ATOM     17 O    SER C 505      79.440  25.360 -14.544  1.00 94.47 LIG-0.27  OA
BRANCH 15 18
ATOM     18  CA  GLN C 506      76.722  24.972 -14.086  1.00115.19 LIG 0.16  C 
BRANCH 18 19
ATOM     19  C   GLN C 506      76.431  26.270 -14.839  1.00118.66 LIG 0.22  C 
ATOM     20 O    GLN C 506      77.311  27.117 -15.004  1.00117.46 LIG-0.29  OA
ENDBRANCH 18 19
BRANCH 18 21
ATOM     21  CB  GLN C 506      77.340  25.274 -12.717  1.00118.15 LIG 0.04  C 
BRANCH 21 22
ATOM     22  CG  GLN C 506      76.571  26.336 -11.915  1.00119.48 LIG 0.10  C 
BRANCH 22 23
ATOM     23  CD  GLN C 506      77.333  26.861 -10.698  1.00116.76 LIG 0.21  C 
ATOM     24  NE2 GLN C 506      76.781  27.879 -10.046  1.00111.94 LIG-0.37  N 
ATOM     25 21HE GLN C 506      76.034  28.209 -10.316  1.00111.94 LIG 0.16  HD
ATOM     26 22HE GLN C 506      77.170  28.207  -9.353  1.00111.94 LIG 0.16  HD
ATOM     27 OE1  GLN C 506      78.399  26.354 -10.350  1.00116.06 LIG-0.27  OA
ENDBRANCH 22 23
ENDBRANCH 21 22
ENDBRANCH 18 21
ENDBRANCH 15 18
ENDBRANCH 10 14
ENDBRANCH 7 10
ENDBRANCH 5 6
BRANCH 5 28
ATOM     28  CB  ASP C 504      83.688  23.169 -15.223  1.00 57.84 LIG 0.15  C 
BRANCH 28 29
ATOM     29  CG  ASP C 504      84.146  21.715 -15.244  1.00 60.92 LIG 0.17  C 
ATOM     30 OD2  ASP C 504      83.459  20.886 -15.887  1.00 60.43 LIG-0.65  OA
ATOM     31 OD1  ASP C 504      85.186  21.397 -14.627  1.00 59.69 LIG-0.65  OA
ENDBRANCH 28 29
ENDBRANCH 5 28
ENDBRANCH 3 5
BRANCH 1 32
ATOM     32  CA  SER C 503      84.122  27.377 -15.858  1.00 44.19 LIG 0.20  C 
BRANCH 32 33
ATOM     33  N   SER C 503      83.326  28.377 -15.144  1.00 47.77 LIG-0.34  N 
ATOM     34 H    SER C 503      82.744  28.050 -14.601  1.00 47.77 LIG 0.16  HD
ATOM     35  C   SER C 502      83.512  29.681 -15.344  1.00 50.79 LIG 0.24  C 
ATOM     36 O    SER C 502      84.512  30.139 -15.879  1.00 48.58 LIG-0.27  OA
BRANCH 35 37
ATOM     37  CA  SER C 502      82.402  30.606 -14.879  1.00 60.54 LIG 0.20  C 
BRANCH 37 38
ATOM     38  CB  SER C 502      82.919  32.024 -14.708  1.00 53.64 LIG 0.20  C 
BRANCH 38 39
ATOM     39 OG   SER C 502      82.167  32.736 -13.753  1.00 59.09 LIG-0.40  OA
ATOM     40 HG   SER C 502      82.612  32.809 -13.044  1.00 59.09 LIG 0.21  HD
ENDBRANCH 38 39
ENDBRANCH 37 38
BRANCH 37 41
ATOM     41  N   SER C 502      81.844  30.066 -13.645  1.00 72.56 LIG-0.34  N 
ATOM     42 H    SER C 502      82.348  29.505 -13.231  1.00 72.56 LIG 0.16  HD
ATOM     43  C   GLU C 501      80.639  30.446 -13.233  1.00101.90 LIG 0.26  C 
ATOM     44 O    GLU C 501      80.107  31.485 -13.627  1.00103.22 LIG-0.27  OA
BRANCH 43 45
ATOM     45  CA  GLU C 501      79.928  29.546 -12.214  1.00101.55 LIG 0.40  C 
ATOM     46  N   GLU C 501      78.837  30.272 -11.572  1.00100.94 LIG 0.61  N 
BRANCH 45 47
ATOM     47  CB  GLU C 501      79.395  28.280 -12.890  1.00104.94 LIG 0.06  C 
BRANCH 47 48
ATOM     48  CG  GLU C 501      80.155  27.016 -12.529  1.00111.45 LIG 0.12  C 
BRANCH 48 49
ATOM     49  CD  GLU C 501      81.366  27.294 -11.662  1.00115.68 LIG 0.17  C 
ATOM     50 OE1  GLU C 501      81.413  26.790 -10.518  1.00117.56 LIG-0.65  OA
ATOM     51 OE2  GLU C 501      82.271  28.017 -12.128  1.00122.11 LIG-0.65  OA
ENDBRANCH 48 49
ENDBRANCH 47 48
ENDBRANCH 45 47
ENDBRANCH 43 45
ENDBRANCH 37 41
ENDBRANCH 35 37
ENDBRANCH 32 33
BRANCH 32 52
ATOM     52  CB  SER C 503      85.558  27.357 -15.351  1.00 49.05 LIG 0.20  C 
BRANCH 52 53
ATOM     53 OG   SER C 503      85.993  26.024 -15.150  1.00 54.59 LIG-0.40  OA
ATOM     54 HG   SER C 503      86.055  25.635 -15.892  1.00 54.59 LIG 0.21  HD
ENDBRANCH 52 53
ENDBRANCH 32 52
ENDBRANCH 1 32
TORSDOF 25
ENDMDL
MODEL 59
USER: ADFR SOLUTION from run 53
USER: SCORE 16.355784 LL:  -5.140 LR: -13.036 RR:   0.000 FEB:  -5.579
USER: RMSD 5.301979
USER: SEED 52
USER: STATUS no improvement in best in 4 clusters for 5 generations
USER: GENES 27
USER: genes 0 Translation |==|  0.54276 0.55418 0.44077
USER: genes 1 Rotation |==|  0.37048 0.49472 0.49970 0.98290
USER: genes 2 Torsion [C]-N--CA-[CB] |==|  0.81111
USER: genes 3 Torsion [N]-CA--C-[N] |==|  0.53888
USER: genes 4 Torsion [C]-N--CA-[C] |==|  0.76599
USER: genes 5 Torsion [N]-CA--CB-[OG] |==|  0.90484
USER: genes 6 Torsion [CA]-CB--OG-[HG] |==|  0.14871
USER: genes 7 Torsion [N]-CA--C-[N] |==|  0.09624
USER: genes 8 Torsion [C]-N--CA-[CB] |==|  0.83859
USER: genes 9 Torsion [N]-CA--C-[O] |==|  0.56888
USER: genes 10 Torsion [N]-CA--CB-[CG] |==|  0.75002
USER: genes 11 Torsion [CA]-CB--CG-[CD] |==|  0.34016
USER: genes 12 Torsion [CB]-CG--CD-[NE2] |==|  0.46946
USER: genes 13 Torsion [N]-CA--CB-[CG] |==|  0.55456
USER: genes 14 Torsion [CA]-CB--CG-[OD1] |==|  0.49861
USER: genes 15 Torsion [N]-C--CA-[N] |==|  0.09318
USER: genes 16 Torsion [C]-CA--N-[C] |==|  0.72547
USER: genes 17 Torsion [N]-C--CA-[N] |==|  0.07763
USER: genes 18 Torsion [C]-CA--CB-[OG] |==|  0.46480
USER: genes 19 Torsion [CA]-CB--OG-[HG] |==|  0.80115
USER: genes 20 Torsion [C]-CA--N-[C] |==|  0.67988
USER: genes 21 Torsion [N]-C--CA-[N] |==|  0.22849
USER: genes 22 Torsion [C]-CA--CB-[CG] |==|  0.28176
USER: genes 23 Torsion [CA]-CB--CG-[CD] |==|  0.94648
USER: genes 24 Torsion [CB]-CG--CD-[OE1] |==|  0.78740
USER: genes 25 Torsion [C]-CA--CB-[OG] |==|  0.68243
USER: genes 26 Torsion [CA]-CB--OG-[HG] |==|  0.19144
ROOT
ATOM      1  C   SER C 503      80.009  27.496 -15.655  1.00 42.27 LIG 0.24  C 
ATOM      2 O    SER C 503      81.134  27.944 -15.860  1.00 46.84 LIG-0.27  OA
ATOM      3  N   ASP C 504      79.746  26.200 -15.553  1.00 51.15 LIG-0.34  N 
ATOM      4 H    ASP C 504      78.980  25.890 -15.314  1.00 51.15 LIG 0.16  HD
ENDROOT
BRANCH 3 5
ATOM      5  CA  ASP C 504      80.740  25.166 -15.839  1.00 56.79 LIG 0.19  C 
BRANCH 5 6
ATOM      6  C   ASP C 504      82.007  25.402 -15.005  1.00 67.42 LIG 0.24  C 
ATOM      7  N   SER C 505      83.086  24.718 -15.373  1.00 81.52 LIG-0.34  N 
ATOM      8 H    SER C 505      83.099  24.161 -16.027  1.00 81.52 LIG 0.16  HD
ATOM      9 O    ASP C 504      82.006  26.191 -14.057  1.00 66.01 LIG-0.27  OA
BRANCH 7 10
ATOM     10  CA  SER C 505      84.366  24.857 -14.681  1.00 90.64 LIG 0.20  C 
BRANCH 10 11
ATOM     11  CB  SER C 505      85.194  23.585 -14.820  1.00 89.01 LIG 0.20  C 
BRANCH 11 12
ATOM     12 OG   SER C 505      84.352  22.448 -14.833  1.00 87.22 LIG-0.40  OA
ATOM     13 HG   SER C 505      83.765  22.542 -15.425  1.00 87.22 LIG 0.21  HD
ENDBRANCH 11 12
ENDBRANCH 10 11
BRANCH 10 14
ATOM     14  C   SER C 505      85.137  26.055 -15.227  1.00 98.93 LIG 0.24  C 
ATOM     15  N   GLN C 506      84.409  27.103 -15.602  1.00110.12 LIG-0.35  N 
ATOM     16 H    GLN C 506      83.574  27.198 -15.420  1.00110.12 LIG 0.16  HD
ATOM     17 O    SER C 505      86.367  26.034 -15.295  1.00 94.47 LIG-0.27  OA
BRANCH 15 18
ATOM     18  CA  GLN C 506      84.987  28.198 -16.371  1.00115.19 LIG 0.16  C 
BRANCH 18 19
ATOM     19  C   GLN C 506      85.439  27.753 -17.761  1.00118.66 LIG 0.22  C 
ATOM     20 O    GLN C 506      86.323  28.364 -18.366  1.00117.46 LIG-0.29  OA
ENDBRANCH 18 19
BRANCH 18 21
ATOM     21  CB  GLN C 506      86.160  28.806 -15.595  1.00118.15 LIG 0.04  C 
BRANCH 21 22
ATOM     22  CG  GLN C 506      85.750  29.953 -14.659  1.00119.48 LIG 0.10  C 
BRANCH 22 23
ATOM     23  CD  GLN C 506      86.124  29.720 -13.195  1.00116.76 LIG 0.21  C 
ATOM     24  NE2 GLN C 506      86.003  30.760 -12.377  1.00111.94 LIG-0.37  N 
ATOM     25 21HE GLN C 506      85.729  31.517 -12.682  1.00111.94 LIG 0.16  HD
ATOM     26 22HE GLN C 506      86.199  30.677 -11.544  1.00111.94 LIG 0.16  HD
ATOM     27 OE1  GLN C 506      86.511  28.617 -12.808  1.00116.06 LIG-0.27  OA
ENDBRANCH 22 23
ENDBRANCH 21 22
ENDBRANCH 18 21
ENDBRANCH 15 18
ENDBRANCH 10 14
ENDBRANCH 7 10
ENDBRANCH 5 6
BRANCH 5 28
ATOM     28  CB  ASP C 504      81.066  25.160 -17.343  1.00 57.84 LIG 0.15  C 
BRANCH 28 29
ATOM     29  CG  ASP C 504      81.701  23.857 -17.817  1.00 60.92 LIG 0.17  C 
ATOM     30 OD2  ASP C 504      81.897  22.951 -16.971  1.00 60.43 LIG-0.65  OA
ATOM     31 OD1  ASP C 504      82.002  23.733 -19.024  1.00 59.69 LIG-0.65  OA
ENDBRANCH 28 29
ENDBRANCH 5 28
ENDBRANCH 3 5
BRANCH 1 32
ATOM     32  CA  SER C 503      78.824  28.429 -15.483  1.00 44.19 LIG 0.20  C 
BRANCH 32 33
ATOM     33  N   SER C 503      77.867  27.880 -14.520  1.00 47.77 LIG-0.34  N 
ATOM     34 H    SER C 503      78.073  28.014 -13.695  1.00 47.77 LIG 0.16  HD
ATOM     35  C   SER C 502      76.775  27.232 -14.922  1.00 50.79 LIG 0.24  C 
ATOM     36 O    SER C 502      76.341  27.297 -16.063  1.00 48.58 LIG-0.27  OA
BRANCH 35 37
ATOM     37  CA  SER C 502      76.072  26.374 -13.885  1.00 60.54 LIG 0.20  C 
BRANCH 37 38
ATOM     38  CB  SER C 502      74.587  26.272 -14.187  1.00 53.64 LIG 0.20  C 
BRANCH 38 39
ATOM     39 OG   SER C 502      73.972  25.263 -13.420  1.00 59.09 LIG-0.40  OA
ATOM     40 HG   SER C 502      74.214  24.510 -13.701  1.00 59.09 LIG 0.21  HD
ENDBRANCH 38 39
ENDBRANCH 37 38
BRANCH 37 41
ATOM     41  N   SER C 502      76.334  26.943 -12.568  1.00 72.56 LIG-0.34  N 
ATOM     42 H    SER C 502      76.004  27.726 -12.438  1.00 72.56 LIG 0.16  HD
ATOM     43  C   GLU C 501      77.037  26.258 -11.672  1.00101.90 LIG 0.26  C 
ATOM     44 O    GLU C 501      77.181  25.037 -11.742  1.00103.22 LIG-0.27  OA
BRANCH 43 45
ATOM     45  CA  GLU C 501      77.654  27.048 -10.510  1.00101.55 LIG 0.40  C 
ATOM     46  N   GLU C 501      76.660  27.267  -9.463  1.00100.94 LIG 0.61  N 
BRANCH 45 47
ATOM     47  CB  GLU C 501      78.868  26.310  -9.940  1.00104.94 LIG 0.06  C 
BRANCH 47 48
ATOM     48  CG  GLU C 501      80.205  26.867 -10.398  1.00111.45 LIG 0.12  C 
BRANCH 48 49
ATOM     49  CD  GLU C 501      80.084  27.707 -11.654  1.00115.68 LIG 0.17  C 
ATOM     50 OE1  GLU C 501      79.941  27.126 -12.752  1.00117.56 LIG-0.65  OA
ATOM     51 OE2  GLU C 501      80.132  28.949 -11.538  1.00122.11 LIG-0.65  OA
ENDBRANCH 48 49
ENDBRANCH 47 48
ENDBRANCH 45 47
ENDBRANCH 43 45
ENDBRANCH 37 41
ENDBRANCH 35 37
ENDBRANCH 32 33
BRANCH 32 52
ATOM     52  CB  SER C 503      79.320  29.799 -15.042  1.00 49.05 LIG 0.20  C 
BRANCH 52 53
ATOM     53 OG   SER C 503      78.868  30.090 -13.731  1.00 54.59 LIG-0.40  OA
ATOM     54 HG   SER C 503      79.256  29.584 -13.182  1.00 54.59 LIG 0.21  HD
ENDBRANCH 52 53
ENDBRANCH 32 52
ENDBRANCH 1 32
TORSDOF 25
ENDMDL
MODEL 60
USER: ADFR SOLUTION from run 52
USER: SCORE 15.931977 LL:  -5.593 LR: -13.025 RR:   0.000 FEB:  -5.567
USER: RMSD 6.311461
USER: SEED 51
USER: STATUS no improvement in best in 5 clusters for 5 generations
USER: GENES 27
USER: genes 0 Translation |==|  0.59645 0.52113 0.39254
USER: genes 1 Rotation |==|  0.08683 0.72720 0.66299 0.53327
USER: genes 2 Torsion [C]-N--CA-[CB] |==|  0.51111
USER: genes 3 Torsion [N]-CA--C-[N] |==|  0.39062
USER: genes 4 Torsion [C]-N--CA-[C] |==|  0.22029
USER: genes 5 Torsion [N]-CA--CB-[OG] |==|  0.85210
USER: genes 6 Torsion [CA]-CB--OG-[HG] |==|  0.13215
USER: genes 7 Torsion [N]-CA--C-[N] |==|  0.93044
USER: genes 8 Torsion [C]-N--CA-[CB] |==|  0.42316
USER: genes 9 Torsion [N]-CA--C-[O] |==|  0.21370
USER: genes 10 Torsion [N]-CA--CB-[CG] |==|  0.47042
USER: genes 11 Torsion [CA]-CB--CG-[CD] |==|  0.69881
USER: genes 12 Torsion [CB]-CG--CD-[NE2] |==|  0.63409
USER: genes 13 Torsion [N]-CA--CB-[CG] |==|  0.50538
USER: genes 14 Torsion [CA]-CB--CG-[OD1] |==|  0.29479
USER: genes 15 Torsion [N]-C--CA-[N] |==|  0.74613
USER: genes 16 Torsion [C]-CA--N-[C] |==|  0.68230
USER: genes 17 Torsion [N]-C--CA-[N] |==|  0.19110
USER: genes 18 Torsion [C]-CA--CB-[OG] |==|  0.79624
USER: genes 19 Torsion [CA]-CB--OG-[HG] |==|  0.44552
USER: genes 20 Torsion [C]-CA--N-[C] |==|  0.55870
USER: genes 21 Torsion [N]-C--CA-[N] |==|  0.38303
USER: genes 22 Torsion [C]-CA--CB-[CG] |==|  0.03362
USER: genes 23 Torsion [CA]-CB--CG-[CD] |==|  0.22941
USER: genes 24 Torsion [CB]-CG--CD-[OE1] |==|  0.45498
USER: genes 25 Torsion [C]-CA--CB-[OG] |==|  0.76552
USER: genes 26 Torsion [CA]-CB--OG-[HG] |==|  0.88497
ROOT
ATOM      1  C   SER C 503      80.935  26.802 -16.559  1.00 42.27 LIG 0.24  C 
ATOM      2 O    SER C 503      80.948  25.729 -17.158  1.00 46.84 LIG-0.27  OA
ATOM      3  N   ASP C 504      82.034  27.444 -16.186  1.00 51.15 LIG-0.34  N 
ATOM      4 H    ASP C 504      82.029  28.238 -15.855  1.00 51.15 LIG 0.16  HD
ENDROOT
BRANCH 3 5
ATOM      5  CA  ASP C 504      83.369  26.860 -16.303  1.00 56.79 LIG 0.19  C 
BRANCH 5 6
ATOM      6  C   ASP C 504      83.413  25.491 -15.609  1.00 67.42 LIG 0.24  C 
ATOM      7  N   SER C 505      84.115  24.545 -16.224  1.00 81.52 LIG-0.34  N 
ATOM      8 H    SER C 505      84.522  24.661 -16.972  1.00 81.52 LIG 0.16  HD
ATOM      9 O    ASP C 504      82.829  25.302 -14.539  1.00 66.01 LIG-0.27  OA
BRANCH 7 10
ATOM     10  CA  SER C 505      84.257  23.201 -15.669  1.00 90.64 LIG 0.20  C 
BRANCH 10 11
ATOM     11  CB  SER C 505      84.525  23.263 -14.169  1.00 89.01 LIG 0.20  C 
BRANCH 11 12
ATOM     12 OG   SER C 505      85.627  24.109 -13.901  1.00 87.22 LIG-0.40  OA
ATOM     13 HG   SER C 505      85.538  24.828 -14.325  1.00 87.22 LIG 0.21  HD
ENDBRANCH 11 12
ENDBRANCH 10 11
BRANCH 10 14
ATOM     14  C   SER C 505      83.005  22.375 -15.950  1.00 98.93 LIG 0.24  C 
ATOM     15  N   GLN C 506      81.879  23.058 -16.135  1.00110.12 LIG-0.35  N 
ATOM     16 H    GLN C 506      81.847  23.910 -16.252  1.00110.12 LIG 0.16  HD
ATOM     17 O    SER C 505      83.062  21.145 -16.011  1.00 94.47 LIG-0.27  OA
BRANCH 15 18
ATOM     18  CA  GLN C 506      80.580  22.397 -16.156  1.00115.19 LIG 0.16  C 
BRANCH 18 19
ATOM     19  C   GLN C 506      80.241  21.830 -17.534  1.00118.66 LIG 0.22  C 
ATOM     20 O    GLN C 506      80.759  20.785 -17.933  1.00117.46 LIG-0.29  OA
ENDBRANCH 18 19
BRANCH 18 21
ATOM     21  CB  GLN C 506      79.497  23.380 -15.699  1.00118.15 LIG 0.04  C 
BRANCH 21 22
ATOM     22  CG  GLN C 506      78.066  22.870 -15.928  1.00119.48 LIG 0.10  C 
BRANCH 22 23
ATOM     23  CD  GLN C 506      77.326  23.594 -17.053  1.00116.76 LIG 0.21  C 
ATOM     24  NE2 GLN C 506      76.096  24.017 -16.779  1.00111.94 LIG-0.37  N 
ATOM     25 21HE GLN C 506      75.756  23.876 -16.002  1.00111.94 LIG 0.16  HD
ATOM     26 22HE GLN C 506      75.641  24.432 -17.379  1.00111.94 LIG 0.16  HD
ATOM     27 OE1  GLN C 506      77.857  23.772 -18.150  1.00116.06 LIG-0.27  OA
ENDBRANCH 22 23
ENDBRANCH 21 22
ENDBRANCH 18 21
ENDBRANCH 15 18
ENDBRANCH 10 14
ENDBRANCH 7 10
ENDBRANCH 5 6
BRANCH 5 28
ATOM     28  CB  ASP C 504      84.411  27.816 -15.695  1.00 57.84 LIG 0.15  C 
BRANCH 28 29
ATOM     29  CG  ASP C 504      85.842  27.306 -15.816  1.00 60.92 LIG 0.17  C 
ATOM     30 OD2  ASP C 504      86.199  26.362 -15.070  1.00 60.43 LIG-0.65  OA
ATOM     31 OD1  ASP C 504      86.608  27.837 -16.649  1.00 59.69 LIG-0.65  OA
ENDBRANCH 28 29
ENDBRANCH 5 28
ENDBRANCH 3 5
BRANCH 1 32
ATOM     32  CA  SER C 503      79.621  27.481 -16.218  1.00 44.19 LIG 0.20  C 
BRANCH 32 33
ATOM     33  N   SER C 503      79.129  27.035 -14.913  1.00 47.77 LIG-0.34  N 
ATOM     34 H    SER C 503      79.623  27.265 -14.247  1.00 47.77 LIG 0.16  HD
ATOM     35  C   SER C 502      78.004  26.332 -14.801  1.00 50.79 LIG 0.24  C 
ATOM     36 O    SER C 502      77.169  26.261 -15.692  1.00 48.58 LIG-0.27  OA
BRANCH 35 37
ATOM     37  CA  SER C 502      77.792  25.589 -13.494  1.00 60.54 LIG 0.20  C 
BRANCH 37 38
ATOM     38  CB  SER C 502      76.644  24.601 -13.616  1.00 53.64 LIG 0.20  C 
BRANCH 38 39
ATOM     39 OG   SER C 502      75.398  25.259 -13.640  1.00 59.09 LIG-0.40  OA
ATOM     40 HG   SER C 502      74.819  24.748 -13.969  1.00 59.09 LIG 0.21  HD
ENDBRANCH 38 39
ENDBRANCH 37 38
BRANCH 37 41
ATOM     41  N   SER C 502      77.570  26.573 -12.441  1.00 72.56 LIG-0.34  N 
ATOM     42 H    SER C 502      77.307  27.345 -12.713  1.00 72.56 LIG 0.16  HD
ATOM     43  C   GLU C 501      77.772  26.247 -11.168  1.00101.90 LIG 0.26  C 
ATOM     44 O    GLU C 501      77.791  25.077 -10.784  1.00103.22 LIG-0.27  OA
BRANCH 43 45
ATOM     45  CA  GLU C 501      77.959  27.397 -10.170  1.00101.55 LIG 0.40  C 
ATOM     46  N   GLU C 501      77.225  27.123  -8.938  1.00100.94 LIG 0.61  N 
BRANCH 45 47
ATOM     47  CB  GLU C 501      79.444  27.611  -9.864  1.00104.94 LIG 0.06  C 
BRANCH 47 48
ATOM     48  CG  GLU C 501      80.384  26.871 -10.800  1.00111.45 LIG 0.12  C 
BRANCH 48 49
ATOM     49  CD  GLU C 501      80.619  27.619 -12.097  1.00115.68 LIG 0.17  C 
ATOM     50 OE1  GLU C 501      81.589  27.287 -12.813  1.00117.56 LIG-0.65  OA
ATOM     51 OE2  GLU C 501      79.830  28.539 -12.398  1.00122.11 LIG-0.65  OA
ENDBRANCH 48 49
ENDBRANCH 47 48
ENDBRANCH 45 47
ENDBRANCH 43 45
ENDBRANCH 37 41
ENDBRANCH 35 37
ENDBRANCH 32 33
BRANCH 32 52
ATOM     52  CB  SER C 503      79.813  28.991 -16.243  1.00 49.05 LIG 0.20  C 
BRANCH 52 53
ATOM     53 OG   SER C 503      80.322  29.446 -15.002  1.00 54.59 LIG-0.40  OA
ATOM     54 HG   SER C 503      79.933  29.043 -14.375  1.00 54.59 LIG 0.21  HD
ENDBRANCH 52 53
ENDBRANCH 32 52
ENDBRANCH 1 32
TORSDOF 25
ENDMDL
MODEL 61
USER: ADFR SOLUTION from run 63
USER: SCORE 15.461386 LL:  -4.100 LR: -13.005 RR:   0.000 FEB:  -5.548
USER: RMSD 6.409541
USER: SEED 62
USER: STATUS no improvement in best in 21 clusters for 5 generations
USER: GENES 27
USER: genes 0 Translation |==|  0.75086 0.48245 0.43727
USER: genes 1 Rotation |==|  0.52872 0.10839 0.24955 0.68192
USER: genes 2 Torsion [C]-N--CA-[CB] |==|  0.87185
USER: genes 3 Torsion [N]-CA--C-[N] |==|  0.76622
USER: genes 4 Torsion [C]-N--CA-[C] |==|  0.58696
USER: genes 5 Torsion [N]-CA--CB-[OG] |==|  0.83059
USER: genes 6 Torsion [CA]-CB--OG-[HG] |==|  0.98714
USER: genes 7 Torsion [N]-CA--C-[N] |==|  0.53317
USER: genes 8 Torsion [C]-N--CA-[CB] |==|  0.40210
USER: genes 9 Torsion [N]-CA--C-[O] |==|  0.17692
USER: genes 10 Torsion [N]-CA--CB-[CG] |==|  0.53827
USER: genes 11 Torsion [CA]-CB--CG-[CD] |==|  0.73543
USER: genes 12 Torsion [CB]-CG--CD-[NE2] |==|  0.31376
USER: genes 13 Torsion [N]-CA--CB-[CG] |==|  0.57948
USER: genes 14 Torsion [CA]-CB--CG-[OD1] |==|  0.42255
USER: genes 15 Torsion [N]-C--CA-[N] |==|  0.42818
USER: genes 16 Torsion [C]-CA--N-[C] |==|  0.60409
USER: genes 17 Torsion [N]-C--CA-[N] |==|  0.02218
USER: genes 18 Torsion [C]-CA--CB-[OG] |==|  0.61412
USER: genes 19 Torsion [CA]-CB--OG-[HG] |==|  0.57394
USER: genes 20 Torsion [C]-CA--N-[C] |==|  0.76004
USER: genes 21 Torsion [N]-C--CA-[N] |==|  0.96354
USER: genes 22 Torsion [C]-CA--CB-[CG] |==|  0.84309
USER: genes 23 Torsion [CA]-CB--CG-[CD] |==|  0.23451
USER: genes 24 Torsion [CB]-CG--CD-[OE1] |==|  0.62751
USER: genes 25 Torsion [C]-CA--CB-[OG] |==|  0.00845
USER: genes 26 Torsion [CA]-CB--OG-[HG] |==|  0.16425
ROOT
ATOM      1  C   SER C 503      83.598  25.989 -15.720  1.00 42.27 LIG 0.24  C 
ATOM      2 O    SER C 503      82.902  25.742 -14.739  1.00 46.84 LIG-0.27  OA
ATOM      3  N   ASP C 504      83.818  25.120 -16.698  1.00 51.15 LIG-0.34  N 
ATOM      4 H    ASP C 504      84.223  25.323 -17.429  1.00 51.15 LIG 0.16  HD
ENDROOT
BRANCH 3 5
ATOM      5  CA  ASP C 504      83.390  23.724 -16.627  1.00 56.79 LIG 0.19  C 
BRANCH 5 6
ATOM      6  C   ASP C 504      81.877  23.619 -16.873  1.00 67.42 LIG 0.24  C 
ATOM      7  N   SER C 505      81.097  23.820 -15.815  1.00 81.52 LIG-0.34  N 
ATOM      8 H    SER C 505      81.394  23.989 -15.027  1.00 81.52 LIG 0.16  HD
ATOM      9 O    ASP C 504      81.432  23.368 -17.995  1.00 66.01 LIG-0.27  OA
BRANCH 7 10
ATOM     10  CA  SER C 505      79.639  23.768 -15.907  1.00 90.64 LIG 0.20  C 
BRANCH 10 11
ATOM     11  CB  SER C 505      79.136  22.347 -15.680  1.00 89.01 LIG 0.20  C 
BRANCH 11 12
ATOM     12 OG   SER C 505      79.658  21.476 -16.665  1.00 87.22 LIG-0.40  OA
ATOM     13 HG   SER C 505      80.097  21.920 -17.227  1.00 87.22 LIG 0.21  HD
ENDBRANCH 11 12
ENDBRANCH 10 11
BRANCH 10 14
ATOM     14  C   SER C 505      79.010  24.722 -14.896  1.00 98.93 LIG 0.24  C 
ATOM     15  N   GLN C 506      77.700  24.594 -14.702  1.00110.12 LIG-0.35  N 
ATOM     16 H    GLN C 506      77.234  23.932 -14.990  1.00110.12 LIG 0.16  HD
ATOM     17 O    SER C 505      79.700  25.546 -14.294  1.00 94.47 LIG-0.27  OA
BRANCH 15 18
ATOM     18  CA  GLN C 506      76.936  25.596 -13.968  1.00115.19 LIG 0.16  C 
BRANCH 18 19
ATOM     19  C   GLN C 506      76.835  25.269 -12.479  1.00118.66 LIG 0.22  C 
ATOM     20 O    GLN C 506      77.842  25.233 -11.769  1.00117.46 LIG-0.29  OA
ENDBRANCH 18 19
BRANCH 18 21
ATOM     21  CB  GLN C 506      75.540  25.728 -14.584  1.00118.15 LIG 0.04  C 
BRANCH 21 22
ATOM     22  CG  GLN C 506      74.775  26.974 -14.113  1.00119.48 LIG 0.10  C 
BRANCH 22 23
ATOM     23  CD  GLN C 506      73.832  26.712 -12.938  1.00116.76 LIG 0.21  C 
ATOM     24  NE2 GLN C 506      74.147  27.287 -11.782  1.00111.94 LIG-0.37  N 
ATOM     25 21HE GLN C 506      74.853  27.775 -11.724  1.00111.94 LIG 0.16  HD
ATOM     26 22HE GLN C 506      73.646  27.171 -11.093  1.00111.94 LIG 0.16  HD
ATOM     27 OE1  GLN C 506      72.833  26.005 -13.073  1.00116.06 LIG-0.27  OA
ENDBRANCH 22 23
ENDBRANCH 21 22
ENDBRANCH 18 21
ENDBRANCH 15 18
ENDBRANCH 10 14
ENDBRANCH 7 10
ENDBRANCH 5 6
BRANCH 5 28
ATOM     28  CB  ASP C 504      83.764  23.134 -15.256  1.00 57.84 LIG 0.15  C 
BRANCH 28 29
ATOM     29  CG  ASP C 504      84.013  21.630 -15.294  1.00 60.92 LIG 0.17  C 
ATOM     30 OD2  ASP C 504      83.422  20.954 -16.170  1.00 60.43 LIG-0.65  OA
ATOM     31 OD1  ASP C 504      84.795  21.123 -14.460  1.00 59.69 LIG-0.65  OA
ENDBRANCH 28 29
ENDBRANCH 5 28
ENDBRANCH 3 5
BRANCH 1 32
ATOM     32  CA  SER C 503      84.251  27.350 -15.882  1.00 44.19 LIG 0.20  C 
BRANCH 32 33
ATOM     33  N   SER C 503      83.504  28.375 -15.149  1.00 47.77 LIG-0.34  N 
ATOM     34 H    SER C 503      83.183  28.112 -14.395  1.00 47.77 LIG 0.16  HD
ATOM     35  C   SER C 502      83.353  29.604 -15.639  1.00 50.79 LIG 0.24  C 
ATOM     36 O    SER C 502      84.041  30.051 -16.546  1.00 48.58 LIG-0.27  OA
BRANCH 35 37
ATOM     37  CA  SER C 502      82.257  30.453 -15.020  1.00 60.54 LIG 0.20  C 
BRANCH 37 38
ATOM     38  CB  SER C 502      82.781  31.834 -14.665  1.00 53.64 LIG 0.20  C 
BRANCH 38 39
ATOM     39 OG   SER C 502      82.288  32.268 -13.419  1.00 59.09 LIG-0.40  OA
ATOM     40 HG   SER C 502      82.271  33.108 -13.402  1.00 59.09 LIG 0.21  HD
ENDBRANCH 38 39
ENDBRANCH 37 38
BRANCH 37 41
ATOM     41  N   SER C 502      81.730  29.743 -13.861  1.00 72.56 LIG-0.34  N 
ATOM     42 H    SER C 502      82.092  29.952 -13.110  1.00 72.56 LIG 0.16  HD
ATOM     43  C   GLU C 501      80.758  28.848 -14.010  1.00101.90 LIG 0.26  C 
ATOM     44 O    GLU C 501      80.027  28.830 -15.001  1.00103.22 LIG-0.27  OA
BRANCH 43 45
ATOM     45  CA  GLU C 501      80.556  27.835 -12.876  1.00101.55 LIG 0.40  C 
ATOM     46  N   GLU C 501      81.695  27.863 -11.963  1.00100.94 LIG 0.61  N 
BRANCH 45 47
ATOM     47  CB  GLU C 501      79.260  28.129 -12.114  1.00104.94 LIG 0.06  C 
BRANCH 47 48
ATOM     48  CG  GLU C 501      79.180  29.535 -11.545  1.00111.45 LIG 0.12  C 
BRANCH 48 49
ATOM     49  CD  GLU C 501      78.678  30.543 -12.559  1.00115.68 LIG 0.17  C 
ATOM     50 OE1  GLU C 501      79.282  31.633 -12.669  1.00117.56 LIG-0.65  OA
ATOM     51 OE2  GLU C 501      77.678  30.242 -13.244  1.00122.11 LIG-0.65  OA
ENDBRANCH 48 49
ENDBRANCH 47 48
ENDBRANCH 45 47
ENDBRANCH 43 45
ENDBRANCH 37 41
ENDBRANCH 35 37
ENDBRANCH 32 33
BRANCH 32 52
ATOM     52  CB  SER C 503      85.694  27.277 -15.403  1.00 49.05 LIG 0.20  C 
BRANCH 52 53
ATOM     53 OG   SER C 503      86.021  25.954 -15.016  1.00 54.59 LIG-0.40  OA
ATOM     54 HG   SER C 503      85.913  25.436 -15.669  1.00 54.59 LIG 0.21  HD
ENDBRANCH 52 53
ENDBRANCH 32 52
ENDBRANCH 1 32
TORSDOF 25
ENDMDL
MODEL 62
USER: ADFR SOLUTION from run 192
USER: SCORE 16.219623 LL:  -4.089 LR: -13.008 RR:   0.000 FEB:  -5.550
USER: RMSD 6.301400
USER: SEED 191
USER: STATUS no improvement in best in 4 clusters for 5 generations
USER: GENES 27
USER: genes 0 Translation |==|  0.55743 0.58640 0.64380
USER: genes 1 Rotation |==|  0.75454 0.50214 0.43804 0.92587
USER: genes 2 Torsion [C]-N--CA-[CB] |==|  0.85318
USER: genes 3 Torsion [N]-CA--C-[N] |==|  0.40534
USER: genes 4 Torsion [C]-N--CA-[C] |==|  0.77849
USER: genes 5 Torsion [N]-CA--CB-[OG] |==|  0.46882
USER: genes 6 Torsion [CA]-CB--OG-[HG] |==|  0.82337
USER: genes 7 Torsion [N]-CA--C-[N] |==|  0.90280
USER: genes 8 Torsion [C]-N--CA-[CB] |==|  0.45554
USER: genes 9 Torsion [N]-CA--C-[O] |==|  0.18201
USER: genes 10 Torsion [N]-CA--CB-[CG] |==|  0.76716
USER: genes 11 Torsion [CA]-CB--CG-[CD] |==|  0.16923
USER: genes 12 Torsion [CB]-CG--CD-[NE2] |==|  0.74768
USER: genes 13 Torsion [N]-CA--CB-[CG] |==|  0.43720
USER: genes 14 Torsion [CA]-CB--CG-[OD1] |==|  0.66590
USER: genes 15 Torsion [N]-C--CA-[N] |==|  0.05395
USER: genes 16 Torsion [C]-CA--N-[C] |==|  0.17451
USER: genes 17 Torsion [N]-C--CA-[N] |==|  0.00031
USER: genes 18 Torsion [C]-CA--CB-[OG] |==|  0.18908
USER: genes 19 Torsion [CA]-CB--OG-[HG] |==|  0.30953
USER: genes 20 Torsion [C]-CA--N-[C] |==|  0.22777
USER: genes 21 Torsion [N]-C--CA-[N] |==|  0.28659
USER: genes 22 Torsion [C]-CA--CB-[CG] |==|  0.26995
USER: genes 23 Torsion [CA]-CB--CG-[CD] |==|  0.87547
USER: genes 24 Torsion [CB]-CG--CD-[OE1] |==|  0.72467
USER: genes 25 Torsion [C]-CA--CB-[OG] |==|  0.54476
USER: genes 26 Torsion [CA]-CB--OG-[HG] |==|  0.84084
ROOT
ATOM      1  C   SER C 503      80.262  28.172 -11.848  1.00 42.27 LIG 0.24  C 
ATOM      2 O    SER C 503      81.455  28.144 -11.555  1.00 46.84 LIG-0.27  OA
ATOM      3  N   ASP C 504      79.817  28.179 -13.097  1.00 51.15 LIG-0.34  N 
ATOM      4 H    ASP C 504      78.985  28.101 -13.304  1.00 51.15 LIG 0.16  HD
ENDROOT
BRANCH 3 5
ATOM      5  CA  ASP C 504      80.702  28.322 -14.252  1.00 56.79 LIG 0.19  C 
BRANCH 5 6
ATOM      6  C   ASP C 504      81.562  27.060 -14.421  1.00 67.42 LIG 0.24  C 
ATOM      7  N   SER C 505      81.854  26.714 -15.671  1.00 81.52 LIG-0.34  N 
ATOM      8 H    SER C 505      81.582  27.146 -16.362  1.00 81.52 LIG 0.16  HD
ATOM      9 O    ASP C 504      81.954  26.423 -13.441  1.00 66.01 LIG-0.27  OA
BRANCH 7 10
ATOM     10  CA  SER C 505      82.678  25.547 -15.979  1.00 90.64 LIG 0.20  C 
BRANCH 10 11
ATOM     11  CB  SER C 505      82.416  25.064 -17.401  1.00 89.01 LIG 0.20  C 
BRANCH 11 12
ATOM     12 OG   SER C 505      83.386  24.108 -17.783  1.00 87.22 LIG-0.40  OA
ATOM     13 HG   SER C 505      84.145  24.469 -17.796  1.00 87.22 LIG 0.21  HD
ENDBRANCH 11 12
ENDBRANCH 10 11
BRANCH 10 14
ATOM     14  C   SER C 505      84.156  25.877 -15.795  1.00 98.93 LIG 0.24  C 
ATOM     15  N   GLN C 506      84.527  27.114 -16.113  1.00110.12 LIG-0.35  N 
ATOM     16 H    GLN C 506      83.977  27.757 -16.267  1.00110.12 LIG 0.16  HD
ATOM     17 O    SER C 505      84.941  25.032 -15.360  1.00 94.47 LIG-0.27  OA
BRANCH 15 18
ATOM     18  CA  GLN C 506      85.933  27.483 -16.230  1.00115.19 LIG 0.16  C 
BRANCH 18 19
ATOM     19  C   GLN C 506      86.622  27.571 -14.869  1.00118.66 LIG 0.22  C 
ATOM     20 O    GLN C 506      86.771  26.567 -14.169  1.00117.46 LIG-0.29  OA
ENDBRANCH 18 19
BRANCH 18 21
ATOM     21  CB  GLN C 506      86.053  28.814 -16.979  1.00118.15 LIG 0.04  C 
BRANCH 21 22
ATOM     22  CG  GLN C 506      86.031  28.665 -18.508  1.00119.48 LIG 0.10  C 
BRANCH 22 23
ATOM     23  CD  GLN C 506      84.743  28.044 -19.049  1.00116.76 LIG 0.21  C 
ATOM     24  NE2 GLN C 506      84.728  26.721 -19.176  1.00111.94 LIG-0.37  N 
ATOM     25 21HE GLN C 506      85.421  26.261 -18.960  1.00111.94 LIG 0.16  HD
ATOM     26 22HE GLN C 506      84.024  26.326 -19.474  1.00111.94 LIG 0.16  HD
ATOM     27 OE1  GLN C 506      83.776  28.747 -19.343  1.00116.06 LIG-0.27  OA
ENDBRANCH 22 23
ENDBRANCH 21 22
ENDBRANCH 18 21
ENDBRANCH 15 18
ENDBRANCH 10 14
ENDBRANCH 7 10
ENDBRANCH 5 6
BRANCH 5 28
ATOM     28  CB  ASP C 504      81.587  29.569 -14.079  1.00 57.84 LIG 0.15  C 
BRANCH 28 29
ATOM     29  CG  ASP C 504      82.871  29.516 -14.899  1.00 60.92 LIG 0.17  C 
ATOM     30 OD2  ASP C 504      82.774  29.418 -16.146  1.00 60.43 LIG-0.65  OA
ATOM     31 OD1  ASP C 504      83.972  29.574 -14.309  1.00 59.69 LIG-0.65  OA
ENDBRANCH 28 29
ENDBRANCH 5 28
ENDBRANCH 3 5
BRANCH 1 32
ATOM     32  CA  SER C 503      79.199  28.183 -10.765  1.00 44.19 LIG 0.20  C 
BRANCH 32 33
ATOM     33  N   SER C 503      77.908  27.743 -11.300  1.00 47.77 LIG-0.34  N 
ATOM     34 H    SER C 503      77.287  28.337 -11.269  1.00 47.77 LIG 0.16  HD
ATOM     35  C   SER C 502      77.744  26.514 -11.787  1.00 50.79 LIG 0.24  C 
ATOM     36 O    SER C 502      78.678  25.787 -12.093  1.00 48.58 LIG-0.27  OA
BRANCH 35 37
ATOM     37  CA  SER C 502      76.314  26.029 -11.941  1.00 60.54 LIG 0.20  C 
BRANCH 37 38
ATOM     38  CB  SER C 502      76.040  25.608 -13.375  1.00 53.64 LIG 0.20  C 
BRANCH 38 39
ATOM     39 OG   SER C 502      76.763  24.448 -13.718  1.00 59.09 LIG-0.40  OA
ATOM     40 HG   SER C 502      76.230  23.807 -13.822  1.00 59.09 LIG 0.21  HD
ENDBRANCH 38 39
ENDBRANCH 37 38
BRANCH 37 41
ATOM     41  N   SER C 502      75.421  27.092 -11.495  1.00 72.56 LIG-0.34  N 
ATOM     42 H    SER C 502      75.131  27.010 -10.689  1.00 72.56 LIG 0.16  HD
ATOM     43  C   GLU C 501      75.110  28.092 -12.314  1.00101.90 LIG 0.26  C 
ATOM     44 O    GLU C 501      75.797  28.375 -13.296  1.00103.22 LIG-0.27  OA
BRANCH 43 45
ATOM     45  CA  GLU C 501      73.859  28.913 -11.976  1.00101.55 LIG 0.40  C 
ATOM     46  N   GLU C 501      74.237  30.193 -11.384  1.00100.94 LIG 0.61  N 
BRANCH 45 47
ATOM     47  CB  GLU C 501      73.008  29.141 -13.229  1.00104.94 LIG 0.06  C 
BRANCH 47 48
ATOM     48  CG  GLU C 501      71.857  28.163 -13.384  1.00111.45 LIG 0.12  C 
BRANCH 48 49
ATOM     49  CD  GLU C 501      72.269  26.732 -13.108  1.00115.68 LIG 0.17  C 
ATOM     50 OE1  GLU C 501      72.521  25.983 -14.078  1.00117.56 LIG-0.65  OA
ATOM     51 OE2  GLU C 501      72.341  26.358 -11.919  1.00122.11 LIG-0.65  OA
ENDBRANCH 48 49
ENDBRANCH 47 48
ENDBRANCH 45 47
ENDBRANCH 43 45
ENDBRANCH 37 41
ENDBRANCH 35 37
ENDBRANCH 32 33
BRANCH 32 52
ATOM     52  CB  SER C 503      79.645  27.294  -9.612  1.00 49.05 LIG 0.20  C 
BRANCH 52 53
ATOM     53 OG   SER C 503      78.547  26.987  -8.771  1.00 54.59 LIG-0.40  OA
ATOM     54 HG   SER C 503      78.203  27.700  -8.488  1.00 54.59 LIG 0.21  HD
ENDBRANCH 52 53
ENDBRANCH 32 52
ENDBRANCH 1 32
TORSDOF 25
ENDMDL
MODEL 63
USER: ADFR SOLUTION from run 77
USER: SCORE 16.203413 LL:  -4.808 LR: -12.997 RR:   0.000 FEB:  -5.540
USER: RMSD 6.396590
USER: SEED 76
USER: STATUS no improvement in best in 4 clusters for 5 generations
USER: GENES 27
USER: genes 0 Translation |==|  0.64429 0.48883 0.50328
USER: genes 1 Rotation |==|  0.58041 0.24098 0.52226 0.91946
USER: genes 2 Torsion [C]-N--CA-[CB] |==|  0.42835
USER: genes 3 Torsion [N]-CA--C-[N] |==|  0.95548
USER: genes 4 Torsion [C]-N--CA-[C] |==|  0.79878
USER: genes 5 Torsion [N]-CA--CB-[OG] |==|  0.20264
USER: genes 6 Torsion [CA]-CB--OG-[HG] |==|  0.80786
USER: genes 7 Torsion [N]-CA--C-[N] |==|  0.38572
USER: genes 8 Torsion [C]-N--CA-[CB] |==|  0.77862
USER: genes 9 Torsion [N]-CA--C-[O] |==|  0.12691
USER: genes 10 Torsion [N]-CA--CB-[CG] |==|  0.25405
USER: genes 11 Torsion [CA]-CB--CG-[CD] |==|  0.27189
USER: genes 12 Torsion [CB]-CG--CD-[NE2] |==|  0.22609
USER: genes 13 Torsion [N]-CA--CB-[CG] |==|  0.03564
USER: genes 14 Torsion [CA]-CB--CG-[OD1] |==|  0.67283
USER: genes 15 Torsion [N]-C--CA-[N] |==|  0.48316
USER: genes 16 Torsion [C]-CA--N-[C] |==|  0.80554
USER: genes 17 Torsion [N]-C--CA-[N] |==|  0.38064
USER: genes 18 Torsion [C]-CA--CB-[OG] |==|  0.94542
USER: genes 19 Torsion [CA]-CB--OG-[HG] |==|  0.12348
USER: genes 20 Torsion [C]-CA--N-[C] |==|  0.78122
USER: genes 21 Torsion [N]-C--CA-[N] |==|  0.40343
USER: genes 22 Torsion [C]-CA--CB-[CG] |==|  0.72120
USER: genes 23 Torsion [CA]-CB--CG-[CD] |==|  0.74686
USER: genes 24 Torsion [CB]-CG--CD-[OE1] |==|  0.08980
USER: genes 25 Torsion [C]-CA--CB-[OG] |==|  0.82499
USER: genes 26 Torsion [CA]-CB--OG-[HG] |==|  0.16278
ROOT
ATOM      1  C   SER C 503      81.760  26.123 -14.482  1.00 42.27 LIG 0.24  C 
ATOM      2 O    SER C 503      82.135  26.483 -13.369  1.00 46.84 LIG-0.27  OA
ATOM      3  N   ASP C 504      82.396  25.214 -15.209  1.00 51.15 LIG-0.34  N 
ATOM      4 H    ASP C 504      82.083  24.891 -15.942  1.00 51.15 LIG 0.16  HD
ENDROOT
BRANCH 3 5
ATOM      5  CA  ASP C 504      83.698  24.668 -14.830  1.00 56.79 LIG 0.19  C 
BRANCH 5 6
ATOM      6  C   ASP C 504      84.822  25.607 -15.292  1.00 67.42 LIG 0.24  C 
ATOM      7  N   SER C 505      84.488  26.519 -16.200  1.00 81.52 LIG-0.34  N 
ATOM      8 H    SER C 505      83.699  26.594 -16.533  1.00 81.52 LIG 0.16  HD
ATOM      9 O    ASP C 504      85.962  25.508 -14.832  1.00 66.01 LIG-0.27  OA
BRANCH 7 10
ATOM     10  CA  SER C 505      85.451  27.488 -16.716  1.00 90.64 LIG 0.20  C 
BRANCH 10 11
ATOM     11  CB  SER C 505      84.919  28.156 -17.979  1.00 89.01 LIG 0.20  C 
BRANCH 11 12
ATOM     12 OG   SER C 505      83.886  29.068 -17.655  1.00 87.22 LIG-0.40  OA
ATOM     13 HG   SER C 505      83.211  28.645 -17.393  1.00 87.22 LIG 0.21  HD
ENDBRANCH 11 12
ENDBRANCH 10 11
BRANCH 10 14
ATOM     14  C   SER C 505      85.769  28.537 -15.655  1.00 98.93 LIG 0.24  C 
ATOM     15  N   GLN C 506      87.043  28.903 -15.551  1.00110.12 LIG-0.35  N 
ATOM     16 H    GLN C 506      87.650  28.703 -16.127  1.00110.12 LIG 0.16  HD
ATOM     17 O    SER C 505      84.875  29.014 -14.953  1.00 94.47 LIG-0.27  OA
BRANCH 15 18
ATOM     18  CA  GLN C 506      87.521  29.694 -14.423  1.00115.19 LIG 0.16  C 
BRANCH 18 19
ATOM     19  C   GLN C 506      86.957  29.201 -13.091  1.00118.66 LIG 0.22  C 
ATOM     20 O    GLN C 506      86.941  27.999 -12.817  1.00117.46 LIG-0.29  OA
ENDBRANCH 18 19
BRANCH 18 21
ATOM     21  CB  GLN C 506      87.166  31.168 -14.643  1.00118.15 LIG 0.04  C 
BRANCH 21 22
ATOM     22  CG  GLN C 506      85.811  31.571 -14.042  1.00119.48 LIG 0.10  C 
BRANCH 22 23
ATOM     23  CD  GLN C 506      85.919  32.241 -12.672  1.00116.76 LIG 0.21  C 
ATOM     24  NE2 GLN C 506      86.219  33.536 -12.665  1.00111.94 LIG-0.37  N 
ATOM     25 21HE GLN C 506      86.344  33.952 -13.408  1.00111.94 LIG 0.16  HD
ATOM     26 22HE GLN C 506      86.288  33.958 -11.919  1.00111.94 LIG 0.16  HD
ATOM     27 OE1  GLN C 506      85.730  31.602 -11.637  1.00116.06 LIG-0.27  OA
ENDBRANCH 22 23
ENDBRANCH 21 22
ENDBRANCH 18 21
ENDBRANCH 15 18
ENDBRANCH 10 14
ENDBRANCH 7 10
ENDBRANCH 5 6
BRANCH 5 28
ATOM     28  CB  ASP C 504      83.872  23.265 -15.438  1.00 57.84 LIG 0.15  C 
BRANCH 28 29
ATOM     29  CG  ASP C 504      82.830  22.934 -16.500  1.00 60.92 LIG 0.17  C 
ATOM     30 OD2  ASP C 504      82.798  23.638 -17.538  1.00 60.43 LIG-0.65  OA
ATOM     31 OD1  ASP C 504      82.049  21.977 -16.307  1.00 59.69 LIG-0.65  OA
ENDBRANCH 28 29
ENDBRANCH 5 28
ENDBRANCH 3 5
BRANCH 1 32
ATOM     32  CA  SER C 503      80.501  26.704 -15.100  1.00 44.19 LIG 0.20  C 
BRANCH 32 33
ATOM     33  N   SER C 503      79.815  27.583 -14.150  1.00 47.77 LIG-0.34  N 
ATOM     34 H    SER C 503      79.845  28.419 -14.351  1.00 47.77 LIG 0.16  HD
ATOM     35  C   SER C 502      79.205  27.095 -13.071  1.00 50.79 LIG 0.24  C 
ATOM     36 O    SER C 502      78.917  25.913 -12.944  1.00 48.58 LIG-0.27  OA
BRANCH 35 37
ATOM     37  CA  SER C 502      78.880  28.085 -11.967  1.00 60.54 LIG 0.20  C 
BRANCH 37 38
ATOM     38  CB  SER C 502      79.918  28.015 -10.860  1.00 53.64 LIG 0.20  C 
BRANCH 38 39
ATOM     39 OG   SER C 502      80.632  26.801 -10.898  1.00 59.09 LIG-0.40  OA
ATOM     40 HG   SER C 502      80.847  26.627 -11.691  1.00 59.09 LIG 0.21  HD
ENDBRANCH 38 39
ENDBRANCH 37 38
BRANCH 37 41
ATOM     41  N   SER C 502      77.533  27.805 -11.485  1.00 72.56 LIG-0.34  N 
ATOM     42 H    SER C 502      77.493  27.365 -10.747  1.00 72.56 LIG 0.16  HD
ATOM     43  C   GLU C 501      76.476  28.223 -12.175  1.00101.90 LIG 0.26  C 
ATOM     44 O    GLU C 501      76.548  29.132 -13.002  1.00103.22 LIG-0.27  OA
BRANCH 43 45
ATOM     45  CA  GLU C 501      75.133  27.540 -11.884  1.00101.55 LIG 0.40  C 
ATOM     46  N   GLU C 501      74.041  28.501 -12.002  1.00100.94 LIG 0.61  N 
BRANCH 45 47
ATOM     47  CB  GLU C 501      74.907  26.363 -12.837  1.00104.94 LIG 0.06  C 
BRANCH 47 48
ATOM     48  CG  GLU C 501      73.981  26.674 -14.000  1.00111.45 LIG 0.12  C 
BRANCH 48 49
ATOM     49  CD  GLU C 501      72.532  26.358 -13.688  1.00115.68 LIG 0.17  C 
ATOM     50 OE1  GLU C 501      72.129  26.491 -12.512  1.00117.56 LIG-0.65  OA
ATOM     51 OE2  GLU C 501      71.798  25.976 -14.624  1.00122.11 LIG-0.65  OA
ENDBRANCH 48 49
ENDBRANCH 47 48
ENDBRANCH 45 47
ENDBRANCH 43 45
ENDBRANCH 37 41
ENDBRANCH 35 37
ENDBRANCH 32 33
BRANCH 32 52
ATOM     52  CB  SER C 503      80.863  27.452 -16.375  1.00 49.05 LIG 0.20  C 
BRANCH 52 53
ATOM     53 OG   SER C 503      81.712  28.548 -16.081  1.00 54.59 LIG-0.40  OA
ATOM     54 HG   SER C 503      82.408  28.269 -15.702  1.00 54.59 LIG 0.21  HD
ENDBRANCH 52 53
ENDBRANCH 32 52
ENDBRANCH 1 32
TORSDOF 25
ENDMDL
MODEL 64
USER: ADFR SOLUTION from run 189
USER: SCORE 15.890465 LL:  -5.094 LR: -12.988 RR:   0.000 FEB:  -5.531
USER: RMSD 4.949631
USER: SEED 188
USER: STATUS no improvement in best in 10 clusters for 5 generations
USER: GENES 27
USER: genes 0 Translation |==|  0.42382 0.47583 0.68835
USER: genes 1 Rotation |==|  0.52292 0.43479 0.07538 0.75480
USER: genes 2 Torsion [C]-N--CA-[CB] |==|  0.42139
USER: genes 3 Torsion [N]-CA--C-[N] |==|  0.33037
USER: genes 4 Torsion [C]-N--CA-[C] |==|  0.21308
USER: genes 5 Torsion [N]-CA--CB-[OG] |==|  0.86370
USER: genes 6 Torsion [CA]-CB--OG-[HG] |==|  0.06968
USER: genes 7 Torsion [N]-CA--C-[N] |==|  0.82307
USER: genes 8 Torsion [C]-N--CA-[CB] |==|  0.12234
USER: genes 9 Torsion [N]-CA--C-[O] |==|  0.38248
USER: genes 10 Torsion [N]-CA--CB-[CG] |==|  0.68585
USER: genes 11 Torsion [CA]-CB--CG-[CD] |==|  0.80577
USER: genes 12 Torsion [CB]-CG--CD-[NE2] |==|  0.89885
USER: genes 13 Torsion [N]-CA--CB-[CG] |==|  0.53596
USER: genes 14 Torsion [CA]-CB--CG-[OD1] |==|  0.31226
USER: genes 15 Torsion [N]-C--CA-[N] |==|  0.92332
USER: genes 16 Torsion [C]-CA--N-[C] |==|  0.82318
USER: genes 17 Torsion [N]-C--CA-[N] |==|  0.96515
USER: genes 18 Torsion [C]-CA--CB-[OG] |==|  0.55170
USER: genes 19 Torsion [CA]-CB--OG-[HG] |==|  0.07068
USER: genes 20 Torsion [C]-CA--N-[C] |==|  0.79734
USER: genes 21 Torsion [N]-C--CA-[N] |==|  0.69913
USER: genes 22 Torsion [C]-CA--CB-[CG] |==|  0.23851
USER: genes 23 Torsion [CA]-CB--CG-[CD] |==|  0.82512
USER: genes 24 Torsion [CB]-CG--CD-[OE1] |==|  0.31430
USER: genes 25 Torsion [C]-CA--CB-[OG] |==|  0.88921
USER: genes 26 Torsion [CA]-CB--OG-[HG] |==|  0.53504
ROOT
ATOM      1  C   SER C 503      77.957  25.850 -11.013  1.00 42.27 LIG 0.24  C 
ATOM      2 O    SER C 503      77.842  24.647 -10.794  1.00 46.84 LIG-0.27  OA
ATOM      3  N   ASP C 504      77.198  26.511 -11.876  1.00 51.15 LIG-0.34  N 
ATOM      4 H    ASP C 504      77.211  27.367 -11.959  1.00 51.15 LIG 0.16  HD
ENDROOT
BRANCH 3 5
ATOM      5  CA  ASP C 504      76.259  25.844 -12.777  1.00 56.79 LIG 0.19  C 
BRANCH 5 6
ATOM      6  C   ASP C 504      76.978  25.399 -14.059  1.00 67.42 LIG 0.24  C 
ATOM      7  N   SER C 505      76.982  24.092 -14.303  1.00 81.52 LIG-0.34  N 
ATOM      8 H    SER C 505      76.621  23.508 -13.787  1.00 81.52 LIG 0.16  HD
ATOM      9 O    ASP C 504      77.509  26.222 -14.807  1.00 66.01 LIG-0.27  OA
BRANCH 7 10
ATOM     10  CA  SER C 505      77.613  23.529 -15.495  1.00 90.64 LIG 0.20  C 
BRANCH 10 11
ATOM     11  CB  SER C 505      77.232  24.329 -16.735  1.00 89.01 LIG 0.20  C 
BRANCH 11 12
ATOM     12 OG   SER C 505      75.831  24.522 -16.785  1.00 87.22 LIG-0.40  OA
ATOM     13 HG   SER C 505      75.515  24.481 -16.008  1.00 87.22 LIG 0.21  HD
ENDBRANCH 11 12
ENDBRANCH 10 11
BRANCH 10 14
ATOM     14  C   SER C 505      79.130  23.500 -15.328  1.00 98.93 LIG 0.24  C 
ATOM     15  N   GLN C 506      79.732  24.680 -15.210  1.00110.12 LIG-0.35  N 
ATOM     16 H    GLN C 506      79.316  25.421 -15.076  1.00110.12 LIG 0.16  HD
ATOM     17 O    SER C 505      79.739  22.429 -15.294  1.00 94.47 LIG-0.27  OA
BRANCH 15 18
ATOM     18  CA  GLN C 506      81.181  24.810 -15.303  1.00115.19 LIG 0.16  C 
BRANCH 18 19
ATOM     19  C   GLN C 506      81.622  26.265 -15.453  1.00118.66 LIG 0.22  C 
ATOM     20 O    GLN C 506      82.593  26.700 -14.830  1.00117.46 LIG-0.29  OA
ENDBRANCH 18 19
BRANCH 18 21
ATOM     21  CB  GLN C 506      81.697  23.970 -16.476  1.00118.15 LIG 0.04  C 
BRANCH 21 22
ATOM     22  CG  GLN C 506      82.563  22.776 -16.044  1.00119.48 LIG 0.10  C 
BRANCH 22 23
ATOM     23  CD  GLN C 506      83.926  23.175 -15.479  1.00116.76 LIG 0.21  C 
ATOM     24  NE2 GLN C 506      84.522  24.220 -16.044  1.00111.94 LIG-0.37  N 
ATOM     25 21HE GLN C 506      84.140  24.632 -16.695  1.00111.94 LIG 0.16  HD
ATOM     26 22HE GLN C 506      85.289  24.484 -15.759  1.00111.94 LIG 0.16  HD
ATOM     27 OE1  GLN C 506      84.431  22.553 -14.544  1.00116.06 LIG-0.27  OA
ENDBRANCH 22 23
ENDBRANCH 21 22
ENDBRANCH 18 21
ENDBRANCH 15 18
ENDBRANCH 10 14
ENDBRANCH 7 10
ENDBRANCH 5 6
BRANCH 5 28
ATOM     28  CB  ASP C 504      75.090  26.790 -13.105  1.00 57.84 LIG 0.15  C 
BRANCH 28 29
ATOM     29  CG  ASP C 504      73.915  26.088 -13.775  1.00 60.92 LIG 0.17  C 
ATOM     30 OD2  ASP C 504      74.078  25.635 -14.934  1.00 60.43 LIG-0.65  OA
ATOM     31 OD1  ASP C 504      72.835  25.983 -13.154  1.00 59.69 LIG-0.65  OA
ENDBRANCH 28 29
ENDBRANCH 5 28
ENDBRANCH 3 5
BRANCH 1 32
ATOM     32  CA  SER C 503      78.992  26.676 -10.271  1.00 44.19 LIG 0.20  C 
BRANCH 32 33
ATOM     33  N   SER C 503      79.398  27.836 -11.068  1.00 47.77 LIG-0.34  N 
ATOM     34 H    SER C 503      79.203  28.597 -10.718  1.00 47.77 LIG 0.16  HD
ATOM     35  C   SER C 502      80.019  27.689 -12.237  1.00 50.79 LIG 0.24  C 
ATOM     36 O    SER C 502      80.548  26.643 -12.586  1.00 48.58 LIG-0.27  OA
BRANCH 35 37
ATOM     37  CA  SER C 502      80.039  28.899 -13.154  1.00 60.54 LIG 0.20  C 
BRANCH 37 38
ATOM     38  CB  SER C 502      81.445  29.461 -13.273  1.00 53.64 LIG 0.20  C 
BRANCH 38 39
ATOM     39 OG   SER C 502      81.433  30.786 -13.751  1.00 59.09 LIG-0.40  OA
ATOM     40 HG   SER C 502      80.698  31.145 -13.562  1.00 59.09 LIG 0.21  HD
ENDBRANCH 38 39
ENDBRANCH 37 38
BRANCH 37 41
ATOM     41  N   SER C 502      79.091  29.878 -12.637  1.00 72.56 LIG-0.34  N 
ATOM     42 H    SER C 502      79.445  30.569 -12.267  1.00 72.56 LIG 0.16  HD
ATOM     43  C   GLU C 501      77.783  29.670 -12.756  1.00101.90 LIG 0.26  C 
ATOM     44 O    GLU C 501      77.315  28.887 -13.583  1.00103.22 LIG-0.27  OA
BRANCH 43 45
ATOM     45  CA  GLU C 501      76.858  30.472 -11.831  1.00101.55 LIG 0.40  C 
ATOM     46  N   GLU C 501      76.279  29.599 -10.814  1.00100.94 LIG 0.61  N 
BRANCH 45 47
ATOM     47  CB  GLU C 501      77.620  31.623 -11.169  1.00104.94 LIG 0.06  C 
BRANCH 47 48
ATOM     48  CG  GLU C 501      77.677  32.891 -12.002  1.00111.45 LIG 0.12  C 
BRANCH 48 49
ATOM     49  CD  GLU C 501      78.420  32.694 -13.309  1.00115.68 LIG 0.17  C 
ATOM     50 OE1  GLU C 501      77.779  32.772 -14.380  1.00117.56 LIG-0.65  OA
ATOM     51 OE2  GLU C 501      79.646  32.463 -13.260  1.00122.11 LIG-0.65  OA
ENDBRANCH 48 49
ENDBRANCH 47 48
ENDBRANCH 45 47
ENDBRANCH 43 45
ENDBRANCH 37 41
ENDBRANCH 35 37
ENDBRANCH 32 33
BRANCH 32 52
ATOM     52  CB  SER C 503      78.424  27.108  -8.926  1.00 49.05 LIG 0.20  C 
BRANCH 52 53
ATOM     53 OG   SER C 503      77.061  27.470  -9.059  1.00 54.59 LIG-0.40  OA
ATOM     54 HG   SER C 503      76.808  27.866  -8.362  1.00 54.59 LIG 0.21  HD
ENDBRANCH 52 53
ENDBRANCH 32 52
ENDBRANCH 1 32
TORSDOF 25
ENDMDL
MODEL 65
USER: ADFR SOLUTION from run 63
USER: SCORE 15.590852 LL:  -4.391 LR: -12.928 RR:   0.000 FEB:  -5.471
USER: RMSD 6.267476
USER: SEED 62
USER: STATUS no improvement in best in 21 clusters for 5 generations
USER: GENES 27
USER: genes 0 Translation |==|  0.75084 0.48261 0.44055
USER: genes 1 Rotation |==|  0.53599 0.12958 0.23127 0.69820
USER: genes 2 Torsion [C]-N--CA-[CB] |==|  0.87551
USER: genes 3 Torsion [N]-CA--C-[N] |==|  0.79469
USER: genes 4 Torsion [C]-N--CA-[C] |==|  0.57763
USER: genes 5 Torsion [N]-CA--CB-[OG] |==|  0.88377
USER: genes 6 Torsion [CA]-CB--OG-[HG] |==|  0.18369
USER: genes 7 Torsion [N]-CA--C-[N] |==|  0.54243
USER: genes 8 Torsion [C]-N--CA-[CB] |==|  0.36996
USER: genes 9 Torsion [N]-CA--C-[O] |==|  0.17687
USER: genes 10 Torsion [N]-CA--CB-[CG] |==|  0.52972
USER: genes 11 Torsion [CA]-CB--CG-[CD] |==|  0.73660
USER: genes 12 Torsion [CB]-CG--CD-[NE2] |==|  0.33921
USER: genes 13 Torsion [N]-CA--CB-[CG] |==|  0.53034
USER: genes 14 Torsion [CA]-CB--CG-[OD1] |==|  0.44083
USER: genes 15 Torsion [N]-C--CA-[N] |==|  0.42778
USER: genes 16 Torsion [C]-CA--N-[C] |==|  0.84200
USER: genes 17 Torsion [N]-C--CA-[N] |==|  0.48221
USER: genes 18 Torsion [C]-CA--CB-[OG] |==|  0.94825
USER: genes 19 Torsion [CA]-CB--OG-[HG] |==|  0.42652
USER: genes 20 Torsion [C]-CA--N-[C] |==|  0.63050
USER: genes 21 Torsion [N]-C--CA-[N] |==|  0.79450
USER: genes 22 Torsion [C]-CA--CB-[CG] |==|  0.65729
USER: genes 23 Torsion [CA]-CB--CG-[CD] |==|  0.22284
USER: genes 24 Torsion [CB]-CG--CD-[OE1] |==|  0.78457
USER: genes 25 Torsion [C]-CA--CB-[OG] |==|  0.99902
USER: genes 26 Torsion [CA]-CB--OG-[HG] |==|  0.16425
ROOT
ATOM      1  C   SER C 503      83.598  25.993 -15.659  1.00 42.27 LIG 0.24  C 
ATOM      2 O    SER C 503      82.983  25.617 -14.664  1.00 46.84 LIG-0.27  OA
ATOM      3  N   ASP C 504      83.771  25.240 -16.737  1.00 51.15 LIG-0.34  N 
ATOM      4 H    ASP C 504      84.116  25.534 -17.468  1.00 51.15 LIG 0.16  HD
ENDROOT
BRANCH 3 5
ATOM      5  CA  ASP C 504      83.391  23.829 -16.787  1.00 56.79 LIG 0.19  C 
BRANCH 5 6
ATOM      6  C   ASP C 504      81.872  23.694 -16.970  1.00 67.42 LIG 0.24  C 
ATOM      7  N   SER C 505      81.127  23.969 -15.903  1.00 81.52 LIG-0.34  N 
ATOM      8 H    SER C 505      81.451  24.201 -15.141  1.00 81.52 LIG 0.16  HD
ATOM      9 O    ASP C 504      81.391  23.355 -18.053  1.00 66.01 LIG-0.27  OA
BRANCH 7 10
ATOM     10  CA  SER C 505      79.668  23.900 -15.939  1.00 90.64 LIG 0.20  C 
BRANCH 10 11
ATOM     11  CB  SER C 505      79.191  22.477 -15.668  1.00 89.01 LIG 0.20  C 
BRANCH 11 12
ATOM     12 OG   SER C 505      80.004  21.546 -16.355  1.00 87.22 LIG-0.40  OA
ATOM     13 HG   SER C 505      80.780  21.563 -16.036  1.00 87.22 LIG 0.21  HD
ENDBRANCH 11 12
ENDBRANCH 10 11
BRANCH 10 14
ATOM     14  C   SER C 505      79.066  24.864 -14.921  1.00 98.93 LIG 0.24  C 
ATOM     15  N   GLN C 506      77.783  24.682 -14.625  1.00110.12 LIG-0.35  N 
ATOM     16 H    GLN C 506      77.331  23.986 -14.850  1.00110.12 LIG 0.16  HD
ATOM     17 O    SER C 505      79.755  25.747 -14.406  1.00 94.47 LIG-0.27  OA
BRANCH 15 18
ATOM     18  CA  GLN C 506      77.024  25.676 -13.875  1.00115.19 LIG 0.16  C 
BRANCH 18 19
ATOM     19  C   GLN C 506      76.810  25.263 -12.420  1.00118.66 LIG 0.22  C 
ATOM     20 O    GLN C 506      77.765  25.128 -11.653  1.00117.46 LIG-0.29  OA
ENDBRANCH 18 19
BRANCH 18 21
ATOM     21  CB  GLN C 506      75.679  25.923 -14.566  1.00118.15 LIG 0.04  C 
BRANCH 21 22
ATOM     22  CG  GLN C 506      74.914  27.134 -14.011  1.00119.48 LIG 0.10  C 
BRANCH 22 23
ATOM     23  CD  GLN C 506      73.890  26.776 -12.933  1.00116.76 LIG 0.21  C 
ATOM     24  NE2 GLN C 506      74.039  27.365 -11.752  1.00111.94 LIG-0.37  N 
ATOM     25 21HE GLN C 506      74.689  27.915 -11.624  1.00111.94 LIG 0.16  HD
ATOM     26 22HE GLN C 506      73.486  27.198 -11.115  1.00111.94 LIG 0.16  HD
ATOM     27 OE1  GLN C 506      72.977  25.983 -13.165  1.00116.06 LIG-0.27  OA
ENDBRANCH 22 23
ENDBRANCH 21 22
ENDBRANCH 18 21
ENDBRANCH 15 18
ENDBRANCH 10 14
ENDBRANCH 7 10
ENDBRANCH 5 6
BRANCH 5 28
ATOM     28  CB  ASP C 504      83.853  23.120 -15.502  1.00 57.84 LIG 0.15  C 
BRANCH 28 29
ATOM     29  CG  ASP C 504      83.738  21.601 -15.576  1.00 60.92 LIG 0.17  C 
ATOM     30 OD2  ASP C 504      82.951  21.108 -16.419  1.00 60.43 LIG-0.65  OA
ATOM     31 OD1  ASP C 504      84.427  20.902 -14.803  1.00 59.69 LIG-0.65  OA
ENDBRANCH 28 29
ENDBRANCH 5 28
ENDBRANCH 3 5
BRANCH 1 32
ATOM     32  CA  SER C 503      84.196  27.386 -15.719  1.00 44.19 LIG 0.20  C 
BRANCH 32 33
ATOM     33  N   SER C 503      83.473  28.300 -14.832  1.00 47.77 LIG-0.34  N 
ATOM     34 H    SER C 503      83.963  28.689 -14.241  1.00 47.77 LIG 0.16  HD
ATOM     35  C   SER C 502      82.160  28.492 -14.957  1.00 50.79 LIG 0.24  C 
ATOM     36 O    SER C 502      81.532  28.175 -15.957  1.00 48.58 LIG-0.27  OA
BRANCH 35 37
ATOM     37  CA  SER C 502      81.449  29.125 -13.775  1.00 60.54 LIG 0.20  C 
BRANCH 37 38
ATOM     38  CB  SER C 502      81.548  28.235 -12.548  1.00 53.64 LIG 0.20  C 
BRANCH 38 39
ATOM     39 OG   SER C 502      81.879  26.910 -12.897  1.00 59.09 LIG-0.40  OA
ATOM     40 HG   SER C 502      82.271  26.541 -12.253  1.00 59.09 LIG 0.21  HD
ENDBRANCH 38 39
ENDBRANCH 37 38
BRANCH 37 41
ATOM     41  N   SER C 502      80.068  29.389 -14.161  1.00 72.56 LIG-0.34  N 
ATOM     42 H    SER C 502      79.668  28.737 -14.553  1.00 72.56 LIG 0.16  HD
ATOM     43  C   GLU C 501      79.516  30.570 -13.901  1.00101.90 LIG 0.26  C 
ATOM     44 O    GLU C 501      79.966  31.333 -13.045  1.00103.22 LIG-0.27  OA
BRANCH 43 45
ATOM     45  CA  GLU C 501      78.261  30.949 -14.698  1.00101.55 LIG 0.40  C 
ATOM     46  N   GLU C 501      78.619  31.302 -16.069  1.00100.94 LIG 0.61  N 
BRANCH 45 47
ATOM     47  CB  GLU C 501      77.251  29.799 -14.695  1.00104.94 LIG 0.06  C 
BRANCH 47 48
ATOM     48  CG  GLU C 501      76.847  29.323 -16.079  1.00111.45 LIG 0.12  C 
BRANCH 48 49
ATOM     49  CD  GLU C 501      77.872  28.394 -16.696  1.00115.68 LIG 0.17  C 
ATOM     50 OE1  GLU C 501      78.913  28.887 -17.182  1.00117.56 LIG-0.65  OA
ATOM     51 OE2  GLU C 501      77.633  27.168 -16.693  1.00122.11 LIG-0.65  OA
ENDBRANCH 48 49
ENDBRANCH 47 48
ENDBRANCH 45 47
ENDBRANCH 43 45
ENDBRANCH 37 41
ENDBRANCH 35 37
ENDBRANCH 32 33
BRANCH 32 52
ATOM     52  CB  SER C 503      85.671  27.318 -15.348  1.00 49.05 LIG 0.20  C 
BRANCH 52 53
ATOM     53 OG   SER C 503      86.046  25.985 -15.051  1.00 54.59 LIG-0.40  OA
ATOM     54 HG   SER C 503      85.899  25.497 -15.719  1.00 54.59 LIG 0.21  HD
ENDBRANCH 52 53
ENDBRANCH 32 52
ENDBRANCH 1 32
TORSDOF 25
ENDMDL
MODEL 66
USER: ADFR SOLUTION from run 72
USER: SCORE 15.644009 LL:  -4.340 LR: -12.928 RR:   0.000 FEB:  -5.470
USER: RMSD 5.865946
USER: SEED 71
USER: STATUS no improvement in best in 6 clusters for 5 generations
USER: GENES 27
USER: genes 0 Translation |==|  0.49875 0.53402 0.60240
USER: genes 1 Rotation |==|  0.64196 0.30475 0.09788 0.67328
USER: genes 2 Torsion [C]-N--CA-[CB] |==|  0.50000
USER: genes 3 Torsion [N]-CA--C-[N] |==|  0.45981
USER: genes 4 Torsion [C]-N--CA-[C] |==|  0.82739
USER: genes 5 Torsion [N]-CA--CB-[OG] |==|  0.53158
USER: genes 6 Torsion [CA]-CB--OG-[HG] |==|  0.39757
USER: genes 7 Torsion [N]-CA--C-[N] |==|  0.23293
USER: genes 8 Torsion [C]-N--CA-[CB] |==|  0.18918
USER: genes 9 Torsion [N]-CA--C-[O] |==|  0.20788
USER: genes 10 Torsion [N]-CA--CB-[CG] |==|  0.31984
USER: genes 11 Torsion [CA]-CB--CG-[CD] |==|  0.22406
USER: genes 12 Torsion [CB]-CG--CD-[NE2] |==|  0.21545
USER: genes 13 Torsion [N]-CA--CB-[CG] |==|  0.11131
USER: genes 14 Torsion [CA]-CB--CG-[OD1] |==|  0.75668
USER: genes 15 Torsion [N]-C--CA-[N] |==|  0.19808
USER: genes 16 Torsion [C]-CA--N-[C] |==|  0.77117
USER: genes 17 Torsion [N]-C--CA-[N] |==|  0.94588
USER: genes 18 Torsion [C]-CA--CB-[OG] |==|  0.69900
USER: genes 19 Torsion [CA]-CB--OG-[HG] |==|  0.13220
USER: genes 20 Torsion [C]-CA--N-[C] |==|  0.80856
USER: genes 21 Torsion [N]-C--CA-[N] |==|  0.26891
USER: genes 22 Torsion [C]-CA--CB-[CG] |==|  0.76729
USER: genes 23 Torsion [CA]-CB--CG-[CD] |==|  0.76225
USER: genes 24 Torsion [CB]-CG--CD-[OE1] |==|  0.52229
USER: genes 25 Torsion [C]-CA--CB-[OG] |==|  0.73023
USER: genes 26 Torsion [CA]-CB--OG-[HG] |==|  0.72500
ROOT
ATOM      1  C   SER C 503      79.249  27.072 -12.624  1.00 42.27 LIG 0.24  C 
ATOM      2 O    SER C 503      78.727  25.981 -12.409  1.00 46.84 LIG-0.27  OA
ATOM      3  N   ASP C 504      79.418  27.575 -13.840  1.00 51.15 LIG-0.34  N 
ATOM      4 H    ASP C 504      79.693  28.376 -13.987  1.00 51.15 LIG 0.16  HD
ENDROOT
BRANCH 3 5
ATOM      5  CA  ASP C 504      79.150  26.809 -15.056  1.00 56.79 LIG 0.19  C 
BRANCH 5 6
ATOM      6  C   ASP C 504      79.996  25.527 -15.074  1.00 67.42 LIG 0.24  C 
ATOM      7  N   SER C 505      79.640  24.603 -15.961  1.00 81.52 LIG-0.34  N 
ATOM      8 H    SER C 505      78.973  24.687 -16.497  1.00 81.52 LIG 0.16  HD
ATOM      9 O    ASP C 504      80.950  25.385 -14.306  1.00 66.01 LIG-0.27  OA
BRANCH 7 10
ATOM     10  CA  SER C 505      80.365  23.342 -16.100  1.00 90.64 LIG 0.20  C 
BRANCH 10 11
ATOM     11  CB  SER C 505      79.673  22.431 -17.108  1.00 89.01 LIG 0.20  C 
BRANCH 11 12
ATOM     12 OG   SER C 505      80.219  21.128 -17.049  1.00 87.22 LIG-0.40  OA
ATOM     13 HG   SER C 505      79.609  20.563 -17.165  1.00 87.22 LIG 0.21  HD
ENDBRANCH 11 12
ENDBRANCH 10 11
BRANCH 10 14
ATOM     14  C   SER C 505      81.807  23.605 -16.525  1.00 98.93 LIG 0.24  C 
ATOM     15  N   GLN C 506      82.665  23.892 -15.551  1.00110.12 LIG-0.35  N 
ATOM     16 H    GLN C 506      82.493  23.794 -14.714  1.00110.12 LIG 0.16  HD
ATOM     17 O    SER C 505      82.137  23.534 -17.711  1.00 94.47 LIG-0.27  OA
BRANCH 15 18
ATOM     18  CA  GLN C 506      83.998  24.411 -15.836  1.00115.19 LIG 0.16  C 
BRANCH 18 19
ATOM     19  C   GLN C 506      84.896  24.408 -14.599  1.00118.66 LIG 0.22  C 
ATOM     20 O    GLN C 506      85.378  23.358 -14.169  1.00117.46 LIG-0.29  OA
ENDBRANCH 18 19
BRANCH 18 21
ATOM     21  CB  GLN C 506      83.885  25.825 -16.414  1.00118.15 LIG 0.04  C 
BRANCH 21 22
ATOM     22  CG  GLN C 506      84.498  26.909 -15.514  1.00119.48 LIG 0.10  C 
BRANCH 22 23
ATOM     23  CD  GLN C 506      86.018  27.024 -15.633  1.00116.76 LIG 0.21  C 
ATOM     24  NE2 GLN C 506      86.483  27.658 -16.704  1.00111.94 LIG-0.37  N 
ATOM     25 21HE GLN C 506      85.936  27.977 -17.287  1.00111.94 LIG 0.16  HD
ATOM     26 22HE GLN C 506      87.331  27.751 -16.815  1.00111.94 LIG 0.16  HD
ATOM     27 OE1  GLN C 506      86.759  26.551 -14.771  1.00116.06 LIG-0.27  OA
ENDBRANCH 22 23
ENDBRANCH 21 22
ENDBRANCH 18 21
ENDBRANCH 15 18
ENDBRANCH 10 14
ENDBRANCH 7 10
ENDBRANCH 5 6
BRANCH 5 28
ATOM     28  CB  ASP C 504      79.444  27.676 -16.293  1.00 57.84 LIG 0.15  C 
BRANCH 28 29
ATOM     29  CG  ASP C 504      80.694  28.537 -16.144  1.00 60.92 LIG 0.17  C 
ATOM     30 OD2  ASP C 504      81.784  28.075 -16.557  1.00 60.43 LIG-0.65  OA
ATOM     31 OD1  ASP C 504      80.593  29.668 -15.622  1.00 59.69 LIG-0.65  OA
ENDBRANCH 28 29
ENDBRANCH 5 28
ENDBRANCH 3 5
BRANCH 1 32
ATOM     32  CA  SER C 503      79.729  27.940 -11.475  1.00 44.19 LIG 0.20  C 
BRANCH 32 33
ATOM     33  N   SER C 503      78.852  29.101 -11.300  1.00 47.77 LIG-0.34  N 
ATOM     34 H    SER C 503      78.256  29.009 -10.687  1.00 47.77 LIG 0.16  HD
ATOM     35  C   SER C 502      78.994  30.194 -12.048  1.00 50.79 LIG 0.24  C 
ATOM     36 O    SER C 502      80.001  30.432 -12.699  1.00 48.58 LIG-0.27  OA
BRANCH 35 37
ATOM     37  CA  SER C 502      77.821  31.158 -12.073  1.00 60.54 LIG 0.20  C 
BRANCH 37 38
ATOM     38  CB  SER C 502      78.110  32.379 -11.216  1.00 53.64 LIG 0.20  C 
BRANCH 38 39
ATOM     39 OG   SER C 502      77.343  32.373 -10.034  1.00 59.09 LIG-0.40  OA
ATOM     40 HG   SER C 502      77.392  31.617  -9.672  1.00 59.09 LIG 0.21  HD
ENDBRANCH 38 39
ENDBRANCH 37 38
BRANCH 37 41
ATOM     41  N   SER C 502      76.631  30.439 -11.634  1.00 72.56 LIG-0.34  N 
ATOM     42 H    SER C 502      76.320  30.681 -10.870  1.00 72.56 LIG 0.16  HD
ATOM     43  C   GLU C 501      76.104  29.489 -12.400  1.00101.90 LIG 0.26  C 
ATOM     44 O    GLU C 501      76.335  29.413 -13.607  1.00103.22 LIG-0.27  OA
BRANCH 43 45
ATOM     45  CA  GLU C 501      75.160  28.485 -11.724  1.00101.55 LIG 0.40  C 
ATOM     46  N   GLU C 501      73.770  28.887 -11.918  1.00100.94 LIG 0.61  N 
BRANCH 45 47
ATOM     47  CB  GLU C 501      75.385  27.075 -12.277  1.00104.94 LIG 0.06  C 
BRANCH 47 48
ATOM     48  CG  GLU C 501      74.639  26.788 -13.568  1.00111.45 LIG 0.12  C 
BRANCH 48 49
ATOM     49  CD  GLU C 501      73.220  26.315 -13.325  1.00115.68 LIG 0.17  C 
ATOM     50 OE1  GLU C 501      72.551  25.900 -14.298  1.00117.56 LIG-0.65  OA
ATOM     51 OE2  GLU C 501      72.776  26.358 -12.158  1.00122.11 LIG-0.65  OA
ENDBRANCH 48 49
ENDBRANCH 47 48
ENDBRANCH 45 47
ENDBRANCH 43 45
ENDBRANCH 37 41
ENDBRANCH 35 37
ENDBRANCH 32 33
BRANCH 32 52
ATOM     52  CB  SER C 503      79.791  27.105 -10.204  1.00 49.05 LIG 0.20  C 
BRANCH 52 53
ATOM     53 OG   SER C 503      78.617  27.290  -9.432  1.00 54.59 LIG-0.40  OA
ATOM     54 HG   SER C 503      78.769  27.844  -8.819  1.00 54.59 LIG 0.21  HD
ENDBRANCH 52 53
ENDBRANCH 32 52
ENDBRANCH 1 32
TORSDOF 25
ENDMDL
MODEL 67
USER: ADFR SOLUTION from run 9
USER: SCORE 16.272961 LL:  -5.445 LR: -12.914 RR:   0.000 FEB:  -5.457
USER: RMSD 4.710199
USER: SEED 270950
USER: STATUS no improvement in best in 2 clusters for 5 generations
USER: GENES 27
USER: genes 0 Translation |==|  0.61082 0.50409 0.47196
USER: genes 1 Rotation |==|  0.49887 0.39959 0.38274 0.97557
USER: genes 2 Torsion [C]-N--CA-[CB] |==|  0.46519
USER: genes 3 Torsion [N]-CA--C-[N] |==|  0.96097
USER: genes 4 Torsion [C]-N--CA-[C] |==|  0.76600
USER: genes 5 Torsion [N]-CA--CB-[OG] |==|  0.12628
USER: genes 6 Torsion [CA]-CB--OG-[HG] |==|  0.01514
USER: genes 7 Torsion [N]-CA--C-[N] |==|  0.98378
USER: genes 8 Torsion [C]-N--CA-[CB] |==|  0.39265
USER: genes 9 Torsion [N]-CA--C-[O] |==|  0.79110
USER: genes 10 Torsion [N]-CA--CB-[CG] |==|  0.74999
USER: genes 11 Torsion [CA]-CB--CG-[CD] |==|  0.11096
USER: genes 12 Torsion [CB]-CG--CD-[NE2] |==|  0.29387
USER: genes 13 Torsion [N]-CA--CB-[CG] |==|  0.52050
USER: genes 14 Torsion [CA]-CB--CG-[OD1] |==|  0.06828
USER: genes 15 Torsion [N]-C--CA-[N] |==|  0.17831
USER: genes 16 Torsion [C]-CA--N-[C] |==|  0.79834
USER: genes 17 Torsion [N]-C--CA-[N] |==|  0.07433
USER: genes 18 Torsion [C]-CA--CB-[OG] |==|  0.49509
USER: genes 19 Torsion [CA]-CB--OG-[HG] |==|  0.59272
USER: genes 20 Torsion [C]-CA--N-[C] |==|  0.66245
USER: genes 21 Torsion [N]-C--CA-[N] |==|  0.26785
USER: genes 22 Torsion [C]-CA--CB-[CG] |==|  0.27157
USER: genes 23 Torsion [CA]-CB--CG-[CD] |==|  0.91153
USER: genes 24 Torsion [CB]-CG--CD-[OE1] |==|  0.74186
USER: genes 25 Torsion [C]-CA--CB-[OG] |==|  0.41131
USER: genes 26 Torsion [CA]-CB--OG-[HG] |==|  0.09382
ROOT
ATOM      1  C   SER C 503      81.183  26.444 -15.070  1.00 42.27 LIG 0.24  C 
ATOM      2 O    SER C 503      82.305  26.390 -14.573  1.00 46.84 LIG-0.27  OA
ATOM      3  N   ASP C 504      80.654  25.462 -15.787  1.00 51.15 LIG-0.34  N 
ATOM      4 H    ASP C 504      79.836  25.458 -16.053  1.00 51.15 LIG 0.16  HD
ENDROOT
BRANCH 3 5
ATOM      5  CA  ASP C 504      81.415  24.284 -16.200  1.00 56.79 LIG 0.19  C 
BRANCH 5 6
ATOM      6  C   ASP C 504      82.455  24.669 -17.262  1.00 67.42 LIG 0.24  C 
ATOM      7  N   SER C 505      82.303  25.864 -17.824  1.00 81.52 LIG-0.34  N 
ATOM      8 H    SER C 505      81.664  26.406 -17.631  1.00 81.52 LIG 0.16  HD
ATOM      9 O    ASP C 504      83.373  23.901 -17.559  1.00 66.01 LIG-0.27  OA
BRANCH 7 10
ATOM     10  CA  SER C 505      83.228  26.367 -18.837  1.00 90.64 LIG 0.20  C 
BRANCH 10 11
ATOM     11  CB  SER C 505      82.532  27.369 -19.752  1.00 89.01 LIG 0.20  C 
BRANCH 11 12
ATOM     12 OG   SER C 505      81.769  28.284 -18.990  1.00 87.22 LIG-0.40  OA
ATOM     13 HG   SER C 505      81.903  28.148 -18.172  1.00 87.22 LIG 0.21  HD
ENDBRANCH 11 12
ENDBRANCH 10 11
BRANCH 10 14
ATOM     14  C   SER C 505      84.443  27.010 -18.174  1.00 98.93 LIG 0.24  C 
ATOM     15  N   GLN C 506      84.403  27.115 -16.849  1.00110.12 LIG-0.35  N 
ATOM     16 H    GLN C 506      83.823  26.720 -16.352  1.00110.12 LIG 0.16  HD
ATOM     17 O    SER C 505      85.401  27.391 -18.849  1.00 94.47 LIG-0.27  OA
BRANCH 15 18
ATOM     18  CA  GLN C 506      85.367  27.930 -16.119  1.00115.19 LIG 0.16  C 
BRANCH 18 19
ATOM     19  C   GLN C 506      86.544  27.107 -15.598  1.00118.66 LIG 0.22  C 
ATOM     20 O    GLN C 506      86.416  26.366 -14.622  1.00117.46 LIG-0.29  OA
ENDBRANCH 18 19
BRANCH 18 21
ATOM     21  CB  GLN C 506      84.660  28.647 -14.963  1.00118.15 LIG 0.04  C 
BRANCH 21 22
ATOM     22  CG  GLN C 506      84.096  30.024 -15.344  1.00119.48 LIG 0.10  C 
BRANCH 22 23
ATOM     23  CD  GLN C 506      83.460  30.066 -16.734  1.00116.76 LIG 0.21  C 
ATOM     24  NE2 GLN C 506      82.133  30.108 -16.779  1.00111.94 LIG-0.37  N 
ATOM     25 21HE GLN C 506      81.678  30.107 -16.050  1.00111.94 LIG 0.16  HD
ATOM     26 22HE GLN C 506      81.729  30.136 -17.538  1.00111.94 LIG 0.16  HD
ATOM     27 OE1  GLN C 506      84.156  30.066 -17.750  1.00116.06 LIG-0.27  OA
ENDBRANCH 22 23
ENDBRANCH 21 22
ENDBRANCH 18 21
ENDBRANCH 15 18
ENDBRANCH 10 14
ENDBRANCH 7 10
ENDBRANCH 5 6
BRANCH 5 28
ATOM     28  CB  ASP C 504      80.457  23.205 -16.736  1.00 57.84 LIG 0.15  C 
BRANCH 28 29
ATOM     29  CG  ASP C 504      81.145  21.875 -17.022  1.00 60.92 LIG 0.17  C 
ATOM     30 OD2  ASP C 504      80.623  21.108 -17.866  1.00 60.43 LIG-0.65  OA
ATOM     31 OD1  ASP C 504      82.201  21.595 -16.414  1.00 59.69 LIG-0.65  OA
ENDBRANCH 28 29
ENDBRANCH 5 28
ENDBRANCH 3 5
BRANCH 1 32
ATOM     32  CA  SER C 503      80.306  27.666 -14.869  1.00 44.19 LIG 0.20  C 
BRANCH 32 33
ATOM     33  N   SER C 503      79.111  27.326 -14.094  1.00 47.77 LIG-0.34  N 
ATOM     34 H    SER C 503      79.111  27.623 -13.286  1.00 47.77 LIG 0.16  HD
ATOM     35  C   SER C 502      78.120  26.612 -14.627  1.00 50.79 LIG 0.24  C 
ATOM     36 O    SER C 502      77.990  26.446 -15.831  1.00 48.58 LIG-0.27  OA
BRANCH 35 37
ATOM     37  CA  SER C 502      77.137  25.983 -13.657  1.00 60.54 LIG 0.20  C 
BRANCH 37 38
ATOM     38  CB  SER C 502      75.763  25.852 -14.292  1.00 53.64 LIG 0.20  C 
BRANCH 38 39
ATOM     39 OG   SER C 502      74.847  25.233 -13.419  1.00 59.09 LIG-0.40  OA
ATOM     40 HG   SER C 502      74.303  24.774 -13.864  1.00 59.09 LIG 0.21  HD
ENDBRANCH 38 39
ENDBRANCH 37 38
BRANCH 37 41
ATOM     41  N   SER C 502      77.113  26.790 -12.443  1.00 72.56 LIG-0.34  N 
ATOM     42 H    SER C 502      76.894  27.614 -12.557  1.00 72.56 LIG 0.16  HD
ATOM     43  C   GLU C 501      77.417  26.242 -11.270  1.00101.90 LIG 0.26  C 
ATOM     44 O    GLU C 501      77.371  25.026 -11.081  1.00103.22 LIG-0.27  OA
BRANCH 43 45
ATOM     45  CA  GLU C 501      77.808  27.193 -10.131  1.00101.55 LIG 0.40  C 
ATOM     46  N   GLU C 501      76.652  27.472  -9.285  1.00100.94 LIG 0.61  N 
BRANCH 45 47
ATOM     47  CB  GLU C 501      78.944  26.596  -9.295  1.00104.94 LIG 0.06  C 
BRANCH 47 48
ATOM     48  CG  GLU C 501      80.324  27.108  -9.667  1.00111.45 LIG 0.12  C 
BRANCH 48 49
ATOM     49  CD  GLU C 501      80.442  27.444 -11.139  1.00115.68 LIG 0.17  C 
ATOM     50 OE1  GLU C 501      80.868  26.566 -11.922  1.00117.56 LIG-0.65  OA
ATOM     51 OE2  GLU C 501      80.108  28.588 -11.512  1.00122.11 LIG-0.65  OA
ENDBRANCH 48 49
ENDBRANCH 47 48
ENDBRANCH 45 47
ENDBRANCH 43 45
ENDBRANCH 37 41
ENDBRANCH 35 37
ENDBRANCH 32 33
BRANCH 32 52
ATOM     52  CB  SER C 503      81.113  28.758 -14.179  1.00 49.05 LIG 0.20  C 
BRANCH 52 53
ATOM     53 OG   SER C 503      80.676  30.037 -14.602  1.00 54.59 LIG-0.40  OA
ATOM     54 HG   SER C 503      79.849  30.017 -14.749  1.00 54.59 LIG 0.21  HD
ENDBRANCH 52 53
ENDBRANCH 32 52
ENDBRANCH 1 32
TORSDOF 25
ENDMDL
MODEL 68
USER: ADFR SOLUTION from run 198
USER: SCORE 15.018637 LL:  -4.464 LR: -12.890 RR:   0.000 FEB:  -5.433
USER: RMSD 5.573046
USER: SEED 197
USER: STATUS no improvement in best in 15 clusters for 5 generations
USER: GENES 27
USER: genes 0 Translation |==|  0.69027 0.39475 0.39704
USER: genes 1 Rotation |==|  0.45278 0.60244 0.14897 0.83772
USER: genes 2 Torsion [C]-N--CA-[CB] |==|  0.18532
USER: genes 3 Torsion [N]-CA--C-[N] |==|  0.76514
USER: genes 4 Torsion [C]-N--CA-[C] |==|  0.52931
USER: genes 5 Torsion [N]-CA--CB-[OG] |==|  0.06181
USER: genes 6 Torsion [CA]-CB--OG-[HG] |==|  0.23226
USER: genes 7 Torsion [N]-CA--C-[N] |==|  0.45743
USER: genes 8 Torsion [C]-N--CA-[CB] |==|  0.22416
USER: genes 9 Torsion [N]-CA--C-[O] |==|  0.12648
USER: genes 10 Torsion [N]-CA--CB-[CG] |==|  0.77403
USER: genes 11 Torsion [CA]-CB--CG-[CD] |==|  0.63069
USER: genes 12 Torsion [CB]-CG--CD-[NE2] |==|  0.10732
USER: genes 13 Torsion [N]-CA--CB-[CG] |==|  0.62636
USER: genes 14 Torsion [CA]-CB--CG-[OD1] |==|  0.65306
USER: genes 15 Torsion [N]-C--CA-[N] |==|  0.99558
USER: genes 16 Torsion [C]-CA--N-[C] |==|  0.21389
USER: genes 17 Torsion [N]-C--CA-[N] |==|  0.15886
USER: genes 18 Torsion [C]-CA--CB-[OG] |==|  0.15419
USER: genes 19 Torsion [CA]-CB--OG-[HG] |==|  0.86651
USER: genes 20 Torsion [C]-CA--N-[C] |==|  0.18828
USER: genes 21 Torsion [N]-C--CA-[N] |==|  0.61365
USER: genes 22 Torsion [C]-CA--CB-[CG] |==|  0.71065
USER: genes 23 Torsion [CA]-CB--CG-[CD] |==|  0.19044
USER: genes 24 Torsion [CB]-CG--CD-[OE1] |==|  0.80813
USER: genes 25 Torsion [C]-CA--CB-[OG] |==|  0.39921
USER: genes 26 Torsion [CA]-CB--OG-[HG] |==|  0.82380
ROOT
ATOM      1  C   SER C 503      82.553  24.148 -16.475  1.00 42.27 LIG 0.24  C 
ATOM      2 O    SER C 503      82.938  23.034 -16.822  1.00 46.84 LIG-0.27  OA
ATOM      3  N   ASP C 504      81.276  24.503 -16.447  1.00 51.15 LIG-0.34  N 
ATOM      4 H    ASP C 504      80.999  25.246 -16.114  1.00 51.15 LIG 0.16  HD
ENDROOT
BRANCH 3 5
ATOM      5  CA  ASP C 504      80.208  23.661 -16.984  1.00 56.79 LIG 0.19  C 
BRANCH 5 6
ATOM      6  C   ASP C 504      78.883  24.437 -17.011  1.00 67.42 LIG 0.24  C 
ATOM      7  N   SER C 505      78.182  24.438 -15.882  1.00 81.52 LIG-0.34  N 
ATOM      8 H    SER C 505      78.427  24.028 -15.167  1.00 81.52 LIG 0.16  HD
ATOM      9 O    ASP C 504      78.511  25.023 -18.030  1.00 66.01 LIG-0.27  OA
BRANCH 7 10
ATOM     10  CA  SER C 505      76.911  25.149 -15.758  1.00 90.64 LIG 0.20  C 
BRANCH 10 11
ATOM     11  CB  SER C 505      75.839  24.488 -16.618  1.00 89.01 LIG 0.20  C 
BRANCH 11 12
ATOM     12 OG   SER C 505      76.180  23.141 -16.880  1.00 87.22 LIG-0.40  OA
ATOM     13 HG   SER C 505      75.939  22.660 -16.236  1.00 87.22 LIG 0.21  HD
ENDBRANCH 11 12
ENDBRANCH 10 11
BRANCH 10 14
ATOM     14  C   SER C 505      76.468  25.195 -14.299  1.00 98.93 LIG 0.24  C 
ATOM     15  N   GLN C 506      75.510  26.068 -14.002  1.00110.12 LIG-0.35  N 
ATOM     16 H    GLN C 506      75.039  26.484 -14.589  1.00110.12 LIG 0.16  HD
ATOM     17 O    SER C 505      76.975  24.444 -13.463  1.00 94.47 LIG-0.27  OA
BRANCH 15 18
ATOM     18  CA  GLN C 506      75.177  26.395 -12.620  1.00115.19 LIG 0.16  C 
BRANCH 18 19
ATOM     19  C   GLN C 506      73.749  26.920 -12.479  1.00118.66 LIG 0.22  C 
ATOM     20 O    GLN C 506      72.809  26.358 -13.044  1.00117.46 LIG-0.29  OA
ENDBRANCH 18 19
BRANCH 18 21
ATOM     21  CB  GLN C 506      76.181  27.418 -12.079  1.00118.15 LIG 0.04  C 
BRANCH 21 22
ATOM     22  CG  GLN C 506      77.502  26.792 -11.606  1.00119.48 LIG 0.10  C 
BRANCH 22 23
ATOM     23  CD  GLN C 506      77.966  27.291 -10.237  1.00116.76 LIG 0.21  C 
ATOM     24  NE2 GLN C 506      77.021  27.483  -9.323  1.00111.94 LIG-0.37  N 
ATOM     25 21HE GLN C 506      76.197  27.330  -9.517  1.00111.94 LIG 0.16  HD
ATOM     26 22HE GLN C 506      77.233  27.760  -8.537  1.00111.94 LIG 0.16  HD
ATOM     27 OE1  GLN C 506      79.158  27.495 -10.008  1.00116.06 LIG-0.27  OA
ENDBRANCH 22 23
ENDBRANCH 21 22
ENDBRANCH 18 21
ENDBRANCH 15 18
ENDBRANCH 10 14
ENDBRANCH 7 10
ENDBRANCH 5 6
BRANCH 5 28
ATOM     28  CB  ASP C 504      80.077  22.382 -16.138  1.00 57.84 LIG 0.15  C 
BRANCH 28 29
ATOM     29  CG  ASP C 504      79.954  21.114 -16.976  1.00 60.92 LIG 0.17  C 
ATOM     30 OD2  ASP C 504      80.847  20.877 -17.825  1.00 60.43 LIG-0.65  OA
ATOM     31 OD1  ASP C 504      78.977  20.357 -16.791  1.00 59.69 LIG-0.65  OA
ENDBRANCH 28 29
ENDBRANCH 5 28
ENDBRANCH 3 5
BRANCH 1 32
ATOM     32  CA  SER C 503      83.546  25.205 -16.027  1.00 44.19 LIG 0.20  C 
BRANCH 32 33
ATOM     33  N   SER C 503      82.858  26.451 -15.682  1.00 47.77 LIG-0.34  N 
ATOM     34 H    SER C 503      82.915  27.068 -16.279  1.00 47.77 LIG 0.16  HD
ATOM     35  C   SER C 502      82.206  26.584 -14.529  1.00 50.79 LIG 0.24  C 
ATOM     36 O    SER C 502      81.883  25.633 -13.830  1.00 48.58 LIG-0.27  OA
BRANCH 35 37
ATOM     37  CA  SER C 502      81.876  28.000 -14.093  1.00 60.54 LIG 0.20  C 
BRANCH 37 38
ATOM     38  CB  SER C 502      81.154  27.998 -12.757  1.00 53.64 LIG 0.20  C 
BRANCH 38 39
ATOM     39 OG   SER C 502      81.896  27.319 -11.770  1.00 59.09 LIG-0.40  OA
ATOM     40 HG   SER C 502      82.156  26.581 -12.074  1.00 59.09 LIG 0.21  HD
ENDBRANCH 38 39
ENDBRANCH 37 38
BRANCH 37 41
ATOM     41  N   SER C 502      81.092  28.632 -15.148  1.00 72.56 LIG-0.34  N 
ATOM     42 H    SER C 502      81.488  29.273 -15.562  1.00 72.56 LIG 0.16  HD
ATOM     43  C   GLU C 501      79.860  28.207 -15.409  1.00101.90 LIG 0.26  C 
ATOM     44 O    GLU C 501      79.462  27.093 -15.069  1.00103.22 LIG-0.27  OA
BRANCH 43 45
ATOM     45  CA  GLU C 501      78.940  29.158 -16.186  1.00101.55 LIG 0.40  C 
ATOM     46  N   GLU C 501      77.591  29.125 -15.629  1.00100.94 LIG 0.61  N 
BRANCH 45 47
ATOM     47  CB  GLU C 501      79.489  30.587 -16.154  1.00104.94 LIG 0.06  C 
BRANCH 47 48
ATOM     48  CG  GLU C 501      78.753  31.515 -15.204  1.00111.45 LIG 0.12  C 
BRANCH 48 49
ATOM     49  CD  GLU C 501      78.974  31.152 -13.750  1.00115.68 LIG 0.17  C 
ATOM     50 OE1  GLU C 501      78.473  30.092 -13.313  1.00117.56 LIG-0.65  OA
ATOM     51 OE2  GLU C 501      79.649  31.931 -13.044  1.00122.11 LIG-0.65  OA
ENDBRANCH 48 49
ENDBRANCH 47 48
ENDBRANCH 45 47
ENDBRANCH 43 45
ENDBRANCH 37 41
ENDBRANCH 35 37
ENDBRANCH 32 33
BRANCH 32 52
ATOM     52  CB  SER C 503      84.347  24.676 -14.845  1.00 49.05 LIG 0.20  C 
BRANCH 52 53
ATOM     53 OG   SER C 503      85.687  25.130 -14.912  1.00 54.59 LIG-0.40  OA
ATOM     54 HG   SER C 503      86.054  24.820 -15.601  1.00 54.59 LIG 0.21  HD
ENDBRANCH 52 53
ENDBRANCH 32 52
ENDBRANCH 1 32
TORSDOF 25
ENDMDL
MODEL 69
USER: ADFR SOLUTION from run 74
USER: SCORE 15.352542 LL:  -4.702 LR: -12.877 RR:   0.000 FEB:  -5.420
USER: RMSD 4.401480
USER: SEED 73
USER: STATUS no improvement in best in 8 clusters for 5 generations
USER: GENES 27
USER: genes 0 Translation |==|  0.62588 0.50149 0.48746
USER: genes 1 Rotation |==|  0.50106 0.46290 0.39699 0.98786
USER: genes 2 Torsion [C]-N--CA-[CB] |==|  0.47897
USER: genes 3 Torsion [N]-CA--C-[N] |==|  0.99511
USER: genes 4 Torsion [C]-N--CA-[C] |==|  0.76951
USER: genes 5 Torsion [N]-CA--CB-[OG] |==|  0.28010
USER: genes 6 Torsion [CA]-CB--OG-[HG] |==|  0.17328
USER: genes 7 Torsion [N]-CA--C-[N] |==|  0.94499
USER: genes 8 Torsion [C]-N--CA-[CB] |==|  0.26646
USER: genes 9 Torsion [N]-CA--C-[O] |==|  0.06750
USER: genes 10 Torsion [N]-CA--CB-[CG] |==|  0.20237
USER: genes 11 Torsion [CA]-CB--CG-[CD] |==|  0.29325
USER: genes 12 Torsion [CB]-CG--CD-[NE2] |==|  0.32143
USER: genes 13 Torsion [N]-CA--CB-[CG] |==|  0.54629
USER: genes 14 Torsion [CA]-CB--CG-[OD1] |==|  0.05123
USER: genes 15 Torsion [N]-C--CA-[N] |==|  0.18752
USER: genes 16 Torsion [C]-CA--N-[C] |==|  0.17927
USER: genes 17 Torsion [N]-C--CA-[N] |==|  0.91465
USER: genes 18 Torsion [C]-CA--CB-[OG] |==|  0.65140
USER: genes 19 Torsion [CA]-CB--OG-[HG] |==|  0.71991
USER: genes 20 Torsion [C]-CA--N-[C] |==|  0.83889
USER: genes 21 Torsion [N]-C--CA-[N] |==|  0.40200
USER: genes 22 Torsion [C]-CA--CB-[CG] |==|  0.59337
USER: genes 23 Torsion [CA]-CB--CG-[CD] |==|  0.22877
USER: genes 24 Torsion [CB]-CG--CD-[OE1] |==|  0.98978
USER: genes 25 Torsion [C]-CA--CB-[OG] |==|  0.55800
USER: genes 26 Torsion [CA]-CB--OG-[HG] |==|  0.67952
ROOT
ATOM      1  C   SER C 503      81.442  26.389 -14.779  1.00 42.27 LIG 0.24  C 
ATOM      2 O    SER C 503      82.654  26.394 -14.576  1.00 46.84 LIG-0.27  OA
ATOM      3  N   ASP C 504      80.811  25.406 -15.407  1.00 51.15 LIG-0.34  N 
ATOM      4 H    ASP C 504      79.954  25.355 -15.464  1.00 51.15 LIG 0.16  HD
ENDROOT
BRANCH 3 5
ATOM      5  CA  ASP C 504      81.515  24.308 -16.068  1.00 56.79 LIG 0.19  C 
BRANCH 5 6
ATOM      6  C   ASP C 504      82.332  24.839 -17.254  1.00 67.42 LIG 0.24  C 
ATOM      7  N   SER C 505      82.238  26.144 -17.494  1.00 81.52 LIG-0.34  N 
ATOM      8 H    SER C 505      81.747  26.680 -17.035  1.00 81.52 LIG 0.16  HD
ATOM      9 O    ASP C 504      83.035  24.084 -17.930  1.00 66.01 LIG-0.27  OA
BRANCH 7 10
ATOM     10  CA  SER C 505      82.975  26.788 -18.579  1.00 90.64 LIG 0.20  C 
BRANCH 10 11
ATOM     11  CB  SER C 505      82.263  28.057 -19.034  1.00 89.01 LIG 0.20  C 
BRANCH 11 12
ATOM     12 OG   SER C 505      82.889  29.198 -18.479  1.00 87.22 LIG-0.40  OA
ATOM     13 HG   SER C 505      83.680  29.246 -18.757  1.00 87.22 LIG 0.21  HD
ENDBRANCH 11 12
ENDBRANCH 10 11
BRANCH 10 14
ATOM     14  C   SER C 505      84.399  27.108 -18.136  1.00 98.93 LIG 0.24  C 
ATOM     15  N   GLN C 506      84.612  27.153 -16.824  1.00110.12 LIG-0.35  N 
ATOM     16 H    GLN C 506      84.050  26.874 -16.236  1.00110.12 LIG 0.16  HD
ATOM     17 O    SER C 505      85.290  27.297 -18.967  1.00 94.47 LIG-0.27  OA
BRANCH 15 18
ATOM     18  CA  GLN C 506      85.847  27.694 -16.269  1.00115.19 LIG 0.16  C 
BRANCH 18 19
ATOM     19  C   GLN C 506      86.340  26.892 -15.066  1.00118.66 LIG 0.22  C 
ATOM     20 O    GLN C 506      86.021  25.711 -14.919  1.00117.46 LIG-0.29  OA
ENDBRANCH 18 19
BRANCH 18 21
ATOM     21  CB  GLN C 506      85.636  29.163 -15.885  1.00118.15 LIG 0.04  C 
BRANCH 21 22
ATOM     22  CG  GLN C 506      84.771  29.353 -14.631  1.00119.48 LIG 0.10  C 
BRANCH 22 23
ATOM     23  CD  GLN C 506      85.565  29.759 -13.389  1.00116.76 LIG 0.21  C 
ATOM     24  NE2 GLN C 506      85.301  30.958 -12.880  1.00111.94 LIG-0.37  N 
ATOM     25 21HE GLN C 506      84.711  31.462 -13.252  1.00111.94 LIG 0.16  HD
ATOM     26 22HE GLN C 506      85.720  31.230 -12.181  1.00111.94 LIG 0.16  HD
ATOM     27 OE1  GLN C 506      86.399  29.001 -12.894  1.00116.06 LIG-0.27  OA
ENDBRANCH 22 23
ENDBRANCH 21 22
ENDBRANCH 18 21
ENDBRANCH 15 18
ENDBRANCH 10 14
ENDBRANCH 7 10
ENDBRANCH 5 6
BRANCH 5 28
ATOM     28  CB  ASP C 504      80.503  23.245 -16.532  1.00 57.84 LIG 0.15  C 
BRANCH 28 29
ATOM     29  CG  ASP C 504      81.146  21.903 -16.860  1.00 60.92 LIG 0.17  C 
ATOM     30 OD2  ASP C 504      80.500  21.094 -17.569  1.00 60.43 LIG-0.65  OA
ATOM     31 OD1  ASP C 504      82.289  21.653 -16.419  1.00 59.69 LIG-0.65  OA
ENDBRANCH 28 29
ENDBRANCH 5 28
ENDBRANCH 3 5
BRANCH 1 32
ATOM     32  CA  SER C 503      80.572  27.533 -14.292  1.00 44.19 LIG 0.20  C 
BRANCH 32 33
ATOM     33  N   SER C 503      79.684  27.087 -13.216  1.00 47.77 LIG-0.34  N 
ATOM     34 H    SER C 503      78.846  27.117 -13.409  1.00 47.77 LIG 0.16  HD
ATOM     35  C   SER C 502      80.167  26.675 -12.046  1.00 50.79 LIG 0.24  C 
ATOM     36 O    SER C 502      81.337  26.361 -11.880  1.00 48.58 LIG-0.27  OA
BRANCH 35 37
ATOM     37  CA  SER C 502      79.188  26.618 -10.887  1.00 60.54 LIG 0.20  C 
BRANCH 37 38
ATOM     38  CB  SER C 502      78.571  25.234 -10.772  1.00 53.64 LIG 0.20  C 
BRANCH 38 39
ATOM     39 OG   SER C 502      77.164  25.294 -10.786  1.00 59.09 LIG-0.40  OA
ATOM     40 HG   SER C 502      76.872  25.225 -10.002  1.00 59.09 LIG 0.21  HD
ENDBRANCH 38 39
ENDBRANCH 37 38
BRANCH 37 41
ATOM     41  N   SER C 502      78.186  27.658 -11.084  1.00 72.56 LIG-0.34  N 
ATOM     42 H    SER C 502      77.374  27.380 -11.122  1.00 72.56 LIG 0.16  HD
ATOM     43  C   GLU C 501      78.557  28.931 -11.192  1.00101.90 LIG 0.26  C 
ATOM     44 O    GLU C 501      79.646  29.335 -10.785  1.00103.22 LIG-0.27  OA
BRANCH 43 45
ATOM     45  CA  GLU C 501      77.555  29.902 -11.830  1.00101.55 LIG 0.40  C 
ATOM     46  N   GLU C 501      77.642  31.212 -11.191  1.00100.94 LIG 0.61  N 
BRANCH 45 47
ATOM     47  CB  GLU C 501      77.810  30.030 -13.335  1.00104.94 LIG 0.06  C 
BRANCH 47 48
ATOM     48  CG  GLU C 501      77.517  31.409 -13.899  1.00111.45 LIG 0.12  C 
BRANCH 48 49
ATOM     49  CD  GLU C 501      78.664  32.377 -13.691  1.00115.68 LIG 0.17  C 
ATOM     50 OE1  GLU C 501      79.663  31.993 -13.044  1.00117.56 LIG-0.65  OA
ATOM     51 OE2  GLU C 501      78.563  33.524 -14.177  1.00122.11 LIG-0.65  OA
ENDBRANCH 48 49
ENDBRANCH 47 48
ENDBRANCH 45 47
ENDBRANCH 43 45
ENDBRANCH 37 41
ENDBRANCH 35 37
ENDBRANCH 32 33
BRANCH 32 52
ATOM     52  CB  SER C 503      81.460  28.680 -13.828  1.00 49.05 LIG 0.20  C 
BRANCH 52 53
ATOM     53 OG   SER C 503      80.747  29.534 -12.951  1.00 54.59 LIG-0.40  OA
ATOM     54 HG   SER C 503      80.664  30.292 -13.304  1.00 54.59 LIG 0.21  HD
ENDBRANCH 52 53
ENDBRANCH 32 52
ENDBRANCH 1 32
TORSDOF 25
ENDMDL
MODEL 70
USER: ADFR SOLUTION from run 18
USER: SCORE 15.265349 LL:  -4.740 LR: -12.864 RR:   0.000 FEB:  -5.407
USER: RMSD 4.494030
USER: SEED 17
USER: STATUS no improvement in best in 11 clusters for 5 generations
USER: GENES 27
USER: genes 0 Translation |==|  0.60680 0.47558 0.49150
USER: genes 1 Rotation |==|  0.46561 0.43113 0.34314 0.96847
USER: genes 2 Torsion [C]-N--CA-[CB] |==|  0.51742
USER: genes 3 Torsion [N]-CA--C-[N] |==|  0.87760
USER: genes 4 Torsion [C]-N--CA-[C] |==|  0.63471
USER: genes 5 Torsion [N]-CA--CB-[OG] |==|  0.92653
USER: genes 6 Torsion [CA]-CB--OG-[HG] |==|  0.92197
USER: genes 7 Torsion [N]-CA--C-[N] |==|  0.42237
USER: genes 8 Torsion [C]-N--CA-[CB] |==|  0.31982
USER: genes 9 Torsion [N]-CA--C-[O] |==|  0.60888
USER: genes 10 Torsion [N]-CA--CB-[CG] |==|  0.75852
USER: genes 11 Torsion [CA]-CB--CG-[CD] |==|  0.40033
USER: genes 12 Torsion [CB]-CG--CD-[NE2] |==|  0.31008
USER: genes 13 Torsion [N]-CA--CB-[CG] |==|  0.53017
USER: genes 14 Torsion [CA]-CB--CG-[OD1] |==|  0.29293
USER: genes 15 Torsion [N]-C--CA-[N] |==|  0.24253
USER: genes 16 Torsion [C]-CA--N-[C] |==|  0.21239
USER: genes 17 Torsion [N]-C--CA-[N] |==|  0.02757
USER: genes 18 Torsion [C]-CA--CB-[OG] |==|  0.55285
USER: genes 19 Torsion [CA]-CB--OG-[HG] |==|  0.88131
USER: genes 20 Torsion [C]-CA--N-[C] |==|  0.74986
USER: genes 21 Torsion [N]-C--CA-[N] |==|  0.74231
USER: genes 22 Torsion [C]-CA--CB-[CG] |==|  0.70047
USER: genes 23 Torsion [CA]-CB--CG-[CD] |==|  0.18331
USER: genes 24 Torsion [CB]-CG--CD-[OE1] |==|  0.70336
USER: genes 25 Torsion [C]-CA--CB-[OG] |==|  0.42879
USER: genes 26 Torsion [CA]-CB--OG-[HG] |==|  0.10908
ROOT
ATOM      1  C   SER C 503      81.113  25.845 -14.703  1.00 42.27 LIG 0.24  C 
ATOM      2 O    SER C 503      82.270  25.607 -14.363  1.00 46.84 LIG-0.27  OA
ATOM      3  N   ASP C 504      80.316  24.944 -15.262  1.00 51.15 LIG-0.34  N 
ATOM      4 H    ASP C 504      79.480  25.081 -15.411  1.00 51.15 LIG 0.16  HD
ENDROOT
BRANCH 3 5
ATOM      5  CA  ASP C 504      80.785  23.625 -15.682  1.00 56.79 LIG 0.19  C 
BRANCH 5 6
ATOM      6  C   ASP C 504      82.033  23.761 -16.567  1.00 67.42 LIG 0.24  C 
ATOM      7  N   SER C 505      81.989  24.709 -17.498  1.00 81.52 LIG-0.34  N 
ATOM      8 H    SER C 505      81.312  25.223 -17.626  1.00 81.52 LIG 0.16  HD
ATOM      9 O    ASP C 504      83.010  23.028 -16.404  1.00 66.01 LIG-0.27  OA
BRANCH 7 10
ATOM     10  CA  SER C 505      83.112  24.963 -18.399  1.00 90.64 LIG 0.20  C 
BRANCH 10 11
ATOM     11  CB  SER C 505      82.806  24.444 -19.799  1.00 89.01 LIG 0.20  C 
BRANCH 11 12
ATOM     12 OG   SER C 505      81.875  23.380 -19.738  1.00 87.22 LIG-0.40  OA
ATOM     13 HG   SER C 505      81.950  22.984 -19.001  1.00 87.22 LIG 0.21  HD
ENDBRANCH 11 12
ENDBRANCH 10 11
BRANCH 10 14
ATOM     14  C   SER C 505      83.429  26.455 -18.444  1.00 98.93 LIG 0.24  C 
ATOM     15  N   GLN C 506      84.689  26.780 -18.717  1.00110.12 LIG-0.35  N 
ATOM     16 H    GLN C 506      85.278  26.224 -19.007  1.00110.12 LIG 0.16  HD
ATOM     17 O    SER C 505      82.546  27.293 -18.249  1.00 94.47 LIG-0.27  OA
BRANCH 15 18
ATOM     18  CA  GLN C 506      85.181  28.141 -18.539  1.00115.19 LIG 0.16  C 
BRANCH 18 19
ATOM     19  C   GLN C 506      85.738  28.729 -19.835  1.00118.66 LIG 0.22  C 
ATOM     20 O    GLN C 506      86.751  29.431 -19.829  1.00117.46 LIG-0.29  OA
ENDBRANCH 18 19
BRANCH 18 21
ATOM     21  CB  GLN C 506      86.249  28.161 -17.440  1.00118.15 LIG 0.04  C 
BRANCH 21 22
ATOM     22  CG  GLN C 506      85.672  28.330 -16.026  1.00119.48 LIG 0.10  C 
BRANCH 22 23
ATOM     23  CD  GLN C 506      86.428  27.545 -14.953  1.00116.76 LIG 0.21  C 
ATOM     24  NE2 GLN C 506      87.110  28.259 -14.064  1.00111.94 LIG-0.37  N 
ATOM     25 21HE GLN C 506      87.113  29.118 -14.113  1.00111.94 LIG 0.16  HD
ATOM     26 22HE GLN C 506      87.549  27.862 -13.440  1.00111.94 LIG 0.16  HD
ATOM     27 OE1  GLN C 506      86.393  26.314 -14.926  1.00116.06 LIG-0.27  OA
ENDBRANCH 22 23
ENDBRANCH 21 22
ENDBRANCH 18 21
ENDBRANCH 15 18
ENDBRANCH 10 14
ENDBRANCH 7 10
ENDBRANCH 5 6
BRANCH 5 28
ATOM     28  CB  ASP C 504      79.661  22.886 -16.430  1.00 57.84 LIG 0.15  C 
BRANCH 28 29
ATOM     29  CG  ASP C 504      79.966  21.412 -16.675  1.00 60.92 LIG 0.17  C 
ATOM     30 OD2  ASP C 504      80.802  21.120 -17.563  1.00 60.43 LIG-0.65  OA
ATOM     31 OD1  ASP C 504      79.380  20.549 -15.987  1.00 59.69 LIG-0.65  OA
ENDBRANCH 28 29
ENDBRANCH 5 28
ENDBRANCH 3 5
BRANCH 1 32
ATOM     32  CA  SER C 503      80.509  27.219 -14.480  1.00 44.19 LIG 0.20  C 
BRANCH 32 33
ATOM     33  N   SER C 503      79.818  27.278 -13.189  1.00 47.77 LIG-0.34  N 
ATOM     34 H    SER C 503      78.961  27.238 -13.240  1.00 47.77 LIG 0.16  HD
ATOM     35  C   SER C 502      80.495  27.386 -12.047  1.00 50.79 LIG 0.24  C 
ATOM     36 O    SER C 502      81.692  27.151 -11.955  1.00 48.58 LIG-0.27  OA
BRANCH 35 37
ATOM     37  CA  SER C 502      79.708  27.834 -10.829  1.00 60.54 LIG 0.20  C 
BRANCH 37 38
ATOM     38  CB  SER C 502      80.023  26.955  -9.631  1.00 53.64 LIG 0.20  C 
BRANCH 38 39
ATOM     39 OG   SER C 502      79.026  27.056  -8.640  1.00 59.09 LIG-0.40  OA
ATOM     40 HG   SER C 502      78.804  27.861  -8.547  1.00 59.09 LIG 0.21  HD
ENDBRANCH 38 39
ENDBRANCH 37 38
BRANCH 37 41
ATOM     41  N   SER C 502      78.291  27.820 -11.171  1.00 72.56 LIG-0.34  N 
ATOM     42 H    SER C 502      77.885  27.078 -11.018  1.00 72.56 LIG 0.16  HD
ATOM     43  C   GLU C 501      77.716  28.905 -11.681  1.00101.90 LIG 0.26  C 
ATOM     44 O    GLU C 501      78.204  30.029 -11.555  1.00103.22 LIG-0.27  OA
BRANCH 43 45
ATOM     45  CA  GLU C 501      76.386  28.713 -12.422  1.00101.55 LIG 0.40  C 
ATOM     46  N   GLU C 501      76.625  28.526 -13.850  1.00100.94 LIG 0.61  N 
BRANCH 45 47
ATOM     47  CB  GLU C 501      75.618  27.517 -11.853  1.00104.94 LIG 0.06  C 
BRANCH 47 48
ATOM     48  CG  GLU C 501      75.592  26.304 -12.767  1.00111.45 LIG 0.12  C 
BRANCH 48 49
ATOM     49  CD  GLU C 501      76.964  25.692 -12.959  1.00115.68 LIG 0.17  C 
ATOM     50 OE1  GLU C 501      77.543  25.852 -14.057  1.00117.56 LIG-0.65  OA
ATOM     51 OE2  GLU C 501      77.463  25.052 -12.010  1.00122.11 LIG-0.65  OA
ENDBRANCH 48 49
ENDBRANCH 47 48
ENDBRANCH 45 47
ENDBRANCH 43 45
ENDBRANCH 37 41
ENDBRANCH 35 37
ENDBRANCH 32 33
BRANCH 32 52
ATOM     52  CB  SER C 503      81.605  28.272 -14.562  1.00 49.05 LIG 0.20  C 
BRANCH 52 53
ATOM     53 OG   SER C 503      81.061  29.523 -14.944  1.00 54.59 LIG-0.40  OA
ATOM     54 HG   SER C 503      80.321  29.635 -14.563  1.00 54.59 LIG 0.21  HD
ENDBRANCH 52 53
ENDBRANCH 32 52
ENDBRANCH 1 32
TORSDOF 25
ENDMDL
MODEL 71
USER: ADFR SOLUTION from run 96
USER: SCORE 15.575219 LL:  -3.843 LR: -12.863 RR:   0.000 FEB:  -5.406
USER: RMSD 6.829328
USER: SEED 95
USER: STATUS no improvement in best in 6 clusters for 5 generations
USER: GENES 27
USER: genes 0 Translation |==|  0.50336 0.44673 0.45439
USER: genes 1 Rotation |==|  0.55519 0.15007 0.16551 0.61232
USER: genes 2 Torsion [C]-N--CA-[CB] |==|  0.81111
USER: genes 3 Torsion [N]-CA--C-[N] |==|  0.14686
USER: genes 4 Torsion [C]-N--CA-[C] |==|  0.18414
USER: genes 5 Torsion [N]-CA--CB-[OG] |==|  0.86215
USER: genes 6 Torsion [CA]-CB--OG-[HG] |==|  0.09791
USER: genes 7 Torsion [N]-CA--C-[N] |==|  0.08744
USER: genes 8 Torsion [C]-N--CA-[CB] |==|  0.49394
USER: genes 9 Torsion [N]-CA--C-[O] |==|  0.36425
USER: genes 10 Torsion [N]-CA--CB-[CG] |==|  0.45370
USER: genes 11 Torsion [CA]-CB--CG-[CD] |==|  0.32941
USER: genes 12 Torsion [CB]-CG--CD-[NE2] |==|  0.46433
USER: genes 13 Torsion [N]-CA--CB-[CG] |==|  0.73601
USER: genes 14 Torsion [CA]-CB--CG-[OD1] |==|  0.25402
USER: genes 15 Torsion [N]-C--CA-[N] |==|  0.94086
USER: genes 16 Torsion [C]-CA--N-[C] |==|  0.73828
USER: genes 17 Torsion [N]-C--CA-[N] |==|  0.97166
USER: genes 18 Torsion [C]-CA--CB-[OG] |==|  0.30608
USER: genes 19 Torsion [CA]-CB--OG-[HG] |==|  0.14489
USER: genes 20 Torsion [C]-CA--N-[C] |==|  0.73702
USER: genes 21 Torsion [N]-C--CA-[N] |==|  0.91597
USER: genes 22 Torsion [C]-CA--CB-[CG] |==|  0.22972
USER: genes 23 Torsion [CA]-CB--CG-[CD] |==|  0.09992
USER: genes 24 Torsion [CB]-CG--CD-[OE1] |==|  0.58611
USER: genes 25 Torsion [C]-CA--CB-[OG] |==|  0.86314
USER: genes 26 Torsion [CA]-CB--OG-[HG] |==|  0.31165
ROOT
ATOM      1  C   SER C 503      79.329  25.239 -15.399  1.00 42.27 LIG 0.24  C 
ATOM      2 O    SER C 503      78.408  24.790 -14.721  1.00 46.84 LIG-0.27  OA
ATOM      3  N   ASP C 504      79.646  24.774 -16.600  1.00 51.15 LIG-0.34  N 
ATOM      4 H    ASP C 504      80.225  25.148 -17.115  1.00 51.15 LIG 0.16  HD
ENDROOT
BRANCH 3 5
ATOM      5  CA  ASP C 504      79.041  23.570 -17.167  1.00 56.79 LIG 0.19  C 
BRANCH 5 6
ATOM      6  C   ASP C 504      77.510  23.691 -17.157  1.00 67.42 LIG 0.24  C 
ATOM      7  N   SER C 505      77.005  24.785 -17.719  1.00 81.52 LIG-0.34  N 
ATOM      8 H    SER C 505      77.484  25.409 -18.065  1.00 81.52 LIG 0.16  HD
ATOM      9 O    ASP C 504      76.806  22.810 -16.658  1.00 66.01 LIG-0.27  OA
BRANCH 7 10
ATOM     10  CA  SER C 505      75.565  25.023 -17.797  1.00 90.64 LIG 0.20  C 
BRANCH 10 11
ATOM     11  CB  SER C 505      74.866  23.866 -18.502  1.00 89.01 LIG 0.20  C 
BRANCH 11 12
ATOM     12 OG   SER C 505      75.521  23.563 -19.719  1.00 87.22 LIG-0.40  OA
ATOM     13 HG   SER C 505      76.348  23.678 -19.628  1.00 87.22 LIG 0.21  HD
ENDBRANCH 11 12
ENDBRANCH 10 11
BRANCH 10 14
ATOM     14  C   SER C 505      74.984  25.221 -16.400  1.00 98.93 LIG 0.24  C 
ATOM     15  N   GLN C 506      75.789  25.783 -15.502  1.00110.12 LIG-0.35  N 
ATOM     16 H    GLN C 506      76.535  26.164 -15.696  1.00110.12 LIG 0.16  HD
ATOM     17 O    SER C 505      73.826  24.884 -16.146  1.00 94.47 LIG-0.27  OA
BRANCH 15 18
ATOM     18  CA  GLN C 506      75.457  25.796 -14.082  1.00115.19 LIG 0.16  C 
BRANCH 18 19
ATOM     19  C   GLN C 506      74.130  26.502 -13.805  1.00118.66 LIG 0.22  C 
ATOM     20 O    GLN C 506      73.271  25.977 -13.094  1.00117.46 LIG-0.29  OA
ENDBRANCH 18 19
BRANCH 18 21
ATOM     21  CB  GLN C 506      76.593  26.460 -13.296  1.00118.15 LIG 0.04  C 
BRANCH 21 22
ATOM     22  CG  GLN C 506      76.190  26.891 -11.878  1.00119.48 LIG 0.10  C 
BRANCH 22 23
ATOM     23  CD  GLN C 506      76.990  26.201 -10.772  1.00116.76 LIG 0.21  C 
ATOM     24  NE2 GLN C 506      76.880  26.713  -9.551  1.00111.94 LIG-0.37  N 
ATOM     25 21HE GLN C 506      76.379  27.400  -9.416  1.00111.94 LIG 0.16  HD
ATOM     26 22HE GLN C 506      77.308  26.358  -8.896  1.00111.94 LIG 0.16  HD
ATOM     27 OE1  GLN C 506      77.692  25.220 -11.016  1.00116.06 LIG-0.27  OA
ENDBRANCH 22 23
ENDBRANCH 21 22
ENDBRANCH 18 21
ENDBRANCH 15 18
ENDBRANCH 10 14
ENDBRANCH 7 10
ENDBRANCH 5 6
BRANCH 5 28
ATOM     28  CB  ASP C 504      79.498  22.333 -16.374  1.00 57.84 LIG 0.15  C 
BRANCH 28 29
ATOM     29  CG  ASP C 504      80.701  21.630 -16.993  1.00 60.92 LIG 0.17  C 
ATOM     30 OD2  ASP C 504      80.490  20.743 -17.855  1.00 60.43 LIG-0.65  OA
ATOM     31 OD1  ASP C 504      81.850  21.958 -16.627  1.00 59.69 LIG-0.65  OA
ENDBRANCH 28 29
ENDBRANCH 5 28
ENDBRANCH 3 5
BRANCH 1 32
ATOM     32  CA  SER C 503      80.168  26.399 -14.894  1.00 44.19 LIG 0.20  C 
BRANCH 32 33
ATOM     33  N   SER C 503      81.455  26.451 -15.591  1.00 47.77 LIG-0.34  N 
ATOM     34 H    SER C 503      81.441  26.881 -16.336  1.00 47.77 LIG 0.16  HD
ATOM     35  C   SER C 502      82.540  25.869 -15.083  1.00 50.79 LIG 0.24  C 
ATOM     36 O    SER C 502      82.627  25.521 -13.914  1.00 48.58 LIG-0.27  OA
BRANCH 35 37
ATOM     37  CA  SER C 502      83.696  25.634 -16.039  1.00 60.54 LIG 0.20  C 
BRANCH 37 38
ATOM     38  CB  SER C 502      84.892  26.489 -15.657  1.00 53.64 LIG 0.20  C 
BRANCH 38 39
ATOM     39 OG   SER C 502      85.947  25.704 -15.151  1.00 59.09 LIG-0.40  OA
ATOM     40 HG   SER C 502      86.119  25.084 -15.691  1.00 59.09 LIG 0.21  HD
ENDBRANCH 38 39
ENDBRANCH 37 38
BRANCH 37 41
ATOM     41  N   SER C 502      83.230  25.905 -17.394  1.00 72.56 LIG-0.34  N 
ATOM     42 H    SER C 502      83.269  26.729 -17.635  1.00 72.56 LIG 0.16  HD
ATOM     43  C   GLU C 501      82.787  24.912 -18.159  1.00101.90 LIG 0.26  C 
ATOM     44 O    GLU C 501      83.072  23.734 -17.938  1.00103.22 LIG-0.27  OA
BRANCH 43 45
ATOM     45  CA  GLU C 501      81.916  25.288 -19.364  1.00101.55 LIG 0.40  C 
ATOM     46  N   GLU C 501      81.160  26.505 -19.082  1.00100.94 LIG 0.61  N 
BRANCH 45 47
ATOM     47  CB  GLU C 501      82.777  25.480 -20.616  1.00104.94 LIG 0.06  C 
BRANCH 47 48
ATOM     48  CG  GLU C 501      83.121  24.189 -21.337  1.00111.45 LIG 0.12  C 
BRANCH 48 49
ATOM     49  CD  GLU C 501      81.989  23.182 -21.296  1.00115.68 LIG 0.17  C 
ATOM     50 OE1  GLU C 501      82.270  21.964 -21.294  1.00117.56 LIG-0.65  OA
ATOM     51 OE2  GLU C 501      80.817  23.614 -21.267  1.00122.11 LIG-0.65  OA
ENDBRANCH 48 49
ENDBRANCH 47 48
ENDBRANCH 45 47
ENDBRANCH 43 45
ENDBRANCH 37 41
ENDBRANCH 35 37
ENDBRANCH 32 33
BRANCH 32 52
ATOM     52  CB  SER C 503      79.394  27.698 -15.076  1.00 49.05 LIG 0.20  C 
BRANCH 52 53
ATOM     53 OG   SER C 503      78.881  27.787 -16.394  1.00 54.59 LIG-0.40  OA
ATOM     54 HG   SER C 503      78.043  27.734 -16.373  1.00 54.59 LIG 0.21  HD
ENDBRANCH 52 53
ENDBRANCH 32 52
ENDBRANCH 1 32
TORSDOF 25
ENDMDL
MODEL 72
USER: ADFR SOLUTION from run 200
USER: SCORE 14.756676 LL:  -4.827 LR: -12.853 RR:   0.000 FEB:  -5.395
USER: RMSD 5.415171
USER: SEED 199
USER: STATUS searching
USER: GENES 27
USER: genes 0 Translation |==|  0.63108 0.47909 0.48806
USER: genes 1 Rotation |==|  0.49757 0.28012 0.52758 0.94820
USER: genes 2 Torsion [C]-N--CA-[CB] |==|  0.50807
USER: genes 3 Torsion [N]-CA--C-[N] |==|  0.94732
USER: genes 4 Torsion [C]-N--CA-[C] |==|  0.79231
USER: genes 5 Torsion [N]-CA--CB-[OG] |==|  0.80433
USER: genes 6 Torsion [CA]-CB--OG-[HG] |==|  0.94479
USER: genes 7 Torsion [N]-CA--C-[N] |==|  0.81783
USER: genes 8 Torsion [C]-N--CA-[CB] |==|  0.15693
USER: genes 9 Torsion [N]-CA--C-[O] |==|  0.78419
USER: genes 10 Torsion [N]-CA--CB-[CG] |==|  0.68065
USER: genes 11 Torsion [CA]-CB--CG-[CD] |==|  0.01847
USER: genes 12 Torsion [CB]-CG--CD-[NE2] |==|  0.28120
USER: genes 13 Torsion [N]-CA--CB-[CG] |==|  0.03039
USER: genes 14 Torsion [CA]-CB--CG-[OD1] |==|  0.65777
USER: genes 15 Torsion [N]-C--CA-[N] |==|  0.28415
USER: genes 16 Torsion [C]-CA--N-[C] |==|  0.54031
USER: genes 17 Torsion [N]-C--CA-[N] |==|  0.21468
USER: genes 18 Torsion [C]-CA--CB-[OG] |==|  0.57498
USER: genes 19 Torsion [CA]-CB--OG-[HG] |==|  0.11965
USER: genes 20 Torsion [C]-CA--N-[C] |==|  0.71255
USER: genes 21 Torsion [N]-C--CA-[N] |==|  0.48338
USER: genes 22 Torsion [C]-CA--CB-[CG] |==|  0.90197
USER: genes 23 Torsion [CA]-CB--CG-[CD] |==|  0.83008
USER: genes 24 Torsion [CB]-CG--CD-[OE1] |==|  0.89653
USER: genes 25 Torsion [C]-CA--CB-[OG] |==|  0.40084
USER: genes 26 Torsion [CA]-CB--OG-[HG] |==|  0.11545
ROOT
ATOM      1  C   SER C 503      81.532  25.919 -14.768  1.00 42.27 LIG 0.24  C 
ATOM      2 O    SER C 503      82.148  26.529 -13.897  1.00 46.84 LIG-0.27  OA
ATOM      3  N   ASP C 504      81.920  24.746 -15.250  1.00 51.15 LIG-0.34  N 
ATOM      4 H    ASP C 504      81.441  24.274 -15.787  1.00 51.15 LIG 0.16  HD
ENDROOT
BRANCH 3 5
ATOM      5  CA  ASP C 504      83.206  24.138 -14.915  1.00 56.79 LIG 0.19  C 
BRANCH 5 6
ATOM      6  C   ASP C 504      84.352  25.112 -15.228  1.00 67.42 LIG 0.24  C 
ATOM      7  N   SER C 505      84.065  26.102 -16.067  1.00 81.52 LIG-0.34  N 
ATOM      8 H    SER C 505      83.296  26.209 -16.436  1.00 81.52 LIG 0.16  HD
ATOM      9 O    ASP C 504      85.464  24.970 -14.715  1.00 66.01 LIG-0.27  OA
BRANCH 7 10
ATOM     10  CA  SER C 505      85.053  27.112 -16.441  1.00 90.64 LIG 0.20  C 
BRANCH 10 11
ATOM     11  CB  SER C 505      84.617  27.852 -17.700  1.00 89.01 LIG 0.20  C 
BRANCH 11 12
ATOM     12 OG   SER C 505      84.704  27.001 -18.826  1.00 87.22 LIG-0.40  OA
ATOM     13 HG   SER C 505      85.219  26.361 -18.655  1.00 87.22 LIG 0.21  HD
ENDBRANCH 11 12
ENDBRANCH 10 11
BRANCH 10 14
ATOM     14  C   SER C 505      85.266  28.096 -15.294  1.00 98.93 LIG 0.24  C 
ATOM     15  N   GLN C 506      84.226  28.859 -14.973  1.00110.12 LIG-0.35  N 
ATOM     16 H    GLN C 506      83.426  28.730 -15.262  1.00110.12 LIG 0.16  HD
ATOM     17 O    SER C 505      86.347  28.151 -14.704  1.00 94.47 LIG-0.27  OA
BRANCH 15 18
ATOM     18  CA  GLN C 506      84.366  30.005 -14.082  1.00115.19 LIG 0.16  C 
BRANCH 18 19
ATOM     19  C   GLN C 506      83.042  30.736 -13.866  1.00118.66 LIG 0.22  C 
ATOM     20 O    GLN C 506      82.592  31.498 -14.725  1.00117.46 LIG-0.29  OA
ENDBRANCH 18 19
BRANCH 18 21
ATOM     21  CB  GLN C 506      85.423  30.964 -14.642  1.00118.15 LIG 0.04  C 
BRANCH 21 22
ATOM     22  CG  GLN C 506      86.669  31.094 -13.753  1.00119.48 LIG 0.10  C 
BRANCH 22 23
ATOM     23  CD  GLN C 506      86.687  30.127 -12.569  1.00116.76 LIG 0.21  C 
ATOM     24  NE2 GLN C 506      87.448  29.045 -12.697  1.00111.94 LIG-0.37  N 
ATOM     25 21HE GLN C 506      87.896  28.917 -13.420  1.00111.94 LIG 0.16  HD
ATOM     26 22HE GLN C 506      87.493  28.473 -12.057  1.00111.94 LIG 0.16  HD
ATOM     27 OE1  GLN C 506      86.027  30.355 -11.555  1.00116.06 LIG-0.27  OA
ENDBRANCH 22 23
ENDBRANCH 21 22
ENDBRANCH 18 21
ENDBRANCH 15 18
ENDBRANCH 10 14
ENDBRANCH 7 10
ENDBRANCH 5 6
BRANCH 5 28
ATOM     28  CB  ASP C 504      83.379  22.821 -15.692  1.00 57.84 LIG 0.15  C 
BRANCH 28 29
ATOM     29  CG  ASP C 504      82.332  22.621 -16.782  1.00 60.92 LIG 0.17  C 
ATOM     30 OD2  ASP C 504      82.223  23.503 -17.667  1.00 60.43 LIG-0.65  OA
ATOM     31 OD1  ASP C 504      81.622  21.592 -16.760  1.00 59.69 LIG-0.65  OA
ENDBRANCH 28 29
ENDBRANCH 5 28
ENDBRANCH 3 5
BRANCH 1 32
ATOM     32  CA  SER C 503      80.246  26.482 -15.344  1.00 44.19 LIG 0.20  C 
BRANCH 32 33
ATOM     33  N   SER C 503      79.131  26.284 -14.415  1.00 47.77 LIG-0.34  N 
ATOM     34 H    SER C 503      79.365  26.070 -13.615  1.00 47.77 LIG 0.16  HD
ATOM     35  C   SER C 502      77.867  26.432 -14.810  1.00 50.79 LIG 0.24  C 
ATOM     36 O    SER C 502      77.552  27.009 -15.841  1.00 48.58 LIG-0.27  OA
BRANCH 35 37
ATOM     37  CA  SER C 502      76.800  25.831 -13.913  1.00 60.54 LIG 0.20  C 
BRANCH 37 38
ATOM     38  CB  SER C 502      75.510  25.609 -14.685  1.00 53.64 LIG 0.20  C 
BRANCH 38 39
ATOM     39 OG   SER C 502      74.387  25.650 -13.836  1.00 59.09 LIG-0.40  OA
ATOM     40 HG   SER C 502      74.467  26.288 -13.296  1.00 59.09 LIG 0.21  HD
ENDBRANCH 38 39
ENDBRANCH 37 38
BRANCH 37 41
ATOM     41  N   SER C 502      76.617  26.713 -12.767  1.00 72.56 LIG-0.34  N 
ATOM     42 H    SER C 502      76.164  27.427 -12.924  1.00 72.56 LIG 0.16  HD
ATOM     43  C   GLU C 501      77.133  26.389 -11.585  1.00101.90 LIG 0.26  C 
ATOM     44 O    GLU C 501      77.449  25.234 -11.300  1.00103.22 LIG-0.27  OA
BRANCH 43 45
ATOM     45  CA  GLU C 501      77.301  27.518 -10.559  1.00101.55 LIG 0.40  C 
ATOM     46  N   GLU C 501      77.743  26.976  -9.278  1.00100.94 LIG 0.61  N 
BRANCH 45 47
ATOM     47  CB  GLU C 501      78.301  28.562 -11.064  1.00104.94 LIG 0.06  C 
BRANCH 47 48
ATOM     48  CG  GLU C 501      79.450  27.983 -11.871  1.00111.45 LIG 0.12  C 
BRANCH 48 49
ATOM     49  CD  GLU C 501      80.291  27.011 -11.069  1.00115.68 LIG 0.17  C 
ATOM     50 OE1  GLU C 501      80.500  27.255  -9.860  1.00117.56 LIG-0.65  OA
ATOM     51 OE2  GLU C 501      80.742  26.002 -11.652  1.00122.11 LIG-0.65  OA
ENDBRANCH 48 49
ENDBRANCH 47 48
ENDBRANCH 45 47
ENDBRANCH 43 45
ENDBRANCH 37 41
ENDBRANCH 35 37
ENDBRANCH 32 33
BRANCH 32 52
ATOM     52  CB  SER C 503      80.439  27.958 -15.661  1.00 49.05 LIG 0.20  C 
BRANCH 52 53
ATOM     53 OG   SER C 503      79.724  28.310 -16.832  1.00 54.59 LIG-0.40  OA
ATOM     54 HG   SER C 503      78.970  27.939 -16.823  1.00 54.59 LIG 0.21  HD
ENDBRANCH 52 53
ENDBRANCH 32 52
ENDBRANCH 1 32
TORSDOF 25
ENDMDL
MODEL 73
USER: ADFR SOLUTION from run 58
USER: SCORE 15.892445 LL:  -4.675 LR: -12.851 RR:   0.000 FEB:  -5.393
USER: RMSD 3.711972
USER: SEED 57
USER: STATUS no improvement in best in 7 clusters for 5 generations
USER: GENES 27
USER: genes 0 Translation |==|  0.43509 0.40411 0.49585
USER: genes 1 Rotation |==|  0.87243 0.25012 0.28899 0.56580
USER: genes 2 Torsion [C]-N--CA-[CB] |==|  0.15887
USER: genes 3 Torsion [N]-CA--C-[N] |==|  0.71722
USER: genes 4 Torsion [C]-N--CA-[C] |==|  0.81534
USER: genes 5 Torsion [N]-CA--CB-[OG] |==|  0.68997
USER: genes 6 Torsion [CA]-CB--OG-[HG] |==|  0.01910
USER: genes 7 Torsion [N]-CA--C-[N] |==|  0.32835
USER: genes 8 Torsion [C]-N--CA-[CB] |==|  0.12350
USER: genes 9 Torsion [N]-CA--C-[O] |==|  0.02307
USER: genes 10 Torsion [N]-CA--CB-[CG] |==|  0.29976
USER: genes 11 Torsion [CA]-CB--CG-[CD] |==|  0.73296
USER: genes 12 Torsion [CB]-CG--CD-[NE2] |==|  0.90324
USER: genes 13 Torsion [N]-CA--CB-[CG] |==|  0.53911
USER: genes 14 Torsion [CA]-CB--CG-[OD1] |==|  0.34234
USER: genes 15 Torsion [N]-C--CA-[N] |==|  0.90640
USER: genes 16 Torsion [C]-CA--N-[C] |==|  0.73892
USER: genes 17 Torsion [N]-C--CA-[N] |==|  0.19556
USER: genes 18 Torsion [C]-CA--CB-[OG] |==|  0.55575
USER: genes 19 Torsion [CA]-CB--OG-[HG] |==|  0.27877
USER: genes 20 Torsion [C]-CA--N-[C] |==|  0.79987
USER: genes 21 Torsion [N]-C--CA-[N] |==|  0.21090
USER: genes 22 Torsion [C]-CA--CB-[CG] |==|  0.69793
USER: genes 23 Torsion [CA]-CB--CG-[CD] |==|  0.18732
USER: genes 24 Torsion [CB]-CG--CD-[OE1] |==|  0.21882
USER: genes 25 Torsion [C]-CA--CB-[OG] |==|  0.38761
USER: genes 26 Torsion [CA]-CB--OG-[HG] |==|  0.84921
ROOT
ATOM      1  C   SER C 503      78.151  24.344 -14.622  1.00 42.27 LIG 0.24  C 
ATOM      2 O    SER C 503      77.980  23.157 -14.887  1.00 46.84 LIG-0.27  OA
ATOM      3  N   ASP C 504      79.279  24.994 -14.877  1.00 51.15 LIG-0.34  N 
ATOM      4 H    ASP C 504      79.367  25.844 -14.782  1.00 51.15 LIG 0.16  HD
ENDROOT
BRANCH 3 5
ATOM      5  CA  ASP C 504      80.490  24.323 -15.348  1.00 56.79 LIG 0.19  C 
BRANCH 5 6
ATOM      6  C   ASP C 504      81.615  25.345 -15.561  1.00 67.42 LIG 0.24  C 
ATOM      7  N   SER C 505      81.848  25.707 -16.819  1.00 81.52 LIG-0.34  N 
ATOM      8 H    SER C 505      81.417  25.395 -17.493  1.00 81.52 LIG 0.16  HD
ATOM      9 O    ASP C 504      82.252  25.797 -14.606  1.00 66.01 LIG-0.27  OA
BRANCH 7 10
ATOM     10  CA  SER C 505      82.877  26.685 -17.166  1.00 90.64 LIG 0.20  C 
BRANCH 10 11
ATOM     11  CB  SER C 505      83.074  26.745 -18.677  1.00 89.01 LIG 0.20  C 
BRANCH 11 12
ATOM     12 OG   SER C 505      84.343  26.227 -19.029  1.00 87.22 LIG-0.40  OA
ATOM     13 HG   SER C 505      84.710  25.898 -18.349  1.00 87.22 LIG 0.21  HD
ENDBRANCH 11 12
ENDBRANCH 10 11
BRANCH 10 14
ATOM     14  C   SER C 505      82.506  28.062 -16.624  1.00 98.93 LIG 0.24  C 
ATOM     15  N   GLN C 506      83.343  28.591 -15.737  1.00110.12 LIG-0.35  N 
ATOM     16 H    GLN C 506      84.128  28.281 -15.572  1.00110.12 LIG 0.16  HD
ATOM     17 O    SER C 505      81.487  28.637 -17.013  1.00 94.47 LIG-0.27  OA
BRANCH 15 18
ATOM     18  CA  GLN C 506      82.983  29.769 -14.956  1.00115.19 LIG 0.16  C 
BRANCH 18 19
ATOM     19  C   GLN C 506      83.955  30.017 -13.803  1.00118.66 LIG 0.22  C 
ATOM     20 O    GLN C 506      84.994  29.363 -13.700  1.00117.46 LIG-0.29  OA
ENDBRANCH 18 19
BRANCH 18 21
ATOM     21  CB  GLN C 506      81.552  29.617 -14.429  1.00118.15 LIG 0.04  C 
BRANCH 21 22
ATOM     22  CG  GLN C 506      81.478  29.352 -12.918  1.00119.48 LIG 0.10  C 
BRANCH 22 23
ATOM     23  CD  GLN C 506      81.357  27.872 -12.556  1.00116.76 LIG 0.21  C 
ATOM     24  NE2 GLN C 506      80.651  27.112 -13.387  1.00111.94 LIG-0.37  N 
ATOM     25 21HE GLN C 506      80.288  27.461 -14.085  1.00111.94 LIG 0.16  HD
ATOM     26 22HE GLN C 506      80.557  26.273 -13.227  1.00111.94 LIG 0.16  HD
ATOM     27 OE1  GLN C 506      81.896  27.420 -11.545  1.00116.06 LIG-0.27  OA
ENDBRANCH 22 23
ENDBRANCH 21 22
ENDBRANCH 18 21
ENDBRANCH 15 18
ENDBRANCH 10 14
ENDBRANCH 7 10
ENDBRANCH 5 6
BRANCH 5 28
ATOM     28  CB  ASP C 504      80.190  23.560 -16.651  1.00 57.84 LIG 0.15  C 
BRANCH 28 29
ATOM     29  CG  ASP C 504      81.279  22.564 -17.032  1.00 60.92 LIG 0.17  C 
ATOM     30 OD2  ASP C 504      82.451  22.992 -17.169  1.00 60.43 LIG-0.65  OA
ATOM     31 OD1  ASP C 504      80.974  21.363 -17.192  1.00 59.69 LIG-0.65  OA
ENDBRANCH 28 29
ENDBRANCH 5 28
ENDBRANCH 3 5
BRANCH 1 32
ATOM     32  CA  SER C 503      77.043  25.163 -13.985  1.00 44.19 LIG 0.20  C 
BRANCH 32 33
ATOM     33  N   SER C 503      77.599  26.180 -13.089  1.00 47.77 LIG-0.34  N 
ATOM     34 H    SER C 503      77.817  26.917 -13.476  1.00 47.77 LIG 0.16  HD
ATOM     35  C   SER C 502      77.741  25.949 -11.785  1.00 50.79 LIG 0.24  C 
ATOM     36 O    SER C 502      77.173  25.037 -11.202  1.00 48.58 LIG-0.27  OA
BRANCH 35 37
ATOM     37  CA  SER C 502      78.671  26.880 -11.027  1.00 60.54 LIG 0.20  C 
BRANCH 37 38
ATOM     38  CB  SER C 502      79.008  26.309  -9.660  1.00 53.64 LIG 0.20  C 
BRANCH 38 39
ATOM     39 OG   SER C 502      79.469  27.310  -8.782  1.00 59.09 LIG-0.40  OA
ATOM     40 HG   SER C 502      78.846  27.543  -8.270  1.00 59.09 LIG 0.21  HD
ENDBRANCH 38 39
ENDBRANCH 37 38
BRANCH 37 41
ATOM     41  N   SER C 502      78.035  28.190 -10.942  1.00 72.56 LIG-0.34  N 
ATOM     42 H    SER C 502      77.744  28.404 -10.161  1.00 72.56 LIG 0.16  HD
ATOM     43  C   GLU C 501      77.939  28.958 -12.022  1.00101.90 LIG 0.26  C 
ATOM     44 O    GLU C 501      78.659  28.799 -13.009  1.00103.22 LIG-0.27  OA
BRANCH 43 45
ATOM     45  CA  GLU C 501      76.900  30.086 -11.992  1.00101.55 LIG 0.40  C 
ATOM     46  N   GLU C 501      77.378  31.193 -11.169  1.00100.94 LIG 0.61  N 
BRANCH 45 47
ATOM     47  CB  GLU C 501      76.593  30.576 -13.410  1.00104.94 LIG 0.06  C 
BRANCH 47 48
ATOM     48  CG  GLU C 501      77.144  31.956 -13.723  1.00111.45 LIG 0.12  C 
BRANCH 48 49
ATOM     49  CD  GLU C 501      78.658  31.980 -13.770  1.00115.68 LIG 0.17  C 
ATOM     50 OE1  GLU C 501      79.233  31.554 -14.796  1.00117.56 LIG-0.65  OA
ATOM     51 OE2  GLU C 501      79.271  32.427 -12.778  1.00122.11 LIG-0.65  OA
ENDBRANCH 48 49
ENDBRANCH 47 48
ENDBRANCH 45 47
ENDBRANCH 43 45
ENDBRANCH 37 41
ENDBRANCH 35 37
ENDBRANCH 32 33
BRANCH 32 52
ATOM     52  CB  SER C 503      76.196  25.800 -15.077  1.00 49.05 LIG 0.20  C 
BRANCH 52 53
ATOM     53 OG   SER C 503      74.823  25.745 -14.733  1.00 54.59 LIG-0.40  OA
ATOM     54 HG   SER C 503      74.608  24.950 -14.563  1.00 54.59 LIG 0.21  HD
ENDBRANCH 52 53
ENDBRANCH 32 52
ENDBRANCH 1 32
TORSDOF 25
ENDMDL
MODEL 74
USER: ADFR SOLUTION from run 63
USER: SCORE 15.839028 LL:  -4.945 LR: -12.828 RR:   0.000 FEB:  -5.371
USER: RMSD 6.964034
USER: SEED 62
USER: STATUS no improvement in best in 21 clusters for 5 generations
USER: GENES 27
USER: genes 0 Translation |==|  0.76137 0.49371 0.42325
USER: genes 1 Rotation |==|  0.47292 0.12010 0.21051 0.64541
USER: genes 2 Torsion [C]-N--CA-[CB] |==|  0.84682
USER: genes 3 Torsion [N]-CA--C-[N] |==|  0.70980
USER: genes 4 Torsion [C]-N--CA-[C] |==|  0.66961
USER: genes 5 Torsion [N]-CA--CB-[OG] |==|  0.97361
USER: genes 6 Torsion [CA]-CB--OG-[HG] |==|  0.92719
USER: genes 7 Torsion [N]-CA--C-[N] |==|  0.01340
USER: genes 8 Torsion [C]-N--CA-[CB] |==|  0.27743
USER: genes 9 Torsion [N]-CA--C-[O] |==|  0.90765
USER: genes 10 Torsion [N]-CA--CB-[CG] |==|  0.70103
USER: genes 11 Torsion [CA]-CB--CG-[CD] |==|  0.77048
USER: genes 12 Torsion [CB]-CG--CD-[NE2] |==|  0.49959
USER: genes 13 Torsion [N]-CA--CB-[CG] |==|  0.56677
USER: genes 14 Torsion [CA]-CB--CG-[OD1] |==|  0.36762
USER: genes 15 Torsion [N]-C--CA-[N] |==|  0.36939
USER: genes 16 Torsion [C]-CA--N-[C] |==|  0.62712
USER: genes 17 Torsion [N]-C--CA-[N] |==|  0.31847
USER: genes 18 Torsion [C]-CA--CB-[OG] |==|  0.66805
USER: genes 19 Torsion [CA]-CB--OG-[HG] |==|  0.54753
USER: genes 20 Torsion [C]-CA--N-[C] |==|  0.71816
USER: genes 21 Torsion [N]-C--CA-[N] |==|  0.48473
USER: genes 22 Torsion [C]-CA--CB-[CG] |==|  0.92680
USER: genes 23 Torsion [CA]-CB--CG-[CD] |==|  0.78990
USER: genes 24 Torsion [CB]-CG--CD-[OE1] |==|  0.02168
USER: genes 25 Torsion [C]-CA--CB-[OG] |==|  0.05566
USER: genes 26 Torsion [CA]-CB--OG-[HG] |==|  0.13294
ROOT
ATOM      1  C   SER C 503      83.780  26.226 -15.983  1.00 42.27 LIG 0.24  C 
ATOM      2 O    SER C 503      83.053  26.123 -14.998  1.00 46.84 LIG-0.27  OA
ATOM      3  N   ASP C 504      83.717  25.407 -17.025  1.00 51.15 LIG-0.34  N 
ATOM      4 H    ASP C 504      84.156  25.535 -17.754  1.00 51.15 LIG 0.16  HD
ENDROOT
BRANCH 3 5
ATOM      5  CA  ASP C 504      82.892  24.201 -17.035  1.00 56.79 LIG 0.19  C 
BRANCH 5 6
ATOM      6  C   ASP C 504      81.403  24.576 -17.010  1.00 67.42 LIG 0.24  C 
ATOM      7  N   SER C 505      80.777  24.410 -15.849  1.00 81.52 LIG-0.34  N 
ATOM      8 H    SER C 505      81.156  24.103 -15.141  1.00 81.52 LIG 0.16  HD
ATOM      9 O    ASP C 504      80.840  25.009 -18.017  1.00 66.01 LIG-0.27  OA
BRANCH 7 10
ATOM     10  CA  SER C 505      79.364  24.742 -15.675  1.00 90.64 LIG 0.20  C 
BRANCH 10 11
ATOM     11  CB  SER C 505      78.563  23.503 -15.294  1.00 89.01 LIG 0.20  C 
BRANCH 11 12
ATOM     12 OG   SER C 505      79.360  22.341 -15.425  1.00 87.22 LIG-0.40  OA
ATOM     13 HG   SER C 505      79.959  22.476 -15.997  1.00 87.22 LIG 0.21  HD
ENDBRANCH 11 12
ENDBRANCH 10 11
BRANCH 10 14
ATOM     14  C   SER C 505      79.201  25.826 -14.614  1.00 98.93 LIG 0.24  C 
ATOM     15  N   GLN C 506      80.323  26.340 -14.119  1.00110.12 LIG-0.35  N 
ATOM     16 H    GLN C 506      81.103  26.209 -14.459  1.00110.12 LIG 0.16  HD
ATOM     17 O    SER C 505      78.080  26.198 -14.261  1.00 94.47 LIG-0.27  OA
BRANCH 15 18
ATOM     18  CA  GLN C 506      80.317  27.187 -12.932  1.00115.19 LIG 0.16  C 
BRANCH 18 19
ATOM     19  C   GLN C 506      81.231  28.402 -13.084  1.00118.66 LIG 0.22  C 
ATOM     20 O    GLN C 506      82.271  28.334 -13.741  1.00117.46 LIG-0.29  OA
ENDBRANCH 18 19
BRANCH 18 21
ATOM     21  CB  GLN C 506      80.726  26.358 -11.710  1.00118.15 LIG 0.04  C 
BRANCH 21 22
ATOM     22  CG  GLN C 506      79.561  26.056 -10.754  1.00119.48 LIG 0.10  C 
BRANCH 22 23
ATOM     23  CD  GLN C 506      79.253  27.192  -9.778  1.00116.76 LIG 0.21  C 
ATOM     24  NE2 GLN C 506      78.252  26.989  -8.927  1.00111.94 LIG-0.37  N 
ATOM     25 21HE GLN C 506      77.814  26.249  -8.947  1.00111.94 LIG 0.16  HD
ATOM     26 22HE GLN C 506      78.043  27.598  -8.357  1.00111.94 LIG 0.16  HD
ATOM     27 OE1  GLN C 506      79.911  28.232  -9.789  1.00116.06 LIG-0.27  OA
ENDBRANCH 22 23
ENDBRANCH 21 22
ENDBRANCH 18 21
ENDBRANCH 15 18
ENDBRANCH 10 14
ENDBRANCH 7 10
ENDBRANCH 5 6
BRANCH 5 28
ATOM     28  CB  ASP C 504      83.253  23.312 -15.832  1.00 57.84 LIG 0.15  C 
BRANCH 28 29
ATOM     29  CG  ASP C 504      82.913  21.841 -16.044  1.00 60.92 LIG 0.17  C 
ATOM     30 OD2  ASP C 504      81.777  21.555 -16.492  1.00 60.43 LIG-0.65  OA
ATOM     31 OD1  ASP C 504      83.771  20.974 -15.770  1.00 59.69 LIG-0.65  OA
ENDBRANCH 28 29
ENDBRANCH 5 28
ENDBRANCH 3 5
BRANCH 1 32
ATOM     32  CA  SER C 503      84.808  27.339 -16.074  1.00 44.19 LIG 0.20  C 
BRANCH 32 33
ATOM     33  N   SER C 503      84.217  28.623 -15.689  1.00 47.77 LIG-0.34  N 
ATOM     34 H    SER C 503      83.742  28.598 -14.973  1.00 47.77 LIG 0.16  HD
ATOM     35  C   SER C 502      84.421  29.723 -16.413  1.00 50.79 LIG 0.24  C 
ATOM     36 O    SER C 502      85.314  29.820 -17.243  1.00 48.58 LIG-0.27  OA
BRANCH 35 37
ATOM     37  CA  SER C 502      83.471  30.881 -16.172  1.00 60.54 LIG 0.20  C 
BRANCH 37 38
ATOM     38  CB  SER C 502      82.758  31.269 -17.456  1.00 53.64 LIG 0.20  C 
BRANCH 38 39
ATOM     39 OG   SER C 502      83.035  32.602 -17.819  1.00 59.09 LIG-0.40  OA
ATOM     40 HG   SER C 502      82.466  32.864 -18.378  1.00 59.09 LIG 0.21  HD
ENDBRANCH 38 39
ENDBRANCH 37 38
BRANCH 37 41
ATOM     41  N   SER C 502      84.233  31.987 -15.604  1.00 72.56 LIG-0.34  N 
ATOM     42 H    SER C 502      84.695  32.441 -16.171  1.00 72.56 LIG 0.16  HD
ATOM     43  C   GLU C 501      84.183  32.232 -14.299  1.00101.90 LIG 0.26  C 
ATOM     44 O    GLU C 501      83.267  31.820 -13.586  1.00103.22 LIG-0.27  OA
BRANCH 43 45
ATOM     45  CA  GLU C 501      85.311  33.084 -13.700  1.00101.55 LIG 0.40  C 
ATOM     46  N   GLU C 501      85.040  33.367 -12.294  1.00100.94 LIG 0.61  N 
BRANCH 45 47
ATOM     47  CB  GLU C 501      86.659  32.373 -13.846  1.00104.94 LIG 0.06  C 
BRANCH 47 48
ATOM     48  CG  GLU C 501      86.559  30.860 -13.922  1.00111.45 LIG 0.12  C 
BRANCH 48 49
ATOM     49  CD  GLU C 501      86.282  30.228 -12.573  1.00115.68 LIG 0.17  C 
ATOM     50 OE1  GLU C 501      86.021  30.974 -11.603  1.00117.56 LIG-0.65  OA
ATOM     51 OE2  GLU C 501      86.326  28.983 -12.485  1.00122.11 LIG-0.65  OA
ENDBRANCH 48 49
ENDBRANCH 47 48
ENDBRANCH 45 47
ENDBRANCH 43 45
ENDBRANCH 37 41
ENDBRANCH 35 37
ENDBRANCH 32 33
BRANCH 32 52
ATOM     52  CB  SER C 503      85.999  26.998 -15.190  1.00 49.05 LIG 0.20  C 
BRANCH 52 53
ATOM     53 OG   SER C 503      86.033  25.608 -14.919  1.00 54.59 LIG-0.40  OA
ATOM     54 HG   SER C 503      85.931  25.180 -15.636  1.00 54.59 LIG 0.21  HD
ENDBRANCH 52 53
ENDBRANCH 32 52
ENDBRANCH 1 32
TORSDOF 25
ENDMDL
MODEL 75
USER: ADFR SOLUTION from run 138
USER: SCORE 17.216764 LL:  -5.345 LR: -12.813 RR:   0.000 FEB:  -5.355
USER: RMSD 3.373595
USER: SEED 137
USER: STATUS 1 or 2 clusters left
USER: GENES 27
USER: genes 0 Translation |==|  0.42238 0.37449 0.47924
USER: genes 1 Rotation |==|  0.82005 0.20323 0.26275 0.55668
USER: genes 2 Torsion [C]-N--CA-[CB] |==|  0.17582
USER: genes 3 Torsion [N]-CA--C-[N] |==|  0.09701
USER: genes 4 Torsion [C]-N--CA-[C] |==|  0.18532
USER: genes 5 Torsion [N]-CA--CB-[OG] |==|  0.57697
USER: genes 6 Torsion [CA]-CB--OG-[HG] |==|  0.76295
USER: genes 7 Torsion [N]-CA--C-[N] |==|  0.02265
USER: genes 8 Torsion [C]-N--CA-[CB] |==|  0.36273
USER: genes 9 Torsion [N]-CA--C-[O] |==|  0.98589
USER: genes 10 Torsion [N]-CA--CB-[CG] |==|  0.73488
USER: genes 11 Torsion [CA]-CB--CG-[CD] |==|  0.01177
USER: genes 12 Torsion [CB]-CG--CD-[NE2] |==|  0.21685
USER: genes 13 Torsion [N]-CA--CB-[CG] |==|  0.59846
USER: genes 14 Torsion [CA]-CB--CG-[OD1] |==|  0.27390
USER: genes 15 Torsion [N]-C--CA-[N] |==|  0.91753
USER: genes 16 Torsion [C]-CA--N-[C] |==|  0.69704
USER: genes 17 Torsion [N]-C--CA-[N] |==|  0.07939
USER: genes 18 Torsion [C]-CA--CB-[OG] |==|  0.64032
USER: genes 19 Torsion [CA]-CB--OG-[HG] |==|  0.33396
USER: genes 20 Torsion [C]-CA--N-[C] |==|  0.71106
USER: genes 21 Torsion [N]-C--CA-[N] |==|  0.88806
USER: genes 22 Torsion [C]-CA--CB-[CG] |==|  0.65796
USER: genes 23 Torsion [CA]-CB--CG-[CD] |==|  0.21617
USER: genes 24 Torsion [CB]-CG--CD-[OE1] |==|  0.36678
USER: genes 25 Torsion [C]-CA--CB-[OG] |==|  0.35580
USER: genes 26 Torsion [CA]-CB--OG-[HG] |==|  0.83988
ROOT
ATOM      1  C   SER C 503      77.932  23.722 -14.933  1.00 42.27 LIG 0.24  C 
ATOM      2 O    SER C 503      77.416  22.624 -15.124  1.00 46.84 LIG-0.27  OA
ATOM      3  N   ASP C 504      79.152  24.038 -15.349  1.00 51.15 LIG-0.34  N 
ATOM      4 H    ASP C 504      79.476  24.833 -15.302  1.00 51.15 LIG 0.16  HD
ENDROOT
BRANCH 3 5
ATOM      5  CA  ASP C 504      80.068  23.058 -15.930  1.00 56.79 LIG 0.19  C 
BRANCH 5 6
ATOM      6  C   ASP C 504      81.442  23.697 -16.179  1.00 67.42 LIG 0.24  C 
ATOM      7  N   SER C 505      81.834  24.606 -15.291  1.00 81.52 LIG-0.34  N 
ATOM      8 H    SER C 505      81.363  24.847 -14.614  1.00 81.52 LIG 0.16  HD
ATOM      9 O    ASP C 504      82.129  23.370 -17.149  1.00 66.01 LIG-0.27  OA
BRANCH 7 10
ATOM     10  CA  SER C 505      83.126  25.281 -15.393  1.00 90.64 LIG 0.20  C 
BRANCH 10 11
ATOM     11  CB  SER C 505      84.262  24.266 -15.449  1.00 89.01 LIG 0.20  C 
BRANCH 11 12
ATOM     12 OG   SER C 505      85.449  24.826 -14.924  1.00 87.22 LIG-0.40  OA
ATOM     13 HG   SER C 505      85.849  25.252 -15.527  1.00 87.22 LIG 0.21  HD
ENDBRANCH 11 12
ENDBRANCH 10 11
BRANCH 10 14
ATOM     14  C   SER C 505      83.157  26.182 -16.624  1.00 98.93 LIG 0.24  C 
ATOM     15  N   GLN C 506      82.006  26.334 -17.272  1.00110.12 LIG-0.35  N 
ATOM     16 H    GLN C 506      81.243  26.086 -16.962  1.00110.12 LIG 0.16  HD
ATOM     17 O    SER C 505      84.201  26.738 -16.971  1.00 94.47 LIG-0.27  OA
BRANCH 15 18
ATOM     18  CA  GLN C 506      81.949  26.949 -18.593  1.00115.19 LIG 0.16  C 
BRANCH 18 19
ATOM     19  C   GLN C 506      81.370  28.363 -18.547  1.00118.66 LIG 0.22  C 
ATOM     20 O    GLN C 506      80.925  28.831 -17.497  1.00117.46 LIG-0.29  OA
ENDBRANCH 18 19
BRANCH 18 21
ATOM     21  CB  GLN C 506      81.129  26.063 -19.536  1.00118.15 LIG 0.04  C 
BRANCH 21 22
ATOM     22  CG  GLN C 506      81.984  25.110 -20.384  1.00119.48 LIG 0.10  C 
BRANCH 22 23
ATOM     23  CD  GLN C 506      83.476  25.156 -20.050  1.00116.76 LIG 0.21  C 
ATOM     24  NE2 GLN C 506      83.861  24.505 -18.957  1.00111.94 LIG-0.37  N 
ATOM     25 21HE GLN C 506      83.280  24.089 -18.477  1.00111.94 LIG 0.16  HD
ATOM     26 22HE GLN C 506      84.690  24.500 -18.729  1.00111.94 LIG 0.16  HD
ATOM     27 OE1  GLN C 506      84.268  25.766 -20.769  1.00116.06 LIG-0.27  OA
ENDBRANCH 22 23
ENDBRANCH 21 22
ENDBRANCH 18 21
ENDBRANCH 15 18
ENDBRANCH 10 14
ENDBRANCH 7 10
ENDBRANCH 5 6
BRANCH 5 28
ATOM     28  CB  ASP C 504      79.477  22.504 -17.239  1.00 57.84 LIG 0.15  C 
BRANCH 28 29
ATOM     29  CG  ASP C 504      79.794  21.030 -17.468  1.00 60.92 LIG 0.17  C 
ATOM     30 OD2  ASP C 504      80.916  20.733 -17.943  1.00 60.43 LIG-0.65  OA
ATOM     31 OD1  ASP C 504      78.934  20.172 -17.175  1.00 59.69 LIG-0.65  OA
ENDBRANCH 28 29
ENDBRANCH 5 28
ENDBRANCH 3 5
BRANCH 1 32
ATOM     32  CA  SER C 503      77.175  24.818 -14.206  1.00 44.19 LIG 0.20  C 
BRANCH 32 33
ATOM     33  N   SER C 503      78.100  25.711 -13.504  1.00 47.77 LIG-0.34  N 
ATOM     34 H    SER C 503      78.566  26.219 -14.018  1.00 47.77 LIG 0.16  HD
ATOM     35  C   SER C 502      78.188  25.710 -12.175  1.00 50.79 LIG 0.24  C 
ATOM     36 O    SER C 502      77.338  25.213 -11.449  1.00 48.58 LIG-0.27  OA
BRANCH 35 37
ATOM     37  CA  SER C 502      79.422  26.358 -11.574  1.00 60.54 LIG 0.20  C 
BRANCH 37 38
ATOM     38  CB  SER C 502      79.125  26.899 -10.187  1.00 53.64 LIG 0.20  C 
BRANCH 38 39
ATOM     39 OG   SER C 502      79.542  28.239 -10.055  1.00 59.09 LIG-0.40  OA
ATOM     40 HG   SER C 502      78.881  28.720  -9.867  1.00 59.09 LIG 0.21  HD
ENDBRANCH 38 39
ENDBRANCH 37 38
BRANCH 37 41
ATOM     41  N   SER C 502      79.884  27.395 -12.489  1.00 72.56 LIG-0.34  N 
ATOM     42 H    SER C 502      79.421  28.120 -12.482  1.00 72.56 LIG 0.16  HD
ATOM     43  C   GLU C 501      80.950  27.184 -13.256  1.00101.90 LIG 0.26  C 
ATOM     44 O    GLU C 501      81.785  26.317 -12.997  1.00103.22 LIG-0.27  OA
BRANCH 43 45
ATOM     45  CA  GLU C 501      81.122  28.089 -14.482  1.00101.55 LIG 0.40  C 
ATOM     46  N   GLU C 501      79.834  28.318 -15.129  1.00100.94 LIG 0.61  N 
BRANCH 45 47
ATOM     47  CB  GLU C 501      81.758  29.424 -14.084  1.00104.94 LIG 0.06  C 
BRANCH 47 48
ATOM     48  CG  GLU C 501      80.933  30.642 -14.462  1.00111.45 LIG 0.12  C 
BRANCH 48 49
ATOM     49  CD  GLU C 501      79.773  30.875 -13.515  1.00115.68 LIG 0.17  C 
ATOM     50 OE1  GLU C 501      79.592  32.026 -13.061  1.00117.56 LIG-0.65  OA
ATOM     51 OE2  GLU C 501      79.044  29.903 -13.227  1.00122.11 LIG-0.65  OA
ENDBRANCH 48 49
ENDBRANCH 47 48
ENDBRANCH 45 47
ENDBRANCH 43 45
ENDBRANCH 37 41
ENDBRANCH 35 37
ENDBRANCH 32 33
BRANCH 32 52
ATOM     52  CB  SER C 503      76.321  25.589 -15.203  1.00 49.05 LIG 0.20  C 
BRANCH 52 53
ATOM     53 OG   SER C 503      74.979  25.661 -14.755  1.00 54.59 LIG-0.40  OA
ATOM     54 HG   SER C 503      74.680  24.884 -14.642  1.00 54.59 LIG 0.21  HD
ENDBRANCH 52 53
ENDBRANCH 32 52
ENDBRANCH 1 32
TORSDOF 25
ENDMDL
MODEL 76
USER: ADFR SOLUTION from run 99
USER: SCORE 15.566923 LL:  -4.342 LR: -12.784 RR:   0.000 FEB:  -5.326
USER: RMSD 4.409646
USER: SEED 98
USER: STATUS searching
USER: GENES 27
USER: genes 0 Translation |==|  0.38871 0.39532 0.50655
USER: genes 1 Rotation |==|  0.83631 0.22141 0.28818 0.62006
USER: genes 2 Torsion [C]-N--CA-[CB] |==|  0.16199
USER: genes 3 Torsion [N]-CA--C-[N] |==|  0.34651
USER: genes 4 Torsion [C]-N--CA-[C] |==|  0.82899
USER: genes 5 Torsion [N]-CA--CB-[OG] |==|  0.23571
USER: genes 6 Torsion [CA]-CB--OG-[HG] |==|  0.17772
USER: genes 7 Torsion [N]-CA--C-[N] |==|  0.39928
USER: genes 8 Torsion [C]-N--CA-[CB] |==|  0.18726
USER: genes 9 Torsion [N]-CA--C-[O] |==|  0.39174
USER: genes 10 Torsion [N]-CA--CB-[CG] |==|  0.64077
USER: genes 11 Torsion [CA]-CB--CG-[CD] |==|  0.24415
USER: genes 12 Torsion [CB]-CG--CD-[NE2] |==|  0.06430
USER: genes 13 Torsion [N]-CA--CB-[CG] |==|  0.56109
USER: genes 14 Torsion [CA]-CB--CG-[OD1] |==|  0.74428
USER: genes 15 Torsion [N]-C--CA-[N] |==|  0.88373
USER: genes 16 Torsion [C]-CA--N-[C] |==|  0.78453
USER: genes 17 Torsion [N]-C--CA-[N] |==|  0.21398
USER: genes 18 Torsion [C]-CA--CB-[OG] |==|  0.76875
USER: genes 19 Torsion [CA]-CB--OG-[HG] |==|  0.20265
USER: genes 20 Torsion [C]-CA--N-[C] |==|  0.76640
USER: genes 21 Torsion [N]-C--CA-[N] |==|  0.94733
USER: genes 22 Torsion [C]-CA--CB-[CG] |==|  0.43759
USER: genes 23 Torsion [CA]-CB--CG-[CD] |==|  0.15869
USER: genes 24 Torsion [CB]-CG--CD-[OE1] |==|  0.78978
USER: genes 25 Torsion [C]-CA--CB-[OG] |==|  0.34306
USER: genes 26 Torsion [CA]-CB--OG-[HG] |==|  0.86327
ROOT
ATOM      1  C   SER C 503      77.351  24.160 -14.421  1.00 42.27 LIG 0.24  C 
ATOM      2 O    SER C 503      77.082  22.962 -14.377  1.00 46.84 LIG-0.27  OA
ATOM      3  N   ASP C 504      78.452  24.640 -14.983  1.00 51.15 LIG-0.34  N 
ATOM      4 H    ASP C 504      78.595  25.480 -15.101  1.00 51.15 LIG 0.16  HD
ENDROOT
BRANCH 3 5
ATOM      5  CA  ASP C 504      79.536  23.783 -15.460  1.00 56.79 LIG 0.19  C 
BRANCH 5 6
ATOM      6  C   ASP C 504      80.673  24.637 -16.041  1.00 67.42 LIG 0.24  C 
ATOM      7  N   SER C 505      81.880  24.439 -15.519  1.00 81.52 LIG-0.34  N 
ATOM      8 H    SER C 505      82.041  23.880 -14.886  1.00 81.52 LIG 0.16  HD
ATOM      9 O    ASP C 504      80.459  25.450 -16.943  1.00 66.01 LIG-0.27  OA
BRANCH 7 10
ATOM     10  CA  SER C 505      83.056  25.169 -15.987  1.00 90.64 LIG 0.20  C 
BRANCH 10 11
ATOM     11  CB  SER C 505      84.279  24.814 -15.149  1.00 89.01 LIG 0.20  C 
BRANCH 11 12
ATOM     12 OG   SER C 505      84.890  23.637 -15.643  1.00 87.22 LIG-0.40  OA
ATOM     13 HG   SER C 505      85.178  23.776 -16.419  1.00 87.22 LIG 0.21  HD
ENDBRANCH 11 12
ENDBRANCH 10 11
BRANCH 10 14
ATOM     14  C   SER C 505      83.316  24.866 -17.460  1.00 98.93 LIG 0.24  C 
ATOM     15  N   GLN C 506      83.771  25.876 -18.197  1.00110.12 LIG-0.35  N 
ATOM     16 H    GLN C 506      84.059  26.618 -17.871  1.00110.12 LIG 0.16  HD
ATOM     17 O    SER C 505      83.122  23.737 -17.915  1.00 94.47 LIG-0.27  OA
BRANCH 15 18
ATOM     18  CA  GLN C 506      83.817  25.798 -19.652  1.00115.19 LIG 0.16  C 
BRANCH 18 19
ATOM     19  C   GLN C 506      84.605  26.953 -20.268  1.00118.66 LIG 0.22  C 
ATOM     20 O    GLN C 506      85.343  26.770 -21.238  1.00117.46 LIG-0.29  OA
ENDBRANCH 18 19
BRANCH 18 21
ATOM     21  CB  GLN C 506      82.389  25.765 -20.209  1.00118.15 LIG 0.04  C 
BRANCH 21 22
ATOM     22  CG  GLN C 506      82.143  24.621 -21.204  1.00119.48 LIG 0.10  C 
BRANCH 22 23
ATOM     23  CD  GLN C 506      81.701  23.314 -20.545  1.00116.76 LIG 0.21  C 
ATOM     24  NE2 GLN C 506      81.134  23.415 -19.347  1.00111.94 LIG-0.37  N 
ATOM     25 21HE GLN C 506      81.035  24.187 -18.981  1.00111.94 LIG 0.16  HD
ATOM     26 22HE GLN C 506      80.867  22.708 -18.937  1.00111.94 LIG 0.16  HD
ATOM     27 OE1  GLN C 506      81.864  22.233 -21.110  1.00116.06 LIG-0.27  OA
ENDBRANCH 22 23
ENDBRANCH 21 22
ENDBRANCH 18 21
ENDBRANCH 15 18
ENDBRANCH 10 14
ENDBRANCH 7 10
ENDBRANCH 5 6
BRANCH 5 28
ATOM     28  CB  ASP C 504      78.998  22.799 -16.514  1.00 57.84 LIG 0.15  C 
BRANCH 28 29
ATOM     29  CG  ASP C 504      79.865  21.556 -16.678  1.00 60.92 LIG 0.17  C 
ATOM     30 OD2  ASP C 504      79.637  20.572 -15.935  1.00 60.43 LIG-0.65  OA
ATOM     31 OD1  ASP C 504      80.767  21.556 -17.543  1.00 59.69 LIG-0.65  OA
ENDBRANCH 28 29
ENDBRANCH 5 28
ENDBRANCH 3 5
BRANCH 1 32
ATOM     32  CA  SER C 503      76.402  25.188 -13.834  1.00 44.19 LIG 0.20  C 
BRANCH 32 33
ATOM     33  N   SER C 503      77.144  26.230 -13.119  1.00 47.77 LIG-0.34  N 
ATOM     34 H    SER C 503      77.225  26.970 -13.550  1.00 47.77 LIG 0.16  HD
ATOM     35  C   SER C 502      77.640  26.015 -11.902  1.00 50.79 LIG 0.24  C 
ATOM     36 O    SER C 502      77.280  25.089 -11.188  1.00 48.58 LIG-0.27  OA
BRANCH 35 37
ATOM     37  CA  SER C 502      78.707  26.982 -11.421  1.00 60.54 LIG 0.20  C 
BRANCH 37 38
ATOM     38  CB  SER C 502      79.525  26.366 -10.299  1.00 53.64 LIG 0.20  C 
BRANCH 38 39
ATOM     39 OG   SER C 502      78.885  26.513  -9.053  1.00 59.09 LIG-0.40  OA
ATOM     40 HG   SER C 502      78.228  25.992  -9.012  1.00 59.09 LIG 0.21  HD
ENDBRANCH 38 39
ENDBRANCH 37 38
BRANCH 37 41
ATOM     41  N   SER C 502      78.052  28.220 -11.016  1.00 72.56 LIG-0.34  N 
ATOM     42 H    SER C 502      77.885  28.286 -10.175  1.00 72.56 LIG 0.16  HD
ATOM     43  C   GLU C 501      77.757  29.147 -11.922  1.00101.90 LIG 0.26  C 
ATOM     44 O    GLU C 501      78.313  29.194 -13.020  1.00103.22 LIG-0.27  OA
BRANCH 43 45
ATOM     45  CA  GLU C 501      76.702  30.193 -11.539  1.00101.55 LIG 0.40  C 
ATOM     46  N   GLU C 501      75.897  29.714 -10.419  1.00100.94 LIG 0.61  N 
BRANCH 45 47
ATOM     47  CB  GLU C 501      77.366  31.525 -11.181  1.00104.94 LIG 0.06  C 
BRANCH 47 48
ATOM     48  CG  GLU C 501      76.451  32.730 -11.314  1.00111.45 LIG 0.12  C 
BRANCH 48 49
ATOM     49  CD  GLU C 501      75.199  32.604 -10.470  1.00115.68 LIG 0.17  C 
ATOM     50 OE1  GLU C 501      74.287  31.843 -10.861  1.00117.56 LIG-0.65  OA
ATOM     51 OE2  GLU C 501      75.130  33.269  -9.415  1.00122.11 LIG-0.65  OA
ENDBRANCH 48 49
ENDBRANCH 47 48
ENDBRANCH 45 47
ENDBRANCH 43 45
ENDBRANCH 37 41
ENDBRANCH 35 37
ENDBRANCH 32 33
BRANCH 32 52
ATOM     52  CB  SER C 503      75.555  25.787 -14.948  1.00 49.05 LIG 0.20  C 
BRANCH 52 53
ATOM     53 OG   SER C 503      74.177  25.617 -14.666  1.00 54.59 LIG-0.40  OA
ATOM     54 HG   SER C 503      74.030  24.816 -14.456  1.00 54.59 LIG 0.21  HD
ENDBRANCH 52 53
ENDBRANCH 32 52
ENDBRANCH 1 32
TORSDOF 25
ENDMDL
MODEL 77
USER: ADFR SOLUTION from run 178
USER: SCORE 15.307273 LL:  -4.452 LR: -12.772 RR:   0.000 FEB:  -5.314
USER: RMSD 6.181623
USER: SEED 177
USER: STATUS no improvement in best in 8 clusters for 5 generations
USER: GENES 27
USER: genes 0 Translation |==|  0.58899 0.52068 0.54290
USER: genes 1 Rotation |==|  0.58598 0.38774 0.41486 0.97197
USER: genes 2 Torsion [C]-N--CA-[CB] |==|  0.52234
USER: genes 3 Torsion [N]-CA--C-[N] |==|  0.78922
USER: genes 4 Torsion [C]-N--CA-[C] |==|  0.75506
USER: genes 5 Torsion [N]-CA--CB-[OG] |==|  0.77623
USER: genes 6 Torsion [CA]-CB--OG-[HG] |==|  0.97251
USER: genes 7 Torsion [N]-CA--C-[N] |==|  0.23934
USER: genes 8 Torsion [C]-N--CA-[CB] |==|  0.19074
USER: genes 9 Torsion [N]-CA--C-[O] |==|  0.02784
USER: genes 10 Torsion [N]-CA--CB-[CG] |==|  0.66075
USER: genes 11 Torsion [CA]-CB--CG-[CD] |==|  0.44494
USER: genes 12 Torsion [CB]-CG--CD-[NE2] |==|  0.83997
USER: genes 13 Torsion [N]-CA--CB-[CG] |==|  0.48352
USER: genes 14 Torsion [CA]-CB--CG-[OD1] |==|  0.10395
USER: genes 15 Torsion [N]-C--CA-[N] |==|  0.03074
USER: genes 16 Torsion [C]-CA--N-[C] |==|  0.19805
USER: genes 17 Torsion [N]-C--CA-[N] |==|  0.33889
USER: genes 18 Torsion [C]-CA--CB-[OG] |==|  0.56775
USER: genes 19 Torsion [CA]-CB--OG-[HG] |==|  0.64381
USER: genes 20 Torsion [C]-CA--N-[C] |==|  0.87513
USER: genes 21 Torsion [N]-C--CA-[N] |==|  0.44630
USER: genes 22 Torsion [C]-CA--CB-[CG] |==|  0.71394
USER: genes 23 Torsion [CA]-CB--CG-[CD] |==|  0.77351
USER: genes 24 Torsion [CB]-CG--CD-[OE1] |==|  0.93387
USER: genes 25 Torsion [C]-CA--CB-[OG] |==|  0.41584
USER: genes 26 Torsion [CA]-CB--OG-[HG] |==|  0.48434
ROOT
ATOM      1  C   SER C 503      80.806  26.792 -13.740  1.00 42.27 LIG 0.24  C 
ATOM      2 O    SER C 503      81.861  26.778 -13.110  1.00 46.84 LIG-0.27  OA
ATOM      3  N   ASP C 504      80.563  25.999 -14.774  1.00 51.15 LIG-0.34  N 
ATOM      4 H    ASP C 504      79.794  25.939 -15.154  1.00 51.15 LIG 0.16  HD
ENDROOT
BRANCH 3 5
ATOM      5  CA  ASP C 504      81.587  25.144 -15.374  1.00 56.79 LIG 0.19  C 
BRANCH 5 6
ATOM      6  C   ASP C 504      82.859  25.957 -15.657  1.00 67.42 LIG 0.24  C 
ATOM      7  N   SER C 505      82.815  26.764 -16.712  1.00 81.52 LIG-0.34  N 
ATOM      8 H    SER C 505      82.132  26.839 -17.229  1.00 81.52 LIG 0.16  HD
ATOM      9 O    ASP C 504      83.851  25.857 -14.932  1.00 66.01 LIG-0.27  OA
BRANCH 7 10
ATOM     10  CA  SER C 505      83.946  27.609 -17.089  1.00 90.64 LIG 0.20  C 
BRANCH 10 11
ATOM     11  CB  SER C 505      83.979  27.823 -18.598  1.00 89.01 LIG 0.20  C 
BRANCH 11 12
ATOM     12 OG   SER C 505      84.561  26.705 -19.241  1.00 87.22 LIG-0.40  OA
ATOM     13 HG   SER C 505      84.900  26.197 -18.665  1.00 87.22 LIG 0.21  HD
ENDBRANCH 11 12
ENDBRANCH 10 11
BRANCH 10 14
ATOM     14  C   SER C 505      83.870  28.951 -16.365  1.00 98.93 LIG 0.24  C 
ATOM     15  N   GLN C 506      84.409  28.995 -15.150  1.00110.12 LIG-0.35  N 
ATOM     16 H    GLN C 506      84.912  28.378 -14.824  1.00110.12 LIG 0.16  HD
ATOM     17 O    SER C 505      83.346  29.928 -16.903  1.00 94.47 LIG-0.27  OA
BRANCH 15 18
ATOM     18  CA  GLN C 506      84.183  30.124 -14.255  1.00115.19 LIG 0.16  C 
BRANCH 18 19
ATOM     19  C   GLN C 506      85.117  30.100 -13.046  1.00118.66 LIG 0.22  C 
ATOM     20 O    GLN C 506      86.062  29.311 -12.993  1.00117.46 LIG-0.29  OA
ENDBRANCH 18 19
BRANCH 18 21
ATOM     21  CB  GLN C 506      82.719  30.133 -13.802  1.00118.15 LIG 0.04  C 
BRANCH 21 22
ATOM     22  CG  GLN C 506      81.976  31.434 -14.146  1.00119.48 LIG 0.10  C 
BRANCH 22 23
ATOM     23  CD  GLN C 506      80.454  31.293 -14.148  1.00116.76 LIG 0.21  C 
ATOM     24  NE2 GLN C 506      79.942  30.380 -14.967  1.00111.94 LIG-0.37  N 
ATOM     25 21HE GLN C 506      80.462  29.907 -15.462  1.00111.94 LIG 0.16  HD
ATOM     26 22HE GLN C 506      79.091  30.262 -15.001  1.00111.94 LIG 0.16  HD
ATOM     27 OE1  GLN C 506      79.752  31.994 -13.419  1.00116.06 LIG-0.27  OA
ENDBRANCH 22 23
ENDBRANCH 21 22
ENDBRANCH 18 21
ENDBRANCH 15 18
ENDBRANCH 10 14
ENDBRANCH 7 10
ENDBRANCH 5 6
BRANCH 5 28
ATOM     28  CB  ASP C 504      81.044  24.508 -16.666  1.00 57.84 LIG 0.15  C 
BRANCH 28 29
ATOM     29  CG  ASP C 504      82.093  23.713 -17.435  1.00 60.92 LIG 0.17  C 
ATOM     30 OD2  ASP C 504      82.073  23.762 -18.688  1.00 60.43 LIG-0.65  OA
ATOM     31 OD1  ASP C 504      82.936  23.045 -16.797  1.00 59.69 LIG-0.65  OA
ENDBRANCH 28 29
ENDBRANCH 5 28
ENDBRANCH 3 5
BRANCH 1 32
ATOM     32  CA  SER C 503      79.682  27.733 -13.347  1.00 44.19 LIG 0.20  C 
BRANCH 32 33
ATOM     33  N   SER C 503      78.444  27.383 -14.046  1.00 47.77 LIG-0.34  N 
ATOM     34 H    SER C 503      78.209  27.941 -14.658  1.00 47.77 LIG 0.16  HD
ATOM     35  C   SER C 502      77.761  26.283 -13.735  1.00 50.79 LIG 0.24  C 
ATOM     36 O    SER C 502      78.237  25.362 -13.087  1.00 48.58 LIG-0.27  OA
BRANCH 35 37
ATOM     37  CA  SER C 502      76.323  26.215 -14.218  1.00 60.54 LIG 0.20  C 
BRANCH 37 38
ATOM     38  CB  SER C 502      75.360  26.219 -13.043  1.00 53.64 LIG 0.20  C 
BRANCH 38 39
ATOM     39 OG   SER C 502      74.130  25.622 -13.382  1.00 59.09 LIG-0.40  OA
ATOM     40 HG   SER C 502      73.502  26.139 -13.177  1.00 59.09 LIG 0.21  HD
ENDBRANCH 38 39
ENDBRANCH 37 38
BRANCH 37 41
ATOM     41  N   SER C 502      76.177  25.028 -15.052  1.00 72.56 LIG-0.34  N 
ATOM     42 H    SER C 502      75.474  24.558 -14.898  1.00 72.56 LIG 0.16  HD
ATOM     43  C   GLU C 501      77.094  24.741 -15.971  1.00101.90 LIG 0.26  C 
ATOM     44 O    GLU C 501      77.872  25.588 -16.412  1.00103.22 LIG-0.27  OA
BRANCH 43 45
ATOM     45  CA  GLU C 501      77.137  23.298 -16.493  1.00101.55 LIG 0.40  C 
ATOM     46  N   GLU C 501      77.842  23.243 -17.770  1.00100.94 LIG 0.61  N 
BRANCH 45 47
ATOM     47  CB  GLU C 501      77.814  22.376 -15.475  1.00104.94 LIG 0.06  C 
BRANCH 47 48
ATOM     48  CG  GLU C 501      79.243  22.003 -15.829  1.00111.45 LIG 0.12  C 
BRANCH 48 49
ATOM     49  CD  GLU C 501      79.317  20.870 -16.832  1.00115.68 LIG 0.17  C 
ATOM     50 OE1  GLU C 501      78.349  20.082 -16.919  1.00117.56 LIG-0.65  OA
ATOM     51 OE2  GLU C 501      80.346  20.768 -17.533  1.00122.11 LIG-0.65  OA
ENDBRANCH 48 49
ENDBRANCH 47 48
ENDBRANCH 45 47
ENDBRANCH 43 45
ENDBRANCH 37 41
ENDBRANCH 35 37
ENDBRANCH 32 33
BRANCH 32 52
ATOM     52  CB  SER C 503      79.490  27.686 -11.837  1.00 49.05 LIG 0.20  C 
BRANCH 52 53
ATOM     53 OG   SER C 503      79.021  28.934 -11.359  1.00 54.59 LIG-0.40  OA
ATOM     54 HG   SER C 503      78.845  28.873 -10.539  1.00 54.59 LIG 0.21  HD
ENDBRANCH 52 53
ENDBRANCH 32 52
ENDBRANCH 1 32
TORSDOF 25
ENDMDL
MODEL 78
USER: ADFR SOLUTION from run 34
USER: SCORE 16.642456 LL:  -4.965 LR: -12.761 RR:   0.000 FEB:  -5.304
USER: RMSD 6.383090
USER: SEED 33
USER: STATUS searching
USER: GENES 27
USER: genes 0 Translation |==|  0.58535 0.53936 0.56216
USER: genes 1 Rotation |==|  0.64424 0.37754 0.44931 0.96003
USER: genes 2 Torsion [C]-N--CA-[CB] |==|  0.50008
USER: genes 3 Torsion [N]-CA--C-[N] |==|  0.49444
USER: genes 4 Torsion [C]-N--CA-[C] |==|  0.71193
USER: genes 5 Torsion [N]-CA--CB-[OG] |==|  0.00522
USER: genes 6 Torsion [CA]-CB--OG-[HG] |==|  0.13839
USER: genes 7 Torsion [N]-CA--C-[N] |==|  0.92409
USER: genes 8 Torsion [C]-N--CA-[CB] |==|  0.47809
USER: genes 9 Torsion [N]-CA--C-[O] |==|  0.41263
USER: genes 10 Torsion [N]-CA--CB-[CG] |==|  0.06029
USER: genes 11 Torsion [CA]-CB--CG-[CD] |==|  0.20771
USER: genes 12 Torsion [CB]-CG--CD-[NE2] |==|  0.33701
USER: genes 13 Torsion [N]-CA--CB-[CG] |==|  0.59970
USER: genes 14 Torsion [CA]-CB--CG-[OD1] |==|  0.41751
USER: genes 15 Torsion [N]-C--CA-[N] |==|  0.03922
USER: genes 16 Torsion [C]-CA--N-[C] |==|  0.19223
USER: genes 17 Torsion [N]-C--CA-[N] |==|  0.36214
USER: genes 18 Torsion [C]-CA--CB-[OG] |==|  0.49978
USER: genes 19 Torsion [CA]-CB--OG-[HG] |==|  0.22189
USER: genes 20 Torsion [C]-CA--N-[C] |==|  0.84995
USER: genes 21 Torsion [N]-C--CA-[N] |==|  0.50024
USER: genes 22 Torsion [C]-CA--CB-[CG] |==|  0.64304
USER: genes 23 Torsion [CA]-CB--CG-[CD] |==|  0.80941
USER: genes 24 Torsion [CB]-CG--CD-[OE1] |==|  0.89434
USER: genes 25 Torsion [C]-CA--CB-[OG] |==|  0.49094
USER: genes 26 Torsion [CA]-CB--OG-[HG] |==|  0.64918
ROOT
ATOM      1  C   SER C 503      80.743  27.185 -13.379  1.00 42.27 LIG 0.24  C 
ATOM      2 O    SER C 503      81.719  27.210 -12.632  1.00 46.84 LIG-0.27  OA
ATOM      3  N   ASP C 504      80.744  26.584 -14.561  1.00 51.15 LIG-0.34  N 
ATOM      4 H    ASP C 504      80.037  26.482 -15.040  1.00 51.15 LIG 0.16  HD
ENDROOT
BRANCH 3 5
ATOM      5  CA  ASP C 504      81.955  26.033 -15.168  1.00 56.79 LIG 0.19  C 
BRANCH 5 6
ATOM      6  C   ASP C 504      83.019  27.130 -15.319  1.00 67.42 LIG 0.24  C 
ATOM      7  N   SER C 505      84.188  26.746 -15.823  1.00 81.52 LIG-0.34  N 
ATOM      8 H    SER C 505      84.368  25.937 -16.050  1.00 81.52 LIG 0.16  HD
ATOM      9 O    ASP C 504      82.782  28.295 -14.990  1.00 66.01 LIG-0.27  OA
BRANCH 7 10
ATOM     10  CA  SER C 505      85.286  27.687 -16.038  1.00 90.64 LIG 0.20  C 
BRANCH 10 11
ATOM     11  CB  SER C 505      86.598  27.110 -15.519  1.00 89.01 LIG 0.20  C 
BRANCH 11 12
ATOM     12 OG   SER C 505      86.396  25.805 -15.012  1.00 87.22 LIG-0.40  OA
ATOM     13 HG   SER C 505      85.975  25.347 -15.577  1.00 87.22 LIG 0.21  HD
ENDBRANCH 11 12
ENDBRANCH 10 11
BRANCH 10 14
ATOM     14  C   SER C 505      85.406  28.032 -17.519  1.00 98.93 LIG 0.24  C 
ATOM     15  N   GLN C 506      84.981  27.107 -18.376  1.00110.12 LIG-0.35  N 
ATOM     16 H    GLN C 506      84.521  26.417 -18.149  1.00110.12 LIG 0.16  HD
ATOM     17 O    SER C 505      85.864  29.119 -17.878  1.00 94.47 LIG-0.27  OA
BRANCH 15 18
ATOM     18  CA  GLN C 506      85.271  27.197 -19.802  1.00115.19 LIG 0.16  C 
BRANCH 18 19
ATOM     19  C   GLN C 506      84.607  28.409 -20.452  1.00118.66 LIG 0.22  C 
ATOM     20 O    GLN C 506      85.133  28.982 -21.408  1.00117.46 LIG-0.29  OA
ENDBRANCH 18 19
BRANCH 18 21
ATOM     21  CB  GLN C 506      84.829  25.905 -20.497  1.00118.15 LIG 0.04  C 
BRANCH 21 22
ATOM     22  CG  GLN C 506      83.770  25.115 -19.712  1.00119.48 LIG 0.10  C 
BRANCH 22 23
ATOM     23  CD  GLN C 506      82.372  25.732 -19.771  1.00116.76 LIG 0.21  C 
ATOM     24  NE2 GLN C 506      81.405  24.967 -20.268  1.00111.94 LIG-0.37  N 
ATOM     25 21HE GLN C 506      81.584  24.170 -20.538  1.00111.94 LIG 0.16  HD
ATOM     26 22HE GLN C 506      80.602  25.268 -20.319  1.00111.94 LIG 0.16  HD
ATOM     27 OE1  GLN C 506      82.167  26.878 -19.370  1.00116.06 LIG-0.27  OA
ENDBRANCH 22 23
ENDBRANCH 21 22
ENDBRANCH 18 21
ENDBRANCH 15 18
ENDBRANCH 10 14
ENDBRANCH 7 10
ENDBRANCH 5 6
BRANCH 5 28
ATOM     28  CB  ASP C 504      81.616  25.408 -16.533  1.00 57.84 LIG 0.15  C 
BRANCH 28 29
ATOM     29  CG  ASP C 504      82.427  24.155 -16.841  1.00 60.92 LIG 0.17  C 
ATOM     30 OD2  ASP C 504      83.578  24.059 -16.352  1.00 60.43 LIG-0.65  OA
ATOM     31 OD1  ASP C 504      81.923  23.268 -17.564  1.00 59.69 LIG-0.65  OA
ENDBRANCH 28 29
ENDBRANCH 5 28
ENDBRANCH 3 5
BRANCH 1 32
ATOM     32  CA  SER C 503      79.439  27.843 -12.970  1.00 44.19 LIG 0.20  C 
BRANCH 32 33
ATOM     33  N   SER C 503      78.340  27.395 -13.828  1.00 47.77 LIG-0.34  N 
ATOM     34 H    SER C 503      78.029  27.999 -14.356  1.00 47.77 LIG 0.16  HD
ATOM     35  C   SER C 502      77.881  26.146 -13.770  1.00 50.79 LIG 0.24  C 
ATOM     36 O    SER C 502      78.500  25.231 -13.244  1.00 48.58 LIG-0.27  OA
BRANCH 35 37
ATOM     37  CA  SER C 502      76.518  25.892 -14.386  1.00 60.54 LIG 0.20  C 
BRANCH 37 38
ATOM     38  CB  SER C 502      75.467  25.698 -13.307  1.00 53.64 LIG 0.20  C 
BRANCH 38 39
ATOM     39 OG   SER C 502      74.193  25.463 -13.862  1.00 59.09 LIG-0.40  OA
ATOM     40 HG   SER C 502      74.136  24.660 -14.100  1.00 59.09 LIG 0.21  HD
ENDBRANCH 38 39
ENDBRANCH 37 38
BRANCH 37 41
ATOM     41  N   SER C 502      76.625  24.738 -15.271  1.00 72.56 LIG-0.34  N 
ATOM     42 H    SER C 502      76.062  24.107 -15.118  1.00 72.56 LIG 0.16  HD
ATOM     43  C   GLU C 501      77.544  24.716 -16.232  1.00101.90 LIG 0.26  C 
ATOM     44 O    GLU C 501      78.077  25.742 -16.656  1.00103.22 LIG-0.27  OA
BRANCH 43 45
ATOM     45  CA  GLU C 501      77.908  23.348 -16.823  1.00101.55 LIG 0.40  C 
ATOM     46  N   GLU C 501      78.927  23.498 -17.857  1.00100.94 LIG 0.61  N 
BRANCH 45 47
ATOM     47  CB  GLU C 501      78.403  22.400 -15.727  1.00104.94 LIG 0.06  C 
BRANCH 47 48
ATOM     48  CG  GLU C 501      79.734  21.736 -16.034  1.00111.45 LIG 0.12  C 
BRANCH 48 49
ATOM     49  CD  GLU C 501      79.637  20.739 -17.171  1.00115.68 LIG 0.17  C 
ATOM     50 OE1  GLU C 501      78.613  20.027 -17.258  1.00117.56 LIG-0.65  OA
ATOM     51 OE2  GLU C 501      80.588  20.670 -17.977  1.00122.11 LIG-0.65  OA
ENDBRANCH 48 49
ENDBRANCH 47 48
ENDBRANCH 45 47
ENDBRANCH 43 45
ENDBRANCH 37 41
ENDBRANCH 35 37
ENDBRANCH 32 33
BRANCH 32 52
ATOM     52  CB  SER C 503      79.153  27.531 -11.507  1.00 49.05 LIG 0.20  C 
BRANCH 52 53
ATOM     53 OG   SER C 503      77.978  28.197 -11.080  1.00 54.59 LIG-0.40  OA
ATOM     54 HG   SER C 503      78.146  28.649 -10.391  1.00 54.59 LIG 0.21  HD
ENDBRANCH 52 53
ENDBRANCH 32 52
ENDBRANCH 1 32
TORSDOF 25
ENDMDL
MODEL 79
USER: ADFR SOLUTION from run 87
USER: SCORE 15.857160 LL:  -4.960 LR: -12.726 RR:   0.000 FEB:  -5.269
USER: RMSD 4.112858
USER: SEED 86
USER: STATUS no improvement in best in 20 clusters for 5 generations
USER: GENES 27
USER: genes 0 Translation |==|  0.48686 0.42092 0.48045
USER: genes 1 Rotation |==|  0.89803 0.30068 0.27425 0.52971
USER: genes 2 Torsion [C]-N--CA-[CB] |==|  0.19275
USER: genes 3 Torsion [N]-CA--C-[N] |==|  0.56177
USER: genes 4 Torsion [C]-N--CA-[C] |==|  0.66226
USER: genes 5 Torsion [N]-CA--CB-[OG] |==|  0.96234
USER: genes 6 Torsion [CA]-CB--OG-[HG] |==|  0.22627
USER: genes 7 Torsion [N]-CA--C-[N] |==|  0.82975
USER: genes 8 Torsion [C]-N--CA-[CB] |==|  0.79316
USER: genes 9 Torsion [N]-CA--C-[O] |==|  0.13285
USER: genes 10 Torsion [N]-CA--CB-[CG] |==|  0.84315
USER: genes 11 Torsion [CA]-CB--CG-[CD] |==|  0.27164
USER: genes 12 Torsion [CB]-CG--CD-[NE2] |==|  0.50998
USER: genes 13 Torsion [N]-CA--CB-[CG] |==|  0.60694
USER: genes 14 Torsion [CA]-CB--CG-[OD1] |==|  0.17353
USER: genes 15 Torsion [N]-C--CA-[N] |==|  0.91591
USER: genes 16 Torsion [C]-CA--N-[C] |==|  0.67709
USER: genes 17 Torsion [N]-C--CA-[N] |==|  0.06825
USER: genes 18 Torsion [C]-CA--CB-[OG] |==|  0.76711
USER: genes 19 Torsion [CA]-CB--OG-[HG] |==|  0.74791
USER: genes 20 Torsion [C]-CA--N-[C] |==|  0.70122
USER: genes 21 Torsion [N]-C--CA-[N] |==|  0.52524
USER: genes 22 Torsion [C]-CA--CB-[CG] |==|  0.39715
USER: genes 23 Torsion [CA]-CB--CG-[CD] |==|  0.03061
USER: genes 24 Torsion [CB]-CG--CD-[OE1] |==|  0.18893
USER: genes 25 Torsion [C]-CA--CB-[OG] |==|  0.38436
USER: genes 26 Torsion [CA]-CB--OG-[HG] |==|  0.90647
ROOT
ATOM      1  C   SER C 503      79.044  24.697 -14.911  1.00 42.27 LIG 0.24  C 
ATOM      2 O    SER C 503      79.045  23.594 -15.452  1.00 46.84 LIG-0.27  OA
ATOM      3  N   ASP C 504      80.079  25.526 -14.941  1.00 51.15 LIG-0.34  N 
ATOM      4 H    ASP C 504      80.047  26.334 -14.647  1.00 51.15 LIG 0.16  HD
ENDROOT
BRANCH 3 5
ATOM      5  CA  ASP C 504      81.383  25.144 -15.481  1.00 56.79 LIG 0.19  C 
BRANCH 5 6
ATOM      6  C   ASP C 504      82.439  26.198 -15.114  1.00 67.42 LIG 0.24  C 
ATOM      7  N   SER C 505      83.520  26.237 -15.887  1.00 81.52 LIG-0.34  N 
ATOM      8 H    SER C 505      83.651  25.709 -16.552  1.00 81.52 LIG 0.16  HD
ATOM      9 O    ASP C 504      82.272  26.958 -14.158  1.00 66.01 LIG-0.27  OA
BRANCH 7 10
ATOM     10  CA  SER C 505      84.597  27.200 -15.665  1.00 90.64 LIG 0.20  C 
BRANCH 10 11
ATOM     11  CB  SER C 505      85.891  26.484 -15.294  1.00 89.01 LIG 0.20  C 
BRANCH 11 12
ATOM     12 OG   SER C 505      85.629  25.134 -14.964  1.00 87.22 LIG-0.40  OA
ATOM     13 HG   SER C 505      85.566  24.681 -15.668  1.00 87.22 LIG 0.21  HD
ENDBRANCH 11 12
ENDBRANCH 10 11
BRANCH 10 14
ATOM     14  C   SER C 505      84.804  28.060 -16.909  1.00 98.93 LIG 0.24  C 
ATOM     15  N   GLN C 506      85.157  27.416 -18.017  1.00110.12 LIG-0.35  N 
ATOM     16 H    GLN C 506      85.128  26.561 -18.107  1.00110.12 LIG 0.16  HD
ATOM     17 O    SER C 505      84.634  29.280 -16.866  1.00 94.47 LIG-0.27  OA
BRANCH 15 18
ATOM     18  CA  GLN C 506      85.632  28.130 -19.196  1.00115.19 LIG 0.16  C 
BRANCH 18 19
ATOM     19  C   GLN C 506      86.713  29.154 -18.855  1.00118.66 LIG 0.22  C 
ATOM     20 O    GLN C 506      87.668  28.851 -18.137  1.00117.46 LIG-0.29  OA
ENDBRANCH 18 19
BRANCH 18 21
ATOM     21  CB  GLN C 506      84.450  28.811 -19.895  1.00118.15 LIG 0.04  C 
BRANCH 21 22
ATOM     22  CG  GLN C 506      83.324  27.841 -20.284  1.00119.48 LIG 0.10  C 
BRANCH 22 23
ATOM     23  CD  GLN C 506      82.167  27.804 -19.285  1.00116.76 LIG 0.21  C 
ATOM     24  NE2 GLN C 506      81.197  26.929 -19.530  1.00111.94 LIG-0.37  N 
ATOM     25 21HE GLN C 506      81.241  26.422 -20.224  1.00111.94 LIG 0.16  HD
ATOM     26 22HE GLN C 506      80.527  26.869 -18.995  1.00111.94 LIG 0.16  HD
ATOM     27 OE1  GLN C 506      82.152  28.550 -18.306  1.00116.06 LIG-0.27  OA
ENDBRANCH 22 23
ENDBRANCH 21 22
ENDBRANCH 18 21
ENDBRANCH 15 18
ENDBRANCH 10 14
ENDBRANCH 7 10
ENDBRANCH 5 6
BRANCH 5 28
ATOM     28  CB  ASP C 504      81.287  24.974 -17.007  1.00 57.84 LIG 0.15  C 
BRANCH 28 29
ATOM     29  CG  ASP C 504      82.110  23.806 -17.538  1.00 60.92 LIG 0.17  C 
ATOM     30 OD2  ASP C 504      83.048  24.055 -18.332  1.00 60.43 LIG-0.65  OA
ATOM     31 OD1  ASP C 504      81.828  22.646 -17.165  1.00 59.69 LIG-0.65  OA
ENDBRANCH 28 29
ENDBRANCH 5 28
ENDBRANCH 3 5
BRANCH 1 32
ATOM     32  CA  SER C 503      77.817  25.195 -14.170  1.00 44.19 LIG 0.20  C 
BRANCH 32 33
ATOM     33  N   SER C 503      78.198  26.098 -13.081  1.00 47.77 LIG-0.34  N 
ATOM     34 H    SER C 503      78.582  26.824 -13.337  1.00 47.77 LIG 0.16  HD
ATOM     35  C   SER C 502      77.956  25.788 -11.808  1.00 50.79 LIG 0.24  C 
ATOM     36 O    SER C 502      77.167  24.917 -11.471  1.00 48.58 LIG-0.27  OA
BRANCH 35 37
ATOM     37  CA  SER C 502      78.725  26.571 -10.760  1.00 60.54 LIG 0.20  C 
BRANCH 37 38
ATOM     38  CB  SER C 502      77.898  26.733  -9.495  1.00 53.64 LIG 0.20  C 
BRANCH 38 39
ATOM     39 OG   SER C 502      77.017  27.827  -9.592  1.00 59.09 LIG-0.40  OA
ATOM     40 HG   SER C 502      77.394  28.518  -9.299  1.00 59.09 LIG 0.21  HD
ENDBRANCH 38 39
ENDBRANCH 37 38
BRANCH 37 41
ATOM     41  N   SER C 502      79.111  27.852 -11.339  1.00 72.56 LIG-0.34  N 
ATOM     42 H    SER C 502      78.469  28.414 -11.444  1.00 72.56 LIG 0.16  HD
ATOM     43  C   GLU C 501      80.380  28.084 -11.663  1.00101.90 LIG 0.26  C 
ATOM     44 O    GLU C 501      81.310  27.434 -11.184  1.00103.22 LIG-0.27  OA
BRANCH 43 45
ATOM     45  CA  GLU C 501      80.656  29.225 -12.650  1.00101.55 LIG 0.40  C 
ATOM     46  N   GLU C 501      82.056  29.210 -13.063  1.00100.94 LIG 0.61  N 
BRANCH 45 47
ATOM     47  CB  GLU C 501      79.742  29.113 -13.874  1.00104.94 LIG 0.06  C 
BRANCH 47 48
ATOM     48  CG  GLU C 501      79.260  30.448 -14.414  1.00111.45 LIG 0.12  C 
BRANCH 48 49
ATOM     49  CD  GLU C 501      79.993  31.622 -13.797  1.00115.68 LIG 0.17  C 
ATOM     50 OE1  GLU C 501      81.204  31.781 -14.065  1.00117.56 LIG-0.65  OA
ATOM     51 OE2  GLU C 501      79.352  32.386 -13.044  1.00122.11 LIG-0.65  OA
ENDBRANCH 48 49
ENDBRANCH 47 48
ENDBRANCH 45 47
ENDBRANCH 43 45
ENDBRANCH 37 41
ENDBRANCH 35 37
ENDBRANCH 32 33
BRANCH 32 52
ATOM     52  CB  SER C 503      76.881  25.886 -15.151  1.00 49.05 LIG 0.20  C 
BRANCH 52 53
ATOM     53 OG   SER C 503      75.536  25.530 -14.887  1.00 54.59 LIG-0.40  OA
ATOM     54 HG   SER C 503      75.505  24.737 -14.610  1.00 54.59 LIG 0.21  HD
ENDBRANCH 52 53
ENDBRANCH 32 52
ENDBRANCH 1 32
TORSDOF 25
ENDMDL
MODEL 80
USER: ADFR SOLUTION from run 175
USER: SCORE 15.593323 LL:  -3.908 LR: -12.723 RR:   0.000 FEB:  -5.266
USER: RMSD 8.901670
USER: SEED 174
USER: STATUS no improvement in best in 4 clusters for 5 generations
USER: GENES 27
USER: genes 0 Translation |==|  0.69017 0.48216 0.46031
USER: genes 1 Rotation |==|  0.27161 0.48205 0.05708 0.53661
USER: genes 2 Torsion [C]-N--CA-[CB] |==|  0.84256
USER: genes 3 Torsion [N]-CA--C-[N] |==|  0.41573
USER: genes 4 Torsion [C]-N--CA-[C] |==|  0.80672
USER: genes 5 Torsion [N]-CA--CB-[OG] |==|  0.82508
USER: genes 6 Torsion [CA]-CB--OG-[HG] |==|  0.33080
USER: genes 7 Torsion [N]-CA--C-[N] |==|  0.89481
USER: genes 8 Torsion [C]-N--CA-[CB] |==|  0.46498
USER: genes 9 Torsion [N]-CA--C-[O] |==|  0.64436
USER: genes 10 Torsion [N]-CA--CB-[CG] |==|  0.75464
USER: genes 11 Torsion [CA]-CB--CG-[CD] |==|  0.58758
USER: genes 12 Torsion [CB]-CG--CD-[NE2] |==|  0.45564
USER: genes 13 Torsion [N]-CA--CB-[CG] |==|  0.82819
USER: genes 14 Torsion [CA]-CB--CG-[OD1] |==|  0.90741
USER: genes 15 Torsion [N]-C--CA-[N] |==|  0.86175
USER: genes 16 Torsion [C]-CA--N-[C] |==|  0.81111
USER: genes 17 Torsion [N]-C--CA-[N] |==|  0.65663
USER: genes 18 Torsion [C]-CA--CB-[OG] |==|  0.17758
USER: genes 19 Torsion [CA]-CB--OG-[HG] |==|  0.82379
USER: genes 20 Torsion [C]-CA--N-[C] |==|  0.68321
USER: genes 21 Torsion [N]-C--CA-[N] |==|  0.38860
USER: genes 22 Torsion [C]-CA--CB-[CG] |==|  0.80416
USER: genes 23 Torsion [CA]-CB--CG-[CD] |==|  0.26810
USER: genes 24 Torsion [CB]-CG--CD-[OE1] |==|  0.14558
USER: genes 25 Torsion [C]-CA--CB-[OG] |==|  0.39277
USER: genes 26 Torsion [CA]-CB--OG-[HG] |==|  0.06668
ROOT
ATOM      1  C   SER C 503      82.551  25.983 -15.288  1.00 42.27 LIG 0.24  C 
ATOM      2 O    SER C 503      82.009  25.386 -14.361  1.00 46.84 LIG-0.27  OA
ATOM      3  N   ASP C 504      82.066  27.096 -15.823  1.00 51.15 LIG-0.34  N 
ATOM      4 H    ASP C 504      82.492  27.567 -16.403  1.00 51.15 LIG 0.16  HD
ENDROOT
BRANCH 3 5
ATOM      5  CA  ASP C 504      80.752  27.634 -15.475  1.00 56.79 LIG 0.19  C 
BRANCH 5 6
ATOM      6  C   ASP C 504      80.732  28.080 -14.006  1.00 67.42 LIG 0.24  C 
ATOM      7  N   SER C 505      79.924  29.094 -13.713  1.00 81.52 LIG-0.34  N 
ATOM      8 H    SER C 505      79.438  29.501 -14.293  1.00 81.52 LIG 0.16  HD
ATOM      9 O    ASP C 504      81.429  27.514 -13.161  1.00 66.01 LIG-0.27  OA
BRANCH 7 10
ATOM     10  CA  SER C 505      79.791  29.611 -12.353  1.00 90.64 LIG 0.20  C 
BRANCH 10 11
ATOM     11  CB  SER C 505      79.042  30.939 -12.352  1.00 89.01 LIG 0.20  C 
BRANCH 11 12
ATOM     12 OG   SER C 505      79.771  31.915 -13.072  1.00 87.22 LIG-0.40  OA
ATOM     13 HG   SER C 505      79.313  32.183 -13.723  1.00 87.22 LIG 0.21  HD
ENDBRANCH 11 12
ENDBRANCH 10 11
BRANCH 10 14
ATOM     14  C   SER C 505      79.073  28.597 -11.467  1.00 98.93 LIG 0.24  C 
ATOM     15  N   GLN C 506      78.080  27.919 -12.034  1.00110.12 LIG-0.35  N 
ATOM     16 H    GLN C 506      77.924  27.911 -12.880  1.00110.12 LIG 0.16  HD
ATOM     17 O    SER C 505      79.422  28.424 -10.298  1.00 94.47 LIG-0.27  OA
BRANCH 15 18
ATOM     18  CA  GLN C 506      77.154  27.117 -11.244  1.00115.19 LIG 0.16  C 
BRANCH 18 19
ATOM     19  C   GLN C 506      77.823  25.877 -10.653  1.00118.66 LIG 0.22  C 
ATOM     20 O    GLN C 506      77.332  24.757 -10.810  1.00117.46 LIG-0.29  OA
ENDBRANCH 18 19
BRANCH 18 21
ATOM     21  CB  GLN C 506      75.953  26.719 -12.108  1.00118.15 LIG 0.04  C 
BRANCH 21 22
ATOM     22  CG  GLN C 506      74.813  27.748 -12.091  1.00119.48 LIG 0.10  C 
BRANCH 22 23
ATOM     23  CD  GLN C 506      73.423  27.132 -12.251  1.00116.76 LIG 0.21  C 
ATOM     24  NE2 GLN C 506      72.391  27.902 -11.921  1.00111.94 LIG-0.37  N 
ATOM     25 21HE GLN C 506      72.525  28.701 -11.633  1.00111.94 LIG 0.16  HD
ATOM     26 22HE GLN C 506      71.589  27.601 -11.997  1.00111.94 LIG 0.16  HD
ATOM     27 OE1  GLN C 506      73.283  25.983 -12.669  1.00116.06 LIG-0.27  OA
ENDBRANCH 22 23
ENDBRANCH 21 22
ENDBRANCH 18 21
ENDBRANCH 15 18
ENDBRANCH 10 14
ENDBRANCH 7 10
ENDBRANCH 5 6
BRANCH 5 28
ATOM     28  CB  ASP C 504      79.669  26.573 -15.740  1.00 57.84 LIG 0.15  C 
BRANCH 28 29
ATOM     29  CG  ASP C 504      79.575  26.158 -17.204  1.00 60.92 LIG 0.17  C 
ATOM     30 OD2  ASP C 504      79.259  24.972 -17.464  1.00 60.43 LIG-0.65  OA
ATOM     31 OD1  ASP C 504      79.812  27.005 -18.092  1.00 59.69 LIG-0.65  OA
ENDBRANCH 28 29
ENDBRANCH 5 28
ENDBRANCH 3 5
BRANCH 1 32
ATOM     32  CA  SER C 503      83.854  25.476 -15.879  1.00 44.19 LIG 0.20  C 
BRANCH 32 33
ATOM     33  N   SER C 503      83.774  25.417 -17.340  1.00 47.77 LIG-0.34  N 
ATOM     34 H    SER C 503      84.275  25.983 -17.749  1.00 47.77 LIG 0.16  HD
ATOM     35  C   SER C 502      82.977  24.543 -17.953  1.00 50.79 LIG 0.24  C 
ATOM     36 O    SER C 502      82.500  23.566 -17.394  1.00 48.58 LIG-0.27  OA
BRANCH 35 37
ATOM     37  CA  SER C 502      82.663  24.818 -19.413  1.00 60.54 LIG 0.20  C 
BRANCH 37 38
ATOM     38  CB  SER C 502      83.356  26.085 -19.883  1.00 53.64 LIG 0.20  C 
BRANCH 38 39
ATOM     39 OG   SER C 502      84.758  25.954 -19.839  1.00 59.09 LIG-0.40  OA
ATOM     40 HG   SER C 502      85.004  25.842 -19.044  1.00 59.09 LIG 0.21  HD
ENDBRANCH 38 39
ENDBRANCH 37 38
BRANCH 37 41
ATOM     41  N   SER C 502      81.214  24.888 -19.563  1.00 72.56 LIG-0.34  N 
ATOM     42 H    SER C 502      80.838  25.549 -19.163  1.00 72.56 LIG 0.16  HD
ATOM     43  C   GLU C 501      80.571  23.969 -20.278  1.00101.90 LIG 0.26  C 
ATOM     44 O    GLU C 501      81.142  23.268 -21.114  1.00103.22 LIG-0.27  OA
BRANCH 43 45
ATOM     45  CA  GLU C 501      79.062  23.826 -20.041  1.00101.55 LIG 0.40  C 
ATOM     46  N   GLU C 501      78.369  23.613 -21.309  1.00100.94 LIG 0.61  N 
BRANCH 45 47
ATOM     47  CB  GLU C 501      78.774  22.668 -19.081  1.00104.94 LIG 0.06  C 
BRANCH 47 48
ATOM     48  CG  GLU C 501      79.030  21.293 -19.671  1.00111.45 LIG 0.12  C 
BRANCH 48 49
ATOM     49  CD  GLU C 501      80.396  20.749 -19.306  1.00115.68 LIG 0.17  C 
ATOM     50 OE1  GLU C 501      80.728  20.723 -18.101  1.00117.56 LIG-0.65  OA
ATOM     51 OE2  GLU C 501      81.137  20.348 -20.229  1.00122.11 LIG-0.65  OA
ENDBRANCH 48 49
ENDBRANCH 47 48
ENDBRANCH 45 47
ENDBRANCH 43 45
ENDBRANCH 37 41
ENDBRANCH 35 37
ENDBRANCH 32 33
BRANCH 32 52
ATOM     52  CB  SER C 503      84.996  26.379 -15.430  1.00 49.05 LIG 0.20  C 
BRANCH 52 53
ATOM     53 OG   SER C 503      86.154  25.611 -15.153  1.00 54.59 LIG-0.40  OA
ATOM     54 HG   SER C 503      86.119  24.887 -15.579  1.00 54.59 LIG 0.21  HD
ENDBRANCH 52 53
ENDBRANCH 32 52
ENDBRANCH 1 32
TORSDOF 25
ENDMDL
MODEL 81
USER: ADFR SOLUTION from run 82
USER: SCORE 15.358168 LL:  -4.695 LR: -12.723 RR:   0.000 FEB:  -5.266
USER: RMSD 5.586092
USER: SEED 81
USER: STATUS no improvement in best in 6 clusters for 5 generations
USER: GENES 27
USER: genes 0 Translation |==|  0.45562 0.47422 0.58361
USER: genes 1 Rotation |==|  0.51061 0.21157 0.10846 0.61574
USER: genes 2 Torsion [C]-N--CA-[CB] |==|  0.39351
USER: genes 3 Torsion [N]-CA--C-[N] |==|  0.84642
USER: genes 4 Torsion [C]-N--CA-[C] |==|  0.61687
USER: genes 5 Torsion [N]-CA--CB-[OG] |==|  0.51308
USER: genes 6 Torsion [CA]-CB--OG-[HG] |==|  0.38754
USER: genes 7 Torsion [N]-CA--C-[N] |==|  0.99085
USER: genes 8 Torsion [C]-N--CA-[CB] |==|  0.40231
USER: genes 9 Torsion [N]-CA--C-[O] |==|  0.37626
USER: genes 10 Torsion [N]-CA--CB-[CG] |==|  0.84657
USER: genes 11 Torsion [CA]-CB--CG-[CD] |==|  0.89528
USER: genes 12 Torsion [CB]-CG--CD-[NE2] |==|  0.75911
USER: genes 13 Torsion [N]-CA--CB-[CG] |==|  0.15872
USER: genes 14 Torsion [CA]-CB--CG-[OD1] |==|  0.38611
USER: genes 15 Torsion [N]-C--CA-[N] |==|  0.28250
USER: genes 16 Torsion [C]-CA--N-[C] |==|  0.75268
USER: genes 17 Torsion [N]-C--CA-[N] |==|  0.90102
USER: genes 18 Torsion [C]-CA--CB-[OG] |==|  0.60097
USER: genes 19 Torsion [CA]-CB--OG-[HG] |==|  0.23812
USER: genes 20 Torsion [C]-CA--N-[C] |==|  0.79359
USER: genes 21 Torsion [N]-C--CA-[N] |==|  0.33869
USER: genes 22 Torsion [C]-CA--CB-[CG] |==|  0.78494
USER: genes 23 Torsion [CA]-CB--CG-[CD] |==|  0.76558
USER: genes 24 Torsion [CB]-CG--CD-[OE1] |==|  0.02838
USER: genes 25 Torsion [C]-CA--CB-[OG] |==|  0.46595
USER: genes 26 Torsion [CA]-CB--OG-[HG] |==|  0.73790
ROOT
ATOM      1  C   SER C 503      78.505  25.817 -12.976  1.00 42.27 LIG 0.24  C 
ATOM      2 O    SER C 503      77.665  25.290 -12.251  1.00 46.84 LIG-0.27  OA
ATOM      3  N   ASP C 504      78.512  25.691 -14.297  1.00 51.15 LIG-0.34  N 
ATOM      4 H    ASP C 504      79.039  26.135 -14.811  1.00 51.15 LIG 0.16  HD
ENDROOT
BRANCH 3 5
ATOM      5  CA  ASP C 504      77.619  24.778 -15.009  1.00 56.79 LIG 0.19  C 
BRANCH 5 6
ATOM      6  C   ASP C 504      78.334  23.449 -15.293  1.00 67.42 LIG 0.24  C 
ATOM      7  N   SER C 505      79.487  23.533 -15.952  1.00 81.52 LIG-0.34  N 
ATOM      8 H    SER C 505      79.829  24.273 -16.224  1.00 81.52 LIG 0.16  HD
ATOM      9 O    ASP C 504      77.855  22.377 -14.919  1.00 66.01 LIG-0.27  OA
BRANCH 7 10
ATOM     10  CA  SER C 505      80.283  22.351 -16.275  1.00 90.64 LIG 0.20  C 
BRANCH 10 11
ATOM     11  CB  SER C 505      80.051  21.925 -17.720  1.00 89.01 LIG 0.20  C 
BRANCH 11 12
ATOM     12 OG   SER C 505      80.740  20.720 -17.994  1.00 87.22 LIG-0.40  OA
ATOM     13 HG   SER C 505      80.257  20.223 -18.468  1.00 87.22 LIG 0.21  HD
ENDBRANCH 11 12
ENDBRANCH 10 11
BRANCH 10 14
ATOM     14  C   SER C 505      81.764  22.627 -16.034  1.00 98.93 LIG 0.24  C 
ATOM     15  N   GLN C 506      82.079  23.863 -15.656  1.00110.12 LIG-0.35  N 
ATOM     16 H    GLN C 506      81.503  24.450 -15.402  1.00110.12 LIG 0.16  HD
ATOM     17 O    SER C 505      82.602  21.735 -16.176  1.00 94.47 LIG-0.27  OA
BRANCH 15 18
ATOM     18  CA  GLN C 506      83.460  24.328 -15.642  1.00115.19 LIG 0.16  C 
BRANCH 18 19
ATOM     19  C   GLN C 506      84.129  24.114 -14.284  1.00118.66 LIG 0.22  C 
ATOM     20 O    GLN C 506      85.271  23.657 -14.206  1.00117.46 LIG-0.29  OA
ENDBRANCH 18 19
BRANCH 18 21
ATOM     21  CB  GLN C 506      83.507  25.808 -16.035  1.00118.15 LIG 0.04  C 
BRANCH 21 22
ATOM     22  CG  GLN C 506      82.839  26.107 -17.386  1.00119.48 LIG 0.10  C 
BRANCH 22 23
ATOM     23  CD  GLN C 506      83.070  25.026 -18.442  1.00116.76 LIG 0.21  C 
ATOM     24  NE2 GLN C 506      84.177  25.131 -19.168  1.00111.94 LIG-0.37  N 
ATOM     25 21HE GLN C 506      84.719  25.785 -19.034  1.00111.94 LIG 0.16  HD
ATOM     26 22HE GLN C 506      84.352  24.545 -19.773  1.00111.94 LIG 0.16  HD
ATOM     27 OE1  GLN C 506      82.264  24.108 -18.595  1.00116.06 LIG-0.27  OA
ENDBRANCH 22 23
ENDBRANCH 21 22
ENDBRANCH 18 21
ENDBRANCH 15 18
ENDBRANCH 10 14
ENDBRANCH 7 10
ENDBRANCH 5 6
BRANCH 5 28
ATOM     28  CB  ASP C 504      77.140  25.433 -16.317  1.00 57.84 LIG 0.15  C 
BRANCH 28 29
ATOM     29  CG  ASP C 504      78.282  25.851 -17.237  1.00 60.92 LIG 0.17  C 
ATOM     30 OD2  ASP C 504      79.298  26.374 -16.719  1.00 60.43 LIG-0.65  OA
ATOM     31 OD1  ASP C 504      78.172  25.659 -18.467  1.00 59.69 LIG-0.65  OA
ENDBRANCH 28 29
ENDBRANCH 5 28
ENDBRANCH 3 5
BRANCH 1 32
ATOM     32  CA  SER C 503      79.605  26.681 -12.386  1.00 44.19 LIG 0.20  C 
BRANCH 32 33
ATOM     33  N   SER C 503      79.091  28.007 -12.036  1.00 47.77 LIG-0.34  N 
ATOM     34 H    SER C 503      78.797  28.076 -11.231  1.00 47.77 LIG 0.16  HD
ATOM     35  C   SER C 502      79.093  29.005 -12.919  1.00 50.79 LIG 0.24  C 
ATOM     36 O    SER C 502      79.764  28.991 -13.941  1.00 48.58 LIG-0.27  OA
BRANCH 35 37
ATOM     37  CA  SER C 502      78.199  30.191 -12.607  1.00 60.54 LIG 0.20  C 
BRANCH 37 38
ATOM     38  CB  SER C 502      78.933  31.209 -11.752  1.00 53.64 LIG 0.20  C 
BRANCH 38 39
ATOM     39 OG   SER C 502      78.072  31.810 -10.812  1.00 59.09 LIG-0.40  OA
ATOM     40 HG   SER C 502      78.031  31.332 -10.123  1.00 59.09 LIG 0.21  HD
ENDBRANCH 38 39
ENDBRANCH 37 38
BRANCH 37 41
ATOM     41  N   SER C 502      76.989  29.693 -11.964  1.00 72.56 LIG-0.34  N 
ATOM     42 H    SER C 502      76.940  29.837 -11.117  1.00 72.56 LIG 0.16  HD
ATOM     43  C   GLU C 501      76.059  29.070 -12.680  1.00101.90 LIG 0.26  C 
ATOM     44 O    GLU C 501      75.978  29.193 -13.903  1.00103.22 LIG-0.27  OA
BRANCH 43 45
ATOM     45  CA  GLU C 501      75.055  28.195 -11.919  1.00101.55 LIG 0.40  C 
ATOM     46  N   GLU C 501      73.691  28.651 -12.171  1.00100.94 LIG 0.61  N 
BRANCH 45 47
ATOM     47  CB  GLU C 501      75.203  26.725 -12.324  1.00104.94 LIG 0.06  C 
BRANCH 47 48
ATOM     48  CG  GLU C 501      74.579  26.384 -13.665  1.00111.45 LIG 0.12  C 
BRANCH 48 49
ATOM     49  CD  GLU C 501      73.097  26.088 -13.558  1.00115.68 LIG 0.17  C 
ATOM     50 OE1  GLU C 501      72.513  26.333 -12.480  1.00117.56 LIG-0.65  OA
ATOM     51 OE2  GLU C 501      72.519  25.608 -14.556  1.00122.11 LIG-0.65  OA
ENDBRANCH 48 49
ENDBRANCH 47 48
ENDBRANCH 45 47
ENDBRANCH 43 45
ENDBRANCH 37 41
ENDBRANCH 35 37
ENDBRANCH 32 33
BRANCH 32 52
ATOM     52  CB  SER C 503      80.195  25.984 -11.168  1.00 49.05 LIG 0.20  C 
BRANCH 52 53
ATOM     53 OG   SER C 503      81.395  26.621 -10.767  1.00 54.59 LIG-0.40  OA
ATOM     54 HG   SER C 503      82.051  26.228 -11.117  1.00 54.59 LIG 0.21  HD
ENDBRANCH 52 53
ENDBRANCH 32 52
ENDBRANCH 1 32
TORSDOF 25
ENDMDL
MODEL 82
USER: ADFR SOLUTION from run 200
USER: SCORE 16.251353 LL:  -5.552 LR: -12.698 RR:   0.000 FEB:  -5.240
USER: RMSD 6.101943
USER: SEED 199
USER: STATUS searching
USER: GENES 27
USER: genes 0 Translation |==|  0.63821 0.48871 0.51449
USER: genes 1 Rotation |==|  0.64932 0.21794 0.48643 0.88465
USER: genes 2 Torsion [C]-N--CA-[CB] |==|  0.37536
USER: genes 3 Torsion [N]-CA--C-[N] |==|  0.93039
USER: genes 4 Torsion [C]-N--CA-[C] |==|  0.78647
USER: genes 5 Torsion [N]-CA--CB-[OG] |==|  0.86123
USER: genes 6 Torsion [CA]-CB--OG-[HG] |==|  0.00202
USER: genes 7 Torsion [N]-CA--C-[N] |==|  0.95612
USER: genes 8 Torsion [C]-N--CA-[CB] |==|  0.42103
USER: genes 9 Torsion [N]-CA--C-[O] |==|  0.02264
USER: genes 10 Torsion [N]-CA--CB-[CG] |==|  0.74035
USER: genes 11 Torsion [CA]-CB--CG-[CD] |==|  0.12508
USER: genes 12 Torsion [CB]-CG--CD-[NE2] |==|  0.25926
USER: genes 13 Torsion [N]-CA--CB-[CG] |==|  0.07815
USER: genes 14 Torsion [CA]-CB--CG-[OD1] |==|  0.67775
USER: genes 15 Torsion [N]-C--CA-[N] |==|  0.31182
USER: genes 16 Torsion [C]-CA--N-[C] |==|  0.59778
USER: genes 17 Torsion [N]-C--CA-[N] |==|  0.23886
USER: genes 18 Torsion [C]-CA--CB-[OG] |==|  0.66998
USER: genes 19 Torsion [CA]-CB--OG-[HG] |==|  0.86539
USER: genes 20 Torsion [C]-CA--N-[C] |==|  0.78684
USER: genes 21 Torsion [N]-C--CA-[N] |==|  0.63432
USER: genes 22 Torsion [C]-CA--CB-[CG] |==|  0.34419
USER: genes 23 Torsion [CA]-CB--CG-[CD] |==|  0.75556
USER: genes 24 Torsion [CB]-CG--CD-[OE1] |==|  0.51897
USER: genes 25 Torsion [C]-CA--CB-[OG] |==|  0.40157
USER: genes 26 Torsion [CA]-CB--OG-[HG] |==|  0.08220
ROOT
ATOM      1  C   SER C 503      81.655  26.121 -14.272  1.00 42.27 LIG 0.24  C 
ATOM      2 O    SER C 503      81.893  26.094 -13.067  1.00 46.84 LIG-0.27  OA
ATOM      3  N   ASP C 504      82.396  25.496 -15.178  1.00 51.15 LIG-0.34  N 
ATOM      4 H    ASP C 504      82.177  25.433 -16.007  1.00 51.15 LIG 0.16  HD
ENDROOT
BRANCH 3 5
ATOM      5  CA  ASP C 504      83.666  24.849 -14.851  1.00 56.79 LIG 0.19  C 
BRANCH 5 6
ATOM      6  C   ASP C 504      84.842  25.729 -15.300  1.00 67.42 LIG 0.24  C 
ATOM      7  N   SER C 505      84.593  26.574 -16.297  1.00 81.52 LIG-0.34  N 
ATOM      8 H    SER C 505      83.832  26.637 -16.691  1.00 81.52 LIG 0.16  HD
ATOM      9 O    ASP C 504      85.943  25.647 -14.752  1.00 66.01 LIG-0.27  OA
BRANCH 7 10
ATOM     10  CA  SER C 505      85.613  27.483 -16.814  1.00 90.64 LIG 0.20  C 
BRANCH 10 11
ATOM     11  CB  SER C 505      85.238  27.975 -18.208  1.00 89.01 LIG 0.20  C 
BRANCH 11 12
ATOM     12 OG   SER C 505      84.895  26.884 -19.039  1.00 87.22 LIG-0.40  OA
ATOM     13 HG   SER C 505      84.954  26.169 -18.602  1.00 87.22 LIG 0.21  HD
ENDBRANCH 11 12
ENDBRANCH 10 11
BRANCH 10 14
ATOM     14  C   SER C 505      85.800  28.665 -15.867  1.00 98.93 LIG 0.24  C 
ATOM     15  N   GLN C 506      84.842  28.854 -14.965  1.00110.12 LIG-0.35  N 
ATOM     16 H    GLN C 506      84.223  28.282 -14.793  1.00110.12 LIG 0.16  HD
ATOM     17 O    SER C 505      86.800  29.382 -15.945  1.00 94.47 LIG-0.27  OA
BRANCH 15 18
ATOM     18  CA  GLN C 506      84.765  30.079 -14.178  1.00115.19 LIG 0.16  C 
BRANCH 18 19
ATOM     19  C   GLN C 506      85.645  30.021 -12.930  1.00118.66 LIG 0.22  C 
ATOM     20 O    GLN C 506      86.430  29.087 -12.752  1.00117.46 LIG-0.29  OA
ENDBRANCH 18 19
BRANCH 18 21
ATOM     21  CB  GLN C 506      83.307  30.351 -13.794  1.00118.15 LIG 0.04  C 
BRANCH 21 22
ATOM     22  CG  GLN C 506      82.574  31.277 -14.777  1.00119.48 LIG 0.10  C 
BRANCH 22 23
ATOM     23  CD  GLN C 506      82.814  30.932 -16.247  1.00116.76 LIG 0.21  C 
ATOM     24  NE2 GLN C 506      81.928  30.124 -16.820  1.00111.94 LIG-0.37  N 
ATOM     25 21HE GLN C 506      81.263  29.823 -16.365  1.00111.94 LIG 0.16  HD
ATOM     26 22HE GLN C 506      82.019  29.903 -17.646  1.00111.94 LIG 0.16  HD
ATOM     27 OE1  GLN C 506      83.782  31.389 -16.855  1.00116.06 LIG-0.27  OA
ENDBRANCH 22 23
ENDBRANCH 21 22
ENDBRANCH 18 21
ENDBRANCH 15 18
ENDBRANCH 10 14
ENDBRANCH 7 10
ENDBRANCH 5 6
BRANCH 5 28
ATOM     28  CB  ASP C 504      83.733  23.464 -15.518  1.00 57.84 LIG 0.15  C 
BRANCH 28 29
ATOM     29  CG  ASP C 504      82.914  23.372 -16.801  1.00 60.92 LIG 0.17  C 
ATOM     30 OD2  ASP C 504      83.254  24.088 -17.773  1.00 60.43 LIG-0.65  OA
ATOM     31 OD1  ASP C 504      81.940  22.590 -16.844  1.00 59.69 LIG-0.65  OA
ENDBRANCH 28 29
ENDBRANCH 5 28
ENDBRANCH 3 5
BRANCH 1 32
ATOM     32  CA  SER C 503      80.453  26.878 -14.807  1.00 44.19 LIG 0.20  C 
BRANCH 32 33
ATOM     33  N   SER C 503      79.206  26.244 -14.374  1.00 47.77 LIG-0.34  N 
ATOM     34 H    SER C 503      79.234  25.900 -13.586  1.00 47.77 LIG 0.16  HD
ATOM     35  C   SER C 502      78.133  26.219 -15.163  1.00 50.79 LIG 0.24  C 
ATOM     36 O    SER C 502      78.003  26.945 -16.138  1.00 48.58 LIG-0.27  OA
BRANCH 35 37
ATOM     37  CA  SER C 502      77.049  25.218 -14.804  1.00 60.54 LIG 0.20  C 
BRANCH 37 38
ATOM     38  CB  SER C 502      76.304  24.763 -16.048  1.00 53.64 LIG 0.20  C 
BRANCH 38 39
ATOM     39 OG   SER C 502      74.936  25.095 -15.981  1.00 59.09 LIG-0.40  OA
ATOM     40 HG   SER C 502      74.627  24.858 -15.237  1.00 59.09 LIG 0.21  HD
ENDBRANCH 38 39
ENDBRANCH 37 38
BRANCH 37 41
ATOM     41  N   SER C 502      76.166  25.834 -13.821  1.00 72.56 LIG-0.34  N 
ATOM     42 H    SER C 502      75.412  26.109 -14.130  1.00 72.56 LIG 0.16  HD
ATOM     43  C   GLU C 501      76.547  25.938 -12.552  1.00101.90 LIG 0.26  C 
ATOM     44 O    GLU C 501      77.439  25.236 -12.074  1.00103.22 LIG-0.27  OA
BRANCH 43 45
ATOM     45  CA  GLU C 501      75.810  26.961 -11.678  1.00101.55 LIG 0.40  C 
ATOM     46  N   GLU C 501      76.767  27.783 -10.943  1.00100.94 LIG 0.61  N 
BRANCH 45 47
ATOM     47  CB  GLU C 501      74.901  27.847 -12.535  1.00104.94 LIG 0.06  C 
BRANCH 47 48
ATOM     48  CG  GLU C 501      73.445  27.843 -12.104  1.00111.45 LIG 0.12  C 
BRANCH 48 49
ATOM     49  CD  GLU C 501      72.649  26.731 -12.756  1.00115.68 LIG 0.17  C 
ATOM     50 OE1  GLU C 501      71.411  26.699 -12.584  1.00117.56 LIG-0.65  OA
ATOM     51 OE2  GLU C 501      73.267  25.889 -13.442  1.00122.11 LIG-0.65  OA
ENDBRANCH 48 49
ENDBRANCH 47 48
ENDBRANCH 45 47
ENDBRANCH 43 45
ENDBRANCH 37 41
ENDBRANCH 35 37
ENDBRANCH 32 33
BRANCH 32 52
ATOM     52  CB  SER C 503      80.521  28.326 -14.340  1.00 49.05 LIG 0.20  C 
BRANCH 52 53
ATOM     53 OG   SER C 503      80.016  29.192 -15.341  1.00 54.59 LIG-0.40  OA
ATOM     54 HG   SER C 503      79.433  28.789 -15.792  1.00 54.59 LIG 0.21  HD
ENDBRANCH 52 53
ENDBRANCH 32 52
ENDBRANCH 1 32
TORSDOF 25
ENDMDL
MODEL 83
USER: ADFR SOLUTION from run 8
USER: SCORE 14.477808 LL:  -4.230 LR: -12.695 RR:   0.000 FEB:  -5.237
USER: RMSD 6.773279
USER: SEED 233373
USER: STATUS no improvement in best in 9 clusters for 5 generations
USER: GENES 27
USER: genes 0 Translation |==|  0.55155 0.60450 0.58739
USER: genes 1 Rotation |==|  0.27439 0.71982 0.88097 0.57510
USER: genes 2 Torsion [C]-N--CA-[CB] |==|  0.42790
USER: genes 3 Torsion [N]-CA--C-[N] |==|  0.54528
USER: genes 4 Torsion [C]-N--CA-[C] |==|  0.21567
USER: genes 5 Torsion [N]-CA--CB-[OG] |==|  0.61480
USER: genes 6 Torsion [CA]-CB--OG-[HG] |==|  0.10959
USER: genes 7 Torsion [N]-CA--C-[N] |==|  0.82495
USER: genes 8 Torsion [C]-N--CA-[CB] |==|  0.74433
USER: genes 9 Torsion [N]-CA--C-[O] |==|  0.59143
USER: genes 10 Torsion [N]-CA--CB-[CG] |==|  0.88151
USER: genes 11 Torsion [CA]-CB--CG-[CD] |==|  0.57570
USER: genes 12 Torsion [CB]-CG--CD-[NE2] |==|  0.16832
USER: genes 13 Torsion [N]-CA--CB-[CG] |==|  0.15462
USER: genes 14 Torsion [CA]-CB--CG-[OD1] |==|  0.76634
USER: genes 15 Torsion [N]-C--CA-[N] |==|  0.36150
USER: genes 16 Torsion [C]-CA--N-[C] |==|  0.86047
USER: genes 17 Torsion [N]-C--CA-[N] |==|  0.91356
USER: genes 18 Torsion [C]-CA--CB-[OG] |==|  0.00479
USER: genes 19 Torsion [CA]-CB--OG-[HG] |==|  0.75299
USER: genes 20 Torsion [C]-CA--N-[C] |==|  0.81667
USER: genes 21 Torsion [N]-C--CA-[N] |==|  0.19085
USER: genes 22 Torsion [C]-CA--CB-[CG] |==|  0.55673
USER: genes 23 Torsion [CA]-CB--CG-[CD] |==|  0.24449
USER: genes 24 Torsion [CB]-CG--CD-[OE1] |==|  0.74233
USER: genes 25 Torsion [C]-CA--CB-[OG] |==|  0.53361
USER: genes 26 Torsion [CA]-CB--OG-[HG] |==|  0.10376
ROOT
ATOM      1  C   SER C 503      80.160  28.552 -12.905  1.00 42.27 LIG 0.24  C 
ATOM      2 O    SER C 503      79.220  28.100 -13.555  1.00 46.84 LIG-0.27  OA
ATOM      3  N   ASP C 504      81.349  28.818 -13.430  1.00 51.15 LIG-0.34  N 
ATOM      4 H    ASP C 504      81.975  29.223 -13.001  1.00 51.15 LIG 0.16  HD
ENDROOT
BRANCH 3 5
ATOM      5  CA  ASP C 504      81.713  28.444 -14.796  1.00 56.79 LIG 0.19  C 
BRANCH 5 6
ATOM      6  C   ASP C 504      82.189  26.984 -14.838  1.00 67.42 LIG 0.24  C 
ATOM      7  N   SER C 505      82.858  26.618 -15.927  1.00 81.52 LIG-0.34  N 
ATOM      8 H    SER C 505      83.020  27.143 -16.588  1.00 81.52 LIG 0.16  HD
ATOM      9 O    ASP C 504      81.959  26.214 -13.903  1.00 66.01 LIG-0.27  OA
BRANCH 7 10
ATOM     10  CA  SER C 505      83.385  25.265 -16.094  1.00 90.64 LIG 0.20  C 
BRANCH 10 11
ATOM     11  CB  SER C 505      84.068  24.792 -14.816  1.00 89.01 LIG 0.20  C 
BRANCH 11 12
ATOM     12 OG   SER C 505      85.264  24.102 -15.123  1.00 87.22 LIG-0.40  OA
ATOM     13 HG   SER C 505      85.656  24.489 -15.756  1.00 87.22 LIG 0.21  HD
ENDBRANCH 11 12
ENDBRANCH 10 11
BRANCH 10 14
ATOM     14  C   SER C 505      82.266  24.304 -16.485  1.00 98.93 LIG 0.24  C 
ATOM     15  N   GLN C 506      81.292  24.142 -15.594  1.00110.12 LIG-0.35  N 
ATOM     16 H    GLN C 506      81.184  24.642 -14.903  1.00110.12 LIG 0.16  HD
ATOM     17 O    SER C 505      82.280  23.733 -17.577  1.00 94.47 LIG-0.27  OA
BRANCH 15 18
ATOM     18  CA  GLN C 506      80.309  23.073 -15.725  1.00115.19 LIG 0.16  C 
BRANCH 18 19
ATOM     19  C   GLN C 506      80.888  21.835 -16.407  1.00118.66 LIG 0.22  C 
ATOM     20 O    GLN C 506      80.186  21.121 -17.126  1.00117.46 LIG-0.29  OA
ENDBRANCH 18 19
BRANCH 18 21
ATOM     21  CB  GLN C 506      79.090  23.591 -16.497  1.00118.15 LIG 0.04  C 
BRANCH 21 22
ATOM     22  CG  GLN C 506      78.645  24.999 -16.073  1.00119.48 LIG 0.10  C 
BRANCH 22 23
ATOM     23  CD  GLN C 506      77.157  25.269 -16.295  1.00116.76 LIG 0.21  C 
ATOM     24  NE2 GLN C 506      76.306  24.483 -15.643  1.00111.94 LIG-0.37  N 
ATOM     25 21HE GLN C 506      76.604  23.860 -15.130  1.00111.94 LIG 0.16  HD
ATOM     26 22HE GLN C 506      75.459  24.598 -15.734  1.00111.94 LIG 0.16  HD
ATOM     27 OE1  GLN C 506      76.782  26.174 -17.040  1.00116.06 LIG-0.27  OA
ENDBRANCH 22 23
ENDBRANCH 21 22
ENDBRANCH 18 21
ENDBRANCH 15 18
ENDBRANCH 10 14
ENDBRANCH 7 10
ENDBRANCH 5 6
BRANCH 5 28
ATOM     28  CB  ASP C 504      82.805  29.392 -15.322  1.00 57.84 LIG 0.15  C 
BRANCH 28 29
ATOM     29  CG  ASP C 504      84.041  29.443 -14.430  1.00 60.92 LIG 0.17  C 
ATOM     30 OD2  ASP C 504      85.015  28.711 -14.726  1.00 60.43 LIG-0.65  OA
ATOM     31 OD1  ASP C 504      84.046  30.210 -13.443  1.00 59.69 LIG-0.65  OA
ENDBRANCH 28 29
ENDBRANCH 5 28
ENDBRANCH 3 5
BRANCH 1 32
ATOM     32  CA  SER C 503      80.003  28.859 -11.427  1.00 44.19 LIG 0.20  C 
BRANCH 32 33
ATOM     33  N   SER C 503      78.794  29.650 -11.187  1.00 47.77 LIG-0.34  N 
ATOM     34 H    SER C 503      78.283  29.342 -10.567  1.00 47.77 LIG 0.16  HD
ATOM     35  C   SER C 502      78.536  30.751 -11.890  1.00 50.79 LIG 0.24  C 
ATOM     36 O    SER C 502      79.384  31.336 -12.550  1.00 48.58 LIG-0.27  OA
BRANCH 35 37
ATOM     37  CA  SER C 502      77.108  31.264 -11.852  1.00 60.54 LIG 0.20  C 
BRANCH 37 38
ATOM     38  CB  SER C 502      76.933  32.289 -10.745  1.00 53.64 LIG 0.20  C 
BRANCH 38 39
ATOM     39 OG   SER C 502      78.145  32.528 -10.068  1.00 59.09 LIG-0.40  OA
ATOM     40 HG   SER C 502      78.222  31.986  -9.432  1.00 59.09 LIG 0.21  HD
ENDBRANCH 38 39
ENDBRANCH 37 38
BRANCH 37 41
ATOM     41  N   SER C 502      76.217  30.121 -11.697  1.00 72.56 LIG-0.34  N 
ATOM     42 H    SER C 502      75.785  30.093 -10.954  1.00 72.56 LIG 0.16  HD
ATOM     43  C   GLU C 501      76.115  29.215 -12.665  1.00101.90 LIG 0.26  C 
ATOM     44 O    GLU C 501      76.447  29.455 -13.827  1.00103.22 LIG-0.27  OA
BRANCH 43 45
ATOM     45  CA  GLU C 501      75.537  27.845 -12.288  1.00101.55 LIG 0.40  C 
ATOM     46  N   GLU C 501      74.119  27.966 -11.964  1.00100.94 LIG 0.61  N 
BRANCH 45 47
ATOM     47  CB  GLU C 501      75.736  26.843 -13.428  1.00104.94 LIG 0.06  C 
BRANCH 47 48
ATOM     48  CG  GLU C 501      74.803  25.646 -13.372  1.00111.45 LIG 0.12  C 
BRANCH 48 49
ATOM     49  CD  GLU C 501      73.489  25.900 -14.083  1.00115.68 LIG 0.17  C 
ATOM     50 OE1  GLU C 501      72.521  26.331 -13.419  1.00117.56 LIG-0.65  OA
ATOM     51 OE2  GLU C 501      73.428  25.666 -15.309  1.00122.11 LIG-0.65  OA
ENDBRANCH 48 49
ENDBRANCH 47 48
ENDBRANCH 45 47
ENDBRANCH 43 45
ENDBRANCH 37 41
ENDBRANCH 35 37
ENDBRANCH 32 33
BRANCH 32 52
ATOM     52  CB  SER C 503      79.969  27.555 -10.643  1.00 49.05 LIG 0.20  C 
BRANCH 52 53
ATOM     53 OG   SER C 503      79.549  27.790  -9.311  1.00 54.59 LIG-0.40  OA
ATOM     54 HG   SER C 503      78.954  28.383  -9.305  1.00 54.59 LIG 0.21  HD
ENDBRANCH 52 53
ENDBRANCH 32 52
ENDBRANCH 1 32
TORSDOF 25
ENDMDL
MODEL 84
USER: ADFR SOLUTION from run 58
USER: SCORE 14.778954 LL:  -3.405 LR: -12.679 RR:   0.000 FEB:  -5.222
USER: RMSD 6.373564
USER: SEED 57
USER: STATUS no improvement in best in 7 clusters for 5 generations
USER: GENES 27
USER: genes 0 Translation |==|  0.44609 0.40403 0.47650
USER: genes 1 Rotation |==|  0.82657 0.18430 0.30561 0.57679
USER: genes 2 Torsion [C]-N--CA-[CB] |==|  0.16711
USER: genes 3 Torsion [N]-CA--C-[N] |==|  0.80443
USER: genes 4 Torsion [C]-N--CA-[C] |==|  0.76491
USER: genes 5 Torsion [N]-CA--CB-[OG] |==|  0.53366
USER: genes 6 Torsion [CA]-CB--OG-[HG] |==|  0.01518
USER: genes 7 Torsion [N]-CA--C-[N] |==|  0.17319
USER: genes 8 Torsion [C]-N--CA-[CB] |==|  0.83144
USER: genes 9 Torsion [N]-CA--C-[O] |==|  0.41314
USER: genes 10 Torsion [N]-CA--CB-[CG] |==|  0.78756
USER: genes 11 Torsion [CA]-CB--CG-[CD] |==|  0.20074
USER: genes 12 Torsion [CB]-CG--CD-[NE2] |==|  0.18901
USER: genes 13 Torsion [N]-CA--CB-[CG] |==|  0.49992
USER: genes 14 Torsion [CA]-CB--CG-[OD1] |==|  0.99961
USER: genes 15 Torsion [N]-C--CA-[N] |==|  0.40446
USER: genes 16 Torsion [C]-CA--N-[C] |==|  0.66569
USER: genes 17 Torsion [N]-C--CA-[N] |==|  0.88801
USER: genes 18 Torsion [C]-CA--CB-[OG] |==|  0.85834
USER: genes 19 Torsion [CA]-CB--OG-[HG] |==|  0.92449
USER: genes 20 Torsion [C]-CA--N-[C] |==|  0.81807
USER: genes 21 Torsion [N]-C--CA-[N] |==|  0.24896
USER: genes 22 Torsion [C]-CA--CB-[CG] |==|  0.54614
USER: genes 23 Torsion [CA]-CB--CG-[CD] |==|  0.78972
USER: genes 24 Torsion [CB]-CG--CD-[OE1] |==|  0.04390
USER: genes 25 Torsion [C]-CA--CB-[OG] |==|  0.76476
USER: genes 26 Torsion [CA]-CB--OG-[HG] |==|  0.89674
ROOT
ATOM      1  C   SER C 503      78.341  24.343 -14.985  1.00 42.27 LIG 0.24  C 
ATOM      2 O    SER C 503      77.861  23.212 -15.008  1.00 46.84 LIG-0.27  OA
ATOM      3  N   ASP C 504      79.586  24.615 -15.353  1.00 51.15 LIG-0.34  N 
ATOM      4 H    ASP C 504      79.892  25.415 -15.429  1.00 51.15 LIG 0.16  HD
ENDROOT
BRANCH 3 5
ATOM      5  CA  ASP C 504      80.564  23.575 -15.666  1.00 56.79 LIG 0.19  C 
BRANCH 5 6
ATOM      6  C   ASP C 504      81.925  24.207 -15.995  1.00 67.42 LIG 0.24  C 
ATOM      7  N   SER C 505      82.001  24.868 -17.146  1.00 81.52 LIG-0.34  N 
ATOM      8 H    SER C 505      81.346  24.944 -17.697  1.00 81.52 LIG 0.16  HD
ATOM      9 O    ASP C 504      82.878  24.101 -15.220  1.00 66.01 LIG-0.27  OA
BRANCH 7 10
ATOM     10  CA  SER C 505      83.227  25.534 -17.578  1.00 90.64 LIG 0.20  C 
BRANCH 10 11
ATOM     11  CB  SER C 505      83.287  25.619 -19.099  1.00 89.01 LIG 0.20  C 
BRANCH 11 12
ATOM     12 OG   SER C 505      84.581  26.005 -19.520  1.00 87.22 LIG-0.40  OA
ATOM     13 HG   SER C 505      85.093  26.042 -18.855  1.00 87.22 LIG 0.21  HD
ENDBRANCH 11 12
ENDBRANCH 10 11
BRANCH 10 14
ATOM     14  C   SER C 505      83.318  26.928 -16.965  1.00 98.93 LIG 0.24  C 
ATOM     15  N   GLN C 506      83.380  26.986 -15.638  1.00110.12 LIG-0.35  N 
ATOM     16 H    GLN C 506      83.520  26.303 -15.133  1.00110.12 LIG 0.16  HD
ATOM     17 O    SER C 505      83.345  27.931 -17.682  1.00 94.47 LIG-0.27  OA
BRANCH 15 18
ATOM     18  CA  GLN C 506      83.212  28.243 -14.919  1.00115.19 LIG 0.16  C 
BRANCH 18 19
ATOM     19  C   GLN C 506      81.827  28.852 -15.136  1.00118.66 LIG 0.22  C 
ATOM     20 O    GLN C 506      81.287  29.525 -14.256  1.00117.46 LIG-0.29  OA
ENDBRANCH 18 19
BRANCH 18 21
ATOM     21  CB  GLN C 506      84.305  29.228 -15.347  1.00118.15 LIG 0.04  C 
BRANCH 21 22
ATOM     22  CG  GLN C 506      85.677  28.935 -14.723  1.00119.48 LIG 0.10  C 
BRANCH 22 23
ATOM     23  CD  GLN C 506      86.366  27.698 -15.301  1.00116.76 LIG 0.21  C 
ATOM     24  NE2 GLN C 506      86.771  27.778 -16.564  1.00111.94 LIG-0.37  N 
ATOM     25 21HE GLN C 506      86.638  28.500 -17.013  1.00111.94 LIG 0.16  HD
ATOM     26 22HE GLN C 506      87.166  27.109 -16.932  1.00111.94 LIG 0.16  HD
ATOM     27 OE1  GLN C 506      86.533  26.688 -14.617  1.00116.06 LIG-0.27  OA
ENDBRANCH 22 23
ENDBRANCH 21 22
ENDBRANCH 18 21
ENDBRANCH 15 18
ENDBRANCH 10 14
ENDBRANCH 7 10
ENDBRANCH 5 6
BRANCH 5 28
ATOM     28  CB  ASP C 504      80.059  22.721 -16.842  1.00 57.84 LIG 0.15  C 
BRANCH 28 29
ATOM     29  CG  ASP C 504      81.022  21.607 -17.237  1.00 60.92 LIG 0.17  C 
ATOM     30 OD2  ASP C 504      80.699  20.855 -18.188  1.00 60.43 LIG-0.65  OA
ATOM     31 OD1  ASP C 504      82.095  21.482 -16.609  1.00 59.69 LIG-0.65  OA
ENDBRANCH 28 29
ENDBRANCH 5 28
ENDBRANCH 3 5
BRANCH 1 32
ATOM     32  CA  SER C 503      77.506  25.528 -14.537  1.00 44.19 LIG 0.20  C 
BRANCH 32 33
ATOM     33  N   SER C 503      76.105  25.353 -14.926  1.00 47.77 LIG-0.34  N 
ATOM     34 H    SER C 503      75.728  24.653 -14.598  1.00 47.77 LIG 0.16  HD
ATOM     35  C   SER C 502      75.494  26.226 -15.724  1.00 50.79 LIG 0.24  C 
ATOM     36 O    SER C 502      75.929  27.347 -15.946  1.00 48.58 LIG-0.27  OA
BRANCH 35 37
ATOM     37  CA  SER C 502      74.205  25.763 -16.379  1.00 60.54 LIG 0.20  C 
BRANCH 37 38
ATOM     38  CB  SER C 502      73.027  25.944 -15.437  1.00 53.64 LIG 0.20  C 
BRANCH 38 39
ATOM     39 OG   SER C 502      73.285  25.374 -14.174  1.00 59.09 LIG-0.40  OA
ATOM     40 HG   SER C 502      73.834  24.744 -14.258  1.00 59.09 LIG 0.21  HD
ENDBRANCH 38 39
ENDBRANCH 37 38
BRANCH 37 41
ATOM     41  N   SER C 502      74.377  24.376 -16.794  1.00 72.56 LIG-0.34  N 
ATOM     42 H    SER C 502      73.877  23.808 -16.385  1.00 72.56 LIG 0.16  HD
ATOM     43  C   GLU C 501      75.256  24.066 -17.742  1.00101.90 LIG 0.26  C 
ATOM     44 O    GLU C 501      75.681  24.899 -18.543  1.00103.22 LIG-0.27  OA
BRANCH 43 45
ATOM     45  CA  GLU C 501      75.714  22.604 -17.823  1.00101.55 LIG 0.40  C 
ATOM     46  N   GLU C 501      74.834  21.846 -18.707  1.00100.94 LIG 0.61  N 
BRANCH 45 47
ATOM     47  CB  GLU C 501      77.161  22.518 -18.318  1.00104.94 LIG 0.06  C 
BRANCH 47 48
ATOM     48  CG  GLU C 501      77.570  21.140 -18.807  1.00111.45 LIG 0.12  C 
BRANCH 48 49
ATOM     49  CD  GLU C 501      77.819  20.170 -17.669  1.00115.68 LIG 0.17  C 
ATOM     50 OE1  GLU C 501      77.395  20.462 -16.529  1.00117.56 LIG-0.65  OA
ATOM     51 OE2  GLU C 501      78.440  19.116 -17.919  1.00122.11 LIG-0.65  OA
ENDBRANCH 48 49
ENDBRANCH 47 48
ENDBRANCH 45 47
ENDBRANCH 43 45
ENDBRANCH 37 41
ENDBRANCH 35 37
ENDBRANCH 32 33
BRANCH 32 52
ATOM     52  CB  SER C 503      77.639  25.698 -13.030  1.00 49.05 LIG 0.20  C 
BRANCH 52 53
ATOM     53 OG   SER C 503      76.720  24.858 -12.355  1.00 54.59 LIG-0.40  OA
ATOM     54 HG   SER C 503      76.000  24.826 -12.786  1.00 54.59 LIG 0.21  HD
ENDBRANCH 52 53
ENDBRANCH 32 52
ENDBRANCH 1 32
TORSDOF 25
ENDMDL
MODEL 85
USER: ADFR SOLUTION from run 64
USER: SCORE 16.678033 LL:  -4.601 LR: -12.678 RR:   0.000 FEB:  -5.220
USER: RMSD 5.609190
USER: SEED 63
USER: STATUS searching
USER: GENES 27
USER: genes 0 Translation |==|  0.64157 0.55052 0.47339
USER: genes 1 Rotation |==|  0.45562 0.62295 0.34418 0.95676
USER: genes 2 Torsion [C]-N--CA-[CB] |==|  0.15004
USER: genes 3 Torsion [N]-CA--C-[N] |==|  0.09592
USER: genes 4 Torsion [C]-N--CA-[C] |==|  0.56711
USER: genes 5 Torsion [N]-CA--CB-[OG] |==|  0.24520
USER: genes 6 Torsion [CA]-CB--OG-[HG] |==|  0.69943
USER: genes 7 Torsion [N]-CA--C-[N] |==|  0.48655
USER: genes 8 Torsion [C]-N--CA-[CB] |==|  0.83089
USER: genes 9 Torsion [N]-CA--C-[O] |==|  0.21514
USER: genes 10 Torsion [N]-CA--CB-[CG] |==|  0.74609
USER: genes 11 Torsion [CA]-CB--CG-[CD] |==|  0.18223
USER: genes 12 Torsion [CB]-CG--CD-[NE2] |==|  0.29435
USER: genes 13 Torsion [N]-CA--CB-[CG] |==|  0.58789
USER: genes 14 Torsion [CA]-CB--CG-[OD1] |==|  0.78169
USER: genes 15 Torsion [N]-C--CA-[N] |==|  0.08101
USER: genes 16 Torsion [C]-CA--N-[C] |==|  0.15247
USER: genes 17 Torsion [N]-C--CA-[N] |==|  0.07223
USER: genes 18 Torsion [C]-CA--CB-[OG] |==|  0.60206
USER: genes 19 Torsion [CA]-CB--OG-[HG] |==|  0.56978
USER: genes 20 Torsion [C]-CA--N-[C] |==|  0.18156
USER: genes 21 Torsion [N]-C--CA-[N] |==|  0.89806
USER: genes 22 Torsion [C]-CA--CB-[CG] |==|  0.82937
USER: genes 23 Torsion [CA]-CB--CG-[CD] |==|  0.28311
USER: genes 24 Torsion [CB]-CG--CD-[OE1] |==|  0.50418
USER: genes 25 Torsion [C]-CA--CB-[OG] |==|  0.39771
USER: genes 26 Torsion [CA]-CB--OG-[HG] |==|  0.06715
ROOT
ATOM      1  C   SER C 503      81.713  27.419 -15.043  1.00 42.27 LIG 0.24  C 
ATOM      2 O    SER C 503      82.756  27.124 -15.622  1.00 46.84 LIG-0.27  OA
ATOM      3  N   ASP C 504      80.633  26.649 -15.047  1.00 51.15 LIG-0.34  N 
ATOM      4 H    ASP C 504      79.938  26.806 -14.565  1.00 51.15 LIG 0.16  HD
ENDROOT
BRANCH 3 5
ATOM      5  CA  ASP C 504      80.518  25.451 -15.877  1.00 56.79 LIG 0.19  C 
BRANCH 5 6
ATOM      6  C   ASP C 504      79.192  24.732 -15.591  1.00 67.42 LIG 0.24  C 
ATOM      7  N   SER C 505      78.154  25.511 -15.304  1.00 81.52 LIG-0.34  N 
ATOM      8 H    SER C 505      78.196  26.368 -15.263  1.00 81.52 LIG 0.16  HD
ATOM      9 O    ASP C 504      79.114  23.502 -15.636  1.00 66.01 LIG-0.27  OA
BRANCH 7 10
ATOM     10  CA  SER C 505      76.827  24.963 -15.028  1.00 90.64 LIG 0.20  C 
BRANCH 10 11
ATOM     11  CB  SER C 505      76.730  24.491 -13.582  1.00 89.01 LIG 0.20  C 
BRANCH 11 12
ATOM     12 OG   SER C 505      76.316  25.552 -12.744  1.00 87.22 LIG-0.40  OA
ATOM     13 HG   SER C 505      76.962  25.804 -12.271  1.00 87.22 LIG 0.21  HD
ENDBRANCH 11 12
ENDBRANCH 10 11
BRANCH 10 14
ATOM     14  C   SER C 505      75.752  26.006 -15.319  1.00 98.93 LIG 0.24  C 
ATOM     15  N   GLN C 506      74.491  25.600 -15.203  1.00110.12 LIG-0.35  N 
ATOM     16 H    GLN C 506      74.257  24.856 -14.841  1.00110.12 LIG 0.16  HD
ATOM     17 O    SER C 505      76.060  27.159 -15.628  1.00 94.47 LIG-0.27  OA
BRANCH 15 18
ATOM     18  CA  GLN C 506      73.381  26.407 -15.694  1.00115.19 LIG 0.16  C 
BRANCH 18 19
ATOM     19  C   GLN C 506      73.446  26.621 -17.206  1.00118.66 LIG 0.22  C 
ATOM     20 O    GLN C 506      73.108  25.729 -17.986  1.00117.46 LIG-0.29  OA
ENDBRANCH 18 19
BRANCH 18 21
ATOM     21  CB  GLN C 506      73.363  27.754 -14.962  1.00118.15 LIG 0.04  C 
BRANCH 21 22
ATOM     22  CG  GLN C 506      72.491  27.755 -13.698  1.00119.48 LIG 0.10  C 
BRANCH 22 23
ATOM     23  CD  GLN C 506      73.010  26.839 -12.589  1.00116.76 LIG 0.21  C 
ATOM     24  NE2 GLN C 506      73.577  27.432 -11.544  1.00111.94 LIG-0.37  N 
ATOM     25 21HE GLN C 506      73.639  28.289 -11.518  1.00111.94 LIG 0.16  HD
ATOM     26 22HE GLN C 506      73.881  26.959 -10.894  1.00111.94 LIG 0.16  HD
ATOM     27 OE1  GLN C 506      72.896  25.616 -12.673  1.00116.06 LIG-0.27  OA
ENDBRANCH 22 23
ENDBRANCH 21 22
ENDBRANCH 18 21
ENDBRANCH 15 18
ENDBRANCH 10 14
ENDBRANCH 7 10
ENDBRANCH 5 6
BRANCH 5 28
ATOM     28  CB  ASP C 504      81.715  24.519 -15.614  1.00 57.84 LIG 0.15  C 
BRANCH 28 29
ATOM     29  CG  ASP C 504      82.129  23.709 -16.838  1.00 60.92 LIG 0.17  C 
ATOM     30 OD2  ASP C 504      83.131  24.089 -17.488  1.00 60.43 LIG-0.65  OA
ATOM     31 OD1  ASP C 504      81.463  22.698 -17.150  1.00 59.69 LIG-0.65  OA
ENDBRANCH 28 29
ENDBRANCH 5 28
ENDBRANCH 3 5
BRANCH 1 32
ATOM     32  CA  SER C 503      81.605  28.710 -14.253  1.00 44.19 LIG 0.20  C 
BRANCH 32 33
ATOM     33  N   SER C 503      80.666  28.560 -13.139  1.00 47.77 LIG-0.34  N 
ATOM     34 H    SER C 503      80.032  29.141 -13.124  1.00 47.77 LIG 0.16  HD
ATOM     35  C   SER C 502      80.811  27.589 -12.238  1.00 50.79 LIG 0.24  C 
ATOM     36 O    SER C 502      81.521  26.610 -12.419  1.00 48.58 LIG-0.27  OA
BRANCH 35 37
ATOM     37  CA  SER C 502      80.051  27.752 -10.934  1.00 60.54 LIG 0.20  C 
BRANCH 37 38
ATOM     38  CB  SER C 502      79.678  26.398 -10.356  1.00 53.64 LIG 0.20  C 
BRANCH 38 39
ATOM     39 OG   SER C 502      78.411  26.430  -9.742  1.00 59.09 LIG-0.40  OA
ATOM     40 HG   SER C 502      78.367  25.828  -9.158  1.00 59.09 LIG 0.21  HD
ENDBRANCH 38 39
ENDBRANCH 37 38
BRANCH 37 41
ATOM     41  N   SER C 502      78.885  28.589 -11.187  1.00 72.56 LIG-0.34  N 
ATOM     42 H    SER C 502      78.889  29.351 -10.789  1.00 72.56 LIG 0.16  HD
ATOM     43  C   GLU C 501      77.913  28.157 -11.986  1.00101.90 LIG 0.26  C 
ATOM     44 O    GLU C 501      78.088  27.256 -12.806  1.00103.22 LIG-0.27  OA
BRANCH 43 45
ATOM     45  CA  GLU C 501      76.548  28.847 -11.868  1.00101.55 LIG 0.40  C 
ATOM     46  N   GLU C 501      76.271  29.187 -10.475  1.00100.94 LIG 0.61  N 
BRANCH 45 47
ATOM     47  CB  GLU C 501      76.503  30.107 -12.738  1.00104.94 LIG 0.06  C 
BRANCH 47 48
ATOM     48  CG  GLU C 501      77.522  31.165 -12.354  1.00111.45 LIG 0.12  C 
BRANCH 48 49
ATOM     49  CD  GLU C 501      78.722  31.178 -13.279  1.00115.68 LIG 0.17  C 
ATOM     50 OE1  GLU C 501      79.647  31.988 -13.049  1.00117.56 LIG-0.65  OA
ATOM     51 OE2  GLU C 501      78.737  30.376 -14.236  1.00122.11 LIG-0.65  OA
ENDBRANCH 48 49
ENDBRANCH 47 48
ENDBRANCH 45 47
ENDBRANCH 43 45
ENDBRANCH 37 41
ENDBRANCH 35 37
ENDBRANCH 32 33
BRANCH 32 52
ATOM     52  CB  SER C 503      82.986  29.113 -13.754  1.00 49.05 LIG 0.20  C 
BRANCH 52 53
ATOM     53 OG   SER C 503      83.135  30.522 -13.794  1.00 54.59 LIG-0.40  OA
ATOM     54 HG   SER C 503      82.377  30.885 -13.760  1.00 54.59 LIG 0.21  HD
ENDBRANCH 52 53
ENDBRANCH 32 52
ENDBRANCH 1 32
TORSDOF 25
ENDMDL
MODEL 86
USER: ADFR SOLUTION from run 5
USER: SCORE 14.412060 LL:  -4.011 LR: -12.676 RR:   0.000 FEB:  -5.219
USER: RMSD 6.702951
USER: SEED 177613
USER: STATUS no improvement in best in 7 clusters for 5 generations
USER: GENES 27
USER: genes 0 Translation |==|  0.41018 0.49042 0.67620
USER: genes 1 Rotation |==|  0.51777 0.47625 0.08059 0.77058
USER: genes 2 Torsion [C]-N--CA-[CB] |==|  0.41464
USER: genes 3 Torsion [N]-CA--C-[N] |==|  0.18523
USER: genes 4 Torsion [C]-N--CA-[C] |==|  0.63057
USER: genes 5 Torsion [N]-CA--CB-[OG] |==|  0.11531
USER: genes 6 Torsion [CA]-CB--OG-[HG] |==|  0.72746
USER: genes 7 Torsion [N]-CA--C-[N] |==|  0.48702
USER: genes 8 Torsion [C]-N--CA-[CB] |==|  0.22604
USER: genes 9 Torsion [N]-CA--C-[O] |==|  0.27864
USER: genes 10 Torsion [N]-CA--CB-[CG] |==|  0.55570
USER: genes 11 Torsion [CA]-CB--CG-[CD] |==|  0.15728
USER: genes 12 Torsion [CB]-CG--CD-[NE2] |==|  0.43336
USER: genes 13 Torsion [N]-CA--CB-[CG] |==|  0.59247
USER: genes 14 Torsion [CA]-CB--CG-[OD1] |==|  0.83523
USER: genes 15 Torsion [N]-C--CA-[N] |==|  0.96502
USER: genes 16 Torsion [C]-CA--N-[C] |==|  0.78802
USER: genes 17 Torsion [N]-C--CA-[N] |==|  0.02281
USER: genes 18 Torsion [C]-CA--CB-[OG] |==|  0.53821
USER: genes 19 Torsion [CA]-CB--OG-[HG] |==|  0.95040
USER: genes 20 Torsion [C]-CA--N-[C] |==|  0.62801
USER: genes 21 Torsion [N]-C--CA-[N] |==|  0.84543
USER: genes 22 Torsion [C]-CA--CB-[CG] |==|  0.45887
USER: genes 23 Torsion [CA]-CB--CG-[CD] |==|  0.88873
USER: genes 24 Torsion [CB]-CG--CD-[OE1] |==|  0.35223
USER: genes 25 Torsion [C]-CA--CB-[OG] |==|  0.86792
USER: genes 26 Torsion [CA]-CB--OG-[HG] |==|  0.66891
ROOT
ATOM      1  C   SER C 503      77.722  26.157 -11.240  1.00 42.27 LIG 0.24  C 
ATOM      2 O    SER C 503      77.707  24.930 -11.167  1.00 46.84 LIG-0.27  OA
ATOM      3  N   ASP C 504      76.830  26.858 -11.928  1.00 51.15 LIG-0.34  N 
ATOM      4 H    ASP C 504      76.781  27.716 -11.902  1.00 51.15 LIG 0.16  HD
ENDROOT
BRANCH 3 5
ATOM      5  CA  ASP C 504      75.838  26.235 -12.804  1.00 56.79 LIG 0.19  C 
BRANCH 5 6
ATOM      6  C   ASP C 504      76.414  26.058 -14.216  1.00 67.42 LIG 0.24  C 
ATOM      7  N   SER C 505      77.417  25.194 -14.336  1.00 81.52 LIG-0.34  N 
ATOM      8 H    SER C 505      77.751  24.755 -13.677  1.00 81.52 LIG 0.16  HD
ATOM      9 O    ASP C 504      75.954  26.686 -15.173  1.00 66.01 LIG-0.27  OA
BRANCH 7 10
ATOM     10  CA  SER C 505      78.049  24.913 -15.623  1.00 90.64 LIG 0.20  C 
BRANCH 10 11
ATOM     11  CB  SER C 505      79.408  25.597 -15.716  1.00 89.01 LIG 0.20  C 
BRANCH 11 12
ATOM     12 OG   SER C 505      80.105  25.477 -14.491  1.00 87.22 LIG-0.40  OA
ATOM     13 HG   SER C 505      80.008  26.180 -14.043  1.00 87.22 LIG 0.21  HD
ENDBRANCH 11 12
ENDBRANCH 10 11
BRANCH 10 14
ATOM     14  C   SER C 505      78.198  23.408 -15.824  1.00 98.93 LIG 0.24  C 
ATOM     15  N   GLN C 506      78.672  23.016 -17.003  1.00110.12 LIG-0.35  N 
ATOM     16 H    GLN C 506      79.029  23.546 -17.579  1.00110.12 LIG 0.16  HD
ATOM     17 O    SER C 505      77.900  22.620 -14.924  1.00 94.47 LIG-0.27  OA
BRANCH 15 18
ATOM     18  CA  GLN C 506      78.623  21.619 -17.419  1.00115.19 LIG 0.16  C 
BRANCH 18 19
ATOM     19  C   GLN C 506      79.696  21.286 -18.455  1.00118.66 LIG 0.22  C 
ATOM     20 O    GLN C 506      80.739  20.718 -18.125  1.00117.46 LIG-0.29  OA
ENDBRANCH 18 19
BRANCH 18 21
ATOM     21  CB  GLN C 506      77.229  21.296 -17.968  1.00118.15 LIG 0.04  C 
BRANCH 21 22
ATOM     22  CG  GLN C 506      76.904  19.795 -17.978  1.00119.48 LIG 0.10  C 
BRANCH 22 23
ATOM     23  CD  GLN C 506      77.022  19.129 -16.606  1.00116.76 LIG 0.21  C 
ATOM     24  NE2 GLN C 506      76.315  18.019 -16.422  1.00111.94 LIG-0.37  N 
ATOM     25 21HE GLN C 506      75.822  17.712 -17.057  1.00111.94 LIG 0.16  HD
ATOM     26 22HE GLN C 506      76.350  17.606 -15.669  1.00111.94 LIG 0.16  HD
ATOM     27 OE1  GLN C 506      77.742  19.606 -15.730  1.00116.06 LIG-0.27  OA
ENDBRANCH 22 23
ENDBRANCH 21 22
ENDBRANCH 18 21
ENDBRANCH 15 18
ENDBRANCH 10 14
ENDBRANCH 7 10
ENDBRANCH 5 6
BRANCH 5 28
ATOM     28  CB  ASP C 504      74.560  27.092 -12.836  1.00 57.84 LIG 0.15  C 
BRANCH 28 29
ATOM     29  CG  ASP C 504      73.286  26.269 -12.988  1.00 60.92 LIG 0.17  C 
ATOM     30 OD2  ASP C 504      72.414  26.358 -12.090  1.00 60.43 LIG-0.65  OA
ATOM     31 OD1  ASP C 504      73.150  25.540 -13.994  1.00 59.69 LIG-0.65  OA
ENDBRANCH 28 29
ENDBRANCH 5 28
ENDBRANCH 3 5
BRANCH 1 32
ATOM     32  CA  SER C 503      78.781  26.963 -10.512  1.00 44.19 LIG 0.20  C 
BRANCH 32 33
ATOM     33  N   SER C 503      78.774  28.357 -10.962  1.00 47.77 LIG-0.34  N 
ATOM     34 H    SER C 503      78.406  28.908 -10.414  1.00 47.77 LIG 0.16  HD
ATOM     35  C   SER C 502      79.302  28.708 -12.134  1.00 50.79 LIG 0.24  C 
ATOM     36 O    SER C 502      80.067  27.991 -12.763  1.00 48.58 LIG-0.27  OA
BRANCH 35 37
ATOM     37  CA  SER C 502      78.901  30.066 -12.682  1.00 60.54 LIG 0.20  C 
BRANCH 37 38
ATOM     38  CB  SER C 502      80.123  30.846 -13.134  1.00 53.64 LIG 0.20  C 
BRANCH 38 39
ATOM     39 OG   SER C 502      79.817  32.204 -13.351  1.00 59.09 LIG-0.40  OA
ATOM     40 HG   SER C 502      78.986  32.295 -13.429  1.00 59.09 LIG 0.21  HD
ENDBRANCH 38 39
ENDBRANCH 37 38
BRANCH 37 41
ATOM     41  N   SER C 502      78.143  30.767 -11.652  1.00 72.56 LIG-0.34  N 
ATOM     42 H    SER C 502      78.487  30.741 -10.865  1.00 72.56 LIG 0.16  HD
ATOM     43  C   GLU C 501      77.008  31.387 -11.963  1.00101.90 LIG 0.26  C 
ATOM     44 O    GLU C 501      76.732  31.713 -13.118  1.00103.22 LIG-0.27  OA
BRANCH 43 45
ATOM     45  CA  GLU C 501      76.047  31.711 -10.812  1.00101.55 LIG 0.40  C 
ATOM     46  N   GLU C 501      75.715  30.497 -10.072  1.00100.94 LIG 0.61  N 
BRANCH 45 47
ATOM     47  CB  GLU C 501      76.662  32.751  -9.871  1.00104.94 LIG 0.06  C 
BRANCH 47 48
ATOM     48  CG  GLU C 501      75.668  33.392  -8.919  1.00111.45 LIG 0.12  C 
BRANCH 48 49
ATOM     49  CD  GLU C 501      74.338  33.688  -9.581  1.00115.68 LIG 0.17  C 
ATOM     50 OE1  GLU C 501      73.293  33.256  -9.046  1.00117.56 LIG-0.65  OA
ATOM     51 OE2  GLU C 501      74.340  34.354 -10.638  1.00122.11 LIG-0.65  OA
ENDBRANCH 48 49
ENDBRANCH 47 48
ENDBRANCH 45 47
ENDBRANCH 43 45
ENDBRANCH 37 41
ENDBRANCH 35 37
ENDBRANCH 32 33
BRANCH 32 52
ATOM     52  CB  SER C 503      78.541  26.872  -9.011  1.00 49.05 LIG 0.20  C 
BRANCH 52 53
ATOM     53 OG   SER C 503      77.177  27.112  -8.713  1.00 54.59 LIG-0.40  OA
ATOM     54 HG   SER C 503      77.113  27.787  -8.216  1.00 54.59 LIG 0.21  HD
ENDBRANCH 52 53
ENDBRANCH 32 52
ENDBRANCH 1 32
TORSDOF 25
ENDMDL
MODEL 87
USER: ADFR SOLUTION from run 6
USER: SCORE 15.256357 LL:  -3.684 LR: -12.658 RR:   0.000 FEB:  -5.200
USER: RMSD 8.859948
USER: SEED 314395
USER: STATUS searching
USER: GENES 27
USER: genes 0 Translation |==|  0.70902 0.50012 0.37199
USER: genes 1 Rotation |==|  0.21321 0.25580 0.27860 0.74311
USER: genes 2 Torsion [C]-N--CA-[CB] |==|  0.76399
USER: genes 3 Torsion [N]-CA--C-[N] |==|  0.22549
USER: genes 4 Torsion [C]-N--CA-[C] |==|  0.68912
USER: genes 5 Torsion [N]-CA--CB-[OG] |==|  0.95569
USER: genes 6 Torsion [CA]-CB--OG-[HG] |==|  0.64432
USER: genes 7 Torsion [N]-CA--C-[N] |==|  0.00823
USER: genes 8 Torsion [C]-N--CA-[CB] |==|  0.40486
USER: genes 9 Torsion [N]-CA--C-[O] |==|  0.81599
USER: genes 10 Torsion [N]-CA--CB-[CG] |==|  0.54057
USER: genes 11 Torsion [CA]-CB--CG-[CD] |==|  0.57572
USER: genes 12 Torsion [CB]-CG--CD-[NE2] |==|  0.00464
USER: genes 13 Torsion [N]-CA--CB-[CG] |==|  0.02012
USER: genes 14 Torsion [CA]-CB--CG-[OD1] |==|  0.31498
USER: genes 15 Torsion [N]-C--CA-[N] |==|  0.91116
USER: genes 16 Torsion [C]-CA--N-[C] |==|  0.67245
USER: genes 17 Torsion [N]-C--CA-[N] |==|  0.01378
USER: genes 18 Torsion [C]-CA--CB-[OG] |==|  0.79184
USER: genes 19 Torsion [CA]-CB--OG-[HG] |==|  0.58196
USER: genes 20 Torsion [C]-CA--N-[C] |==|  0.61534
USER: genes 21 Torsion [N]-C--CA-[N] |==|  0.41238
USER: genes 22 Torsion [C]-CA--CB-[CG] |==|  0.66937
USER: genes 23 Torsion [CA]-CB--CG-[CD] |==|  0.21503
USER: genes 24 Torsion [CB]-CG--CD-[OE1] |==|  0.04346
USER: genes 25 Torsion [C]-CA--CB-[OG] |==|  0.88120
USER: genes 26 Torsion [CA]-CB--OG-[HG] |==|  0.25292
ROOT
ATOM      1  C   SER C 503      82.877  26.361 -16.944  1.00 42.27 LIG 0.24  C 
ATOM      2 O    SER C 503      83.518  26.505 -15.906  1.00 46.84 LIG-0.27  OA
ATOM      3  N   ASP C 504      81.659  25.835 -16.984  1.00 51.15 LIG-0.34  N 
ATOM      4 H    ASP C 504      81.172  25.823 -17.692  1.00 51.15 LIG 0.16  HD
ENDROOT
BRANCH 3 5
ATOM      5  CA  ASP C 504      81.024  25.223 -15.818  1.00 56.79 LIG 0.19  C 
BRANCH 5 6
ATOM      6  C   ASP C 504      81.380  26.006 -14.546  1.00 67.42 LIG 0.24  C 
ATOM      7  N   SER C 505      80.668  27.106 -14.317  1.00 81.52 LIG-0.34  N 
ATOM      8 H    SER C 505      80.048  27.391 -14.839  1.00 81.52 LIG 0.16  HD
ATOM      9 O    ASP C 504      82.273  25.618 -13.790  1.00 66.01 LIG-0.27  OA
BRANCH 7 10
ATOM     10  CA  SER C 505      80.887  27.938 -13.136  1.00 90.64 LIG 0.20  C 
BRANCH 10 11
ATOM     11  CB  SER C 505      81.145  29.386 -13.539  1.00 89.01 LIG 0.20  C 
BRANCH 11 12
ATOM     12 OG   SER C 505      81.463  29.465 -14.915  1.00 87.22 LIG-0.40  OA
ATOM     13 HG   SER C 505      82.177  29.895 -15.013  1.00 87.22 LIG 0.21  HD
ENDBRANCH 11 12
ENDBRANCH 10 11
BRANCH 10 14
ATOM     14  C   SER C 505      79.686  27.854 -12.198  1.00 98.93 LIG 0.24  C 
ATOM     15  N   GLN C 506      78.712  27.026 -12.562  1.00110.12 LIG-0.35  N 
ATOM     16 H    GLN C 506      78.784  26.445 -13.192  1.00110.12 LIG 0.16  HD
ATOM     17 O    SER C 505      79.651  28.517 -11.160  1.00 94.47 LIG-0.27  OA
BRANCH 15 18
ATOM     18  CA  GLN C 506      77.411  27.041 -11.903  1.00115.19 LIG 0.16  C 
BRANCH 18 19
ATOM     19  C   GLN C 506      77.350  26.071 -10.724  1.00118.66 LIG 0.22  C 
ATOM     20 O    GLN C 506      77.420  24.853 -10.902  1.00117.46 LIG-0.29  OA
ENDBRANCH 18 19
BRANCH 18 21
ATOM     21  CB  GLN C 506      76.315  26.715 -12.923  1.00118.15 LIG 0.04  C 
BRANCH 21 22
ATOM     22  CG  GLN C 506      74.898  27.048 -12.431  1.00119.48 LIG 0.10  C 
BRANCH 22 23
ATOM     23  CD  GLN C 506      73.807  26.186 -13.066  1.00116.76 LIG 0.21  C 
ATOM     24  NE2 GLN C 506      74.209  25.251 -13.921  1.00111.94 LIG-0.37  N 
ATOM     25 21HE GLN C 506      75.047  25.158 -14.093  1.00111.94 LIG 0.16  HD
ATOM     26 22HE GLN C 506      73.632  24.739 -14.301  1.00111.94 LIG 0.16  HD
ATOM     27 OE1  GLN C 506      72.620  26.358 -12.786  1.00116.06 LIG-0.27  OA
ENDBRANCH 22 23
ENDBRANCH 21 22
ENDBRANCH 18 21
ENDBRANCH 15 18
ENDBRANCH 10 14
ENDBRANCH 7 10
ENDBRANCH 5 6
BRANCH 5 28
ATOM     28  CB  ASP C 504      81.463  23.753 -15.697  1.00 57.84 LIG 0.15  C 
BRANCH 28 29
ATOM     29  CG  ASP C 504      82.557  23.366 -16.687  1.00 60.92 LIG 0.17  C 
ATOM     30 OD2  ASP C 504      82.274  23.360 -17.909  1.00 60.43 LIG-0.65  OA
ATOM     31 OD1  ASP C 504      83.691  23.072 -16.253  1.00 59.69 LIG-0.65  OA
ENDBRANCH 28 29
ENDBRANCH 5 28
ENDBRANCH 3 5
BRANCH 1 32
ATOM     32  CA  SER C 503      83.451  26.805 -18.277  1.00 44.19 LIG 0.20  C 
BRANCH 32 33
ATOM     33  N   SER C 503      82.963  25.952 -19.363  1.00 47.77 LIG-0.34  N 
ATOM     34 H    SER C 503      82.111  25.971 -19.478  1.00 47.77 LIG 0.16  HD
ATOM     35  C   SER C 502      83.800  25.217 -20.094  1.00 50.79 LIG 0.24  C 
ATOM     36 O    SER C 502      85.007  25.409 -20.123  1.00 48.58 LIG-0.27  OA
BRANCH 35 37
ATOM     37  CA  SER C 502      83.184  24.091 -20.905  1.00 60.54 LIG 0.20  C 
BRANCH 37 38
ATOM     38  CB  SER C 502      83.629  24.167 -22.356  1.00 53.64 LIG 0.20  C 
BRANCH 38 39
ATOM     39 OG   SER C 502      82.971  25.205 -23.044  1.00 59.09 LIG-0.40  OA
ATOM     40 HG   SER C 502      82.899  25.002 -23.855  1.00 59.09 LIG 0.21  HD
ENDBRANCH 38 39
ENDBRANCH 37 38
BRANCH 37 41
ATOM     41  N   SER C 502      81.735  24.166 -20.764  1.00 72.56 LIG-0.34  N 
ATOM     42 H    SER C 502      81.406  24.959 -20.794  1.00 72.56 LIG 0.16  HD
ATOM     43  C   GLU C 501      81.021  23.056 -20.602  1.00101.90 LIG 0.26  C 
ATOM     44 O    GLU C 501      81.451  21.945 -20.918  1.00103.22 LIG-0.27  OA
BRANCH 43 45
ATOM     45  CA  GLU C 501      79.608  23.207 -20.023  1.00101.55 LIG 0.40  C 
ATOM     46  N   GLU C 501      78.727  22.176 -20.561  1.00100.94 LIG 0.61  N 
BRANCH 45 47
ATOM     47  CB  GLU C 501      79.640  23.130 -18.494  1.00104.94 LIG 0.06  C 
BRANCH 47 48
ATOM     48  CG  GLU C 501      78.834  21.982 -17.913  1.00111.45 LIG 0.12  C 
BRANCH 48 49
ATOM     49  CD  GLU C 501      79.547  20.651 -18.036  1.00115.68 LIG 0.17  C 
ATOM     50 OE1  GLU C 501      80.771  20.648 -18.294  1.00117.56 LIG-0.65  OA
ATOM     51 OE2  GLU C 501      78.880  19.608 -17.873  1.00122.11 LIG-0.65  OA
ENDBRANCH 48 49
ENDBRANCH 47 48
ENDBRANCH 45 47
ENDBRANCH 43 45
ENDBRANCH 37 41
ENDBRANCH 35 37
ENDBRANCH 32 33
BRANCH 32 52
ATOM     52  CB  SER C 503      83.088  28.263 -18.521  1.00 49.05 LIG 0.20  C 
BRANCH 52 53
ATOM     53 OG   SER C 503      81.739  28.504 -18.162  1.00 54.59 LIG-0.40  OA
ATOM     54 HG   SER C 503      81.702  28.746 -17.358  1.00 54.59 LIG 0.21  HD
ENDBRANCH 52 53
ENDBRANCH 32 52
ENDBRANCH 1 32
TORSDOF 25
ENDMDL
MODEL 88
USER: ADFR SOLUTION from run 63
USER: SCORE 15.095873 LL:  -3.885 LR: -12.647 RR:   0.000 FEB:  -5.189
USER: RMSD 6.302072
USER: SEED 62
USER: STATUS no improvement in best in 21 clusters for 5 generations
USER: GENES 27
USER: genes 0 Translation |==|  0.75497 0.47862 0.43843
USER: genes 1 Rotation |==|  0.51836 0.12301 0.23852 0.69793
USER: genes 2 Torsion [C]-N--CA-[CB] |==|  0.88039
USER: genes 3 Torsion [N]-CA--C-[N] |==|  0.79137
USER: genes 4 Torsion [C]-N--CA-[C] |==|  0.56720
USER: genes 5 Torsion [N]-CA--CB-[OG] |==|  0.82126
USER: genes 6 Torsion [CA]-CB--OG-[HG] |==|  0.98696
USER: genes 7 Torsion [N]-CA--C-[N] |==|  0.53256
USER: genes 8 Torsion [C]-N--CA-[CB] |==|  0.39994
USER: genes 9 Torsion [N]-CA--C-[O] |==|  0.14228
USER: genes 10 Torsion [N]-CA--CB-[CG] |==|  0.51259
USER: genes 11 Torsion [CA]-CB--CG-[CD] |==|  0.70604
USER: genes 12 Torsion [CB]-CG--CD-[NE2] |==|  0.33756
USER: genes 13 Torsion [N]-CA--CB-[CG] |==|  0.55919
USER: genes 14 Torsion [CA]-CB--CG-[OD1] |==|  0.47840
USER: genes 15 Torsion [N]-C--CA-[N] |==|  0.44495
USER: genes 16 Torsion [C]-CA--N-[C] |==|  0.82222
USER: genes 17 Torsion [N]-C--CA-[N] |==|  0.35573
USER: genes 18 Torsion [C]-CA--CB-[OG] |==|  0.11162
USER: genes 19 Torsion [CA]-CB--OG-[HG] |==|  0.46417
USER: genes 20 Torsion [C]-CA--N-[C] |==|  0.83464
USER: genes 21 Torsion [N]-C--CA-[N] |==|  0.92807
USER: genes 22 Torsion [C]-CA--CB-[CG] |==|  0.66099
USER: genes 23 Torsion [CA]-CB--CG-[CD] |==|  0.19207
USER: genes 24 Torsion [CB]-CG--CD-[OE1] |==|  0.52780
USER: genes 25 Torsion [C]-CA--CB-[OG] |==|  0.96768
USER: genes 26 Torsion [CA]-CB--OG-[HG] |==|  0.17736
ROOT
ATOM      1  C   SER C 503      83.669  25.909 -15.698  1.00 42.27 LIG 0.24  C 
ATOM      2 O    SER C 503      83.065  25.624 -14.667  1.00 46.84 LIG-0.27  OA
ATOM      3  N   ASP C 504      83.782  25.083 -16.730  1.00 51.15 LIG-0.34  N 
ATOM      4 H    ASP C 504      84.120  25.315 -17.487  1.00 51.15 LIG 0.16  HD
ENDROOT
BRANCH 3 5
ATOM      5  CA  ASP C 504      83.342  23.690 -16.681  1.00 56.79 LIG 0.19  C 
BRANCH 5 6
ATOM      6  C   ASP C 504      81.819  23.608 -16.863  1.00 67.42 LIG 0.24  C 
ATOM      7  N   SER C 505      81.083  23.967 -15.816  1.00 81.52 LIG-0.34  N 
ATOM      8 H    SER C 505      81.414  24.224 -15.065  1.00 81.52 LIG 0.16  HD
ATOM      9 O    ASP C 504      81.326  23.233 -17.930  1.00 66.01 LIG-0.27  OA
BRANCH 7 10
ATOM     10  CA  SER C 505      79.623  23.955 -15.854  1.00 90.64 LIG 0.20  C 
BRANCH 10 11
ATOM     11  CB  SER C 505      79.089  22.549 -15.603  1.00 89.01 LIG 0.20  C 
BRANCH 11 12
ATOM     12 OG   SER C 505      79.487  21.679 -16.645  1.00 87.22 LIG-0.40  OA
ATOM     13 HG   SER C 505      79.889  22.117 -17.238  1.00 87.22 LIG 0.21  HD
ENDBRANCH 11 12
ENDBRANCH 10 11
BRANCH 10 14
ATOM     14  C   SER C 505      79.057  24.928 -14.824  1.00 98.93 LIG 0.24  C 
ATOM     15  N   GLN C 506      77.752  24.841 -14.585  1.00110.12 LIG-0.35  N 
ATOM     16 H    GLN C 506      77.256  24.192 -14.856  1.00110.12 LIG 0.16  HD
ATOM     17 O    SER C 505      79.792  25.733 -14.248  1.00 94.47 LIG-0.27  OA
BRANCH 15 18
ATOM     18  CA  GLN C 506      77.044  25.866 -13.828  1.00115.19 LIG 0.16  C 
BRANCH 18 19
ATOM     19  C   GLN C 506      76.967  25.534 -12.338  1.00118.66 LIG 0.22  C 
ATOM     20 O    GLN C 506      77.980  25.233 -11.704  1.00117.46 LIG-0.29  OA
ENDBRANCH 18 19
BRANCH 18 21
ATOM     21  CB  GLN C 506      75.638  26.053 -14.408  1.00118.15 LIG 0.04  C 
BRANCH 21 22
ATOM     22  CG  GLN C 506      74.846  27.192 -13.748  1.00119.48 LIG 0.10  C 
BRANCH 22 23
ATOM     23  CD  GLN C 506      73.742  26.711 -12.806  1.00116.76 LIG 0.21  C 
ATOM     24  NE2 GLN C 506      73.817  27.122 -11.544  1.00111.94 LIG-0.37  N 
ATOM     25 21HE GLN C 506      74.464  27.630 -11.295  1.00111.94 LIG 0.16  HD
ATOM     26 22HE GLN C 506      73.217  26.880 -10.977  1.00111.94 LIG 0.16  HD
ATOM     27 OE1  GLN C 506      72.835  25.984 -13.211  1.00116.06 LIG-0.27  OA
ENDBRANCH 22 23
ENDBRANCH 21 22
ENDBRANCH 18 21
ENDBRANCH 15 18
ENDBRANCH 10 14
ENDBRANCH 7 10
ENDBRANCH 5 6
BRANCH 5 28
ATOM     28  CB  ASP C 504      83.768  23.056 -15.345  1.00 57.84 LIG 0.15  C 
BRANCH 28 29
ATOM     29  CG  ASP C 504      83.827  21.533 -15.392  1.00 60.92 LIG 0.17  C 
ATOM     30 OD2  ASP C 504      83.397  20.955 -16.418  1.00 60.43 LIG-0.65  OA
ATOM     31 OD1  ASP C 504      84.301  20.914 -14.415  1.00 59.69 LIG-0.65  OA
ENDBRANCH 28 29
ENDBRANCH 5 28
ENDBRANCH 3 5
BRANCH 1 32
ATOM     32  CA  SER C 503      84.324  27.268 -15.861  1.00 44.19 LIG 0.20  C 
BRANCH 32 33
ATOM     33  N   SER C 503      83.761  28.233 -14.913  1.00 47.77 LIG-0.34  N 
ATOM     34 H    SER C 503      84.321  28.532 -14.333  1.00 47.77 LIG 0.16  HD
ATOM     35  C   SER C 502      82.481  28.595 -14.973  1.00 50.79 LIG 0.24  C 
ATOM     36 O    SER C 502      81.777  28.400 -15.954  1.00 48.58 LIG-0.27  OA
BRANCH 35 37
ATOM     37  CA  SER C 502      81.906  29.268 -13.740  1.00 60.54 LIG 0.20  C 
BRANCH 37 38
ATOM     38  CB  SER C 502      80.944  28.339 -13.019  1.00 53.64 LIG 0.20  C 
BRANCH 38 39
ATOM     39 OG   SER C 502      81.422  27.014 -13.001  1.00 59.09 LIG-0.40  OA
ATOM     40 HG   SER C 502      80.972  26.561 -12.456  1.00 59.09 LIG 0.21  HD
ENDBRANCH 38 39
ENDBRANCH 37 38
BRANCH 37 41
ATOM     41  N   SER C 502      81.271  30.514 -14.154  1.00 72.56 LIG-0.34  N 
ATOM     42 H    SER C 502      80.432  30.573 -13.975  1.00 72.56 LIG 0.16  HD
ATOM     43  C   GLU C 501      81.984  31.458 -14.761  1.00101.90 LIG 0.26  C 
ATOM     44 O    GLU C 501      83.212  31.507 -14.682  1.00103.22 LIG-0.27  OA
BRANCH 43 45
ATOM     45  CA  GLU C 501      81.212  32.519 -15.556  1.00101.55 LIG 0.40  C 
ATOM     46  N   GLU C 501      79.931  31.982 -16.005  1.00100.94 LIG 0.61  N 
BRANCH 45 47
ATOM     47  CB  GLU C 501      80.992  33.775 -14.709  1.00104.94 LIG 0.06  C 
BRANCH 47 48
ATOM     48  CG  GLU C 501      79.533  34.157 -14.533  1.00111.45 LIG 0.12  C 
BRANCH 48 49
ATOM     49  CD  GLU C 501      78.776  33.174 -13.664  1.00115.68 LIG 0.17  C 
ATOM     50 OE1  GLU C 501      77.530  33.268 -13.597  1.00117.56 LIG-0.65  OA
ATOM     51 OE2  GLU C 501      79.430  32.305 -13.049  1.00122.11 LIG-0.65  OA
ENDBRANCH 48 49
ENDBRANCH 47 48
ENDBRANCH 45 47
ENDBRANCH 43 45
ENDBRANCH 37 41
ENDBRANCH 35 37
ENDBRANCH 32 33
BRANCH 32 52
ATOM     52  CB  SER C 503      85.828  27.129 -15.672  1.00 49.05 LIG 0.20  C 
BRANCH 52 53
ATOM     53 OG   SER C 503      86.144  25.854 -15.143  1.00 54.59 LIG-0.40  OA
ATOM     54 HG   SER C 503      85.927  25.259 -15.696  1.00 54.59 LIG 0.21  HD
ENDBRANCH 52 53
ENDBRANCH 32 52
ENDBRANCH 1 32
TORSDOF 25
ENDMDL
MODEL 89
USER: ADFR SOLUTION from run 103
USER: SCORE 15.522238 LL:  -4.576 LR: -12.639 RR:   0.000 FEB:  -5.182
USER: RMSD 7.239908
USER: SEED 102
USER: STATUS no improvement in best in 7 clusters for 5 generations
USER: GENES 27
USER: genes 0 Translation |==|  0.43830 0.45424 0.50093
USER: genes 1 Rotation |==|  0.72287 0.29644 0.49033 0.89850
USER: genes 2 Torsion [C]-N--CA-[CB] |==|  0.48803
USER: genes 3 Torsion [N]-CA--C-[N] |==|  0.88388
USER: genes 4 Torsion [C]-N--CA-[C] |==|  0.85249
USER: genes 5 Torsion [N]-CA--CB-[OG] |==|  0.00456
USER: genes 6 Torsion [CA]-CB--OG-[HG] |==|  0.59248
USER: genes 7 Torsion [N]-CA--C-[N] |==|  0.87597
USER: genes 8 Torsion [C]-N--CA-[CB] |==|  0.40770
USER: genes 9 Torsion [N]-CA--C-[O] |==|  0.91867
USER: genes 10 Torsion [N]-CA--CB-[CG] |==|  0.15703
USER: genes 11 Torsion [CA]-CB--CG-[CD] |==|  0.26342
USER: genes 12 Torsion [CB]-CG--CD-[NE2] |==|  0.10551
USER: genes 13 Torsion [N]-CA--CB-[CG] |==|  0.57030
USER: genes 14 Torsion [CA]-CB--CG-[OD1] |==|  0.13284
USER: genes 15 Torsion [N]-C--CA-[N] |==|  0.09380
USER: genes 16 Torsion [C]-CA--N-[C] |==|  0.68889
USER: genes 17 Torsion [N]-C--CA-[N] |==|  0.01270
USER: genes 18 Torsion [C]-CA--CB-[OG] |==|  0.95424
USER: genes 19 Torsion [CA]-CB--OG-[HG] |==|  0.74485
USER: genes 20 Torsion [C]-CA--N-[C] |==|  0.74284
USER: genes 21 Torsion [N]-C--CA-[N] |==|  0.28880
USER: genes 22 Torsion [C]-CA--CB-[CG] |==|  0.80949
USER: genes 23 Torsion [CA]-CB--CG-[CD] |==|  0.75454
USER: genes 24 Torsion [CB]-CG--CD-[OE1] |==|  0.05989
USER: genes 25 Torsion [C]-CA--CB-[OG] |==|  0.57366
USER: genes 26 Torsion [CA]-CB--OG-[HG] |==|  0.22401
ROOT
ATOM      1  C   SER C 503      78.207  25.397 -14.527  1.00 42.27 LIG 0.24  C 
ATOM      2 O    SER C 503      78.775  25.238 -13.449  1.00 46.84 LIG-0.27  OA
ATOM      3  N   ASP C 504      78.789  25.180 -15.698  1.00 51.15 LIG-0.34  N 
ATOM      4 H    ASP C 504      78.366  25.197 -16.447  1.00 51.15 LIG 0.16  HD
ENDROOT
BRANCH 3 5
ATOM      5  CA  ASP C 504      80.216  24.890 -15.831  1.00 56.79 LIG 0.19  C 
BRANCH 5 6
ATOM      6  C   ASP C 504      81.049  26.073 -15.316  1.00 67.42 LIG 0.24  C 
ATOM      7  N   SER C 505      80.616  27.284 -15.652  1.00 81.52 LIG-0.34  N 
ATOM      8 H    SER C 505      79.920  27.426 -16.137  1.00 81.52 LIG 0.16  HD
ATOM      9 O    ASP C 504      82.054  25.889 -14.627  1.00 66.01 LIG-0.27  OA
BRANCH 7 10
ATOM     10  CA  SER C 505      81.300  28.500 -15.217  1.00 90.64 LIG 0.20  C 
BRANCH 10 11
ATOM     11  CB  SER C 505      80.526  29.739 -15.653  1.00 89.01 LIG 0.20  C 
BRANCH 11 12
ATOM     12 OG   SER C 505      79.339  29.366 -16.328  1.00 87.22 LIG-0.40  OA
ATOM     13 HG   SER C 505      79.166  29.931 -16.924  1.00 87.22 LIG 0.21  HD
ENDBRANCH 11 12
ENDBRANCH 10 11
BRANCH 10 14
ATOM     14  C   SER C 505      81.479  28.494 -13.701  1.00 98.93 LIG 0.24  C 
ATOM     15  N   GLN C 506      80.423  28.122 -12.985  1.00110.12 LIG-0.35  N 
ATOM     16 H    GLN C 506      79.721  27.754 -13.318  1.00110.12 LIG 0.16  HD
ATOM     17 O    SER C 505      82.558  28.808 -13.194  1.00 94.47 LIG-0.27  OA
BRANCH 15 18
ATOM     18  CA  GLN C 506      80.374  28.315 -11.540  1.00115.19 LIG 0.16  C 
BRANCH 18 19
ATOM     19  C   GLN C 506      80.931  27.114 -10.777  1.00118.66 LIG 0.22  C 
ATOM     20 O    GLN C 506      80.860  25.977 -11.247  1.00117.46 LIG-0.29  OA
ENDBRANCH 18 19
BRANCH 18 21
ATOM     21  CB  GLN C 506      78.931  28.602 -11.110  1.00118.15 LIG 0.04  C 
BRANCH 21 22
ATOM     22  CG  GLN C 506      77.935  27.510 -11.528  1.00119.48 LIG 0.10  C 
BRANCH 22 23
ATOM     23  CD  GLN C 506      77.674  26.465 -10.443  1.00116.76 LIG 0.21  C 
ATOM     24  NE2 GLN C 506      77.613  26.909  -9.192  1.00111.94 LIG-0.37  N 
ATOM     25 21HE GLN C 506      77.721  27.747  -9.028  1.00111.94 LIG 0.16  HD
ATOM     26 22HE GLN C 506      77.465  26.360  -8.548  1.00111.94 LIG 0.16  HD
ATOM     27 OE1  GLN C 506      77.525  25.277 -10.730  1.00116.06 LIG-0.27  OA
ENDBRANCH 22 23
ENDBRANCH 21 22
ENDBRANCH 18 21
ENDBRANCH 15 18
ENDBRANCH 10 14
ENDBRANCH 7 10
ENDBRANCH 5 6
BRANCH 5 28
ATOM     28  CB  ASP C 504      80.550  24.584 -17.302  1.00 57.84 LIG 0.15  C 
BRANCH 28 29
ATOM     29  CG  ASP C 504      81.786  23.707 -17.470  1.00 60.92 LIG 0.17  C 
ATOM     30 OD2  ASP C 504      82.655  24.061 -18.303  1.00 60.43 LIG-0.65  OA
ATOM     31 OD1  ASP C 504      81.896  22.673 -16.776  1.00 59.69 LIG-0.65  OA
ENDBRANCH 28 29
ENDBRANCH 5 28
ENDBRANCH 3 5
BRANCH 1 32
ATOM     32  CA  SER C 503      76.758  25.846 -14.578  1.00 44.19 LIG 0.20  C 
BRANCH 32 33
ATOM     33  N   SER C 503      76.064  25.230 -15.711  1.00 47.77 LIG-0.34  N 
ATOM     34 H    SER C 503      75.952  24.380 -15.643  1.00 47.77 LIG 0.16  HD
ATOM     35  C   SER C 502      75.652  25.957 -16.749  1.00 50.79 LIG 0.24  C 
ATOM     36 O    SER C 502      75.550  27.175 -16.712  1.00 48.58 LIG-0.27  OA
BRANCH 35 37
ATOM     37  CA  SER C 502      75.314  25.199 -18.019  1.00 60.54 LIG 0.20  C 
BRANCH 37 38
ATOM     38  CB  SER C 502      73.932  25.580 -18.522  1.00 53.64 LIG 0.20  C 
BRANCH 38 39
ATOM     39 OG   SER C 502      73.179  26.227 -17.522  1.00 59.09 LIG-0.40  OA
ATOM     40 HG   SER C 502      72.729  25.659 -17.098  1.00 59.09 LIG 0.21  HD
ENDBRANCH 38 39
ENDBRANCH 37 38
BRANCH 37 41
ATOM     41  N   SER C 502      75.431  23.772 -17.744  1.00 72.56 LIG-0.34  N 
ATOM     42 H    SER C 502      74.721  23.401 -17.431  1.00 72.56 LIG 0.16  HD
ATOM     43  C   GLU C 501      76.576  23.138 -17.979  1.00101.90 LIG 0.26  C 
ATOM     44 O    GLU C 501      77.432  23.588 -18.742  1.00103.22 LIG-0.27  OA
BRANCH 43 45
ATOM     45  CA  GLU C 501      76.790  21.791 -17.276  1.00101.55 LIG 0.40  C 
ATOM     46  N   GLU C 501      76.599  20.693 -18.218  1.00100.94 LIG 0.61  N 
BRANCH 45 47
ATOM     47  CB  GLU C 501      78.189  21.721 -16.658  1.00104.94 LIG 0.06  C 
BRANCH 47 48
ATOM     48  CG  GLU C 501      79.315  21.658 -17.676  1.00111.45 LIG 0.12  C 
BRANCH 48 49
ATOM     49  CD  GLU C 501      79.646  20.239 -18.089  1.00115.68 LIG 0.17  C 
ATOM     50 OE1  GLU C 501      78.781  19.350 -17.928  1.00117.56 LIG-0.65  OA
ATOM     51 OE2  GLU C 501      80.774  20.015 -18.577  1.00122.11 LIG-0.65  OA
ENDBRANCH 48 49
ENDBRANCH 47 48
ENDBRANCH 45 47
ENDBRANCH 43 45
ENDBRANCH 37 41
ENDBRANCH 35 37
ENDBRANCH 32 33
BRANCH 32 52
ATOM     52  CB  SER C 503      76.075  25.498 -13.263  1.00 49.05 LIG 0.20  C 
BRANCH 52 53
ATOM     53 OG   SER C 503      74.683  25.325 -13.459  1.00 54.59 LIG-0.40  OA
ATOM     54 HG   SER C 503      74.536  24.557 -13.765  1.00 54.59 LIG 0.21  HD
ENDBRANCH 52 53
ENDBRANCH 32 52
ENDBRANCH 1 32
TORSDOF 25
ENDMDL
MODEL 90
USER: ADFR SOLUTION from run 115
USER: SCORE 16.081157 LL:  -5.318 LR: -12.631 RR:   0.000 FEB:  -5.174
USER: RMSD 7.360057
USER: SEED 114
USER: STATUS no improvement in best in 5 clusters for 5 generations
USER: GENES 27
USER: genes 0 Translation |==|  0.66649 0.52821 0.46514
USER: genes 1 Rotation |==|  0.49023 0.23326 0.50747 0.92273
USER: genes 2 Torsion [C]-N--CA-[CB] |==|  0.47985
USER: genes 3 Torsion [N]-CA--C-[N] |==|  0.96326
USER: genes 4 Torsion [C]-N--CA-[C] |==|  0.78079
USER: genes 5 Torsion [N]-CA--CB-[OG] |==|  0.90497
USER: genes 6 Torsion [CA]-CB--OG-[HG] |==|  0.93330
USER: genes 7 Torsion [N]-CA--C-[N] |==|  0.91667
USER: genes 8 Torsion [C]-N--CA-[CB] |==|  0.42837
USER: genes 9 Torsion [N]-CA--C-[O] |==|  0.05730
USER: genes 10 Torsion [N]-CA--CB-[CG] |==|  0.63386
USER: genes 11 Torsion [CA]-CB--CG-[CD] |==|  0.85015
USER: genes 12 Torsion [CB]-CG--CD-[NE2] |==|  0.74404
USER: genes 13 Torsion [N]-CA--CB-[CG] |==|  0.03122
USER: genes 14 Torsion [CA]-CB--CG-[OD1] |==|  0.17813
USER: genes 15 Torsion [N]-C--CA-[N] |==|  0.13228
USER: genes 16 Torsion [C]-CA--N-[C] |==|  0.15095
USER: genes 17 Torsion [N]-C--CA-[N] |==|  0.20071
USER: genes 18 Torsion [C]-CA--CB-[OG] |==|  0.69582
USER: genes 19 Torsion [CA]-CB--OG-[HG] |==|  0.67178
USER: genes 20 Torsion [C]-CA--N-[C] |==|  0.76664
USER: genes 21 Torsion [N]-C--CA-[N] |==|  0.72721
USER: genes 22 Torsion [C]-CA--CB-[CG] |==|  0.43706
USER: genes 23 Torsion [CA]-CB--CG-[CD] |==|  0.18923
USER: genes 24 Torsion [CB]-CG--CD-[OE1] |==|  0.28419
USER: genes 25 Torsion [C]-CA--CB-[OG] |==|  0.55579
USER: genes 26 Torsion [CA]-CB--OG-[HG] |==|  0.10901
ROOT
ATOM      1  C   SER C 503      82.143  26.950 -15.198  1.00 42.27 LIG 0.24  C 
ATOM      2 O    SER C 503      82.602  27.500 -14.199  1.00 46.84 LIG-0.27  OA
ATOM      3  N   ASP C 504      82.535  25.755 -15.619  1.00 51.15 LIG-0.34  N 
ATOM      4 H    ASP C 504      82.148  25.328 -16.257  1.00 51.15 LIG 0.16  HD
ENDROOT
BRANCH 3 5
ATOM      5  CA  ASP C 504      83.670  25.043 -15.034  1.00 56.79 LIG 0.19  C 
BRANCH 5 6
ATOM      6  C   ASP C 504      84.972  25.814 -15.294  1.00 67.42 LIG 0.24  C 
ATOM      7  N   SER C 505      84.905  26.789 -16.195  1.00 81.52 LIG-0.34  N 
ATOM      8 H    SER C 505      84.191  26.990 -16.629  1.00 81.52 LIG 0.16  HD
ATOM      9 O    ASP C 504      86.008  25.533 -14.688  1.00 66.01 LIG-0.27  OA
BRANCH 7 10
ATOM     10  CA  SER C 505      86.062  27.616 -16.530  1.00 90.64 LIG 0.20  C 
BRANCH 10 11
ATOM     11  CB  SER C 505      85.883  28.264 -17.898  1.00 89.01 LIG 0.20  C 
BRANCH 11 12
ATOM     12 OG   SER C 505      85.175  27.397 -18.764  1.00 87.22 LIG-0.40  OA
ATOM     13 HG   SER C 505      85.270  26.604 -18.506  1.00 87.22 LIG 0.21  HD
ENDBRANCH 11 12
ENDBRANCH 10 11
BRANCH 10 14
ATOM     14  C   SER C 505      86.278  28.683 -15.462  1.00 98.93 LIG 0.24  C 
ATOM     15  N   GLN C 506      85.190  29.114 -14.831  1.00110.12 LIG-0.35  N 
ATOM     16 H    GLN C 506      84.421  28.731 -14.882  1.00110.12 LIG 0.16  HD
ATOM     17 O    SER C 505      87.410  29.099 -15.206  1.00 94.47 LIG-0.27  OA
BRANCH 15 18
ATOM     18  CA  GLN C 506      85.218  30.299 -13.982  1.00115.19 LIG 0.16  C 
BRANCH 18 19
ATOM     19  C   GLN C 506      85.729  29.990 -12.575  1.00118.66 LIG 0.22  C 
ATOM     20 O    GLN C 506      86.405  28.983 -12.354  1.00117.46 LIG-0.29  OA
ENDBRANCH 18 19
BRANCH 18 21
ATOM     21  CB  GLN C 506      83.817  30.918 -13.919  1.00118.15 LIG 0.04  C 
BRANCH 21 22
ATOM     22  CG  GLN C 506      83.804  32.434 -14.164  1.00119.48 LIG 0.10  C 
BRANCH 22 23
ATOM     23  CD  GLN C 506      84.745  33.216 -13.246  1.00116.76 LIG 0.21  C 
ATOM     24  NE2 GLN C 506      84.224  33.678 -12.114  1.00111.94 LIG-0.37  N 
ATOM     25 21HE GLN C 506      83.396  33.533 -11.932  1.00111.94 LIG 0.16  HD
ATOM     26 22HE GLN C 506      84.714  34.121 -11.565  1.00111.94 LIG 0.16  HD
ATOM     27 OE1  GLN C 506      85.923  33.396 -13.553  1.00116.06 LIG-0.27  OA
ENDBRANCH 22 23
ENDBRANCH 21 22
ENDBRANCH 18 21
ENDBRANCH 15 18
ENDBRANCH 10 14
ENDBRANCH 7 10
ENDBRANCH 5 6
BRANCH 5 28
ATOM     28  CB  ASP C 504      83.749  23.621 -15.616  1.00 57.84 LIG 0.15  C 
BRANCH 28 29
ATOM     29  CG  ASP C 504      82.833  23.408 -16.817  1.00 60.92 LIG 0.17  C 
ATOM     30 OD2  ASP C 504      81.897  22.580 -16.708  1.00 60.43 LIG-0.65  OA
ATOM     31 OD1  ASP C 504      83.041  24.061 -17.862  1.00 59.69 LIG-0.65  OA
ENDBRANCH 28 29
ENDBRANCH 5 28
ENDBRANCH 3 5
BRANCH 1 32
ATOM     32  CA  SER C 503      81.057  27.620 -16.019  1.00 44.19 LIG 0.20  C 
BRANCH 32 33
ATOM     33  N   SER C 503      79.960  26.687 -16.289  1.00 47.77 LIG-0.34  N 
ATOM     34 H    SER C 503      79.763  26.599 -17.122  1.00 47.77 LIG 0.16  HD
ATOM     35  C   SER C 502      79.341  26.042 -15.301  1.00 50.79 LIG 0.24  C 
ATOM     36 O    SER C 502      79.804  25.945 -14.174  1.00 48.58 LIG-0.27  OA
BRANCH 35 37
ATOM     37  CA  SER C 502      77.994  25.425 -15.632  1.00 60.54 LIG 0.20  C 
BRANCH 37 38
ATOM     38  CB  SER C 502      77.237  25.076 -14.362  1.00 53.64 LIG 0.20  C 
BRANCH 38 39
ATOM     39 OG   SER C 502      77.162  23.682 -14.172  1.00 59.09 LIG-0.40  OA
ATOM     40 HG   SER C 502      76.358  23.441 -14.180  1.00 59.09 LIG 0.21  HD
ENDBRANCH 38 39
ENDBRANCH 37 38
BRANCH 37 41
ATOM     41  N   SER C 502      78.221  24.262 -16.481  1.00 72.56 LIG-0.34  N 
ATOM     42 H    SER C 502      78.249  23.508 -16.068  1.00 72.56 LIG 0.16  HD
ATOM     43  C   GLU C 501      78.367  24.411 -17.794  1.00101.90 LIG 0.26  C 
ATOM     44 O    GLU C 501      77.973  25.415 -18.390  1.00103.22 LIG-0.27  OA
BRANCH 43 45
ATOM     45  CA  GLU C 501      79.032  23.262 -18.562  1.00101.55 LIG 0.40  C 
ATOM     46  N   GLU C 501      80.446  23.551 -18.783  1.00100.94 LIG 0.61  N 
BRANCH 45 47
ATOM     47  CB  GLU C 501      78.875  21.942 -17.802  1.00104.94 LIG 0.06  C 
BRANCH 47 48
ATOM     48  CG  GLU C 501      78.995  20.705 -18.674  1.00111.45 LIG 0.12  C 
BRANCH 48 49
ATOM     49  CD  GLU C 501      80.398  20.505 -19.210  1.00115.68 LIG 0.17  C 
ATOM     50 OE1  GLU C 501      81.130  19.647 -18.669  1.00117.56 LIG-0.65  OA
ATOM     51 OE2  GLU C 501      80.766  21.209 -20.174  1.00122.11 LIG-0.65  OA
ENDBRANCH 48 49
ENDBRANCH 47 48
ENDBRANCH 45 47
ENDBRANCH 43 45
ENDBRANCH 37 41
ENDBRANCH 35 37
ENDBRANCH 32 33
BRANCH 32 52
ATOM     52  CB  SER C 503      80.555  28.854 -15.281  1.00 49.05 LIG 0.20  C 
BRANCH 52 53
ATOM     53 OG   SER C 503      79.275  29.229 -15.758  1.00 54.59 LIG-0.40  OA
ATOM     54 HG   SER C 503      78.816  28.540 -15.902  1.00 54.59 LIG 0.21  HD
ENDBRANCH 52 53
ENDBRANCH 32 52
ENDBRANCH 1 32
TORSDOF 25
ENDMDL
MODEL 91
USER: ADFR SOLUTION from run 130
USER: SCORE 14.733240 LL:  -3.974 LR: -12.621 RR:   0.000 FEB:  -5.163
USER: RMSD 5.828059
USER: SEED 129
USER: STATUS no improvement in best in 2 clusters for 5 generations
USER: GENES 27
USER: genes 0 Translation |==|  0.68681 0.55676 0.45127
USER: genes 1 Rotation |==|  0.59199 0.32517 0.15772 0.80629
USER: genes 2 Torsion [C]-N--CA-[CB] |==|  0.90935
USER: genes 3 Torsion [N]-CA--C-[N] |==|  0.80577
USER: genes 4 Torsion [C]-N--CA-[C] |==|  0.73567
USER: genes 5 Torsion [N]-CA--CB-[OG] |==|  0.54213
USER: genes 6 Torsion [CA]-CB--OG-[HG] |==|  0.81312
USER: genes 7 Torsion [N]-CA--C-[N] |==|  0.71470
USER: genes 8 Torsion [C]-N--CA-[CB] |==|  0.16234
USER: genes 9 Torsion [N]-CA--C-[O] |==|  0.01490
USER: genes 10 Torsion [N]-CA--CB-[CG] |==|  0.58873
USER: genes 11 Torsion [CA]-CB--CG-[CD] |==|  0.68625
USER: genes 12 Torsion [CB]-CG--CD-[NE2] |==|  0.30121
USER: genes 13 Torsion [N]-CA--CB-[CG] |==|  0.47468
USER: genes 14 Torsion [CA]-CB--CG-[OD1] |==|  0.21715
USER: genes 15 Torsion [N]-C--CA-[N] |==|  0.37520
USER: genes 16 Torsion [C]-CA--N-[C] |==|  0.85752
USER: genes 17 Torsion [N]-C--CA-[N] |==|  0.44964
USER: genes 18 Torsion [C]-CA--CB-[OG] |==|  0.96569
USER: genes 19 Torsion [CA]-CB--OG-[HG] |==|  0.37265
USER: genes 20 Torsion [C]-CA--N-[C] |==|  0.79237
USER: genes 21 Torsion [N]-C--CA-[N] |==|  0.34691
USER: genes 22 Torsion [C]-CA--CB-[CG] |==|  0.84076
USER: genes 23 Torsion [CA]-CB--CG-[CD] |==|  0.28251
USER: genes 24 Torsion [CB]-CG--CD-[OE1] |==|  0.15853
USER: genes 25 Torsion [C]-CA--CB-[OG] |==|  0.62746
USER: genes 26 Torsion [CA]-CB--OG-[HG] |==|  0.46334
ROOT
ATOM      1  C   SER C 503      82.493  27.550 -15.458  1.00 42.27 LIG 0.24  C 
ATOM      2 O    SER C 503      82.627  26.467 -14.892  1.00 46.84 LIG-0.27  OA
ATOM      3  N   ASP C 504      82.085  27.673 -16.714  1.00 51.15 LIG-0.34  N 
ATOM      4 H    ASP C 504      81.899  28.429 -17.079  1.00 51.15 LIG 0.16  HD
ENDROOT
BRANCH 3 5
ATOM      5  CA  ASP C 504      81.911  26.526 -17.605  1.00 56.79 LIG 0.19  C 
BRANCH 5 6
ATOM      6  C   ASP C 504      80.482  25.978 -17.492  1.00 67.42 LIG 0.24  C 
ATOM      7  N   SER C 505      80.177  25.368 -16.350  1.00 81.52 LIG-0.34  N 
ATOM      8 H    SER C 505      80.731  25.264 -15.701  1.00 81.52 LIG 0.16  HD
ATOM      9 O    ASP C 504      79.676  26.110 -18.416  1.00 66.01 LIG-0.27  OA
BRANCH 7 10
ATOM     10  CA  SER C 505      78.848  24.814 -16.098  1.00 90.64 LIG 0.20  C 
BRANCH 10 11
ATOM     11  CB  SER C 505      78.949  23.507 -15.320  1.00 89.01 LIG 0.20  C 
BRANCH 11 12
ATOM     12 OG   SER C 505      77.723  22.803 -15.378  1.00 87.22 LIG-0.40  OA
ATOM     13 HG   SER C 505      77.136  23.230 -14.956  1.00 87.22 LIG 0.21  HD
ENDBRANCH 11 12
ENDBRANCH 10 11
BRANCH 10 14
ATOM     14  C   SER C 505      77.990  25.819 -15.336  1.00 98.93 LIG 0.24  C 
ATOM     15  N   GLN C 506      77.835  25.594 -14.035  1.00110.12 LIG-0.35  N 
ATOM     16 H    GLN C 506      78.296  25.023 -13.587  1.00110.12 LIG 0.16  HD
ATOM     17 O    SER C 505      77.489  26.786 -15.915  1.00 94.47 LIG-0.27  OA
BRANCH 15 18
ATOM     18  CA  GLN C 506      76.844  26.319 -13.248  1.00115.19 LIG 0.16  C 
BRANCH 18 19
ATOM     19  C   GLN C 506      76.874  25.921 -11.773  1.00118.66 LIG 0.22  C 
ATOM     20 O    GLN C 506      77.734  25.150 -11.342  1.00117.46 LIG-0.29  OA
ENDBRANCH 18 19
BRANCH 18 21
ATOM     21  CB  GLN C 506      75.449  26.084 -13.838  1.00118.15 LIG 0.04  C 
BRANCH 21 22
ATOM     22  CG  GLN C 506      74.500  27.280 -13.667  1.00119.48 LIG 0.10  C 
BRANCH 22 23
ATOM     23  CD  GLN C 506      73.326  27.006 -12.726  1.00116.76 LIG 0.21  C 
ATOM     24  NE2 GLN C 506      73.358  27.613 -11.544  1.00111.94 LIG-0.37  N 
ATOM     25 21HE GLN C 506      74.018  28.126 -11.342  1.00111.94 LIG 0.16  HD
ATOM     26 22HE GLN C 506      72.719  27.492 -10.981  1.00111.94 LIG 0.16  HD
ATOM     27 OE1  GLN C 506      72.404  26.263 -13.062  1.00116.06 LIG-0.27  OA
ENDBRANCH 22 23
ENDBRANCH 21 22
ENDBRANCH 18 21
ENDBRANCH 15 18
ENDBRANCH 10 14
ENDBRANCH 7 10
ENDBRANCH 5 6
BRANCH 5 28
ATOM     28  CB  ASP C 504      82.944  25.438 -17.262  1.00 57.84 LIG 0.15  C 
BRANCH 28 29
ATOM     29  CG  ASP C 504      82.698  24.122 -17.990  1.00 60.92 LIG 0.17  C 
ATOM     30 OD2  ASP C 504      82.157  23.186 -17.354  1.00 60.43 LIG-0.65  OA
ATOM     31 OD1  ASP C 504      83.039  24.018 -19.188  1.00 59.69 LIG-0.65  OA
ENDBRANCH 28 29
ENDBRANCH 5 28
ENDBRANCH 3 5
BRANCH 1 32
ATOM     32  CA  SER C 503      82.780  28.847 -14.723  1.00 44.19 LIG 0.20  C 
BRANCH 32 33
ATOM     33  N   SER C 503      82.202  28.820 -13.377  1.00 47.77 LIG-0.34  N 
ATOM     34 H    SER C 503      82.751  29.026 -12.748  1.00 47.77 LIG 0.16  HD
ATOM     35  C   SER C 502      80.925  28.497 -13.179  1.00 50.79 LIG 0.24  C 
ATOM     36 O    SER C 502      80.091  28.492 -14.073  1.00 48.58 LIG-0.27  OA
BRANCH 35 37
ATOM     37  CA  SER C 502      80.532  28.113 -11.764  1.00 60.54 LIG 0.20  C 
BRANCH 37 38
ATOM     38  CB  SER C 502      81.040  26.722 -11.424  1.00 53.64 LIG 0.20  C 
BRANCH 38 39
ATOM     39 OG   SER C 502      81.489  26.041 -12.572  1.00 59.09 LIG-0.40  OA
ATOM     40 HG   SER C 502      82.229  25.678 -12.411  1.00 59.09 LIG 0.21  HD
ENDBRANCH 38 39
ENDBRANCH 37 38
BRANCH 37 41
ATOM     41  N   SER C 502      79.083  28.220 -11.648  1.00 72.56 LIG-0.34  N 
ATOM     42 H    SER C 502      78.661  27.471 -11.636  1.00 72.56 LIG 0.16  HD
ATOM     43  C   GLU C 501      78.505  29.415 -11.567  1.00101.90 LIG 0.26  C 
ATOM     44 O    GLU C 501      79.125  30.423 -11.227  1.00103.22 LIG-0.27  OA
BRANCH 43 45
ATOM     45  CA  GLU C 501      77.008  29.494 -11.893  1.00101.55 LIG 0.40  C 
ATOM     46  N   GLU C 501      76.280  30.100 -10.782  1.00100.94 LIG 0.61  N 
BRANCH 45 47
ATOM     47  CB  GLU C 501      76.777  30.296 -13.177  1.00104.94 LIG 0.06  C 
BRANCH 47 48
ATOM     48  CG  GLU C 501      77.336  31.707 -13.137  1.00111.45 LIG 0.12  C 
BRANCH 48 49
ATOM     49  CD  GLU C 501      78.647  31.834 -13.887  1.00115.68 LIG 0.17  C 
ATOM     50 OE1  GLU C 501      78.681  31.508 -15.094  1.00117.56 LIG-0.65  OA
ATOM     51 OE2  GLU C 501      79.643  32.260 -13.265  1.00122.11 LIG-0.65  OA
ENDBRANCH 48 49
ENDBRANCH 47 48
ENDBRANCH 45 47
ENDBRANCH 43 45
ENDBRANCH 37 41
ENDBRANCH 35 37
ENDBRANCH 32 33
BRANCH 32 52
ATOM     52  CB  SER C 503      84.284  29.074 -14.668  1.00 49.05 LIG 0.20  C 
BRANCH 52 53
ATOM     53 OG   SER C 503      84.679  29.460 -13.364  1.00 54.59 LIG-0.40  OA
ATOM     54 HG   SER C 503      85.515  29.407 -13.297  1.00 54.59 LIG 0.21  HD
ENDBRANCH 52 53
ENDBRANCH 32 52
ENDBRANCH 1 32
TORSDOF 25
ENDMDL
MODEL 92
USER: ADFR SOLUTION from run 180
USER: SCORE 15.455559 LL:  -5.317 LR: -12.624 RR:   0.000 FEB:  -5.167
USER: RMSD 5.358310
USER: SEED 179
USER: STATUS no improvement in best in 5 clusters for 5 generations
USER: GENES 27
USER: genes 0 Translation |==|  0.56674 0.54419 0.46519
USER: genes 1 Rotation |==|  0.42847 0.33810 0.43238 0.96271
USER: genes 2 Torsion [C]-N--CA-[CB] |==|  0.52159
USER: genes 3 Torsion [N]-CA--C-[N] |==|  0.91396
USER: genes 4 Torsion [C]-N--CA-[C] |==|  0.82208
USER: genes 5 Torsion [N]-CA--CB-[OG] |==|  0.00238
USER: genes 6 Torsion [CA]-CB--OG-[HG] |==|  0.18719
USER: genes 7 Torsion [N]-CA--C-[N] |==|  0.43837
USER: genes 8 Torsion [C]-N--CA-[CB] |==|  0.82923
USER: genes 9 Torsion [N]-CA--C-[O] |==|  0.05324
USER: genes 10 Torsion [N]-CA--CB-[CG] |==|  0.38320
USER: genes 11 Torsion [CA]-CB--CG-[CD] |==|  0.63913
USER: genes 12 Torsion [CB]-CG--CD-[NE2] |==|  0.16454
USER: genes 13 Torsion [N]-CA--CB-[CG] |==|  0.38015
USER: genes 14 Torsion [CA]-CB--CG-[OD1] |==|  0.78689
USER: genes 15 Torsion [N]-C--CA-[N] |==|  0.28889
USER: genes 16 Torsion [C]-CA--N-[C] |==|  0.21370
USER: genes 17 Torsion [N]-C--CA-[N] |==|  0.28372
USER: genes 18 Torsion [C]-CA--CB-[OG] |==|  0.98063
USER: genes 19 Torsion [CA]-CB--OG-[HG] |==|  0.14033
USER: genes 20 Torsion [C]-CA--N-[C] |==|  0.75958
USER: genes 21 Torsion [N]-C--CA-[N] |==|  0.43642
USER: genes 22 Torsion [C]-CA--CB-[CG] |==|  0.92557
USER: genes 23 Torsion [CA]-CB--CG-[CD] |==|  0.79177
USER: genes 24 Torsion [CB]-CG--CD-[OE1] |==|  0.49541
USER: genes 25 Torsion [C]-CA--CB-[OG] |==|  0.12583
USER: genes 26 Torsion [CA]-CB--OG-[HG] |==|  0.78615
ROOT
ATOM      1  C   SER C 503      80.422  27.286 -15.197  1.00 42.27 LIG 0.24  C 
ATOM      2 O    SER C 503      81.426  27.577 -14.550  1.00 46.84 LIG-0.27  OA
ATOM      3  N   ASP C 504      80.130  26.048 -15.574  1.00 51.15 LIG-0.34  N 
ATOM      4 H    ASP C 504      79.383  25.830 -15.940  1.00 51.15 LIG 0.16  HD
ENDROOT
BRANCH 3 5
ATOM      5  CA  ASP C 504      81.055  24.930 -15.403  1.00 56.79 LIG 0.19  C 
BRANCH 5 6
ATOM      6  C   ASP C 504      82.442  25.299 -15.951  1.00 67.42 LIG 0.24  C 
ATOM      7  N   SER C 505      82.460  26.148 -16.974  1.00 81.52 LIG-0.34  N 
ATOM      8 H    SER C 505      81.753  26.478 -17.334  1.00 81.52 LIG 0.16  HD
ATOM      9 O    ASP C 504      83.467  24.828 -15.453  1.00 66.01 LIG-0.27  OA
BRANCH 7 10
ATOM     10  CA  SER C 505      83.709  26.600 -17.583  1.00 90.64 LIG 0.20  C 
BRANCH 10 11
ATOM     11  CB  SER C 505      83.429  27.436 -18.826  1.00 89.01 LIG 0.20  C 
BRANCH 11 12
ATOM     12 OG   SER C 505      82.035  27.559 -19.034  1.00 87.22 LIG-0.40  OA
ATOM     13 HG   SER C 505      81.700  28.020 -18.418  1.00 87.22 LIG 0.21  HD
ENDBRANCH 11 12
ENDBRANCH 10 11
BRANCH 10 14
ATOM     14  C   SER C 505      84.530  27.402 -16.578  1.00 98.93 LIG 0.24  C 
ATOM     15  N   GLN C 506      85.836  27.483 -16.814  1.00110.12 LIG-0.35  N 
ATOM     16 H    GLN C 506      86.207  27.246 -17.554  1.00110.12 LIG 0.16  HD
ATOM     17 O    SER C 505      83.988  27.948 -15.614  1.00 94.47 LIG-0.27  OA
BRANCH 15 18
ATOM     18  CA  GLN C 506      86.764  27.992 -15.812  1.00115.19 LIG 0.16  C 
BRANCH 18 19
ATOM     19  C   GLN C 506      86.772  27.139 -14.544  1.00118.66 LIG 0.22  C 
ATOM     20 O    GLN C 506      86.343  25.983 -14.557  1.00117.46 LIG-0.29  OA
ENDBRANCH 18 19
BRANCH 18 21
ATOM     21  CB  GLN C 506      86.410  29.445 -15.477  1.00118.15 LIG 0.04  C 
BRANCH 21 22
ATOM     22  CG  GLN C 506      86.483  29.767 -13.977  1.00119.48 LIG 0.10  C 
BRANCH 22 23
ATOM     23  CD  GLN C 506      85.236  30.467 -13.434  1.00116.76 LIG 0.21  C 
ATOM     24  NE2 GLN C 506      84.085  29.815 -13.562  1.00111.94 LIG-0.37  N 
ATOM     25 21HE GLN C 506      84.069  29.041 -13.937  1.00111.94 LIG 0.16  HD
ATOM     26 22HE GLN C 506      83.357  30.166 -13.270  1.00111.94 LIG 0.16  HD
ATOM     27 OE1  GLN C 506      85.312  31.576 -12.905  1.00116.06 LIG-0.27  OA
ENDBRANCH 22 23
ENDBRANCH 21 22
ENDBRANCH 18 21
ENDBRANCH 15 18
ENDBRANCH 10 14
ENDBRANCH 7 10
ENDBRANCH 5 6
BRANCH 5 28
ATOM     28  CB  ASP C 504      80.501  23.681 -16.112  1.00 57.84 LIG 0.15  C 
BRANCH 28 29
ATOM     29  CG  ASP C 504      81.558  22.913 -16.897  1.00 60.92 LIG 0.17  C 
ATOM     30 OD2  ASP C 504      82.008  21.852 -16.402  1.00 60.43 LIG-0.65  OA
ATOM     31 OD1  ASP C 504      81.938  23.359 -18.001  1.00 59.69 LIG-0.65  OA
ENDBRANCH 28 29
ENDBRANCH 5 28
ENDBRANCH 3 5
BRANCH 1 32
ATOM     32  CA  SER C 503      79.422  28.355 -15.595  1.00 44.19 LIG 0.20  C 
BRANCH 32 33
ATOM     33  N   SER C 503      78.609  28.760 -14.446  1.00 47.77 LIG-0.34  N 
ATOM     34 H    SER C 503      77.813  28.433 -14.438  1.00 47.77 LIG 0.16  HD
ATOM     35  C   SER C 502      79.094  29.570 -13.506  1.00 50.79 LIG 0.24  C 
ATOM     36 O    SER C 502      80.288  29.791 -13.367  1.00 48.58 LIG-0.27  OA
BRANCH 35 37
ATOM     37  CA  SER C 502      78.080  30.237 -12.595  1.00 60.54 LIG 0.20  C 
BRANCH 37 38
ATOM     38  CB  SER C 502      78.393  31.715 -12.433  1.00 53.64 LIG 0.20  C 
BRANCH 38 39
ATOM     39 OG   SER C 502      79.621  32.051 -13.035  1.00 59.09 LIG-0.40  OA
ATOM     40 HG   SER C 502      79.637  31.758 -13.822  1.00 59.09 LIG 0.21  HD
ENDBRANCH 38 39
ENDBRANCH 37 38
BRANCH 37 41
ATOM     41  N   SER C 502      78.074  29.528 -11.321  1.00 72.56 LIG-0.34  N 
ATOM     42 H    SER C 502      78.593  29.855 -10.719  1.00 72.56 LIG 0.16  HD
ATOM     43  C   GLU C 501      77.303  28.457 -11.156  1.00101.90 LIG 0.26  C 
ATOM     44 O    GLU C 501      76.330  28.230 -11.876  1.00103.22 LIG-0.27  OA
BRANCH 43 45
ATOM     45  CA  GLU C 501      77.655  27.510 -10.002  1.00101.55 LIG 0.40  C 
ATOM     46  N   GLU C 501      76.482  26.735  -9.608  1.00100.94 LIG 0.61  N 
BRANCH 45 47
ATOM     47  CB  GLU C 501      78.798  26.573 -10.401  1.00104.94 LIG 0.06  C 
BRANCH 47 48
ATOM     48  CG  GLU C 501      78.892  26.309 -11.894  1.00111.45 LIG 0.12  C 
BRANCH 48 49
ATOM     49  CD  GLU C 501      77.817  25.360 -12.385  1.00115.68 LIG 0.17  C 
ATOM     50 OE1  GLU C 501      77.770  25.088 -13.605  1.00117.56 LIG-0.65  OA
ATOM     51 OE2  GLU C 501      77.021  24.888 -11.546  1.00122.11 LIG-0.65  OA
ENDBRANCH 48 49
ENDBRANCH 47 48
ENDBRANCH 45 47
ENDBRANCH 43 45
ENDBRANCH 37 41
ENDBRANCH 35 37
ENDBRANCH 32 33
BRANCH 32 52
ATOM     52  CB  SER C 503      80.165  29.546 -16.186  1.00 49.05 LIG 0.20  C 
BRANCH 52 53
ATOM     53 OG   SER C 503      81.150  29.108 -17.104  1.00 54.59 LIG-0.40  OA
ATOM     54 HG   SER C 503      81.815  28.814 -16.682  1.00 54.59 LIG 0.21  HD
ENDBRANCH 52 53
ENDBRANCH 32 52
ENDBRANCH 1 32
TORSDOF 25
ENDMDL
MODEL 93
USER: ADFR SOLUTION from run 6
USER: SCORE 16.554688 LL:  -5.299 LR: -12.610 RR:   0.000 FEB:  -5.153
USER: RMSD 8.029213
USER: SEED 314395
USER: STATUS searching
USER: GENES 27
USER: genes 0 Translation |==|  0.41001 0.22614 0.39687
USER: genes 1 Rotation |==|  0.93162 0.36565 0.66980 0.62972
USER: genes 2 Torsion [C]-N--CA-[CB] |==|  0.22757
USER: genes 3 Torsion [N]-CA--C-[N] |==|  0.21581
USER: genes 4 Torsion [C]-N--CA-[C] |==|  0.77543
USER: genes 5 Torsion [N]-CA--CB-[OG] |==|  0.16265
USER: genes 6 Torsion [CA]-CB--OG-[HG] |==|  0.83373
USER: genes 7 Torsion [N]-CA--C-[N] |==|  0.19617
USER: genes 8 Torsion [C]-N--CA-[CB] |==|  0.18907
USER: genes 9 Torsion [N]-CA--C-[O] |==|  0.84223
USER: genes 10 Torsion [N]-CA--CB-[CG] |==|  0.65718
USER: genes 11 Torsion [CA]-CB--CG-[CD] |==|  0.26652
USER: genes 12 Torsion [CB]-CG--CD-[NE2] |==|  0.61237
USER: genes 13 Torsion [N]-CA--CB-[CG] |==|  0.08810
USER: genes 14 Torsion [CA]-CB--CG-[OD1] |==|  0.78699
USER: genes 15 Torsion [N]-C--CA-[N] |==|  0.01012
USER: genes 16 Torsion [C]-CA--N-[C] |==|  0.75118
USER: genes 17 Torsion [N]-C--CA-[N] |==|  0.01884
USER: genes 18 Torsion [C]-CA--CB-[OG] |==|  0.65550
USER: genes 19 Torsion [CA]-CB--OG-[HG] |==|  0.69903
USER: genes 20 Torsion [C]-CA--N-[C] |==|  0.75556
USER: genes 21 Torsion [N]-C--CA-[N] |==|  0.50860
USER: genes 22 Torsion [C]-CA--CB-[CG] |==|  0.44990
USER: genes 23 Torsion [CA]-CB--CG-[CD] |==|  0.20945
USER: genes 24 Torsion [CB]-CG--CD-[OE1] |==|  0.79232
USER: genes 25 Torsion [C]-CA--CB-[OG] |==|  0.85256
USER: genes 26 Torsion [CA]-CB--OG-[HG] |==|  0.25639
ROOT
ATOM      1  C   SER C 503      77.719  20.607 -16.478  1.00 42.27 LIG 0.24  C 
ATOM      2 O    SER C 503      78.112  19.910 -15.546  1.00 46.84 LIG-0.27  OA
ATOM      3  N   ASP C 504      78.057  21.881 -16.630  1.00 51.15 LIG-0.34  N 
ATOM      4 H    ASP C 504      77.862  22.341 -17.330  1.00 51.15 LIG 0.16  HD
ENDROOT
BRANCH 3 5
ATOM      5  CA  ASP C 504      78.797  22.630 -15.616  1.00 56.79 LIG 0.19  C 
BRANCH 5 6
ATOM      6  C   ASP C 504      78.524  24.134 -15.763  1.00 67.42 LIG 0.24  C 
ATOM      7  N   SER C 505      77.361  24.567 -15.286  1.00 81.52 LIG-0.34  N 
ATOM      8 H    SER C 505      76.774  24.056 -14.922  1.00 81.52 LIG 0.16  HD
ATOM      9 O    ASP C 504      79.351  24.881 -16.290  1.00 66.01 LIG-0.27  OA
BRANCH 7 10
ATOM     10  CA  SER C 505      76.977  25.976 -15.341  1.00 90.64 LIG 0.20  C 
BRANCH 10 11
ATOM     11  CB  SER C 505      75.461  26.124 -15.280  1.00 89.01 LIG 0.20  C 
BRANCH 11 12
ATOM     12 OG   SER C 505      74.958  25.542 -14.092  1.00 87.22 LIG-0.40  OA
ATOM     13 HG   SER C 505      75.156  24.726 -14.074  1.00 87.22 LIG 0.21  HD
ENDBRANCH 11 12
ENDBRANCH 10 11
BRANCH 10 14
ATOM     14  C   SER C 505      77.632  26.750 -14.201  1.00 98.93 LIG 0.24  C 
ATOM     15  N   GLN C 506      78.946  26.932 -14.291  1.00110.12 LIG-0.35  N 
ATOM     16 H    GLN C 506      79.406  26.777 -15.002  1.00110.12 LIG 0.16  HD
ATOM     17 O    SER C 505      76.957  27.184 -13.265  1.00 94.47 LIG-0.27  OA
BRANCH 15 18
ATOM     18  CA  GLN C 506      79.728  27.421 -13.162  1.00115.19 LIG 0.16  C 
BRANCH 18 19
ATOM     19  C   GLN C 506      81.149  27.811 -13.569  1.00118.66 LIG 0.22  C 
ATOM     20 O    GLN C 506      81.896  26.997 -14.117  1.00117.46 LIG-0.29  OA
ENDBRANCH 18 19
BRANCH 18 21
ATOM     21  CB  GLN C 506      79.758  26.358 -12.060  1.00118.15 LIG 0.04  C 
BRANCH 21 22
ATOM     22  CG  GLN C 506      79.235  26.860 -10.706  1.00119.48 LIG 0.10  C 
BRANCH 22 23
ATOM     23  CD  GLN C 506      77.763  26.533 -10.453  1.00116.76 LIG 0.21  C 
ATOM     24  NE2 GLN C 506      77.033  27.483  -9.876  1.00111.94 LIG-0.37  N 
ATOM     25 21HE GLN C 506      77.396  28.233  -9.663  1.00111.94 LIG 0.16  HD
ATOM     26 22HE GLN C 506      76.200  27.347  -9.716  1.00111.94 LIG 0.16  HD
ATOM     27 OE1  GLN C 506      77.291  25.443 -10.777  1.00116.06 LIG-0.27  OA
ENDBRANCH 22 23
ENDBRANCH 21 22
ENDBRANCH 18 21
ENDBRANCH 15 18
ENDBRANCH 10 14
ENDBRANCH 7 10
ENDBRANCH 5 6
BRANCH 5 28
ATOM     28  CB  ASP C 504      80.301  22.331 -15.743  1.00 57.84 LIG 0.15  C 
BRANCH 28 29
ATOM     29  CG  ASP C 504      80.742  22.045 -17.174  1.00 60.92 LIG 0.17  C 
ATOM     30 OD2  ASP C 504      81.350  22.948 -17.798  1.00 60.43 LIG-0.65  OA
ATOM     31 OD1  ASP C 504      80.488  20.929 -17.676  1.00 59.69 LIG-0.65  OA
ENDBRANCH 28 29
ENDBRANCH 5 28
ENDBRANCH 3 5
BRANCH 1 32
ATOM     32  CA  SER C 503      76.812  20.028 -17.548  1.00 44.19 LIG 0.20  C 
BRANCH 32 33
ATOM     33  N   SER C 503      76.561  21.012 -18.604  1.00 47.77 LIG-0.34  N 
ATOM     34 H    SER C 503      77.123  20.989 -19.255  1.00 47.77 LIG 0.16  HD
ATOM     35  C   SER C 502      75.536  21.860 -18.530  1.00 50.79 LIG 0.24  C 
ATOM     36 O    SER C 502      74.591  21.701 -17.771  1.00 48.58 LIG-0.27  OA
BRANCH 35 37
ATOM     37  CA  SER C 502      75.591  23.073 -19.442  1.00 60.54 LIG 0.20  C 
BRANCH 37 38
ATOM     38  CB  SER C 502      74.285  23.233 -20.201  1.00 53.64 LIG 0.20  C 
BRANCH 38 39
ATOM     39 OG   SER C 502      74.499  23.265 -21.594  1.00 59.09 LIG-0.40  OA
ATOM     40 HG   SER C 502      74.371  24.045 -21.879  1.00 59.09 LIG 0.21  HD
ENDBRANCH 38 39
ENDBRANCH 37 38
BRANCH 37 41
ATOM     41  N   SER C 502      76.737  22.925 -20.331  1.00 72.56 LIG-0.34  N 
ATOM     42 H    SER C 502      76.568  22.543 -21.083  1.00 72.56 LIG 0.16  HD
ATOM     43  C   GLU C 501      77.934  23.366 -19.957  1.00101.90 LIG 0.26  C 
ATOM     44 O    GLU C 501      78.077  24.207 -19.068  1.00103.22 LIG-0.27  OA
BRANCH 43 45
ATOM     45  CA  GLU C 501      79.153  22.804 -20.699  1.00101.55 LIG 0.40  C 
ATOM     46  N   GLU C 501      80.385  23.332 -20.122  1.00100.94 LIG 0.61  N 
BRANCH 45 47
ATOM     47  CB  GLU C 501      79.158  21.274 -20.647  1.00104.94 LIG 0.06  C 
BRANCH 47 48
ATOM     48  CG  GLU C 501      80.050  20.620 -21.688  1.00111.45 LIG 0.12  C 
BRANCH 48 49
ATOM     49  CD  GLU C 501      81.521  20.721 -21.339  1.00115.68 LIG 0.17  C 
ATOM     50 OE1  GLU C 501      82.097  21.822 -21.483  1.00117.56 LIG-0.65  OA
ATOM     51 OE2  GLU C 501      82.099  19.697 -20.919  1.00122.11 LIG-0.65  OA
ENDBRANCH 48 49
ENDBRANCH 47 48
ENDBRANCH 45 47
ENDBRANCH 43 45
ENDBRANCH 37 41
ENDBRANCH 35 37
ENDBRANCH 32 33
BRANCH 32 52
ATOM     52  CB  SER C 503      77.444  18.765 -18.116  1.00 49.05 LIG 0.20  C 
BRANCH 52 53
ATOM     53 OG   SER C 503      78.769  19.025 -18.545  1.00 54.59 LIG-0.40  OA
ATOM     54 HG   SER C 503      79.304  18.858 -17.919  1.00 54.59 LIG 0.21  HD
ENDBRANCH 52 53
ENDBRANCH 32 52
ENDBRANCH 1 32
TORSDOF 25
ENDMDL
MODEL 94
USER: ADFR SOLUTION from run 32
USER: SCORE 15.247947 LL:  -3.555 LR: -12.611 RR:   0.000 FEB:  -5.154
USER: RMSD 5.740081
USER: SEED 31
USER: STATUS no improvement in best in 5 clusters for 5 generations
USER: GENES 27
USER: genes 0 Translation |==|  0.40978 0.48630 0.66975
USER: genes 1 Rotation |==|  0.58640 0.40475 0.12189 0.80083
USER: genes 2 Torsion [C]-N--CA-[CB] |==|  0.50836
USER: genes 3 Torsion [N]-CA--C-[N] |==|  0.44803
USER: genes 4 Torsion [C]-N--CA-[C] |==|  0.88333
USER: genes 5 Torsion [N]-CA--CB-[OG] |==|  0.62683
USER: genes 6 Torsion [CA]-CB--OG-[HG] |==|  0.77691
USER: genes 7 Torsion [N]-CA--C-[N] |==|  0.35157
USER: genes 8 Torsion [C]-N--CA-[CB] |==|  0.43395
USER: genes 9 Torsion [N]-CA--C-[O] |==|  0.00119
USER: genes 10 Torsion [N]-CA--CB-[CG] |==|  0.28128
USER: genes 11 Torsion [CA]-CB--CG-[CD] |==|  0.75525
USER: genes 12 Torsion [CB]-CG--CD-[NE2] |==|  0.67600
USER: genes 13 Torsion [N]-CA--CB-[CG] |==|  0.28530
USER: genes 14 Torsion [CA]-CB--CG-[OD1] |==|  0.80439
USER: genes 15 Torsion [N]-C--CA-[N] |==|  0.96298
USER: genes 16 Torsion [C]-CA--N-[C] |==|  0.82624
USER: genes 17 Torsion [N]-C--CA-[N] |==|  0.95552
USER: genes 18 Torsion [C]-CA--CB-[OG] |==|  0.63109
USER: genes 19 Torsion [CA]-CB--OG-[HG] |==|  0.15508
USER: genes 20 Torsion [C]-CA--N-[C] |==|  0.76900
USER: genes 21 Torsion [N]-C--CA-[N] |==|  0.18669
USER: genes 22 Torsion [C]-CA--CB-[CG] |==|  0.23919
USER: genes 23 Torsion [CA]-CB--CG-[CD] |==|  0.49696
USER: genes 24 Torsion [CB]-CG--CD-[OE1] |==|  0.76777
USER: genes 25 Torsion [C]-CA--CB-[OG] |==|  0.95456
USER: genes 26 Torsion [CA]-CB--OG-[HG] |==|  0.69179
ROOT
ATOM      1  C   SER C 503      77.715  26.070 -11.361  1.00 42.27 LIG 0.24  C 
ATOM      2 O    SER C 503      77.880  24.875 -11.129  1.00 46.84 LIG-0.27  OA
ATOM      3  N   ASP C 504      77.053  26.525 -12.417  1.00 51.15 LIG-0.34  N 
ATOM      4 H    ASP C 504      76.853  27.353 -12.529  1.00 51.15 LIG 0.16  HD
ENDROOT
BRANCH 3 5
ATOM      5  CA  ASP C 504      76.596  25.654 -13.499  1.00 56.79 LIG 0.19  C 
BRANCH 5 6
ATOM      6  C   ASP C 504      77.774  24.847 -14.064  1.00 67.42 LIG 0.24  C 
ATOM      7  N   SER C 505      77.458  23.762 -14.765  1.00 81.52 LIG-0.34  N 
ATOM      8 H    SER C 505      76.651  23.499 -14.900  1.00 81.52 LIG 0.16  HD
ATOM      9 O    ASP C 504      78.939  25.204 -13.873  1.00 66.01 LIG-0.27  OA
BRANCH 7 10
ATOM     10  CA  SER C 505      78.476  22.910 -15.376  1.00 90.64 LIG 0.20  C 
BRANCH 10 11
ATOM     11  CB  SER C 505      77.852  21.986 -16.415  1.00 89.01 LIG 0.20  C 
BRANCH 11 12
ATOM     12 OG   SER C 505      78.337  20.666 -16.256  1.00 87.22 LIG-0.40  OA
ATOM     13 HG   SER C 505      79.094  20.602 -16.613  1.00 87.22 LIG 0.21  HD
ENDBRANCH 11 12
ENDBRANCH 10 11
BRANCH 10 14
ATOM     14  C   SER C 505      79.569  23.763 -16.013  1.00 98.93 LIG 0.24  C 
ATOM     15  N   GLN C 506      80.817  23.494 -15.641  1.00110.12 LIG-0.35  N 
ATOM     16 H    GLN C 506      81.047  22.795 -15.195  1.00110.12 LIG 0.16  HD
ATOM     17 O    SER C 505      79.287  24.637 -16.834  1.00 94.47 LIG-0.27  OA
BRANCH 15 18
ATOM     18  CA  GLN C 506      81.921  24.389 -15.969  1.00115.19 LIG 0.16  C 
BRANCH 18 19
ATOM     19  C   GLN C 506      82.419  24.191 -17.400  1.00118.66 LIG 0.22  C 
ATOM     20 O    GLN C 506      81.896  23.358 -18.143  1.00117.46 LIG-0.29  OA
ENDBRANCH 18 19
BRANCH 18 21
ATOM     21  CB  GLN C 506      83.064  24.181 -14.970  1.00118.15 LIG 0.04  C 
BRANCH 21 22
ATOM     22  CG  GLN C 506      84.212  23.321 -15.518  1.00119.48 LIG 0.10  C 
BRANCH 22 23
ATOM     23  CD  GLN C 506      84.020  21.820 -15.296  1.00116.76 LIG 0.21  C 
ATOM     24  NE2 GLN C 506      84.912  21.215 -14.518  1.00111.94 LIG-0.37  N 
ATOM     25 21HE GLN C 506      85.557  21.667 -14.172  1.00111.94 LIG 0.16  HD
ATOM     26 22HE GLN C 506      84.845  20.373 -14.361  1.00111.94 LIG 0.16  HD
ATOM     27 OE1  GLN C 506      83.080  21.218 -15.815  1.00116.06 LIG-0.27  OA
ENDBRANCH 22 23
ENDBRANCH 21 22
ENDBRANCH 18 21
ENDBRANCH 15 18
ENDBRANCH 10 14
ENDBRANCH 7 10
ENDBRANCH 5 6
BRANCH 5 28
ATOM     28  CB  ASP C 504      75.932  26.497 -14.602  1.00 57.84 LIG 0.15  C 
BRANCH 28 29
ATOM     29  CG  ASP C 504      76.825  26.712 -15.819  1.00 60.92 LIG 0.17  C 
ATOM     30 OD2  ASP C 504      76.520  26.129 -16.887  1.00 60.43 LIG-0.65  OA
ATOM     31 OD1  ASP C 504      77.822  27.458 -15.715  1.00 59.69 LIG-0.65  OA
ENDBRANCH 28 29
ENDBRANCH 5 28
ENDBRANCH 3 5
BRANCH 1 32
ATOM     32  CA  SER C 503      78.259  27.125 -10.415  1.00 44.19 LIG 0.20  C 
BRANCH 32 33
ATOM     33  N   SER C 503      78.206  28.452 -11.032  1.00 47.77 LIG-0.34  N 
ATOM     34 H    SER C 503      77.700  29.016 -10.625  1.00 47.77 LIG 0.16  HD
ATOM     35  C   SER C 502      78.900  28.731 -12.134  1.00 50.79 LIG 0.24  C 
ATOM     36 O    SER C 502      79.825  28.038 -12.534  1.00 48.58 LIG-0.27  OA
BRANCH 35 37
ATOM     37  CA  SER C 502      78.481  29.969 -12.907  1.00 60.54 LIG 0.20  C 
BRANCH 37 38
ATOM     38  CB  SER C 502      79.505  31.079 -12.739  1.00 53.64 LIG 0.20  C 
BRANCH 38 39
ATOM     39 OG   SER C 502      78.887  32.308 -12.431  1.00 59.09 LIG-0.40  OA
ATOM     40 HG   SER C 502      78.411  32.218 -11.746  1.00 59.09 LIG 0.21  HD
ENDBRANCH 38 39
ENDBRANCH 37 38
BRANCH 37 41
ATOM     41  N   SER C 502      77.154  30.363 -12.452  1.00 72.56 LIG-0.34  N 
ATOM     42 H    SER C 502      77.141  30.981 -11.854  1.00 72.56 LIG 0.16  HD
ATOM     43  C   GLU C 501      76.072  29.779 -12.959  1.00101.90 LIG 0.26  C 
ATOM     44 O    GLU C 501      76.092  29.182 -14.036  1.00103.22 LIG-0.27  OA
BRANCH 43 45
ATOM     45  CA  GLU C 501      74.770  29.895 -12.157  1.00101.55 LIG 0.40  C 
ATOM     46  N   GLU C 501      74.307  31.279 -12.140  1.00100.94 LIG 0.61  N 
BRANCH 45 47
ATOM     47  CB  GLU C 501      73.689  28.984 -12.747  1.00104.94 LIG 0.06  C 
BRANCH 47 48
ATOM     48  CG  GLU C 501      73.727  27.558 -12.228  1.00111.45 LIG 0.12  C 
BRANCH 48 49
ATOM     49  CD  GLU C 501      72.628  26.697 -12.815  1.00115.68 LIG 0.17  C 
ATOM     50 OE1  GLU C 501      71.493  26.733 -12.290  1.00117.56 LIG-0.65  OA
ATOM     51 OE2  GLU C 501      72.902  25.983 -13.803  1.00122.11 LIG-0.65  OA
ENDBRANCH 48 49
ENDBRANCH 47 48
ENDBRANCH 45 47
ENDBRANCH 43 45
ENDBRANCH 37 41
ENDBRANCH 35 37
ENDBRANCH 32 33
BRANCH 32 52
ATOM     52  CB  SER C 503      77.465  27.094  -9.116  1.00 49.05 LIG 0.20  C 
BRANCH 52 53
ATOM     53 OG   SER C 503      76.251  26.386  -9.294  1.00 54.59 LIG-0.40  OA
ATOM     54 HG   SER C 503      75.605  26.922  -9.250  1.00 54.59 LIG 0.21  HD
ENDBRANCH 52 53
ENDBRANCH 32 52
ENDBRANCH 1 32
TORSDOF 25
ENDMDL
MODEL 95
USER: ADFR SOLUTION from run 149
USER: SCORE 14.399822 LL:  -4.494 LR: -12.593 RR:   0.000 FEB:  -5.135
USER: RMSD 6.507701
USER: SEED 148
USER: STATUS searching
USER: GENES 27
USER: genes 0 Translation |==|  0.40862 0.47366 0.68720
USER: genes 1 Rotation |==|  0.53424 0.40696 0.06335 0.72250
USER: genes 2 Torsion [C]-N--CA-[CB] |==|  0.37333
USER: genes 3 Torsion [N]-CA--C-[N] |==|  0.33756
USER: genes 4 Torsion [C]-N--CA-[C] |==|  0.80638
USER: genes 5 Torsion [N]-CA--CB-[OG] |==|  0.97631
USER: genes 6 Torsion [CA]-CB--OG-[HG] |==|  0.13787
USER: genes 7 Torsion [N]-CA--C-[N] |==|  0.90210
USER: genes 8 Torsion [C]-N--CA-[CB] |==|  0.26690
USER: genes 9 Torsion [N]-CA--C-[O] |==|  0.69309
USER: genes 10 Torsion [N]-CA--CB-[CG] |==|  0.85460
USER: genes 11 Torsion [CA]-CB--CG-[CD] |==|  0.34246
USER: genes 12 Torsion [CB]-CG--CD-[NE2] |==|  0.10747
USER: genes 13 Torsion [N]-CA--CB-[CG] |==|  0.55786
USER: genes 14 Torsion [CA]-CB--CG-[OD1] |==|  0.82085
USER: genes 15 Torsion [N]-C--CA-[N] |==|  0.92778
USER: genes 16 Torsion [C]-CA--N-[C] |==|  0.74646
USER: genes 17 Torsion [N]-C--CA-[N] |==|  0.69707
USER: genes 18 Torsion [C]-CA--CB-[OG] |==|  0.45247
USER: genes 19 Torsion [CA]-CB--OG-[HG] |==|  0.44626
USER: genes 20 Torsion [C]-CA--N-[C] |==|  0.72777
USER: genes 21 Torsion [N]-C--CA-[N] |==|  0.41554
USER: genes 22 Torsion [C]-CA--CB-[CG] |==|  0.47735
USER: genes 23 Torsion [CA]-CB--CG-[CD] |==|  0.26731
USER: genes 24 Torsion [CB]-CG--CD-[OE1] |==|  0.80527
USER: genes 25 Torsion [C]-CA--CB-[OG] |==|  0.36052
USER: genes 26 Torsion [CA]-CB--OG-[HG] |==|  0.45967
ROOT
ATOM      1  C   SER C 503      77.695  25.805 -11.034  1.00 42.27 LIG 0.24  C 
ATOM      2 O    SER C 503      77.394  24.643 -10.768  1.00 46.84 LIG-0.27  OA
ATOM      3  N   ASP C 504      77.128  26.500 -12.011  1.00 51.15 LIG-0.34  N 
ATOM      4 H    ASP C 504      77.266  27.340 -12.136  1.00 51.15 LIG 0.16  HD
ENDROOT
BRANCH 3 5
ATOM      5  CA  ASP C 504      76.207  25.902 -12.977  1.00 56.79 LIG 0.19  C 
BRANCH 5 6
ATOM      6  C   ASP C 504      76.919  25.674 -14.318  1.00 67.42 LIG 0.24  C 
ATOM      7  N   SER C 505      76.946  24.420 -14.761  1.00 81.52 LIG-0.34  N 
ATOM      8 H    SER C 505      76.603  23.756 -14.337  1.00 81.52 LIG 0.16  HD
ATOM      9 O    ASP C 504      77.425  26.612 -14.937  1.00 66.01 LIG-0.27  OA
BRANCH 7 10
ATOM     10  CA  SER C 505      77.573  24.060 -16.030  1.00 90.64 LIG 0.20  C 
BRANCH 10 11
ATOM     11  CB  SER C 505      77.723  22.547 -16.146  1.00 89.01 LIG 0.20  C 
BRANCH 11 12
ATOM     12 OG   SER C 505      77.396  21.924 -14.919  1.00 87.22 LIG-0.40  OA
ATOM     13 HG   SER C 505      76.658  22.216 -14.645  1.00 87.22 LIG 0.21  HD
ENDBRANCH 11 12
ENDBRANCH 10 11
BRANCH 10 14
ATOM     14  C   SER C 505      76.756  24.603 -17.199  1.00 98.93 LIG 0.24  C 
ATOM     15  N   GLN C 506      75.436  24.614 -17.040  1.00110.12 LIG-0.35  N 
ATOM     16 H    GLN C 506      75.041  24.480 -16.287  1.00110.12 LIG 0.16  HD
ATOM     17 O    SER C 505      77.313  25.015 -18.219  1.00 94.47 LIG-0.27  OA
BRANCH 15 18
ATOM     18  CA  GLN C 506      74.535  24.861 -18.158  1.00115.19 LIG 0.16  C 
BRANCH 18 19
ATOM     19  C   GLN C 506      73.345  25.733 -17.760  1.00118.66 LIG 0.22  C 
ATOM     20 O    GLN C 506      72.206  25.264 -17.705  1.00117.46 LIG-0.29  OA
ENDBRANCH 18 19
BRANCH 18 21
ATOM     21  CB  GLN C 506      74.052  23.525 -18.733  1.00118.15 LIG 0.04  C 
BRANCH 21 22
ATOM     22  CG  GLN C 506      75.193  22.556 -19.079  1.00119.48 LIG 0.10  C 
BRANCH 22 23
ATOM     23  CD  GLN C 506      75.087  21.202 -18.376  1.00116.76 LIG 0.21  C 
ATOM     24  NE2 GLN C 506      73.867  20.688 -18.257  1.00111.94 LIG-0.37  N 
ATOM     25 21HE GLN C 506      73.188  21.117 -18.565  1.00111.94 LIG 0.16  HD
ATOM     26 22HE GLN C 506      73.757  19.928 -17.871  1.00111.94 LIG 0.16  HD
ATOM     27 OE1  GLN C 506      76.090  20.628 -17.953  1.00116.06 LIG-0.27  OA
ENDBRANCH 22 23
ENDBRANCH 21 22
ENDBRANCH 18 21
ENDBRANCH 15 18
ENDBRANCH 10 14
ENDBRANCH 7 10
ENDBRANCH 5 6
BRANCH 5 28
ATOM     28  CB  ASP C 504      74.978  26.811 -13.157  1.00 57.84 LIG 0.15  C 
BRANCH 28 29
ATOM     29  CG  ASP C 504      73.765  26.080 -13.721  1.00 60.92 LIG 0.17  C 
ATOM     30 OD2  ASP C 504      72.743  25.983 -12.999  1.00 60.43 LIG-0.65  OA
ATOM     31 OD1  ASP C 504      73.824  25.607 -14.877  1.00 59.69 LIG-0.65  OA
ENDBRANCH 28 29
ENDBRANCH 5 28
ENDBRANCH 3 5
BRANCH 1 32
ATOM     32  CA  SER C 503      78.749  26.537 -10.224  1.00 44.19 LIG 0.20  C 
BRANCH 32 33
ATOM     33  N   SER C 503      79.364  27.604 -11.016  1.00 47.77 LIG-0.34  N 
ATOM     34 H    SER C 503      78.961  28.362 -10.969  1.00 47.77 LIG 0.16  HD
ATOM     35  C   SER C 502      80.461  27.383 -11.740  1.00 50.79 LIG 0.24  C 
ATOM     36 O    SER C 502      81.184  26.411 -11.578  1.00 48.58 LIG-0.27  OA
BRANCH 35 37
ATOM     37  CA  SER C 502      80.784  28.407 -12.814  1.00 60.54 LIG 0.20  C 
BRANCH 37 38
ATOM     38  CB  SER C 502      79.973  29.675 -12.609  1.00 53.64 LIG 0.20  C 
BRANCH 38 39
ATOM     39 OG   SER C 502      80.517  30.757 -13.329  1.00 59.09 LIG-0.40  OA
ATOM     40 HG   SER C 502      79.934  31.355 -13.420  1.00 59.09 LIG 0.21  HD
ENDBRANCH 38 39
ENDBRANCH 37 38
BRANCH 37 41
ATOM     41  N   SER C 502      80.541  27.796 -14.115  1.00 72.56 LIG-0.34  N 
ATOM     42 H    SER C 502      79.721  27.801 -14.373  1.00 72.56 LIG 0.16  HD
ATOM     43  C   GLU C 501      81.551  27.283 -14.811  1.00101.90 LIG 0.26  C 
ATOM     44 O    GLU C 501      82.722  27.600 -14.602  1.00103.22 LIG-0.27  OA
BRANCH 43 45
ATOM     45  CA  GLU C 501      81.202  26.283 -15.922  1.00101.55 LIG 0.40  C 
ATOM     46  N   GLU C 501      82.185  26.358 -16.998  1.00100.94 LIG 0.61  N 
BRANCH 45 47
ATOM     47  CB  GLU C 501      81.135  24.859 -15.365  1.00104.94 LIG 0.06  C 
BRANCH 47 48
ATOM     48  CG  GLU C 501      80.606  23.831 -16.349  1.00111.45 LIG 0.12  C 
BRANCH 48 49
ATOM     49  CD  GLU C 501      81.715  23.093 -17.070  1.00115.68 LIG 0.17  C 
ATOM     50 OE1  GLU C 501      82.402  23.715 -17.911  1.00117.56 LIG-0.65  OA
ATOM     51 OE2  GLU C 501      81.899  21.888 -16.794  1.00122.11 LIG-0.65  OA
ENDBRANCH 48 49
ENDBRANCH 47 48
ENDBRANCH 45 47
ENDBRANCH 43 45
ENDBRANCH 37 41
ENDBRANCH 35 37
ENDBRANCH 32 33
BRANCH 32 52
ATOM     52  CB  SER C 503      78.115  27.093  -8.956  1.00 49.05 LIG 0.20  C 
BRANCH 52 53
ATOM     53 OG   SER C 503      78.881  26.733  -7.821  1.00 54.59 LIG-0.40  OA
ATOM     54 HG   SER C 503      78.645  27.200  -7.163  1.00 54.59 LIG 0.21  HD
ENDBRANCH 52 53
ENDBRANCH 32 52
ENDBRANCH 1 32
TORSDOF 25
ENDMDL
MODEL 96
USER: ADFR SOLUTION from run 25
USER: SCORE 16.272042 LL:  -4.747 LR: -12.591 RR:   0.000 FEB:  -5.134
USER: RMSD 4.321162
USER: SEED 24
USER: STATUS 1 or 2 clusters left
USER: GENES 27
USER: genes 0 Translation |==|  0.41808 0.42247 0.49584
USER: genes 1 Rotation |==|  0.51645 0.42231 0.51982 0.99326
USER: genes 2 Torsion [C]-N--CA-[CB] |==|  0.57741
USER: genes 3 Torsion [N]-CA--C-[N] |==|  0.37994
USER: genes 4 Torsion [C]-N--CA-[C] |==|  0.21440
USER: genes 5 Torsion [N]-CA--CB-[OG] |==|  0.85799
USER: genes 6 Torsion [CA]-CB--OG-[HG] |==|  0.14874
USER: genes 7 Torsion [N]-CA--C-[N] |==|  0.03735
USER: genes 8 Torsion [C]-N--CA-[CB] |==|  0.21261
USER: genes 9 Torsion [N]-CA--C-[O] |==|  0.43070
USER: genes 10 Torsion [N]-CA--CB-[CG] |==|  0.64102
USER: genes 11 Torsion [CA]-CB--CG-[CD] |==|  0.72418
USER: genes 12 Torsion [CB]-CG--CD-[NE2] |==|  0.08147
USER: genes 13 Torsion [N]-CA--CB-[CG] |==|  0.55145
USER: genes 14 Torsion [CA]-CB--CG-[OD1] |==|  0.88901
USER: genes 15 Torsion [N]-C--CA-[N] |==|  0.44986
USER: genes 16 Torsion [C]-CA--N-[C] |==|  0.83083
USER: genes 17 Torsion [N]-C--CA-[N] |==|  0.04902
USER: genes 18 Torsion [C]-CA--CB-[OG] |==|  0.37217
USER: genes 19 Torsion [CA]-CB--OG-[HG] |==|  0.17238
USER: genes 20 Torsion [C]-CA--N-[C] |==|  0.18113
USER: genes 21 Torsion [N]-C--CA-[N] |==|  0.54630
USER: genes 22 Torsion [C]-CA--CB-[CG] |==|  0.29297
USER: genes 23 Torsion [CA]-CB--CG-[CD] |==|  0.13330
USER: genes 24 Torsion [CB]-CG--CD-[OE1] |==|  0.55412
USER: genes 25 Torsion [C]-CA--CB-[OG] |==|  0.33815
USER: genes 26 Torsion [CA]-CB--OG-[HG] |==|  0.03588
ROOT
ATOM      1  C   SER C 503      77.858  24.730 -14.622  1.00 42.27 LIG 0.24  C 
ATOM      2 O    SER C 503      78.872  25.300 -14.226  1.00 46.84 LIG-0.27  OA
ATOM      3  N   ASP C 504      77.878  23.586 -15.293  1.00 51.15 LIG-0.34  N 
ATOM      4 H    ASP C 504      77.170  23.138 -15.486  1.00 51.15 LIG 0.16  HD
ENDROOT
BRANCH 3 5
ATOM      5  CA  ASP C 504      79.115  22.972 -15.774  1.00 56.79 LIG 0.19  C 
BRANCH 5 6
ATOM      6  C   ASP C 504      80.163  24.054 -16.075  1.00 67.42 LIG 0.24  C 
ATOM      7  N   SER C 505      81.401  23.801 -15.663  1.00 81.52 LIG-0.34  N 
ATOM      8 H    SER C 505      81.628  23.087 -15.242  1.00 81.52 LIG 0.16  HD
ATOM      9 O    ASP C 504      79.854  25.089 -16.671  1.00 66.01 LIG-0.27  OA
BRANCH 7 10
ATOM     10  CA  SER C 505      82.502  24.733 -15.898  1.00 90.64 LIG 0.20  C 
BRANCH 10 11
ATOM     11  CB  SER C 505      82.476  25.246 -17.333  1.00 89.01 LIG 0.20  C 
BRANCH 11 12
ATOM     12 OG   SER C 505      82.396  24.164 -18.241  1.00 87.22 LIG-0.40  OA
ATOM     13 HG   SER C 505      81.743  23.677 -18.039  1.00 87.22 LIG 0.21  HD
ENDBRANCH 11 12
ENDBRANCH 10 11
BRANCH 10 14
ATOM     14  C   SER C 505      82.427  25.900 -14.917  1.00 98.93 LIG 0.24  C 
ATOM     15  N   GLN C 506      81.603  25.748 -13.884  1.00110.12 LIG-0.35  N 
ATOM     16 H    GLN C 506      81.240  25.001 -13.664  1.00110.12 LIG 0.16  HD
ATOM     17 O    SER C 505      83.112  26.910 -15.086  1.00 94.47 LIG-0.27  OA
BRANCH 15 18
ATOM     18  CA  GLN C 506      81.245  26.869 -13.023  1.00115.19 LIG 0.16  C 
BRANCH 18 19
ATOM     19  C   GLN C 506      80.707  26.409 -11.669  1.00118.66 LIG 0.22  C 
ATOM     20 O    GLN C 506      80.781  27.138 -10.677  1.00117.46 LIG-0.29  OA
ENDBRANCH 18 19
BRANCH 18 21
ATOM     21  CB  GLN C 506      80.217  27.755 -13.736  1.00118.15 LIG 0.04  C 
BRANCH 21 22
ATOM     22  CG  GLN C 506      80.593  29.244 -13.749  1.00119.48 LIG 0.10  C 
BRANCH 22 23
ATOM     23  CD  GLN C 506      79.882  30.070 -12.676  1.00116.76 LIG 0.21  C 
ATOM     24  NE2 GLN C 506      79.553  29.433 -11.557  1.00111.94 LIG-0.37  N 
ATOM     25 21HE GLN C 506      79.739  28.598 -11.467  1.00111.94 LIG 0.16  HD
ATOM     26 22HE GLN C 506      79.154  29.855 -10.923  1.00111.94 LIG 0.16  HD
ATOM     27 OE1  GLN C 506      79.639  31.264 -12.853  1.00116.06 LIG-0.27  OA
ENDBRANCH 22 23
ENDBRANCH 21 22
ENDBRANCH 18 21
ENDBRANCH 15 18
ENDBRANCH 10 14
ENDBRANCH 7 10
ENDBRANCH 5 6
BRANCH 5 28
ATOM     28  CB  ASP C 504      78.825  22.127 -17.027  1.00 57.84 LIG 0.15  C 
BRANCH 28 29
ATOM     29  CG  ASP C 504      79.919  21.111 -17.336  1.00 60.92 LIG 0.17  C 
ATOM     30 OD2  ASP C 504      79.574  19.972 -17.734  1.00 60.43 LIG-0.65  OA
ATOM     31 OD1  ASP C 504      81.115  21.442 -17.187  1.00 59.69 LIG-0.65  OA
ENDBRANCH 28 29
ENDBRANCH 5 28
ENDBRANCH 3 5
BRANCH 1 32
ATOM     32  CA  SER C 503      76.484  25.311 -14.342  1.00 44.19 LIG 0.20  C 
BRANCH 32 33
ATOM     33  N   SER C 503      76.549  26.301 -13.264  1.00 47.77 LIG-0.34  N 
ATOM     34 H    SER C 503      76.305  27.094 -13.492  1.00 47.77 LIG 0.16  HD
ATOM     35  C   SER C 502      76.959  25.967 -12.042  1.00 50.79 LIG 0.24  C 
ATOM     36 O    SER C 502      77.023  24.810 -11.651  1.00 48.58 LIG-0.27  OA
BRANCH 35 37
ATOM     37  CA  SER C 502      77.367  27.107 -11.126  1.00 60.54 LIG 0.20  C 
BRANCH 37 38
ATOM     38  CB  SER C 502      76.909  26.844  -9.702  1.00 53.64 LIG 0.20  C 
BRANCH 38 39
ATOM     39 OG   SER C 502      77.935  27.108  -8.773  1.00 59.09 LIG-0.40  OA
ATOM     40 HG   SER C 502      78.147  27.919  -8.813  1.00 59.09 LIG 0.21  HD
ENDBRANCH 38 39
ENDBRANCH 37 38
BRANCH 37 41
ATOM     41  N   SER C 502      76.819  28.345 -11.667  1.00 72.56 LIG-0.34  N 
ATOM     42 H    SER C 502      77.404  28.916 -11.936  1.00 72.56 LIG 0.16  HD
ATOM     43  C   GLU C 501      75.503  28.527 -11.719  1.00101.90 LIG 0.26  C 
ATOM     44 O    GLU C 501      74.707  27.589 -11.673  1.00103.22 LIG-0.27  OA
BRANCH 43 45
ATOM     45  CA  GLU C 501      74.999  29.969 -11.866  1.00101.55 LIG 0.40  C 
ATOM     46  N   GLU C 501      73.584  30.048 -11.516  1.00100.94 LIG 0.61  N 
BRANCH 45 47
ATOM     47  CB  GLU C 501      75.815  30.919 -10.985  1.00104.94 LIG 0.06  C 
BRANCH 47 48
ATOM     48  CG  GLU C 501      76.798  31.786 -11.751  1.00111.45 LIG 0.12  C 
BRANCH 48 49
ATOM     49  CD  GLU C 501      76.168  32.452 -12.958  1.00115.68 LIG 0.17  C 
ATOM     50 OE1  GLU C 501      76.914  32.879 -13.866  1.00117.56 LIG-0.65  OA
ATOM     51 OE2  GLU C 501      74.923  32.546 -12.995  1.00122.11 LIG-0.65  OA
ENDBRANCH 48 49
ENDBRANCH 47 48
ENDBRANCH 45 47
ENDBRANCH 43 45
ENDBRANCH 37 41
ENDBRANCH 35 37
ENDBRANCH 32 33
BRANCH 32 52
ATOM     52  CB  SER C 503      75.927  25.926 -15.618  1.00 49.05 LIG 0.20  C 
BRANCH 52 53
ATOM     53 OG   SER C 503      74.693  25.322 -15.960  1.00 54.59 LIG-0.40  OA
ATOM     54 HG   SER C 503      74.413  24.867 -15.311  1.00 54.59 LIG 0.21  HD
ENDBRANCH 52 53
ENDBRANCH 32 52
ENDBRANCH 1 32
TORSDOF 25
ENDMDL
MODEL 97
USER: ADFR SOLUTION from run 198
USER: SCORE 14.526112 LL:  -4.084 LR: -12.572 RR:   0.000 FEB:  -5.114
USER: RMSD 6.513277
USER: SEED 197
USER: STATUS no improvement in best in 15 clusters for 5 generations
USER: GENES 27
USER: genes 0 Translation |==|  0.70010 0.36565 0.40761
USER: genes 1 Rotation |==|  0.45955 0.63871 0.12569 0.79836
USER: genes 2 Torsion [C]-N--CA-[CB] |==|  0.15794
USER: genes 3 Torsion [N]-CA--C-[N] |==|  0.91758
USER: genes 4 Torsion [C]-N--CA-[C] |==|  0.54581
USER: genes 5 Torsion [N]-CA--CB-[OG] |==|  0.22327
USER: genes 6 Torsion [CA]-CB--OG-[HG] |==|  0.06378
USER: genes 7 Torsion [N]-CA--C-[N] |==|  0.41990
USER: genes 8 Torsion [C]-N--CA-[CB] |==|  0.77593
USER: genes 9 Torsion [N]-CA--C-[O] |==|  0.31983
USER: genes 10 Torsion [N]-CA--CB-[CG] |==|  0.23875
USER: genes 11 Torsion [CA]-CB--CG-[CD] |==|  0.67673
USER: genes 12 Torsion [CB]-CG--CD-[NE2] |==|  0.82343
USER: genes 13 Torsion [N]-CA--CB-[CG] |==|  0.65784
USER: genes 14 Torsion [CA]-CB--CG-[OD1] |==|  0.66024
USER: genes 15 Torsion [N]-C--CA-[N] |==|  0.89999
USER: genes 16 Torsion [C]-CA--N-[C] |==|  0.22220
USER: genes 17 Torsion [N]-C--CA-[N] |==|  0.93680
USER: genes 18 Torsion [C]-CA--CB-[OG] |==|  0.57887
USER: genes 19 Torsion [CA]-CB--OG-[HG] |==|  0.93820
USER: genes 20 Torsion [C]-CA--N-[C] |==|  0.75190
USER: genes 21 Torsion [N]-C--CA-[N] |==|  0.02545
USER: genes 22 Torsion [C]-CA--CB-[CG] |==|  0.88329
USER: genes 23 Torsion [CA]-CB--CG-[CD] |==|  0.82470
USER: genes 24 Torsion [CB]-CG--CD-[OE1] |==|  0.71459
USER: genes 25 Torsion [C]-CA--CB-[OG] |==|  0.39220
USER: genes 26 Torsion [CA]-CB--OG-[HG] |==|  0.44338
ROOT
ATOM      1  C   SER C 503      82.723  23.537 -16.276  1.00 42.27 LIG 0.24  C 
ATOM      2 O    SER C 503      82.848  22.409 -16.747  1.00 46.84 LIG-0.27  OA
ATOM      3  N   ASP C 504      81.548  24.121 -16.081  1.00 51.15 LIG-0.34  N 
ATOM      4 H    ASP C 504      81.454  24.867 -15.664  1.00 51.15 LIG 0.16  HD
ENDROOT
BRANCH 3 5
ATOM      5  CA  ASP C 504      80.291  23.548 -16.560  1.00 56.79 LIG 0.19  C 
BRANCH 5 6
ATOM      6  C   ASP C 504      79.112  24.448 -16.162  1.00 67.42 LIG 0.24  C 
ATOM      7  N   SER C 505      79.262  25.150 -15.043  1.00 81.52 LIG-0.34  N 
ATOM      8 H    SER C 505      79.962  25.113 -14.546  1.00 81.52 LIG 0.16  HD
ATOM      9 O    ASP C 504      78.095  24.508 -16.858  1.00 66.01 LIG-0.27  OA
BRANCH 7 10
ATOM     10  CA  SER C 505      78.229  26.060 -14.554  1.00 90.64 LIG 0.20  C 
BRANCH 10 11
ATOM     11  CB  SER C 505      77.060  25.280 -13.963  1.00 89.01 LIG 0.20  C 
BRANCH 11 12
ATOM     12 OG   SER C 505      77.362  24.862 -12.646  1.00 87.22 LIG-0.40  OA
ATOM     13 HG   SER C 505      77.957  25.359 -12.324  1.00 87.22 LIG 0.21  HD
ENDBRANCH 11 12
ENDBRANCH 10 11
BRANCH 10 14
ATOM     14  C   SER C 505      78.810  27.013 -13.514  1.00 98.93 LIG 0.24  C 
ATOM     15  N   GLN C 506      78.231  28.207 -13.420  1.00110.12 LIG-0.35  N 
ATOM     16 H    GLN C 506      77.482  28.409 -13.791  1.00110.12 LIG 0.16  HD
ATOM     17 O    SER C 505      79.755  26.667 -12.802  1.00 94.47 LIG-0.27  OA
BRANCH 15 18
ATOM     18  CA  GLN C 506      78.840  29.292 -12.660  1.00115.19 LIG 0.16  C 
BRANCH 18 19
ATOM     19  C   GLN C 506      80.347  29.388 -12.894  1.00118.66 LIG 0.22  C 
ATOM     20 O    GLN C 506      80.841  30.375 -13.442  1.00117.46 LIG-0.29  OA
ENDBRANCH 18 19
BRANCH 18 21
ATOM     21  CB  GLN C 506      78.539  29.106 -11.169  1.00118.15 LIG 0.04  C 
BRANCH 21 22
ATOM     22  CG  GLN C 506      79.541  28.191 -10.449  1.00119.48 LIG 0.10  C 
BRANCH 22 23
ATOM     23  CD  GLN C 506      78.918  26.908  -9.895  1.00116.76 LIG 0.21  C 
ATOM     24  NE2 GLN C 506      77.997  27.055  -8.949  1.00111.94 LIG-0.37  N 
ATOM     25 21HE GLN C 506      77.782  27.843  -8.677  1.00111.94 LIG 0.16  HD
ATOM     26 22HE GLN C 506      77.617  26.364  -8.608  1.00111.94 LIG 0.16  HD
ATOM     27 OE1  GLN C 506      79.260  25.804 -10.319  1.00116.06 LIG-0.27  OA
ENDBRANCH 22 23
ENDBRANCH 21 22
ENDBRANCH 18 21
ENDBRANCH 15 18
ENDBRANCH 10 14
ENDBRANCH 7 10
ENDBRANCH 5 6
BRANCH 5 28
ATOM     28  CB  ASP C 504      80.113  22.130 -15.991  1.00 57.84 LIG 0.15  C 
BRANCH 28 29
ATOM     29  CG  ASP C 504      79.932  21.065 -17.067  1.00 60.92 LIG 0.17  C 
ATOM     30 OD2  ASP C 504      80.832  20.938 -17.931  1.00 60.43 LIG-0.65  OA
ATOM     31 OD1  ASP C 504      78.902  20.357 -17.053  1.00 59.69 LIG-0.65  OA
ENDBRANCH 28 29
ENDBRANCH 5 28
ENDBRANCH 3 5
BRANCH 1 32
ATOM     32  CA  SER C 503      83.941  24.342 -15.862  1.00 44.19 LIG 0.20  C 
BRANCH 32 33
ATOM     33  N   SER C 503      83.736  25.767 -16.130  1.00 47.77 LIG-0.34  N 
ATOM     34 H    SER C 503      84.109  26.053 -16.851  1.00 47.77 LIG 0.16  HD
ATOM     35  C   SER C 502      83.025  26.531 -15.302  1.00 50.79 LIG 0.24  C 
ATOM     36 O    SER C 502      82.269  26.075 -14.456  1.00 48.58 LIG-0.27  OA
BRANCH 35 37
ATOM     37  CA  SER C 502      83.200  28.033 -15.443  1.00 60.54 LIG 0.20  C 
BRANCH 37 38
ATOM     38  CB  SER C 502      82.045  28.639 -16.221  1.00 53.64 LIG 0.20  C 
BRANCH 38 39
ATOM     39 OG   SER C 502      82.440  29.804 -16.908  1.00 59.09 LIG-0.40  OA
ATOM     40 HG   SER C 502      83.124  30.125 -16.543  1.00 59.09 LIG 0.21  HD
ENDBRANCH 38 39
ENDBRANCH 37 38
BRANCH 37 41
ATOM     41  N   SER C 502      84.489  28.284 -16.076  1.00 72.56 LIG-0.34  N 
ATOM     42 H    SER C 502      84.471  28.331 -16.934  1.00 72.56 LIG 0.16  HD
ATOM     43  C   GLU C 501      85.583  28.425 -15.333  1.00101.90 LIG 0.26  C 
ATOM     44 O    GLU C 501      85.532  28.711 -14.136  1.00103.22 LIG-0.27  OA
BRANCH 43 45
ATOM     45  CA  GLU C 501      86.936  28.240 -16.032  1.00101.55 LIG 0.40  C 
ATOM     46  N   GLU C 501      86.750  28.148 -17.477  1.00100.94 LIG 0.61  N 
BRANCH 45 47
ATOM     47  CB  GLU C 501      87.881  29.397 -15.693  1.00104.94 LIG 0.06  C 
BRANCH 47 48
ATOM     48  CG  GLU C 501      87.219  30.763 -15.701  1.00111.45 LIG 0.12  C 
BRANCH 48 49
ATOM     49  CD  GLU C 501      86.692  31.145 -17.069  1.00115.68 LIG 0.17  C 
ATOM     50 OE1  GLU C 501      87.344  31.961 -17.757  1.00117.56 LIG-0.65  OA
ATOM     51 OE2  GLU C 501      85.623  30.626 -17.455  1.00122.11 LIG-0.65  OA
ENDBRANCH 48 49
ENDBRANCH 47 48
ENDBRANCH 45 47
ENDBRANCH 43 45
ENDBRANCH 37 41
ENDBRANCH 35 37
ENDBRANCH 32 33
BRANCH 32 52
ATOM     52  CB  SER C 503      84.229  24.098 -14.388  1.00 49.05 LIG 0.20  C 
BRANCH 52 53
ATOM     53 OG   SER C 503      85.626  24.018 -14.163  1.00 54.59 LIG-0.40  OA
ATOM     54 HG   SER C 503      85.788  24.163 -13.352  1.00 54.59 LIG 0.21  HD
ENDBRANCH 52 53
ENDBRANCH 32 52
ENDBRANCH 1 32
TORSDOF 25
ENDMDL
MODEL 98
USER: ADFR SOLUTION from run 137
USER: SCORE 16.434379 LL:  -4.830 LR: -12.567 RR:   0.000 FEB:  -5.110
USER: RMSD 3.110173
USER: SEED 136
USER: STATUS searching
USER: GENES 27
USER: genes 0 Translation |==|  0.43689 0.40285 0.48804
USER: genes 1 Rotation |==|  0.50435 0.45883 0.47983 0.99787
USER: genes 2 Torsion [C]-N--CA-[CB] |==|  0.57223
USER: genes 3 Torsion [N]-CA--C-[N] |==|  0.85695
USER: genes 4 Torsion [C]-N--CA-[C] |==|  0.85912
USER: genes 5 Torsion [N]-CA--CB-[OG] |==|  0.99032
USER: genes 6 Torsion [CA]-CB--OG-[HG] |==|  0.51013
USER: genes 7 Torsion [N]-CA--C-[N] |==|  0.36146
USER: genes 8 Torsion [C]-N--CA-[CB] |==|  0.84295
USER: genes 9 Torsion [N]-CA--C-[O] |==|  0.33071
USER: genes 10 Torsion [N]-CA--CB-[CG] |==|  0.63822
USER: genes 11 Torsion [CA]-CB--CG-[CD] |==|  0.97966
USER: genes 12 Torsion [CB]-CG--CD-[NE2] |==|  0.31118
USER: genes 13 Torsion [N]-CA--CB-[CG] |==|  0.53041
USER: genes 14 Torsion [CA]-CB--CG-[OD1] |==|  0.88419
USER: genes 15 Torsion [N]-C--CA-[N] |==|  0.45330
USER: genes 16 Torsion [C]-CA--N-[C] |==|  0.76825
USER: genes 17 Torsion [N]-C--CA-[N] |==|  0.97118
USER: genes 18 Torsion [C]-CA--CB-[OG] |==|  0.74542
USER: genes 19 Torsion [CA]-CB--OG-[HG] |==|  0.62529
USER: genes 20 Torsion [C]-CA--N-[C] |==|  0.77127
USER: genes 21 Torsion [N]-C--CA-[N] |==|  0.83503
USER: genes 22 Torsion [C]-CA--CB-[CG] |==|  0.40226
USER: genes 23 Torsion [CA]-CB--CG-[CD] |==|  0.12792
USER: genes 24 Torsion [CB]-CG--CD-[OE1] |==|  0.59646
USER: genes 25 Torsion [C]-CA--CB-[OG] |==|  0.33170
USER: genes 26 Torsion [CA]-CB--OG-[HG] |==|  0.02228
ROOT
ATOM      1  C   SER C 503      78.182  24.318 -14.768  1.00 42.27 LIG 0.24  C 
ATOM      2 O    SER C 503      79.322  24.722 -14.549  1.00 46.84 LIG-0.27  OA
ATOM      3  N   ASP C 504      77.920  23.174 -15.387  1.00 51.15 LIG-0.34  N 
ATOM      4 H    ASP C 504      77.128  22.844 -15.455  1.00 51.15 LIG 0.16  HD
ENDROOT
BRANCH 3 5
ATOM      5  CA  ASP C 504      78.957  22.360 -16.019  1.00 56.79 LIG 0.19  C 
BRANCH 5 6
ATOM      6  C   ASP C 504      80.082  23.256 -16.556  1.00 67.42 LIG 0.24  C 
ATOM      7  N   SER C 505      79.705  24.267 -17.334  1.00 81.52 LIG-0.34  N 
ATOM      8 H    SER C 505      78.888  24.426 -17.547  1.00 81.52 LIG 0.16  HD
ATOM      9 O    ASP C 504      81.260  23.038 -16.267  1.00 66.01 LIG-0.27  OA
BRANCH 7 10
ATOM     10  CA  SER C 505      80.667  25.209 -17.900  1.00 90.64 LIG 0.20  C 
BRANCH 10 11
ATOM     11  CB  SER C 505      79.948  26.355 -18.604  1.00 89.01 LIG 0.20  C 
BRANCH 11 12
ATOM     12 OG   SER C 505      78.549  26.145 -18.583  1.00 87.22 LIG-0.40  OA
ATOM     13 HG   SER C 505      78.168  26.754 -19.016  1.00 87.22 LIG 0.21  HD
ENDBRANCH 11 12
ENDBRANCH 10 11
BRANCH 10 14
ATOM     14  C   SER C 505      81.585  25.751 -16.808  1.00 98.93 LIG 0.24  C 
ATOM     15  N   GLN C 506      82.890  25.703 -17.058  1.00110.12 LIG-0.35  N 
ATOM     16 H    GLN C 506      83.226  25.531 -17.831  1.00110.12 LIG 0.16  HD
ATOM     17 O    SER C 505      81.118  26.216 -15.766  1.00 94.47 LIG-0.27  OA
BRANCH 15 18
ATOM     18  CA  GLN C 506      83.877  25.945 -16.013  1.00115.19 LIG 0.16  C 
BRANCH 18 19
ATOM     19  C   GLN C 506      83.862  24.855 -14.941  1.00118.66 LIG 0.22  C 
ATOM     20 O    GLN C 506      84.861  24.165 -14.727  1.00117.46 LIG-0.29  OA
ENDBRANCH 18 19
BRANCH 18 21
ATOM     21  CB  GLN C 506      83.631  27.320 -15.383  1.00118.15 LIG 0.04  C 
BRANCH 21 22
ATOM     22  CG  GLN C 506      84.893  28.191 -15.294  1.00119.48 LIG 0.10  C 
BRANCH 22 23
ATOM     23  CD  GLN C 506      86.177  27.459 -15.684  1.00116.76 LIG 0.21  C 
ATOM     24  NE2 GLN C 506      86.771  27.855 -16.805  1.00111.94 LIG-0.37  N 
ATOM     25 21HE GLN C 506      86.429  28.492 -17.270  1.00111.94 LIG 0.16  HD
ATOM     26 22HE GLN C 506      87.497  27.475 -17.064  1.00111.94 LIG 0.16  HD
ATOM     27 OE1  GLN C 506      86.628  26.553 -14.982  1.00116.06 LIG-0.27  OA
ENDBRANCH 22 23
ENDBRANCH 21 22
ENDBRANCH 18 21
ENDBRANCH 15 18
ENDBRANCH 10 14
ENDBRANCH 7 10
ENDBRANCH 5 6
BRANCH 5 28
ATOM     28  CB  ASP C 504      78.341  21.517 -17.149  1.00 57.84 LIG 0.15  C 
BRANCH 28 29
ATOM     29  CG  ASP C 504      79.284  20.447 -17.688  1.00 60.92 LIG 0.17  C 
ATOM     30 OD2  ASP C 504      78.812  19.312 -17.937  1.00 60.43 LIG-0.65  OA
ATOM     31 OD1  ASP C 504      80.488  20.733 -17.864  1.00 59.69 LIG-0.65  OA
ENDBRANCH 28 29
ENDBRANCH 5 28
ENDBRANCH 3 5
BRANCH 1 32
ATOM     32  CA  SER C 503      76.976  25.119 -14.313  1.00 44.19 LIG 0.20  C 
BRANCH 32 33
ATOM     33  N   SER C 503      77.365  26.123 -13.320  1.00 47.77 LIG-0.34  N 
ATOM     34 H    SER C 503      77.501  26.910 -13.642  1.00 47.77 LIG 0.16  HD
ATOM     35  C   SER C 502      77.489  25.811 -12.032  1.00 50.79 LIG 0.24  C 
ATOM     36 O    SER C 502      77.021  24.791 -11.544  1.00 48.58 LIG-0.27  OA
BRANCH 35 37
ATOM     37  CA  SER C 502      78.264  26.788 -11.166  1.00 60.54 LIG 0.20  C 
BRANCH 37 38
ATOM     38  CB  SER C 502      77.349  27.449 -10.150  1.00 53.64 LIG 0.20  C 
BRANCH 38 39
ATOM     39 OG   SER C 502      76.812  28.654 -10.646  1.00 59.09 LIG-0.40  OA
ATOM     40 HG   SER C 502      76.864  29.248 -10.056  1.00 59.09 LIG 0.21  HD
ENDBRANCH 38 39
ENDBRANCH 37 38
BRANCH 37 41
ATOM     41  N   SER C 502      78.915  27.755 -12.041  1.00 72.56 LIG-0.34  N 
ATOM     42 H    SER C 502      78.497  28.501 -12.135  1.00 72.56 LIG 0.16  HD
ATOM     43  C   GLU C 501      80.071  27.456 -12.626  1.00101.90 LIG 0.26  C 
ATOM     44 O    GLU C 501      80.808  26.563 -12.206  1.00103.22 LIG-0.27  OA
BRANCH 43 45
ATOM     45  CA  GLU C 501      80.476  28.290 -13.848  1.00101.55 LIG 0.40  C 
ATOM     46  N   GLU C 501      79.469  28.174 -14.897  1.00100.94 LIG 0.61  N 
BRANCH 45 47
ATOM     47  CB  GLU C 501      80.668  29.759 -13.459  1.00104.94 LIG 0.06  C 
BRANCH 47 48
ATOM     48  CG  GLU C 501      81.782  30.461 -14.216  1.00111.45 LIG 0.12  C 
BRANCH 48 49
ATOM     49  CD  GLU C 501      81.737  30.184 -15.705  1.00115.68 LIG 0.17  C 
ATOM     50 OE1  GLU C 501      82.817  30.096 -16.331  1.00117.56 LIG-0.65  OA
ATOM     51 OE2  GLU C 501      80.620  30.054 -16.247  1.00122.11 LIG-0.65  OA
ENDBRANCH 48 49
ENDBRANCH 47 48
ENDBRANCH 45 47
ENDBRANCH 43 45
ENDBRANCH 37 41
ENDBRANCH 35 37
ENDBRANCH 32 33
BRANCH 32 52
ATOM     52  CB  SER C 503      76.318  25.770 -15.522  1.00 49.05 LIG 0.20  C 
BRANCH 52 53
ATOM     53 OG   SER C 503      74.984  25.316 -15.662  1.00 54.59 LIG-0.40  OA
ATOM     54 HG   SER C 503      74.771  24.858 -14.991  1.00 54.59 LIG 0.21  HD
ENDBRANCH 52 53
ENDBRANCH 32 52
ENDBRANCH 1 32
TORSDOF 25
ENDMDL
MODEL 99
USER: ADFR SOLUTION from run 189
USER: SCORE 14.767384 LL:  -4.574 LR: -12.567 RR:   0.000 FEB:  -5.110
USER: RMSD 5.972926
USER: SEED 188
USER: STATUS no improvement in best in 10 clusters for 5 generations
USER: GENES 27
USER: genes 0 Translation |==|  0.39386 0.49144 0.66904
USER: genes 1 Rotation |==|  0.49723 0.45065 0.06180 0.73566
USER: genes 2 Torsion [C]-N--CA-[CB] |==|  0.36624
USER: genes 3 Torsion [N]-CA--C-[N] |==|  0.47548
USER: genes 4 Torsion [C]-N--CA-[C] |==|  0.17778
USER: genes 5 Torsion [N]-CA--CB-[OG] |==|  0.85888
USER: genes 6 Torsion [CA]-CB--OG-[HG] |==|  0.09012
USER: genes 7 Torsion [N]-CA--C-[N] |==|  0.10690
USER: genes 8 Torsion [C]-N--CA-[CB] |==|  0.22216
USER: genes 9 Torsion [N]-CA--C-[O] |==|  0.50822
USER: genes 10 Torsion [N]-CA--CB-[CG] |==|  0.66721
USER: genes 11 Torsion [CA]-CB--CG-[CD] |==|  0.83418
USER: genes 12 Torsion [CB]-CG--CD-[NE2] |==|  0.90739
USER: genes 13 Torsion [N]-CA--CB-[CG] |==|  0.58811
USER: genes 14 Torsion [CA]-CB--CG-[OD1] |==|  0.33366
USER: genes 15 Torsion [N]-C--CA-[N] |==|  0.00354
USER: genes 16 Torsion [C]-CA--N-[C] |==|  0.76034
USER: genes 17 Torsion [N]-C--CA-[N] |==|  0.04230
USER: genes 18 Torsion [C]-CA--CB-[OG] |==|  0.53775
USER: genes 19 Torsion [CA]-CB--OG-[HG] |==|  0.00160
USER: genes 20 Torsion [C]-CA--N-[C] |==|  0.58866
USER: genes 21 Torsion [N]-C--CA-[N] |==|  0.86876
USER: genes 22 Torsion [C]-CA--CB-[CG] |==|  0.45863
USER: genes 23 Torsion [CA]-CB--CG-[CD] |==|  0.92247
USER: genes 24 Torsion [CB]-CG--CD-[OE1] |==|  0.21154
USER: genes 25 Torsion [C]-CA--CB-[OG] |==|  0.85633
USER: genes 26 Torsion [CA]-CB--OG-[HG] |==|  0.69379
ROOT
ATOM      1  C   SER C 503      77.440  26.178 -11.375  1.00 42.27 LIG 0.24  C 
ATOM      2 O    SER C 503      77.226  24.989 -11.152  1.00 46.84 LIG-0.27  OA
ATOM      3  N   ASP C 504      76.662  26.929 -12.143  1.00 51.15 LIG-0.34  N 
ATOM      4 H    ASP C 504      76.755  27.780 -12.222  1.00 51.15 LIG 0.16  HD
ENDROOT
BRANCH 3 5
ATOM      5  CA  ASP C 504      75.565  26.377 -12.937  1.00 56.79 LIG 0.19  C 
BRANCH 5 6
ATOM      6  C   ASP C 504      75.950  26.343 -14.423  1.00 67.42 LIG 0.24  C 
ATOM      7  N   SER C 505      75.113  25.697 -15.230  1.00 81.52 LIG-0.34  N 
ATOM      8 H    SER C 505      74.398  25.304 -14.961  1.00 81.52 LIG 0.16  HD
ATOM      9 O    ASP C 504      76.976  26.894 -14.827  1.00 66.01 LIG-0.27  OA
BRANCH 7 10
ATOM     10  CA  SER C 505      75.344  25.600 -16.669  1.00 90.64 LIG 0.20  C 
BRANCH 10 11
ATOM     11  CB  SER C 505      75.429  26.988 -17.295  1.00 89.01 LIG 0.20  C 
BRANCH 11 12
ATOM     12 OG   SER C 505      74.318  27.772 -16.907  1.00 87.22 LIG-0.40  OA
ATOM     13 HG   SER C 505      74.080  27.556 -16.132  1.00 87.22 LIG 0.21  HD
ENDBRANCH 11 12
ENDBRANCH 10 11
BRANCH 10 14
ATOM     14  C   SER C 505      76.620  24.813 -16.950  1.00 98.93 LIG 0.24  C 
ATOM     15  N   GLN C 506      76.852  23.767 -16.162  1.00110.12 LIG-0.35  N 
ATOM     16 H    GLN C 506      76.271  23.432 -15.623  1.00110.12 LIG 0.16  HD
ATOM     17 O    SER C 505      77.372  25.139 -17.870  1.00 94.47 LIG-0.27  OA
BRANCH 15 18
ATOM     18  CA  GLN C 506      78.144  23.090 -16.152  1.00115.19 LIG 0.16  C 
BRANCH 18 19
ATOM     19  C   GLN C 506      78.038  21.651 -15.649  1.00118.66 LIG 0.22  C 
ATOM     20 O    GLN C 506      79.044  20.949 -15.524  1.00117.46 LIG-0.29  OA
ENDBRANCH 18 19
BRANCH 18 21
ATOM     21  CB  GLN C 506      79.133  23.887 -15.294  1.00118.15 LIG 0.04  C 
BRANCH 21 22
ATOM     22  CG  GLN C 506      80.369  24.369 -16.068  1.00119.48 LIG 0.10  C 
BRANCH 22 23
ATOM     23  CD  GLN C 506      81.193  23.238 -16.682  1.00116.76 LIG 0.21  C 
ATOM     24  NE2 GLN C 506      81.234  22.096 -16.004  1.00111.94 LIG-0.37  N 
ATOM     25 21HE GLN C 506      80.811  22.023 -15.258  1.00111.94 LIG 0.16  HD
ATOM     26 22HE GLN C 506      81.682  21.429 -16.310  1.00111.94 LIG 0.16  HD
ATOM     27 OE1  GLN C 506      81.781  23.391 -17.753  1.00116.06 LIG-0.27  OA
ENDBRANCH 22 23
ENDBRANCH 21 22
ENDBRANCH 18 21
ENDBRANCH 15 18
ENDBRANCH 10 14
ENDBRANCH 7 10
ENDBRANCH 5 6
BRANCH 5 28
ATOM     28  CB  ASP C 504      74.292  27.215 -12.719  1.00 57.84 LIG 0.15  C 
BRANCH 28 29
ATOM     29  CG  ASP C 504      73.008  26.399 -12.818  1.00 60.92 LIG 0.17  C 
ATOM     30 OD2  ASP C 504      72.767  25.802 -13.895  1.00 60.43 LIG-0.65  OA
ATOM     31 OD1  ASP C 504      72.244  26.348 -11.831  1.00 59.69 LIG-0.65  OA
ENDBRANCH 28 29
ENDBRANCH 5 28
ENDBRANCH 3 5
BRANCH 1 32
ATOM     32  CA  SER C 503      78.631  26.880 -10.749  1.00 44.19 LIG 0.20  C 
BRANCH 32 33
ATOM     33  N   SER C 503      78.652  28.297 -11.119  1.00 47.77 LIG-0.34  N 
ATOM     34 H    SER C 503      78.269  28.820 -10.553  1.00 47.77 LIG 0.16  HD
ATOM     35  C   SER C 502      79.226  28.709 -12.248  1.00 50.79 LIG 0.24  C 
ATOM     36 O    SER C 502      80.007  28.022 -12.890  1.00 48.58 LIG-0.27  OA
BRANCH 35 37
ATOM     37  CA  SER C 502      78.855  30.100 -12.732  1.00 60.54 LIG 0.20  C 
BRANCH 37 38
ATOM     38  CB  SER C 502      80.079  30.832 -13.256  1.00 53.64 LIG 0.20  C 
BRANCH 38 39
ATOM     39 OG   SER C 502      79.827  32.208 -13.419  1.00 59.09 LIG-0.40  OA
ATOM     40 HG   SER C 502      79.038  32.378 -13.187  1.00 59.09 LIG 0.21  HD
ENDBRANCH 38 39
ENDBRANCH 37 38
BRANCH 37 41
ATOM     41  N   SER C 502      78.212  30.809 -11.632  1.00 72.56 LIG-0.34  N 
ATOM     42 H    SER C 502      78.492  30.596 -10.847  1.00 72.56 LIG 0.16  HD
ATOM     43  C   GLU C 501      77.267  31.711 -11.880  1.00101.90 LIG 0.26  C 
ATOM     44 O    GLU C 501      77.144  32.248 -12.981  1.00103.22 LIG-0.27  OA
BRANCH 43 45
ATOM     45  CA  GLU C 501      76.334  32.087 -10.721  1.00101.55 LIG 0.40  C 
ATOM     46  N   GLU C 501      75.847  30.884 -10.053  1.00100.94 LIG 0.61  N 
BRANCH 45 47
ATOM     47  CB  GLU C 501      77.055  32.994  -9.720  1.00104.94 LIG 0.06  C 
BRANCH 47 48
ATOM     48  CG  GLU C 501      76.130  33.700  -8.744  1.00111.45 LIG 0.12  C 
BRANCH 48 49
ATOM     49  CD  GLU C 501      74.746  33.929  -9.317  1.00115.68 LIG 0.17  C 
ATOM     50 OE1  GLU C 501      73.957  32.960  -9.384  1.00117.56 LIG-0.65  OA
ATOM     51 OE2  GLU C 501      74.450  35.080  -9.701  1.00122.11 LIG-0.65  OA
ENDBRANCH 48 49
ENDBRANCH 47 48
ENDBRANCH 45 47
ENDBRANCH 43 45
ENDBRANCH 37 41
ENDBRANCH 35 37
ENDBRANCH 32 33
BRANCH 32 52
ATOM     52  CB  SER C 503      78.580  26.710  -9.237  1.00 49.05 LIG 0.20  C 
BRANCH 52 53
ATOM     53 OG   SER C 503      77.312  27.096  -8.739  1.00 54.59 LIG-0.40  OA
ATOM     54 HG   SER C 503      77.388  27.808  -8.299  1.00 54.59 LIG 0.21  HD
ENDBRANCH 52 53
ENDBRANCH 32 52
ENDBRANCH 1 32
TORSDOF 25
ENDMDL
MODEL 100
USER: ADFR SOLUTION from run 146
USER: SCORE 14.053644 LL:  -4.473 LR: -12.570 RR:   0.000 FEB:  -5.113
USER: RMSD 5.865516
USER: SEED 145
USER: STATUS no improvement in best in 9 clusters for 5 generations
USER: GENES 27
USER: genes 0 Translation |==|  0.61928 0.51353 0.52148
USER: genes 1 Rotation |==|  0.30742 0.73100 0.68988 0.85142
USER: genes 2 Torsion [C]-N--CA-[CB] |==|  0.87750
USER: genes 3 Torsion [N]-CA--C-[N] |==|  0.77222
USER: genes 4 Torsion [C]-N--CA-[C] |==|  0.73153
USER: genes 5 Torsion [N]-CA--CB-[OG] |==|  0.88867
USER: genes 6 Torsion [CA]-CB--OG-[HG] |==|  0.95052
USER: genes 7 Torsion [N]-CA--C-[N] |==|  0.97545
USER: genes 8 Torsion [C]-N--CA-[CB] |==|  0.35510
USER: genes 9 Torsion [N]-CA--C-[O] |==|  0.11699
USER: genes 10 Torsion [N]-CA--CB-[CG] |==|  0.29837
USER: genes 11 Torsion [CA]-CB--CG-[CD] |==|  0.42173
USER: genes 12 Torsion [CB]-CG--CD-[NE2] |==|  0.96911
USER: genes 13 Torsion [N]-CA--CB-[CG] |==|  0.52999
USER: genes 14 Torsion [CA]-CB--CG-[OD1] |==|  0.25432
USER: genes 15 Torsion [N]-C--CA-[N] |==|  0.77898
USER: genes 16 Torsion [C]-CA--N-[C] |==|  0.55580
USER: genes 17 Torsion [N]-C--CA-[N] |==|  0.54159
USER: genes 18 Torsion [C]-CA--CB-[OG] |==|  0.31578
USER: genes 19 Torsion [CA]-CB--OG-[HG] |==|  0.32800
USER: genes 20 Torsion [C]-CA--N-[C] |==|  0.21392
USER: genes 21 Torsion [N]-C--CA-[N] |==|  0.26839
USER: genes 22 Torsion [C]-CA--CB-[CG] |==|  0.15283
USER: genes 23 Torsion [CA]-CB--CG-[CD] |==|  0.12610
USER: genes 24 Torsion [CB]-CG--CD-[OE1] |==|  0.10884
USER: genes 25 Torsion [C]-CA--CB-[OG] |==|  0.73152
USER: genes 26 Torsion [CA]-CB--OG-[HG] |==|  0.24989
ROOT
ATOM      1  C   SER C 503      81.329  26.642 -14.141  1.00 42.27 LIG 0.24  C 
ATOM      2 O    SER C 503      81.214  27.070 -15.287  1.00 46.84 LIG-0.27  OA
ATOM      3  N   ASP C 504      82.100  25.612 -13.820  1.00 51.15 LIG-0.34  N 
ATOM      4 H    ASP C 504      82.257  25.373 -13.009  1.00 51.15 LIG 0.16  HD
ENDROOT
BRANCH 3 5
ATOM      5  CA  ASP C 504      82.763  24.777 -14.821  1.00 56.79 LIG 0.19  C 
BRANCH 5 6
ATOM      6  C   ASP C 504      84.010  25.489 -15.364  1.00 67.42 LIG 0.24  C 
ATOM      7  N   SER C 505      83.802  26.389 -16.321  1.00 81.52 LIG-0.34  N 
ATOM      8 H    SER C 505      83.026  26.573 -16.642  1.00 81.52 LIG 0.16  HD
ATOM      9 O    ASP C 504      85.132  25.231 -14.922  1.00 66.01 LIG-0.27  OA
BRANCH 7 10
ATOM     10  CA  SER C 505      84.894  27.154 -16.917  1.00 90.64 LIG 0.20  C 
BRANCH 10 11
ATOM     11  CB  SER C 505      84.680  27.318 -18.418  1.00 89.01 LIG 0.20  C 
BRANCH 11 12
ATOM     12 OG   SER C 505      84.176  26.120 -18.977  1.00 87.22 LIG-0.40  OA
ATOM     13 HG   SER C 505      84.316  25.484 -18.448  1.00 87.22 LIG 0.21  HD
ENDBRANCH 11 12
ENDBRANCH 10 11
BRANCH 10 14
ATOM     14  C   SER C 505      85.014  28.519 -16.246  1.00 98.93 LIG 0.24  C 
ATOM     15  N   GLN C 506      84.039  28.849 -15.405  1.00110.12 LIG-0.35  N 
ATOM     16 H    GLN C 506      83.447  28.297 -15.113  1.00110.12 LIG 0.16  HD
ATOM     17 O    SER C 505      85.979  29.251 -16.476  1.00 94.47 LIG-0.27  OA
BRANCH 15 18
ATOM     18  CA  GLN C 506      83.895  30.209 -14.899  1.00115.19 LIG 0.16  C 
BRANCH 18 19
ATOM     19  C   GLN C 506      84.259  30.317 -13.419  1.00118.66 LIG 0.22  C 
ATOM     20 O    GLN C 506      85.244  29.730 -12.965  1.00117.46 LIG-0.29  OA
ENDBRANCH 18 19
BRANCH 18 21
ATOM     21  CB  GLN C 506      82.461  30.694 -15.135  1.00118.15 LIG 0.04  C 
BRANCH 21 22
ATOM     22  CG  GLN C 506      81.619  30.775 -13.853  1.00119.48 LIG 0.10  C 
BRANCH 22 23
ATOM     23  CD  GLN C 506      80.513  31.829 -13.905  1.00116.76 LIG 0.21  C 
ATOM     24  NE2 GLN C 506      80.554  32.684 -14.922  1.00111.94 LIG-0.37  N 
ATOM     25 21HE GLN C 506      81.183  32.627 -15.506  1.00111.94 LIG 0.16  HD
ATOM     26 22HE GLN C 506      79.953  33.293 -14.996  1.00111.94 LIG 0.16  HD
ATOM     27 OE1  GLN C 506      79.634  31.869 -13.044  1.00116.06 LIG-0.27  OA
ENDBRANCH 22 23
ENDBRANCH 21 22
ENDBRANCH 18 21
ENDBRANCH 15 18
ENDBRANCH 10 14
ENDBRANCH 7 10
ENDBRANCH 5 6
BRANCH 5 28
ATOM     28  CB  ASP C 504      81.780  24.449 -15.959  1.00 57.84 LIG 0.15  C 
BRANCH 28 29
ATOM     29  CG  ASP C 504      82.296  23.376 -16.912  1.00 60.92 LIG 0.17  C 
ATOM     30 OD2  ASP C 504      82.990  23.739 -17.892  1.00 60.43 LIG-0.65  OA
ATOM     31 OD1  ASP C 504      82.016  22.179 -16.687  1.00 59.69 LIG-0.65  OA
ENDBRANCH 28 29
ENDBRANCH 5 28
ENDBRANCH 3 5
BRANCH 1 32
ATOM     32  CA  SER C 503      80.586  27.299 -12.992  1.00 44.19 LIG 0.20  C 
BRANCH 32 33
ATOM     33  N   SER C 503      79.396  26.524 -12.633  1.00 47.77 LIG-0.34  N 
ATOM     34 H    SER C 503      79.409  25.706 -12.896  1.00 47.77 LIG 0.16  HD
ATOM     35  C   SER C 502      78.392  27.075 -11.952  1.00 50.79 LIG 0.24  C 
ATOM     36 O    SER C 502      78.499  28.127 -11.337  1.00 48.58 LIG-0.27  OA
BRANCH 35 37
ATOM     37  CA  SER C 502      77.067  26.334 -11.976  1.00 60.54 LIG 0.20  C 
BRANCH 37 38
ATOM     38  CB  SER C 502      76.775  25.799 -13.367  1.00 53.64 LIG 0.20  C 
BRANCH 38 39
ATOM     39 OG   SER C 502      76.790  24.390 -13.392  1.00 59.09 LIG-0.40  OA
ATOM     40 HG   SER C 502      76.032  24.106 -13.614  1.00 59.09 LIG 0.21  HD
ENDBRANCH 38 39
ENDBRANCH 37 38
BRANCH 37 41
ATOM     41  N   SER C 502      76.029  27.240 -11.499  1.00 72.56 LIG-0.34  N 
ATOM     42 H    SER C 502      75.770  27.104 -10.691  1.00 72.56 LIG 0.16  HD
ATOM     43  C   GLU C 501      75.553  28.190 -12.297  1.00101.90 LIG 0.26  C 
ATOM     44 O    GLU C 501      76.171  28.590 -13.285  1.00103.22 LIG-0.27  OA
BRANCH 43 45
ATOM     45  CA  GLU C 501      74.197  28.804 -11.928  1.00101.55 LIG 0.40  C 
ATOM     46  N   GLU C 501      74.388  30.045 -11.184  1.00100.94 LIG 0.61  N 
BRANCH 45 47
ATOM     47  CB  GLU C 501      73.361  29.064 -13.185  1.00104.94 LIG 0.06  C 
BRANCH 47 48
ATOM     48  CG  GLU C 501      73.162  27.842 -14.063  1.00111.45 LIG 0.12  C 
BRANCH 48 49
ATOM     49  CD  GLU C 501      72.786  26.609 -13.266  1.00115.68 LIG 0.17  C 
ATOM     50 OE1  GLU C 501      72.000  26.736 -12.301  1.00117.56 LIG-0.65  OA
ATOM     51 OE2  GLU C 501      73.280  25.514 -13.606  1.00122.11 LIG-0.65  OA
ENDBRANCH 48 49
ENDBRANCH 47 48
ENDBRANCH 45 47
ENDBRANCH 43 45
ENDBRANCH 37 41
ENDBRANCH 35 37
ENDBRANCH 32 33
BRANCH 32 52
ATOM     52  CB  SER C 503      81.525  27.443 -11.802  1.00 49.05 LIG 0.20  C 
BRANCH 52 53
ATOM     53 OG   SER C 503      81.344  26.369 -10.897  1.00 54.59 LIG-0.40  OA
ATOM     54 HG   SER C 503      81.861  25.738 -11.103  1.00 54.59 LIG 0.21  HD
ENDBRANCH 52 53
ENDBRANCH 32 52
ENDBRANCH 1 32
TORSDOF 25
ENDMDL
MODEL 101
USER: ADFR SOLUTION from run 166
USER: SCORE 15.066314 LL:  -4.482 LR: -12.556 RR:   0.000 FEB:  -5.098
USER: RMSD 6.113429
USER: SEED 165
USER: STATUS no improvement in best in 10 clusters for 5 generations
USER: GENES 27
USER: genes 0 Translation |==|  0.65539 0.55684 0.48288
USER: genes 1 Rotation |==|  0.55080 0.24520 0.18397 0.78744
USER: genes 2 Torsion [C]-N--CA-[CB] |==|  0.81667
USER: genes 3 Torsion [N]-CA--C-[N] |==|  0.15817
USER: genes 4 Torsion [C]-N--CA-[C] |==|  0.24060
USER: genes 5 Torsion [N]-CA--CB-[OG] |==|  0.68568
USER: genes 6 Torsion [CA]-CB--OG-[HG] |==|  0.69587
USER: genes 7 Torsion [N]-CA--C-[N] |==|  0.39426
USER: genes 8 Torsion [C]-N--CA-[CB] |==|  0.49421
USER: genes 9 Torsion [N]-CA--C-[O] |==|  0.90114
USER: genes 10 Torsion [N]-CA--CB-[CG] |==|  0.90531
USER: genes 11 Torsion [CA]-CB--CG-[CD] |==|  0.30600
USER: genes 12 Torsion [CB]-CG--CD-[NE2] |==|  0.77378
USER: genes 13 Torsion [N]-CA--CB-[CG] |==|  0.54365
USER: genes 14 Torsion [CA]-CB--CG-[OD1] |==|  0.63027
USER: genes 15 Torsion [N]-C--CA-[N] |==|  0.39667
USER: genes 16 Torsion [C]-CA--N-[C] |==|  0.85384
USER: genes 17 Torsion [N]-C--CA-[N] |==|  0.42712
USER: genes 18 Torsion [C]-CA--CB-[OG] |==|  0.58671
USER: genes 19 Torsion [CA]-CB--OG-[HG] |==|  0.91053
USER: genes 20 Torsion [C]-CA--N-[C] |==|  0.83805
USER: genes 21 Torsion [N]-C--CA-[N] |==|  0.79607
USER: genes 22 Torsion [C]-CA--CB-[CG] |==|  0.50730
USER: genes 23 Torsion [CA]-CB--CG-[CD] |==|  0.91901
USER: genes 24 Torsion [CB]-CG--CD-[OE1] |==|  0.24289
USER: genes 25 Torsion [C]-CA--CB-[OG] |==|  0.54755
USER: genes 26 Torsion [CA]-CB--OG-[HG] |==|  0.90058
ROOT
ATOM      1  C   SER C 503      81.951  27.552 -14.865  1.00 42.27 LIG 0.24  C 
ATOM      2 O    SER C 503      81.887  26.722 -13.961  1.00 46.84 LIG-0.27  OA
ATOM      3  N   ASP C 504      81.700  27.268 -16.136  1.00 51.15 LIG-0.34  N 
ATOM      4 H    ASP C 504      81.650  27.865 -16.753  1.00 51.15 LIG 0.16  HD
ENDROOT
BRANCH 3 5
ATOM      5  CA  ASP C 504      81.484  25.903 -16.615  1.00 56.79 LIG 0.19  C 
BRANCH 5 6
ATOM      6  C   ASP C 504      80.332  25.246 -15.841  1.00 67.42 LIG 0.24  C 
ATOM      7  N   SER C 505      79.165  25.881 -15.876  1.00 81.52 LIG-0.34  N 
ATOM      8 H    SER C 505      79.037  26.623 -16.291  1.00 81.52 LIG 0.16  HD
ATOM      9 O    ASP C 504      80.499  24.186 -15.232  1.00 66.01 LIG-0.27  OA
BRANCH 7 10
ATOM     10  CA  SER C 505      77.978  25.361 -15.200  1.00 90.64 LIG 0.20  C 
BRANCH 10 11
ATOM     11  CB  SER C 505      77.944  23.838 -15.269  1.00 89.01 LIG 0.20  C 
BRANCH 11 12
ATOM     12 OG   SER C 505      76.861  23.406 -16.070  1.00 87.22 LIG-0.40  OA
ATOM     13 HG   SER C 505      76.276  23.052 -15.583  1.00 87.22 LIG 0.21  HD
ENDBRANCH 11 12
ENDBRANCH 10 11
BRANCH 10 14
ATOM     14  C   SER C 505      77.949  25.827 -13.747  1.00 98.93 LIG 0.24  C 
ATOM     15  N   GLN C 506      76.755  26.143 -13.254  1.00110.12 LIG-0.35  N 
ATOM     16 H    GLN C 506      76.010  25.962 -13.645  1.00110.12 LIG 0.16  HD
ATOM     17 O    SER C 505      78.986  25.886 -13.084  1.00 94.47 LIG-0.27  OA
BRANCH 15 18
ATOM     18  CA  GLN C 506      76.614  26.839 -11.981  1.00115.19 LIG 0.16  C 
BRANCH 18 19
ATOM     19  C   GLN C 506      77.240  26.060 -10.825  1.00118.66 LIG 0.22  C 
ATOM     20 O    GLN C 506      77.197  24.828 -10.794  1.00117.46 LIG-0.29  OA
ENDBRANCH 18 19
BRANCH 18 21
ATOM     21  CB  GLN C 506      75.131  27.109 -11.705  1.00118.15 LIG 0.04  C 
BRANCH 21 22
ATOM     22  CG  GLN C 506      74.312  27.393 -12.973  1.00119.48 LIG 0.10  C 
BRANCH 22 23
ATOM     23  CD  GLN C 506      73.329  26.279 -13.335  1.00116.76 LIG 0.21  C 
ATOM     24  NE2 GLN C 506      73.829  25.235 -13.988  1.00111.94 LIG-0.37  N 
ATOM     25 21HE GLN C 506      74.666  25.212 -14.186  1.00111.94 LIG 0.16  HD
ATOM     26 22HE GLN C 506      73.316  24.581 -14.211  1.00111.94 LIG 0.16  HD
ATOM     27 OE1  GLN C 506      72.140  26.358 -13.028  1.00116.06 LIG-0.27  OA
ENDBRANCH 22 23
ENDBRANCH 21 22
ENDBRANCH 18 21
ENDBRANCH 15 18
ENDBRANCH 10 14
ENDBRANCH 7 10
ENDBRANCH 5 6
BRANCH 5 28
ATOM     28  CB  ASP C 504      82.780  25.087 -16.466  1.00 57.84 LIG 0.15  C 
BRANCH 28 29
ATOM     29  CG  ASP C 504      82.774  23.793 -17.271  1.00 60.92 LIG 0.17  C 
ATOM     30 OD2  ASP C 504      82.399  23.841 -18.467  1.00 60.43 LIG-0.65  OA
ATOM     31 OD1  ASP C 504      83.143  22.733 -16.720  1.00 59.69 LIG-0.65  OA
ENDBRANCH 28 29
ENDBRANCH 5 28
ENDBRANCH 3 5
BRANCH 1 32
ATOM     32  CA  SER C 503      82.315  28.995 -14.566  1.00 44.19 LIG 0.20  C 
BRANCH 32 33
ATOM     33  N   SER C 503      81.741  29.420 -13.287  1.00 47.77 LIG-0.34  N 
ATOM     34 H    SER C 503      82.307  29.764 -12.738  1.00 47.77 LIG 0.16  HD
ATOM     35  C   SER C 502      80.443  29.271 -13.027  1.00 50.79 LIG 0.24  C 
ATOM     36 O    SER C 502      79.608  29.059 -13.895  1.00 48.58 LIG-0.27  OA
BRANCH 35 37
ATOM     37  CA  SER C 502      80.026  29.364 -11.571  1.00 60.54 LIG 0.20  C 
BRANCH 37 38
ATOM     38  CB  SER C 502      80.241  28.037 -10.863  1.00 53.64 LIG 0.20  C 
BRANCH 38 39
ATOM     39 OG   SER C 502      79.295  27.839  -9.838  1.00 59.09 LIG-0.40  OA
ATOM     40 HG   SER C 502      79.087  28.580  -9.503  1.00 59.09 LIG 0.21  HD
ENDBRANCH 38 39
ENDBRANCH 37 38
BRANCH 37 41
ATOM     41  N   SER C 502      78.637  29.802 -11.521  1.00 72.56 LIG-0.34  N 
ATOM     42 H    SER C 502      78.100  29.266 -11.116  1.00 72.56 LIG 0.16  HD
ATOM     43  C   GLU C 501      78.279  30.955 -12.077  1.00101.90 LIG 0.26  C 
ATOM     44 O    GLU C 501      79.091  31.848 -12.320  1.00103.22 LIG-0.27  OA
BRANCH 43 45
ATOM     45  CA  GLU C 501      76.790  31.153 -12.389  1.00101.55 LIG 0.40  C 
ATOM     46  N   GLU C 501      76.402  30.344 -13.540  1.00100.94 LIG 0.61  N 
BRANCH 45 47
ATOM     47  CB  GLU C 501      75.931  30.789 -11.174  1.00104.94 LIG 0.06  C 
BRANCH 47 48
ATOM     48  CG  GLU C 501      74.435  30.896 -11.417  1.00111.45 LIG 0.12  C 
BRANCH 48 49
ATOM     49  CD  GLU C 501      74.089  31.943 -12.455  1.00115.68 LIG 0.17  C 
ATOM     50 OE1  GLU C 501      74.073  31.611 -13.661  1.00117.56 LIG-0.65  OA
ATOM     51 OE2  GLU C 501      73.832  33.100 -12.061  1.00122.11 LIG-0.65  OA
ENDBRANCH 48 49
ENDBRANCH 47 48
ENDBRANCH 45 47
ENDBRANCH 43 45
ENDBRANCH 37 41
ENDBRANCH 35 37
ENDBRANCH 32 33
BRANCH 32 52
ATOM     52  CB  SER C 503      83.830  29.143 -14.563  1.00 49.05 LIG 0.20  C 
BRANCH 52 53
ATOM     53 OG   SER C 503      84.208  30.345 -13.916  1.00 54.59 LIG-0.40  OA
ATOM     54 HG   SER C 503      83.643  30.944 -14.085  1.00 54.59 LIG 0.21  HD
ENDBRANCH 52 53
ENDBRANCH 32 52
ENDBRANCH 1 32
TORSDOF 25
ENDMDL
MODEL 102
USER: ADFR SOLUTION from run 192
USER: SCORE 15.614568 LL:  -4.378 LR: -12.546 RR:   0.000 FEB:  -5.089
USER: RMSD 6.384661
USER: SEED 191
USER: STATUS no improvement in best in 4 clusters for 5 generations
USER: GENES 27
USER: genes 0 Translation |==|  0.52482 0.56963 0.63497
USER: genes 1 Rotation |==|  0.75879 0.47101 0.47941 0.92634
USER: genes 2 Torsion [C]-N--CA-[CB] |==|  0.85972
USER: genes 3 Torsion [N]-CA--C-[N] |==|  0.37778
USER: genes 4 Torsion [C]-N--CA-[C] |==|  0.75914
USER: genes 5 Torsion [N]-CA--CB-[OG] |==|  0.45018
USER: genes 6 Torsion [CA]-CB--OG-[HG] |==|  0.84167
USER: genes 7 Torsion [N]-CA--C-[N] |==|  0.92780
USER: genes 8 Torsion [C]-N--CA-[CB] |==|  0.45063
USER: genes 9 Torsion [N]-CA--C-[O] |==|  0.15833
USER: genes 10 Torsion [N]-CA--CB-[CG] |==|  0.76424
USER: genes 11 Torsion [CA]-CB--CG-[CD] |==|  0.16936
USER: genes 12 Torsion [CB]-CG--CD-[NE2] |==|  0.75093
USER: genes 13 Torsion [N]-CA--CB-[CG] |==|  0.47062
USER: genes 14 Torsion [CA]-CB--CG-[OD1] |==|  0.60954
USER: genes 15 Torsion [N]-C--CA-[N] |==|  0.06524
USER: genes 16 Torsion [C]-CA--N-[C] |==|  0.75308
USER: genes 17 Torsion [N]-C--CA-[N] |==|  0.86658
USER: genes 18 Torsion [C]-CA--CB-[OG] |==|  0.51297
USER: genes 19 Torsion [CA]-CB--OG-[HG] |==|  0.29106
USER: genes 20 Torsion [C]-CA--N-[C] |==|  0.23672
USER: genes 21 Torsion [N]-C--CA-[N] |==|  0.89358
USER: genes 22 Torsion [C]-CA--CB-[CG] |==|  0.54454
USER: genes 23 Torsion [CA]-CB--CG-[CD] |==|  0.81387
USER: genes 24 Torsion [CB]-CG--CD-[OE1] |==|  0.57036
USER: genes 25 Torsion [C]-CA--CB-[OG] |==|  0.47443
USER: genes 26 Torsion [CA]-CB--OG-[HG] |==|  0.79650
ROOT
ATOM      1  C   SER C 503      79.699  27.820 -12.013  1.00 42.27 LIG 0.24  C 
ATOM      2 O    SER C 503      80.813  27.882 -11.497  1.00 46.84 LIG-0.27  OA
ATOM      3  N   ASP C 504      79.502  27.801 -13.325  1.00 51.15 LIG-0.34  N 
ATOM      4 H    ASP C 504      78.735  27.660 -13.686  1.00 51.15 LIG 0.16  HD
ENDROOT
BRANCH 3 5
ATOM      5  CA  ASP C 504      80.579  28.018 -14.290  1.00 56.79 LIG 0.19  C 
BRANCH 5 6
ATOM      6  C   ASP C 504      81.517  26.803 -14.323  1.00 67.42 LIG 0.24  C 
ATOM      7  N   SER C 505      81.891  26.384 -15.528  1.00 81.52 LIG-0.34  N 
ATOM      8 H    SER C 505      81.630  26.746 -16.262  1.00 81.52 LIG 0.16  HD
ATOM      9 O    ASP C 504      81.895  26.264 -13.280  1.00 66.01 LIG-0.27  OA
BRANCH 7 10
ATOM     10  CA  SER C 505      82.795  25.250 -15.708  1.00 90.64 LIG 0.20  C 
BRANCH 10 11
ATOM     11  CB  SER C 505      82.514  24.543 -17.029  1.00 89.01 LIG 0.20  C 
BRANCH 11 12
ATOM     12 OG   SER C 505      83.614  23.733 -17.397  1.00 87.22 LIG-0.40  OA
ATOM     13 HG   SER C 505      84.307  24.205 -17.443  1.00 87.22 LIG 0.21  HD
ENDBRANCH 11 12
ENDBRANCH 10 11
BRANCH 10 14
ATOM     14  C   SER C 505      84.247  25.715 -15.653  1.00 98.93 LIG 0.24  C 
ATOM     15  N   GLN C 506      84.473  26.981 -15.993  1.00110.12 LIG-0.35  N 
ATOM     16 H    GLN C 506      83.855  27.570 -16.092  1.00110.12 LIG 0.16  HD
ATOM     17 O    SER C 505      85.141  24.946 -15.297  1.00 94.47 LIG-0.27  OA
BRANCH 15 18
ATOM     18  CA  GLN C 506      85.823  27.477 -16.231  1.00115.19 LIG 0.16  C 
BRANCH 18 19
ATOM     19  C   GLN C 506      86.606  27.669 -14.932  1.00118.66 LIG 0.22  C 
ATOM     20 O    GLN C 506      86.771  26.732 -14.149  1.00117.46 LIG-0.29  OA
ENDBRANCH 18 19
BRANCH 18 21
ATOM     21  CB  GLN C 506      85.755  28.792 -17.015  1.00118.15 LIG 0.04  C 
BRANCH 21 22
ATOM     22  CG  GLN C 506      85.653  28.597 -18.536  1.00119.48 LIG 0.10  C 
BRANCH 22 23
ATOM     23  CD  GLN C 506      84.406  27.832 -18.978  1.00116.76 LIG 0.21  C 
ATOM     24  NE2 GLN C 506      84.515  26.509 -19.051  1.00111.94 LIG-0.37  N 
ATOM     25 21HE GLN C 506      85.261  26.128 -18.857  1.00111.94 LIG 0.16  HD
ATOM     26 22HE GLN C 506      83.839  26.035 -19.293  1.00111.94 LIG 0.16  HD
ATOM     27 OE1  GLN C 506      83.360  28.424 -19.244  1.00116.06 LIG-0.27  OA
ENDBRANCH 22 23
ENDBRANCH 21 22
ENDBRANCH 18 21
ENDBRANCH 15 18
ENDBRANCH 10 14
ENDBRANCH 7 10
ENDBRANCH 5 6
BRANCH 5 28
ATOM     28  CB  ASP C 504      81.353  29.298 -13.927  1.00 57.84 LIG 0.15  C 
BRANCH 28 29
ATOM     29  CG  ASP C 504      82.644  29.468 -14.720  1.00 60.92 LIG 0.17  C 
ATOM     30 OD2  ASP C 504      82.638  29.157 -15.935  1.00 60.43 LIG-0.65  OA
ATOM     31 OD1  ASP C 504      83.659  29.911 -14.140  1.00 59.69 LIG-0.65  OA
ENDBRANCH 28 29
ENDBRANCH 5 28
ENDBRANCH 3 5
BRANCH 1 32
ATOM     32  CA  SER C 503      78.451  27.742 -11.154  1.00 44.19 LIG 0.20  C 
BRANCH 32 33
ATOM     33  N   SER C 503      77.351  27.118 -11.892  1.00 47.77 LIG-0.34  N 
ATOM     34 H    SER C 503      77.297  26.264 -11.800  1.00 47.77 LIG 0.16  HD
ATOM     35  C   SER C 502      76.519  27.843 -12.638  1.00 50.79 LIG 0.24  C 
ATOM     36 O    SER C 502      76.417  29.058 -12.536  1.00 48.58 LIG-0.27  OA
BRANCH 35 37
ATOM     37  CA  SER C 502      75.684  27.088 -13.656  1.00 60.54 LIG 0.20  C 
BRANCH 37 38
ATOM     38  CB  SER C 502      74.546  26.346 -12.976  1.00 53.64 LIG 0.20  C 
BRANCH 38 39
ATOM     39 OG   SER C 502      73.825  25.556 -13.892  1.00 59.09 LIG-0.40  OA
ATOM     40 HG   SER C 502      74.027  24.748 -13.785  1.00 59.09 LIG 0.21  HD
ENDBRANCH 38 39
ENDBRANCH 37 38
BRANCH 37 41
ATOM     41  N   SER C 502      76.566  26.195 -14.397  1.00 72.56 LIG-0.34  N 
ATOM     42 H    SER C 502      76.866  26.510 -15.138  1.00 72.56 LIG 0.16  HD
ATOM     43  C   GLU C 501      76.854  24.989 -13.916  1.00101.90 LIG 0.26  C 
ATOM     44 O    GLU C 501      76.717  24.707 -12.725  1.00103.22 LIG-0.27  OA
BRANCH 43 45
ATOM     45  CA  GLU C 501      77.396  23.949 -14.904  1.00101.55 LIG 0.40  C 
ATOM     46  N   GLU C 501      76.717  24.071 -16.191  1.00100.94 LIG 0.61  N 
BRANCH 45 47
ATOM     47  CB  GLU C 501      78.908  24.114 -15.087  1.00104.94 LIG 0.06  C 
BRANCH 47 48
ATOM     48  CG  GLU C 501      79.467  23.405 -16.308  1.00111.45 LIG 0.12  C 
BRANCH 48 49
ATOM     49  CD  GLU C 501      79.381  21.897 -16.193  1.00115.68 LIG 0.17  C 
ATOM     50 OE1  GLU C 501      80.191  21.199 -16.843  1.00117.56 LIG-0.65  OA
ATOM     51 OE2  GLU C 501      78.501  21.411 -15.452  1.00122.11 LIG-0.65  OA
ENDBRANCH 48 49
ENDBRANCH 47 48
ENDBRANCH 45 47
ENDBRANCH 43 45
ENDBRANCH 37 41
ENDBRANCH 35 37
ENDBRANCH 32 33
BRANCH 32 52
ATOM     52  CB  SER C 503      78.764  26.967  -9.880  1.00 49.05 LIG 0.20  C 
BRANCH 52 53
ATOM     53 OG   SER C 503      77.684  27.059  -8.968  1.00 54.59 LIG-0.40  OA
ATOM     54 HG   SER C 503      77.664  27.829  -8.634  1.00 54.59 LIG 0.21  HD
ENDBRANCH 52 53
ENDBRANCH 32 52
ENDBRANCH 1 32
TORSDOF 25
ENDMDL
MODEL 103
USER: ADFR SOLUTION from run 140
USER: SCORE 15.276936 LL:  -4.246 LR: -12.553 RR:   0.000 FEB:  -5.096
USER: RMSD 6.221041
USER: SEED 139
USER: STATUS no improvement in best in 7 clusters for 5 generations
USER: GENES 27
USER: genes 0 Translation |==|  0.58964 0.54134 0.55811
USER: genes 1 Rotation |==|  0.64614 0.37114 0.42529 0.95438
USER: genes 2 Torsion [C]-N--CA-[CB] |==|  0.43000
USER: genes 3 Torsion [N]-CA--C-[N] |==|  0.95000
USER: genes 4 Torsion [C]-N--CA-[C] |==|  0.81795
USER: genes 5 Torsion [N]-CA--CB-[OG] |==|  0.06021
USER: genes 6 Torsion [CA]-CB--OG-[HG] |==|  0.23552
USER: genes 7 Torsion [N]-CA--C-[N] |==|  0.92350
USER: genes 8 Torsion [C]-N--CA-[CB] |==|  0.75262
USER: genes 9 Torsion [N]-CA--C-[O] |==|  0.35511
USER: genes 10 Torsion [N]-CA--CB-[CG] |==|  0.17810
USER: genes 11 Torsion [CA]-CB--CG-[CD] |==|  0.71486
USER: genes 12 Torsion [CB]-CG--CD-[NE2] |==|  0.35141
USER: genes 13 Torsion [N]-CA--CB-[CG] |==|  0.54462
USER: genes 14 Torsion [CA]-CB--CG-[OD1] |==|  0.13161
USER: genes 15 Torsion [N]-C--CA-[N] |==|  0.05379
USER: genes 16 Torsion [C]-CA--N-[C] |==|  0.18719
USER: genes 17 Torsion [N]-C--CA-[N] |==|  0.36197
USER: genes 18 Torsion [C]-CA--CB-[OG] |==|  0.54737
USER: genes 19 Torsion [CA]-CB--OG-[HG] |==|  0.18356
USER: genes 20 Torsion [C]-CA--N-[C] |==|  0.85014
USER: genes 21 Torsion [N]-C--CA-[N] |==|  0.48280
USER: genes 22 Torsion [C]-CA--CB-[CG] |==|  0.68313
USER: genes 23 Torsion [CA]-CB--CG-[CD] |==|  0.78336
USER: genes 24 Torsion [CB]-CG--CD-[OE1] |==|  0.92784
USER: genes 25 Torsion [C]-CA--CB-[OG] |==|  0.34447
USER: genes 26 Torsion [CA]-CB--OG-[HG] |==|  0.36873
ROOT
ATOM      1  C   SER C 503      80.817  27.226 -13.454  1.00 42.27 LIG 0.24  C 
ATOM      2 O    SER C 503      81.788  27.132 -12.707  1.00 46.84 LIG-0.27  OA
ATOM      3  N   ASP C 504      80.765  26.669 -14.657  1.00 51.15 LIG-0.34  N 
ATOM      4 H    ASP C 504      80.053  26.652 -15.140  1.00 51.15 LIG 0.16  HD
ENDROOT
BRANCH 3 5
ATOM      5  CA  ASP C 504      81.920  26.026 -15.282  1.00 56.79 LIG 0.19  C 
BRANCH 5 6
ATOM      6  C   ASP C 504      82.812  27.077 -15.958  1.00 67.42 LIG 0.24  C 
ATOM      7  N   SER C 505      82.248  28.258 -16.196  1.00 81.52 LIG-0.34  N 
ATOM      8 H    SER C 505      81.432  28.445 -16.003  1.00 81.52 LIG 0.16  HD
ATOM      9 O    ASP C 504      83.982  26.824 -16.250  1.00 66.01 LIG-0.27  OA
BRANCH 7 10
ATOM     10  CA  SER C 505      82.984  29.357 -16.817  1.00 90.64 LIG 0.20  C 
BRANCH 10 11
ATOM     11  CB  SER C 505      82.047  30.514 -17.146  1.00 89.01 LIG 0.20  C 
BRANCH 11 12
ATOM     12 OG   SER C 505      80.879  30.443 -16.351  1.00 87.22 LIG-0.40  OA
ATOM     13 HG   SER C 505      81.023  30.810 -15.609  1.00 87.22 LIG 0.21  HD
ENDBRANCH 11 12
ENDBRANCH 10 11
BRANCH 10 14
ATOM     14  C   SER C 505      84.108  29.829 -15.899  1.00 98.93 LIG 0.24  C 
ATOM     15  N   GLN C 506      83.918  29.647 -14.595  1.00110.12 LIG-0.35  N 
ATOM     16 H    GLN C 506      83.292  29.160 -14.263  1.00110.12 LIG 0.16  HD
ATOM     17 O    SER C 505      85.130  30.336 -16.364  1.00 94.47 LIG-0.27  OA
BRANCH 15 18
ATOM     18  CA  GLN C 506      84.783  30.276 -13.603  1.00115.19 LIG 0.16  C 
BRANCH 18 19
ATOM     19  C   GLN C 506      85.268  31.654 -14.050  1.00118.66 LIG 0.22  C 
ATOM     20 O    GLN C 506      85.133  32.639 -13.322  1.00117.46 LIG-0.29  OA
ENDBRANCH 18 19
BRANCH 18 21
ATOM     21  CB  GLN C 506      85.973  29.358 -13.306  1.00118.15 LIG 0.04  C 
BRANCH 21 22
ATOM     22  CG  GLN C 506      86.894  29.133 -14.514  1.00119.48 LIG 0.10  C 
BRANCH 22 23
ATOM     23  CD  GLN C 506      86.700  27.778 -15.195  1.00116.76 LIG 0.21  C 
ATOM     24  NE2 GLN C 506      86.467  27.799 -16.504  1.00111.94 LIG-0.37  N 
ATOM     25 21HE GLN C 506      86.430  28.549 -16.922  1.00111.94 LIG 0.16  HD
ATOM     26 22HE GLN C 506      86.354  27.061 -16.932  1.00111.94 LIG 0.16  HD
ATOM     27 OE1  GLN C 506      86.763  26.731 -14.552  1.00116.06 LIG-0.27  OA
ENDBRANCH 22 23
ENDBRANCH 21 22
ENDBRANCH 18 21
ENDBRANCH 15 18
ENDBRANCH 10 14
ENDBRANCH 7 10
ENDBRANCH 5 6
BRANCH 5 28
ATOM     28  CB  ASP C 504      81.443  24.975 -16.301  1.00 57.84 LIG 0.15  C 
BRANCH 28 29
ATOM     29  CG  ASP C 504      82.536  23.995 -16.713  1.00 60.92 LIG 0.17  C 
ATOM     30 OD2  ASP C 504      82.691  23.762 -17.936  1.00 60.43 LIG-0.65  OA
ATOM     31 OD1  ASP C 504      83.238  23.461 -15.828  1.00 59.69 LIG-0.65  OA
ENDBRANCH 28 29
ENDBRANCH 5 28
ENDBRANCH 3 5
BRANCH 1 32
ATOM     32  CA  SER C 503      79.580  27.993 -13.024  1.00 44.19 LIG 0.20  C 
BRANCH 32 33
ATOM     33  N   SER C 503      78.417  27.590 -13.818  1.00 47.77 LIG-0.34  N 
ATOM     34 H    SER C 503      78.113  28.201 -14.342  1.00 47.77 LIG 0.16  HD
ATOM     35  C   SER C 502      77.898  26.368 -13.713  1.00 50.79 LIG 0.24  C 
ATOM     36 O    SER C 502      78.493  25.431 -13.201  1.00 48.58 LIG-0.27  OA
BRANCH 35 37
ATOM     37  CA  SER C 502      76.493  26.177 -14.256  1.00 60.54 LIG 0.20  C 
BRANCH 37 38
ATOM     38  CB  SER C 502      75.489  26.056 -13.122  1.00 53.64 LIG 0.20  C 
BRANCH 38 39
ATOM     39 OG   SER C 502      74.272  25.504 -13.567  1.00 59.09 LIG-0.40  OA
ATOM     40 HG   SER C 502      74.396  24.708 -13.804  1.00 59.09 LIG 0.21  HD
ENDBRANCH 38 39
ENDBRANCH 37 38
BRANCH 37 41
ATOM     41  N   SER C 502      76.495  25.006 -15.124  1.00 72.56 LIG-0.34  N 
ATOM     42 H    SER C 502      75.907  24.409 -14.932  1.00 72.56 LIG 0.16  HD
ATOM     43  C   GLU C 501      77.363  24.919 -16.127  1.00101.90 LIG 0.26  C 
ATOM     44 O    GLU C 501      77.928  25.908 -16.596  1.00103.22 LIG-0.27  OA
BRANCH 43 45
ATOM     45  CA  GLU C 501      77.624  23.525 -16.711  1.00101.55 LIG 0.40  C 
ATOM     46  N   GLU C 501      78.481  23.621 -17.889  1.00100.94 LIG 0.61  N 
BRANCH 45 47
ATOM     47  CB  GLU C 501      78.268  22.613 -15.663  1.00104.94 LIG 0.06  C 
BRANCH 47 48
ATOM     48  CG  GLU C 501      79.690  22.194 -15.993  1.00111.45 LIG 0.12  C 
BRANCH 48 49
ATOM     49  CD  GLU C 501      79.745  21.090 -17.029  1.00115.68 LIG 0.17  C 
ATOM     50 OE1  GLU C 501      78.766  20.320 -17.137  1.00117.56 LIG-0.65  OA
ATOM     51 OE2  GLU C 501      80.771  20.995 -17.735  1.00122.11 LIG-0.65  OA
ENDBRANCH 48 49
ENDBRANCH 47 48
ENDBRANCH 45 47
ENDBRANCH 43 45
ENDBRANCH 37 41
ENDBRANCH 35 37
ENDBRANCH 32 33
BRANCH 32 52
ATOM     52  CB  SER C 503      79.336  27.762 -11.539  1.00 49.05 LIG 0.20  C 
BRANCH 52 53
ATOM     53 OG   SER C 503      79.282  28.998 -10.849  1.00 54.59 LIG-0.40  OA
ATOM     54 HG   SER C 503      78.612  29.006 -10.341  1.00 54.59 LIG 0.21  HD
ENDBRANCH 52 53
ENDBRANCH 32 52
ENDBRANCH 1 32
TORSDOF 25
ENDMDL
MODEL 104
USER: ADFR SOLUTION from run 83
USER: SCORE 15.410147 LL:  -3.950 LR: -12.528 RR:   0.000 FEB:  -5.070
USER: RMSD 6.074899
USER: SEED 82
USER: STATUS 1 or 2 clusters left
USER: GENES 27
USER: genes 0 Translation |==|  0.68830 0.38692 0.39564
USER: genes 1 Rotation |==|  0.44712 0.59924 0.12665 0.81299
USER: genes 2 Torsion [C]-N--CA-[CB] |==|  0.17862
USER: genes 3 Torsion [N]-CA--C-[N] |==|  0.71667
USER: genes 4 Torsion [C]-N--CA-[C] |==|  0.55495
USER: genes 5 Torsion [N]-CA--CB-[OG] |==|  0.10291
USER: genes 6 Torsion [CA]-CB--OG-[HG] |==|  0.08790
USER: genes 7 Torsion [N]-CA--C-[N] |==|  0.48422
USER: genes 8 Torsion [C]-N--CA-[CB] |==|  0.19500
USER: genes 9 Torsion [N]-CA--C-[O] |==|  0.19067
USER: genes 10 Torsion [N]-CA--CB-[CG] |==|  0.74448
USER: genes 11 Torsion [CA]-CB--CG-[CD] |==|  0.58181
USER: genes 12 Torsion [CB]-CG--CD-[NE2] |==|  0.15274
USER: genes 13 Torsion [N]-CA--CB-[CG] |==|  0.65872
USER: genes 14 Torsion [CA]-CB--CG-[OD1] |==|  0.13235
USER: genes 15 Torsion [N]-C--CA-[N] |==|  0.98485
USER: genes 16 Torsion [C]-CA--N-[C] |==|  0.75620
USER: genes 17 Torsion [N]-C--CA-[N] |==|  0.02161
USER: genes 18 Torsion [C]-CA--CB-[OG] |==|  0.49291
USER: genes 19 Torsion [CA]-CB--OG-[HG] |==|  0.29127
USER: genes 20 Torsion [C]-CA--N-[C] |==|  0.74000
USER: genes 21 Torsion [N]-C--CA-[N] |==|  0.01586
USER: genes 22 Torsion [C]-CA--CB-[CG] |==|  0.74253
USER: genes 23 Torsion [CA]-CB--CG-[CD] |==|  0.22430
USER: genes 24 Torsion [CB]-CG--CD-[OE1] |==|  0.57425
USER: genes 25 Torsion [C]-CA--CB-[OG] |==|  0.43920
USER: genes 26 Torsion [CA]-CB--OG-[HG] |==|  0.90163
ROOT
ATOM      1  C   SER C 503      82.519  23.983 -16.501  1.00 42.27 LIG 0.24  C 
ATOM      2 O    SER C 503      82.756  22.814 -16.794  1.00 46.84 LIG-0.27  OA
ATOM      3  N   ASP C 504      81.296  24.496 -16.472  1.00 51.15 LIG-0.34  N 
ATOM      4 H    ASP C 504      81.120  25.283 -16.174  1.00 51.15 LIG 0.16  HD
ENDROOT
BRANCH 3 5
ATOM      5  CA  ASP C 504      80.121  23.767 -16.947  1.00 56.79 LIG 0.19  C 
BRANCH 5 6
ATOM      6  C   ASP C 504      78.888  24.682 -16.937  1.00 67.42 LIG 0.24  C 
ATOM      7  N   SER C 505      78.042  24.514 -15.925  1.00 81.52 LIG-0.34  N 
ATOM      8 H    SER C 505      78.148  23.927 -15.306  1.00 81.52 LIG 0.16  HD
ATOM      9 O    ASP C 504      78.714  25.523 -17.822  1.00 66.01 LIG-0.27  OA
BRANCH 7 10
ATOM     10  CA  SER C 505      76.837  25.327 -15.780  1.00 90.64 LIG 0.20  C 
BRANCH 10 11
ATOM     11  CB  SER C 505      75.750  24.855 -16.740  1.00 89.01 LIG 0.20  C 
BRANCH 11 12
ATOM     12 OG   SER C 505      75.775  23.446 -16.858  1.00 87.22 LIG-0.40  OA
ATOM     13 HG   SER C 505      76.030  23.109 -16.132  1.00 87.22 LIG 0.21  HD
ENDBRANCH 11 12
ENDBRANCH 10 11
BRANCH 10 14
ATOM     14  C   SER C 505      76.332  25.274 -14.341  1.00 98.93 LIG 0.24  C 
ATOM     15  N   GLN C 506      75.305  26.067 -14.047  1.00110.12 LIG-0.35  N 
ATOM     16 H    GLN C 506      74.832  26.478 -14.636  1.00110.12 LIG 0.16  HD
ATOM     17 O    SER C 505      76.854  24.520 -13.517  1.00 94.47 LIG-0.27  OA
BRANCH 15 18
ATOM     18  CA  GLN C 506      74.894  26.306 -12.669  1.00115.19 LIG 0.16  C 
BRANCH 18 19
ATOM     19  C   GLN C 506      73.521  26.970 -12.582  1.00118.66 LIG 0.22  C 
ATOM     20 O    GLN C 506      72.501  26.358 -12.904  1.00117.46 LIG-0.29  OA
ENDBRANCH 18 19
BRANCH 18 21
ATOM     21  CB  GLN C 506      75.950  27.161 -11.960  1.00118.15 LIG 0.04  C 
BRANCH 21 22
ATOM     22  CG  GLN C 506      77.022  26.337 -11.232  1.00119.48 LIG 0.10  C 
BRANCH 22 23
ATOM     23  CD  GLN C 506      77.612  27.036 -10.007  1.00116.76 LIG 0.21  C 
ATOM     24  NE2 GLN C 506      76.749  27.445  -9.083  1.00111.94 LIG-0.37  N 
ATOM     25 21HE GLN C 506      75.906  27.314  -9.193  1.00111.94 LIG 0.16  HD
ATOM     26 22HE GLN C 506      77.033  27.841  -8.374  1.00111.94 LIG 0.16  HD
ATOM     27 OE1  GLN C 506      78.827  27.200  -9.894  1.00116.06 LIG-0.27  OA
ENDBRANCH 22 23
ENDBRANCH 21 22
ENDBRANCH 18 21
ENDBRANCH 15 18
ENDBRANCH 10 14
ENDBRANCH 7 10
ENDBRANCH 5 6
BRANCH 5 28
ATOM     28  CB  ASP C 504      79.888  22.525 -16.069  1.00 57.84 LIG 0.15  C 
BRANCH 28 29
ATOM     29  CG  ASP C 504      79.873  21.221 -16.859  1.00 60.92 LIG 0.17  C 
ATOM     30 OD2  ASP C 504      78.939  20.410 -16.646  1.00 60.43 LIG-0.65  OA
ATOM     31 OD1  ASP C 504      80.782  21.003 -17.689  1.00 59.69 LIG-0.65  OA
ENDBRANCH 28 29
ENDBRANCH 5 28
ENDBRANCH 3 5
BRANCH 1 32
ATOM     32  CA  SER C 503      83.645  24.930 -16.126  1.00 44.19 LIG 0.20  C 
BRANCH 32 33
ATOM     33  N   SER C 503      83.135  26.289 -15.926  1.00 47.77 LIG-0.34  N 
ATOM     34 H    SER C 503      82.919  26.473 -15.114  1.00 47.77 LIG 0.16  HD
ATOM     35  C   SER C 502      83.028  27.144 -16.941  1.00 50.79 LIG 0.24  C 
ATOM     36 O    SER C 502      83.597  26.985 -18.012  1.00 48.58 LIG-0.27  OA
BRANCH 35 37
ATOM     37  CA  SER C 502      82.139  28.355 -16.720  1.00 60.54 LIG 0.20  C 
BRANCH 37 38
ATOM     38  CB  SER C 502      82.851  29.629 -17.140  1.00 53.64 LIG 0.20  C 
BRANCH 38 39
ATOM     39 OG   SER C 502      82.019  30.757 -16.995  1.00 59.09 LIG-0.40  OA
ATOM     40 HG   SER C 502      82.256  31.195 -16.319  1.00 59.09 LIG 0.21  HD
ENDBRANCH 38 39
ENDBRANCH 37 38
BRANCH 37 41
ATOM     41  N   SER C 502      81.739  28.377 -15.318  1.00 72.56 LIG-0.34  N 
ATOM     42 H    SER C 502      82.290  28.771 -14.788  1.00 72.56 LIG 0.16  HD
ATOM     43  C   GLU C 501      80.595  27.816 -14.940  1.00101.90 LIG 0.26  C 
ATOM     44 O    GLU C 501      79.680  27.591 -15.733  1.00103.22 LIG-0.27  OA
BRANCH 43 45
ATOM     45  CA  GLU C 501      80.438  27.475 -13.453  1.00101.55 LIG 0.40  C 
ATOM     46  N   GLU C 501      81.580  27.976 -12.694  1.00100.94 LIG 0.61  N 
BRANCH 45 47
ATOM     47  CB  GLU C 501      79.136  28.062 -12.898  1.00104.94 LIG 0.06  C 
BRANCH 47 48
ATOM     48  CG  GLU C 501      79.291  29.439 -12.277  1.00111.45 LIG 0.12  C 
BRANCH 48 49
ATOM     49  CD  GLU C 501      79.311  30.544 -13.313  1.00115.68 LIG 0.17  C 
ATOM     50 OE1  GLU C 501      79.912  31.607 -13.044  1.00117.56 LIG-0.65  OA
ATOM     51 OE2  GLU C 501      78.723  30.346 -14.397  1.00122.11 LIG-0.65  OA
ENDBRANCH 48 49
ENDBRANCH 47 48
ENDBRANCH 45 47
ENDBRANCH 43 45
ENDBRANCH 37 41
ENDBRANCH 35 37
ENDBRANCH 32 33
BRANCH 32 52
ATOM     52  CB  SER C 503      84.340  24.416 -14.873  1.00 49.05 LIG 0.20  C 
BRANCH 52 53
ATOM     53 OG   SER C 503      85.649  24.948 -14.780  1.00 54.59 LIG-0.40  OA
ATOM     54 HG   SER C 503      85.979  25.019 -15.550  1.00 54.59 LIG 0.21  HD
ENDBRANCH 52 53
ENDBRANCH 32 52
ENDBRANCH 1 32
TORSDOF 25
ENDMDL
