MODEL 1
USER: ADFR SOLUTION from run 103
USER: SCORE 21.595011 LL:  -5.765 LR: -17.238 RR:   0.000 FEB:  -8.886
USER: RMSD 6.522032
USER: SEED 102
USER: STATUS 1 or 2 clusters left
USER: GENES 30
USER: genes 0 Translation |==|  0.46770 0.52906 0.62360
USER: genes 1 Rotation |==|  0.17091 0.56940 0.19769 0.71329
USER: genes 2 Torsion [N]-CA--C-[N] |==|  0.38606
USER: genes 3 Torsion [C]-N--CA-[C] |==|  0.81134
USER: genes 4 Torsion [N]-CA--C-[N] |==|  0.35361
USER: genes 5 Torsion [C]-N--CA-[C] |==|  0.62778
USER: genes 6 Torsion [N]-CA--C-[N] |==|  0.91788
USER: genes 7 Torsion [C]-N--CA-[CB] |==|  0.78398
USER: genes 8 Torsion [N]-CA--C-[O] |==|  0.26387
USER: genes 9 Torsion [N]-CA--CB-[CG] |==|  0.15360
USER: genes 10 Torsion [CA]-CB--CG-[OD2] |==|  0.68549
USER: genes 11 Torsion [N]-CA--CB-[CG] |==|  0.80154
USER: genes 12 Torsion [CA]-CB--CG-[CD2] |==|  0.80801
USER: genes 13 Torsion [N]-CA--CB-[CG] |==|  0.28302
USER: genes 14 Torsion [CA]-CB--CG-[CD1] |==|  0.41050
USER: genes 15 Torsion [C]-CA--CB-[CG] |==|  0.74549
USER: genes 16 Torsion [CA]-CB--CG-[CD1] |==|  0.27100
USER: genes 17 Torsion [C]-CA--N-[C] |==|  0.67020
USER: genes 18 Torsion [N]-C--CA-[N] |==|  0.59999
USER: genes 19 Torsion [C]-CA--CB-[CG] |==|  0.35552
USER: genes 20 Torsion [CA]-CB--CG-[CD] |==|  0.88455
USER: genes 21 Torsion [CB]-CG--CD-[NE2] |==|  0.21338
USER: genes 22 Torsion [C]-CA--N-[C] |==|  0.65251
USER: genes 23 Torsion [N]-C--CA-[N] |==|  0.40837
USER: genes 24 Torsion [C]-CA--CB-[CG] |==|  0.74546
USER: genes 25 Torsion [CA]-CB--CG-[CD2] |==|  0.58184
USER: genes 26 Torsion [C]-CA--N-[C] |==|  0.82115
USER: genes 27 Torsion [N]-C--CA-[N] |==|  0.43854
USER: genes 28 Torsion [C]-CA--CB-[OG] |==|  0.05559
USER: genes 29 Torsion [CA]-CB--OG-[HG] |==|  0.81883
ROOT
ATOM      1  CA  PHE G  65     -24.871  -9.178 -15.120  1.00 79.88 LIG 0.18  C 
ENDROOT
BRANCH 1 2
ATOM      2  C   PHE G  65     -24.805  -8.598 -16.572  1.00 81.88 LIG 0.24  C 
ATOM      3 O    PHE G  65     -23.767  -8.073 -17.020  1.00 83.91 LIG-0.27  OA
ATOM      4  N   LEU G  66     -25.892  -8.733 -17.315  1.00 80.12 LIG-0.35  N 
ATOM      5 H    LEU G  66     -26.610  -9.122 -17.046  1.00 80.12 LIG 0.16  HD
BRANCH 4 6
ATOM      6  CA  LEU G  66     -25.967  -8.218 -18.690  1.00 73.95 LIG 0.18  C 
BRANCH 6 7
ATOM      7  C   LEU G  66     -25.946  -6.671 -18.701  1.00 70.37 LIG 0.24  C 
ATOM      8 O    LEU G  66     -26.744  -6.001 -18.011  1.00 65.91 LIG-0.27  OA
ATOM      9  N   LEU G  67     -25.024  -6.112 -19.492  1.00 70.17 LIG-0.35  N 
ATOM     10 H    LEU G  67     -24.421  -6.560 -19.911  1.00 70.17 LIG 0.16  HD
BRANCH 9 11
ATOM     11  CA  LEU G  67     -24.959  -4.670 -19.715  1.00 68.48 LIG 0.18  C 
BRANCH 11 12
ATOM     12  C   LEU G  67     -24.784  -4.392 -21.215  1.00 69.74 LIG 0.24  C 
ATOM     13  N   ASP G  68     -24.132  -5.330 -21.930  1.00 68.02 LIG-0.35  N 
ATOM     14 H    ASP G  68     -23.566  -5.873 -21.577  1.00 68.02 LIG 0.16  HD
ATOM     15 O    LEU G  67     -25.281  -3.369 -21.691  1.00 68.13 LIG-0.27  OA
BRANCH 13 16
ATOM     16  CA  ASP G  68     -24.312  -5.534 -23.395  1.00 74.55 LIG 0.17  C 
BRANCH 16 17
ATOM     17  C   ASP G  68     -24.399  -4.120 -24.049  1.00 77.35 LIG 0.22  C 
ATOM     18 O    ASP G  68     -23.428  -3.536 -24.541  1.00 79.38 LIG-0.29  OA
ENDBRANCH 16 17
BRANCH 16 19
ATOM     19  CB  ASP G  68     -25.612  -6.296 -23.712  1.00 74.32 LIG 0.15  C 
BRANCH 19 20
ATOM     20  CG  ASP G  68     -26.890  -5.626 -23.117  1.00 79.04 LIG 0.17  C 
ATOM     21 OD1  ASP G  68     -27.259  -4.496 -23.575  1.00 79.61 LIG-0.65  OA
ATOM     22 OD2  ASP G  68     -27.534  -6.213 -22.205  1.00 79.33 LIG-0.65  OA
ENDBRANCH 19 20
ENDBRANCH 16 19
ENDBRANCH 13 16
ENDBRANCH 11 12
BRANCH 11 23
ATOM     23  CB  LEU G  67     -23.885  -4.007 -18.857  1.00 63.56 LIG 0.04  C 
BRANCH 23 24
ATOM     24  CG  LEU G  67     -24.327  -3.993 -17.388  1.00 66.22 LIG-0.02  C 
ATOM     25  CD2 LEU G  67     -25.503  -3.039 -17.161  1.00 64.35 LIG 0.01  C 
ATOM     26  CD1 LEU G  67     -23.140  -3.741 -16.403  1.00 61.82 LIG 0.01  C 
ENDBRANCH 23 24
ENDBRANCH 11 23
ENDBRANCH 9 11
ENDBRANCH 6 7
BRANCH 6 27
ATOM     27  CB  LEU G  66     -27.255  -8.729 -19.306  1.00 68.20 LIG 0.04  C 
BRANCH 27 28
ATOM     28  CG  LEU G  66     -28.496  -7.885 -19.457  1.00 70.51 LIG-0.02  C 
ATOM     29  CD1 LEU G  66     -29.370  -8.192 -20.676  1.00 68.17 LIG 0.01  C 
ATOM     30  CD2 LEU G  66     -29.234  -8.127 -18.141  1.00 69.71 LIG 0.01  C 
ENDBRANCH 27 28
ENDBRANCH 6 27
ENDBRANCH 4 6
ENDBRANCH 1 2
BRANCH 1 31
ATOM     31  CB  PHE G  65     -25.390  -8.093 -14.147  1.00 81.70 LIG 0.07  C 
BRANCH 31 32
ATOM     32  CG  PHE G  65     -24.263  -7.275 -13.514  1.00 88.02 LIG-0.06  A 
ATOM     33  CD1 PHE G  65     -23.891  -6.014 -14.038  1.00 90.65 LIG 0.01  A 
ATOM     34  CE1 PHE G  65     -22.881  -5.245 -13.418  1.00 91.87 LIG 0.00  A 
ATOM     35  CZ  PHE G  65     -22.246  -5.712 -12.256  1.00 92.49 LIG 0.00  A 
ATOM     36  CE2 PHE G  65     -22.623  -6.938 -11.717  1.00 89.30 LIG 0.00  A 
ATOM     37  CD2 PHE G  65     -23.625  -7.707 -12.333  1.00 89.13 LIG 0.01  A 
ENDBRANCH 31 32
ENDBRANCH 1 31
BRANCH 1 38
ATOM     38  N   PHE G  65     -23.652  -9.895 -14.631  1.00 74.58 LIG-0.35  N 
ATOM     39  C   GLN G  64     -23.708 -11.195 -14.285  1.00 72.54 LIG 0.24  C 
ATOM     40 O    GLN G  64     -24.764 -11.850 -14.288  1.00 72.49 LIG-0.27  OA
ATOM     41 H    PHE G  65     -22.940  -9.413 -14.595  1.00 74.58 LIG 0.16  HD
BRANCH 39 42
ATOM     42  CA  GLN G  64     -22.399 -11.929 -13.921  1.00 69.04 LIG 0.18  C 
BRANCH 42 43
ATOM     43  CB  GLN G  64     -21.136 -11.188 -14.369  1.00 71.00 LIG 0.04  C 
BRANCH 43 44
ATOM     44  CG  GLN G  64     -20.109 -10.977 -13.281  1.00 72.96 LIG 0.10  C 
BRANCH 44 45
ATOM     45  CD  GLN G  64     -20.697 -10.572 -11.939  1.00 76.87 LIG 0.21  C 
ATOM     46 OE1  GLN G  64     -20.679  -9.400 -11.530  1.00 74.88 LIG-0.27  OA
ATOM     47  NE2 GLN G  64     -21.253 -11.558 -11.250  1.00 81.47 LIG-0.37  N 
ATOM     48 21HE GLN G  64     -21.247 -12.359 -11.564  1.00 81.47 LIG 0.16  HD
ATOM     49 22HE GLN G  64     -21.620 -11.397 -10.489  1.00 81.47 LIG 0.16  HD
ENDBRANCH 44 45
ENDBRANCH 43 44
ENDBRANCH 42 43
BRANCH 42 50
ATOM     50  N   GLN G  64     -22.343 -13.302 -14.343  1.00 68.17 LIG-0.35  N 
ATOM     51  C   LEU G  63     -22.092 -14.298 -13.488  1.00 67.58 LIG 0.24  C 
ATOM     52 O    LEU G  63     -22.015 -14.164 -12.245  1.00 63.10 LIG-0.27  OA
ATOM     53 H    GLN G  64     -22.485 -13.419 -15.183  1.00 68.17 LIG 0.16  HD
BRANCH 51 54
ATOM     54  CA  LEU G  63     -21.948 -15.668 -14.124  1.00 66.76 LIG 0.18  C 
BRANCH 54 55
ATOM     55  CB  LEU G  63     -23.324 -16.357 -14.156  1.00 69.31 LIG 0.04  C 
BRANCH 55 56
ATOM     56  CG  LEU G  63     -23.760 -17.272 -12.979  1.00 73.12 LIG-0.02  C 
ATOM     57  CD2 LEU G  63     -24.718 -18.412 -13.348  1.00 75.26 LIG 0.01  C 
ATOM     58  CD1 LEU G  63     -24.358 -16.498 -11.824  1.00 70.75 LIG 0.01  C 
ENDBRANCH 55 56
ENDBRANCH 54 55
BRANCH 54 59
ATOM     59  N   LEU G  63     -20.983 -16.450 -13.373  1.00 64.77 LIG-0.35  N 
ATOM     60  C   SER G  62     -19.672 -16.137 -13.265  1.00 63.11 LIG 0.26  C 
ATOM     61 O    SER G  62     -19.060 -15.269 -13.949  1.00 57.72 LIG-0.27  OA
ATOM     62 H    LEU G  63     -21.327 -17.143 -12.996  1.00 64.77 LIG 0.16  HD
BRANCH 60 63
ATOM     63  CA  SER G  62     -18.964 -16.973 -12.188  1.00 64.68 LIG 0.42  C 
ATOM     64  N   SER G  62     -17.484 -17.047 -12.392  1.00 67.72 LIG 0.62  N 
BRANCH 63 65
ATOM     65  CB  SER G  62     -19.360 -16.495 -10.779  1.00 62.74 LIG 0.21  C 
BRANCH 65 66
ATOM     66 OG   SER G  62     -20.591 -15.745 -10.800  1.00 60.63 LIG-0.40  OA
ATOM     67 HG   SER G  62     -20.479 -15.034 -11.234  1.00 60.63 LIG 0.21  HD
ENDBRANCH 65 66
ENDBRANCH 63 65
ENDBRANCH 60 63
ENDBRANCH 54 59
ENDBRANCH 51 54
ENDBRANCH 42 50
ENDBRANCH 39 42
ENDBRANCH 1 38
TORSDOF 28
ENDMDL
MODEL 2
USER: ADFR SOLUTION from run 13
USER: SCORE 20.092902 LL:  -5.324 LR: -16.912 RR:   0.000 FEB:  -8.559
USER: RMSD 6.294040
USER: SEED 893682
USER: STATUS no improvement in best in 9 clusters for 5 generations
USER: GENES 30
USER: genes 0 Translation |==|  0.45097 0.55168 0.64094
USER: genes 1 Rotation |==|  0.10802 0.58577 0.20168 0.50084
USER: genes 2 Torsion [N]-CA--C-[N] |==|  0.49488
USER: genes 3 Torsion [C]-N--CA-[C] |==|  0.63453
USER: genes 4 Torsion [N]-CA--C-[N] |==|  0.12641
USER: genes 5 Torsion [C]-N--CA-[C] |==|  0.75178
USER: genes 6 Torsion [N]-CA--C-[N] |==|  0.26037
USER: genes 7 Torsion [C]-N--CA-[CB] |==|  0.52091
USER: genes 8 Torsion [N]-CA--C-[O] |==|  0.94474
USER: genes 9 Torsion [N]-CA--CB-[CG] |==|  0.05795
USER: genes 10 Torsion [CA]-CB--CG-[OD2] |==|  0.31536
USER: genes 11 Torsion [N]-CA--CB-[CG] |==|  0.90950
USER: genes 12 Torsion [CA]-CB--CG-[CD2] |==|  0.70706
USER: genes 13 Torsion [N]-CA--CB-[CG] |==|  0.04120
USER: genes 14 Torsion [CA]-CB--CG-[CD1] |==|  0.39980
USER: genes 15 Torsion [C]-CA--CB-[CG] |==|  0.54402
USER: genes 16 Torsion [CA]-CB--CG-[CD1] |==|  0.39461
USER: genes 17 Torsion [C]-CA--N-[C] |==|  0.20059
USER: genes 18 Torsion [N]-C--CA-[N] |==|  0.28383
USER: genes 19 Torsion [C]-CA--CB-[CG] |==|  0.38520
USER: genes 20 Torsion [CA]-CB--CG-[CD] |==|  0.96650
USER: genes 21 Torsion [CB]-CG--CD-[NE2] |==|  0.35039
USER: genes 22 Torsion [C]-CA--N-[C] |==|  0.78767
USER: genes 23 Torsion [N]-C--CA-[N] |==|  0.08864
USER: genes 24 Torsion [C]-CA--CB-[CG] |==|  0.86404
USER: genes 25 Torsion [CA]-CB--CG-[CD2] |==|  0.81089
USER: genes 26 Torsion [C]-CA--N-[C] |==|  0.64949
USER: genes 27 Torsion [N]-C--CA-[N] |==|  0.29173
USER: genes 28 Torsion [C]-CA--CB-[OG] |==|  0.37099
USER: genes 29 Torsion [CA]-CB--OG-[HG] |==|  0.03539
ROOT
ATOM      1  CA  PHE G  65     -25.184  -8.737 -14.782  1.00 79.88 LIG 0.18  C 
ENDROOT
BRANCH 1 2
ATOM      2  C   PHE G  65     -25.555  -9.086 -16.262  1.00 81.88 LIG 0.24  C 
ATOM      3 O    PHE G  65     -25.087 -10.090 -16.834  1.00 83.91 LIG-0.27  OA
ATOM      4  N   LEU G  66     -26.424  -8.288 -16.861  1.00 80.12 LIG-0.35  N 
ATOM      5 H    LEU G  66     -26.791  -7.610 -16.480  1.00 80.12 LIG 0.16  HD
BRANCH 4 6
ATOM      6  CA  LEU G  66     -26.844  -8.496 -18.254  1.00 73.95 LIG 0.18  C 
BRANCH 6 7
ATOM      7  C   LEU G  66     -26.762  -7.176 -19.057  1.00 70.37 LIG 0.24  C 
ATOM      8 O    LEU G  66     -27.687  -6.812 -19.813  1.00 65.91 LIG-0.27  OA
ATOM      9  N   LEU G  67     -25.643  -6.465 -18.884  1.00 70.17 LIG-0.35  N 
ATOM     10 H    LEU G  67     -25.034  -6.666 -18.310  1.00 70.17 LIG 0.16  HD
BRANCH 9 11
ATOM     11  CA  LEU G  67     -25.353  -5.266 -19.665  1.00 68.48 LIG 0.18  C 
BRANCH 11 12
ATOM     12  C   LEU G  67     -24.595  -5.659 -20.943  1.00 69.74 LIG 0.24  C 
ATOM     13  N   ASP G  68     -25.340  -5.863 -22.046  1.00 68.02 LIG-0.35  N 
ATOM     14 H    ASP G  68     -26.168  -6.092 -22.012  1.00 68.02 LIG 0.16  HD
ATOM     15 O    LEU G  67     -23.364  -5.719 -20.908  1.00 68.13 LIG-0.27  OA
BRANCH 13 16
ATOM     16  CA  ASP G  68     -24.825  -5.720 -23.437  1.00 74.55 LIG 0.17  C 
BRANCH 16 17
ATOM     17  C   ASP G  68     -24.196  -4.296 -23.550  1.00 77.35 LIG 0.22  C 
ATOM     18 O    ASP G  68     -24.461  -3.371 -22.777  1.00 79.38 LIG-0.29  OA
ENDBRANCH 16 17
BRANCH 16 19
ATOM     19  CB  ASP G  68     -25.952  -5.836 -24.480  1.00 74.32 LIG 0.15  C 
BRANCH 19 20
ATOM     20  CG  ASP G  68     -27.373  -5.559 -23.898  1.00 79.04 LIG 0.17  C 
ATOM     21 OD1  ASP G  68     -27.854  -6.370 -23.041  1.00 79.61 LIG-0.65  OA
ATOM     22 OD2  ASP G  68     -28.015  -4.541 -24.280  1.00 79.33 LIG-0.65  OA
ENDBRANCH 19 20
ENDBRANCH 16 19
ENDBRANCH 13 16
ENDBRANCH 11 12
BRANCH 11 23
ATOM     23  CB  LEU G  67     -24.623  -4.209 -18.842  1.00 63.56 LIG 0.04  C 
BRANCH 23 24
ATOM     24  CG  LEU G  67     -25.081  -4.280 -17.379  1.00 66.22 LIG-0.02  C 
ATOM     25  CD2 LEU G  67     -26.016  -3.119 -17.024  1.00 64.35 LIG 0.01  C 
ATOM     26  CD1 LEU G  67     -23.890  -4.430 -16.379  1.00 61.82 LIG 0.01  C 
ENDBRANCH 23 24
ENDBRANCH 11 23
ENDBRANCH 9 11
ENDBRANCH 6 7
BRANCH 6 27
ATOM     27  CB  LEU G  66     -28.271  -9.009 -18.234  1.00 68.20 LIG 0.04  C 
BRANCH 27 28
ATOM     28  CG  LEU G  66     -29.164  -8.937 -17.020  1.00 70.51 LIG-0.02  C 
ATOM     29  CD1 LEU G  66     -30.645  -8.663 -17.293  1.00 68.17 LIG 0.01  C 
ATOM     30  CD2 LEU G  66     -28.941 -10.295 -16.355  1.00 69.71 LIG 0.01  C 
ENDBRANCH 27 28
ENDBRANCH 6 27
ENDBRANCH 4 6
ENDBRANCH 1 2
BRANCH 1 31
ATOM     31  CB  PHE G  65     -24.784  -7.246 -14.682  1.00 81.70 LIG 0.07  C 
BRANCH 31 32
ATOM     32  CG  PHE G  65     -24.048  -6.915 -13.382  1.00 88.02 LIG-0.06  A 
ATOM     33  CD1 PHE G  65     -22.970  -5.997 -13.365  1.00 90.65 LIG 0.01  A 
ATOM     34  CE1 PHE G  65     -22.328  -5.662 -12.153  1.00 91.87 LIG 0.00  A 
ATOM     35  CZ  PHE G  65     -22.765  -6.218 -10.941  1.00 92.49 LIG 0.00  A 
ATOM     36  CE2 PHE G  65     -23.841  -7.101 -10.942  1.00 89.30 LIG 0.00  A 
ATOM     37  CD2 PHE G  65     -24.480  -7.439 -12.147  1.00 89.13 LIG 0.01  A 
ENDBRANCH 31 32
ENDBRANCH 1 31
BRANCH 1 38
ATOM     38  N   PHE G  65     -24.234  -9.666 -14.094  1.00 74.58 LIG-0.35  N 
ATOM     39  C   GLN G  64     -22.928  -9.686 -14.425  1.00 72.54 LIG 0.24  C 
ATOM     40 O    GLN G  64     -22.454  -8.998 -15.344  1.00 72.49 LIG-0.27  OA
ATOM     41 H    PHE G  65     -24.591 -10.166 -13.492  1.00 74.58 LIG 0.16  HD
BRANCH 39 42
ATOM     42  CA  GLN G  64     -21.961 -10.559 -13.596  1.00 69.04 LIG 0.18  C 
BRANCH 42 43
ATOM     43  CB  GLN G  64     -20.710  -9.811 -13.126  1.00 71.00 LIG 0.04  C 
BRANCH 43 44
ATOM     44  CG  GLN G  64     -20.290 -10.115 -11.706  1.00 72.96 LIG 0.10  C 
BRANCH 44 45
ATOM     45  CD  GLN G  64     -21.328 -10.877 -10.898  1.00 76.87 LIG 0.21  C 
ATOM     46 OE1  GLN G  64     -22.504 -10.495 -10.795  1.00 74.88 LIG-0.27  OA
ATOM     47  NE2 GLN G  64     -20.890 -11.995 -10.334  1.00 81.47 LIG-0.37  N 
ATOM     48 21HE GLN G  64     -20.068 -12.230 -10.427  1.00 81.47 LIG 0.16  HD
ATOM     49 22HE GLN G  64     -21.428 -12.484  -9.876  1.00 81.47 LIG 0.16  HD
ENDBRANCH 44 45
ENDBRANCH 43 44
ENDBRANCH 42 43
BRANCH 42 50
ATOM     50  N   GLN G  64     -21.590 -11.800 -14.218  1.00 68.17 LIG-0.35  N 
ATOM     51  C   LEU G  63     -22.416 -12.850 -14.257  1.00 67.58 LIG 0.24  C 
ATOM     52 O    LEU G  63     -23.613 -12.825 -13.889  1.00 63.10 LIG-0.27  OA
ATOM     53 H    GLN G  64     -20.800 -11.802 -14.558  1.00 68.17 LIG 0.16  HD
BRANCH 51 54
ATOM     54  CA  LEU G  63     -21.818 -14.115 -14.842  1.00 66.76 LIG 0.18  C 
BRANCH 54 55
ATOM     55  CB  LEU G  63     -22.553 -15.337 -14.264  1.00 69.31 LIG 0.04  C 
BRANCH 55 56
ATOM     56  CG  LEU G  63     -22.774 -15.455 -12.731  1.00 73.12 LIG-0.02  C 
ATOM     57  CD2 LEU G  63     -21.506 -15.674 -11.895  1.00 75.26 LIG 0.01  C 
ATOM     58  CD1 LEU G  63     -23.781 -16.523 -12.364  1.00 70.75 LIG 0.01  C 
ENDBRANCH 55 56
ENDBRANCH 54 55
BRANCH 54 59
ATOM     59  N   LEU G  63     -20.398 -14.162 -14.542  1.00 64.77 LIG-0.35  N 
ATOM     60  C   SER G  62     -19.430 -14.324 -15.472  1.00 63.11 LIG 0.26  C 
ATOM     61 O    SER G  62     -19.611 -14.663 -16.676  1.00 57.72 LIG-0.27  OA
ATOM     62 H    LEU G  63     -20.226 -14.076 -13.703  1.00 64.77 LIG 0.16  HD
BRANCH 60 63
ATOM     63  CA  SER G  62     -18.030 -14.049 -14.905  1.00 64.68 LIG 0.42  C 
ATOM     64  N   SER G  62     -17.244 -15.299 -14.669  1.00 67.72 LIG 0.62  N 
BRANCH 63 65
ATOM     65  CB  SER G  62     -17.283 -13.017 -15.771  1.00 62.74 LIG 0.21  C 
BRANCH 65 66
ATOM     66 OG   SER G  62     -16.657 -12.001 -14.961  1.00 60.63 LIG-0.40  OA
ATOM     67 HG   SER G  62     -16.661 -12.242 -14.156  1.00 60.63 LIG 0.21  HD
ENDBRANCH 65 66
ENDBRANCH 63 65
ENDBRANCH 60 63
ENDBRANCH 54 59
ENDBRANCH 51 54
ENDBRANCH 42 50
ENDBRANCH 39 42
ENDBRANCH 1 38
TORSDOF 28
ENDMDL
MODEL 3
USER: ADFR SOLUTION from run 180
USER: SCORE 21.254716 LL:  -5.428 LR: -16.703 RR:   0.000 FEB:  -8.351
USER: RMSD 6.369794
USER: SEED 179
USER: STATUS searching
USER: GENES 30
USER: genes 0 Translation |==|  0.48438 0.60193 0.54939
USER: genes 1 Rotation |==|  0.86527 0.39500 0.78905 0.64833
USER: genes 2 Torsion [N]-CA--C-[N] |==|  0.43377
USER: genes 3 Torsion [C]-N--CA-[C] |==|  0.61397
USER: genes 4 Torsion [N]-CA--C-[N] |==|  0.14552
USER: genes 5 Torsion [C]-N--CA-[C] |==|  0.84791
USER: genes 6 Torsion [N]-CA--C-[N] |==|  0.38653
USER: genes 7 Torsion [C]-N--CA-[CB] |==|  0.46159
USER: genes 8 Torsion [N]-CA--C-[O] |==|  0.86417
USER: genes 9 Torsion [N]-CA--CB-[CG] |==|  0.97242
USER: genes 10 Torsion [CA]-CB--CG-[OD2] |==|  0.22990
USER: genes 11 Torsion [N]-CA--CB-[CG] |==|  0.79555
USER: genes 12 Torsion [CA]-CB--CG-[CD2] |==|  0.28203
USER: genes 13 Torsion [N]-CA--CB-[CG] |==|  0.07491
USER: genes 14 Torsion [CA]-CB--CG-[CD1] |==|  0.30090
USER: genes 15 Torsion [C]-CA--CB-[CG] |==|  0.27029
USER: genes 16 Torsion [CA]-CB--CG-[CD1] |==|  0.40884
USER: genes 17 Torsion [C]-CA--N-[C] |==|  0.61465
USER: genes 18 Torsion [N]-C--CA-[N] |==|  0.02968
USER: genes 19 Torsion [C]-CA--CB-[CG] |==|  0.88988
USER: genes 20 Torsion [CA]-CB--CG-[CD] |==|  0.31482
USER: genes 21 Torsion [CB]-CG--CD-[NE2] |==|  0.52596
USER: genes 22 Torsion [C]-CA--N-[C] |==|  0.76500
USER: genes 23 Torsion [N]-C--CA-[N] |==|  0.03863
USER: genes 24 Torsion [C]-CA--CB-[CG] |==|  0.69746
USER: genes 25 Torsion [CA]-CB--CG-[CD2] |==|  0.77659
USER: genes 26 Torsion [C]-CA--N-[C] |==|  0.76099
USER: genes 27 Torsion [N]-C--CA-[N] |==|  0.43869
USER: genes 28 Torsion [C]-CA--CB-[OG] |==|  0.19072
USER: genes 29 Torsion [CA]-CB--OG-[HG] |==|  0.08628
ROOT
ATOM      1  CA  PHE G  65     -24.558  -7.757 -16.567  1.00 79.88 LIG 0.18  C 
ENDROOT
BRANCH 1 2
ATOM      2  C   PHE G  65     -25.261  -8.449 -17.782  1.00 81.88 LIG 0.24  C 
ATOM      3 O    PHE G  65     -25.001  -9.624 -18.107  1.00 83.91 LIG-0.27  OA
ATOM      4  N   LEU G  66     -26.179  -7.740 -18.420  1.00 80.12 LIG-0.35  N 
ATOM      5 H    LEU G  66     -26.406  -6.941 -18.196  1.00 80.12 LIG 0.16  HD
BRANCH 4 6
ATOM      6  CA  LEU G  66     -26.902  -8.267 -19.586  1.00 73.95 LIG 0.18  C 
BRANCH 6 7
ATOM      7  C   LEU G  66     -27.060  -7.178 -20.675  1.00 70.37 LIG 0.24  C 
ATOM      8 O    LEU G  66     -28.174  -6.901 -21.167  1.00 65.91 LIG-0.27  OA
ATOM      9  N   LEU G  67     -25.930  -6.564 -21.043  1.00 70.17 LIG-0.35  N 
ATOM     10 H    LEU G  67     -25.171  -6.691 -20.659  1.00 70.17 LIG 0.16  HD
BRANCH 9 11
ATOM     11  CA  LEU G  67     -25.887  -5.609 -22.147  1.00 68.48 LIG 0.18  C 
BRANCH 11 12
ATOM     12  C   LEU G  67     -26.458  -6.265 -23.413  1.00 69.74 LIG 0.24  C 
ATOM     13  N   ASP G  68     -27.255  -5.497 -24.183  1.00 68.02 LIG-0.35  N 
ATOM     14 H    ASP G  68     -27.695  -4.827 -23.873  1.00 68.02 LIG 0.16  HD
ATOM     15 O    LEU G  67     -26.128  -7.422 -23.683  1.00 68.13 LIG-0.27  OA
BRANCH 13 16
ATOM     16  CA  ASP G  68     -27.465  -5.716 -25.642  1.00 74.55 LIG 0.17  C 
BRANCH 16 17
ATOM     17  C   ASP G  68     -26.179  -5.214 -26.371  1.00 77.35 LIG 0.22  C 
ATOM     18 O    ASP G  68     -25.658  -4.116 -26.155  1.00 79.38 LIG-0.29  OA
ENDBRANCH 16 17
BRANCH 16 19
ATOM     19  CB  ASP G  68     -28.667  -4.915 -26.174  1.00 74.32 LIG 0.15  C 
BRANCH 19 20
ATOM     20  CG  ASP G  68     -29.532  -4.263 -25.049  1.00 79.04 LIG 0.17  C 
ATOM     21 OD1  ASP G  68     -30.582  -4.868 -24.656  1.00 79.61 LIG-0.65  OA
ATOM     22 OD2  ASP G  68     -29.176  -3.161 -24.550  1.00 79.33 LIG-0.65  OA
ENDBRANCH 19 20
ENDBRANCH 16 19
ENDBRANCH 13 16
ENDBRANCH 11 12
BRANCH 11 23
ATOM     23  CB  LEU G  67     -24.489  -5.035 -22.353  1.00 63.56 LIG 0.04  C 
BRANCH 23 24
ATOM     24  CG  LEU G  67     -24.165  -4.036 -21.234  1.00 66.22 LIG-0.02  C 
ATOM     25  CD2 LEU G  67     -23.254  -4.655 -20.170  1.00 64.35 LIG 0.01  C 
ATOM     26  CD1 LEU G  67     -25.444  -3.371 -20.629  1.00 61.82 LIG 0.01  C 
ENDBRANCH 23 24
ENDBRANCH 11 23
ENDBRANCH 9 11
ENDBRANCH 6 7
BRANCH 6 27
ATOM     27  CB  LEU G  66     -28.265  -8.734 -19.112  1.00 68.20 LIG 0.04  C 
BRANCH 27 28
ATOM     28  CG  LEU G  66     -28.969  -8.159 -17.908  1.00 70.51 LIG-0.02  C 
ATOM     29  CD1 LEU G  66     -30.185  -7.278 -18.201  1.00 68.17 LIG 0.01  C 
ATOM     30  CD2 LEU G  66     -29.338  -9.405 -17.104  1.00 69.71 LIG 0.01  C 
ENDBRANCH 27 28
ENDBRANCH 6 27
ENDBRANCH 4 6
ENDBRANCH 1 2
BRANCH 1 31
ATOM     31  CB  PHE G  65     -23.584  -6.669 -17.078  1.00 81.70 LIG 0.07  C 
BRANCH 31 32
ATOM     32  CG  PHE G  65     -24.193  -5.266 -17.048  1.00 88.02 LIG-0.06  A 
ATOM     33  CD1 PHE G  65     -23.393  -4.127 -16.797  1.00 90.65 LIG 0.01  A 
ATOM     34  CE1 PHE G  65     -23.955  -2.831 -16.819  1.00 91.87 LIG 0.00  A 
ATOM     35  CZ  PHE G  65     -25.316  -2.654 -17.114  1.00 92.49 LIG 0.00  A 
ATOM     36  CE2 PHE G  65     -26.107  -3.765 -17.389  1.00 89.30 LIG 0.00  A 
ATOM     37  CD2 PHE G  65     -25.551  -5.055 -17.366  1.00 89.13 LIG 0.01  A 
ENDBRANCH 31 32
ENDBRANCH 1 31
BRANCH 1 38
ATOM     38  N   PHE G  65     -23.965  -8.663 -15.535  1.00 74.58 LIG-0.35  N 
ATOM     39  C   GLN G  64     -24.088  -8.387 -14.222  1.00 72.54 LIG 0.24  C 
ATOM     40 O    GLN G  64     -24.632  -7.354 -13.797  1.00 72.49 LIG-0.27  OA
ATOM     41 H    PHE G  65     -23.554  -9.350 -15.850  1.00 74.58 LIG 0.16  HD
BRANCH 39 42
ATOM     42  CA  GLN G  64     -23.582  -9.419 -13.191  1.00 69.04 LIG 0.18  C 
BRANCH 42 43
ATOM     43  CB  GLN G  64     -22.844  -8.792 -12.005  1.00 71.00 LIG 0.04  C 
BRANCH 43 44
ATOM     44  CG  GLN G  64     -21.938  -7.637 -12.367  1.00 72.96 LIG 0.10  C 
BRANCH 44 45
ATOM     45  CD  GLN G  64     -22.389  -6.294 -11.816  1.00 76.87 LIG 0.21  C 
ATOM     46 OE1  GLN G  64     -23.299  -6.189 -10.977  1.00 74.88 LIG-0.27  OA
ATOM     47  NE2 GLN G  64     -21.723  -5.245 -12.279  1.00 81.47 LIG-0.37  N 
ATOM     48 21HE GLN G  64     -21.099  -5.355 -12.860  1.00 81.47 LIG 0.16  HD
ATOM     49 22HE GLN G  64     -21.915  -4.456 -11.997  1.00 81.47 LIG 0.16  HD
ENDBRANCH 44 45
ENDBRANCH 43 44
ENDBRANCH 42 43
BRANCH 42 50
ATOM     50  N   GLN G  64     -22.802 -10.490 -13.748  1.00 68.17 LIG-0.35  N 
ATOM     51  C   LEU G  63     -23.366 -11.585 -14.269  1.00 67.58 LIG 0.24  C 
ATOM     52 O    LEU G  63     -24.597 -11.732 -14.445  1.00 63.10 LIG-0.27  OA
ATOM     53 H    GLN G  64     -21.952 -10.361 -13.716  1.00 68.17 LIG 0.16  HD
BRANCH 51 54
ATOM     54  CA  LEU G  63     -22.392 -12.665 -14.699  1.00 66.76 LIG 0.18  C 
BRANCH 54 55
ATOM     55  CB  LEU G  63     -22.917 -14.034 -14.232  1.00 69.31 LIG 0.04  C 
BRANCH 55 56
ATOM     56  CG  LEU G  63     -22.202 -14.786 -13.076  1.00 73.12 LIG-0.02  C 
ATOM     57  CD2 LEU G  63     -20.935 -15.554 -13.471  1.00 75.26 LIG 0.01  C 
ATOM     58  CD1 LEU G  63     -23.123 -15.729 -12.332  1.00 70.75 LIG 0.01  C 
ENDBRANCH 55 56
ENDBRANCH 54 55
BRANCH 54 59
ATOM     59  N   LEU G  63     -21.081 -12.385 -14.140  1.00 64.77 LIG-0.35  N 
ATOM     60  C   SER G  62     -20.165 -11.579 -14.723  1.00 63.11 LIG 0.26  C 
ATOM     61 O    SER G  62     -20.217 -11.132 -15.904  1.00 57.72 LIG-0.27  OA
ATOM     62 H    LEU G  63     -20.939 -12.784 -13.392  1.00 64.77 LIG 0.16  HD
BRANCH 60 63
ATOM     63  CA  SER G  62     -19.003 -11.245 -13.777  1.00 64.68 LIG 0.42  C 
ATOM     64  N   SER G  62     -17.765 -10.826 -14.505  1.00 67.72 LIG 0.62  N 
BRANCH 63 65
ATOM     65  CB  SER G  62     -19.446 -10.234 -12.703  1.00 62.74 LIG 0.21  C 
BRANCH 65 66
ATOM     66 OG   SER G  62     -20.384 -10.822 -11.779  1.00 60.63 LIG-0.40  OA
ATOM     67 HG   SER G  62     -20.221 -11.643 -11.697  1.00 60.63 LIG 0.21  HD
ENDBRANCH 65 66
ENDBRANCH 63 65
ENDBRANCH 60 63
ENDBRANCH 54 59
ENDBRANCH 51 54
ENDBRANCH 42 50
ENDBRANCH 39 42
ENDBRANCH 1 38
TORSDOF 28
ENDMDL
MODEL 4
USER: ADFR SOLUTION from run 182
USER: SCORE 20.605123 LL:  -5.571 LR: -16.519 RR:   0.000 FEB:  -8.166
USER: RMSD 6.416990
USER: SEED 181
USER: STATUS 1 or 2 clusters left
USER: GENES 30
USER: genes 0 Translation |==|  0.45889 0.53653 0.67860
USER: genes 1 Rotation |==|  0.92501 0.38686 0.73287 0.54835
USER: genes 2 Torsion [N]-CA--C-[N] |==|  0.87634
USER: genes 3 Torsion [C]-N--CA-[C] |==|  0.19175
USER: genes 4 Torsion [N]-CA--C-[N] |==|  0.05205
USER: genes 5 Torsion [C]-N--CA-[C] |==|  0.77335
USER: genes 6 Torsion [N]-CA--C-[N] |==|  0.37780
USER: genes 7 Torsion [C]-N--CA-[CB] |==|  0.41033
USER: genes 8 Torsion [N]-CA--C-[O] |==|  0.00808
USER: genes 9 Torsion [N]-CA--CB-[CG] |==|  0.12335
USER: genes 10 Torsion [CA]-CB--CG-[OD2] |==|  0.30928
USER: genes 11 Torsion [N]-CA--CB-[CG] |==|  0.20184
USER: genes 12 Torsion [CA]-CB--CG-[CD2] |==|  0.65900
USER: genes 13 Torsion [N]-CA--CB-[CG] |==|  0.86731
USER: genes 14 Torsion [CA]-CB--CG-[CD1] |==|  0.28898
USER: genes 15 Torsion [C]-CA--CB-[CG] |==|  0.45460
USER: genes 16 Torsion [CA]-CB--CG-[CD1] |==|  0.43620
USER: genes 17 Torsion [C]-CA--N-[C] |==|  0.19978
USER: genes 18 Torsion [N]-C--CA-[N] |==|  0.25316
USER: genes 19 Torsion [C]-CA--CB-[CG] |==|  0.30765
USER: genes 20 Torsion [CA]-CB--CG-[CD] |==|  0.94366
USER: genes 21 Torsion [CB]-CG--CD-[NE2] |==|  0.23049
USER: genes 22 Torsion [C]-CA--N-[C] |==|  0.62518
USER: genes 23 Torsion [N]-C--CA-[N] |==|  0.35556
USER: genes 24 Torsion [C]-CA--CB-[CG] |==|  0.69016
USER: genes 25 Torsion [CA]-CB--CG-[CD2] |==|  0.71559
USER: genes 26 Torsion [C]-CA--N-[C] |==|  0.83561
USER: genes 27 Torsion [N]-C--CA-[N] |==|  0.88180
USER: genes 28 Torsion [C]-CA--CB-[OG] |==|  0.90800
USER: genes 29 Torsion [CA]-CB--OG-[HG] |==|  0.76171
ROOT
ATOM      1  CA  PHE G  65     -25.036  -9.033 -14.047  1.00 79.88 LIG 0.18  C 
ENDROOT
BRANCH 1 2
ATOM      2  C   PHE G  65     -25.909  -9.329 -15.311  1.00 81.88 LIG 0.24  C 
ATOM      3 O    PHE G  65     -27.118  -9.028 -15.356  1.00 83.91 LIG-0.27  OA
ATOM      4  N   LEU G  66     -25.291  -9.874 -16.347  1.00 80.12 LIG-0.35  N 
ATOM      5 H    LEU G  66     -24.451 -10.059 -16.358  1.00 80.12 LIG 0.16  HD
BRANCH 4 6
ATOM      6  CA  LEU G  66     -25.999 -10.216 -17.589  1.00 73.95 LIG 0.18  C 
BRANCH 6 7
ATOM      7  C   LEU G  66     -26.443  -8.937 -18.340  1.00 70.37 LIG 0.24  C 
ATOM      8 O    LEU G  66     -27.337  -8.968 -19.211  1.00 65.91 LIG-0.27  OA
ATOM      9  N   LEU G  67     -25.807  -7.814 -17.990  1.00 70.17 LIG-0.35  N 
ATOM     10 H    LEU G  67     -25.245  -7.767 -17.340  1.00 70.17 LIG 0.16  HD
BRANCH 9 11
ATOM     11  CA  LEU G  67     -26.014  -6.551 -18.693  1.00 68.48 LIG 0.18  C 
BRANCH 11 12
ATOM     12  C   LEU G  67     -25.157  -6.528 -19.968  1.00 69.74 LIG 0.24  C 
ATOM     13  N   ASP G  68     -25.754  -6.071 -21.086  1.00 68.02 LIG-0.35  N 
ATOM     14 H    ASP G  68     -26.605  -6.097 -21.203  1.00 68.02 LIG 0.16  HD
ATOM     15 O    LEU G  67     -23.976  -6.876 -19.896  1.00 68.13 LIG-0.27  OA
BRANCH 13 16
ATOM     16  CA  ASP G  68     -25.019  -5.475 -22.238  1.00 74.55 LIG 0.17  C 
BRANCH 16 17
ATOM     17  C   ASP G  68     -25.002  -3.929 -22.021  1.00 77.35 LIG 0.22  C 
ATOM     18 O    ASP G  68     -25.477  -3.376 -21.025  1.00 79.38 LIG-0.29  OA
ENDBRANCH 16 17
BRANCH 16 19
ATOM     19  CB  ASP G  68     -25.718  -5.769 -23.577  1.00 74.32 LIG 0.15  C 
BRANCH 19 20
ATOM     20  CG  ASP G  68     -27.265  -5.567 -23.534  1.00 79.04 LIG 0.17  C 
ATOM     21 OD1  ASP G  68     -27.969  -6.370 -22.839  1.00 79.61 LIG-0.65  OA
ATOM     22 OD2  ASP G  68     -27.788  -4.615 -24.177  1.00 79.33 LIG-0.65  OA
ENDBRANCH 19 20
ENDBRANCH 16 19
ENDBRANCH 13 16
ENDBRANCH 11 12
BRANCH 11 23
ATOM     23  CB  LEU G  67     -25.768  -5.347 -17.789  1.00 63.56 LIG 0.04  C 
BRANCH 23 24
ATOM     24  CG  LEU G  67     -24.264  -5.189 -17.528  1.00 66.22 LIG-0.02  C 
ATOM     25  CD2 LEU G  67     -23.946  -5.218 -16.029  1.00 64.35 LIG 0.01  C 
ATOM     26  CD1 LEU G  67     -23.650  -3.951 -18.257  1.00 61.82 LIG 0.01  C 
ENDBRANCH 23 24
ENDBRANCH 11 23
ENDBRANCH 9 11
ENDBRANCH 6 7
BRANCH 6 27
ATOM     27  CB  LEU G  66     -27.210 -11.050 -17.215  1.00 68.20 LIG 0.04  C 
BRANCH 27 28
ATOM     28  CG  LEU G  66     -27.150 -12.225 -16.271  1.00 70.51 LIG-0.02  C 
ATOM     29  CD1 LEU G  66     -27.695 -11.981 -14.862  1.00 68.17 LIG 0.01  C 
ATOM     30  CD2 LEU G  66     -27.940 -13.300 -17.017  1.00 69.71 LIG 0.01  C 
ENDBRANCH 27 28
ENDBRANCH 6 27
ENDBRANCH 4 6
ENDBRANCH 1 2
BRANCH 1 31
ATOM     31  CB  PHE G  65     -24.377  -7.639 -14.184  1.00 81.70 LIG 0.07  C 
BRANCH 31 32
ATOM     32  CG  PHE G  65     -23.842  -7.103 -12.855  1.00 88.02 LIG-0.06  A 
ATOM     33  CD1 PHE G  65     -22.818  -6.127 -12.819  1.00 90.65 LIG 0.01  A 
ATOM     34  CE1 PHE G  65     -22.364  -5.603 -11.589  1.00 91.87 LIG 0.00  A 
ATOM     35  CZ  PHE G  65     -22.939  -6.028 -10.381  1.00 92.49 LIG 0.00  A 
ATOM     36  CE2 PHE G  65     -23.965  -6.967 -10.405  1.00 89.30 LIG 0.00  A 
ATOM     37  CD2 PHE G  65     -24.417  -7.492 -11.628  1.00 89.13 LIG 0.01  A 
ENDBRANCH 31 32
ENDBRANCH 1 31
BRANCH 1 38
ATOM     38  N   PHE G  65     -24.090 -10.110 -13.621  1.00 74.58 LIG-0.35  N 
ATOM     39  C   GLN G  64     -22.982 -10.379 -14.340  1.00 72.54 LIG 0.24  C 
ATOM     40 O    GLN G  64     -22.716  -9.808 -15.411  1.00 72.49 LIG-0.27  OA
ATOM     41 H    PHE G  65     -24.314 -10.524 -12.902  1.00 74.58 LIG 0.16  HD
BRANCH 39 42
ATOM     42  CA  GLN G  64     -21.965 -11.402 -13.789  1.00 69.04 LIG 0.18  C 
BRANCH 42 43
ATOM     43  CB  GLN G  64     -20.505 -11.008 -14.034  1.00 71.00 LIG 0.04  C 
BRANCH 43 44
ATOM     44  CG  GLN G  64     -19.738 -10.628 -12.788  1.00 72.96 LIG 0.10  C 
BRANCH 44 45
ATOM     45  CD  GLN G  64     -20.615 -10.232 -11.612  1.00 76.87 LIG 0.21  C 
ATOM     46 OE1  GLN G  64     -20.890  -9.049 -11.354  1.00 74.88 LIG-0.27  OA
ATOM     47  NE2 GLN G  64     -21.085 -11.245 -10.896  1.00 81.47 LIG-0.37  N 
ATOM     48 21HE GLN G  64     -20.874 -12.052 -11.103  1.00 81.47 LIG 0.16  HD
ATOM     49 22HE GLN G  64     -21.602 -11.094 -10.226  1.00 81.47 LIG 0.16  HD
ENDBRANCH 44 45
ENDBRANCH 43 44
ENDBRANCH 42 43
BRANCH 42 50
ATOM     50  N   GLN G  64     -22.189 -12.758 -14.213  1.00 68.17 LIG-0.35  N 
ATOM     51  C   LEU G  63     -22.131 -13.786 -13.361  1.00 67.58 LIG 0.24  C 
ATOM     52 O    LEU G  63     -22.014 -13.674 -12.120  1.00 63.10 LIG-0.27  OA
ATOM     53 H    GLN G  64     -22.360 -12.841 -15.051  1.00 68.17 LIG 0.16  HD
BRANCH 51 54
ATOM     54  CA  LEU G  63     -22.270 -15.155 -14.000  1.00 66.76 LIG 0.18  C 
BRANCH 54 55
ATOM     55  CB  LEU G  63     -23.626 -15.763 -13.603  1.00 69.31 LIG 0.04  C 
BRANCH 55 56
ATOM     56  CG  LEU G  63     -23.677 -16.997 -12.660  1.00 73.12 LIG-0.02  C 
ATOM     57  CD2 LEU G  63     -23.942 -18.343 -13.347  1.00 75.26 LIG 0.01  C 
ATOM     58  CD1 LEU G  63     -24.669 -16.832 -11.530  1.00 70.75 LIG 0.01  C 
ENDBRANCH 55 56
ENDBRANCH 54 55
BRANCH 54 59
ATOM     59  N   LEU G  63     -21.168 -16.001 -13.576  1.00 64.77 LIG-0.35  N 
ATOM     60  C   SER G  62     -19.865 -15.713 -13.792  1.00 63.11 LIG 0.26  C 
ATOM     61 O    SER G  62     -19.423 -14.808 -14.555  1.00 57.72 LIG-0.27  OA
ATOM     62 H    LEU G  63     -21.425 -16.713 -13.168  1.00 64.77 LIG 0.16  HD
BRANCH 60 63
ATOM     63  CA  SER G  62     -18.929 -16.630 -12.990  1.00 64.68 LIG 0.42  C 
ATOM     64  N   SER G  62     -19.397 -16.852 -11.587  1.00 67.72 LIG 0.62  N 
BRANCH 63 65
ATOM     65  CB  SER G  62     -18.661 -17.940 -13.755  1.00 62.74 LIG 0.21  C 
BRANCH 65 66
ATOM     66 OG   SER G  62     -19.807 -18.343 -14.532  1.00 60.63 LIG-0.40  OA
ATOM     67 HG   SER G  62     -20.331 -18.789 -14.049  1.00 60.63 LIG 0.21  HD
ENDBRANCH 65 66
ENDBRANCH 63 65
ENDBRANCH 60 63
ENDBRANCH 54 59
ENDBRANCH 51 54
ENDBRANCH 42 50
ENDBRANCH 39 42
ENDBRANCH 1 38
TORSDOF 28
ENDMDL
MODEL 5
USER: ADFR SOLUTION from run 103
USER: SCORE 20.712958 LL:  -6.171 LR: -16.350 RR:   0.000 FEB:  -7.997
USER: RMSD 7.095241
USER: SEED 102
USER: STATUS 1 or 2 clusters left
USER: GENES 30
USER: genes 0 Translation |==|  0.47931 0.52790 0.64183
USER: genes 1 Rotation |==|  0.17730 0.57880 0.20451 0.72878
USER: genes 2 Torsion [N]-CA--C-[N] |==|  0.63782
USER: genes 3 Torsion [C]-N--CA-[C] |==|  0.84790
USER: genes 4 Torsion [N]-CA--C-[N] |==|  0.34468
USER: genes 5 Torsion [C]-N--CA-[C] |==|  0.64515
USER: genes 6 Torsion [N]-CA--C-[N] |==|  0.95413
USER: genes 7 Torsion [C]-N--CA-[CB] |==|  0.38277
USER: genes 8 Torsion [N]-CA--C-[O] |==|  0.27500
USER: genes 9 Torsion [N]-CA--CB-[CG] |==|  0.27543
USER: genes 10 Torsion [CA]-CB--CG-[OD2] |==|  0.79756
USER: genes 11 Torsion [N]-CA--CB-[CG] |==|  0.88599
USER: genes 12 Torsion [CA]-CB--CG-[CD2] |==|  0.77808
USER: genes 13 Torsion [N]-CA--CB-[CG] |==|  0.39577
USER: genes 14 Torsion [CA]-CB--CG-[CD1] |==|  0.38498
USER: genes 15 Torsion [C]-CA--CB-[CG] |==|  0.76308
USER: genes 16 Torsion [CA]-CB--CG-[CD1] |==|  0.24462
USER: genes 17 Torsion [C]-CA--N-[C] |==|  0.67362
USER: genes 18 Torsion [N]-C--CA-[N] |==|  0.58682
USER: genes 19 Torsion [C]-CA--CB-[CG] |==|  0.33463
USER: genes 20 Torsion [CA]-CB--CG-[CD] |==|  0.89398
USER: genes 21 Torsion [CB]-CG--CD-[NE2] |==|  0.20347
USER: genes 22 Torsion [C]-CA--N-[C] |==|  0.67790
USER: genes 23 Torsion [N]-C--CA-[N] |==|  0.38948
USER: genes 24 Torsion [C]-CA--CB-[CG] |==|  0.75594
USER: genes 25 Torsion [CA]-CB--CG-[CD2] |==|  0.58278
USER: genes 26 Torsion [C]-CA--N-[C] |==|  0.81886
USER: genes 27 Torsion [N]-C--CA-[N] |==|  0.43675
USER: genes 28 Torsion [C]-CA--CB-[OG] |==|  0.05559
USER: genes 29 Torsion [CA]-CB--OG-[HG] |==|  0.81883
ROOT
ATOM      1  CA  PHE G  65     -24.653  -9.201 -14.764  1.00 79.88 LIG 0.18  C 
ENDROOT
BRANCH 1 2
ATOM      2  C   PHE G  65     -24.615  -8.508 -16.167  1.00 81.88 LIG 0.24  C 
ATOM      3 O    PHE G  65     -24.275  -9.127 -17.194  1.00 83.91 LIG-0.27  OA
ATOM      4  N   LEU G  66     -25.006  -7.244 -16.217  1.00 80.12 LIG-0.35  N 
ATOM      5 H    LEU G  66     -25.281  -6.802 -15.532  1.00 80.12 LIG 0.16  HD
BRANCH 4 6
ATOM      6  CA  LEU G  66     -25.004  -6.475 -17.469  1.00 73.95 LIG 0.18  C 
BRANCH 6 7
ATOM      7  C   LEU G  66     -23.605  -6.502 -18.129  1.00 70.37 LIG 0.24  C 
ATOM      8 O    LEU G  66     -22.584  -6.126 -17.515  1.00 65.91 LIG-0.27  OA
ATOM      9  N   LEU G  67     -23.570  -6.952 -19.388  1.00 70.17 LIG-0.35  N 
ATOM     10 H    LEU G  67     -24.252  -7.283 -19.794  1.00 70.17 LIG 0.16  HD
BRANCH 9 11
ATOM     11  CA  LEU G  67     -22.353  -6.918 -20.195  1.00 68.48 LIG 0.18  C 
BRANCH 11 12
ATOM     12  C   LEU G  67     -22.647  -6.228 -21.536  1.00 69.74 LIG 0.24  C 
ATOM     13  N   ASP G  68     -23.944  -6.106 -21.878  1.00 68.02 LIG-0.35  N 
ATOM     14 H    ASP G  68     -24.556  -6.633 -21.583  1.00 68.02 LIG 0.16  HD
ATOM     15 O    LEU G  67     -21.704  -5.787 -22.196  1.00 68.13 LIG-0.27  OA
BRANCH 13 16
ATOM     16  CA  ASP G  68     -24.467  -5.056 -22.798  1.00 74.55 LIG 0.17  C 
BRANCH 16 17
ATOM     17  C   ASP G  68     -25.169  -3.978 -21.914  1.00 77.35 LIG 0.22  C 
ATOM     18 O    ASP G  68     -24.633  -2.916 -21.582  1.00 79.38 LIG-0.29  OA
ENDBRANCH 16 17
BRANCH 16 19
ATOM     19  CB  ASP G  68     -25.504  -5.624 -23.784  1.00 74.32 LIG 0.15  C 
BRANCH 19 20
ATOM     20  CG  ASP G  68     -26.982  -5.359 -23.360  1.00 79.04 LIG 0.17  C 
ATOM     21 OD1  ASP G  68     -27.660  -4.495 -24.007  1.00 79.61 LIG-0.65  OA
ATOM     22 OD2  ASP G  68     -27.479  -6.002 -22.395  1.00 79.33 LIG-0.65  OA
ENDBRANCH 19 20
ENDBRANCH 16 19
ENDBRANCH 13 16
ENDBRANCH 11 12
BRANCH 11 23
ATOM     23  CB  LEU G  67     -21.739  -8.304 -20.361  1.00 63.56 LIG 0.04  C 
BRANCH 23 24
ATOM     24  CG  LEU G  67     -21.814  -9.070 -19.033  1.00 66.22 LIG-0.02  C 
ATOM     25  CD2 LEU G  67     -20.700  -8.644 -18.071  1.00 64.35 LIG 0.01  C 
ATOM     26  CD1 LEU G  67     -21.887 -10.618 -19.232  1.00 61.82 LIG 0.01  C 
ENDBRANCH 23 24
ENDBRANCH 11 23
ENDBRANCH 9 11
ENDBRANCH 6 7
BRANCH 6 27
ATOM     27  CB  LEU G  66     -25.398  -5.049 -17.135  1.00 68.20 LIG 0.04  C 
BRANCH 27 28
ATOM     28  CG  LEU G  66     -24.791  -3.840 -17.806  1.00 70.51 LIG-0.02  C 
ATOM     29  CD1 LEU G  66     -25.765  -2.716 -18.167  1.00 68.17 LIG 0.01  C 
ATOM     30  CD2 LEU G  66     -23.735  -3.388 -16.797  1.00 69.71 LIG 0.01  C 
ENDBRANCH 27 28
ENDBRANCH 6 27
ENDBRANCH 4 6
ENDBRANCH 1 2
BRANCH 1 31
ATOM     31  CB  PHE G  65     -25.184  -8.206 -13.705  1.00 81.70 LIG 0.07  C 
BRANCH 31 32
ATOM     32  CG  PHE G  65     -24.086  -7.309 -13.131  1.00 88.02 LIG-0.06  A 
ATOM     33  CD1 PHE G  65     -23.744  -6.083 -13.751  1.00 90.65 LIG 0.01  A 
ATOM     34  CE1 PHE G  65     -22.762  -5.239 -13.187  1.00 91.87 LIG 0.00  A 
ATOM     35  CZ  PHE G  65     -22.126  -5.594 -11.988  1.00 92.49 LIG 0.00  A 
ATOM     36  CE2 PHE G  65     -22.473  -6.783 -11.354  1.00 89.30 LIG 0.00  A 
ATOM     37  CD2 PHE G  65     -23.447  -7.626 -11.914  1.00 89.13 LIG 0.01  A 
ENDBRANCH 31 32
ENDBRANCH 1 31
BRANCH 1 38
ATOM     38  N   PHE G  65     -23.414  -9.927 -14.345  1.00 74.58 LIG-0.35  N 
ATOM     39  C   GLN G  64     -23.435 -11.256 -14.125  1.00 72.54 LIG 0.24  C 
ATOM     40 O    GLN G  64     -24.473 -11.936 -14.192  1.00 72.49 LIG-0.27  OA
ATOM     41 H    PHE G  65     -22.716  -9.432 -14.261  1.00 74.58 LIG 0.16  HD
BRANCH 39 42
ATOM     42  CA  GLN G  64     -22.106 -11.985 -13.830  1.00 69.04 LIG 0.18  C 
BRANCH 42 43
ATOM     43  CB  GLN G  64     -20.868 -11.221 -14.308  1.00 71.00 LIG 0.04  C 
BRANCH 43 44
ATOM     44  CG  GLN G  64     -19.883 -10.870 -13.217  1.00 72.96 LIG 0.10  C 
BRANCH 44 45
ATOM     45  CD  GLN G  64     -20.528 -10.466 -11.901  1.00 76.87 LIG 0.21  C 
ATOM     46 OE1  GLN G  64     -20.567  -9.287 -11.513  1.00 74.88 LIG-0.27  OA
ATOM     47  NE2 GLN G  64     -21.068 -11.461 -11.212  1.00 81.47 LIG-0.37  N 
ATOM     48 21HE GLN G  64     -21.022 -12.266 -11.511  1.00 81.47 LIG 0.16  HD
ATOM     49 22HE GLN G  64     -21.465 -11.301 -10.466  1.00 81.47 LIG 0.16  HD
ENDBRANCH 44 45
ENDBRANCH 43 44
ENDBRANCH 42 43
BRANCH 42 50
ATOM     50  N   GLN G  64     -22.054 -13.347 -14.288  1.00 68.17 LIG-0.35  N 
ATOM     51  C   LEU G  63     -21.939 -14.377 -13.444  1.00 67.58 LIG 0.24  C 
ATOM     52 O    LEU G  63     -21.998 -14.281 -12.197  1.00 63.10 LIG-0.27  OA
ATOM     53 H    GLN G  64     -22.104 -13.433 -15.143  1.00 68.17 LIG 0.16  HD
BRANCH 51 54
ATOM     54  CA  LEU G  63     -21.775 -15.732 -14.106  1.00 66.76 LIG 0.18  C 
BRANCH 54 55
ATOM     55  CB  LEU G  63     -23.142 -16.436 -14.160  1.00 69.31 LIG 0.04  C 
BRANCH 55 56
ATOM     56  CG  LEU G  63     -23.613 -17.309 -12.964  1.00 73.12 LIG-0.02  C 
ATOM     57  CD2 LEU G  63     -24.540 -18.477 -13.323  1.00 75.26 LIG 0.01  C 
ATOM     58  CD1 LEU G  63     -24.267 -16.497 -11.867  1.00 70.75 LIG 0.01  C 
ENDBRANCH 55 56
ENDBRANCH 54 55
BRANCH 54 59
ATOM     59  N   LEU G  63     -20.806 -16.518 -13.364  1.00 64.77 LIG-0.35  N 
ATOM     60  C   SER G  62     -19.496 -16.200 -13.254  1.00 63.11 LIG 0.26  C 
ATOM     61 O    SER G  62     -18.888 -15.323 -13.931  1.00 57.72 LIG-0.27  OA
ATOM     62 H    LEU G  63     -21.147 -17.215 -12.993  1.00 64.77 LIG 0.16  HD
BRANCH 60 63
ATOM     63  CA  SER G  62     -18.783 -17.043 -12.187  1.00 64.68 LIG 0.42  C 
ATOM     64  N   SER G  62     -17.305 -17.121 -12.402  1.00 67.72 LIG 0.62  N 
BRANCH 63 65
ATOM     65  CB  SER G  62     -19.166 -16.570 -10.772  1.00 62.74 LIG 0.21  C 
BRANCH 65 66
ATOM     66 OG   SER G  62     -20.395 -15.815 -10.781  1.00 60.63 LIG-0.40  OA
ATOM     67 HG   SER G  62     -20.284 -15.103 -11.213  1.00 60.63 LIG 0.21  HD
ENDBRANCH 65 66
ENDBRANCH 63 65
ENDBRANCH 60 63
ENDBRANCH 54 59
ENDBRANCH 51 54
ENDBRANCH 42 50
ENDBRANCH 39 42
ENDBRANCH 1 38
TORSDOF 28
ENDMDL
MODEL 6
USER: ADFR SOLUTION from run 159
USER: SCORE 21.091794 LL:  -5.984 LR: -16.295 RR:   0.000 FEB:  -7.943
USER: RMSD 6.145246
USER: SEED 158
USER: STATUS 1 or 2 clusters left
USER: GENES 30
USER: genes 0 Translation |==|  0.48184 0.57955 0.60755
USER: genes 1 Rotation |==|  0.11779 0.57705 0.20436 0.60286
USER: genes 2 Torsion [N]-CA--C-[N] |==|  0.37445
USER: genes 3 Torsion [C]-N--CA-[C] |==|  0.76657
USER: genes 4 Torsion [N]-CA--C-[N] |==|  0.18373
USER: genes 5 Torsion [C]-N--CA-[C] |==|  0.73537
USER: genes 6 Torsion [N]-CA--C-[N] |==|  0.04127
USER: genes 7 Torsion [C]-N--CA-[CB] |==|  0.90215
USER: genes 8 Torsion [N]-CA--C-[O] |==|  0.01290
USER: genes 9 Torsion [N]-CA--CB-[CG] |==|  0.82094
USER: genes 10 Torsion [CA]-CB--CG-[OD2] |==|  0.01587
USER: genes 11 Torsion [N]-CA--CB-[CG] |==|  0.91447
USER: genes 12 Torsion [CA]-CB--CG-[CD2] |==|  0.78736
USER: genes 13 Torsion [N]-CA--CB-[CG] |==|  0.07459
USER: genes 14 Torsion [CA]-CB--CG-[CD1] |==|  0.24596
USER: genes 15 Torsion [C]-CA--CB-[CG] |==|  0.55933
USER: genes 16 Torsion [CA]-CB--CG-[CD1] |==|  0.34511
USER: genes 17 Torsion [C]-CA--N-[C] |==|  0.66941
USER: genes 18 Torsion [N]-C--CA-[N] |==|  0.68333
USER: genes 19 Torsion [C]-CA--CB-[CG] |==|  0.37576
USER: genes 20 Torsion [CA]-CB--CG-[CD] |==|  0.87785
USER: genes 21 Torsion [CB]-CG--CD-[NE2] |==|  0.27736
USER: genes 22 Torsion [C]-CA--N-[C] |==|  0.17219
USER: genes 23 Torsion [N]-C--CA-[N] |==|  0.94181
USER: genes 24 Torsion [C]-CA--CB-[CG] |==|  0.05165
USER: genes 25 Torsion [CA]-CB--CG-[CD2] |==|  0.71296
USER: genes 26 Torsion [C]-CA--N-[C] |==|  0.76288
USER: genes 27 Torsion [N]-C--CA-[N] |==|  0.53147
USER: genes 28 Torsion [C]-CA--CB-[OG] |==|  0.60571
USER: genes 29 Torsion [CA]-CB--OG-[HG] |==|  0.25076
ROOT
ATOM      1  CA  PHE G  65     -24.606  -8.194 -15.433  1.00 79.88 LIG 0.18  C 
ENDROOT
BRANCH 1 2
ATOM      2  C   PHE G  65     -24.803  -8.153 -16.985  1.00 81.88 LIG 0.24  C 
ATOM      3 O    PHE G  65     -23.837  -8.034 -17.764  1.00 83.91 LIG-0.27  OA
ATOM      4  N   LEU G  66     -26.041  -8.297 -17.431  1.00 80.12 LIG-0.35  N 
ATOM      5 H    LEU G  66     -26.721  -8.417 -16.919  1.00 80.12 LIG 0.16  HD
BRANCH 4 6
ATOM      6  CA  LEU G  66     -26.363  -8.262 -18.864  1.00 73.95 LIG 0.18  C 
BRANCH 6 7
ATOM      7  C   LEU G  66     -26.532  -6.804 -19.356  1.00 70.37 LIG 0.24  C 
ATOM      8 O    LEU G  66     -27.636  -6.370 -19.747  1.00 65.91 LIG-0.27  OA
ATOM      9  N   LEU G  67     -25.425  -6.055 -19.329  1.00 70.17 LIG-0.35  N 
ATOM     10 H    LEU G  67     -24.679  -6.319 -18.991  1.00 70.17 LIG 0.16  HD
BRANCH 9 11
ATOM     11  CA  LEU G  67     -25.386  -4.703 -19.880  1.00 68.48 LIG 0.18  C 
BRANCH 11 12
ATOM     12  C   LEU G  67     -24.852  -4.753 -21.320  1.00 69.74 LIG 0.24  C 
ATOM     13  N   ASP G  68     -24.822  -5.964 -21.910  1.00 68.02 LIG-0.35  N 
ATOM     14 H    ASP G  68     -24.775  -6.698 -21.463  1.00 68.02 LIG 0.16  HD
ATOM     15 O    LEU G  67     -24.531  -3.698 -21.871  1.00 68.13 LIG-0.27  OA
BRANCH 13 16
ATOM     16  CA  ASP G  68     -24.866  -6.174 -23.385  1.00 74.55 LIG 0.17  C 
BRANCH 16 17
ATOM     17  C   ASP G  68     -23.408  -6.004 -23.916  1.00 77.35 LIG 0.22  C 
ATOM     18 O    ASP G  68     -22.431  -5.826 -23.181  1.00 79.38 LIG-0.29  OA
ENDBRANCH 16 17
BRANCH 16 19
ATOM     19  CB  ASP G  68     -25.760  -5.134 -24.084  1.00 74.32 LIG 0.15  C 
BRANCH 19 20
ATOM     20  CG  ASP G  68     -27.265  -5.231 -23.683  1.00 79.04 LIG 0.17  C 
ATOM     21 OD1  ASP G  68     -28.110  -4.495 -24.289  1.00 79.61 LIG-0.65  OA
ATOM     22 OD2  ASP G  68     -27.617  -6.035 -22.776  1.00 79.33 LIG-0.65  OA
ENDBRANCH 19 20
ENDBRANCH 16 19
ENDBRANCH 13 16
ENDBRANCH 11 12
BRANCH 11 23
ATOM     23  CB  LEU G  67     -24.603  -3.745 -18.988  1.00 63.56 LIG 0.04  C 
BRANCH 23 24
ATOM     24  CG  LEU G  67     -24.734  -4.173 -17.521  1.00 66.22 LIG-0.02  C 
ATOM     25  CD2 LEU G  67     -26.099  -3.789 -16.941  1.00 64.35 LIG 0.01  C 
ATOM     26  CD1 LEU G  67     -23.539  -3.687 -16.640  1.00 61.82 LIG 0.01  C 
ENDBRANCH 23 24
ENDBRANCH 11 23
ENDBRANCH 9 11
ENDBRANCH 6 7
BRANCH 6 27
ATOM     27  CB  LEU G  66     -27.652  -9.036 -19.067  1.00 68.20 LIG 0.04  C 
BRANCH 27 28
ATOM     28  CG  LEU G  66     -28.704  -9.194 -17.997  1.00 70.51 LIG-0.02  C 
ATOM     29  CD1 LEU G  66     -29.770  -8.098 -17.940  1.00 68.17 LIG 0.01  C 
ATOM     30  CD2 LEU G  66     -29.301 -10.565 -18.308  1.00 69.71 LIG 0.01  C 
ENDBRANCH 27 28
ENDBRANCH 6 27
ENDBRANCH 4 6
ENDBRANCH 1 2
BRANCH 1 31
ATOM     31  CB  PHE G  65     -24.629  -6.754 -14.866  1.00 81.70 LIG 0.07  C 
BRANCH 31 32
ATOM     32  CG  PHE G  65     -23.947  -6.643 -13.501  1.00 88.02 LIG-0.06  A 
ATOM     33  CD1 PHE G  65     -22.887  -5.729 -13.287  1.00 90.65 LIG 0.01  A 
ATOM     34  CE1 PHE G  65     -22.295  -5.599 -12.011  1.00 91.87 LIG 0.00  A 
ATOM     35  CZ  PHE G  65     -22.766  -6.360 -10.930  1.00 92.49 LIG 0.00  A 
ATOM     36  CE2 PHE G  65     -23.825  -7.241 -11.122  1.00 89.30 LIG 0.00  A 
ATOM     37  CD2 PHE G  65     -24.414  -7.375 -12.391  1.00 89.13 LIG 0.01  A 
ENDBRANCH 31 32
ENDBRANCH 1 31
BRANCH 1 38
ATOM     38  N   PHE G  65     -23.470  -9.025 -14.926  1.00 74.58 LIG-0.35  N 
ATOM     39  C   GLN G  64     -23.693 -10.072 -14.108  1.00 72.54 LIG 0.24  C 
ATOM     40 O    GLN G  64     -24.821 -10.367 -13.681  1.00 72.49 LIG-0.27  OA
ATOM     41 H    PHE G  65     -22.692  -8.777 -15.197  1.00 74.58 LIG 0.16  HD
BRANCH 39 42
ATOM     42  CA  GLN G  64     -22.508 -10.984 -13.722  1.00 69.04 LIG 0.18  C 
BRANCH 42 43
ATOM     43  CB  GLN G  64     -21.139 -10.386 -14.059  1.00 71.00 LIG 0.04  C 
BRANCH 43 44
ATOM     44  CG  GLN G  64     -20.105 -10.521 -12.964  1.00 72.96 LIG 0.10  C 
BRANCH 44 45
ATOM     45  CD  GLN G  64     -20.625 -10.202 -11.573  1.00 76.87 LIG 0.21  C 
ATOM     46 OE1  GLN G  64     -20.771  -9.038 -11.167  1.00 74.88 LIG-0.27  OA
ATOM     47  NE2 GLN G  64     -20.935 -11.258 -10.833  1.00 81.47 LIG-0.37  N 
ATOM     48 21HE GLN G  64     -20.820 -12.051 -11.147  1.00 81.47 LIG 0.16  HD
ATOM     49 22HE GLN G  64     -21.250 -11.150 -10.041  1.00 81.47 LIG 0.16  HD
ENDBRANCH 44 45
ENDBRANCH 43 44
ENDBRANCH 42 43
BRANCH 42 50
ATOM     50  N   GLN G  64     -22.597 -12.328 -14.223  1.00 68.17 LIG-0.35  N 
ATOM     51  C   LEU G  63     -22.622 -12.598 -15.532  1.00 67.58 LIG 0.24  C 
ATOM     52 O    LEU G  63     -22.439 -11.749 -16.435  1.00 63.10 LIG-0.27  OA
ATOM     53 H    GLN G  64     -22.632 -12.931 -13.611  1.00 68.17 LIG 0.16  HD
BRANCH 51 54
ATOM     54  CA  LEU G  63     -22.843 -14.057 -15.882  1.00 66.76 LIG 0.18  C 
BRANCH 54 55
ATOM     55  CB  LEU G  63     -24.312 -14.263 -16.289  1.00 69.31 LIG 0.04  C 
BRANCH 55 56
ATOM     56  CG  LEU G  63     -25.178 -13.043 -16.710  1.00 73.12 LIG-0.02  C 
ATOM     57  CD2 LEU G  63     -26.176 -12.546 -15.656  1.00 75.26 LIG 0.01  C 
ATOM     58  CD1 LEU G  63     -25.924 -13.273 -18.006  1.00 70.75 LIG 0.01  C 
ENDBRANCH 55 56
ENDBRANCH 54 55
BRANCH 54 59
ATOM     59  N   LEU G  63     -22.490 -14.886 -14.743  1.00 64.77 LIG-0.35  N 
ATOM     60  C   SER G  62     -21.235 -15.313 -14.475  1.00 63.11 LIG 0.26  C 
ATOM     61 O    SER G  62     -20.247 -15.243 -15.259  1.00 57.72 LIG-0.27  OA
ATOM     62 H    LEU G  63     -23.163 -15.082 -14.245  1.00 64.77 LIG 0.16  HD
BRANCH 60 63
ATOM     63  CA  SER G  62     -21.118 -15.921 -13.070  1.00 64.68 LIG 0.42  C 
ATOM     64  N   SER G  62     -19.700 -16.151 -12.654  1.00 67.72 LIG 0.62  N 
BRANCH 63 65
ATOM     65  CB  SER G  62     -21.924 -15.096 -12.049  1.00 62.74 LIG 0.21  C 
BRANCH 65 66
ATOM     66 OG   SER G  62     -21.239 -15.006 -10.783  1.00 60.63 LIG-0.40  OA
ATOM     67 HG   SER G  62     -20.744 -14.328 -10.780  1.00 60.63 LIG 0.21  HD
ENDBRANCH 65 66
ENDBRANCH 63 65
ENDBRANCH 60 63
ENDBRANCH 54 59
ENDBRANCH 51 54
ENDBRANCH 42 50
ENDBRANCH 39 42
ENDBRANCH 1 38
TORSDOF 28
ENDMDL
MODEL 7
USER: ADFR SOLUTION from run 95
USER: SCORE 21.918674 LL:  -6.004 LR: -16.263 RR:   0.000 FEB:  -7.911
USER: RMSD 6.060957
USER: SEED 94
USER: STATUS searching
USER: GENES 30
USER: genes 0 Translation |==|  0.49035 0.58430 0.57436
USER: genes 1 Rotation |==|  0.85475 0.45940 0.78935 0.69693
USER: genes 2 Torsion [N]-CA--C-[N] |==|  0.19556
USER: genes 3 Torsion [C]-N--CA-[C] |==|  0.76081
USER: genes 4 Torsion [N]-CA--C-[N] |==|  0.97504
USER: genes 5 Torsion [C]-N--CA-[C] |==|  0.73930
USER: genes 6 Torsion [N]-CA--C-[N] |==|  0.98016
USER: genes 7 Torsion [C]-N--CA-[CB] |==|  0.24154
USER: genes 8 Torsion [N]-CA--C-[O] |==|  0.25974
USER: genes 9 Torsion [N]-CA--CB-[CG] |==|  0.74261
USER: genes 10 Torsion [CA]-CB--CG-[OD2] |==|  0.48750
USER: genes 11 Torsion [N]-CA--CB-[CG] |==|  0.75918
USER: genes 12 Torsion [CA]-CB--CG-[CD2] |==|  0.23276
USER: genes 13 Torsion [N]-CA--CB-[CG] |==|  0.05641
USER: genes 14 Torsion [CA]-CB--CG-[CD1] |==|  0.14171
USER: genes 15 Torsion [C]-CA--CB-[CG] |==|  0.30187
USER: genes 16 Torsion [CA]-CB--CG-[CD1] |==|  0.32879
USER: genes 17 Torsion [C]-CA--N-[C] |==|  0.76667
USER: genes 18 Torsion [N]-C--CA-[N] |==|  0.89644
USER: genes 19 Torsion [C]-CA--CB-[CG] |==|  0.84787
USER: genes 20 Torsion [CA]-CB--CG-[CD] |==|  0.27269
USER: genes 21 Torsion [CB]-CG--CD-[NE2] |==|  0.40139
USER: genes 22 Torsion [C]-CA--N-[C] |==|  0.85476
USER: genes 23 Torsion [N]-C--CA-[N] |==|  0.93320
USER: genes 24 Torsion [C]-CA--CB-[CG] |==|  0.43176
USER: genes 25 Torsion [CA]-CB--CG-[CD2] |==|  0.72586
USER: genes 26 Torsion [C]-CA--N-[C] |==|  0.83289
USER: genes 27 Torsion [N]-C--CA-[N] |==|  0.91470
USER: genes 28 Torsion [C]-CA--CB-[OG] |==|  0.89351
USER: genes 29 Torsion [CA]-CB--OG-[HG] |==|  0.75577
ROOT
ATOM      1  CA  PHE G  65     -24.446  -8.101 -16.080  1.00 79.88 LIG 0.18  C 
ENDROOT
BRANCH 1 2
ATOM      2  C   PHE G  65     -25.187  -9.164 -16.958  1.00 81.88 LIG 0.24  C 
ATOM      3 O    PHE G  65     -24.767  -9.487 -18.086  1.00 83.91 LIG-0.27  OA
ATOM      4  N   LEU G  66     -26.256  -9.735 -16.425  1.00 80.12 LIG-0.35  N 
ATOM      5 H    LEU G  66     -26.547  -9.559 -15.635  1.00 80.12 LIG 0.16  HD
BRANCH 4 6
ATOM      6  CA  LEU G  66     -27.049 -10.737 -17.150  1.00 73.95 LIG 0.18  C 
BRANCH 6 7
ATOM      7  C   LEU G  66     -28.117 -10.055 -18.040  1.00 70.37 LIG 0.24  C 
ATOM      8 O    LEU G  66     -28.792 -10.705 -18.866  1.00 65.91 LIG-0.27  OA
ATOM      9  N   LEU G  67     -28.262  -8.738 -17.859  1.00 70.17 LIG-0.35  N 
ATOM     10 H    LEU G  67     -27.858  -8.294 -17.242  1.00 70.17 LIG 0.16  HD
BRANCH 9 11
ATOM     11  CA  LEU G  67     -29.130  -7.926 -18.708  1.00 68.48 LIG 0.18  C 
BRANCH 11 12
ATOM     12  C   LEU G  67     -28.305  -7.318 -19.852  1.00 69.74 LIG 0.24  C 
ATOM     13  N   ASP G  68     -26.971  -7.498 -19.793  1.00 68.02 LIG-0.35  N 
ATOM     14 H    ASP G  68     -26.551  -7.633 -19.055  1.00 68.02 LIG 0.16  HD
ATOM     15 O    LEU G  67     -28.895  -6.750 -20.773  1.00 68.13 LIG-0.27  OA
BRANCH 13 16
ATOM     16  CA  ASP G  68     -26.076  -7.484 -20.985  1.00 74.55 LIG 0.17  C 
BRANCH 16 17
ATOM     17  C   ASP G  68     -24.819  -8.337 -20.626  1.00 77.35 LIG 0.22  C 
ATOM     18 O    ASP G  68     -24.715  -9.540 -20.889  1.00 79.38 LIG-0.29  OA
ENDBRANCH 16 17
BRANCH 16 19
ATOM     19  CB  ASP G  68     -25.609  -6.058 -21.333  1.00 74.32 LIG 0.15  C 
BRANCH 19 20
ATOM     20  CG  ASP G  68     -26.520  -5.339 -22.377  1.00 79.04 LIG 0.17  C 
ATOM     21 OD1  ASP G  68     -27.484  -5.987 -22.899  1.00 79.61 LIG-0.65  OA
ATOM     22 OD2  ASP G  68     -26.291  -4.135 -22.679  1.00 79.33 LIG-0.65  OA
ENDBRANCH 19 20
ENDBRANCH 16 19
ENDBRANCH 13 16
ENDBRANCH 11 12
BRANCH 11 23
ATOM     23  CB  LEU G  67     -29.897  -6.879 -17.905  1.00 63.56 LIG 0.04  C 
BRANCH 23 24
ATOM     24  CG  LEU G  67     -31.196  -7.488 -17.361  1.00 66.22 LIG-0.02  C 
ATOM     25  CD2 LEU G  67     -30.958  -8.248 -16.052  1.00 64.35 LIG 0.01  C 
ATOM     26  CD1 LEU G  67     -31.959  -8.336 -18.428  1.00 61.82 LIG 0.01  C 
ENDBRANCH 23 24
ENDBRANCH 11 23
ENDBRANCH 9 11
ENDBRANCH 6 7
BRANCH 6 27
ATOM     27  CB  LEU G  66     -27.717 -11.630 -16.122  1.00 68.20 LIG 0.04  C 
BRANCH 27 28
ATOM     28  CG  LEU G  66     -27.925 -11.229 -14.683  1.00 70.51 LIG-0.02  C 
ATOM     29  CD1 LEU G  66     -28.591  -9.869 -14.456  1.00 68.17 LIG 0.01  C 
ATOM     30  CD2 LEU G  66     -28.762 -12.381 -14.127  1.00 69.71 LIG 0.01  C 
ENDBRANCH 27 28
ENDBRANCH 6 27
ENDBRANCH 4 6
ENDBRANCH 1 2
BRANCH 1 31
ATOM     31  CB  PHE G  65     -23.607  -7.169 -16.987  1.00 81.70 LIG 0.07  C 
BRANCH 31 32
ATOM     32  CG  PHE G  65     -24.190  -5.758 -17.088  1.00 88.02 LIG-0.06  A 
ATOM     33  CD1 PHE G  65     -23.458  -4.631 -16.643  1.00 90.65 LIG 0.01  A 
ATOM     34  CE1 PHE G  65     -23.984  -3.329 -16.785  1.00 91.87 LIG 0.00  A 
ATOM     35  CZ  PHE G  65     -25.234  -3.130 -17.391  1.00 92.49 LIG 0.00  A 
ATOM     36  CE2 PHE G  65     -25.950  -4.228 -17.858  1.00 89.30 LIG 0.00  A 
ATOM     37  CD2 PHE G  65     -25.431  -5.526 -17.716  1.00 89.13 LIG 0.01  A 
ENDBRANCH 31 32
ENDBRANCH 1 31
BRANCH 1 38
ATOM     38  N   PHE G  65     -23.701  -8.620 -14.891  1.00 74.58 LIG-0.35  N 
ATOM     39  C   GLN G  64     -24.335  -8.847 -13.725  1.00 72.54 LIG 0.24  C 
ATOM     40 O    GLN G  64     -25.537  -8.585 -13.547  1.00 72.49 LIG-0.27  OA
ATOM     41 H    PHE G  65     -22.861  -8.753 -15.021  1.00 74.58 LIG 0.16  HD
BRANCH 39 42
ATOM     42  CA  GLN G  64     -23.557  -9.512 -12.568  1.00 69.04 LIG 0.18  C 
BRANCH 42 43
ATOM     43  CB  GLN G  64     -22.864  -8.511 -11.640  1.00 71.00 LIG 0.04  C 
BRANCH 43 44
ATOM     44  CG  GLN G  64     -21.938  -7.540 -12.337  1.00 72.96 LIG 0.10  C 
BRANCH 44 45
ATOM     45  CD  GLN G  64     -22.556  -6.181 -12.618  1.00 76.87 LIG 0.21  C 
ATOM     46 OE1  GLN G  64     -23.758  -6.039 -12.897  1.00 74.88 LIG-0.27  OA
ATOM     47  NE2 GLN G  64     -21.723  -5.154 -12.516  1.00 81.47 LIG-0.37  N 
ATOM     48 21HE GLN G  64     -20.897  -5.289 -12.320  1.00 81.47 LIG 0.16  HD
ATOM     49 22HE GLN G  64     -22.010  -4.354 -12.645  1.00 81.47 LIG 0.16  HD
ENDBRANCH 44 45
ENDBRANCH 43 44
ENDBRANCH 42 43
BRANCH 42 50
ATOM     50  N   GLN G  64     -22.629 -10.531 -12.978  1.00 68.17 LIG-0.35  N 
ATOM     51  C   LEU G  63     -22.993 -11.549 -13.764  1.00 67.58 LIG 0.24  C 
ATOM     52 O    LEU G  63     -24.110 -11.650 -14.321  1.00 63.10 LIG-0.27  OA
ATOM     53 H    GLN G  64     -21.832 -10.424 -12.675  1.00 68.17 LIG 0.16  HD
BRANCH 51 54
ATOM     54  CA  LEU G  63     -21.920 -12.595 -13.995  1.00 66.76 LIG 0.18  C 
BRANCH 54 55
ATOM     55  CB  LEU G  63     -22.149 -13.776 -13.036  1.00 69.31 LIG 0.04  C 
BRANCH 55 56
ATOM     56  CG  LEU G  63     -21.609 -15.186 -13.398  1.00 73.12 LIG-0.02  C 
ATOM     57  CD2 LEU G  63     -22.633 -16.150 -14.008  1.00 75.26 LIG 0.01  C 
ATOM     58  CD1 LEU G  63     -20.938 -15.875 -12.230  1.00 70.75 LIG 0.01  C 
ENDBRANCH 55 56
ENDBRANCH 54 55
BRANCH 54 59
ATOM     59  N   LEU G  63     -20.612 -11.998 -13.795  1.00 64.77 LIG-0.35  N 
ATOM     60  C   SER G  62     -20.135 -10.956 -14.512  1.00 63.11 LIG 0.26  C 
ATOM     61 O    SER G  62     -20.645 -10.493 -15.572  1.00 57.72 LIG-0.27  OA
ATOM     62 H    LEU G  63     -20.160 -12.374 -13.167  1.00 64.77 LIG 0.16  HD
BRANCH 60 63
ATOM     63  CA  SER G  62     -18.861 -10.362 -13.895  1.00 64.68 LIG 0.42  C 
ATOM     64  N   SER G  62     -18.822 -10.495 -12.405  1.00 67.72 LIG 0.62  N 
BRANCH 63 65
ATOM     65  CB  SER G  62     -17.605 -10.923 -14.587  1.00 62.74 LIG 0.21  C 
BRANCH 65 66
ATOM     66 OG   SER G  62     -17.758 -12.321 -14.907  1.00 60.63 LIG-0.40  OA
ATOM     67 HG   SER G  62     -17.512 -12.787 -14.253  1.00 60.63 LIG 0.21  HD
ENDBRANCH 65 66
ENDBRANCH 63 65
ENDBRANCH 60 63
ENDBRANCH 54 59
ENDBRANCH 51 54
ENDBRANCH 42 50
ENDBRANCH 39 42
ENDBRANCH 1 38
TORSDOF 28
ENDMDL
MODEL 8
USER: ADFR SOLUTION from run 13
USER: SCORE 19.658561 LL:  -5.136 LR: -16.212 RR:   0.000 FEB:  -7.860
USER: RMSD 6.593670
USER: SEED 893682
USER: STATUS no improvement in best in 9 clusters for 5 generations
USER: GENES 30
USER: genes 0 Translation |==|  0.44403 0.51376 0.63865
USER: genes 1 Rotation |==|  0.89725 0.39850 0.77794 0.56808
USER: genes 2 Torsion [N]-CA--C-[N] |==|  0.21667
USER: genes 3 Torsion [C]-N--CA-[C] |==|  0.88040
USER: genes 4 Torsion [N]-CA--C-[N] |==|  0.87592
USER: genes 5 Torsion [C]-N--CA-[C] |==|  0.77037
USER: genes 6 Torsion [N]-CA--C-[N] |==|  0.35074
USER: genes 7 Torsion [C]-N--CA-[CB] |==|  0.55110
USER: genes 8 Torsion [N]-CA--C-[O] |==|  0.56612
USER: genes 9 Torsion [N]-CA--CB-[CG] |==|  0.11525
USER: genes 10 Torsion [CA]-CB--CG-[OD2] |==|  0.36863
USER: genes 11 Torsion [N]-CA--CB-[CG] |==|  0.76522
USER: genes 12 Torsion [CA]-CB--CG-[CD2] |==|  0.88668
USER: genes 13 Torsion [N]-CA--CB-[CG] |==|  0.06096
USER: genes 14 Torsion [CA]-CB--CG-[CD1] |==|  0.16649
USER: genes 15 Torsion [C]-CA--CB-[CG] |==|  0.49413
USER: genes 16 Torsion [CA]-CB--CG-[CD1] |==|  0.47124
USER: genes 17 Torsion [C]-CA--N-[C] |==|  0.18454
USER: genes 18 Torsion [N]-C--CA-[N] |==|  0.28979
USER: genes 19 Torsion [C]-CA--CB-[CG] |==|  0.26140
USER: genes 20 Torsion [CA]-CB--CG-[CD] |==|  0.09093
USER: genes 21 Torsion [CB]-CG--CD-[NE2] |==|  0.26196
USER: genes 22 Torsion [C]-CA--N-[C] |==|  0.57240
USER: genes 23 Torsion [N]-C--CA-[N] |==|  0.40174
USER: genes 24 Torsion [C]-CA--CB-[CG] |==|  0.72316
USER: genes 25 Torsion [CA]-CB--CG-[CD2] |==|  0.66206
USER: genes 26 Torsion [C]-CA--N-[C] |==|  0.81394
USER: genes 27 Torsion [N]-C--CA-[N] |==|  0.46510
USER: genes 28 Torsion [C]-CA--CB-[OG] |==|  0.03189
USER: genes 29 Torsion [CA]-CB--OG-[HG] |==|  0.83427
ROOT
ATOM      1  CA  PHE G  65     -25.315  -9.477 -14.826  1.00 79.88 LIG 0.18  C 
ENDROOT
BRANCH 1 2
ATOM      2  C   PHE G  65     -25.950  -9.954 -16.175  1.00 81.88 LIG 0.24  C 
ATOM      3 O    PHE G  65     -25.443  -9.663 -17.276  1.00 83.91 LIG-0.27  OA
ATOM      4  N   LEU G  66     -27.026 -10.720 -16.087  1.00 80.12 LIG-0.35  N 
ATOM      5 H    LEU G  66     -27.377 -10.966 -15.341  1.00 80.12 LIG 0.16  HD
BRANCH 4 6
ATOM      6  CA  LEU G  66     -27.727 -11.222 -17.277  1.00 73.95 LIG 0.18  C 
BRANCH 6 7
ATOM      7  C   LEU G  66     -27.863 -10.110 -18.346  1.00 70.37 LIG 0.24  C 
ATOM      8 O    LEU G  66     -27.628 -10.331 -19.552  1.00 65.91 LIG-0.27  OA
ATOM      9  N   LEU G  67     -28.247  -8.914 -17.887  1.00 70.17 LIG-0.35  N 
ATOM     10 H    LEU G  67     -28.485  -8.770 -17.073  1.00 70.17 LIG 0.16  HD
BRANCH 9 11
ATOM     11  CA  LEU G  67     -28.297  -7.731 -18.742  1.00 68.48 LIG 0.18  C 
BRANCH 11 12
ATOM     12  C   LEU G  67     -26.894  -7.113 -18.841  1.00 69.74 LIG 0.24  C 
ATOM     13  N   ASP G  68     -26.410  -6.913 -20.082  1.00 68.02 LIG-0.35  N 
ATOM     14 H    ASP G  68     -26.671  -7.369 -20.763  1.00 68.02 LIG 0.16  HD
ATOM     15 O    LEU G  67     -26.312  -6.792 -17.802  1.00 68.13 LIG-0.27  OA
BRANCH 13 16
ATOM     16  CA  ASP G  68     -25.380  -5.889 -20.419  1.00 74.55 LIG 0.17  C 
BRANCH 16 17
ATOM     17  C   ASP G  68     -25.762  -4.583 -19.655  1.00 77.35 LIG 0.22  C 
ATOM     18 O    ASP G  68     -25.404  -3.456 -20.011  1.00 79.38 LIG-0.29  OA
ENDBRANCH 16 17
BRANCH 16 19
ATOM     19  CB  ASP G  68     -25.354  -5.579 -21.927  1.00 74.32 LIG 0.15  C 
BRANCH 19 20
ATOM     20  CG  ASP G  68     -26.773  -5.471 -22.569  1.00 79.04 LIG 0.17  C 
ATOM     21 OD1  ASP G  68     -27.634  -6.373 -22.308  1.00 79.61 LIG-0.65  OA
ATOM     22 OD2  ASP G  68     -27.043  -4.497 -23.324  1.00 79.33 LIG-0.65  OA
ENDBRANCH 19 20
ENDBRANCH 16 19
ENDBRANCH 13 16
ENDBRANCH 11 12
BRANCH 11 23
ATOM     23  CB  LEU G  67     -29.355  -6.735 -18.279  1.00 63.56 LIG 0.04  C 
BRANCH 23 24
ATOM     24  CG  LEU G  67     -30.724  -7.124 -18.854  1.00 66.22 LIG-0.02  C 
ATOM     25  CD2 LEU G  67     -30.614  -7.589 -20.309  1.00 64.35 LIG 0.01  C 
ATOM     26  CD1 LEU G  67     -31.803  -6.012 -18.650  1.00 61.82 LIG 0.01  C 
ENDBRANCH 23 24
ENDBRANCH 11 23
ENDBRANCH 9 11
ENDBRANCH 6 7
BRANCH 6 27
ATOM     27  CB  LEU G  66     -29.098 -11.698 -16.840  1.00 68.20 LIG 0.04  C 
BRANCH 27 28
ATOM     28  CG  LEU G  66     -29.778 -11.228 -15.577  1.00 70.51 LIG-0.02  C 
ATOM     29  CD1 LEU G  66     -30.041  -9.724 -15.479  1.00 68.17 LIG 0.01  C 
ATOM     30  CD2 LEU G  66     -31.071 -12.043 -15.565  1.00 69.71 LIG 0.01  C 
ENDBRANCH 27 28
ENDBRANCH 6 27
ENDBRANCH 4 6
ENDBRANCH 1 2
BRANCH 1 31
ATOM     31  CB  PHE G  65     -24.617  -8.111 -15.033  1.00 81.70 LIG 0.07  C 
BRANCH 31 32
ATOM     32  CG  PHE G  65     -24.014  -7.552 -13.743  1.00 88.02 LIG-0.06  A 
ATOM     33  CD1 PHE G  65     -23.153  -6.428 -13.766  1.00 90.65 LIG 0.01  A 
ATOM     34  CE1 PHE G  65     -22.639  -5.889 -12.566  1.00 91.87 LIG 0.00  A 
ATOM     35  CZ  PHE G  65     -22.993  -6.448 -11.328  1.00 92.49 LIG 0.00  A 
ATOM     36  CE2 PHE G  65     -23.861  -7.536 -11.292  1.00 89.30 LIG 0.00  A 
ATOM     37  CD2 PHE G  65     -24.371  -8.076 -12.484  1.00 89.13 LIG 0.01  A 
ENDBRANCH 31 32
ENDBRANCH 1 31
BRANCH 1 38
ATOM     38  N   PHE G  65     -24.480 -10.476 -14.090  1.00 74.58 LIG-0.35  N 
ATOM     39  C   GLN G  64     -23.316 -10.917 -14.606  1.00 72.54 LIG 0.24  C 
ATOM     40 O    GLN G  64     -22.903 -10.578 -15.728  1.00 72.49 LIG-0.27  OA
ATOM     41 H    PHE G  65     -24.805 -10.732 -13.336  1.00 74.58 LIG 0.16  HD
BRANCH 39 42
ATOM     42  CA  GLN G  64     -22.422 -11.840 -13.750  1.00 69.04 LIG 0.18  C 
BRANCH 42 43
ATOM     43  CB  GLN G  64     -20.973 -11.357 -13.635  1.00 71.00 LIG 0.04  C 
BRANCH 43 44
ATOM     44  CG  GLN G  64     -20.684 -10.517 -12.412  1.00 72.96 LIG 0.10  C 
BRANCH 44 45
ATOM     45  CD  GLN G  64     -21.500 -10.897 -11.188  1.00 76.87 LIG 0.21  C 
ATOM     46 OE1  GLN G  64     -22.647 -10.464 -10.990  1.00 74.88 LIG-0.27  OA
ATOM     47  NE2 GLN G  64     -20.906 -11.745 -10.359  1.00 81.47 LIG-0.37  N 
ATOM     48 21HE GLN G  64     -20.110 -12.024 -10.528  1.00 81.47 LIG 0.16  HD
ATOM     49 22HE GLN G  64     -21.317 -12.015  -9.654  1.00 81.47 LIG 0.16  HD
ENDBRANCH 44 45
ENDBRANCH 43 44
ENDBRANCH 42 43
BRANCH 42 50
ATOM     50  N   GLN G  64     -22.452 -13.226 -14.132  1.00 68.17 LIG-0.35  N 
ATOM     51  C   LEU G  63     -22.189 -14.208 -13.265  1.00 67.58 LIG 0.24  C 
ATOM     52 O    LEU G  63     -22.026 -14.042 -12.034  1.00 63.10 LIG-0.27  OA
ATOM     53 H    GLN G  64     -22.653 -13.360 -14.958  1.00 68.17 LIG 0.16  HD
BRANCH 51 54
ATOM     54  CA  LEU G  63     -22.145 -15.600 -13.866  1.00 66.76 LIG 0.18  C 
BRANCH 54 55
ATOM     55  CB  LEU G  63     -23.533 -16.251 -13.736  1.00 69.31 LIG 0.04  C 
BRANCH 55 56
ATOM     56  CG  LEU G  63     -23.810 -17.264 -12.591  1.00 73.12 LIG-0.02  C 
ATOM     57  CD2 LEU G  63     -24.261 -18.660 -13.040  1.00 75.26 LIG 0.01  C 
ATOM     58  CD1 LEU G  63     -24.801 -16.743 -11.573  1.00 70.75 LIG 0.01  C 
ENDBRANCH 55 56
ENDBRANCH 54 55
BRANCH 54 59
ATOM     59  N   LEU G  63     -21.128 -16.386 -13.192  1.00 64.77 LIG-0.35  N 
ATOM     60  C   SER G  62     -19.801 -16.137 -13.268  1.00 63.11 LIG 0.26  C 
ATOM     61 O    SER G  62     -19.243 -15.344 -14.079  1.00 57.72 LIG-0.27  OA
ATOM     62 H    LEU G  63     -21.452 -17.036 -12.730  1.00 64.77 LIG 0.16  HD
BRANCH 60 63
ATOM     63  CA  SER G  62     -19.000 -16.942 -12.236  1.00 64.68 LIG 0.42  C 
ATOM     64  N   SER G  62     -17.527 -16.914 -12.494  1.00 67.72 LIG 0.62  N 
BRANCH 63 65
ATOM     65  CB  SER G  62     -19.372 -16.517 -10.803  1.00 62.74 LIG 0.21  C 
BRANCH 65 66
ATOM     66 OG   SER G  62     -20.547 -15.681 -10.787  1.00 60.63 LIG-0.40  OA
ATOM     67 HG   SER G  62     -20.406 -14.990 -11.245  1.00 60.63 LIG 0.21  HD
ENDBRANCH 65 66
ENDBRANCH 63 65
ENDBRANCH 60 63
ENDBRANCH 54 59
ENDBRANCH 51 54
ENDBRANCH 42 50
ENDBRANCH 39 42
ENDBRANCH 1 38
TORSDOF 28
ENDMDL
MODEL 9
USER: ADFR SOLUTION from run 178
USER: SCORE 19.898048 LL:  -6.191 LR: -15.799 RR:   0.000 FEB:  -7.447
USER: RMSD 6.644639
USER: SEED 177
USER: STATUS searching
USER: GENES 30
USER: genes 0 Translation |==|  0.48792 0.49997 0.69309
USER: genes 1 Rotation |==|  0.15367 0.56027 0.21766 0.71613
USER: genes 2 Torsion [N]-CA--C-[N] |==|  0.94548
USER: genes 3 Torsion [C]-N--CA-[C] |==|  0.15512
USER: genes 4 Torsion [N]-CA--C-[N] |==|  0.63502
USER: genes 5 Torsion [C]-N--CA-[C] |==|  0.59050
USER: genes 6 Torsion [N]-CA--C-[N] |==|  0.21533
USER: genes 7 Torsion [C]-N--CA-[CB] |==|  0.16801
USER: genes 8 Torsion [N]-CA--C-[O] |==|  0.21777
USER: genes 9 Torsion [N]-CA--CB-[CG] |==|  0.71997
USER: genes 10 Torsion [CA]-CB--CG-[OD2] |==|  0.83061
USER: genes 11 Torsion [N]-CA--CB-[CG] |==|  0.71591
USER: genes 12 Torsion [CA]-CB--CG-[CD2] |==|  0.28506
USER: genes 13 Torsion [N]-CA--CB-[CG] |==|  0.90673
USER: genes 14 Torsion [CA]-CB--CG-[CD1] |==|  0.29424
USER: genes 15 Torsion [C]-CA--CB-[CG] |==|  0.79856
USER: genes 16 Torsion [CA]-CB--CG-[CD1] |==|  0.21975
USER: genes 17 Torsion [C]-CA--N-[C] |==|  0.81493
USER: genes 18 Torsion [N]-C--CA-[N] |==|  0.48905
USER: genes 19 Torsion [C]-CA--CB-[CG] |==|  0.31696
USER: genes 20 Torsion [CA]-CB--CG-[CD] |==|  0.88536
USER: genes 21 Torsion [CB]-CG--CD-[NE2] |==|  0.22364
USER: genes 22 Torsion [C]-CA--N-[C] |==|  0.17943
USER: genes 23 Torsion [N]-C--CA-[N] |==|  0.97756
USER: genes 24 Torsion [C]-CA--CB-[CG] |==|  0.90152
USER: genes 25 Torsion [CA]-CB--CG-[CD2] |==|  0.81028
USER: genes 26 Torsion [C]-CA--N-[C] |==|  0.77542
USER: genes 27 Torsion [N]-C--CA-[N] |==|  0.51759
USER: genes 28 Torsion [C]-CA--CB-[OG] |==|  0.19693
USER: genes 29 Torsion [CA]-CB--OG-[HG] |==|  0.12721
ROOT
ATOM      1  CA  PHE G  65     -24.491  -9.746 -13.765  1.00 79.88 LIG 0.18  C 
ENDROOT
BRANCH 1 2
ATOM      2  C   PHE G  65     -24.581  -9.214 -15.234  1.00 81.88 LIG 0.24  C 
ATOM      3 O    PHE G  65     -25.677  -8.989 -15.783  1.00 83.91 LIG-0.27  OA
ATOM      4  N   LEU G  66     -23.434  -8.973 -15.850  1.00 80.12 LIG-0.35  N 
ATOM      5 H    LEU G  66     -22.663  -9.084 -15.484  1.00 80.12 LIG 0.16  HD
BRANCH 4 6
ATOM      6  CA  LEU G  66     -23.379  -8.486 -17.235  1.00 73.95 LIG 0.18  C 
BRANCH 6 7
ATOM      7  C   LEU G  66     -24.195  -7.181 -17.393  1.00 70.37 LIG 0.24  C 
ATOM      8 O    LEU G  66     -24.058  -6.224 -16.602  1.00 65.91 LIG-0.27  OA
ATOM      9  N   LEU G  67     -25.044  -7.153 -18.426  1.00 70.17 LIG-0.35  N 
ATOM     10 H    LEU G  67     -25.092  -7.773 -19.020  1.00 70.17 LIG 0.16  HD
BRANCH 9 11
ATOM     11  CA  LEU G  67     -25.979  -6.051 -18.637  1.00 68.48 LIG 0.18  C 
BRANCH 11 12
ATOM     12  C   LEU G  67     -27.265  -6.587 -19.284  1.00 69.74 LIG 0.24  C 
ATOM     13  N   ASP G  68     -28.129  -7.223 -18.469  1.00 68.02 LIG-0.35  N 
ATOM     14 H    ASP G  68     -27.884  -7.608 -17.740  1.00 68.02 LIG 0.16  HD
ATOM     15 O    LEU G  67     -27.461  -6.371 -20.482  1.00 68.13 LIG-0.27  OA
BRANCH 13 16
ATOM     16  CA  ASP G  68     -29.592  -7.335 -18.731  1.00 74.55 LIG 0.17  C 
BRANCH 16 17
ATOM     17  C   ASP G  68     -30.206  -8.165 -17.560  1.00 77.35 LIG 0.22  C 
ATOM     18 O    ASP G  68     -30.445  -7.694 -16.444  1.00 79.38 LIG-0.29  OA
ENDBRANCH 16 17
BRANCH 16 19
ATOM     19  CB  ASP G  68     -29.881  -8.073 -20.052  1.00 74.32 LIG 0.15  C 
BRANCH 19 20
ATOM     20  CG  ASP G  68     -30.233  -7.120 -21.236  1.00 79.04 LIG 0.17  C 
ATOM     21 OD1  ASP G  68     -29.486  -7.124 -22.269  1.00 79.61 LIG-0.65  OA
ATOM     22 OD2  ASP G  68     -31.246  -6.372 -21.155  1.00 79.33 LIG-0.65  OA
ENDBRANCH 19 20
ENDBRANCH 16 19
ENDBRANCH 13 16
ENDBRANCH 11 12
BRANCH 11 23
ATOM     23  CB  LEU G  67     -25.346  -4.909 -19.426  1.00 63.56 LIG 0.04  C 
BRANCH 23 24
ATOM     24  CG  LEU G  67     -24.963  -3.767 -18.476  1.00 66.22 LIG-0.02  C 
ATOM     25  CD2 LEU G  67     -23.459  -3.753 -18.188  1.00 64.35 LIG 0.01  C 
ATOM     26  CD1 LEU G  67     -25.832  -3.744 -17.177  1.00 61.82 LIG 0.01  C 
ENDBRANCH 23 24
ENDBRANCH 11 23
ENDBRANCH 9 11
ENDBRANCH 6 7
BRANCH 6 27
ATOM     27  CB  LEU G  66     -23.949  -9.571 -18.129  1.00 68.20 LIG 0.04  C 
BRANCH 27 28
ATOM     28  CG  LEU G  66     -23.793 -11.045 -17.850  1.00 70.51 LIG-0.02  C 
ATOM     29  CD1 LEU G  66     -25.043 -11.766 -17.339  1.00 68.17 LIG 0.01  C 
ATOM     30  CD2 LEU G  66     -23.317 -11.597 -19.194  1.00 69.71 LIG 0.01  C 
ENDBRANCH 27 28
ENDBRANCH 6 27
ENDBRANCH 4 6
ENDBRANCH 1 2
BRANCH 1 31
ATOM     31  CB  PHE G  65     -25.016  -8.667 -12.788  1.00 81.70 LIG 0.07  C 
BRANCH 31 32
ATOM     32  CG  PHE G  65     -24.053  -7.489 -12.632  1.00 88.02 LIG-0.06  A 
ATOM     33  CD1 PHE G  65     -23.984  -6.466 -13.608  1.00 90.65 LIG 0.01  A 
ATOM     34  CE1 PHE G  65     -23.127  -5.358 -13.433  1.00 91.87 LIG 0.00  A 
ATOM     35  CZ  PHE G  65     -22.345  -5.243 -12.273  1.00 92.49 LIG 0.00  A 
ATOM     36  CE2 PHE G  65     -22.425  -6.228 -11.293  1.00 89.30 LIG 0.00  A 
ATOM     37  CD2 PHE G  65     -23.275  -7.333 -11.467  1.00 89.13 LIG 0.01  A 
ENDBRANCH 31 32
ENDBRANCH 1 31
BRANCH 1 38
ATOM     38  N   PHE G  65     -23.188 -10.353 -13.352  1.00 74.58 LIG-0.35  N 
ATOM     39  C   GLN G  64     -22.758 -11.504 -13.904  1.00 72.54 LIG 0.24  C 
ATOM     40 O    GLN G  64     -23.430 -12.153 -14.723  1.00 72.49 LIG-0.27  OA
ATOM     41 H    PHE G  65     -22.759  -9.912 -12.751  1.00 74.58 LIG 0.16  HD
BRANCH 39 42
ATOM     42  CA  GLN G  64     -21.346 -12.020 -13.550  1.00 69.04 LIG 0.18  C 
BRANCH 42 43
ATOM     43  CB  GLN G  64     -20.233 -11.010 -13.842  1.00 71.00 LIG 0.04  C 
BRANCH 43 44
ATOM     44  CG  GLN G  64     -19.513 -10.494 -12.618  1.00 72.96 LIG 0.10  C 
BRANCH 44 45
ATOM     45  CD  GLN G  64     -20.424 -10.190 -11.440  1.00 76.87 LIG 0.21  C 
ATOM     46 OE1  GLN G  64     -20.822  -9.042 -11.183  1.00 74.88 LIG-0.27  OA
ATOM     47  NE2 GLN G  64     -20.784 -11.246 -10.722  1.00 81.47 LIG-0.37  N 
ATOM     48 21HE GLN G  64     -20.489 -12.027 -10.929  1.00 81.47 LIG 0.16  HD
ATOM     49 22HE GLN G  64     -21.312 -11.149 -10.051  1.00 81.47 LIG 0.16  HD
ENDBRANCH 44 45
ENDBRANCH 43 44
ENDBRANCH 42 43
BRANCH 42 50
ATOM     50  N   GLN G  64     -21.015 -13.299 -14.119  1.00 68.17 LIG-0.35  N 
ATOM     51  C   LEU G  63     -20.911 -13.484 -15.438  1.00 67.58 LIG 0.24  C 
ATOM     52 O    LEU G  63     -20.955 -12.566 -16.289  1.00 63.10 LIG-0.27  OA
ATOM     53 H    GLN G  64     -20.892 -13.921 -13.538  1.00 68.17 LIG 0.16  HD
BRANCH 51 54
ATOM     54  CA  LEU G  63     -20.677 -14.920 -15.867  1.00 66.76 LIG 0.18  C 
BRANCH 54 55
ATOM     55  CB  LEU G  63     -21.902 -15.419 -16.652  1.00 69.31 LIG 0.04  C 
BRANCH 55 56
ATOM     56  CG  LEU G  63     -23.327 -14.947 -16.250  1.00 73.12 LIG-0.02  C 
ATOM     57  CD2 LEU G  63     -23.838 -15.466 -14.900  1.00 75.26 LIG 0.01  C 
ATOM     58  CD1 LEU G  63     -24.366 -15.252 -17.307  1.00 70.75 LIG 0.01  C 
ENDBRANCH 55 56
ENDBRANCH 54 55
BRANCH 54 59
ATOM     59  N   LEU G  63     -20.431 -15.741 -14.695  1.00 64.77 LIG-0.35  N 
ATOM     60  C   SER G  62     -19.238 -15.824 -14.064  1.00 63.11 LIG 0.26  C 
ATOM     61 O    SER G  62     -18.137 -15.387 -14.503  1.00 57.72 LIG-0.27  OA
ATOM     62 H    LEU G  63     -21.126 -16.176 -14.434  1.00 64.77 LIG 0.16  HD
BRANCH 60 63
ATOM     63  CA  SER G  62     -19.350 -16.532 -12.706  1.00 64.68 LIG 0.42  C 
ATOM     64  N   SER G  62     -18.073 -16.499 -11.928  1.00 67.72 LIG 0.62  N 
BRANCH 63 65
ATOM     65  CB  SER G  62     -20.558 -16.001 -11.911  1.00 62.74 LIG 0.21  C 
BRANCH 65 66
ATOM     66 OG   SER G  62     -21.805 -16.434 -12.491  1.00 60.63 LIG-0.40  OA
ATOM     67 HG   SER G  62     -21.760 -17.254 -12.672  1.00 60.63 LIG 0.21  HD
ENDBRANCH 65 66
ENDBRANCH 63 65
ENDBRANCH 60 63
ENDBRANCH 54 59
ENDBRANCH 51 54
ENDBRANCH 42 50
ENDBRANCH 39 42
ENDBRANCH 1 38
TORSDOF 28
ENDMDL
MODEL 10
USER: ADFR SOLUTION from run 178
USER: SCORE 19.676777 LL:  -6.260 LR: -15.801 RR:   0.000 FEB:  -7.449
USER: RMSD 6.617717
USER: SEED 177
USER: STATUS searching
USER: GENES 30
USER: genes 0 Translation |==|  0.48712 0.49685 0.67274
USER: genes 1 Rotation |==|  0.17379 0.54041 0.18946 0.71335
USER: genes 2 Torsion [N]-CA--C-[N] |==|  0.90127
USER: genes 3 Torsion [C]-N--CA-[C] |==|  0.20064
USER: genes 4 Torsion [N]-CA--C-[N] |==|  0.42921
USER: genes 5 Torsion [C]-N--CA-[C] |==|  0.64146
USER: genes 6 Torsion [N]-CA--C-[N] |==|  0.14415
USER: genes 7 Torsion [C]-N--CA-[CB] |==|  0.58388
USER: genes 8 Torsion [N]-CA--C-[O] |==|  0.52798
USER: genes 9 Torsion [N]-CA--CB-[CG] |==|  0.24084
USER: genes 10 Torsion [CA]-CB--CG-[OD2] |==|  0.82898
USER: genes 11 Torsion [N]-CA--CB-[CG] |==|  0.75215
USER: genes 12 Torsion [CA]-CB--CG-[CD2] |==|  0.24623
USER: genes 13 Torsion [N]-CA--CB-[CG] |==|  0.77489
USER: genes 14 Torsion [CA]-CB--CG-[CD1] |==|  0.59545
USER: genes 15 Torsion [C]-CA--CB-[CG] |==|  0.77079
USER: genes 16 Torsion [CA]-CB--CG-[CD1] |==|  0.23463
USER: genes 17 Torsion [C]-CA--N-[C] |==|  0.83969
USER: genes 18 Torsion [N]-C--CA-[N] |==|  0.51117
USER: genes 19 Torsion [C]-CA--CB-[CG] |==|  0.24572
USER: genes 20 Torsion [CA]-CB--CG-[CD] |==|  0.02483
USER: genes 21 Torsion [CB]-CG--CD-[NE2] |==|  0.22858
USER: genes 22 Torsion [C]-CA--N-[C] |==|  0.16699
USER: genes 23 Torsion [N]-C--CA-[N] |==|  0.00343
USER: genes 24 Torsion [C]-CA--CB-[CG] |==|  0.90028
USER: genes 25 Torsion [CA]-CB--CG-[CD2] |==|  0.82960
USER: genes 26 Torsion [C]-CA--N-[C] |==|  0.73124
USER: genes 27 Torsion [N]-C--CA-[N] |==|  0.51153
USER: genes 28 Torsion [C]-CA--CB-[OG] |==|  0.24148
USER: genes 29 Torsion [CA]-CB--OG-[HG] |==|  0.18123
ROOT
ATOM      1  CA  PHE G  65     -24.506  -9.806 -14.162  1.00 79.88 LIG 0.18  C 
ENDROOT
BRANCH 1 2
ATOM      2  C   PHE G  65     -24.359  -9.322 -15.642  1.00 81.88 LIG 0.24  C 
ATOM      3 O    PHE G  65     -25.308  -9.383 -16.448  1.00 83.91 LIG-0.27  OA
ATOM      4  N   LEU G  66     -23.191  -8.802 -15.984  1.00 80.12 LIG-0.35  N 
ATOM      5 H    LEU G  66     -22.530  -8.713 -15.441  1.00 80.12 LIG 0.16  HD
BRANCH 4 6
ATOM      6  CA  LEU G  66     -22.918  -8.323 -17.347  1.00 73.95 LIG 0.18  C 
BRANCH 6 7
ATOM      7  C   LEU G  66     -23.680  -7.006 -17.631  1.00 70.37 LIG 0.24  C 
ATOM      8 O    LEU G  66     -24.729  -6.713 -17.021  1.00 65.91 LIG-0.27  OA
ATOM      9  N   LEU G  67     -23.137  -6.217 -18.565  1.00 70.17 LIG-0.35  N 
ATOM     10 H    LEU G  67     -22.377  -6.371 -18.936  1.00 70.17 LIG 0.16  HD
BRANCH 9 11
ATOM     11  CA  LEU G  67     -23.800  -5.006 -19.042  1.00 68.48 LIG 0.18  C 
BRANCH 11 12
ATOM     12  C   LEU G  67     -23.847  -5.020 -20.577  1.00 69.74 LIG 0.24  C 
ATOM     13  N   ASP G  68     -24.351  -6.127 -21.155  1.00 68.02 LIG-0.35  N 
ATOM     14 H    ASP G  68     -24.346  -6.896 -20.770  1.00 68.02 LIG 0.16  HD
ATOM     15 O    LEU G  67     -23.473  -4.018 -21.191  1.00 68.13 LIG-0.27  OA
BRANCH 13 16
ATOM     16  CA  ASP G  68     -24.969  -6.152 -22.511  1.00 74.55 LIG 0.17  C 
BRANCH 16 17
ATOM     17  C   ASP G  68     -25.631  -4.757 -22.739  1.00 77.35 LIG 0.22  C 
ATOM     18 O    ASP G  68     -26.382  -4.506 -23.687  1.00 79.38 LIG-0.29  OA
ENDBRANCH 16 17
BRANCH 16 19
ATOM     19  CB  ASP G  68     -26.061  -7.231 -22.623  1.00 74.32 LIG 0.15  C 
BRANCH 19 20
ATOM     20  CG  ASP G  68     -27.470  -6.746 -22.161  1.00 79.04 LIG 0.17  C 
ATOM     21 OD1  ASP G  68     -28.425  -6.745 -23.005  1.00 79.61 LIG-0.65  OA
ATOM     22 OD2  ASP G  68     -27.641  -6.372 -20.968  1.00 79.33 LIG-0.65  OA
ENDBRANCH 19 20
ENDBRANCH 16 19
ENDBRANCH 13 16
ENDBRANCH 11 12
BRANCH 11 23
ATOM     23  CB  LEU G  67     -23.159  -3.743 -18.477  1.00 63.56 LIG 0.04  C 
BRANCH 23 24
ATOM     24  CG  LEU G  67     -23.825  -3.370 -17.146  1.00 66.22 LIG-0.02  C 
ATOM     25  CD2 LEU G  67     -23.140  -4.055 -15.960  1.00 64.35 LIG 0.01  C 
ATOM     26  CD1 LEU G  67     -25.373  -3.587 -17.163  1.00 61.82 LIG 0.01  C 
ENDBRANCH 23 24
ENDBRANCH 11 23
ENDBRANCH 9 11
ENDBRANCH 6 7
BRANCH 6 27
ATOM     27  CB  LEU G  66     -23.361  -9.404 -18.313  1.00 68.20 LIG 0.04  C 
BRANCH 27 28
ATOM     28  CG  LEU G  66     -22.528 -10.617 -18.644  1.00 70.51 LIG-0.02  C 
ATOM     29  CD1 LEU G  66     -22.639 -11.135 -20.080  1.00 68.17 LIG 0.01  C 
ATOM     30  CD2 LEU G  66     -21.110 -10.157 -18.304  1.00 69.71 LIG 0.01  C 
ENDBRANCH 27 28
ENDBRANCH 6 27
ENDBRANCH 4 6
ENDBRANCH 1 2
BRANCH 1 31
ATOM     31  CB  PHE G  65     -25.164  -8.693 -13.312  1.00 81.70 LIG 0.07  C 
BRANCH 31 32
ATOM     32  CG  PHE G  65     -24.162  -7.638 -12.838  1.00 88.02 LIG-0.06  A 
ATOM     33  CD1 PHE G  65     -23.802  -6.549 -13.666  1.00 90.65 LIG 0.01  A 
ATOM     34  CE1 PHE G  65     -22.913  -5.554 -13.203  1.00 91.87 LIG 0.00  A 
ATOM     35  CZ  PHE G  65     -22.390  -5.620 -11.902  1.00 92.49 LIG 0.00  A 
ATOM     36  CE2 PHE G  65     -22.759  -6.672 -11.069  1.00 89.30 LIG 0.00  A 
ATOM     37  CD2 PHE G  65     -23.641  -7.665 -11.529  1.00 89.13 LIG 0.01  A 
ENDBRANCH 31 32
ENDBRANCH 1 31
BRANCH 1 38
ATOM     38  N   PHE G  65     -23.291 -10.410 -13.532  1.00 74.58 LIG-0.35  N 
ATOM     39  C   GLN G  64     -22.689 -11.482 -14.082  1.00 72.54 LIG 0.24  C 
ATOM     40 O    GLN G  64     -23.133 -12.064 -15.086  1.00 72.49 LIG-0.27  OA
ATOM     41 H    PHE G  65     -23.026 -10.019 -12.813  1.00 74.58 LIG 0.16  HD
BRANCH 39 42
ATOM     42  CA  GLN G  64     -21.360 -11.985 -13.478  1.00 69.04 LIG 0.18  C 
BRANCH 42 43
ATOM     43  CB  GLN G  64     -20.334 -10.873 -13.243  1.00 71.00 LIG 0.04  C 
BRANCH 43 44
ATOM     44  CG  GLN G  64     -20.436 -10.195 -11.895  1.00 72.96 LIG 0.10  C 
BRANCH 44 45
ATOM     45  CD  GLN G  64     -21.393 -10.871 -10.928  1.00 76.87 LIG 0.21  C 
ATOM     46 OE1  GLN G  64     -22.567 -10.495 -10.779  1.00 74.88 LIG-0.27  OA
ATOM     47  NE2 GLN G  64     -20.890 -11.909 -10.274  1.00 81.47 LIG-0.37  N 
ATOM     48 21HE GLN G  64     -20.072 -12.142 -10.402  1.00 81.47 LIG 0.16  HD
ATOM     49 22HE GLN G  64     -21.382 -12.349  -9.722  1.00 81.47 LIG 0.16  HD
ENDBRANCH 44 45
ENDBRANCH 43 44
ENDBRANCH 42 43
BRANCH 42 50
ATOM     50  N   GLN G  64     -20.752 -13.076 -14.189  1.00 68.17 LIG-0.35  N 
ATOM     51  C   LEU G  63     -20.382 -12.971 -15.469  1.00 67.58 LIG 0.24  C 
ATOM     52 O    LEU G  63     -20.398 -11.905 -16.127  1.00 63.10 LIG-0.27  OA
ATOM     53 H    GLN G  64     -20.652 -13.790 -13.721  1.00 68.17 LIG 0.16  HD
BRANCH 51 54
ATOM     54  CA  LEU G  63     -19.872 -14.254 -16.096  1.00 66.76 LIG 0.18  C 
BRANCH 54 55
ATOM     55  CB  LEU G  63     -20.712 -14.576 -17.344  1.00 69.31 LIG 0.04  C 
BRANCH 55 56
ATOM     56  CG  LEU G  63     -22.232 -14.258 -17.359  1.00 73.12 LIG-0.02  C 
ATOM     57  CD2 LEU G  63     -23.071 -14.989 -16.304  1.00 75.26 LIG 0.01  C 
ATOM     58  CD1 LEU G  63     -22.865 -14.481 -18.715  1.00 70.75 LIG 0.01  C 
ENDBRANCH 55 56
ENDBRANCH 54 55
BRANCH 54 59
ATOM     59  N   LEU G  63     -19.941 -15.329 -15.122  1.00 64.77 LIG-0.35  N 
ATOM     60  C   SER G  62     -18.898 -15.731 -14.361  1.00 63.11 LIG 0.26  C 
ATOM     61 O    SER G  62     -17.690 -15.395 -14.523  1.00 57.72 LIG-0.27  OA
ATOM     62 H    LEU G  63     -20.719 -15.692 -15.072  1.00 64.77 LIG 0.16  HD
BRANCH 60 63
ATOM     63  CA  SER G  62     -19.335 -16.678 -13.234  1.00 64.68 LIG 0.42  C 
ATOM     64  N   SER G  62     -18.209 -17.054 -12.323  1.00 67.72 LIG 0.62  N 
BRANCH 63 65
ATOM     65  CB  SER G  62     -20.556 -16.111 -12.487  1.00 62.74 LIG 0.21  C 
BRANCH 65 66
ATOM     66 OG   SER G  62     -21.791 -16.495 -13.124  1.00 60.63 LIG-0.40  OA
ATOM     67 HG   SER G  62     -21.887 -17.328 -13.071  1.00 60.63 LIG 0.21  HD
ENDBRANCH 65 66
ENDBRANCH 63 65
ENDBRANCH 60 63
ENDBRANCH 54 59
ENDBRANCH 51 54
ENDBRANCH 42 50
ENDBRANCH 39 42
ENDBRANCH 1 38
TORSDOF 28
ENDMDL
MODEL 11
USER: ADFR SOLUTION from run 195
USER: SCORE 20.813761 LL:  -6.159 LR: -15.794 RR:   0.000 FEB:  -7.442
USER: RMSD 6.950091
USER: SEED 194
USER: STATUS searching
USER: GENES 30
USER: genes 0 Translation |==|  0.47184 0.67412 0.58148
USER: genes 1 Rotation |==|  0.11838 0.73290 0.28019 0.54257
USER: genes 2 Torsion [N]-CA--C-[N] |==|  0.01679
USER: genes 3 Torsion [C]-N--CA-[C] |==|  0.68944
USER: genes 4 Torsion [N]-CA--C-[N] |==|  0.01551
USER: genes 5 Torsion [C]-N--CA-[C] |==|  0.78893
USER: genes 6 Torsion [N]-CA--C-[N] |==|  0.40628
USER: genes 7 Torsion [C]-N--CA-[CB] |==|  0.34376
USER: genes 8 Torsion [N]-CA--C-[O] |==|  0.22063
USER: genes 9 Torsion [N]-CA--CB-[CG] |==|  0.94460
USER: genes 10 Torsion [CA]-CB--CG-[OD2] |==|  0.18872
USER: genes 11 Torsion [N]-CA--CB-[CG] |==|  0.17785
USER: genes 12 Torsion [CA]-CB--CG-[CD2] |==|  0.68252
USER: genes 13 Torsion [N]-CA--CB-[CG] |==|  0.73591
USER: genes 14 Torsion [CA]-CB--CG-[CD1] |==|  0.84113
USER: genes 15 Torsion [C]-CA--CB-[CG] |==|  0.45562
USER: genes 16 Torsion [CA]-CB--CG-[CD1] |==|  0.96619
USER: genes 17 Torsion [C]-CA--N-[C] |==|  0.17423
USER: genes 18 Torsion [N]-C--CA-[N] |==|  0.88786
USER: genes 19 Torsion [C]-CA--CB-[CG] |==|  0.84386
USER: genes 20 Torsion [CA]-CB--CG-[CD] |==|  0.32990
USER: genes 21 Torsion [CB]-CG--CD-[NE2] |==|  0.37689
USER: genes 22 Torsion [C]-CA--N-[C] |==|  0.60798
USER: genes 23 Torsion [N]-C--CA-[N] |==|  0.40775
USER: genes 24 Torsion [C]-CA--CB-[CG] |==|  0.40188
USER: genes 25 Torsion [CA]-CB--CG-[CD2] |==|  0.20152
USER: genes 26 Torsion [C]-CA--N-[C] |==|  0.80561
USER: genes 27 Torsion [N]-C--CA-[N] |==|  0.91652
USER: genes 28 Torsion [C]-CA--CB-[OG] |==|  0.22878
USER: genes 29 Torsion [CA]-CB--OG-[HG] |==|  0.45569
ROOT
ATOM      1  CA  PHE G  65     -24.793  -6.350 -15.941  1.00 79.88 LIG 0.18  C 
ENDROOT
BRANCH 1 2
ATOM      2  C   PHE G  65     -25.394  -5.717 -17.240  1.00 81.88 LIG 0.24  C 
ATOM      3 O    PHE G  65     -25.743  -4.521 -17.284  1.00 83.91 LIG-0.27  OA
ATOM      4  N   LEU G  66     -25.472  -6.501 -18.303  1.00 80.12 LIG-0.35  N 
ATOM      5 H    LEU G  66     -25.205  -7.319 -18.313  1.00 80.12 LIG 0.16  HD
BRANCH 4 6
ATOM      6  CA  LEU G  66     -26.030  -6.034 -19.580  1.00 73.95 LIG 0.18  C 
BRANCH 6 7
ATOM      7  C   LEU G  66     -27.370  -6.745 -19.888  1.00 70.37 LIG 0.24  C 
ATOM      8 O    LEU G  66     -27.966  -6.575 -20.973  1.00 65.91 LIG-0.27  OA
ATOM      9  N   LEU G  67     -27.834  -7.544 -18.921  1.00 70.17 LIG-0.35  N 
ATOM     10 H    LEU G  67     -27.397  -7.727 -18.204  1.00 70.17 LIG 0.16  HD
BRANCH 9 11
ATOM     11  CA  LEU G  67     -29.145  -8.182 -19.001  1.00 68.48 LIG 0.18  C 
BRANCH 11 12
ATOM     12  C   LEU G  67     -30.238  -7.145 -18.703  1.00 69.74 LIG 0.24  C 
ATOM     13  N   ASP G  68     -31.403  -7.291 -19.364  1.00 68.02 LIG-0.35  N 
ATOM     14 H    ASP G  68     -31.461  -7.694 -20.122  1.00 68.02 LIG 0.16  HD
ATOM     15 O    LEU G  67     -30.018  -6.277 -17.855  1.00 68.13 LIG-0.27  OA
BRANCH 13 16
ATOM     16  CA  ASP G  68     -32.712  -6.777 -18.869  1.00 74.55 LIG 0.17  C 
BRANCH 16 17
ATOM     17  C   ASP G  68     -33.640  -8.013 -18.656  1.00 77.35 LIG 0.22  C 
ATOM     18 O    ASP G  68     -33.577  -8.750 -17.666  1.00 79.38 LIG-0.29  OA
ENDBRANCH 16 17
BRANCH 16 19
ATOM     19  CB  ASP G  68     -33.381  -5.838 -19.890  1.00 74.32 LIG 0.15  C 
BRANCH 19 20
ATOM     20  CG  ASP G  68     -32.391  -5.246 -20.940  1.00 79.04 LIG 0.17  C 
ATOM     21 OD1  ASP G  68     -32.133  -3.999 -20.905  1.00 79.61 LIG-0.65  OA
ATOM     22 OD2  ASP G  68     -31.861  -6.008 -21.795  1.00 79.33 LIG-0.65  OA
ENDBRANCH 19 20
ENDBRANCH 16 19
ENDBRANCH 13 16
ENDBRANCH 11 12
BRANCH 11 23
ATOM     23  CB  LEU G  67     -29.235  -9.416 -18.108  1.00 63.56 LIG 0.04  C 
BRANCH 23 24
ATOM     24  CG  LEU G  67     -29.090  -9.006 -16.637  1.00 66.22 LIG-0.02  C 
ATOM     25  CD2 LEU G  67     -27.807  -9.571 -16.018  1.00 64.35 LIG 0.01  C 
ATOM     26  CD1 LEU G  67     -30.365  -9.325 -15.791  1.00 61.82 LIG 0.01  C 
ENDBRANCH 23 24
ENDBRANCH 11 23
ENDBRANCH 9 11
ENDBRANCH 6 7
BRANCH 6 27
ATOM     27  CB  LEU G  66     -25.015  -6.335 -20.666  1.00 68.20 LIG 0.04  C 
BRANCH 27 28
ATOM     28  CG  LEU G  66     -24.000  -5.333 -21.156  1.00 70.51 LIG-0.02  C 
ATOM     29  CD1 LEU G  66     -24.566  -4.017 -21.696  1.00 68.17 LIG 0.01  C 
ATOM     30  CD2 LEU G  66     -23.113  -5.120 -19.930  1.00 69.71 LIG 0.01  C 
ENDBRANCH 27 28
ENDBRANCH 6 27
ENDBRANCH 4 6
ENDBRANCH 1 2
BRANCH 1 31
ATOM     31  CB  PHE G  65     -23.825  -5.346 -15.272  1.00 81.70 LIG 0.07  C 
BRANCH 31 32
ATOM     32  CG  PHE G  65     -23.498  -5.712 -13.823  1.00 88.02 LIG-0.06  A 
ATOM     33  CD1 PHE G  65     -24.239  -6.702 -13.134  1.00 90.65 LIG 0.01  A 
ATOM     34  CE1 PHE G  65     -23.900  -7.068 -11.813  1.00 91.87 LIG 0.00  A 
ATOM     35  CZ  PHE G  65     -22.806  -6.469 -11.170  1.00 92.49 LIG 0.00  A 
ATOM     36  CE2 PHE G  65     -22.053  -5.514 -11.846  1.00 89.30 LIG 0.00  A 
ATOM     37  CD2 PHE G  65     -22.390  -5.146 -13.160  1.00 89.13 LIG 0.01  A 
ENDBRANCH 31 32
ENDBRANCH 1 31
BRANCH 1 38
ATOM     38  N   PHE G  65     -24.238  -7.733 -16.068  1.00 74.58 LIG-0.35  N 
ATOM     39  C   GLN G  64     -23.190  -7.984 -16.876  1.00 72.54 LIG 0.24  C 
ATOM     40 O    GLN G  64     -22.672  -7.118 -17.599  1.00 72.49 LIG-0.27  OA
ATOM     41 H    PHE G  65     -24.639  -8.327 -15.592  1.00 74.58 LIG 0.16  HD
BRANCH 39 42
ATOM     42  CA  GLN G  64     -22.563  -9.396 -16.869  1.00 69.04 LIG 0.18  C 
BRANCH 42 43
ATOM     43  CB  GLN G  64     -23.235 -10.370 -17.841  1.00 71.00 LIG 0.04  C 
BRANCH 43 44
ATOM     44  CG  GLN G  64     -24.723 -10.540 -17.636  1.00 72.96 LIG 0.10  C 
BRANCH 44 45
ATOM     45  CD  GLN G  64     -25.568 -10.127 -18.829  1.00 76.87 LIG 0.21  C 
ATOM     46 OE1  GLN G  64     -25.344  -9.093 -19.479  1.00 74.88 LIG-0.27  OA
ATOM     47  NE2 GLN G  64     -26.546 -10.967 -19.142  1.00 81.47 LIG-0.37  N 
ATOM     48 21HE GLN G  64     -26.672 -11.675 -18.670  1.00 81.47 LIG 0.16  HD
ATOM     49 22HE GLN G  64     -27.053 -10.804 -19.817  1.00 81.47 LIG 0.16  HD
ENDBRANCH 44 45
ENDBRANCH 43 44
ENDBRANCH 42 43
BRANCH 42 50
ATOM     50  N   GLN G  64     -22.450  -9.995 -15.567  1.00 68.17 LIG-0.35  N 
ATOM     51  C   LEU G  63     -21.388 -10.722 -15.209  1.00 67.58 LIG 0.24  C 
ATOM     52 O    LEU G  63     -20.348 -10.844 -15.896  1.00 63.10 LIG-0.27  OA
ATOM     53 H    GLN G  64     -23.121  -9.844 -15.050  1.00 68.17 LIG 0.16  HD
BRANCH 51 54
ATOM     54  CA  LEU G  63     -21.490 -11.380 -13.847  1.00 66.76 LIG 0.18  C 
BRANCH 54 55
ATOM     55  CB  LEU G  63     -20.902 -10.437 -12.784  1.00 69.31 LIG 0.04  C 
BRANCH 55 56
ATOM     56  CG  LEU G  63     -21.531 -10.378 -11.364  1.00 73.12 LIG-0.02  C 
ATOM     57  CD2 LEU G  63     -21.265 -11.598 -10.473  1.00 75.26 LIG 0.01  C 
ATOM     58  CD1 LEU G  63     -23.021 -10.120 -11.394  1.00 70.75 LIG 0.01  C 
ENDBRANCH 55 56
ENDBRANCH 54 55
BRANCH 54 59
ATOM     59  N   LEU G  63     -20.790 -12.652 -13.870  1.00 64.77 LIG-0.35  N 
ATOM     60  C   SER G  62     -21.217 -13.741 -14.549  1.00 63.11 LIG 0.26  C 
ATOM     61 O    SER G  62     -22.357 -13.885 -15.075  1.00 57.72 LIG-0.27  OA
ATOM     62 H    LEU G  63     -20.067 -12.649 -13.405  1.00 64.77 LIG 0.16  HD
BRANCH 60 63
ATOM     63  CA  SER G  62     -20.141 -14.834 -14.625  1.00 64.68 LIG 0.42  C 
ATOM     64  N   SER G  62     -18.751 -14.282 -14.618  1.00 67.72 LIG 0.62  N 
BRANCH 63 65
ATOM     65  CB  SER G  62     -20.374 -15.905 -13.543  1.00 62.74 LIG 0.21  C 
BRANCH 65 66
ATOM     66 OG   SER G  62     -21.357 -16.874 -13.960  1.00 60.63 LIG-0.40  OA
ATOM     67 HG   SER G  62     -21.310 -17.552 -13.466  1.00 60.63 LIG 0.21  HD
ENDBRANCH 65 66
ENDBRANCH 63 65
ENDBRANCH 60 63
ENDBRANCH 54 59
ENDBRANCH 51 54
ENDBRANCH 42 50
ENDBRANCH 39 42
ENDBRANCH 1 38
TORSDOF 28
ENDMDL
MODEL 12
USER: ADFR SOLUTION from run 169
USER: SCORE 21.471491 LL:  -6.097 LR: -15.710 RR:   0.000 FEB:  -7.358
USER: RMSD 6.948545
USER: SEED 168
USER: STATUS no improvement in best in 3 clusters for 5 generations
USER: GENES 30
USER: genes 0 Translation |==|  0.48853 0.59212 0.57112
USER: genes 1 Rotation |==|  0.86496 0.43473 0.75221 0.72122
USER: genes 2 Torsion [N]-CA--C-[N] |==|  0.48652
USER: genes 3 Torsion [C]-N--CA-[C] |==|  0.16432
USER: genes 4 Torsion [N]-CA--C-[N] |==|  0.10272
USER: genes 5 Torsion [C]-N--CA-[C] |==|  0.73688
USER: genes 6 Torsion [N]-CA--C-[N] |==|  0.01575
USER: genes 7 Torsion [C]-N--CA-[CB] |==|  0.40560
USER: genes 8 Torsion [N]-CA--C-[O] |==|  0.08548
USER: genes 9 Torsion [N]-CA--CB-[CG] |==|  0.24105
USER: genes 10 Torsion [CA]-CB--CG-[OD2] |==|  0.36395
USER: genes 11 Torsion [N]-CA--CB-[CG] |==|  0.85198
USER: genes 12 Torsion [CA]-CB--CG-[CD2] |==|  0.86102
USER: genes 13 Torsion [N]-CA--CB-[CG] |==|  0.82579
USER: genes 14 Torsion [CA]-CB--CG-[CD1] |==|  0.25347
USER: genes 15 Torsion [C]-CA--CB-[CG] |==|  0.29672
USER: genes 16 Torsion [CA]-CB--CG-[CD1] |==|  0.77503
USER: genes 17 Torsion [C]-CA--N-[C] |==|  0.76667
USER: genes 18 Torsion [N]-C--CA-[N] |==|  0.90785
USER: genes 19 Torsion [C]-CA--CB-[CG] |==|  0.88457
USER: genes 20 Torsion [CA]-CB--CG-[CD] |==|  0.27067
USER: genes 21 Torsion [CB]-CG--CD-[NE2] |==|  0.40140
USER: genes 22 Torsion [C]-CA--N-[C] |==|  0.84605
USER: genes 23 Torsion [N]-C--CA-[N] |==|  0.97594
USER: genes 24 Torsion [C]-CA--CB-[CG] |==|  0.57225
USER: genes 25 Torsion [CA]-CB--CG-[CD2] |==|  0.65282
USER: genes 26 Torsion [C]-CA--N-[C] |==|  0.80437
USER: genes 27 Torsion [N]-C--CA-[N] |==|  0.34893
USER: genes 28 Torsion [C]-CA--CB-[OG] |==|  0.25156
USER: genes 29 Torsion [CA]-CB--OG-[HG] |==|  0.03109
ROOT
ATOM      1  CA  PHE G  65     -24.480  -7.949 -16.143  1.00 79.88 LIG 0.18  C 
ENDROOT
BRANCH 1 2
ATOM      2  C   PHE G  65     -25.482  -8.838 -16.951  1.00 81.88 LIG 0.24  C 
ATOM      3 O    PHE G  65     -25.611 -10.056 -16.717  1.00 83.91 LIG-0.27  OA
ATOM      4  N   LEU G  66     -26.220  -8.225 -17.864  1.00 80.12 LIG-0.35  N 
ATOM      5 H    LEU G  66     -26.179  -7.381 -18.021  1.00 80.12 LIG 0.16  HD
BRANCH 4 6
ATOM      6  CA  LEU G  66     -27.187  -8.948 -18.701  1.00 73.95 LIG 0.18  C 
BRANCH 6 7
ATOM      7  C   LEU G  66     -28.253  -9.653 -17.827  1.00 70.37 LIG 0.24  C 
ATOM      8 O    LEU G  66     -28.711 -10.774 -18.131  1.00 65.91 LIG-0.27  OA
ATOM      9  N   LEU G  67     -28.640  -8.981 -16.737  1.00 70.17 LIG-0.35  N 
ATOM     10 H    LEU G  67     -28.278  -8.246 -16.477  1.00 70.17 LIG 0.16  HD
BRANCH 9 11
ATOM     11  CA  LEU G  67     -29.728  -9.446 -15.881  1.00 68.48 LIG 0.18  C 
BRANCH 11 12
ATOM     12  C   LEU G  67     -31.039  -8.768 -16.306  1.00 69.74 LIG 0.24  C 
ATOM     13  N   ASP G  68     -30.989  -7.999 -17.411  1.00 68.02 LIG-0.35  N 
ATOM     14 H    ASP G  68     -30.264  -7.627 -17.686  1.00 68.02 LIG 0.16  HD
ATOM     15 O    LEU G  67     -32.063  -8.994 -15.657  1.00 68.13 LIG-0.27  OA
BRANCH 13 16
ATOM     16  CA  ASP G  68     -32.166  -7.705 -18.276  1.00 74.55 LIG 0.17  C 
BRANCH 16 17
ATOM     17  C   ASP G  68     -32.144  -8.736 -19.448  1.00 77.35 LIG 0.22  C 
ATOM     18 O    ASP G  68     -31.692  -9.880 -19.340  1.00 79.38 LIG-0.29  OA
ENDBRANCH 16 17
BRANCH 16 19
ATOM     19  CB  ASP G  68     -32.097  -6.289 -18.875  1.00 74.32 LIG 0.15  C 
BRANCH 19 20
ATOM     20  CG  ASP G  68     -31.296  -6.213 -20.212  1.00 79.04 LIG 0.17  C 
ATOM     21 OD1  ASP G  68     -30.147  -6.760 -20.271  1.00 79.61 LIG-0.65  OA
ATOM     22 OD2  ASP G  68     -31.798  -5.620 -21.207  1.00 79.33 LIG-0.65  OA
ENDBRANCH 19 20
ENDBRANCH 16 19
ENDBRANCH 13 16
ENDBRANCH 11 12
BRANCH 11 23
ATOM     23  CB  LEU G  67     -29.412  -9.256 -14.400  1.00 63.56 LIG 0.04  C 
BRANCH 23 24
ATOM     24  CG  LEU G  67     -28.062  -9.905 -14.068  1.00 66.22 LIG-0.02  C 
ATOM     25  CD2 LEU G  67     -27.984 -11.344 -14.589  1.00 64.35 LIG 0.01  C 
ATOM     26  CD1 LEU G  67     -27.690  -9.784 -12.555  1.00 61.82 LIG 0.01  C 
ENDBRANCH 23 24
ENDBRANCH 11 23
ENDBRANCH 9 11
ENDBRANCH 6 7
BRANCH 6 27
ATOM     27  CB  LEU G  66     -26.420  -9.971 -19.516  1.00 68.20 LIG 0.04  C 
BRANCH 27 28
ATOM     28  CG  LEU G  66     -25.367  -9.603 -20.532  1.00 70.51 LIG-0.02  C 
ATOM     29  CD1 LEU G  66     -23.930  -9.526 -20.009  1.00 68.17 LIG 0.01  C 
ATOM     30  CD2 LEU G  66     -25.535 -10.682 -21.601  1.00 69.71 LIG 0.01  C 
ENDBRANCH 27 28
ENDBRANCH 6 27
ENDBRANCH 4 6
ENDBRANCH 1 2
BRANCH 1 31
ATOM     31  CB  PHE G  65     -23.577  -7.160 -17.121  1.00 81.70 LIG 0.07  C 
BRANCH 31 32
ATOM     32  CG  PHE G  65     -23.931  -5.673 -17.188  1.00 88.02 LIG-0.06  A 
ATOM     33  CD1 PHE G  65     -25.008  -5.213 -17.983  1.00 90.65 LIG 0.01  A 
ATOM     34  CE1 PHE G  65     -25.358  -3.845 -18.001  1.00 91.87 LIG 0.00  A 
ATOM     35  CZ  PHE G  65     -24.654  -2.922 -17.211  1.00 92.49 LIG 0.00  A 
ATOM     36  CE2 PHE G  65     -23.610  -3.367 -16.405  1.00 89.30 LIG 0.00  A 
ATOM     37  CD2 PHE G  65     -23.259  -4.728 -16.387  1.00 89.13 LIG 0.01  A 
ENDBRANCH 31 32
ENDBRANCH 1 31
BRANCH 1 38
ATOM     38  N   PHE G  65     -23.731  -8.622 -15.038  1.00 74.58 LIG-0.35  N 
ATOM     39  C   GLN G  64     -24.281  -8.761 -13.816  1.00 72.54 LIG 0.24  C 
ATOM     40 O    GLN G  64     -25.392  -8.292 -13.518  1.00 72.49 LIG-0.27  OA
ATOM     41 H    PHE G  65     -22.945  -8.901 -15.251  1.00 74.58 LIG 0.16  HD
BRANCH 39 42
ATOM     42  CA  GLN G  64     -23.529  -9.584 -12.747  1.00 69.04 LIG 0.18  C 
BRANCH 42 43
ATOM     43  CB  GLN G  64     -22.655  -8.733 -11.820  1.00 71.00 LIG 0.04  C 
BRANCH 43 44
ATOM     44  CG  GLN G  64     -21.883  -7.635 -12.514  1.00 72.96 LIG 0.10  C 
BRANCH 44 45
ATOM     45  CD  GLN G  64     -22.544  -6.268 -12.446  1.00 76.87 LIG 0.21  C 
ATOM     46 OE1  GLN G  64     -23.777  -6.123 -12.463  1.00 74.88 LIG-0.27  OA
ATOM     47  NE2 GLN G  64     -21.708  -5.245 -12.339  1.00 81.47 LIG-0.37  N 
ATOM     48 21HE GLN G  64     -20.859  -5.382 -12.330  1.00 81.47 LIG 0.16  HD
ATOM     49 22HE GLN G  64     -22.015  -4.444 -12.279  1.00 81.47 LIG 0.16  HD
ENDBRANCH 44 45
ENDBRANCH 43 44
ENDBRANCH 42 43
BRANCH 42 50
ATOM     50  N   GLN G  64     -22.769 -10.688 -13.266  1.00 68.17 LIG-0.35  N 
ATOM     51  C   LEU G  63     -23.324 -11.639 -14.023  1.00 67.58 LIG 0.24  C 
ATOM     52 O    LEU G  63     -24.497 -11.602 -14.462  1.00 63.10 LIG-0.27  OA
ATOM     53 H    GLN G  64     -21.937 -10.678 -13.047  1.00 68.17 LIG 0.16  HD
BRANCH 51 54
ATOM     54  CA  LEU G  63     -22.406 -12.792 -14.381  1.00 66.76 LIG 0.18  C 
BRANCH 54 55
ATOM     55  CB  LEU G  63     -22.914 -14.074 -13.699  1.00 69.31 LIG 0.04  C 
BRANCH 55 56
ATOM     56  CG  LEU G  63     -21.922 -15.224 -13.371  1.00 73.12 LIG-0.02  C 
ATOM     57  CD2 LEU G  63     -22.294 -16.599 -13.938  1.00 75.26 LIG 0.01  C 
ATOM     58  CD1 LEU G  63     -21.662 -15.370 -11.887  1.00 70.75 LIG 0.01  C 
ENDBRANCH 55 56
ENDBRANCH 54 55
BRANCH 54 59
ATOM     59  N   LEU G  63     -21.050 -12.476 -13.968  1.00 64.77 LIG-0.35  N 
ATOM     60  C   SER G  62     -20.274 -11.541 -14.561  1.00 63.11 LIG 0.26  C 
ATOM     61 O    SER G  62     -20.517 -10.968 -15.661  1.00 57.72 LIG-0.27  OA
ATOM     62 H    LEU G  63     -20.781 -12.946 -13.299  1.00 64.77 LIG 0.16  HD
BRANCH 60 63
ATOM     63  CA  SER G  62     -19.015 -11.227 -13.740  1.00 64.68 LIG 0.42  C 
ATOM     64  N   SER G  62     -17.755 -11.383 -14.530  1.00 67.72 LIG 0.62  N 
BRANCH 63 65
ATOM     65  CB  SER G  62     -19.137  -9.853 -13.056  1.00 62.74 LIG 0.21  C 
BRANCH 65 66
ATOM     66 OG   SER G  62     -19.721  -9.965 -11.743  1.00 60.63 LIG-0.40  OA
ATOM     67 HG   SER G  62     -19.753 -10.774 -11.518  1.00 60.63 LIG 0.21  HD
ENDBRANCH 65 66
ENDBRANCH 63 65
ENDBRANCH 60 63
ENDBRANCH 54 59
ENDBRANCH 51 54
ENDBRANCH 42 50
ENDBRANCH 39 42
ENDBRANCH 1 38
TORSDOF 28
ENDMDL
MODEL 13
USER: ADFR SOLUTION from run 120
USER: SCORE 22.105218 LL:  -6.560 LR: -15.678 RR:   0.000 FEB:  -7.325
USER: RMSD 6.430771
USER: SEED 119
USER: STATUS no improvement in best in 4 clusters for 5 generations
USER: GENES 30
USER: genes 0 Translation |==|  0.49389 0.59717 0.57382
USER: genes 1 Rotation |==|  0.86598 0.43613 0.78115 0.68149
USER: genes 2 Torsion [N]-CA--C-[N] |==|  0.01634
USER: genes 3 Torsion [C]-N--CA-[C] |==|  0.80586
USER: genes 4 Torsion [N]-CA--C-[N] |==|  0.95680
USER: genes 5 Torsion [C]-N--CA-[C] |==|  0.77741
USER: genes 6 Torsion [N]-CA--C-[N] |==|  0.99932
USER: genes 7 Torsion [C]-N--CA-[CB] |==|  0.58986
USER: genes 8 Torsion [N]-CA--C-[O] |==|  0.37528
USER: genes 9 Torsion [N]-CA--CB-[CG] |==|  0.51068
USER: genes 10 Torsion [CA]-CB--CG-[OD2] |==|  0.77732
USER: genes 11 Torsion [N]-CA--CB-[CG] |==|  0.87525
USER: genes 12 Torsion [CA]-CB--CG-[CD2] |==|  0.25134
USER: genes 13 Torsion [N]-CA--CB-[CG] |==|  0.28074
USER: genes 14 Torsion [CA]-CB--CG-[CD1] |==|  0.22418
USER: genes 15 Torsion [C]-CA--CB-[CG] |==|  0.27179
USER: genes 16 Torsion [CA]-CB--CG-[CD1] |==|  0.34174
USER: genes 17 Torsion [C]-CA--N-[C] |==|  0.74682
USER: genes 18 Torsion [N]-C--CA-[N] |==|  0.90055
USER: genes 19 Torsion [C]-CA--CB-[CG] |==|  0.88039
USER: genes 20 Torsion [CA]-CB--CG-[CD] |==|  0.26746
USER: genes 21 Torsion [CB]-CG--CD-[NE2] |==|  0.40710
USER: genes 22 Torsion [C]-CA--N-[C] |==|  0.84960
USER: genes 23 Torsion [N]-C--CA-[N] |==|  0.96938
USER: genes 24 Torsion [C]-CA--CB-[CG] |==|  0.60448
USER: genes 25 Torsion [CA]-CB--CG-[CD2] |==|  0.75438
USER: genes 26 Torsion [C]-CA--N-[C] |==|  0.80504
USER: genes 27 Torsion [N]-C--CA-[N] |==|  0.35016
USER: genes 28 Torsion [C]-CA--CB-[OG] |==|  0.24055
USER: genes 29 Torsion [CA]-CB--OG-[HG] |==|  0.06828
ROOT
ATOM      1  CA  PHE G  65     -24.380  -7.850 -16.091  1.00 79.88 LIG 0.18  C 
ENDROOT
BRANCH 1 2
ATOM      2  C   PHE G  65     -25.167  -8.772 -17.080  1.00 81.88 LIG 0.24  C 
ATOM      3 O    PHE G  65     -25.684  -8.323 -18.122  1.00 83.91 LIG-0.27  OA
ATOM      4  N   LEU G  66     -25.219 -10.060 -16.780  1.00 80.12 LIG-0.35  N 
ATOM      5 H    LEU G  66     -24.841 -10.404 -16.088  1.00 80.12 LIG 0.16  HD
BRANCH 4 6
ATOM      6  CA  LEU G  66     -25.939 -11.029 -17.617  1.00 73.95 LIG 0.18  C 
BRANCH 6 7
ATOM      7  C   LEU G  66     -27.468 -10.813 -17.519  1.00 70.37 LIG 0.24  C 
ATOM      8 O    LEU G  66     -28.255 -11.319 -18.347  1.00 65.91 LIG-0.27  OA
ATOM      9  N   LEU G  67     -27.879 -10.056 -16.496  1.00 70.17 LIG-0.35  N 
ATOM     10 H    LEU G  67     -27.355  -9.767 -15.877  1.00 70.17 LIG 0.16  HD
BRANCH 9 11
ATOM     11  CA  LEU G  67     -29.273  -9.649 -16.337  1.00 68.48 LIG 0.18  C 
BRANCH 11 12
ATOM     12  C   LEU G  67     -29.564  -8.454 -17.257  1.00 69.74 LIG 0.24  C 
ATOM     13  N   ASP G  68     -28.538  -8.006 -18.006  1.00 68.02 LIG-0.35  N 
ATOM     14 H    ASP G  68     -27.715  -8.121 -17.785  1.00 68.02 LIG 0.16  HD
ATOM     15 O    LEU G  67     -30.711  -8.003 -17.298  1.00 68.13 LIG-0.27  OA
BRANCH 13 16
ATOM     16  CA  ASP G  68     -28.705  -7.269 -19.291  1.00 74.55 LIG 0.17  C 
BRANCH 16 17
ATOM     17  C   ASP G  68     -30.042  -7.758 -19.931  1.00 77.35 LIG 0.22  C 
ATOM     18 O    ASP G  68     -30.878  -6.997 -20.427  1.00 79.38 LIG-0.29  OA
ENDBRANCH 16 17
BRANCH 16 19
ATOM     19  CB  ASP G  68     -27.559  -7.568 -20.275  1.00 74.32 LIG 0.15  C 
BRANCH 19 20
ATOM     20  CG  ASP G  68     -27.640  -6.745 -21.599  1.00 79.04 LIG 0.17  C 
ATOM     21 OD1  ASP G  68     -26.906  -5.711 -21.724  1.00 79.61 LIG-0.65  OA
ATOM     22 OD2  ASP G  68     -28.421  -7.118 -22.518  1.00 79.33 LIG-0.65  OA
ENDBRANCH 19 20
ENDBRANCH 16 19
ENDBRANCH 13 16
ENDBRANCH 11 12
BRANCH 11 23
ATOM     23  CB  LEU G  67     -29.627  -9.379 -14.878  1.00 63.56 LIG 0.04  C 
BRANCH 23 24
ATOM     24  CG  LEU G  67     -29.063 -10.495 -13.989  1.00 66.22 LIG-0.02  C 
ATOM     25  CD2 LEU G  67     -27.651 -10.165 -13.495  1.00 64.35 LIG 0.01  C 
ATOM     26  CD1 LEU G  67     -29.160 -11.906 -14.655  1.00 61.82 LIG 0.01  C 
ENDBRANCH 23 24
ENDBRANCH 11 23
ENDBRANCH 9 11
ENDBRANCH 6 7
BRANCH 6 27
ATOM     27  CB  LEU G  66     -25.575 -12.419 -17.133  1.00 68.20 LIG 0.04  C 
BRANCH 27 28
ATOM     28  CG  LEU G  66     -26.469 -13.253 -16.249  1.00 70.51 LIG-0.02  C 
ATOM     29  CD1 LEU G  66     -27.605 -13.996 -16.956  1.00 68.17 LIG 0.01  C 
ATOM     30  CD2 LEU G  66     -25.485 -14.208 -15.574  1.00 69.71 LIG 0.01  C 
ENDBRANCH 27 28
ENDBRANCH 6 27
ENDBRANCH 4 6
ENDBRANCH 1 2
BRANCH 1 31
ATOM     31  CB  PHE G  65     -23.509  -6.851 -16.889  1.00 81.70 LIG 0.07  C 
BRANCH 31 32
ATOM     32  CG  PHE G  65     -24.168  -5.479 -17.041  1.00 88.02 LIG-0.06  A 
ATOM     33  CD1 PHE G  65     -23.519  -4.303 -16.593  1.00 90.65 LIG 0.01  A 
ATOM     34  CE1 PHE G  65     -24.114  -3.036 -16.780  1.00 91.87 LIG 0.00  A 
ATOM     35  CZ  PHE G  65     -25.350  -2.922 -17.435  1.00 92.49 LIG 0.00  A 
ATOM     36  CE2 PHE G  65     -25.984  -4.069 -17.904  1.00 89.30 LIG 0.00  A 
ATOM     37  CD2 PHE G  65     -25.396  -5.331 -17.717  1.00 89.13 LIG 0.01  A 
ENDBRANCH 31 32
ENDBRANCH 1 31
BRANCH 1 38
ATOM     38  N   PHE G  65     -23.649  -8.534 -14.978  1.00 74.58 LIG-0.35  N 
ATOM     39  C   GLN G  64     -24.245  -8.744 -13.788  1.00 72.54 LIG 0.24  C 
ATOM     40 O    GLN G  64     -25.388  -8.335 -13.524  1.00 72.49 LIG-0.27  OA
ATOM     41 H    PHE G  65     -22.844  -8.770 -15.167  1.00 74.58 LIG 0.16  HD
BRANCH 39 42
ATOM     42  CA  GLN G  64     -23.505  -9.575 -12.719  1.00 69.04 LIG 0.18  C 
BRANCH 42 43
ATOM     43  CB  GLN G  64     -22.660  -8.730 -11.761  1.00 71.00 LIG 0.04  C 
BRANCH 43 44
ATOM     44  CG  GLN G  64     -21.860  -7.633 -12.426  1.00 72.96 LIG 0.10  C 
BRANCH 44 45
ATOM     45  CD  GLN G  64     -22.530  -6.270 -12.403  1.00 76.87 LIG 0.21  C 
ATOM     46 OE1  GLN G  64     -23.764  -6.132 -12.444  1.00 74.88 LIG-0.27  OA
ATOM     47  NE2 GLN G  64     -21.702  -5.239 -12.308  1.00 81.47 LIG-0.37  N 
ATOM     48 21HE GLN G  64     -20.852  -5.371 -12.281  1.00 81.47 LIG 0.16  HD
ATOM     49 22HE GLN G  64     -22.014  -4.438 -12.273  1.00 81.47 LIG 0.16  HD
ENDBRANCH 44 45
ENDBRANCH 43 44
ENDBRANCH 42 43
BRANCH 42 50
ATOM     50  N   GLN G  64     -22.721 -10.662 -13.240  1.00 68.17 LIG-0.35  N 
ATOM     51  C   LEU G  63     -23.244 -11.593 -14.044  1.00 67.58 LIG 0.24  C 
ATOM     52 O    LEU G  63     -24.400 -11.548 -14.524  1.00 63.10 LIG-0.27  OA
ATOM     53 H    GLN G  64     -21.898 -10.655 -12.990  1.00 68.17 LIG 0.16  HD
BRANCH 51 54
ATOM     54  CA  LEU G  63     -22.308 -12.732 -14.399  1.00 66.76 LIG 0.18  C 
BRANCH 54 55
ATOM     55  CB  LEU G  63     -22.802 -14.023 -13.724  1.00 69.31 LIG 0.04  C 
BRANCH 55 56
ATOM     56  CG  LEU G  63     -21.777 -15.040 -13.150  1.00 73.12 LIG-0.02  C 
ATOM     57  CD2 LEU G  63     -21.277 -16.102 -14.137  1.00 75.26 LIG 0.01  C 
ATOM     58  CD1 LEU G  63     -22.278 -15.739 -11.905  1.00 70.75 LIG 0.01  C 
ENDBRANCH 55 56
ENDBRANCH 54 55
BRANCH 54 59
ATOM     59  N   LEU G  63     -20.959 -12.399 -13.977  1.00 64.77 LIG-0.35  N 
ATOM     60  C   SER G  62     -20.195 -11.448 -14.561  1.00 63.11 LIG 0.26  C 
ATOM     61 O    SER G  62     -20.441 -10.871 -15.658  1.00 57.72 LIG-0.27  OA
ATOM     62 H    LEU G  63     -20.687 -12.869 -13.311  1.00 64.77 LIG 0.16  HD
BRANCH 60 63
ATOM     63  CA  SER G  62     -18.944 -11.122 -13.732  1.00 64.68 LIG 0.42  C 
ATOM     64  N   SER G  62     -17.679 -11.243 -14.520  1.00 67.72 LIG 0.62  N 
BRANCH 63 65
ATOM     65  CB  SER G  62     -19.094  -9.759 -13.030  1.00 62.74 LIG 0.21  C 
BRANCH 65 66
ATOM     66 OG   SER G  62     -19.763  -9.889 -11.760  1.00 60.63 LIG-0.40  OA
ATOM     67 HG   SER G  62     -19.659 -10.669 -11.466  1.00 60.63 LIG 0.21  HD
ENDBRANCH 65 66
ENDBRANCH 63 65
ENDBRANCH 60 63
ENDBRANCH 54 59
ENDBRANCH 51 54
ENDBRANCH 42 50
ENDBRANCH 39 42
ENDBRANCH 1 38
TORSDOF 28
ENDMDL
MODEL 14
USER: ADFR SOLUTION from run 95
USER: SCORE 21.593255 LL:  -6.679 LR: -15.664 RR:   0.000 FEB:  -7.312
USER: RMSD 5.905976
USER: SEED 94
USER: STATUS searching
USER: GENES 30
USER: genes 0 Translation |==|  0.49571 0.59804 0.56870
USER: genes 1 Rotation |==|  0.86869 0.48825 0.77765 0.69195
USER: genes 2 Torsion [N]-CA--C-[N] |==|  0.22054
USER: genes 3 Torsion [C]-N--CA-[C] |==|  0.75579
USER: genes 4 Torsion [N]-CA--C-[N] |==|  0.97049
USER: genes 5 Torsion [C]-N--CA-[C] |==|  0.73371
USER: genes 6 Torsion [N]-CA--C-[N] |==|  0.97820
USER: genes 7 Torsion [C]-N--CA-[CB] |==|  0.24765
USER: genes 8 Torsion [N]-CA--C-[O] |==|  0.26020
USER: genes 9 Torsion [N]-CA--CB-[CG] |==|  0.74214
USER: genes 10 Torsion [CA]-CB--CG-[OD2] |==|  0.49246
USER: genes 11 Torsion [N]-CA--CB-[CG] |==|  0.75642
USER: genes 12 Torsion [CA]-CB--CG-[CD2] |==|  0.23086
USER: genes 13 Torsion [N]-CA--CB-[CG] |==|  0.05593
USER: genes 14 Torsion [CA]-CB--CG-[CD1] |==|  0.15129
USER: genes 15 Torsion [C]-CA--CB-[CG] |==|  0.32212
USER: genes 16 Torsion [CA]-CB--CG-[CD1] |==|  0.32632
USER: genes 17 Torsion [C]-CA--N-[C] |==|  0.78211
USER: genes 18 Torsion [N]-C--CA-[N] |==|  0.88968
USER: genes 19 Torsion [C]-CA--CB-[CG] |==|  0.08534
USER: genes 20 Torsion [CA]-CB--CG-[CD] |==|  0.74734
USER: genes 21 Torsion [CB]-CG--CD-[NE2] |==|  0.74775
USER: genes 22 Torsion [C]-CA--N-[C] |==|  0.82580
USER: genes 23 Torsion [N]-C--CA-[N] |==|  0.41149
USER: genes 24 Torsion [C]-CA--CB-[CG] |==|  0.91521
USER: genes 25 Torsion [CA]-CB--CG-[CD2] |==|  0.65454
USER: genes 26 Torsion [C]-CA--N-[C] |==|  0.53345
USER: genes 27 Torsion [N]-C--CA-[N] |==|  0.42891
USER: genes 28 Torsion [C]-CA--CB-[OG] |==|  0.08783
USER: genes 29 Torsion [CA]-CB--OG-[HG] |==|  0.77295
ROOT
ATOM      1  CA  PHE G  65     -24.345  -7.833 -16.190  1.00 79.88 LIG 0.18  C 
ENDROOT
BRANCH 1 2
ATOM      2  C   PHE G  65     -25.089  -8.977 -16.957  1.00 81.88 LIG 0.24  C 
ATOM      3 O    PHE G  65     -24.669  -9.415 -18.046  1.00 83.91 LIG-0.27  OA
ATOM      4  N   LEU G  66     -26.160  -9.488 -16.371  1.00 80.12 LIG-0.35  N 
ATOM      5 H    LEU G  66     -26.451  -9.232 -15.603  1.00 80.12 LIG 0.16  HD
BRANCH 4 6
ATOM      6  CA  LEU G  66     -26.956 -10.556 -16.992  1.00 73.95 LIG 0.18  C 
BRANCH 6 7
ATOM      7  C   LEU G  66     -28.050  -9.963 -17.912  1.00 70.37 LIG 0.24  C 
ATOM      8 O    LEU G  66     -28.712 -10.683 -18.688  1.00 65.91 LIG-0.27  OA
ATOM      9  N   LEU G  67     -28.230  -8.642 -17.816  1.00 70.17 LIG-0.35  N 
ATOM     10 H    LEU G  67     -27.835  -8.148 -17.232  1.00 70.17 LIG 0.16  HD
BRANCH 9 11
ATOM     11  CA  LEU G  67     -29.128  -7.911 -18.706  1.00 68.48 LIG 0.18  C 
BRANCH 11 12
ATOM     12  C   LEU G  67     -28.322  -7.313 -19.868  1.00 69.74 LIG 0.24  C 
ATOM     13  N   ASP G  68     -26.981  -7.411 -19.784  1.00 68.02 LIG-0.35  N 
ATOM     14 H    ASP G  68     -26.566  -7.485 -19.034  1.00 68.02 LIG 0.16  HD
ATOM     15 O    LEU G  67     -28.930  -6.826 -20.825  1.00 68.13 LIG-0.27  OA
BRANCH 13 16
ATOM     16  CA  ASP G  68     -26.069  -7.403 -20.963  1.00 74.55 LIG 0.17  C 
BRANCH 16 17
ATOM     17  C   ASP G  68     -24.795  -8.211 -20.565  1.00 77.35 LIG 0.22  C 
ATOM     18 O    ASP G  68     -24.653  -9.416 -20.796  1.00 79.38 LIG-0.29  OA
ENDBRANCH 16 17
BRANCH 16 19
ATOM     19  CB  ASP G  68     -25.638  -5.974 -21.343  1.00 74.32 LIG 0.15  C 
BRANCH 19 20
ATOM     20  CG  ASP G  68     -26.550  -5.310 -22.421  1.00 79.04 LIG 0.17  C 
ATOM     21 OD1  ASP G  68     -27.509  -5.989 -22.915  1.00 79.61 LIG-0.65  OA
ATOM     22 OD2  ASP G  68     -26.329  -4.120 -22.777  1.00 79.33 LIG-0.65  OA
ENDBRANCH 19 20
ENDBRANCH 16 19
ENDBRANCH 13 16
ENDBRANCH 11 12
BRANCH 11 23
ATOM     23  CB  LEU G  67     -29.953  -6.869 -17.956  1.00 63.56 LIG 0.04  C 
BRANCH 23 24
ATOM     24  CG  LEU G  67     -31.239  -7.511 -17.418  1.00 66.22 LIG-0.02  C 
ATOM     25  CD2 LEU G  67     -30.996  -8.231 -16.087  1.00 64.35 LIG 0.01  C 
ATOM     26  CD1 LEU G  67     -31.954  -8.412 -18.475  1.00 61.82 LIG 0.01  C 
ENDBRANCH 23 24
ENDBRANCH 11 23
ENDBRANCH 9 11
ENDBRANCH 6 7
BRANCH 6 27
ATOM     27  CB  LEU G  66     -27.591 -11.366 -15.878  1.00 68.20 LIG 0.04  C 
BRANCH 27 28
ATOM     28  CG  LEU G  66     -27.771 -10.849 -14.472  1.00 70.51 LIG-0.02  C 
ATOM     29  CD1 LEU G  66     -28.518  -9.519 -14.339  1.00 68.17 LIG 0.01  C 
ATOM     30  CD2 LEU G  66     -28.506 -11.996 -13.780  1.00 69.71 LIG 0.01  C 
ENDBRANCH 27 28
ENDBRANCH 6 27
ENDBRANCH 4 6
ENDBRANCH 1 2
BRANCH 1 31
ATOM     31  CB  PHE G  65     -23.687  -6.868 -17.204  1.00 81.70 LIG 0.07  C 
BRANCH 31 32
ATOM     32  CG  PHE G  65     -24.274  -5.456 -17.147  1.00 88.02 LIG-0.06  A 
ATOM     33  CD1 PHE G  65     -23.474  -4.345 -16.788  1.00 90.65 LIG 0.01  A 
ATOM     34  CE1 PHE G  65     -24.012  -3.040 -16.784  1.00 91.87 LIG 0.00  A 
ATOM     35  CZ  PHE G  65     -25.347  -2.822 -17.158  1.00 92.49 LIG 0.00  A 
ATOM     36  CE2 PHE G  65     -26.136  -3.903 -17.538  1.00 89.30 LIG 0.00  A 
ATOM     37  CD2 PHE G  65     -25.604  -5.203 -17.541  1.00 89.13 LIG 0.01  A 
ENDBRANCH 31 32
ENDBRANCH 1 31
BRANCH 1 38
ATOM     38  N   PHE G  65     -23.437  -8.255 -15.079  1.00 74.58 LIG-0.35  N 
ATOM     39  C   GLN G  64     -23.933  -8.601 -13.876  1.00 72.54 LIG 0.24  C 
ATOM     40 O    GLN G  64     -25.142  -8.532 -13.599  1.00 72.49 LIG-0.27  OA
ATOM     41 H    PHE G  65     -22.600  -8.254 -15.278  1.00 74.58 LIG 0.16  HD
BRANCH 39 42
ATOM     42  CA  GLN G  64     -22.973  -9.162 -12.805  1.00 69.04 LIG 0.18  C 
BRANCH 42 43
ATOM     43  CB  GLN G  64     -22.322  -8.080 -11.938  1.00 71.00 LIG 0.04  C 
BRANCH 43 44
ATOM     44  CG  GLN G  64     -23.170  -6.847 -11.728  1.00 72.96 LIG 0.10  C 
BRANCH 44 45
ATOM     45  CD  GLN G  64     -22.948  -5.754 -12.760  1.00 76.87 LIG 0.21  C 
ATOM     46 OE1  GLN G  64     -23.608  -5.684 -13.809  1.00 74.88 LIG-0.27  OA
ATOM     47  NE2 GLN G  64     -22.015  -4.866 -12.446  1.00 81.47 LIG-0.37  N 
ATOM     48 21HE GLN G  64     -21.577  -4.945 -11.710  1.00 81.47 LIG 0.16  HD
ATOM     49 22HE GLN G  64     -21.849  -4.211 -12.978  1.00 81.47 LIG 0.16  HD
ENDBRANCH 44 45
ENDBRANCH 43 44
ENDBRANCH 42 43
BRANCH 42 50
ATOM     50  N   GLN G  64     -21.970 -10.060 -13.310  1.00 68.17 LIG-0.35  N 
ATOM     51  C   LEU G  63     -22.284 -11.223 -13.889  1.00 67.58 LIG 0.24  C 
ATOM     52 O    LEU G  63     -23.450 -11.583 -14.169  1.00 63.10 LIG-0.27  OA
ATOM     53 H    GLN G  64     -21.163  -9.782 -13.206  1.00 68.17 LIG 0.16  HD
BRANCH 51 54
ATOM     54  CA  LEU G  63     -21.101 -12.099 -14.252  1.00 66.76 LIG 0.18  C 
BRANCH 54 55
ATOM     55  CB  LEU G  63     -20.634 -11.755 -15.677  1.00 69.31 LIG 0.04  C 
BRANCH 55 56
ATOM     56  CG  LEU G  63     -21.661 -11.253 -16.729  1.00 73.12 LIG-0.02  C 
ATOM     57  CD2 LEU G  63     -21.722 -12.061 -18.031  1.00 75.26 LIG 0.01  C 
ATOM     58  CD1 LEU G  63     -21.477  -9.792 -17.079  1.00 70.75 LIG 0.01  C 
ENDBRANCH 55 56
ENDBRANCH 54 55
BRANCH 54 59
ATOM     59  N   LEU G  63     -21.482 -13.496 -14.144  1.00 64.77 LIG-0.35  N 
ATOM     60  C   SER G  62     -20.606 -14.526 -14.170  1.00 63.11 LIG 0.26  C 
ATOM     61 O    SER G  62     -19.387 -14.452 -14.496  1.00 57.72 LIG-0.27  OA
ATOM     62 H    LEU G  63     -22.330 -13.610 -14.060  1.00 64.77 LIG 0.16  HD
BRANCH 60 63
ATOM     63  CA  SER G  62     -21.259 -15.851 -13.751  1.00 64.68 LIG 0.42  C 
ATOM     64  N   SER G  62     -20.565 -17.046 -14.325  1.00 67.72 LIG 0.62  N 
BRANCH 63 65
ATOM     65  CB  SER G  62     -21.421 -15.921 -12.221  1.00 62.74 LIG 0.21  C 
BRANCH 65 66
ATOM     66 OG   SER G  62     -21.640 -14.613 -11.653  1.00 60.63 LIG-0.40  OA
ATOM     67 HG   SER G  62     -20.903 -14.221 -11.559  1.00 60.63 LIG 0.21  HD
ENDBRANCH 65 66
ENDBRANCH 63 65
ENDBRANCH 60 63
ENDBRANCH 54 59
ENDBRANCH 51 54
ENDBRANCH 42 50
ENDBRANCH 39 42
ENDBRANCH 1 38
TORSDOF 28
ENDMDL
MODEL 15
USER: ADFR SOLUTION from run 137
USER: SCORE 20.661281 LL:  -5.691 LR: -15.598 RR:   0.000 FEB:  -7.245
USER: RMSD 6.231845
USER: SEED 136
USER: STATUS searching
USER: GENES 30
USER: genes 0 Translation |==|  0.49896 0.57340 0.61026
USER: genes 1 Rotation |==|  0.08127 0.60232 0.25439 0.56220
USER: genes 2 Torsion [N]-CA--C-[N] |==|  0.39710
USER: genes 3 Torsion [C]-N--CA-[C] |==|  0.76111
USER: genes 4 Torsion [N]-CA--C-[N] |==|  0.03719
USER: genes 5 Torsion [C]-N--CA-[C] |==|  0.82749
USER: genes 6 Torsion [N]-CA--C-[N] |==|  0.96436
USER: genes 7 Torsion [C]-N--CA-[CB] |==|  0.98966
USER: genes 8 Torsion [N]-CA--C-[O] |==|  0.95825
USER: genes 9 Torsion [N]-CA--CB-[CG] |==|  0.76476
USER: genes 10 Torsion [CA]-CB--CG-[OD2] |==|  0.50639
USER: genes 11 Torsion [N]-CA--CB-[CG] |==|  0.16763
USER: genes 12 Torsion [CA]-CB--CG-[CD2] |==|  0.60108
USER: genes 13 Torsion [N]-CA--CB-[CG] |==|  0.99942
USER: genes 14 Torsion [CA]-CB--CG-[CD1] |==|  0.39441
USER: genes 15 Torsion [C]-CA--CB-[CG] |==|  0.47327
USER: genes 16 Torsion [CA]-CB--CG-[CD1] |==|  0.41079
USER: genes 17 Torsion [C]-CA--N-[C] |==|  0.81216
USER: genes 18 Torsion [N]-C--CA-[N] |==|  0.92377
USER: genes 19 Torsion [C]-CA--CB-[CG] |==|  0.76068
USER: genes 20 Torsion [CA]-CB--CG-[CD] |==|  0.37420
USER: genes 21 Torsion [CB]-CG--CD-[NE2] |==|  0.26118
USER: genes 22 Torsion [C]-CA--N-[C] |==|  0.83131
USER: genes 23 Torsion [N]-C--CA-[N] |==|  0.15563
USER: genes 24 Torsion [C]-CA--CB-[CG] |==|  0.24755
USER: genes 25 Torsion [CA]-CB--CG-[CD2] |==|  0.20967
USER: genes 26 Torsion [C]-CA--N-[C] |==|  0.78167
USER: genes 27 Torsion [N]-C--CA-[N] |==|  0.39319
USER: genes 28 Torsion [C]-CA--CB-[OG] |==|  0.94203
USER: genes 29 Torsion [CA]-CB--OG-[HG] |==|  0.77367
ROOT
ATOM      1  CA  PHE G  65     -24.285  -8.314 -15.380  1.00 79.88 LIG 0.18  C 
ENDROOT
BRANCH 1 2
ATOM      2  C   PHE G  65     -24.911  -8.323 -16.814  1.00 81.88 LIG 0.24  C 
ATOM      3 O    PHE G  65     -24.214  -8.506 -17.831  1.00 83.91 LIG-0.27  OA
ATOM      4  N   LEU G  66     -26.224  -8.174 -16.890  1.00 80.12 LIG-0.35  N 
ATOM      5 H    LEU G  66     -26.735  -8.083 -16.204  1.00 80.12 LIG 0.16  HD
BRANCH 4 6
ATOM      6  CA  LEU G  66     -26.934  -8.150 -18.177  1.00 73.95 LIG 0.18  C 
BRANCH 6 7
ATOM      7  C   LEU G  66     -26.946  -6.722 -18.773  1.00 70.37 LIG 0.24  C 
ATOM      8 O    LEU G  66     -27.694  -6.416 -19.725  1.00 65.91 LIG-0.27  OA
ATOM      9  N   LEU G  67     -26.107  -5.851 -18.201  1.00 70.17 LIG-0.35  N 
ATOM     10 H    LEU G  67     -25.644  -6.028 -17.498  1.00 70.17 LIG 0.16  HD
BRANCH 9 11
ATOM     11  CA  LEU G  67     -25.902  -4.505 -18.728  1.00 68.48 LIG 0.18  C 
BRANCH 11 12
ATOM     12  C   LEU G  67     -25.321  -4.594 -20.146  1.00 69.74 LIG 0.24  C 
ATOM     13  N   ASP G  68     -24.862  -5.800 -20.535  1.00 68.02 LIG-0.35  N 
ATOM     14 H    ASP G  68     -24.593  -6.397 -19.978  1.00 68.02 LIG 0.16  HD
ATOM     15 O    LEU G  67     -25.346  -3.590 -20.863  1.00 68.13 LIG-0.27  OA
BRANCH 13 16
ATOM     16  CA  ASP G  68     -24.769  -6.236 -21.957  1.00 74.55 LIG 0.17  C 
BRANCH 16 17
ATOM     17  C   ASP G  68     -23.254  -6.423 -22.282  1.00 77.35 LIG 0.22  C 
ATOM     18 O    ASP G  68     -22.345  -5.981 -21.572  1.00 79.38 LIG-0.29  OA
ENDBRANCH 16 17
BRANCH 16 19
ATOM     19  CB  ASP G  68     -25.344  -5.180 -22.919  1.00 74.32 LIG 0.15  C 
BRANCH 19 20
ATOM     20  CG  ASP G  68     -26.890  -5.279 -23.105  1.00 79.04 LIG 0.17  C 
ATOM     21 OD1  ASP G  68     -27.534  -6.153 -22.437  1.00 79.61 LIG-0.65  OA
ATOM     22 OD2  ASP G  68     -27.473  -4.495 -23.904  1.00 79.33 LIG-0.65  OA
ENDBRANCH 19 20
ENDBRANCH 16 19
ENDBRANCH 13 16
ENDBRANCH 11 12
BRANCH 11 23
ATOM     23  CB  LEU G  67     -25.058  -3.647 -17.791  1.00 63.56 LIG 0.04  C 
BRANCH 23 24
ATOM     24  CG  LEU G  67     -23.677  -4.287 -17.599  1.00 66.22 LIG-0.02  C 
ATOM     25  CD2 LEU G  67     -23.161  -4.099 -16.169  1.00 64.35 LIG 0.01  C 
ATOM     26  CD1 LEU G  67     -22.645  -3.837 -18.683  1.00 61.82 LIG 0.01  C 
ENDBRANCH 23 24
ENDBRANCH 11 23
ENDBRANCH 9 11
ENDBRANCH 6 7
BRANCH 6 27
ATOM     27  CB  LEU G  66     -28.353  -8.626 -17.931  1.00 68.20 LIG 0.04  C 
BRANCH 27 28
ATOM     28  CG  LEU G  66     -28.867  -9.039 -16.574  1.00 70.51 LIG-0.02  C 
ATOM     29  CD1 LEU G  66     -30.309  -8.636 -16.254  1.00 68.17 LIG 0.01  C 
ATOM     30  CD2 LEU G  66     -28.682 -10.556 -16.589  1.00 69.71 LIG 0.01  C 
ENDBRANCH 27 28
ENDBRANCH 6 27
ENDBRANCH 4 6
ENDBRANCH 1 2
BRANCH 1 31
ATOM     31  CB  PHE G  65     -24.003  -6.856 -14.944  1.00 81.70 LIG 0.07  C 
BRANCH 31 32
ATOM     32  CG  PHE G  65     -23.610  -6.743 -13.470  1.00 88.02 LIG-0.06  A 
ATOM     33  CD1 PHE G  65     -22.710  -5.744 -13.027  1.00 90.65 LIG 0.01  A 
ATOM     34  CE1 PHE G  65     -22.390  -5.617 -11.658  1.00 91.87 LIG 0.00  A 
ATOM     35  CZ  PHE G  65     -22.979  -6.469 -10.710  1.00 92.49 LIG 0.00  A 
ATOM     36  CE2 PHE G  65     -23.886  -7.437 -11.130  1.00 89.30 LIG 0.00  A 
ATOM     37  CD2 PHE G  65     -24.204  -7.567 -12.492  1.00 89.13 LIG 0.01  A 
ENDBRANCH 31 32
ENDBRANCH 1 31
BRANCH 1 38
ATOM     38  N   PHE G  65     -23.140  -9.247 -15.145  1.00 74.58 LIG-0.35  N 
ATOM     39  C   GLN G  64     -23.326 -10.582 -15.149  1.00 72.54 LIG 0.24  C 
ATOM     40 O    GLN G  64     -24.444 -11.107 -15.279  1.00 72.49 LIG-0.27  OA
ATOM     41 H    PHE G  65     -22.382  -8.863 -15.012  1.00 74.58 LIG 0.16  HD
BRANCH 39 42
ATOM     42  CA  GLN G  64     -22.095 -11.508 -15.041  1.00 69.04 LIG 0.18  C 
BRANCH 42 43
ATOM     43  CB  GLN G  64     -21.869 -12.067 -13.633  1.00 71.00 LIG 0.04  C 
BRANCH 43 44
ATOM     44  CG  GLN G  64     -21.064 -11.170 -12.720  1.00 72.96 LIG 0.10  C 
BRANCH 44 45
ATOM     45  CD  GLN G  64     -21.641 -11.023 -11.323  1.00 76.87 LIG 0.21  C 
ATOM     46 OE1  GLN G  64     -22.525 -10.194 -11.050  1.00 74.88 LIG-0.27  OA
ATOM     47  NE2 GLN G  64     -21.151 -11.863 -10.421  1.00 81.47 LIG-0.37  N 
ATOM     48 21HE GLN G  64     -20.539 -12.424 -10.645  1.00 81.47 LIG 0.16  HD
ATOM     49 22HE GLN G  64     -21.445 -11.846  -9.613  1.00 81.47 LIG 0.16  HD
ENDBRANCH 44 45
ENDBRANCH 43 44
ENDBRANCH 42 43
BRANCH 42 50
ATOM     50  N   GLN G  64     -20.875 -10.945 -15.551  1.00 68.17 LIG-0.35  N 
ATOM     51  C   LEU G  63     -20.743 -10.573 -16.828  1.00 67.58 LIG 0.24  C 
ATOM     52 O    LEU G  63     -21.678 -10.549 -17.660  1.00 63.10 LIG-0.27  OA
ATOM     53 H    GLN G  64     -20.249 -10.871 -14.965  1.00 68.17 LIG 0.16  HD
BRANCH 51 54
ATOM     54  CA  LEU G  63     -19.352 -10.115 -17.222  1.00 66.76 LIG 0.18  C 
BRANCH 54 55
ATOM     55  CB  LEU G  63     -19.339  -9.767 -18.720  1.00 69.31 LIG 0.04  C 
BRANCH 55 56
ATOM     56  CG  LEU G  63     -19.689  -8.326 -19.185  1.00 73.12 LIG-0.02  C 
ATOM     57  CD2 LEU G  63     -18.593  -7.276 -18.962  1.00 75.26 LIG 0.01  C 
ATOM     58  CD1 LEU G  63     -20.977  -7.812 -18.582  1.00 70.75 LIG 0.01  C 
ENDBRANCH 55 56
ENDBRANCH 54 55
BRANCH 54 59
ATOM     59  N   LEU G  63     -18.393 -11.162 -16.915  1.00 64.77 LIG-0.35  N 
ATOM     60  C   SER G  62     -17.912 -11.411 -15.676  1.00 63.11 LIG 0.26  C 
ATOM     61 O    SER G  62     -18.050 -10.666 -14.665  1.00 57.72 LIG-0.27  OA
ATOM     62 H    LEU G  63     -18.155 -11.617 -17.605  1.00 64.77 LIG 0.16  HD
BRANCH 60 63
ATOM     63  CA  SER G  62     -17.148 -12.741 -15.608  1.00 64.68 LIG 0.42  C 
ATOM     64  N   SER G  62     -15.937 -12.670 -14.734  1.00 67.72 LIG 0.62  N 
BRANCH 63 65
ATOM     65  CB  SER G  62     -18.096 -13.898 -15.239  1.00 62.74 LIG 0.21  C 
BRANCH 65 66
ATOM     66 OG   SER G  62     -19.292 -13.416 -14.594  1.00 60.63 LIG-0.40  OA
ATOM     67 HG   SER G  62     -19.135 -13.276 -13.780  1.00 60.63 LIG 0.21  HD
ENDBRANCH 65 66
ENDBRANCH 63 65
ENDBRANCH 60 63
ENDBRANCH 54 59
ENDBRANCH 51 54
ENDBRANCH 42 50
ENDBRANCH 39 42
ENDBRANCH 1 38
TORSDOF 28
ENDMDL
MODEL 16
USER: ADFR SOLUTION from run 112
USER: SCORE 21.196889 LL:  -6.442 LR: -15.556 RR:   0.000 FEB:  -7.204
USER: RMSD 7.037431
USER: SEED 111
USER: STATUS searching
USER: GENES 30
USER: genes 0 Translation |==|  0.47584 0.65223 0.59493
USER: genes 1 Rotation |==|  0.81473 0.24932 0.79668 0.50936
USER: genes 2 Torsion [N]-CA--C-[N] |==|  0.39377
USER: genes 3 Torsion [C]-N--CA-[C] |==|  0.18417
USER: genes 4 Torsion [N]-CA--C-[N] |==|  0.02317
USER: genes 5 Torsion [C]-N--CA-[C] |==|  0.66020
USER: genes 6 Torsion [N]-CA--C-[N] |==|  0.06066
USER: genes 7 Torsion [C]-N--CA-[CB] |==|  0.88724
USER: genes 8 Torsion [N]-CA--C-[O] |==|  0.08429
USER: genes 9 Torsion [N]-CA--CB-[CG] |==|  0.82015
USER: genes 10 Torsion [CA]-CB--CG-[OD2] |==|  0.31381
USER: genes 11 Torsion [N]-CA--CB-[CG] |==|  0.93402
USER: genes 12 Torsion [CA]-CB--CG-[CD2] |==|  0.78246
USER: genes 13 Torsion [N]-CA--CB-[CG] |==|  0.86144
USER: genes 14 Torsion [CA]-CB--CG-[CD1] |==|  0.02607
USER: genes 15 Torsion [C]-CA--CB-[CG] |==|  0.50088
USER: genes 16 Torsion [CA]-CB--CG-[CD1] |==|  0.48768
USER: genes 17 Torsion [C]-CA--N-[C] |==|  0.84925
USER: genes 18 Torsion [N]-C--CA-[N] |==|  0.08229
USER: genes 19 Torsion [C]-CA--CB-[CG] |==|  0.76912
USER: genes 20 Torsion [CA]-CB--CG-[CD] |==|  0.17847
USER: genes 21 Torsion [CB]-CG--CD-[NE2] |==|  0.16286
USER: genes 22 Torsion [C]-CA--N-[C] |==|  0.70466
USER: genes 23 Torsion [N]-C--CA-[N] |==|  0.43397
USER: genes 24 Torsion [C]-CA--CB-[CG] |==|  0.75883
USER: genes 25 Torsion [CA]-CB--CG-[CD2] |==|  0.09250
USER: genes 26 Torsion [C]-CA--N-[C] |==|  0.81667
USER: genes 27 Torsion [N]-C--CA-[N] |==|  0.45340
USER: genes 28 Torsion [C]-CA--CB-[OG] |==|  0.27132
USER: genes 29 Torsion [CA]-CB--OG-[HG] |==|  0.05352
ROOT
ATOM      1  CA  PHE G  65     -24.718  -6.776 -15.679  1.00 79.88 LIG 0.18  C 
ENDROOT
BRANCH 1 2
ATOM      2  C   PHE G  65     -24.804  -6.397 -17.195  1.00 81.88 LIG 0.24  C 
ATOM      3 O    PHE G  65     -24.178  -7.034 -18.065  1.00 83.91 LIG-0.27  OA
ATOM      4  N   LEU G  66     -25.609  -5.396 -17.512  1.00 80.12 LIG-0.35  N 
ATOM      5 H    LEU G  66     -26.081  -4.962 -16.939  1.00 80.12 LIG 0.16  HD
BRANCH 4 6
ATOM      6  CA  LEU G  66     -25.769  -4.931 -18.897  1.00 73.95 LIG 0.18  C 
BRANCH 6 7
ATOM      7  C   LEU G  66     -26.446  -6.016 -19.768  1.00 70.37 LIG 0.24  C 
ATOM      8 O    LEU G  66     -26.540  -5.895 -21.008  1.00 65.91 LIG-0.27  OA
ATOM      9  N   LEU G  67     -26.917  -7.077 -19.104  1.00 70.17 LIG-0.35  N 
ATOM     10 H    LEU G  67     -26.791  -7.207 -18.263  1.00 70.17 LIG 0.16  HD
BRANCH 9 11
ATOM     11  CA  LEU G  67     -27.696  -8.124 -19.759  1.00 68.48 LIG 0.18  C 
BRANCH 11 12
ATOM     12  C   LEU G  67     -29.061  -8.255 -19.066  1.00 69.74 LIG 0.24  C 
ATOM     13  N   ASP G  68     -29.486  -7.186 -18.365  1.00 68.02 LIG-0.35  N 
ATOM     14 H    ASP G  68     -28.947  -6.604 -18.032  1.00 68.02 LIG 0.16  HD
ATOM     15 O    LEU G  67     -29.709  -9.292 -19.223  1.00 68.13 LIG-0.27  OA
BRANCH 13 16
ATOM     16  CA  ASP G  68     -30.919  -6.889 -18.086  1.00 74.55 LIG 0.17  C 
BRANCH 16 17
ATOM     17  C   ASP G  68     -31.366  -7.830 -16.924  1.00 77.35 LIG 0.22  C 
ATOM     18 O    ASP G  68     -30.602  -8.231 -16.040  1.00 79.38 LIG-0.29  OA
ENDBRANCH 16 17
BRANCH 16 19
ATOM     19  CB  ASP G  68     -31.811  -7.172 -19.309  1.00 74.32 LIG 0.15  C 
BRANCH 19 20
ATOM     20  CG  ASP G  68     -31.511  -6.248 -20.530  1.00 79.04 LIG 0.17  C 
ATOM     21 OD1  ASP G  68     -31.765  -5.003 -20.434  1.00 79.61 LIG-0.65  OA
ATOM     22 OD2  ASP G  68     -31.020  -6.745 -21.581  1.00 79.33 LIG-0.65  OA
ENDBRANCH 19 20
ENDBRANCH 16 19
ENDBRANCH 13 16
ENDBRANCH 11 12
BRANCH 11 23
ATOM     23  CB  LEU G  67     -26.935  -9.444 -19.830  1.00 63.56 LIG 0.04  C 
BRANCH 23 24
ATOM     24  CG  LEU G  67     -25.426  -9.181 -19.753  1.00 66.22 LIG-0.02  C 
ATOM     25  CD2 LEU G  67     -24.869  -8.696 -21.096  1.00 64.35 LIG 0.01  C 
ATOM     26  CD1 LEU G  67     -24.630 -10.390 -19.165  1.00 61.82 LIG 0.01  C 
ENDBRANCH 23 24
ENDBRANCH 11 23
ENDBRANCH 9 11
ENDBRANCH 6 7
BRANCH 6 27
ATOM     27  CB  LEU G  66     -24.389  -4.611 -19.439  1.00 68.20 LIG 0.04  C 
BRANCH 27 28
ATOM     28  CG  LEU G  66     -23.390  -3.745 -18.712  1.00 70.51 LIG-0.02  C 
ATOM     29  CD1 LEU G  66     -23.752  -3.370 -17.273  1.00 68.17 LIG 0.01  C 
ATOM     30  CD2 LEU G  66     -22.106  -4.570 -18.788  1.00 69.71 LIG 0.01  C 
ENDBRANCH 27 28
ENDBRANCH 6 27
ENDBRANCH 4 6
ENDBRANCH 1 2
BRANCH 1 31
ATOM     31  CB  PHE G  65     -23.640  -5.911 -14.985  1.00 81.70 LIG 0.07  C 
BRANCH 31 32
ATOM     32  CG  PHE G  65     -23.490  -6.230 -13.496  1.00 88.02 LIG-0.06  A 
ATOM     33  CD1 PHE G  65     -22.490  -5.607 -12.712  1.00 90.65 LIG 0.01  A 
ATOM     34  CE1 PHE G  65     -22.390  -5.871 -11.328  1.00 91.87 LIG 0.00  A 
ATOM     35  CZ  PHE G  65     -23.298  -6.741 -10.705  1.00 92.49 LIG 0.00  A 
ATOM     36  CE2 PHE G  65     -24.303  -7.338 -11.461  1.00 89.30 LIG 0.00  A 
ATOM     37  CD2 PHE G  65     -24.403  -7.079 -12.838  1.00 89.13 LIG 0.01  A 
ENDBRANCH 31 32
ENDBRANCH 1 31
BRANCH 1 38
ATOM     38  N   PHE G  65     -24.620  -8.235 -15.360  1.00 74.58 LIG-0.35  N 
ATOM     39  C   GLN G  64     -25.532  -9.107 -15.833  1.00 72.54 LIG 0.24  C 
ATOM     40 O    GLN G  64     -26.523  -8.756 -16.494  1.00 72.49 LIG-0.27  OA
ATOM     41 H    PHE G  65     -23.951  -8.452 -14.865  1.00 74.58 LIG 0.16  HD
BRANCH 39 42
ATOM     42  CA  GLN G  64     -25.314 -10.617 -15.595  1.00 69.04 LIG 0.18  C 
BRANCH 42 43
ATOM     43  CB  GLN G  64     -26.602 -11.442 -15.668  1.00 71.00 LIG 0.04  C 
BRANCH 43 44
ATOM     44  CG  GLN G  64     -27.411 -11.461 -14.391  1.00 72.96 LIG 0.10  C 
BRANCH 44 45
ATOM     45  CD  GLN G  64     -27.961 -10.105 -13.981  1.00 76.87 LIG 0.21  C 
ATOM     46 OE1  GLN G  64     -27.673  -9.569 -12.899  1.00 74.88 LIG-0.27  OA
ATOM     47  NE2 GLN G  64     -28.751  -9.526 -14.875  1.00 81.47 LIG-0.37  N 
ATOM     48 21HE GLN G  64     -28.929  -9.926 -15.615  1.00 81.47 LIG 0.16  HD
ATOM     49 22HE GLN G  64     -29.084  -8.749 -14.715  1.00 81.47 LIG 0.16  HD
ENDBRANCH 44 45
ENDBRANCH 43 44
ENDBRANCH 42 43
BRANCH 42 50
ATOM     50  N   GLN G  64     -24.590 -10.937 -14.395  1.00 68.17 LIG-0.35  N 
ATOM     51  C   LEU G  63     -23.321 -11.356 -14.421  1.00 67.58 LIG 0.24  C 
ATOM     52 O    LEU G  63     -22.605 -11.386 -15.448  1.00 63.10 LIG-0.27  OA
ATOM     53 H    GLN G  64     -25.043 -10.833 -13.671  1.00 68.17 LIG 0.16  HD
BRANCH 51 54
ATOM     54  CA  LEU G  63     -22.753 -11.765 -13.075  1.00 66.76 LIG 0.18  C 
BRANCH 54 55
ATOM     55  CB  LEU G  63     -22.297 -10.507 -12.316  1.00 69.31 LIG 0.04  C 
BRANCH 55 56
ATOM     56  CG  LEU G  63     -20.867  -9.942 -12.540  1.00 73.12 LIG-0.02  C 
ATOM     57  CD2 LEU G  63     -20.302 -10.116 -13.955  1.00 75.26 LIG 0.01  C 
ATOM     58  CD1 LEU G  63     -19.859 -10.487 -11.550  1.00 70.75 LIG 0.01  C 
ENDBRANCH 55 56
ENDBRANCH 54 55
BRANCH 54 59
ATOM     59  N   LEU G  63     -21.652 -12.689 -13.276  1.00 64.77 LIG-0.35  N 
ATOM     60  C   SER G  62     -21.788 -13.931 -13.794  1.00 63.11 LIG 0.26  C 
ATOM     61 O    SER G  62     -22.880 -14.540 -13.979  1.00 57.72 LIG-0.27  OA
ATOM     62 H    LEU G  63     -20.892 -12.370 -13.031  1.00 64.77 LIG 0.16  HD
BRANCH 60 63
ATOM     63  CA  SER G  62     -20.434 -14.560 -14.152  1.00 64.68 LIG 0.42  C 
ATOM     64  N   SER G  62     -20.515 -16.042 -14.343  1.00 67.72 LIG 0.62  N 
BRANCH 63 65
ATOM     65  CB  SER G  62     -19.789 -13.830 -15.345  1.00 62.74 LIG 0.21  C 
BRANCH 65 66
ATOM     66 OG   SER G  62     -18.819 -12.857 -14.907  1.00 60.63 LIG-0.40  OA
ATOM     67 HG   SER G  62     -18.581 -13.032 -14.121  1.00 60.63 LIG 0.21  HD
ENDBRANCH 65 66
ENDBRANCH 63 65
ENDBRANCH 60 63
ENDBRANCH 54 59
ENDBRANCH 51 54
ENDBRANCH 42 50
ENDBRANCH 39 42
ENDBRANCH 1 38
TORSDOF 28
ENDMDL
MODEL 17
USER: ADFR SOLUTION from run 2
USER: SCORE 20.352344 LL:  -5.181 LR: -15.519 RR:   0.000 FEB:  -7.166
USER: RMSD 6.590314
USER: SEED 178150
USER: STATUS 1 or 2 clusters left
USER: GENES 30
USER: genes 0 Translation |==|  0.54776 0.46805 0.66342
USER: genes 1 Rotation |==|  0.92074 0.33216 0.71103 0.51657
USER: genes 2 Torsion [N]-CA--C-[N] |==|  0.37388
USER: genes 3 Torsion [C]-N--CA-[C] |==|  0.76274
USER: genes 4 Torsion [N]-CA--C-[N] |==|  0.98390
USER: genes 5 Torsion [C]-N--CA-[C] |==|  0.85131
USER: genes 6 Torsion [N]-CA--C-[N] |==|  0.33889
USER: genes 7 Torsion [C]-N--CA-[CB] |==|  0.31126
USER: genes 8 Torsion [N]-CA--C-[O] |==|  0.92237
USER: genes 9 Torsion [N]-CA--CB-[CG] |==|  0.19428
USER: genes 10 Torsion [CA]-CB--CG-[OD2] |==|  0.23328
USER: genes 11 Torsion [N]-CA--CB-[CG] |==|  0.53856
USER: genes 12 Torsion [CA]-CB--CG-[CD2] |==|  0.10854
USER: genes 13 Torsion [N]-CA--CB-[CG] |==|  0.92996
USER: genes 14 Torsion [CA]-CB--CG-[CD1] |==|  0.22638
USER: genes 15 Torsion [C]-CA--CB-[CG] |==|  0.30963
USER: genes 16 Torsion [CA]-CB--CG-[CD1] |==|  0.41934
USER: genes 17 Torsion [C]-CA--N-[C] |==|  0.83681
USER: genes 18 Torsion [N]-C--CA-[N] |==|  0.97793
USER: genes 19 Torsion [C]-CA--CB-[CG] |==|  0.37261
USER: genes 20 Torsion [CA]-CB--CG-[CD] |==|  0.03313
USER: genes 21 Torsion [CB]-CG--CD-[NE2] |==|  0.32206
USER: genes 22 Torsion [C]-CA--N-[C] |==|  0.78328
USER: genes 23 Torsion [N]-C--CA-[N] |==|  0.06334
USER: genes 24 Torsion [C]-CA--CB-[CG] |==|  0.25789
USER: genes 25 Torsion [CA]-CB--CG-[CD2] |==|  0.53691
USER: genes 26 Torsion [C]-CA--N-[C] |==|  0.18089
USER: genes 27 Torsion [N]-C--CA-[N] |==|  0.44046
USER: genes 28 Torsion [C]-CA--CB-[OG] |==|  0.20117
USER: genes 29 Torsion [CA]-CB--OG-[HG] |==|  0.00623
ROOT
ATOM      1  CA  PHE G  65     -23.370 -10.368 -14.343  1.00 79.88 LIG 0.18  C 
ENDROOT
BRANCH 1 2
ATOM      2  C   PHE G  65     -24.276 -10.248 -15.613  1.00 81.88 LIG 0.24  C 
ATOM      3 O    PHE G  65     -23.874 -10.598 -16.740  1.00 83.91 LIG-0.27  OA
ATOM      4  N   LEU G  66     -25.508  -9.800 -15.425  1.00 80.12 LIG-0.35  N 
ATOM      5 H    LEU G  66     -25.825  -9.586 -14.654  1.00 80.12 LIG 0.16  HD
BRANCH 4 6
ATOM      6  CA  LEU G  66     -26.454  -9.626 -16.535  1.00 73.95 LIG 0.18  C 
BRANCH 6 7
ATOM      7  C   LEU G  66     -26.264  -8.246 -17.210  1.00 70.37 LIG 0.24  C 
ATOM      8 O    LEU G  66     -26.892  -7.931 -18.243  1.00 65.91 LIG-0.27  OA
ATOM      9  N   LEU G  67     -25.391  -7.428 -16.613  1.00 70.17 LIG-0.35  N 
ATOM     10 H    LEU G  67     -25.011  -7.603 -15.861  1.00 70.17 LIG 0.16  HD
BRANCH 9 11
ATOM     11  CA  LEU G  67     -25.001  -6.146 -17.195  1.00 68.48 LIG 0.18  C 
BRANCH 11 12
ATOM     12  C   LEU G  67     -24.510  -6.366 -18.633  1.00 69.74 LIG 0.24  C 
ATOM     13  N   ASP G  68     -25.161  -5.693 -19.602  1.00 68.02 LIG-0.35  N 
ATOM     14 H    ASP G  68     -25.974  -5.426 -19.517  1.00 68.02 LIG 0.16  HD
ATOM     15 O    LEU G  67     -23.532  -7.094 -18.822  1.00 68.13 LIG-0.27  OA
BRANCH 13 16
ATOM     16  CA  ASP G  68     -24.558  -5.336 -20.918  1.00 74.55 LIG 0.17  C 
BRANCH 16 17
ATOM     17  C   ASP G  68     -24.807  -3.812 -21.139  1.00 77.35 LIG 0.22  C 
ATOM     18 O    ASP G  68     -25.765  -3.201 -20.654  1.00 79.38 LIG-0.29  OA
ENDBRANCH 16 17
BRANCH 16 19
ATOM     19  CB  ASP G  68     -25.215  -6.109 -22.076  1.00 74.32 LIG 0.15  C 
BRANCH 19 20
ATOM     20  CG  ASP G  68     -26.681  -5.663 -22.374  1.00 79.04 LIG 0.17  C 
ATOM     21 OD1  ASP G  68     -27.640  -6.321 -21.854  1.00 79.61 LIG-0.65  OA
ATOM     22 OD2  ASP G  68     -26.889  -4.662 -23.115  1.00 79.33 LIG-0.65  OA
ENDBRANCH 19 20
ENDBRANCH 16 19
ENDBRANCH 13 16
ENDBRANCH 11 12
BRANCH 11 23
ATOM     23  CB  LEU G  67     -23.988  -5.408 -16.325  1.00 63.56 LIG 0.04  C 
BRANCH 23 24
ATOM     24  CG  LEU G  67     -23.873  -3.948 -16.782  1.00 66.22 LIG-0.02  C 
ATOM     25  CD2 LEU G  67     -25.238  -3.370 -17.171  1.00 64.35 LIG 0.01  C 
ATOM     26  CD1 LEU G  67     -22.788  -3.745 -17.889  1.00 61.82 LIG 0.01  C 
ENDBRANCH 23 24
ENDBRANCH 11 23
ENDBRANCH 9 11
ENDBRANCH 6 7
BRANCH 6 27
ATOM     27  CB  LEU G  66     -27.856  -9.744 -15.970  1.00 68.20 LIG 0.04  C 
BRANCH 27 28
ATOM     28  CG  LEU G  66     -28.183 -10.507 -14.710  1.00 70.51 LIG-0.02  C 
ATOM     29  CD1 LEU G  66     -27.931  -9.766 -13.395  1.00 68.17 LIG 0.01  C 
ATOM     30  CD2 LEU G  66     -29.658 -10.859 -14.900  1.00 69.71 LIG 0.01  C 
ENDBRANCH 27 28
ENDBRANCH 6 27
ENDBRANCH 4 6
ENDBRANCH 1 2
BRANCH 1 31
ATOM     31  CB  PHE G  65     -22.522  -9.083 -14.184  1.00 81.70 LIG 0.07  C 
BRANCH 31 32
ATOM     32  CG  PHE G  65     -22.931  -8.250 -12.968  1.00 88.02 LIG-0.06  A 
ATOM     33  CD1 PHE G  65     -21.993  -7.435 -12.291  1.00 90.65 LIG 0.01  A 
ATOM     34  CE1 PHE G  65     -22.390  -6.632 -11.199  1.00 91.87 LIG 0.00  A 
ATOM     35  CZ  PHE G  65     -23.730  -6.614 -10.782  1.00 92.49 LIG 0.00  A 
ATOM     36  CE2 PHE G  65     -24.667  -7.390 -11.458  1.00 89.30 LIG 0.00  A 
ATOM     37  CD2 PHE G  65     -24.274  -8.192 -12.543  1.00 89.13 LIG 0.01  A 
ENDBRANCH 31 32
ENDBRANCH 1 31
BRANCH 1 38
ATOM     38  N   PHE G  65     -22.583 -11.633 -14.201  1.00 74.58 LIG-0.35  N 
ATOM     39  C   GLN G  64     -23.202 -12.828 -14.155  1.00 72.54 LIG 0.24  C 
ATOM     40 O    GLN G  64     -24.438 -12.950 -14.161  1.00 72.49 LIG-0.27  OA
ATOM     41 H    PHE G  65     -21.731 -11.524 -14.154  1.00 74.58 LIG 0.16  HD
BRANCH 39 42
ATOM     42  CA  GLN G  64     -22.345 -14.113 -14.148  1.00 69.04 LIG 0.18  C 
BRANCH 42 43
ATOM     43  CB  GLN G  64     -22.551 -14.982 -12.904  1.00 71.00 LIG 0.04  C 
BRANCH 43 44
ATOM     44  CG  GLN G  64     -22.725 -16.457 -13.187  1.00 72.96 LIG 0.10  C 
BRANCH 44 45
ATOM     45  CD  GLN G  64     -22.384 -16.863 -14.611  1.00 76.87 LIG 0.21  C 
ATOM     46 OE1  GLN G  64     -23.008 -16.433 -15.595  1.00 74.88 LIG-0.27  OA
ATOM     47  NE2 GLN G  64     -21.353 -17.689 -14.727  1.00 81.47 LIG-0.37  N 
ATOM     48 21HE GLN G  64     -20.943 -17.967 -14.023  1.00 81.47 LIG 0.16  HD
ATOM     49 22HE GLN G  64     -21.095 -17.947 -15.505  1.00 81.47 LIG 0.16  HD
ENDBRANCH 44 45
ENDBRANCH 43 44
ENDBRANCH 42 43
BRANCH 42 50
ATOM     50  N   GLN G  64     -20.941 -13.898 -14.374  1.00 68.17 LIG-0.35  N 
ATOM     51  C   LEU G  63     -20.444 -13.672 -15.594  1.00 67.58 LIG 0.24  C 
ATOM     52 O    LEU G  63     -21.138 -13.494 -16.621  1.00 63.10 LIG-0.27  OA
ATOM     53 H    GLN G  64     -20.461 -13.928 -13.661  1.00 68.17 LIG 0.16  HD
BRANCH 51 54
ATOM     54  CA  LEU G  63     -18.931 -13.591 -15.665  1.00 66.76 LIG 0.18  C 
BRANCH 54 55
ATOM     55  CB  LEU G  63     -18.454 -14.196 -16.996  1.00 69.31 LIG 0.04  C 
BRANCH 55 56
ATOM     56  CG  LEU G  63     -18.242 -13.279 -18.233  1.00 73.12 LIG-0.02  C 
ATOM     57  CD2 LEU G  63     -18.078 -14.006 -19.573  1.00 75.26 LIG 0.01  C 
ATOM     58  CD1 LEU G  63     -17.085 -12.320 -18.061  1.00 70.75 LIG 0.01  C 
ENDBRANCH 55 56
ENDBRANCH 54 55
BRANCH 54 59
ATOM     59  N   LEU G  63     -18.356 -14.291 -14.530  1.00 64.77 LIG-0.35  N 
ATOM     60  C   SER G  62     -18.466 -15.623 -14.326  1.00 63.11 LIG 0.26  C 
ATOM     61 O    SER G  62     -19.238 -16.406 -14.949  1.00 57.72 LIG-0.27  OA
ATOM     62 H    LEU G  63     -17.931 -13.773 -13.992  1.00 64.77 LIG 0.16  HD
BRANCH 60 63
ATOM     63  CA  SER G  62     -17.527 -16.118 -13.217  1.00 64.68 LIG 0.42  C 
ATOM     64  N   SER G  62     -17.965 -17.419 -12.623  1.00 67.72 LIG 0.62  N 
BRANCH 63 65
ATOM     65  CB  SER G  62     -16.066 -16.136 -13.705  1.00 62.74 LIG 0.21  C 
BRANCH 65 66
ATOM     66 OG   SER G  62     -15.533 -14.802 -13.826  1.00 60.63 LIG-0.40  OA
ATOM     67 HG   SER G  62     -16.110 -14.245 -13.577  1.00 60.63 LIG 0.21  HD
ENDBRANCH 65 66
ENDBRANCH 63 65
ENDBRANCH 60 63
ENDBRANCH 54 59
ENDBRANCH 51 54
ENDBRANCH 42 50
ENDBRANCH 39 42
ENDBRANCH 1 38
TORSDOF 28
ENDMDL
MODEL 18
USER: ADFR SOLUTION from run 2
USER: SCORE 21.087809 LL:  -5.862 LR: -15.494 RR:   0.000 FEB:  -7.142
USER: RMSD 6.680433
USER: SEED 178150
USER: STATUS 1 or 2 clusters left
USER: GENES 30
USER: genes 0 Translation |==|  0.55273 0.46729 0.65883
USER: genes 1 Rotation |==|  0.92497 0.33623 0.70619 0.50794
USER: genes 2 Torsion [N]-CA--C-[N] |==|  0.37767
USER: genes 3 Torsion [C]-N--CA-[C] |==|  0.76469
USER: genes 4 Torsion [N]-CA--C-[N] |==|  0.98276
USER: genes 5 Torsion [C]-N--CA-[C] |==|  0.85000
USER: genes 6 Torsion [N]-CA--C-[N] |==|  0.33910
USER: genes 7 Torsion [C]-N--CA-[CB] |==|  0.31240
USER: genes 8 Torsion [N]-CA--C-[O] |==|  0.92441
USER: genes 9 Torsion [N]-CA--CB-[CG] |==|  0.19565
USER: genes 10 Torsion [CA]-CB--CG-[OD2] |==|  0.23206
USER: genes 11 Torsion [N]-CA--CB-[CG] |==|  0.53732
USER: genes 12 Torsion [CA]-CB--CG-[CD2] |==|  0.10856
USER: genes 13 Torsion [N]-CA--CB-[CG] |==|  0.93265
USER: genes 14 Torsion [CA]-CB--CG-[CD1] |==|  0.22700
USER: genes 15 Torsion [C]-CA--CB-[CG] |==|  0.30782
USER: genes 16 Torsion [CA]-CB--CG-[CD1] |==|  0.41280
USER: genes 17 Torsion [C]-CA--N-[C] |==|  0.81818
USER: genes 18 Torsion [N]-C--CA-[N] |==|  0.99397
USER: genes 19 Torsion [C]-CA--CB-[CG] |==|  0.34258
USER: genes 20 Torsion [CA]-CB--CG-[CD] |==|  0.09096
USER: genes 21 Torsion [CB]-CG--CD-[NE2] |==|  0.25495
USER: genes 22 Torsion [C]-CA--N-[C] |==|  0.75209
USER: genes 23 Torsion [N]-C--CA-[N] |==|  0.87617
USER: genes 24 Torsion [C]-CA--CB-[CG] |==|  0.24464
USER: genes 25 Torsion [CA]-CB--CG-[CD2] |==|  0.89509
USER: genes 26 Torsion [C]-CA--N-[C] |==|  0.85449
USER: genes 27 Torsion [N]-C--CA-[N] |==|  0.27127
USER: genes 28 Torsion [C]-CA--CB-[OG] |==|  0.21588
USER: genes 29 Torsion [CA]-CB--OG-[HG] |==|  0.96020
ROOT
ATOM      1  CA  PHE G  65     -23.276 -10.383 -14.433  1.00 79.88 LIG 0.18  C 
ENDROOT
BRANCH 1 2
ATOM      2  C   PHE G  65     -24.203 -10.257 -15.688  1.00 81.88 LIG 0.24  C 
ATOM      3 O    PHE G  65     -23.811 -10.583 -16.825  1.00 83.91 LIG-0.27  OA
ATOM      4  N   LEU G  66     -25.437  -9.829 -15.475  1.00 80.12 LIG-0.35  N 
ATOM      5 H    LEU G  66     -25.746  -9.631 -14.697  1.00 80.12 LIG 0.16  HD
BRANCH 4 6
ATOM      6  CA  LEU G  66     -26.402  -9.652 -16.569  1.00 73.95 LIG 0.18  C 
BRANCH 6 7
ATOM      7  C   LEU G  66     -26.230  -8.266 -17.237  1.00 70.37 LIG 0.24  C 
ATOM      8 O    LEU G  66     -26.870  -7.950 -18.262  1.00 65.91 LIG-0.27  OA
ATOM      9  N   LEU G  67     -25.358  -7.444 -16.643  1.00 70.17 LIG-0.35  N 
ATOM     10 H    LEU G  67     -24.969  -7.622 -15.896  1.00 70.17 LIG 0.16  HD
BRANCH 9 11
ATOM     11  CA  LEU G  67     -24.984  -6.156 -17.219  1.00 68.48 LIG 0.18  C 
BRANCH 11 12
ATOM     12  C   LEU G  67     -24.493  -6.364 -18.660  1.00 69.74 LIG 0.24  C 
ATOM     13  N   ASP G  68     -25.152  -5.693 -19.624  1.00 68.02 LIG-0.35  N 
ATOM     14 H    ASP G  68     -25.968  -5.434 -19.536  1.00 68.02 LIG 0.16  HD
ATOM     15 O    LEU G  67     -23.508  -7.081 -18.854  1.00 68.13 LIG-0.27  OA
BRANCH 13 16
ATOM     16  CA  ASP G  68     -24.556  -5.324 -20.939  1.00 74.55 LIG 0.17  C 
BRANCH 16 17
ATOM     17  C   ASP G  68     -24.812  -3.799 -21.149  1.00 77.35 LIG 0.22  C 
ATOM     18 O    ASP G  68     -25.762  -3.192 -20.645  1.00 79.38 LIG-0.29  OA
ENDBRANCH 16 17
BRANCH 16 19
ATOM     19  CB  ASP G  68     -25.214  -6.090 -22.101  1.00 74.32 LIG 0.15  C 
BRANCH 19 20
ATOM     20  CG  ASP G  68     -26.678  -5.639 -22.399  1.00 79.04 LIG 0.17  C 
ATOM     21 OD1  ASP G  68     -27.640  -6.301 -21.888  1.00 79.61 LIG-0.65  OA
ATOM     22 OD2  ASP G  68     -26.883  -4.630 -23.129  1.00 79.33 LIG-0.65  OA
ENDBRANCH 19 20
ENDBRANCH 16 19
ENDBRANCH 13 16
ENDBRANCH 11 12
BRANCH 11 23
ATOM     23  CB  LEU G  67     -23.977  -5.410 -16.349  1.00 63.56 LIG 0.04  C 
BRANCH 23 24
ATOM     24  CG  LEU G  67     -23.872  -3.950 -16.807  1.00 66.22 LIG-0.02  C 
ATOM     25  CD2 LEU G  67     -25.239  -3.381 -17.198  1.00 64.35 LIG 0.01  C 
ATOM     26  CD1 LEU G  67     -22.786  -3.740 -17.912  1.00 61.82 LIG 0.01  C 
ENDBRANCH 23 24
ENDBRANCH 11 23
ENDBRANCH 9 11
ENDBRANCH 6 7
BRANCH 6 27
ATOM     27  CB  LEU G  66     -27.795  -9.781 -15.983  1.00 68.20 LIG 0.04  C 
BRANCH 27 28
ATOM     28  CG  LEU G  66     -28.095 -10.537 -14.712  1.00 70.51 LIG-0.02  C 
ATOM     29  CD1 LEU G  66     -27.837  -9.781 -13.407  1.00 68.17 LIG 0.01  C 
ATOM     30  CD2 LEU G  66     -29.567 -10.912 -14.881  1.00 69.71 LIG 0.01  C 
ENDBRANCH 27 28
ENDBRANCH 6 27
ENDBRANCH 4 6
ENDBRANCH 1 2
BRANCH 1 31
ATOM     31  CB  PHE G  65     -22.470  -9.075 -14.246  1.00 81.70 LIG 0.07  C 
BRANCH 31 32
ATOM     32  CG  PHE G  65     -22.902  -8.284 -13.010  1.00 88.02 LIG-0.06  A 
ATOM     33  CD1 PHE G  65     -21.976  -7.494 -12.288  1.00 90.65 LIG 0.01  A 
ATOM     34  CE1 PHE G  65     -22.393  -6.729 -11.177  1.00 91.87 LIG 0.00  A 
ATOM     35  CZ  PHE G  65     -23.741  -6.723 -10.785  1.00 92.49 LIG 0.00  A 
ATOM     36  CE2 PHE G  65     -24.665  -7.475 -11.504  1.00 89.30 LIG 0.00  A 
ATOM     37  CD2 PHE G  65     -24.252  -8.239 -12.608  1.00 89.13 LIG 0.01  A 
ENDBRANCH 31 32
ENDBRANCH 1 31
BRANCH 1 38
ATOM     38  N   PHE G  65     -22.447 -11.624 -14.338  1.00 74.58 LIG-0.35  N 
ATOM     39  C   GLN G  64     -23.025 -12.831 -14.184  1.00 72.54 LIG 0.24  C 
ATOM     40 O    GLN G  64     -24.251 -12.979 -14.050  1.00 72.49 LIG-0.27  OA
ATOM     41 H    PHE G  65     -21.598 -11.495 -14.388  1.00 74.58 LIG 0.16  HD
BRANCH 39 42
ATOM     42  CA  GLN G  64     -22.140 -14.095 -14.230  1.00 69.04 LIG 0.18  C 
BRANCH 42 43
ATOM     43  CB  GLN G  64     -22.293 -14.996 -13.002  1.00 71.00 LIG 0.04  C 
BRANCH 43 44
ATOM     44  CG  GLN G  64     -22.695 -16.420 -13.310  1.00 72.96 LIG 0.10  C 
BRANCH 44 45
ATOM     45  CD  GLN G  64     -22.153 -16.950 -14.627  1.00 76.87 LIG 0.21  C 
ATOM     46 OE1  GLN G  64     -22.745 -16.785 -15.706  1.00 74.88 LIG-0.27  OA
ATOM     47  NE2 GLN G  64     -20.989 -17.578 -14.543  1.00 81.47 LIG-0.37  N 
ATOM     48 21HE GLN G  64     -20.606 -17.674 -13.779  1.00 81.47 LIG 0.16  HD
ATOM     49 22HE GLN G  64     -20.616 -17.889 -15.253  1.00 81.47 LIG 0.16  HD
ENDBRANCH 44 45
ENDBRANCH 43 44
ENDBRANCH 42 43
BRANCH 42 50
ATOM     50  N   GLN G  64     -20.748 -13.843 -14.489  1.00 68.17 LIG-0.35  N 
ATOM     51  C   LEU G  63     -20.253 -13.796 -15.729  1.00 67.58 LIG 0.24  C 
ATOM     52 O    LEU G  63     -20.947 -13.830 -16.771  1.00 63.10 LIG-0.27  OA
ATOM     53 H    GLN G  64     -20.274 -13.727 -13.781  1.00 68.17 LIG 0.16  HD
BRANCH 51 54
ATOM     54  CA  LEU G  63     -18.747 -13.643 -15.813  1.00 66.76 LIG 0.18  C 
BRANCH 54 55
ATOM     55  CB  LEU G  63     -18.084 -15.001 -15.522  1.00 69.31 LIG 0.04  C 
BRANCH 55 56
ATOM     56  CG  LEU G  63     -17.832 -16.005 -16.681  1.00 73.12 LIG-0.02  C 
ATOM     57  CD2 LEU G  63     -18.930 -16.070 -17.749  1.00 75.26 LIG 0.01  C 
ATOM     58  CD1 LEU G  63     -17.556 -17.410 -16.190  1.00 70.75 LIG 0.01  C 
ENDBRANCH 55 56
ENDBRANCH 54 55
BRANCH 54 59
ATOM     59  N   LEU G  63     -18.311 -12.630 -14.869  1.00 64.77 LIG-0.35  N 
ATOM     60  C   SER G  62     -18.828 -11.383 -14.802  1.00 63.11 LIG 0.26  C 
ATOM     61 O    SER G  62     -19.592 -10.851 -15.657  1.00 57.72 LIG-0.27  OA
ATOM     62 H    LEU G  63     -17.683 -12.901 -14.347  1.00 64.77 LIG 0.16  HD
BRANCH 60 63
ATOM     63  CA  SER G  62     -18.380 -10.637 -13.536  1.00 64.68 LIG 0.42  C 
ATOM     64  N   SER G  62     -17.222  -9.723 -13.781  1.00 67.72 LIG 0.62  N 
BRANCH 63 65
ATOM     65  CB  SER G  62     -19.575  -9.937 -12.863  1.00 62.74 LIG 0.21  C 
BRANCH 65 66
ATOM     66 OG   SER G  62     -20.387 -10.870 -12.122  1.00 60.63 LIG-0.40  OA
ATOM     67 HG   SER G  62     -20.184 -11.655 -12.343  1.00 60.63 LIG 0.21  HD
ENDBRANCH 65 66
ENDBRANCH 63 65
ENDBRANCH 60 63
ENDBRANCH 54 59
ENDBRANCH 51 54
ENDBRANCH 42 50
ENDBRANCH 39 42
ENDBRANCH 1 38
TORSDOF 28
ENDMDL
MODEL 19
USER: ADFR SOLUTION from run 87
USER: SCORE 19.746648 LL:  -5.618 LR: -15.453 RR:   0.000 FEB:  -7.100
USER: RMSD 7.270073
USER: SEED 86
USER: STATUS no improvement in best in 6 clusters for 5 generations
USER: GENES 30
USER: genes 0 Translation |==|  0.46162 0.51253 0.74089
USER: genes 1 Rotation |==|  0.09003 0.59442 0.28462 0.66316
USER: genes 2 Torsion [N]-CA--C-[N] |==|  0.92386
USER: genes 3 Torsion [C]-N--CA-[C] |==|  0.83605
USER: genes 4 Torsion [N]-CA--C-[N] |==|  0.31601
USER: genes 5 Torsion [C]-N--CA-[C] |==|  0.69566
USER: genes 6 Torsion [N]-CA--C-[N] |==|  0.72236
USER: genes 7 Torsion [C]-N--CA-[CB] |==|  0.52969
USER: genes 8 Torsion [N]-CA--C-[O] |==|  0.34119
USER: genes 9 Torsion [N]-CA--CB-[CG] |==|  0.44336
USER: genes 10 Torsion [CA]-CB--CG-[OD2] |==|  0.17957
USER: genes 11 Torsion [N]-CA--CB-[CG] |==|  0.04386
USER: genes 12 Torsion [CA]-CB--CG-[CD2] |==|  0.68072
USER: genes 13 Torsion [N]-CA--CB-[CG] |==|  0.10276
USER: genes 14 Torsion [CA]-CB--CG-[CD1] |==|  0.23121
USER: genes 15 Torsion [C]-CA--CB-[CG] |==|  0.80478
USER: genes 16 Torsion [CA]-CB--CG-[CD1] |==|  0.17809
USER: genes 17 Torsion [C]-CA--N-[C] |==|  0.85000
USER: genes 18 Torsion [N]-C--CA-[N] |==|  0.46396
USER: genes 19 Torsion [C]-CA--CB-[CG] |==|  0.31862
USER: genes 20 Torsion [CA]-CB--CG-[CD] |==|  0.81955
USER: genes 21 Torsion [CB]-CG--CD-[NE2] |==|  0.82641
USER: genes 22 Torsion [C]-CA--N-[C] |==|  0.73932
USER: genes 23 Torsion [N]-C--CA-[N] |==|  0.37071
USER: genes 24 Torsion [C]-CA--CB-[CG] |==|  0.75705
USER: genes 25 Torsion [CA]-CB--CG-[CD2] |==|  0.59577
USER: genes 26 Torsion [C]-CA--N-[C] |==|  0.79828
USER: genes 27 Torsion [N]-C--CA-[N] |==|  0.88044
USER: genes 28 Torsion [C]-CA--CB-[OG] |==|  0.94579
USER: genes 29 Torsion [CA]-CB--OG-[HG] |==|  0.77368
ROOT
ATOM      1  CA  PHE G  65     -24.985  -9.501 -12.833  1.00 79.88 LIG 0.18  C 
ENDROOT
BRANCH 1 2
ATOM      2  C   PHE G  65     -25.647  -9.158 -14.208  1.00 81.88 LIG 0.24  C 
ATOM      3 O    PHE G  65     -26.883  -9.041 -14.328  1.00 83.91 LIG-0.27  OA
ATOM      4  N   LEU G  66     -24.829  -8.954 -15.228  1.00 80.12 LIG-0.35  N 
ATOM      5 H    LEU G  66     -23.972  -8.992 -15.167  1.00 80.12 LIG 0.16  HD
BRANCH 4 6
ATOM      6  CA  LEU G  66     -25.323  -8.640 -16.576  1.00 73.95 LIG 0.18  C 
BRANCH 6 7
ATOM      7  C   LEU G  66     -26.243  -9.769 -17.102  1.00 70.37 LIG 0.24  C 
ATOM      8 O    LEU G  66     -25.803 -10.912 -17.346  1.00 65.91 LIG-0.27  OA
ATOM      9  N   LEU G  67     -27.527  -9.434 -17.272  1.00 70.17 LIG-0.35  N 
ATOM     10 H    LEU G  67     -27.856  -8.675 -17.036  1.00 70.17 LIG 0.16  HD
BRANCH 9 11
ATOM     11  CA  LEU G  67     -28.495 -10.341 -17.882  1.00 68.48 LIG 0.18  C 
BRANCH 11 12
ATOM     12  C   LEU G  67     -28.885  -9.814 -19.271  1.00 69.74 LIG 0.24  C 
ATOM     13  N   ASP G  68     -30.053  -9.149 -19.357  1.00 68.02 LIG-0.35  N 
ATOM     14 H    ASP G  68     -30.700  -9.272 -18.804  1.00 68.02 LIG 0.16  HD
ATOM     15 O    LEU G  67     -28.102  -9.979 -20.210  1.00 68.13 LIG-0.27  OA
BRANCH 13 16
ATOM     16  CA  ASP G  68     -30.359  -8.135 -20.406  1.00 74.55 LIG 0.17  C 
BRANCH 16 17
ATOM     17  C   ASP G  68     -29.174  -7.120 -20.424  1.00 77.35 LIG 0.22  C 
ATOM     18 O    ASP G  68     -28.500  -6.878 -21.430  1.00 79.38 LIG-0.29  OA
ENDBRANCH 16 17
BRANCH 16 19
ATOM     19  CB  ASP G  68     -31.654  -7.363 -20.094  1.00 74.32 LIG 0.15  C 
BRANCH 19 20
ATOM     20  CG  ASP G  68     -31.763  -5.996 -20.840  1.00 79.04 LIG 0.17  C 
ATOM     21 OD1  ASP G  68     -31.765  -4.922 -20.154  1.00 79.61 LIG-0.65  OA
ATOM     22 OD2  ASP G  68     -31.841  -5.978 -22.099  1.00 79.33 LIG-0.65  OA
ENDBRANCH 19 20
ENDBRANCH 16 19
ENDBRANCH 13 16
ENDBRANCH 11 12
BRANCH 11 23
ATOM     23  CB  LEU G  67     -29.699 -10.584 -16.978  1.00 63.56 LIG 0.04  C 
BRANCH 23 24
ATOM     24  CG  LEU G  67     -29.746  -9.521 -15.873  1.00 66.22 LIG-0.02  C 
ATOM     25  CD2 LEU G  67     -29.538 -10.137 -14.486  1.00 64.35 LIG 0.01  C 
ATOM     26  CD1 LEU G  67     -31.020  -8.620 -15.954  1.00 61.82 LIG 0.01  C 
ENDBRANCH 23 24
ENDBRANCH 11 23
ENDBRANCH 9 11
ENDBRANCH 6 7
BRANCH 6 27
ATOM     27  CB  LEU G  66     -24.120  -8.481 -17.485  1.00 68.20 LIG 0.04  C 
BRANCH 27 28
ATOM     28  CG  LEU G  66     -22.874  -9.324 -17.370  1.00 70.51 LIG-0.02  C 
ATOM     29  CD1 LEU G  66     -22.922 -10.687 -18.064  1.00 68.17 LIG 0.01  C 
ATOM     30  CD2 LEU G  66     -21.794  -8.416 -17.957  1.00 69.71 LIG 0.01  C 
ENDBRANCH 27 28
ENDBRANCH 6 27
ENDBRANCH 4 6
ENDBRANCH 1 2
BRANCH 1 31
ATOM     31  CB  PHE G  65     -25.026  -8.259 -11.911  1.00 81.70 LIG 0.07  C 
BRANCH 31 32
ATOM     32  CG  PHE G  65     -24.081  -7.147 -12.371  1.00 88.02 LIG-0.06  A 
ATOM     33  CD1 PHE G  65     -24.275  -6.488 -13.609  1.00 90.65 LIG 0.01  A 
ATOM     34  CE1 PHE G  65     -23.427  -5.430 -14.004  1.00 91.87 LIG 0.00  A 
ATOM     35  CZ  PHE G  65     -22.390  -5.001 -13.161  1.00 92.49 LIG 0.00  A 
ATOM     36  CE2 PHE G  65     -22.206  -5.622 -11.930  1.00 89.30 LIG 0.00  A 
ATOM     37  CD2 PHE G  65     -23.047  -6.677 -11.536  1.00 89.13 LIG 0.01  A 
ENDBRANCH 31 32
ENDBRANCH 1 31
BRANCH 1 38
ATOM     38  N   PHE G  65     -23.649 -10.172 -12.883  1.00 74.58 LIG-0.35  N 
ATOM     39  C   GLN G  64     -23.473 -11.304 -13.592  1.00 72.54 LIG 0.24  C 
ATOM     40 O    GLN G  64     -24.400 -11.884 -14.181  1.00 72.49 LIG-0.27  OA
ATOM     41 H    PHE G  65     -23.030  -9.780 -12.433  1.00 74.58 LIG 0.16  HD
BRANCH 39 42
ATOM     42  CA  GLN G  64     -22.049 -11.885 -13.729  1.00 69.04 LIG 0.18  C 
BRANCH 42 43
ATOM     43  CB  GLN G  64     -21.092 -10.983 -14.514  1.00 71.00 LIG 0.04  C 
BRANCH 43 44
ATOM     44  CG  GLN G  64     -19.942 -10.427 -13.704  1.00 72.96 LIG 0.10  C 
BRANCH 44 45
ATOM     45  CD  GLN G  64     -20.363  -9.479 -12.594  1.00 76.87 LIG 0.21  C 
ATOM     46 OE1  GLN G  64     -20.131  -9.709 -11.397  1.00 74.88 LIG-0.27  OA
ATOM     47  NE2 GLN G  64     -20.973  -8.374 -13.002  1.00 81.47 LIG-0.37  N 
ATOM     48 21HE GLN G  64     -21.118  -8.247 -13.840  1.00 81.47 LIG 0.16  HD
ATOM     49 22HE GLN G  64     -21.224  -7.785 -12.428  1.00 81.47 LIG 0.16  HD
ENDBRANCH 44 45
ENDBRANCH 43 44
ENDBRANCH 42 43
BRANCH 42 50
ATOM     50  N   GLN G  64     -21.995 -13.227 -14.242  1.00 68.17 LIG-0.35  N 
ATOM     51  C   LEU G  63     -21.956 -14.294 -13.438  1.00 67.58 LIG 0.24  C 
ATOM     52 O    LEU G  63     -22.095 -14.250 -12.194  1.00 63.10 LIG-0.27  OA
ATOM     53 H    GLN G  64     -21.991 -13.277 -15.101  1.00 68.17 LIG 0.16  HD
BRANCH 51 54
ATOM     54  CA  LEU G  63     -21.778 -15.624 -14.145  1.00 66.76 LIG 0.18  C 
BRANCH 54 55
ATOM     55  CB  LEU G  63     -23.124 -16.369 -14.167  1.00 69.31 LIG 0.04  C 
BRANCH 55 56
ATOM     56  CG  LEU G  63     -23.524 -17.283 -12.975  1.00 73.12 LIG-0.02  C 
ATOM     57  CD2 LEU G  63     -24.333 -18.533 -13.344  1.00 75.26 LIG 0.01  C 
ATOM     58  CD1 LEU G  63     -24.262 -16.537 -11.886  1.00 70.75 LIG 0.01  C 
ENDBRANCH 55 56
ENDBRANCH 54 55
BRANCH 54 59
ATOM     59  N   LEU G  63     -20.756 -16.400 -13.466  1.00 64.77 LIG-0.35  N 
ATOM     60  C   SER G  62     -19.433 -16.123 -13.518  1.00 63.11 LIG 0.26  C 
ATOM     61 O    SER G  62     -18.879 -15.308 -14.309  1.00 57.72 LIG-0.27  OA
ATOM     62 H    LEU G  63     -21.074 -17.062 -13.019  1.00 64.77 LIG 0.16  HD
BRANCH 60 63
ATOM     63  CA  SER G  62     -18.632 -16.927 -12.484  1.00 64.68 LIG 0.42  C 
ATOM     64  N   SER G  62     -19.299 -16.979 -11.146  1.00 67.72 LIG 0.62  N 
BRANCH 63 65
ATOM     65  CB  SER G  62     -18.270 -18.319 -13.036  1.00 62.74 LIG 0.21  C 
BRANCH 65 66
ATOM     66 OG   SER G  62     -19.120 -18.688 -14.141  1.00 60.63 LIG-0.40  OA
ATOM     67 HG   SER G  62     -19.849 -18.987 -13.847  1.00 60.63 LIG 0.21  HD
ENDBRANCH 65 66
ENDBRANCH 63 65
ENDBRANCH 60 63
ENDBRANCH 54 59
ENDBRANCH 51 54
ENDBRANCH 42 50
ENDBRANCH 39 42
ENDBRANCH 1 38
TORSDOF 28
ENDMDL
MODEL 20
USER: ADFR SOLUTION from run 29
USER: SCORE 19.504371 LL:  -6.048 LR: -15.379 RR:   0.000 FEB:  -7.027
USER: RMSD 6.520714
USER: SEED 28
USER: STATUS no improvement in best in 3 clusters for 5 generations
USER: GENES 30
USER: genes 0 Translation |==|  0.50298 0.52706 0.63585
USER: genes 1 Rotation |==|  0.15464 0.50705 0.22077 0.72958
USER: genes 2 Torsion [N]-CA--C-[N] |==|  0.63824
USER: genes 3 Torsion [C]-N--CA-[C] |==|  0.81211
USER: genes 4 Torsion [N]-CA--C-[N] |==|  0.38700
USER: genes 5 Torsion [C]-N--CA-[C] |==|  0.62239
USER: genes 6 Torsion [N]-CA--C-[N] |==|  0.00475
USER: genes 7 Torsion [C]-N--CA-[CB] |==|  0.42759
USER: genes 8 Torsion [N]-CA--C-[O] |==|  0.13527
USER: genes 9 Torsion [N]-CA--CB-[CG] |==|  0.27891
USER: genes 10 Torsion [CA]-CB--CG-[OD2] |==|  0.23540
USER: genes 11 Torsion [N]-CA--CB-[CG] |==|  0.78891
USER: genes 12 Torsion [CA]-CB--CG-[CD2] |==|  0.63830
USER: genes 13 Torsion [N]-CA--CB-[CG] |==|  0.21211
USER: genes 14 Torsion [CA]-CB--CG-[CD1] |==|  0.90634
USER: genes 15 Torsion [C]-CA--CB-[CG] |==|  0.70250
USER: genes 16 Torsion [CA]-CB--CG-[CD1] |==|  0.75247
USER: genes 17 Torsion [C]-CA--N-[C] |==|  0.64444
USER: genes 18 Torsion [N]-C--CA-[N] |==|  0.69362
USER: genes 19 Torsion [C]-CA--CB-[CG] |==|  0.46115
USER: genes 20 Torsion [CA]-CB--CG-[CD] |==|  0.34662
USER: genes 21 Torsion [CB]-CG--CD-[NE2] |==|  0.75563
USER: genes 22 Torsion [C]-CA--N-[C] |==|  0.17721
USER: genes 23 Torsion [N]-C--CA-[N] |==|  0.06631
USER: genes 24 Torsion [C]-CA--CB-[CG] |==|  0.85514
USER: genes 25 Torsion [CA]-CB--CG-[CD2] |==|  0.29051
USER: genes 26 Torsion [C]-CA--N-[C] |==|  0.69540
USER: genes 27 Torsion [N]-C--CA-[N] |==|  0.58630
USER: genes 28 Torsion [C]-CA--CB-[OG] |==|  0.83674
USER: genes 29 Torsion [CA]-CB--OG-[HG] |==|  0.89219
ROOT
ATOM      1  CA  PHE G  65     -24.209  -9.217 -14.881  1.00 79.88 LIG 0.18  C 
ENDROOT
BRANCH 1 2
ATOM      2  C   PHE G  65     -24.246  -8.817 -16.394  1.00 81.88 LIG 0.24  C 
ATOM      3 O    PHE G  65     -23.717  -9.528 -17.271  1.00 83.91 LIG-0.27  OA
ATOM      4  N   LEU G  66     -24.905  -7.711 -16.701  1.00 80.12 LIG-0.35  N 
ATOM      5 H    LEU G  66     -25.310  -7.221 -16.122  1.00 80.12 LIG 0.16  HD
BRANCH 4 6
ATOM      6  CA  LEU G  66     -25.001  -7.217 -18.081  1.00 73.95 LIG 0.18  C 
BRANCH 6 7
ATOM      7  C   LEU G  66     -23.620  -6.745 -18.595  1.00 70.37 LIG 0.24  C 
ATOM      8 O    LEU G  66     -22.835  -6.104 -17.866  1.00 65.91 LIG-0.27  OA
ATOM      9  N   LEU G  67     -23.334  -7.071 -19.861  1.00 70.17 LIG-0.35  N 
ATOM     10 H    LEU G  67     -23.832  -7.576 -20.347  1.00 70.17 LIG 0.16  HD
BRANCH 9 11
ATOM     11  CA  LEU G  67     -22.132  -6.590 -20.536  1.00 68.48 LIG 0.18  C 
BRANCH 11 12
ATOM     12  C   LEU G  67     -22.493  -6.128 -21.956  1.00 69.74 LIG 0.24  C 
ATOM     13  N   ASP G  68     -23.792  -6.206 -22.302  1.00 68.02 LIG-0.35  N 
ATOM     14 H    ASP G  68     -24.340  -6.757 -21.933  1.00 68.02 LIG 0.16  HD
ATOM     15 O    LEU G  67     -21.602  -5.672 -22.677  1.00 68.13 LIG-0.27  OA
BRANCH 13 16
ATOM     16  CA  ASP G  68     -24.427  -5.360 -23.352  1.00 74.55 LIG 0.17  C 
BRANCH 16 17
ATOM     17  C   ASP G  68     -24.903  -4.046 -22.658  1.00 77.35 LIG 0.22  C 
ATOM     18 O    ASP G  68     -24.186  -3.372 -21.911  1.00 79.38 LIG-0.29  OA
ENDBRANCH 16 17
BRANCH 16 19
ATOM     19  CB  ASP G  68     -25.654  -6.049 -23.978  1.00 74.32 LIG 0.15  C 
BRANCH 19 20
ATOM     20  CG  ASP G  68     -27.015  -5.537 -23.413  1.00 79.04 LIG 0.17  C 
ATOM     21 OD1  ASP G  68     -27.563  -6.178 -22.457  1.00 79.61 LIG-0.65  OA
ATOM     22 OD2  ASP G  68     -27.544  -4.501 -23.904  1.00 79.33 LIG-0.65  OA
ENDBRANCH 19 20
ENDBRANCH 16 19
ENDBRANCH 13 16
ENDBRANCH 11 12
BRANCH 11 23
ATOM     23  CB  LEU G  67     -21.011  -7.624 -20.514  1.00 63.56 LIG 0.04  C 
BRANCH 23 24
ATOM     24  CG  LEU G  67     -20.367  -7.666 -19.121  1.00 66.22 LIG-0.02  C 
ATOM     25  CD2 LEU G  67     -18.840  -7.572 -19.202  1.00 64.35 LIG 0.01  C 
ATOM     26  CD1 LEU G  67     -20.858  -8.878 -18.265  1.00 61.82 LIG 0.01  C 
ENDBRANCH 23 24
ENDBRANCH 11 23
ENDBRANCH 9 11
ENDBRANCH 6 7
BRANCH 6 27
ATOM     27  CB  LEU G  66     -25.986  -6.064 -18.092  1.00 68.20 LIG 0.04  C 
BRANCH 27 28
ATOM     28  CG  LEU G  66     -25.652  -4.681 -17.589  1.00 70.51 LIG-0.02  C 
ATOM     29  CD1 LEU G  66     -24.683  -4.615 -16.406  1.00 68.17 LIG 0.01  C 
ATOM     30  CD2 LEU G  66     -25.091  -3.994 -18.834  1.00 69.71 LIG 0.01  C 
ENDBRANCH 27 28
ENDBRANCH 6 27
ENDBRANCH 4 6
ENDBRANCH 1 2
BRANCH 1 31
ATOM     31  CB  PHE G  65     -25.011  -8.188 -14.050  1.00 81.70 LIG 0.07  C 
BRANCH 31 32
ATOM     32  CG  PHE G  65     -24.115  -7.269 -13.218  1.00 88.02 LIG-0.06  A 
ATOM     33  CD1 PHE G  65     -23.723  -7.624 -11.905  1.00 90.65 LIG 0.01  A 
ATOM     34  CE1 PHE G  65     -22.856  -6.792 -11.162  1.00 91.87 LIG 0.00  A 
ATOM     35  CZ  PHE G  65     -22.352  -5.609 -11.725  1.00 92.49 LIG 0.00  A 
ATOM     36  CE2 PHE G  65     -22.709  -5.264 -13.025  1.00 89.30 LIG 0.00  A 
ATOM     37  CD2 PHE G  65     -23.573  -6.089 -13.766  1.00 89.13 LIG 0.01  A 
ENDBRANCH 31 32
ENDBRANCH 1 31
BRANCH 1 38
ATOM     38  N   PHE G  65     -22.866  -9.542 -14.308  1.00 74.58 LIG-0.35  N 
ATOM     39  C   GLN G  64     -22.661 -10.693 -13.640  1.00 72.54 LIG 0.24  C 
ATOM     40 O    GLN G  64     -23.568 -11.509 -13.405  1.00 72.49 LIG-0.27  OA
ATOM     41 H    PHE G  65     -22.262  -8.944 -14.443  1.00 74.58 LIG 0.16  HD
BRANCH 39 42
ATOM     42  CA  GLN G  64     -21.228 -11.050 -13.188  1.00 69.04 LIG 0.18  C 
BRANCH 42 43
ATOM     43  CB  GLN G  64     -20.271  -9.854 -13.184  1.00 71.00 LIG 0.04  C 
BRANCH 43 44
ATOM     44  CG  GLN G  64     -18.974 -10.087 -12.444  1.00 72.96 LIG 0.10  C 
BRANCH 44 45
ATOM     45  CD  GLN G  64     -17.727  -9.829 -13.274  1.00 76.87 LIG 0.21  C 
ATOM     46 OE1  GLN G  64     -17.144  -8.733 -13.279  1.00 74.88 LIG-0.27  OA
ATOM     47  NE2 GLN G  64     -17.292 -10.870 -13.971  1.00 81.47 LIG-0.37  N 
ATOM     48 21HE GLN G  64     -17.721 -11.615 -13.944  1.00 81.47 LIG 0.16  HD
ATOM     49 22HE GLN G  64     -16.582 -10.799 -14.451  1.00 81.47 LIG 0.16  HD
ENDBRANCH 44 45
ENDBRANCH 43 44
ENDBRANCH 42 43
BRANCH 42 50
ATOM     50  N   GLN G  64     -20.635 -12.155 -13.890  1.00 68.17 LIG-0.35  N 
ATOM     51  C   LEU G  63     -20.381 -12.110 -15.201  1.00 67.58 LIG 0.24  C 
ATOM     52 O    LEU G  63     -20.501 -11.086 -15.912  1.00 63.10 LIG-0.27  OA
ATOM     53 H    GLN G  64     -20.463 -12.836 -13.393  1.00 68.17 LIG 0.16  HD
BRANCH 51 54
ATOM     54  CA  LEU G  63     -19.870 -13.407 -15.800  1.00 66.76 LIG 0.18  C 
BRANCH 54 55
ATOM     55  CB  LEU G  63     -20.400 -13.544 -17.237  1.00 69.31 LIG 0.04  C 
BRANCH 55 56
ATOM     56  CG  LEU G  63     -21.921 -13.399 -17.520  1.00 73.12 LIG-0.02  C 
ATOM     57  CD2 LEU G  63     -22.350 -12.074 -18.164  1.00 75.26 LIG 0.01  C 
ATOM     58  CD1 LEU G  63     -22.771 -13.632 -16.290  1.00 70.75 LIG 0.01  C 
ENDBRANCH 55 56
ENDBRANCH 54 55
BRANCH 54 59
ATOM     59  N   LEU G  63     -20.294 -14.522 -14.972  1.00 64.77 LIG-0.35  N 
ATOM     60  C   SER G  62     -19.458 -15.258 -14.204  1.00 63.11 LIG 0.26  C 
ATOM     61 O    SER G  62     -18.196 -15.231 -14.249  1.00 57.72 LIG-0.27  OA
ATOM     62 H    LEU G  63     -21.139 -14.674 -15.015  1.00 64.77 LIG 0.16  HD
BRANCH 60 63
ATOM     63  CA  SER G  62     -20.219 -16.170 -13.232  1.00 64.68 LIG 0.42  C 
ATOM     64  N   SER G  62     -19.475 -16.407 -11.956  1.00 67.72 LIG 0.62  N 
BRANCH 63 65
ATOM     65  CB  SER G  62     -21.655 -15.658 -13.011  1.00 62.74 LIG 0.21  C 
BRANCH 65 66
ATOM     66 OG   SER G  62     -21.662 -14.315 -12.486  1.00 60.63 LIG-0.40  OA
ATOM     67 HG   SER G  62     -21.040 -14.228 -11.928  1.00 60.63 LIG 0.21  HD
ENDBRANCH 65 66
ENDBRANCH 63 65
ENDBRANCH 60 63
ENDBRANCH 54 59
ENDBRANCH 51 54
ENDBRANCH 42 50
ENDBRANCH 39 42
ENDBRANCH 1 38
TORSDOF 28
ENDMDL
MODEL 21
USER: ADFR SOLUTION from run 140
USER: SCORE 22.334180 LL:  -7.416 LR: -15.345 RR:   0.000 FEB:  -6.993
USER: RMSD 5.040476
USER: SEED 139
USER: STATUS 1 or 2 clusters left
USER: GENES 30
USER: genes 0 Translation |==|  0.48987 0.52330 0.53439
USER: genes 1 Rotation |==|  0.50763 0.53880 0.29747 0.95543
USER: genes 2 Torsion [N]-CA--C-[N] |==|  0.99839
USER: genes 3 Torsion [C]-N--CA-[C] |==|  0.81189
USER: genes 4 Torsion [N]-CA--C-[N] |==|  0.90990
USER: genes 5 Torsion [C]-N--CA-[C] |==|  0.77998
USER: genes 6 Torsion [N]-CA--C-[N] |==|  0.89236
USER: genes 7 Torsion [C]-N--CA-[CB] |==|  0.18271
USER: genes 8 Torsion [N]-CA--C-[O] |==|  0.91781
USER: genes 9 Torsion [N]-CA--CB-[CG] |==|  0.58041
USER: genes 10 Torsion [CA]-CB--CG-[OD2] |==|  0.90713
USER: genes 11 Torsion [N]-CA--CB-[CG] |==|  0.19012
USER: genes 12 Torsion [CA]-CB--CG-[CD2] |==|  0.62205
USER: genes 13 Torsion [N]-CA--CB-[CG] |==|  0.79859
USER: genes 14 Torsion [CA]-CB--CG-[CD1] |==|  0.06919
USER: genes 15 Torsion [C]-CA--CB-[CG] |==|  0.84680
USER: genes 16 Torsion [CA]-CB--CG-[CD1] |==|  0.89661
USER: genes 17 Torsion [C]-CA--N-[C] |==|  0.79626
USER: genes 18 Torsion [N]-C--CA-[N] |==|  0.99520
USER: genes 19 Torsion [C]-CA--CB-[CG] |==|  0.73756
USER: genes 20 Torsion [CA]-CB--CG-[CD] |==|  0.73732
USER: genes 21 Torsion [CB]-CG--CD-[NE2] |==|  0.94543
USER: genes 22 Torsion [C]-CA--N-[C] |==|  0.79352
USER: genes 23 Torsion [N]-C--CA-[N] |==|  0.97179
USER: genes 24 Torsion [C]-CA--CB-[CG] |==|  0.93965
USER: genes 25 Torsion [CA]-CB--CG-[CD2] |==|  0.88402
USER: genes 26 Torsion [C]-CA--N-[C] |==|  0.80371
USER: genes 27 Torsion [N]-C--CA-[N] |==|  0.10712
USER: genes 28 Torsion [C]-CA--CB-[OG] |==|  0.15303
USER: genes 29 Torsion [CA]-CB--OG-[HG] |==|  0.86304
ROOT
ATOM      1  CA  PHE G  65     -24.455  -9.291 -16.859  1.00 79.88 LIG 0.18  C 
ENDROOT
BRANCH 1 2
ATOM      2  C   PHE G  65     -24.799  -7.801 -16.526  1.00 81.88 LIG 0.24  C 
ATOM      3 O    PHE G  65     -25.796  -7.234 -17.015  1.00 83.91 LIG-0.27  OA
ATOM      4  N   LEU G  66     -24.005  -7.186 -15.663  1.00 80.12 LIG-0.35  N 
ATOM      5 H    LEU G  66     -23.332  -7.562 -15.282  1.00 80.12 LIG 0.16  HD
BRANCH 4 6
ATOM      6  CA  LEU G  66     -24.209  -5.783 -15.277  1.00 73.95 LIG 0.18  C 
BRANCH 6 7
ATOM      7  C   LEU G  66     -23.932  -4.837 -16.470  1.00 70.37 LIG 0.24  C 
ATOM      8 O    LEU G  66     -24.557  -3.765 -16.614  1.00 65.91 LIG-0.27  OA
ATOM      9  N   LEU G  67     -22.986  -5.247 -17.322  1.00 70.17 LIG-0.35  N 
ATOM     10 H    LEU G  67     -22.498  -5.943 -17.193  1.00 70.17 LIG 0.16  HD
BRANCH 9 11
ATOM     11  CA  LEU G  67     -22.698  -4.536 -18.565  1.00 68.48 LIG 0.18  C 
BRANCH 11 12
ATOM     12  C   LEU G  67     -23.749  -4.907 -19.622  1.00 69.74 LIG 0.24  C 
ATOM     13  N   ASP G  68     -24.154  -6.191 -19.645  1.00 68.02 LIG-0.35  N 
ATOM     14 H    ASP G  68     -23.668  -6.838 -19.353  1.00 68.02 LIG 0.16  HD
ATOM     15 O    LEU G  67     -24.198  -4.018 -20.350  1.00 68.13 LIG-0.27  OA
BRANCH 13 16
ATOM     16  CA  ASP G  68     -25.475  -6.639 -20.171  1.00 74.55 LIG 0.17  C 
BRANCH 16 17
ATOM     17  C   ASP G  68     -25.579  -8.174 -19.907  1.00 77.35 LIG 0.22  C 
ATOM     18 O    ASP G  68     -24.600  -8.925 -19.867  1.00 79.38 LIG-0.29  OA
ENDBRANCH 16 17
BRANCH 16 19
ATOM     19  CB  ASP G  68     -25.598  -6.399 -21.687  1.00 74.32 LIG 0.15  C 
BRANCH 19 20
ATOM     20  CG  ASP G  68     -27.063  -6.155 -22.166  1.00 79.04 LIG 0.17  C 
ATOM     21 OD1  ASP G  68     -27.265  -5.363 -23.144  1.00 79.61 LIG-0.65  OA
ATOM     22 OD2  ASP G  68     -28.015  -6.744 -21.584  1.00 79.33 LIG-0.65  OA
ENDBRANCH 19 20
ENDBRANCH 16 19
ENDBRANCH 13 16
ENDBRANCH 11 12
BRANCH 11 23
ATOM     23  CB  LEU G  67     -21.267  -4.774 -19.040  1.00 63.56 LIG 0.04  C 
BRANCH 23 24
ATOM     24  CG  LEU G  67     -21.101  -6.232 -19.487  1.00 66.22 LIG-0.02  C 
ATOM     25  CD2 LEU G  67     -19.795  -6.838 -18.964  1.00 64.35 LIG 0.01  C 
ATOM     26  CD1 LEU G  67     -21.284  -6.417 -21.028  1.00 61.82 LIG 0.01  C 
ENDBRANCH 23 24
ENDBRANCH 11 23
ENDBRANCH 9 11
ENDBRANCH 6 7
BRANCH 6 27
ATOM     27  CB  LEU G  66     -23.261  -5.476 -14.134  1.00 68.20 LIG 0.04  C 
BRANCH 27 28
ATOM     28  CG  LEU G  66     -23.451  -6.001 -12.732  1.00 70.51 LIG-0.02  C 
ATOM     29  CD1 LEU G  66     -24.261  -7.294 -12.606  1.00 68.17 LIG 0.01  C 
ATOM     30  CD2 LEU G  66     -22.015  -6.168 -12.236  1.00 69.71 LIG 0.01  C 
ENDBRANCH 27 28
ENDBRANCH 6 27
ENDBRANCH 4 6
ENDBRANCH 1 2
BRANCH 1 31
ATOM     31  CB  PHE G  65     -25.727 -10.161 -16.728  1.00 81.70 LIG 0.07  C 
BRANCH 31 32
ATOM     32  CG  PHE G  65     -26.393 -10.035 -15.356  1.00 88.02 LIG-0.06  A 
ATOM     33  CD1 PHE G  65     -25.620  -9.909 -14.177  1.00 90.65 LIG 0.01  A 
ATOM     34  CE1 PHE G  65     -26.244  -9.745 -12.920  1.00 91.87 LIG 0.00  A 
ATOM     35  CZ  PHE G  65     -27.642  -9.683 -12.825  1.00 92.49 LIG 0.00  A 
ATOM     36  CE2 PHE G  65     -28.412  -9.778 -13.981  1.00 89.30 LIG 0.00  A 
ATOM     37  CD2 PHE G  65     -27.794  -9.944 -15.232  1.00 89.13 LIG 0.01  A 
ENDBRANCH 31 32
ENDBRANCH 1 31
BRANCH 1 38
ATOM     38  N   PHE G  65     -23.254  -9.867 -16.179  1.00 74.58 LIG-0.35  N 
ATOM     39  C   GLN G  64     -22.011  -9.508 -16.553  1.00 72.54 LIG 0.24  C 
ATOM     40 O    GLN G  64     -21.786  -8.744 -17.506  1.00 72.49 LIG-0.27  OA
ATOM     41 H    PHE G  65     -23.430 -10.428 -15.551  1.00 74.58 LIG 0.16  HD
BRANCH 39 42
ATOM     42  CA  GLN G  64     -20.807 -10.021 -15.733  1.00 69.04 LIG 0.18  C 
BRANCH 42 43
ATOM     43  CB  GLN G  64     -19.749 -10.736 -16.578  1.00 71.00 LIG 0.04  C 
BRANCH 43 44
ATOM     44  CG  GLN G  64     -19.899 -12.239 -16.637  1.00 72.96 LIG 0.10  C 
BRANCH 44 45
ATOM     45  CD  GLN G  64     -19.066 -12.990 -15.611  1.00 76.87 LIG 0.21  C 
ATOM     46 OE1  GLN G  64     -19.303 -14.165 -15.290  1.00 74.88 LIG-0.27  OA
ATOM     47  NE2 GLN G  64     -18.050 -12.305 -15.104  1.00 81.47 LIG-0.37  N 
ATOM     48 21HE GLN G  64     -17.914 -11.492 -15.349  1.00 81.47 LIG 0.16  HD
ATOM     49 22HE GLN G  64     -17.527 -12.674 -14.530  1.00 81.47 LIG 0.16  HD
ENDBRANCH 44 45
ENDBRANCH 43 44
ENDBRANCH 42 43
BRANCH 42 50
ATOM     50  N   GLN G  64     -21.156 -10.825 -14.594  1.00 68.17 LIG-0.35  N 
ATOM     51  C   LEU G  63     -21.666 -10.294 -13.479  1.00 67.58 LIG 0.24  C 
ATOM     52 O    LEU G  63     -22.011  -9.097 -13.357  1.00 63.10 LIG-0.27  OA
ATOM     53 H    GLN G  64     -21.009 -11.666 -14.698  1.00 68.17 LIG 0.16  HD
BRANCH 51 54
ATOM     54  CA  LEU G  63     -21.861 -11.271 -12.334  1.00 66.76 LIG 0.18  C 
BRANCH 54 55
ATOM     55  CB  LEU G  63     -20.877 -10.927 -11.203  1.00 69.31 LIG 0.04  C 
BRANCH 55 56
ATOM     56  CG  LEU G  63     -19.593 -10.108 -11.514  1.00 73.12 LIG-0.02  C 
ATOM     57  CD2 LEU G  63     -18.859 -10.495 -12.803  1.00 75.26 LIG 0.01  C 
ATOM     58  CD1 LEU G  63     -18.600 -10.120 -10.372  1.00 70.75 LIG 0.01  C 
ENDBRANCH 55 56
ENDBRANCH 54 55
BRANCH 54 59
ATOM     59  N   LEU G  63     -21.659 -12.626 -12.816  1.00 64.77 LIG-0.35  N 
ATOM     60  C   SER G  62     -22.513 -13.273 -13.641  1.00 63.11 LIG 0.26  C 
ATOM     61 O    SER G  62     -23.681 -12.895 -13.941  1.00 57.72 LIG-0.27  OA
ATOM     62 H    LEU G  63     -20.935 -12.985 -12.523  1.00 64.77 LIG 0.16  HD
BRANCH 60 63
ATOM     63  CA  SER G  62     -21.906 -14.565 -14.205  1.00 64.68 LIG 0.42  C 
ATOM     64  N   SER G  62     -21.082 -15.305 -13.199  1.00 67.72 LIG 0.62  N 
BRANCH 63 65
ATOM     65  CB  SER G  62     -22.991 -15.439 -14.861  1.00 62.74 LIG 0.21  C 
BRANCH 65 66
ATOM     66 OG   SER G  62     -23.717 -14.710 -15.871  1.00 60.63 LIG-0.40  OA
ATOM     67 HG   SER G  62     -23.965 -13.970 -15.560  1.00 60.63 LIG 0.21  HD
ENDBRANCH 65 66
ENDBRANCH 63 65
ENDBRANCH 60 63
ENDBRANCH 54 59
ENDBRANCH 51 54
ENDBRANCH 42 50
ENDBRANCH 39 42
ENDBRANCH 1 38
TORSDOF 28
ENDMDL
MODEL 22
USER: ADFR SOLUTION from run 13
USER: SCORE 18.807036 LL:  -5.319 LR: -15.332 RR:   0.000 FEB:  -6.979
USER: RMSD 5.763938
USER: SEED 893682
USER: STATUS no improvement in best in 9 clusters for 5 generations
USER: GENES 30
USER: genes 0 Translation |==|  0.45217 0.53440 0.59517
USER: genes 1 Rotation |==|  0.07101 0.58426 0.26273 0.55071
USER: genes 2 Torsion [N]-CA--C-[N] |==|  0.49453
USER: genes 3 Torsion [C]-N--CA-[C] |==|  0.70756
USER: genes 4 Torsion [N]-CA--C-[N] |==|  0.05722
USER: genes 5 Torsion [C]-N--CA-[C] |==|  0.79528
USER: genes 6 Torsion [N]-CA--C-[N] |==|  0.33235
USER: genes 7 Torsion [C]-N--CA-[CB] |==|  0.47238
USER: genes 8 Torsion [N]-CA--C-[O] |==|  0.96053
USER: genes 9 Torsion [N]-CA--CB-[CG] |==|  0.97833
USER: genes 10 Torsion [CA]-CB--CG-[OD2] |==|  0.37887
USER: genes 11 Torsion [N]-CA--CB-[CG] |==|  0.92737
USER: genes 12 Torsion [CA]-CB--CG-[CD2] |==|  0.74595
USER: genes 13 Torsion [N]-CA--CB-[CG] |==|  0.14988
USER: genes 14 Torsion [CA]-CB--CG-[CD1] |==|  0.22054
USER: genes 15 Torsion [C]-CA--CB-[CG] |==|  0.50254
USER: genes 16 Torsion [CA]-CB--CG-[CD1] |==|  0.93842
USER: genes 17 Torsion [C]-CA--N-[C] |==|  0.19348
USER: genes 18 Torsion [N]-C--CA-[N] |==|  0.12222
USER: genes 19 Torsion [C]-CA--CB-[CG] |==|  0.42072
USER: genes 20 Torsion [CA]-CB--CG-[CD] |==|  0.20855
USER: genes 21 Torsion [CB]-CG--CD-[NE2] |==|  0.60101
USER: genes 22 Torsion [C]-CA--N-[C] |==|  0.71853
USER: genes 23 Torsion [N]-C--CA-[N] |==|  0.30158
USER: genes 24 Torsion [C]-CA--CB-[CG] |==|  0.45289
USER: genes 25 Torsion [CA]-CB--CG-[CD2] |==|  0.38218
USER: genes 26 Torsion [C]-CA--N-[C] |==|  0.68466
USER: genes 27 Torsion [N]-C--CA-[N] |==|  0.25677
USER: genes 28 Torsion [C]-CA--CB-[OG] |==|  0.38823
USER: genes 29 Torsion [CA]-CB--OG-[HG] |==|  0.86610
ROOT
ATOM      1  CA  PHE G  65     -25.162  -9.074 -15.674  1.00 79.88 LIG 0.18  C 
ENDROOT
BRANCH 1 2
ATOM      2  C   PHE G  65     -25.853  -9.220 -17.071  1.00 81.88 LIG 0.24  C 
ATOM      3 O    PHE G  65     -25.426 -10.013 -17.932  1.00 83.91 LIG-0.27  OA
ATOM      4  N   LEU G  66     -26.940  -8.493 -17.275  1.00 80.12 LIG-0.35  N 
ATOM      5 H    LEU G  66     -27.279  -7.965 -16.686  1.00 80.12 LIG 0.16  HD
BRANCH 4 6
ATOM      6  CA  LEU G  66     -27.675  -8.526 -18.547  1.00 73.95 LIG 0.18  C 
BRANCH 6 7
ATOM      7  C   LEU G  66     -27.411  -7.241 -19.369  1.00 70.37 LIG 0.24  C 
ATOM      8 O    LEU G  66     -28.189  -6.871 -20.273  1.00 65.91 LIG-0.27  OA
ATOM      9  N   LEU G  67     -26.303  -6.566 -19.043  1.00 70.17 LIG-0.35  N 
ATOM     10 H    LEU G  67     -25.801  -6.768 -18.374  1.00 70.17 LIG 0.16  HD
BRANCH 9 11
ATOM     11  CA  LEU G  67     -25.843  -5.409 -19.807  1.00 68.48 LIG 0.18  C 
BRANCH 11 12
ATOM     12  C   LEU G  67     -25.248  -5.881 -21.142  1.00 69.74 LIG 0.24  C 
ATOM     13  N   ASP G  68     -25.840  -5.422 -22.261  1.00 68.02 LIG-0.35  N 
ATOM     14 H    ASP G  68     -26.662  -5.167 -22.282  1.00 68.02 LIG 0.16  HD
ATOM     15 O    LEU G  67     -24.249  -6.604 -21.124  1.00 68.13 LIG-0.27  OA
BRANCH 13 16
ATOM     16  CA  ASP G  68     -25.153  -5.302 -23.578  1.00 74.55 LIG 0.17  C 
BRANCH 16 17
ATOM     17  C   ASP G  68     -24.141  -4.120 -23.463  1.00 77.35 LIG 0.22  C 
ATOM     18 O    ASP G  68     -24.160  -3.294 -22.545  1.00 79.38 LIG-0.29  OA
ENDBRANCH 16 17
BRANCH 16 19
ATOM     19  CB  ASP G  68     -26.143  -4.983 -24.714  1.00 74.32 LIG 0.15  C 
BRANCH 19 20
ATOM     20  CG  ASP G  68     -27.639  -5.048 -24.276  1.00 79.04 LIG 0.17  C 
ATOM     21 OD1  ASP G  68     -28.021  -6.015 -23.539  1.00 79.61 LIG-0.65  OA
ATOM     22 OD2  ASP G  68     -28.438  -4.147 -24.652  1.00 79.33 LIG-0.65  OA
ENDBRANCH 19 20
ENDBRANCH 16 19
ENDBRANCH 13 16
ENDBRANCH 11 12
BRANCH 11 23
ATOM     23  CB  LEU G  67     -24.883  -4.538 -19.002  1.00 63.56 LIG 0.04  C 
BRANCH 23 24
ATOM     24  CG  LEU G  67     -25.156  -4.709 -17.502  1.00 66.22 LIG-0.02  C 
ATOM     25  CD2 LEU G  67     -26.164  -3.674 -16.991  1.00 64.35 LIG 0.01  C 
ATOM     26  CD1 LEU G  67     -23.847  -4.756 -16.650  1.00 61.82 LIG 0.01  C 
ENDBRANCH 23 24
ENDBRANCH 11 23
ENDBRANCH 9 11
ENDBRANCH 6 7
BRANCH 6 27
ATOM     27  CB  LEU G  66     -29.152  -8.647 -18.226  1.00 68.20 LIG 0.04  C 
BRANCH 27 28
ATOM     28  CG  LEU G  66     -29.883  -7.700 -17.306  1.00 70.51 LIG-0.02  C 
ATOM     29  CD1 LEU G  66     -30.287  -6.355 -17.914  1.00 68.17 LIG 0.01  C 
ATOM     30  CD2 LEU G  66     -31.093  -8.522 -16.866  1.00 69.71 LIG 0.01  C 
ENDBRANCH 27 28
ENDBRANCH 6 27
ENDBRANCH 4 6
ENDBRANCH 1 2
BRANCH 1 31
ATOM     31  CB  PHE G  65     -24.936  -7.577 -15.358  1.00 81.70 LIG 0.07  C 
BRANCH 31 32
ATOM     32  CG  PHE G  65     -24.241  -7.353 -14.013  1.00 88.02 LIG-0.06  A 
ATOM     33  CD1 PHE G  65     -24.280  -8.338 -12.997  1.00 90.65 LIG 0.01  A 
ATOM     34  CE1 PHE G  65     -23.595  -8.142 -11.778  1.00 91.87 LIG 0.00  A 
ATOM     35  CZ  PHE G  65     -22.847  -6.974 -11.563  1.00 92.49 LIG 0.00  A 
ATOM     36  CE2 PHE G  65     -22.780  -6.011 -12.565  1.00 89.30 LIG 0.00  A 
ATOM     37  CD2 PHE G  65     -23.462  -6.202 -13.779  1.00 89.13 LIG 0.01  A 
ENDBRANCH 31 32
ENDBRANCH 1 31
BRANCH 1 38
ATOM     38  N   PHE G  65     -23.960  -9.931 -15.431  1.00 74.58 LIG-0.35  N 
ATOM     39  C   GLN G  64     -22.805  -9.701 -16.086  1.00 72.54 LIG 0.24  C 
ATOM     40 O    GLN G  64     -22.686  -8.826 -16.958  1.00 72.49 LIG-0.27  OA
ATOM     41 H    PHE G  65     -24.076 -10.560 -14.856  1.00 74.58 LIG 0.16  HD
BRANCH 39 42
ATOM     42  CA  GLN G  64     -21.554 -10.521 -15.702  1.00 69.04 LIG 0.18  C 
BRANCH 42 43
ATOM     43  CB  GLN G  64     -20.367 -10.306 -16.646  1.00 71.00 LIG 0.04  C 
BRANCH 43 44
ATOM     44  CG  GLN G  64     -19.011 -10.495 -16.006  1.00 72.96 LIG 0.10  C 
BRANCH 44 45
ATOM     45  CD  GLN G  64     -18.634 -11.947 -15.759  1.00 76.87 LIG 0.21  C 
ATOM     46 OE1  GLN G  64     -18.924 -12.855 -16.555  1.00 74.88 LIG-0.27  OA
ATOM     47  NE2 GLN G  64     -17.951 -12.168 -14.644  1.00 81.47 LIG-0.37  N 
ATOM     48 21HE GLN G  64     -17.768 -11.514 -14.116  1.00 81.47 LIG 0.16  HD
ATOM     49 22HE GLN G  64     -17.691 -12.964 -14.450  1.00 81.47 LIG 0.16  HD
ENDBRANCH 44 45
ENDBRANCH 43 44
ENDBRANCH 42 43
BRANCH 42 50
ATOM     50  N   GLN G  64     -21.791 -11.927 -15.518  1.00 68.17 LIG-0.35  N 
ATOM     51  C   LEU G  63     -21.907 -12.475 -14.305  1.00 67.58 LIG 0.24  C 
ATOM     52 O    LEU G  63     -21.955 -11.826 -13.235  1.00 63.10 LIG-0.27  OA
ATOM     53 H    GLN G  64     -21.851 -12.373 -16.251  1.00 68.17 LIG 0.16  HD
BRANCH 51 54
ATOM     54  CA  LEU G  63     -22.032 -13.987 -14.294  1.00 66.76 LIG 0.18  C 
BRANCH 54 55
ATOM     55  CB  LEU G  63     -23.244 -14.387 -13.435  1.00 69.31 LIG 0.04  C 
BRANCH 55 56
ATOM     56  CG  LEU G  63     -23.845 -15.815 -13.559  1.00 73.12 LIG-0.02  C 
ATOM     57  CD2 LEU G  63     -24.227 -16.489 -12.236  1.00 75.26 LIG 0.01  C 
ATOM     58  CD1 LEU G  63     -22.957 -16.759 -14.341  1.00 70.75 LIG 0.01  C 
ENDBRANCH 55 56
ENDBRANCH 54 55
BRANCH 54 59
ATOM     59  N   LEU G  63     -20.805 -14.569 -13.780  1.00 64.77 LIG-0.35  N 
ATOM     60  C   SER G  62     -19.956 -15.321 -14.516  1.00 63.11 LIG 0.26  C 
ATOM     61 O    SER G  62     -20.192 -15.797 -15.662  1.00 57.72 LIG-0.27  OA
ATOM     62 H    LEU G  63     -20.666 -14.389 -12.950  1.00 64.77 LIG 0.16  HD
BRANCH 60 63
ATOM     63  CA  SER G  62     -18.619 -15.555 -13.797  1.00 64.68 LIG 0.42  C 
ATOM     64  N   SER G  62     -18.605 -16.817 -12.994  1.00 67.72 LIG 0.62  N 
BRANCH 63 65
ATOM     65  CB  SER G  62     -17.442 -15.453 -14.786  1.00 62.74 LIG 0.21  C 
BRANCH 65 66
ATOM     66 OG   SER G  62     -16.320 -14.761 -14.202  1.00 60.63 LIG-0.40  OA
ATOM     67 HG   SER G  62     -16.585 -14.051 -13.839  1.00 60.63 LIG 0.21  HD
ENDBRANCH 65 66
ENDBRANCH 63 65
ENDBRANCH 60 63
ENDBRANCH 54 59
ENDBRANCH 51 54
ENDBRANCH 42 50
ENDBRANCH 39 42
ENDBRANCH 1 38
TORSDOF 28
ENDMDL
MODEL 23
USER: ADFR SOLUTION from run 11
USER: SCORE 18.663417 LL:  -5.358 LR: -15.315 RR:   0.000 FEB:  -6.963
USER: RMSD 6.632647
USER: SEED 166357
USER: STATUS no improvement in best in 9 clusters for 5 generations
USER: GENES 30
USER: genes 0 Translation |==|  0.44088 0.49199 0.66944
USER: genes 1 Rotation |==|  0.92253 0.43326 0.74682 0.57809
USER: genes 2 Torsion [N]-CA--C-[N] |==|  0.50209
USER: genes 3 Torsion [C]-N--CA-[C] |==|  0.66722
USER: genes 4 Torsion [N]-CA--C-[N] |==|  0.80667
USER: genes 5 Torsion [C]-N--CA-[C] |==|  0.18820
USER: genes 6 Torsion [N]-CA--C-[N] |==|  0.05423
USER: genes 7 Torsion [C]-N--CA-[CB] |==|  0.88635
USER: genes 8 Torsion [N]-CA--C-[O] |==|  0.06447
USER: genes 9 Torsion [N]-CA--CB-[CG] |==|  0.84449
USER: genes 10 Torsion [CA]-CB--CG-[OD2] |==|  0.47584
USER: genes 11 Torsion [N]-CA--CB-[CG] |==|  0.85026
USER: genes 12 Torsion [CA]-CB--CG-[CD2] |==|  0.70976
USER: genes 13 Torsion [N]-CA--CB-[CG] |==|  0.89859
USER: genes 14 Torsion [CA]-CB--CG-[CD1] |==|  0.89710
USER: genes 15 Torsion [C]-CA--CB-[CG] |==|  0.47660
USER: genes 16 Torsion [CA]-CB--CG-[CD1] |==|  0.94441
USER: genes 17 Torsion [C]-CA--N-[C] |==|  0.15847
USER: genes 18 Torsion [N]-C--CA-[N] |==|  0.35092
USER: genes 19 Torsion [C]-CA--CB-[CG] |==|  0.26335
USER: genes 20 Torsion [CA]-CB--CG-[CD] |==|  0.05533
USER: genes 21 Torsion [CB]-CG--CD-[NE2] |==|  0.24004
USER: genes 22 Torsion [C]-CA--N-[C] |==|  0.62950
USER: genes 23 Torsion [N]-C--CA-[N] |==|  0.37820
USER: genes 24 Torsion [C]-CA--CB-[CG] |==|  0.98463
USER: genes 25 Torsion [CA]-CB--CG-[CD2] |==|  0.74748
USER: genes 26 Torsion [C]-CA--N-[C] |==|  0.74481
USER: genes 27 Torsion [N]-C--CA-[N] |==|  0.15112
USER: genes 28 Torsion [C]-CA--CB-[OG] |==|  0.31497
USER: genes 29 Torsion [CA]-CB--OG-[HG] |==|  0.74540
ROOT
ATOM      1  CA  PHE G  65     -25.374  -9.901 -14.226  1.00 79.88 LIG 0.18  C 
ENDROOT
BRANCH 1 2
ATOM      2  C   PHE G  65     -26.189 -10.535 -15.402  1.00 81.88 LIG 0.24  C 
ATOM      3 O    PHE G  65     -26.014 -11.717 -15.757  1.00 83.91 LIG-0.27  OA
ATOM      4  N   LEU G  66     -27.105  -9.767 -15.972  1.00 80.12 LIG-0.35  N 
ATOM      5 H    LEU G  66     -27.272  -8.961 -15.725  1.00 80.12 LIG 0.16  HD
BRANCH 4 6
ATOM      6  CA  LEU G  66     -27.927 -10.236 -17.096  1.00 73.95 LIG 0.18  C 
BRANCH 6 7
ATOM      7  C   LEU G  66     -27.709  -9.349 -18.345  1.00 70.37 LIG 0.24  C 
ATOM      8 O    LEU G  66     -27.117  -9.779 -19.358  1.00 65.91 LIG-0.27  OA
ATOM      9  N   LEU G  67     -28.196  -8.106 -18.262  1.00 70.17 LIG-0.35  N 
ATOM     10 H    LEU G  67     -28.671  -7.824 -17.603  1.00 70.17 LIG 0.16  HD
BRANCH 9 11
ATOM     11  CA  LEU G  67     -27.960  -7.106 -19.300  1.00 68.48 LIG 0.18  C 
BRANCH 11 12
ATOM     12  C   LEU G  67     -28.700  -7.515 -20.582  1.00 69.74 LIG 0.24  C 
ATOM     13  N   ASP G  68     -29.703  -8.404 -20.442  1.00 68.02 LIG-0.35  N 
ATOM     14 H    ASP G  68     -29.742  -8.961 -19.788  1.00 68.02 LIG 0.16  HD
ATOM     15 O    LEU G  67     -28.378  -6.985 -21.648  1.00 68.13 LIG-0.27  OA
BRANCH 13 16
ATOM     16  CA  ASP G  68     -30.847  -8.524 -21.389  1.00 74.55 LIG 0.17  C 
BRANCH 16 17
ATOM     17  C   ASP G  68     -30.327  -9.297 -22.642  1.00 77.35 LIG 0.22  C 
ATOM     18 O    ASP G  68     -29.349 -10.050 -22.620  1.00 79.38 LIG-0.29  OA
ENDBRANCH 16 17
BRANCH 16 19
ATOM     19  CB  ASP G  68     -31.358  -7.146 -21.848  1.00 74.32 LIG 0.15  C 
BRANCH 19 20
ATOM     20  CG  ASP G  68     -31.768  -6.207 -20.671  1.00 79.04 LIG 0.17  C 
ATOM     21 OD1  ASP G  68     -31.808  -6.685 -19.490  1.00 79.61 LIG-0.65  OA
ATOM     22 OD2  ASP G  68     -32.046  -4.999 -20.905  1.00 79.33 LIG-0.65  OA
ENDBRANCH 19 20
ENDBRANCH 16 19
ENDBRANCH 13 16
ENDBRANCH 11 12
BRANCH 11 23
ATOM     23  CB  LEU G  67     -26.472  -6.856 -19.524  1.00 63.56 LIG 0.04  C 
BRANCH 23 24
ATOM     24  CG  LEU G  67     -25.796  -6.500 -18.194  1.00 66.22 LIG-0.02  C 
ATOM     25  CD2 LEU G  67     -25.493  -5.002 -18.097  1.00 64.35 LIG 0.01  C 
ATOM     26  CD1 LEU G  67     -24.550  -7.394 -17.891  1.00 61.82 LIG 0.01  C 
ENDBRANCH 23 24
ENDBRANCH 11 23
ENDBRANCH 9 11
ENDBRANCH 6 7
BRANCH 6 27
ATOM     27  CB  LEU G  66     -29.379 -10.180 -16.661  1.00 68.20 LIG 0.04  C 
BRANCH 27 28
ATOM     28  CG  LEU G  66     -29.840 -10.501 -15.260  1.00 70.51 LIG-0.02  C 
ATOM     29  CD1 LEU G  66     -29.100 -11.641 -14.557  1.00 68.17 LIG 0.01  C 
ATOM     30  CD2 LEU G  66     -29.670  -9.167 -14.534  1.00 69.71 LIG 0.01  C 
ENDBRANCH 27 28
ENDBRANCH 6 27
ENDBRANCH 4 6
ENDBRANCH 1 2
BRANCH 1 31
ATOM     31  CB  PHE G  65     -24.861  -8.502 -14.641  1.00 81.70 LIG 0.07  C 
BRANCH 31 32
ATOM     32  CG  PHE G  65     -24.231  -7.732 -13.479  1.00 88.02 LIG-0.06  A 
ATOM     33  CD1 PHE G  65     -24.512  -8.077 -12.135  1.00 90.65 LIG 0.01  A 
ATOM     34  CE1 PHE G  65     -23.888  -7.393 -11.069  1.00 91.87 LIG 0.00  A 
ATOM     35  CZ  PHE G  65     -22.962  -6.371 -11.328  1.00 92.49 LIG 0.00  A 
ATOM     36  CE2 PHE G  65     -22.657  -6.040 -12.645  1.00 89.30 LIG 0.00  A 
ATOM     37  CD2 PHE G  65     -23.278  -6.719 -13.707  1.00 89.13 LIG 0.01  A 
ENDBRANCH 31 32
ENDBRANCH 1 31
BRANCH 1 38
ATOM     38  N   PHE G  65     -24.328 -10.766 -13.596  1.00 74.58 LIG-0.35  N 
ATOM     39  C   GLN G  64     -23.336 -11.299 -14.337  1.00 72.54 LIG 0.24  C 
ATOM     40 O    GLN G  64     -23.266 -11.163 -15.569  1.00 72.49 LIG-0.27  OA
ATOM     41 H    PHE G  65     -24.420 -10.885 -12.749  1.00 74.58 LIG 0.16  HD
BRANCH 39 42
ATOM     42  CA  GLN G  64     -22.203 -12.069 -13.623  1.00 69.04 LIG 0.18  C 
BRANCH 42 43
ATOM     43  CB  GLN G  64     -20.883 -11.296 -13.560  1.00 71.00 LIG 0.04  C 
BRANCH 43 44
ATOM     44  CG  GLN G  64     -20.669 -10.517 -12.282  1.00 72.96 LIG 0.10  C 
BRANCH 44 45
ATOM     45  CD  GLN G  64     -21.523 -10.986 -11.116  1.00 76.87 LIG 0.21  C 
ATOM     46 OE1  GLN G  64     -22.634 -10.493 -10.862  1.00 74.88 LIG-0.27  OA
ATOM     47  NE2 GLN G  64     -21.005 -11.979 -10.405  1.00 81.47 LIG-0.37  N 
ATOM     48 21HE GLN G  64     -20.233 -12.296 -10.610  1.00 81.47 LIG 0.16  HD
ATOM     49 22HE GLN G  64     -21.442 -12.304  -9.740  1.00 81.47 LIG 0.16  HD
ENDBRANCH 44 45
ENDBRANCH 43 44
ENDBRANCH 42 43
BRANCH 42 50
ATOM     50  N   GLN G  64     -21.975 -13.398 -14.122  1.00 68.17 LIG-0.35  N 
ATOM     51  C   LEU G  63     -21.834 -14.448 -13.307  1.00 67.58 LIG 0.24  C 
ATOM     52 O    LEU G  63     -22.015 -14.414 -12.069  1.00 63.10 LIG-0.27  OA
ATOM     53 H    GLN G  64     -21.939 -13.451 -14.980  1.00 68.17 LIG 0.16  HD
BRANCH 51 54
ATOM     54  CA  LEU G  63     -21.478 -15.751 -13.997  1.00 66.76 LIG 0.18  C 
BRANCH 54 55
ATOM     55  CB  LEU G  63     -22.739 -16.624 -14.112  1.00 69.31 LIG 0.04  C 
BRANCH 55 56
ATOM     56  CG  LEU G  63     -24.065 -16.163 -13.445  1.00 73.12 LIG-0.02  C 
ATOM     57  CD2 LEU G  63     -24.285 -16.650 -12.008  1.00 75.26 LIG 0.01  C 
ATOM     58  CD1 LEU G  63     -25.287 -16.516 -14.264  1.00 70.75 LIG 0.01  C 
ENDBRANCH 55 56
ENDBRANCH 54 55
BRANCH 54 59
ATOM     59  N   LEU G  63     -20.436 -16.427 -13.245  1.00 64.77 LIG-0.35  N 
ATOM     60  C   SER G  62     -19.112 -16.275 -13.478  1.00 63.11 LIG 0.26  C 
ATOM     61 O    SER G  62     -18.598 -15.712 -14.486  1.00 57.72 LIG-0.27  OA
ATOM     62 H    LEU G  63     -20.742 -16.940 -12.627  1.00 64.77 LIG 0.16  HD
BRANCH 60 63
ATOM     63  CA  SER G  62     -18.254 -16.879 -12.357  1.00 64.68 LIG 0.42  C 
ATOM     64  N   SER G  62     -18.579 -18.314 -12.087  1.00 67.72 LIG 0.62  N 
BRANCH 63 65
ATOM     65  CB  SER G  62     -16.757 -16.635 -12.623  1.00 62.74 LIG 0.21  C 
BRANCH 65 66
ATOM     66 OG   SER G  62     -16.184 -15.745 -11.644  1.00 60.63 LIG-0.40  OA
ATOM     67 HG   SER G  62     -16.234 -14.954 -11.921  1.00 60.63 LIG 0.21  HD
ENDBRANCH 65 66
ENDBRANCH 63 65
ENDBRANCH 60 63
ENDBRANCH 54 59
ENDBRANCH 51 54
ENDBRANCH 42 50
ENDBRANCH 39 42
ENDBRANCH 1 38
TORSDOF 28
ENDMDL
MODEL 24
USER: ADFR SOLUTION from run 30
USER: SCORE 19.891884 LL:  -6.011 LR: -15.275 RR:   0.000 FEB:  -6.923
USER: RMSD 6.686580
USER: SEED 29
USER: STATUS searching
USER: GENES 30
USER: genes 0 Translation |==|  0.49516 0.54309 0.63730
USER: genes 1 Rotation |==|  0.07301 0.53656 0.25234 0.57079
USER: genes 2 Torsion [N]-CA--C-[N] |==|  0.08216
USER: genes 3 Torsion [C]-N--CA-[C] |==|  0.81418
USER: genes 4 Torsion [N]-CA--C-[N] |==|  0.97380
USER: genes 5 Torsion [C]-N--CA-[C] |==|  0.83473
USER: genes 6 Torsion [N]-CA--C-[N] |==|  0.90590
USER: genes 7 Torsion [C]-N--CA-[CB] |==|  0.85027
USER: genes 8 Torsion [N]-CA--C-[O] |==|  0.34844
USER: genes 9 Torsion [N]-CA--CB-[CG] |==|  0.51183
USER: genes 10 Torsion [CA]-CB--CG-[OD2] |==|  0.20420
USER: genes 11 Torsion [N]-CA--CB-[CG] |==|  0.18737
USER: genes 12 Torsion [CA]-CB--CG-[CD2] |==|  0.62169
USER: genes 13 Torsion [N]-CA--CB-[CG] |==|  0.11898
USER: genes 14 Torsion [CA]-CB--CG-[CD1] |==|  0.14452
USER: genes 15 Torsion [C]-CA--CB-[CG] |==|  0.51323
USER: genes 16 Torsion [CA]-CB--CG-[CD1] |==|  0.34495
USER: genes 17 Torsion [C]-CA--N-[C] |==|  0.65449
USER: genes 18 Torsion [N]-C--CA-[N] |==|  0.67466
USER: genes 19 Torsion [C]-CA--CB-[CG] |==|  0.59927
USER: genes 20 Torsion [CA]-CB--CG-[CD] |==|  0.52334
USER: genes 21 Torsion [CB]-CG--CD-[NE2] |==|  0.36510
USER: genes 22 Torsion [C]-CA--N-[C] |==|  0.13352
USER: genes 23 Torsion [N]-C--CA-[N] |==|  0.89185
USER: genes 24 Torsion [C]-CA--CB-[CG] |==|  0.41653
USER: genes 25 Torsion [CA]-CB--CG-[CD2] |==|  0.38258
USER: genes 26 Torsion [C]-CA--N-[C] |==|  0.66168
USER: genes 27 Torsion [N]-C--CA-[N] |==|  0.32148
USER: genes 28 Torsion [C]-CA--CB-[OG] |==|  0.17354
USER: genes 29 Torsion [CA]-CB--OG-[HG] |==|  0.16366
ROOT
ATOM      1  CA  PHE G  65     -24.356  -8.905 -14.853  1.00 79.88 LIG 0.18  C 
ENDROOT
BRANCH 1 2
ATOM      2  C   PHE G  65     -24.900  -9.212 -16.288  1.00 81.88 LIG 0.24  C 
ATOM      3 O    PHE G  65     -25.603  -8.392 -16.909  1.00 83.91 LIG-0.27  OA
ATOM      4  N   LEU G  66     -24.538 -10.365 -16.827  1.00 80.12 LIG-0.35  N 
ATOM      5 H    LEU G  66     -24.024 -10.934 -16.437  1.00 80.12 LIG 0.16  HD
BRANCH 4 6
ATOM      6  CA  LEU G  66     -24.992 -10.780 -18.161  1.00 73.95 LIG 0.18  C 
BRANCH 6 7
ATOM      7  C   LEU G  66     -26.518 -11.040 -18.168  1.00 70.37 LIG 0.24  C 
ATOM      8 O    LEU G  66     -27.144 -11.234 -19.231  1.00 65.91 LIG-0.27  OA
ATOM      9  N   LEU G  67     -27.107 -11.042 -16.967  1.00 70.17 LIG-0.35  N 
ATOM     10 H    LEU G  67     -26.676 -10.986 -16.225  1.00 70.17 LIG 0.16  HD
BRANCH 9 11
ATOM     11  CA  LEU G  67     -28.556 -11.142 -16.811  1.00 68.48 LIG 0.18  C 
BRANCH 11 12
ATOM     12  C   LEU G  67     -29.230  -9.963 -17.528  1.00 69.74 LIG 0.24  C 
ATOM     13  N   ASP G  68     -28.561  -8.793 -17.525  1.00 68.02 LIG-0.35  N 
ATOM     14 H    ASP G  68     -27.985  -8.588 -16.920  1.00 68.02 LIG 0.16  HD
ATOM     15 O    LEU G  67     -30.305 -10.153 -18.102  1.00 68.13 LIG-0.27  OA
BRANCH 13 16
ATOM     16  CA  ASP G  68     -28.736  -7.730 -18.555  1.00 74.55 LIG 0.17  C 
BRANCH 16 17
ATOM     17  C   ASP G  68     -30.201  -7.207 -18.429  1.00 77.35 LIG 0.22  C 
ATOM     18 O    ASP G  68     -30.488  -6.016 -18.268  1.00 79.38 LIG-0.29  OA
ENDBRANCH 16 17
BRANCH 16 19
ATOM     19  CB  ASP G  68     -28.537  -8.276 -19.981  1.00 74.32 LIG 0.15  C 
BRANCH 19 20
ATOM     20  CG  ASP G  68     -28.607  -7.178 -21.087  1.00 79.04 LIG 0.17  C 
ATOM     21 OD1  ASP G  68     -29.643  -7.120 -21.828  1.00 79.61 LIG-0.65  OA
ATOM     22 OD2  ASP G  68     -27.648  -6.370 -21.225  1.00 79.33 LIG-0.65  OA
ENDBRANCH 19 20
ENDBRANCH 16 19
ENDBRANCH 13 16
ENDBRANCH 11 12
BRANCH 11 23
ATOM     23  CB  LEU G  67     -28.966 -11.260 -15.346  1.00 63.56 LIG 0.04  C 
BRANCH 23 24
ATOM     24  CG  LEU G  67     -28.656  -9.950 -14.610  1.00 66.22 LIG-0.02  C 
ATOM     25  CD2 LEU G  67     -28.012 -10.208 -13.244  1.00 64.35 LIG 0.01  C 
ATOM     26  CD1 LEU G  67     -29.890  -8.995 -14.530  1.00 61.82 LIG 0.01  C 
ENDBRANCH 23 24
ENDBRANCH 11 23
ENDBRANCH 9 11
ENDBRANCH 6 7
BRANCH 6 27
ATOM     27  CB  LEU G  66     -24.244 -12.047 -18.531  1.00 68.20 LIG 0.04  C 
BRANCH 27 28
ATOM     28  CG  LEU G  66     -24.008 -13.184 -17.568  1.00 70.51 LIG-0.02  C 
ATOM     29  CD1 LEU G  66     -25.248 -13.722 -16.850  1.00 68.17 LIG 0.01  C 
ATOM     30  CD2 LEU G  66     -23.346 -14.243 -18.449  1.00 69.71 LIG 0.01  C 
ENDBRANCH 27 28
ENDBRANCH 6 27
ENDBRANCH 4 6
ENDBRANCH 1 2
BRANCH 1 31
ATOM     31  CB  PHE G  65     -24.449  -7.386 -14.573  1.00 81.70 LIG 0.07  C 
BRANCH 31 32
ATOM     32  CG  PHE G  65     -23.829  -6.990 -13.232  1.00 88.02 LIG-0.06  A 
ATOM     33  CD1 PHE G  65     -22.808  -6.012 -13.160  1.00 90.65 LIG 0.01  A 
ATOM     34  CE1 PHE G  65     -22.274  -5.618 -11.913  1.00 91.87 LIG 0.00  A 
ATOM     35  CZ  PHE G  65     -22.766  -6.176 -10.723  1.00 92.49 LIG 0.00  A 
ATOM     36  CE2 PHE G  65     -23.788  -7.119 -10.780  1.00 89.30 LIG 0.00  A 
ATOM     37  CD2 PHE G  65     -24.319  -7.514 -12.019  1.00 89.13 LIG 0.01  A 
ENDBRANCH 31 32
ENDBRANCH 1 31
BRANCH 1 38
ATOM     38  N   PHE G  65     -23.032  -9.504 -14.498  1.00 74.58 LIG-0.35  N 
ATOM     39  C   GLN G  64     -22.898 -10.285 -13.408  1.00 72.54 LIG 0.24  C 
ATOM     40 O    GLN G  64     -23.828 -10.498 -12.612  1.00 72.49 LIG-0.27  OA
ATOM     41 H    PHE G  65     -22.391  -9.309 -15.037  1.00 74.58 LIG 0.16  HD
BRANCH 39 42
ATOM     42  CA  GLN G  64     -21.550 -10.994 -13.158  1.00 69.04 LIG 0.18  C 
BRANCH 42 43
ATOM     43  CB  GLN G  64     -20.422 -10.507 -14.072  1.00 71.00 LIG 0.04  C 
BRANCH 43 44
ATOM     44  CG  GLN G  64     -19.449 -11.581 -14.500  1.00 72.96 LIG 0.10  C 
BRANCH 44 45
ATOM     45  CD  GLN G  64     -18.227 -11.059 -15.237  1.00 76.87 LIG 0.21  C 
ATOM     46 OE1  GLN G  64     -18.309 -10.237 -16.164  1.00 74.88 LIG-0.27  OA
ATOM     47  NE2 GLN G  64     -17.065 -11.525 -14.799  1.00 81.47 LIG-0.37  N 
ATOM     48 21HE GLN G  64     -17.046 -12.093 -14.154  1.00 81.47 LIG 0.16  HD
ATOM     49 22HE GLN G  64     -16.332 -11.258 -15.160  1.00 81.47 LIG 0.16  HD
ENDBRANCH 44 45
ENDBRANCH 43 44
ENDBRANCH 42 43
BRANCH 42 50
ATOM     50  N   GLN G  64     -21.615 -12.430 -13.175  1.00 68.17 LIG-0.35  N 
ATOM     51  C   LEU G  63     -22.235 -13.101 -14.151  1.00 67.58 LIG 0.24  C 
ATOM     52 O    LEU G  63     -22.694 -12.577 -15.191  1.00 63.10 LIG-0.27  OA
ATOM     53 H    GLN G  64     -21.223 -12.809 -12.510  1.00 68.17 LIG 0.16  HD
BRANCH 51 54
ATOM     54  CA  LEU G  63     -22.313 -14.602 -13.946  1.00 66.76 LIG 0.18  C 
BRANCH 54 55
ATOM     55  CB  LEU G  63     -23.512 -14.927 -13.038  1.00 69.31 LIG 0.04  C 
BRANCH 55 56
ATOM     56  CG  LEU G  63     -24.261 -16.279 -13.195  1.00 73.12 LIG-0.02  C 
ATOM     57  CD2 LEU G  63     -24.641 -16.980 -11.885  1.00 75.26 LIG 0.01  C 
ATOM     58  CD1 LEU G  63     -23.516 -17.264 -14.069  1.00 70.75 LIG 0.01  C 
ENDBRANCH 55 56
ENDBRANCH 54 55
BRANCH 54 59
ATOM     59  N   LEU G  63     -21.069 -15.077 -13.368  1.00 64.77 LIG-0.35  N 
ATOM     60  C   SER G  62     -20.276 -16.013 -13.937  1.00 63.11 LIG 0.26  C 
ATOM     61 O    SER G  62     -20.587 -16.750 -14.915  1.00 57.72 LIG-0.27  OA
ATOM     62 H    LEU G  63     -20.879 -14.701 -12.618  1.00 64.77 LIG 0.16  HD
BRANCH 60 63
ATOM     63  CA  SER G  62     -18.905 -16.103 -13.253  1.00 64.68 LIG 0.42  C 
ATOM     64  N   SER G  62     -18.672 -17.424 -12.592  1.00 67.72 LIG 0.62  N 
BRANCH 63 65
ATOM     65  CB  SER G  62     -17.781 -15.707 -14.229  1.00 62.74 LIG 0.21  C 
BRANCH 65 66
ATOM     66 OG   SER G  62     -17.914 -14.337 -14.661  1.00 60.63 LIG-0.40  OA
ATOM     67 HG   SER G  62     -17.893 -13.829 -13.992  1.00 60.63 LIG 0.21  HD
ENDBRANCH 65 66
ENDBRANCH 63 65
ENDBRANCH 60 63
ENDBRANCH 54 59
ENDBRANCH 51 54
ENDBRANCH 42 50
ENDBRANCH 39 42
ENDBRANCH 1 38
TORSDOF 28
ENDMDL
