MODEL 1
USER: ADFR SOLUTION from run 121
USER: SCORE 19.608857 LL:  -5.215 LR: -17.086 RR:   0.000 FEB:  -8.435
USER: RMSD 11.491141
USER: SEED 120
USER: STATUS no improvement in best in 5 clusters for 5 generations
USER: GENES 31
USER: genes 0 Translation |==|  0.80350 0.60175 0.36764
USER: genes 1 Rotation |==|  0.67312 0.70620 0.07919 0.52080
USER: genes 2 Torsion [C]-N--CA-[CB] |==|  0.19790
USER: genes 3 Torsion [N]-CA--CB-[CG] |==|  0.71452
USER: genes 4 Torsion [CA]-CB--CG-[CD] |==|  0.30195
USER: genes 5 Torsion [CB]-CG--CD-[OE2] |==|  0.13487
USER: genes 6 Torsion [N]-CA--C-[N] |==|  0.89220
USER: genes 7 Torsion [C]-N--CA-[CB] |==|  0.29100
USER: genes 8 Torsion [N]-CA--CB-[CG2] |==|  0.19318
USER: genes 9 Torsion [CA]-CB--OG1-[HG1] |==|  0.61407
USER: genes 10 Torsion [N]-CA--C-[N] |==|  0.45347
USER: genes 11 Torsion [C]-N--CA-[C] |==|  0.70600
USER: genes 12 Torsion [N]-CA--C-[N] |==|  0.89186
USER: genes 13 Torsion [C]-N--CA-[CB] |==|  0.38217
USER: genes 14 Torsion [N]-CA--CB-[CG2] |==|  0.95431
USER: genes 15 Torsion [N]-CA--C-[OXT] |==|  0.96479
USER: genes 16 Torsion [N]-CA--CB-[CG] |==|  0.45968
USER: genes 17 Torsion [CA]-CB--CG-[CD] |==|  0.32271
USER: genes 18 Torsion [CB]-CG--CD-[OE1] |==|  0.18486
USER: genes 19 Torsion [N]-C--CA-[N] |==|  0.99624
USER: genes 20 Torsion [C]-CA--CB-[CG] |==|  0.50915
USER: genes 21 Torsion [CA]-CB--CG-[CD] |==|  0.69992
USER: genes 22 Torsion [CB]-CG--CD-[NE] |==|  0.14134
USER: genes 23 Torsion [CG]-CD--NE-[HE] |==|  0.94078
USER: genes 24 Torsion [C]-CA--N-[C] |==|  0.64292
USER: genes 25 Torsion [N]-C--CA-[N] |==|  0.80509
USER: genes 26 Torsion [C]-CA--N-[H2] |==|  0.10906
USER: genes 27 Torsion [C]-CA--CB-[CG] |==|  0.59238
USER: genes 28 Torsion [CA]-CB--CG-[CD] |==|  0.70997
USER: genes 29 Torsion [CB]-CG--CD-[NE] |==|  0.14143
USER: genes 30 Torsion [CG]-CD--NE-[CZ] |==|  0.23065
ROOT
ATOM      1  C   ARG C   2      32.732  21.951  23.260  1.00 17.64 LIG 0.24  C 
ATOM      2 O    ARG C   2      33.635  21.955  22.418  1.00 18.48 LIG-0.27  OA
ATOM      3  N   GLU C   3      31.477  21.637  22.960  1.00 16.82 LIG-0.35  N 
ATOM      4 H    GLU C   3      30.831  21.624  23.529  1.00 16.82 LIG 0.16  HD
ENDROOT
BRANCH 3 5
ATOM      5  CA  GLU C   3      31.093  21.283  21.597  1.00 17.00 LIG 0.18  C 
BRANCH 5 6
ATOM      6  CB  GLU C   3      31.652  19.902  21.222  1.00 16.91 LIG 0.04  C 
BRANCH 6 7
ATOM      7  CG  GLU C   3      32.883  19.976  20.319  1.00 19.77 LIG 0.12  C 
BRANCH 7 8
ATOM      8  CD  GLU C   3      34.164  19.584  21.031  1.00 23.53 LIG 0.17  C 
ATOM      9 OE2  GLU C   3      34.178  18.531  21.698  1.00 22.35 LIG-0.65  OA
ATOM     10 OE1  GLU C   3      35.154  20.331  20.924  1.00 28.80 LIG-0.65  OA
ENDBRANCH 7 8
ENDBRANCH 6 7
ENDBRANCH 5 6
BRANCH 5 11
ATOM     11  C   GLU C   3      29.574  21.274  21.511  1.00 16.25 LIG 0.24  C 
ATOM     12  N   THR C   4      28.905  20.785  22.559  1.00 14.90 LIG-0.34  N 
ATOM     13 H    THR C   4      29.281  20.519  23.285  1.00 14.90 LIG 0.16  HD
ATOM     14 O    GLU C   3      29.018  21.701  20.496  1.00 19.18 LIG-0.27  OA
BRANCH 12 15
ATOM     15  CA  THR C   4      27.453  20.664  22.552  1.00 14.85 LIG 0.20  C 
BRANCH 15 16
ATOM     16  CB  THR C   4      27.036  19.203  22.361  1.00 16.75 LIG 0.15  C 
ATOM     17  CG2 THR C   4      27.377  18.381  23.599  1.00 16.70 LIG 0.04  C 
BRANCH 16 18
ATOM     18 OG1  THR C   4      25.628  19.148  22.108  1.00 17.36 LIG-0.39  OA
ATOM     19 HG1  THR C   4      25.294  18.501  22.528  1.00 17.36 LIG 0.21  HD
ENDBRANCH 16 18
ENDBRANCH 15 16
BRANCH 15 20
ATOM     20  C   THR C   4      26.874  21.183  23.859  1.00 14.69 LIG 0.24  C 
ATOM     21  N   GLN C   5      25.571  21.455  23.867  1.00 15.36 LIG-0.35  N 
ATOM     22 H    GLN C   5      25.078  21.468  23.163  1.00 15.36 LIG 0.16  HD
ATOM     23 O    THR C   4      27.599  21.326  24.850  1.00 15.54 LIG-0.27  OA
BRANCH 21 24
ATOM     24  CA  GLN C   5      24.866  21.760  25.103  1.00 16.48 LIG 0.18  C 
BRANCH 24 25
ATOM     25  C   GLN C   5      24.006  20.573  25.509  1.00 17.30 LIG 0.24  C 
ATOM     26 O    GLN C   5      23.928  20.228  26.696  1.00 19.53 LIG-0.27  OA
ATOM     27  N   VAL C   6      23.390  19.926  24.523  1.00 16.49 LIG-0.34  N 
ATOM     28 H    VAL C   6      23.434  20.161  23.697  1.00 16.49 LIG 0.16  HD
BRANCH 27 29
ATOM     29  CA  VAL C   6      22.573  18.740  24.767  1.00 18.07 LIG 0.19  C 
BRANCH 29 30
ATOM     30  CB  VAL C   6      21.269  18.769  23.946  1.00 20.19 LIG 0.01  C 
ATOM     31  CG1 VAL C   6      20.099  18.269  24.770  1.00 23.48 LIG 0.01  C 
ATOM     32  CG2 VAL C   6      20.994  20.174  23.429  1.00 21.65 LIG 0.01  C 
ENDBRANCH 29 30
BRANCH 29 33
ATOM     33  C   VAL C   6      23.348  17.462  24.476  1.00 18.86 LIG 0.20  C 
ATOM     34 O    VAL C   6      22.923  16.354  24.857  1.00 20.67 LIG-0.65  OA
ATOM     35 OXT  VAL C   6      24.430  17.523  23.867  1.00 19.38 LIG-0.65  OA
ENDBRANCH 29 33
ENDBRANCH 27 29
ENDBRANCH 24 25
BRANCH 24 36
ATOM     36  CB  GLN C   5      23.963  22.977  24.903  1.00 21.66 LIG 0.04  C 
BRANCH 36 37
ATOM     37  CG  GLN C   5      22.924  23.195  25.988  1.00 28.10 LIG 0.10  C 
BRANCH 37 38
ATOM     38  CD  GLN C   5      23.140  24.497  26.749  1.00 33.44 LIG 0.21  C 
ATOM     39  NE2 GLN C   5      23.479  24.387  28.028  1.00 35.38 LIG-0.37  N 
ATOM     40 21HE GLN C   5      23.568  23.609  28.385  1.00 35.38 LIG 0.16  HD
ATOM     41 22HE GLN C   5      23.611  25.093  28.500  1.00 35.38 LIG 0.16  HD
ATOM     42 OE1  GLN C   5      23.000  25.585  26.189  1.00 34.39 LIG-0.27  OA
ENDBRANCH 37 38
ENDBRANCH 36 37
ENDBRANCH 24 36
ENDBRANCH 21 24
ENDBRANCH 15 20
ENDBRANCH 12 15
ENDBRANCH 5 11
ENDBRANCH 3 5
BRANCH 1 43
ATOM     43  CA  ARG C   2      33.015  22.347  24.707  1.00 18.81 LIG 0.18  C 
BRANCH 43 44
ATOM     44  CB  ARG C   2      34.027  21.380  25.315  1.00 19.04 LIG 0.04  C 
BRANCH 44 45
ATOM     45  CG  ARG C   2      34.299  21.662  26.778  1.00 18.27 LIG 0.02  C 
BRANCH 45 46
ATOM     46  CD  ARG C   2      35.681  22.257  26.952  1.00 20.59 LIG 0.14  C 
BRANCH 46 47
ATOM     47  NE  ARG C   2      35.882  23.388  26.051  1.00 21.96 LIG-0.23  N 
ATOM     48 HE   ARG C   2      35.381  23.441  25.355  1.00 21.96 LIG 0.18  HD
ATOM     49  CZ  ARG C   2      36.791  24.341  26.237  1.00 22.93 LIG 0.67  C 
ATOM     50  NH2 ARG C   2      36.898  25.333  25.367  1.00 24.61 LIG-0.23  N 
ATOM     51  NH1 ARG C   2      37.592  24.299  27.293  1.00 22.65 LIG-0.23  N 
ATOM     52 1HH2 ARG C   2      36.379  25.360  24.681  1.00 24.61 LIG 0.17  HD
ATOM     53 2HH2 ARG C   2      37.485  25.949  25.487  1.00 24.61 LIG 0.17  HD
ATOM     54 1HH1 ARG C   2      37.525  23.655  27.858  1.00 22.65 LIG 0.17  HD
ATOM     55 2HH1 ARG C   2      38.179  24.917  27.412  1.00 22.65 LIG 0.17  HD
ENDBRANCH 46 47
ENDBRANCH 45 46
ENDBRANCH 44 45
ENDBRANCH 43 44
BRANCH 43 56
ATOM     56  N   ARG C   2      31.779  22.326  25.481  1.00 21.07 LIG-0.35  N 
ATOM     57  C   ARG C   1      31.417  23.374  26.217  1.00 27.96 LIG 0.25  C 
ATOM     58 O    ARG C   1      32.108  24.386  26.327  1.00 30.47 LIG-0.27  OA
ATOM     59 H    ARG C   2      31.326  21.597  25.417  1.00 21.07 LIG 0.16  HD
BRANCH 57 60
ATOM     60  CA  ARG C   1      30.077  23.277  26.935  1.00 31.07 LIG 0.27  C 
BRANCH 60 61
ATOM     61  N   ARG C   1      28.968  23.335  25.985  1.00 32.37 LIG-0.07  N 
ATOM     62 H2   ARG C   1      29.178  22.872  25.254  1.00 32.37 LIG 0.28  HD
ATOM     63 H1   ARG C   1      28.810  24.183  25.764  1.00 32.37 LIG 0.28  HD
ATOM     64 H3   ARG C   1      28.239  22.985  26.357  1.00 32.37 LIG 0.28  HD
ENDBRANCH 60 61
BRANCH 60 65
ATOM     65  CB  ARG C   1      30.036  21.984  27.751  1.00 35.21 LIG 0.04  C 
BRANCH 65 66
ATOM     66  CG  ARG C   1      28.642  21.369  27.837  1.00 38.18 LIG 0.02  C 
BRANCH 66 67
ATOM     67  CD  ARG C   1      27.994  21.597  29.194  1.00 40.83 LIG 0.14  C 
BRANCH 67 68
ATOM     68  NE  ARG C   1      28.039  23.000  29.589  1.00 41.61 LIG-0.23  N 
ATOM     69  CZ  ARG C   1      27.163  23.917  29.191  1.00 42.69 LIG 0.67  C 
ATOM     70  NH1 ARG C   1      26.168  23.580  28.378  1.00 43.45 LIG-0.23  N 
ATOM     71  NH2 ARG C   1      27.280  25.171  29.607  1.00 42.77 LIG-0.23  N 
ATOM     72 1HH1 ARG C   1      26.089  22.767  28.109  1.00 43.45 LIG 0.17  HD
ATOM     73 2HH1 ARG C   1      25.602  24.175  28.121  1.00 43.45 LIG 0.17  HD
ATOM     74 1HH2 ARG C   1      27.924  25.391  30.135  1.00 42.77 LIG 0.17  HD
ATOM     75 2HH2 ARG C   1      26.714  25.765  29.349  1.00 42.77 LIG 0.17  HD
ATOM     76 HE   ARG C   1      28.673  23.251  30.113  1.00 41.61 LIG 0.18  HD
ENDBRANCH 67 68
ENDBRANCH 66 67
ENDBRANCH 65 66
ENDBRANCH 60 65
ENDBRANCH 57 60
ENDBRANCH 43 56
ENDBRANCH 1 43
TORSDOF 29
ENDMDL
MODEL 2
USER: ADFR SOLUTION from run 64
USER: SCORE 21.273158 LL:  -4.829 LR: -16.987 RR:   0.000 FEB:  -8.336
USER: RMSD 11.363715
USER: SEED 63
USER: STATUS no improvement in best in 4 clusters for 5 generations
USER: GENES 31
USER: genes 0 Translation |==|  0.78674 0.62498 0.34064
USER: genes 1 Rotation |==|  0.51082 0.85290 0.14602 0.50631
USER: genes 2 Torsion [C]-N--CA-[CB] |==|  0.17726
USER: genes 3 Torsion [N]-CA--CB-[CG] |==|  0.11129
USER: genes 4 Torsion [CA]-CB--CG-[CD] |==|  0.24797
USER: genes 5 Torsion [CB]-CG--CD-[OE2] |==|  0.59943
USER: genes 6 Torsion [N]-CA--C-[N] |==|  0.09552
USER: genes 7 Torsion [C]-N--CA-[CB] |==|  0.85534
USER: genes 8 Torsion [N]-CA--CB-[CG2] |==|  0.45333
USER: genes 9 Torsion [CA]-CB--OG1-[HG1] |==|  0.49377
USER: genes 10 Torsion [N]-CA--C-[N] |==|  0.39797
USER: genes 11 Torsion [C]-N--CA-[C] |==|  0.66534
USER: genes 12 Torsion [N]-CA--C-[N] |==|  0.47036
USER: genes 13 Torsion [C]-N--CA-[CB] |==|  0.22540
USER: genes 14 Torsion [N]-CA--CB-[CG2] |==|  0.03787
USER: genes 15 Torsion [N]-CA--C-[OXT] |==|  0.52387
USER: genes 16 Torsion [N]-CA--CB-[CG] |==|  0.65197
USER: genes 17 Torsion [CA]-CB--CG-[CD] |==|  0.83446
USER: genes 18 Torsion [CB]-CG--CD-[OE1] |==|  0.30955
USER: genes 19 Torsion [N]-C--CA-[N] |==|  0.87779
USER: genes 20 Torsion [C]-CA--CB-[CG] |==|  0.04194
USER: genes 21 Torsion [CA]-CB--CG-[CD] |==|  0.42043
USER: genes 22 Torsion [CB]-CG--CD-[NE] |==|  0.59126
USER: genes 23 Torsion [CG]-CD--NE-[HE] |==|  0.02062
USER: genes 24 Torsion [C]-CA--N-[C] |==|  0.77601
USER: genes 25 Torsion [N]-C--CA-[N] |==|  0.40218
USER: genes 26 Torsion [C]-CA--N-[H2] |==|  0.66629
USER: genes 27 Torsion [C]-CA--CB-[CG] |==|  0.24205
USER: genes 28 Torsion [CA]-CB--CG-[CD] |==|  0.36958
USER: genes 29 Torsion [CB]-CG--CD-[NE] |==|  0.07873
USER: genes 30 Torsion [CG]-CD--NE-[CZ] |==|  0.62482
ROOT
ATOM      1  C   ARG C   2      32.267  22.491  22.754  1.00 17.64 LIG 0.24  C 
ATOM      2 O    ARG C   2      32.483  23.338  21.882  1.00 18.48 LIG-0.27  OA
ATOM      3  N   GLU C   3      31.188  21.715  22.745  1.00 16.82 LIG-0.35  N 
ATOM      4 H    GLU C   3      31.018  21.116  23.339  1.00 16.82 LIG 0.16  HD
ENDROOT
BRANCH 3 5
ATOM      5  CA  GLU C   3      30.185  21.831  21.692  1.00 17.00 LIG 0.18  C 
BRANCH 5 6
ATOM      6  CB  GLU C   3      30.789  21.460  20.329  1.00 16.91 LIG 0.04  C 
BRANCH 6 7
ATOM      7  CG  GLU C   3      31.737  20.263  20.397  1.00 19.77 LIG 0.12  C 
BRANCH 7 8
ATOM      8  CD  GLU C   3      31.029  18.935  20.201  1.00 23.53 LIG 0.17  C 
ATOM      9 OE2  GLU C   3      31.426  17.946  20.846  1.00 22.35 LIG-0.65  OA
ATOM     10 OE1  GLU C   3      30.078  18.885  19.399  1.00 28.80 LIG-0.65  OA
ENDBRANCH 7 8
ENDBRANCH 6 7
ENDBRANCH 5 6
BRANCH 5 11
ATOM     11  C   GLU C   3      29.029  20.899  22.023  1.00 16.25 LIG 0.24  C 
ATOM     12  N   THR C   4      28.726  20.736  23.314  1.00 14.90 LIG-0.34  N 
ATOM     13 H    THR C   4      29.117  21.155  23.955  1.00 14.90 LIG 0.16  HD
ATOM     14 O    GLU C   3      28.424  20.329  21.112  1.00 19.18 LIG-0.27  OA
BRANCH 12 15
ATOM     15  CA  THR C   4      27.685  19.811  23.746  1.00 14.85 LIG 0.20  C 
BRANCH 15 16
ATOM     16  CB  THR C   4      26.380  20.079  22.991  1.00 16.75 LIG 0.15  C 
ATOM     17  CG2 THR C   4      25.432  18.891  23.117  1.00 16.70 LIG 0.04  C 
BRANCH 16 18
ATOM     18 OG1  THR C   4      25.765  21.256  23.523  1.00 17.36 LIG-0.39  OA
ATOM     19 HG1  THR C   4      25.064  21.425  23.092  1.00 17.36 LIG 0.21  HD
ENDBRANCH 16 18
ENDBRANCH 15 16
BRANCH 15 20
ATOM     20  C   THR C   4      28.121  18.374  23.498  1.00 14.69 LIG 0.24  C 
ATOM     21  N   GLN C   5      27.754  17.476  24.410  1.00 15.36 LIG-0.35  N 
ATOM     22 H    GLN C   5      27.400  17.675  25.167  1.00 15.36 LIG 0.16  HD
ATOM     23 O    THR C   4      28.773  18.085  22.489  1.00 15.54 LIG-0.27  OA
BRANCH 21 24
ATOM     24  CA  GLN C   5      27.932  16.049  24.184  1.00 16.48 LIG 0.18  C 
BRANCH 24 25
ATOM     25  C   GLN C   5      26.583  15.348  24.247  1.00 17.30 LIG 0.24  C 
ATOM     26 O    GLN C   5      25.587  15.938  24.685  1.00 19.53 LIG-0.27  OA
ATOM     27  N   VAL C   6      26.558  14.081  23.844  1.00 16.49 LIG-0.34  N 
ATOM     28 H    VAL C   6      27.243  13.665  23.533  1.00 16.49 LIG 0.16  HD
BRANCH 27 29
ATOM     29  CA  VAL C   6      25.340  13.276  23.896  1.00 18.07 LIG 0.19  C 
BRANCH 29 30
ATOM     30  CB  VAL C   6      24.419  13.556  22.693  1.00 20.19 LIG 0.01  C 
ATOM     31  CG1 VAL C   6      23.178  14.312  23.125  1.00 23.48 LIG 0.01  C 
ATOM     32  CG2 VAL C   6      25.167  14.333  21.617  1.00 21.65 LIG 0.01  C 
ENDBRANCH 29 30
BRANCH 29 33
ATOM     33  C   VAL C   6      25.660  11.789  23.977  1.00 18.86 LIG 0.20  C 
ATOM     34 O    VAL C   6      26.831  11.393  24.133  1.00 20.67 LIG-0.65  OA
ATOM     35 OXT  VAL C   6      24.744  10.956  23.867  1.00 19.38 LIG-0.65  OA
ENDBRANCH 29 33
ENDBRANCH 27 29
ENDBRANCH 24 25
BRANCH 24 36
ATOM     36  CB  GLN C   5      28.845  15.460  25.259  1.00 21.66 LIG 0.04  C 
BRANCH 36 37
ATOM     37  CG  GLN C   5      30.055  14.708  24.736  1.00 28.10 LIG 0.10  C 
BRANCH 37 38
ATOM     38  CD  GLN C   5      29.671  13.529  23.852  1.00 33.44 LIG 0.21  C 
ATOM     39  NE2 GLN C   5      29.078  12.504  24.455  1.00 35.38 LIG-0.37  N 
ATOM     40 21HE GLN C   5      28.929  12.530  25.301  1.00 35.38 LIG 0.16  HD
ATOM     41 22HE GLN C   5      28.843  11.815  23.998  1.00 35.38 LIG 0.16  HD
ATOM     42 OE1  GLN C   5      29.908  13.543  22.644  1.00 34.39 LIG-0.27  OA
ENDBRANCH 37 38
ENDBRANCH 36 37
ENDBRANCH 24 36
ENDBRANCH 21 24
ENDBRANCH 15 20
ENDBRANCH 12 15
ENDBRANCH 5 11
ENDBRANCH 3 5
BRANCH 1 43
ATOM     43  CA  ARG C   2      33.230  22.316  23.925  1.00 18.81 LIG 0.18  C 
BRANCH 43 44
ATOM     44  CB  ARG C   2      34.067  21.056  23.717  1.00 19.04 LIG 0.04  C 
BRANCH 44 45
ATOM     45  CG  ARG C   2      33.998  20.535  22.297  1.00 18.27 LIG 0.02  C 
BRANCH 45 46
ATOM     46  CD  ARG C   2      35.276  19.802  21.942  1.00 20.59 LIG 0.14  C 
BRANCH 46 47
ATOM     47  NE  ARG C   2      35.598  19.966  20.528  1.00 21.96 LIG-0.23  N 
ATOM     48 HE   ARG C   2      35.122  20.516  20.068  1.00 21.96 LIG 0.18  HD
ATOM     49  CZ  ARG C   2      36.580  19.322  19.904  1.00 22.93 LIG 0.67  C 
ATOM     50  NH2 ARG C   2      36.801  19.539  18.617  1.00 24.61 LIG-0.23  N 
ATOM     51  NH1 ARG C   2      37.337  18.460  20.568  1.00 22.65 LIG-0.23  N 
ATOM     52 1HH2 ARG C   2      36.310  20.097  18.185  1.00 24.61 LIG 0.17  HD
ATOM     53 2HH2 ARG C   2      37.436  19.122  18.214  1.00 24.61 LIG 0.17  HD
ATOM     54 1HH1 ARG C   2      37.194  18.317  21.404  1.00 22.65 LIG 0.17  HD
ATOM     55 2HH1 ARG C   2      37.972  18.044  20.164  1.00 22.65 LIG 0.17  HD
ENDBRANCH 46 47
ENDBRANCH 45 46
ENDBRANCH 44 45
ENDBRANCH 43 44
BRANCH 43 56
ATOM     56  N   ARG C   2      32.485  22.217  25.174  1.00 21.07 LIG-0.35  N 
ATOM     57  C   ARG C   1      32.032  23.308  25.787  1.00 27.96 LIG 0.25  C 
ATOM     58 O    ARG C   1      32.249  24.446  25.374  1.00 30.47 LIG-0.27  OA
ATOM     59 H    ARG C   2      32.372  21.414  25.464  1.00 21.07 LIG 0.16  HD
BRANCH 57 60
ATOM     60  CA  ARG C   1      31.209  23.093  27.051  1.00 31.07 LIG 0.27  C 
BRANCH 60 61
ATOM     61  N   ARG C   1      31.462  24.152  28.026  1.00 32.37 LIG-0.07  N 
ATOM     62 H2   ARG C   1      31.782  23.795  28.777  1.00 32.37 LIG 0.28  HD
ATOM     63 H1   ARG C   1      30.702  24.581  28.203  1.00 32.37 LIG 0.28  HD
ATOM     64 H3   ARG C   1      32.056  24.726  27.695  1.00 32.37 LIG 0.28  HD
ENDBRANCH 60 61
BRANCH 60 65
ATOM     65  CB  ARG C   1      29.727  23.027  26.680  1.00 35.21 LIG 0.04  C 
BRANCH 65 66
ATOM     66  CG  ARG C   1      29.263  21.625  26.299  1.00 38.18 LIG 0.02  C 
BRANCH 66 67
ATOM     67  CD  ARG C   1      27.962  21.241  26.988  1.00 40.83 LIG 0.14  C 
BRANCH 67 68
ATOM     68  NE  ARG C   1      27.139  22.409  27.284  1.00 41.61 LIG-0.23  N 
ATOM     69  CZ  ARG C   1      26.523  22.614  28.445  1.00 42.69 LIG 0.67  C 
ATOM     70  NH1 ARG C   1      26.633  21.724  29.425  1.00 43.45 LIG-0.23  N 
ATOM     71  NH2 ARG C   1      25.798  23.710  28.625  1.00 42.77 LIG-0.23  N 
ATOM     72 1HH1 ARG C   1      27.104  21.013  29.309  1.00 43.45 LIG 0.17  HD
ATOM     73 2HH1 ARG C   1      26.233  21.858  30.174  1.00 43.45 LIG 0.17  HD
ATOM     74 1HH2 ARG C   1      25.727  24.288  27.992  1.00 42.77 LIG 0.17  HD
ATOM     75 2HH2 ARG C   1      25.399  23.843  29.376  1.00 42.77 LIG 0.17  HD
ATOM     76 HE   ARG C   1      27.046  23.002  26.669  1.00 41.61 LIG 0.18  HD
ENDBRANCH 67 68
ENDBRANCH 66 67
ENDBRANCH 65 66
ENDBRANCH 60 65
ENDBRANCH 57 60
ENDBRANCH 43 56
ENDBRANCH 1 43
TORSDOF 29
ENDMDL
MODEL 3
USER: ADFR SOLUTION from run 173
USER: SCORE 18.787509 LL:  -4.798 LR: -16.565 RR:   0.000 FEB:  -7.914
USER: RMSD 9.184394
USER: SEED 172
USER: STATUS no improvement in best in 12 clusters for 5 generations
USER: GENES 31
USER: genes 0 Translation |==|  0.59551 0.56122 0.40680
USER: genes 1 Rotation |==|  0.28315 0.63828 0.38179 0.91217
USER: genes 2 Torsion [C]-N--CA-[CB] |==|  0.38215
USER: genes 3 Torsion [N]-CA--CB-[CG] |==|  0.52877
USER: genes 4 Torsion [CA]-CB--CG-[CD] |==|  0.49881
USER: genes 5 Torsion [CB]-CG--CD-[OE2] |==|  0.83587
USER: genes 6 Torsion [N]-CA--C-[N] |==|  0.95973
USER: genes 7 Torsion [C]-N--CA-[CB] |==|  0.22222
USER: genes 8 Torsion [N]-CA--CB-[CG2] |==|  0.70779
USER: genes 9 Torsion [CA]-CB--OG1-[HG1] |==|  0.91556
USER: genes 10 Torsion [N]-CA--C-[N] |==|  0.07773
USER: genes 11 Torsion [C]-N--CA-[C] |==|  0.76892
USER: genes 12 Torsion [N]-CA--C-[N] |==|  0.19639
USER: genes 13 Torsion [C]-N--CA-[CB] |==|  0.26493
USER: genes 14 Torsion [N]-CA--CB-[CG2] |==|  0.16413
USER: genes 15 Torsion [N]-CA--C-[OXT] |==|  0.39481
USER: genes 16 Torsion [N]-CA--CB-[CG] |==|  0.06757
USER: genes 17 Torsion [CA]-CB--CG-[CD] |==|  0.20715
USER: genes 18 Torsion [CB]-CG--CD-[OE1] |==|  0.24799
USER: genes 19 Torsion [N]-C--CA-[N] |==|  0.13549
USER: genes 20 Torsion [C]-CA--CB-[CG] |==|  0.54161
USER: genes 21 Torsion [CA]-CB--CG-[CD] |==|  0.35955
USER: genes 22 Torsion [CB]-CG--CD-[NE] |==|  0.60905
USER: genes 23 Torsion [CG]-CD--NE-[HE] |==|  0.25510
USER: genes 24 Torsion [C]-CA--N-[C] |==|  0.76021
USER: genes 25 Torsion [N]-C--CA-[N] |==|  0.82203
USER: genes 26 Torsion [C]-CA--N-[H2] |==|  0.06884
USER: genes 27 Torsion [C]-CA--CB-[CG] |==|  0.10571
USER: genes 28 Torsion [CA]-CB--CG-[CD] |==|  0.47994
USER: genes 29 Torsion [CB]-CG--CD-[NE] |==|  0.02235
USER: genes 30 Torsion [CG]-CD--NE-[CZ] |==|  0.64183
ROOT
ATOM      1  C   ARG C   2      26.960  21.008  23.994  1.00 17.64 LIG 0.24  C 
ATOM      2 O    ARG C   2      26.409  21.063  22.891  1.00 18.48 LIG-0.27  OA
ATOM      3  N   GLU C   3      28.261  20.776  24.133  1.00 16.82 LIG-0.35  N 
ATOM      4 H    GLU C   3      28.668  20.737  24.890  1.00 16.82 LIG 0.16  HD
ENDROOT
BRANCH 3 5
ATOM      5  CA  GLU C   3      29.117  20.563  22.970  1.00 17.00 LIG 0.18  C 
BRANCH 5 6
ATOM      6  CB  GLU C   3      30.447  21.315  23.135  1.00 16.91 LIG 0.04  C 
BRANCH 6 7
ATOM      7  CG  GLU C   3      31.285  21.344  21.857  1.00 19.77 LIG 0.12  C 
BRANCH 7 8
ATOM      8  CD  GLU C   3      32.592  22.097  22.023  1.00 23.53 LIG 0.17  C 
ATOM      9 OE2  GLU C   3      32.552  23.294  22.365  1.00 22.35 LIG-0.65  OA
ATOM     10 OE1  GLU C   3      33.657  21.488  21.810  1.00 28.80 LIG-0.65  OA
ENDBRANCH 7 8
ENDBRANCH 6 7
ENDBRANCH 5 6
BRANCH 5 11
ATOM     11  C   GLU C   3      29.374  19.071  22.827  1.00 16.25 LIG 0.24  C 
ATOM     12  N   THR C   4      29.071  18.296  23.873  1.00 14.90 LIG-0.34  N 
ATOM     13 H    THR C   4      28.706  18.586  24.595  1.00 14.90 LIG 0.16  HD
ATOM     14 O    GLU C   3      29.849  18.631  21.777  1.00 19.18 LIG-0.27  OA
BRANCH 12 15
ATOM     15  CA  THR C   4      29.344  16.864  23.869  1.00 14.85 LIG 0.20  C 
BRANCH 15 16
ATOM     16  CB  THR C   4      30.817  16.596  24.187  1.00 16.75 LIG 0.15  C 
ATOM     17  CG2 THR C   4      31.575  16.195  22.926  1.00 16.70 LIG 0.04  C 
BRANCH 16 18
ATOM     18 OG1  THR C   4      31.396  17.776  24.752  1.00 17.36 LIG-0.39  OA
ATOM     19 HG1  THR C   4      31.011  18.454  24.439  1.00 17.36 LIG 0.21  HD
ENDBRANCH 16 18
ENDBRANCH 15 16
BRANCH 15 20
ATOM     20  C   THR C   4      28.473  16.158  24.898  1.00 14.69 LIG 0.24  C 
ATOM     21  N   GLN C   5      27.304  16.729  25.179  1.00 15.36 LIG-0.35  N 
ATOM     22 H    GLN C   5      27.074  17.513  24.910  1.00 15.36 LIG 0.16  HD
ATOM     23 O    THR C   4      28.854  15.106  25.421  1.00 15.54 LIG-0.27  OA
BRANCH 21 24
ATOM     24  CA  GLN C   5      26.301  16.049  25.986  1.00 16.48 LIG 0.18  C 
BRANCH 24 25
ATOM     25  C   GLN C   5      25.491  15.107  25.109  1.00 17.30 LIG 0.24  C 
ATOM     26 O    GLN C   5      24.300  15.344  24.863  1.00 19.53 LIG-0.27  OA
ATOM     27  N   VAL C   6      26.121  14.023  24.668  1.00 16.49 LIG-0.34  N 
ATOM     28 H    VAL C   6      26.949  13.852  24.829  1.00 16.49 LIG 0.16  HD
BRANCH 27 29
ATOM     29  CA  VAL C   6      25.448  13.011  23.857  1.00 18.07 LIG 0.19  C 
BRANCH 29 30
ATOM     30  CB  VAL C   6      25.674  13.245  22.351  1.00 20.19 LIG 0.01  C 
ATOM     31  CG1 VAL C   6      25.059  14.559  21.908  1.00 23.48 LIG 0.01  C 
ATOM     32  CG2 VAL C   6      27.161  13.216  22.023  1.00 21.65 LIG 0.01  C 
ENDBRANCH 29 30
BRANCH 29 33
ATOM     33  C   VAL C   6      25.890  11.605  24.242  1.00 18.86 LIG 0.20  C 
ATOM     34 O    VAL C   6      27.078  11.364  24.531  1.00 20.67 LIG-0.65  OA
ATOM     35 OXT  VAL C   6      25.060  10.680  24.251  1.00 19.38 LIG-0.65  OA
ENDBRANCH 29 33
ENDBRANCH 27 29
ENDBRANCH 24 25
BRANCH 24 36
ATOM     36  CB  GLN C   5      25.357  17.073  26.616  1.00 21.66 LIG 0.04  C 
BRANCH 36 37
ATOM     37  CG  GLN C   5      25.256  18.397  25.879  1.00 28.10 LIG 0.10  C 
BRANCH 37 38
ATOM     38  CD  GLN C   5      24.436  18.291  24.601  1.00 33.44 LIG 0.21  C 
ATOM     39  NE2 GLN C   5      25.104  18.002  23.489  1.00 35.38 LIG-0.37  N 
ATOM     40 21HE GLN C   5      25.955  17.884  23.517  1.00 35.38 LIG 0.16  HD
ATOM     41 22HE GLN C   5      24.684  17.933  22.742  1.00 35.38 LIG 0.16  HD
ATOM     42 OE1  GLN C   5      23.217  18.470  24.616  1.00 34.39 LIG-0.27  OA
ENDBRANCH 37 38
ENDBRANCH 36 37
ENDBRANCH 24 36
ENDBRANCH 21 24
ENDBRANCH 15 20
ENDBRANCH 12 15
ENDBRANCH 5 11
ENDBRANCH 3 5
BRANCH 1 43
ATOM     43  CA  ARG C   2      26.151  21.174  25.278  1.00 18.81 LIG 0.18  C 
BRANCH 43 44
ATOM     44  CB  ARG C   2      24.752  21.680  24.940  1.00 19.04 LIG 0.04  C 
BRANCH 44 45
ATOM     45  CG  ARG C   2      24.013  22.210  26.151  1.00 18.27 LIG 0.02  C 
BRANCH 45 46
ATOM     46  CD  ARG C   2      23.451  23.588  25.865  1.00 20.59 LIG 0.14  C 
BRANCH 46 47
ATOM     47  NE  ARG C   2      23.582  24.460  27.028  1.00 21.96 LIG-0.23  N 
ATOM     48 HE   ARG C   2      24.290  24.945  27.088  1.00 21.96 LIG 0.18  HD
ATOM     49  CZ  ARG C   2      22.680  24.553  28.000  1.00 22.93 LIG 0.67  C 
ATOM     50  NH2 ARG C   2      22.884  25.376  29.016  1.00 24.61 LIG-0.23  N 
ATOM     51  NH1 ARG C   2      21.576  23.820  27.954  1.00 22.65 LIG-0.23  N 
ATOM     52 1HH2 ARG C   2      23.600  25.851  29.047  1.00 24.61 LIG 0.17  HD
ATOM     53 2HH2 ARG C   2      22.300  25.436  29.644  1.00 24.61 LIG 0.17  HD
ATOM     54 1HH1 ARG C   2      21.442  23.284  27.296  1.00 22.65 LIG 0.17  HD
ATOM     55 2HH1 ARG C   2      20.993  23.882  28.584  1.00 22.65 LIG 0.17  HD
ENDBRANCH 46 47
ENDBRANCH 45 46
ENDBRANCH 44 45
ENDBRANCH 43 44
BRANCH 43 56
ATOM     56  N   ARG C   2      26.818  22.114  26.171  1.00 21.07 LIG-0.35  N 
ATOM     57  C   ARG C   1      27.761  21.702  27.015  1.00 27.96 LIG 0.25  C 
ATOM     58 O    ARG C   1      28.090  20.523  27.127  1.00 30.47 LIG-0.27  OA
ATOM     59 H    ARG C   2      26.551  22.930  26.101  1.00 21.07 LIG 0.16  HD
BRANCH 57 60
ATOM     60  CA  ARG C   1      28.442  22.773  27.857  1.00 31.07 LIG 0.27  C 
BRANCH 60 61
ATOM     61  N   ARG C   1      29.185  23.709  27.015  1.00 32.37 LIG-0.07  N 
ATOM     62 H2   ARG C   1      28.834  23.715  26.197  1.00 32.37 LIG 0.28  HD
ATOM     63 H1   ARG C   1      30.037  23.456  26.969  1.00 32.37 LIG 0.28  HD
ATOM     64 H3   ARG C   1      29.137  24.526  27.364  1.00 32.37 LIG 0.28  HD
ENDBRANCH 60 61
BRANCH 60 65
ATOM     65  CB  ARG C   1      27.388  23.501  28.693  1.00 35.21 LIG 0.04  C 
BRANCH 65 66
ATOM     66  CG  ARG C   1      26.296  22.577  29.224  1.00 38.18 LIG 0.02  C 
BRANCH 66 67
ATOM     67  CD  ARG C   1      25.362  23.287  30.192  1.00 40.83 LIG 0.14  C 
BRANCH 67 68
ATOM     68  NE  ARG C   1      25.616  24.723  30.239  1.00 41.61 LIG-0.23  N 
ATOM     69  CZ  ARG C   1      25.804  25.412  31.361  1.00 42.69 LIG 0.67  C 
ATOM     70  NH1 ARG C   1      25.764  24.796  32.537  1.00 43.45 LIG-0.23  N 
ATOM     71  NH2 ARG C   1      26.034  26.717  31.305  1.00 42.77 LIG-0.23  N 
ATOM     72 1HH1 ARG C   1      25.616  23.950  32.574  1.00 43.45 LIG 0.17  HD
ATOM     73 2HH1 ARG C   1      25.885  25.244  33.261  1.00 43.45 LIG 0.17  HD
ATOM     74 1HH2 ARG C   1      26.062  27.118  30.544  1.00 42.77 LIG 0.17  HD
ATOM     75 2HH2 ARG C   1      26.156  27.164  32.030  1.00 42.77 LIG 0.17  HD
ATOM     76 HE   ARG C   1      25.645  25.151  29.494  1.00 41.61 LIG 0.18  HD
ENDBRANCH 67 68
ENDBRANCH 66 67
ENDBRANCH 65 66
ENDBRANCH 60 65
ENDBRANCH 57 60
ENDBRANCH 43 56
ENDBRANCH 1 43
TORSDOF 29
ENDMDL
MODEL 4
USER: ADFR SOLUTION from run 173
USER: SCORE 17.705559 LL:  -4.403 LR: -16.473 RR:   0.000 FEB:  -7.822
USER: RMSD 9.840363
USER: SEED 172
USER: STATUS no improvement in best in 12 clusters for 5 generations
USER: GENES 31
USER: genes 0 Translation |==|  0.59315 0.56035 0.41824
USER: genes 1 Rotation |==|  0.29102 0.63907 0.38704 0.91740
USER: genes 2 Torsion [C]-N--CA-[CB] |==|  0.39668
USER: genes 3 Torsion [N]-CA--CB-[CG] |==|  0.53721
USER: genes 4 Torsion [CA]-CB--CG-[CD] |==|  0.49076
USER: genes 5 Torsion [CB]-CG--CD-[OE2] |==|  0.83088
USER: genes 6 Torsion [N]-CA--C-[N] |==|  0.89938
USER: genes 7 Torsion [C]-N--CA-[CB] |==|  0.29883
USER: genes 8 Torsion [N]-CA--CB-[CG2] |==|  0.64362
USER: genes 9 Torsion [CA]-CB--OG1-[HG1] |==|  0.60373
USER: genes 10 Torsion [N]-CA--C-[N] |==|  0.31448
USER: genes 11 Torsion [C]-N--CA-[C] |==|  0.67992
USER: genes 12 Torsion [N]-CA--C-[N] |==|  0.04308
USER: genes 13 Torsion [C]-N--CA-[CB] |==|  0.47853
USER: genes 14 Torsion [N]-CA--CB-[CG2] |==|  0.15421
USER: genes 15 Torsion [N]-CA--C-[OXT] |==|  0.35591
USER: genes 16 Torsion [N]-CA--CB-[CG] |==|  0.07937
USER: genes 17 Torsion [CA]-CB--CG-[CD] |==|  0.23292
USER: genes 18 Torsion [CB]-CG--CD-[OE1] |==|  0.27131
USER: genes 19 Torsion [N]-C--CA-[N] |==|  0.16455
USER: genes 20 Torsion [C]-CA--CB-[CG] |==|  0.59778
USER: genes 21 Torsion [CA]-CB--CG-[CD] |==|  0.31567
USER: genes 22 Torsion [CB]-CG--CD-[NE] |==|  0.57549
USER: genes 23 Torsion [CG]-CD--NE-[HE] |==|  0.17803
USER: genes 24 Torsion [C]-CA--N-[C] |==|  0.60108
USER: genes 25 Torsion [N]-C--CA-[N] |==|  0.28251
USER: genes 26 Torsion [C]-CA--N-[H2] |==|  0.56532
USER: genes 27 Torsion [C]-CA--CB-[CG] |==|  0.24117
USER: genes 28 Torsion [CA]-CB--CG-[CD] |==|  0.18963
USER: genes 29 Torsion [CB]-CG--CD-[NE] |==|  0.59758
USER: genes 30 Torsion [CG]-CD--NE-[CZ] |==|  0.19814
ROOT
ATOM      1  C   ARG C   2      26.895  20.988  24.209  1.00 17.64 LIG 0.24  C 
ATOM      2 O    ARG C   2      26.344  21.082  23.107  1.00 18.48 LIG-0.27  OA
ATOM      3  N   GLU C   3      28.198  20.766  24.340  1.00 16.82 LIG-0.35  N 
ATOM      4 H    GLU C   3      28.605  20.701  25.095  1.00 16.82 LIG 0.16  HD
ENDROOT
BRANCH 3 5
ATOM      5  CA  GLU C   3      29.058  20.612  23.170  1.00 17.00 LIG 0.18  C 
BRANCH 5 6
ATOM      6  CB  GLU C   3      30.428  21.262  23.420  1.00 16.91 LIG 0.04  C 
BRANCH 6 7
ATOM      7  CG  GLU C   3      31.257  21.428  22.146  1.00 19.77 LIG 0.12  C 
BRANCH 7 8
ATOM      8  CD  GLU C   3      32.574  22.142  22.386  1.00 23.53 LIG 0.17  C 
ATOM      9 OE2  GLU C   3      32.549  23.306  22.831  1.00 22.35 LIG-0.65  OA
ATOM     10 OE1  GLU C   3      33.631  21.538  22.127  1.00 28.80 LIG-0.65  OA
ENDBRANCH 7 8
ENDBRANCH 6 7
ENDBRANCH 5 6
BRANCH 5 11
ATOM     11  C   GLU C   3      29.227  19.127  22.888  1.00 16.25 LIG 0.24  C 
ATOM     12  N   THR C   4      29.300  18.309  23.943  1.00 14.90 LIG-0.34  N 
ATOM     13 H    THR C   4      29.215  18.569  24.758  1.00 14.90 LIG 0.16  HD
ATOM     14 O    GLU C   3      29.298  18.732  21.722  1.00 19.18 LIG-0.27  OA
BRANCH 12 15
ATOM     15  CA  THR C   4      29.533  16.878  23.787  1.00 14.85 LIG 0.20  C 
BRANCH 15 16
ATOM     16  CB  THR C   4      30.952  16.513  24.231  1.00 16.75 LIG 0.15  C 
ATOM     17  CG2 THR C   4      31.665  15.711  23.149  1.00 16.70 LIG 0.04  C 
BRANCH 16 18
ATOM     18 OG1  THR C   4      31.678  17.714  24.510  1.00 17.36 LIG-0.39  OA
ATOM     19 HG1  THR C   4      32.475  17.625  24.259  1.00 17.36 LIG 0.21  HD
ENDBRANCH 16 18
ENDBRANCH 15 16
BRANCH 15 20
ATOM     20  C   THR C   4      28.530  16.088  24.614  1.00 14.69 LIG 0.24  C 
ATOM     21  N   GLN C   5      27.646  15.358  23.939  1.00 15.36 LIG-0.35  N 
ATOM     22 H    GLN C   5      27.536  15.402  23.087  1.00 15.36 LIG 0.16  HD
ATOM     23 O    THR C   4      28.566  16.133  25.849  1.00 15.54 LIG-0.27  OA
BRANCH 21 24
ATOM     24  CA  GLN C   5      26.775  14.406  24.611  1.00 16.48 LIG 0.18  C 
BRANCH 24 25
ATOM     25  C   GLN C   5      27.105  12.995  24.151  1.00 17.30 LIG 0.24  C 
ATOM     26 O    GLN C   5      26.334  12.056  24.393  1.00 19.53 LIG-0.27  OA
ATOM     27  N   VAL C   6      28.264  12.836  23.519  1.00 16.49 LIG-0.34  N 
ATOM     28 H    VAL C   6      28.804  13.483  23.342  1.00 16.49 LIG 0.16  HD
BRANCH 27 29
ATOM     29  CA  VAL C   6      28.727  11.527  23.066  1.00 18.07 LIG 0.19  C 
BRANCH 29 30
ATOM     30  CB  VAL C   6      29.998  11.640  22.201  1.00 20.19 LIG 0.01  C 
ATOM     31  CG1 VAL C   6      29.698  12.332  20.885  1.00 23.48 LIG 0.01  C 
ATOM     32  CG2 VAL C   6      31.093  12.383  22.955  1.00 21.65 LIG 0.01  C 
ENDBRANCH 29 30
BRANCH 29 33
ATOM     33  C   VAL C   6      28.973  10.587  24.239  1.00 18.86 LIG 0.20  C 
ATOM     34 O    VAL C   6      29.704  10.926  25.189  1.00 20.67 LIG-0.65  OA
ATOM     35 OXT  VAL C   6      28.452   9.459  24.242  1.00 19.38 LIG-0.65  OA
ENDBRANCH 29 33
ENDBRANCH 27 29
ENDBRANCH 24 25
BRANCH 24 36
ATOM     36  CB  GLN C   5      25.314  14.706  24.275  1.00 21.66 LIG 0.04  C 
BRANCH 36 37
ATOM     37  CG  GLN C   5      25.085  15.359  22.923  1.00 28.10 LIG 0.10  C 
BRANCH 37 38
ATOM     38  CD  GLN C   5      25.021  14.344  21.789  1.00 33.44 LIG 0.21  C 
ATOM     39  NE2 GLN C   5      26.184  13.928  21.299  1.00 35.38 LIG-0.37  N 
ATOM     40 21HE GLN C   5      26.921  14.230  21.623  1.00 35.38 LIG 0.16  HD
ATOM     41 22HE GLN C   5      26.199  13.356  20.657  1.00 35.38 LIG 0.16  HD
ATOM     42 OE1  GLN C   5      23.938  13.943  21.362  1.00 34.39 LIG-0.27  OA
ENDBRANCH 37 38
ENDBRANCH 36 37
ENDBRANCH 24 36
ENDBRANCH 21 24
ENDBRANCH 15 20
ENDBRANCH 12 15
ENDBRANCH 5 11
ENDBRANCH 3 5
BRANCH 1 43
ATOM     43  CA  ARG C   2      26.082  21.090  25.497  1.00 18.81 LIG 0.18  C 
BRANCH 43 44
ATOM     44  CB  ARG C   2      24.615  21.339  25.159  1.00 19.04 LIG 0.04  C 
BRANCH 44 45
ATOM     45  CG  ARG C   2      23.929  22.243  26.161  1.00 18.27 LIG 0.02  C 
BRANCH 45 46
ATOM     46  CD  ARG C   2      23.543  23.556  25.510  1.00 20.59 LIG 0.14  C 
BRANCH 46 47
ATOM     47  NE  ARG C   2      23.489  24.633  26.493  1.00 21.96 LIG-0.23  N 
ATOM     48 HE   ARG C   2      24.221  24.853  26.889  1.00 21.96 LIG 0.18  HD
ATOM     49  CZ  ARG C   2      22.384  25.296  26.818  1.00 22.93 LIG 0.67  C 
ATOM     50  NH2 ARG C   2      22.432  26.263  27.720  1.00 24.61 LIG-0.23  N 
ATOM     51  NH1 ARG C   2      21.230  24.990  26.240  1.00 22.65 LIG-0.23  N 
ATOM     52 1HH2 ARG C   2      23.179  26.463  28.097  1.00 24.61 LIG 0.17  HD
ATOM     53 2HH2 ARG C   2      21.717  26.692  27.930  1.00 24.61 LIG 0.17  HD
ATOM     54 1HH1 ARG C   2      21.197  24.361  25.654  1.00 22.65 LIG 0.17  HD
ATOM     55 2HH1 ARG C   2      20.516  25.419  26.451  1.00 22.65 LIG 0.17  HD
ENDBRANCH 46 47
ENDBRANCH 45 46
ENDBRANCH 44 45
ENDBRANCH 43 44
BRANCH 43 56
ATOM     56  N   ARG C   2      26.593  22.177  26.325  1.00 21.07 LIG-0.35  N 
ATOM     57  C   ARG C   1      26.619  22.069  27.651  1.00 27.96 LIG 0.25  C 
ATOM     58 O    ARG C   1      26.181  21.089  28.252  1.00 30.47 LIG-0.27  OA
ATOM     59 H    ARG C   2      26.865  22.866  25.888  1.00 21.07 LIG 0.16  HD
BRANCH 57 60
ATOM     60  CA  ARG C   1      27.232  23.232  28.421  1.00 31.07 LIG 0.27  C 
BRANCH 60 61
ATOM     61  N   ARG C   1      26.193  24.085  28.995  1.00 32.37 LIG-0.07  N 
ATOM     62 H2   ARG C   1      26.521  24.901  29.134  1.00 32.37 LIG 0.28  HD
ATOM     63 H1   ARG C   1      25.918  23.740  29.769  1.00 32.37 LIG 0.28  HD
ATOM     64 H3   ARG C   1      25.504  24.134  28.433  1.00 32.37 LIG 0.28  HD
ENDBRANCH 60 61
BRANCH 60 65
ATOM     65  CB  ARG C   1      28.157  22.683  29.508  1.00 35.21 LIG 0.04  C 
BRANCH 65 66
ATOM     66  CG  ARG C   1      29.578  22.424  29.015  1.00 38.18 LIG 0.02  C 
BRANCH 66 67
ATOM     67  CD  ARG C   1      30.316  23.712  28.683  1.00 40.83 LIG 0.14  C 
BRANCH 67 68
ATOM     68  NE  ARG C   1      31.213  23.547  27.544  1.00 41.61 LIG-0.23  N 
ATOM     69  CZ  ARG C   1      30.805  23.399  26.287  1.00 42.69 LIG 0.67  C 
ATOM     70  NH1 ARG C   1      29.507  23.393  26.004  1.00 43.45 LIG-0.23  N 
ATOM     71  NH2 ARG C   1      31.695  23.260  25.314  1.00 42.77 LIG-0.23  N 
ATOM     72 1HH1 ARG C   1      28.929  23.484  26.633  1.00 43.45 LIG 0.17  HD
ATOM     73 2HH1 ARG C   1      29.245  23.297  25.190  1.00 43.45 LIG 0.17  HD
ATOM     74 1HH2 ARG C   1      32.536  23.265  25.496  1.00 42.77 LIG 0.17  HD
ATOM     75 2HH2 ARG C   1      31.432  23.164  24.500  1.00 42.77 LIG 0.17  HD
ATOM     76 HE   ARG C   1      32.059  23.544  27.695  1.00 41.61 LIG 0.18  HD
ENDBRANCH 67 68
ENDBRANCH 66 67
ENDBRANCH 65 66
ENDBRANCH 60 65
ENDBRANCH 57 60
ENDBRANCH 43 56
ENDBRANCH 1 43
TORSDOF 29
ENDMDL
MODEL 5
USER: ADFR SOLUTION from run 6
USER: SCORE 19.365259 LL:  -4.469 LR: -16.424 RR:   0.000 FEB:  -7.773
USER: RMSD 6.309695
USER: SEED 523692
USER: STATUS searching
USER: GENES 31
USER: genes 0 Translation |==|  0.56772 0.54548 0.42738
USER: genes 1 Rotation |==|  0.62953 0.66173 0.33287 0.92324
USER: genes 2 Torsion [C]-N--CA-[CB] |==|  0.87053
USER: genes 3 Torsion [N]-CA--CB-[CG] |==|  0.60604
USER: genes 4 Torsion [CA]-CB--CG-[CD] |==|  0.66002
USER: genes 5 Torsion [CB]-CG--CD-[OE2] |==|  0.15997
USER: genes 6 Torsion [N]-CA--C-[N] |==|  0.77635
USER: genes 7 Torsion [C]-N--CA-[CB] |==|  0.78233
USER: genes 8 Torsion [N]-CA--CB-[CG2] |==|  0.53206
USER: genes 9 Torsion [CA]-CB--OG1-[HG1] |==|  0.87861
USER: genes 10 Torsion [N]-CA--C-[N] |==|  0.25198
USER: genes 11 Torsion [C]-N--CA-[C] |==|  0.17776
USER: genes 12 Torsion [N]-CA--C-[N] |==|  0.12599
USER: genes 13 Torsion [C]-N--CA-[CB] |==|  0.44797
USER: genes 14 Torsion [N]-CA--CB-[CG2] |==|  0.62139
USER: genes 15 Torsion [N]-CA--C-[OXT] |==|  0.94559
USER: genes 16 Torsion [N]-CA--CB-[CG] |==|  0.71016
USER: genes 17 Torsion [CA]-CB--CG-[CD] |==|  0.69142
USER: genes 18 Torsion [CB]-CG--CD-[OE1] |==|  0.91575
USER: genes 19 Torsion [N]-C--CA-[N] |==|  0.44928
USER: genes 20 Torsion [C]-CA--CB-[CG] |==|  0.48997
USER: genes 21 Torsion [CA]-CB--CG-[CD] |==|  0.27693
USER: genes 22 Torsion [CB]-CG--CD-[NE] |==|  0.21255
USER: genes 23 Torsion [CG]-CD--NE-[HE] |==|  0.78015
USER: genes 24 Torsion [C]-CA--N-[C] |==|  0.79916
USER: genes 25 Torsion [N]-C--CA-[N] |==|  0.55276
USER: genes 26 Torsion [C]-CA--N-[H2] |==|  0.85985
USER: genes 27 Torsion [C]-CA--CB-[CG] |==|  0.37736
USER: genes 28 Torsion [CA]-CB--CG-[CD] |==|  0.21130
USER: genes 29 Torsion [CB]-CG--CD-[NE] |==|  0.29280
USER: genes 30 Torsion [CG]-CD--NE-[CZ] |==|  0.53026
ROOT
ATOM      1  C   ARG C   2      26.189  20.642  24.380  1.00 17.64 LIG 0.24  C 
ATOM      2 O    ARG C   2      26.423  21.830  24.134  1.00 18.48 LIG-0.27  OA
ATOM      3  N   GLU C   3      27.061  19.674  24.119  1.00 16.82 LIG-0.35  N 
ATOM      4 H    GLU C   3      26.923  18.841  24.286  1.00 16.82 LIG 0.16  HD
ENDROOT
BRANCH 3 5
ATOM      5  CA  GLU C   3      28.355  19.967  23.512  1.00 17.00 LIG 0.18  C 
BRANCH 5 6
ATOM      6  CB  GLU C   3      28.186  20.917  22.316  1.00 16.91 LIG 0.04  C 
BRANCH 6 7
ATOM      7  CG  GLU C   3      29.118  20.588  21.150  1.00 19.77 LIG 0.12  C 
BRANCH 7 8
ATOM      8  CD  GLU C   3      30.014  21.750  20.763  1.00 23.53 LIG 0.17  C 
ATOM      9 OE2  GLU C   3      30.765  22.238  21.629  1.00 22.35 LIG-0.65  OA
ATOM     10 OE1  GLU C   3      29.963  22.173  19.593  1.00 28.80 LIG-0.65  OA
ENDBRANCH 7 8
ENDBRANCH 6 7
ENDBRANCH 5 6
BRANCH 5 11
ATOM     11  C   GLU C   3      29.247  20.606  24.566  1.00 16.25 LIG 0.24  C 
ATOM     12  N   THR C   4      29.073  21.909  24.806  1.00 14.90 LIG-0.34  N 
ATOM     13 H    THR C   4      28.465  22.389  24.432  1.00 14.90 LIG 0.16  HD
ATOM     14 O    GLU C   3      30.091  19.920  25.149  1.00 19.18 LIG-0.27  OA
BRANCH 12 15
ATOM     15  CA  THR C   4      29.922  22.636  25.742  1.00 14.85 LIG 0.20  C 
BRANCH 15 16
ATOM     16  CB  THR C   4      29.498  22.351  27.185  1.00 16.75 LIG 0.15  C 
ATOM     17  CG2 THR C   4      30.185  23.314  28.147  1.00 16.70 LIG 0.04  C 
BRANCH 16 18
ATOM     18 OG1  THR C   4      28.077  22.483  27.290  1.00 17.36 LIG-0.39  OA
ATOM     19 HG1  THR C   4      27.828  23.170  26.876  1.00 17.36 LIG 0.21  HD
ENDBRANCH 16 18
ENDBRANCH 15 16
BRANCH 15 20
ATOM     20  C   THR C   4      31.377  22.230  25.558  1.00 14.69 LIG 0.24  C 
ATOM     21  N   GLN C   5      32.091  22.949  24.695  1.00 15.36 LIG-0.35  N 
ATOM     22 H    GLN C   5      31.755  23.535  24.163  1.00 15.36 LIG 0.16  HD
ATOM     23 O    THR C   4      31.847  21.283  26.198  1.00 15.54 LIG-0.27  OA
BRANCH 21 24
ATOM     24  CA  GLN C   5      33.534  22.792  24.586  1.00 16.48 LIG 0.18  C 
BRANCH 24 25
ATOM     25  C   GLN C   5      33.862  21.389  24.100  1.00 17.30 LIG 0.24  C 
ATOM     26 O    GLN C   5      34.778  20.740  24.622  1.00 19.53 LIG-0.27  OA
ATOM     27  N   VAL C   6      33.140  20.935  23.080  1.00 16.49 LIG-0.34  N 
ATOM     28 H    VAL C   6      32.499  21.376  22.714  1.00 16.49 LIG 0.16  HD
BRANCH 27 29
ATOM     29  CA  VAL C   6      33.382  19.623  22.483  1.00 18.07 LIG 0.19  C 
BRANCH 29 30
ATOM     30  CB  VAL C   6      32.170  19.138  21.664  1.00 20.19 LIG 0.01  C 
ATOM     31  CG1 VAL C   6      32.396  19.356  20.181  1.00 23.48 LIG 0.01  C 
ATOM     32  CG2 VAL C   6      31.887  17.669  21.949  1.00 21.65 LIG 0.01  C 
ENDBRANCH 29 30
BRANCH 29 33
ATOM     33  C   VAL C   6      34.633  19.630  21.615  1.00 18.86 LIG 0.20  C 
ATOM     34 O    VAL C   6      35.222  18.569  21.332  1.00 20.67 LIG-0.65  OA
ATOM     35 OXT  VAL C   6      35.086  20.709  21.196  1.00 19.38 LIG-0.65  OA
ENDBRANCH 29 33
ENDBRANCH 27 29
ENDBRANCH 24 25
BRANCH 24 36
ATOM     36  CB  GLN C   5      34.187  23.007  25.951  1.00 21.66 LIG 0.04  C 
BRANCH 36 37
ATOM     37  CG  GLN C   5      34.890  24.341  26.127  1.00 28.10 LIG 0.10  C 
BRANCH 37 38
ATOM     38  CD  GLN C   5      36.403  24.195  26.217  1.00 33.44 LIG 0.21  C 
ATOM     39  NE2 GLN C   5      37.126  25.210  25.757  1.00 35.38 LIG-0.37  N 
ATOM     40 21HE GLN C   5      36.736  25.904  25.432  1.00 35.38 LIG 0.16  HD
ATOM     41 22HE GLN C   5      37.985  25.173  25.785  1.00 35.38 LIG 0.16  HD
ATOM     42 OE1  GLN C   5      36.912  23.179  26.693  1.00 34.39 LIG-0.27  OA
ENDBRANCH 37 38
ENDBRANCH 36 37
ENDBRANCH 24 36
ENDBRANCH 21 24
ENDBRANCH 15 20
ENDBRANCH 12 15
ENDBRANCH 5 11
ENDBRANCH 3 5
BRANCH 1 43
ATOM     43  CA  ARG C   2      24.849  20.220  24.976  1.00 18.81 LIG 0.18  C 
BRANCH 43 44
ATOM     44  CB  ARG C   2      23.959  19.643  23.878  1.00 19.04 LIG 0.04  C 
BRANCH 44 45
ATOM     45  CG  ARG C   2      22.641  19.120  24.408  1.00 18.27 LIG 0.02  C 
BRANCH 45 46
ATOM     46  CD  ARG C   2      21.540  20.135  24.178  1.00 20.59 LIG 0.14  C 
BRANCH 46 47
ATOM     47  NE  ARG C   2      21.111  20.136  22.783  1.00 21.96 LIG-0.23  N 
ATOM     48 HE   ARG C   2      21.601  20.553  22.213  1.00 21.96 LIG 0.18  HD
ATOM     49  CZ  ARG C   2      20.013  19.533  22.337  1.00 22.93 LIG 0.67  C 
ATOM     50  NH2 ARG C   2      19.706  19.584  21.050  1.00 24.61 LIG-0.23  N 
ATOM     51  NH1 ARG C   2      19.223  18.882  23.179  1.00 22.65 LIG-0.23  N 
ATOM     52 1HH2 ARG C   2      20.218  20.007  20.503  1.00 24.61 LIG 0.17  HD
ATOM     53 2HH2 ARG C   2      18.996  19.195  20.762  1.00 24.61 LIG 0.17  HD
ATOM     54 1HH1 ARG C   2      19.420  18.849  24.015  1.00 22.65 LIG 0.17  HD
ATOM     55 2HH1 ARG C   2      18.513  18.493  22.889  1.00 22.65 LIG 0.17  HD
ENDBRANCH 46 47
ENDBRANCH 45 46
ENDBRANCH 44 45
ENDBRANCH 43 44
BRANCH 43 56
ATOM     56  N   ARG C   2      24.194  21.366  25.596  1.00 21.07 LIG-0.35  N 
ATOM     57  C   ARG C   1      24.648  21.874  26.739  1.00 27.96 LIG 0.25  C 
ATOM     58 O    ARG C   1      25.596  21.393  27.357  1.00 30.47 LIG-0.27  OA
ATOM     59 H    ARG C   2      23.513  21.668  25.166  1.00 21.07 LIG 0.16  HD
BRANCH 57 60
ATOM     60  CA  ARG C   1      23.934  23.111  27.270  1.00 31.07 LIG 0.27  C 
BRANCH 60 61
ATOM     61  N   ARG C   1      24.767  23.819  28.241  1.00 32.37 LIG-0.07  N 
ATOM     62 H2   ARG C   1      25.064  23.245  28.853  1.00 32.37 LIG 0.28  HD
ATOM     63 H1   ARG C   1      24.285  24.454  28.639  1.00 32.37 LIG 0.28  HD
ATOM     64 H3   ARG C   1      25.459  24.191  27.823  1.00 32.37 LIG 0.28  HD
ENDBRANCH 60 61
BRANCH 60 65
ATOM     65  CB  ARG C   1      23.562  24.019  26.097  1.00 35.21 LIG 0.04  C 
BRANCH 65 66
ATOM     66  CG  ARG C   1      22.144  24.575  26.192  1.00 38.18 LIG 0.02  C 
BRANCH 66 67
ATOM     67  CD  ARG C   1      22.033  25.701  27.209  1.00 40.83 LIG 0.14  C 
BRANCH 67 68
ATOM     68  NE  ARG C   1      21.922  27.005  26.565  1.00 41.61 LIG-0.23  N 
ATOM     69  CZ  ARG C   1      22.020  28.166  27.207  1.00 42.69 LIG 0.67  C 
ATOM     70  NH1 ARG C   1      22.231  28.187  28.518  1.00 43.45 LIG-0.23  N 
ATOM     71  NH2 ARG C   1      21.910  29.305  26.536  1.00 42.77 LIG-0.23  N 
ATOM     72 1HH1 ARG C   1      22.304  27.450  28.954  1.00 43.45 LIG 0.17  HD
ATOM     73 2HH1 ARG C   1      22.294  28.939  28.931  1.00 43.45 LIG 0.17  HD
ATOM     74 1HH2 ARG C   1      21.775  29.293  25.686  1.00 42.77 LIG 0.17  HD
ATOM     75 2HH2 ARG C   1      21.974  30.056  26.950  1.00 42.77 LIG 0.17  HD
ATOM     76 HE   ARG C   1      21.783  27.025  25.717  1.00 41.61 LIG 0.18  HD
ENDBRANCH 67 68
ENDBRANCH 66 67
ENDBRANCH 65 66
ENDBRANCH 60 65
ENDBRANCH 57 60
ENDBRANCH 43 56
ENDBRANCH 1 43
TORSDOF 29
ENDMDL
MODEL 6
USER: ADFR SOLUTION from run 77
USER: SCORE 19.378815 LL:  -4.788 LR: -16.371 RR:   0.000 FEB:  -7.720
USER: RMSD 10.142926
USER: SEED 76
USER: STATUS searching
USER: GENES 31
USER: genes 0 Translation |==|  0.61533 0.55286 0.38232
USER: genes 1 Rotation |==|  0.30786 0.67992 0.37290 0.90566
USER: genes 2 Torsion [C]-N--CA-[CB] |==|  0.22043
USER: genes 3 Torsion [N]-CA--CB-[CG] |==|  0.39099
USER: genes 4 Torsion [CA]-CB--CG-[CD] |==|  0.70476
USER: genes 5 Torsion [CB]-CG--CD-[OE2] |==|  0.87087
USER: genes 6 Torsion [N]-CA--C-[N] |==|  0.41716
USER: genes 7 Torsion [C]-N--CA-[CB] |==|  0.86055
USER: genes 8 Torsion [N]-CA--CB-[CG2] |==|  0.45721
USER: genes 9 Torsion [CA]-CB--OG1-[HG1] |==|  0.30202
USER: genes 10 Torsion [N]-CA--C-[N] |==|  0.35559
USER: genes 11 Torsion [C]-N--CA-[C] |==|  0.64037
USER: genes 12 Torsion [N]-CA--C-[N] |==|  0.91867
USER: genes 13 Torsion [C]-N--CA-[CB] |==|  0.30556
USER: genes 14 Torsion [N]-CA--CB-[CG2] |==|  0.12281
USER: genes 15 Torsion [N]-CA--C-[OXT] |==|  0.13891
USER: genes 16 Torsion [N]-CA--CB-[CG] |==|  0.20583
USER: genes 17 Torsion [CA]-CB--CG-[CD] |==|  0.33817
USER: genes 18 Torsion [CB]-CG--CD-[OE1] |==|  0.99247
USER: genes 19 Torsion [N]-C--CA-[N] |==|  0.15835
USER: genes 20 Torsion [C]-CA--CB-[CG] |==|  0.50018
USER: genes 21 Torsion [CA]-CB--CG-[CD] |==|  0.38203
USER: genes 22 Torsion [CB]-CG--CD-[NE] |==|  0.65199
USER: genes 23 Torsion [CG]-CD--NE-[HE] |==|  0.27318
USER: genes 24 Torsion [C]-CA--N-[C] |==|  0.76902
USER: genes 25 Torsion [N]-C--CA-[N] |==|  0.88720
USER: genes 26 Torsion [C]-CA--N-[H2] |==|  0.51245
USER: genes 27 Torsion [C]-CA--CB-[CG] |==|  0.71524
USER: genes 28 Torsion [CA]-CB--CG-[CD] |==|  0.60405
USER: genes 29 Torsion [CB]-CG--CD-[NE] |==|  0.54293
USER: genes 30 Torsion [CG]-CD--NE-[CZ] |==|  0.46214
ROOT
ATOM      1  C   ARG C   2      27.510  20.814  23.536  1.00 17.64 LIG 0.24  C 
ATOM      2 O    ARG C   2      26.866  21.057  22.510  1.00 18.48 LIG-0.27  OA
ATOM      3  N   GLU C   3      28.773  20.402  23.505  1.00 16.82 LIG-0.35  N 
ATOM      4 H    GLU C   3      29.243  20.231  24.205  1.00 16.82 LIG 0.16  HD
ENDROOT
BRANCH 3 5
ATOM      5  CA  GLU C   3      29.472  20.206  22.239  1.00 17.00 LIG 0.18  C 
BRANCH 5 6
ATOM      6  CB  GLU C   3      29.951  21.552  21.674  1.00 16.91 LIG 0.04  C 
BRANCH 6 7
ATOM      7  CG  GLU C   3      31.337  21.477  21.033  1.00 19.77 LIG 0.12  C 
BRANCH 7 8
ATOM      8  CD  GLU C   3      32.417  22.125  21.879  1.00 23.53 LIG 0.17  C 
ATOM      9 OE2  GLU C   3      32.196  23.249  22.369  1.00 22.35 LIG-0.65  OA
ATOM     10 OE1  GLU C   3      33.485  21.508  22.051  1.00 28.80 LIG-0.65  OA
ENDBRANCH 7 8
ENDBRANCH 6 7
ENDBRANCH 5 6
BRANCH 5 11
ATOM     11  C   GLU C   3      30.661  19.288  22.483  1.00 16.25 LIG 0.24  C 
ATOM     12  N   THR C   4      31.050  18.511  21.468  1.00 14.90 LIG-0.34  N 
ATOM     13 H    THR C   4      30.697  18.532  20.684  1.00 14.90 LIG 0.16  HD
ATOM     14 O    GLU C   3      31.212  19.283  23.586  1.00 19.18 LIG-0.27  OA
BRANCH 12 15
ATOM     15  CA  THR C   4      32.131  17.543  21.616  1.00 14.85 LIG 0.20  C 
BRANCH 15 16
ATOM     16  CB  THR C   4      33.363  18.204  22.239  1.00 16.75 LIG 0.15  C 
ATOM     17  CG2 THR C   4      34.343  17.149  22.742  1.00 16.70 LIG 0.04  C 
BRANCH 16 18
ATOM     18 OG1  THR C   4      33.996  19.032  21.258  1.00 17.36 LIG-0.39  OA
ATOM     19 HG1  THR C   4      33.876  19.840  21.454  1.00 17.36 LIG 0.21  HD
ENDBRANCH 16 18
ENDBRANCH 15 16
BRANCH 15 20
ATOM     20  C   THR C   4      31.685  16.385  22.496  1.00 14.69 LIG 0.24  C 
ATOM     21  N   GLN C   5      31.862  15.161  22.004  1.00 15.36 LIG-0.35  N 
ATOM     22 H    GLN C   5      32.096  14.997  21.193  1.00 15.36 LIG 0.16  HD
ATOM     23 O    THR C   4      31.195  16.600  23.610  1.00 15.54 LIG-0.27  OA
BRANCH 21 24
ATOM     24  CA  GLN C   5      31.668  13.976  22.827  1.00 16.48 LIG 0.18  C 
BRANCH 24 25
ATOM     25  C   GLN C   5      32.879  13.065  22.707  1.00 17.30 LIG 0.24  C 
ATOM     26 O    GLN C   5      33.226  12.350  23.657  1.00 19.53 LIG-0.27  OA
ATOM     27  N   VAL C   6      33.544  13.115  21.557  1.00 16.49 LIG-0.34  N 
ATOM     28 H    VAL C   6      33.308  13.604  20.889  1.00 16.49 LIG 0.16  HD
BRANCH 27 29
ATOM     29  CA  VAL C   6      34.753  12.328  21.325  1.00 18.07 LIG 0.19  C 
BRANCH 29 30
ATOM     30  CB  VAL C   6      34.511  11.197  20.308  1.00 20.19 LIG 0.01  C 
ATOM     31  CG1 VAL C   6      33.802  10.025  20.958  1.00 23.48 LIG 0.01  C 
ATOM     32  CG2 VAL C   6      33.708  11.710  19.119  1.00 21.65 LIG 0.01  C 
ENDBRANCH 29 30
BRANCH 29 33
ATOM     33  C   VAL C   6      35.909  13.207  20.867  1.00 18.86 LIG 0.20  C 
ATOM     34 O    VAL C   6      36.590  12.902  19.870  1.00 20.67 LIG-0.65  OA
ATOM     35 OXT  VAL C   6      36.190  14.235  21.507  1.00 19.38 LIG-0.65  OA
ENDBRANCH 29 33
ENDBRANCH 27 29
ENDBRANCH 24 25
BRANCH 24 36
ATOM     36  CB  GLN C   5      30.428  13.214  22.359  1.00 21.66 LIG 0.04  C 
BRANCH 36 37
ATOM     37  CG  GLN C   5      30.595  12.448  21.058  1.00 28.10 LIG 0.10  C 
BRANCH 37 38
ATOM     38  CD  GLN C   5      30.318  10.959  21.219  1.00 33.44 LIG 0.21  C 
ATOM     39  NE2 GLN C   5      30.384  10.221  20.117  1.00 35.38 LIG-0.37  N 
ATOM     40 21HE GLN C   5      30.576  10.589  19.364  1.00 35.38 LIG 0.16  HD
ATOM     41 22HE GLN C   5      30.234   9.375  20.157  1.00 35.38 LIG 0.16  HD
ATOM     42 OE1  GLN C   5      30.046  10.484  22.323  1.00 34.39 LIG-0.27  OA
ENDBRANCH 37 38
ENDBRANCH 36 37
ENDBRANCH 24 36
ENDBRANCH 21 24
ENDBRANCH 15 20
ENDBRANCH 12 15
ENDBRANCH 5 11
ENDBRANCH 3 5
BRANCH 1 43
ATOM     43  CA  ARG C   2      26.863  20.945  24.911  1.00 18.81 LIG 0.18  C 
BRANCH 43 44
ATOM     44  CB  ARG C   2      25.439  21.473  24.760  1.00 19.04 LIG 0.04  C 
BRANCH 44 45
ATOM     45  CG  ARG C   2      24.729  21.632  26.088  1.00 18.27 LIG 0.02  C 
BRANCH 45 46
ATOM     46  CD  ARG C   2      23.954  22.933  26.119  1.00 20.59 LIG 0.14  C 
BRANCH 46 47
ATOM     47  NE  ARG C   2      24.333  23.741  27.274  1.00 21.96 LIG-0.23  N 
ATOM     48 HE   ARG C   2      24.905  24.372  27.153  1.00 21.96 LIG 0.18  HD
ATOM     49  CZ  ARG C   2      23.852  23.565  28.501  1.00 22.93 LIG 0.67  C 
ATOM     50  NH2 ARG C   2      24.252  24.351  29.488  1.00 24.61 LIG-0.23  N 
ATOM     51  NH1 ARG C   2      22.974  22.601  28.739  1.00 22.65 LIG-0.23  N 
ATOM     52 1HH2 ARG C   2      24.823  24.976  29.335  1.00 24.61 LIG 0.17  HD
ATOM     53 2HH2 ARG C   2      23.942  24.237  30.282  1.00 24.61 LIG 0.17  HD
ATOM     54 1HH1 ARG C   2      22.714  22.088  28.100  1.00 22.65 LIG 0.17  HD
ATOM     55 2HH1 ARG C   2      22.664  22.488  29.533  1.00 22.65 LIG 0.17  HD
ENDBRANCH 46 47
ENDBRANCH 45 46
ENDBRANCH 44 45
ENDBRANCH 43 44
BRANCH 43 56
ATOM     56  N   ARG C   2      27.642  21.851  25.746  1.00 21.07 LIG-0.35  N 
ATOM     57  C   ARG C   1      28.712  21.418  26.408  1.00 27.96 LIG 0.25  C 
ATOM     58 O    ARG C   1      29.077  20.244  26.398  1.00 30.47 LIG-0.27  OA
ATOM     59 H    ARG C   2      27.353  22.662  25.767  1.00 21.07 LIG 0.16  HD
BRANCH 57 60
ATOM     60  CA  ARG C   1      29.496  22.458  27.200  1.00 31.07 LIG 0.27  C 
BRANCH 60 61
ATOM     61  N   ARG C   1      29.607  23.710  26.452  1.00 32.37 LIG-0.07  N 
ATOM     62 H2   ARG C   1      30.122  24.280  26.902  1.00 32.37 LIG 0.28  HD
ATOM     63 H1   ARG C   1      28.797  24.064  26.344  1.00 32.37 LIG 0.28  HD
ATOM     64 H3   ARG C   1      29.969  23.549  25.655  1.00 32.37 LIG 0.28  HD
ENDBRANCH 60 61
BRANCH 60 65
ATOM     65  CB  ARG C   1      28.815  22.681  28.551  1.00 35.21 LIG 0.04  C 
BRANCH 65 66
ATOM     66  CG  ARG C   1      27.995  23.967  28.607  1.00 38.18 LIG 0.02  C 
BRANCH 66 67
ATOM     67  CD  ARG C   1      28.091  24.652  29.962  1.00 40.83 LIG 0.14  C 
BRANCH 67 68
ATOM     68  NE  ARG C   1      27.048  25.657  30.138  1.00 41.61 LIG-0.23  N 
ATOM     69  CZ  ARG C   1      26.737  26.214  31.304  1.00 42.69 LIG 0.67  C 
ATOM     70  NH1 ARG C   1      27.389  25.862  32.407  1.00 43.45 LIG-0.23  N 
ATOM     71  NH2 ARG C   1      25.775  27.126  31.367  1.00 42.77 LIG-0.23  N 
ATOM     72 1HH1 ARG C   1      28.013  25.273  32.367  1.00 43.45 LIG 0.17  HD
ATOM     73 2HH1 ARG C   1      27.186  26.224  33.160  1.00 43.45 LIG 0.17  HD
ATOM     74 1HH2 ARG C   1      25.353  27.356  30.653  1.00 42.77 LIG 0.17  HD
ATOM     75 2HH2 ARG C   1      25.573  27.487  32.121  1.00 42.77 LIG 0.17  HD
ATOM     76 HE   ARG C   1      26.606  25.904  29.443  1.00 41.61 LIG 0.18  HD
ENDBRANCH 67 68
ENDBRANCH 66 67
ENDBRANCH 65 66
ENDBRANCH 60 65
ENDBRANCH 57 60
ENDBRANCH 43 56
ENDBRANCH 1 43
TORSDOF 29
ENDMDL
MODEL 7
USER: ADFR SOLUTION from run 173
USER: SCORE 17.304752 LL:  -4.135 LR: -16.323 RR:   0.000 FEB:  -7.673
USER: RMSD 9.523021
USER: SEED 172
USER: STATUS no improvement in best in 12 clusters for 5 generations
USER: GENES 31
USER: genes 0 Translation |==|  0.59458 0.56128 0.41079
USER: genes 1 Rotation |==|  0.28504 0.64258 0.38641 0.91299
USER: genes 2 Torsion [C]-N--CA-[CB] |==|  0.38690
USER: genes 3 Torsion [N]-CA--CB-[CG] |==|  0.52667
USER: genes 4 Torsion [CA]-CB--CG-[CD] |==|  0.49734
USER: genes 5 Torsion [CB]-CG--CD-[OE2] |==|  0.82900
USER: genes 6 Torsion [N]-CA--C-[N] |==|  0.91142
USER: genes 7 Torsion [C]-N--CA-[CB] |==|  0.30051
USER: genes 8 Torsion [N]-CA--CB-[CG2] |==|  0.64410
USER: genes 9 Torsion [CA]-CB--OG1-[HG1] |==|  0.60394
USER: genes 10 Torsion [N]-CA--C-[N] |==|  0.30327
USER: genes 11 Torsion [C]-N--CA-[C] |==|  0.67792
USER: genes 12 Torsion [N]-CA--C-[N] |==|  0.04310
USER: genes 13 Torsion [C]-N--CA-[CB] |==|  0.47422
USER: genes 14 Torsion [N]-CA--CB-[CG2] |==|  0.15521
USER: genes 15 Torsion [N]-CA--C-[OXT] |==|  0.35631
USER: genes 16 Torsion [N]-CA--CB-[CG] |==|  0.08613
USER: genes 17 Torsion [CA]-CB--CG-[CD] |==|  0.23769
USER: genes 18 Torsion [CB]-CG--CD-[OE1] |==|  0.27302
USER: genes 19 Torsion [N]-C--CA-[N] |==|  0.13772
USER: genes 20 Torsion [C]-CA--CB-[CG] |==|  0.54759
USER: genes 21 Torsion [CA]-CB--CG-[CD] |==|  0.36322
USER: genes 22 Torsion [CB]-CG--CD-[NE] |==|  0.61198
USER: genes 23 Torsion [CG]-CD--NE-[HE] |==|  0.25286
USER: genes 24 Torsion [C]-CA--N-[C] |==|  0.75843
USER: genes 25 Torsion [N]-C--CA-[N] |==|  0.82129
USER: genes 26 Torsion [C]-CA--N-[H2] |==|  0.07174
USER: genes 27 Torsion [C]-CA--CB-[CG] |==|  0.10503
USER: genes 28 Torsion [CA]-CB--CG-[CD] |==|  0.49360
USER: genes 29 Torsion [CB]-CG--CD-[NE] |==|  0.01199
USER: genes 30 Torsion [CG]-CD--NE-[CZ] |==|  0.63054
ROOT
ATOM      1  C   ARG C   2      26.934  21.010  24.069  1.00 17.64 LIG 0.24  C 
ATOM      2 O    ARG C   2      26.361  21.080  22.978  1.00 18.48 LIG-0.27  OA
ATOM      3  N   GLU C   3      28.239  20.784  24.178  1.00 16.82 LIG-0.35  N 
ATOM      4 H    GLU C   3      28.661  20.735  24.926  1.00 16.82 LIG 0.16  HD
ENDROOT
BRANCH 3 5
ATOM      5  CA  GLU C   3      29.073  20.596  22.995  1.00 17.00 LIG 0.18  C 
BRANCH 5 6
ATOM      6  CB  GLU C   3      30.419  21.319  23.166  1.00 16.91 LIG 0.04  C 
BRANCH 6 7
ATOM      7  CG  GLU C   3      31.246  21.361  21.880  1.00 19.77 LIG 0.12  C 
BRANCH 7 8
ATOM      8  CD  GLU C   3      32.563  22.096  22.048  1.00 23.53 LIG 0.17  C 
ATOM      9 OE2  GLU C   3      32.538  23.301  22.366  1.00 22.35 LIG-0.65  OA
ATOM     10 OE1  GLU C   3      33.620  21.466  21.860  1.00 28.80 LIG-0.65  OA
ENDBRANCH 7 8
ENDBRANCH 6 7
ENDBRANCH 5 6
BRANCH 5 11
ATOM     11  C   GLU C   3      29.301  19.105  22.798  1.00 16.25 LIG 0.24  C 
ATOM     12  N   THR C   4      29.350  18.344  23.895  1.00 14.90 LIG-0.34  N 
ATOM     13 H    THR C   4      29.220  18.641  24.691  1.00 14.90 LIG 0.16  HD
ATOM     14 O    GLU C   3      29.439  18.655  21.658  1.00 19.18 LIG-0.27  OA
BRANCH 12 15
ATOM     15  CA  THR C   4      29.635  16.916  23.824  1.00 14.85 LIG 0.20  C 
BRANCH 15 16
ATOM     16  CB  THR C   4      31.036  16.619  24.364  1.00 16.75 LIG 0.15  C 
ATOM     17  CG2 THR C   4      31.835  15.793  23.361  1.00 16.70 LIG 0.04  C 
BRANCH 16 18
ATOM     18 OG1  THR C   4      31.708  17.855  24.626  1.00 17.36 LIG-0.39  OA
ATOM     19 HG1  THR C   4      32.520  17.782  24.424  1.00 17.36 LIG 0.21  HD
ENDBRANCH 16 18
ENDBRANCH 15 16
BRANCH 15 20
ATOM     20  C   THR C   4      28.611  16.133  24.632  1.00 14.69 LIG 0.24  C 
ATOM     21  N   GLN C   5      27.735  15.408  23.941  1.00 15.36 LIG-0.35  N 
ATOM     22 H    GLN C   5      27.642  15.450  23.087  1.00 15.36 LIG 0.16  HD
ATOM     23 O    THR C   4      28.622  16.181  25.867  1.00 15.54 LIG-0.27  OA
BRANCH 21 24
ATOM     24  CA  GLN C   5      26.845  14.462  24.597  1.00 16.48 LIG 0.18  C 
BRANCH 24 25
ATOM     25  C   GLN C   5      27.163  13.050  24.132  1.00 17.30 LIG 0.24  C 
ATOM     26 O    GLN C   5      26.378  12.120  24.360  1.00 19.53 LIG-0.27  OA
ATOM     27  N   VAL C   6      28.328  12.881  23.514  1.00 16.49 LIG-0.34  N 
ATOM     28 H    VAL C   6      28.878  13.522  23.347  1.00 16.49 LIG 0.16  HD
BRANCH 27 29
ATOM     29  CA  VAL C   6      28.780  11.569  23.058  1.00 18.07 LIG 0.19  C 
BRANCH 29 30
ATOM     30  CB  VAL C   6      30.040  11.675  22.178  1.00 20.19 LIG 0.01  C 
ATOM     31  CG1 VAL C   6      29.729  12.372  20.867  1.00 23.48 LIG 0.01  C 
ATOM     32  CG2 VAL C   6      31.151  12.408  22.919  1.00 21.65 LIG 0.01  C 
ENDBRANCH 29 30
BRANCH 29 33
ATOM     33  C   VAL C   6      29.037  10.632  24.231  1.00 18.86 LIG 0.20  C 
ATOM     34 O    VAL C   6      29.780  10.971  25.172  1.00 20.67 LIG-0.65  OA
ATOM     35 OXT  VAL C   6      28.515   9.504  24.242  1.00 19.38 LIG-0.65  OA
ENDBRANCH 29 33
ENDBRANCH 27 29
ENDBRANCH 24 25
BRANCH 24 36
ATOM     36  CB  GLN C   5      25.392  14.783  24.245  1.00 21.66 LIG 0.04  C 
BRANCH 36 37
ATOM     37  CG  GLN C   5      25.181  15.392  22.871  1.00 28.10 LIG 0.10  C 
BRANCH 37 38
ATOM     38  CD  GLN C   5      25.056  14.338  21.779  1.00 33.44 LIG 0.21  C 
ATOM     39  NE2 GLN C   5      26.192  13.839  21.304  1.00 35.38 LIG-0.37  N 
ATOM     40 21HE GLN C   5      26.946  14.112  21.616  1.00 35.38 LIG 0.16  HD
ATOM     41 22HE GLN C   5      26.173  13.242  20.686  1.00 35.38 LIG 0.16  HD
ATOM     42 OE1  GLN C   5      23.951  13.983  21.369  1.00 34.39 LIG-0.27  OA
ENDBRANCH 37 38
ENDBRANCH 36 37
ENDBRANCH 24 36
ENDBRANCH 21 24
ENDBRANCH 15 20
ENDBRANCH 12 15
ENDBRANCH 5 11
ENDBRANCH 3 5
BRANCH 1 43
ATOM     43  CA  ARG C   2      26.150  21.148  25.371  1.00 18.81 LIG 0.18  C 
BRANCH 43 44
ATOM     44  CB  ARG C   2      24.734  21.632  25.067  1.00 19.04 LIG 0.04  C 
BRANCH 44 45
ATOM     45  CG  ARG C   2      24.030  22.185  26.288  1.00 18.27 LIG 0.02  C 
BRANCH 45 46
ATOM     46  CD  ARG C   2      23.416  23.535  25.977  1.00 20.59 LIG 0.14  C 
BRANCH 46 47
ATOM     47  NE  ARG C   2      23.591  24.460  27.092  1.00 21.96 LIG-0.23  N 
ATOM     48 HE   ARG C   2      24.293  24.957  27.096  1.00 21.96 LIG 0.18  HD
ATOM     49  CZ  ARG C   2      22.736  24.585  28.102  1.00 22.93 LIG 0.67  C 
ATOM     50  NH2 ARG C   2      22.976  25.456  29.070  1.00 24.61 LIG-0.23  N 
ATOM     51  NH1 ARG C   2      21.642  23.837  28.144  1.00 22.65 LIG-0.23  N 
ATOM     52 1HH2 ARG C   2      23.686  25.941  29.044  1.00 24.61 LIG 0.17  HD
ATOM     53 2HH2 ARG C   2      22.423  25.536  29.723  1.00 24.61 LIG 0.17  HD
ATOM     54 1HH1 ARG C   2      21.485  23.269  27.518  1.00 22.65 LIG 0.17  HD
ATOM     55 2HH1 ARG C   2      21.090  23.919  28.799  1.00 22.65 LIG 0.17  HD
ENDBRANCH 46 47
ENDBRANCH 45 46
ENDBRANCH 44 45
ENDBRANCH 43 44
BRANCH 43 56
ATOM     56  N   ARG C   2      26.818  22.093  26.259  1.00 21.07 LIG-0.35  N 
ATOM     57  C   ARG C   1      27.777  21.688  27.088  1.00 27.96 LIG 0.25  C 
ATOM     58 O    ARG C   1      28.121  20.512  27.190  1.00 30.47 LIG-0.27  OA
ATOM     59 H    ARG C   2      26.541  22.905  26.196  1.00 21.07 LIG 0.16  HD
BRANCH 57 60
ATOM     60  CA  ARG C   1      28.457  22.763  27.926  1.00 31.07 LIG 0.27  C 
BRANCH 60 61
ATOM     61  N   ARG C   1      29.183  23.707  27.078  1.00 32.37 LIG-0.07  N 
ATOM     62 H2   ARG C   1      28.813  23.723  26.268  1.00 32.37 LIG 0.28  HD
ATOM     63 H1   ARG C   1      30.034  23.453  27.010  1.00 32.37 LIG 0.28  HD
ATOM     64 H3   ARG C   1      29.144  24.520  27.437  1.00 32.37 LIG 0.28  HD
ENDBRANCH 60 61
BRANCH 60 65
ATOM     65  CB  ARG C   1      27.406  23.480  28.774  1.00 35.21 LIG 0.04  C 
BRANCH 65 66
ATOM     66  CG  ARG C   1      26.324  22.546  29.309  1.00 38.18 LIG 0.02  C 
BRANCH 66 67
ATOM     67  CD  ARG C   1      25.323  23.272  30.195  1.00 40.83 LIG 0.14  C 
BRANCH 67 68
ATOM     68  NE  ARG C   1      25.578  24.708  30.240  1.00 41.61 LIG-0.23  N 
ATOM     69  CZ  ARG C   1      25.608  25.427  31.358  1.00 42.69 LIG 0.67  C 
ATOM     70  NH1 ARG C   1      25.394  24.843  32.532  1.00 43.45 LIG-0.23  N 
ATOM     71  NH2 ARG C   1      25.853  26.729  31.302  1.00 42.77 LIG-0.23  N 
ATOM     72 1HH1 ARG C   1      25.236  23.999  32.570  1.00 43.45 LIG 0.17  HD
ATOM     73 2HH1 ARG C   1      25.413  25.310  33.254  1.00 43.45 LIG 0.17  HD
ATOM     74 1HH2 ARG C   1      25.993  27.108  30.542  1.00 42.77 LIG 0.17  HD
ATOM     75 2HH2 ARG C   1      25.872  27.195  32.025  1.00 42.77 LIG 0.17  HD
ATOM     76 HE   ARG C   1      25.717  25.115  29.496  1.00 41.61 LIG 0.18  HD
ENDBRANCH 67 68
ENDBRANCH 66 67
ENDBRANCH 65 66
ENDBRANCH 60 65
ENDBRANCH 57 60
ENDBRANCH 43 56
ENDBRANCH 1 43
TORSDOF 29
ENDMDL
MODEL 8
USER: ADFR SOLUTION from run 143
USER: SCORE 17.979571 LL:  -4.512 LR: -16.306 RR:   0.000 FEB:  -7.655
USER: RMSD 7.555966
USER: SEED 142
USER: STATUS no improvement in best in 2 clusters for 5 generations
USER: GENES 31
USER: genes 0 Translation |==|  0.45122 0.46611 0.43625
USER: genes 1 Rotation |==|  0.01302 0.39114 0.46917 0.50718
USER: genes 2 Torsion [C]-N--CA-[CB] |==|  0.26112
USER: genes 3 Torsion [N]-CA--CB-[CG] |==|  0.69816
USER: genes 4 Torsion [CA]-CB--CG-[CD] |==|  0.31829
USER: genes 5 Torsion [CB]-CG--CD-[OE2] |==|  0.27384
USER: genes 6 Torsion [N]-CA--C-[N] |==|  0.44654
USER: genes 7 Torsion [C]-N--CA-[CB] |==|  0.29574
USER: genes 8 Torsion [N]-CA--CB-[CG2] |==|  0.49379
USER: genes 9 Torsion [CA]-CB--OG1-[HG1] |==|  0.75818
USER: genes 10 Torsion [N]-CA--C-[N] |==|  0.41438
USER: genes 11 Torsion [C]-N--CA-[C] |==|  0.64251
USER: genes 12 Torsion [N]-CA--C-[N] |==|  0.28448
USER: genes 13 Torsion [C]-N--CA-[CB] |==|  0.21946
USER: genes 14 Torsion [N]-CA--CB-[CG2] |==|  0.48111
USER: genes 15 Torsion [N]-CA--C-[OXT] |==|  0.91960
USER: genes 16 Torsion [N]-CA--CB-[CG] |==|  0.79425
USER: genes 17 Torsion [CA]-CB--CG-[CD] |==|  0.32291
USER: genes 18 Torsion [CB]-CG--CD-[OE1] |==|  0.97854
USER: genes 19 Torsion [N]-C--CA-[N] |==|  0.40045
USER: genes 20 Torsion [C]-CA--CB-[CG] |==|  0.21792
USER: genes 21 Torsion [CA]-CB--CG-[CD] |==|  0.53041
USER: genes 22 Torsion [CB]-CG--CD-[NE] |==|  0.27069
USER: genes 23 Torsion [CG]-CD--NE-[HE] |==|  0.80151
USER: genes 24 Torsion [C]-CA--N-[C] |==|  0.64021
USER: genes 25 Torsion [N]-C--CA-[N] |==|  0.46621
USER: genes 26 Torsion [C]-CA--N-[H2] |==|  0.91567
USER: genes 27 Torsion [C]-CA--CB-[CG] |==|  0.72967
USER: genes 28 Torsion [CA]-CB--CG-[CD] |==|  0.45355
USER: genes 29 Torsion [CB]-CG--CD-[NE] |==|  0.50851
USER: genes 30 Torsion [CG]-CD--NE-[CZ] |==|  0.56196
ROOT
ATOM      1  C   ARG C   2      22.956  18.797  24.547  1.00 17.64 LIG 0.24  C 
ATOM      2 O    ARG C   2      23.087  17.886  25.370  1.00 18.48 LIG-0.27  OA
ATOM      3  N   GLU C   3      23.987  19.328  23.899  1.00 16.82 LIG-0.35  N 
ATOM      4 H    GLU C   3      23.921  19.960  23.318  1.00 16.82 LIG 0.16  HD
ENDROOT
BRANCH 3 5
ATOM      5  CA  GLU C   3      25.349  18.861  24.136  1.00 17.00 LIG 0.18  C 
BRANCH 5 6
ATOM      6  CB  GLU C   3      25.733  17.780  23.114  1.00 16.91 LIG 0.04  C 
BRANCH 6 7
ATOM      7  CG  GLU C   3      25.824  16.380  23.723  1.00 19.77 LIG 0.12  C 
BRANCH 7 8
ATOM      8  CD  GLU C   3      24.773  15.430  23.180  1.00 23.53 LIG 0.17  C 
ATOM      9 OE2  GLU C   3      25.096  14.638  22.273  1.00 22.35 LIG-0.65  OA
ATOM     10 OE1  GLU C   3      23.626  15.479  23.660  1.00 28.80 LIG-0.65  OA
ENDBRANCH 7 8
ENDBRANCH 6 7
ENDBRANCH 5 6
BRANCH 5 11
ATOM     11  C   GLU C   3      26.293  20.048  24.022  1.00 16.25 LIG 0.24  C 
ATOM     12  N   THR C   4      27.501  19.925  24.579  1.00 14.90 LIG-0.34  N 
ATOM     13 H    THR C   4      27.784  19.205  24.957  1.00 14.90 LIG 0.16  HD
ATOM     14 O    GLU C   3      25.921  21.069  23.438  1.00 19.18 LIG-0.27  OA
BRANCH 12 15
ATOM     15  CA  THR C   4      28.456  21.026  24.591  1.00 14.85 LIG 0.20  C 
BRANCH 15 16
ATOM     16  CB  THR C   4      28.565  21.629  25.994  1.00 16.75 LIG 0.15  C 
ATOM     17  CG2 THR C   4      29.603  22.745  26.020  1.00 16.70 LIG 0.04  C 
BRANCH 16 18
ATOM     18 OG1  THR C   4      27.287  22.140  26.384  1.00 17.36 LIG-0.39  OA
ATOM     19 HG1  THR C   4      27.204  22.929  26.109  1.00 17.36 LIG 0.21  HD
ENDBRANCH 16 18
ENDBRANCH 15 16
BRANCH 15 20
ATOM     20  C   THR C   4      29.827  20.540  24.146  1.00 14.69 LIG 0.24  C 
ATOM     21  N   GLN C   5      30.595  21.423  23.512  1.00 15.36 LIG-0.35  N 
ATOM     22 H    GLN C   5      30.322  22.192  23.241  1.00 15.36 LIG 0.16  HD
ATOM     23 O    THR C   4      30.186  19.381  24.384  1.00 15.54 LIG-0.27  OA
BRANCH 21 24
ATOM     24  CA  GLN C   5      31.994  21.143  23.222  1.00 16.48 LIG 0.18  C 
BRANCH 24 25
ATOM     25  C   GLN C   5      32.859  22.295  23.709  1.00 17.30 LIG 0.24  C 
ATOM     26 O    GLN C   5      32.956  23.335  23.043  1.00 19.53 LIG-0.27  OA
ATOM     27  N   VAL C   6      33.514  22.100  24.849  1.00 16.49 LIG-0.34  N 
ATOM     28 H    VAL C   6      33.449  21.383  25.321  1.00 16.49 LIG 0.16  HD
BRANCH 27 29
ATOM     29  CA  VAL C   6      34.417  23.104  25.406  1.00 18.07 LIG 0.19  C 
BRANCH 29 30
ATOM     30  CB  VAL C   6      33.645  24.228  26.125  1.00 20.19 LIG 0.01  C 
ATOM     31  CG1 VAL C   6      32.643  23.654  27.107  1.00 23.48 LIG 0.01  C 
ATOM     32  CG2 VAL C   6      34.610  25.167  26.837  1.00 21.65 LIG 0.01  C 
ENDBRANCH 29 30
BRANCH 29 33
ATOM     33  C   VAL C   6      35.431  22.476  26.353  1.00 18.86 LIG 0.20  C 
ATOM     34 O    VAL C   6      36.565  22.970  26.497  1.00 20.67 LIG-0.65  OA
ATOM     35 OXT  VAL C   6      35.132  21.444  26.978  1.00 19.38 LIG-0.65  OA
ENDBRANCH 29 33
ENDBRANCH 27 29
ENDBRANCH 24 25
BRANCH 24 36
ATOM     36  CB  GLN C   5      32.191  20.980  21.715  1.00 21.66 LIG 0.04  C 
BRANCH 36 37
ATOM     37  CG  GLN C   5      31.670  19.678  21.133  1.00 28.10 LIG 0.10  C 
BRANCH 37 38
ATOM     38  CD  GLN C   5      30.538  19.896  20.139  1.00 33.44 LIG 0.21  C 
ATOM     39  NE2 GLN C   5      30.129  18.829  19.461  1.00 35.38 LIG-0.37  N 
ATOM     40 21HE GLN C   5      30.501  18.065  19.596  1.00 35.38 LIG 0.16  HD
ATOM     41 22HE GLN C   5      29.493  18.902  18.887  1.00 35.38 LIG 0.16  HD
ATOM     42 OE1  GLN C   5      30.040  21.012  19.984  1.00 34.39 LIG-0.27  OA
ENDBRANCH 37 38
ENDBRANCH 36 37
ENDBRANCH 24 36
ENDBRANCH 21 24
ENDBRANCH 15 20
ENDBRANCH 12 15
ENDBRANCH 5 11
ENDBRANCH 3 5
BRANCH 1 43
ATOM     43  CA  ARG C   2      21.581  19.390  24.254  1.00 18.81 LIG 0.18  C 
BRANCH 43 44
ATOM     44  CB  ARG C   2      21.249  20.455  25.296  1.00 19.04 LIG 0.04  C 
BRANCH 44 45
ATOM     45  CG  ARG C   2      21.947  21.772  25.030  1.00 18.27 LIG 0.02  C 
BRANCH 45 46
ATOM     46  CD  ARG C   2      21.802  22.696  26.221  1.00 20.59 LIG 0.14  C 
BRANCH 46 47
ATOM     47  NE  ARG C   2      22.985  22.642  27.074  1.00 21.96 LIG-0.23  N 
ATOM     48 HE   ARG C   2      23.112  21.929  27.539  1.00 21.96 LIG 0.18  HD
ATOM     49  CZ  ARG C   2      23.878  23.621  27.181  1.00 22.93 LIG 0.67  C 
ATOM     50  NH2 ARG C   2      24.924  23.480  27.979  1.00 24.61 LIG-0.23  N 
ATOM     51  NH1 ARG C   2      23.721  24.742  26.489  1.00 22.65 LIG-0.23  N 
ATOM     52 1HH2 ARG C   2      25.027  22.754  28.428  1.00 24.61 LIG 0.17  HD
ATOM     53 2HH2 ARG C   2      25.501  24.114  28.047  1.00 24.61 LIG 0.17  HD
ATOM     54 1HH1 ARG C   2      23.041  24.836  25.972  1.00 22.65 LIG 0.17  HD
ATOM     55 2HH1 ARG C   2      24.299  25.374  26.559  1.00 22.65 LIG 0.17  HD
ENDBRANCH 46 47
ENDBRANCH 45 46
ENDBRANCH 44 45
ENDBRANCH 43 44
BRANCH 43 56
ATOM     56  N   ARG C   2      20.569  18.340  24.278  1.00 21.07 LIG-0.35  N 
ATOM     57  C   ARG C   1      19.706  18.203  23.274  1.00 27.96 LIG 0.25  C 
ATOM     58 O    ARG C   1      19.675  18.963  22.308  1.00 30.47 LIG-0.27  OA
ATOM     59 H    ARG C   2      20.585  17.839  24.977  1.00 21.07 LIG 0.16  HD
BRANCH 57 60
ATOM     60  CA  ARG C   1      18.731  17.035  23.364  1.00 31.07 LIG 0.27  C 
BRANCH 60 61
ATOM     61  N   ARG C   1      17.669  17.162  22.367  1.00 32.37 LIG-0.07  N 
ATOM     62 H2   ARG C   1      17.512  18.024  22.208  1.00 32.37 LIG 0.28  HD
ATOM     63 H1   ARG C   1      16.927  16.777  22.673  1.00 32.37 LIG 0.28  HD
ATOM     64 H3   ARG C   1      17.920  16.763  21.612  1.00 32.37 LIG 0.28  HD
ENDBRANCH 60 61
BRANCH 60 65
ATOM     65  CB  ARG C   1      19.499  15.724  23.186  1.00 35.21 LIG 0.04  C 
BRANCH 65 66
ATOM     66  CG  ARG C   1      19.445  15.182  21.760  1.00 38.18 LIG 0.02  C 
BRANCH 66 67
ATOM     67  CD  ARG C   1      20.517  14.135  21.501  1.00 40.83 LIG 0.14  C 
BRANCH 67 68
ATOM     68  NE  ARG C   1      20.504  13.674  20.117  1.00 41.61 LIG-0.23  N 
ATOM     69  CZ  ARG C   1      21.004  12.511  19.712  1.00 42.69 LIG 0.67  C 
ATOM     70  NH1 ARG C   1      21.563  11.684  20.588  1.00 43.45 LIG-0.23  N 
ATOM     71  NH2 ARG C   1      20.942  12.173  18.430  1.00 42.77 LIG-0.23  N 
ATOM     72 1HH1 ARG C   1      21.602  11.900  21.419  1.00 43.45 LIG 0.17  HD
ATOM     73 2HH1 ARG C   1      21.886  10.932  20.324  1.00 43.45 LIG 0.17  HD
ATOM     74 1HH2 ARG C   1      20.579  12.708  17.862  1.00 42.77 LIG 0.17  HD
ATOM     75 2HH2 ARG C   1      21.266  11.421  18.168  1.00 42.77 LIG 0.17  HD
ATOM     76 HE   ARG C   1      20.151  14.188  19.525  1.00 41.61 LIG 0.18  HD
ENDBRANCH 67 68
ENDBRANCH 66 67
ENDBRANCH 65 66
ENDBRANCH 60 65
ENDBRANCH 57 60
ENDBRANCH 43 56
ENDBRANCH 1 43
TORSDOF 29
ENDMDL
MODEL 9
USER: ADFR SOLUTION from run 95
USER: SCORE 19.580177 LL:  -5.544 LR: -16.152 RR:   0.000 FEB:  -7.502
USER: RMSD 11.541579
USER: SEED 94
USER: STATUS no improvement in best in 12 clusters for 5 generations
USER: GENES 31
USER: genes 0 Translation |==|  0.81777 0.66767 0.46255
USER: genes 1 Rotation |==|  0.79985 0.61535 0.13372 0.61235
USER: genes 2 Torsion [C]-N--CA-[CB] |==|  0.18816
USER: genes 3 Torsion [N]-CA--CB-[CG] |==|  0.41766
USER: genes 4 Torsion [CA]-CB--CG-[CD] |==|  0.16273
USER: genes 5 Torsion [CB]-CG--CD-[OE2] |==|  0.09814
USER: genes 6 Torsion [N]-CA--C-[N] |==|  0.86068
USER: genes 7 Torsion [C]-N--CA-[CB] |==|  0.19298
USER: genes 8 Torsion [N]-CA--CB-[CG2] |==|  0.72680
USER: genes 9 Torsion [CA]-CB--OG1-[HG1] |==|  0.72447
USER: genes 10 Torsion [N]-CA--C-[N] |==|  0.68270
USER: genes 11 Torsion [C]-N--CA-[C] |==|  0.57314
USER: genes 12 Torsion [N]-CA--C-[N] |==|  0.55548
USER: genes 13 Torsion [C]-N--CA-[CB] |==|  0.47347
USER: genes 14 Torsion [N]-CA--CB-[CG2] |==|  0.16176
USER: genes 15 Torsion [N]-CA--C-[OXT] |==|  0.83522
USER: genes 16 Torsion [N]-CA--CB-[CG] |==|  0.55810
USER: genes 17 Torsion [CA]-CB--CG-[CD] |==|  0.15808
USER: genes 18 Torsion [CB]-CG--CD-[OE1] |==|  0.65105
USER: genes 19 Torsion [N]-C--CA-[N] |==|  0.06781
USER: genes 20 Torsion [C]-CA--CB-[CG] |==|  0.28303
USER: genes 21 Torsion [CA]-CB--CG-[CD] |==|  0.33909
USER: genes 22 Torsion [CB]-CG--CD-[NE] |==|  0.53497
USER: genes 23 Torsion [CG]-CD--NE-[HE] |==|  0.88182
USER: genes 24 Torsion [C]-CA--N-[C] |==|  0.16278
USER: genes 25 Torsion [N]-C--CA-[N] |==|  0.13998
USER: genes 26 Torsion [C]-CA--N-[H2] |==|  0.13967
USER: genes 27 Torsion [C]-CA--CB-[CG] |==|  0.52357
USER: genes 28 Torsion [CA]-CB--CG-[CD] |==|  0.82050
USER: genes 29 Torsion [CB]-CG--CD-[NE] |==|  0.35286
USER: genes 30 Torsion [CG]-CD--NE-[CZ] |==|  0.65916
ROOT
ATOM      1  C   ARG C   2      33.128  23.483  25.040  1.00 17.64 LIG 0.24  C 
ATOM      2 O    ARG C   2      34.350  23.313  24.991  1.00 18.48 LIG-0.27  OA
ATOM      3  N   GLU C   3      32.300  22.980  24.131  1.00 16.82 LIG-0.35  N 
ATOM      4 H    GLU C   3      31.445  23.082  24.146  1.00 16.82 LIG 0.16  HD
ENDROOT
BRANCH 3 5
ATOM      5  CA  GLU C   3      32.800  22.194  23.008  1.00 17.00 LIG 0.18  C 
BRANCH 5 6
ATOM      6  CB  GLU C   3      33.375  20.857  23.500  1.00 16.91 LIG 0.04  C 
BRANCH 6 7
ATOM      7  CG  GLU C   3      33.251  19.733  22.470  1.00 19.77 LIG 0.12  C 
BRANCH 7 8
ATOM      8  CD  GLU C   3      33.947  20.053  21.160  1.00 23.53 LIG 0.17  C 
ATOM      9 OE2  GLU C   3      35.005  20.709  21.191  1.00 22.35 LIG-0.65  OA
ATOM     10 OE1  GLU C   3      33.431  19.647  20.101  1.00 28.80 LIG-0.65  OA
ENDBRANCH 7 8
ENDBRANCH 6 7
ENDBRANCH 5 6
BRANCH 5 11
ATOM     11  C   GLU C   3      31.650  21.947  22.043  1.00 16.25 LIG 0.24  C 
ATOM     12  N   THR C   4      30.513  21.469  22.557  1.00 14.90 LIG-0.34  N 
ATOM     13 H    THR C   4      30.385  21.336  23.397  1.00 14.90 LIG 0.16  HD
ATOM     14 O    GLU C   3      31.801  22.181  20.841  1.00 19.18 LIG-0.27  OA
BRANCH 12 15
ATOM     15  CA  THR C   4      29.374  21.129  21.713  1.00 14.85 LIG 0.20  C 
BRANCH 15 16
ATOM     16  CB  THR C   4      29.682  19.890  20.867  1.00 16.75 LIG 0.15  C 
ATOM     17  CG2 THR C   4      30.114  20.293  19.462  1.00 16.70 LIG 0.04  C 
BRANCH 16 18
ATOM     18 OG1  THR C   4      30.720  19.137  21.502  1.00 17.36 LIG-0.39  OA
ATOM     19 HG1  THR C   4      31.456  19.309  21.135  1.00 17.36 LIG 0.21  HD
ENDBRANCH 16 18
ENDBRANCH 15 16
BRANCH 15 20
ATOM     20  C   THR C   4      28.146  20.858  22.569  1.00 14.69 LIG 0.24  C 
ATOM     21  N   GLN C   5      27.675  19.613  22.558  1.00 15.36 LIG-0.35  N 
ATOM     22 H    GLN C   5      27.945  19.001  22.018  1.00 15.36 LIG 0.16  HD
ATOM     23 O    THR C   4      27.639  21.766  23.237  1.00 15.54 LIG-0.27  OA
BRANCH 21 24
ATOM     24  CA  GLN C   5      26.640  19.185  23.487  1.00 16.48 LIG 0.18  C 
BRANCH 24 25
ATOM     25  C   GLN C   5      26.748  17.686  23.719  1.00 17.30 LIG 0.24  C 
ATOM     26 O    GLN C   5      27.790  17.078  23.440  1.00 19.53 LIG-0.27  OA
ATOM     27  N   VAL C   6      25.662  17.083  24.194  1.00 16.49 LIG-0.34  N 
ATOM     28 H    VAL C   6      24.935  17.496  24.396  1.00 16.49 LIG 0.16  HD
BRANCH 27 29
ATOM     29  CA  VAL C   6      25.612  15.640  24.418  1.00 18.07 LIG 0.19  C 
BRANCH 29 30
ATOM     30  CB  VAL C   6      24.343  15.226  25.187  1.00 20.19 LIG 0.01  C 
ATOM     31  CG1 VAL C   6      24.342  15.811  26.586  1.00 23.48 LIG 0.01  C 
ATOM     32  CG2 VAL C   6      23.094  15.658  24.429  1.00 21.65 LIG 0.01  C 
ENDBRANCH 29 30
BRANCH 29 33
ATOM     33  C   VAL C   6      25.706  14.870  23.107  1.00 18.86 LIG 0.20  C 
ATOM     34 O    VAL C   6      26.637  14.070  22.899  1.00 20.67 LIG-0.65  OA
ATOM     35 OXT  VAL C   6      24.851  15.055  22.224  1.00 19.38 LIG-0.65  OA
ENDBRANCH 29 33
ENDBRANCH 27 29
ENDBRANCH 24 25
BRANCH 24 36
ATOM     36  CB  GLN C   5      25.260  19.497  22.909  1.00 21.66 LIG 0.04  C 
BRANCH 36 37
ATOM     37  CG  GLN C   5      24.136  19.572  23.927  1.00 28.10 LIG 0.10  C 
BRANCH 37 38
ATOM     38  CD  GLN C   5      24.407  20.599  25.019  1.00 33.44 LIG 0.21  C 
ATOM     39  NE2 GLN C   5      24.685  21.834  24.617  1.00 35.38 LIG-0.37  N 
ATOM     40 21HE GLN C   5      24.703  22.019  23.777  1.00 35.38 LIG 0.16  HD
ATOM     41 22HE GLN C   5      24.846  22.448  25.196  1.00 35.38 LIG 0.16  HD
ATOM     42 OE1  GLN C   5      24.368  20.280  26.208  1.00 34.39 LIG-0.27  OA
ENDBRANCH 37 38
ENDBRANCH 36 37
ENDBRANCH 24 36
ENDBRANCH 21 24
ENDBRANCH 15 20
ENDBRANCH 12 15
ENDBRANCH 5 11
ENDBRANCH 3 5
BRANCH 1 43
ATOM     43  CA  ARG C   2      32.503  24.325  26.149  1.00 18.81 LIG 0.18  C 
BRANCH 43 44
ATOM     44  CB  ARG C   2      33.270  24.111  27.450  1.00 19.04 LIG 0.04  C 
BRANCH 44 45
ATOM     45  CG  ARG C   2      34.219  25.248  27.765  1.00 18.27 LIG 0.02  C 
BRANCH 45 46
ATOM     46  CD  ARG C   2      33.888  25.853  29.114  1.00 20.59 LIG 0.14  C 
BRANCH 46 47
ATOM     47  NE  ARG C   2      34.584  27.121  29.305  1.00 21.96 LIG-0.23  N 
ATOM     48 HE   ARG C   2      35.407  27.168  29.061  1.00 21.96 LIG 0.18  HD
ATOM     49  CZ  ARG C   2      34.029  28.208  29.832  1.00 22.93 LIG 0.67  C 
ATOM     50  NH2 ARG C   2      34.739  29.318  29.963  1.00 24.61 LIG-0.23  N 
ATOM     51  NH1 ARG C   2      32.764  28.183  30.230  1.00 22.65 LIG-0.23  N 
ATOM     52 1HH2 ARG C   2      35.560  29.335  29.706  1.00 24.61 LIG 0.17  HD
ATOM     53 2HH2 ARG C   2      34.380  30.020  30.304  1.00 24.61 LIG 0.17  HD
ATOM     54 1HH1 ARG C   2      32.302  27.463  30.148  1.00 22.65 LIG 0.17  HD
ATOM     55 2HH1 ARG C   2      32.406  28.887  30.571  1.00 22.65 LIG 0.17  HD
ENDBRANCH 46 47
ENDBRANCH 45 46
ENDBRANCH 44 45
ENDBRANCH 43 44
BRANCH 43 56
ATOM     56  N   ARG C   2      31.104  23.954  26.329  1.00 21.07 LIG-0.35  N 
ATOM     57  C   ARG C   1      30.764  22.705  26.638  1.00 27.96 LIG 0.25  C 
ATOM     58 O    ARG C   1      31.584  21.794  26.742  1.00 30.47 LIG-0.27  OA
ATOM     59 H    ARG C   2      30.543  24.598  26.221  1.00 21.07 LIG 0.16  HD
BRANCH 57 60
ATOM     60  CA  ARG C   1      29.283  22.435  26.871  1.00 31.07 LIG 0.27  C 
BRANCH 60 61
ATOM     61  N   ARG C   1      28.476  22.960  25.770  1.00 32.37 LIG-0.07  N 
ATOM     62 H2   ARG C   1      28.812  22.678  24.995  1.00 32.37 LIG 0.28  HD
ATOM     63 H1   ARG C   1      28.487  23.850  25.791  1.00 32.37 LIG 0.28  HD
ATOM     64 H3   ARG C   1      27.638  22.672  25.852  1.00 32.37 LIG 0.28  HD
ENDBRANCH 60 61
BRANCH 60 65
ATOM     65  CB  ARG C   1      29.067  20.931  27.044  1.00 35.21 LIG 0.04  C 
BRANCH 65 66
ATOM     66  CG  ARG C   1      27.594  20.534  27.078  1.00 38.18 LIG 0.02  C 
BRANCH 66 67
ATOM     67  CD  ARG C   1      26.870  21.111  28.285  1.00 40.83 LIG 0.14  C 
BRANCH 67 68
ATOM     68  NE  ARG C   1      25.668  21.843  27.900  1.00 41.61 LIG-0.23  N 
ATOM     69  CZ  ARG C   1      25.442  23.118  28.201  1.00 42.69 LIG 0.67  C 
ATOM     70  NH1 ARG C   1      26.338  23.808  28.899  1.00 43.45 LIG-0.23  N 
ATOM     71  NH2 ARG C   1      24.321  23.704  27.803  1.00 42.77 LIG-0.23  N 
ATOM     72 1HH1 ARG C   1      27.066  23.430  29.156  1.00 43.45 LIG 0.17  HD
ATOM     73 2HH1 ARG C   1      26.189  24.632  29.093  1.00 43.45 LIG 0.17  HD
ATOM     74 1HH2 ARG C   1      23.740  23.259  27.350  1.00 42.77 LIG 0.17  HD
ATOM     75 2HH2 ARG C   1      24.173  24.529  27.998  1.00 42.77 LIG 0.17  HD
ATOM     76 HE   ARG C   1      25.068  21.424  27.449  1.00 41.61 LIG 0.18  HD
ENDBRANCH 67 68
ENDBRANCH 66 67
ENDBRANCH 65 66
ENDBRANCH 60 65
ENDBRANCH 57 60
ENDBRANCH 43 56
ENDBRANCH 1 43
TORSDOF 29
ENDMDL
MODEL 10
USER: ADFR SOLUTION from run 122
USER: SCORE 20.427697 LL:  -6.534 LR: -16.057 RR:   0.000 FEB:  -7.406
USER: RMSD 8.953552
USER: SEED 121
USER: STATUS searching
USER: GENES 31
USER: genes 0 Translation |==|  0.60056 0.54441 0.39286
USER: genes 1 Rotation |==|  0.27605 0.69966 0.33900 0.86614
USER: genes 2 Torsion [C]-N--CA-[CB] |==|  0.19748
USER: genes 3 Torsion [N]-CA--CB-[CG] |==|  0.27761
USER: genes 4 Torsion [CA]-CB--CG-[CD] |==|  0.77095
USER: genes 5 Torsion [CB]-CG--CD-[OE2] |==|  0.64300
USER: genes 6 Torsion [N]-CA--C-[N] |==|  0.02070
USER: genes 7 Torsion [C]-N--CA-[CB] |==|  0.82222
USER: genes 8 Torsion [N]-CA--CB-[CG2] |==|  0.55203
USER: genes 9 Torsion [CA]-CB--OG1-[HG1] |==|  0.16472
USER: genes 10 Torsion [N]-CA--C-[N] |==|  0.12484
USER: genes 11 Torsion [C]-N--CA-[C] |==|  0.56678
USER: genes 12 Torsion [N]-CA--C-[N] |==|  0.18231
USER: genes 13 Torsion [C]-N--CA-[CB] |==|  0.85041
USER: genes 14 Torsion [N]-CA--CB-[CG2] |==|  0.75008
USER: genes 15 Torsion [N]-CA--C-[OXT] |==|  0.83467
USER: genes 16 Torsion [N]-CA--CB-[CG] |==|  0.78524
USER: genes 17 Torsion [CA]-CB--CG-[CD] |==|  0.70538
USER: genes 18 Torsion [CB]-CG--CD-[OE1] |==|  0.93566
USER: genes 19 Torsion [N]-C--CA-[N] |==|  0.15808
USER: genes 20 Torsion [C]-CA--CB-[CG] |==|  0.48588
USER: genes 21 Torsion [CA]-CB--CG-[CD] |==|  0.44463
USER: genes 22 Torsion [CB]-CG--CD-[NE] |==|  0.60740
USER: genes 23 Torsion [CG]-CD--NE-[HE] |==|  0.11160
USER: genes 24 Torsion [C]-CA--N-[C] |==|  0.75269
USER: genes 25 Torsion [N]-C--CA-[N] |==|  0.90251
USER: genes 26 Torsion [C]-CA--N-[H2] |==|  0.18705
USER: genes 27 Torsion [C]-CA--CB-[CG] |==|  0.91983
USER: genes 28 Torsion [CA]-CB--CG-[CD] |==|  0.47125
USER: genes 29 Torsion [CB]-CG--CD-[NE] |==|  0.29804
USER: genes 30 Torsion [CG]-CD--NE-[CZ] |==|  0.51688
ROOT
ATOM      1  C   ARG C   2      27.101  20.618  23.733  1.00 17.64 LIG 0.24  C 
ATOM      2 O    ARG C   2      26.379  20.757  22.740  1.00 18.48 LIG-0.27  OA
ATOM      3  N   GLU C   3      28.291  20.031  23.675  1.00 16.82 LIG-0.35  N 
ATOM      4 H    GLU C   3      28.813  19.925  24.351  1.00 16.82 LIG 0.16  HD
ENDROOT
BRANCH 3 5
ATOM      5  CA  GLU C   3      28.812  19.506  22.417  1.00 17.00 LIG 0.18  C 
BRANCH 5 6
ATOM      6  CB  GLU C   3      29.198  20.655  21.472  1.00 16.91 LIG 0.04  C 
BRANCH 6 7
ATOM      7  CG  GLU C   3      30.699  20.949  21.464  1.00 19.77 LIG 0.12  C 
BRANCH 7 8
ATOM      8  CD  GLU C   3      31.134  21.835  22.616  1.00 23.53 LIG 0.17  C 
ATOM      9 OE2  GLU C   3      31.810  22.851  22.365  1.00 22.35 LIG-0.65  OA
ATOM     10 OE1  GLU C   3      30.801  21.511  23.771  1.00 28.80 LIG-0.65  OA
ENDBRANCH 7 8
ENDBRANCH 6 7
ENDBRANCH 5 6
BRANCH 5 11
ATOM     11  C   GLU C   3      30.031  18.647  22.721  1.00 16.25 LIG 0.24  C 
ATOM     12  N   THR C   4      30.301  18.403  24.006  1.00 14.90 LIG-0.34  N 
ATOM     13 H    THR C   4      29.806  18.666  24.659  1.00 14.90 LIG 0.16  HD
ATOM     14 O    GLU C   3      30.721  18.218  21.793  1.00 19.18 LIG-0.27  OA
BRANCH 12 15
ATOM     15  CA  THR C   4      31.484  17.653  24.411  1.00 14.85 LIG 0.20  C 
BRANCH 15 16
ATOM     16  CB  THR C   4      31.413  16.215  23.891  1.00 16.75 LIG 0.15  C 
ATOM     17  CG2 THR C   4      32.369  15.315  24.666  1.00 16.70 LIG 0.04  C 
BRANCH 16 18
ATOM     18 OG1  THR C   4      30.072  15.735  24.024  1.00 17.36 LIG-0.39  OA
ATOM     19 HG1  THR C   4      29.553  16.228  23.585  1.00 17.36 LIG 0.21  HD
ENDBRANCH 16 18
ENDBRANCH 15 16
BRANCH 15 20
ATOM     20  C   THR C   4      32.741  18.320  23.872  1.00 14.69 LIG 0.24  C 
ATOM     21  N   GLN C   5      32.815  19.642  24.001  1.00 15.36 LIG-0.35  N 
ATOM     22 H    GLN C   5      32.160  20.139  24.255  1.00 15.36 LIG 0.16  HD
ATOM     23 O    THR C   4      33.634  17.641  23.355  1.00 15.54 LIG-0.27  OA
BRANCH 21 24
ATOM     24  CA  GLN C   5      34.045  20.366  23.714  1.00 16.48 LIG 0.18  C 
BRANCH 24 25
ATOM     25  C   GLN C   5      34.054  21.683  24.475  1.00 17.30 LIG 0.24  C 
ATOM     26 O    GLN C   5      34.052  22.761  23.867  1.00 19.53 LIG-0.27  OA
ATOM     27  N   VAL C   6      34.101  21.597  25.801  1.00 16.49 LIG-0.34  N 
ATOM     28 H    VAL C   6      34.098  20.853  26.233  1.00 16.49 LIG 0.16  HD
BRANCH 27 29
ATOM     29  CA  VAL C   6      34.164  22.783  26.652  1.00 18.07 LIG 0.19  C 
BRANCH 29 30
ATOM     30  CB  VAL C   6      35.330  23.708  26.255  1.00 20.19 LIG 0.01  C 
ATOM     31  CG1 VAL C   6      34.975  25.163  26.497  1.00 23.48 LIG 0.01  C 
ATOM     32  CG2 VAL C   6      36.593  23.335  27.021  1.00 21.65 LIG 0.01  C 
ENDBRANCH 29 30
BRANCH 29 33
ATOM     33  C   VAL C   6      32.851  23.555  26.628  1.00 18.86 LIG 0.20  C 
ATOM     34 O    VAL C   6      32.193  23.733  27.670  1.00 20.67 LIG-0.65  OA
ATOM     35 OXT  VAL C   6      32.419  23.999  25.550  1.00 19.38 LIG-0.65  OA
ENDBRANCH 29 33
ENDBRANCH 27 29
ENDBRANCH 24 25
BRANCH 24 36
ATOM     36  CB  GLN C   5      34.140  20.659  22.217  1.00 21.66 LIG 0.04  C 
BRANCH 36 37
ATOM     37  CG  GLN C   5      34.556  19.482  21.354  1.00 28.10 LIG 0.10  C 
BRANCH 37 38
ATOM     38  CD  GLN C   5      35.990  19.602  20.856  1.00 33.44 LIG 0.21  C 
ATOM     39  NE2 GLN C   5      36.599  18.470  20.521  1.00 35.38 LIG-0.37  N 
ATOM     40 21HE GLN C   5      36.182  17.721  20.589  1.00 35.38 LIG 0.16  HD
ATOM     41 22HE GLN C   5      37.409  18.487  20.235  1.00 35.38 LIG 0.16  HD
ATOM     42 OE1  GLN C   5      36.540  20.701  20.778  1.00 34.39 LIG-0.27  OA
ENDBRANCH 37 38
ENDBRANCH 36 37
ENDBRANCH 24 36
ENDBRANCH 21 24
ENDBRANCH 15 20
ENDBRANCH 12 15
ENDBRANCH 5 11
ENDBRANCH 3 5
BRANCH 1 43
ATOM     43  CA  ARG C   2      26.634  21.091  25.107  1.00 18.81 LIG 0.18  C 
BRANCH 43 44
ATOM     44  CB  ARG C   2      25.280  21.783  24.978  1.00 19.04 LIG 0.04  C 
BRANCH 44 45
ATOM     45  CG  ARG C   2      24.692  22.174  26.318  1.00 18.27 LIG 0.02  C 
BRANCH 45 46
ATOM     46  CD  ARG C   2      23.642  23.251  26.140  1.00 20.59 LIG 0.14  C 
BRANCH 46 47
ATOM     47  NE  ARG C   2      23.711  24.234  27.217  1.00 21.96 LIG-0.23  N 
ATOM     48 HE   ARG C   2      24.490  24.478  27.488  1.00 21.96 LIG 0.18  HD
ATOM     49  CZ  ARG C   2      22.649  24.776  27.805  1.00 22.93 LIG 0.67  C 
ATOM     50  NH2 ARG C   2      22.810  25.664  28.773  1.00 24.61 LIG-0.23  N 
ATOM     51  NH1 ARG C   2      21.428  24.426  27.426  1.00 22.65 LIG-0.23  N 
ATOM     52 1HH2 ARG C   2      23.602  25.891  29.021  1.00 24.61 LIG 0.17  HD
ATOM     53 2HH2 ARG C   2      22.123  26.014  29.154  1.00 24.61 LIG 0.17  HD
ATOM     54 1HH1 ARG C   2      21.322  23.848  26.798  1.00 22.65 LIG 0.17  HD
ATOM     55 2HH1 ARG C   2      20.742  24.778  27.807  1.00 22.65 LIG 0.17  HD
ENDBRANCH 46 47
ENDBRANCH 45 46
ENDBRANCH 44 45
ENDBRANCH 43 44
BRANCH 43 56
ATOM     56  N   ARG C   2      27.611  22.013  25.676  1.00 21.07 LIG-0.35  N 
ATOM     57  C   ARG C   1      28.623  21.564  26.413  1.00 27.96 LIG 0.25  C 
ATOM     58 O    ARG C   1      28.771  20.377  26.697  1.00 30.47 LIG-0.27  OA
ATOM     59 H    ARG C   2      27.473  22.843  25.493  1.00 21.07 LIG 0.16  HD
BRANCH 57 60
ATOM     60  CA  ARG C   1      29.625  22.601  26.906  1.00 31.07 LIG 0.27  C 
BRANCH 60 61
ATOM     61  N   ARG C   1      29.815  23.658  25.913  1.00 32.37 LIG-0.07  N 
ATOM     62 H2   ARG C   1      29.066  24.132  25.836  1.00 32.37 LIG 0.28  HD
ATOM     63 H1   ARG C   1      30.018  23.294  25.127  1.00 32.37 LIG 0.28  HD
ATOM     64 H3   ARG C   1      30.478  24.192  26.172  1.00 32.37 LIG 0.28  HD
ENDBRANCH 60 61
BRANCH 60 65
ATOM     65  CB  ARG C   1      29.140  23.177  28.237  1.00 35.21 LIG 0.04  C 
BRANCH 65 66
ATOM     66  CG  ARG C   1      27.621  23.163  28.382  1.00 38.18 LIG 0.02  C 
BRANCH 66 67
ATOM     67  CD  ARG C   1      27.175  23.500  29.797  1.00 40.83 LIG 0.14  C 
BRANCH 67 68
ATOM     68  NE  ARG C   1      26.590  24.834  29.879  1.00 41.61 LIG-0.23  N 
ATOM     69  CZ  ARG C   1      26.226  25.422  31.015  1.00 42.69 LIG 0.67  C 
ATOM     70  NH1 ARG C   1      26.383  24.790  32.172  1.00 43.45 LIG-0.23  N 
ATOM     71  NH2 ARG C   1      25.706  26.642  30.992  1.00 42.77 LIG-0.23  N 
ATOM     72 1HH1 ARG C   1      26.721  24.000  32.189  1.00 43.45 LIG 0.17  HD
ATOM     73 2HH1 ARG C   1      26.146  25.172  32.906  1.00 43.45 LIG 0.17  HD
ATOM     74 1HH2 ARG C   1      25.604  27.053  30.243  1.00 42.77 LIG 0.17  HD
ATOM     75 2HH2 ARG C   1      25.470  27.023  31.727  1.00 42.77 LIG 0.17  HD
ATOM     76 HE   ARG C   1      26.473  25.268  29.146  1.00 41.61 LIG 0.18  HD
ENDBRANCH 67 68
ENDBRANCH 66 67
ENDBRANCH 65 66
ENDBRANCH 60 65
ENDBRANCH 57 60
ENDBRANCH 43 56
ENDBRANCH 1 43
TORSDOF 29
ENDMDL
MODEL 11
USER: ADFR SOLUTION from run 60
USER: SCORE 20.490001 LL:  -6.075 LR: -15.959 RR:   0.000 FEB:  -7.308
USER: RMSD 10.825121
USER: SEED 59
USER: STATUS no improvement in best in 2 clusters for 5 generations
USER: GENES 31
USER: genes 0 Translation |==|  0.79879 0.60210 0.35488
USER: genes 1 Rotation |==|  0.34248 0.23223 0.89109 0.52316
USER: genes 2 Torsion [C]-N--CA-[CB] |==|  0.15000
USER: genes 3 Torsion [N]-CA--CB-[CG] |==|  0.24423
USER: genes 4 Torsion [CA]-CB--CG-[CD] |==|  0.67768
USER: genes 5 Torsion [CB]-CG--CD-[OE2] |==|  0.92286
USER: genes 6 Torsion [N]-CA--C-[N] |==|  0.04584
USER: genes 7 Torsion [C]-N--CA-[CB] |==|  0.20139
USER: genes 8 Torsion [N]-CA--CB-[CG2] |==|  0.18466
USER: genes 9 Torsion [CA]-CB--OG1-[HG1] |==|  0.48136
USER: genes 10 Torsion [N]-CA--C-[N] |==|  0.44029
USER: genes 11 Torsion [C]-N--CA-[C] |==|  0.73347
USER: genes 12 Torsion [N]-CA--C-[N] |==|  0.98786
USER: genes 13 Torsion [C]-N--CA-[CB] |==|  0.22336
USER: genes 14 Torsion [N]-CA--CB-[CG2] |==|  0.45487
USER: genes 15 Torsion [N]-CA--C-[OXT] |==|  0.38632
USER: genes 16 Torsion [N]-CA--CB-[CG] |==|  0.64924
USER: genes 17 Torsion [CA]-CB--CG-[CD] |==|  0.76940
USER: genes 18 Torsion [CB]-CG--CD-[OE1] |==|  0.88612
USER: genes 19 Torsion [N]-C--CA-[N] |==|  0.94731
USER: genes 20 Torsion [C]-CA--CB-[CG] |==|  0.00261
USER: genes 21 Torsion [CA]-CB--CG-[CD] |==|  0.28922
USER: genes 22 Torsion [CB]-CG--CD-[NE] |==|  0.63905
USER: genes 23 Torsion [CG]-CD--NE-[HE] |==|  0.11918
USER: genes 24 Torsion [C]-CA--N-[C] |==|  0.72330
USER: genes 25 Torsion [N]-C--CA-[N] |==|  0.76783
USER: genes 26 Torsion [C]-CA--N-[H2] |==|  0.10251
USER: genes 27 Torsion [C]-CA--CB-[CG] |==|  0.58508
USER: genes 28 Torsion [CA]-CB--CG-[CD] |==|  0.68357
USER: genes 29 Torsion [CB]-CG--CD-[NE] |==|  0.21156
USER: genes 30 Torsion [CG]-CD--NE-[CZ] |==|  0.17620
ROOT
ATOM      1  C   ARG C   2      32.601  21.959  23.021  1.00 17.64 LIG 0.24  C 
ATOM      2 O    ARG C   2      33.426  22.210  22.137  1.00 18.48 LIG-0.27  OA
ATOM      3  N   GLU C   3      31.311  21.776  22.763  1.00 16.82 LIG-0.35  N 
ATOM      4 H    GLU C   3      30.719  21.596  23.360  1.00 16.82 LIG 0.16  HD
ENDROOT
BRANCH 3 5
ATOM      5  CA  GLU C   3      30.793  21.871  21.402  1.00 17.00 LIG 0.18  C 
BRANCH 5 6
ATOM      6  CB  GLU C   3      31.573  20.937  20.463  1.00 16.91 LIG 0.04  C 
BRANCH 6 7
ATOM      7  CG  GLU C   3      30.997  19.521  20.408  1.00 19.77 LIG 0.12  C 
BRANCH 7 8
ATOM      8  CD  GLU C   3      31.955  18.472  20.943  1.00 23.53 LIG 0.17  C 
ATOM      9 OE2  GLU C   3      33.179  18.689  20.867  1.00 22.35 LIG-0.65  OA
ATOM     10 OE1  GLU C   3      31.479  17.433  21.436  1.00 28.80 LIG-0.65  OA
ENDBRANCH 7 8
ENDBRANCH 6 7
ENDBRANCH 5 6
BRANCH 5 11
ATOM     11  C   GLU C   3      29.321  21.487  21.418  1.00 16.25 LIG 0.24  C 
ATOM     12  N   THR C   4      28.705  21.481  22.603  1.00 14.90 LIG-0.34  N 
ATOM     13 H    THR C   4      29.079  21.720  23.340  1.00 14.90 LIG 0.16  HD
ATOM     14 O    GLU C   3      28.756  21.192  20.363  1.00 19.18 LIG-0.27  OA
BRANCH 12 15
ATOM     15  CA  THR C   4      27.316  21.060  22.742  1.00 14.85 LIG 0.20  C 
BRANCH 15 16
ATOM     16  CB  THR C   4      27.195  19.543  22.577  1.00 16.75 LIG 0.15  C 
ATOM     17  CG2 THR C   4      27.890  18.820  23.725  1.00 16.70 LIG 0.04  C 
BRANCH 16 18
ATOM     18 OG1  THR C   4      25.809  19.186  22.540  1.00 17.36 LIG-0.39  OA
ATOM     19 HG1  THR C   4      25.736  18.369  22.358  1.00 17.36 LIG 0.21  HD
ENDBRANCH 16 18
ENDBRANCH 15 16
BRANCH 15 20
ATOM     20  C   THR C   4      26.778  21.460  24.108  1.00 14.69 LIG 0.24  C 
ATOM     21  N   GLN C   5      25.455  21.550  24.223  1.00 15.36 LIG-0.35  N 
ATOM     22 H    GLN C   5      24.910  21.513  23.559  1.00 15.36 LIG 0.16  HD
ATOM     23 O    THR C   4      27.553  21.675  25.045  1.00 15.54 LIG-0.27  OA
BRANCH 21 24
ATOM     24  CA  GLN C   5      24.815  21.721  25.519  1.00 16.48 LIG 0.18  C 
BRANCH 24 25
ATOM     25  C   GLN C   5      24.373  20.368  26.056  1.00 17.30 LIG 0.24  C 
ATOM     26 O    GLN C   5      23.907  20.266  27.198  1.00 19.53 LIG-0.27  OA
ATOM     27  N   VAL C   6      24.553  19.327  25.249  1.00 16.49 LIG-0.34  N 
ATOM     28 H    VAL C   6      24.872  19.388  24.453  1.00 16.49 LIG 0.16  HD
BRANCH 27 29
ATOM     29  CA  VAL C   6      24.218  17.964  25.657  1.00 18.07 LIG 0.19  C 
BRANCH 29 30
ATOM     30  CB  VAL C   6      22.709  17.683  25.519  1.00 20.19 LIG 0.01  C 
ATOM     31  CG1 VAL C   6      22.159  18.288  24.242  1.00 23.48 LIG 0.01  C 
ATOM     32  CG2 VAL C   6      22.439  16.185  25.557  1.00 21.65 LIG 0.01  C 
ENDBRANCH 29 30
BRANCH 29 33
ATOM     33  C   VAL C   6      25.017  16.935  24.868  1.00 18.86 LIG 0.20  C 
ATOM     34 O    VAL C   6      25.198  17.067  23.642  1.00 20.67 LIG-0.65  OA
ATOM     35 OXT  VAL C   6      25.481  15.940  25.450  1.00 19.38 LIG-0.65  OA
ENDBRANCH 29 33
ENDBRANCH 27 29
ENDBRANCH 24 25
BRANCH 24 36
ATOM     36  CB  GLN C   5      23.588  22.622  25.380  1.00 21.66 LIG 0.04  C 
BRANCH 36 37
ATOM     37  CG  GLN C   5      23.558  23.820  26.313  1.00 28.10 LIG 0.10  C 
BRANCH 37 38
ATOM     38  CD  GLN C   5      23.028  23.468  27.696  1.00 33.44 LIG 0.21  C 
ATOM     39  NE2 GLN C   5      23.657  24.015  28.730  1.00 35.38 LIG-0.37  N 
ATOM     40 21HE GLN C   5      24.327  24.539  28.598  1.00 35.38 LIG 0.16  HD
ATOM     41 22HE GLN C   5      23.395  23.846  29.531  1.00 35.38 LIG 0.16  HD
ATOM     42 OE1  GLN C   5      22.065  22.711  27.829  1.00 34.39 LIG-0.27  OA
ENDBRANCH 37 38
ENDBRANCH 36 37
ENDBRANCH 24 36
ENDBRANCH 21 24
ENDBRANCH 15 20
ENDBRANCH 12 15
ENDBRANCH 5 11
ENDBRANCH 3 5
BRANCH 1 43
ATOM     43  CA  ARG C   2      33.028  21.880  24.484  1.00 18.81 LIG 0.18  C 
BRANCH 43 44
ATOM     44  CB  ARG C   2      33.679  20.527  24.756  1.00 19.04 LIG 0.04  C 
BRANCH 44 45
ATOM     45  CG  ARG C   2      33.747  19.651  23.523  1.00 18.27 LIG 0.02  C 
BRANCH 45 46
ATOM     46  CD  ARG C   2      35.158  19.628  22.970  1.00 20.59 LIG 0.14  C 
BRANCH 46 47
ATOM     47  NE  ARG C   2      35.164  19.912  21.538  1.00 21.96 LIG-0.23  N 
ATOM     48 HE   ARG C   2      34.659  20.546  21.252  1.00 21.96 LIG 0.18  HD
ATOM     49  CZ  ARG C   2      35.900  19.253  20.647  1.00 22.93 LIG 0.67  C 
ATOM     50  NH2 ARG C   2      35.843  19.585  19.367  1.00 24.61 LIG-0.23  N 
ATOM     51  NH1 ARG C   2      36.689  18.263  21.039  1.00 22.65 LIG-0.23  N 
ATOM     52 1HH2 ARG C   2      35.330  20.227  19.112  1.00 24.61 LIG 0.17  HD
ATOM     53 2HH2 ARG C   2      36.318  19.159  18.791  1.00 24.61 LIG 0.17  HD
ATOM     54 1HH1 ARG C   2      36.726  18.045  21.870  1.00 22.65 LIG 0.17  HD
ATOM     55 2HH1 ARG C   2      37.165  17.838  20.461  1.00 22.65 LIG 0.17  HD
ENDBRANCH 46 47
ENDBRANCH 45 46
ENDBRANCH 44 45
ENDBRANCH 43 44
BRANCH 43 56
ATOM     56  N   ARG C   2      31.870  22.058  25.352  1.00 21.07 LIG-0.35  N 
ATOM     57  C   ARG C   1      31.618  23.234  25.920  1.00 27.96 LIG 0.25  C 
ATOM     58 O    ARG C   1      32.353  24.212  25.791  1.00 30.47 LIG-0.27  OA
ATOM     59 H    ARG C   2      31.386  21.354  25.457  1.00 21.07 LIG 0.16  HD
BRANCH 57 60
ATOM     60  CA  ARG C   1      30.348  23.334  26.756  1.00 31.07 LIG 0.27  C 
BRANCH 60 61
ATOM     61  N   ARG C   1      29.185  23.604  25.911  1.00 32.37 LIG-0.07  N 
ATOM     62 H2   ARG C   1      29.268  23.165  25.142  1.00 32.37 LIG 0.28  HD
ATOM     63 H1   ARG C   1      29.132  24.478  25.750  1.00 32.37 LIG 0.28  HD
ATOM     64 H3   ARG C   1      28.446  23.335  26.328  1.00 32.37 LIG 0.28  HD
ENDBRANCH 60 61
BRANCH 60 65
ATOM     65  CB  ARG C   1      30.164  22.039  27.548  1.00 35.21 LIG 0.04  C 
BRANCH 65 66
ATOM     66  CG  ARG C   1      28.700  21.691  27.804  1.00 38.18 LIG 0.02  C 
BRANCH 66 67
ATOM     67  CD  ARG C   1      28.342  21.758  29.280  1.00 40.83 LIG 0.14  C 
BRANCH 67 68
ATOM     68  NE  ARG C   1      28.193  23.134  29.742  1.00 41.61 LIG-0.23  N 
ATOM     69  CZ  ARG C   1      27.267  23.976  29.296  1.00 42.69 LIG 0.67  C 
ATOM     70  NH1 ARG C   1      26.401  23.584  28.368  1.00 43.45 LIG-0.23  N 
ATOM     71  NH2 ARG C   1      27.205  25.210  29.780  1.00 42.77 LIG-0.23  N 
ATOM     72 1HH1 ARG C   1      26.439  22.785  28.055  1.00 43.45 LIG 0.17  HD
ATOM     73 2HH1 ARG C   1      25.802  24.131  28.081  1.00 43.45 LIG 0.17  HD
ATOM     74 1HH2 ARG C   1      27.765  25.465  30.382  1.00 42.77 LIG 0.17  HD
ATOM     75 2HH2 ARG C   1      26.606  25.756  29.491  1.00 42.77 LIG 0.17  HD
ATOM     76 HE   ARG C   1      28.741  23.418  30.341  1.00 41.61 LIG 0.18  HD
ENDBRANCH 67 68
ENDBRANCH 66 67
ENDBRANCH 65 66
ENDBRANCH 60 65
ENDBRANCH 57 60
ENDBRANCH 43 56
ENDBRANCH 1 43
TORSDOF 29
ENDMDL
MODEL 12
USER: ADFR SOLUTION from run 173
USER: SCORE 18.927049 LL:  -5.475 LR: -15.960 RR:   0.000 FEB:  -7.309
USER: RMSD 9.097367
USER: SEED 172
USER: STATUS no improvement in best in 12 clusters for 5 generations
USER: GENES 31
USER: genes 0 Translation |==|  0.59340 0.55895 0.41891
USER: genes 1 Rotation |==|  0.29232 0.63279 0.38407 0.91928
USER: genes 2 Torsion [C]-N--CA-[CB] |==|  0.38975
USER: genes 3 Torsion [N]-CA--CB-[CG] |==|  0.53430
USER: genes 4 Torsion [CA]-CB--CG-[CD] |==|  0.49480
USER: genes 5 Torsion [CB]-CG--CD-[OE2] |==|  0.83068
USER: genes 6 Torsion [N]-CA--C-[N] |==|  0.96367
USER: genes 7 Torsion [C]-N--CA-[CB] |==|  0.20556
USER: genes 8 Torsion [N]-CA--CB-[CG2] |==|  0.70601
USER: genes 9 Torsion [CA]-CB--OG1-[HG1] |==|  0.80411
USER: genes 10 Torsion [N]-CA--C-[N] |==|  0.07984
USER: genes 11 Torsion [C]-N--CA-[C] |==|  0.77599
USER: genes 12 Torsion [N]-CA--C-[N] |==|  0.19518
USER: genes 13 Torsion [C]-N--CA-[CB] |==|  0.26504
USER: genes 14 Torsion [N]-CA--CB-[CG2] |==|  0.15938
USER: genes 15 Torsion [N]-CA--C-[OXT] |==|  0.39370
USER: genes 16 Torsion [N]-CA--CB-[CG] |==|  0.07141
USER: genes 17 Torsion [CA]-CB--CG-[CD] |==|  0.20496
USER: genes 18 Torsion [CB]-CG--CD-[OE1] |==|  0.25141
USER: genes 19 Torsion [N]-C--CA-[N] |==|  0.16623
USER: genes 20 Torsion [C]-CA--CB-[CG] |==|  0.71392
USER: genes 21 Torsion [CA]-CB--CG-[CD] |==|  0.50096
USER: genes 22 Torsion [CB]-CG--CD-[NE] |==|  0.13284
USER: genes 23 Torsion [CG]-CD--NE-[HE] |==|  0.20159
USER: genes 24 Torsion [C]-CA--N-[C] |==|  0.58925
USER: genes 25 Torsion [N]-C--CA-[N] |==|  0.30028
USER: genes 26 Torsion [C]-CA--N-[H2] |==|  0.20804
USER: genes 27 Torsion [C]-CA--CB-[CG] |==|  0.23591
USER: genes 28 Torsion [CA]-CB--CG-[CD] |==|  0.19494
USER: genes 29 Torsion [CB]-CG--CD-[NE] |==|  0.58997
USER: genes 30 Torsion [CG]-CD--NE-[CZ] |==|  0.19694
ROOT
ATOM      1  C   ARG C   2      26.902  20.956  24.222  1.00 17.64 LIG 0.24  C 
ATOM      2 O    ARG C   2      26.384  21.048  23.104  1.00 18.48 LIG-0.27  OA
ATOM      3  N   GLU C   3      28.201  20.735  24.391  1.00 16.82 LIG-0.35  N 
ATOM      4 H    GLU C   3      28.585  20.671  25.158  1.00 16.82 LIG 0.16  HD
ENDROOT
BRANCH 3 5
ATOM      5  CA  GLU C   3      29.095  20.580  23.247  1.00 17.00 LIG 0.18  C 
BRANCH 5 6
ATOM      6  CB  GLU C   3      30.434  21.285  23.512  1.00 16.91 LIG 0.04  C 
BRANCH 6 7
ATOM      7  CG  GLU C   3      31.299  21.423  22.259  1.00 19.77 LIG 0.12  C 
BRANCH 7 8
ATOM      8  CD  GLU C   3      32.601  22.159  22.517  1.00 23.53 LIG 0.17  C 
ATOM      9 OE2  GLU C   3      32.550  23.336  22.924  1.00 22.35 LIG-0.65  OA
ATOM     10 OE1  GLU C   3      33.672  21.559  22.309  1.00 28.80 LIG-0.65  OA
ENDBRANCH 7 8
ENDBRANCH 6 7
ENDBRANCH 5 6
BRANCH 5 11
ATOM     11  C   GLU C   3      29.322  19.094  23.011  1.00 16.25 LIG 0.24  C 
ATOM     12  N   THR C   4      28.937  18.256  23.977  1.00 14.90 LIG-0.34  N 
ATOM     13 H    THR C   4      28.535  18.504  24.696  1.00 14.90 LIG 0.16  HD
ATOM     14 O    GLU C   3      29.851  18.717  21.963  1.00 19.18 LIG-0.27  OA
BRANCH 12 15
ATOM     15  CA  THR C   4      29.174  16.820  23.885  1.00 14.85 LIG 0.20  C 
BRANCH 15 16
ATOM     16  CB  THR C   4      30.651  16.502  24.125  1.00 16.75 LIG 0.15  C 
ATOM     17  CG2 THR C   4      31.343  16.138  22.816  1.00 16.70 LIG 0.04  C 
BRANCH 16 18
ATOM     18 OG1  THR C   4      31.286  17.642  24.714  1.00 17.36 LIG-0.39  OA
ATOM     19 HG1  THR C   4      31.347  18.255  24.143  1.00 17.36 LIG 0.21  HD
ENDBRANCH 16 18
ENDBRANCH 15 16
BRANCH 15 20
ATOM     20  C   THR C   4      28.328  16.080  24.911  1.00 14.69 LIG 0.24  C 
ATOM     21  N   GLN C   5      27.179  16.653  25.261  1.00 15.36 LIG-0.35  N 
ATOM     22 H    GLN C   5      26.952  17.452  25.037  1.00 15.36 LIG 0.16  HD
ATOM     23 O    THR C   4      28.711  14.999  25.372  1.00 15.54 LIG-0.27  OA
BRANCH 21 24
ATOM     24  CA  GLN C   5      26.195  15.950  26.071  1.00 16.48 LIG 0.18  C 
BRANCH 24 25
ATOM     25  C   GLN C   5      25.381  15.015  25.191  1.00 17.30 LIG 0.24  C 
ATOM     26 O    GLN C   5      24.183  15.239  24.972  1.00 19.53 LIG-0.27  OA
ATOM     27  N   VAL C   6      26.018  13.948  24.715  1.00 16.49 LIG-0.34  N 
ATOM     28 H    VAL C   6      26.851  13.787  24.857  1.00 16.49 LIG 0.16  HD
BRANCH 27 29
ATOM     29  CA  VAL C   6      25.343  12.944  23.897  1.00 18.07 LIG 0.19  C 
BRANCH 29 30
ATOM     30  CB  VAL C   6      25.537  13.211  22.392  1.00 20.19 LIG 0.01  C 
ATOM     31  CG1 VAL C   6      24.861  14.504  21.979  1.00 23.48 LIG 0.01  C 
ATOM     32  CG2 VAL C   6      27.019  13.251  22.043  1.00 21.65 LIG 0.01  C 
ENDBRANCH 29 30
BRANCH 29 33
ATOM     33  C   VAL C   6      25.812  11.537  24.245  1.00 18.86 LIG 0.20  C 
ATOM     34 O    VAL C   6      27.009  11.305  24.500  1.00 20.67 LIG-0.65  OA
ATOM     35 OXT  VAL C   6      24.993  10.602  24.258  1.00 19.38 LIG-0.65  OA
ENDBRANCH 29 33
ENDBRANCH 27 29
ENDBRANCH 24 25
BRANCH 24 36
ATOM     36  CB  GLN C   5      25.250  16.954  26.731  1.00 21.66 LIG 0.04  C 
BRANCH 36 37
ATOM     37  CG  GLN C   5      25.101  18.276  26.001  1.00 28.10 LIG 0.10  C 
BRANCH 37 38
ATOM     38  CD  GLN C   5      24.260  18.152  24.737  1.00 33.44 LIG 0.21  C 
ATOM     39  NE2 GLN C   5      24.911  17.858  23.617  1.00 35.38 LIG-0.37  N 
ATOM     40 21HE GLN C   5      25.764  17.748  23.632  1.00 35.38 LIG 0.16  HD
ATOM     41 22HE GLN C   5      24.480  17.779  22.878  1.00 35.38 LIG 0.16  HD
ATOM     42 OE1  GLN C   5      23.040  18.320  24.772  1.00 34.39 LIG-0.27  OA
ENDBRANCH 37 38
ENDBRANCH 36 37
ENDBRANCH 24 36
ENDBRANCH 21 24
ENDBRANCH 15 20
ENDBRANCH 12 15
ENDBRANCH 5 11
ENDBRANCH 3 5
BRANCH 1 43
ATOM     43  CA  ARG C   2      26.052  21.059  25.485  1.00 18.81 LIG 0.18  C 
BRANCH 43 44
ATOM     44  CB  ARG C   2      24.592  21.291  25.104  1.00 19.04 LIG 0.04  C 
BRANCH 44 45
ATOM     45  CG  ARG C   2      24.160  22.731  25.290  1.00 18.27 LIG 0.02  C 
BRANCH 45 46
ATOM     46  CD  ARG C   2      22.705  22.898  24.905  1.00 20.59 LIG 0.14  C 
BRANCH 46 47
ATOM     47  NE  ARG C   2      21.879  21.861  25.515  1.00 21.96 LIG-0.23  N 
ATOM     48 HE   ARG C   2      21.732  21.910  26.361  1.00 21.96 LIG 0.18  HD
ATOM     49  CZ  ARG C   2      21.339  20.845  24.848  1.00 22.93 LIG 0.67  C 
ATOM     50  NH2 ARG C   2      20.598  19.953  25.486  1.00 24.61 LIG-0.23  N 
ATOM     51  NH1 ARG C   2      21.542  20.723  23.544  1.00 22.65 LIG-0.23  N 
ATOM     52 1HH2 ARG C   2      20.466  20.030  26.333  1.00 24.61 LIG 0.17  HD
ATOM     53 2HH2 ARG C   2      20.250  19.296  25.055  1.00 24.61 LIG 0.17  HD
ATOM     54 1HH1 ARG C   2      22.024  21.301  23.128  1.00 22.65 LIG 0.17  HD
ATOM     55 2HH1 ARG C   2      21.192  20.066  23.113  1.00 22.65 LIG 0.17  HD
ENDBRANCH 46 47
ENDBRANCH 45 46
ENDBRANCH 44 45
ENDBRANCH 43 44
BRANCH 43 56
ATOM     56  N   ARG C   2      26.528  22.156  26.319  1.00 21.07 LIG-0.35  N 
ATOM     57  C   ARG C   1      26.440  22.093  27.645  1.00 27.96 LIG 0.25  C 
ATOM     58 O    ARG C   1      25.920  21.148  28.238  1.00 30.47 LIG-0.27  OA
ATOM     59 H    ARG C   2      26.859  22.822  25.886  1.00 21.07 LIG 0.16  HD
BRANCH 57 60
ATOM     60  CA  ARG C   1      27.025  23.261  28.428  1.00 31.07 LIG 0.27  C 
BRANCH 60 61
ATOM     61  N   ARG C   1      25.967  24.082  29.013  1.00 32.37 LIG-0.07  N 
ATOM     62 H2   ARG C   1      25.617  23.660  29.715  1.00 32.37 LIG 0.28  HD
ATOM     63 H1   ARG C   1      25.332  24.226  28.406  1.00 32.37 LIG 0.28  HD
ATOM     64 H3   ARG C   1      26.306  24.862  29.276  1.00 32.37 LIG 0.28  HD
ENDBRANCH 60 61
BRANCH 60 65
ATOM     65  CB  ARG C   1      27.965  22.722  29.508  1.00 35.21 LIG 0.04  C 
BRANCH 65 66
ATOM     66  CG  ARG C   1      29.380  22.460  28.999  1.00 38.18 LIG 0.02  C 
BRANCH 66 67
ATOM     67  CD  ARG C   1      30.129  23.748  28.690  1.00 40.83 LIG 0.14  C 
BRANCH 67 68
ATOM     68  NE  ARG C   1      31.062  23.581  27.581  1.00 41.61 LIG-0.23  N 
ATOM     69  CZ  ARG C   1      30.696  23.424  26.313  1.00 42.69 LIG 0.67  C 
ATOM     70  NH1 ARG C   1      29.408  23.409  25.988  1.00 43.45 LIG-0.23  N 
ATOM     71  NH2 ARG C   1      31.619  23.285  25.370  1.00 42.77 LIG-0.23  N 
ATOM     72 1HH1 ARG C   1      28.810  23.500  26.598  1.00 43.45 LIG 0.17  HD
ATOM     73 2HH1 ARG C   1      29.174  23.306  25.167  1.00 43.45 LIG 0.17  HD
ATOM     74 1HH2 ARG C   1      32.453  23.296  25.579  1.00 42.77 LIG 0.17  HD
ATOM     75 2HH2 ARG C   1      31.382  23.183  24.549  1.00 42.77 LIG 0.17  HD
ATOM     76 HE   ARG C   1      31.904  23.584  27.760  1.00 41.61 LIG 0.18  HD
ENDBRANCH 67 68
ENDBRANCH 66 67
ENDBRANCH 65 66
ENDBRANCH 60 65
ENDBRANCH 57 60
ENDBRANCH 43 56
ENDBRANCH 1 43
TORSDOF 29
ENDMDL
MODEL 13
USER: ADFR SOLUTION from run 198
USER: SCORE 17.929193 LL:  -5.074 LR: -15.931 RR:   0.000 FEB:  -7.281
USER: RMSD 9.001045
USER: SEED 197
USER: STATUS no improvement in best in 21 clusters for 5 generations
USER: GENES 31
USER: genes 0 Translation |==|  0.62403 0.56365 0.42729
USER: genes 1 Rotation |==|  0.38038 0.78836 0.37600 0.87035
USER: genes 2 Torsion [C]-N--CA-[CB] |==|  0.22920
USER: genes 3 Torsion [N]-CA--CB-[CG] |==|  0.33842
USER: genes 4 Torsion [CA]-CB--CG-[CD] |==|  0.64621
USER: genes 5 Torsion [CB]-CG--CD-[OE2] |==|  0.89167
USER: genes 6 Torsion [N]-CA--C-[N] |==|  0.92423
USER: genes 7 Torsion [C]-N--CA-[CB] |==|  0.31854
USER: genes 8 Torsion [N]-CA--CB-[CG2] |==|  0.13549
USER: genes 9 Torsion [CA]-CB--OG1-[HG1] |==|  0.88177
USER: genes 10 Torsion [N]-CA--C-[N] |==|  0.04701
USER: genes 11 Torsion [C]-N--CA-[C] |==|  0.65612
USER: genes 12 Torsion [N]-CA--C-[N] |==|  0.38058
USER: genes 13 Torsion [C]-N--CA-[CB] |==|  0.21342
USER: genes 14 Torsion [N]-CA--CB-[CG2] |==|  0.09160
USER: genes 15 Torsion [N]-CA--C-[OXT] |==|  0.97038
USER: genes 16 Torsion [N]-CA--CB-[CG] |==|  0.17365
USER: genes 17 Torsion [CA]-CB--CG-[CD] |==|  0.73629
USER: genes 18 Torsion [CB]-CG--CD-[OE1] |==|  0.16815
USER: genes 19 Torsion [N]-C--CA-[N] |==|  0.35778
USER: genes 20 Torsion [C]-CA--CB-[CG] |==|  0.71888
USER: genes 21 Torsion [CA]-CB--CG-[CD] |==|  0.33193
USER: genes 22 Torsion [CB]-CG--CD-[NE] |==|  0.89443
USER: genes 23 Torsion [CG]-CD--NE-[HE] |==|  0.77202
USER: genes 24 Torsion [C]-CA--N-[C] |==|  0.56151
USER: genes 25 Torsion [N]-C--CA-[N] |==|  0.23134
USER: genes 26 Torsion [C]-CA--N-[H2] |==|  0.82354
USER: genes 27 Torsion [C]-CA--CB-[CG] |==|  0.63290
USER: genes 28 Torsion [CA]-CB--CG-[CD] |==|  0.73440
USER: genes 29 Torsion [CB]-CG--CD-[NE] |==|  0.31772
USER: genes 30 Torsion [CG]-CD--NE-[CZ] |==|  0.31196
ROOT
ATOM      1  C   ARG C   2      27.752  21.065  24.379  1.00 17.64 LIG 0.24  C 
ATOM      2 O    ARG C   2      26.969  21.782  23.748  1.00 18.48 LIG-0.27  OA
ATOM      3  N   GLU C   3      28.742  20.400  23.793  1.00 16.82 LIG-0.35  N 
ATOM      4 H    GLU C   3      29.302  19.899  24.211  1.00 16.82 LIG 0.16  HD
ENDROOT
BRANCH 3 5
ATOM      5  CA  GLU C   3      28.954  20.479  22.351  1.00 17.00 LIG 0.18  C 
BRANCH 5 6
ATOM      6  CB  GLU C   3      29.749  21.745  21.992  1.00 16.91 LIG 0.04  C 
BRANCH 6 7
ATOM      7  CG  GLU C   3      31.052  21.446  21.251  1.00 19.77 LIG 0.12  C 
BRANCH 7 8
ATOM      8  CD  GLU C   3      32.261  22.099  21.895  1.00 23.53 LIG 0.17  C 
ATOM      9 OE2  GLU C   3      32.142  23.250  22.358  1.00 22.35 LIG-0.65  OA
ATOM     10 OE1  GLU C   3      33.329  21.460  21.935  1.00 28.80 LIG-0.65  OA
ENDBRANCH 7 8
ENDBRANCH 6 7
ENDBRANCH 5 6
BRANCH 5 11
ATOM     11  C   GLU C   3      29.716  19.239  21.908  1.00 16.25 LIG 0.24  C 
ATOM     12  N   THR C   4      30.508  18.653  22.810  1.00 14.90 LIG-0.34  N 
ATOM     13 H    THR C   4      30.577  18.911  23.627  1.00 14.90 LIG 0.16  HD
ATOM     14 O    GLU C   3      29.588  18.826  20.753  1.00 19.18 LIG-0.27  OA
BRANCH 12 15
ATOM     15  CA  THR C   4      31.337  17.504  22.469  1.00 14.85 LIG 0.20  C 
BRANCH 15 16
ATOM     16  CB  THR C   4      32.822  17.862  22.571  1.00 16.75 LIG 0.15  C 
ATOM     17  CG2 THR C   4      33.118  18.559  23.894  1.00 16.70 LIG 0.04  C 
BRANCH 16 18
ATOM     18 OG1  THR C   4      33.600  16.665  22.463  1.00 17.36 LIG-0.39  OA
ATOM     19 HG1  THR C   4      33.242  16.056  22.917  1.00 17.36 LIG 0.21  HD
ENDBRANCH 16 18
ENDBRANCH 15 16
BRANCH 15 20
ATOM     20  C   THR C   4      31.037  16.342  23.405  1.00 14.69 LIG 0.24  C 
ATOM     21  N   GLN C   5      29.901  16.412  24.095  1.00 15.36 LIG-0.35  N 
ATOM     22 H    GLN C   5      29.402  17.111  24.132  1.00 15.36 LIG 0.16  HD
ATOM     23 O    THR C   4      31.822  15.391  23.492  1.00 15.54 LIG-0.27  OA
BRANCH 21 24
ATOM     24  CA  GLN C   5      29.406  15.278  24.861  1.00 16.48 LIG 0.18  C 
BRANCH 24 25
ATOM     25  C   GLN C   5      27.998  14.926  24.406  1.00 17.30 LIG 0.24  C 
ATOM     26 O    GLN C   5      27.155  15.815  24.226  1.00 19.53 LIG-0.27  OA
ATOM     27  N   VAL C   6      27.733  13.632  24.255  1.00 16.49 LIG-0.34  N 
ATOM     28 H    VAL C   6      28.313  13.008  24.373  1.00 16.49 LIG 0.16  HD
BRANCH 27 29
ATOM     29  CA  VAL C   6      26.408  13.153  23.869  1.00 18.07 LIG 0.19  C 
BRANCH 29 30
ATOM     30  CB  VAL C   6      26.144  13.356  22.365  1.00 20.19 LIG 0.01  C 
ATOM     31  CG1 VAL C   6      25.512  14.710  22.103  1.00 23.48 LIG 0.01  C 
ATOM     32  CG2 VAL C   6      27.436  13.210  21.571  1.00 21.65 LIG 0.01  C 
ENDBRANCH 29 30
BRANCH 29 33
ATOM     33  C   VAL C   6      26.216  11.689  24.242  1.00 18.86 LIG 0.20  C 
ATOM     34 O    VAL C   6      25.090  11.157  24.194  1.00 20.67 LIG-0.65  OA
ATOM     35 OXT  VAL C   6      27.192  11.017  24.617  1.00 19.38 LIG-0.65  OA
ENDBRANCH 29 33
ENDBRANCH 27 29
ENDBRANCH 24 25
BRANCH 24 36
ATOM     36  CB  GLN C   5      29.371  15.628  26.349  1.00 21.66 LIG 0.04  C 
BRANCH 36 37
ATOM     37  CG  GLN C   5      28.441  16.768  26.721  1.00 28.10 LIG 0.10  C 
BRANCH 37 38
ATOM     38  CD  GLN C   5      29.160  18.108  26.790  1.00 33.44 LIG 0.21  C 
ATOM     39  NE2 GLN C   5      29.140  18.733  27.962  1.00 35.38 LIG-0.37  N 
ATOM     40 21HE GLN C   5      28.736  18.378  28.633  1.00 35.38 LIG 0.16  HD
ATOM     41 22HE GLN C   5      29.531  19.494  28.049  1.00 35.38 LIG 0.16  HD
ATOM     42 OE1  GLN C   5      29.723  18.573  25.798  1.00 34.39 LIG-0.27  OA
ENDBRANCH 37 38
ENDBRANCH 36 37
ENDBRANCH 24 36
ENDBRANCH 21 24
ENDBRANCH 15 20
ENDBRANCH 12 15
ENDBRANCH 5 11
ENDBRANCH 3 5
BRANCH 1 43
ATOM     43  CA  ARG C   2      27.595  20.878  25.885  1.00 18.81 LIG 0.18  C 
BRANCH 43 44
ATOM     44  CB  ARG C   2      26.326  20.080  26.173  1.00 19.04 LIG 0.04  C 
BRANCH 44 45
ATOM     45  CG  ARG C   2      25.173  20.955  26.620  1.00 18.27 LIG 0.02  C 
BRANCH 45 46
ATOM     46  CD  ARG C   2      24.012  20.831  25.655  1.00 20.59 LIG 0.14  C 
BRANCH 46 47
ATOM     47  NE  ARG C   2      24.483  20.729  24.278  1.00 21.96 LIG-0.23  N 
ATOM     48 HE   ARG C   2      24.685  21.458  23.868  1.00 21.96 LIG 0.18  HD
ATOM     49  CZ  ARG C   2      24.620  19.584  23.616  1.00 22.93 LIG 0.67  C 
ATOM     50  NH2 ARG C   2      25.060  19.590  22.367  1.00 24.61 LIG-0.23  N 
ATOM     51  NH1 ARG C   2      24.315  18.436  24.203  1.00 22.65 LIG-0.23  N 
ATOM     52 1HH2 ARG C   2      25.257  20.335  21.984  1.00 24.61 LIG 0.17  HD
ATOM     53 2HH2 ARG C   2      25.148  18.850  21.939  1.00 24.61 LIG 0.17  HD
ATOM     54 1HH1 ARG C   2      24.028  18.430  25.013  1.00 22.65 LIG 0.17  HD
ATOM     55 2HH1 ARG C   2      24.405  17.696  23.773  1.00 22.65 LIG 0.17  HD
ENDBRANCH 46 47
ENDBRANCH 45 46
ENDBRANCH 44 45
ENDBRANCH 43 44
BRANCH 43 56
ATOM     56  N   ARG C   2      27.526  22.176  26.545  1.00 21.07 LIG-0.35  N 
ATOM     57  C   ARG C   1      27.825  22.301  27.836  1.00 27.96 LIG 0.25  C 
ATOM     58 O    ARG C   1      28.124  21.345  28.550  1.00 30.47 LIG-0.27  OA
ATOM     59 H    ARG C   2      27.284  22.827  26.038  1.00 21.07 LIG 0.16  HD
BRANCH 57 60
ATOM     60  CA  ARG C   1      27.786  23.710  28.415  1.00 31.07 LIG 0.27  C 
BRANCH 60 61
ATOM     61  N   ARG C   1      26.424  24.085  28.790  1.00 32.37 LIG-0.07  N 
ATOM     62 H2   ARG C   1      25.911  24.107  28.062  1.00 32.37 LIG 0.28  HD
ATOM     63 H1   ARG C   1      26.431  24.889  29.172  1.00 32.37 LIG 0.28  HD
ATOM     64 H3   ARG C   1      26.098  23.487  29.363  1.00 32.37 LIG 0.28  HD
ENDBRANCH 60 61
BRANCH 60 65
ATOM     65  CB  ARG C   1      28.729  23.786  29.617  1.00 35.21 LIG 0.04  C 
BRANCH 65 66
ATOM     66  CG  ARG C   1      28.094  24.441  30.840  1.00 38.18 LIG 0.02  C 
BRANCH 66 67
ATOM     67  CD  ARG C   1      28.426  25.922  30.937  1.00 40.83 LIG 0.14  C 
BRANCH 67 68
ATOM     68  NE  ARG C   1      27.240  26.757  30.776  1.00 41.61 LIG-0.23  N 
ATOM     69  CZ  ARG C   1      26.710  27.496  31.746  1.00 42.69 LIG 0.67  C 
ATOM     70  NH1 ARG C   1      27.259  27.504  32.955  1.00 43.45 LIG-0.23  N 
ATOM     71  NH2 ARG C   1      25.630  28.229  31.505  1.00 42.77 LIG-0.23  N 
ATOM     72 1HH1 ARG C   1      27.959  27.031  33.112  1.00 43.45 LIG 0.17  HD
ATOM     73 2HH1 ARG C   1      26.914  27.982  33.581  1.00 43.45 LIG 0.17  HD
ATOM     74 1HH2 ARG C   1      25.274  28.226  30.722  1.00 42.77 LIG 0.17  HD
ATOM     75 2HH2 ARG C   1      25.287  28.708  32.132  1.00 42.77 LIG 0.17  HD
ATOM     76 HE   ARG C   1      26.859  26.771  30.005  1.00 41.61 LIG 0.18  HD
ENDBRANCH 67 68
ENDBRANCH 66 67
ENDBRANCH 65 66
ENDBRANCH 60 65
ENDBRANCH 57 60
ENDBRANCH 43 56
ENDBRANCH 1 43
TORSDOF 29
ENDMDL
MODEL 14
USER: ADFR SOLUTION from run 5
USER: SCORE 18.308528 LL:  -4.735 LR: -15.761 RR:   0.000 FEB:  -7.110
USER: RMSD 10.325881
USER: SEED 684654
USER: STATUS no improvement in best in 8 clusters for 5 generations
USER: GENES 31
USER: genes 0 Translation |==|  0.59701 0.52546 0.35003
USER: genes 1 Rotation |==|  0.80680 0.16694 0.71196 0.50440
USER: genes 2 Torsion [C]-N--CA-[CB] |==|  0.51667
USER: genes 3 Torsion [N]-CA--CB-[CG] |==|  0.19338
USER: genes 4 Torsion [CA]-CB--CG-[CD] |==|  0.78815
USER: genes 5 Torsion [CB]-CG--CD-[OE2] |==|  0.41027
USER: genes 6 Torsion [N]-CA--C-[N] |==|  0.39902
USER: genes 7 Torsion [C]-N--CA-[CB] |==|  0.24250
USER: genes 8 Torsion [N]-CA--CB-[CG2] |==|  0.82409
USER: genes 9 Torsion [CA]-CB--OG1-[HG1] |==|  0.79026
USER: genes 10 Torsion [N]-CA--C-[N] |==|  0.97791
USER: genes 11 Torsion [C]-N--CA-[C] |==|  0.61691
USER: genes 12 Torsion [N]-CA--C-[N] |==|  0.06714
USER: genes 13 Torsion [C]-N--CA-[CB] |==|  0.24623
USER: genes 14 Torsion [N]-CA--CB-[CG2] |==|  0.18185
USER: genes 15 Torsion [N]-CA--C-[OXT] |==|  0.99275
USER: genes 16 Torsion [N]-CA--CB-[CG] |==|  0.07355
USER: genes 17 Torsion [CA]-CB--CG-[CD] |==|  0.69533
USER: genes 18 Torsion [CB]-CG--CD-[OE1] |==|  0.61029
USER: genes 19 Torsion [N]-C--CA-[N] |==|  0.69339
USER: genes 20 Torsion [C]-CA--CB-[CG] |==|  0.25491
USER: genes 21 Torsion [CA]-CB--CG-[CD] |==|  0.18818
USER: genes 22 Torsion [CB]-CG--CD-[NE] |==|  0.06338
USER: genes 23 Torsion [CG]-CD--NE-[HE] |==|  0.73579
USER: genes 24 Torsion [C]-CA--N-[C] |==|  0.16112
USER: genes 25 Torsion [N]-C--CA-[N] |==|  0.94296
USER: genes 26 Torsion [C]-CA--N-[H2] |==|  0.62602
USER: genes 27 Torsion [C]-CA--CB-[CG] |==|  0.42161
USER: genes 28 Torsion [CA]-CB--CG-[CD] |==|  0.17540
USER: genes 29 Torsion [CB]-CG--CD-[NE] |==|  0.27893
USER: genes 30 Torsion [CG]-CD--NE-[CZ] |==|  0.33206
ROOT
ATOM      1  C   ARG C   2      27.002  20.177  22.930  1.00 17.64 LIG 0.24  C 
ATOM      2 O    ARG C   2      25.884  20.701  22.902  1.00 18.48 LIG-0.27  OA
ATOM      3  N   GLU C   3      27.173  18.862  23.016  1.00 16.82 LIG-0.35  N 
ATOM      4 H    GLU C   3      27.941  18.474  23.033  1.00 16.82 LIG 0.16  HD
ENDROOT
BRANCH 3 5
ATOM      5  CA  GLU C   3      26.032  17.956  23.089  1.00 17.00 LIG 0.18  C 
BRANCH 5 6
ATOM      6  CB  GLU C   3      26.504  16.514  23.331  1.00 16.91 LIG 0.04  C 
BRANCH 6 7
ATOM      7  CG  GLU C   3      27.083  16.296  24.729  1.00 19.77 LIG 0.12  C 
BRANCH 7 8
ATOM      8  CD  GLU C   3      28.484  16.857  24.882  1.00 23.53 LIG 0.17  C 
ATOM      9 OE2  GLU C   3      28.830  17.302  25.994  1.00 22.35 LIG-0.65  OA
ATOM     10 OE1  GLU C   3      29.236  16.854  23.889  1.00 28.80 LIG-0.65  OA
ENDBRANCH 7 8
ENDBRANCH 6 7
ENDBRANCH 5 6
BRANCH 5 11
ATOM     11  C   GLU C   3      25.130  18.409  24.227  1.00 16.25 LIG 0.24  C 
ATOM     12  N   THR C   4      23.811  18.282  24.050  1.00 14.90 LIG-0.34  N 
ATOM     13 H    THR C   4      23.453  17.924  23.355  1.00 14.90 LIG 0.16  HD
ATOM     14 O    GLU C   3      25.630  18.876  25.253  1.00 19.18 LIG-0.27  OA
BRANCH 12 15
ATOM     15  CA  THR C   4      22.856  18.751  25.047  1.00 14.85 LIG 0.20  C 
BRANCH 15 16
ATOM     16  CB  THR C   4      22.517  20.225  24.815  1.00 16.75 LIG 0.15  C 
ATOM     17  CG2 THR C   4      23.755  21.096  24.992  1.00 16.70 LIG 0.04  C 
BRANCH 16 18
ATOM     18 OG1  THR C   4      21.992  20.382  23.493  1.00 17.36 LIG-0.39  OA
ATOM     19 HG1  THR C   4      22.619  20.339  22.935  1.00 17.36 LIG 0.21  HD
ENDBRANCH 16 18
ENDBRANCH 15 16
BRANCH 15 20
ATOM     20  C   THR C   4      21.579  17.926  24.981  1.00 14.69 LIG 0.24  C 
ATOM     21  N   GLN C   5      21.475  17.069  23.968  1.00 15.36 LIG-0.35  N 
ATOM     22 H    GLN C   5      22.019  17.043  23.302  1.00 15.36 LIG 0.16  HD
ATOM     23 O    THR C   4      20.705  18.060  25.844  1.00 15.54 LIG-0.27  OA
BRANCH 21 24
ATOM     24  CA  GLN C   5      20.404  16.086  23.911  1.00 16.48 LIG 0.18  C 
BRANCH 24 25
ATOM     25  C   GLN C   5      20.958  14.750  23.443  1.00 17.30 LIG 0.24  C 
ATOM     26 O    GLN C   5      20.213  13.903  22.931  1.00 19.53 LIG-0.27  OA
ATOM     27  N   VAL C   6      22.256  14.544  23.649  1.00 16.49 LIG-0.34  N 
ATOM     28 H    VAL C   6      22.782  15.128  23.999  1.00 16.49 LIG 0.16  HD
BRANCH 27 29
ATOM     29  CA  VAL C   6      22.907  13.287  23.291  1.00 18.07 LIG 0.19  C 
BRANCH 29 30
ATOM     30  CB  VAL C   6      23.421  13.304  21.839  1.00 20.19 LIG 0.01  C 
ATOM     31  CG1 VAL C   6      22.291  13.585  20.867  1.00 23.48 LIG 0.01  C 
ATOM     32  CG2 VAL C   6      24.531  14.335  21.676  1.00 21.65 LIG 0.01  C 
ENDBRANCH 29 30
BRANCH 29 33
ATOM     33  C   VAL C   6      24.048  12.960  24.247  1.00 18.86 LIG 0.20  C 
ATOM     34 O    VAL C   6      24.683  11.894  24.146  1.00 20.67 LIG-0.65  OA
ATOM     35 OXT  VAL C   6      24.339  13.760  25.153  1.00 19.38 LIG-0.65  OA
ENDBRANCH 29 33
ENDBRANCH 27 29
ENDBRANCH 24 25
BRANCH 24 36
ATOM     36  CB  GLN C   5      19.326  16.545  22.930  1.00 21.66 LIG 0.04  C 
BRANCH 36 37
ATOM     37  CG  GLN C   5      19.810  17.467  21.825  1.00 28.10 LIG 0.10  C 
BRANCH 37 38
ATOM     38  CD  GLN C   5      19.305  18.894  21.993  1.00 33.44 LIG 0.21  C 
ATOM     39  NE2 GLN C   5      19.281  19.372  23.232  1.00 35.38 LIG-0.37  N 
ATOM     40 21HE GLN C   5      19.543  18.882  23.888  1.00 35.38 LIG 0.16  HD
ATOM     41 22HE GLN C   5      19.003  20.172  23.378  1.00 35.38 LIG 0.16  HD
ATOM     42 OE1  GLN C   5      18.941  19.553  21.019  1.00 34.39 LIG-0.27  OA
ENDBRANCH 37 38
ENDBRANCH 36 37
ENDBRANCH 24 36
ENDBRANCH 21 24
ENDBRANCH 15 20
ENDBRANCH 12 15
ENDBRANCH 5 11
ENDBRANCH 3 5
BRANCH 1 43
ATOM     43  CA  ARG C   2      28.264  21.035  22.902  1.00 18.81 LIG 0.18  C 
BRANCH 43 44
ATOM     44  CB  ARG C   2      29.487  20.141  22.717  1.00 19.04 LIG 0.04  C 
BRANCH 44 45
ATOM     45  CG  ARG C   2      29.866  19.960  21.262  1.00 18.27 LIG 0.02  C 
BRANCH 45 46
ATOM     46  CD  ARG C   2      30.367  21.266  20.681  1.00 20.59 LIG 0.14  C 
BRANCH 46 47
ATOM     47  NE  ARG C   2      30.853  22.155  21.732  1.00 21.96 LIG-0.23  N 
ATOM     48 HE   ARG C   2      30.309  22.743  22.044  1.00 21.96 LIG 0.18  HD
ATOM     49  CZ  ARG C   2      32.082  22.115  22.238  1.00 22.93 LIG 0.67  C 
ATOM     50  NH2 ARG C   2      32.432  22.960  23.194  1.00 24.61 LIG-0.23  N 
ATOM     51  NH1 ARG C   2      32.959  21.229  21.785  1.00 22.65 LIG-0.23  N 
ATOM     52 1HH2 ARG C   2      31.865  23.535  23.488  1.00 24.61 LIG 0.17  HD
ATOM     53 2HH2 ARG C   2      33.227  22.934  23.521  1.00 24.61 LIG 0.17  HD
ATOM     54 1HH1 ARG C   2      32.733  20.680  21.163  1.00 22.65 LIG 0.17  HD
ATOM     55 2HH1 ARG C   2      33.753  21.204  22.113  1.00 22.65 LIG 0.17  HD
ENDBRANCH 46 47
ENDBRANCH 45 46
ENDBRANCH 44 45
ENDBRANCH 43 44
BRANCH 43 56
ATOM     56  N   ARG C   2      28.383  21.789  24.145  1.00 21.07 LIG-0.35  N 
ATOM     57  C   ARG C   1      28.427  21.165  25.320  1.00 27.96 LIG 0.25  C 
ATOM     58 O    ARG C   1      28.325  19.945  25.435  1.00 30.47 LIG-0.27  OA
ATOM     59 H    ARG C   2      28.420  22.643  24.046  1.00 21.07 LIG 0.16  HD
BRANCH 57 60
ATOM     60  CA  ARG C   1      28.619  22.039  26.553  1.00 31.07 LIG 0.27  C 
BRANCH 60 61
ATOM     61  N   ARG C   1      29.193  23.335  26.192  1.00 32.37 LIG-0.07  N 
ATOM     62 H2   ARG C   1      29.850  23.537  26.758  1.00 32.37 LIG 0.28  HD
ATOM     63 H1   ARG C   1      28.562  23.961  26.233  1.00 32.37 LIG 0.28  HD
ATOM     64 H3   ARG C   1      29.518  23.296  25.364  1.00 32.37 LIG 0.28  HD
ENDBRANCH 60 61
BRANCH 60 65
ATOM     65  CB  ARG C   1      27.275  22.210  27.262  1.00 35.21 LIG 0.04  C 
BRANCH 65 66
ATOM     66  CG  ARG C   1      27.412  22.440  28.765  1.00 38.18 LIG 0.02  C 
BRANCH 66 67
ATOM     67  CD  ARG C   1      28.152  23.729  29.085  1.00 40.83 LIG 0.14  C 
BRANCH 67 68
ATOM     68  NE  ARG C   1      27.236  24.807  29.443  1.00 41.61 LIG-0.23  N 
ATOM     69  CZ  ARG C   1      27.242  25.434  30.615  1.00 42.69 LIG 0.67  C 
ATOM     70  NH1 ARG C   1      28.118  25.089  31.552  1.00 43.45 LIG-0.23  N 
ATOM     71  NH2 ARG C   1      26.372  26.408  30.850  1.00 42.77 LIG-0.23  N 
ATOM     72 1HH1 ARG C   1      28.683  24.459  31.401  1.00 43.45 LIG 0.17  HD
ATOM     73 2HH1 ARG C   1      28.119  25.495  32.310  1.00 43.45 LIG 0.17  HD
ATOM     74 1HH2 ARG C   1      25.804  26.634  30.244  1.00 42.77 LIG 0.17  HD
ATOM     75 2HH2 ARG C   1      26.375  26.814  31.609  1.00 42.77 LIG 0.17  HD
ATOM     76 HE   ARG C   1      26.654  25.052  28.859  1.00 41.61 LIG 0.18  HD
ENDBRANCH 67 68
ENDBRANCH 66 67
ENDBRANCH 65 66
ENDBRANCH 60 65
ENDBRANCH 57 60
ENDBRANCH 43 56
ENDBRANCH 1 43
TORSDOF 29
ENDMDL
MODEL 15
USER: ADFR SOLUTION from run 96
USER: SCORE 19.042125 LL:  -5.118 LR: -15.750 RR:   0.000 FEB:  -7.099
USER: RMSD 9.326879
USER: SEED 95
USER: STATUS searching
USER: GENES 31
USER: genes 0 Translation |==|  0.72383 0.61112 0.53399
USER: genes 1 Rotation |==|  0.08264 0.26994 0.53681 0.64673
USER: genes 2 Torsion [C]-N--CA-[CB] |==|  0.84444
USER: genes 3 Torsion [N]-CA--CB-[CG] |==|  0.80554
USER: genes 4 Torsion [CA]-CB--CG-[CD] |==|  0.26295
USER: genes 5 Torsion [CB]-CG--CD-[OE2] |==|  0.59370
USER: genes 6 Torsion [N]-CA--C-[N] |==|  0.03205
USER: genes 7 Torsion [C]-N--CA-[CB] |==|  0.75822
USER: genes 8 Torsion [N]-CA--CB-[CG2] |==|  0.70875
USER: genes 9 Torsion [CA]-CB--OG1-[HG1] |==|  0.84896
USER: genes 10 Torsion [N]-CA--C-[N] |==|  0.17550
USER: genes 11 Torsion [C]-N--CA-[C] |==|  0.73902
USER: genes 12 Torsion [N]-CA--C-[N] |==|  0.88655
USER: genes 13 Torsion [C]-N--CA-[CB] |==|  0.30327
USER: genes 14 Torsion [N]-CA--CB-[CG2] |==|  0.96307
USER: genes 15 Torsion [N]-CA--C-[OXT] |==|  0.58909
USER: genes 16 Torsion [N]-CA--CB-[CG] |==|  0.70643
USER: genes 17 Torsion [CA]-CB--CG-[CD] |==|  0.26659
USER: genes 18 Torsion [CB]-CG--CD-[OE1] |==|  0.63646
USER: genes 19 Torsion [N]-C--CA-[N] |==|  0.87803
USER: genes 20 Torsion [C]-CA--CB-[CG] |==|  0.54783
USER: genes 21 Torsion [CA]-CB--CG-[CD] |==|  0.76058
USER: genes 22 Torsion [CB]-CG--CD-[NE] |==|  0.80314
USER: genes 23 Torsion [CG]-CD--NE-[HE] |==|  0.29569
USER: genes 24 Torsion [C]-CA--N-[C] |==|  0.75033
USER: genes 25 Torsion [N]-C--CA-[N] |==|  0.17780
USER: genes 26 Torsion [C]-CA--N-[H2] |==|  0.18685
USER: genes 27 Torsion [C]-CA--CB-[CG] |==|  0.48280
USER: genes 28 Torsion [CA]-CB--CG-[CD] |==|  0.83050
USER: genes 29 Torsion [CB]-CG--CD-[NE] |==|  0.34171
USER: genes 30 Torsion [CG]-CD--NE-[CZ] |==|  0.40322
ROOT
ATOM      1  C   ARG C   2      30.521  22.169  26.379  1.00 17.64 LIG 0.24  C 
ATOM      2 O    ARG C   2      31.401  21.321  26.561  1.00 18.48 LIG-0.27  OA
ATOM      3  N   GLU C   3      30.786  23.385  25.915  1.00 16.82 LIG-0.35  N 
ATOM      4 H    GLU C   3      30.190  23.990  25.776  1.00 16.82 LIG 0.16  HD
ENDROOT
BRANCH 3 5
ATOM      5  CA  GLU C   3      32.151  23.790  25.597  1.00 17.00 LIG 0.18  C 
BRANCH 5 6
ATOM      6  CB  GLU C   3      33.065  23.610  26.820  1.00 16.91 LIG 0.04  C 
BRANCH 6 7
ATOM      7  CG  GLU C   3      32.773  24.608  27.941  1.00 19.77 LIG 0.12  C 
BRANCH 7 8
ATOM      8  CD  GLU C   3      31.826  24.057  28.991  1.00 23.53 LIG 0.17  C 
ATOM      9 OE2  GLU C   3      31.032  24.840  29.548  1.00 22.35 LIG-0.65  OA
ATOM     10 OE1  GLU C   3      31.880  22.843  29.259  1.00 28.80 LIG-0.65  OA
ENDBRANCH 7 8
ENDBRANCH 6 7
ENDBRANCH 5 6
BRANCH 5 11
ATOM     11  C   GLU C   3      32.651  22.938  24.441  1.00 16.25 LIG 0.24  C 
ATOM     12  N   THR C   4      31.747  22.196  23.793  1.00 14.90 LIG-0.34  N 
ATOM     13 H    THR C   4      30.905  22.208  23.966  1.00 14.90 LIG 0.16  HD
ATOM     14 O    GLU C   3      33.848  22.950  24.147  1.00 19.18 LIG-0.27  OA
BRANCH 12 15
ATOM     15  CA  THR C   4      32.129  21.289  22.718  1.00 14.85 LIG 0.20  C 
BRANCH 15 16
ATOM     16  CB  THR C   4      32.160  22.027  21.377  1.00 16.75 LIG 0.15  C 
ATOM     17  CG2 THR C   4      30.944  21.660  20.533  1.00 16.70 LIG 0.04  C 
BRANCH 16 18
ATOM     18 OG1  THR C   4      32.181  23.437  21.619  1.00 17.36 LIG-0.39  OA
ATOM     19 HG1  THR C   4      31.535  23.647  22.113  1.00 17.36 LIG 0.21  HD
ENDBRANCH 16 18
ENDBRANCH 15 16
BRANCH 15 20
ATOM     20  C   THR C   4      33.502  20.694  22.994  1.00 14.69 LIG 0.24  C 
ATOM     21  N   GLN C   5      33.613  19.932  24.079  1.00 15.36 LIG-0.35  N 
ATOM     22 H    GLN C   5      33.003  19.858  24.680  1.00 15.36 LIG 0.16  HD
ATOM     23 O    THR C   4      34.445  20.916  22.226  1.00 15.54 LIG-0.27  OA
BRANCH 21 24
ATOM     24  CA  GLN C   5      34.811  19.146  24.336  1.00 16.48 LIG 0.18  C 
BRANCH 24 25
ATOM     25  C   GLN C   5      34.624  17.736  23.798  1.00 17.30 LIG 0.24  C 
ATOM     26 O    GLN C   5      35.540  17.169  23.186  1.00 19.53 LIG-0.27  OA
ATOM     27  N   VAL C   6      33.430  17.184  23.991  1.00 16.49 LIG-0.34  N 
ATOM     28 H    VAL C   6      32.790  17.567  24.419  1.00 16.49 LIG 0.16  HD
BRANCH 27 29
ATOM     29  CA  VAL C   6      33.100  15.854  23.484  1.00 18.07 LIG 0.19  C 
BRANCH 29 30
ATOM     30  CB  VAL C   6      32.982  14.823  24.622  1.00 20.19 LIG 0.01  C 
ATOM     31  CG1 VAL C   6      33.678  13.527  24.255  1.00 23.48 LIG 0.01  C 
ATOM     32  CG2 VAL C   6      33.555  15.387  25.916  1.00 21.65 LIG 0.01  C 
ENDBRANCH 29 30
BRANCH 29 33
ATOM     33  C   VAL C   6      31.819  15.876  22.660  1.00 18.86 LIG 0.20  C 
ATOM     34 O    VAL C   6      31.495  16.885  22.006  1.00 20.67 LIG-0.65  OA
ATOM     35 OXT  VAL C   6      31.075  14.880  22.654  1.00 19.38 LIG-0.65  OA
ENDBRANCH 29 33
ENDBRANCH 27 29
ENDBRANCH 24 25
BRANCH 24 36
ATOM     36  CB  GLN C   5      35.072  19.069  25.841  1.00 21.66 LIG 0.04  C 
BRANCH 36 37
ATOM     37  CG  GLN C   5      36.220  19.928  26.341  1.00 28.10 LIG 0.10  C 
BRANCH 37 38
ATOM     38  CD  GLN C   5      35.750  21.274  26.877  1.00 33.44 LIG 0.21  C 
ATOM     39  NE2 GLN C   5      34.741  21.249  27.740  1.00 35.38 LIG-0.37  N 
ATOM     40 21HE GLN C   5      34.388  20.499  27.969  1.00 35.38 LIG 0.16  HD
ATOM     41 22HE GLN C   5      34.440  21.984  28.069  1.00 35.38 LIG 0.16  HD
ATOM     42 OE1  GLN C   5      36.291  22.320  26.515  1.00 34.39 LIG-0.27  OA
ENDBRANCH 37 38
ENDBRANCH 36 37
ENDBRANCH 24 36
ENDBRANCH 21 24
ENDBRANCH 15 20
ENDBRANCH 12 15
ENDBRANCH 5 11
ENDBRANCH 3 5
BRANCH 1 43
ATOM     43  CA  ARG C   2      29.065  21.864  26.719  1.00 18.81 LIG 0.18  C 
BRANCH 43 44
ATOM     44  CB  ARG C   2      28.282  21.604  25.435  1.00 19.04 LIG 0.04  C 
BRANCH 44 45
ATOM     45  CG  ARG C   2      26.784  21.705  25.632  1.00 18.27 LIG 0.02  C 
BRANCH 45 46
ATOM     46  CD  ARG C   2      26.223  20.379  26.103  1.00 20.59 LIG 0.14  C 
BRANCH 46 47
ATOM     47  NE  ARG C   2      26.254  19.387  25.033  1.00 21.96 LIG-0.23  N 
ATOM     48 HE   ARG C   2      26.842  18.762  25.082  1.00 21.96 LIG 0.18  HD
ATOM     49  CZ  ARG C   2      25.433  19.388  23.988  1.00 22.93 LIG 0.67  C 
ATOM     50  NH2 ARG C   2      25.533  18.443  23.066  1.00 24.61 LIG-0.23  N 
ATOM     51  NH1 ARG C   2      24.514  20.335  23.864  1.00 22.65 LIG-0.23  N 
ATOM     52 1HH2 ARG C   2      26.129  17.828  23.144  1.00 24.61 LIG 0.17  HD
ATOM     53 2HH2 ARG C   2      25.002  18.444  22.390  1.00 24.61 LIG 0.17  HD
ATOM     54 1HH1 ARG C   2      24.448  20.951  24.461  1.00 22.65 LIG 0.17  HD
ATOM     55 2HH1 ARG C   2      23.983  20.335  23.188  1.00 22.65 LIG 0.17  HD
ENDBRANCH 46 47
ENDBRANCH 45 46
ENDBRANCH 44 45
ENDBRANCH 43 44
BRANCH 43 56
ATOM     56  N   ARG C   2      28.476  22.985  27.442  1.00 21.07 LIG-0.35  N 
ATOM     57  C   ARG C   1      28.531  23.044  28.770  1.00 27.96 LIG 0.25  C 
ATOM     58 O    ARG C   1      29.028  22.156  29.461  1.00 30.47 LIG-0.27  OA
ATOM     59 H    ARG C   2      28.104  23.580  26.944  1.00 21.07 LIG 0.16  HD
BRANCH 57 60
ATOM     60  CA  ARG C   1      27.944  24.288  29.426  1.00 31.07 LIG 0.27  C 
BRANCH 60 61
ATOM     61  N   ARG C   1      26.505  24.380  29.182  1.00 32.37 LIG-0.07  N 
ATOM     62 H2   ARG C   1      26.089  23.718  29.608  1.00 32.37 LIG 0.28  HD
ATOM     63 H1   ARG C   1      26.347  24.315  28.308  1.00 32.37 LIG 0.28  HD
ATOM     64 H3   ARG C   1      26.202  25.161  29.481  1.00 32.37 LIG 0.28  HD
ENDBRANCH 60 61
BRANCH 60 65
ATOM     65  CB  ARG C   1      28.248  24.259  30.924  1.00 35.21 LIG 0.04  C 
BRANCH 65 66
ATOM     66  CG  ARG C   1      27.833  25.536  31.649  1.00 38.18 LIG 0.02  C 
BRANCH 66 67
ATOM     67  CD  ARG C   1      28.560  26.761  31.118  1.00 40.83 LIG 0.14  C 
BRANCH 67 68
ATOM     68  NE  ARG C   1      27.631  27.785  30.652  1.00 41.61 LIG-0.23  N 
ATOM     69  CZ  ARG C   1      27.843  29.093  30.764  1.00 42.69 LIG 0.67  C 
ATOM     70  NH1 ARG C   1      28.956  29.542  31.333  1.00 43.45 LIG-0.23  N 
ATOM     71  NH2 ARG C   1      26.942  29.952  30.306  1.00 42.77 LIG-0.23  N 
ATOM     72 1HH1 ARG C   1      29.542  28.987  31.629  1.00 43.45 LIG 0.17  HD
ATOM     73 2HH1 ARG C   1      29.091  30.388  31.405  1.00 43.45 LIG 0.17  HD
ATOM     74 1HH2 ARG C   1      26.221  29.663  29.936  1.00 42.77 LIG 0.17  HD
ATOM     75 2HH2 ARG C   1      27.078  30.798  30.378  1.00 42.77 LIG 0.17  HD
ATOM     76 HE   ARG C   1      26.900  27.527  30.282  1.00 41.61 LIG 0.18  HD
ENDBRANCH 67 68
ENDBRANCH 66 67
ENDBRANCH 65 66
ENDBRANCH 60 65
ENDBRANCH 57 60
ENDBRANCH 43 56
ENDBRANCH 1 43
TORSDOF 29
ENDMDL
MODEL 16
USER: ADFR SOLUTION from run 44
USER: SCORE 20.912633 LL:  -6.487 LR: -15.705 RR:   0.000 FEB:  -7.054
USER: RMSD 10.577742
USER: SEED 43
USER: STATUS searching
USER: GENES 31
USER: genes 0 Translation |==|  0.74862 0.54125 0.35711
USER: genes 1 Rotation |==|  0.26434 0.61741 0.87909 0.69227
USER: genes 2 Torsion [C]-N--CA-[CB] |==|  0.82947
USER: genes 3 Torsion [N]-CA--CB-[CG] |==|  0.86726
USER: genes 4 Torsion [CA]-CB--CG-[CD] |==|  0.24174
USER: genes 5 Torsion [CB]-CG--CD-[OE2] |==|  0.68257
USER: genes 6 Torsion [N]-CA--C-[N] |==|  0.08138
USER: genes 7 Torsion [C]-N--CA-[CB] |==|  0.85000
USER: genes 8 Torsion [N]-CA--CB-[CG2] |==|  0.49275
USER: genes 9 Torsion [CA]-CB--OG1-[HG1] |==|  0.49134
USER: genes 10 Torsion [N]-CA--C-[N] |==|  0.38468
USER: genes 11 Torsion [C]-N--CA-[C] |==|  0.76309
USER: genes 12 Torsion [N]-CA--C-[N] |==|  0.40162
USER: genes 13 Torsion [C]-N--CA-[CB] |==|  0.21704
USER: genes 14 Torsion [N]-CA--CB-[CG2] |==|  0.52060
USER: genes 15 Torsion [N]-CA--C-[OXT] |==|  0.44955
USER: genes 16 Torsion [N]-CA--CB-[CG] |==|  0.79573
USER: genes 17 Torsion [CA]-CB--CG-[CD] |==|  0.18617
USER: genes 18 Torsion [CB]-CG--CD-[OE1] |==|  0.15687
USER: genes 19 Torsion [N]-C--CA-[N] |==|  0.13496
USER: genes 20 Torsion [C]-CA--CB-[CG] |==|  0.18546
USER: genes 21 Torsion [CA]-CB--CG-[CD] |==|  0.20340
USER: genes 22 Torsion [CB]-CG--CD-[NE] |==|  0.70942
USER: genes 23 Torsion [CG]-CD--NE-[HE] |==|  0.19287
USER: genes 24 Torsion [C]-CA--N-[C] |==|  0.15469
USER: genes 25 Torsion [N]-C--CA-[N] |==|  0.26925
USER: genes 26 Torsion [C]-CA--N-[H2] |==|  0.58597
USER: genes 27 Torsion [C]-CA--CB-[CG] |==|  0.63915
USER: genes 28 Torsion [CA]-CB--CG-[CD] |==|  0.74021
USER: genes 29 Torsion [CB]-CG--CD-[NE] |==|  0.44514
USER: genes 30 Torsion [CG]-CD--NE-[CZ] |==|  0.36518
ROOT
ATOM      1  C   ARG C   2      31.209  20.544  23.063  1.00 17.64 LIG 0.24  C 
ATOM      2 O    ARG C   2      30.999  19.351  22.824  1.00 18.48 LIG-0.27  OA
ATOM      3  N   GLU C   3      30.543  21.522  22.458  1.00 16.82 LIG-0.35  N 
ATOM      4 H    GLU C   3      30.668  22.359  22.611  1.00 16.82 LIG 0.16  HD
ENDROOT
BRANCH 3 5
ATOM      5  CA  GLU C   3      29.518  21.232  21.460  1.00 17.00 LIG 0.18  C 
BRANCH 5 6
ATOM      6  CB  GLU C   3      30.128  20.484  20.264  1.00 16.91 LIG 0.04  C 
BRANCH 6 7
ATOM      7  CG  GLU C   3      31.413  21.129  19.743  1.00 19.77 LIG 0.12  C 
BRANCH 7 8
ATOM      8  CD  GLU C   3      32.655  20.642  20.467  1.00 23.53 LIG 0.17  C 
ATOM      9 OE2  GLU C   3      33.298  21.454  21.160  1.00 22.35 LIG-0.65  OA
ATOM     10 OE1  GLU C   3      32.985  19.449  20.339  1.00 28.80 LIG-0.65  OA
ENDBRANCH 7 8
ENDBRANCH 6 7
ENDBRANCH 5 6
BRANCH 5 11
ATOM     11  C   GLU C   3      28.438  20.382  22.112  1.00 16.25 LIG 0.24  C 
ATOM     12  N   THR C   4      28.238  20.548  23.423  1.00 14.90 LIG-0.34  N 
ATOM     13 H    THR C   4      28.653  21.129  23.902  1.00 14.90 LIG 0.16  HD
ATOM     14 O    GLU C   3      27.797  19.580  21.428  1.00 19.18 LIG-0.27  OA
BRANCH 12 15
ATOM     15  CA  THR C   4      27.278  19.734  24.160  1.00 14.85 LIG 0.20  C 
BRANCH 15 16
ATOM     16  CB  THR C   4      25.899  19.799  23.499  1.00 16.75 LIG 0.15  C 
ATOM     17  CG2 THR C   4      24.910  18.899  24.231  1.00 16.70 LIG 0.04  C 
BRANCH 16 18
ATOM     18 OG1  THR C   4      25.435  21.153  23.516  1.00 17.36 LIG-0.39  OA
ATOM     19 HG1  THR C   4      24.698  21.201  23.117  1.00 17.36 LIG 0.21  HD
ENDBRANCH 16 18
ENDBRANCH 15 16
BRANCH 15 20
ATOM     20  C   THR C   4      27.743  18.286  24.209  1.00 14.69 LIG 0.24  C 
ATOM     21  N   GLN C   5      27.588  17.651  25.369  1.00 15.36 LIG-0.35  N 
ATOM     22 H    GLN C   5      27.359  18.037  26.102  1.00 15.36 LIG 0.16  HD
ATOM     23 O    THR C   4      28.227  17.752  23.206  1.00 15.54 LIG-0.27  OA
BRANCH 21 24
ATOM     24  CA  GLN C   5      27.801  16.216  25.483  1.00 16.48 LIG 0.18  C 
BRANCH 24 25
ATOM     25  C   GLN C   5      26.529  15.476  25.099  1.00 17.30 LIG 0.24  C 
ATOM     26 O    GLN C   5      25.419  15.932  25.406  1.00 19.53 LIG-0.27  OA
ATOM     27  N   VAL C   6      26.688  14.320  24.462  1.00 16.49 LIG-0.34  N 
ATOM     28 H    VAL C   6      27.454  13.998  24.240  1.00 16.49 LIG 0.16  HD
BRANCH 27 29
ATOM     29  CA  VAL C   6      25.553  13.485  24.078  1.00 18.07 LIG 0.19  C 
BRANCH 29 30
ATOM     30  CB  VAL C   6      24.849  14.023  22.817  1.00 20.19 LIG 0.01  C 
ATOM     31  CG1 VAL C   6      25.771  13.961  21.614  1.00 23.48 LIG 0.01  C 
ATOM     32  CG2 VAL C   6      23.569  13.244  22.546  1.00 21.65 LIG 0.01  C 
ENDBRANCH 29 30
BRANCH 29 33
ATOM     33  C   VAL C   6      25.975  12.037  23.865  1.00 18.86 LIG 0.20  C 
ATOM     34 O    VAL C   6      27.169  11.739  23.668  1.00 20.67 LIG-0.65  OA
ATOM     35 OXT  VAL C   6      25.116  11.139  23.871  1.00 19.38 LIG-0.65  OA
ENDBRANCH 29 33
ENDBRANCH 27 29
ENDBRANCH 24 25
BRANCH 24 36
ATOM     36  CB  GLN C   5      28.167  15.856  26.923  1.00 21.66 LIG 0.04  C 
BRANCH 36 37
ATOM     37  CG  GLN C   5      29.571  16.246  27.348  1.00 28.10 LIG 0.10  C 
BRANCH 37 38
ATOM     38  CD  GLN C   5      29.762  17.756  27.412  1.00 33.44 LIG 0.21  C 
ATOM     39  NE2 GLN C   5      30.747  18.261  26.678  1.00 35.38 LIG-0.37  N 
ATOM     40 21HE GLN C   5      31.237  17.741  26.198  1.00 35.38 LIG 0.16  HD
ATOM     41 22HE GLN C   5      30.895  19.108  26.682  1.00 35.38 LIG 0.16  HD
ATOM     42 OE1  GLN C   5      29.031  18.455  28.115  1.00 34.39 LIG-0.27  OA
ENDBRANCH 37 38
ENDBRANCH 36 37
ENDBRANCH 24 36
ENDBRANCH 21 24
ENDBRANCH 15 20
ENDBRANCH 12 15
ENDBRANCH 5 11
ENDBRANCH 3 5
BRANCH 1 43
ATOM     43  CA  ARG C   2      32.288  20.960  24.058  1.00 18.81 LIG 0.18  C 
BRANCH 43 44
ATOM     44  CB  ARG C   2      32.765  19.739  24.839  1.00 19.04 LIG 0.04  C 
BRANCH 44 45
ATOM     45  CG  ARG C   2      33.497  18.738  23.970  1.00 18.27 LIG 0.02  C 
BRANCH 45 46
ATOM     46  CD  ARG C   2      34.872  19.260  23.608  1.00 20.59 LIG 0.14  C 
BRANCH 46 47
ATOM     47  NE  ARG C   2      34.909  19.723  22.224  1.00 21.96 LIG-0.23  N 
ATOM     48 HE   ARG C   2      34.470  20.437  22.028  1.00 21.96 LIG 0.18  HD
ATOM     49  CZ  ARG C   2      35.575  19.115  21.248  1.00 22.93 LIG 0.67  C 
ATOM     50  NH2 ARG C   2      35.553  19.612  20.022  1.00 24.61 LIG-0.23  N 
ATOM     51  NH1 ARG C   2      36.260  18.008  21.500  1.00 22.65 LIG-0.23  N 
ATOM     52 1HH2 ARG C   2      35.108  20.330  19.857  1.00 24.61 LIG 0.17  HD
ATOM     53 2HH2 ARG C   2      35.984  19.218  19.390  1.00 24.61 LIG 0.17  HD
ATOM     54 1HH1 ARG C   2      36.274  17.683  22.296  1.00 22.65 LIG 0.17  HD
ATOM     55 2HH1 ARG C   2      36.691  17.616  20.867  1.00 22.65 LIG 0.17  HD
ENDBRANCH 46 47
ENDBRANCH 45 46
ENDBRANCH 44 45
ENDBRANCH 43 44
BRANCH 43 56
ATOM     56  N   ARG C   2      31.761  21.963  24.977  1.00 21.07 LIG-0.35  N 
ATOM     57  C   ARG C   1      30.667  21.721  25.695  1.00 27.96 LIG 0.25  C 
ATOM     58 O    ARG C   1      30.018  20.681  25.597  1.00 30.47 LIG-0.27  OA
ATOM     59 H    ARG C   2      32.210  22.696  25.007  1.00 21.07 LIG 0.16  HD
BRANCH 57 60
ATOM     60  CA  ARG C   1      30.236  22.807  26.673  1.00 31.07 LIG 0.27  C 
BRANCH 60 61
ATOM     61  N   ARG C   1      29.199  23.656  26.089  1.00 32.37 LIG-0.07  N 
ATOM     62 H2   ARG C   1      29.270  24.480  26.418  1.00 32.37 LIG 0.28  HD
ATOM     63 H1   ARG C   1      28.397  23.326  26.287  1.00 32.37 LIG 0.28  HD
ATOM     64 H3   ARG C   1      29.299  23.681  25.205  1.00 32.37 LIG 0.28  HD
ENDBRANCH 60 61
BRANCH 60 65
ATOM     65  CB  ARG C   1      29.748  22.153  27.967  1.00 35.21 LIG 0.04  C 
BRANCH 65 66
ATOM     66  CG  ARG C   1      28.387  22.668  28.426  1.00 38.18 LIG 0.02  C 
BRANCH 66 67
ATOM     67  CD  ARG C   1      28.511  23.817  29.416  1.00 40.83 LIG 0.14  C 
BRANCH 67 68
ATOM     68  NE  ARG C   1      27.281  24.598  29.499  1.00 41.61 LIG-0.23  N 
ATOM     69  CZ  ARG C   1      26.691  24.943  30.639  1.00 42.69 LIG 0.67  C 
ATOM     70  NH1 ARG C   1      27.216  24.572  31.801  1.00 43.45 LIG-0.23  N 
ATOM     71  NH2 ARG C   1      25.575  25.660  30.617  1.00 42.77 LIG-0.23  N 
ATOM     72 1HH1 ARG C   1      27.940  24.108  31.817  1.00 43.45 LIG 0.17  HD
ATOM     73 2HH1 ARG C   1      26.832  24.795  32.538  1.00 43.45 LIG 0.17  HD
ATOM     74 1HH2 ARG C   1      25.234  25.903  29.865  1.00 42.77 LIG 0.17  HD
ATOM     75 2HH2 ARG C   1      25.192  25.884  31.354  1.00 42.77 LIG 0.17  HD
ATOM     76 HE   ARG C   1      26.915  24.851  28.763  1.00 41.61 LIG 0.18  HD
ENDBRANCH 67 68
ENDBRANCH 66 67
ENDBRANCH 65 66
ENDBRANCH 60 65
ENDBRANCH 57 60
ENDBRANCH 43 56
ENDBRANCH 1 43
TORSDOF 29
ENDMDL
MODEL 17
USER: ADFR SOLUTION from run 6
USER: SCORE 18.156730 LL:  -4.237 LR: -15.685 RR:   0.000 FEB:  -7.034
USER: RMSD 7.742733
USER: SEED 523692
USER: STATUS searching
USER: GENES 31
USER: genes 0 Translation |==|  0.56705 0.54851 0.42578
USER: genes 1 Rotation |==|  0.62450 0.64601 0.31878 0.92466
USER: genes 2 Torsion [C]-N--CA-[CB] |==|  0.86876
USER: genes 3 Torsion [N]-CA--CB-[CG] |==|  0.59627
USER: genes 4 Torsion [CA]-CB--CG-[CD] |==|  0.65465
USER: genes 5 Torsion [CB]-CG--CD-[OE2] |==|  0.15982
USER: genes 6 Torsion [N]-CA--C-[N] |==|  0.78339
USER: genes 7 Torsion [C]-N--CA-[CB] |==|  0.78807
USER: genes 8 Torsion [N]-CA--CB-[CG2] |==|  0.53164
USER: genes 9 Torsion [CA]-CB--OG1-[HG1] |==|  0.87897
USER: genes 10 Torsion [N]-CA--C-[N] |==|  0.25480
USER: genes 11 Torsion [C]-N--CA-[C] |==|  0.17778
USER: genes 12 Torsion [N]-CA--C-[N] |==|  0.12551
USER: genes 13 Torsion [C]-N--CA-[CB] |==|  0.45148
USER: genes 14 Torsion [N]-CA--CB-[CG2] |==|  0.62121
USER: genes 15 Torsion [N]-CA--C-[OXT] |==|  0.94799
USER: genes 16 Torsion [N]-CA--CB-[CG] |==|  0.71509
USER: genes 17 Torsion [CA]-CB--CG-[CD] |==|  0.68552
USER: genes 18 Torsion [CB]-CG--CD-[OE1] |==|  0.91490
USER: genes 19 Torsion [N]-C--CA-[N] |==|  0.97974
USER: genes 20 Torsion [C]-CA--CB-[CG] |==|  0.39052
USER: genes 21 Torsion [CA]-CB--CG-[CD] |==|  0.70842
USER: genes 22 Torsion [CB]-CG--CD-[NE] |==|  0.84774
USER: genes 23 Torsion [CG]-CD--NE-[HE] |==|  0.32019
USER: genes 24 Torsion [C]-CA--N-[C] |==|  0.63957
USER: genes 25 Torsion [N]-C--CA-[N] |==|  0.12410
USER: genes 26 Torsion [C]-CA--N-[H2] |==|  0.40642
USER: genes 27 Torsion [C]-CA--CB-[CG] |==|  0.44316
USER: genes 28 Torsion [CA]-CB--CG-[CD] |==|  0.58159
USER: genes 29 Torsion [CB]-CG--CD-[NE] |==|  0.36140
USER: genes 30 Torsion [CG]-CD--NE-[CZ] |==|  0.54303
ROOT
ATOM      1  C   ARG C   2      26.171  20.713  24.350  1.00 17.64 LIG 0.24  C 
ATOM      2 O    ARG C   2      26.478  21.869  24.045  1.00 18.48 LIG-0.27  OA
ATOM      3  N   GLU C   3      26.994  19.685  24.176  1.00 16.82 LIG-0.35  N 
ATOM      4 H    GLU C   3      26.804  18.872  24.384  1.00 16.82 LIG 0.16  HD
ENDROOT
BRANCH 3 5
ATOM      5  CA  GLU C   3      28.321  19.871  23.599  1.00 17.00 LIG 0.18  C 
BRANCH 5 6
ATOM      6  CB  GLU C   3      28.243  20.744  22.337  1.00 16.91 LIG 0.04  C 
BRANCH 6 7
ATOM      7  CG  GLU C   3      29.255  20.342  21.264  1.00 19.77 LIG 0.12  C 
BRANCH 7 8
ATOM      8  CD  GLU C   3      30.151  21.490  20.836  1.00 23.53 LIG 0.17  C 
ATOM      9 OE2  GLU C   3      30.833  22.069  21.703  1.00 22.35 LIG-0.65  OA
ATOM     10 OE1  GLU C   3      30.168  21.812  19.634  1.00 28.80 LIG-0.65  OA
ENDBRANCH 7 8
ENDBRANCH 6 7
ENDBRANCH 5 6
BRANCH 5 11
ATOM     11  C   GLU C   3      29.210  20.536  24.640  1.00 16.25 LIG 0.24  C 
ATOM     12  N   THR C   4      29.059  21.850  24.822  1.00 14.90 LIG-0.34  N 
ATOM     13 H    THR C   4      28.467  22.326  24.419  1.00 14.90 LIG 0.16  HD
ATOM     14 O    GLU C   3      30.029  19.858  25.265  1.00 19.18 LIG-0.27  OA
BRANCH 12 15
ATOM     15  CA  THR C   4      29.908  22.598  25.742  1.00 14.85 LIG 0.20  C 
BRANCH 15 16
ATOM     16  CB  THR C   4      29.487  22.343  27.191  1.00 16.75 LIG 0.15  C 
ATOM     17  CG2 THR C   4      30.176  23.325  28.132  1.00 16.70 LIG 0.04  C 
BRANCH 16 18
ATOM     18 OG1  THR C   4      28.066  22.477  27.296  1.00 17.36 LIG-0.39  OA
ATOM     19 HG1  THR C   4      27.816  23.155  26.867  1.00 17.36 LIG 0.21  HD
ENDBRANCH 16 18
ENDBRANCH 15 16
BRANCH 15 20
ATOM     20  C   THR C   4      31.364  22.192  25.564  1.00 14.69 LIG 0.24  C 
ATOM     21  N   GLN C   5      32.080  22.908  24.701  1.00 15.36 LIG-0.35  N 
ATOM     22 H    GLN C   5      31.746  23.492  24.165  1.00 15.36 LIG 0.16  HD
ATOM     23 O    THR C   4      31.831  21.247  26.209  1.00 15.54 LIG-0.27  OA
BRANCH 21 24
ATOM     24  CA  GLN C   5      33.523  22.751  24.597  1.00 16.48 LIG 0.18  C 
BRANCH 24 25
ATOM     25  C   GLN C   5      33.853  21.346  24.117  1.00 17.30 LIG 0.24  C 
ATOM     26 O    GLN C   5      34.769  20.700  24.642  1.00 19.53 LIG-0.27  OA
ATOM     27  N   VAL C   6      33.132  20.886  23.098  1.00 16.49 LIG-0.34  N 
ATOM     28 H    VAL C   6      32.490  21.325  22.730  1.00 16.49 LIG 0.16  HD
BRANCH 27 29
ATOM     29  CA  VAL C   6      33.375  19.572  22.508  1.00 18.07 LIG 0.19  C 
BRANCH 29 30
ATOM     30  CB  VAL C   6      32.177  19.096  21.665  1.00 20.19 LIG 0.01  C 
ATOM     31  CG1 VAL C   6      32.434  19.312  20.186  1.00 23.48 LIG 0.01  C 
ATOM     32  CG2 VAL C   6      31.877  17.629  21.944  1.00 21.65 LIG 0.01  C 
ENDBRANCH 29 30
BRANCH 29 33
ATOM     33  C   VAL C   6      34.644  19.568  21.665  1.00 18.86 LIG 0.20  C 
ATOM     34 O    VAL C   6      35.221  18.501  21.381  1.00 20.67 LIG-0.65  OA
ATOM     35 OXT  VAL C   6      35.122  20.645  21.268  1.00 19.38 LIG-0.65  OA
ENDBRANCH 29 33
ENDBRANCH 27 29
ENDBRANCH 24 25
BRANCH 24 36
ATOM     36  CB  GLN C   5      34.172  22.971  25.963  1.00 21.66 LIG 0.04  C 
BRANCH 36 37
ATOM     37  CG  GLN C   5      34.838  24.323  26.150  1.00 28.10 LIG 0.10  C 
BRANCH 37 38
ATOM     38  CD  GLN C   5      36.351  24.212  26.289  1.00 33.44 LIG 0.21  C 
ATOM     39  NE2 GLN C   5      37.064  25.238  25.838  1.00 35.38 LIG-0.37  N 
ATOM     40 21HE GLN C   5      36.668  25.919  25.492  1.00 35.38 LIG 0.16  HD
ATOM     41 22HE GLN C   5      37.922  25.222  25.893  1.00 35.38 LIG 0.16  HD
ATOM     42 OE1  GLN C   5      36.867  23.214  26.793  1.00 34.39 LIG-0.27  OA
ENDBRANCH 37 38
ENDBRANCH 36 37
ENDBRANCH 24 36
ENDBRANCH 21 24
ENDBRANCH 15 20
ENDBRANCH 12 15
ENDBRANCH 5 11
ENDBRANCH 3 5
BRANCH 1 43
ATOM     43  CA  ARG C   2      24.790  20.400  24.921  1.00 18.81 LIG 0.18  C 
BRANCH 43 44
ATOM     44  CB  ARG C   2      24.655  21.021  26.308  1.00 19.04 LIG 0.04  C 
BRANCH 44 45
ATOM     45  CG  ARG C   2      23.283  21.611  26.555  1.00 18.27 LIG 0.02  C 
BRANCH 45 46
ATOM     46  CD  ARG C   2      23.336  23.123  26.479  1.00 20.59 LIG 0.14  C 
BRANCH 46 47
ATOM     47  NE  ARG C   2      24.341  23.658  27.392  1.00 21.96 LIG-0.23  N 
ATOM     48 HE   ARG C   2      25.018  24.065  27.051  1.00 21.96 LIG 0.18  HD
ATOM     49  CZ  ARG C   2      24.278  23.558  28.717  1.00 22.93 LIG 0.67  C 
ATOM     50  NH2 ARG C   2      25.236  24.079  29.466  1.00 24.61 LIG-0.23  N 
ATOM     51  NH1 ARG C   2      23.257  22.934  29.288  1.00 22.65 LIG-0.23  N 
ATOM     52 1HH2 ARG C   2      25.899  24.483  29.097  1.00 24.61 LIG 0.17  HD
ATOM     53 2HH2 ARG C   2      25.195  24.014  30.323  1.00 24.61 LIG 0.17  HD
ATOM     54 1HH1 ARG C   2      22.635  22.593  28.803  1.00 22.65 LIG 0.17  HD
ATOM     55 2HH1 ARG C   2      23.218  22.870  30.145  1.00 22.65 LIG 0.17  HD
ENDBRANCH 46 47
ENDBRANCH 45 46
ENDBRANCH 44 45
ENDBRANCH 43 44
BRANCH 43 56
ATOM     56  N   ARG C   2      24.600  18.956  25.003  1.00 21.07 LIG-0.35  N 
ATOM     57  C   ARG C   1      23.507  18.383  24.506  1.00 27.96 LIG 0.25  C 
ATOM     58 O    ARG C   1      22.586  19.023  23.999  1.00 30.47 LIG-0.27  OA
ATOM     59 H    ARG C   2      25.239  18.529  25.390  1.00 21.07 LIG 0.16  HD
BRANCH 57 60
ATOM     60  CA  ARG C   1      23.433  16.863  24.583  1.00 31.07 LIG 0.27  C 
BRANCH 60 61
ATOM     61  N   ARG C   1      23.854  16.385  25.899  1.00 32.37 LIG-0.07  N 
ATOM     62 H2   ARG C   1      23.387  15.658  26.114  1.00 32.37 LIG 0.28  HD
ATOM     63 H1   ARG C   1      23.710  17.020  26.506  1.00 32.37 LIG 0.28  HD
ATOM     64 H3   ARG C   1      24.721  16.185  25.880  1.00 32.37 LIG 0.28  HD
ENDBRANCH 60 61
BRANCH 60 65
ATOM     65  CB  ARG C   1      22.008  16.411  24.261  1.00 35.21 LIG 0.04  C 
BRANCH 65 66
ATOM     66  CG  ARG C   1      21.923  14.951  23.826  1.00 38.18 LIG 0.02  C 
BRANCH 66 67
ATOM     67  CD  ARG C   1      20.764  14.701  22.873  1.00 40.83 LIG 0.14  C 
BRANCH 67 68
ATOM     68  NE  ARG C   1      21.187  13.973  21.682  1.00 41.61 LIG-0.23  N 
ATOM     69  CZ  ARG C   1      20.466  13.879  20.569  1.00 42.69 LIG 0.67  C 
ATOM     70  NH1 ARG C   1      19.277  14.467  20.492  1.00 43.45 LIG-0.23  N 
ATOM     71  NH2 ARG C   1      20.935  13.198  19.531  1.00 42.77 LIG-0.23  N 
ATOM     72 1HH1 ARG C   1      18.973  14.910  21.163  1.00 43.45 LIG 0.17  HD
ATOM     73 2HH1 ARG C   1      18.813  14.405  19.771  1.00 43.45 LIG 0.17  HD
ATOM     74 1HH2 ARG C   1      21.705  12.817  19.579  1.00 42.77 LIG 0.17  HD
ATOM     75 2HH2 ARG C   1      20.469  13.137  18.810  1.00 42.77 LIG 0.17  HD
ATOM     76 HE   ARG C   1      21.951  13.579  21.701  1.00 41.61 LIG 0.18  HD
ENDBRANCH 67 68
ENDBRANCH 66 67
ENDBRANCH 65 66
ENDBRANCH 60 65
ENDBRANCH 57 60
ENDBRANCH 43 56
ENDBRANCH 1 43
TORSDOF 29
ENDMDL
MODEL 18
USER: ADFR SOLUTION from run 115
USER: SCORE 18.514996 LL:  -7.035 LR: -15.560 RR:   0.000 FEB:  -6.909
USER: RMSD 9.448371
USER: SEED 114
USER: STATUS no improvement in best in 10 clusters for 5 generations
USER: GENES 31
USER: genes 0 Translation |==|  0.67200 0.56850 0.41610
USER: genes 1 Rotation |==|  0.14285 0.69898 0.63418 0.75464
USER: genes 2 Torsion [C]-N--CA-[CB] |==|  0.52778
USER: genes 3 Torsion [N]-CA--CB-[CG] |==|  0.18704
USER: genes 4 Torsion [CA]-CB--CG-[CD] |==|  0.76450
USER: genes 5 Torsion [CB]-CG--CD-[OE2] |==|  0.97087
USER: genes 6 Torsion [N]-CA--C-[N] |==|  0.91810
USER: genes 7 Torsion [C]-N--CA-[CB] |==|  0.42717
USER: genes 8 Torsion [N]-CA--CB-[CG2] |==|  0.60532
USER: genes 9 Torsion [CA]-CB--OG1-[HG1] |==|  0.91850
USER: genes 10 Torsion [N]-CA--C-[N] |==|  0.14845
USER: genes 11 Torsion [C]-N--CA-[C] |==|  0.75722
USER: genes 12 Torsion [N]-CA--C-[N] |==|  0.20707
USER: genes 13 Torsion [C]-N--CA-[CB] |==|  0.36861
USER: genes 14 Torsion [N]-CA--CB-[CG2] |==|  0.04435
USER: genes 15 Torsion [N]-CA--C-[OXT] |==|  0.34443
USER: genes 16 Torsion [N]-CA--CB-[CG] |==|  0.84368
USER: genes 17 Torsion [CA]-CB--CG-[CD] |==|  0.37962
USER: genes 18 Torsion [CB]-CG--CD-[OE1] |==|  0.58072
USER: genes 19 Torsion [N]-C--CA-[N] |==|  0.34723
USER: genes 20 Torsion [C]-CA--CB-[CG] |==|  0.14323
USER: genes 21 Torsion [CA]-CB--CG-[CD] |==|  0.15060
USER: genes 22 Torsion [CB]-CG--CD-[NE] |==|  0.13102
USER: genes 23 Torsion [CG]-CD--NE-[HE] |==|  0.15557
USER: genes 24 Torsion [C]-CA--N-[C] |==|  0.20709
USER: genes 25 Torsion [N]-C--CA-[N] |==|  0.89644
USER: genes 26 Torsion [C]-CA--N-[H2] |==|  0.71882
USER: genes 27 Torsion [C]-CA--CB-[CG] |==|  0.32629
USER: genes 28 Torsion [CA]-CB--CG-[CD] |==|  0.46555
USER: genes 29 Torsion [CB]-CG--CD-[NE] |==|  0.24966
USER: genes 30 Torsion [CG]-CD--NE-[CZ] |==|  0.36749
ROOT
ATOM      1  C   ARG C   2      29.083  21.178  24.169  1.00 17.64 LIG 0.24  C 
ATOM      2 O    ARG C   2      28.236  20.279  24.133  1.00 18.48 LIG-0.27  OA
ATOM      3  N   GLU C   3      29.711  21.612  23.081  1.00 16.82 LIG-0.35  N 
ATOM      4 H    GLU C   3      30.301  22.238  23.080  1.00 16.82 LIG 0.16  HD
ENDROOT
BRANCH 3 5
ATOM      5  CA  GLU C   3      29.433  21.036  21.770  1.00 17.00 LIG 0.18  C 
BRANCH 5 6
ATOM      6  CB  GLU C   3      30.456  21.532  20.736  1.00 16.91 LIG 0.04  C 
BRANCH 6 7
ATOM      7  CG  GLU C   3      31.871  21.015  20.993  1.00 19.77 LIG 0.12  C 
BRANCH 7 8
ATOM      8  CD  GLU C   3      32.640  21.864  21.989  1.00 23.53 LIG 0.17  C 
ATOM      9 OE2  GLU C   3      32.159  22.961  22.333  1.00 22.35 LIG-0.65  OA
ATOM     10 OE1  GLU C   3      33.724  21.432  22.423  1.00 28.80 LIG-0.65  OA
ENDBRANCH 7 8
ENDBRANCH 6 7
ENDBRANCH 5 6
BRANCH 5 11
ATOM     11  C   GLU C   3      29.499  19.520  21.885  1.00 16.25 LIG 0.24  C 
ATOM     12  N   THR C   4      30.319  19.013  22.810  1.00 14.90 LIG-0.34  N 
ATOM     13 H    THR C   4      30.772  19.491  23.363  1.00 14.90 LIG 0.16  HD
ATOM     14 O    GLU C   3      28.816  18.821  21.134  1.00 19.18 LIG-0.27  OA
BRANCH 12 15
ATOM     15  CA  THR C   4      30.513  17.575  22.957  1.00 14.85 LIG 0.20  C 
BRANCH 15 16
ATOM     16  CB  THR C   4      31.885  17.276  23.565  1.00 16.75 LIG 0.15  C 
ATOM     17  CG2 THR C   4      32.496  16.033  22.927  1.00 16.70 LIG 0.04  C 
BRANCH 16 18
ATOM     18 OG1  THR C   4      32.743  18.404  23.361  1.00 17.36 LIG-0.39  OA
ATOM     19 HG1  THR C   4      32.516  18.805  22.659  1.00 17.36 LIG 0.21  HD
ENDBRANCH 16 18
ENDBRANCH 15 16
BRANCH 15 20
ATOM     20  C   THR C   4      29.430  16.986  23.849  1.00 14.69 LIG 0.24  C 
ATOM     21  N   GLN C   5      28.170  17.248  23.508  1.00 15.36 LIG-0.35  N 
ATOM     22 H    GLN C   5      27.943  17.813  22.902  1.00 15.36 LIG 0.16  HD
ATOM     23 O    THR C   4      29.736  16.296  24.828  1.00 15.54 LIG-0.27  OA
BRANCH 21 24
ATOM     24  CA  GLN C   5      27.053  16.577  24.157  1.00 16.48 LIG 0.18  C 
BRANCH 24 25
ATOM     25  C   GLN C   5      26.752  15.271  23.438  1.00 17.30 LIG 0.24  C 
ATOM     26 O    GLN C   5      25.744  15.160  22.728  1.00 19.53 LIG-0.27  OA
ATOM     27  N   VAL C   6      27.605  14.272  23.648  1.00 16.49 LIG-0.34  N 
ATOM     28 H    VAL C   6      28.311  14.340  24.135  1.00 16.49 LIG 0.16  HD
BRANCH 27 29
ATOM     29  CA  VAL C   6      27.409  12.950  23.059  1.00 18.07 LIG 0.19  C 
BRANCH 29 30
ATOM     30  CB  VAL C   6      28.702  12.418  22.411  1.00 20.19 LIG 0.01  C 
ATOM     31  CG1 VAL C   6      28.608  12.462  20.898  1.00 23.48 LIG 0.01  C 
ATOM     32  CG2 VAL C   6      29.908  13.215  22.891  1.00 21.65 LIG 0.01  C 
ENDBRANCH 29 30
BRANCH 29 33
ATOM     33  C   VAL C   6      26.891  11.953  24.088  1.00 18.86 LIG 0.20  C 
ATOM     34 O    VAL C   6      27.521  11.732  25.140  1.00 20.67 LIG-0.65  OA
ATOM     35 OXT  VAL C   6      25.833  11.338  23.869  1.00 19.38 LIG-0.65  OA
ENDBRANCH 29 33
ENDBRANCH 27 29
ENDBRANCH 24 25
BRANCH 24 36
ATOM     36  CB  GLN C   5      25.811  17.466  24.106  1.00 21.66 LIG 0.04  C 
BRANCH 36 37
ATOM     37  CG  GLN C   5      25.981  18.847  24.713  1.00 28.10 LIG 0.10  C 
BRANCH 37 38
ATOM     38  CD  GLN C   5      25.353  19.940  23.858  1.00 33.44 LIG 0.21  C 
ATOM     39  NE2 GLN C   5      24.309  19.588  23.118  1.00 35.38 LIG-0.37  N 
ATOM     40 21HE GLN C   5      24.020  18.778  23.138  1.00 35.38 LIG 0.16  HD
ATOM     41 22HE GLN C   5      23.921  20.170  22.617  1.00 35.38 LIG 0.16  HD
ATOM     42 OE1  GLN C   5      25.807  21.085  23.866  1.00 34.39 LIG-0.27  OA
ENDBRANCH 37 38
ENDBRANCH 36 37
ENDBRANCH 24 36
ENDBRANCH 21 24
ENDBRANCH 15 20
ENDBRANCH 12 15
ENDBRANCH 5 11
ENDBRANCH 3 5
BRANCH 1 43
ATOM     43  CA  ARG C   2      29.481  21.820  25.495  1.00 18.81 LIG 0.18  C 
BRANCH 43 44
ATOM     44  CB  ARG C   2      30.153  20.780  26.387  1.00 19.04 LIG 0.04  C 
BRANCH 44 45
ATOM     45  CG  ARG C   2      31.280  20.049  25.689  1.00 18.27 LIG 0.02  C 
BRANCH 45 46
ATOM     46  CD  ARG C   2      32.281  21.038  25.127  1.00 20.59 LIG 0.14  C 
BRANCH 46 47
ATOM     47  NE  ARG C   2      32.630  22.051  26.118  1.00 21.96 LIG-0.23  N 
ATOM     48 HE   ARG C   2      32.938  21.783  26.875  1.00 21.96 LIG 0.18  HD
ATOM     49  CZ  ARG C   2      32.503  23.361  25.927  1.00 22.93 LIG 0.67  C 
ATOM     50  NH2 ARG C   2      32.851  24.206  26.884  1.00 24.61 LIG-0.23  N 
ATOM     51  NH1 ARG C   2      32.028  23.822  24.779  1.00 22.65 LIG-0.23  N 
ATOM     52 1HH2 ARG C   2      33.159  23.908  27.630  1.00 24.61 LIG 0.17  HD
ATOM     53 2HH2 ARG C   2      32.769  25.053  26.760  1.00 24.61 LIG 0.17  HD
ATOM     54 1HH1 ARG C   2      31.800  23.275  24.156  1.00 22.65 LIG 0.17  HD
ATOM     55 2HH1 ARG C   2      31.946  24.670  24.656  1.00 22.65 LIG 0.17  HD
ENDBRANCH 46 47
ENDBRANCH 45 46
ENDBRANCH 44 45
ENDBRANCH 43 44
BRANCH 43 56
ATOM     56  N   ARG C   2      28.302  22.360  26.162  1.00 21.07 LIG-0.35  N 
ATOM     57  C   ARG C   1      27.425  21.554  26.755  1.00 27.96 LIG 0.25  C 
ATOM     58 O    ARG C   1      27.524  20.328  26.739  1.00 30.47 LIG-0.27  OA
ATOM     59 H    ARG C   2      28.233  23.217  26.135  1.00 21.07 LIG 0.16  HD
BRANCH 57 60
ATOM     60  CA  ARG C   1      26.262  22.220  27.480  1.00 31.07 LIG 0.27  C 
BRANCH 60 61
ATOM     61  N   ARG C   1      26.695  23.450  28.143  1.00 32.37 LIG-0.07  N 
ATOM     62 H2   ARG C   1      26.809  23.295  29.012  1.00 32.37 LIG 0.28  HD
ATOM     63 H1   ARG C   1      26.076  24.081  28.032  1.00 32.37 LIG 0.28  HD
ATOM     64 H3   ARG C   1      27.463  23.725  27.787  1.00 32.37 LIG 0.28  HD
ENDBRANCH 60 61
BRANCH 60 65
ATOM     65  CB  ARG C   1      25.139  22.499  26.481  1.00 35.21 LIG 0.04  C 
BRANCH 65 66
ATOM     66  CG  ARG C   1      23.848  21.749  26.801  1.00 38.18 LIG 0.02  C 
BRANCH 66 67
ATOM     67  CD  ARG C   1      22.669  22.262  25.989  1.00 40.83 LIG 0.14  C 
BRANCH 67 68
ATOM     68  NE  ARG C   1      22.529  21.549  24.724  1.00 41.61 LIG-0.23  N 
ATOM     69  CZ  ARG C   1      21.382  21.053  24.269  1.00 42.69 LIG 0.67  C 
ATOM     70  NH1 ARG C   1      20.268  21.189  24.979  1.00 43.45 LIG-0.23  N 
ATOM     71  NH2 ARG C   1      21.350  20.423  23.102  1.00 42.77 LIG-0.23  N 
ATOM     72 1HH1 ARG C   1      20.287  21.598  25.734  1.00 43.45 LIG 0.17  HD
ATOM     73 2HH1 ARG C   1      19.527  20.867  24.683  1.00 43.45 LIG 0.17  HD
ATOM     74 1HH2 ARG C   1      22.071  20.335  22.640  1.00 42.77 LIG 0.17  HD
ATOM     75 2HH2 ARG C   1      20.608  20.101  22.806  1.00 42.77 LIG 0.17  HD
ATOM     76 HE   ARG C   1      23.233  21.442  24.242  1.00 41.61 LIG 0.18  HD
ENDBRANCH 67 68
ENDBRANCH 66 67
ENDBRANCH 65 66
ENDBRANCH 60 65
ENDBRANCH 57 60
ENDBRANCH 43 56
ENDBRANCH 1 43
TORSDOF 29
ENDMDL
MODEL 19
USER: ADFR SOLUTION from run 169
USER: SCORE 20.948287 LL:  -6.679 LR: -15.516 RR:   0.000 FEB:  -6.865
USER: RMSD 9.295691
USER: SEED 168
USER: STATUS searching
USER: GENES 31
USER: genes 0 Translation |==|  0.62478 0.53568 0.39727
USER: genes 1 Rotation |==|  0.07426 0.52532 0.59555 0.74284
USER: genes 2 Torsion [C]-N--CA-[CB] |==|  0.48333
USER: genes 3 Torsion [N]-CA--CB-[CG] |==|  0.36965
USER: genes 4 Torsion [CA]-CB--CG-[CD] |==|  0.73094
USER: genes 5 Torsion [CB]-CG--CD-[OE2] |==|  0.89477
USER: genes 6 Torsion [N]-CA--C-[N] |==|  0.39515
USER: genes 7 Torsion [C]-N--CA-[CB] |==|  0.87643
USER: genes 8 Torsion [N]-CA--CB-[CG2] |==|  0.47750
USER: genes 9 Torsion [CA]-CB--OG1-[HG1] |==|  0.31685
USER: genes 10 Torsion [N]-CA--C-[N] |==|  0.89390
USER: genes 11 Torsion [C]-N--CA-[C] |==|  0.81241
USER: genes 12 Torsion [N]-CA--C-[N] |==|  0.35193
USER: genes 13 Torsion [C]-N--CA-[CB] |==|  0.15432
USER: genes 14 Torsion [N]-CA--CB-[CG2] |==|  0.60064
USER: genes 15 Torsion [N]-CA--C-[OXT] |==|  0.97206
USER: genes 16 Torsion [N]-CA--CB-[CG] |==|  0.42928
USER: genes 17 Torsion [CA]-CB--CG-[CD] |==|  0.65890
USER: genes 18 Torsion [CB]-CG--CD-[OE1] |==|  0.79253
USER: genes 19 Torsion [N]-C--CA-[N] |==|  0.88772
USER: genes 20 Torsion [C]-CA--CB-[CG] |==|  0.25873
USER: genes 21 Torsion [CA]-CB--CG-[CD] |==|  0.29617
USER: genes 22 Torsion [CB]-CG--CD-[NE] |==|  0.90235
USER: genes 23 Torsion [CG]-CD--NE-[HE] |==|  0.81387
USER: genes 24 Torsion [C]-CA--N-[C] |==|  0.82342
USER: genes 25 Torsion [N]-C--CA-[N] |==|  0.89909
USER: genes 26 Torsion [C]-CA--N-[H2] |==|  0.50966
USER: genes 27 Torsion [C]-CA--CB-[CG] |==|  0.77930
USER: genes 28 Torsion [CA]-CB--CG-[CD] |==|  0.52096
USER: genes 29 Torsion [CB]-CG--CD-[NE] |==|  0.47455
USER: genes 30 Torsion [CG]-CD--NE-[CZ] |==|  0.56297
ROOT
ATOM      1  C   ARG C   2      27.773  20.415  23.816  1.00 17.64 LIG 0.24  C 
ATOM      2 O    ARG C   2      27.619  19.217  23.555  1.00 18.48 LIG-0.27  OA
ATOM      3  N   GLU C   3      28.550  21.210  23.090  1.00 16.82 LIG-0.35  N 
ATOM      4 H    GLU C   3      28.670  22.047  23.249  1.00 16.82 LIG 0.16  HD
ENDROOT
BRANCH 3 5
ATOM      5  CA  GLU C   3      29.280  20.701  21.933  1.00 17.00 LIG 0.18  C 
BRANCH 5 6
ATOM      6  CB  GLU C   3      29.979  21.849  21.188  1.00 16.91 LIG 0.04  C 
BRANCH 6 7
ATOM      7  CG  GLU C   3      31.436  21.542  20.842  1.00 19.77 LIG 0.12  C 
BRANCH 7 8
ATOM      8  CD  GLU C   3      32.417  22.114  21.848  1.00 23.53 LIG 0.17  C 
ATOM      9 OE2  GLU C   3      32.179  23.234  22.342  1.00 22.35 LIG-0.65  OA
ATOM     10 OE1  GLU C   3      33.424  21.444  22.141  1.00 28.80 LIG-0.65  OA
ENDBRANCH 7 8
ENDBRANCH 6 7
ENDBRANCH 5 6
BRANCH 5 11
ATOM     11  C   GLU C   3      30.307  19.689  22.418  1.00 16.25 LIG 0.24  C 
ATOM     12  N   THR C   4      30.513  18.613  21.653  1.00 14.90 LIG-0.34  N 
ATOM     13 H    THR C   4      30.132  18.484  20.893  1.00 14.90 LIG 0.16  HD
ATOM     14 O    GLU C   3      30.900  19.884  23.481  1.00 19.18 LIG-0.27  OA
BRANCH 12 15
ATOM     15  CA  THR C   4      31.422  17.547  22.060  1.00 14.85 LIG 0.20  C 
BRANCH 15 16
ATOM     16  CB  THR C   4      32.723  18.132  22.614  1.00 16.75 LIG 0.15  C 
ATOM     17  CG2 THR C   4      33.590  17.035  23.222  1.00 16.70 LIG 0.04  C 
BRANCH 16 18
ATOM     18 OG1  THR C   4      33.431  18.786  21.555  1.00 17.36 LIG-0.39  OA
ATOM     19 HG1  THR C   4      33.462  19.611  21.706  1.00 17.36 LIG 0.21  HD
ENDBRANCH 16 18
ENDBRANCH 15 16
BRANCH 15 20
ATOM     20  C   THR C   4      30.771  16.677  23.125  1.00 14.69 LIG 0.24  C 
ATOM     21  N   GLN C   5      30.022  17.304  24.030  1.00 15.36 LIG-0.35  N 
ATOM     22 H    GLN C   5      29.986  18.158  24.116  1.00 15.36 LIG 0.16  HD
ATOM     23 O    THR C   4      30.938  15.453  23.118  1.00 15.54 LIG-0.27  OA
BRANCH 21 24
ATOM     24  CA  GLN C   5      29.188  16.567  24.968  1.00 16.48 LIG 0.18  C 
BRANCH 24 25
ATOM     25  C   GLN C   5      28.058  15.879  24.217  1.00 17.30 LIG 0.24  C 
ATOM     26 O    GLN C   5      27.297  16.530  23.489  1.00 19.53 LIG-0.27  OA
ATOM     27  N   VAL C   6      27.925  14.572  24.421  1.00 16.49 LIG-0.34  N 
ATOM     28 H    VAL C   6      28.452  14.110  24.921  1.00 16.49 LIG 0.16  HD
BRANCH 27 29
ATOM     29  CA  VAL C   6      26.854  13.796  23.802  1.00 18.07 LIG 0.19  C 
BRANCH 29 30
ATOM     30  CB  VAL C   6      26.853  13.948  22.268  1.00 20.19 LIG 0.01  C 
ATOM     31  CG1 VAL C   6      27.655  12.840  21.614  1.00 23.48 LIG 0.01  C 
ATOM     32  CG2 VAL C   6      25.427  13.960  21.733  1.00 21.65 LIG 0.01  C 
ENDBRANCH 29 30
BRANCH 29 33
ATOM     33  C   VAL C   6      26.941  12.324  24.183  1.00 18.86 LIG 0.20  C 
ATOM     34 O    VAL C   6      26.009  11.539  23.925  1.00 20.67 LIG-0.65  OA
ATOM     35 OXT  VAL C   6      27.948  11.901  24.775  1.00 19.38 LIG-0.65  OA
ENDBRANCH 29 33
ENDBRANCH 27 29
ENDBRANCH 24 25
BRANCH 24 36
ATOM     36  CB  GLN C   5      28.587  17.525  25.995  1.00 21.66 LIG 0.04  C 
BRANCH 36 37
ATOM     37  CG  GLN C   5      27.286  17.062  26.626  1.00 28.10 LIG 0.10  C 
BRANCH 37 38
ATOM     38  CD  GLN C   5      26.153  18.061  26.426  1.00 33.44 LIG 0.21  C 
ATOM     39  NE2 GLN C   5      25.231  17.740  25.526  1.00 35.38 LIG-0.37  N 
ATOM     40 21HE GLN C   5      25.292  17.000  25.092  1.00 35.38 LIG 0.16  HD
ATOM     41 22HE GLN C   5      24.573  18.272  25.377  1.00 35.38 LIG 0.16  HD
ATOM     42 OE1  GLN C   5      26.114  19.107  27.074  1.00 34.39 LIG-0.27  OA
ENDBRANCH 37 38
ENDBRANCH 36 37
ENDBRANCH 24 36
ENDBRANCH 21 24
ENDBRANCH 15 20
ENDBRANCH 12 15
ENDBRANCH 5 11
ENDBRANCH 3 5
BRANCH 1 43
ATOM     43  CA  ARG C   2      27.091  21.041  25.029  1.00 18.81 LIG 0.18  C 
BRANCH 43 44
ATOM     44  CB  ARG C   2      25.850  21.809  24.581  1.00 19.04 LIG 0.04  C 
BRANCH 44 45
ATOM     45  CG  ARG C   2      24.590  20.972  24.642  1.00 18.27 LIG 0.02  C 
BRANCH 45 46
ATOM     46  CD  ARG C   2      23.725  21.406  25.808  1.00 20.59 LIG 0.14  C 
BRANCH 46 47
ATOM     47  NE  ARG C   2      24.545  21.814  26.945  1.00 21.96 LIG-0.23  N 
ATOM     48 HE   ARG C   2      25.010  21.209  27.342  1.00 21.96 LIG 0.18  HD
ATOM     49  CZ  ARG C   2      24.618  23.058  27.407  1.00 22.93 LIG 0.67  C 
ATOM     50  NH2 ARG C   2      25.394  23.335  28.443  1.00 24.61 LIG-0.23  N 
ATOM     51  NH1 ARG C   2      23.914  24.024  26.832  1.00 22.65 LIG-0.23  N 
ATOM     52 1HH2 ARG C   2      25.850  22.710  28.817  1.00 24.61 LIG 0.17  HD
ATOM     53 2HH2 ARG C   2      25.441  24.140  28.742  1.00 24.61 LIG 0.17  HD
ATOM     54 1HH1 ARG C   2      23.409  23.845  26.160  1.00 22.65 LIG 0.17  HD
ATOM     55 2HH1 ARG C   2      23.963  24.828  27.132  1.00 22.65 LIG 0.17  HD
ENDBRANCH 46 47
ENDBRANCH 45 46
ENDBRANCH 44 45
ENDBRANCH 43 44
BRANCH 43 56
ATOM     56  N   ARG C   2      28.013  21.941  25.711  1.00 21.07 LIG-0.35  N 
ATOM     57  C   ARG C   1      29.129  21.479  26.270  1.00 27.96 LIG 0.25  C 
ATOM     58 O    ARG C   1      29.425  20.285  26.288  1.00 30.47 LIG-0.27  OA
ATOM     59 H    ARG C   2      27.773  22.767  25.716  1.00 21.07 LIG 0.16  HD
BRANCH 57 60
ATOM     60  CA  ARG C   1      30.057  22.510  26.900  1.00 31.07 LIG 0.27  C 
BRANCH 60 61
ATOM     61  N   ARG C   1      30.068  23.749  26.123  1.00 32.37 LIG-0.07  N 
ATOM     62 H2   ARG C   1      30.653  24.317  26.479  1.00 32.37 LIG 0.28  HD
ATOM     63 H1   ARG C   1      29.256  24.113  26.134  1.00 32.37 LIG 0.28  HD
ATOM     64 H3   ARG C   1      30.302  23.571  25.283  1.00 32.37 LIG 0.28  HD
ENDBRANCH 60 61
BRANCH 60 65
ATOM     65  CB  ARG C   1      29.619  22.767  28.342  1.00 35.21 LIG 0.04  C 
BRANCH 65 66
ATOM     66  CG  ARG C   1      28.425  23.712  28.449  1.00 38.18 LIG 0.02  C 
BRANCH 66 67
ATOM     67  CD  ARG C   1      28.123  24.097  29.890  1.00 40.83 LIG 0.14  C 
BRANCH 67 68
ATOM     68  NE  ARG C   1      27.126  25.159  29.971  1.00 41.61 LIG-0.23  N 
ATOM     69  CZ  ARG C   1      26.986  25.974  31.012  1.00 42.69 LIG 0.67  C 
ATOM     70  NH1 ARG C   1      27.779  25.847  32.070  1.00 43.45 LIG-0.23  N 
ATOM     71  NH2 ARG C   1      26.053  26.917  30.994  1.00 42.77 LIG-0.23  N 
ATOM     72 1HH1 ARG C   1      28.386  25.238  32.082  1.00 43.45 LIG 0.17  HD
ATOM     73 2HH1 ARG C   1      27.686  26.375  32.743  1.00 43.45 LIG 0.17  HD
ATOM     74 1HH2 ARG C   1      25.539  27.001  30.309  1.00 42.77 LIG 0.17  HD
ATOM     75 2HH2 ARG C   1      25.961  27.444  31.668  1.00 42.77 LIG 0.17  HD
ATOM     76 HE   ARG C   1      26.596  25.265  29.302  1.00 41.61 LIG 0.18  HD
ENDBRANCH 67 68
ENDBRANCH 66 67
ENDBRANCH 65 66
ENDBRANCH 60 65
ENDBRANCH 57 60
ENDBRANCH 43 56
ENDBRANCH 1 43
TORSDOF 29
ENDMDL
MODEL 20
USER: ADFR SOLUTION from run 139
USER: SCORE 19.695016 LL:  -5.762 LR: -15.512 RR:   0.000 FEB:  -6.861
USER: RMSD 10.577048
USER: SEED 138
USER: STATUS searching
USER: GENES 31
USER: genes 0 Translation |==|  0.52722 0.56219 0.47195
USER: genes 1 Rotation |==|  0.38134 0.80100 0.19534 0.72914
USER: genes 2 Torsion [C]-N--CA-[CB] |==|  0.19175
USER: genes 3 Torsion [N]-CA--CB-[CG] |==|  0.13165
USER: genes 4 Torsion [CA]-CB--CG-[CD] |==|  0.71267
USER: genes 5 Torsion [CB]-CG--CD-[OE2] |==|  0.98327
USER: genes 6 Torsion [N]-CA--C-[N] |==|  0.55602
USER: genes 7 Torsion [C]-N--CA-[CB] |==|  0.79444
USER: genes 8 Torsion [N]-CA--CB-[CG2] |==|  0.63990
USER: genes 9 Torsion [CA]-CB--OG1-[HG1] |==|  0.38547
USER: genes 10 Torsion [N]-CA--C-[N] |==|  0.20723
USER: genes 11 Torsion [C]-N--CA-[C] |==|  0.83996
USER: genes 12 Torsion [N]-CA--C-[N] |==|  0.90418
USER: genes 13 Torsion [C]-N--CA-[CB] |==|  0.36205
USER: genes 14 Torsion [N]-CA--CB-[CG2] |==|  0.85976
USER: genes 15 Torsion [N]-CA--C-[OXT] |==|  0.93906
USER: genes 16 Torsion [N]-CA--CB-[CG] |==|  0.23783
USER: genes 17 Torsion [CA]-CB--CG-[CD] |==|  0.77988
USER: genes 18 Torsion [CB]-CG--CD-[OE1] |==|  0.12685
USER: genes 19 Torsion [N]-C--CA-[N] |==|  0.26345
USER: genes 20 Torsion [C]-CA--CB-[CG] |==|  0.38379
USER: genes 21 Torsion [CA]-CB--CG-[CD] |==|  0.50822
USER: genes 22 Torsion [CB]-CG--CD-[NE] |==|  0.72251
USER: genes 23 Torsion [CG]-CD--NE-[HE] |==|  0.07785
USER: genes 24 Torsion [C]-CA--N-[C] |==|  0.78254
USER: genes 25 Torsion [N]-C--CA-[N] |==|  0.90143
USER: genes 26 Torsion [C]-CA--N-[H2] |==|  0.20247
USER: genes 27 Torsion [C]-CA--CB-[CG] |==|  0.78233
USER: genes 28 Torsion [CA]-CB--CG-[CD] |==|  0.26903
USER: genes 29 Torsion [CB]-CG--CD-[NE] |==|  0.50315
USER: genes 30 Torsion [CG]-CD--NE-[CZ] |==|  0.75646
ROOT
ATOM      1  C   ARG C   2      25.065  21.031  25.216  1.00 17.64 LIG 0.24  C 
ATOM      2 O    ARG C   2      24.665  21.736  24.284  1.00 18.48 LIG-0.27  OA
ATOM      3  N   GLU C   3      25.219  19.716  25.103  1.00 16.82 LIG-0.35  N 
ATOM      4 H    GLU C   3      25.500  19.205  25.735  1.00 16.82 LIG 0.16  HD
ENDROOT
BRANCH 3 5
ATOM      5  CA  GLU C   3      24.910  19.026  23.855  1.00 17.00 LIG 0.18  C 
BRANCH 5 6
ATOM      6  CB  GLU C   3      25.926  19.402  22.765  1.00 16.91 LIG 0.04  C 
BRANCH 6 7
ATOM      7  CG  GLU C   3      27.377  19.327  23.244  1.00 19.77 LIG 0.12  C 
BRANCH 7 8
ATOM      8  CD  GLU C   3      27.977  20.692  23.526  1.00 23.53 LIG 0.17  C 
ATOM      9 OE2  GLU C   3      27.311  21.707  23.245  1.00 22.35 LIG-0.65  OA
ATOM     10 OE1  GLU C   3      29.116  20.745  24.028  1.00 28.80 LIG-0.65  OA
ENDBRANCH 7 8
ENDBRANCH 6 7
ENDBRANCH 5 6
BRANCH 5 11
ATOM     11  C   GLU C   3      24.949  17.527  24.111  1.00 16.25 LIG 0.24  C 
ATOM     12  N   THR C   4      25.105  16.729  23.051  1.00 14.90 LIG-0.34  N 
ATOM     13 H    THR C   4      25.225  17.015  22.248  1.00 14.90 LIG 0.16  HD
ATOM     14 O    GLU C   3      24.831  17.102  25.263  1.00 19.18 LIG-0.27  OA
BRANCH 12 15
ATOM     15  CA  THR C   4      25.084  15.277  23.175  1.00 14.85 LIG 0.20  C 
BRANCH 15 16
ATOM     16  CB  THR C   4      26.381  14.772  23.812  1.00 16.75 LIG 0.15  C 
ATOM     17  CG2 THR C   4      26.987  13.647  22.981  1.00 16.70 LIG 0.04  C 
BRANCH 16 18
ATOM     18 OG1  THR C   4      27.306  15.859  23.914  1.00 17.36 LIG-0.39  OA
ATOM     19 HG1  THR C   4      27.700  15.823  24.655  1.00 17.36 LIG 0.21  HD
ENDBRANCH 16 18
ENDBRANCH 15 16
BRANCH 15 20
ATOM     20  C   THR C   4      23.903  14.838  24.028  1.00 14.69 LIG 0.24  C 
ATOM     21  N   GLN C   5      22.702  14.897  23.457  1.00 15.36 LIG-0.35  N 
ATOM     22 H    GLN C   5      22.547  15.272  22.699  1.00 15.36 LIG 0.16  HD
ATOM     23 O    THR C   4      24.081  14.443  25.185  1.00 15.54 LIG-0.27  OA
BRANCH 21 24
ATOM     24  CA  GLN C   5      21.529  14.316  24.093  1.00 16.48 LIG 0.18  C 
BRANCH 24 25
ATOM     25  C   GLN C   5      21.764  12.835  24.346  1.00 17.30 LIG 0.24  C 
ATOM     26 O    GLN C   5      21.318  12.292  25.366  1.00 19.53 LIG-0.27  OA
ATOM     27  N   VAL C   6      22.492  12.190  23.440  1.00 16.49 LIG-0.34  N 
ATOM     28 H    VAL C   6      22.802  12.557  22.726  1.00 16.49 LIG 0.16  HD
BRANCH 27 29
ATOM     29  CA  VAL C   6      22.834  10.777  23.584  1.00 18.07 LIG 0.19  C 
BRANCH 29 30
ATOM     30  CB  VAL C   6      22.521   9.982  22.302  1.00 20.19 LIG 0.01  C 
ATOM     31  CG1 VAL C   6      22.728   8.496  22.522  1.00 23.48 LIG 0.01  C 
ATOM     32  CG2 VAL C   6      21.097  10.257  21.836  1.00 21.65 LIG 0.01  C 
ENDBRANCH 29 30
BRANCH 29 33
ATOM     33  C   VAL C   6      24.297  10.596  23.969  1.00 18.86 LIG 0.20  C 
ATOM     34 O    VAL C   6      24.685   9.559  24.540  1.00 20.67 LIG-0.65  OA
ATOM     35 OXT  VAL C   6      25.113  11.502  23.728  1.00 19.38 LIG-0.65  OA
ENDBRANCH 29 33
ENDBRANCH 27 29
ENDBRANCH 24 25
BRANCH 24 36
ATOM     36  CB  GLN C   5      20.310  14.475  23.184  1.00 21.66 LIG 0.04  C 
BRANCH 36 37
ATOM     37  CG  GLN C   5      20.136  13.383  22.143  1.00 28.10 LIG 0.10  C 
BRANCH 37 38
ATOM     38  CD  GLN C   5      21.047  13.577  20.938  1.00 33.44 LIG 0.21  C 
ATOM     39  NE2 GLN C   5      20.491  13.421  19.742  1.00 35.38 LIG-0.37  N 
ATOM     40 21HE GLN C   5      19.656  13.223  19.678  1.00 35.38 LIG 0.16  HD
ATOM     41 22HE GLN C   5      20.965  13.519  19.032  1.00 35.38 LIG 0.16  HD
ATOM     42 OE1  GLN C   5      22.237  13.860  21.086  1.00 34.39 LIG-0.27  OA
ENDBRANCH 37 38
ENDBRANCH 36 37
ENDBRANCH 24 36
ENDBRANCH 21 24
ENDBRANCH 15 20
ENDBRANCH 12 15
ENDBRANCH 5 11
ENDBRANCH 3 5
BRANCH 1 43
ATOM     43  CA  ARG C   2      25.376  21.645  26.578  1.00 18.81 LIG 0.18  C 
BRANCH 43 44
ATOM     44  CB  ARG C   2      24.410  22.793  26.856  1.00 19.04 LIG 0.04  C 
BRANCH 44 45
ATOM     45  CG  ARG C   2      23.908  22.802  28.285  1.00 18.27 LIG 0.02  C 
BRANCH 45 46
ATOM     46  CD  ARG C   2      22.900  23.916  28.482  1.00 20.59 LIG 0.14  C 
BRANCH 46 47
ATOM     47  NE  ARG C   2      23.518  25.076  29.117  1.00 21.96 LIG-0.23  N 
ATOM     48 HE   ARG C   2      24.359  25.203  28.990  1.00 21.96 LIG 0.18  HD
ATOM     49  CZ  ARG C   2      22.866  25.947  29.881  1.00 22.93 LIG 0.67  C 
ATOM     50  NH2 ARG C   2      23.511  26.973  30.413  1.00 24.61 LIG-0.23  N 
ATOM     51  NH1 ARG C   2      21.570  25.790  30.113  1.00 22.65 LIG-0.23  N 
ATOM     52 1HH2 ARG C   2      24.351  27.076  30.265  1.00 24.61 LIG 0.17  HD
ATOM     53 2HH2 ARG C   2      23.089  27.537  30.907  1.00 24.61 LIG 0.17  HD
ATOM     54 1HH1 ARG C   2      21.150  25.123  29.769  1.00 22.65 LIG 0.17  HD
ATOM     55 2HH1 ARG C   2      21.149  26.354  30.607  1.00 22.65 LIG 0.17  HD
ENDBRANCH 46 47
ENDBRANCH 45 46
ENDBRANCH 44 45
ENDBRANCH 43 44
BRANCH 43 56
ATOM     56  N   ARG C   2      26.750  22.134  26.604  1.00 21.07 LIG-0.35  N 
ATOM     57  C   ARG C   1      27.770  21.296  26.767  1.00 27.96 LIG 0.25  C 
ATOM     58 O    ARG C   1      27.622  20.088  26.949  1.00 30.47 LIG-0.27  OA
ATOM     59 H    ARG C   2      26.831  22.985  26.507  1.00 21.07 LIG 0.16  HD
BRANCH 57 60
ATOM     60  CA  ARG C   1      29.168  21.898  26.713  1.00 31.07 LIG 0.27  C 
BRANCH 60 61
ATOM     61  N   ARG C   1      29.231  22.988  25.740  1.00 32.37 LIG-0.07  N 
ATOM     62 H2   ARG C   1      28.802  23.698  26.061  1.00 32.37 LIG 0.28  HD
ATOM     63 H1   ARG C   1      28.849  22.729  24.979  1.00 32.37 LIG 0.28  HD
ATOM     64 H3   ARG C   1      30.082  23.200  25.586  1.00 32.37 LIG 0.28  HD
ENDBRANCH 60 61
BRANCH 60 65
ATOM     65  CB  ARG C   1      29.561  22.382  28.109  1.00 35.21 LIG 0.04  C 
BRANCH 65 66
ATOM     66  CG  ARG C   1      28.925  23.718  28.485  1.00 38.18 LIG 0.02  C 
BRANCH 66 67
ATOM     67  CD  ARG C   1      27.666  23.541  29.319  1.00 40.83 LIG 0.14  C 
BRANCH 67 68
ATOM     68  NE  ARG C   1      27.050  24.821  29.651  1.00 41.61 LIG-0.23  N 
ATOM     69  CZ  ARG C   1      27.367  25.549  30.718  1.00 42.69 LIG 0.67  C 
ATOM     70  NH1 ARG C   1      28.297  25.121  31.564  1.00 43.45 LIG-0.23  N 
ATOM     71  NH2 ARG C   1      26.756  26.706  30.936  1.00 42.77 LIG-0.23  N 
ATOM     72 1HH1 ARG C   1      28.696  24.372  31.423  1.00 43.45 LIG 0.17  HD
ATOM     73 2HH1 ARG C   1      28.501  25.593  32.253  1.00 43.45 LIG 0.17  HD
ATOM     74 1HH2 ARG C   1      26.154  26.985  30.388  1.00 42.77 LIG 0.17  HD
ATOM     75 2HH2 ARG C   1      26.961  27.177  31.627  1.00 42.77 LIG 0.17  HD
ATOM     76 HE   ARG C   1      26.442  25.124  29.124  1.00 41.61 LIG 0.18  HD
ENDBRANCH 67 68
ENDBRANCH 66 67
ENDBRANCH 65 66
ENDBRANCH 60 65
ENDBRANCH 57 60
ENDBRANCH 43 56
ENDBRANCH 1 43
TORSDOF 29
ENDMDL
MODEL 21
USER: ADFR SOLUTION from run 195
USER: SCORE 17.411484 LL:  -4.841 LR: -15.478 RR:   0.000 FEB:  -6.827
USER: RMSD 11.166585
USER: SEED 194
USER: STATUS searching
USER: GENES 31
USER: genes 0 Translation |==|  0.61780 0.51741 0.33051
USER: genes 1 Rotation |==|  0.49568 0.47141 0.00086 0.50463
USER: genes 2 Torsion [C]-N--CA-[CB] |==|  0.16872
USER: genes 3 Torsion [N]-CA--CB-[CG] |==|  0.53124
USER: genes 4 Torsion [CA]-CB--CG-[CD] |==|  0.39021
USER: genes 5 Torsion [CB]-CG--CD-[OE2] |==|  0.63908
USER: genes 6 Torsion [N]-CA--C-[N] |==|  0.29184
USER: genes 7 Torsion [C]-N--CA-[CB] |==|  0.26621
USER: genes 8 Torsion [N]-CA--CB-[CG2] |==|  0.58833
USER: genes 9 Torsion [CA]-CB--OG1-[HG1] |==|  0.13556
USER: genes 10 Torsion [N]-CA--C-[N] |==|  0.02755
USER: genes 11 Torsion [C]-N--CA-[C] |==|  0.21664
USER: genes 12 Torsion [N]-CA--C-[N] |==|  0.79457
USER: genes 13 Torsion [C]-N--CA-[CB] |==|  0.14494
USER: genes 14 Torsion [N]-CA--CB-[CG2] |==|  0.57331
USER: genes 15 Torsion [N]-CA--C-[OXT] |==|  0.46164
USER: genes 16 Torsion [N]-CA--CB-[CG] |==|  0.45197
USER: genes 17 Torsion [CA]-CB--CG-[CD] |==|  0.65717
USER: genes 18 Torsion [CB]-CG--CD-[OE1] |==|  0.55328
USER: genes 19 Torsion [N]-C--CA-[N] |==|  0.08596
USER: genes 20 Torsion [C]-CA--CB-[CG] |==|  0.29592
USER: genes 21 Torsion [CA]-CB--CG-[CD] |==|  0.33466
USER: genes 22 Torsion [CB]-CG--CD-[NE] |==|  0.90438
USER: genes 23 Torsion [CG]-CD--NE-[HE] |==|  0.80325
USER: genes 24 Torsion [C]-CA--N-[C] |==|  0.16209
USER: genes 25 Torsion [N]-C--CA-[N] |==|  0.93776
USER: genes 26 Torsion [C]-CA--N-[H2] |==|  0.58849
USER: genes 27 Torsion [C]-CA--CB-[CG] |==|  0.85920
USER: genes 28 Torsion [CA]-CB--CG-[CD] |==|  0.56245
USER: genes 29 Torsion [CB]-CG--CD-[NE] |==|  0.17098
USER: genes 30 Torsion [CG]-CD--NE-[CZ] |==|  0.69184
ROOT
ATOM      1  C   ARG C   2      27.579  19.990  22.564  1.00 17.64 LIG 0.24  C 
ATOM      2 O    ARG C   2      27.745  19.022  21.815  1.00 18.48 LIG-0.27  OA
ATOM      3  N   GLU C   3      26.523  20.102  23.363  1.00 16.82 LIG-0.35  N 
ATOM      4 H    GLU C   3      26.387  20.764  23.896  1.00 16.82 LIG 0.16  HD
ENDROOT
BRANCH 3 5
ATOM      5  CA  GLU C   3      25.486  19.075  23.391  1.00 17.00 LIG 0.18  C 
BRANCH 5 6
ATOM      6  CB  GLU C   3      26.078  17.724  23.824  1.00 16.91 LIG 0.04  C 
BRANCH 6 7
ATOM      7  CG  GLU C   3      25.118  16.553  23.615  1.00 19.77 LIG 0.12  C 
BRANCH 7 8
ATOM      8  CD  GLU C   3      25.813  15.302  23.108  1.00 23.53 LIG 0.17  C 
ATOM      9 OE2  GLU C   3      25.341  14.719  22.113  1.00 22.35 LIG-0.65  OA
ATOM     10 OE1  GLU C   3      26.829  14.905  23.708  1.00 28.80 LIG-0.65  OA
ENDBRANCH 7 8
ENDBRANCH 6 7
ENDBRANCH 5 6
BRANCH 5 11
ATOM     11  C   GLU C   3      24.405  19.510  24.368  1.00 16.25 LIG 0.24  C 
ATOM     12  N   THR C   4      23.259  19.961  23.850  1.00 14.90 LIG-0.34  N 
ATOM     13 H    THR C   4      23.087  19.979  23.008  1.00 14.90 LIG 0.16  HD
ATOM     14 O    GLU C   3      24.615  19.441  25.582  1.00 19.18 LIG-0.27  OA
BRANCH 12 15
ATOM     15  CA  THR C   4      22.185  20.470  24.694  1.00 14.85 LIG 0.20  C 
BRANCH 15 16
ATOM     16  CB  THR C   4      22.262  21.995  24.803  1.00 16.75 LIG 0.15  C 
ATOM     17  CG2 THR C   4      21.755  22.463  26.163  1.00 16.70 LIG 0.04  C 
BRANCH 16 18
ATOM     18 OG1  THR C   4      23.619  22.409  24.617  1.00 17.36 LIG-0.39  OA
ATOM     19 HG1  THR C   4      23.933  22.039  23.931  1.00 17.36 LIG 0.21  HD
ENDBRANCH 16 18
ENDBRANCH 15 16
BRANCH 15 20
ATOM     20  C   THR C   4      20.832  20.076  24.120  1.00 14.69 LIG 0.24  C 
ATOM     21  N   GLN C   5      20.842  19.201  23.118  1.00 15.36 LIG-0.35  N 
ATOM     22 H    GLN C   5      21.555  18.945  22.709  1.00 15.36 LIG 0.16  HD
ATOM     23 O    THR C   4      19.792  20.555  24.588  1.00 15.54 LIG-0.27  OA
BRANCH 21 24
ATOM     24  CA  GLN C   5      19.614  18.595  22.625  1.00 16.48 LIG 0.18  C 
BRANCH 24 25
ATOM     25  C   GLN C   5      18.875  19.583  21.736  1.00 17.30 LIG 0.24  C 
ATOM     26 O    GLN C   5      18.888  19.454  20.505  1.00 19.53 LIG-0.27  OA
ATOM     27  N   VAL C   6      18.263  20.589  22.354  1.00 16.49 LIG-0.34  N 
ATOM     28 H    VAL C   6      18.245  20.684  23.209  1.00 16.49 LIG 0.16  HD
BRANCH 27 29
ATOM     29  CA  VAL C   6      17.557  21.635  21.619  1.00 18.07 LIG 0.19  C 
BRANCH 29 30
ATOM     30  CB  VAL C   6      16.542  21.045  20.622  1.00 20.19 LIG 0.01  C 
ATOM     31  CG1 VAL C   6      15.231  20.719  21.312  1.00 23.48 LIG 0.01  C 
ATOM     32  CG2 VAL C   6      16.308  22.007  19.464  1.00 21.65 LIG 0.01  C 
ENDBRANCH 29 30
BRANCH 29 33
ATOM     33  C   VAL C   6      16.861  22.606  22.564  1.00 18.86 LIG 0.20  C 
ATOM     34 O    VAL C   6      16.695  22.322  23.766  1.00 20.67 LIG-0.65  OA
ATOM     35 OXT  VAL C   6      16.435  23.689  22.128  1.00 19.38 LIG-0.65  OA
ENDBRANCH 29 33
ENDBRANCH 27 29
ENDBRANCH 24 25
BRANCH 24 36
ATOM     36  CB  GLN C   5      18.712  18.216  23.799  1.00 21.66 LIG 0.04  C 
BRANCH 36 37
ATOM     37  CG  GLN C   5      17.259  17.962  23.440  1.00 28.10 LIG 0.10  C 
BRANCH 37 38
ATOM     38  CD  GLN C   5      16.301  18.848  24.225  1.00 33.44 LIG 0.21  C 
ATOM     39  NE2 GLN C   5      16.820  19.938  24.780  1.00 35.38 LIG-0.37  N 
ATOM     40 21HE GLN C   5      17.657  20.112  24.685  1.00 35.38 LIG 0.16  HD
ATOM     41 22HE GLN C   5      16.319  20.469  25.234  1.00 35.38 LIG 0.16  HD
ATOM     42 OE1  GLN C   5      15.110  18.552  24.330  1.00 34.39 LIG-0.27  OA
ENDBRANCH 37 38
ENDBRANCH 36 37
ENDBRANCH 24 36
ENDBRANCH 21 24
ENDBRANCH 15 20
ENDBRANCH 12 15
ENDBRANCH 5 11
ENDBRANCH 3 5
BRANCH 1 43
ATOM     43  CA  ARG C   2      28.581  21.141  22.582  1.00 18.81 LIG 0.18  C 
BRANCH 43 44
ATOM     44  CB  ARG C   2      29.969  20.619  22.223  1.00 19.04 LIG 0.04  C 
BRANCH 44 45
ATOM     45  CG  ARG C   2      30.402  21.021  20.829  1.00 18.27 LIG 0.02  C 
BRANCH 45 46
ATOM     46  CD  ARG C   2      31.678  21.836  20.888  1.00 20.59 LIG 0.14  C 
BRANCH 46 47
ATOM     47  NE  ARG C   2      31.713  22.670  22.085  1.00 21.96 LIG-0.23  N 
ATOM     48 HE   ARG C   2      31.177  23.341  22.122  1.00 21.96 LIG 0.18  HD
ATOM     49  CZ  ARG C   2      32.519  22.459  23.121  1.00 22.93 LIG 0.67  C 
ATOM     50  NH2 ARG C   2      32.476  23.268  24.168  1.00 24.61 LIG-0.23  N 
ATOM     51  NH1 ARG C   2      33.367  21.441  23.108  1.00 22.65 LIG-0.23  N 
ATOM     52 1HH2 ARG C   2      31.927  23.930  24.178  1.00 24.61 LIG 0.17  HD
ATOM     53 2HH2 ARG C   2      32.998  23.132  24.838  1.00 24.61 LIG 0.17  HD
ATOM     54 1HH1 ARG C   2      33.397  20.915  22.428  1.00 22.65 LIG 0.17  HD
ATOM     55 2HH1 ARG C   2      33.888  21.306  23.779  1.00 22.65 LIG 0.17  HD
ENDBRANCH 46 47
ENDBRANCH 45 46
ENDBRANCH 44 45
ENDBRANCH 43 44
BRANCH 43 56
ATOM     56  N   ARG C   2      28.609  21.758  23.904  1.00 21.07 LIG-0.35  N 
ATOM     57  C   ARG C   1      28.910  21.042  24.984  1.00 27.96 LIG 0.25  C 
ATOM     58 O    ARG C   1      29.132  19.832  24.946  1.00 30.47 LIG-0.27  OA
ATOM     59 H    ARG C   2      28.419  22.597  23.914  1.00 21.07 LIG 0.16  HD
BRANCH 57 60
ATOM     60  CA  ARG C   1      28.977  21.793  26.308  1.00 31.07 LIG 0.27  C 
BRANCH 60 61
ATOM     61  N   ARG C   1      29.214  23.219  26.089  1.00 32.37 LIG-0.07  N 
ATOM     62 H2   ARG C   1      29.688  23.549  26.766  1.00 32.37 LIG 0.28  HD
ATOM     63 H1   ARG C   1      28.434  23.646  26.037  1.00 32.37 LIG 0.28  HD
ATOM     64 H3   ARG C   1      29.664  23.332  25.329  1.00 32.37 LIG 0.28  HD
ENDBRANCH 60 61
BRANCH 60 65
ATOM     65  CB  ARG C   1      27.679  21.563  27.083  1.00 35.21 LIG 0.04  C 
BRANCH 65 66
ATOM     66  CG  ARG C   1      26.426  21.835  26.255  1.00 38.18 LIG 0.02  C 
BRANCH 66 67
ATOM     67  CD  ARG C   1      25.216  22.139  27.125  1.00 40.83 LIG 0.14  C 
BRANCH 67 68
ATOM     68  NE  ARG C   1      25.415  23.335  27.936  1.00 41.61 LIG-0.23  N 
ATOM     69  CZ  ARG C   1      25.555  23.326  29.258  1.00 42.69 LIG 0.67  C 
ATOM     70  NH1 ARG C   1      25.514  22.179  29.926  1.00 43.45 LIG-0.23  N 
ATOM     71  NH2 ARG C   1      25.738  24.466  29.912  1.00 42.77 LIG-0.23  N 
ATOM     72 1HH1 ARG C   1      25.397  21.440  29.503  1.00 43.45 LIG 0.17  HD
ATOM     73 2HH1 ARG C   1      25.604  22.176  30.781  1.00 43.45 LIG 0.17  HD
ATOM     74 1HH2 ARG C   1      25.766  25.210  29.481  1.00 42.77 LIG 0.17  HD
ATOM     75 2HH2 ARG C   1      25.828  24.462  30.768  1.00 42.77 LIG 0.17  HD
ATOM     76 HE   ARG C   1      25.444  24.094  27.533  1.00 41.61 LIG 0.18  HD
ENDBRANCH 67 68
ENDBRANCH 66 67
ENDBRANCH 65 66
ENDBRANCH 60 65
ENDBRANCH 57 60
ENDBRANCH 43 56
ENDBRANCH 1 43
TORSDOF 29
ENDMDL
MODEL 22
USER: ADFR SOLUTION from run 84
USER: SCORE 18.130347 LL:  -4.817 LR: -15.468 RR:   0.000 FEB:  -6.817
USER: RMSD 10.792959
USER: SEED 83
USER: STATUS no improvement in best in 14 clusters for 5 generations
USER: GENES 31
USER: genes 0 Translation |==|  0.59747 0.52913 0.34817
USER: genes 1 Rotation |==|  0.82228 0.17653 0.70141 0.53059
USER: genes 2 Torsion [C]-N--CA-[CB] |==|  0.51161
USER: genes 3 Torsion [N]-CA--CB-[CG] |==|  0.54415
USER: genes 4 Torsion [CA]-CB--CG-[CD] |==|  0.35714
USER: genes 5 Torsion [CB]-CG--CD-[OE2] |==|  0.70940
USER: genes 6 Torsion [N]-CA--C-[N] |==|  0.30912
USER: genes 7 Torsion [C]-N--CA-[CB] |==|  0.18333
USER: genes 8 Torsion [N]-CA--CB-[CG2] |==|  0.19582
USER: genes 9 Torsion [CA]-CB--OG1-[HG1] |==|  0.84233
USER: genes 10 Torsion [N]-CA--C-[N] |==|  0.06216
USER: genes 11 Torsion [C]-N--CA-[C] |==|  0.65060
USER: genes 12 Torsion [N]-CA--C-[N] |==|  0.92664
USER: genes 13 Torsion [C]-N--CA-[CB] |==|  0.24137
USER: genes 14 Torsion [N]-CA--CB-[CG2] |==|  0.63228
USER: genes 15 Torsion [N]-CA--C-[OXT] |==|  0.96777
USER: genes 16 Torsion [N]-CA--CB-[CG] |==|  0.37840
USER: genes 17 Torsion [CA]-CB--CG-[CD] |==|  0.26925
USER: genes 18 Torsion [CB]-CG--CD-[OE1] |==|  0.24080
USER: genes 19 Torsion [N]-C--CA-[N] |==|  0.72039
USER: genes 20 Torsion [C]-CA--CB-[CG] |==|  0.28705
USER: genes 21 Torsion [CA]-CB--CG-[CD] |==|  0.26597
USER: genes 22 Torsion [CB]-CG--CD-[NE] |==|  0.96667
USER: genes 23 Torsion [CG]-CD--NE-[HE] |==|  0.81346
USER: genes 24 Torsion [C]-CA--N-[C] |==|  0.17903
USER: genes 25 Torsion [N]-C--CA-[N] |==|  0.02301
USER: genes 26 Torsion [C]-CA--N-[H2] |==|  0.23785
USER: genes 27 Torsion [C]-CA--CB-[CG] |==|  0.55865
USER: genes 28 Torsion [CA]-CB--CG-[CD] |==|  0.43404
USER: genes 29 Torsion [CB]-CG--CD-[NE] |==|  0.79775
USER: genes 30 Torsion [CG]-CD--NE-[CZ] |==|  0.78149
ROOT
ATOM      1  C   ARG C   2      27.015  20.262  22.895  1.00 17.64 LIG 0.24  C 
ATOM      2 O    ARG C   2      25.890  20.765  22.978  1.00 18.48 LIG-0.27  OA
ATOM      3  N   GLU C   3      27.226  18.957  23.025  1.00 16.82 LIG-0.35  N 
ATOM      4 H    GLU C   3      27.999  18.583  22.968  1.00 16.82 LIG 0.16  HD
ENDROOT
BRANCH 3 5
ATOM      5  CA  GLU C   3      26.123  18.037  23.284  1.00 17.00 LIG 0.18  C 
BRANCH 5 6
ATOM      6  CB  GLU C   3      26.650  16.609  23.494  1.00 16.91 LIG 0.04  C 
BRANCH 6 7
ATOM      7  CG  GLU C   3      25.560  15.543  23.385  1.00 19.77 LIG 0.12  C 
BRANCH 7 8
ATOM      8  CD  GLU C   3      25.921  14.423  22.426  1.00 23.53 LIG 0.17  C 
ATOM      9 OE2  GLU C   3      25.376  14.397  21.306  1.00 22.35 LIG-0.65  OA
ATOM     10 OE1  GLU C   3      26.749  13.570  22.797  1.00 28.80 LIG-0.65  OA
ENDBRANCH 7 8
ENDBRANCH 6 7
ENDBRANCH 5 6
BRANCH 5 11
ATOM     11  C   GLU C   3      25.383  18.509  24.527  1.00 16.25 LIG 0.24  C 
ATOM     12  N   THR C   4      24.147  18.987  24.357  1.00 14.90 LIG-0.34  N 
ATOM     13 H    THR C   4      23.738  19.003  23.600  1.00 14.90 LIG 0.16  HD
ATOM     14 O    GLU C   3      25.936  18.445  25.627  1.00 19.18 LIG-0.27  OA
BRANCH 12 15
ATOM     15  CA  THR C   4      23.377  19.532  25.469  1.00 14.85 LIG 0.20  C 
BRANCH 15 16
ATOM     16  CB  THR C   4      24.030  20.811  26.000  1.00 16.75 LIG 0.15  C 
ATOM     17  CG2 THR C   4      23.874  21.950  24.998  1.00 16.70 LIG 0.04  C 
BRANCH 16 18
ATOM     18 OG1  THR C   4      23.419  21.166  27.244  1.00 17.36 LIG-0.39  OA
ATOM     19 HG1  THR C   4      22.590  21.253  27.135  1.00 17.36 LIG 0.21  HD
ENDBRANCH 16 18
ENDBRANCH 15 16
BRANCH 15 20
ATOM     20  C   THR C   4      21.956  19.842  25.024  1.00 14.69 LIG 0.24  C 
ATOM     21  N   GLN C   5      21.511  19.189  23.953  1.00 15.36 LIG-0.35  N 
ATOM     22 H    GLN C   5      22.008  18.707  23.443  1.00 15.36 LIG 0.16  HD
ATOM     23 O    THR C   4      21.269  20.657  25.651  1.00 15.54 LIG-0.27  OA
BRANCH 21 24
ATOM     24  CA  GLN C   5      20.112  19.245  23.555  1.00 16.48 LIG 0.18  C 
BRANCH 24 25
ATOM     25  C   GLN C   5      19.560  17.834  23.425  1.00 17.30 LIG 0.24  C 
ATOM     26 O    GLN C   5      18.356  17.610  23.610  1.00 19.53 LIG-0.27  OA
ATOM     27  N   VAL C   6      20.441  16.879  23.141  1.00 16.49 LIG-0.34  N 
ATOM     28 H    VAL C   6      21.277  17.026  23.005  1.00 16.49 LIG 0.16  HD
BRANCH 27 29
ATOM     29  CA  VAL C   6      20.054  15.475  23.035  1.00 18.07 LIG 0.19  C 
BRANCH 29 30
ATOM     30  CB  VAL C   6      19.572  15.122  21.615  1.00 20.19 LIG 0.01  C 
ATOM     31  CG1 VAL C   6      20.626  14.331  20.865  1.00 23.48 LIG 0.01  C 
ATOM     32  CG2 VAL C   6      18.264  14.344  21.672  1.00 21.65 LIG 0.01  C 
ENDBRANCH 29 30
BRANCH 29 33
ATOM     33  C   VAL C   6      21.193  14.552  23.446  1.00 18.86 LIG 0.20  C 
ATOM     34 O    VAL C   6      20.995  13.338  23.648  1.00 20.67 LIG-0.65  OA
ATOM     35 OXT  VAL C   6      22.336  15.017  23.601  1.00 19.38 LIG-0.65  OA
ENDBRANCH 29 33
ENDBRANCH 27 29
ENDBRANCH 24 25
BRANCH 24 36
ATOM     36  CB  GLN C   5      19.981  19.953  22.207  1.00 21.66 LIG 0.04  C 
BRANCH 36 37
ATOM     37  CG  GLN C   5      19.036  19.292  21.220  1.00 28.10 LIG 0.10  C 
BRANCH 37 38
ATOM     38  CD  GLN C   5      17.649  19.921  21.230  1.00 33.44 LIG 0.21  C 
ATOM     39  NE2 GLN C   5      16.747  19.355  22.024  1.00 35.38 LIG-0.37  N 
ATOM     40 21HE GLN C   5      16.960  18.670  22.498  1.00 35.38 LIG 0.16  HD
ATOM     41 22HE GLN C   5      15.949  19.673  22.063  1.00 35.38 LIG 0.16  HD
ATOM     42 OE1  GLN C   5      17.396  20.902  20.530  1.00 34.39 LIG-0.27  OA
ENDBRANCH 37 38
ENDBRANCH 36 37
ENDBRANCH 24 36
ENDBRANCH 21 24
ENDBRANCH 15 20
ENDBRANCH 12 15
ENDBRANCH 5 11
ENDBRANCH 3 5
BRANCH 1 43
ATOM     43  CA  ARG C   2      28.244  21.138  22.670  1.00 18.81 LIG 0.18  C 
BRANCH 43 44
ATOM     44  CB  ARG C   2      29.395  20.283  22.147  1.00 19.04 LIG 0.04  C 
BRANCH 44 45
ATOM     45  CG  ARG C   2      29.622  20.452  20.660  1.00 18.27 LIG 0.02  C 
BRANCH 45 46
ATOM     46  CD  ARG C   2      30.711  21.475  20.406  1.00 20.59 LIG 0.14  C 
BRANCH 46 47
ATOM     47  NE  ARG C   2      31.035  22.209  21.625  1.00 21.96 LIG-0.23  N 
ATOM     48 HE   ARG C   2      30.436  22.733  21.950  1.00 21.96 LIG 0.18  HD
ATOM     49  CZ  ARG C   2      32.197  22.120  22.266  1.00 22.93 LIG 0.67  C 
ATOM     50  NH2 ARG C   2      32.399  22.822  23.370  1.00 24.61 LIG-0.23  N 
ATOM     51  NH1 ARG C   2      33.154  21.330  21.801  1.00 22.65 LIG-0.23  N 
ATOM     52 1HH2 ARG C   2      31.779  23.336  23.672  1.00 24.61 LIG 0.17  HD
ATOM     53 2HH2 ARG C   2      33.151  22.765  23.784  1.00 24.61 LIG 0.17  HD
ATOM     54 1HH1 ARG C   2      33.025  20.874  21.084  1.00 22.65 LIG 0.17  HD
ATOM     55 2HH1 ARG C   2      33.905  21.273  22.217  1.00 22.65 LIG 0.17  HD
ENDBRANCH 46 47
ENDBRANCH 45 46
ENDBRANCH 44 45
ENDBRANCH 43 44
BRANCH 43 56
ATOM     56  N   ARG C   2      28.632  21.785  23.918  1.00 21.07 LIG-0.35  N 
ATOM     57  C   ARG C   1      29.050  21.067  24.957  1.00 27.96 LIG 0.25  C 
ATOM     58 O    ARG C   1      29.090  19.837  24.949  1.00 30.47 LIG-0.27  OA
ATOM     59 H    ARG C   2      28.567  22.643  23.915  1.00 21.07 LIG 0.16  HD
BRANCH 57 60
ATOM     60  CA  ARG C   1      29.496  21.841  26.191  1.00 31.07 LIG 0.27  C 
BRANCH 60 61
ATOM     61  N   ARG C   1      29.189  23.264  26.055  1.00 32.37 LIG-0.07  N 
ATOM     62 H2   ARG C   1      28.352  23.414  26.320  1.00 32.37 LIG 0.28  HD
ATOM     63 H1   ARG C   1      29.278  23.507  25.203  1.00 32.37 LIG 0.28  HD
ATOM     64 H3   ARG C   1      29.749  23.738  26.559  1.00 32.37 LIG 0.28  HD
ENDBRANCH 60 61
BRANCH 60 65
ATOM     65  CB  ARG C   1      28.820  21.247  27.428  1.00 35.21 LIG 0.04  C 
BRANCH 65 66
ATOM     66  CG  ARG C   1      28.772  22.212  28.610  1.00 38.18 LIG 0.02  C 
BRANCH 66 67
ATOM     67  CD  ARG C   1      27.651  21.876  29.582  1.00 40.83 LIG 0.14  C 
BRANCH 67 68
ATOM     68  NE  ARG C   1      26.341  22.216  29.038  1.00 41.61 LIG-0.23  N 
ATOM     69  CZ  ARG C   1      25.841  23.448  29.008  1.00 42.69 LIG 0.67  C 
ATOM     70  NH1 ARG C   1      26.542  24.464  29.496  1.00 43.45 LIG-0.23  N 
ATOM     71  NH2 ARG C   1      24.639  23.662  28.489  1.00 42.77 LIG-0.23  N 
ATOM     72 1HH1 ARG C   1      27.322  24.327  29.832  1.00 43.45 LIG 0.17  HD
ATOM     73 2HH1 ARG C   1      26.217  25.260  29.476  1.00 43.45 LIG 0.17  HD
ATOM     74 1HH2 ARG C   1      24.183  23.004  28.171  1.00 42.77 LIG 0.17  HD
ATOM     75 2HH2 ARG C   1      24.315  24.459  28.469  1.00 42.77 LIG 0.17  HD
ATOM     76 HE   ARG C   1      25.861  21.579  28.717  1.00 41.61 LIG 0.18  HD
ENDBRANCH 67 68
ENDBRANCH 66 67
ENDBRANCH 65 66
ENDBRANCH 60 65
ENDBRANCH 57 60
ENDBRANCH 43 56
ENDBRANCH 1 43
TORSDOF 29
ENDMDL
MODEL 23
USER: ADFR SOLUTION from run 145
USER: SCORE 20.669424 LL:  -7.018 LR: -15.469 RR:   0.000 FEB:  -6.818
USER: RMSD 9.992468
USER: SEED 144
USER: STATUS no improvement in best in 11 clusters for 5 generations
USER: GENES 31
USER: genes 0 Translation |==|  0.68265 0.50358 0.34166
USER: genes 1 Rotation |==|  0.09681 0.50155 0.30164 0.71928
USER: genes 2 Torsion [C]-N--CA-[CB] |==|  0.50000
USER: genes 3 Torsion [N]-CA--CB-[CG] |==|  0.00178
USER: genes 4 Torsion [CA]-CB--CG-[CD] |==|  0.75577
USER: genes 5 Torsion [CB]-CG--CD-[OE2] |==|  0.97087
USER: genes 6 Torsion [N]-CA--C-[N] |==|  0.30320
USER: genes 7 Torsion [C]-N--CA-[CB] |==|  0.81092
USER: genes 8 Torsion [N]-CA--CB-[CG2] |==|  0.59393
USER: genes 9 Torsion [CA]-CB--OG1-[HG1] |==|  0.56959
USER: genes 10 Torsion [N]-CA--C-[N] |==|  0.11524
USER: genes 11 Torsion [C]-N--CA-[C] |==|  0.83366
USER: genes 12 Torsion [N]-CA--C-[N] |==|  0.89776
USER: genes 13 Torsion [C]-N--CA-[CB] |==|  0.29049
USER: genes 14 Torsion [N]-CA--CB-[CG2] |==|  0.51367
USER: genes 15 Torsion [N]-CA--C-[OXT] |==|  0.44665
USER: genes 16 Torsion [N]-CA--CB-[CG] |==|  0.58238
USER: genes 17 Torsion [CA]-CB--CG-[CD] |==|  0.42833
USER: genes 18 Torsion [CB]-CG--CD-[OE1] |==|  0.97119
USER: genes 19 Torsion [N]-C--CA-[N] |==|  0.91937
USER: genes 20 Torsion [C]-CA--CB-[CG] |==|  0.83957
USER: genes 21 Torsion [CA]-CB--CG-[CD] |==|  0.30757
USER: genes 22 Torsion [CB]-CG--CD-[NE] |==|  0.64382
USER: genes 23 Torsion [CG]-CD--NE-[HE] |==|  0.84545
USER: genes 24 Torsion [C]-CA--N-[C] |==|  0.81949
USER: genes 25 Torsion [N]-C--CA-[N] |==|  0.01994
USER: genes 26 Torsion [C]-CA--N-[H2] |==|  0.20650
USER: genes 27 Torsion [C]-CA--CB-[CG] |==|  0.52982
USER: genes 28 Torsion [CA]-CB--CG-[CD] |==|  0.48879
USER: genes 29 Torsion [CB]-CG--CD-[NE] |==|  0.61753
USER: genes 30 Torsion [CG]-CD--NE-[CZ] |==|  0.72558
ROOT
ATOM      1  C   ARG C   2      29.378  19.668  22.773  1.00 17.64 LIG 0.24  C 
ATOM      2 O    ARG C   2      29.021  18.584  22.301  1.00 18.48 LIG-0.27  OA
ATOM      3  N   GLU C   3      30.603  19.873  23.246  1.00 16.82 LIG-0.35  N 
ATOM      4 H    GLU C   3      30.877  20.619  23.575  1.00 16.82 LIG 0.16  HD
ENDROOT
BRANCH 3 5
ATOM      5  CA  GLU C   3      31.602  18.808  23.238  1.00 17.00 LIG 0.18  C 
BRANCH 5 6
ATOM      6  CB  GLU C   3      32.926  19.308  23.837  1.00 16.91 LIG 0.04  C 
BRANCH 6 7
ATOM      7  CG  GLU C   3      32.866  20.764  24.300  1.00 19.77 LIG 0.12  C 
BRANCH 7 8
ATOM      8  CD  GLU C   3      33.209  21.749  23.198  1.00 23.53 LIG 0.17  C 
ATOM      9 OE2  GLU C   3      33.685  21.311  22.133  1.00 22.35 LIG-0.65  OA
ATOM     10 OE1  GLU C   3      33.004  22.960  23.401  1.00 28.80 LIG-0.65  OA
ENDBRANCH 7 8
ENDBRANCH 6 7
ENDBRANCH 5 6
BRANCH 5 11
ATOM     11  C   GLU C   3      31.067  17.640  24.051  1.00 16.25 LIG 0.24  C 
ATOM     12  N   THR C   4      30.713  16.540  23.381  1.00 14.90 LIG-0.34  N 
ATOM     13 H    THR C   4      30.809  16.444  22.532  1.00 14.90 LIG 0.16  HD
ATOM     14 O    GLU C   3      30.971  17.742  25.277  1.00 19.18 LIG-0.27  OA
BRANCH 12 15
ATOM     15  CA  THR C   4      30.121  15.390  24.054  1.00 14.85 LIG 0.20  C 
BRANCH 15 16
ATOM     16  CB  THR C   4      31.148  14.713  24.966  1.00 16.75 LIG 0.15  C 
ATOM     17  CG2 THR C   4      30.922  13.206  25.005  1.00 16.70 LIG 0.04  C 
BRANCH 16 18
ATOM     18 OG1  THR C   4      32.464  14.999  24.481  1.00 17.36 LIG-0.39  OA
ATOM     19 HG1  THR C   4      32.992  14.395  24.730  1.00 17.36 LIG 0.21  HD
ENDBRANCH 16 18
ENDBRANCH 15 16
BRANCH 15 20
ATOM     20  C   THR C   4      28.923  15.824  24.885  1.00 14.69 LIG 0.24  C 
ATOM     21  N   GLN C   5      28.108  16.718  24.331  1.00 15.36 LIG-0.35  N 
ATOM     22 H    GLN C   5      28.280  17.141  23.603  1.00 15.36 LIG 0.16  HD
ATOM     23 O    THR C   4      28.737  15.346  26.010  1.00 15.54 LIG-0.27  OA
BRANCH 21 24
ATOM     24  CA  GLN C   5      26.827  17.056  24.935  1.00 16.48 LIG 0.18  C 
BRANCH 24 25
ATOM     25  C   GLN C   5      25.960  15.810  25.029  1.00 17.30 LIG 0.24  C 
ATOM     26 O    GLN C   5      25.243  15.615  26.019  1.00 19.53 LIG-0.27  OA
ATOM     27  N   VAL C   6      26.052  14.950  24.019  1.00 16.49 LIG-0.34  N 
ATOM     28 H    VAL C   6      26.544  15.079  23.325  1.00 16.49 LIG 0.16  HD
BRANCH 27 29
ATOM     29  CA  VAL C   6      25.312  13.691  24.004  1.00 18.07 LIG 0.19  C 
BRANCH 29 30
ATOM     30  CB  VAL C   6      24.107  13.749  23.045  1.00 20.19 LIG 0.01  C 
ATOM     31  CG1 VAL C   6      24.562  13.982  21.617  1.00 23.48 LIG 0.01  C 
ATOM     32  CG2 VAL C   6      23.286  12.470  23.139  1.00 21.65 LIG 0.01  C 
ENDBRANCH 29 30
BRANCH 29 33
ATOM     33  C   VAL C   6      26.215  12.519  23.641  1.00 18.86 LIG 0.20  C 
ATOM     34 O    VAL C   6      27.295  12.702  23.049  1.00 20.67 LIG-0.65  OA
ATOM     35 OXT  VAL C   6      25.862  11.361  23.922  1.00 19.38 LIG-0.65  OA
ENDBRANCH 29 33
ENDBRANCH 27 29
ENDBRANCH 24 25
BRANCH 24 36
ATOM     36  CB  GLN C   5      26.105  18.097  24.080  1.00 21.66 LIG 0.04  C 
BRANCH 36 37
ATOM     37  CG  GLN C   5      25.186  19.033  24.844  1.00 28.10 LIG 0.10  C 
BRANCH 37 38
ATOM     38  CD  GLN C   5      24.997  20.369  24.137  1.00 33.44 LIG 0.21  C 
ATOM     39  NE2 GLN C   5      24.047  21.164  24.616  1.00 35.38 LIG-0.37  N 
ATOM     40 21HE GLN C   5      23.578  20.916  25.292  1.00 35.38 LIG 0.16  HD
ATOM     41 22HE GLN C   5      23.902  21.929  24.250  1.00 35.38 LIG 0.16  HD
ATOM     42 OE1  GLN C   5      25.697  20.676  23.171  1.00 34.39 LIG-0.27  OA
ENDBRANCH 37 38
ENDBRANCH 36 37
ENDBRANCH 24 36
ENDBRANCH 21 24
ENDBRANCH 15 20
ENDBRANCH 12 15
ENDBRANCH 5 11
ENDBRANCH 3 5
BRANCH 1 43
ATOM     43  CA  ARG C   2      28.401  20.836  22.869  1.00 18.81 LIG 0.18  C 
BRANCH 43 44
ATOM     44  CB  ARG C   2      28.459  21.661  21.586  1.00 19.04 LIG 0.04  C 
BRANCH 44 45
ATOM     45  CG  ARG C   2      29.848  22.188  21.292  1.00 18.27 LIG 0.02  C 
BRANCH 45 46
ATOM     46  CD  ARG C   2      30.429  21.493  20.077  1.00 20.59 LIG 0.14  C 
BRANCH 46 47
ATOM     47  NE  ARG C   2      31.755  20.955  20.366  1.00 21.96 LIG-0.23  N 
ATOM     48 HE   ARG C   2      32.353  21.498  20.661  1.00 21.96 LIG 0.18  HD
ATOM     49  CZ  ARG C   2      32.098  19.682  20.201  1.00 22.93 LIG 0.67  C 
ATOM     50  NH2 ARG C   2      33.326  19.284  20.494  1.00 24.61 LIG-0.23  N 
ATOM     51  NH1 ARG C   2      31.213  18.808  19.742  1.00 22.65 LIG-0.23  N 
ATOM     52 1HH2 ARG C   2      33.902  19.850  20.791  1.00 24.61 LIG 0.17  HD
ATOM     53 2HH2 ARG C   2      33.548  18.460  20.387  1.00 24.61 LIG 0.17  HD
ATOM     54 1HH1 ARG C   2      30.415  19.065  19.550  1.00 22.65 LIG 0.17  HD
ATOM     55 2HH1 ARG C   2      31.436  17.984  19.636  1.00 22.65 LIG 0.17  HD
ENDBRANCH 46 47
ENDBRANCH 45 46
ENDBRANCH 44 45
ENDBRANCH 43 44
BRANCH 43 56
ATOM     56  N   ARG C   2      28.735  21.675  24.014  1.00 21.07 LIG-0.35  N 
ATOM     57  C   ARG C   1      28.639  21.204  25.255  1.00 27.96 LIG 0.25  C 
ATOM     58 O    ARG C   1      28.226  20.074  25.513  1.00 30.47 LIG-0.27  OA
ATOM     59 H    ARG C   2      28.991  22.472  23.816  1.00 21.07 LIG 0.16  HD
BRANCH 57 60
ATOM     60  CA  ARG C   1      29.074  22.137  26.378  1.00 31.07 LIG 0.27  C 
BRANCH 60 61
ATOM     61  N   ARG C   1      29.369  23.474  25.863  1.00 32.37 LIG-0.07  N 
ATOM     62 H2   ARG C   1      28.608  23.892  25.668  1.00 32.37 LIG 0.28  HD
ATOM     63 H1   ARG C   1      29.867  23.406  25.128  1.00 32.37 LIG 0.28  HD
ATOM     64 H3   ARG C   1      29.813  23.938  26.479  1.00 32.37 LIG 0.28  HD
ENDBRANCH 60 61
BRANCH 60 65
ATOM     65  CB  ARG C   1      27.978  22.187  27.444  1.00 35.21 LIG 0.04  C 
BRANCH 65 66
ATOM     66  CG  ARG C   1      28.196  23.286  28.481  1.00 38.18 LIG 0.02  C 
BRANCH 66 67
ATOM     67  CD  ARG C   1      27.045  23.379  29.471  1.00 40.83 LIG 0.14  C 
BRANCH 67 68
ATOM     68  NE  ARG C   1      26.677  24.763  29.749  1.00 41.61 LIG-0.23  N 
ATOM     69  CZ  ARG C   1      27.079  25.443  30.818  1.00 42.69 LIG 0.67  C 
ATOM     70  NH1 ARG C   1      27.864  24.865  31.720  1.00 43.45 LIG-0.23  N 
ATOM     71  NH2 ARG C   1      26.697  26.703  30.984  1.00 42.77 LIG-0.23  N 
ATOM     72 1HH1 ARG C   1      28.113  24.049  31.613  1.00 43.45 LIG 0.17  HD
ATOM     73 2HH1 ARG C   1      28.122  25.306  32.412  1.00 43.45 LIG 0.17  HD
ATOM     74 1HH2 ARG C   1      26.189  27.079  30.400  1.00 42.77 LIG 0.17  HD
ATOM     75 2HH2 ARG C   1      26.956  27.143  31.676  1.00 42.77 LIG 0.17  HD
ATOM     76 HE   ARG C   1      26.168  25.165  29.184  1.00 41.61 LIG 0.18  HD
ENDBRANCH 67 68
ENDBRANCH 66 67
ENDBRANCH 65 66
ENDBRANCH 60 65
ENDBRANCH 57 60
ENDBRANCH 43 56
ENDBRANCH 1 43
TORSDOF 29
ENDMDL
MODEL 24
USER: ADFR SOLUTION from run 80
USER: SCORE 20.318074 LL:  -7.191 LR: -15.451 RR:   0.000 FEB:  -6.800
USER: RMSD 11.253665
USER: SEED 79
USER: STATUS searching
USER: GENES 31
USER: genes 0 Translation |==|  0.79419 0.59822 0.35201
USER: genes 1 Rotation |==|  0.58844 0.79898 0.11635 0.57487
USER: genes 2 Torsion [C]-N--CA-[CB] |==|  0.25875
USER: genes 3 Torsion [N]-CA--CB-[CG] |==|  0.79288
USER: genes 4 Torsion [CA]-CB--CG-[CD] |==|  0.24723
USER: genes 5 Torsion [CB]-CG--CD-[OE2] |==|  0.14041
USER: genes 6 Torsion [N]-CA--C-[N] |==|  0.01401
USER: genes 7 Torsion [C]-N--CA-[CB] |==|  0.22352
USER: genes 8 Torsion [N]-CA--CB-[CG2] |==|  0.17759
USER: genes 9 Torsion [CA]-CB--OG1-[HG1] |==|  0.39642
USER: genes 10 Torsion [N]-CA--C-[N] |==|  0.45681
USER: genes 11 Torsion [C]-N--CA-[C] |==|  0.82664
USER: genes 12 Torsion [N]-CA--C-[N] |==|  0.33049
USER: genes 13 Torsion [C]-N--CA-[CB] |==|  0.27657
USER: genes 14 Torsion [N]-CA--CB-[CG2] |==|  0.93189
USER: genes 15 Torsion [N]-CA--C-[OXT] |==|  0.07534
USER: genes 16 Torsion [N]-CA--CB-[CG] |==|  0.50995
USER: genes 17 Torsion [CA]-CB--CG-[CD] |==|  0.15211
USER: genes 18 Torsion [CB]-CG--CD-[OE1] |==|  0.18944
USER: genes 19 Torsion [N]-C--CA-[N] |==|  0.86764
USER: genes 20 Torsion [C]-CA--CB-[CG] |==|  0.37167
USER: genes 21 Torsion [CA]-CB--CG-[CD] |==|  0.10667
USER: genes 22 Torsion [CB]-CG--CD-[NE] |==|  0.56774
USER: genes 23 Torsion [CG]-CD--NE-[HE] |==|  0.81560
USER: genes 24 Torsion [C]-CA--N-[C] |==|  0.66205
USER: genes 25 Torsion [N]-C--CA-[N] |==|  0.84473
USER: genes 26 Torsion [C]-CA--N-[H2] |==|  0.09232
USER: genes 27 Torsion [C]-CA--CB-[CG] |==|  0.31448
USER: genes 28 Torsion [CA]-CB--CG-[CD] |==|  0.32797
USER: genes 29 Torsion [CB]-CG--CD-[NE] |==|  0.67212
USER: genes 30 Torsion [CG]-CD--NE-[CZ] |==|  0.27606
ROOT
ATOM      1  C   ARG C   2      32.474  21.869  22.967  1.00 17.64 LIG 0.24  C 
ATOM      2 O    ARG C   2      33.086  22.488  22.091  1.00 18.48 LIG-0.27  OA
ATOM      3  N   GLU C   3      31.429  21.093  22.697  1.00 16.82 LIG-0.35  N 
ATOM      4 H    GLU C   3      30.990  20.649  23.288  1.00 16.82 LIG 0.16  HD
ENDROOT
BRANCH 3 5
ATOM      5  CA  GLU C   3      30.940  20.936  21.331  1.00 17.00 LIG 0.18  C 
BRANCH 5 6
ATOM      6  CB  GLU C   3      31.583  19.709  20.666  1.00 16.91 LIG 0.04  C 
BRANCH 6 7
ATOM      7  CG  GLU C   3      33.042  19.936  20.267  1.00 19.77 LIG 0.12  C 
BRANCH 7 8
ATOM      8  CD  GLU C   3      34.019  19.586  21.373  1.00 23.53 LIG 0.17  C 
ATOM      9 OE2  GLU C   3      33.917  18.475  21.930  1.00 22.35 LIG-0.65  OA
ATOM     10 OE1  GLU C   3      34.886  20.423  21.685  1.00 28.80 LIG-0.65  OA
ENDBRANCH 7 8
ENDBRANCH 6 7
ENDBRANCH 5 6
BRANCH 5 11
ATOM     11  C   GLU C   3      29.428  20.774  21.376  1.00 16.25 LIG 0.24  C 
ATOM     12  N   THR C   4      28.835  20.905  22.566  1.00 14.90 LIG-0.34  N 
ATOM     13 H    THR C   4      29.251  21.114  23.289  1.00 14.90 LIG 0.16  HD
ATOM     14 O    GLU C   3      28.810  20.526  20.338  1.00 19.18 LIG-0.27  OA
BRANCH 12 15
ATOM     15  CA  THR C   4      27.402  20.699  22.734  1.00 14.85 LIG 0.20  C 
BRANCH 15 16
ATOM     16  CB  THR C   4      27.080  19.205  22.829  1.00 16.75 LIG 0.15  C 
ATOM     17  CG2 THR C   4      27.718  18.596  24.072  1.00 16.70 LIG 0.04  C 
BRANCH 16 18
ATOM     18 OG1  THR C   4      25.660  19.034  22.872  1.00 17.36 LIG-0.39  OA
ATOM     19 HG1  THR C   4      25.447  18.348  22.437  1.00 17.36 LIG 0.21  HD
ENDBRANCH 16 18
ENDBRANCH 15 16
BRANCH 15 20
ATOM     20  C   THR C   4      26.913  21.398  23.994  1.00 14.69 LIG 0.24  C 
ATOM     21  N   GLN C   5      25.597  21.568  24.108  1.00 15.36 LIG-0.35  N 
ATOM     22 H    GLN C   5      25.036  21.418  23.474  1.00 15.36 LIG 0.16  HD
ATOM     23 O    THR C   4      27.718  21.769  24.854  1.00 15.54 LIG-0.27  OA
BRANCH 21 24
ATOM     24  CA  GLN C   5      24.996  22.033  25.349  1.00 16.48 LIG 0.18  C 
BRANCH 24 25
ATOM     25  C   GLN C   5      25.264  21.027  26.457  1.00 17.30 LIG 0.24  C 
ATOM     26 O    GLN C   5      24.816  19.875  26.383  1.00 19.53 LIG-0.27  OA
ATOM     27  N   VAL C   6      25.961  21.468  27.500  1.00 16.49 LIG-0.34  N 
ATOM     28 H    VAL C   6      26.280  22.265  27.558  1.00 16.49 LIG 0.16  HD
BRANCH 27 29
ATOM     29  CA  VAL C   6      26.248  20.622  28.655  1.00 18.07 LIG 0.19  C 
BRANCH 29 30
ATOM     30  CB  VAL C   6      27.672  20.037  28.593  1.00 20.19 LIG 0.01  C 
ATOM     31  CG1 VAL C   6      27.721  18.660  29.226  1.00 23.48 LIG 0.01  C 
ATOM     32  CG2 VAL C   6      28.163  19.977  27.152  1.00 21.65 LIG 0.01  C 
ENDBRANCH 29 30
BRANCH 29 33
ATOM     33  C   VAL C   6      26.048  21.377  29.962  1.00 18.86 LIG 0.20  C 
ATOM     34 O    VAL C   6      26.665  21.050  30.993  1.00 20.67 LIG-0.65  OA
ATOM     35 OXT  VAL C   6      25.244  22.324  30.008  1.00 19.38 LIG-0.65  OA
ENDBRANCH 29 33
ENDBRANCH 27 29
ENDBRANCH 24 25
BRANCH 24 36
ATOM     36  CB  GLN C   5      23.486  22.184  25.173  1.00 21.66 LIG 0.04  C 
BRANCH 36 37
ATOM     37  CG  GLN C   5      22.749  22.746  26.375  1.00 28.10 LIG 0.10  C 
BRANCH 37 38
ATOM     38  CD  GLN C   5      23.321  24.080  26.838  1.00 33.44 LIG 0.21  C 
ATOM     39  NE2 GLN C   5      23.935  24.085  28.016  1.00 35.38 LIG-0.37  N 
ATOM     40 21HE GLN C   5      23.994  23.359  28.474  1.00 35.38 LIG 0.16  HD
ATOM     41 22HE GLN C   5      24.273  24.814  28.320  1.00 35.38 LIG 0.16  HD
ATOM     42 OE1  GLN C   5      23.208  25.090  26.143  1.00 34.39 LIG-0.27  OA
ENDBRANCH 37 38
ENDBRANCH 36 37
ENDBRANCH 24 36
ENDBRANCH 21 24
ENDBRANCH 15 20
ENDBRANCH 12 15
ENDBRANCH 5 11
ENDBRANCH 3 5
BRANCH 1 43
ATOM     43  CA  ARG C   2      32.875  21.996  24.434  1.00 18.81 LIG 0.18  C 
BRANCH 43 44
ATOM     44  CB  ARG C   2      33.541  20.703  24.898  1.00 19.04 LIG 0.04  C 
BRANCH 44 45
ATOM     45  CG  ARG C   2      34.814  20.949  25.680  1.00 18.27 LIG 0.02  C 
BRANCH 45 46
ATOM     46  CD  ARG C   2      34.656  22.160  26.576  1.00 20.59 LIG 0.14  C 
BRANCH 46 47
ATOM     47  NE  ARG C   2      35.953  22.756  26.885  1.00 21.96 LIG-0.23  N 
ATOM     48 HE   ARG C   2      36.501  22.298  27.363  1.00 21.96 LIG 0.18  HD
ATOM     49  CZ  ARG C   2      36.340  23.960  26.474  1.00 22.93 LIG 0.67  C 
ATOM     50  NH2 ARG C   2      37.539  24.416  26.801  1.00 24.61 LIG-0.23  N 
ATOM     51  NH1 ARG C   2      35.527  24.706  25.740  1.00 22.65 LIG-0.23  N 
ATOM     52 1HH2 ARG C   2      38.067  23.934  27.278  1.00 24.61 LIG 0.17  HD
ATOM     53 2HH2 ARG C   2      37.789  25.195  26.535  1.00 24.61 LIG 0.17  HD
ATOM     54 1HH1 ARG C   2      34.747  24.412  25.529  1.00 22.65 LIG 0.17  HD
ATOM     55 2HH1 ARG C   2      35.779  25.484  25.475  1.00 22.65 LIG 0.17  HD
ENDBRANCH 46 47
ENDBRANCH 45 46
ENDBRANCH 44 45
ENDBRANCH 43 44
BRANCH 43 56
ATOM     56  N   ARG C   2      31.698  22.269  25.252  1.00 21.07 LIG-0.35  N 
ATOM     57  C   ARG C   1      31.630  23.364  26.005  1.00 27.96 LIG 0.25  C 
ATOM     58 O    ARG C   1      32.552  24.173  26.095  1.00 30.47 LIG-0.27  OA
ATOM     59 H    ARG C   2      31.077  21.675  25.200  1.00 21.07 LIG 0.16  HD
BRANCH 57 60
ATOM     60  CA  ARG C   1      30.332  23.590  26.770  1.00 31.07 LIG 0.27  C 
BRANCH 60 61
ATOM     61  N   ARG C   1      29.185  23.598  25.863  1.00 32.37 LIG-0.07  N 
ATOM     62 H2   ARG C   1      29.334  23.035  25.190  1.00 32.37 LIG 0.28  HD
ATOM     63 H1   ARG C   1      29.066  24.420  25.542  1.00 32.37 LIG 0.28  HD
ATOM     64 H3   ARG C   1      28.455  23.344  26.305  1.00 32.37 LIG 0.28  HD
ENDBRANCH 60 61
BRANCH 60 65
ATOM     65  CB  ARG C   1      30.183  22.507  27.839  1.00 35.21 LIG 0.04  C 
BRANCH 65 66
ATOM     66  CG  ARG C   1      30.271  23.050  29.262  1.00 38.18 LIG 0.02  C 
BRANCH 66 67
ATOM     67  CD  ARG C   1      28.988  22.821  30.047  1.00 40.83 LIG 0.14  C 
BRANCH 67 68
ATOM     68  NE  ARG C   1      28.371  24.077  30.458  1.00 41.61 LIG-0.23  N 
ATOM     69  CZ  ARG C   1      27.354  24.652  29.825  1.00 42.69 LIG 0.67  C 
ATOM     70  NH1 ARG C   1      26.836  24.085  28.741  1.00 43.45 LIG-0.23  N 
ATOM     71  NH2 ARG C   1      26.853  25.795  30.277  1.00 42.77 LIG-0.23  N 
ATOM     72 1HH1 ARG C   1      27.158  23.344  28.448  1.00 43.45 LIG 0.17  HD
ATOM     73 2HH1 ARG C   1      26.178  24.459  28.333  1.00 43.45 LIG 0.17  HD
ATOM     74 1HH2 ARG C   1      27.187  26.163  30.979  1.00 42.77 LIG 0.17  HD
ATOM     75 2HH2 ARG C   1      26.195  26.168  29.867  1.00 42.77 LIG 0.17  HD
ATOM     76 HE   ARG C   1      28.686  24.470  31.155  1.00 41.61 LIG 0.18  HD
ENDBRANCH 67 68
ENDBRANCH 66 67
ENDBRANCH 65 66
ENDBRANCH 60 65
ENDBRANCH 57 60
ENDBRANCH 43 56
ENDBRANCH 1 43
TORSDOF 29
ENDMDL
MODEL 25
USER: ADFR SOLUTION from run 151
USER: SCORE 19.691343 LL:  -6.185 LR: -15.450 RR:   0.000 FEB:  -6.799
USER: RMSD 11.179639
USER: SEED 150
USER: STATUS no improvement in best in 16 clusters for 5 generations
USER: GENES 31
USER: genes 0 Translation |==|  0.67188 0.54547 0.33563
USER: genes 1 Rotation |==|  0.36933 0.69397 0.32424 0.90548
USER: genes 2 Torsion [C]-N--CA-[CB] |==|  0.22738
USER: genes 3 Torsion [N]-CA--CB-[CG] |==|  0.18391
USER: genes 4 Torsion [CA]-CB--CG-[CD] |==|  0.65840
USER: genes 5 Torsion [CB]-CG--CD-[OE2] |==|  0.47122
USER: genes 6 Torsion [N]-CA--C-[N] |==|  0.92405
USER: genes 7 Torsion [C]-N--CA-[CB] |==|  0.48003
USER: genes 8 Torsion [N]-CA--CB-[CG2] |==|  0.12926
USER: genes 9 Torsion [CA]-CB--OG1-[HG1] |==|  0.79008
USER: genes 10 Torsion [N]-CA--C-[N] |==|  0.45027
USER: genes 11 Torsion [C]-N--CA-[C] |==|  0.84984
USER: genes 12 Torsion [N]-CA--C-[N] |==|  0.39789
USER: genes 13 Torsion [C]-N--CA-[CB] |==|  0.25197
USER: genes 14 Torsion [N]-CA--CB-[CG2] |==|  0.13270
USER: genes 15 Torsion [N]-CA--C-[OXT] |==|  0.52637
USER: genes 16 Torsion [N]-CA--CB-[CG] |==|  0.62689
USER: genes 17 Torsion [CA]-CB--CG-[CD] |==|  0.97094
USER: genes 18 Torsion [CB]-CG--CD-[OE1] |==|  0.69510
USER: genes 19 Torsion [N]-C--CA-[N] |==|  0.24764
USER: genes 20 Torsion [C]-CA--CB-[CG] |==|  0.21376
USER: genes 21 Torsion [CA]-CB--CG-[CD] |==|  0.34664
USER: genes 22 Torsion [CB]-CG--CD-[NE] |==|  0.23115
USER: genes 23 Torsion [CG]-CD--NE-[HE] |==|  0.89215
USER: genes 24 Torsion [C]-CA--N-[C] |==|  0.73156
USER: genes 25 Torsion [N]-C--CA-[N] |==|  0.17030
USER: genes 26 Torsion [C]-CA--N-[H2] |==|  0.31396
USER: genes 27 Torsion [C]-CA--CB-[CG] |==|  0.26253
USER: genes 28 Torsion [CA]-CB--CG-[CD] |==|  0.16997
USER: genes 29 Torsion [CB]-CG--CD-[NE] |==|  0.49368
USER: genes 30 Torsion [CG]-CD--NE-[CZ] |==|  0.72036
ROOT
ATOM      1  C   ARG C   2      29.080  20.642  22.660  1.00 17.64 LIG 0.24  C 
ATOM      2 O    ARG C   2      28.636  21.181  21.641  1.00 18.48 LIG-0.27  OA
ATOM      3  N   GLU C   3      30.189  19.911  22.657  1.00 16.82 LIG-0.35  N 
ATOM      4 H    GLU C   3      30.519  19.529  23.353  1.00 16.82 LIG 0.16  HD
ENDROOT
BRANCH 3 5
ATOM      5  CA  GLU C   3      30.948  19.697  21.428  1.00 17.00 LIG 0.18  C 
BRANCH 5 6
ATOM      6  CB  GLU C   3      31.863  20.899  21.146  1.00 16.91 LIG 0.04  C 
BRANCH 6 7
ATOM      7  CG  GLU C   3      32.974  21.066  22.183  1.00 19.77 LIG 0.12  C 
BRANCH 7 8
ATOM      8  CD  GLU C   3      32.958  22.428  22.852  1.00 23.53 LIG 0.17  C 
ATOM      9 OE2  GLU C   3      33.685  22.613  23.847  1.00 22.35 LIG-0.65  OA
ATOM     10 OE1  GLU C   3      32.215  23.310  22.382  1.00 28.80 LIG-0.65  OA
ENDBRANCH 7 8
ENDBRANCH 6 7
ENDBRANCH 5 6
BRANCH 5 11
ATOM     11  C   GLU C   3      31.778  18.433  21.588  1.00 16.25 LIG 0.24  C 
ATOM     12  N   THR C   4      32.136  18.090  22.829  1.00 14.90 LIG-0.34  N 
ATOM     13 H    THR C   4      31.891  18.517  23.534  1.00 14.90 LIG 0.16  HD
ATOM     14 O    GLU C   3      32.094  17.780  20.591  1.00 19.18 LIG-0.27  OA
BRANCH 12 15
ATOM     15  CA  THR C   4      32.992  16.938  23.088  1.00 14.85 LIG 0.20  C 
BRANCH 15 16
ATOM     16  CB  THR C   4      33.386  16.883  24.566  1.00 16.75 LIG 0.15  C 
ATOM     17  CG2 THR C   4      32.168  17.102  25.457  1.00 16.70 LIG 0.04  C 
BRANCH 16 18
ATOM     18 OG1  THR C   4      33.974  15.608  24.846  1.00 17.36 LIG-0.39  OA
ATOM     19 HG1  THR C   4      33.372  15.024  24.886  1.00 17.36 LIG 0.21  HD
ENDBRANCH 16 18
ENDBRANCH 15 16
BRANCH 15 20
ATOM     20  C   THR C   4      32.271  15.652  22.713  1.00 14.69 LIG 0.24  C 
ATOM     21  N   GLN C   5      33.030  14.572  22.545  1.00 15.36 LIG-0.35  N 
ATOM     22 H    GLN C   5      33.890  14.586  22.519  1.00 15.36 LIG 0.16  HD
ATOM     23 O    THR C   4      31.042  15.639  22.587  1.00 15.54 LIG-0.27  OA
BRANCH 21 24
ATOM     24  CA  GLN C   5      32.445  13.248  22.389  1.00 16.48 LIG 0.18  C 
BRANCH 24 25
ATOM     25  C   GLN C   5      31.507  12.962  23.551  1.00 17.30 LIG 0.24  C 
ATOM     26 O    GLN C   5      31.796  13.329  24.698  1.00 19.53 LIG-0.27  OA
ATOM     27  N   VAL C   6      30.405  12.276  23.264  1.00 16.49 LIG-0.34  N 
ATOM     28 H    VAL C   6      30.193  12.021  22.470  1.00 16.49 LIG 0.16  HD
BRANCH 27 29
ATOM     29  CA  VAL C   6      29.442  11.891  24.293  1.00 18.07 LIG 0.19  C 
BRANCH 29 30
ATOM     30  CB  VAL C   6      28.347  12.959  24.478  1.00 20.19 LIG 0.01  C 
ATOM     31  CG1 VAL C   6      28.883  14.160  25.233  1.00 23.48 LIG 0.01  C 
ATOM     32  CG2 VAL C   6      27.785  13.387  23.129  1.00 21.65 LIG 0.01  C 
ENDBRANCH 29 30
BRANCH 29 33
ATOM     33  C   VAL C   6      28.810  10.540  23.986  1.00 18.86 LIG 0.20  C 
ATOM     34 O    VAL C   6      29.235   9.830  23.054  1.00 20.67 LIG-0.65  OA
ATOM     35 OXT  VAL C   6      27.844  10.145  24.661  1.00 19.38 LIG-0.65  OA
ENDBRANCH 29 33
ENDBRANCH 27 29
ENDBRANCH 24 25
BRANCH 24 36
ATOM     36  CB  GLN C   5      33.547  12.189  22.370  1.00 21.66 LIG 0.04  C 
BRANCH 36 37
ATOM     37  CG  GLN C   5      33.416  11.141  21.279  1.00 28.10 LIG 0.10  C 
BRANCH 37 38
ATOM     38  CD  GLN C   5      32.070  11.203  20.570  1.00 33.44 LIG 0.21  C 
ATOM     39  NE2 GLN C   5      31.859  12.256  19.788  1.00 35.38 LIG-0.37  N 
ATOM     40 21HE GLN C   5      32.469  12.857  19.702  1.00 35.38 LIG 0.16  HD
ATOM     41 22HE GLN C   5      31.114  12.336  19.367  1.00 35.38 LIG 0.16  HD
ATOM     42 OE1  GLN C   5      31.232  10.315  20.729  1.00 34.39 LIG-0.27  OA
ENDBRANCH 37 38
ENDBRANCH 36 37
ENDBRANCH 24 36
ENDBRANCH 21 24
ENDBRANCH 15 20
ENDBRANCH 12 15
ENDBRANCH 5 11
ENDBRANCH 3 5
BRANCH 1 43
ATOM     43  CA  ARG C   2      28.341  20.765  23.990  1.00 18.81 LIG 0.18  C 
BRANCH 43 44
ATOM     44  CB  ARG C   2      26.846  20.935  23.733  1.00 19.04 LIG 0.04  C 
BRANCH 44 45
ATOM     45  CG  ARG C   2      26.165  19.635  23.359  1.00 18.27 LIG 0.02  C 
BRANCH 45 46
ATOM     46  CD  ARG C   2      25.002  19.363  24.292  1.00 20.59 LIG 0.14  C 
BRANCH 46 47
ATOM     47  NE  ARG C   2      23.805  20.078  23.860  1.00 21.96 LIG-0.23  N 
ATOM     48 HE   ARG C   2      23.903  20.874  23.550  1.00 21.96 LIG 0.18  HD
ATOM     49  CZ  ARG C   2      22.574  19.578  23.914  1.00 22.93 LIG 0.67  C 
ATOM     50  NH2 ARG C   2      21.548  20.301  23.495  1.00 24.61 LIG-0.23  N 
ATOM     51  NH1 ARG C   2      22.372  18.358  24.390  1.00 22.65 LIG-0.23  N 
ATOM     52 1HH2 ARG C   2      21.677  21.094  23.187  1.00 24.61 LIG 0.17  HD
ATOM     53 2HH2 ARG C   2      20.752  19.978  23.530  1.00 24.61 LIG 0.17  HD
ATOM     54 1HH1 ARG C   2      23.038  17.887  24.664  1.00 22.65 LIG 0.17  HD
ATOM     55 2HH1 ARG C   2      21.575  18.036  24.424  1.00 22.65 LIG 0.17  HD
ENDBRANCH 46 47
ENDBRANCH 45 46
ENDBRANCH 44 45
ENDBRANCH 43 44
BRANCH 43 56
ATOM     56  N   ARG C   2      28.849  21.908  24.740  1.00 21.07 LIG-0.35  N 
ATOM     57  C   ARG C   1      29.777  21.748  25.680  1.00 27.96 LIG 0.25  C 
ATOM     58 O    ARG C   1      30.221  20.648  26.004  1.00 30.47 LIG-0.27  OA
ATOM     59 H    ARG C   2      28.503  22.665  24.522  1.00 21.07 LIG 0.16  HD
BRANCH 57 60
ATOM     60  CA  ARG C   1      30.289  23.012  26.360  1.00 31.07 LIG 0.27  C 
BRANCH 60 61
ATOM     61  N   ARG C   1      29.206  23.710  27.051  1.00 32.37 LIG-0.07  N 
ATOM     62 H2   ARG C   1      29.346  23.679  27.930  1.00 32.37 LIG 0.28  HD
ATOM     63 H1   ARG C   1      28.430  23.318  26.860  1.00 32.37 LIG 0.28  HD
ATOM     64 H3   ARG C   1      29.182  24.559  26.785  1.00 32.37 LIG 0.28  HD
ENDBRANCH 60 61
BRANCH 60 65
ATOM     65  CB  ARG C   1      31.413  22.643  27.328  1.00 35.21 LIG 0.04  C 
BRANCH 65 66
ATOM     66  CG  ARG C   1      32.804  22.773  26.714  1.00 38.18 LIG 0.02  C 
BRANCH 66 67
ATOM     67  CD  ARG C   1      33.110  24.198  26.278  1.00 40.83 LIG 0.14  C 
BRANCH 67 68
ATOM     68  NE  ARG C   1      34.460  24.325  25.742  1.00 41.61 LIG-0.23  N 
ATOM     69  CZ  ARG C   1      35.492  24.812  26.424  1.00 42.69 LIG 0.67  C 
ATOM     70  NH1 ARG C   1      35.330  25.224  27.676  1.00 43.45 LIG-0.23  N 
ATOM     71  NH2 ARG C   1      36.688  24.885  25.854  1.00 42.77 LIG-0.23  N 
ATOM     72 1HH1 ARG C   1      34.556  25.176  28.048  1.00 43.45 LIG 0.17  HD
ATOM     73 2HH1 ARG C   1      35.999  25.539  28.115  1.00 43.45 LIG 0.17  HD
ATOM     74 1HH2 ARG C   1      36.795  24.617  25.043  1.00 42.77 LIG 0.17  HD
ATOM     75 2HH2 ARG C   1      37.356  25.200  26.295  1.00 42.77 LIG 0.17  HD
ATOM     76 HE   ARG C   1      34.597  24.070  24.932  1.00 41.61 LIG 0.18  HD
ENDBRANCH 67 68
ENDBRANCH 66 67
ENDBRANCH 65 66
ENDBRANCH 60 65
ENDBRANCH 57 60
ENDBRANCH 43 56
ENDBRANCH 1 43
TORSDOF 29
ENDMDL
MODEL 26
USER: ADFR SOLUTION from run 123
USER: SCORE 19.180753 LL:  -6.102 LR: -15.453 RR:   0.000 FEB:  -6.803
USER: RMSD 7.325390
USER: SEED 122
USER: STATUS no improvement in best in 3 clusters for 5 generations
USER: GENES 31
USER: genes 0 Translation |==|  0.54563 0.59325 0.58727
USER: genes 1 Rotation |==|  0.00359 0.50548 0.54622 0.53750
USER: genes 2 Torsion [C]-N--CA-[CB] |==|  0.36813
USER: genes 3 Torsion [N]-CA--CB-[CG] |==|  0.94257
USER: genes 4 Torsion [CA]-CB--CG-[CD] |==|  0.76394
USER: genes 5 Torsion [CB]-CG--CD-[OE2] |==|  0.28389
USER: genes 6 Torsion [N]-CA--C-[N] |==|  0.91309
USER: genes 7 Torsion [C]-N--CA-[CB] |==|  0.83410
USER: genes 8 Torsion [N]-CA--CB-[CG2] |==|  0.55703
USER: genes 9 Torsion [CA]-CB--OG1-[HG1] |==|  0.13528
USER: genes 10 Torsion [N]-CA--C-[N] |==|  0.28889
USER: genes 11 Torsion [C]-N--CA-[C] |==|  0.19334
USER: genes 12 Torsion [N]-CA--C-[N] |==|  0.07013
USER: genes 13 Torsion [C]-N--CA-[CB] |==|  0.47201
USER: genes 14 Torsion [N]-CA--CB-[CG2] |==|  0.55040
USER: genes 15 Torsion [N]-CA--C-[OXT] |==|  0.90283
USER: genes 16 Torsion [N]-CA--CB-[CG] |==|  0.77992
USER: genes 17 Torsion [CA]-CB--CG-[CD] |==|  0.57201
USER: genes 18 Torsion [CB]-CG--CD-[OE1] |==|  0.90483
USER: genes 19 Torsion [N]-C--CA-[N] |==|  0.27347
USER: genes 20 Torsion [C]-CA--CB-[CG] |==|  0.09811
USER: genes 21 Torsion [CA]-CB--CG-[CD] |==|  0.15891
USER: genes 22 Torsion [CB]-CG--CD-[NE] |==|  0.20637
USER: genes 23 Torsion [CG]-CD--NE-[HE] |==|  0.82747
USER: genes 24 Torsion [C]-CA--N-[C] |==|  0.78889
USER: genes 25 Torsion [N]-C--CA-[N] |==|  0.66418
USER: genes 26 Torsion [C]-CA--N-[H2] |==|  0.97753
USER: genes 27 Torsion [C]-CA--CB-[CG] |==|  0.20247
USER: genes 28 Torsion [CA]-CB--CG-[CD] |==|  0.06400
USER: genes 29 Torsion [CB]-CG--CD-[NE] |==|  0.57984
USER: genes 30 Torsion [CG]-CD--NE-[CZ] |==|  0.26158
ROOT
ATOM      1  C   ARG C   2      25.576  21.753  27.378  1.00 17.64 LIG 0.24  C 
ATOM      2 O    ARG C   2      25.540  20.757  28.107  1.00 18.48 LIG-0.27  OA
ATOM      3  N   GLU C   3      26.484  21.904  26.420  1.00 16.82 LIG-0.35  N 
ATOM      4 H    GLU C   3      26.527  22.586  25.897  1.00 16.82 LIG 0.16  HD
ENDROOT
BRANCH 3 5
ATOM      5  CA  GLU C   3      27.504  20.889  26.180  1.00 17.00 LIG 0.18  C 
BRANCH 5 6
ATOM      6  CB  GLU C   3      27.601  20.566  24.681  1.00 16.91 LIG 0.04  C 
BRANCH 6 7
ATOM      7  CG  GLU C   3      26.347  20.958  23.899  1.00 19.77 LIG 0.12  C 
BRANCH 7 8
ATOM      8  CD  GLU C   3      25.269  19.890  23.935  1.00 23.53 LIG 0.17  C 
ATOM      9 OE2  GLU C   3      24.298  20.048  24.701  1.00 22.35 LIG-0.65  OA
ATOM     10 OE1  GLU C   3      25.398  18.894  23.200  1.00 28.80 LIG-0.65  OA
ENDBRANCH 7 8
ENDBRANCH 6 7
ENDBRANCH 5 6
BRANCH 5 11
ATOM     11  C   GLU C   3      28.837  21.415  26.689  1.00 16.25 LIG 0.24  C 
ATOM     12  N   THR C   4      29.036  22.735  26.629  1.00 14.90 LIG-0.34  N 
ATOM     13 H    THR C   4      28.444  23.298  26.361  1.00 14.90 LIG 0.16  HD
ATOM     14 O    GLU C   3      29.678  20.626  27.126  1.00 19.18 LIG-0.27  OA
BRANCH 12 15
ATOM     15  CA  THR C   4      30.304  23.337  27.023  1.00 14.85 LIG 0.20  C 
BRANCH 15 16
ATOM     16  CB  THR C   4      30.618  23.020  28.487  1.00 16.75 LIG 0.15  C 
ATOM     17  CG2 THR C   4      31.626  24.017  29.049  1.00 16.70 LIG 0.04  C 
BRANCH 16 18
ATOM     18 OG1  THR C   4      29.406  23.068  29.247  1.00 17.36 LIG-0.39  OA
ATOM     19 HG1  THR C   4      28.813  22.619  28.856  1.00 17.36 LIG 0.21  HD
ENDBRANCH 16 18
ENDBRANCH 15 16
BRANCH 15 20
ATOM     20  C   THR C   4      31.431  22.814  26.145  1.00 14.69 LIG 0.24  C 
ATOM     21  N   GLN C   5      31.881  23.638  25.201  1.00 15.36 LIG-0.35  N 
ATOM     22 H    GLN C   5      31.501  24.379  24.988  1.00 15.36 LIG 0.16  HD
ATOM     23 O    THR C   4      31.891  21.682  26.328  1.00 15.54 LIG-0.27  OA
BRANCH 21 24
ATOM     24  CA  GLN C   5      33.083  23.335  24.438  1.00 16.48 LIG 0.18  C 
BRANCH 24 25
ATOM     25  C   GLN C   5      32.819  22.160  23.510  1.00 17.30 LIG 0.24  C 
ATOM     26 O    GLN C   5      33.754  21.459  23.099  1.00 19.53 LIG-0.27  OA
ATOM     27  N   VAL C   6      31.554  21.966  23.150  1.00 16.49 LIG-0.34  N 
ATOM     28 H    VAL C   6      30.897  22.444  23.433  1.00 16.49 LIG 0.16  HD
BRANCH 27 29
ATOM     29  CA  VAL C   6      31.166  20.904  22.225  1.00 18.07 LIG 0.19  C 
BRANCH 29 30
ATOM     30  CB  VAL C   6      29.636  20.731  22.165  1.00 20.19 LIG 0.01  C 
ATOM     31  CG1 VAL C   6      28.995  21.847  21.363  1.00 23.48 LIG 0.01  C 
ATOM     32  CG2 VAL C   6      29.275  19.375  21.572  1.00 21.65 LIG 0.01  C 
ENDBRANCH 29 30
BRANCH 29 33
ATOM     33  C   VAL C   6      31.721  21.153  20.828  1.00 18.86 LIG 0.20  C 
ATOM     34 O    VAL C   6      32.103  20.208  20.112  1.00 20.67 LIG-0.65  OA
ATOM     35 OXT  VAL C   6      31.811  22.317  20.401  1.00 19.38 LIG-0.65  OA
ENDBRANCH 29 33
ENDBRANCH 27 29
ENDBRANCH 24 25
BRANCH 24 36
ATOM     36  CB  GLN C   5      34.224  22.968  25.387  1.00 21.66 LIG 0.04  C 
BRANCH 36 37
ATOM     37  CG  GLN C   5      34.915  24.146  26.050  1.00 28.10 LIG 0.10  C 
BRANCH 37 38
ATOM     38  CD  GLN C   5      36.352  23.832  26.446  1.00 33.44 LIG 0.21  C 
ATOM     39  NE2 GLN C   5      37.224  24.830  26.358  1.00 35.38 LIG-0.37  N 
ATOM     40 21HE GLN C   5      36.965  25.605  26.091  1.00 35.38 LIG 0.16  HD
ATOM     41 22HE GLN C   5      38.047  24.701  26.570  1.00 35.38 LIG 0.16  HD
ATOM     42 OE1  GLN C   5      36.670  22.703  26.822  1.00 34.39 LIG-0.27  OA
ENDBRANCH 37 38
ENDBRANCH 36 37
ENDBRANCH 24 36
ENDBRANCH 21 24
ENDBRANCH 15 20
ENDBRANCH 12 15
ENDBRANCH 5 11
ENDBRANCH 3 5
BRANCH 1 43
ATOM     43  CA  ARG C   2      24.583  22.895  27.571  1.00 18.81 LIG 0.18  C 
BRANCH 43 44
ATOM     44  CB  ARG C   2      24.331  23.111  29.061  1.00 19.04 LIG 0.04  C 
BRANCH 44 45
ATOM     45  CG  ARG C   2      25.566  22.873  29.903  1.00 18.27 LIG 0.02  C 
BRANCH 45 46
ATOM     46  CD  ARG C   2      26.698  23.771  29.446  1.00 20.59 LIG 0.14  C 
BRANCH 46 47
ATOM     47  NE  ARG C   2      26.476  25.150  29.869  1.00 21.96 LIG-0.23  N 
ATOM     48 HE   ARG C   2      25.780  25.556  29.566  1.00 21.96 LIG 0.18  HD
ATOM     49  CZ  ARG C   2      27.278  25.820  30.690  1.00 22.93 LIG 0.67  C 
ATOM     50  NH2 ARG C   2      26.993  27.070  31.022  1.00 24.61 LIG-0.23  N 
ATOM     51  NH1 ARG C   2      28.366  25.240  31.178  1.00 22.65 LIG-0.23  N 
ATOM     52 1HH2 ARG C   2      26.288  27.448  30.706  1.00 24.61 LIG 0.17  HD
ATOM     53 2HH2 ARG C   2      27.512  27.503  31.553  1.00 24.61 LIG 0.17  HD
ATOM     54 1HH1 ARG C   2      28.554  24.429  30.962  1.00 22.65 LIG 0.17  HD
ATOM     55 2HH1 ARG C   2      28.884  25.674  31.709  1.00 22.65 LIG 0.17  HD
ENDBRANCH 46 47
ENDBRANCH 45 46
ENDBRANCH 44 45
ENDBRANCH 43 44
BRANCH 43 56
ATOM     56  N   ARG C   2      23.328  22.585  26.895  1.00 21.07 LIG-0.35  N 
ATOM     57  C   ARG C   1      23.224  22.683  25.572  1.00 27.96 LIG 0.25  C 
ATOM     58 O    ARG C   1      24.142  23.077  24.855  1.00 30.47 LIG-0.27  OA
ATOM     59 H    ARG C   2      22.688  22.343  27.416  1.00 21.07 LIG 0.16  HD
BRANCH 57 60
ATOM     60  CA  ARG C   1      21.891  22.274  24.957  1.00 31.07 LIG 0.27  C 
BRANCH 60 61
ATOM     61  N   ARG C   1      22.070  21.186  23.997  1.00 32.37 LIG-0.07  N 
ATOM     62 H2   ARG C   1      22.939  21.046  23.865  1.00 32.37 LIG 0.28  HD
ATOM     63 H1   ARG C   1      21.684  21.405  23.225  1.00 32.37 LIG 0.28  HD
ATOM     64 H3   ARG C   1      21.696  20.444  24.315  1.00 32.37 LIG 0.28  HD
ENDBRANCH 60 61
BRANCH 60 65
ATOM     65  CB  ARG C   1      20.925  21.870  26.073  1.00 35.21 LIG 0.04  C 
BRANCH 65 66
ATOM     66  CG  ARG C   1      20.407  23.057  26.879  1.00 38.18 LIG 0.02  C 
BRANCH 66 67
ATOM     67  CD  ARG C   1      20.489  24.362  26.102  1.00 40.83 LIG 0.14  C 
BRANCH 67 68
ATOM     68  NE  ARG C   1      20.655  25.512  26.984  1.00 41.61 LIG-0.23  N 
ATOM     69  CZ  ARG C   1      21.831  26.042  27.307  1.00 42.69 LIG 0.67  C 
ATOM     70  NH1 ARG C   1      22.953  25.522  26.822  1.00 43.45 LIG-0.23  N 
ATOM     71  NH2 ARG C   1      21.884  27.093  28.115  1.00 42.77 LIG-0.23  N 
ATOM     72 1HH1 ARG C   1      22.920  24.842  26.297  1.00 43.45 LIG 0.17  HD
ATOM     73 2HH1 ARG C   1      23.713  25.866  27.032  1.00 43.45 LIG 0.17  HD
ATOM     74 1HH2 ARG C   1      21.158  27.431  28.429  1.00 42.77 LIG 0.17  HD
ATOM     75 2HH2 ARG C   1      22.645  27.436  28.324  1.00 42.77 LIG 0.17  HD
ATOM     76 HE   ARG C   1      19.948  25.869  27.317  1.00 41.61 LIG 0.18  HD
ENDBRANCH 67 68
ENDBRANCH 66 67
ENDBRANCH 65 66
ENDBRANCH 60 65
ENDBRANCH 57 60
ENDBRANCH 43 56
ENDBRANCH 1 43
TORSDOF 29
ENDMDL
MODEL 27
USER: ADFR SOLUTION from run 136
USER: SCORE 18.841402 LL:  -5.859 LR: -15.421 RR:   0.000 FEB:  -6.770
USER: RMSD 8.487079
USER: SEED 135
USER: STATUS no improvement in best in 4 clusters for 5 generations
USER: GENES 31
USER: genes 0 Translation |==|  0.62118 0.56234 0.52808
USER: genes 1 Rotation |==|  0.00748 0.50058 0.55639 0.56510
USER: genes 2 Torsion [C]-N--CA-[CB] |==|  0.28613
USER: genes 3 Torsion [N]-CA--CB-[CG] |==|  0.82593
USER: genes 4 Torsion [CA]-CB--CG-[CD] |==|  0.26142
USER: genes 5 Torsion [CB]-CG--CD-[OE2] |==|  0.02523
USER: genes 6 Torsion [N]-CA--C-[N] |==|  0.31805
USER: genes 7 Torsion [C]-N--CA-[CB] |==|  0.52868
USER: genes 8 Torsion [N]-CA--CB-[CG2] |==|  0.56303
USER: genes 9 Torsion [CA]-CB--OG1-[HG1] |==|  0.27759
USER: genes 10 Torsion [N]-CA--C-[N] |==|  0.80068
USER: genes 11 Torsion [C]-N--CA-[C] |==|  0.81139
USER: genes 12 Torsion [N]-CA--C-[N] |==|  0.94099
USER: genes 13 Torsion [C]-N--CA-[CB] |==|  0.82561
USER: genes 14 Torsion [N]-CA--CB-[CG2] |==|  0.63166
USER: genes 15 Torsion [N]-CA--C-[OXT] |==|  0.49482
USER: genes 16 Torsion [N]-CA--CB-[CG] |==|  0.69939
USER: genes 17 Torsion [CA]-CB--CG-[CD] |==|  0.76224
USER: genes 18 Torsion [CB]-CG--CD-[OE1] |==|  0.55044
USER: genes 19 Torsion [N]-C--CA-[N] |==|  0.33397
USER: genes 20 Torsion [C]-CA--CB-[CG] |==|  0.12037
USER: genes 21 Torsion [CA]-CB--CG-[CD] |==|  0.39355
USER: genes 22 Torsion [CB]-CG--CD-[NE] |==|  0.97449
USER: genes 23 Torsion [CG]-CD--NE-[HE] |==|  0.87813
USER: genes 24 Torsion [C]-CA--N-[C] |==|  0.76450
USER: genes 25 Torsion [N]-C--CA-[N] |==|  0.62536
USER: genes 26 Torsion [C]-CA--N-[H2] |==|  0.99111
USER: genes 27 Torsion [C]-CA--CB-[CG] |==|  0.34374
USER: genes 28 Torsion [CA]-CB--CG-[CD] |==|  0.77585
USER: genes 29 Torsion [CB]-CG--CD-[NE] |==|  0.20391
USER: genes 30 Torsion [CG]-CD--NE-[CZ] |==|  0.64327
ROOT
ATOM      1  C   ARG C   2      27.673  21.034  26.268  1.00 17.64 LIG 0.24  C 
ATOM      2 O    ARG C   2      27.675  19.962  26.881  1.00 18.48 LIG-0.27  OA
ATOM      3  N   GLU C   3      28.540  21.306  25.299  1.00 16.82 LIG-0.35  N 
ATOM      4 H    GLU C   3      28.555  22.043  24.856  1.00 16.82 LIG 0.16  HD
ENDROOT
BRANCH 3 5
ATOM      5  CA  GLU C   3      29.560  20.338  24.907  1.00 17.00 LIG 0.18  C 
BRANCH 5 6
ATOM      6  CB  GLU C   3      29.164  19.640  23.596  1.00 16.91 LIG 0.04  C 
BRANCH 6 7
ATOM      7  CG  GLU C   3      27.874  18.827  23.713  1.00 19.77 LIG 0.12  C 
BRANCH 7 8
ATOM      8  CD  GLU C   3      26.644  19.606  23.289  1.00 23.53 LIG 0.17  C 
ATOM      9 OE2  GLU C   3      26.799  20.715  22.742  1.00 22.35 LIG-0.65  OA
ATOM     10 OE1  GLU C   3      25.523  19.108  23.505  1.00 28.80 LIG-0.65  OA
ENDBRANCH 7 8
ENDBRANCH 6 7
ENDBRANCH 5 6
BRANCH 5 11
ATOM     11  C   GLU C   3      30.879  21.074  24.730  1.00 16.25 LIG 0.24  C 
ATOM     12  N   THR C   4      31.866  20.772  25.580  1.00 14.90 LIG-0.34  N 
ATOM     13 H    THR C   4      31.808  20.164  26.185  1.00 14.90 LIG 0.16  HD
ATOM     14 O    GLU C   3      30.995  21.913  23.834  1.00 19.18 LIG-0.27  OA
BRANCH 12 15
ATOM     15  CA  THR C   4      33.146  21.469  25.545  1.00 14.85 LIG 0.20  C 
BRANCH 15 16
ATOM     16  CB  THR C   4      34.167  20.763  26.440  1.00 16.75 LIG 0.15  C 
ATOM     17  CG2 THR C   4      35.273  21.726  26.857  1.00 16.70 LIG 0.04  C 
BRANCH 16 18
ATOM     18 OG1  THR C   4      33.500  20.251  27.598  1.00 17.36 LIG-0.39  OA
ATOM     19 HG1  THR C   4      33.352  19.430  27.496  1.00 17.36 LIG 0.21  HD
ENDBRANCH 16 18
ENDBRANCH 15 16
BRANCH 15 20
ATOM     20  C   THR C   4      33.679  21.521  24.121  1.00 14.69 LIG 0.24  C 
ATOM     21  N   GLN C   5      34.125  20.376  23.610  1.00 15.36 LIG-0.35  N 
ATOM     22 H    GLN C   5      34.237  19.656  24.067  1.00 15.36 LIG 0.16  HD
ATOM     23 O    THR C   4      33.676  22.585  23.492  1.00 15.54 LIG-0.27  OA
BRANCH 21 24
ATOM     24  CA  GLN C   5      34.465  20.254  22.200  1.00 16.48 LIG 0.18  C 
BRANCH 24 25
ATOM     25  C   GLN C   5      33.204  20.362  21.357  1.00 17.30 LIG 0.24  C 
ATOM     26 O    GLN C   5      33.267  20.708  20.169  1.00 19.53 LIG-0.27  OA
ATOM     27  N   VAL C   6      32.056  20.103  21.977  1.00 16.49 LIG-0.34  N 
ATOM     28 H    VAL C   6      32.002  19.858  22.799  1.00 16.49 LIG 0.16  HD
BRANCH 27 29
ATOM     29  CA  VAL C   6      30.767  20.216  21.299  1.00 18.07 LIG 0.19  C 
BRANCH 29 30
ATOM     30  CB  VAL C   6      30.487  21.661  20.843  1.00 20.19 LIG 0.01  C 
ATOM     31  CG1 VAL C   6      30.685  21.805  19.346  1.00 23.48 LIG 0.01  C 
ATOM     32  CG2 VAL C   6      29.077  22.082  21.236  1.00 21.65 LIG 0.01  C 
ENDBRANCH 29 30
BRANCH 29 33
ATOM     33  C   VAL C   6      30.677  19.265  20.112  1.00 18.86 LIG 0.20  C 
ATOM     34 O    VAL C   6      31.646  18.553  19.787  1.00 20.67 LIG-0.65  OA
ATOM     35 OXT  VAL C   6      29.629  19.210  19.446  1.00 19.38 LIG-0.65  OA
ENDBRANCH 29 33
ENDBRANCH 27 29
ENDBRANCH 24 25
BRANCH 24 36
ATOM     36  CB  GLN C   5      35.120  18.899  21.936  1.00 21.66 LIG 0.04  C 
BRANCH 36 37
ATOM     37  CG  GLN C   5      36.610  18.948  21.647  1.00 28.10 LIG 0.10  C 
BRANCH 37 38
ATOM     38  CD  GLN C   5      36.910  19.210  20.177  1.00 33.44 LIG 0.21  C 
ATOM     39  NE2 GLN C   5      35.919  19.715  19.451  1.00 35.38 LIG-0.37  N 
ATOM     40 21HE GLN C   5      35.158  19.878  19.815  1.00 35.38 LIG 0.16  HD
ATOM     41 22HE GLN C   5      36.040  19.879  18.615  1.00 35.38 LIG 0.16  HD
ATOM     42 OE1  GLN C   5      38.019  18.958  19.705  1.00 34.39 LIG-0.27  OA
ENDBRANCH 37 38
ENDBRANCH 36 37
ENDBRANCH 24 36
ENDBRANCH 21 24
ENDBRANCH 15 20
ENDBRANCH 12 15
ENDBRANCH 5 11
ENDBRANCH 3 5
BRANCH 1 43
ATOM     43  CA  ARG C   2      26.676  22.133  26.627  1.00 18.81 LIG 0.18  C 
BRANCH 43 44
ATOM     44  CB  ARG C   2      26.873  22.549  28.082  1.00 19.04 LIG 0.04  C 
BRANCH 44 45
ATOM     45  CG  ARG C   2      28.333  22.695  28.458  1.00 18.27 LIG 0.02  C 
BRANCH 45 46
ATOM     46  CD  ARG C   2      28.523  23.877  29.386  1.00 20.59 LIG 0.14  C 
BRANCH 46 47
ATOM     47  NE  ARG C   2      27.300  24.668  29.485  1.00 21.96 LIG-0.23  N 
ATOM     48 HE   ARG C   2      26.870  24.835  28.759  1.00 21.96 LIG 0.18  HD
ATOM     49  CZ  ARG C   2      26.807  25.145  30.624  1.00 22.93 LIG 0.67  C 
ATOM     50  NH2 ARG C   2      25.686  25.850  30.617  1.00 24.61 LIG-0.23  N 
ATOM     51  NH1 ARG C   2      27.437  24.918  31.768  1.00 22.65 LIG-0.23  N 
ATOM     52 1HH2 ARG C   2      25.277  25.998  29.876  1.00 24.61 LIG 0.17  HD
ATOM     53 2HH2 ARG C   2      25.368  26.158  31.354  1.00 24.61 LIG 0.17  HD
ATOM     54 1HH1 ARG C   2      28.166  24.462  31.774  1.00 22.65 LIG 0.17  HD
ATOM     55 2HH1 ARG C   2      27.117  25.227  32.504  1.00 22.65 LIG 0.17  HD
ENDBRANCH 46 47
ENDBRANCH 45 46
ENDBRANCH 44 45
ENDBRANCH 43 44
BRANCH 43 56
ATOM     56  N   ARG C   2      25.313  21.656  26.426  1.00 21.07 LIG-0.35  N 
ATOM     57  C   ARG C   1      24.739  21.716  25.227  1.00 27.96 LIG 0.25  C 
ATOM     58 O    ARG C   1      25.290  22.209  24.245  1.00 30.47 LIG-0.27  OA
ATOM     59 H    ARG C   2      24.932  21.345  27.132  1.00 21.07 LIG 0.16  HD
BRANCH 57 60
ATOM     60  CA  ARG C   1      23.337  21.132  25.109  1.00 31.07 LIG 0.27  C 
BRANCH 60 61
ATOM     61  N   ARG C   1      23.215  20.303  23.910  1.00 32.37 LIG-0.07  N 
ATOM     62 H2   ARG C   1      23.976  20.335  23.448  1.00 32.37 LIG 0.28  HD
ATOM     63 H1   ARG C   1      22.548  20.608  23.404  1.00 32.37 LIG 0.28  HD
ATOM     64 H3   ARG C   1      23.046  19.462  24.146  1.00 32.37 LIG 0.28  HD
ENDBRANCH 60 61
BRANCH 60 65
ATOM     65  CB  ARG C   1      23.019  20.326  26.369  1.00 35.21 LIG 0.04  C 
BRANCH 65 66
ATOM     66  CG  ARG C   1      21.750  20.792  27.077  1.00 38.18 LIG 0.02  C 
BRANCH 66 67
ATOM     67  CD  ARG C   1      21.991  22.019  27.944  1.00 40.83 LIG 0.14  C 
BRANCH 67 68
ATOM     68  NE  ARG C   1      22.169  23.225  27.142  1.00 41.61 LIG-0.23  N 
ATOM     69  CZ  ARG C   1      23.192  24.064  27.271  1.00 42.69 LIG 0.67  C 
ATOM     70  NH1 ARG C   1      24.135  23.831  28.177  1.00 43.45 LIG-0.23  N 
ATOM     71  NH2 ARG C   1      23.273  25.134  26.492  1.00 42.77 LIG-0.23  N 
ATOM     72 1HH1 ARG C   1      24.085  23.137  28.682  1.00 43.45 LIG 0.17  HD
ATOM     73 2HH1 ARG C   1      24.796  24.376  28.259  1.00 43.45 LIG 0.17  HD
ATOM     74 1HH2 ARG C   1      22.664  25.286  25.904  1.00 42.77 LIG 0.17  HD
ATOM     75 2HH2 ARG C   1      23.935  25.678  26.575  1.00 42.77 LIG 0.17  HD
ATOM     76 HE   ARG C   1      21.574  23.404  26.548  1.00 41.61 LIG 0.18  HD
ENDBRANCH 67 68
ENDBRANCH 66 67
ENDBRANCH 65 66
ENDBRANCH 60 65
ENDBRANCH 57 60
ENDBRANCH 43 56
ENDBRANCH 1 43
TORSDOF 29
ENDMDL
MODEL 28
USER: ADFR SOLUTION from run 84
USER: SCORE 17.675030 LL:  -4.311 LR: -15.386 RR:   0.000 FEB:  -6.735
USER: RMSD 10.773883
USER: SEED 83
USER: STATUS no improvement in best in 14 clusters for 5 generations
USER: GENES 31
USER: genes 0 Translation |==|  0.59582 0.52655 0.34875
USER: genes 1 Rotation |==|  0.81589 0.17041 0.70311 0.51806
USER: genes 2 Torsion [C]-N--CA-[CB] |==|  0.52240
USER: genes 3 Torsion [N]-CA--CB-[CG] |==|  0.53528
USER: genes 4 Torsion [CA]-CB--CG-[CD] |==|  0.35664
USER: genes 5 Torsion [CB]-CG--CD-[OE2] |==|  0.70751
USER: genes 6 Torsion [N]-CA--C-[N] |==|  0.35182
USER: genes 7 Torsion [C]-N--CA-[CB] |==|  0.25556
USER: genes 8 Torsion [N]-CA--CB-[CG2] |==|  0.56251
USER: genes 9 Torsion [CA]-CB--OG1-[HG1] |==|  0.24562
USER: genes 10 Torsion [N]-CA--C-[N] |==|  0.99043
USER: genes 11 Torsion [C]-N--CA-[C] |==|  0.79023
USER: genes 12 Torsion [N]-CA--C-[N] |==|  0.96070
USER: genes 13 Torsion [C]-N--CA-[CB] |==|  0.30997
USER: genes 14 Torsion [N]-CA--CB-[CG2] |==|  0.20013
USER: genes 15 Torsion [N]-CA--C-[OXT] |==|  0.99851
USER: genes 16 Torsion [N]-CA--CB-[CG] |==|  0.26363
USER: genes 17 Torsion [CA]-CB--CG-[CD] |==|  0.45677
USER: genes 18 Torsion [CB]-CG--CD-[OE1] |==|  0.41610
USER: genes 19 Torsion [N]-C--CA-[N] |==|  0.70323
USER: genes 20 Torsion [C]-CA--CB-[CG] |==|  0.26577
USER: genes 21 Torsion [CA]-CB--CG-[CD] |==|  0.22120
USER: genes 22 Torsion [CB]-CG--CD-[NE] |==|  0.02678
USER: genes 23 Torsion [CG]-CD--NE-[HE] |==|  0.77548
USER: genes 24 Torsion [C]-CA--N-[C] |==|  0.16548
USER: genes 25 Torsion [N]-C--CA-[N] |==|  0.96979
USER: genes 26 Torsion [C]-CA--N-[H2] |==|  0.92595
USER: genes 27 Torsion [C]-CA--CB-[CG] |==|  0.51834
USER: genes 28 Torsion [CA]-CB--CG-[CD] |==|  0.45702
USER: genes 29 Torsion [CB]-CG--CD-[NE] |==|  0.64063
USER: genes 30 Torsion [CG]-CD--NE-[CZ] |==|  0.73637
ROOT
ATOM      1  C   ARG C   2      26.969  20.202  22.906  1.00 17.64 LIG 0.24  C 
ATOM      2 O    ARG C   2      25.847  20.716  22.953  1.00 18.48 LIG-0.27  OA
ATOM      3  N   GLU C   3      27.159  18.891  22.999  1.00 16.82 LIG-0.35  N 
ATOM      4 H    GLU C   3      27.930  18.510  22.965  1.00 16.82 LIG 0.16  HD
ENDROOT
BRANCH 3 5
ATOM      5  CA  GLU C   3      26.035  17.976  23.170  1.00 17.00 LIG 0.18  C 
BRANCH 5 6
ATOM      6  CB  GLU C   3      26.538  16.551  23.449  1.00 16.91 LIG 0.04  C 
BRANCH 6 7
ATOM      7  CG  GLU C   3      25.441  15.492  23.333  1.00 19.77 LIG 0.12  C 
BRANCH 7 8
ATOM      8  CD  GLU C   3      25.825  14.339  22.425  1.00 23.53 LIG 0.17  C 
ATOM      9 OE2  GLU C   3      25.312  14.275  21.291  1.00 22.35 LIG-0.65  OA
ATOM     10 OE1  GLU C   3      26.639  13.497  22.849  1.00 28.80 LIG-0.65  OA
ENDBRANCH 7 8
ENDBRANCH 6 7
ENDBRANCH 5 6
BRANCH 5 11
ATOM     11  C   GLU C   3      25.186  18.468  24.332  1.00 16.25 LIG 0.24  C 
ATOM     12  N   THR C   4      23.882  18.646  24.104  1.00 14.90 LIG-0.34  N 
ATOM     13 H    THR C   4      23.495  18.460  23.359  1.00 14.90 LIG 0.16  HD
ATOM     14 O    GLU C   3      25.716  18.690  25.424  1.00 19.18 LIG-0.27  OA
BRANCH 12 15
ATOM     15  CA  THR C   4      22.991  19.182  25.127  1.00 14.85 LIG 0.20  C 
BRANCH 15 16
ATOM     16  CB  THR C   4      22.887  20.705  25.005  1.00 16.75 LIG 0.15  C 
ATOM     17  CG2 THR C   4      22.449  21.321  26.329  1.00 16.70 LIG 0.04  C 
BRANCH 16 18
ATOM     18 OG1  THR C   4      24.160  21.231  24.617  1.00 17.36 LIG-0.39  OA
ATOM     19 HG1  THR C   4      24.217  21.239  23.779  1.00 17.36 LIG 0.21  HD
ENDBRANCH 16 18
ENDBRANCH 15 16
BRANCH 15 20
ATOM     20  C   THR C   4      21.604  18.573  24.990  1.00 14.69 LIG 0.24  C 
ATOM     21  N   GLN C   5      21.416  17.746  23.964  1.00 15.36 LIG-0.35  N 
ATOM     22 H    GLN C   5      21.981  17.634  23.326  1.00 15.36 LIG 0.16  HD
ATOM     23 O    THR C   4      20.720  18.843  25.810  1.00 15.54 LIG-0.27  OA
BRANCH 21 24
ATOM     24  CA  GLN C   5      20.205  16.947  23.845  1.00 16.48 LIG 0.18  C 
BRANCH 24 25
ATOM     25  C   GLN C   5      20.261  15.783  24.822  1.00 17.30 LIG 0.24  C 
ATOM     26 O    GLN C   5      19.236  15.149  25.106  1.00 19.53 LIG-0.27  OA
ATOM     27  N   VAL C   6      21.447  15.524  25.365  1.00 16.49 LIG-0.34  N 
ATOM     28 H    VAL C   6      22.166  15.956  25.171  1.00 16.49 LIG 0.16  HD
BRANCH 27 29
ATOM     29  CA  VAL C   6      21.632  14.466  26.355  1.00 18.07 LIG 0.19  C 
BRANCH 29 30
ATOM     30  CB  VAL C   6      22.474  13.303  25.795  1.00 20.19 LIG 0.01  C 
ATOM     31  CG1 VAL C   6      21.928  12.831  24.462  1.00 23.48 LIG 0.01  C 
ATOM     32  CG2 VAL C   6      23.933  13.718  25.655  1.00 21.65 LIG 0.01  C 
ENDBRANCH 29 30
BRANCH 29 33
ATOM     33  C   VAL C   6      22.264  15.004  27.632  1.00 18.86 LIG 0.20  C 
ATOM     34 O    VAL C   6      22.476  14.257  28.606  1.00 20.67 LIG-0.65  OA
ATOM     35 OXT  VAL C   6      22.557  16.209  27.713  1.00 19.38 LIG-0.65  OA
ENDBRANCH 29 33
ENDBRANCH 27 29
ENDBRANCH 24 25
BRANCH 24 36
ATOM     36  CB  GLN C   5      20.083  16.394  22.425  1.00 21.66 LIG 0.04  C 
BRANCH 36 37
ATOM     37  CG  GLN C   5      20.631  14.991  22.230  1.00 28.10 LIG 0.10  C 
BRANCH 37 38
ATOM     38  CD  GLN C   5      20.153  14.355  20.931  1.00 33.44 LIG 0.21  C 
ATOM     39  NE2 GLN C   5      18.957  14.729  20.492  1.00 35.38 LIG-0.37  N 
ATOM     40 21HE GLN C   5      18.496  15.304  20.935  1.00 35.38 LIG 0.16  HD
ATOM     41 22HE GLN C   5      18.644  14.397  19.763  1.00 35.38 LIG 0.16  HD
ATOM     42 OE1  GLN C   5      20.854  13.536  20.335  1.00 34.39 LIG-0.27  OA
ENDBRANCH 37 38
ENDBRANCH 36 37
ENDBRANCH 24 36
ENDBRANCH 21 24
ENDBRANCH 15 20
ENDBRANCH 12 15
ENDBRANCH 5 11
ENDBRANCH 3 5
BRANCH 1 43
ATOM     43  CA  ARG C   2      28.217  21.070  22.772  1.00 18.81 LIG 0.18  C 
BRANCH 43 44
ATOM     44  CB  ARG C   2      29.417  20.194  22.424  1.00 19.04 LIG 0.04  C 
BRANCH 44 45
ATOM     45  CG  ARG C   2      29.693  20.143  20.936  1.00 18.27 LIG 0.02  C 
BRANCH 45 46
ATOM     46  CD  ARG C   2      30.434  21.388  20.494  1.00 20.59 LIG 0.14  C 
BRANCH 46 47
ATOM     47  NE  ARG C   2      30.872  22.173  21.644  1.00 21.96 LIG-0.23  N 
ATOM     48 HE   ARG C   2      30.296  22.688  22.022  1.00 21.96 LIG 0.18  HD
ATOM     49  CZ  ARG C   2      32.104  22.144  22.145  1.00 22.93 LIG 0.67  C 
ATOM     50  NH2 ARG C   2      32.409  22.889  23.195  1.00 24.61 LIG-0.23  N 
ATOM     51  NH1 ARG C   2      33.028  21.371  21.593  1.00 22.65 LIG-0.23  N 
ATOM     52 1HH2 ARG C   2      31.810  23.392  23.554  1.00 24.61 LIG 0.17  HD
ATOM     53 2HH2 ARG C   2      33.205  22.871  23.519  1.00 24.61 LIG 0.17  HD
ATOM     54 1HH1 ARG C   2      32.832  20.887  20.909  1.00 22.65 LIG 0.17  HD
ATOM     55 2HH1 ARG C   2      33.824  21.353  21.918  1.00 22.65 LIG 0.17  HD
ENDBRANCH 46 47
ENDBRANCH 45 46
ENDBRANCH 44 45
ENDBRANCH 43 44
BRANCH 43 56
ATOM     56  N   ARG C   2      28.467  21.782  24.021  1.00 21.07 LIG-0.35  N 
ATOM     57  C   ARG C   1      28.672  21.117  25.155  1.00 27.96 LIG 0.25  C 
ATOM     58 O    ARG C   1      28.618  19.890  25.232  1.00 30.47 LIG-0.27  OA
ATOM     59 H    ARG C   2      28.469  22.639  23.953  1.00 21.07 LIG 0.16  HD
BRANCH 57 60
ATOM     60  CA  ARG C   1      28.990  21.950  26.390  1.00 31.07 LIG 0.27  C 
BRANCH 60 61
ATOM     61  N   ARG C   1      29.260  23.341  26.028  1.00 32.37 LIG-0.07  N 
ATOM     62 H2   ARG C   1      29.566  23.376  25.193  1.00 32.37 LIG 0.28  HD
ATOM     63 H1   ARG C   1      29.870  23.679  26.582  1.00 32.37 LIG 0.28  HD
ATOM     64 H3   ARG C   1      28.509  23.815  26.089  1.00 32.37 LIG 0.28  HD
ENDBRANCH 60 61
BRANCH 60 65
ATOM     65  CB  ARG C   1      27.824  21.854  27.376  1.00 35.21 LIG 0.04  C 
BRANCH 65 66
ATOM     66  CG  ARG C   1      27.974  22.782  28.578  1.00 38.18 LIG 0.02  C 
BRANCH 66 67
ATOM     67  CD  ARG C   1      26.667  22.956  29.337  1.00 40.83 LIG 0.14  C 
BRANCH 67 68
ATOM     68  NE  ARG C   1      26.351  24.363  29.561  1.00 41.61 LIG-0.23  N 
ATOM     69  CZ  ARG C   1      26.658  25.030  30.669  1.00 42.69 LIG 0.67  C 
ATOM     70  NH1 ARG C   1      27.290  24.417  31.664  1.00 43.45 LIG-0.23  N 
ATOM     71  NH2 ARG C   1      26.335  26.312  30.781  1.00 42.77 LIG-0.23  N 
ATOM     72 1HH1 ARG C   1      27.501  23.587  31.592  1.00 43.45 LIG 0.17  HD
ATOM     73 2HH1 ARG C   1      27.487  24.850  32.380  1.00 43.45 LIG 0.17  HD
ATOM     74 1HH2 ARG C   1      25.927  26.711  30.137  1.00 42.77 LIG 0.17  HD
ATOM     75 2HH2 ARG C   1      26.533  26.744  31.498  1.00 42.77 LIG 0.17  HD
ATOM     76 HE   ARG C   1      25.940  24.787  28.936  1.00 41.61 LIG 0.18  HD
ENDBRANCH 67 68
ENDBRANCH 66 67
ENDBRANCH 65 66
ENDBRANCH 60 65
ENDBRANCH 57 60
ENDBRANCH 43 56
ENDBRANCH 1 43
TORSDOF 29
ENDMDL
MODEL 29
USER: ADFR SOLUTION from run 81
USER: SCORE 19.548888 LL:  -5.200 LR: -15.361 RR:   0.000 FEB:  -6.710
USER: RMSD 9.189734
USER: SEED 80
USER: STATUS no improvement in best in 4 clusters for 5 generations
USER: GENES 31
USER: genes 0 Translation |==|  0.65729 0.56686 0.49389
USER: genes 1 Rotation |==|  0.03881 0.39401 0.52648 0.65928
USER: genes 2 Torsion [C]-N--CA-[CB] |==|  0.80365
USER: genes 3 Torsion [N]-CA--CB-[CG] |==|  0.52565
USER: genes 4 Torsion [CA]-CB--CG-[CD] |==|  0.07088
USER: genes 5 Torsion [CB]-CG--CD-[OE2] |==|  0.15761
USER: genes 6 Torsion [N]-CA--C-[N] |==|  0.14773
USER: genes 7 Torsion [C]-N--CA-[CB] |==|  0.75567
USER: genes 8 Torsion [N]-CA--CB-[CG2] |==|  0.10461
USER: genes 9 Torsion [CA]-CB--OG1-[HG1] |==|  0.47189
USER: genes 10 Torsion [N]-CA--C-[N] |==|  0.19833
USER: genes 11 Torsion [C]-N--CA-[C] |==|  0.65175
USER: genes 12 Torsion [N]-CA--C-[N] |==|  0.41771
USER: genes 13 Torsion [C]-N--CA-[CB] |==|  0.14681
USER: genes 14 Torsion [N]-CA--CB-[CG2] |==|  0.52424
USER: genes 15 Torsion [N]-CA--C-[OXT] |==|  0.96135
USER: genes 16 Torsion [N]-CA--CB-[CG] |==|  0.81587
USER: genes 17 Torsion [CA]-CB--CG-[CD] |==|  0.88776
USER: genes 18 Torsion [CB]-CG--CD-[OE1] |==|  0.88072
USER: genes 19 Torsion [N]-C--CA-[N] |==|  0.35934
USER: genes 20 Torsion [C]-CA--CB-[CG] |==|  0.38410
USER: genes 21 Torsion [CA]-CB--CG-[CD] |==|  0.67058
USER: genes 22 Torsion [CB]-CG--CD-[NE] |==|  0.47198
USER: genes 23 Torsion [CG]-CD--NE-[HE] |==|  0.96666
USER: genes 24 Torsion [C]-CA--N-[C] |==|  0.82101
USER: genes 25 Torsion [N]-C--CA-[N] |==|  0.62972
USER: genes 26 Torsion [C]-CA--N-[H2] |==|  0.42091
USER: genes 27 Torsion [C]-CA--CB-[CG] |==|  0.22195
USER: genes 28 Torsion [CA]-CB--CG-[CD] |==|  0.02160
USER: genes 29 Torsion [CB]-CG--CD-[NE] |==|  0.67721
USER: genes 30 Torsion [CG]-CD--NE-[CZ] |==|  0.40519
ROOT
ATOM      1  C   ARG C   2      28.675  21.140  25.627  1.00 17.64 LIG 0.24  C 
ATOM      2 O    ARG C   2      29.040  19.967  25.759  1.00 18.48 LIG-0.27  OA
ATOM      3  N   GLU C   3      29.442  22.068  25.068  1.00 16.82 LIG-0.35  N 
ATOM      4 H    GLU C   3      29.209  22.890  24.961  1.00 16.82 LIG 0.16  HD
ENDROOT
BRANCH 3 5
ATOM      5  CA  GLU C   3      30.780  21.747  24.579  1.00 17.00 LIG 0.18  C 
BRANCH 5 6
ATOM      6  CB  GLU C   3      31.733  21.482  25.755  1.00 16.91 LIG 0.04  C 
BRANCH 6 7
ATOM      7  CG  GLU C   3      33.196  21.361  25.327  1.00 19.77 LIG 0.12  C 
BRANCH 7 8
ATOM      8  CD  GLU C   3      33.499  22.101  24.037  1.00 23.53 LIG 0.17  C 
ATOM      9 OE2  GLU C   3      33.247  23.320  23.976  1.00 22.35 LIG-0.65  OA
ATOM     10 OE1  GLU C   3      33.985  21.460  23.087  1.00 28.80 LIG-0.65  OA
ENDBRANCH 7 8
ENDBRANCH 6 7
ENDBRANCH 5 6
BRANCH 5 11
ATOM     11  C   GLU C   3      30.686  20.514  23.693  1.00 16.25 LIG 0.24  C 
ATOM     12  N   THR C   4      29.802  20.547  22.692  1.00 14.90 LIG-0.34  N 
ATOM     13 H    THR C   4      29.321  21.233  22.499  1.00 14.90 LIG 0.16  HD
ATOM     14 O    GLU C   3      31.406  19.540  23.925  1.00 19.18 LIG-0.27  OA
BRANCH 12 15
ATOM     15  CA  THR C   4      29.580  19.393  21.828  1.00 14.85 LIG 0.20  C 
BRANCH 15 16
ATOM     16  CB  THR C   4      30.556  19.409  20.649  1.00 16.75 LIG 0.15  C 
ATOM     17  CG2 THR C   4      31.925  19.912  21.090  1.00 16.70 LIG 0.04  C 
BRANCH 16 18
ATOM     18 OG1  THR C   4      30.668  18.085  20.117  1.00 17.36 LIG-0.39  OA
ATOM     19 HG1  THR C   4      31.089  18.109  19.390  1.00 17.36 LIG 0.21  HD
ENDBRANCH 16 18
ENDBRANCH 15 16
BRANCH 15 20
ATOM     20  C   THR C   4      29.765  18.104  22.614  1.00 14.69 LIG 0.24  C 
ATOM     21  N   GLN C   5      28.820  17.809  23.504  1.00 15.36 LIG-0.35  N 
ATOM     22 H    GLN C   5      28.193  18.349  23.738  1.00 15.36 LIG 0.16  HD
ATOM     23 O    THR C   4      30.747  17.382  22.408  1.00 15.54 LIG-0.27  OA
BRANCH 21 24
ATOM     24  CA  GLN C   5      28.776  16.512  24.164  1.00 16.48 LIG 0.18  C 
BRANCH 24 25
ATOM     25  C   GLN C   5      27.409  15.878  23.960  1.00 17.30 LIG 0.24  C 
ATOM     26 O    GLN C   5      26.397  16.583  23.858  1.00 19.53 LIG-0.27  OA
ATOM     27  N   VAL C   6      27.373  14.549  23.937  1.00 16.49 LIG-0.34  N 
ATOM     28 H    VAL C   6      28.072  14.051  24.002  1.00 16.49 LIG 0.16  HD
BRANCH 27 29
ATOM     29  CA  VAL C   6      26.121  13.810  23.797  1.00 18.07 LIG 0.19  C 
BRANCH 29 30
ATOM     30  CB  VAL C   6      25.314  14.284  22.573  1.00 20.19 LIG 0.01  C 
ATOM     31  CG1 VAL C   6      26.044  13.960  21.284  1.00 23.48 LIG 0.01  C 
ATOM     32  CG2 VAL C   6      23.927  13.656  22.571  1.00 21.65 LIG 0.01  C 
ENDBRANCH 29 30
BRANCH 29 33
ATOM     33  C   VAL C   6      26.367  12.310  23.713  1.00 18.86 LIG 0.20  C 
ATOM     34 O    VAL C   6      25.435  11.498  23.867  1.00 20.67 LIG-0.65  OA
ATOM     35 OXT  VAL C   6      27.518  11.886  23.507  1.00 19.38 LIG-0.65  OA
ENDBRANCH 29 33
ENDBRANCH 27 29
ENDBRANCH 24 25
BRANCH 24 36
ATOM     36  CB  GLN C   5      29.023  16.682  25.663  1.00 21.66 LIG 0.04  C 
BRANCH 36 37
ATOM     37  CG  GLN C   5      30.414  17.163  26.037  1.00 28.10 LIG 0.10  C 
BRANCH 37 38
ATOM     38  CD  GLN C   5      31.502  16.510  25.195  1.00 33.44 LIG 0.21  C 
ATOM     39  NE2 GLN C   5      32.469  17.307  24.754  1.00 35.38 LIG-0.37  N 
ATOM     40 21HE GLN C   5      32.460  18.145  24.949  1.00 35.38 LIG 0.16  HD
ATOM     41 22HE GLN C   5      33.106  16.985  24.274  1.00 35.38 LIG 0.16  HD
ATOM     42 OE1  GLN C   5      31.468  15.305  24.946  1.00 34.39 LIG-0.27  OA
ENDBRANCH 37 38
ENDBRANCH 36 37
ENDBRANCH 24 36
ENDBRANCH 21 24
ENDBRANCH 15 20
ENDBRANCH 12 15
ENDBRANCH 5 11
ENDBRANCH 3 5
BRANCH 1 43
ATOM     43  CA  ARG C   2      27.312  21.593  26.143  1.00 18.81 LIG 0.18  C 
BRANCH 43 44
ATOM     44  CB  ARG C   2      27.306  21.570  27.668  1.00 19.04 LIG 0.04  C 
BRANCH 44 45
ATOM     45  CG  ARG C   2      26.615  22.775  28.270  1.00 18.27 LIG 0.02  C 
BRANCH 45 46
ATOM     46  CD  ARG C   2      27.587  23.572  29.117  1.00 20.59 LIG 0.14  C 
BRANCH 46 47
ATOM     47  NE  ARG C   2      27.011  24.855  29.508  1.00 21.96 LIG-0.23  N 
ATOM     48 HE   ARG C   2      26.287  25.106  29.117  1.00 21.96 LIG 0.18  HD
ATOM     49  CZ  ARG C   2      27.531  25.659  30.430  1.00 22.93 LIG 0.67  C 
ATOM     50  NH2 ARG C   2      26.935  26.804  30.723  1.00 24.61 LIG-0.23  N 
ATOM     51  NH1 ARG C   2      28.649  25.317  31.057  1.00 22.65 LIG-0.23  N 
ATOM     52 1HH2 ARG C   2      26.210  27.027  30.317  1.00 24.61 LIG 0.17  HD
ATOM     53 2HH2 ARG C   2      27.272  27.324  31.319  1.00 24.61 LIG 0.17  HD
ATOM     54 1HH1 ARG C   2      29.038  24.575  30.867  1.00 22.65 LIG 0.17  HD
ATOM     55 2HH1 ARG C   2      28.984  25.838  31.653  1.00 22.65 LIG 0.17  HD
ENDBRANCH 46 47
ENDBRANCH 45 46
ENDBRANCH 44 45
ENDBRANCH 43 44
BRANCH 43 56
ATOM     56  N   ARG C   2      26.266  20.716  25.628  1.00 21.07 LIG-0.35  N 
ATOM     57  C   ARG C   1      26.009  20.652  24.324  1.00 27.96 LIG 0.25  C 
ATOM     58 O    ARG C   1      26.590  21.348  23.492  1.00 30.47 LIG-0.27  OA
ATOM     59 H    ARG C   2      25.849  20.261  26.228  1.00 21.07 LIG 0.16  HD
BRANCH 57 60
ATOM     60  CA  ARG C   1      24.944  19.657  23.883  1.00 31.07 LIG 0.27  C 
BRANCH 60 61
ATOM     61  N   ARG C   1      25.403  18.873  22.737  1.00 32.37 LIG-0.07  N 
ATOM     62 H2   ARG C   1      25.007  18.075  22.746  1.00 32.37 LIG 0.28  HD
ATOM     63 H1   ARG C   1      26.285  18.767  22.784  1.00 32.37 LIG 0.28  HD
ATOM     64 H3   ARG C   1      25.195  19.298  21.984  1.00 32.37 LIG 0.28  HD
ENDBRANCH 60 61
BRANCH 60 65
ATOM     65  CB  ARG C   1      24.582  18.751  25.061  1.00 35.21 LIG 0.04  C 
BRANCH 65 66
ATOM     66  CG  ARG C   1      23.615  19.402  26.046  1.00 38.18 LIG 0.02  C 
BRANCH 66 67
ATOM     67  CD  ARG C   1      23.082  20.732  25.536  1.00 40.83 LIG 0.14  C 
BRANCH 67 68
ATOM     68  NE  ARG C   1      23.496  21.845  26.384  1.00 41.61 LIG-0.23  N 
ATOM     69  CZ  ARG C   1      23.768  23.066  25.934  1.00 42.69 LIG 0.67  C 
ATOM     70  NH1 ARG C   1      23.674  23.335  24.637  1.00 43.45 LIG-0.23  N 
ATOM     71  NH2 ARG C   1      24.133  24.018  26.783  1.00 42.77 LIG-0.23  N 
ATOM     72 1HH1 ARG C   1      23.436  22.719  24.086  1.00 43.45 LIG 0.17  HD
ATOM     73 2HH1 ARG C   1      23.851  24.125  24.348  1.00 43.45 LIG 0.17  HD
ATOM     74 1HH2 ARG C   1      24.194  23.846  27.623  1.00 42.77 LIG 0.17  HD
ATOM     75 2HH2 ARG C   1      24.310  24.809  26.492  1.00 42.77 LIG 0.17  HD
ATOM     76 HE   ARG C   1      23.569  21.702  27.229  1.00 41.61 LIG 0.18  HD
ENDBRANCH 67 68
ENDBRANCH 66 67
ENDBRANCH 65 66
ENDBRANCH 60 65
ENDBRANCH 57 60
ENDBRANCH 43 56
ENDBRANCH 1 43
TORSDOF 29
ENDMDL
MODEL 30
USER: ADFR SOLUTION from run 188
USER: SCORE 19.151265 LL:  -5.719 LR: -15.313 RR:   0.000 FEB:  -6.662
USER: RMSD 9.089138
USER: SEED 187
USER: STATUS searching
USER: GENES 31
USER: genes 0 Translation |==|  0.68075 0.54344 0.34249
USER: genes 1 Rotation |==|  0.82998 0.72380 0.22596 0.62622
USER: genes 2 Torsion [C]-N--CA-[CB] |==|  0.86111
USER: genes 3 Torsion [N]-CA--CB-[CG] |==|  0.31065
USER: genes 4 Torsion [CA]-CB--CG-[CD] |==|  0.64717
USER: genes 5 Torsion [CB]-CG--CD-[OE2] |==|  0.42467
USER: genes 6 Torsion [N]-CA--C-[N] |==|  0.96606
USER: genes 7 Torsion [C]-N--CA-[CB] |==|  0.22204
USER: genes 8 Torsion [N]-CA--CB-[CG2] |==|  0.13169
USER: genes 9 Torsion [CA]-CB--OG1-[HG1] |==|  0.97892
USER: genes 10 Torsion [N]-CA--C-[N] |==|  0.98694
USER: genes 11 Torsion [C]-N--CA-[C] |==|  0.72185
USER: genes 12 Torsion [N]-CA--C-[N] |==|  0.36797
USER: genes 13 Torsion [C]-N--CA-[CB] |==|  0.12089
USER: genes 14 Torsion [N]-CA--CB-[CG2] |==|  0.56203
USER: genes 15 Torsion [N]-CA--C-[OXT] |==|  0.44291
USER: genes 16 Torsion [N]-CA--CB-[CG] |==|  0.77230
USER: genes 17 Torsion [CA]-CB--CG-[CD] |==|  0.14244
USER: genes 18 Torsion [CB]-CG--CD-[OE1] |==|  0.20864
USER: genes 19 Torsion [N]-C--CA-[N] |==|  0.58333
USER: genes 20 Torsion [C]-CA--CB-[CG] |==|  0.36120
USER: genes 21 Torsion [CA]-CB--CG-[CD] |==|  0.80618
USER: genes 22 Torsion [CB]-CG--CD-[NE] |==|  0.48716
USER: genes 23 Torsion [CG]-CD--NE-[HE] |==|  0.31381
USER: genes 24 Torsion [C]-CA--N-[C] |==|  0.66122
USER: genes 25 Torsion [N]-C--CA-[N] |==|  0.03573
USER: genes 26 Torsion [C]-CA--N-[H2] |==|  0.81162
USER: genes 27 Torsion [C]-CA--CB-[CG] |==|  0.76900
USER: genes 28 Torsion [CA]-CB--CG-[CD] |==|  0.54599
USER: genes 29 Torsion [CB]-CG--CD-[NE] |==|  0.35079
USER: genes 30 Torsion [CG]-CD--NE-[CZ] |==|  0.65906
ROOT
ATOM      1  C   ARG C   2      29.326  20.595  22.789  1.00 17.64 LIG 0.24  C 
ATOM      2 O    ARG C   2      30.512  20.831  23.037  1.00 18.48 LIG-0.27  OA
ATOM      3  N   GLU C   3      28.896  20.300  21.567  1.00 16.82 LIG-0.35  N 
ATOM      4 H    GLU C   3      28.076  20.128  21.370  1.00 16.82 LIG 0.16  HD
ENDROOT
BRANCH 3 5
ATOM      5  CA  GLU C   3      29.817  20.245  20.436  1.00 17.00 LIG 0.18  C 
BRANCH 5 6
ATOM      6  CB  GLU C   3      30.682  21.515  20.384  1.00 16.91 LIG 0.04  C 
BRANCH 6 7
ATOM      7  CG  GLU C   3      32.156  21.252  20.693  1.00 19.77 LIG 0.12  C 
BRANCH 7 8
ATOM      8  CD  GLU C   3      32.698  22.146  21.793  1.00 23.53 LIG 0.17  C 
ATOM      9 OE2  GLU C   3      33.651  21.734  22.482  1.00 22.35 LIG-0.65  OA
ATOM     10 OE1  GLU C   3      32.167  23.259  21.967  1.00 28.80 LIG-0.65  OA
ENDBRANCH 7 8
ENDBRANCH 6 7
ENDBRANCH 5 6
BRANCH 5 11
ATOM     11  C   GLU C   3      30.701  19.016  20.593  1.00 16.25 LIG 0.24  C 
ATOM     12  N   THR C   4      30.675  18.392  21.774  1.00 14.90 LIG-0.34  N 
ATOM     13 H    THR C   4      30.162  18.620  22.426  1.00 14.90 LIG 0.16  HD
ATOM     14 O    GLU C   3      31.404  18.646  19.650  1.00 19.18 LIG-0.27  OA
BRANCH 12 15
ATOM     15  CA  THR C   4      31.535  17.249  22.055  1.00 14.85 LIG 0.20  C 
BRANCH 15 16
ATOM     16  CB  THR C   4      32.949  17.715  22.411  1.00 16.75 LIG 0.15  C 
ATOM     17  CG2 THR C   4      32.902  18.843  23.435  1.00 16.70 LIG 0.04  C 
BRANCH 16 18
ATOM     18 OG1  THR C   4      33.688  16.607  22.935  1.00 17.36 LIG-0.39  OA
ATOM     19 HG1  THR C   4      33.174  15.952  23.041  1.00 17.36 LIG 0.21  HD
ENDBRANCH 16 18
ENDBRANCH 15 16
BRANCH 15 20
ATOM     20  C   THR C   4      30.970  16.436  23.210  1.00 14.69 LIG 0.24  C 
ATOM     21  N   GLN C   5      29.891  16.929  23.813  1.00 15.36 LIG-0.35  N 
ATOM     22 H    GLN C   5      29.577  17.716  23.670  1.00 15.36 LIG 0.16  HD
ATOM     23 O    THR C   4      31.502  15.370  23.542  1.00 15.54 LIG-0.27  OA
BRANCH 21 24
ATOM     24  CA  GLN C   5      29.142  16.148  24.787  1.00 16.48 LIG 0.18  C 
BRANCH 24 25
ATOM     25  C   GLN C   5      27.907  15.554  24.129  1.00 17.30 LIG 0.24  C 
ATOM     26 O    GLN C   5      27.150  16.265  23.454  1.00 19.53 LIG-0.27  OA
ATOM     27  N   VAL C   6      27.684  14.263  24.351  1.00 16.49 LIG-0.34  N 
ATOM     28 H    VAL C   6      28.206  13.760  24.813  1.00 16.49 LIG 0.16  HD
BRANCH 27 29
ATOM     29  CA  VAL C   6      26.509  13.577  23.819  1.00 18.07 LIG 0.19  C 
BRANCH 29 30
ATOM     30  CB  VAL C   6      26.237  13.966  22.353  1.00 20.19 LIG 0.01  C 
ATOM     31  CG1 VAL C   6      27.155  13.210  21.412  1.00 23.48 LIG 0.01  C 
ATOM     32  CG2 VAL C   6      24.779  13.711  21.993  1.00 21.65 LIG 0.01  C 
ENDBRANCH 29 30
BRANCH 29 33
ATOM     33  C   VAL C   6      26.644  12.065  23.943  1.00 18.86 LIG 0.20  C 
ATOM     34 O    VAL C   6      27.762  11.529  24.063  1.00 20.67 LIG-0.65  OA
ATOM     35 OXT  VAL C   6      25.626  11.352  23.907  1.00 19.38 LIG-0.65  OA
ENDBRANCH 29 33
ENDBRANCH 27 29
ENDBRANCH 24 25
BRANCH 24 36
ATOM     36  CB  GLN C   5      28.702  17.044  25.945  1.00 21.66 LIG 0.04  C 
BRANCH 36 37
ATOM     37  CG  GLN C   5      29.757  17.287  27.010  1.00 28.10 LIG 0.10  C 
BRANCH 37 38
ATOM     38  CD  GLN C   5      31.080  17.760  26.422  1.00 33.44 LIG 0.21  C 
ATOM     39  NE2 GLN C   5      32.063  16.868  26.380  1.00 35.38 LIG-0.37  N 
ATOM     40 21HE GLN C   5      31.934  16.070  26.675  1.00 35.38 LIG 0.16  HD
ATOM     41 22HE GLN C   5      32.829  17.088  26.058  1.00 35.38 LIG 0.16  HD
ATOM     42 OE1  GLN C   5      31.212  18.914  26.014  1.00 34.39 LIG-0.27  OA
ENDBRANCH 37 38
ENDBRANCH 36 37
ENDBRANCH 24 36
ENDBRANCH 21 24
ENDBRANCH 15 20
ENDBRANCH 12 15
ENDBRANCH 5 11
ENDBRANCH 3 5
BRANCH 1 43
ATOM     43  CA  ARG C   2      28.271  20.667  23.890  1.00 18.81 LIG 0.18  C 
BRANCH 43 44
ATOM     44  CB  ARG C   2      26.932  21.086  23.290  1.00 19.04 LIG 0.04  C 
BRANCH 44 45
ATOM     45  CG  ARG C   2      25.794  20.177  23.706  1.00 18.27 LIG 0.02  C 
BRANCH 45 46
ATOM     46  CD  ARG C   2      25.943  18.816  23.056  1.00 20.59 LIG 0.14  C 
BRANCH 46 47
ATOM     47  NE  ARG C   2      24.916  17.894  23.531  1.00 21.96 LIG-0.23  N 
ATOM     48 HE   ARG C   2      24.322  17.630  22.968  1.00 21.96 LIG 0.18  HD
ATOM     49  CZ  ARG C   2      24.837  17.438  24.778  1.00 22.93 LIG 0.67  C 
ATOM     50  NH2 ARG C   2      23.871  16.599  25.116  1.00 24.61 LIG-0.23  N 
ATOM     51  NH1 ARG C   2      25.726  17.822  25.684  1.00 22.65 LIG-0.23  N 
ATOM     52 1HH2 ARG C   2      23.293  16.350  24.530  1.00 24.61 LIG 0.17  HD
ATOM     53 2HH2 ARG C   2      23.820  16.304  25.922  1.00 24.61 LIG 0.17  HD
ATOM     54 1HH1 ARG C   2      26.353  18.368  25.466  1.00 22.65 LIG 0.17  HD
ATOM     55 2HH1 ARG C   2      25.674  17.526  26.489  1.00 22.65 LIG 0.17  HD
ENDBRANCH 46 47
ENDBRANCH 45 46
ENDBRANCH 44 45
ENDBRANCH 43 44
BRANCH 43 56
ATOM     56  N   ARG C   2      28.680  21.624  24.911  1.00 21.07 LIG-0.35  N 
ATOM     57  C   ARG C   1      28.819  21.250  26.180  1.00 27.96 LIG 0.25  C 
ATOM     58 O    ARG C   1      28.572  20.111  26.573  1.00 30.47 LIG-0.27  OA
ATOM     59 H    ARG C   2      28.817  22.423  24.623  1.00 21.07 LIG 0.16  HD
BRANCH 57 60
ATOM     60  CA  ARG C   1      29.314  22.309  27.157  1.00 31.07 LIG 0.27  C 
BRANCH 60 61
ATOM     61  N   ARG C   1      29.259  23.641  26.557  1.00 32.37 LIG-0.07  N 
ATOM     62 H2   ARG C   1      29.856  23.696  25.900  1.00 32.37 LIG 0.28  HD
ATOM     63 H1   ARG C   1      29.442  24.254  27.177  1.00 32.37 LIG 0.28  HD
ATOM     64 H3   ARG C   1      28.444  23.786  26.230  1.00 32.37 LIG 0.28  HD
ENDBRANCH 60 61
BRANCH 60 65
ATOM     65  CB  ARG C   1      28.476  22.245  28.435  1.00 35.21 LIG 0.04  C 
BRANCH 65 66
ATOM     66  CG  ARG C   1      27.161  23.012  28.333  1.00 38.18 LIG 0.02  C 
BRANCH 66 67
ATOM     67  CD  ARG C   1      26.542  23.279  29.696  1.00 40.83 LIG 0.14  C 
BRANCH 67 68
ATOM     68  NE  ARG C   1      26.254  24.695  29.895  1.00 41.61 LIG-0.23  N 
ATOM     69  CZ  ARG C   1      26.737  25.423  30.897  1.00 42.69 LIG 0.67  C 
ATOM     70  NH1 ARG C   1      27.534  24.866  31.802  1.00 43.45 LIG-0.23  N 
ATOM     71  NH2 ARG C   1      26.423  26.708  30.994  1.00 42.77 LIG-0.23  N 
ATOM     72 1HH1 ARG C   1      27.739  24.034  31.740  1.00 43.45 LIG 0.17  HD
ATOM     73 2HH1 ARG C   1      27.845  25.338  32.450  1.00 43.45 LIG 0.17  HD
ATOM     74 1HH2 ARG C   1      25.907  27.071  30.408  1.00 42.77 LIG 0.17  HD
ATOM     75 2HH2 ARG C   1      26.735  27.180  31.643  1.00 42.77 LIG 0.17  HD
ATOM     76 HE   ARG C   1      25.738  25.084  29.327  1.00 41.61 LIG 0.18  HD
ENDBRANCH 67 68
ENDBRANCH 66 67
ENDBRANCH 65 66
ENDBRANCH 60 65
ENDBRANCH 57 60
ENDBRANCH 43 56
ENDBRANCH 1 43
TORSDOF 29
ENDMDL
MODEL 31
USER: ADFR SOLUTION from run 7
USER: SCORE 18.673717 LL:  -4.614 LR: -15.314 RR:   0.000 FEB:  -6.663
USER: RMSD 9.774378
USER: SEED 408214
USER: STATUS searching
USER: GENES 31
USER: genes 0 Translation |==|  0.65108 0.54399 0.38610
USER: genes 1 Rotation |==|  0.06503 0.52803 0.63287 0.70582
USER: genes 2 Torsion [C]-N--CA-[CB] |==|  0.49710
USER: genes 3 Torsion [N]-CA--CB-[CG] |==|  0.32270
USER: genes 4 Torsion [CA]-CB--CG-[CD] |==|  0.78809
USER: genes 5 Torsion [CB]-CG--CD-[OE2] |==|  0.38600
USER: genes 6 Torsion [N]-CA--C-[N] |==|  0.45266
USER: genes 7 Torsion [C]-N--CA-[CB] |==|  0.85542
USER: genes 8 Torsion [N]-CA--CB-[CG2] |==|  0.46499
USER: genes 9 Torsion [CA]-CB--OG1-[HG1] |==|  0.30650
USER: genes 10 Torsion [N]-CA--C-[N] |==|  0.35612
USER: genes 11 Torsion [C]-N--CA-[C] |==|  0.61667
USER: genes 12 Torsion [N]-CA--C-[N] |==|  0.93316
USER: genes 13 Torsion [C]-N--CA-[CB] |==|  0.39697
USER: genes 14 Torsion [N]-CA--CB-[CG2] |==|  0.91595
USER: genes 15 Torsion [N]-CA--C-[OXT] |==|  0.48995
USER: genes 16 Torsion [N]-CA--CB-[CG] |==|  0.34274
USER: genes 17 Torsion [CA]-CB--CG-[CD] |==|  0.65185
USER: genes 18 Torsion [CB]-CG--CD-[OE1] |==|  0.88827
USER: genes 19 Torsion [N]-C--CA-[N] |==|  0.38125
USER: genes 20 Torsion [C]-CA--CB-[CG] |==|  0.54990
USER: genes 21 Torsion [CA]-CB--CG-[CD] |==|  0.65245
USER: genes 22 Torsion [CB]-CG--CD-[NE] |==|  0.34722
USER: genes 23 Torsion [CG]-CD--NE-[HE] |==|  0.89298
USER: genes 24 Torsion [C]-CA--N-[C] |==|  0.85797
USER: genes 25 Torsion [N]-C--CA-[N] |==|  0.57313
USER: genes 26 Torsion [C]-CA--N-[H2] |==|  0.46243
USER: genes 27 Torsion [C]-CA--CB-[CG] |==|  0.26463
USER: genes 28 Torsion [CA]-CB--CG-[CD] |==|  0.02430
USER: genes 29 Torsion [CB]-CG--CD-[NE] |==|  0.58664
USER: genes 30 Torsion [CG]-CD--NE-[CZ] |==|  0.38638
ROOT
ATOM      1  C   ARG C   2      28.502  20.608  23.606  1.00 17.64 LIG 0.24  C 
ATOM      2 O    ARG C   2      28.440  19.377  23.529  1.00 18.48 LIG-0.27  OA
ATOM      3  N   GLU C   3      29.097  21.353  22.681  1.00 16.82 LIG-0.35  N 
ATOM      4 H    GLU C   3      29.150  22.211  22.711  1.00 16.82 LIG 0.16  HD
ENDROOT
BRANCH 3 5
ATOM      5  CA  GLU C   3      29.724  20.745  21.511  1.00 17.00 LIG 0.18  C 
BRANCH 5 6
ATOM      6  CB  GLU C   3      30.312  21.827  20.592  1.00 16.91 LIG 0.04  C 
BRANCH 6 7
ATOM      7  CG  GLU C   3      31.834  21.743  20.462  1.00 19.77 LIG 0.12  C 
BRANCH 7 8
ATOM      8  CD  GLU C   3      32.561  22.280  21.681  1.00 23.53 LIG 0.17  C 
ATOM      9 OE2  GLU C   3      33.561  21.664  22.098  1.00 22.35 LIG-0.65  OA
ATOM     10 OE1  GLU C   3      32.130  23.317  22.219  1.00 28.80 LIG-0.65  OA
ENDBRANCH 7 8
ENDBRANCH 6 7
ENDBRANCH 5 6
BRANCH 5 11
ATOM     11  C   GLU C   3      30.823  19.807  21.986  1.00 16.25 LIG 0.24  C 
ATOM     12  N   THR C   4      31.275  18.903  21.112  1.00 14.90 LIG-0.34  N 
ATOM     13 H    THR C   4      31.012  18.852  20.295  1.00 14.90 LIG 0.16  HD
ATOM     14 O    GLU C   3      31.249  19.901  23.140  1.00 19.18 LIG-0.27  OA
BRANCH 12 15
ATOM     15  CA  THR C   4      32.276  17.910  21.486  1.00 14.85 LIG 0.20  C 
BRANCH 15 16
ATOM     16  CB  THR C   4      33.489  18.585  22.131  1.00 16.75 LIG 0.15  C 
ATOM     17  CG2 THR C   4      34.388  17.550  22.798  1.00 16.70 LIG 0.04  C 
BRANCH 16 18
ATOM     18 OG1  THR C   4      34.220  19.293  21.125  1.00 17.36 LIG-0.39  OA
ATOM     19 HG1  THR C   4      34.138  20.120  21.249  1.00 17.36 LIG 0.21  HD
ENDBRANCH 16 18
ENDBRANCH 15 16
BRANCH 15 20
ATOM     20  C   THR C   4      31.682  16.906  22.463  1.00 14.69 LIG 0.24  C 
ATOM     21  N   GLN C   5      31.826  15.619  22.156  1.00 15.36 LIG-0.35  N 
ATOM     22 H    GLN C   5      32.121  15.335  21.400  1.00 15.36 LIG 0.16  HD
ATOM     23 O    THR C   4      31.109  17.296  23.487  1.00 15.54 LIG-0.27  OA
BRANCH 21 24
ATOM     24  CA  GLN C   5      31.487  14.569  23.104  1.00 16.48 LIG 0.18  C 
BRANCH 24 25
ATOM     25  C   GLN C   5      32.549  13.482  23.067  1.00 17.30 LIG 0.24  C 
ATOM     26 O    GLN C   5      32.750  12.763  24.056  1.00 19.53 LIG-0.27  OA
ATOM     27  N   VAL C   6      33.254  13.383  21.944  1.00 16.49 LIG-0.34  N 
ATOM     28 H    VAL C   6      33.119  13.874  21.250  1.00 16.49 LIG 0.16  HD
BRANCH 27 29
ATOM     29  CA  VAL C   6      34.337  12.415  21.791  1.00 18.07 LIG 0.19  C 
BRANCH 29 30
ATOM     30  CB  VAL C   6      34.381  11.830  20.366  1.00 20.19 LIG 0.01  C 
ATOM     31  CG1 VAL C   6      34.995  10.443  20.368  1.00 23.48 LIG 0.01  C 
ATOM     32  CG2 VAL C   6      32.984  11.792  19.760  1.00 21.65 LIG 0.01  C 
ENDBRANCH 29 30
BRANCH 29 33
ATOM     33  C   VAL C   6      35.685  13.027  22.148  1.00 18.86 LIG 0.20  C 
ATOM     34 O    VAL C   6      35.784  14.236  22.435  1.00 20.67 LIG-0.65  OA
ATOM     35 OXT  VAL C   6      36.705  12.317  22.137  1.00 19.38 LIG-0.65  OA
ENDBRANCH 29 33
ENDBRANCH 27 29
ENDBRANCH 24 25
BRANCH 24 36
ATOM     36  CB  GLN C   5      30.137  13.953  22.739  1.00 21.66 LIG 0.04  C 
BRANCH 36 37
ATOM     37  CG  GLN C   5      30.153  12.452  22.511  1.00 28.10 LIG 0.10  C 
BRANCH 37 38
ATOM     38  CD  GLN C   5      29.585  12.062  21.153  1.00 33.44 LIG 0.21  C 
ATOM     39  NE2 GLN C   5      30.216  11.092  20.502  1.00 35.38 LIG-0.37  N 
ATOM     40 21HE GLN C   5      30.907  10.718  20.851  1.00 35.38 LIG 0.16  HD
ATOM     41 22HE GLN C   5      29.933  10.837  19.730  1.00 35.38 LIG 0.16  HD
ATOM     42 OE1  GLN C   5      28.591  12.631  20.698  1.00 34.39 LIG-0.27  OA
ENDBRANCH 37 38
ENDBRANCH 36 37
ENDBRANCH 24 36
ENDBRANCH 21 24
ENDBRANCH 15 20
ENDBRANCH 12 15
ENDBRANCH 5 11
ENDBRANCH 3 5
BRANCH 1 43
ATOM     43  CA  ARG C   2      27.918  21.343  24.809  1.00 18.81 LIG 0.18  C 
BRANCH 43 44
ATOM     44  CB  ARG C   2      28.856  21.199  26.004  1.00 19.04 LIG 0.04  C 
BRANCH 44 45
ATOM     45  CG  ARG C   2      28.178  21.508  27.322  1.00 18.27 LIG 0.02  C 
BRANCH 45 46
ATOM     46  CD  ARG C   2      28.945  22.579  28.071  1.00 20.59 LIG 0.14  C 
BRANCH 46 47
ATOM     47  NE  ARG C   2      28.079  23.703  28.412  1.00 21.96 LIG-0.23  N 
ATOM     48 HE   ARG C   2      27.491  23.947  27.834  1.00 21.96 LIG 0.18  HD
ATOM     49  CZ  ARG C   2      28.139  24.374  29.559  1.00 22.93 LIG 0.67  C 
ATOM     50  NH2 ARG C   2      27.308  25.379  29.782  1.00 24.61 LIG-0.23  N 
ATOM     51  NH1 ARG C   2      29.033  24.039  30.479  1.00 22.65 LIG-0.23  N 
ATOM     52 1HH2 ARG C   2      26.728  25.598  29.185  1.00 24.61 LIG 0.17  HD
ATOM     53 2HH2 ARG C   2      27.347  25.813  30.523  1.00 24.61 LIG 0.17  HD
ATOM     54 1HH1 ARG C   2      29.574  23.387  30.335  1.00 22.65 LIG 0.17  HD
ATOM     55 2HH1 ARG C   2      29.070  24.473  31.220  1.00 22.65 LIG 0.17  HD
ENDBRANCH 46 47
ENDBRANCH 45 46
ENDBRANCH 44 45
ENDBRANCH 43 44
BRANCH 43 56
ATOM     56  N   ARG C   2      26.606  20.797  25.139  1.00 21.07 LIG-0.35  N 
ATOM     57  C   ARG C   1      25.668  20.665  24.205  1.00 27.96 LIG 0.25  C 
ATOM     58 O    ARG C   1      25.825  21.031  23.041  1.00 30.47 LIG-0.27  OA
ATOM     59 H    ARG C   2      26.504  20.576  25.965  1.00 21.07 LIG 0.16  HD
BRANCH 57 60
ATOM     60  CA  ARG C   1      24.355  20.023  24.638  1.00 31.07 LIG 0.27  C 
BRANCH 60 61
ATOM     61  N   ARG C   1      23.689  19.382  23.506  1.00 32.37 LIG-0.07  N 
ATOM     62 H2   ARG C   1      23.038  18.853  23.805  1.00 32.37 LIG 0.28  HD
ATOM     63 H1   ARG C   1      24.279  18.896  23.049  1.00 32.37 LIG 0.28  HD
ATOM     64 H3   ARG C   1      23.343  20.005  22.972  1.00 32.37 LIG 0.28  HD
ENDBRANCH 60 61
BRANCH 60 65
ATOM     65  CB  ARG C   1      24.632  19.018  25.757  1.00 35.21 LIG 0.04  C 
BRANCH 65 66
ATOM     66  CG  ARG C   1      24.435  19.602  27.153  1.00 38.18 LIG 0.02  C 
BRANCH 66 67
ATOM     67  CD  ARG C   1      23.805  20.985  27.115  1.00 40.83 LIG 0.14  C 
BRANCH 67 68
ATOM     68  NE  ARG C   1      24.252  21.817  28.227  1.00 41.61 LIG-0.23  N 
ATOM     69  CZ  ARG C   1      24.557  23.107  28.119  1.00 42.69 LIG 0.67  C 
ATOM     70  NH1 ARG C   1      24.466  23.718  26.944  1.00 43.45 LIG-0.23  N 
ATOM     71  NH2 ARG C   1      24.951  23.786  29.189  1.00 42.77 LIG-0.23  N 
ATOM     72 1HH1 ARG C   1      24.209  23.280  26.250  1.00 43.45 LIG 0.17  HD
ATOM     73 2HH1 ARG C   1      24.664  24.553  26.877  1.00 43.45 LIG 0.17  HD
ATOM     74 1HH2 ARG C   1      25.009  23.391  29.952  1.00 42.77 LIG 0.17  HD
ATOM     75 2HH2 ARG C   1      25.149  24.620  29.120  1.00 42.77 LIG 0.17  HD
ATOM     76 HE   ARG C   1      24.324  21.450  29.001  1.00 41.61 LIG 0.18  HD
ENDBRANCH 67 68
ENDBRANCH 66 67
ENDBRANCH 65 66
ENDBRANCH 60 65
ENDBRANCH 57 60
ENDBRANCH 43 56
ENDBRANCH 1 43
TORSDOF 29
ENDMDL
MODEL 32
USER: ADFR SOLUTION from run 84
USER: SCORE 17.927269 LL:  -4.159 LR: -15.291 RR:   0.000 FEB:  -6.640
USER: RMSD 11.028215
USER: SEED 83
USER: STATUS no improvement in best in 14 clusters for 5 generations
USER: GENES 31
USER: genes 0 Translation |==|  0.59554 0.52636 0.34864
USER: genes 1 Rotation |==|  0.81592 0.17167 0.70499 0.51927
USER: genes 2 Torsion [C]-N--CA-[CB] |==|  0.52238
USER: genes 3 Torsion [N]-CA--CB-[CG] |==|  0.53619
USER: genes 4 Torsion [CA]-CB--CG-[CD] |==|  0.34133
USER: genes 5 Torsion [CB]-CG--CD-[OE2] |==|  0.69312
USER: genes 6 Torsion [N]-CA--C-[N] |==|  0.29077
USER: genes 7 Torsion [C]-N--CA-[CB] |==|  0.14593
USER: genes 8 Torsion [N]-CA--CB-[CG2] |==|  0.18243
USER: genes 9 Torsion [CA]-CB--OG1-[HG1] |==|  0.92256
USER: genes 10 Torsion [N]-CA--C-[N] |==|  0.11111
USER: genes 11 Torsion [C]-N--CA-[C] |==|  0.84378
USER: genes 12 Torsion [N]-CA--C-[N] |==|  0.90705
USER: genes 13 Torsion [C]-N--CA-[CB] |==|  0.28033
USER: genes 14 Torsion [N]-CA--CB-[CG2] |==|  0.07317
USER: genes 15 Torsion [N]-CA--C-[OXT] |==|  0.84594
USER: genes 16 Torsion [N]-CA--CB-[CG] |==|  0.34535
USER: genes 17 Torsion [CA]-CB--CG-[CD] |==|  0.22967
USER: genes 18 Torsion [CB]-CG--CD-[OE1] |==|  0.06776
USER: genes 19 Torsion [N]-C--CA-[N] |==|  0.70556
USER: genes 20 Torsion [C]-CA--CB-[CG] |==|  0.26580
USER: genes 21 Torsion [CA]-CB--CG-[CD] |==|  0.22635
USER: genes 22 Torsion [CB]-CG--CD-[NE] |==|  0.02177
USER: genes 23 Torsion [CG]-CD--NE-[HE] |==|  0.77762
USER: genes 24 Torsion [C]-CA--N-[C] |==|  0.16552
USER: genes 25 Torsion [N]-C--CA-[N] |==|  0.97416
USER: genes 26 Torsion [C]-CA--N-[H2] |==|  0.92554
USER: genes 27 Torsion [C]-CA--CB-[CG] |==|  0.53774
USER: genes 28 Torsion [CA]-CB--CG-[CD] |==|  0.45108
USER: genes 29 Torsion [CB]-CG--CD-[NE] |==|  0.61902
USER: genes 30 Torsion [CG]-CD--NE-[CZ] |==|  0.73357
ROOT
ATOM      1  C   ARG C   2      26.961  20.198  22.904  1.00 17.64 LIG 0.24  C 
ATOM      2 O    ARG C   2      25.838  20.710  22.944  1.00 18.48 LIG-0.27  OA
ATOM      3  N   GLU C   3      27.153  18.888  23.010  1.00 16.82 LIG-0.35  N 
ATOM      4 H    GLU C   3      27.924  18.507  22.981  1.00 16.82 LIG 0.16  HD
ENDROOT
BRANCH 3 5
ATOM      5  CA  GLU C   3      26.030  17.973  23.189  1.00 17.00 LIG 0.18  C 
BRANCH 5 6
ATOM      6  CB  GLU C   3      26.535  16.551  23.483  1.00 16.91 LIG 0.04  C 
BRANCH 6 7
ATOM      7  CG  GLU C   3      25.441  15.489  23.368  1.00 19.77 LIG 0.12  C 
BRANCH 7 8
ATOM      8  CD  GLU C   3      25.779  14.397  22.370  1.00 23.53 LIG 0.17  C 
ATOM      9 OE2  GLU C   3      25.130  14.338  21.308  1.00 22.35 LIG-0.65  OA
ATOM     10 OE1  GLU C   3      26.693  13.600  22.652  1.00 28.80 LIG-0.65  OA
ENDBRANCH 7 8
ENDBRANCH 6 7
ENDBRANCH 5 6
BRANCH 5 11
ATOM     11  C   GLU C   3      25.179  18.475  24.345  1.00 16.25 LIG 0.24  C 
ATOM     12  N   THR C   4      24.023  19.070  24.040  1.00 14.90 LIG-0.34  N 
ATOM     13 H    THR C   4      23.719  19.146  23.239  1.00 14.90 LIG 0.16  HD
ATOM     14 O    GLU C   3      25.576  18.328  25.504  1.00 19.18 LIG-0.27  OA
BRANCH 12 15
ATOM     15  CA  THR C   4      23.166  19.652  25.066  1.00 14.85 LIG 0.20  C 
BRANCH 15 16
ATOM     16  CB  THR C   4      23.961  20.619  25.947  1.00 16.75 LIG 0.15  C 
ATOM     17  CG2 THR C   4      24.425  21.825  25.138  1.00 16.70 LIG 0.04  C 
BRANCH 16 18
ATOM     18 OG1  THR C   4      23.136  21.046  27.035  1.00 17.36 LIG-0.39  OA
ATOM     19 HG1  THR C   4      22.329  21.019  26.803  1.00 17.36 LIG 0.21  HD
ENDBRANCH 16 18
ENDBRANCH 15 16
BRANCH 15 20
ATOM     20  C   THR C   4      22.006  20.398  24.423  1.00 14.69 LIG 0.24  C 
ATOM     21  N   GLN C   5      21.448  19.827  23.358  1.00 15.36 LIG-0.35  N 
ATOM     22 H    GLN C   5      21.773  19.142  22.953  1.00 15.36 LIG 0.16  HD
ATOM     23 O    THR C   4      21.618  21.472  24.894  1.00 15.54 LIG-0.27  OA
BRANCH 21 24
ATOM     24  CA  GLN C   5      20.210  20.335  22.785  1.00 16.48 LIG 0.18  C 
BRANCH 24 25
ATOM     25  C   GLN C   5      19.126  20.365  23.850  1.00 17.30 LIG 0.24  C 
ATOM     26 O    GLN C   5      18.277  21.267  23.860  1.00 19.53 LIG-0.27  OA
ATOM     27  N   VAL C   6      19.173  19.403  24.767  1.00 16.49 LIG-0.34  N 
ATOM     28 H    VAL C   6      19.755  18.770  24.766  1.00 16.49 LIG 0.16  HD
BRANCH 27 29
ATOM     29  CA  VAL C   6      18.222  19.341  25.874  1.00 18.07 LIG 0.19  C 
BRANCH 29 30
ATOM     30  CB  VAL C   6      17.113  18.303  25.615  1.00 20.19 LIG 0.01  C 
ATOM     31  CG1 VAL C   6      15.872  18.966  25.048  1.00 23.48 LIG 0.01  C 
ATOM     32  CG2 VAL C   6      17.610  17.213  24.674  1.00 21.65 LIG 0.01  C 
ENDBRANCH 29 30
BRANCH 29 33
ATOM     33  C   VAL C   6      18.923  19.040  27.193  1.00 18.86 LIG 0.20  C 
ATOM     34 O    VAL C   6      18.806  19.805  28.170  1.00 20.67 LIG-0.65  OA
ATOM     35 OXT  VAL C   6      19.637  18.028  27.293  1.00 19.38 LIG-0.65  OA
ENDBRANCH 29 33
ENDBRANCH 27 29
ENDBRANCH 24 25
BRANCH 24 36
ATOM     36  CB  GLN C   5      19.755  19.428  21.642  1.00 21.66 LIG 0.04  C 
BRANCH 36 37
ATOM     37  CG  GLN C   5      18.348  18.875  21.780  1.00 28.10 LIG 0.10  C 
BRANCH 37 38
ATOM     38  CD  GLN C   5      17.285  19.859  21.309  1.00 33.44 LIG 0.21  C 
ATOM     39  NE2 GLN C   5      16.069  19.710  21.822  1.00 35.38 LIG-0.37  N 
ATOM     40 21HE GLN C   5      15.915  19.083  22.390  1.00 35.38 LIG 0.16  HD
ATOM     41 22HE GLN C   5      15.435  20.241  21.586  1.00 35.38 LIG 0.16  HD
ATOM     42 OE1  GLN C   5      17.559  20.739  20.492  1.00 34.39 LIG-0.27  OA
ENDBRANCH 37 38
ENDBRANCH 36 37
ENDBRANCH 24 36
ENDBRANCH 21 24
ENDBRANCH 15 20
ENDBRANCH 12 15
ENDBRANCH 5 11
ENDBRANCH 3 5
BRANCH 1 43
ATOM     43  CA  ARG C   2      28.208  21.066  22.763  1.00 18.81 LIG 0.18  C 
BRANCH 43 44
ATOM     44  CB  ARG C   2      29.405  20.191  22.405  1.00 19.04 LIG 0.04  C 
BRANCH 44 45
ATOM     45  CG  ARG C   2      29.671  20.143  20.915  1.00 18.27 LIG 0.02  C 
BRANCH 45 46
ATOM     46  CD  ARG C   2      30.449  21.368  20.478  1.00 20.59 LIG 0.14  C 
BRANCH 46 47
ATOM     47  NE  ARG C   2      30.882  22.152  21.631  1.00 21.96 LIG-0.23  N 
ATOM     48 HE   ARG C   2      30.307  22.675  21.999  1.00 21.96 LIG 0.18  HD
ATOM     49  CZ  ARG C   2      32.106  22.110  22.147  1.00 22.93 LIG 0.67  C 
ATOM     50  NH2 ARG C   2      32.407  22.856  23.198  1.00 24.61 LIG-0.23  N 
ATOM     51  NH1 ARG C   2      33.029  21.324  21.610  1.00 22.65 LIG-0.23  N 
ATOM     52 1HH2 ARG C   2      31.810  23.367  23.548  1.00 24.61 LIG 0.17  HD
ATOM     53 2HH2 ARG C   2      33.199  22.829  23.532  1.00 24.61 LIG 0.17  HD
ATOM     54 1HH1 ARG C   2      32.835  20.840  20.926  1.00 22.65 LIG 0.17  HD
ATOM     55 2HH1 ARG C   2      33.820  21.298  21.945  1.00 22.65 LIG 0.17  HD
ENDBRANCH 46 47
ENDBRANCH 45 46
ENDBRANCH 44 45
ENDBRANCH 43 44
BRANCH 43 56
ATOM     56  N   ARG C   2      28.467  21.775  24.011  1.00 21.07 LIG-0.35  N 
ATOM     57  C   ARG C   1      28.680  21.109  25.143  1.00 27.96 LIG 0.25  C 
ATOM     58 O    ARG C   1      28.627  19.882  25.218  1.00 30.47 LIG-0.27  OA
ATOM     59 H    ARG C   2      28.468  22.633  23.945  1.00 21.07 LIG 0.16  HD
BRANCH 57 60
ATOM     60  CA  ARG C   1      29.006  21.940  26.377  1.00 31.07 LIG 0.27  C 
BRANCH 60 61
ATOM     61  N   ARG C   1      29.237  23.339  26.020  1.00 32.37 LIG-0.07  N 
ATOM     62 H2   ARG C   1      29.526  23.387  25.180  1.00 32.37 LIG 0.28  HD
ATOM     63 H1   ARG C   1      29.849  23.687  26.565  1.00 32.37 LIG 0.28  HD
ATOM     64 H3   ARG C   1      28.477  23.795  26.099  1.00 32.37 LIG 0.28  HD
ENDBRANCH 60 61
BRANCH 60 65
ATOM     65  CB  ARG C   1      27.865  21.810  27.387  1.00 35.21 LIG 0.04  C 
BRANCH 65 66
ATOM     66  CG  ARG C   1      27.929  22.846  28.505  1.00 38.18 LIG 0.02  C 
BRANCH 66 67
ATOM     67  CD  ARG C   1      26.603  22.988  29.236  1.00 40.83 LIG 0.14  C 
BRANCH 67 68
ATOM     68  NE  ARG C   1      26.271  24.385  29.495  1.00 41.61 LIG-0.23  N 
ATOM     69  CZ  ARG C   1      26.527  25.015  30.637  1.00 42.69 LIG 0.67  C 
ATOM     70  NH1 ARG C   1      27.120  24.369  31.636  1.00 43.45 LIG-0.23  N 
ATOM     71  NH2 ARG C   1      26.193  26.290  30.780  1.00 42.77 LIG-0.23  N 
ATOM     72 1HH1 ARG C   1      27.338  23.543  31.544  1.00 43.45 LIG 0.17  HD
ATOM     73 2HH1 ARG C   1      27.284  24.779  32.374  1.00 43.45 LIG 0.17  HD
ATOM     74 1HH2 ARG C   1      25.810  26.710  30.133  1.00 42.77 LIG 0.17  HD
ATOM     75 2HH2 ARG C   1      26.358  26.698  31.519  1.00 42.77 LIG 0.17  HD
ATOM     76 HE   ARG C   1      25.884  24.829  28.868  1.00 41.61 LIG 0.18  HD
ENDBRANCH 67 68
ENDBRANCH 66 67
ENDBRANCH 65 66
ENDBRANCH 60 65
ENDBRANCH 57 60
ENDBRANCH 43 56
ENDBRANCH 1 43
TORSDOF 29
ENDMDL
MODEL 33
USER: ADFR SOLUTION from run 121
USER: SCORE 19.488643 LL:  -6.608 LR: -15.274 RR:   0.000 FEB:  -6.624
USER: RMSD 10.479660
USER: SEED 120
USER: STATUS no improvement in best in 5 clusters for 5 generations
USER: GENES 31
USER: genes 0 Translation |==|  0.79760 0.58706 0.38084
USER: genes 1 Rotation |==|  0.64407 0.79082 0.12265 0.54770
USER: genes 2 Torsion [C]-N--CA-[CB] |==|  0.24182
USER: genes 3 Torsion [N]-CA--CB-[CG] |==|  0.72332
USER: genes 4 Torsion [CA]-CB--CG-[CD] |==|  0.27084
USER: genes 5 Torsion [CB]-CG--CD-[OE2] |==|  0.16264
USER: genes 6 Torsion [N]-CA--C-[N] |==|  0.94444
USER: genes 7 Torsion [C]-N--CA-[CB] |==|  0.27142
USER: genes 8 Torsion [N]-CA--CB-[CG2] |==|  0.18575
USER: genes 9 Torsion [CA]-CB--OG1-[HG1] |==|  0.62838
USER: genes 10 Torsion [N]-CA--C-[N] |==|  0.44663
USER: genes 11 Torsion [C]-N--CA-[C] |==|  0.71167
USER: genes 12 Torsion [N]-CA--C-[N] |==|  0.88617
USER: genes 13 Torsion [C]-N--CA-[CB] |==|  0.39161
USER: genes 14 Torsion [N]-CA--CB-[CG2] |==|  0.95632
USER: genes 15 Torsion [N]-CA--C-[OXT] |==|  0.98741
USER: genes 16 Torsion [N]-CA--CB-[CG] |==|  0.46757
USER: genes 17 Torsion [CA]-CB--CG-[CD] |==|  0.31601
USER: genes 18 Torsion [CB]-CG--CD-[OE1] |==|  0.18208
USER: genes 19 Torsion [N]-C--CA-[N] |==|  0.89312
USER: genes 20 Torsion [C]-CA--CB-[CG] |==|  0.10955
USER: genes 21 Torsion [CA]-CB--CG-[CD] |==|  0.62497
USER: genes 22 Torsion [CB]-CG--CD-[NE] |==|  0.07761
USER: genes 23 Torsion [CG]-CD--NE-[HE] |==|  0.84170
USER: genes 24 Torsion [C]-CA--N-[C] |==|  0.74368
USER: genes 25 Torsion [N]-C--CA-[N] |==|  0.78921
USER: genes 26 Torsion [C]-CA--N-[H2] |==|  0.07118
USER: genes 27 Torsion [C]-CA--CB-[CG] |==|  0.41462
USER: genes 28 Torsion [CA]-CB--CG-[CD] |==|  0.22391
USER: genes 29 Torsion [CB]-CG--CD-[NE] |==|  0.63104
USER: genes 30 Torsion [CG]-CD--NE-[CZ] |==|  0.76849
ROOT
ATOM      1  C   ARG C   2      32.568  21.609  23.508  1.00 17.64 LIG 0.24  C 
ATOM      2 O    ARG C   2      33.399  22.105  22.739  1.00 18.48 LIG-0.27  OA
ATOM      3  N   GLU C   3      31.422  21.090  23.083  1.00 16.82 LIG-0.35  N 
ATOM      4 H    GLU C   3      30.830  20.736  23.597  1.00 16.82 LIG 0.16  HD
ENDROOT
BRANCH 3 5
ATOM      5  CA  GLU C   3      31.076  21.084  21.665  1.00 17.00 LIG 0.18  C 
BRANCH 5 6
ATOM      6  CB  GLU C   3      31.648  19.835  20.976  1.00 16.91 LIG 0.04  C 
BRANCH 6 7
ATOM      7  CG  GLU C   3      32.946  20.109  20.215  1.00 19.77 LIG 0.12  C 
BRANCH 7 8
ATOM      8  CD  GLU C   3      34.186  19.745  21.011  1.00 23.53 LIG 0.17  C 
ATOM      9 OE2  GLU C   3      34.319  18.570  21.404  1.00 22.35 LIG-0.65  OA
ATOM     10 OE1  GLU C   3      35.024  20.637  21.243  1.00 28.80 LIG-0.65  OA
ENDBRANCH 7 8
ENDBRANCH 6 7
ENDBRANCH 5 6
BRANCH 5 11
ATOM     11  C   GLU C   3      29.560  21.104  21.538  1.00 16.25 LIG 0.24  C 
ATOM     12  N   THR C   4      28.853  20.714  22.603  1.00 14.90 LIG-0.34  N 
ATOM     13 H    THR C   4      29.203  20.497  23.358  1.00 14.90 LIG 0.16  HD
ATOM     14 O    GLU C   3      29.041  21.463  20.479  1.00 19.18 LIG-0.27  OA
BRANCH 12 15
ATOM     15  CA  THR C   4      27.399  20.626  22.565  1.00 14.85 LIG 0.20  C 
BRANCH 15 16
ATOM     16  CB  THR C   4      26.953  19.185  22.303  1.00 16.75 LIG 0.15  C 
ATOM     17  CG2 THR C   4      27.313  18.288  23.481  1.00 16.70 LIG 0.04  C 
BRANCH 16 18
ATOM     18 OG1  THR C   4      25.539  19.165  22.085  1.00 17.36 LIG-0.39  OA
ATOM     19 HG1  THR C   4      25.195  18.542  22.532  1.00 17.36 LIG 0.21  HD
ENDBRANCH 16 18
ENDBRANCH 15 16
BRANCH 15 20
ATOM     20  C   THR C   4      26.808  21.101  23.885  1.00 14.69 LIG 0.24  C 
ATOM     21  N   GLN C   5      25.524  21.450  23.871  1.00 15.36 LIG-0.35  N 
ATOM     22 H    GLN C   5      25.056  21.535  23.154  1.00 15.36 LIG 0.16  HD
ATOM     23 O    THR C   4      27.507  21.140  24.903  1.00 15.54 LIG-0.27  OA
BRANCH 21 24
ATOM     24  CA  GLN C   5      24.797  21.722  25.102  1.00 16.48 LIG 0.18  C 
BRANCH 24 25
ATOM     25  C   GLN C   5      23.893  20.544  25.434  1.00 17.30 LIG 0.24  C 
ATOM     26 O    GLN C   5      23.805  20.127  26.597  1.00 19.53 LIG-0.27  OA
ATOM     27  N   VAL C   6      23.251  19.986  24.412  1.00 16.49 LIG-0.34  N 
ATOM     28 H    VAL C   6      23.302  20.272  23.602  1.00 16.49 LIG 0.16  HD
BRANCH 27 29
ATOM     29  CA  VAL C   6      22.390  18.819  24.583  1.00 18.07 LIG 0.19  C 
BRANCH 29 30
ATOM     30  CB  VAL C   6      21.126  18.911  23.707  1.00 20.19 LIG 0.01  C 
ATOM     31  CG1 VAL C   6      19.902  18.439  24.469  1.00 23.48 LIG 0.01  C 
ATOM     32  CG2 VAL C   6      20.924  20.335  23.207  1.00 21.65 LIG 0.01  C 
ENDBRANCH 29 30
BRANCH 29 33
ATOM     33  C   VAL C   6      23.140  17.526  24.288  1.00 18.86 LIG 0.20  C 
ATOM     34 O    VAL C   6      22.604  16.417  24.476  1.00 20.67 LIG-0.65  OA
ATOM     35 OXT  VAL C   6      24.309  17.576  23.870  1.00 19.38 LIG-0.65  OA
ENDBRANCH 29 33
ENDBRANCH 27 29
ENDBRANCH 24 25
BRANCH 24 36
ATOM     36  CB  GLN C   5      23.935  22.973  24.933  1.00 21.66 LIG 0.04  C 
BRANCH 36 37
ATOM     37  CG  GLN C   5      22.920  23.211  26.038  1.00 28.10 LIG 0.10  C 
BRANCH 37 38
ATOM     38  CD  GLN C   5      23.227  24.461  26.851  1.00 33.44 LIG 0.21  C 
ATOM     39  NE2 GLN C   5      23.549  24.275  28.127  1.00 35.38 LIG-0.37  N 
ATOM     40 21HE GLN C   5      23.577  23.479  28.452  1.00 35.38 LIG 0.16  HD
ATOM     41 22HE GLN C   5      23.730  24.950  28.627  1.00 35.38 LIG 0.16  HD
ATOM     42 OE1  GLN C   5      23.173  25.578  26.336  1.00 34.39 LIG-0.27  OA
ENDBRANCH 37 38
ENDBRANCH 36 37
ENDBRANCH 24 36
ENDBRANCH 21 24
ENDBRANCH 15 20
ENDBRANCH 12 15
ENDBRANCH 5 11
ENDBRANCH 3 5
BRANCH 1 43
ATOM     43  CA  ARG C   2      32.810  21.601  25.015  1.00 18.81 LIG 0.18  C 
BRANCH 43 44
ATOM     44  CB  ARG C   2      33.344  20.237  25.442  1.00 19.04 LIG 0.04  C 
BRANCH 44 45
ATOM     45  CG  ARG C   2      34.333  19.659  24.451  1.00 18.27 LIG 0.02  C 
BRANCH 45 46
ATOM     46  CD  ARG C   2      34.030  18.197  24.197  1.00 20.59 LIG 0.14  C 
BRANCH 46 47
ATOM     47  NE  ARG C   2      32.612  17.913  24.392  1.00 21.96 LIG-0.23  N 
ATOM     48 HE   ARG C   2      32.266  18.103  25.157  1.00 21.96 LIG 0.18  HD
ATOM     49  CZ  ARG C   2      31.820  17.381  23.466  1.00 22.93 LIG 0.67  C 
ATOM     50  NH2 ARG C   2      30.542  17.163  23.734  1.00 24.61 LIG-0.23  N 
ATOM     51  NH1 ARG C   2      32.308  17.065  22.275  1.00 22.65 LIG-0.23  N 
ATOM     52 1HH2 ARG C   2      30.224  17.366  24.507  1.00 24.61 LIG 0.17  HD
ATOM     53 2HH2 ARG C   2      30.030  16.818  23.135  1.00 24.61 LIG 0.17  HD
ATOM     54 1HH1 ARG C   2      33.139  17.204  22.100  1.00 22.65 LIG 0.17  HD
ATOM     55 2HH1 ARG C   2      31.795  16.721  21.677  1.00 22.65 LIG 0.17  HD
ENDBRANCH 46 47
ENDBRANCH 45 46
ENDBRANCH 44 45
ENDBRANCH 43 44
BRANCH 43 56
ATOM     56  N   ARG C   2      31.568  21.892  25.721  1.00 21.07 LIG-0.35  N 
ATOM     57  C   ARG C   1      31.250  23.139  26.058  1.00 27.96 LIG 0.25  C 
ATOM     58 O    ARG C   1      31.988  24.100  25.843  1.00 30.47 LIG-0.27  OA
ATOM     59 H    ARG C   2      31.080  21.204  25.891  1.00 21.07 LIG 0.16  HD
BRANCH 57 60
ATOM     60  CA  ARG C   1      29.900  23.345  26.734  1.00 31.07 LIG 0.27  C 
BRANCH 60 61
ATOM     61  N   ARG C   1      28.811  23.264  25.763  1.00 32.37 LIG-0.07  N 
ATOM     62 H2   ARG C   1      29.066  22.765  25.071  1.00 32.37 LIG 0.28  HD
ATOM     63 H1   ARG C   1      28.605  24.082  25.478  1.00 32.37 LIG 0.28  HD
ATOM     64 H3   ARG C   1      28.097  22.896  26.147  1.00 32.37 LIG 0.28  HD
ENDBRANCH 60 61
BRANCH 60 65
ATOM     65  CB  ARG C   1      29.729  22.304  27.842  1.00 35.21 LIG 0.04  C 
BRANCH 65 66
ATOM     66  CG  ARG C   1      28.881  22.802  29.010  1.00 38.18 LIG 0.02  C 
BRANCH 66 67
ATOM     67  CD  ARG C   1      27.391  22.712  28.718  1.00 40.83 LIG 0.14  C 
BRANCH 67 68
ATOM     68  NE  ARG C   1      26.694  23.944  29.069  1.00 41.61 LIG-0.23  N 
ATOM     69  CZ  ARG C   1      26.272  24.241  30.294  1.00 42.69 LIG 0.67  C 
ATOM     70  NH1 ARG C   1      26.475  23.390  31.294  1.00 43.45 LIG-0.23  N 
ATOM     71  NH2 ARG C   1      25.650  25.391  30.520  1.00 42.77 LIG-0.23  N 
ATOM     72 1HH1 ARG C   1      26.879  22.646  31.149  1.00 43.45 LIG 0.17  HD
ATOM     73 2HH1 ARG C   1      26.201  23.584  32.086  1.00 43.45 LIG 0.17  HD
ATOM     74 1HH2 ARG C   1      25.519  25.944  29.874  1.00 42.77 LIG 0.17  HD
ATOM     75 2HH2 ARG C   1      25.377  25.584  31.313  1.00 42.77 LIG 0.17  HD
ATOM     76 HE   ARG C   1      26.545  24.515  28.443  1.00 41.61 LIG 0.18  HD
ENDBRANCH 67 68
ENDBRANCH 66 67
ENDBRANCH 65 66
ENDBRANCH 60 65
ENDBRANCH 57 60
ENDBRANCH 43 56
ENDBRANCH 1 43
TORSDOF 29
ENDMDL
MODEL 34
USER: ADFR SOLUTION from run 6
USER: SCORE 18.518636 LL:  -4.746 LR: -15.251 RR:   0.000 FEB:  -6.600
USER: RMSD 6.357756
USER: SEED 523692
USER: STATUS searching
USER: GENES 31
USER: genes 0 Translation |==|  0.56909 0.54245 0.43186
USER: genes 1 Rotation |==|  0.62911 0.66879 0.33536 0.92159
USER: genes 2 Torsion [C]-N--CA-[CB] |==|  0.86979
USER: genes 3 Torsion [N]-CA--CB-[CG] |==|  0.61204
USER: genes 4 Torsion [CA]-CB--CG-[CD] |==|  0.66193
USER: genes 5 Torsion [CB]-CG--CD-[OE2] |==|  0.15985
USER: genes 6 Torsion [N]-CA--C-[N] |==|  0.77648
USER: genes 7 Torsion [C]-N--CA-[CB] |==|  0.77721
USER: genes 8 Torsion [N]-CA--CB-[CG2] |==|  0.53332
USER: genes 9 Torsion [CA]-CB--OG1-[HG1] |==|  0.87884
USER: genes 10 Torsion [N]-CA--C-[N] |==|  0.25480
USER: genes 11 Torsion [C]-N--CA-[C] |==|  0.17778
USER: genes 12 Torsion [N]-CA--C-[N] |==|  0.12551
USER: genes 13 Torsion [C]-N--CA-[CB] |==|  0.44923
USER: genes 14 Torsion [N]-CA--CB-[CG2] |==|  0.62074
USER: genes 15 Torsion [N]-CA--C-[OXT] |==|  0.94621
USER: genes 16 Torsion [N]-CA--CB-[CG] |==|  0.71420
USER: genes 17 Torsion [CA]-CB--CG-[CD] |==|  0.68948
USER: genes 18 Torsion [CB]-CG--CD-[OE1] |==|  0.91717
USER: genes 19 Torsion [N]-C--CA-[N] |==|  0.43185
USER: genes 20 Torsion [C]-CA--CB-[CG] |==|  0.43256
USER: genes 21 Torsion [CA]-CB--CG-[CD] |==|  0.74047
USER: genes 22 Torsion [CB]-CG--CD-[NE] |==|  0.99830
USER: genes 23 Torsion [CG]-CD--NE-[HE] |==|  0.83593
USER: genes 24 Torsion [C]-CA--N-[C] |==|  0.81292
USER: genes 25 Torsion [N]-C--CA-[N] |==|  0.59981
USER: genes 26 Torsion [C]-CA--N-[H2] |==|  0.84933
USER: genes 27 Torsion [C]-CA--CB-[CG] |==|  0.36326
USER: genes 28 Torsion [CA]-CB--CG-[CD] |==|  0.72065
USER: genes 29 Torsion [CB]-CG--CD-[NE] |==|  0.91007
USER: genes 30 Torsion [CG]-CD--NE-[CZ] |==|  0.44121
ROOT
ATOM      1  C   ARG C   2      26.227  20.572  24.464  1.00 17.64 LIG 0.24  C 
ATOM      2 O    ARG C   2      26.438  21.766  24.228  1.00 18.48 LIG-0.27  OA
ATOM      3  N   GLU C   3      27.105  19.620  24.170  1.00 16.82 LIG-0.35  N 
ATOM      4 H    GLU C   3      26.983  18.783  24.328  1.00 16.82 LIG 0.16  HD
ENDROOT
BRANCH 3 5
ATOM      5  CA  GLU C   3      28.381  19.939  23.536  1.00 17.00 LIG 0.18  C 
BRANCH 5 6
ATOM      6  CB  GLU C   3      28.169  20.896  22.353  1.00 16.91 LIG 0.04  C 
BRANCH 6 7
ATOM      7  CG  GLU C   3      29.042  20.560  21.143  1.00 19.77 LIG 0.12  C 
BRANCH 7 8
ATOM      8  CD  GLU C   3      29.946  21.707  20.730  1.00 23.53 LIG 0.17  C 
ATOM      9 OE2  GLU C   3      30.745  22.168  21.567  1.00 22.35 LIG-0.65  OA
ATOM     10 OE1  GLU C   3      29.854  22.144  19.568  1.00 28.80 LIG-0.65  OA
ENDBRANCH 7 8
ENDBRANCH 6 7
ENDBRANCH 5 6
BRANCH 5 11
ATOM     11  C   GLU C   3      29.287  20.583  24.575  1.00 16.25 LIG 0.24  C 
ATOM     12  N   THR C   4      29.097  21.881  24.831  1.00 14.90 LIG-0.34  N 
ATOM     13 H    THR C   4      28.472  22.353  24.476  1.00 14.90 LIG 0.16  HD
ATOM     14 O    GLU C   3      30.155  19.906  25.131  1.00 19.18 LIG-0.27  OA
BRANCH 12 15
ATOM     15  CA  THR C   4      29.956  22.613  25.754  1.00 14.85 LIG 0.20  C 
BRANCH 15 16
ATOM     16  CB  THR C   4      29.541  22.343  27.203  1.00 16.75 LIG 0.15  C 
ATOM     17  CG2 THR C   4      30.230  23.320  28.150  1.00 16.70 LIG 0.04  C 
BRANCH 16 18
ATOM     18 OG1  THR C   4      28.120  22.472  27.314  1.00 17.36 LIG-0.39  OA
ATOM     19 HG1  THR C   4      27.866  23.152  26.893  1.00 17.36 LIG 0.21  HD
ENDBRANCH 16 18
ENDBRANCH 15 16
BRANCH 15 20
ATOM     20  C   THR C   4      31.407  22.200  25.563  1.00 14.69 LIG 0.24  C 
ATOM     21  N   GLN C   5      32.124  22.921  24.704  1.00 15.36 LIG-0.35  N 
ATOM     22 H    GLN C   5      31.790  23.513  24.177  1.00 15.36 LIG 0.16  HD
ATOM     23 O    THR C   4      31.873  21.245  26.195  1.00 15.54 LIG-0.27  OA
BRANCH 21 24
ATOM     24  CA  GLN C   5      33.565  22.756  24.590  1.00 16.48 LIG 0.18  C 
BRANCH 24 25
ATOM     25  C   GLN C   5      33.883  21.354  24.093  1.00 17.30 LIG 0.24  C 
ATOM     26 O    GLN C   5      34.798  20.697  24.605  1.00 19.53 LIG-0.27  OA
ATOM     27  N   VAL C   6      33.154  20.911  23.073  1.00 16.49 LIG-0.34  N 
ATOM     28 H    VAL C   6      32.513  21.358  22.713  1.00 16.49 LIG 0.16  HD
BRANCH 27 29
ATOM     29  CA  VAL C   6      33.385  19.603  22.466  1.00 18.07 LIG 0.19  C 
BRANCH 29 30
ATOM     30  CB  VAL C   6      32.172  19.134  21.641  1.00 20.19 LIG 0.01  C 
ATOM     31  CG1 VAL C   6      32.400  19.367  20.160  1.00 23.48 LIG 0.01  C 
ATOM     32  CG2 VAL C   6      31.879  17.663  21.909  1.00 21.65 LIG 0.01  C 
ENDBRANCH 29 30
BRANCH 29 33
ATOM     33  C   VAL C   6      34.639  19.605  21.600  1.00 18.86 LIG 0.20  C 
ATOM     34 O    VAL C   6      35.217  18.542  21.306  1.00 20.67 LIG-0.65  OA
ATOM     35 OXT  VAL C   6      35.103  20.685  21.194  1.00 19.38 LIG-0.65  OA
ENDBRANCH 29 33
ENDBRANCH 27 29
ENDBRANCH 24 25
BRANCH 24 36
ATOM     36  CB  GLN C   5      34.223  22.957  25.955  1.00 21.66 LIG 0.04  C 
BRANCH 36 37
ATOM     37  CG  GLN C   5      34.905  24.299  26.151  1.00 28.10 LIG 0.10  C 
BRANCH 37 38
ATOM     38  CD  GLN C   5      36.420  24.174  26.247  1.00 33.44 LIG 0.21  C 
ATOM     39  NE2 GLN C   5      37.129  25.210  25.813  1.00 35.38 LIG-0.37  N 
ATOM     40 21HE GLN C   5      36.729  25.905  25.500  1.00 35.38 LIG 0.16  HD
ATOM     41 22HE GLN C   5      37.988  25.186  25.845  1.00 35.38 LIG 0.16  HD
ATOM     42 OE1  GLN C   5      36.941  23.156  26.703  1.00 34.39 LIG-0.27  OA
ENDBRANCH 37 38
ENDBRANCH 36 37
ENDBRANCH 24 36
ENDBRANCH 21 24
ENDBRANCH 15 20
ENDBRANCH 12 15
ENDBRANCH 5 11
ENDBRANCH 3 5
BRANCH 1 43
ATOM     43  CA  ARG C   2      24.908  20.123  25.086  1.00 18.81 LIG 0.18  C 
BRANCH 43 44
ATOM     44  CB  ARG C   2      23.942  19.693  23.986  1.00 19.04 LIG 0.04  C 
BRANCH 44 45
ATOM     45  CG  ARG C   2      22.890  18.721  24.476  1.00 18.27 LIG 0.02  C 
BRANCH 45 46
ATOM     46  CD  ARG C   2      23.342  17.294  24.245  1.00 20.59 LIG 0.14  C 
BRANCH 46 47
ATOM     47  NE  ARG C   2      24.653  17.256  23.604  1.00 21.96 LIG-0.23  N 
ATOM     48 HE   ARG C   2      24.737  17.641  22.839  1.00 21.96 LIG 0.18  HD
ATOM     49  CZ  ARG C   2      25.725  16.666  24.124  1.00 22.93 LIG 0.67  C 
ATOM     50  NH2 ARG C   2      26.875  16.688  23.470  1.00 24.61 LIG-0.23  N 
ATOM     51  NH1 ARG C   2      25.643  16.055  25.298  1.00 22.65 LIG-0.23  N 
ATOM     52 1HH2 ARG C   2      26.929  17.083  22.709  1.00 24.61 LIG 0.17  HD
ATOM     53 2HH2 ARG C   2      27.568  16.306  23.807  1.00 24.61 LIG 0.17  HD
ATOM     54 1HH1 ARG C   2      24.896  16.039  25.723  1.00 22.65 LIG 0.17  HD
ATOM     55 2HH1 ARG C   2      26.337  15.674  25.633  1.00 22.65 LIG 0.17  HD
ENDBRANCH 46 47
ENDBRANCH 45 46
ENDBRANCH 44 45
ENDBRANCH 43 44
BRANCH 43 56
ATOM     56  N   ARG C   2      24.325  21.211  25.862  1.00 21.07 LIG-0.35  N 
ATOM     57  C   ARG C   1      24.910  21.645  26.975  1.00 27.96 LIG 0.25  C 
ATOM     58 O    ARG C   1      25.930  21.137  27.438  1.00 30.47 LIG-0.27  OA
ATOM     59 H    ARG C   2      23.594  21.533  25.540  1.00 21.07 LIG 0.16  HD
BRANCH 57 60
ATOM     60  CA  ARG C   1      24.257  22.830  27.676  1.00 31.07 LIG 0.27  C 
BRANCH 60 61
ATOM     61  N   ARG C   1      25.266  23.710  28.265  1.00 32.37 LIG-0.07  N 
ATOM     62 H2   ARG C   1      25.799  23.237  28.798  1.00 32.37 LIG 0.28  HD
ATOM     63 H1   ARG C   1      24.863  24.348  28.738  1.00 32.37 LIG 0.28  HD
ATOM     64 H3   ARG C   1      25.749  24.083  27.617  1.00 32.37 LIG 0.28  HD
ENDBRANCH 60 61
BRANCH 60 65
ATOM     65  CB  ARG C   1      23.382  23.586  26.676  1.00 35.21 LIG 0.04  C 
BRANCH 65 66
ATOM     66  CG  ARG C   1      21.976  23.869  27.199  1.00 38.18 LIG 0.02  C 
BRANCH 66 67
ATOM     67  CD  ARG C   1      20.949  22.891  26.649  1.00 40.83 LIG 0.14  C 
BRANCH 67 68
ATOM     68  NE  ARG C   1      21.284  22.454  25.298  1.00 41.61 LIG-0.23  N 
ATOM     69  CZ  ARG C   1      20.823  21.340  24.737  1.00 42.69 LIG 0.67  C 
ATOM     70  NH1 ARG C   1      20.005  20.542  25.414  1.00 43.45 LIG-0.23  N 
ATOM     71  NH2 ARG C   1      21.179  21.026  23.498  1.00 42.77 LIG-0.23  N 
ATOM     72 1HH1 ARG C   1      19.773  20.745  26.216  1.00 43.45 LIG 0.17  HD
ATOM     73 2HH1 ARG C   1      19.709  19.822  25.050  1.00 43.45 LIG 0.17  HD
ATOM     74 1HH2 ARG C   1      21.708  21.543  23.058  1.00 42.77 LIG 0.17  HD
ATOM     75 2HH2 ARG C   1      20.881  20.305  23.135  1.00 42.77 LIG 0.17  HD
ATOM     76 HE   ARG C   1      21.814  22.949  24.835  1.00 41.61 LIG 0.18  HD
ENDBRANCH 67 68
ENDBRANCH 66 67
ENDBRANCH 65 66
ENDBRANCH 60 65
ENDBRANCH 57 60
ENDBRANCH 43 56
ENDBRANCH 1 43
TORSDOF 29
ENDMDL
MODEL 35
USER: ADFR SOLUTION from run 7
USER: SCORE 18.884489 LL:  -4.617 LR: -15.254 RR:   0.000 FEB:  -6.603
USER: RMSD 9.750380
USER: SEED 408214
USER: STATUS searching
USER: GENES 31
USER: genes 0 Translation |==|  0.64883 0.54463 0.39947
USER: genes 1 Rotation |==|  0.05997 0.52389 0.62392 0.70111
USER: genes 2 Torsion [C]-N--CA-[CB] |==|  0.51671
USER: genes 3 Torsion [N]-CA--CB-[CG] |==|  0.34038
USER: genes 4 Torsion [CA]-CB--CG-[CD] |==|  0.74864
USER: genes 5 Torsion [CB]-CG--CD-[OE2] |==|  0.40120
USER: genes 6 Torsion [N]-CA--C-[N] |==|  0.41521
USER: genes 7 Torsion [C]-N--CA-[CB] |==|  0.85489
USER: genes 8 Torsion [N]-CA--CB-[CG2] |==|  0.52756
USER: genes 9 Torsion [CA]-CB--OG1-[HG1] |==|  0.30690
USER: genes 10 Torsion [N]-CA--C-[N] |==|  0.32802
USER: genes 11 Torsion [C]-N--CA-[C] |==|  0.54489
USER: genes 12 Torsion [N]-CA--C-[N] |==|  0.46501
USER: genes 13 Torsion [C]-N--CA-[CB] |==|  0.40201
USER: genes 14 Torsion [N]-CA--CB-[CG2] |==|  0.92560
USER: genes 15 Torsion [N]-CA--C-[OXT] |==|  0.50865
USER: genes 16 Torsion [N]-CA--CB-[CG] |==|  0.27779
USER: genes 17 Torsion [CA]-CB--CG-[CD] |==|  0.61888
USER: genes 18 Torsion [CB]-CG--CD-[OE1] |==|  0.46299
USER: genes 19 Torsion [N]-C--CA-[N] |==|  0.37637
USER: genes 20 Torsion [C]-CA--CB-[CG] |==|  0.54212
USER: genes 21 Torsion [CA]-CB--CG-[CD] |==|  0.65386
USER: genes 22 Torsion [CB]-CG--CD-[NE] |==|  0.35521
USER: genes 23 Torsion [CG]-CD--NE-[HE] |==|  0.89186
USER: genes 24 Torsion [C]-CA--N-[C] |==|  0.85830
USER: genes 25 Torsion [N]-C--CA-[N] |==|  0.57270
USER: genes 26 Torsion [C]-CA--N-[H2] |==|  0.46247
USER: genes 27 Torsion [C]-CA--CB-[CG] |==|  0.26383
USER: genes 28 Torsion [CA]-CB--CG-[CD] |==|  0.02369
USER: genes 29 Torsion [CB]-CG--CD-[NE] |==|  0.58672
USER: genes 30 Torsion [CG]-CD--NE-[CZ] |==|  0.38612
ROOT
ATOM      1  C   ARG C   2      28.440  20.623  23.857  1.00 17.64 LIG 0.24  C 
ATOM      2 O    ARG C   2      28.388  19.390  23.805  1.00 18.48 LIG-0.27  OA
ATOM      3  N   GLU C   3      29.070  21.351  22.941  1.00 16.82 LIG-0.35  N 
ATOM      4 H    GLU C   3      29.117  22.210  22.954  1.00 16.82 LIG 0.16  HD
ENDROOT
BRANCH 3 5
ATOM      5  CA  GLU C   3      29.748  20.721  21.813  1.00 17.00 LIG 0.18  C 
BRANCH 5 6
ATOM      6  CB  GLU C   3      30.516  21.769  20.993  1.00 16.91 LIG 0.04  C 
BRANCH 6 7
ATOM      7  CG  GLU C   3      32.010  21.463  20.873  1.00 19.77 LIG 0.12  C 
BRANCH 7 8
ATOM      8  CD  GLU C   3      32.832  22.087  21.985  1.00 23.53 LIG 0.17  C 
ATOM      9 OE2  GLU C   3      33.816  21.460  22.423  1.00 22.35 LIG-0.65  OA
ATOM     10 OE1  GLU C   3      32.491  23.203  22.420  1.00 28.80 LIG-0.65  OA
ENDBRANCH 7 8
ENDBRANCH 6 7
ENDBRANCH 5 6
BRANCH 5 11
ATOM     11  C   GLU C   3      30.709  19.672  22.353  1.00 16.25 LIG 0.24  C 
ATOM     12  N   THR C   4      30.944  18.605  21.584  1.00 14.90 LIG-0.34  N 
ATOM     13 H    THR C   4      30.619  18.502  20.794  1.00 14.90 LIG 0.16  HD
ATOM     14 O    GLU C   3      31.224  19.830  23.462  1.00 19.18 LIG-0.27  OA
BRANCH 12 15
ATOM     15  CA  THR C   4      31.791  17.507  22.035  1.00 14.85 LIG 0.20  C 
BRANCH 15 16
ATOM     16  CB  THR C   4      33.143  18.035  22.522  1.00 16.75 LIG 0.15  C 
ATOM     17  CG2 THR C   4      34.114  16.885  22.763  1.00 16.70 LIG 0.04  C 
BRANCH 16 18
ATOM     18 OG1  THR C   4      33.676  18.931  21.541  1.00 17.36 LIG-0.39  OA
ATOM     19 HG1  THR C   4      33.662  19.715  21.841  1.00 17.36 LIG 0.21  HD
ENDBRANCH 16 18
ENDBRANCH 15 16
BRANCH 15 20
ATOM     20  C   THR C   4      31.112  16.749  23.166  1.00 14.69 LIG 0.24  C 
ATOM     21  N   GLN C   5      30.832  15.468  22.940  1.00 15.36 LIG-0.35  N 
ATOM     22 H    GLN C   5      30.901  15.088  22.171  1.00 15.36 LIG 0.16  HD
ATOM     23 O    THR C   4      30.855  17.318  24.233  1.00 15.54 LIG-0.27  OA
BRANCH 21 24
ATOM     24  CA  GLN C   5      30.375  14.590  24.007  1.00 16.48 LIG 0.18  C 
BRANCH 24 25
ATOM     25  C   GLN C   5      30.516  13.139  23.574  1.00 17.30 LIG 0.24  C 
ATOM     26 O    GLN C   5      30.709  12.853  22.385  1.00 19.53 LIG-0.27  OA
ATOM     27  N   VAL C   6      30.385  12.223  24.529  1.00 16.49 LIG-0.34  N 
ATOM     28 H    VAL C   6      30.256  12.412  25.358  1.00 16.49 LIG 0.16  HD
BRANCH 27 29
ATOM     29  CA  VAL C   6      30.450  10.792  24.243  1.00 18.07 LIG 0.19  C 
BRANCH 29 30
ATOM     30  CB  VAL C   6      31.124  10.013  25.389  1.00 20.19 LIG 0.01  C 
ATOM     31  CG1 VAL C   6      31.844   8.787  24.861  1.00 23.48 LIG 0.01  C 
ATOM     32  CG2 VAL C   6      32.091  10.911  26.150  1.00 21.65 LIG 0.01  C 
ENDBRANCH 29 30
BRANCH 29 33
ATOM     33  C   VAL C   6      29.068  10.218  23.961  1.00 18.86 LIG 0.20  C 
ATOM     34 O    VAL C   6      28.060  10.950  23.949  1.00 20.67 LIG-0.65  OA
ATOM     35 OXT  VAL C   6      28.939   8.999  23.756  1.00 19.38 LIG-0.65  OA
ENDBRANCH 29 33
ENDBRANCH 27 29
ENDBRANCH 24 25
BRANCH 24 36
ATOM     36  CB  GLN C   5      28.905  14.871  24.320  1.00 21.66 LIG 0.04  C 
BRANCH 36 37
ATOM     37  CG  GLN C   5      27.917  13.898  23.702  1.00 28.10 LIG 0.10  C 
BRANCH 37 38
ATOM     38  CD  GLN C   5      26.697  14.598  23.119  1.00 33.44 LIG 0.21  C 
ATOM     39  NE2 GLN C   5      26.523  15.870  23.460  1.00 35.38 LIG-0.37  N 
ATOM     40 21HE GLN C   5      27.086  16.256  23.984  1.00 35.38 LIG 0.16  HD
ATOM     41 22HE GLN C   5      25.848  16.308  23.156  1.00 35.38 LIG 0.16  HD
ATOM     42 OE1  GLN C   5      25.922  13.998  22.373  1.00 34.39 LIG-0.27  OA
ENDBRANCH 37 38
ENDBRANCH 36 37
ENDBRANCH 24 36
ENDBRANCH 21 24
ENDBRANCH 15 20
ENDBRANCH 12 15
ENDBRANCH 5 11
ENDBRANCH 3 5
BRANCH 1 43
ATOM     43  CA  ARG C   2      27.801  21.380  25.018  1.00 18.81 LIG 0.18  C 
BRANCH 43 44
ATOM     44  CB  ARG C   2      28.667  21.233  26.266  1.00 19.04 LIG 0.04  C 
BRANCH 44 45
ATOM     45  CG  ARG C   2      27.941  21.633  27.533  1.00 18.27 LIG 0.02  C 
BRANCH 45 46
ATOM     46  CD  ARG C   2      28.724  22.697  28.275  1.00 20.59 LIG 0.14  C 
BRANCH 46 47
ATOM     47  NE  ARG C   2      27.881  23.848  28.583  1.00 21.96 LIG-0.23  N 
ATOM     48 HE   ARG C   2      27.312  24.099  27.990  1.00 21.96 LIG 0.18  HD
ATOM     49  CZ  ARG C   2      27.935  24.532  29.722  1.00 22.93 LIG 0.67  C 
ATOM     50  NH2 ARG C   2      27.126  25.562  29.915  1.00 24.61 LIG-0.23  N 
ATOM     51  NH1 ARG C   2      28.800  24.186  30.665  1.00 22.65 LIG-0.23  N 
ATOM     52 1HH2 ARG C   2      26.565  25.788  29.304  1.00 24.61 LIG 0.17  HD
ATOM     53 2HH2 ARG C   2      27.162  26.005  30.651  1.00 24.61 LIG 0.17  HD
ATOM     54 1HH1 ARG C   2      29.328  23.519  30.541  1.00 22.65 LIG 0.17  HD
ATOM     55 2HH1 ARG C   2      28.835  24.630  31.401  1.00 22.65 LIG 0.17  HD
ENDBRANCH 46 47
ENDBRANCH 45 46
ENDBRANCH 44 45
ENDBRANCH 43 44
BRANCH 43 56
ATOM     56  N   ARG C   2      26.463  20.861  25.277  1.00 21.07 LIG-0.35  N 
ATOM     57  C   ARG C   1      25.578  20.734  24.292  1.00 27.96 LIG 0.25  C 
ATOM     58 O    ARG C   1      25.809  21.083  23.135  1.00 30.47 LIG-0.27  OA
ATOM     59 H    ARG C   2      26.310  20.653  26.098  1.00 21.07 LIG 0.16  HD
BRANCH 57 60
ATOM     60  CA  ARG C   1      24.232  20.120  24.654  1.00 31.07 LIG 0.27  C 
BRANCH 60 61
ATOM     61  N   ARG C   1      23.619  19.479  23.492  1.00 32.37 LIG-0.07  N 
ATOM     62 H2   ARG C   1      22.942  18.966  23.758  1.00 32.37 LIG 0.28  HD
ATOM     63 H1   ARG C   1      24.225  18.978  23.074  1.00 32.37 LIG 0.28  HD
ATOM     64 H3   ARG C   1      23.315  20.103  22.934  1.00 32.37 LIG 0.28  HD
ENDBRANCH 60 61
BRANCH 60 65
ATOM     65  CB  ARG C   1      24.425  19.122  25.796  1.00 35.21 LIG 0.04  C 
BRANCH 65 66
ATOM     66  CG  ARG C   1      24.167  19.725  27.174  1.00 38.18 LIG 0.02  C 
BRANCH 66 67
ATOM     67  CD  ARG C   1      23.576  21.124  27.089  1.00 40.83 LIG 0.14  C 
BRANCH 67 68
ATOM     68  NE  ARG C   1      23.983  21.956  28.216  1.00 41.61 LIG-0.23  N 
ATOM     69  CZ  ARG C   1      24.328  23.236  28.113  1.00 42.69 LIG 0.67  C 
ATOM     70  NH1 ARG C   1      24.319  23.836  26.928  1.00 43.45 LIG-0.23  N 
ATOM     71  NH2 ARG C   1      24.681  23.916  29.196  1.00 42.77 LIG-0.23  N 
ATOM     72 1HH1 ARG C   1      24.090  23.397  26.226  1.00 43.45 LIG 0.17  HD
ATOM     73 2HH1 ARG C   1      24.543  24.664  26.864  1.00 43.45 LIG 0.17  HD
ATOM     74 1HH2 ARG C   1      24.686  23.529  29.965  1.00 42.77 LIG 0.17  HD
ATOM     75 2HH2 ARG C   1      24.904  24.744  29.131  1.00 42.77 LIG 0.17  HD
ATOM     76 HE   ARG C   1      24.002  21.595  28.996  1.00 41.61 LIG 0.18  HD
ENDBRANCH 67 68
ENDBRANCH 66 67
ENDBRANCH 65 66
ENDBRANCH 60 65
ENDBRANCH 57 60
ENDBRANCH 43 56
ENDBRANCH 1 43
TORSDOF 29
ENDMDL
MODEL 36
USER: ADFR SOLUTION from run 139
USER: SCORE 20.023015 LL:  -6.361 LR: -15.223 RR:   0.000 FEB:  -6.572
USER: RMSD 10.022739
USER: SEED 138
USER: STATUS searching
USER: GENES 31
USER: genes 0 Translation |==|  0.52760 0.56282 0.47094
USER: genes 1 Rotation |==|  0.38551 0.79688 0.18853 0.72748
USER: genes 2 Torsion [C]-N--CA-[CB] |==|  0.18738
USER: genes 3 Torsion [N]-CA--CB-[CG] |==|  0.13205
USER: genes 4 Torsion [CA]-CB--CG-[CD] |==|  0.71294
USER: genes 5 Torsion [CB]-CG--CD-[OE2] |==|  0.98306
USER: genes 6 Torsion [N]-CA--C-[N] |==|  0.55867
USER: genes 7 Torsion [C]-N--CA-[CB] |==|  0.79433
USER: genes 8 Torsion [N]-CA--CB-[CG2] |==|  0.64010
USER: genes 9 Torsion [CA]-CB--OG1-[HG1] |==|  0.38556
USER: genes 10 Torsion [N]-CA--C-[N] |==|  0.20745
USER: genes 11 Torsion [C]-N--CA-[C] |==|  0.83885
USER: genes 12 Torsion [N]-CA--C-[N] |==|  0.90342
USER: genes 13 Torsion [C]-N--CA-[CB] |==|  0.36129
USER: genes 14 Torsion [N]-CA--CB-[CG2] |==|  0.85996
USER: genes 15 Torsion [N]-CA--C-[OXT] |==|  0.93988
USER: genes 16 Torsion [N]-CA--CB-[CG] |==|  0.23795
USER: genes 17 Torsion [CA]-CB--CG-[CD] |==|  0.77985
USER: genes 18 Torsion [CB]-CG--CD-[OE1] |==|  0.14702
USER: genes 19 Torsion [N]-C--CA-[N] |==|  0.26574
USER: genes 20 Torsion [C]-CA--CB-[CG] |==|  0.17627
USER: genes 21 Torsion [CA]-CB--CG-[CD] |==|  0.67816
USER: genes 22 Torsion [CB]-CG--CD-[NE] |==|  0.25095
USER: genes 23 Torsion [CG]-CD--NE-[HE] |==|  0.67709
USER: genes 24 Torsion [C]-CA--N-[C] |==|  0.78333
USER: genes 25 Torsion [N]-C--CA-[N] |==|  0.89971
USER: genes 26 Torsion [C]-CA--N-[H2] |==|  0.15700
USER: genes 27 Torsion [C]-CA--CB-[CG] |==|  0.78971
USER: genes 28 Torsion [CA]-CB--CG-[CD] |==|  0.27063
USER: genes 29 Torsion [CB]-CG--CD-[NE] |==|  0.50298
USER: genes 30 Torsion [CG]-CD--NE-[CZ] |==|  0.75585
ROOT
ATOM      1  C   ARG C   2      25.076  21.046  25.197  1.00 17.64 LIG 0.24  C 
ATOM      2 O    ARG C   2      24.710  21.740  24.243  1.00 18.48 LIG-0.27  OA
ATOM      3  N   GLU C   3      25.201  19.726  25.114  1.00 16.82 LIG-0.35  N 
ATOM      4 H    GLU C   3      25.458  19.222  25.762  1.00 16.82 LIG 0.16  HD
ENDROOT
BRANCH 3 5
ATOM      5  CA  GLU C   3      24.902  19.017  23.874  1.00 17.00 LIG 0.18  C 
BRANCH 5 6
ATOM      6  CB  GLU C   3      25.926  19.378  22.786  1.00 16.91 LIG 0.04  C 
BRANCH 6 7
ATOM      7  CG  GLU C   3      27.373  19.308  23.275  1.00 19.77 LIG 0.12  C 
BRANCH 7 8
ATOM      8  CD  GLU C   3      27.972  20.675  23.546  1.00 23.53 LIG 0.17  C 
ATOM      9 OE2  GLU C   3      27.309  21.687  23.247  1.00 22.35 LIG-0.65  OA
ATOM     10 OE1  GLU C   3      29.107  20.734  24.055  1.00 28.80 LIG-0.65  OA
ENDBRANCH 7 8
ENDBRANCH 6 7
ENDBRANCH 5 6
BRANCH 5 11
ATOM     11  C   GLU C   3      24.940  17.521  24.152  1.00 16.25 LIG 0.24  C 
ATOM     12  N   THR C   4      25.124  16.710  23.107  1.00 14.90 LIG-0.34  N 
ATOM     13 H    THR C   4      25.261  16.985  22.304  1.00 14.90 LIG 0.16  HD
ATOM     14 O    GLU C   3      24.797  17.112  25.307  1.00 19.18 LIG-0.27  OA
BRANCH 12 15
ATOM     15  CA  THR C   4      25.105  15.259  23.252  1.00 14.85 LIG 0.20  C 
BRANCH 15 16
ATOM     16  CB  THR C   4      26.389  14.768  23.926  1.00 16.75 LIG 0.15  C 
ATOM     17  CG2 THR C   4      27.018  13.635  23.123  1.00 16.70 LIG 0.04  C 
BRANCH 16 18
ATOM     18 OG1  THR C   4      27.307  15.861  24.034  1.00 17.36 LIG-0.39  OA
ATOM     19 HG1  THR C   4      27.684  15.836  24.784  1.00 17.36 LIG 0.21  HD
ENDBRANCH 16 18
ENDBRANCH 15 16
BRANCH 15 20
ATOM     20  C   THR C   4      23.906  14.828  24.084  1.00 14.69 LIG 0.24  C 
ATOM     21  N   GLN C   5      22.718  14.873  23.485  1.00 15.36 LIG-0.35  N 
ATOM     22 H    GLN C   5      22.580  15.235  22.718  1.00 15.36 LIG 0.16  HD
ATOM     23 O    THR C   4      24.060  14.451  25.251  1.00 15.54 LIG-0.27  OA
BRANCH 21 24
ATOM     24  CA  GLN C   5      21.533  14.296  24.103  1.00 16.48 LIG 0.18  C 
BRANCH 24 25
ATOM     25  C   GLN C   5      21.765  12.818  24.375  1.00 17.30 LIG 0.24  C 
ATOM     26 O    GLN C   5      21.303  12.285  25.393  1.00 19.53 LIG-0.27  OA
ATOM     27  N   VAL C   6      22.508  12.164  23.487  1.00 16.49 LIG-0.34  N 
ATOM     28 H    VAL C   6      22.829  12.525  22.774  1.00 16.49 LIG 0.16  HD
BRANCH 27 29
ATOM     29  CA  VAL C   6      22.848  10.753  23.650  1.00 18.07 LIG 0.19  C 
BRANCH 29 30
ATOM     30  CB  VAL C   6      22.549   9.943  22.374  1.00 20.19 LIG 0.01  C 
ATOM     31  CG1 VAL C   6      22.752   8.460  22.614  1.00 23.48 LIG 0.01  C 
ATOM     32  CG2 VAL C   6      21.131  10.214  21.889  1.00 21.65 LIG 0.01  C 
ENDBRANCH 29 30
BRANCH 29 33
ATOM     33  C   VAL C   6      24.306  10.576  24.054  1.00 18.86 LIG 0.20  C 
ATOM     34 O    VAL C   6      24.689   9.544  24.637  1.00 20.67 LIG-0.65  OA
ATOM     35 OXT  VAL C   6      25.124  11.482  23.817  1.00 19.38 LIG-0.65  OA
ENDBRANCH 29 33
ENDBRANCH 27 29
ENDBRANCH 24 25
BRANCH 24 36
ATOM     36  CB  GLN C   5      20.333  14.445  23.168  1.00 21.66 LIG 0.04  C 
BRANCH 36 37
ATOM     37  CG  GLN C   5      20.181  13.343  22.135  1.00 28.10 LIG 0.10  C 
BRANCH 37 38
ATOM     38  CD  GLN C   5      21.116  13.524  20.946  1.00 33.44 LIG 0.21  C 
ATOM     39  NE2 GLN C   5      20.556  13.504  19.742  1.00 35.38 LIG-0.37  N 
ATOM     40 21HE GLN C   5      19.707  13.394  19.664  1.00 35.38 LIG 0.16  HD
ATOM     41 22HE GLN C   5      21.043  13.601  19.040  1.00 35.38 LIG 0.16  HD
ATOM     42 OE1  GLN C   5      22.326  13.679  21.114  1.00 34.39 LIG-0.27  OA
ENDBRANCH 37 38
ENDBRANCH 36 37
ENDBRANCH 24 36
ENDBRANCH 21 24
ENDBRANCH 15 20
ENDBRANCH 12 15
ENDBRANCH 5 11
ENDBRANCH 3 5
BRANCH 1 43
ATOM     43  CA  ARG C   2      25.373  21.680  26.553  1.00 18.81 LIG 0.18  C 
BRANCH 43 44
ATOM     44  CB  ARG C   2      24.415  22.842  26.797  1.00 19.04 LIG 0.04  C 
BRANCH 44 45
ATOM     45  CG  ARG C   2      22.969  22.401  26.881  1.00 18.27 LIG 0.02  C 
BRANCH 45 46
ATOM     46  CD  ARG C   2      22.168  22.997  25.742  1.00 20.59 LIG 0.14  C 
BRANCH 46 47
ATOM     47  NE  ARG C   2      22.171  22.114  24.580  1.00 21.96 LIG-0.23  N 
ATOM     48 HE   ARG C   2      22.543  22.400  23.859  1.00 21.96 LIG 0.18  HD
ATOM     49  CZ  ARG C   2      21.636  20.897  24.563  1.00 22.93 LIG 0.67  C 
ATOM     50  NH2 ARG C   2      21.691  20.165  23.462  1.00 24.61 LIG-0.23  N 
ATOM     51  NH1 ARG C   2      21.046  20.415  25.648  1.00 22.65 LIG-0.23  N 
ATOM     52 1HH2 ARG C   2      22.073  20.476  22.757  1.00 24.61 LIG 0.17  HD
ATOM     53 2HH2 ARG C   2      21.345  19.378  23.451  1.00 24.61 LIG 0.17  HD
ATOM     54 1HH1 ARG C   2      21.008  20.890  26.364  1.00 22.65 LIG 0.17  HD
ATOM     55 2HH1 ARG C   2      20.701  19.627  25.636  1.00 22.65 LIG 0.17  HD
ENDBRANCH 46 47
ENDBRANCH 45 46
ENDBRANCH 44 45
ENDBRANCH 43 44
BRANCH 43 56
ATOM     56  N   ARG C   2      26.751  22.157  26.590  1.00 21.07 LIG-0.35  N 
ATOM     57  C   ARG C   1      27.761  21.310  26.776  1.00 27.96 LIG 0.25  C 
ATOM     58 O    ARG C   1      27.599  20.107  26.972  1.00 30.47 LIG-0.27  OA
ATOM     59 H    ARG C   2      26.842  23.006  26.483  1.00 21.07 LIG 0.16  HD
BRANCH 57 60
ATOM     60  CA  ARG C   1      29.166  21.898  26.733  1.00 31.07 LIG 0.27  C 
BRANCH 60 61
ATOM     61  N   ARG C   1      29.256  22.965  25.736  1.00 32.37 LIG-0.07  N 
ATOM     62 H2   ARG C   1      28.646  23.589  25.913  1.00 32.37 LIG 0.28  HD
ATOM     63 H1   ARG C   1      29.108  22.627  24.925  1.00 32.37 LIG 0.28  HD
ATOM     64 H3   ARG C   1      30.068  23.328  25.762  1.00 32.37 LIG 0.28  HD
ENDBRANCH 60 61
BRANCH 60 65
ATOM     65  CB  ARG C   1      29.540  22.411  28.124  1.00 35.21 LIG 0.04  C 
BRANCH 65 66
ATOM     66  CG  ARG C   1      28.860  23.729  28.484  1.00 38.18 LIG 0.02  C 
BRANCH 66 67
ATOM     67  CD  ARG C   1      27.613  23.521  29.329  1.00 40.83 LIG 0.14  C 
BRANCH 67 68
ATOM     68  NE  ARG C   1      26.955  24.784  29.648  1.00 41.61 LIG-0.23  N 
ATOM     69  CZ  ARG C   1      27.252  25.536  30.703  1.00 42.69 LIG 0.67  C 
ATOM     70  NH1 ARG C   1      28.199  25.151  31.551  1.00 43.45 LIG-0.23  N 
ATOM     71  NH2 ARG C   1      26.602  26.674  30.909  1.00 42.77 LIG-0.23  N 
ATOM     72 1HH1 ARG C   1      28.621  24.414  31.418  1.00 43.45 LIG 0.17  HD
ATOM     73 2HH1 ARG C   1      28.389  25.638  32.234  1.00 43.45 LIG 0.17  HD
ATOM     74 1HH2 ARG C   1      25.989  26.925  30.360  1.00 42.77 LIG 0.17  HD
ATOM     75 2HH2 ARG C   1      26.793  27.161  31.592  1.00 42.77 LIG 0.17  HD
ATOM     76 HE   ARG C   1      26.335  25.059  29.119  1.00 41.61 LIG 0.18  HD
ENDBRANCH 67 68
ENDBRANCH 66 67
ENDBRANCH 65 66
ENDBRANCH 60 65
ENDBRANCH 57 60
ENDBRANCH 43 56
ENDBRANCH 1 43
TORSDOF 29
ENDMDL
MODEL 37
USER: ADFR SOLUTION from run 20
USER: SCORE 17.582930 LL:  -5.283 LR: -15.205 RR:   0.000 FEB:  -6.554
USER: RMSD 9.961310
USER: SEED 19
USER: STATUS searching
USER: GENES 31
USER: genes 0 Translation |==|  0.69438 0.54216 0.39662
USER: genes 1 Rotation |==|  0.06805 0.31352 0.33301 0.52754
USER: genes 2 Torsion [C]-N--CA-[CB] |==|  0.42992
USER: genes 3 Torsion [N]-CA--CB-[CG] |==|  0.87939
USER: genes 4 Torsion [CA]-CB--CG-[CD] |==|  0.78026
USER: genes 5 Torsion [CB]-CG--CD-[OE2] |==|  0.56422
USER: genes 6 Torsion [N]-CA--C-[N] |==|  0.85943
USER: genes 7 Torsion [C]-N--CA-[CB] |==|  0.81667
USER: genes 8 Torsion [N]-CA--CB-[CG2] |==|  0.56812
USER: genes 9 Torsion [CA]-CB--OG1-[HG1] |==|  0.80278
USER: genes 10 Torsion [N]-CA--C-[N] |==|  0.17193
USER: genes 11 Torsion [C]-N--CA-[C] |==|  0.77252
USER: genes 12 Torsion [N]-CA--C-[N] |==|  0.48858
USER: genes 13 Torsion [C]-N--CA-[CB] |==|  0.85665
USER: genes 14 Torsion [N]-CA--CB-[CG2] |==|  0.65225
USER: genes 15 Torsion [N]-CA--C-[OXT] |==|  0.43420
USER: genes 16 Torsion [N]-CA--CB-[CG] |==|  0.79465
USER: genes 17 Torsion [CA]-CB--CG-[CD] |==|  0.35615
USER: genes 18 Torsion [CB]-CG--CD-[OE1] |==|  0.70365
USER: genes 19 Torsion [N]-C--CA-[N] |==|  0.73759
USER: genes 20 Torsion [C]-CA--CB-[CG] |==|  0.28622
USER: genes 21 Torsion [CA]-CB--CG-[CD] |==|  0.71775
USER: genes 22 Torsion [CB]-CG--CD-[NE] |==|  0.16266
USER: genes 23 Torsion [CG]-CD--NE-[HE] |==|  0.78849
USER: genes 24 Torsion [C]-CA--N-[C] |==|  0.69909
USER: genes 25 Torsion [N]-C--CA-[N] |==|  0.39117
USER: genes 26 Torsion [C]-CA--N-[H2] |==|  0.97379
USER: genes 27 Torsion [C]-CA--CB-[CG] |==|  0.31636
USER: genes 28 Torsion [CA]-CB--CG-[CD] |==|  0.35496
USER: genes 29 Torsion [CB]-CG--CD-[NE] |==|  0.56934
USER: genes 30 Torsion [CG]-CD--NE-[CZ] |==|  0.68264
ROOT
ATOM      1  C   ARG C   2      29.704  20.565  23.804  1.00 17.64 LIG 0.24  C 
ATOM      2 O    ARG C   2      29.765  19.544  24.495  1.00 18.48 LIG-0.27  OA
ATOM      3  N   GLU C   3      30.632  21.515  23.849  1.00 16.82 LIG-0.35  N 
ATOM      4 H    GLU C   3      30.613  22.233  23.375  1.00 16.82 LIG 0.16  HD
ENDROOT
BRANCH 3 5
ATOM      5  CA  GLU C   3      31.784  21.402  24.737  1.00 17.00 LIG 0.18  C 
BRANCH 5 6
ATOM      6  CB  GLU C   3      32.964  22.224  24.196  1.00 16.91 LIG 0.04  C 
BRANCH 6 7
ATOM      7  CG  GLU C   3      33.166  22.065  22.688  1.00 19.77 LIG 0.12  C 
BRANCH 7 8
ATOM      8  CD  GLU C   3      33.880  20.777  22.320  1.00 23.53 LIG 0.17  C 
ATOM      9 OE2  GLU C   3      34.483  20.720  21.231  1.00 22.35 LIG-0.65  OA
ATOM     10 OE1  GLU C   3      33.834  19.825  23.120  1.00 28.80 LIG-0.65  OA
ENDBRANCH 7 8
ENDBRANCH 6 7
ENDBRANCH 5 6
BRANCH 5 11
ATOM     11  C   GLU C   3      31.383  21.908  26.115  1.00 16.25 LIG 0.24  C 
ATOM     12  N   THR C   4      30.791  23.104  26.178  1.00 14.90 LIG-0.34  N 
ATOM     13 H    THR C   4      30.591  23.577  25.488  1.00 14.90 LIG 0.16  HD
ATOM     14 O    GLU C   3      31.616  21.218  27.110  1.00 19.18 LIG-0.27  OA
BRANCH 12 15
ATOM     15  CA  THR C   4      30.431  23.715  27.452  1.00 14.85 LIG 0.20  C 
BRANCH 15 16
ATOM     16  CB  THR C   4      29.339  22.900  28.150  1.00 16.75 LIG 0.15  C 
ATOM     17  CG2 THR C   4      28.546  23.777  29.112  1.00 16.70 LIG 0.04  C 
BRANCH 16 18
ATOM     18 OG1  THR C   4      28.467  22.344  27.161  1.00 17.36 LIG-0.39  OA
ATOM     19 HG1  THR C   4      28.004  22.956  26.819  1.00 17.36 LIG 0.21  HD
ENDBRANCH 16 18
ENDBRANCH 15 16
BRANCH 15 20
ATOM     20  C   THR C   4      31.650  23.799  28.359  1.00 14.69 LIG 0.24  C 
ATOM     21  N   GLN C   5      32.666  24.541  27.924  1.00 15.36 LIG-0.35  N 
ATOM     22 H    GLN C   5      32.718  24.868  27.130  1.00 15.36 LIG 0.16  HD
ATOM     23 O    THR C   4      31.664  23.205  29.442  1.00 15.54 LIG-0.27  OA
BRANCH 21 24
ATOM     24  CA  GLN C   5      33.794  24.865  28.784  1.00 16.48 LIG 0.18  C 
BRANCH 24 25
ATOM     25  C   GLN C   5      33.438  26.045  29.675  1.00 17.30 LIG 0.24  C 
ATOM     26 O    GLN C   5      32.366  26.646  29.525  1.00 19.53 LIG-0.27  OA
ATOM     27  N   VAL C   6      34.349  26.398  30.577  1.00 16.49 LIG-0.34  N 
ATOM     28 H    VAL C   6      35.093  25.984  30.692  1.00 16.49 LIG 0.16  HD
BRANCH 27 29
ATOM     29  CA  VAL C   6      34.156  27.543  31.464  1.00 18.07 LIG 0.19  C 
BRANCH 29 30
ATOM     30  CB  VAL C   6      33.779  28.815  30.680  1.00 20.19 LIG 0.01  C 
ATOM     31  CG1 VAL C   6      32.351  29.230  30.975  1.00 23.48 LIG 0.01  C 
ATOM     32  CG2 VAL C   6      34.741  29.949  31.008  1.00 21.65 LIG 0.01  C 
ENDBRANCH 29 30
BRANCH 29 33
ATOM     33  C   VAL C   6      33.105  27.252  32.528  1.00 18.86 LIG 0.20  C 
ATOM     34 O    VAL C   6      32.220  26.396  32.337  1.00 20.67 LIG-0.65  OA
ATOM     35 OXT  VAL C   6      33.118  27.889  33.595  1.00 19.38 LIG-0.65  OA
ENDBRANCH 29 33
ENDBRANCH 27 29
ENDBRANCH 24 25
BRANCH 24 36
ATOM     36  CB  GLN C   5      35.009  25.236  27.934  1.00 21.66 LIG 0.04  C 
BRANCH 36 37
ATOM     37  CG  GLN C   5      35.693  24.071  27.242  1.00 28.10 LIG 0.10  C 
BRANCH 37 38
ATOM     38  CD  GLN C   5      35.879  24.307  25.749  1.00 33.44 LIG 0.21  C 
ATOM     39  NE2 GLN C   5      36.815  25.182  25.399  1.00 35.38 LIG-0.37  N 
ATOM     40 21HE GLN C   5      37.279  25.580  26.003  1.00 35.38 LIG 0.16  HD
ATOM     41 22HE GLN C   5      36.956  25.350  24.568  1.00 35.38 LIG 0.16  HD
ATOM     42 OE1  GLN C   5      35.185  23.709  24.925  1.00 34.39 LIG-0.27  OA
ENDBRANCH 37 38
ENDBRANCH 36 37
ENDBRANCH 24 36
ENDBRANCH 21 24
ENDBRANCH 15 20
ENDBRANCH 12 15
ENDBRANCH 5 11
ENDBRANCH 3 5
BRANCH 1 43
ATOM     43  CA  ARG C   2      28.519  20.805  22.872  1.00 18.81 LIG 0.18  C 
BRANCH 43 44
ATOM     44  CB  ARG C   2      28.941  21.730  21.734  1.00 19.04 LIG 0.04  C 
BRANCH 44 45
ATOM     45  CG  ARG C   2      29.177  20.989  20.434  1.00 18.27 LIG 0.02  C 
BRANCH 45 46
ATOM     46  CD  ARG C   2      30.662  20.796  20.200  1.00 20.59 LIG 0.14  C 
BRANCH 46 47
ATOM     47  NE  ARG C   2      31.273  20.054  21.298  1.00 21.96 LIG-0.23  N 
ATOM     48 HE   ARG C   2      31.418  20.473  22.035  1.00 21.96 LIG 0.18  HD
ATOM     49  CZ  ARG C   2      31.621  18.772  21.233  1.00 22.93 LIG 0.67  C 
ATOM     50  NH2 ARG C   2      32.167  18.181  22.284  1.00 24.61 LIG-0.23  N 
ATOM     51  NH1 ARG C   2      31.424  18.085  20.117  1.00 22.65 LIG-0.23  N 
ATOM     52 1HH2 ARG C   2      32.297  18.625  23.008  1.00 24.61 LIG 0.17  HD
ATOM     53 2HH2 ARG C   2      32.393  17.352  22.242  1.00 24.61 LIG 0.17  HD
ATOM     54 1HH1 ARG C   2      31.071  18.468  19.433  1.00 22.65 LIG 0.17  HD
ATOM     55 2HH1 ARG C   2      31.650  17.256  20.076  1.00 22.65 LIG 0.17  HD
ENDBRANCH 46 47
ENDBRANCH 45 46
ENDBRANCH 44 45
ENDBRANCH 43 44
BRANCH 43 56
ATOM     56  N   ARG C   2      27.414  21.401  23.613  1.00 21.07 LIG-0.35  N 
ATOM     57  C   ARG C   1      26.319  20.697  23.888  1.00 27.96 LIG 0.25  C 
ATOM     58 O    ARG C   1      26.152  19.540  23.503  1.00 30.47 LIG-0.27  OA
ATOM     59 H    ARG C   2      27.535  22.221  23.845  1.00 21.07 LIG 0.16  HD
BRANCH 57 60
ATOM     60  CA  ARG C   1      25.250  21.390  24.723  1.00 31.07 LIG 0.27  C 
BRANCH 60 61
ATOM     61  N   ARG C   1      23.910  21.053  24.243  1.00 32.37 LIG-0.07  N 
ATOM     62 H2   ARG C   1      23.973  20.617  23.470  1.00 32.37 LIG 0.28  HD
ATOM     63 H1   ARG C   1      23.441  21.801  24.125  1.00 32.37 LIG 0.28  HD
ATOM     64 H3   ARG C   1      23.501  20.538  24.842  1.00 32.37 LIG 0.28  HD
ENDBRANCH 60 61
BRANCH 60 65
ATOM     65  CB  ARG C   1      25.424  20.995  26.191  1.00 35.21 LIG 0.04  C 
BRANCH 65 66
ATOM     66  CG  ARG C   1      25.832  22.163  27.084  1.00 38.18 LIG 0.02  C 
BRANCH 66 67
ATOM     67  CD  ARG C   1      24.922  22.308  28.294  1.00 40.83 LIG 0.14  C 
BRANCH 67 68
ATOM     68  NE  ARG C   1      24.911  23.675  28.805  1.00 41.61 LIG-0.23  N 
ATOM     69  CZ  ARG C   1      25.384  24.031  29.995  1.00 42.69 LIG 0.67  C 
ATOM     70  NH1 ARG C   1      25.907  23.118  30.806  1.00 43.45 LIG-0.23  N 
ATOM     71  NH2 ARG C   1      25.335  25.302  30.374  1.00 42.77 LIG-0.23  N 
ATOM     72 1HH1 ARG C   1      25.940  22.295  30.561  1.00 43.45 LIG 0.17  HD
ATOM     73 2HH1 ARG C   1      26.212  23.351  31.576  1.00 43.45 LIG 0.17  HD
ATOM     74 1HH2 ARG C   1      24.998  25.895  29.850  1.00 42.77 LIG 0.17  HD
ATOM     75 2HH2 ARG C   1      25.641  25.533  31.144  1.00 42.77 LIG 0.17  HD
ATOM     76 HE   ARG C   1      24.576  24.289  28.305  1.00 41.61 LIG 0.18  HD
ENDBRANCH 67 68
ENDBRANCH 66 67
ENDBRANCH 65 66
ENDBRANCH 60 65
ENDBRANCH 57 60
ENDBRANCH 43 56
ENDBRANCH 1 43
TORSDOF 29
ENDMDL
MODEL 38
USER: ADFR SOLUTION from run 165
USER: SCORE 18.531949 LL:  -5.327 LR: -15.181 RR:   0.000 FEB:  -6.530
USER: RMSD 10.982637
USER: SEED 164
USER: STATUS searching
USER: GENES 31
USER: genes 0 Translation |==|  0.60558 0.52425 0.34596
USER: genes 1 Rotation |==|  0.13076 0.70980 0.23922 0.54050
USER: genes 2 Torsion [C]-N--CA-[CB] |==|  0.52318
USER: genes 3 Torsion [N]-CA--CB-[CG] |==|  0.10814
USER: genes 4 Torsion [CA]-CB--CG-[CD] |==|  0.76834
USER: genes 5 Torsion [CB]-CG--CD-[OE2] |==|  0.31984
USER: genes 6 Torsion [N]-CA--C-[N] |==|  0.30788
USER: genes 7 Torsion [C]-N--CA-[CB] |==|  0.28814
USER: genes 8 Torsion [N]-CA--CB-[CG2] |==|  0.52585
USER: genes 9 Torsion [CA]-CB--OG1-[HG1] |==|  0.42302
USER: genes 10 Torsion [N]-CA--C-[N] |==|  0.99427
USER: genes 11 Torsion [C]-N--CA-[C] |==|  0.72833
USER: genes 12 Torsion [N]-CA--C-[N] |==|  0.42530
USER: genes 13 Torsion [C]-N--CA-[CB] |==|  0.46698
USER: genes 14 Torsion [N]-CA--CB-[CG2] |==|  0.42532
USER: genes 15 Torsion [N]-CA--C-[OXT] |==|  0.85808
USER: genes 16 Torsion [N]-CA--CB-[CG] |==|  0.54852
USER: genes 17 Torsion [CA]-CB--CG-[CD] |==|  0.31746
USER: genes 18 Torsion [CB]-CG--CD-[OE1] |==|  0.87052
USER: genes 19 Torsion [N]-C--CA-[N] |==|  0.87530
USER: genes 20 Torsion [C]-CA--CB-[CG] |==|  0.83790
USER: genes 21 Torsion [CA]-CB--CG-[CD] |==|  0.66061
USER: genes 22 Torsion [CB]-CG--CD-[NE] |==|  0.15377
USER: genes 23 Torsion [CG]-CD--NE-[HE] |==|  0.76340
USER: genes 24 Torsion [C]-CA--N-[C] |==|  0.83942
USER: genes 25 Torsion [N]-C--CA-[N] |==|  0.18504
USER: genes 26 Torsion [C]-CA--N-[H2] |==|  0.50733
USER: genes 27 Torsion [C]-CA--CB-[CG] |==|  0.68072
USER: genes 28 Torsion [CA]-CB--CG-[CD] |==|  0.40496
USER: genes 29 Torsion [CB]-CG--CD-[NE] |==|  0.57563
USER: genes 30 Torsion [CG]-CD--NE-[CZ] |==|  0.73648
ROOT
ATOM      1  C   ARG C   2      27.240  20.149  22.854  1.00 17.64 LIG 0.24  C 
ATOM      2 O    ARG C   2      26.038  19.977  22.627  1.00 18.48 LIG-0.27  OA
ATOM      3  N   GLU C   3      28.034  19.172  23.277  1.00 16.82 LIG-0.35  N 
ATOM      4 H    GLU C   3      28.874  19.266  23.438  1.00 16.82 LIG 0.16  HD
ENDROOT
BRANCH 3 5
ATOM      5  CA  GLU C   3      27.518  17.826  23.506  1.00 17.00 LIG 0.18  C 
BRANCH 5 6
ATOM      6  CB  GLU C   3      28.582  16.949  24.184  1.00 16.91 LIG 0.04  C 
BRANCH 6 7
ATOM      7  CG  GLU C   3      29.396  17.698  25.240  1.00 19.77 LIG 0.12  C 
BRANCH 7 8
ATOM      8  CD  GLU C   3      30.548  18.489  24.647  1.00 23.53 LIG 0.17  C 
ATOM      9 OE2  GLU C   3      30.527  19.732  24.738  1.00 22.35 LIG-0.65  OA
ATOM     10 OE1  GLU C   3      31.470  17.865  24.090  1.00 28.80 LIG-0.65  OA
ENDBRANCH 7 8
ENDBRANCH 6 7
ENDBRANCH 5 6
BRANCH 5 11
ATOM     11  C   GLU C   3      26.283  17.927  24.389  1.00 16.25 LIG 0.24  C 
ATOM     12  N   THR C   4      25.105  17.639  23.828  1.00 14.90 LIG-0.34  N 
ATOM     13 H    THR C   4      25.014  17.363  23.019  1.00 14.90 LIG 0.16  HD
ATOM     14 O    GLU C   3      26.403  18.272  25.568  1.00 19.18 LIG-0.27  OA
BRANCH 12 15
ATOM     15  CA  THR C   4      23.854  17.773  24.564  1.00 14.85 LIG 0.20  C 
BRANCH 15 16
ATOM     16  CB  THR C   4      23.105  19.034  24.126  1.00 16.75 LIG 0.15  C 
ATOM     17  CG2 THR C   4      21.918  19.302  25.045  1.00 16.70 LIG 0.04  C 
BRANCH 16 18
ATOM     18 OG1  THR C   4      24.005  20.146  24.152  1.00 17.36 LIG-0.39  OA
ATOM     19 HG1  THR C   4      23.759  20.720  23.590  1.00 17.36 LIG 0.21  HD
ENDBRANCH 16 18
ENDBRANCH 15 16
BRANCH 15 20
ATOM     20  C   THR C   4      22.970  16.558  24.326  1.00 14.69 LIG 0.24  C 
ATOM     21  N   GLN C   5      23.440  15.634  23.491  1.00 15.36 LIG-0.35  N 
ATOM     22 H    GLN C   5      24.139  15.739  23.001  1.00 15.36 LIG 0.16  HD
ATOM     23 O    THR C   4      21.880  16.456  24.901  1.00 15.54 LIG-0.27  OA
BRANCH 21 24
ATOM     24  CA  GLN C   5      22.788  14.341  23.343  1.00 16.48 LIG 0.18  C 
BRANCH 24 25
ATOM     25  C   GLN C   5      23.501  13.306  24.199  1.00 17.30 LIG 0.24  C 
ATOM     26 O    GLN C   5      24.708  13.421  24.452  1.00 19.53 LIG-0.27  OA
ATOM     27  N   VAL C   6      22.767  12.278  24.615  1.00 16.49 LIG-0.34  N 
ATOM     28 H    VAL C   6      21.927  12.192  24.449  1.00 16.49 LIG 0.16  HD
BRANCH 27 29
ATOM     29  CA  VAL C   6      23.336  11.188  25.403  1.00 18.07 LIG 0.19  C 
BRANCH 29 30
ATOM     30  CB  VAL C   6      22.241  10.285  26.003  1.00 20.19 LIG 0.01  C 
ATOM     31  CG1 VAL C   6      21.016  10.254  25.109  1.00 23.48 LIG 0.01  C 
ATOM     32  CG2 VAL C   6      22.773   8.876  26.226  1.00 21.65 LIG 0.01  C 
ENDBRANCH 29 30
BRANCH 29 33
ATOM     33  C   VAL C   6      24.309  10.355  24.579  1.00 18.86 LIG 0.20  C 
ATOM     34 O    VAL C   6      25.462  10.122  24.991  1.00 20.67 LIG-0.65  OA
ATOM     35 OXT  VAL C   6      23.957   9.915  23.471  1.00 19.38 LIG-0.65  OA
ENDBRANCH 29 33
ENDBRANCH 27 29
ENDBRANCH 24 25
BRANCH 24 36
ATOM     36  CB  GLN C   5      22.841  13.895  21.882  1.00 21.66 LIG 0.04  C 
BRANCH 36 37
ATOM     37  CG  GLN C   5      21.862  12.796  21.508  1.00 28.10 LIG 0.10  C 
BRANCH 37 38
ATOM     38  CD  GLN C   5      20.806  13.270  20.518  1.00 33.44 LIG 0.21  C 
ATOM     39  NE2 GLN C   5      20.572  12.479  19.476  1.00 35.38 LIG-0.37  N 
ATOM     40 21HE GLN C   5      21.007  11.742  19.389  1.00 35.38 LIG 0.16  HD
ATOM     41 22HE GLN C   5      19.985  12.704  18.890  1.00 35.38 LIG 0.16  HD
ATOM     42 OE1  GLN C   5      20.212  14.334  20.691  1.00 34.39 LIG-0.27  OA
ENDBRANCH 37 38
ENDBRANCH 36 37
ENDBRANCH 24 36
ENDBRANCH 21 24
ENDBRANCH 15 20
ENDBRANCH 12 15
ENDBRANCH 5 11
ENDBRANCH 3 5
BRANCH 1 43
ATOM     43  CA  ARG C   2      27.874  21.527  22.688  1.00 18.81 LIG 0.18  C 
BRANCH 43 44
ATOM     44  CB  ARG C   2      28.715  21.556  21.416  1.00 19.04 LIG 0.04  C 
BRANCH 44 45
ATOM     45  CG  ARG C   2      29.808  20.507  21.413  1.00 18.27 LIG 0.02  C 
BRANCH 45 46
ATOM     46  CD  ARG C   2      31.165  21.160  21.244  1.00 20.59 LIG 0.14  C 
BRANCH 46 47
ATOM     47  NE  ARG C   2      31.389  22.175  22.268  1.00 21.96 LIG-0.23  N 
ATOM     48 HE   ARG C   2      31.085  22.967  22.123  1.00 21.96 LIG 0.18  HD
ATOM     49  CZ  ARG C   2      32.033  21.957  23.411  1.00 22.93 LIG 0.67  C 
ATOM     50  NH2 ARG C   2      32.184  22.941  24.284  1.00 24.61 LIG-0.23  N 
ATOM     51  NH1 ARG C   2      32.526  20.756  23.678  1.00 22.65 LIG-0.23  N 
ATOM     52 1HH2 ARG C   2      31.866  23.721  24.112  1.00 24.61 LIG 0.17  HD
ATOM     53 2HH2 ARG C   2      32.601  22.800  25.023  1.00 24.61 LIG 0.17  HD
ATOM     54 1HH1 ARG C   2      32.429  20.116  23.112  1.00 22.65 LIG 0.17  HD
ATOM     55 2HH1 ARG C   2      32.942  20.616  24.418  1.00 22.65 LIG 0.17  HD
ENDBRANCH 46 47
ENDBRANCH 45 46
ENDBRANCH 44 45
ENDBRANCH 43 44
BRANCH 43 56
ATOM     56  N   ARG C   2      28.709  21.835  23.844  1.00 21.07 LIG-0.35  N 
ATOM     57  C   ARG C   1      28.198  21.843  25.072  1.00 27.96 LIG 0.25  C 
ATOM     58 O    ARG C   1      27.006  21.643  25.303  1.00 30.47 LIG-0.27  OA
ATOM     59 H    ARG C   2      29.532  22.004  23.659  1.00 21.07 LIG 0.16  HD
BRANCH 57 60
ATOM     60  CA  ARG C   1      29.167  22.111  26.217  1.00 31.07 LIG 0.27  C 
BRANCH 60 61
ATOM     61  N   ARG C   1      29.685  23.477  26.154  1.00 32.37 LIG-0.07  N 
ATOM     62 H2   ARG C   1      30.277  23.600  26.808  1.00 32.37 LIG 0.28  HD
ATOM     63 H1   ARG C   1      29.014  24.054  26.250  1.00 32.37 LIG 0.28  HD
ATOM     64 H3   ARG C   1      30.080  23.609  25.368  1.00 32.37 LIG 0.28  HD
ENDBRANCH 60 61
BRANCH 60 65
ATOM     65  CB  ARG C   1      28.459  21.850  27.547  1.00 35.21 LIG 0.04  C 
BRANCH 65 66
ATOM     66  CG  ARG C   1      28.296  23.105  28.399  1.00 38.18 LIG 0.02  C 
BRANCH 66 67
ATOM     67  CD  ARG C   1      27.003  23.093  29.200  1.00 40.83 LIG 0.14  C 
BRANCH 67 68
ATOM     68  NE  ARG C   1      26.526  24.443  29.484  1.00 41.61 LIG-0.23  N 
ATOM     69  CZ  ARG C   1      26.786  25.105  30.607  1.00 42.69 LIG 0.67  C 
ATOM     70  NH1 ARG C   1      27.519  24.541  31.560  1.00 43.45 LIG-0.23  N 
ATOM     71  NH2 ARG C   1      26.314  26.334  30.775  1.00 42.77 LIG-0.23  N 
ATOM     72 1HH1 ARG C   1      27.827  23.746  31.451  1.00 43.45 LIG 0.17  HD
ATOM     73 2HH1 ARG C   1      27.686  24.972  32.286  1.00 43.45 LIG 0.17  HD
ATOM     74 1HH2 ARG C   1      25.840  26.701  30.158  1.00 42.77 LIG 0.17  HD
ATOM     75 2HH2 ARG C   1      26.481  26.763  31.502  1.00 42.77 LIG 0.17  HD
ATOM     76 HE   ARG C   1      26.047  24.834  28.887  1.00 41.61 LIG 0.18  HD
ENDBRANCH 67 68
ENDBRANCH 66 67
ENDBRANCH 65 66
ENDBRANCH 60 65
ENDBRANCH 57 60
ENDBRANCH 43 56
ENDBRANCH 1 43
TORSDOF 29
ENDMDL
MODEL 39
USER: ADFR SOLUTION from run 195
USER: SCORE 17.912086 LL:  -4.592 LR: -15.183 RR:   0.000 FEB:  -6.532
USER: RMSD 10.738698
USER: SEED 194
USER: STATUS searching
USER: GENES 31
USER: genes 0 Translation |==|  0.63119 0.51446 0.31772
USER: genes 1 Rotation |==|  0.49770 0.48037 0.01062 0.60060
USER: genes 2 Torsion [C]-N--CA-[CB] |==|  0.17222
USER: genes 3 Torsion [N]-CA--CB-[CG] |==|  0.43769
USER: genes 4 Torsion [CA]-CB--CG-[CD] |==|  0.21939
USER: genes 5 Torsion [CB]-CG--CD-[OE2] |==|  0.79866
USER: genes 6 Torsion [N]-CA--C-[N] |==|  0.40751
USER: genes 7 Torsion [C]-N--CA-[CB] |==|  0.22470
USER: genes 8 Torsion [N]-CA--CB-[CG2] |==|  0.28325
USER: genes 9 Torsion [CA]-CB--OG1-[HG1] |==|  0.99412
USER: genes 10 Torsion [N]-CA--C-[N] |==|  0.95905
USER: genes 11 Torsion [C]-N--CA-[C] |==|  0.79747
USER: genes 12 Torsion [N]-CA--C-[N] |==|  0.88286
USER: genes 13 Torsion [C]-N--CA-[CB] |==|  0.86466
USER: genes 14 Torsion [N]-CA--CB-[CG2] |==|  0.70691
USER: genes 15 Torsion [N]-CA--C-[OXT] |==|  0.42773
USER: genes 16 Torsion [N]-CA--CB-[CG] |==|  0.71415
USER: genes 17 Torsion [CA]-CB--CG-[CD] |==|  0.61744
USER: genes 18 Torsion [CB]-CG--CD-[OE1] |==|  0.68770
USER: genes 19 Torsion [N]-C--CA-[N] |==|  0.10992
USER: genes 20 Torsion [C]-CA--CB-[CG] |==|  0.22008
USER: genes 21 Torsion [CA]-CB--CG-[CD] |==|  0.57750
USER: genes 22 Torsion [CB]-CG--CD-[NE] |==|  0.03181
USER: genes 23 Torsion [CG]-CD--NE-[HE] |==|  0.79203
USER: genes 24 Torsion [C]-CA--N-[C] |==|  0.14164
USER: genes 25 Torsion [N]-C--CA-[N] |==|  0.90295
USER: genes 26 Torsion [C]-CA--N-[H2] |==|  0.63235
USER: genes 27 Torsion [C]-CA--CB-[CG] |==|  0.82795
USER: genes 28 Torsion [CA]-CB--CG-[CD] |==|  0.58674
USER: genes 29 Torsion [CB]-CG--CD-[NE] |==|  0.20363
USER: genes 30 Torsion [CG]-CD--NE-[CZ] |==|  0.69438
ROOT
ATOM      1  C   ARG C   2      27.951  19.921  22.324  1.00 17.64 LIG 0.24  C 
ATOM      2 O    ARG C   2      28.453  19.113  21.537  1.00 18.48 LIG-0.27  OA
ATOM      3  N   GLU C   3      26.948  19.601  23.134  1.00 16.82 LIG-0.35  N 
ATOM      4 H    GLU C   3      26.584  20.144  23.694  1.00 16.82 LIG 0.16  HD
ENDROOT
BRANCH 3 5
ATOM      5  CA  GLU C   3      26.374  18.258  23.130  1.00 17.00 LIG 0.18  C 
BRANCH 5 6
ATOM      6  CB  GLU C   3      27.432  17.220  23.536  1.00 16.91 LIG 0.04  C 
BRANCH 6 7
ATOM      7  CG  GLU C   3      26.826  15.924  24.077  1.00 19.77 LIG 0.12  C 
BRANCH 7 8
ATOM      8  CD  GLU C   3      26.323  15.003  22.980  1.00 23.53 LIG 0.17  C 
ATOM      9 OE2  GLU C   3      25.285  15.317  22.367  1.00 22.35 LIG-0.65  OA
ATOM     10 OE1  GLU C   3      26.968  13.967  22.735  1.00 28.80 LIG-0.65  OA
ENDBRANCH 7 8
ENDBRANCH 6 7
ENDBRANCH 5 6
BRANCH 5 11
ATOM     11  C   GLU C   3      25.209  18.229  24.108  1.00 16.25 LIG 0.24  C 
ATOM     12  N   THR C   4      24.177  17.436  23.806  1.00 14.90 LIG-0.34  N 
ATOM     13 H    THR C   4      24.155  16.918  23.120  1.00 14.90 LIG 0.16  HD
ATOM     14 O    GLU C   3      25.248  18.928  25.124  1.00 19.18 LIG-0.27  OA
BRANCH 12 15
ATOM     15  CA  THR C   4      22.980  17.387  24.636  1.00 14.85 LIG 0.20  C 
BRANCH 15 16
ATOM     16  CB  THR C   4      22.054  18.563  24.315  1.00 16.75 LIG 0.15  C 
ATOM     17  CG2 THR C   4      20.895  18.110  23.435  1.00 16.70 LIG 0.04  C 
BRANCH 16 18
ATOM     18 OG1  THR C   4      21.556  19.113  25.539  1.00 17.36 LIG-0.39  OA
ATOM     19 HG1  THR C   4      21.846  18.664  26.187  1.00 17.36 LIG 0.21  HD
ENDBRANCH 16 18
ENDBRANCH 15 16
BRANCH 15 20
ATOM     20  C   THR C   4      22.232  16.083  24.405  1.00 14.69 LIG 0.24  C 
ATOM     21  N   GLN C   5      22.578  15.380  23.330  1.00 15.36 LIG-0.35  N 
ATOM     22 H    GLN C   5      23.100  15.671  22.712  1.00 15.36 LIG 0.16  HD
ATOM     23 O    THR C   4      21.358  15.716  25.199  1.00 15.54 LIG-0.27  OA
BRANCH 21 24
ATOM     24  CA  GLN C   5      22.085  14.028  23.114  1.00 16.48 LIG 0.18  C 
BRANCH 24 25
ATOM     25  C   GLN C   5      22.774  13.071  24.074  1.00 17.30 LIG 0.24  C 
ATOM     26 O    GLN C   5      22.125  12.205  24.676  1.00 19.53 LIG-0.27  OA
ATOM     27  N   VAL C   6      24.081  13.248  24.246  1.00 16.49 LIG-0.34  N 
ATOM     28 H    VAL C   6      24.542  13.843  23.829  1.00 16.49 LIG 0.16  HD
BRANCH 27 29
ATOM     29  CA  VAL C   6      24.858  12.431  25.175  1.00 18.07 LIG 0.19  C 
BRANCH 29 30
ATOM     30  CB  VAL C   6      24.181  12.339  26.556  1.00 20.19 LIG 0.01  C 
ATOM     31  CG1 VAL C   6      24.118  10.902  27.035  1.00 23.48 LIG 0.01  C 
ATOM     32  CG2 VAL C   6      24.918  13.205  27.570  1.00 21.65 LIG 0.01  C 
ENDBRANCH 29 30
BRANCH 29 33
ATOM     33  C   VAL C   6      25.101  11.034  24.617  1.00 18.86 LIG 0.20  C 
ATOM     34 O    VAL C   6      24.310  10.522  23.803  1.00 20.67 LIG-0.65  OA
ATOM     35 OXT  VAL C   6      26.095  10.387  24.992  1.00 19.38 LIG-0.65  OA
ENDBRANCH 29 33
ENDBRANCH 27 29
ENDBRANCH 24 25
BRANCH 24 36
ATOM     36  CB  GLN C   5      22.380  13.587  21.680  1.00 21.66 LIG 0.04  C 
BRANCH 36 37
ATOM     37  CG  GLN C   5      21.191  13.624  20.737  1.00 28.10 LIG 0.10  C 
BRANCH 37 38
ATOM     38  CD  GLN C   5      21.128  12.402  19.831  1.00 33.44 LIG 0.21  C 
ATOM     39  NE2 GLN C   5      20.872  11.239  20.420  1.00 35.38 LIG-0.37  N 
ATOM     40 21HE GLN C   5      20.750  11.205  21.271  1.00 35.38 LIG 0.16  HD
ATOM     41 22HE GLN C   5      20.827  10.520  19.950  1.00 35.38 LIG 0.16  HD
ATOM     42 OE1  GLN C   5      21.310  12.506  18.617  1.00 34.39 LIG-0.27  OA
ENDBRANCH 37 38
ENDBRANCH 36 37
ENDBRANCH 24 36
ENDBRANCH 21 24
ENDBRANCH 15 20
ENDBRANCH 12 15
ENDBRANCH 5 11
ENDBRANCH 3 5
BRANCH 1 43
ATOM     43  CA  ARG C   2      28.445  21.364  22.380  1.00 18.81 LIG 0.18  C 
BRANCH 43 44
ATOM     44  CB  ARG C   2      29.850  21.448  21.788  1.00 19.04 LIG 0.04  C 
BRANCH 44 45
ATOM     45  CG  ARG C   2      29.847  21.456  20.274  1.00 18.27 LIG 0.02  C 
BRANCH 45 46
ATOM     46  CD  ARG C   2      31.138  20.867  19.742  1.00 20.59 LIG 0.14  C 
BRANCH 46 47
ATOM     47  NE  ARG C   2      31.896  20.218  20.807  1.00 21.96 LIG-0.23  N 
ATOM     48 HE   ARG C   2      32.309  20.720  21.370  1.00 21.96 LIG 0.18  HD
ATOM     49  CZ  ARG C   2      31.990  18.901  20.963  1.00 22.93 LIG 0.67  C 
ATOM     50  NH2 ARG C   2      32.699  18.402  21.963  1.00 24.61 LIG-0.23  N 
ATOM     51  NH1 ARG C   2      31.377  18.085  20.117  1.00 22.65 LIG-0.23  N 
ATOM     52 1HH2 ARG C   2      33.098  18.930  22.513  1.00 24.61 LIG 0.17  HD
ATOM     53 2HH2 ARG C   2      32.760  17.550  22.064  1.00 24.61 LIG 0.17  HD
ATOM     54 1HH1 ARG C   2      30.917  18.408  19.466  1.00 22.65 LIG 0.17  HD
ATOM     55 2HH1 ARG C   2      31.438  17.233  20.219  1.00 22.65 LIG 0.17  HD
ENDBRANCH 46 47
ENDBRANCH 45 46
ENDBRANCH 44 45
ENDBRANCH 43 44
BRANCH 43 56
ATOM     56  N   ARG C   2      28.459  21.834  23.761  1.00 21.07 LIG-0.35  N 
ATOM     57  C   ARG C   1      29.054  21.125  24.717  1.00 27.96 LIG 0.25  C 
ATOM     58 O    ARG C   1      29.577  20.031  24.512  1.00 30.47 LIG-0.27  OA
ATOM     59 H    ARG C   2      28.060  22.585  23.890  1.00 21.07 LIG 0.16  HD
BRANCH 57 60
ATOM     60  CA  ARG C   1      29.071  21.734  26.113  1.00 31.07 LIG 0.27  C 
BRANCH 60 61
ATOM     61  N   ARG C   1      29.201  23.189  26.047  1.00 32.37 LIG-0.07  N 
ATOM     62 H2   ARG C   1      29.832  23.457  26.615  1.00 32.37 LIG 0.28  HD
ATOM     63 H1   ARG C   1      28.425  23.568  26.266  1.00 32.37 LIG 0.28  HD
ATOM     64 H3   ARG C   1      29.425  23.431  25.220  1.00 32.37 LIG 0.28  HD
ENDBRANCH 60 61
BRANCH 60 65
ATOM     65  CB  ARG C   1      27.796  21.328  26.854  1.00 35.21 LIG 0.04  C 
BRANCH 65 66
ATOM     66  CG  ARG C   1      26.522  21.835  26.184  1.00 38.18 LIG 0.02  C 
BRANCH 66 67
ATOM     67  CD  ARG C   1      25.416  22.118  27.190  1.00 40.83 LIG 0.14  C 
BRANCH 67 68
ATOM     68  NE  ARG C   1      25.679  23.330  27.959  1.00 41.61 LIG-0.23  N 
ATOM     69  CZ  ARG C   1      25.993  23.341  29.251  1.00 42.69 LIG 0.67  C 
ATOM     70  NH1 ARG C   1      26.082  22.201  29.926  1.00 43.45 LIG-0.23  N 
ATOM     71  NH2 ARG C   1      26.219  24.494  29.867  1.00 42.77 LIG-0.23  N 
ATOM     72 1HH1 ARG C   1      25.937  21.453  29.528  1.00 43.45 LIG 0.17  HD
ATOM     73 2HH1 ARG C   1      26.285  22.211  30.762  1.00 43.45 LIG 0.17  HD
ATOM     74 1HH2 ARG C   1      26.163  25.234  29.431  1.00 42.77 LIG 0.17  HD
ATOM     75 2HH2 ARG C   1      26.423  24.502  30.704  1.00 42.77 LIG 0.17  HD
ATOM     76 HE   ARG C   1      25.626  24.085  27.551  1.00 41.61 LIG 0.18  HD
ENDBRANCH 67 68
ENDBRANCH 66 67
ENDBRANCH 65 66
ENDBRANCH 60 65
ENDBRANCH 57 60
ENDBRANCH 43 56
ENDBRANCH 1 43
TORSDOF 29
ENDMDL
MODEL 40
USER: ADFR SOLUTION from run 25
USER: SCORE 18.881509 LL:  -5.520 LR: -15.168 RR:   0.000 FEB:  -6.517
USER: RMSD 10.415722
USER: SEED 24
USER: STATUS no improvement in best in 15 clusters for 5 generations
USER: GENES 31
USER: genes 0 Translation |==|  0.72384 0.51136 0.40355
USER: genes 1 Rotation |==|  0.28966 0.56481 0.85135 0.77948
USER: genes 2 Torsion [C]-N--CA-[CB] |==|  0.85951
USER: genes 3 Torsion [N]-CA--CB-[CG] |==|  0.76555
USER: genes 4 Torsion [CA]-CB--CG-[CD] |==|  0.13745
USER: genes 5 Torsion [CB]-CG--CD-[OE2] |==|  0.77691
USER: genes 6 Torsion [N]-CA--C-[N] |==|  0.77778
USER: genes 7 Torsion [C]-N--CA-[CB] |==|  0.55103
USER: genes 8 Torsion [N]-CA--CB-[CG2] |==|  0.15570
USER: genes 9 Torsion [CA]-CB--OG1-[HG1] |==|  0.09996
USER: genes 10 Torsion [N]-CA--C-[N] |==|  0.31506
USER: genes 11 Torsion [C]-N--CA-[C] |==|  0.69301
USER: genes 12 Torsion [N]-CA--C-[N] |==|  0.86153
USER: genes 13 Torsion [C]-N--CA-[CB] |==|  0.46845
USER: genes 14 Torsion [N]-CA--CB-[CG2] |==|  0.69675
USER: genes 15 Torsion [N]-CA--C-[OXT] |==|  0.92285
USER: genes 16 Torsion [N]-CA--CB-[CG] |==|  0.47458
USER: genes 17 Torsion [CA]-CB--CG-[CD] |==|  0.34408
USER: genes 18 Torsion [CB]-CG--CD-[OE1] |==|  0.29043
USER: genes 19 Torsion [N]-C--CA-[N] |==|  0.00256
USER: genes 20 Torsion [C]-CA--CB-[CG] |==|  0.90147
USER: genes 21 Torsion [CA]-CB--CG-[CD] |==|  0.74706
USER: genes 22 Torsion [CB]-CG--CD-[NE] |==|  0.44011
USER: genes 23 Torsion [CG]-CD--NE-[HE] |==|  0.23302
USER: genes 24 Torsion [C]-CA--N-[C] |==|  0.76353
USER: genes 25 Torsion [N]-C--CA-[N] |==|  0.70623
USER: genes 26 Torsion [C]-CA--N-[H2] |==|  0.76435
USER: genes 27 Torsion [C]-CA--CB-[CG] |==|  0.73817
USER: genes 28 Torsion [CA]-CB--CG-[CD] |==|  0.49015
USER: genes 29 Torsion [CB]-CG--CD-[NE] |==|  0.52649
USER: genes 30 Torsion [CG]-CD--NE-[CZ] |==|  0.51702
ROOT
ATOM      1  C   ARG C   2      30.521  19.849  23.934  1.00 17.64 LIG 0.24  C 
ATOM      2 O    ARG C   2      30.119  18.883  23.279  1.00 18.48 LIG-0.27  OA
ATOM      3  N   GLU C   3      30.183  21.100  23.642  1.00 16.82 LIG-0.35  N 
ATOM      4 H    GLU C   3      30.447  21.789  24.086  1.00 16.82 LIG 0.16  HD
ENDROOT
BRANCH 3 5
ATOM      5  CA  GLU C   3      29.311  21.402  22.512  1.00 17.00 LIG 0.18  C 
BRANCH 5 6
ATOM      6  CB  GLU C   3      29.820  20.708  21.239  1.00 16.91 LIG 0.04  C 
BRANCH 6 7
ATOM      7  CG  GLU C   3      30.902  21.506  20.510  1.00 19.77 LIG 0.12  C 
BRANCH 7 8
ATOM      8  CD  GLU C   3      32.017  21.967  21.430  1.00 23.53 LIG 0.17  C 
ATOM      9 OE2  GLU C   3      31.831  22.981  22.131  1.00 22.35 LIG-0.65  OA
ATOM     10 OE1  GLU C   3      33.077  21.316  21.449  1.00 28.80 LIG-0.65  OA
ENDBRANCH 7 8
ENDBRANCH 6 7
ENDBRANCH 5 6
BRANCH 5 11
ATOM     11  C   GLU C   3      27.907  20.921  22.845  1.00 16.25 LIG 0.24  C 
ATOM     12  N   THR C   4      27.655  19.618  22.693  1.00 14.90 LIG-0.34  N 
ATOM     13 H    THR C   4      28.248  19.039  22.462  1.00 14.90 LIG 0.16  HD
ATOM     14 O    GLU C   3      27.060  21.731  23.229  1.00 19.18 LIG-0.27  OA
BRANCH 12 15
ATOM     15  CA  THR C   4      26.325  19.063  22.915  1.00 14.85 LIG 0.20  C 
BRANCH 15 16
ATOM     16  CB  THR C   4      26.401  17.549  23.123  1.00 16.75 LIG 0.15  C 
ATOM     17  CG2 THR C   4      27.344  17.210  24.272  1.00 16.70 LIG 0.04  C 
BRANCH 16 18
ATOM     18 OG1  THR C   4      25.090  17.049  23.401  1.00 17.36 LIG-0.39  OA
ATOM     19 HG1  THR C   4      24.525  17.478  22.952  1.00 17.36 LIG 0.21  HD
ENDBRANCH 16 18
ENDBRANCH 15 16
BRANCH 15 20
ATOM     20  C   THR C   4      25.684  19.705  24.137  1.00 14.69 LIG 0.24  C 
ATOM     21  N   GLN C   5      24.617  20.469  23.917  1.00 15.36 LIG-0.35  N 
ATOM     22 H    GLN C   5      24.350  20.710  23.136  1.00 15.36 LIG 0.16  HD
ATOM     23 O    THR C   4      26.148  19.501  25.264  1.00 15.54 LIG-0.27  OA
BRANCH 21 24
ATOM     24  CA  GLN C   5      23.799  20.966  25.013  1.00 16.48 LIG 0.18  C 
BRANCH 24 25
ATOM     25  C   GLN C   5      22.443  20.278  24.995  1.00 17.30 LIG 0.24  C 
ATOM     26 O    GLN C   5      21.997  19.739  26.017  1.00 19.53 LIG-0.27  OA
ATOM     27  N   VAL C   6      21.804  20.264  23.829  1.00 16.49 LIG-0.34  N 
ATOM     28 H    VAL C   6      22.104  20.641  23.116  1.00 16.49 LIG 0.16  HD
BRANCH 27 29
ATOM     29  CA  VAL C   6      20.516  19.596  23.659  1.00 18.07 LIG 0.19  C 
BRANCH 29 30
ATOM     30  CB  VAL C   6      19.860  19.959  22.313  1.00 20.19 LIG 0.01  C 
ATOM     31  CG1 VAL C   6      19.463  18.710  21.550  1.00 23.48 LIG 0.01  C 
ATOM     32  CG2 VAL C   6      18.648  20.855  22.534  1.00 21.65 LIG 0.01  C 
ENDBRANCH 29 30
BRANCH 29 33
ATOM     33  C   VAL C   6      20.653  18.085  23.786  1.00 18.86 LIG 0.20  C 
ATOM     34 O    VAL C   6      19.706  17.388  24.197  1.00 20.67 LIG-0.65  OA
ATOM     35 OXT  VAL C   6      21.730  17.538  23.492  1.00 19.38 LIG-0.65  OA
ENDBRANCH 29 33
ENDBRANCH 27 29
ENDBRANCH 24 25
BRANCH 24 36
ATOM     36  CB  GLN C   5      23.590  22.473  24.866  1.00 21.66 LIG 0.04  C 
BRANCH 36 37
ATOM     37  CG  GLN C   5      22.578  23.080  25.822  1.00 28.10 LIG 0.10  C 
BRANCH 37 38
ATOM     38  CD  GLN C   5      23.167  24.214  26.651  1.00 33.44 LIG 0.21  C 
ATOM     39  NE2 GLN C   5      23.969  23.863  27.650  1.00 35.38 LIG-0.37  N 
ATOM     40 21HE GLN C   5      24.134  23.032  27.799  1.00 35.38 LIG 0.16  HD
ATOM     41 22HE GLN C   5      24.325  24.468  28.147  1.00 35.38 LIG 0.16  HD
ATOM     42 OE1  GLN C   5      22.898  25.388  26.394  1.00 34.39 LIG-0.27  OA
ENDBRANCH 37 38
ENDBRANCH 36 37
ENDBRANCH 24 36
ENDBRANCH 21 24
ENDBRANCH 15 20
ENDBRANCH 12 15
ENDBRANCH 5 11
ENDBRANCH 3 5
BRANCH 1 43
ATOM     43  CA  ARG C   2      31.473  19.650  25.110  1.00 18.81 LIG 0.18  C 
BRANCH 43 44
ATOM     44  CB  ARG C   2      30.817  18.750  26.153  1.00 19.04 LIG 0.04  C 
BRANCH 44 45
ATOM     45  CG  ARG C   2      29.324  18.974  26.265  1.00 18.27 LIG 0.02  C 
BRANCH 45 46
ATOM     46  CD  ARG C   2      29.025  20.023  27.316  1.00 20.59 LIG 0.14  C 
BRANCH 46 47
ATOM     47  NE  ARG C   2      27.710  20.618  27.104  1.00 21.96 LIG-0.23  N 
ATOM     48 HE   ARG C   2      27.026  20.205  27.422  1.00 21.96 LIG 0.18  HD
ATOM     49  CZ  ARG C   2      27.499  21.758  26.452  1.00 22.93 LIG 0.67  C 
ATOM     50  NH2 ARG C   2      26.268  22.223  26.312  1.00 24.61 LIG-0.23  N 
ATOM     51  NH1 ARG C   2      28.521  22.428  25.938  1.00 22.65 LIG-0.23  N 
ATOM     52 1HH2 ARG C   2      25.604  21.789  26.644  1.00 24.61 LIG 0.17  HD
ATOM     53 2HH2 ARG C   2      26.133  22.960  25.890  1.00 24.61 LIG 0.17  HD
ATOM     54 1HH1 ARG C   2      29.322  22.127  26.027  1.00 22.65 LIG 0.17  HD
ATOM     55 2HH1 ARG C   2      28.384  23.165  25.517  1.00 22.65 LIG 0.17  HD
ENDBRANCH 46 47
ENDBRANCH 45 46
ENDBRANCH 44 45
ENDBRANCH 43 44
BRANCH 43 56
ATOM     56  N   ARG C   2      31.807  20.938  25.706  1.00 21.07 LIG-0.35  N 
ATOM     57  C   ARG C   1      32.798  21.680  25.215  1.00 27.96 LIG 0.25  C 
ATOM     58 O    ARG C   1      33.509  21.314  24.281  1.00 30.47 LIG-0.27  OA
ATOM     59 H    ARG C   2      31.320  21.162  26.379  1.00 21.07 LIG 0.16  HD
BRANCH 57 60
ATOM     60  CA  ARG C   1      33.024  23.038  25.867  1.00 31.07 LIG 0.27  C 
BRANCH 60 61
ATOM     61  N   ARG C   1      32.549  24.118  25.003  1.00 32.37 LIG-0.07  N 
ATOM     62 H2   ARG C   1      33.186  24.333  24.418  1.00 32.37 LIG 0.28  HD
ATOM     63 H1   ARG C   1      32.351  24.830  25.499  1.00 32.37 LIG 0.28  HD
ATOM     64 H3   ARG C   1      31.822  23.851  24.565  1.00 32.37 LIG 0.28  HD
ENDBRANCH 60 61
BRANCH 60 65
ATOM     65  CB  ARG C   1      32.321  23.069  27.224  1.00 35.21 LIG 0.04  C 
BRANCH 65 66
ATOM     66  CG  ARG C   1      30.918  23.665  27.163  1.00 38.18 LIG 0.02  C 
BRANCH 66 67
ATOM     67  CD  ARG C   1      30.208  23.606  28.507  1.00 40.83 LIG 0.14  C 
BRANCH 67 68
ATOM     68  NE  ARG C   1      28.799  23.968  28.394  1.00 41.61 LIG-0.23  N 
ATOM     69  CZ  ARG C   1      27.979  24.111  29.431  1.00 42.69 LIG 0.67  C 
ATOM     70  NH1 ARG C   1      28.426  23.918  30.666  1.00 43.45 LIG-0.23  N 
ATOM     71  NH2 ARG C   1      26.712  24.448  29.231  1.00 42.77 LIG-0.23  N 
ATOM     72 1HH1 ARG C   1      29.248  23.701  30.797  1.00 43.45 LIG 0.17  HD
ATOM     73 2HH1 ARG C   1      27.894  24.011  31.336  1.00 43.45 LIG 0.17  HD
ATOM     74 1HH2 ARG C   1      26.421  24.574  28.431  1.00 42.77 LIG 0.17  HD
ATOM     75 2HH2 ARG C   1      26.180  24.540  29.901  1.00 42.77 LIG 0.17  HD
ATOM     76 HE   ARG C   1      28.479  24.096  27.606  1.00 41.61 LIG 0.18  HD
ENDBRANCH 67 68
ENDBRANCH 66 67
ENDBRANCH 65 66
ENDBRANCH 60 65
ENDBRANCH 57 60
ENDBRANCH 43 56
ENDBRANCH 1 43
TORSDOF 29
ENDMDL
MODEL 41
USER: ADFR SOLUTION from run 151
USER: SCORE 19.500254 LL:  -6.586 LR: -15.156 RR:   0.000 FEB:  -6.506
USER: RMSD 10.408205
USER: SEED 150
USER: STATUS no improvement in best in 16 clusters for 5 generations
USER: GENES 31
USER: genes 0 Translation |==|  0.65662 0.54274 0.35366
USER: genes 1 Rotation |==|  0.29641 0.74732 0.35435 0.85521
USER: genes 2 Torsion [C]-N--CA-[CB] |==|  0.21684
USER: genes 3 Torsion [N]-CA--CB-[CG] |==|  0.24051
USER: genes 4 Torsion [CA]-CB--CG-[CD] |==|  0.74604
USER: genes 5 Torsion [CB]-CG--CD-[OE2] |==|  0.38531
USER: genes 6 Torsion [N]-CA--C-[N] |==|  0.04632
USER: genes 7 Torsion [C]-N--CA-[CB] |==|  0.39245
USER: genes 8 Torsion [N]-CA--CB-[CG2] |==|  0.08614
USER: genes 9 Torsion [CA]-CB--OG1-[HG1] |==|  0.60334
USER: genes 10 Torsion [N]-CA--C-[N] |==|  0.84710
USER: genes 11 Torsion [C]-N--CA-[C] |==|  0.56320
USER: genes 12 Torsion [N]-CA--C-[N] |==|  0.43847
USER: genes 13 Torsion [C]-N--CA-[CB] |==|  0.26244
USER: genes 14 Torsion [N]-CA--CB-[CG2] |==|  0.12301
USER: genes 15 Torsion [N]-CA--C-[OXT] |==|  0.61910
USER: genes 16 Torsion [N]-CA--CB-[CG] |==|  0.73062
USER: genes 17 Torsion [CA]-CB--CG-[CD] |==|  0.86310
USER: genes 18 Torsion [CB]-CG--CD-[OE1] |==|  0.79985
USER: genes 19 Torsion [N]-C--CA-[N] |==|  0.18483
USER: genes 20 Torsion [C]-CA--CB-[CG] |==|  0.28876
USER: genes 21 Torsion [CA]-CB--CG-[CD] |==|  0.47592
USER: genes 22 Torsion [CB]-CG--CD-[NE] |==|  0.26540
USER: genes 23 Torsion [CG]-CD--NE-[HE] |==|  0.85982
USER: genes 24 Torsion [C]-CA--N-[C] |==|  0.77663
USER: genes 25 Torsion [N]-C--CA-[N] |==|  0.77079
USER: genes 26 Torsion [C]-CA--N-[H2] |==|  0.48359
USER: genes 27 Torsion [C]-CA--CB-[CG] |==|  0.21382
USER: genes 28 Torsion [CA]-CB--CG-[CD] |==|  0.77143
USER: genes 29 Torsion [CB]-CG--CD-[NE] |==|  0.79221
USER: genes 30 Torsion [CG]-CD--NE-[CZ] |==|  0.79159
ROOT
ATOM      1  C   ARG C   2      28.656  20.579  22.998  1.00 17.64 LIG 0.24  C 
ATOM      2 O    ARG C   2      27.809  20.903  22.160  1.00 18.48 LIG-0.27  OA
ATOM      3  N   GLU C   3      29.762  19.915  22.678  1.00 16.82 LIG-0.35  N 
ATOM      4 H    GLU C   3      30.367  19.682  23.243  1.00 16.82 LIG 0.16  HD
ENDROOT
BRANCH 3 5
ATOM      5  CA  GLU C   3      30.033  19.523  21.298  1.00 17.00 LIG 0.18  C 
BRANCH 5 6
ATOM      6  CB  GLU C   3      30.547  20.724  20.488  1.00 16.91 LIG 0.04  C 
BRANCH 6 7
ATOM      7  CG  GLU C   3      32.060  20.915  20.591  1.00 19.77 LIG 0.12  C 
BRANCH 7 8
ATOM      8  CD  GLU C   3      32.463  21.844  21.721  1.00 23.53 LIG 0.17  C 
ATOM      9 OE2  GLU C   3      33.454  21.544  22.416  1.00 22.35 LIG-0.65  OA
ATOM     10 OE1  GLU C   3      31.786  22.871  21.914  1.00 28.80 LIG-0.65  OA
ENDBRANCH 7 8
ENDBRANCH 6 7
ENDBRANCH 5 6
BRANCH 5 11
ATOM     11  C   GLU C   3      31.074  18.414  21.309  1.00 16.25 LIG 0.24  C 
ATOM     12  N   THR C   4      31.282  17.781  22.467  1.00 14.90 LIG-0.34  N 
ATOM     13 H    THR C   4      30.835  17.936  23.185  1.00 14.90 LIG 0.16  HD
ATOM     14 O    GLU C   3      31.687  18.144  20.273  1.00 19.18 LIG-0.27  OA
BRANCH 12 15
ATOM     15  CA  THR C   4      32.306  16.753  22.605  1.00 14.85 LIG 0.20  C 
BRANCH 15 16
ATOM     16  CB  THR C   4      33.000  16.864  23.965  1.00 16.75 LIG 0.15  C 
ATOM     17  CG2 THR C   4      32.036  17.401  25.018  1.00 16.70 LIG 0.04  C 
BRANCH 16 18
ATOM     18 OG1  THR C   4      33.479  15.572  24.352  1.00 17.36 LIG-0.39  OA
ATOM     19 HG1  THR C   4      33.386  15.476  25.181  1.00 17.36 LIG 0.21  HD
ENDBRANCH 16 18
ENDBRANCH 15 16
BRANCH 15 20
ATOM     20  C   THR C   4      31.687  15.370  22.470  1.00 14.69 LIG 0.24  C 
ATOM     21  N   GLN C   5      30.676  15.088  23.288  1.00 15.36 LIG-0.35  N 
ATOM     22 H    GLN C   5      30.440  15.583  23.950  1.00 15.36 LIG 0.16  HD
ATOM     23 O    THR C   4      32.115  14.574  21.627  1.00 15.54 LIG-0.27  OA
BRANCH 21 24
ATOM     24  CA  GLN C   5      29.873  13.886  23.118  1.00 16.48 LIG 0.18  C 
BRANCH 24 25
ATOM     25  C   GLN C   5      28.515  14.079  23.774  1.00 17.30 LIG 0.24  C 
ATOM     26 O    GLN C   5      28.368  14.902  24.687  1.00 19.53 LIG-0.27  OA
ATOM     27  N   VAL C   6      27.532  13.299  23.335  1.00 16.49 LIG-0.34  N 
ATOM     28 H    VAL C   6      27.623  12.728  22.697  1.00 16.49 LIG 0.16  HD
BRANCH 27 29
ATOM     29  CA  VAL C   6      26.190  13.346  23.909  1.00 18.07 LIG 0.19  C 
BRANCH 29 30
ATOM     30  CB  VAL C   6      25.262  14.285  23.114  1.00 20.19 LIG 0.01  C 
ATOM     31  CG1 VAL C   6      25.529  15.736  23.465  1.00 23.48 LIG 0.01  C 
ATOM     32  CG2 VAL C   6      25.431  14.061  21.617  1.00 21.65 LIG 0.01  C 
ENDBRANCH 29 30
BRANCH 29 33
ATOM     33  C   VAL C   6      25.575  11.956  24.001  1.00 18.86 LIG 0.20  C 
ATOM     34 O    VAL C   6      26.251  10.979  24.375  1.00 20.67 LIG-0.65  OA
ATOM     35 OXT  VAL C   6      24.385  11.787  23.681  1.00 19.38 LIG-0.65  OA
ENDBRANCH 29 33
ENDBRANCH 27 29
ENDBRANCH 24 25
BRANCH 24 36
ATOM     36  CB  GLN C   5      30.573  12.695  23.773  1.00 21.66 LIG 0.04  C 
BRANCH 36 37
ATOM     37  CG  GLN C   5      31.388  11.828  22.831  1.00 28.10 LIG 0.10  C 
BRANCH 37 38
ATOM     38  CD  GLN C   5      30.610  11.433  21.582  1.00 33.44 LIG 0.21  C 
ATOM     39  NE2 GLN C   5      30.972  12.021  20.447  1.00 35.38 LIG-0.37  N 
ATOM     40 21HE GLN C   5      31.617  12.590  20.444  1.00 35.38 LIG 0.16  HD
ATOM     41 22HE GLN C   5      30.562  11.831  19.716  1.00 35.38 LIG 0.16  HD
ATOM     42 OE1  GLN C   5      29.695  10.611  21.643  1.00 34.39 LIG-0.27  OA
ENDBRANCH 37 38
ENDBRANCH 36 37
ENDBRANCH 24 36
ENDBRANCH 21 24
ENDBRANCH 15 20
ENDBRANCH 12 15
ENDBRANCH 5 11
ENDBRANCH 3 5
BRANCH 1 43
ATOM     43  CA  ARG C   2      28.452  20.901  24.476  1.00 18.81 LIG 0.18  C 
BRANCH 43 44
ATOM     44  CB  ARG C   2      27.060  21.492  24.684  1.00 19.04 LIG 0.04  C 
BRANCH 44 45
ATOM     45  CG  ARG C   2      26.090  20.503  25.297  1.00 18.27 LIG 0.02  C 
BRANCH 45 46
ATOM     46  CD  ARG C   2      24.798  21.197  25.676  1.00 20.59 LIG 0.14  C 
BRANCH 46 47
ATOM     47  NE  ARG C   2      23.799  21.056  24.621  1.00 21.96 LIG-0.23  N 
ATOM     48 HE   ARG C   2      24.031  21.256  23.818  1.00 21.96 LIG 0.18  HD
ATOM     49  CZ  ARG C   2      22.552  20.638  24.822  1.00 22.93 LIG 0.67  C 
ATOM     50  NH2 ARG C   2      21.715  20.538  23.801  1.00 24.61 LIG-0.23  N 
ATOM     51  NH1 ARG C   2      22.145  20.324  26.044  1.00 22.65 LIG-0.23  N 
ATOM     52 1HH2 ARG C   2      21.978  20.742  23.008  1.00 24.61 LIG 0.17  HD
ATOM     53 2HH2 ARG C   2      20.909  20.268  23.932  1.00 24.61 LIG 0.17  HD
ATOM     54 1HH1 ARG C   2      22.687  20.391  26.708  1.00 22.65 LIG 0.17  HD
ATOM     55 2HH1 ARG C   2      21.338  20.054  26.172  1.00 22.65 LIG 0.17  HD
ENDBRANCH 46 47
ENDBRANCH 45 46
ENDBRANCH 44 45
ENDBRANCH 43 44
BRANCH 43 56
ATOM     56  N   ARG C   2      29.465  21.849  24.925  1.00 21.07 LIG-0.35  N 
ATOM     57  C   ARG C   1      30.691  21.437  25.241  1.00 27.96 LIG 0.25  C 
ATOM     58 O    ARG C   1      31.026  20.254  25.221  1.00 30.47 LIG-0.27  OA
ATOM     59 H    ARG C   2      29.203  22.667  24.964  1.00 21.07 LIG 0.16  HD
BRANCH 57 60
ATOM     60  CA  ARG C   1      31.695  22.513  25.636  1.00 31.07 LIG 0.27  C 
BRANCH 60 61
ATOM     61  N   ARG C   1      32.291  23.132  24.453  1.00 32.37 LIG-0.07  N 
ATOM     62 H2   ARG C   1      32.807  23.813  24.702  1.00 32.37 LIG 0.28  HD
ATOM     63 H1   ARG C   1      31.646  23.430  23.916  1.00 32.37 LIG 0.28  HD
ATOM     64 H3   ARG C   1      32.782  22.530  24.019  1.00 32.37 LIG 0.28  HD
ENDBRANCH 60 61
BRANCH 60 65
ATOM     65  CB  ARG C   1      30.997  23.556  26.511  1.00 35.21 LIG 0.04  C 
BRANCH 65 66
ATOM     66  CG  ARG C   1      30.781  23.089  27.947  1.00 38.18 LIG 0.02  C 
BRANCH 66 67
ATOM     67  CD  ARG C   1      29.541  22.219  28.090  1.00 40.83 LIG 0.14  C 
BRANCH 67 68
ATOM     68  NE  ARG C   1      28.314  23.007  28.030  1.00 41.61 LIG-0.23  N 
ATOM     69  CZ  ARG C   1      27.871  23.774  29.021  1.00 42.69 LIG 0.67  C 
ATOM     70  NH1 ARG C   1      28.554  23.858  30.157  1.00 43.45 LIG-0.23  N 
ATOM     71  NH2 ARG C   1      26.745  24.460  28.874  1.00 42.77 LIG-0.23  N 
ATOM     72 1HH1 ARG C   1      29.285  23.416  30.253  1.00 43.45 LIG 0.17  HD
ATOM     73 2HH1 ARG C   1      28.265  24.355  30.796  1.00 43.45 LIG 0.17  HD
ATOM     74 1HH2 ARG C   1      26.301  24.408  28.138  1.00 42.77 LIG 0.17  HD
ATOM     75 2HH2 ARG C   1      26.457  24.957  29.515  1.00 42.77 LIG 0.17  HD
ATOM     76 HE   ARG C   1      27.848  22.971  27.308  1.00 41.61 LIG 0.18  HD
ENDBRANCH 67 68
ENDBRANCH 66 67
ENDBRANCH 65 66
ENDBRANCH 60 65
ENDBRANCH 57 60
ENDBRANCH 43 56
ENDBRANCH 1 43
TORSDOF 29
ENDMDL
MODEL 42
USER: ADFR SOLUTION from run 24
USER: SCORE 20.115151 LL:  -6.511 LR: -15.155 RR:   0.000 FEB:  -6.504
USER: RMSD 8.312260
USER: SEED 23
USER: STATUS no improvement in best in 4 clusters for 5 generations
USER: GENES 31
USER: genes 0 Translation |==|  0.56609 0.52742 0.42032
USER: genes 1 Rotation |==|  0.29280 0.68531 0.24456 0.82784
USER: genes 2 Torsion [C]-N--CA-[CB] |==|  0.15005
USER: genes 3 Torsion [N]-CA--CB-[CG] |==|  0.15266
USER: genes 4 Torsion [CA]-CB--CG-[CD] |==|  0.69782
USER: genes 5 Torsion [CB]-CG--CD-[OE2] |==|  0.74590
USER: genes 6 Torsion [N]-CA--C-[N] |==|  0.64854
USER: genes 7 Torsion [C]-N--CA-[CB] |==|  0.22825
USER: genes 8 Torsion [N]-CA--CB-[CG2] |==|  0.30887
USER: genes 9 Torsion [CA]-CB--OG1-[HG1] |==|  0.39874
USER: genes 10 Torsion [N]-CA--C-[N] |==|  0.95000
USER: genes 11 Torsion [C]-N--CA-[C] |==|  0.78562
USER: genes 12 Torsion [N]-CA--C-[N] |==|  0.97665
USER: genes 13 Torsion [C]-N--CA-[CB] |==|  0.25409
USER: genes 14 Torsion [N]-CA--CB-[CG2] |==|  0.87668
USER: genes 15 Torsion [N]-CA--C-[OXT] |==|  0.30407
USER: genes 16 Torsion [N]-CA--CB-[CG] |==|  0.17586
USER: genes 17 Torsion [CA]-CB--CG-[CD] |==|  0.72284
USER: genes 18 Torsion [CB]-CG--CD-[OE1] |==|  0.51442
USER: genes 19 Torsion [N]-C--CA-[N] |==|  0.19061
USER: genes 20 Torsion [C]-CA--CB-[CG] |==|  0.42313
USER: genes 21 Torsion [CA]-CB--CG-[CD] |==|  0.37518
USER: genes 22 Torsion [CB]-CG--CD-[NE] |==|  0.66534
USER: genes 23 Torsion [CG]-CD--NE-[HE] |==|  0.27876
USER: genes 24 Torsion [C]-CA--N-[C] |==|  0.78138
USER: genes 25 Torsion [N]-C--CA-[N] |==|  0.89050
USER: genes 26 Torsion [C]-CA--N-[H2] |==|  0.37472
USER: genes 27 Torsion [C]-CA--CB-[CG] |==|  0.13607
USER: genes 28 Torsion [CA]-CB--CG-[CD] |==|  0.64126
USER: genes 29 Torsion [CB]-CG--CD-[NE] |==|  0.88426
USER: genes 30 Torsion [CG]-CD--NE-[CZ] |==|  0.77476
ROOT
ATOM      1  C   ARG C   2      26.144  20.222  24.248  1.00 17.64 LIG 0.24  C 
ATOM      2 O    ARG C   2      25.655  20.360  23.122  1.00 18.48 LIG-0.27  OA
ATOM      3  N   GLU C   3      27.064  19.303  24.520  1.00 16.82 LIG-0.35  N 
ATOM      4 H    GLU C   3      27.422  19.191  25.294  1.00 16.82 LIG 0.16  HD
ENDROOT
BRANCH 3 5
ATOM      5  CA  GLU C   3      27.546  18.390  23.489  1.00 17.00 LIG 0.18  C 
BRANCH 5 6
ATOM      6  CB  GLU C   3      28.048  19.175  22.266  1.00 16.91 LIG 0.04  C 
BRANCH 6 7
ATOM      7  CG  GLU C   3      29.113  20.214  22.615  1.00 19.77 LIG 0.12  C 
BRANCH 7 8
ATOM      8  CD  GLU C   3      28.605  21.640  22.509  1.00 23.53 LIG 0.17  C 
ATOM      9 OE2  GLU C   3      28.742  22.243  21.427  1.00 22.35 LIG-0.65  OA
ATOM     10 OE1  GLU C   3      28.072  22.155  23.509  1.00 28.80 LIG-0.65  OA
ENDBRANCH 7 8
ENDBRANCH 6 7
ENDBRANCH 5 6
BRANCH 5 11
ATOM     11  C   GLU C   3      28.674  17.555  24.074  1.00 16.25 LIG 0.24  C 
ATOM     12  N   THR C   4      29.832  17.538  23.407  1.00 14.90 LIG-0.34  N 
ATOM     13 H    THR C   4      29.983  18.000  22.698  1.00 14.90 LIG 0.16  HD
ATOM     14 O    GLU C   3      28.489  16.926  25.119  1.00 19.18 LIG-0.27  OA
BRANCH 12 15
ATOM     15  CA  THR C   4      30.954  16.714  23.840  1.00 14.85 LIG 0.20  C 
BRANCH 15 16
ATOM     16  CB  THR C   4      30.785  15.274  23.351  1.00 16.75 LIG 0.15  C 
ATOM     17  CG2 THR C   4      31.825  14.942  22.287  1.00 16.70 LIG 0.04  C 
BRANCH 16 18
ATOM     18 OG1  THR C   4      30.919  14.383  24.463  1.00 17.36 LIG-0.39  OA
ATOM     19 HG1  THR C   4      30.387  13.739  24.372  1.00 17.36 LIG 0.21  HD
ENDBRANCH 16 18
ENDBRANCH 15 16
BRANCH 15 20
ATOM     20  C   THR C   4      32.260  17.277  23.301  1.00 14.69 LIG 0.24  C 
ATOM     21  N   GLN C   5      32.166  18.127  22.280  1.00 15.36 LIG-0.35  N 
ATOM     22 H    GLN C   5      31.440  18.277  21.845  1.00 15.36 LIG 0.16  HD
ATOM     23 O    THR C   4      33.338  16.951  23.810  1.00 15.54 LIG-0.27  OA
BRANCH 21 24
ATOM     24  CA  GLN C   5      33.317  18.885  21.814  1.00 16.48 LIG 0.18  C 
BRANCH 24 25
ATOM     25  C   GLN C   5      33.585  20.045  22.760  1.00 17.30 LIG 0.24  C 
ATOM     26 O    GLN C   5      34.625  20.710  22.663  1.00 19.53 LIG-0.27  OA
ATOM     27  N   VAL C   6      32.666  20.266  23.696  1.00 16.49 LIG-0.34  N 
ATOM     28 H    VAL C   6      31.938  19.813  23.768  1.00 16.49 LIG 0.16  HD
BRANCH 27 29
ATOM     29  CA  VAL C   6      32.820  21.317  24.699  1.00 18.07 LIG 0.19  C 
BRANCH 29 30
ATOM     30  CB  VAL C   6      32.186  22.643  24.236  1.00 20.19 LIG 0.01  C 
ATOM     31  CG1 VAL C   6      32.617  23.791  25.129  1.00 23.48 LIG 0.01  C 
ATOM     32  CG2 VAL C   6      32.550  22.933  22.786  1.00 21.65 LIG 0.01  C 
ENDBRANCH 29 30
BRANCH 29 33
ATOM     33  C   VAL C   6      32.235  20.896  26.040  1.00 18.86 LIG 0.20  C 
ATOM     34 O    VAL C   6      31.003  20.808  26.203  1.00 20.67 LIG-0.65  OA
ATOM     35 OXT  VAL C   6      32.995  20.653  26.993  1.00 19.38 LIG-0.65  OA
ENDBRANCH 29 33
ENDBRANCH 27 29
ENDBRANCH 24 25
BRANCH 24 36
ATOM     36  CB  GLN C   5      33.045  19.440  20.416  1.00 21.66 LIG 0.04  C 
BRANCH 36 37
ATOM     37  CG  GLN C   5      31.900  20.433  20.328  1.00 28.10 LIG 0.10  C 
BRANCH 37 38
ATOM     38  CD  GLN C   5      30.614  19.796  19.819  1.00 33.44 LIG 0.21  C 
ATOM     39  NE2 GLN C   5      30.637  18.482  19.629  1.00 35.38 LIG-0.37  N 
ATOM     40 21HE GLN C   5      31.354  18.035  19.794  1.00 35.38 LIG 0.16  HD
ATOM     41 22HE GLN C   5      29.935  18.077  19.342  1.00 35.38 LIG 0.16  HD
ATOM     42 OE1  GLN C   5      29.615  20.482  19.598  1.00 34.39 LIG-0.27  OA
ENDBRANCH 37 38
ENDBRANCH 36 37
ENDBRANCH 24 36
ENDBRANCH 21 24
ENDBRANCH 15 20
ENDBRANCH 12 15
ENDBRANCH 5 11
ENDBRANCH 3 5
BRANCH 1 43
ATOM     43  CA  ARG C   2      25.680  21.096  25.410  1.00 18.81 LIG 0.18  C 
BRANCH 43 44
ATOM     44  CB  ARG C   2      24.469  21.920  24.981  1.00 19.04 LIG 0.04  C 
BRANCH 44 45
ATOM     45  CG  ARG C   2      23.562  22.275  26.140  1.00 18.27 LIG 0.02  C 
BRANCH 45 46
ATOM     46  CD  ARG C   2      23.155  23.733  26.064  1.00 20.59 LIG 0.14  C 
BRANCH 46 47
ATOM     47  NE  ARG C   2      23.579  24.458  27.258  1.00 21.96 LIG-0.23  N 
ATOM     48 HE   ARG C   2      24.291  24.937  27.205  1.00 21.96 LIG 0.18  HD
ATOM     49  CZ  ARG C   2      22.935  24.426  28.421  1.00 22.93 LIG 0.67  C 
ATOM     50  NH2 ARG C   2      23.393  25.122  29.450  1.00 24.61 LIG-0.23  N 
ATOM     51  NH1 ARG C   2      21.836  23.697  28.554  1.00 22.65 LIG-0.23  N 
ATOM     52 1HH2 ARG C   2      24.107  25.595  29.366  1.00 24.61 LIG 0.17  HD
ATOM     53 2HH2 ARG C   2      22.977  25.101  30.202  1.00 24.61 LIG 0.17  HD
ATOM     54 1HH1 ARG C   2      21.538  23.244  27.886  1.00 22.65 LIG 0.17  HD
ATOM     55 2HH1 ARG C   2      21.421  23.678  29.306  1.00 22.65 LIG 0.17  HD
ENDBRANCH 46 47
ENDBRANCH 45 46
ENDBRANCH 44 45
ENDBRANCH 43 44
BRANCH 43 56
ATOM     56  N   ARG C   2      26.760  21.982  25.831  1.00 21.07 LIG-0.35  N 
ATOM     57  C   ARG C   1      27.752  21.533  26.595  1.00 27.96 LIG 0.25  C 
ATOM     58 O    ARG C   1      27.797  20.382  27.026  1.00 30.47 LIG-0.27  OA
ATOM     59 H    ARG C   2      26.694  22.792  25.546  1.00 21.07 LIG 0.16  HD
BRANCH 57 60
ATOM     60  CA  ARG C   1      28.865  22.520  26.924  1.00 31.07 LIG 0.27  C 
BRANCH 60 61
ATOM     61  N   ARG C   1      29.187  23.351  25.766  1.00 32.37 LIG-0.07  N 
ATOM     62 H2   ARG C   1      29.260  24.201  26.021  1.00 32.37 LIG 0.28  HD
ATOM     63 H1   ARG C   1      28.540  23.279  25.159  1.00 32.37 LIG 0.28  HD
ATOM     64 H3   ARG C   1      29.957  23.081  25.411  1.00 32.37 LIG 0.28  HD
ENDBRANCH 60 61
BRANCH 60 65
ATOM     65  CB  ARG C   1      28.440  23.378  28.117  1.00 35.21 LIG 0.04  C 
BRANCH 65 66
ATOM     66  CG  ARG C   1      27.902  22.559  29.287  1.00 38.18 LIG 0.02  C 
BRANCH 66 67
ATOM     67  CD  ARG C   1      26.556  23.071  29.778  1.00 40.83 LIG 0.14  C 
BRANCH 67 68
ATOM     68  NE  ARG C   1      26.514  24.528  29.826  1.00 41.61 LIG-0.23  N 
ATOM     69  CZ  ARG C   1      27.017  25.258  30.817  1.00 42.69 LIG 0.67  C 
ATOM     70  NH1 ARG C   1      27.602  24.665  31.852  1.00 43.45 LIG-0.23  N 
ATOM     71  NH2 ARG C   1      26.936  26.582  30.772  1.00 42.77 LIG-0.23  N 
ATOM     72 1HH1 ARG C   1      27.656  23.808  31.881  1.00 43.45 LIG 0.17  HD
ATOM     73 2HH1 ARG C   1      27.926  25.139  32.492  1.00 43.45 LIG 0.17  HD
ATOM     74 1HH2 ARG C   1      26.558  26.967  30.102  1.00 42.77 LIG 0.17  HD
ATOM     75 2HH2 ARG C   1      27.261  27.054  31.413  1.00 42.77 LIG 0.17  HD
ATOM     76 HE   ARG C   1      26.139  24.942  29.172  1.00 41.61 LIG 0.18  HD
ENDBRANCH 67 68
ENDBRANCH 66 67
ENDBRANCH 65 66
ENDBRANCH 60 65
ENDBRANCH 57 60
ENDBRANCH 43 56
ENDBRANCH 1 43
TORSDOF 29
ENDMDL
MODEL 43
USER: ADFR SOLUTION from run 115
USER: SCORE 17.785668 LL:  -6.792 LR: -15.154 RR:   0.000 FEB:  -6.504
USER: RMSD 9.910112
USER: SEED 114
USER: STATUS no improvement in best in 10 clusters for 5 generations
USER: GENES 31
USER: genes 0 Translation |==|  0.67315 0.57043 0.41567
USER: genes 1 Rotation |==|  0.14636 0.71034 0.62794 0.75363
USER: genes 2 Torsion [C]-N--CA-[CB] |==|  0.51930
USER: genes 3 Torsion [N]-CA--CB-[CG] |==|  0.18340
USER: genes 4 Torsion [CA]-CB--CG-[CD] |==|  0.76814
USER: genes 5 Torsion [CB]-CG--CD-[OE2] |==|  0.96562
USER: genes 6 Torsion [N]-CA--C-[N] |==|  0.92212
USER: genes 7 Torsion [C]-N--CA-[CB] |==|  0.42896
USER: genes 8 Torsion [N]-CA--CB-[CG2] |==|  0.60540
USER: genes 9 Torsion [CA]-CB--OG1-[HG1] |==|  0.91856
USER: genes 10 Torsion [N]-CA--C-[N] |==|  0.14804
USER: genes 11 Torsion [C]-N--CA-[C] |==|  0.75693
USER: genes 12 Torsion [N]-CA--C-[N] |==|  0.20640
USER: genes 13 Torsion [C]-N--CA-[CB] |==|  0.36870
USER: genes 14 Torsion [N]-CA--CB-[CG2] |==|  0.04513
USER: genes 15 Torsion [N]-CA--C-[OXT] |==|  0.34429
USER: genes 16 Torsion [N]-CA--CB-[CG] |==|  0.84299
USER: genes 17 Torsion [CA]-CB--CG-[CD] |==|  0.38072
USER: genes 18 Torsion [CB]-CG--CD-[OE1] |==|  0.58059
USER: genes 19 Torsion [N]-C--CA-[N] |==|  0.34637
USER: genes 20 Torsion [C]-CA--CB-[CG] |==|  0.14535
USER: genes 21 Torsion [CA]-CB--CG-[CD] |==|  0.14629
USER: genes 22 Torsion [CB]-CG--CD-[NE] |==|  0.12971
USER: genes 23 Torsion [CG]-CD--NE-[HE] |==|  0.15894
USER: genes 24 Torsion [C]-CA--N-[C] |==|  0.20426
USER: genes 25 Torsion [N]-C--CA-[N] |==|  0.38644
USER: genes 26 Torsion [C]-CA--N-[H2] |==|  0.71885
USER: genes 27 Torsion [C]-CA--CB-[CG] |==|  0.26792
USER: genes 28 Torsion [CA]-CB--CG-[CD] |==|  0.38148
USER: genes 29 Torsion [CB]-CG--CD-[NE] |==|  0.62997
USER: genes 30 Torsion [CG]-CD--NE-[CZ] |==|  0.61150
ROOT
ATOM      1  C   ARG C   2      29.115  21.223  24.161  1.00 17.64 LIG 0.24  C 
ATOM      2 O    ARG C   2      28.224  20.367  24.150  1.00 18.48 LIG-0.27  OA
ATOM      3  N   GLU C   3      29.751  21.606  23.059  1.00 16.82 LIG-0.35  N 
ATOM      4 H    GLU C   3      30.371  22.202  23.041  1.00 16.82 LIG 0.16  HD
ENDROOT
BRANCH 3 5
ATOM      5  CA  GLU C   3      29.431  21.021  21.761  1.00 17.00 LIG 0.18  C 
BRANCH 5 6
ATOM      6  CB  GLU C   3      30.421  21.508  20.692  1.00 16.91 LIG 0.04  C 
BRANCH 6 7
ATOM      7  CG  GLU C   3      31.849  21.015  20.925  1.00 19.77 LIG 0.12  C 
BRANCH 7 8
ATOM      8  CD  GLU C   3      32.620  21.879  21.907  1.00 23.53 LIG 0.17  C 
ATOM      9 OE2  GLU C   3      32.143  22.983  22.232  1.00 22.35 LIG-0.65  OA
ATOM     10 OE1  GLU C   3      33.701  21.450  22.350  1.00 28.80 LIG-0.65  OA
ENDBRANCH 7 8
ENDBRANCH 6 7
ENDBRANCH 5 6
BRANCH 5 11
ATOM     11  C   GLU C   3      29.498  19.506  21.885  1.00 16.25 LIG 0.24  C 
ATOM     12  N   THR C   4      30.324  19.004  22.808  1.00 14.90 LIG-0.34  N 
ATOM     13 H    THR C   4      30.781  19.485  23.355  1.00 14.90 LIG 0.16  HD
ATOM     14 O    GLU C   3      28.809  18.802  21.142  1.00 19.18 LIG-0.27  OA
BRANCH 12 15
ATOM     15  CA  THR C   4      30.518  17.568  22.961  1.00 14.85 LIG 0.20  C 
BRANCH 15 16
ATOM     16  CB  THR C   4      31.889  17.273  23.576  1.00 16.75 LIG 0.15  C 
ATOM     17  CG2 THR C   4      32.504  16.028  22.946  1.00 16.70 LIG 0.04  C 
BRANCH 16 18
ATOM     18 OG1  THR C   4      32.745  18.401  23.372  1.00 17.36 LIG-0.39  OA
ATOM     19 HG1  THR C   4      32.521  18.799  22.667  1.00 17.36 LIG 0.21  HD
ENDBRANCH 16 18
ENDBRANCH 15 16
BRANCH 15 20
ATOM     20  C   THR C   4      29.433  16.981  23.851  1.00 14.69 LIG 0.24  C 
ATOM     21  N   GLN C   5      28.174  17.242  23.506  1.00 15.36 LIG-0.35  N 
ATOM     22 H    GLN C   5      27.949  17.806  22.897  1.00 15.36 LIG 0.16  HD
ATOM     23 O    THR C   4      29.734  16.294  24.833  1.00 15.54 LIG-0.27  OA
BRANCH 21 24
ATOM     24  CA  GLN C   5      27.054  16.573  24.152  1.00 16.48 LIG 0.18  C 
BRANCH 24 25
ATOM     25  C   GLN C   5      26.754  15.267  23.434  1.00 17.30 LIG 0.24  C 
ATOM     26 O    GLN C   5      25.744  15.155  22.726  1.00 19.53 LIG-0.27  OA
ATOM     27  N   VAL C   6      27.607  14.269  23.644  1.00 16.49 LIG-0.34  N 
ATOM     28 H    VAL C   6      28.314  14.338  24.130  1.00 16.49 LIG 0.16  HD
BRANCH 27 29
ATOM     29  CA  VAL C   6      27.412  12.946  23.055  1.00 18.07 LIG 0.19  C 
BRANCH 29 30
ATOM     30  CB  VAL C   6      28.705  12.415  22.406  1.00 20.19 LIG 0.01  C 
ATOM     31  CG1 VAL C   6      28.612  12.465  20.893  1.00 23.48 LIG 0.01  C 
ATOM     32  CG2 VAL C   6      29.911  13.208  22.891  1.00 21.65 LIG 0.01  C 
ENDBRANCH 29 30
BRANCH 29 33
ATOM     33  C   VAL C   6      26.895  11.950  24.085  1.00 18.86 LIG 0.20  C 
ATOM     34 O    VAL C   6      27.526  11.728  25.136  1.00 20.67 LIG-0.65  OA
ATOM     35 OXT  VAL C   6      25.837  11.335  23.867  1.00 19.38 LIG-0.65  OA
ENDBRANCH 29 33
ENDBRANCH 27 29
ENDBRANCH 24 25
BRANCH 24 36
ATOM     36  CB  GLN C   5      25.813  17.464  24.098  1.00 21.66 LIG 0.04  C 
BRANCH 36 37
ATOM     37  CG  GLN C   5      25.982  18.843  24.709  1.00 28.10 LIG 0.10  C 
BRANCH 37 38
ATOM     38  CD  GLN C   5      25.351  19.938  23.858  1.00 33.44 LIG 0.21  C 
ATOM     39  NE2 GLN C   5      24.307  19.586  23.117  1.00 35.38 LIG-0.37  N 
ATOM     40 21HE GLN C   5      24.020  18.775  23.135  1.00 35.38 LIG 0.16  HD
ATOM     41 22HE GLN C   5      23.918  20.169  22.619  1.00 35.38 LIG 0.16  HD
ATOM     42 OE1  GLN C   5      25.803  21.084  23.870  1.00 34.39 LIG-0.27  OA
ENDBRANCH 37 38
ENDBRANCH 36 37
ENDBRANCH 24 36
ENDBRANCH 21 24
ENDBRANCH 15 20
ENDBRANCH 12 15
ENDBRANCH 5 11
ENDBRANCH 3 5
BRANCH 1 43
ATOM     43  CA  ARG C   2      29.559  21.867  25.471  1.00 18.81 LIG 0.18  C 
BRANCH 43 44
ATOM     44  CB  ARG C   2      30.181  20.810  26.378  1.00 19.04 LIG 0.04  C 
BRANCH 44 45
ATOM     45  CG  ARG C   2      31.273  20.018  25.691  1.00 18.27 LIG 0.02  C 
BRANCH 45 46
ATOM     46  CD  ARG C   2      32.300  20.953  25.083  1.00 20.59 LIG 0.14  C 
BRANCH 46 47
ATOM     47  NE  ARG C   2      32.688  21.992  26.032  1.00 21.96 LIG-0.23  N 
ATOM     48 HE   ARG C   2      33.009  21.744  26.790  1.00 21.96 LIG 0.18  HD
ATOM     49  CZ  ARG C   2      32.579  23.296  25.799  1.00 22.93 LIG 0.67  C 
ATOM     50  NH2 ARG C   2      32.962  24.167  26.720  1.00 24.61 LIG-0.23  N 
ATOM     51  NH1 ARG C   2      32.084  23.728  24.647  1.00 22.65 LIG-0.23  N 
ATOM     52 1HH2 ARG C   2      33.282  23.889  27.468  1.00 24.61 LIG 0.17  HD
ATOM     53 2HH2 ARG C   2      32.890  25.011  26.569  1.00 24.61 LIG 0.17  HD
ATOM     54 1HH1 ARG C   2      31.834  23.163  24.049  1.00 22.65 LIG 0.17  HD
ATOM     55 2HH1 ARG C   2      32.014  24.572  24.498  1.00 22.65 LIG 0.17  HD
ENDBRANCH 46 47
ENDBRANCH 45 46
ENDBRANCH 44 45
ENDBRANCH 43 44
BRANCH 43 56
ATOM     56  N   ARG C   2      28.417  22.483  26.137  1.00 21.07 LIG-0.35  N 
ATOM     57  C   ARG C   1      27.492  21.737  26.735  1.00 27.96 LIG 0.25  C 
ATOM     58 O    ARG C   1      27.514  20.507  26.725  1.00 30.47 LIG-0.27  OA
ATOM     59 H    ARG C   2      28.401  23.343  26.105  1.00 21.07 LIG 0.16  HD
BRANCH 57 60
ATOM     60  CA  ARG C   1      26.375  22.478  27.458  1.00 31.07 LIG 0.27  C 
BRANCH 60 61
ATOM     61  N   ARG C   1      25.083  21.831  27.229  1.00 32.37 LIG-0.07  N 
ATOM     62 H2   ARG C   1      24.630  22.283  26.611  1.00 32.37 LIG 0.28  HD
ATOM     63 H1   ARG C   1      24.618  21.819  27.988  1.00 32.37 LIG 0.28  HD
ATOM     64 H3   ARG C   1      25.215  20.997  26.950  1.00 32.37 LIG 0.28  HD
ENDBRANCH 60 61
BRANCH 60 65
ATOM     65  CB  ARG C   1      26.700  22.547  28.951  1.00 35.21 LIG 0.04  C 
BRANCH 65 66
ATOM     66  CG  ARG C   1      27.364  23.857  29.363  1.00 38.18 LIG 0.02  C 
BRANCH 66 67
ATOM     67  CD  ARG C   1      26.802  24.401  30.668  1.00 40.83 LIG 0.14  C 
BRANCH 67 68
ATOM     68  NE  ARG C   1      26.495  25.824  30.576  1.00 41.61 LIG-0.23  N 
ATOM     69  CZ  ARG C   1      26.730  26.704  31.545  1.00 42.69 LIG 0.67  C 
ATOM     70  NH1 ARG C   1      27.277  26.306  32.689  1.00 43.45 LIG-0.23  N 
ATOM     71  NH2 ARG C   1      26.421  27.982  31.369  1.00 42.77 LIG-0.23  N 
ATOM     72 1HH1 ARG C   1      27.479  25.478  32.803  1.00 43.45 LIG 0.17  HD
ATOM     73 2HH1 ARG C   1      27.428  26.876  33.314  1.00 43.45 LIG 0.17  HD
ATOM     74 1HH2 ARG C   1      26.068  28.241  30.629  1.00 42.77 LIG 0.17  HD
ATOM     75 2HH2 ARG C   1      26.573  28.551  31.996  1.00 42.77 LIG 0.17  HD
ATOM     76 HE   ARG C   1      26.137  26.113  29.849  1.00 41.61 LIG 0.18  HD
ENDBRANCH 67 68
ENDBRANCH 66 67
ENDBRANCH 65 66
ENDBRANCH 60 65
ENDBRANCH 57 60
ENDBRANCH 43 56
ENDBRANCH 1 43
TORSDOF 29
ENDMDL
MODEL 44
USER: ADFR SOLUTION from run 77
USER: SCORE 18.510759 LL:  -5.170 LR: -15.120 RR:   0.000 FEB:  -6.470
USER: RMSD 9.721090
USER: SEED 76
USER: STATUS searching
USER: GENES 31
USER: genes 0 Translation |==|  0.61614 0.55286 0.38208
USER: genes 1 Rotation |==|  0.30548 0.67956 0.37235 0.90451
USER: genes 2 Torsion [C]-N--CA-[CB] |==|  0.22064
USER: genes 3 Torsion [N]-CA--CB-[CG] |==|  0.38861
USER: genes 4 Torsion [CA]-CB--CG-[CD] |==|  0.70353
USER: genes 5 Torsion [CB]-CG--CD-[OE2] |==|  0.87062
USER: genes 6 Torsion [N]-CA--C-[N] |==|  0.41958
USER: genes 7 Torsion [C]-N--CA-[CB] |==|  0.86055
USER: genes 8 Torsion [N]-CA--CB-[CG2] |==|  0.45463
USER: genes 9 Torsion [CA]-CB--OG1-[HG1] |==|  0.30198
USER: genes 10 Torsion [N]-CA--C-[N] |==|  0.35556
USER: genes 11 Torsion [C]-N--CA-[C] |==|  0.63953
USER: genes 12 Torsion [N]-CA--C-[N] |==|  0.91945
USER: genes 13 Torsion [C]-N--CA-[CB] |==|  0.30501
USER: genes 14 Torsion [N]-CA--CB-[CG2] |==|  0.12282
USER: genes 15 Torsion [N]-CA--C-[OXT] |==|  0.13908
USER: genes 16 Torsion [N]-CA--CB-[CG] |==|  0.20838
USER: genes 17 Torsion [CA]-CB--CG-[CD] |==|  0.34451
USER: genes 18 Torsion [CB]-CG--CD-[OE1] |==|  0.98311
USER: genes 19 Torsion [N]-C--CA-[N] |==|  0.15593
USER: genes 20 Torsion [C]-CA--CB-[CG] |==|  0.25155
USER: genes 21 Torsion [CA]-CB--CG-[CD] |==|  0.00206
USER: genes 22 Torsion [CB]-CG--CD-[NE] |==|  0.57027
USER: genes 23 Torsion [CG]-CD--NE-[HE] |==|  0.21477
USER: genes 24 Torsion [C]-CA--N-[C] |==|  0.77148
USER: genes 25 Torsion [N]-C--CA-[N] |==|  0.88624
USER: genes 26 Torsion [C]-CA--N-[H2] |==|  0.51248
USER: genes 27 Torsion [C]-CA--CB-[CG] |==|  0.71569
USER: genes 28 Torsion [CA]-CB--CG-[CD] |==|  0.60451
USER: genes 29 Torsion [CB]-CG--CD-[NE] |==|  0.54471
USER: genes 30 Torsion [CG]-CD--NE-[CZ] |==|  0.46179
ROOT
ATOM      1  C   ARG C   2      27.533  20.814  23.531  1.00 17.64 LIG 0.24  C 
ATOM      2 O    ARG C   2      26.886  21.045  22.504  1.00 18.48 LIG-0.27  OA
ATOM      3  N   GLU C   3      28.796  20.403  23.503  1.00 16.82 LIG-0.35  N 
ATOM      4 H    GLU C   3      29.268  20.240  24.203  1.00 16.82 LIG 0.16  HD
ENDROOT
BRANCH 3 5
ATOM      5  CA  GLU C   3      29.493  20.194  22.237  1.00 17.00 LIG 0.18  C 
BRANCH 5 6
ATOM      6  CB  GLU C   3      29.971  21.534  21.658  1.00 16.91 LIG 0.04  C 
BRANCH 6 7
ATOM      7  CG  GLU C   3      31.364  21.457  21.033  1.00 19.77 LIG 0.12  C 
BRANCH 7 8
ATOM      8  CD  GLU C   3      32.429  22.133  21.877  1.00 23.53 LIG 0.17  C 
ATOM      9 OE2  GLU C   3      32.194  23.267  22.338  1.00 22.35 LIG-0.65  OA
ATOM     10 OE1  GLU C   3      33.499  21.529  22.074  1.00 28.80 LIG-0.65  OA
ENDBRANCH 7 8
ENDBRANCH 6 7
ENDBRANCH 5 6
BRANCH 5 11
ATOM     11  C   GLU C   3      30.682  19.278  22.488  1.00 16.25 LIG 0.24  C 
ATOM     12  N   THR C   4      31.080  18.504  21.475  1.00 14.90 LIG-0.34  N 
ATOM     13 H    THR C   4      30.733  18.526  20.688  1.00 14.90 LIG 0.16  HD
ATOM     14 O    GLU C   3      31.224  19.273  23.595  1.00 19.18 LIG-0.27  OA
BRANCH 12 15
ATOM     15  CA  THR C   4      32.162  17.539  21.629  1.00 14.85 LIG 0.20  C 
BRANCH 15 16
ATOM     16  CB  THR C   4      33.389  18.201  22.262  1.00 16.75 LIG 0.15  C 
ATOM     17  CG2 THR C   4      34.356  17.148  22.791  1.00 16.70 LIG 0.04  C 
BRANCH 16 18
ATOM     18 OG1  THR C   4      34.039  19.016  21.281  1.00 17.36 LIG-0.39  OA
ATOM     19 HG1  THR C   4      33.919  19.826  21.466  1.00 17.36 LIG 0.21  HD
ENDBRANCH 16 18
ENDBRANCH 15 16
BRANCH 15 20
ATOM     20  C   THR C   4      31.712  16.378  22.503  1.00 14.69 LIG 0.24  C 
ATOM     21  N   GLN C   5      31.896  15.155  22.010  1.00 15.36 LIG-0.35  N 
ATOM     22 H    GLN C   5      32.136  14.994  21.201  1.00 15.36 LIG 0.16  HD
ATOM     23 O    THR C   4      31.214  16.590  23.614  1.00 15.54 LIG-0.27  OA
BRANCH 21 24
ATOM     24  CA  GLN C   5      31.699  13.968  22.829  1.00 16.48 LIG 0.18  C 
BRANCH 24 25
ATOM     25  C   GLN C   5      32.910  13.056  22.711  1.00 17.30 LIG 0.24  C 
ATOM     26 O    GLN C   5      33.250  12.335  23.658  1.00 19.53 LIG-0.27  OA
ATOM     27  N   VAL C   6      33.581  13.113  21.564  1.00 16.49 LIG-0.34  N 
ATOM     28 H    VAL C   6      33.350  13.607  20.899  1.00 16.49 LIG 0.16  HD
BRANCH 27 29
ATOM     29  CA  VAL C   6      34.791  12.327  21.335  1.00 18.07 LIG 0.19  C 
BRANCH 29 30
ATOM     30  CB  VAL C   6      34.552  11.199  20.312  1.00 20.19 LIG 0.01  C 
ATOM     31  CG1 VAL C   6      33.840  10.025  20.956  1.00 23.48 LIG 0.01  C 
ATOM     32  CG2 VAL C   6      33.755  11.718  19.122  1.00 21.65 LIG 0.01  C 
ENDBRANCH 29 30
BRANCH 29 33
ATOM     33  C   VAL C   6      35.949  13.207  20.885  1.00 18.86 LIG 0.20  C 
ATOM     34 O    VAL C   6      36.634  12.906  19.888  1.00 20.67 LIG-0.65  OA
ATOM     35 OXT  VAL C   6      36.229  14.232  21.530  1.00 19.38 LIG-0.65  OA
ENDBRANCH 29 33
ENDBRANCH 27 29
ENDBRANCH 24 25
BRANCH 24 36
ATOM     36  CB  GLN C   5      30.460  13.208  22.356  1.00 21.66 LIG 0.04  C 
BRANCH 36 37
ATOM     37  CG  GLN C   5      30.636  12.428  21.065  1.00 28.10 LIG 0.10  C 
BRANCH 37 38
ATOM     38  CD  GLN C   5      30.296  10.953  21.225  1.00 33.44 LIG 0.21  C 
ATOM     39  NE2 GLN C   5      30.299  10.219  20.118  1.00 35.38 LIG-0.37  N 
ATOM     40 21HE GLN C   5      30.488  10.583  19.361  1.00 35.38 LIG 0.16  HD
ATOM     41 22HE GLN C   5      30.112   9.381  20.157  1.00 35.38 LIG 0.16  HD
ATOM     42 OE1  GLN C   5      30.031  10.483  22.333  1.00 34.39 LIG-0.27  OA
ENDBRANCH 37 38
ENDBRANCH 36 37
ENDBRANCH 24 36
ENDBRANCH 21 24
ENDBRANCH 15 20
ENDBRANCH 12 15
ENDBRANCH 5 11
ENDBRANCH 3 5
BRANCH 1 43
ATOM     43  CA  ARG C   2      26.888  20.959  24.906  1.00 18.81 LIG 0.18  C 
BRANCH 43 44
ATOM     44  CB  ARG C   2      25.471  21.504  24.754  1.00 19.04 LIG 0.04  C 
BRANCH 44 45
ATOM     45  CG  ARG C   2      24.434  20.410  24.615  1.00 18.27 LIG 0.02  C 
BRANCH 45 46
ATOM     46  CD  ARG C   2      25.093  19.047  24.685  1.00 20.59 LIG 0.14  C 
BRANCH 46 47
ATOM     47  NE  ARG C   2      24.294  18.042  23.991  1.00 21.96 LIG-0.23  N 
ATOM     48 HE   ARG C   2      24.326  18.027  23.131  1.00 21.96 LIG 0.18  HD
ATOM     49  CZ  ARG C   2      23.519  17.150  24.600  1.00 22.93 LIG 0.67  C 
ATOM     50  NH2 ARG C   2      22.832  16.272  23.885  1.00 24.61 LIG-0.23  N 
ATOM     51  NH1 ARG C   2      23.430  17.138  25.922  1.00 22.65 LIG-0.23  N 
ATOM     52 1HH2 ARG C   2      22.888  16.279  23.027  1.00 24.61 LIG 0.17  HD
ATOM     53 2HH2 ARG C   2      22.331  15.695  24.279  1.00 24.61 LIG 0.17  HD
ATOM     54 1HH1 ARG C   2      23.875  17.709  26.388  1.00 22.65 LIG 0.17  HD
ATOM     55 2HH1 ARG C   2      22.929  16.560  26.315  1.00 22.65 LIG 0.17  HD
ENDBRANCH 46 47
ENDBRANCH 45 46
ENDBRANCH 44 45
ENDBRANCH 43 44
BRANCH 43 56
ATOM     56  N   ARG C   2      27.679  21.859  25.737  1.00 21.07 LIG-0.35  N 
ATOM     57  C   ARG C   1      28.754  21.419  26.387  1.00 27.96 LIG 0.25  C 
ATOM     58 O    ARG C   1      29.114  20.243  26.367  1.00 30.47 LIG-0.27  OA
ATOM     59 H    ARG C   2      27.394  22.670  25.764  1.00 21.07 LIG 0.16  HD
BRANCH 57 60
ATOM     60  CA  ARG C   1      29.550  22.452  27.174  1.00 31.07 LIG 0.27  C 
BRANCH 60 61
ATOM     61  N   ARG C   1      29.665  23.704  26.427  1.00 32.37 LIG-0.07  N 
ATOM     62 H2   ARG C   1      30.187  24.270  26.875  1.00 32.37 LIG 0.28  HD
ATOM     63 H1   ARG C   1      28.857  24.064  26.324  1.00 32.37 LIG 0.28  HD
ATOM     64 H3   ARG C   1      30.021  23.542  25.628  1.00 32.37 LIG 0.28  HD
ENDBRANCH 60 61
BRANCH 60 65
ATOM     65  CB  ARG C   1      28.879  22.679  28.529  1.00 35.21 LIG 0.04  C 
BRANCH 65 66
ATOM     66  CG  ARG C   1      28.065  23.968  28.591  1.00 38.18 LIG 0.02  C 
BRANCH 66 67
ATOM     67  CD  ARG C   1      28.176  24.655  29.943  1.00 40.83 LIG 0.14  C 
BRANCH 67 68
ATOM     68  NE  ARG C   1      27.130  25.655  30.133  1.00 41.61 LIG-0.23  N 
ATOM     69  CZ  ARG C   1      26.831  26.210  31.304  1.00 42.69 LIG 0.67  C 
ATOM     70  NH1 ARG C   1      27.498  25.861  32.398  1.00 43.45 LIG-0.23  N 
ATOM     71  NH2 ARG C   1      25.865  27.116  31.379  1.00 42.77 LIG-0.23  N 
ATOM     72 1HH1 ARG C   1      28.126  25.275  32.350  1.00 43.45 LIG 0.17  HD
ATOM     73 2HH1 ARG C   1      27.303  26.221  33.154  1.00 43.45 LIG 0.17  HD
ATOM     74 1HH2 ARG C   1      25.433  27.344  30.671  1.00 42.77 LIG 0.17  HD
ATOM     75 2HH2 ARG C   1      25.671  27.476  32.136  1.00 42.77 LIG 0.17  HD
ATOM     76 HE   ARG C   1      26.678  25.900  29.444  1.00 41.61 LIG 0.18  HD
ENDBRANCH 67 68
ENDBRANCH 66 67
ENDBRANCH 65 66
ENDBRANCH 60 65
ENDBRANCH 57 60
ENDBRANCH 43 56
ENDBRANCH 1 43
TORSDOF 29
ENDMDL
MODEL 45
USER: ADFR SOLUTION from run 124
USER: SCORE 20.102921 LL:  -6.643 LR: -15.104 RR:   0.000 FEB:  -6.454
USER: RMSD 9.619113
USER: SEED 123
USER: STATUS searching
USER: GENES 31
USER: genes 0 Translation |==|  0.69329 0.57571 0.50664
USER: genes 1 Rotation |==|  0.07166 0.33018 0.50312 0.69410
USER: genes 2 Torsion [C]-N--CA-[CB] |==|  0.87746
USER: genes 3 Torsion [N]-CA--CB-[CG] |==|  0.61102
USER: genes 4 Torsion [CA]-CB--CG-[CD] |==|  0.95653
USER: genes 5 Torsion [CB]-CG--CD-[OE2] |==|  0.32066
USER: genes 6 Torsion [N]-CA--C-[N] |==|  0.80556
USER: genes 7 Torsion [C]-N--CA-[CB] |==|  0.21355
USER: genes 8 Torsion [N]-CA--CB-[CG2] |==|  0.51397
USER: genes 9 Torsion [CA]-CB--OG1-[HG1] |==|  0.13914
USER: genes 10 Torsion [N]-CA--C-[N] |==|  0.85386
USER: genes 11 Torsion [C]-N--CA-[C] |==|  0.78341
USER: genes 12 Torsion [N]-CA--C-[N] |==|  0.47692
USER: genes 13 Torsion [C]-N--CA-[CB] |==|  0.50808
USER: genes 14 Torsion [N]-CA--CB-[CG2] |==|  0.85200
USER: genes 15 Torsion [N]-CA--C-[OXT] |==|  0.86430
USER: genes 16 Torsion [N]-CA--CB-[CG] |==|  0.72156
USER: genes 17 Torsion [CA]-CB--CG-[CD] |==|  0.83796
USER: genes 18 Torsion [CB]-CG--CD-[OE1] |==|  0.89467
USER: genes 19 Torsion [N]-C--CA-[N] |==|  0.90641
USER: genes 20 Torsion [C]-CA--CB-[CG] |==|  0.01812
USER: genes 21 Torsion [CA]-CB--CG-[CD] |==|  0.37049
USER: genes 22 Torsion [CB]-CG--CD-[NE] |==|  0.92204
USER: genes 23 Torsion [CG]-CD--NE-[HE] |==|  0.78976
USER: genes 24 Torsion [C]-CA--N-[C] |==|  0.77540
USER: genes 25 Torsion [N]-C--CA-[N] |==|  0.19938
USER: genes 26 Torsion [C]-CA--N-[H2] |==|  0.51559
USER: genes 27 Torsion [C]-CA--CB-[CG] |==|  0.42771
USER: genes 28 Torsion [CA]-CB--CG-[CD] |==|  0.23669
USER: genes 29 Torsion [CB]-CG--CD-[NE] |==|  0.67220
USER: genes 30 Torsion [CG]-CD--NE-[CZ] |==|  0.78778
ROOT
ATOM      1  C   ARG C   2      29.674  21.345  25.866  1.00 17.64 LIG 0.24  C 
ATOM      2 O    ARG C   2      30.289  20.275  25.832  1.00 18.48 LIG-0.27  OA
ATOM      3  N   GLU C   3      30.255  22.512  25.613  1.00 16.82 LIG-0.35  N 
ATOM      4 H    GLU C   3      29.847  23.270  25.627  1.00 16.82 LIG 0.16  HD
ENDROOT
BRANCH 3 5
ATOM      5  CA  GLU C   3      31.674  22.592  25.283  1.00 17.00 LIG 0.18  C 
BRANCH 5 6
ATOM      6  CB  GLU C   3      32.497  21.696  26.222  1.00 16.91 LIG 0.04  C 
BRANCH 6 7
ATOM      7  CG  GLU C   3      33.817  22.333  26.658  1.00 19.77 LIG 0.12  C 
BRANCH 7 8
ATOM      8  CD  GLU C   3      34.214  23.519  25.798  1.00 23.53 LIG 0.17  C 
ATOM      9 OE2  GLU C   3      34.266  24.647  26.325  1.00 22.35 LIG-0.65  OA
ATOM     10 OE1  GLU C   3      34.470  23.320  24.596  1.00 28.80 LIG-0.65  OA
ENDBRANCH 7 8
ENDBRANCH 6 7
ENDBRANCH 5 6
BRANCH 5 11
ATOM     11  C   GLU C   3      31.859  22.147  23.840  1.00 16.25 LIG 0.24  C 
ATOM     12  N   THR C   4      31.672  20.851  23.571  1.00 14.90 LIG-0.34  N 
ATOM     13 H    THR C   4      31.416  20.273  24.154  1.00 14.90 LIG 0.16  HD
ATOM     14 O    GLU C   3      32.176  22.974  22.982  1.00 19.18 LIG-0.27  OA
BRANCH 12 15
ATOM     15  CA  THR C   4      31.893  20.306  22.238  1.00 14.85 LIG 0.20  C 
BRANCH 15 16
ATOM     16  CB  THR C   4      33.390  20.140  21.965  1.00 16.75 LIG 0.15  C 
ATOM     17  CG2 THR C   4      33.629  19.688  20.529  1.00 16.70 LIG 0.04  C 
BRANCH 16 18
ATOM     18 OG1  THR C   4      34.050  21.388  22.202  1.00 17.36 LIG-0.39  OA
ATOM     19 HG1  THR C   4      33.822  21.687  22.953  1.00 17.36 LIG 0.21  HD
ENDBRANCH 16 18
ENDBRANCH 15 16
BRANCH 15 20
ATOM     20  C   THR C   4      31.206  18.955  22.100  1.00 14.69 LIG 0.24  C 
ATOM     21  N   GLN C   5      31.485  18.048  23.033  1.00 15.36 LIG-0.35  N 
ATOM     22 H    GLN C   5      32.104  18.138  23.623  1.00 15.36 LIG 0.16  HD
ATOM     23 O    THR C   4      30.427  18.744  21.165  1.00 15.54 LIG-0.27  OA
BRANCH 21 24
ATOM     24  CA  GLN C   5      30.740  16.801  23.127  1.00 16.48 LIG 0.18  C 
BRANCH 24 25
ATOM     25  C   GLN C   5      29.397  17.055  23.794  1.00 17.30 LIG 0.24  C 
ATOM     26 O    GLN C   5      29.156  18.144  24.329  1.00 19.53 LIG-0.27  OA
ATOM     27  N   VAL C   6      28.538  16.040  23.793  1.00 16.49 LIG-0.34  N 
ATOM     28 H    VAL C   6      28.694  15.281  23.420  1.00 16.49 LIG 0.16  HD
BRANCH 27 29
ATOM     29  CA  VAL C   6      27.231  16.131  24.441  1.00 18.07 LIG 0.19  C 
BRANCH 29 30
ATOM     30  CB  VAL C   6      26.461  14.799  24.359  1.00 20.19 LIG 0.01  C 
ATOM     31  CG1 VAL C   6      25.072  14.939  24.951  1.00 23.48 LIG 0.01  C 
ATOM     32  CG2 VAL C   6      26.378  14.318  22.916  1.00 21.65 LIG 0.01  C 
ENDBRANCH 29 30
BRANCH 29 33
ATOM     33  C   VAL C   6      27.360  16.574  25.892  1.00 18.86 LIG 0.20  C 
ATOM     34 O    VAL C   6      26.668  17.508  26.341  1.00 20.67 LIG-0.65  OA
ATOM     35 OXT  VAL C   6      28.179  16.009  26.637  1.00 19.38 LIG-0.65  OA
ENDBRANCH 29 33
ENDBRANCH 27 29
ENDBRANCH 24 25
BRANCH 24 36
ATOM     36  CB  GLN C   5      31.523  15.788  23.962  1.00 21.66 LIG 0.04  C 
BRANCH 36 37
ATOM     37  CG  GLN C   5      32.287  14.747  23.164  1.00 28.10 LIG 0.10  C 
BRANCH 37 38
ATOM     38  CD  GLN C   5      31.380  13.931  22.252  1.00 33.44 LIG 0.21  C 
ATOM     39  NE2 GLN C   5      31.870  13.612  21.059  1.00 35.38 LIG-0.37  N 
ATOM     40 21HE GLN C   5      32.661  13.865  20.837  1.00 35.38 LIG 0.16  HD
ATOM     41 22HE GLN C   5      31.395  13.153  20.509  1.00 35.38 LIG 0.16  HD
ATOM     42 OE1  GLN C   5      30.254  13.594  22.620  1.00 34.39 LIG-0.27  OA
ENDBRANCH 37 38
ENDBRANCH 36 37
ENDBRANCH 24 36
ENDBRANCH 21 24
ENDBRANCH 15 20
ENDBRANCH 12 15
ENDBRANCH 5 11
ENDBRANCH 3 5
BRANCH 1 43
ATOM     43  CA  ARG C   2      28.195  21.381  26.243  1.00 18.81 LIG 0.18  C 
BRANCH 43 44
ATOM     44  CB  ARG C   2      27.342  21.336  24.979  1.00 19.04 LIG 0.04  C 
BRANCH 44 45
ATOM     45  CG  ARG C   2      28.163  21.112  23.726  1.00 18.27 LIG 0.02  C 
BRANCH 45 46
ATOM     46  CD  ARG C   2      27.526  20.043  22.862  1.00 20.59 LIG 0.14  C 
BRANCH 46 47
ATOM     47  NE  ARG C   2      26.763  19.099  23.673  1.00 21.96 LIG-0.23  N 
ATOM     48 HE   ARG C   2      27.202  18.515  24.128  1.00 21.96 LIG 0.18  HD
ATOM     49  CZ  ARG C   2      25.436  19.083  23.755  1.00 22.93 LIG 0.67  C 
ATOM     50  NH2 ARG C   2      24.831  18.190  24.522  1.00 24.61 LIG-0.23  N 
ATOM     51  NH1 ARG C   2      24.717  19.960  23.068  1.00 22.65 LIG-0.23  N 
ATOM     52 1HH2 ARG C   2      25.296  17.621  24.968  1.00 24.61 LIG 0.17  HD
ATOM     53 2HH2 ARG C   2      23.973  18.180  24.575  1.00 24.61 LIG 0.17  HD
ATOM     54 1HH1 ARG C   2      25.109  20.540  22.569  1.00 22.65 LIG 0.17  HD
ATOM     55 2HH1 ARG C   2      23.859  19.949  23.123  1.00 22.65 LIG 0.17  HD
ENDBRANCH 46 47
ENDBRANCH 45 46
ENDBRANCH 44 45
ENDBRANCH 43 44
BRANCH 43 56
ATOM     56  N   ARG C   2      27.901  22.593  26.998  1.00 21.07 LIG-0.35  N 
ATOM     57  C   ARG C   1      28.170  22.668  28.300  1.00 27.96 LIG 0.25  C 
ATOM     58 O    ARG C   1      28.628  21.726  28.945  1.00 30.47 LIG-0.27  OA
ATOM     59 H    ARG C   2      27.551  23.230  26.537  1.00 21.07 LIG 0.16  HD
BRANCH 57 60
ATOM     60  CA  ARG C   1      27.886  24.000  28.982  1.00 31.07 LIG 0.27  C 
BRANCH 60 61
ATOM     61  N   ARG C   1      26.448  24.224  29.117  1.00 32.37 LIG-0.07  N 
ATOM     62 H2   ARG C   1      26.303  25.040  29.443  1.00 32.37 LIG 0.28  HD
ATOM     63 H1   ARG C   1      26.103  23.618  29.671  1.00 32.37 LIG 0.28  HD
ATOM     64 H3   ARG C   1      26.060  24.150  28.319  1.00 32.37 LIG 0.28  HD
ENDBRANCH 60 61
BRANCH 60 65
ATOM     65  CB  ARG C   1      28.578  24.024  30.346  1.00 35.21 LIG 0.04  C 
BRANCH 65 66
ATOM     66  CG  ARG C   1      28.907  25.433  30.831  1.00 38.18 LIG 0.02  C 
BRANCH 66 67
ATOM     67  CD  ARG C   1      27.734  26.084  31.548  1.00 40.83 LIG 0.14  C 
BRANCH 67 68
ATOM     68  NE  ARG C   1      27.277  27.287  30.861  1.00 41.61 LIG-0.23  N 
ATOM     69  CZ  ARG C   1      27.905  28.458  30.906  1.00 42.69 LIG 0.67  C 
ATOM     70  NH1 ARG C   1      29.023  28.588  31.613  1.00 43.45 LIG-0.23  N 
ATOM     71  NH2 ARG C   1      27.416  29.498  30.244  1.00 42.77 LIG-0.23  N 
ATOM     72 1HH1 ARG C   1      29.341  27.915  32.041  1.00 43.45 LIG 0.17  HD
ATOM     73 2HH1 ARG C   1      29.427  29.347  31.641  1.00 43.45 LIG 0.17  HD
ATOM     74 1HH2 ARG C   1      26.693  29.415  29.785  1.00 42.77 LIG 0.17  HD
ATOM     75 2HH2 ARG C   1      27.822  30.256  30.273  1.00 42.77 LIG 0.17  HD
ATOM     76 HE   ARG C   1      26.555  27.236  30.397  1.00 41.61 LIG 0.18  HD
ENDBRANCH 67 68
ENDBRANCH 66 67
ENDBRANCH 65 66
ENDBRANCH 60 65
ENDBRANCH 57 60
ENDBRANCH 43 56
ENDBRANCH 1 43
TORSDOF 29
ENDMDL
