MODEL 1
USER: ADFR SOLUTION from run 120
USER: SCORE 22.779394 LL:  -3.397 LR: -22.407 RR:   0.000 FEB: -14.651
USER: RMSD 1.218943
USER: SEED 119
USER: STATUS no improvement in best in 4 clusters for 5 generations
USER: GENES 28
USER: genes 0 Translation |==|  0.44644 0.43312 0.55386
USER: genes 1 Rotation |==|  0.50177 0.49965 0.50520 0.99997
USER: genes 2 Torsion [N]-C--CA-[N] |==|  0.38161
USER: genes 3 Torsion [C]-CA--N-[C] |==|  0.70288
USER: genes 4 Torsion [N]-C--CA-[N] |==|  0.39394
USER: genes 5 Torsion [C]-CA--N-[C] |==|  0.80868
USER: genes 6 Torsion [N]-C--CA-[N] |==|  0.40627
USER: genes 7 Torsion [C]-CA--N-[H2] |==|  0.64878
USER: genes 8 Torsion [C]-CA--CB-[OG] |==|  0.54505
USER: genes 9 Torsion [CA]-CB--OG-[HG] |==|  0.06648
USER: genes 10 Torsion [C]-CA--CB-[CG] |==|  0.22013
USER: genes 11 Torsion [CA]-CB--CG-[OD2] |==|  0.26166
USER: genes 12 Torsion [C]-CA--CB-[CG] |==|  0.47457
USER: genes 13 Torsion [CA]-CB--CG-[CD] |==|  0.67835
USER: genes 14 Torsion [CB]-CG--CD-[OE2] |==|  0.32303
USER: genes 15 Torsion [C]-N--CA-[CB] |==|  0.43358
USER: genes 16 Torsion [N]-CA--CB-[OG] |==|  0.06804
USER: genes 17 Torsion [CA]-CB--OG-[HG] |==|  0.95856
USER: genes 18 Torsion [N]-CA--C-[N] |==|  0.38109
USER: genes 19 Torsion [C]-N--CA-[CB] |==|  0.42851
USER: genes 20 Torsion [N]-CA--C-[N] |==|  0.33216
USER: genes 21 Torsion [C]-N--CA-[C] |==|  0.70149
USER: genes 22 Torsion [N]-CA--C-[O] |==|  0.00089
USER: genes 23 Torsion [N]-CA--CB-[CG] |==|  0.62967
USER: genes 24 Torsion [CA]-CB--CG-[CD] |==|  0.66898
USER: genes 25 Torsion [CB]-CG--CD-[CE] |==|  0.30031
USER: genes 26 Torsion [CG]-CD--CE-[NZ] |==|  0.24645
USER: genes 27 Torsion [CD]-CE--NZ-[HZ2] |==|  0.00495
ROOT
ATOM      1  C   GLU C   3      43.860  30.738  21.497  1.00 22.71 LIG 0.24  C 
ATOM      2 O    GLU C   3      43.381  31.693  22.109  1.00 20.88 LIG-0.27  OA
ATOM      3  N   SER C   4      45.112  30.318  21.658  1.00 24.79 LIG-0.34  N 
ATOM      4 H    SER C   4      45.428  29.606  21.294  1.00 24.79 LIG 0.16  HD
ENDROOT
BRANCH 1 5
ATOM      5  CA  GLU C   3      43.027  29.994  20.472  1.00 22.43 LIG 0.18  C 
BRANCH 5 6
ATOM      6  N   GLU C   3      41.679  29.747  20.970  1.00 20.46 LIG-0.35  N 
ATOM      7  C   ASP C   2      41.236  28.556  21.356  1.00 20.25 LIG 0.24  C 
ATOM      8 O    ASP C   2      41.947  27.555  21.443  1.00 19.04 LIG-0.27  OA
ATOM      9 H    GLU C   3      41.190  30.454  20.990  1.00 20.46 LIG 0.16  HD
BRANCH 7 10
ATOM     10  CA  ASP C   2      39.755  28.498  21.739  1.00 20.64 LIG 0.19  C 
BRANCH 10 11
ATOM     11  N   ASP C   2      39.127  27.251  21.295  1.00 19.34 LIG-0.34  N 
ATOM     12  C   SER C   1      38.924  26.978  20.006  1.00 18.84 LIG 0.25  C 
ATOM     13 O    SER C   1      39.113  27.788  19.108  1.00 16.35 LIG-0.27  OA
ATOM     14 H    ASP C   2      38.907  26.720  21.935  1.00 19.34 LIG 0.16  HD
BRANCH 12 15
ATOM     15  CA  SER C   1      38.431  25.567  19.678  1.00 19.55 LIG 0.30  C 
BRANCH 15 16
ATOM     16  N   SER C   1      37.518  25.573  18.507  1.00 19.33 LIG-0.06  N 
ATOM     17 H1   SER C   1      37.900  25.141  17.830  1.00 19.33 LIG 0.28  HD
ATOM     18 H2   SER C   1      36.755  25.168  18.724  1.00 19.33 LIG 0.28  HD
ATOM     19 H3   SER C   1      37.349  26.413  18.266  1.00 19.33 LIG 0.28  HD
ENDBRANCH 15 16
BRANCH 15 20
ATOM     20  CB  SER C   1      39.627  24.656  19.395  1.00 20.63 LIG 0.21  C 
BRANCH 20 21
ATOM     21 OG   SER C   1      39.214  23.470  18.738  1.00 22.73 LIG-0.40  OA
ATOM     22 HG   SER C   1      38.488  23.610  18.339  1.00 22.73 LIG 0.21  HD
ENDBRANCH 20 21
ENDBRANCH 15 20
ENDBRANCH 12 15
ENDBRANCH 10 11
BRANCH 10 23
ATOM     23  CB  ASP C   2      39.644  28.676  23.256  1.00 22.15 LIG 0.15  C 
BRANCH 23 24
ATOM     24  CG  ASP C   2      39.763  30.110  23.684  1.00 25.02 LIG 0.17  C 
ATOM     25 OD2  ASP C   2      38.705  30.769  23.835  1.00 28.35 LIG-0.65  OA
ATOM     26 OD1  ASP C   2      40.914  30.560  23.916  1.00 26.75 LIG-0.65  OA
ENDBRANCH 23 24
ENDBRANCH 10 23
ENDBRANCH 7 10
ENDBRANCH 5 6
BRANCH 5 27
ATOM     27  CB  GLU C   3      42.966  30.878  19.224  1.00 23.87 LIG 0.04  C 
BRANCH 27 28
ATOM     28  CG  GLU C   3      42.363  30.241  17.988  1.00 26.88 LIG 0.12  C 
BRANCH 28 29
ATOM     29  CD  GLU C   3      43.360  30.103  16.862  1.00 28.35 LIG 0.17  C 
ATOM     30 OE2  GLU C   3      43.657  28.958  16.484  1.00 30.85 LIG-0.65  OA
ATOM     31 OE1  GLU C   3      43.858  31.134  16.368  1.00 32.46 LIG-0.65  OA
ENDBRANCH 28 29
ENDBRANCH 27 28
ENDBRANCH 5 27
ENDBRANCH 1 5
BRANCH 3 32
ATOM     32  CA  SER C   4      46.067  31.041  22.481  1.00 26.83 LIG 0.20  C 
BRANCH 32 33
ATOM     33  CB  SER C   4      47.185  30.127  22.987  1.00 27.54 LIG 0.20  C 
BRANCH 33 34
ATOM     34 OG   SER C   4      47.360  29.004  22.140  1.00 29.42 LIG-0.40  OA
ATOM     35 HG   SER C   4      46.695  28.930  21.632  1.00 29.42 LIG 0.21  HD
ENDBRANCH 33 34
ENDBRANCH 32 33
BRANCH 32 36
ATOM     36  C   SER C   4      46.662  32.160  21.654  1.00 29.03 LIG 0.24  C 
ATOM     37 O    SER C   4      47.004  31.979  20.483  1.00 28.27 LIG-0.27  OA
ATOM     38  N   LYS C   5      46.785  33.319  22.276  1.00 32.23 LIG-0.35  N 
ATOM     39 H    LYS C   5      46.449  33.489  23.048  1.00 32.23 LIG 0.16  HD
BRANCH 38 40
ATOM     40  CA  LYS C   5      47.513  34.415  21.690  1.00 36.96 LIG 0.18  C 
BRANCH 40 41
ATOM     41  C   LYS C   5      48.983  34.204  22.026  1.00 40.14 LIG 0.24  C 
ATOM     42 O    LYS C   5      49.357  34.143  23.208  1.00 43.61 LIG-0.27  OA
ATOM     43  N   GLY C   6      49.803  34.069  20.986  1.00 41.15 LIG-0.35  N 
ATOM     44 H    GLY C   6      49.536  34.012  20.171  1.00 41.15 LIG 0.16  HD
BRANCH 43 45
ATOM     45  CA  GLY C   6      51.252  34.007  21.147  1.00 42.92 LIG 0.21  C 
BRANCH 45 46
ATOM     46  C   GLY C   6      51.901  35.290  20.667  1.00 41.89 LIG 0.21  C 
ATOM     47 O    GLY C   6      51.217  36.205  20.224  1.00 45.47 LIG-0.29  OA
ENDBRANCH 45 46
ENDBRANCH 43 45
ENDBRANCH 40 41
BRANCH 40 48
ATOM     48  CB  LYS C   5      47.010  35.755  22.229  1.00 37.76 LIG 0.04  C 
BRANCH 48 49
ATOM     49  CG  LYS C   5      46.776  36.778  21.135  1.00 39.35 LIG 0.00  C 
BRANCH 49 50
ATOM     50  CD  LYS C   5      47.633  38.013  21.286  1.00 40.12 LIG 0.03  C 
BRANCH 50 51
ATOM     51  CE  LYS C   5      48.706  38.007  20.214  1.00 40.78 LIG 0.23  C 
BRANCH 51 52
ATOM     52  NZ  LYS C   5      48.226  38.668  18.980  1.00 41.17 LIG-0.08  N 
ATOM     53 HZ3  LYS C   5      48.763  39.349  18.780  1.00 41.17 LIG 0.27  HD
ATOM     54 HZ2  LYS C   5      47.399  38.971  19.108  1.00 41.17 LIG 0.27  HD
ATOM     55 HZ1  LYS C   5      48.226  38.083  18.310  1.00 41.17 LIG 0.27  HD
ENDBRANCH 51 52
ENDBRANCH 50 51
ENDBRANCH 49 50
ENDBRANCH 48 49
ENDBRANCH 40 48
ENDBRANCH 38 40
ENDBRANCH 32 36
ENDBRANCH 3 32
TORSDOF 26
ENDMDL
MODEL 2
USER: ADFR SOLUTION from run 137
USER: SCORE 21.231709 LL:  -3.003 LR: -21.555 RR:   0.000 FEB: -13.799
USER: RMSD 4.116754
USER: SEED 136
USER: STATUS 1 or 2 clusters left
USER: GENES 28
USER: genes 0 Translation |==|  0.44827 0.41761 0.55499
USER: genes 1 Rotation |==|  0.87091 0.66068 0.69758 0.71810
USER: genes 2 Torsion [N]-C--CA-[N] |==|  0.31291
USER: genes 3 Torsion [C]-CA--N-[C] |==|  0.19939
USER: genes 4 Torsion [N]-C--CA-[N] |==|  0.61890
USER: genes 5 Torsion [C]-CA--N-[C] |==|  0.15745
USER: genes 6 Torsion [N]-C--CA-[N] |==|  0.58082
USER: genes 7 Torsion [C]-CA--N-[H2] |==|  0.99584
USER: genes 8 Torsion [C]-CA--CB-[OG] |==|  0.67427
USER: genes 9 Torsion [CA]-CB--OG-[HG] |==|  0.82846
USER: genes 10 Torsion [C]-CA--CB-[CG] |==|  0.23616
USER: genes 11 Torsion [CA]-CB--CG-[OD2] |==|  0.71501
USER: genes 12 Torsion [C]-CA--CB-[CG] |==|  0.17246
USER: genes 13 Torsion [CA]-CB--CG-[CD] |==|  0.13176
USER: genes 14 Torsion [CB]-CG--CD-[OE2] |==|  0.80549
USER: genes 15 Torsion [C]-N--CA-[CB] |==|  0.17963
USER: genes 16 Torsion [N]-CA--CB-[OG] |==|  0.13521
USER: genes 17 Torsion [CA]-CB--OG-[HG] |==|  0.70511
USER: genes 18 Torsion [N]-CA--C-[N] |==|  0.67884
USER: genes 19 Torsion [C]-N--CA-[CB] |==|  0.20659
USER: genes 20 Torsion [N]-CA--C-[N] |==|  0.42222
USER: genes 21 Torsion [C]-N--CA-[C] |==|  0.14671
USER: genes 22 Torsion [N]-CA--C-[O] |==|  0.22443
USER: genes 23 Torsion [N]-CA--CB-[CG] |==|  0.47601
USER: genes 24 Torsion [CA]-CB--CG-[CD] |==|  0.17898
USER: genes 25 Torsion [CB]-CG--CD-[CE] |==|  0.56899
USER: genes 26 Torsion [CG]-CD--CE-[NZ] |==|  0.35144
USER: genes 27 Torsion [CD]-CE--NZ-[HZ2] |==|  0.42288
ROOT
ATOM      1  C   GLU C   3      43.907  30.377  21.515  1.00 22.71 LIG 0.24  C 
ATOM      2 O    GLU C   3      44.340  29.363  22.062  1.00 20.88 LIG-0.27  OA
ATOM      3  N   SER C   4      44.588  31.518  21.444  1.00 24.79 LIG-0.34  N 
ATOM      4 H    SER C   4      44.325  32.205  20.997  1.00 24.79 LIG 0.16  HD
ENDROOT
BRANCH 1 5
ATOM      5  CA  GLU C   3      42.519  30.382  20.907  1.00 22.43 LIG 0.18  C 
BRANCH 5 6
ATOM      6  N   GLU C   3      42.458  29.526  19.728  1.00 20.46 LIG-0.35  N 
ATOM      7  C   ASP C   2      42.492  28.199  19.771  1.00 20.25 LIG 0.24  C 
ATOM      8 O    ASP C   2      42.464  27.546  20.815  1.00 19.04 LIG-0.27  OA
ATOM      9 H    GLU C   3      42.398  29.965  18.992  1.00 20.46 LIG 0.16  HD
BRANCH 7 10
ATOM     10  CA  ASP C   2      42.529  27.498  18.411  1.00 20.64 LIG 0.19  C 
BRANCH 10 11
ATOM     11  N   ASP C   2      41.635  26.338  18.374  1.00 19.34 LIG-0.34  N 
ATOM     12  C   SER C   1      40.332  26.437  18.639  1.00 18.84 LIG 0.25  C 
ATOM     13 O    SER C   1      39.807  27.458  19.062  1.00 16.35 LIG-0.27  OA
ATOM     14 H    ASP C   2      42.025  25.599  18.168  1.00 19.34 LIG 0.16  HD
BRANCH 12 15
ATOM     15  CA  SER C   1      39.487  25.187  18.384  1.00 19.55 LIG 0.30  C 
BRANCH 15 16
ATOM     16  N   SER C   1      38.090  25.543  18.032  1.00 19.33 LIG-0.06  N 
ATOM     17 H1   SER C   1      37.532  25.169  18.616  1.00 19.33 LIG 0.28  HD
ATOM     18 H2   SER C   1      37.993  26.428  18.055  1.00 19.33 LIG 0.28  HD
ATOM     19 H3   SER C   1      37.905  25.247  17.213  1.00 19.33 LIG 0.28  HD
ENDBRANCH 15 16
BRANCH 15 20
ATOM     20  CB  SER C   1      40.111  24.365  17.253  1.00 20.63 LIG 0.21  C 
BRANCH 20 21
ATOM     21 OG   SER C   1      39.230  24.279  16.147  1.00 22.73 LIG-0.40  OA
ATOM     22 HG   SER C   1      38.524  23.889  16.381  1.00 22.73 LIG 0.21  HD
ENDBRANCH 20 21
ENDBRANCH 15 20
ENDBRANCH 12 15
ENDBRANCH 10 11
BRANCH 10 23
ATOM     23  CB  ASP C   2      42.167  28.523  17.332  1.00 22.15 LIG 0.15  C 
BRANCH 23 24
ATOM     24  CG  ASP C   2      43.349  29.326  16.874  1.00 25.02 LIG 0.17  C 
ATOM     25 OD2  ASP C   2      43.468  30.499  17.308  1.00 28.35 LIG-0.65  OA
ATOM     26 OD1  ASP C   2      44.183  28.766  16.119  1.00 26.75 LIG-0.65  OA
ENDBRANCH 23 24
ENDBRANCH 10 23
ENDBRANCH 7 10
ENDBRANCH 5 6
BRANCH 5 27
ATOM     27  CB  GLU C   3      41.562  29.857  21.981  1.00 23.87 LIG 0.04  C 
BRANCH 27 28
ATOM     28  CG  GLU C   3      41.467  30.685  23.247  1.00 26.88 LIG 0.12  C 
BRANCH 28 29
ATOM     29  CD  GLU C   3      41.293  32.158  22.963  1.00 28.35 LIG 0.17  C 
ATOM     30 OE2  GLU C   3      42.257  32.776  22.483  1.00 30.85 LIG-0.65  OA
ATOM     31 OE1  GLU C   3      40.203  32.700  23.233  1.00 32.46 LIG-0.65  OA
ENDBRANCH 28 29
ENDBRANCH 27 28
ENDBRANCH 5 27
ENDBRANCH 1 5
BRANCH 3 32
ATOM     32  CA  SER C   4      45.856  31.702  22.130  1.00 26.83 LIG 0.20  C 
BRANCH 32 33
ATOM     33  CB  SER C   4      46.938  30.771  21.579  1.00 27.54 LIG 0.20  C 
BRANCH 33 34
ATOM     34 OG   SER C   4      46.989  30.816  20.163  1.00 29.42 LIG-0.40  OA
ATOM     35 HG   SER C   4      46.657  30.112  19.848  1.00 29.42 LIG 0.21  HD
ENDBRANCH 33 34
ENDBRANCH 32 33
BRANCH 32 36
ATOM     36  C   SER C   4      46.289  33.142  21.958  1.00 29.03 LIG 0.24  C 
ATOM     37 O    SER C   4      45.631  34.070  22.434  1.00 28.27 LIG-0.27  OA
ATOM     38  N   LYS C   5      47.402  33.320  21.269  1.00 32.23 LIG-0.35  N 
ATOM     39 H    LYS C   5      47.928  32.682  21.032  1.00 32.23 LIG 0.16  HD
BRANCH 38 40
ATOM     40  CA  LYS C   5      47.831  34.630  20.854  1.00 36.96 LIG 0.18  C 
BRANCH 40 41
ATOM     41  C   LYS C   5      48.891  34.432  19.779  1.00 40.14 LIG 0.24  C 
ATOM     42 O    LYS C   5      49.579  33.400  19.754  1.00 43.61 LIG-0.27  OA
ATOM     43  N   GLY C   6      48.999  35.411  18.882  1.00 41.15 LIG-0.35  N 
ATOM     44 H    GLY C   6      48.460  36.079  18.837  1.00 41.15 LIG 0.16  HD
BRANCH 43 45
ATOM     45  CA  GLY C   6      50.062  35.431  17.884  1.00 42.92 LIG 0.21  C 
BRANCH 45 46
ATOM     46  C   GLY C   6      50.104  34.123  17.118  1.00 41.89 LIG 0.21  C 
ATOM     47 O    GLY C   6      49.326  33.919  16.194  1.00 45.47 LIG-0.29  OA
ENDBRANCH 45 46
ENDBRANCH 43 45
ENDBRANCH 40 41
BRANCH 40 48
ATOM     48  CB  LYS C   5      48.386  35.424  22.037  1.00 37.76 LIG 0.04  C 
BRANCH 48 49
ATOM     49  CG  LYS C   5      49.040  36.725  21.617  1.00 39.35 LIG 0.00  C 
BRANCH 49 50
ATOM     50  CD  LYS C   5      48.066  37.703  20.999  1.00 40.12 LIG 0.03  C 
BRANCH 50 51
ATOM     51  CE  LYS C   5      48.825  38.648  20.086  1.00 40.78 LIG 0.23  C 
BRANCH 51 52
ATOM     52  NZ  LYS C   5      48.229  38.668  18.732  1.00 41.17 LIG-0.08  N 
ATOM     53 HZ3  LYS C   5      48.591  38.022  18.238  1.00 41.17 LIG 0.27  HD
ATOM     54 HZ2  LYS C   5      48.386  39.456  18.349  1.00 41.17 LIG 0.27  HD
ATOM     55 HZ1  LYS C   5      47.350  38.538  18.791  1.00 41.17 LIG 0.27  HD
ENDBRANCH 51 52
ENDBRANCH 50 51
ENDBRANCH 49 50
ENDBRANCH 48 49
ENDBRANCH 40 48
ENDBRANCH 38 40
ENDBRANCH 32 36
ENDBRANCH 3 32
TORSDOF 26
ENDMDL
MODEL 3
USER: ADFR SOLUTION from run 120
USER: SCORE 22.357870 LL:  -3.010 LR: -21.455 RR:   0.000 FEB: -13.699
USER: RMSD 3.416888
USER: SEED 119
USER: STATUS no improvement in best in 4 clusters for 5 generations
USER: GENES 28
USER: genes 0 Translation |==|  0.44509 0.42518 0.55616
USER: genes 1 Rotation |==|  0.54344 0.52511 0.53739 0.99607
USER: genes 2 Torsion [N]-C--CA-[N] |==|  0.42194
USER: genes 3 Torsion [C]-CA--N-[C] |==|  0.72127
USER: genes 4 Torsion [N]-C--CA-[N] |==|  0.38179
USER: genes 5 Torsion [C]-CA--N-[C] |==|  0.81916
USER: genes 6 Torsion [N]-C--CA-[N] |==|  0.41204
USER: genes 7 Torsion [C]-CA--N-[H2] |==|  0.64623
USER: genes 8 Torsion [C]-CA--CB-[OG] |==|  0.59867
USER: genes 9 Torsion [CA]-CB--OG-[HG] |==|  0.96193
USER: genes 10 Torsion [C]-CA--CB-[CG] |==|  0.22583
USER: genes 11 Torsion [CA]-CB--CG-[OD2] |==|  0.25546
USER: genes 12 Torsion [C]-CA--CB-[CG] |==|  0.47476
USER: genes 13 Torsion [CA]-CB--CG-[CD] |==|  0.67325
USER: genes 14 Torsion [CB]-CG--CD-[OE2] |==|  0.31360
USER: genes 15 Torsion [C]-N--CA-[CB] |==|  0.34243
USER: genes 16 Torsion [N]-CA--CB-[OG] |==|  0.04434
USER: genes 17 Torsion [CA]-CB--OG-[HG] |==|  0.10227
USER: genes 18 Torsion [N]-CA--C-[N] |==|  0.49437
USER: genes 19 Torsion [C]-N--CA-[CB] |==|  0.87186
USER: genes 20 Torsion [N]-CA--C-[N] |==|  0.33889
USER: genes 21 Torsion [C]-N--CA-[C] |==|  0.60023
USER: genes 22 Torsion [N]-CA--C-[O] |==|  0.98921
USER: genes 23 Torsion [N]-CA--CB-[CG] |==|  0.89718
USER: genes 24 Torsion [CA]-CB--CG-[CD] |==|  0.44827
USER: genes 25 Torsion [CB]-CG--CD-[CE] |==|  0.58803
USER: genes 26 Torsion [CG]-CD--CE-[NZ] |==|  0.70169
USER: genes 27 Torsion [CD]-CE--NZ-[HZ2] |==|  0.00495
ROOT
ATOM      1  C   GLU C   3      43.826  30.554  21.535  1.00 22.71 LIG 0.24  C 
ATOM      2 O    GLU C   3      43.308  31.325  22.342  1.00 20.88 LIG-0.27  OA
ATOM      3  N   SER C   4      45.129  30.289  21.507  1.00 24.79 LIG-0.34  N 
ATOM      4 H    SER C   4      45.485  29.693  20.998  1.00 24.79 LIG 0.16  HD
ENDROOT
BRANCH 1 5
ATOM      5  CA  GLU C   3      42.977  29.873  20.479  1.00 22.43 LIG 0.18  C 
BRANCH 5 6
ATOM      6  N   GLU C   3      41.612  29.674  20.949  1.00 20.46 LIG-0.35  N 
ATOM      7  C   ASP C   2      41.147  28.521  21.416  1.00 20.25 LIG 0.24  C 
ATOM      8 O    ASP C   2      41.848  27.527  21.609  1.00 19.04 LIG-0.27  OA
ATOM      9 H    GLU C   3      41.128  30.383  20.895  1.00 20.46 LIG 0.16  HD
BRANCH 7 10
ATOM     10  CA  ASP C   2      39.654  28.502  21.752  1.00 20.64 LIG 0.19  C 
BRANCH 10 11
ATOM     11  N   ASP C   2      39.011  27.266  21.299  1.00 19.34 LIG-0.34  N 
ATOM     12  C   SER C   1      38.907  26.953  20.007  1.00 18.84 LIG 0.25  C 
ATOM     13 O    SER C   1      39.210  27.719  19.101  1.00 16.35 LIG-0.27  OA
ATOM     14 H    ASP C   2      38.712  26.770  21.935  1.00 19.34 LIG 0.16  HD
BRANCH 12 15
ATOM     15  CA  SER C   1      38.381  25.553  19.685  1.00 19.55 LIG 0.30  C 
BRANCH 15 16
ATOM     16  N   SER C   1      37.615  25.543  18.413  1.00 19.33 LIG-0.06  N 
ATOM     17 H1   SER C   1      38.058  25.070  17.804  1.00 19.33 LIG 0.28  HD
ATOM     18 H2   SER C   1      36.816  25.175  18.551  1.00 19.33 LIG 0.28  HD
ATOM     19 H3   SER C   1      37.511  26.378  18.123  1.00 19.33 LIG 0.28  HD
ENDBRANCH 15 16
BRANCH 15 20
ATOM     20  CB  SER C   1      39.551  24.571  19.591  1.00 20.63 LIG 0.21  C 
BRANCH 20 21
ATOM     21 OG   SER C   1      39.312  23.596  18.591  1.00 22.73 LIG-0.40  OA
ATOM     22 HG   SER C   1      38.503  23.620  18.365  1.00 22.73 LIG 0.21  HD
ENDBRANCH 20 21
ENDBRANCH 15 20
ENDBRANCH 12 15
ENDBRANCH 10 11
BRANCH 10 23
ATOM     23  CB  ASP C   2      39.499  28.695  23.264  1.00 22.15 LIG 0.15  C 
BRANCH 23 24
ATOM     24  CG  ASP C   2      39.591  30.134  23.679  1.00 25.02 LIG 0.17  C 
ATOM     25 OD2  ASP C   2      38.526  30.795  23.752  1.00 28.35 LIG-0.65  OA
ATOM     26 OD1  ASP C   2      40.724  30.589  23.978  1.00 26.75 LIG-0.65  OA
ENDBRANCH 23 24
ENDBRANCH 10 23
ENDBRANCH 7 10
ENDBRANCH 5 6
BRANCH 5 27
ATOM     27  CB  GLU C   3      42.976  30.791  19.252  1.00 23.87 LIG 0.04  C 
BRANCH 27 28
ATOM     28  CG  GLU C   3      42.364  30.213  17.992  1.00 26.88 LIG 0.12  C 
BRANCH 28 29
ATOM     29  CD  GLU C   3      43.361  30.099  16.864  1.00 28.35 LIG 0.17  C 
ATOM     30 OE2  GLU C   3      43.686  28.962  16.486  1.00 30.85 LIG-0.65  OA
ATOM     31 OE1  GLU C   3      43.832  31.142  16.367  1.00 32.46 LIG-0.65  OA
ENDBRANCH 28 29
ENDBRANCH 27 28
ENDBRANCH 5 27
ENDBRANCH 1 5
BRANCH 3 32
ATOM     32  CA  SER C   4      46.077  30.997  22.350  1.00 26.83 LIG 0.20  C 
BRANCH 32 33
ATOM     33  CB  SER C   4      46.883  30.036  23.228  1.00 27.54 LIG 0.20  C 
BRANCH 33 34
ATOM     34 OG   SER C   4      46.781  28.701  22.762  1.00 29.42 LIG-0.40  OA
ATOM     35 HG   SER C   4      46.766  28.697  21.922  1.00 29.42 LIG 0.21  HD
ENDBRANCH 33 34
ENDBRANCH 32 33
BRANCH 32 36
ATOM     36  C   SER C   4      47.018  31.781  21.460  1.00 29.03 LIG 0.24  C 
ATOM     37 O    SER C   4      46.935  31.721  20.231  1.00 28.27 LIG-0.27  OA
ATOM     38  N   LYS C   5      47.916  32.514  22.093  1.00 32.23 LIG-0.35  N 
ATOM     39 H    LYS C   5      47.912  32.653  22.942  1.00 32.23 LIG 0.16  HD
BRANCH 38 40
ATOM     40  CA  LYS C   5      48.999  33.153  21.390  1.00 36.96 LIG 0.18  C 
BRANCH 40 41
ATOM     41  C   LYS C   5      48.409  34.354  20.663  1.00 40.14 LIG 0.24  C 
ATOM     42 O    LYS C   5      47.475  34.209  19.860  1.00 43.61 LIG-0.27  OA
ATOM     43  N   GLY C   6      48.943  35.536  20.966  1.00 41.15 LIG-0.35  N 
ATOM     44 H    GLY C   6      49.521  35.653  21.592  1.00 41.15 LIG 0.16  HD
BRANCH 43 45
ATOM     45  CA  GLY C   6      48.584  36.753  20.247  1.00 42.92 LIG 0.21  C 
BRANCH 45 46
ATOM     46  C   GLY C   6      49.788  37.663  20.099  1.00 41.89 LIG 0.21  C 
ATOM     47 O    GLY C   6      50.858  37.368  20.617  1.00 45.47 LIG-0.29  OA
ENDBRANCH 45 46
ENDBRANCH 43 45
ENDBRANCH 40 41
BRANCH 40 48
ATOM     48  CB  LYS C   5      49.660  32.183  20.410  1.00 37.76 LIG 0.04  C 
BRANCH 48 49
ATOM     49  CG  LYS C   5      49.735  30.767  20.945  1.00 39.35 LIG 0.00  C 
BRANCH 49 50
ATOM     50  CD  LYS C   5      49.959  29.737  19.862  1.00 40.12 LIG 0.03  C 
BRANCH 50 51
ATOM     51  CE  LYS C   5      49.277  28.441  20.261  1.00 40.78 LIG 0.23  C 
BRANCH 51 52
ATOM     52  NZ  LYS C   5      50.270  27.418  20.653  1.00 41.17 LIG-0.08  N 
ATOM     53 HZ3  LYS C   5      50.109  27.152  21.487  1.00 41.17 LIG 0.27  HD
ATOM     54 HZ2  LYS C   5      51.089  27.764  20.606  1.00 41.17 LIG 0.27  HD
ATOM     55 HZ1  LYS C   5      50.213  26.721  20.103  1.00 41.17 LIG 0.27  HD
ENDBRANCH 51 52
ENDBRANCH 50 51
ENDBRANCH 49 50
ENDBRANCH 48 49
ENDBRANCH 40 48
ENDBRANCH 38 40
ENDBRANCH 32 36
ENDBRANCH 3 32
TORSDOF 26
ENDMDL
MODEL 4
USER: ADFR SOLUTION from run 120
USER: SCORE 22.223117 LL:  -2.996 LR: -20.839 RR:   0.000 FEB: -13.083
USER: RMSD 3.170903
USER: SEED 119
USER: STATUS no improvement in best in 4 clusters for 5 generations
USER: GENES 28
USER: genes 0 Translation |==|  0.44423 0.43546 0.56082
USER: genes 1 Rotation |==|  0.55750 0.55337 0.60087 0.98339
USER: genes 2 Torsion [N]-C--CA-[N] |==|  0.46767
USER: genes 3 Torsion [C]-CA--N-[C] |==|  0.68912
USER: genes 4 Torsion [N]-C--CA-[N] |==|  0.39684
USER: genes 5 Torsion [C]-CA--N-[C] |==|  0.80759
USER: genes 6 Torsion [N]-C--CA-[N] |==|  0.39895
USER: genes 7 Torsion [C]-CA--N-[H2] |==|  0.65498
USER: genes 8 Torsion [C]-CA--CB-[OG] |==|  0.54593
USER: genes 9 Torsion [CA]-CB--OG-[HG] |==|  0.05702
USER: genes 10 Torsion [C]-CA--CB-[CG] |==|  0.22434
USER: genes 11 Torsion [CA]-CB--CG-[OD2] |==|  0.25169
USER: genes 12 Torsion [C]-CA--CB-[CG] |==|  0.49013
USER: genes 13 Torsion [CA]-CB--CG-[CD] |==|  0.65198
USER: genes 14 Torsion [CB]-CG--CD-[OE2] |==|  0.32494
USER: genes 15 Torsion [C]-N--CA-[CB] |==|  0.22063
USER: genes 16 Torsion [N]-CA--CB-[OG] |==|  0.17789
USER: genes 17 Torsion [CA]-CB--OG-[HG] |==|  0.15115
USER: genes 18 Torsion [N]-CA--C-[N] |==|  0.48881
USER: genes 19 Torsion [C]-N--CA-[CB] |==|  0.79997
USER: genes 20 Torsion [N]-CA--C-[N] |==|  0.19675
USER: genes 21 Torsion [C]-N--CA-[C] |==|  0.76808
USER: genes 22 Torsion [N]-CA--C-[O] |==|  0.92169
USER: genes 23 Torsion [N]-CA--CB-[CG] |==|  0.76362
USER: genes 24 Torsion [CA]-CB--CG-[CD] |==|  0.26950
USER: genes 25 Torsion [CB]-CG--CD-[CE] |==|  0.60232
USER: genes 26 Torsion [CG]-CD--CE-[NZ] |==|  0.74261
USER: genes 27 Torsion [CD]-CE--NZ-[HZ2] |==|  0.14782
ROOT
ATOM      1  C   GLU C   3      43.804  30.792  21.612  1.00 22.71 LIG 0.24  C 
ATOM      2 O    GLU C   3      43.192  31.358  22.518  1.00 20.88 LIG-0.27  OA
ATOM      3  N   SER C   4      45.121  30.882  21.449  1.00 24.79 LIG-0.34  N 
ATOM      4 H    SER C   4      45.563  30.428  20.868  1.00 24.79 LIG 0.16  HD
ENDROOT
BRANCH 1 5
ATOM      5  CA  GLU C   3      43.053  29.968  20.585  1.00 22.43 LIG 0.18  C 
BRANCH 5 6
ATOM      6  N   GLU C   3      41.682  29.717  21.012  1.00 20.46 LIG-0.35  N 
ATOM      7  C   ASP C   2      41.216  28.521  21.352  1.00 20.25 LIG 0.24  C 
ATOM      8 O    ASP C   2      41.919  27.515  21.453  1.00 19.04 LIG-0.27  OA
ATOM      9 H    GLU C   3      41.195  30.426  21.023  1.00 20.46 LIG 0.16  HD
BRANCH 7 10
ATOM     10  CA  ASP C   2      39.718  28.463  21.662  1.00 20.64 LIG 0.19  C 
BRANCH 10 11
ATOM     11  N   ASP C   2      39.113  27.216  21.185  1.00 19.34 LIG-0.34  N 
ATOM     12  C   SER C   1      38.965  26.950  19.887  1.00 18.84 LIG 0.25  C 
ATOM     13 O    SER C   1      39.191  27.765  19.002  1.00 16.35 LIG-0.27  OA
ATOM     14 H    ASP C   2      38.866  26.682  21.813  1.00 19.34 LIG 0.16  HD
BRANCH 12 15
ATOM     15  CA  SER C   1      38.490  25.540  19.531  1.00 19.55 LIG 0.30  C 
BRANCH 15 16
ATOM     16  N   SER C   1      37.578  25.558  18.360  1.00 19.33 LIG-0.06  N 
ATOM     17 H1   SER C   1      37.953  25.116  17.685  1.00 19.33 LIG 0.28  HD
ATOM     18 H2   SER C   1      36.807  25.168  18.578  1.00 19.33 LIG 0.28  HD
ATOM     19 H3   SER C   1      37.425  26.400  18.115  1.00 19.33 LIG 0.28  HD
ENDBRANCH 15 16
BRANCH 15 20
ATOM     20  CB  SER C   1      39.698  24.649  19.231  1.00 20.63 LIG 0.21  C 
BRANCH 20 21
ATOM     21 OG   SER C   1      39.301  23.476  18.543  1.00 22.73 LIG-0.40  OA
ATOM     22 HG   SER C   1      38.552  23.602  18.183  1.00 22.73 LIG 0.21  HD
ENDBRANCH 20 21
ENDBRANCH 15 20
ENDBRANCH 12 15
ENDBRANCH 10 11
BRANCH 10 23
ATOM     23  CB  ASP C   2      39.533  28.637  23.173  1.00 22.15 LIG 0.15  C 
BRANCH 23 24
ATOM     24  CG  ASP C   2      39.596  30.073  23.604  1.00 25.02 LIG 0.17  C 
ATOM     25 OD2  ASP C   2      38.523  30.724  23.640  1.00 28.35 LIG-0.65  OA
ATOM     26 OD1  ASP C   2      40.712  30.534  23.954  1.00 26.75 LIG-0.65  OA
ENDBRANCH 23 24
ENDBRANCH 10 23
ENDBRANCH 7 10
ENDBRANCH 5 6
BRANCH 5 27
ATOM     27  CB  GLU C   3      43.053  30.774  19.283  1.00 23.87 LIG 0.04  C 
BRANCH 27 28
ATOM     28  CG  GLU C   3      42.422  30.097  18.083  1.00 26.88 LIG 0.12  C 
BRANCH 28 29
ATOM     29  CD  GLU C   3      43.354  30.037  16.896  1.00 28.35 LIG 0.17  C 
ATOM     30 OE2  GLU C   3      43.700  28.919  16.483  1.00 30.85 LIG-0.65  OA
ATOM     31 OE1  GLU C   3      43.751  31.104  16.387  1.00 32.46 LIG-0.65  OA
ENDBRANCH 28 29
ENDBRANCH 27 28
ENDBRANCH 5 27
ENDBRANCH 1 5
BRANCH 3 32
ATOM     32  CA  SER C   4      45.938  31.770  22.258  1.00 26.83 LIG 0.20  C 
BRANCH 32 33
ATOM     33  CB  SER C   4      46.228  31.175  23.638  1.00 27.54 LIG 0.20  C 
BRANCH 33 34
ATOM     34 OG   SER C   4      47.001  29.991  23.539  1.00 29.42 LIG-0.40  OA
ATOM     35 HG   SER C   4      47.698  30.147  23.098  1.00 29.42 LIG 0.21  HD
ENDBRANCH 33 34
ENDBRANCH 32 33
BRANCH 32 36
ATOM     36  C   SER C   4      47.241  32.021  21.530  1.00 29.03 LIG 0.24  C 
ATOM     37 O    SER C   4      47.503  31.445  20.471  1.00 28.27 LIG-0.27  OA
ATOM     38  N   LYS C   5      48.057  32.883  22.109  1.00 32.23 LIG-0.35  N 
ATOM     39 H    LYS C   5      47.840  33.373  22.781  1.00 32.23 LIG 0.16  HD
BRANCH 38 40
ATOM     40  CA  LYS C   5      49.407  33.071  21.645  1.00 36.96 LIG 0.18  C 
BRANCH 40 41
ATOM     41  C   LYS C   5      49.335  33.271  20.137  1.00 40.14 LIG 0.24  C 
ATOM     42 O    LYS C   5      49.726  32.384  19.364  1.00 43.61 LIG-0.27  OA
ATOM     43  N   GLY C   6      48.813  34.426  19.729  1.00 41.15 LIG-0.35  N 
ATOM     44 H    GLY C   6      48.451  35.001  20.256  1.00 41.15 LIG 0.16  HD
BRANCH 43 45
ATOM     45  CA  GLY C   6      48.812  34.821  18.324  1.00 42.92 LIG 0.21  C 
BRANCH 45 46
ATOM     46  C   GLY C   6      50.135  35.456  17.944  1.00 41.89 LIG 0.21  C 
ATOM     47 O    GLY C   6      50.807  36.043  18.784  1.00 45.47 LIG-0.29  OA
ENDBRANCH 45 46
ENDBRANCH 43 45
ENDBRANCH 40 41
BRANCH 40 48
ATOM     48  CB  LYS C   5      50.280  31.867  22.001  1.00 37.76 LIG 0.04  C 
BRANCH 48 49
ATOM     49  CG  LYS C   5      50.854  31.952  23.402  1.00 39.35 LIG 0.00  C 
BRANCH 49 50
ATOM     50  CD  LYS C   5      50.047  31.178  24.419  1.00 40.12 LIG 0.03  C 
BRANCH 50 51
ATOM     51  CE  LYS C   5      50.038  31.943  25.730  1.00 40.78 LIG 0.23  C 
BRANCH 51 52
ATOM     52  NZ  LYS C   5      51.140  31.497  26.611  1.00 41.17 LIG-0.08  N 
ATOM     53 HZ3  LYS C   5      51.178  32.022  27.329  1.00 41.17 LIG 0.27  HD
ATOM     54 HZ2  LYS C   5      51.911  31.543  26.170  1.00 41.17 LIG 0.27  HD
ATOM     55 HZ1  LYS C   5      50.995  30.656  26.866  1.00 41.17 LIG 0.27  HD
ENDBRANCH 51 52
ENDBRANCH 50 51
ENDBRANCH 49 50
ENDBRANCH 48 49
ENDBRANCH 40 48
ENDBRANCH 38 40
ENDBRANCH 32 36
ENDBRANCH 3 32
TORSDOF 26
ENDMDL
MODEL 5
USER: ADFR SOLUTION from run 165
USER: SCORE 22.291056 LL:  -3.068 LR: -20.555 RR:   0.000 FEB: -12.799
USER: RMSD 3.600935
USER: SEED 164
USER: STATUS 1 or 2 clusters left
USER: GENES 28
USER: genes 0 Translation |==|  0.45144 0.44806 0.52057
USER: genes 1 Rotation |==|  0.40975 0.54402 0.58036 0.98318
USER: genes 2 Torsion [N]-C--CA-[N] |==|  0.44247
USER: genes 3 Torsion [C]-CA--N-[C] |==|  0.61043
USER: genes 4 Torsion [N]-C--CA-[N] |==|  0.40730
USER: genes 5 Torsion [C]-CA--N-[C] |==|  0.79991
USER: genes 6 Torsion [N]-C--CA-[N] |==|  0.39682
USER: genes 7 Torsion [C]-CA--N-[H2] |==|  0.73662
USER: genes 8 Torsion [C]-CA--CB-[OG] |==|  0.58040
USER: genes 9 Torsion [CA]-CB--OG-[HG] |==|  0.14408
USER: genes 10 Torsion [C]-CA--CB-[CG] |==|  0.22241
USER: genes 11 Torsion [CA]-CB--CG-[OD2] |==|  0.73811
USER: genes 12 Torsion [C]-CA--CB-[CG] |==|  0.53053
USER: genes 13 Torsion [CA]-CB--CG-[CD] |==|  0.58578
USER: genes 14 Torsion [CB]-CG--CD-[OE2] |==|  0.47813
USER: genes 15 Torsion [C]-N--CA-[CB] |==|  0.12671
USER: genes 16 Torsion [N]-CA--CB-[OG] |==|  0.53808
USER: genes 17 Torsion [CA]-CB--OG-[HG] |==|  0.72616
USER: genes 18 Torsion [N]-CA--C-[N] |==|  0.67898
USER: genes 19 Torsion [C]-N--CA-[CB] |==|  0.80465
USER: genes 20 Torsion [N]-CA--C-[N] |==|  0.20000
USER: genes 21 Torsion [C]-N--CA-[C] |==|  0.32916
USER: genes 22 Torsion [N]-CA--C-[O] |==|  0.34160
USER: genes 23 Torsion [N]-CA--CB-[CG] |==|  0.94593
USER: genes 24 Torsion [CA]-CB--CG-[CD] |==|  0.30835
USER: genes 25 Torsion [CB]-CG--CD-[CE] |==|  0.04898
USER: genes 26 Torsion [CG]-CD--CE-[NZ] |==|  0.20611
USER: genes 27 Torsion [CD]-CE--NZ-[HZ2] |==|  0.79935
ROOT
ATOM      1  C   GLU C   3      43.988  31.085  20.947  1.00 22.71 LIG 0.24  C 
ATOM      2 O    GLU C   3      43.297  32.042  21.298  1.00 20.88 LIG-0.27  OA
ATOM      3  N   SER C   4      45.318  31.100  20.956  1.00 24.79 LIG-0.34  N 
ATOM      4 H    SER C   4      45.805  30.412  20.788  1.00 24.79 LIG 0.16  HD
ENDROOT
BRANCH 1 5
ATOM      5  CA  GLU C   3      43.332  29.816  20.441  1.00 22.43 LIG 0.18  C 
BRANCH 5 6
ATOM      6  N   GLU C   3      41.957  29.710  20.913  1.00 20.46 LIG-0.35  N 
ATOM      7  C   ASP C   2      41.395  28.577  21.317  1.00 20.25 LIG 0.24  C 
ATOM      8 O    ASP C   2      42.006  27.516  21.444  1.00 19.04 LIG-0.27  OA
ATOM      9 H    GLU C   3      41.537  30.460  20.906  1.00 20.46 LIG 0.16  HD
BRANCH 7 10
ATOM     10  CA  ASP C   2      39.907  28.668  21.667  1.00 20.64 LIG 0.19  C 
BRANCH 10 11
ATOM     11  N   ASP C   2      39.196  27.429  21.342  1.00 19.34 LIG-0.34  N 
ATOM     12  C   SER C   1      38.939  27.067  20.085  1.00 18.84 LIG 0.25  C 
ATOM     13 O    SER C   1      39.150  27.789  19.119  1.00 16.35 LIG-0.27  OA
ATOM     14 H    ASP C   2      38.963  26.966  22.028  1.00 19.34 LIG 0.16  HD
BRANCH 12 15
ATOM     15  CA  SER C   1      38.356  25.667  19.884  1.00 19.55 LIG 0.30  C 
BRANCH 15 16
ATOM     16  N   SER C   1      37.351  25.652  18.792  1.00 19.33 LIG-0.06  N 
ATOM     17 H1   SER C   1      37.395  24.877  18.358  1.00 19.33 LIG 0.28  HD
ATOM     18 H2   SER C   1      36.536  25.753  19.136  1.00 19.33 LIG 0.28  HD
ATOM     19 H3   SER C   1      37.518  26.319  18.226  1.00 19.33 LIG 0.28  HD
ENDBRANCH 15 16
BRANCH 15 20
ATOM     20  CB  SER C   1      39.481  24.680  19.565  1.00 20.63 LIG 0.21  C 
BRANCH 20 21
ATOM     21 OG   SER C   1      39.004  23.616  18.760  1.00 22.73 LIG-0.40  OA
ATOM     22 HG   SER C   1      38.603  23.928  18.092  1.00 22.73 LIG 0.21  HD
ENDBRANCH 20 21
ENDBRANCH 15 20
ENDBRANCH 12 15
ENDBRANCH 10 11
BRANCH 10 23
ATOM     23  CB  ASP C   2      39.785  29.014  23.154  1.00 22.15 LIG 0.15  C 
BRANCH 23 24
ATOM     24  CG  ASP C   2      39.985  30.476  23.429  1.00 25.02 LIG 0.17  C 
ATOM     25 OD2  ASP C   2      41.137  30.862  23.747  1.00 28.35 LIG-0.65  OA
ATOM     26 OD1  ASP C   2      39.001  31.244  23.278  1.00 26.75 LIG-0.65  OA
ENDBRANCH 23 24
ENDBRANCH 10 23
ENDBRANCH 7 10
ENDBRANCH 5 6
BRANCH 5 27
ATOM     27  CB  GLU C   3      43.352  29.887  18.911  1.00 23.87 LIG 0.04  C 
BRANCH 27 28
ATOM     28  CG  GLU C   3      42.519  28.848  18.188  1.00 26.88 LIG 0.12  C 
BRANCH 28 29
ATOM     29  CD  GLU C   3      43.102  28.471  16.846  1.00 28.35 LIG 0.17  C 
ATOM     30 OE2  GLU C   3      42.587  27.522  16.234  1.00 30.85 LIG-0.65  OA
ATOM     31 OE1  GLU C   3      44.082  29.109  16.413  1.00 32.46 LIG-0.65  OA
ENDBRANCH 28 29
ENDBRANCH 27 28
ENDBRANCH 5 27
ENDBRANCH 1 5
BRANCH 3 32
ATOM     32  CA  SER C   4      46.072  32.305  21.258  1.00 26.83 LIG 0.20  C 
BRANCH 32 33
ATOM     33  CB  SER C   4      45.513  33.033  22.483  1.00 27.54 LIG 0.20  C 
BRANCH 33 34
ATOM     34 OG   SER C   4      46.036  34.345  22.589  1.00 29.42 LIG-0.40  OA
ATOM     35 HG   SER C   4      46.670  34.350  23.141  1.00 29.42 LIG 0.21  HD
ENDBRANCH 33 34
ENDBRANCH 32 33
BRANCH 32 36
ATOM     36  C   SER C   4      47.513  31.918  21.511  1.00 29.03 LIG 0.24  C 
ATOM     37 O    SER C   4      48.210  31.425  20.622  1.00 28.27 LIG-0.27  OA
ATOM     38  N   LYS C   5      47.952  32.142  22.737  1.00 32.23 LIG-0.35  N 
ATOM     39 H    LYS C   5      47.516  32.587  23.330  1.00 32.23 LIG 0.16  HD
BRANCH 38 40
ATOM     40  CA  LYS C   5      49.228  31.646  23.183  1.00 36.96 LIG 0.18  C 
BRANCH 40 41
ATOM     41  C   LYS C   5      50.259  32.072  22.146  1.00 40.14 LIG 0.24  C 
ATOM     42 O    LYS C   5      50.749  31.242  21.366  1.00 43.61 LIG-0.27  OA
ATOM     43  N   GLY C   6      50.561  33.369  22.128  1.00 41.15 LIG-0.35  N 
ATOM     44 H    GLY C   6      50.152  33.963  22.597  1.00 41.15 LIG 0.16  HD
BRANCH 43 45
ATOM     45  CA  GLY C   6      51.633  33.901  21.293  1.00 42.92 LIG 0.21  C 
BRANCH 45 46
ATOM     46  C   GLY C   6      51.086  34.896  20.287  1.00 41.89 LIG 0.21  C 
ATOM     47 O    GLY C   6      51.519  36.042  20.248  1.00 45.47 LIG-0.29  OA
ENDBRANCH 45 46
ENDBRANCH 43 45
ENDBRANCH 40 41
BRANCH 40 48
ATOM     48  CB  LYS C   5      49.198  30.125  23.339  1.00 37.76 LIG 0.04  C 
BRANCH 48 49
ATOM     49  CG  LYS C   5      47.791  29.574  23.455  1.00 39.35 LIG 0.00  C 
BRANCH 49 50
ATOM     50  CD  LYS C   5      47.370  28.767  22.249  1.00 40.12 LIG 0.03  C 
BRANCH 50 51
ATOM     51  CE  LYS C   5      48.606  28.371  21.461  1.00 40.78 LIG 0.23  C 
BRANCH 51 52
ATOM     52  NZ  LYS C   5      49.351  27.295  22.150  1.00 41.17 LIG-0.08  N 
ATOM     53 HZ3  LYS C   5      48.786  26.652  22.396  1.00 41.17 LIG 0.27  HD
ATOM     54 HZ2  LYS C   5      49.754  27.626  22.871  1.00 41.17 LIG 0.27  HD
ATOM     55 HZ1  LYS C   5      49.963  26.956  21.599  1.00 41.17 LIG 0.27  HD
ENDBRANCH 51 52
ENDBRANCH 50 51
ENDBRANCH 49 50
ENDBRANCH 48 49
ENDBRANCH 40 48
ENDBRANCH 38 40
ENDBRANCH 32 36
ENDBRANCH 3 32
TORSDOF 26
ENDMDL
MODEL 6
USER: ADFR SOLUTION from run 63
USER: SCORE 19.904222 LL:  -2.818 LR: -20.552 RR:   0.000 FEB: -12.796
USER: RMSD 4.393418
USER: SEED 62
USER: STATUS searching
USER: GENES 28
USER: genes 0 Translation |==|  0.45575 0.38861 0.54140
USER: genes 1 Rotation |==|  0.82765 0.61413 0.71406 0.78948
USER: genes 2 Torsion [N]-C--CA-[N] |==|  0.33234
USER: genes 3 Torsion [C]-CA--N-[C] |==|  0.55723
USER: genes 4 Torsion [N]-C--CA-[N] |==|  0.31216
USER: genes 5 Torsion [C]-CA--N-[C] |==|  0.79187
USER: genes 6 Torsion [N]-C--CA-[N] |==|  0.31213
USER: genes 7 Torsion [C]-CA--N-[H2] |==|  0.73393
USER: genes 8 Torsion [C]-CA--CB-[OG] |==|  0.76141
USER: genes 9 Torsion [CA]-CB--OG-[HG] |==|  0.66706
USER: genes 10 Torsion [C]-CA--CB-[CG] |==|  0.10178
USER: genes 11 Torsion [CA]-CB--CG-[OD2] |==|  0.79072
USER: genes 12 Torsion [C]-CA--CB-[CG] |==|  0.05930
USER: genes 13 Torsion [CA]-CB--CG-[CD] |==|  0.22854
USER: genes 14 Torsion [CB]-CG--CD-[OE2] |==|  0.30400
USER: genes 15 Torsion [C]-N--CA-[CB] |==|  0.13347
USER: genes 16 Torsion [N]-CA--CB-[OG] |==|  0.19338
USER: genes 17 Torsion [CA]-CB--OG-[HG] |==|  0.91139
USER: genes 18 Torsion [N]-CA--C-[N] |==|  0.32118
USER: genes 19 Torsion [C]-N--CA-[CB] |==|  0.40701
USER: genes 20 Torsion [N]-CA--C-[N] |==|  0.97778
USER: genes 21 Torsion [C]-N--CA-[C] |==|  0.41186
USER: genes 22 Torsion [N]-CA--C-[O] |==|  0.71121
USER: genes 23 Torsion [N]-CA--CB-[CG] |==|  0.70372
USER: genes 24 Torsion [CA]-CB--CG-[CD] |==|  0.61997
USER: genes 25 Torsion [CB]-CG--CD-[CE] |==|  0.35623
USER: genes 26 Torsion [CG]-CD--CE-[NZ] |==|  0.25478
USER: genes 27 Torsion [CD]-CE--NZ-[HZ2] |==|  0.60368
ROOT
ATOM      1  C   GLU C   3      44.098  29.703  21.291  1.00 22.71 LIG 0.24  C 
ATOM      2 O    GLU C   3      44.165  28.779  22.102  1.00 20.88 LIG-0.27  OA
ATOM      3  N   SER C   4      44.977  30.700  21.241  1.00 24.79 LIG-0.34  N 
ATOM      4 H    SER C   4      44.981  31.304  20.629  1.00 24.79 LIG 0.16  HD
ENDROOT
BRANCH 1 5
ATOM      5  CA  GLU C   3      42.952  29.766  20.301  1.00 22.43 LIG 0.18  C 
BRANCH 5 6
ATOM      6  N   GLU C   3      42.954  28.605  19.420  1.00 20.46 LIG-0.35  N 
ATOM      7  C   ASP C   2      42.346  28.566  18.240  1.00 20.25 LIG 0.24  C 
ATOM      8 O    ASP C   2      41.812  29.542  17.711  1.00 19.04 LIG-0.27  OA
ATOM      9 H    GLU C   3      43.390  27.937  19.739  1.00 20.46 LIG 0.16  HD
BRANCH 7 10
ATOM     10  CA  ASP C   2      42.378  27.211  17.527  1.00 20.64 LIG 0.19  C 
BRANCH 10 11
ATOM     11  N   ASP C   2      41.045  26.609  17.445  1.00 19.34 LIG-0.34  N 
ATOM     12  C   SER C   1      40.452  26.050  18.500  1.00 18.84 LIG 0.25  C 
ATOM     13 O    SER C   1      41.014  25.873  19.573  1.00 16.35 LIG-0.27  OA
ATOM     14 H    ASP C   2      40.688  26.649  16.663  1.00 19.34 LIG 0.16  HD
BRANCH 12 15
ATOM     15  CA  SER C   1      38.994  25.627  18.317  1.00 19.55 LIG 0.30  C 
BRANCH 15 16
ATOM     16  N   SER C   1      38.851  24.150  18.354  1.00 19.33 LIG-0.06  N 
ATOM     17 H1   SER C   1      38.086  23.935  18.753  1.00 19.33 LIG 0.28  HD
ATOM     18 H2   SER C   1      38.852  23.830  17.523  1.00 19.33 LIG 0.28  HD
ATOM     19 H3   SER C   1      39.531  23.797  18.808  1.00 19.33 LIG 0.28  HD
ENDBRANCH 15 16
BRANCH 15 20
ATOM     20  CB  SER C   1      38.132  26.256  19.414  1.00 20.63 LIG 0.21  C 
BRANCH 20 21
ATOM     21 OG   SER C   1      38.134  25.452  20.581  1.00 22.73 LIG-0.40  OA
ATOM     22 HG   SER C   1      37.349  25.211  20.756  1.00 22.73 LIG 0.21  HD
ENDBRANCH 20 21
ENDBRANCH 15 20
ENDBRANCH 12 15
ENDBRANCH 10 11
BRANCH 10 23
ATOM     23  CB  ASP C   2      42.992  27.414  16.138  1.00 22.15 LIG 0.15  C 
BRANCH 23 24
ATOM     24  CG  ASP C   2      44.097  28.429  16.134  1.00 25.02 LIG 0.17  C 
ATOM     25 OD2  ASP C   2      43.782  29.643  16.207  1.00 28.35 LIG-0.65  OA
ATOM     26 OD1  ASP C   2      45.282  28.009  16.108  1.00 26.75 LIG-0.65  OA
ENDBRANCH 23 24
ENDBRANCH 10 23
ENDBRANCH 7 10
ENDBRANCH 5 6
BRANCH 5 27
ATOM     27  CB  GLU C   3      41.659  29.795  21.121  1.00 23.87 LIG 0.04  C 
BRANCH 27 28
ATOM     28  CG  GLU C   3      41.795  30.254  22.559  1.00 26.88 LIG 0.12  C 
BRANCH 28 29
ATOM     29  CD  GLU C   3      41.809  31.759  22.686  1.00 28.35 LIG 0.17  C 
ATOM     30 OE2  GLU C   3      40.819  32.310  23.195  1.00 30.85 LIG-0.65  OA
ATOM     31 OE1  GLU C   3      42.798  32.392  22.265  1.00 32.46 LIG-0.65  OA
ENDBRANCH 28 29
ENDBRANCH 27 28
ENDBRANCH 5 27
ENDBRANCH 1 5
BRANCH 3 32
ATOM     32  CA  SER C   4      46.025  30.852  22.236  1.00 26.83 LIG 0.20  C 
BRANCH 32 33
ATOM     33  CB  SER C   4      46.766  29.535  22.486  1.00 27.54 LIG 0.20  C 
BRANCH 33 34
ATOM     34 OG   SER C   4      47.554  29.165  21.368  1.00 29.42 LIG-0.40  OA
ATOM     35 HG   SER C   4      47.184  29.432  20.663  1.00 29.42 LIG 0.21  HD
ENDBRANCH 33 34
ENDBRANCH 32 33
BRANCH 32 36
ATOM     36  C   SER C   4      47.002  31.899  21.748  1.00 29.03 LIG 0.24  C 
ATOM     37 O    SER C   4      47.679  31.719  20.733  1.00 28.27 LIG-0.27  OA
ATOM     38  N   LYS C   5      47.073  32.995  22.483  1.00 32.23 LIG-0.35  N 
ATOM     39 H    LYS C   5      46.530  33.180  23.123  1.00 32.23 LIG 0.16  HD
BRANCH 38 40
ATOM     40  CA  LYS C   5      48.093  33.987  22.261  1.00 36.96 LIG 0.18  C 
BRANCH 40 41
ATOM     41  C   LYS C   5      49.261  33.635  23.173  1.00 40.14 LIG 0.24  C 
ATOM     42 O    LYS C   5      50.332  34.257  23.094  1.00 43.61 LIG-0.27  OA
ATOM     43  N   GLY C   6      49.040  32.657  24.049  1.00 41.15 LIG-0.35  N 
ATOM     44 H    GLY C   6      48.271  32.292  24.174  1.00 41.15 LIG 0.16  HD
BRANCH 43 45
ATOM     45  CA  GLY C   6      50.104  32.113  24.885  1.00 42.92 LIG 0.21  C 
BRANCH 45 46
ATOM     46  C   GLY C   6      49.556  31.655  26.222  1.00 41.89 LIG 0.21  C 
ATOM     47 O    GLY C   6      49.735  32.327  27.231  1.00 45.47 LIG-0.29  OA
ENDBRANCH 45 46
ENDBRANCH 43 45
ENDBRANCH 40 41
BRANCH 40 48
ATOM     48  CB  LYS C   5      47.563  35.390  22.559  1.00 37.76 LIG 0.04  C 
BRANCH 48 49
ATOM     49  CG  LYS C   5      47.322  36.205  21.304  1.00 39.35 LIG 0.00  C 
BRANCH 49 50
ATOM     50  CD  LYS C   5      47.807  37.632  21.423  1.00 40.12 LIG 0.03  C 
BRANCH 50 51
ATOM     51  CE  LYS C   5      48.700  37.952  20.238  1.00 40.78 LIG 0.23  C 
BRANCH 51 52
ATOM     52  NZ  LYS C   5      47.916  38.536  19.127  1.00 41.17 LIG-0.08  N 
ATOM     53 HZ3  LYS C   5      47.062  38.299  19.209  1.00 41.17 LIG 0.27  HD
ATOM     54 HZ2  LYS C   5      48.233  38.238  18.351  1.00 41.17 LIG 0.27  HD
ATOM     55 HZ1  LYS C   5      47.982  39.424  19.152  1.00 41.17 LIG 0.27  HD
ENDBRANCH 51 52
ENDBRANCH 50 51
ENDBRANCH 49 50
ENDBRANCH 48 49
ENDBRANCH 40 48
ENDBRANCH 38 40
ENDBRANCH 32 36
ENDBRANCH 3 32
TORSDOF 26
ENDMDL
