MODEL 1
USER: ADFR SOLUTION from run 138
USER: SCORE 11.387706 LL:  -2.019 LR:  -9.369 RR:   0.000 FEB:  -5.790
USER: RMSD 7.475244
USER: SEED 137
USER: STATUS no improvement in best in 15 clusters for 5 generations
USER: GENES 14
USER: genes 0 Translation |==|  0.56451 0.77027 0.19512
USER: genes 1 Rotation |==|  0.22690 0.16651 0.75158 0.53018
USER: genes 2 Torsion [N]-CA--C-[N] |==|  0.39173
USER: genes 3 Torsion [C]-N--CA-[C] |==|  0.51528
USER: genes 4 Torsion [N]-CA--C-[O] |==|  0.88209
USER: genes 5 Torsion [N]-CA--CB-[CG] |==|  0.55615
USER: genes 6 Torsion [CA]-CB--CG-[CD2] |==|  0.75032
USER: genes 7 Torsion [C]-CA--CB-[CG] |==|  0.99306
USER: genes 8 Torsion [CA]-CB--CG-[CD1] |==|  0.26398
USER: genes 9 Torsion [C]-CA--N-[C] |==|  0.83096
USER: genes 10 Torsion [N]-C--CA-[N] |==|  0.09161
USER: genes 11 Torsion [C]-CA--N-[H2] |==|  0.35273
USER: genes 12 Torsion [C]-CA--CB-[OG] |==|  0.86529
USER: genes 13 Torsion [CA]-CB--OG-[HG] |==|  0.10192
ROOT
ATOM      1  CA  PHE C   1     110.547 177.587  54.578  1.00 43.43 LIG 0.18  C 
ENDROOT
BRANCH 1 2
ATOM      2  C   PHE C   1     111.242 177.079  55.833  1.00 43.95 LIG 0.24  C 
ATOM      3 O    PHE C   1     110.579 176.537  56.723  1.00 42.64 LIG-0.27  OA
ATOM      4  N   LEU C   2     112.557 177.240  55.923  1.00 45.78 LIG-0.35  N 
ATOM      5 H    LEU C   2     113.058 177.506  55.276  1.00 45.78 LIG 0.16  HD
BRANCH 4 6
ATOM      6  CA  LEU C   2     113.262 176.971  57.162  1.00 46.28 LIG 0.16  C 
BRANCH 6 7
ATOM      7  C   LEU C   2     114.719 177.380  56.983  1.00 47.91 LIG 0.22  C 
ATOM      8 O    LEU C   2     115.327 177.114  55.945  1.00 50.38 LIG-0.29  OA
ENDBRANCH 6 7
BRANCH 6 9
ATOM      9  CB  LEU C   2     113.153 175.490  57.528  1.00 44.46 LIG 0.04  C 
BRANCH 9 10
ATOM     10  CG  LEU C   2     113.414 175.154  58.996  1.00 41.86 LIG-0.02  C 
ATOM     11  CD2 LEU C   2     114.889 174.868  59.220  1.00 43.32 LIG 0.01  C 
ATOM     12  CD1 LEU C   2     112.564 173.972  59.429  1.00 39.91 LIG 0.01  C 
ENDBRANCH 9 10
ENDBRANCH 6 9
ENDBRANCH 4 6
ENDBRANCH 1 2
BRANCH 1 13
ATOM     13  CB  PHE C   1     110.016 179.010  54.758  1.00 40.74 LIG 0.07  C 
BRANCH 13 14
ATOM     14  CG  PHE C   1     110.247 179.548  56.134  1.00 40.58 LIG-0.06  A 
ATOM     15  CD1 PHE C   1     111.358 180.326  56.407  1.00 41.26 LIG 0.01  A 
ATOM     16  CE1 PHE C   1     111.588 180.807  57.675  1.00 41.59 LIG 0.00  A 
ATOM     17  CZ  PHE C   1     110.708 180.504  58.692  1.00 39.95 LIG 0.00  A 
ATOM     18  CE2 PHE C   1     109.602 179.715  58.438  1.00 40.65 LIG 0.00  A 
ATOM     19  CD2 PHE C   1     109.379 179.237  57.167  1.00 39.59 LIG 0.01  A 
ENDBRANCH 13 14
ENDBRANCH 1 13
BRANCH 1 20
ATOM     20  N   PHE C   1     109.489 176.701  54.113  1.00 44.33 LIG-0.35  N 
ATOM     21 H    PHE C   1     108.709 177.065  54.099  1.00 44.33 LIG 0.16  HD
ATOM     22  C   SER C   0     109.720 175.442  53.745  1.00 45.23 LIG 0.25  C 
ATOM     23 O    SER C   0     110.828 174.908  53.829  1.00 45.89 LIG-0.27  OA
BRANCH 22 24
ATOM     24  CA  SER C   0     108.522 174.671  53.205  1.00 46.83 LIG 0.30  C 
BRANCH 24 25
ATOM     25  N   SER C   0     107.608 175.553  52.485  1.00 48.27 LIG-0.06  N 
ATOM     26 H2   SER C   0     107.453 175.221  51.674  1.00 48.27 LIG 0.28  HD
ATOM     27 H1   SER C   0     107.974 176.361  52.409  1.00 48.27 LIG 0.28  HD
ATOM     28 H3   SER C   0     106.842 175.616  52.932  1.00 48.27 LIG 0.28  HD
ENDBRANCH 24 25
BRANCH 24 29
ATOM     29  CB  SER C   0     109.002 173.533  52.299  1.00 47.94 LIG 0.21  C 
BRANCH 29 30
ATOM     30 OG   SER C   0     109.956 173.993  51.359  1.00 49.79 LIG-0.40  OA
ATOM     31 HG   SER C   0     110.445 174.574  51.717  1.00 49.79 LIG 0.21  HD
ENDBRANCH 29 30
ENDBRANCH 24 29
ENDBRANCH 22 24
ENDBRANCH 1 20
TORSDOF 12
ENDMDL
MODEL 2
USER: ADFR SOLUTION from run 7
USER: SCORE 10.511200 LL:  -2.417 LR:  -9.129 RR:   0.000 FEB:  -5.550
USER: RMSD 6.468526
USER: SEED 1104
USER: STATUS no improvement in best in 21 clusters for 5 generations
USER: GENES 14
USER: genes 0 Translation |==|  0.53056 0.58347 0.32961
USER: genes 1 Rotation |==|  0.88161 0.24654 0.37766 0.65863
USER: genes 2 Torsion [N]-CA--C-[N] |==|  0.37279
USER: genes 3 Torsion [C]-N--CA-[C] |==|  0.51973
USER: genes 4 Torsion [N]-CA--C-[O] |==|  0.55256
USER: genes 5 Torsion [N]-CA--CB-[CG] |==|  0.68340
USER: genes 6 Torsion [CA]-CB--CG-[CD2] |==|  0.32900
USER: genes 7 Torsion [C]-CA--CB-[CG] |==|  0.02961
USER: genes 8 Torsion [CA]-CB--CG-[CD1] |==|  0.25783
USER: genes 9 Torsion [C]-CA--N-[C] |==|  0.22236
USER: genes 10 Torsion [N]-C--CA-[N] |==|  0.47394
USER: genes 11 Torsion [C]-CA--N-[H2] |==|  0.06686
USER: genes 12 Torsion [C]-CA--CB-[OG] |==|  0.62942
USER: genes 13 Torsion [CA]-CB--OG-[HG] |==|  0.44506
ROOT
ATOM      1  CA  PHE C   1     109.911 174.925  56.798  1.00 43.43 LIG 0.18  C 
ENDROOT
BRANCH 1 2
ATOM      2  C   PHE C   1     110.214 176.392  57.067  1.00 43.95 LIG 0.24  C 
ATOM      3 O    PHE C   1     110.553 177.128  56.135  1.00 42.64 LIG-0.27  OA
ATOM      4  N   LEU C   2     110.103 176.830  58.315  1.00 45.78 LIG-0.35  N 
ATOM      5 H    LEU C   2     109.760 176.374  58.960  1.00 45.78 LIG 0.16  HD
BRANCH 4 6
ATOM      6  CA  LEU C   2     110.567 178.152  58.690  1.00 46.28 LIG 0.16  C 
BRANCH 6 7
ATOM      7  C   LEU C   2     110.463 178.286  60.204  1.00 47.91 LIG 0.22  C 
ATOM      8 O    LEU C   2     110.461 179.395  60.741  1.00 50.38 LIG-0.29  OA
ENDBRANCH 6 7
BRANCH 6 9
ATOM      9  CB  LEU C   2     109.735 179.229  57.990  1.00 44.46 LIG 0.04  C 
BRANCH 9 10
ATOM     10  CG  LEU C   2     110.488 180.082  56.970  1.00 41.86 LIG-0.02  C 
ATOM     11  CD2 LEU C   2     109.882 179.910  55.587  1.00 43.32 LIG 0.01  C 
ATOM     12  CD1 LEU C   2     111.963 179.721  56.961  1.00 39.91 LIG 0.01  C 
ENDBRANCH 9 10
ENDBRANCH 6 9
ENDBRANCH 4 6
ENDBRANCH 1 2
BRANCH 1 13
ATOM     13  CB  PHE C   1     111.187 174.091  56.685  1.00 40.74 LIG 0.07  C 
BRANCH 13 14
ATOM     14  CG  PHE C   1     112.410 174.837  57.111  1.00 40.58 LIG-0.06  A 
ATOM     15  CD1 PHE C   1     112.865 174.755  58.416  1.00 41.26 LIG 0.01  A 
ATOM     16  CE1 PHE C   1     113.977 175.456  58.820  1.00 41.59 LIG 0.00  A 
ATOM     17  CZ  PHE C   1     114.646 176.259  57.920  1.00 39.95 LIG 0.00  A 
ATOM     18  CE2 PHE C   1     114.195 176.362  56.618  1.00 40.65 LIG 0.00  A 
ATOM     19  CD2 PHE C   1     113.081 175.659  56.220  1.00 39.59 LIG 0.01  A 
ENDBRANCH 13 14
ENDBRANCH 1 13
BRANCH 1 20
ATOM     20  N   PHE C   1     109.063 174.723  55.630  1.00 44.33 LIG-0.35  N 
ATOM     21 H    PHE C   1     108.235 174.589  55.818  1.00 44.33 LIG 0.16  HD
ATOM     22  C   SER C   0     109.541 174.747  54.387  1.00 45.23 LIG 0.25  C 
ATOM     23 O    SER C   0     110.739 174.877  54.127  1.00 45.89 LIG-0.27  OA
BRANCH 22 24
ATOM     24  CA  SER C   0     108.513 174.601  53.271  1.00 46.83 LIG 0.30  C 
BRANCH 24 25
ATOM     25  N   SER C   0     109.111 174.861  51.965  1.00 48.27 LIG-0.06  N 
ATOM     26 H2   SER C   0     109.988 174.714  52.006  1.00 48.27 LIG 0.28  HD
ATOM     27 H1   SER C   0     108.963 175.708  51.734  1.00 48.27 LIG 0.28  HD
ATOM     28 H3   SER C   0     108.747 174.321  51.359  1.00 48.27 LIG 0.28  HD
ENDBRANCH 24 25
BRANCH 24 29
ATOM     29  CB  SER C   0     107.894 173.201  53.315  1.00 47.94 LIG 0.21  C 
BRANCH 29 30
ATOM     30 OG   SER C   0     107.854 172.618  52.025  1.00 49.79 LIG-0.40  OA
ATOM     31 HG   SER C   0     107.775 171.785  52.096  1.00 49.79 LIG 0.21  HD
ENDBRANCH 29 30
ENDBRANCH 24 29
ENDBRANCH 22 24
ENDBRANCH 1 20
TORSDOF 12
ENDMDL
MODEL 3
USER: ADFR SOLUTION from run 14
USER: SCORE 10.759750 LL:  -2.141 LR:  -8.982 RR:   0.000 FEB:  -5.402
USER: RMSD 6.011167
USER: SEED 728656
USER: STATUS no improvement in best in 19 clusters for 5 generations
USER: GENES 14
USER: genes 0 Translation |==|  0.55220 0.50430 0.32283
USER: genes 1 Rotation |==|  0.09486 0.23799 0.60031 0.58454
USER: genes 2 Torsion [N]-CA--C-[N] |==|  0.36909
USER: genes 3 Torsion [C]-N--CA-[C] |==|  0.76406
USER: genes 4 Torsion [N]-CA--C-[O] |==|  0.90472
USER: genes 5 Torsion [N]-CA--CB-[CG] |==|  0.44974
USER: genes 6 Torsion [CA]-CB--CG-[CD2] |==|  0.73826
USER: genes 7 Torsion [C]-CA--CB-[CG] |==|  0.29138
USER: genes 8 Torsion [CA]-CB--CG-[CD1] |==|  0.77849
USER: genes 9 Torsion [C]-CA--N-[C] |==|  0.55556
USER: genes 10 Torsion [N]-C--CA-[N] |==|  0.51869
USER: genes 11 Torsion [C]-CA--N-[H2] |==|  0.06998
USER: genes 12 Torsion [C]-CA--CB-[OG] |==|  0.67669
USER: genes 13 Torsion [CA]-CB--OG-[HG] |==|  0.42866
ROOT
ATOM      1  CA  PHE C   1     110.317 173.797  56.686  1.00 43.43 LIG 0.18  C 
ENDROOT
BRANCH 1 2
ATOM      2  C   PHE C   1     109.901 172.751  57.708  1.00 43.95 LIG 0.24  C 
ATOM      3 O    PHE C   1     108.745 172.744  58.143  1.00 42.64 LIG-0.27  OA
ATOM      4  N   LEU C   2     110.814 171.870  58.102  1.00 45.78 LIG-0.35  N 
ATOM      5 H    LEU C   2     111.586 171.776  57.735  1.00 45.78 LIG 0.16  HD
BRANCH 4 6
ATOM      6  CA  LEU C   2     110.561 170.975  59.215  1.00 46.28 LIG 0.16  C 
BRANCH 6 7
ATOM      7  C   LEU C   2     110.911 171.705  60.506  1.00 47.91 LIG 0.22  C 
ATOM      8 O    LEU C   2     111.842 172.510  60.543  1.00 50.38 LIG-0.29  OA
ENDBRANCH 6 7
BRANCH 6 9
ATOM      9  CB  LEU C   2     111.388 169.696  59.071  1.00 44.46 LIG 0.04  C 
BRANCH 9 10
ATOM     10  CG  LEU C   2     111.555 168.873  60.349  1.00 41.86 LIG-0.02  C 
ATOM     11  CD2 LEU C   2     112.849 169.245  61.052  1.00 43.32 LIG 0.01  C 
ATOM     12  CD1 LEU C   2     111.521 167.388  60.032  1.00 39.91 LIG 0.01  C 
ENDBRANCH 9 10
ENDBRANCH 6 9
ENDBRANCH 4 6
ENDBRANCH 1 2
BRANCH 1 13
ATOM     13  CB  PHE C   1     110.592 175.153  57.337  1.00 40.74 LIG 0.07  C 
BRANCH 13 14
ATOM     14  CG  PHE C   1     112.050 175.465  57.438  1.00 40.58 LIG-0.06  A 
ATOM     15  CD1 PHE C   1     112.820 174.912  58.447  1.00 41.26 LIG 0.01  A 
ATOM     16  CE1 PHE C   1     114.157 175.212  58.558  1.00 41.59 LIG 0.00  A 
ATOM     17  CZ  PHE C   1     114.742 176.082  57.661  1.00 39.95 LIG 0.00  A 
ATOM     18  CE2 PHE C   1     113.983 176.654  56.658  1.00 40.65 LIG 0.00  A 
ATOM     19  CD2 PHE C   1     112.645 176.350  56.553  1.00 39.59 LIG 0.01  A 
ENDBRANCH 13 14
ENDBRANCH 1 13
BRANCH 1 20
ATOM     20  N   PHE C   1     109.362 173.939  55.594  1.00 44.33 LIG-0.35  N 
ATOM     21 H    PHE C   1     108.577 173.640  55.776  1.00 44.33 LIG 0.16  HD
ATOM     22  C   SER C   0     109.690 174.485  54.424  1.00 45.23 LIG 0.25  C 
ATOM     23 O    SER C   0     110.834 174.852  54.148  1.00 45.89 LIG-0.27  OA
BRANCH 22 24
ATOM     24  CA  SER C   0     108.558 174.636  53.415  1.00 46.83 LIG 0.30  C 
BRANCH 24 25
ATOM     25  N   SER C   0     109.061 175.095  52.123  1.00 48.27 LIG-0.06  N 
ATOM     26 H2   SER C   0     109.915 174.861  52.037  1.00 48.27 LIG 0.28  HD
ATOM     27 H1   SER C   0     108.990 175.981  52.075  1.00 48.27 LIG 0.28  HD
ATOM     28 H3   SER C   0     108.584 174.724  51.470  1.00 48.27 LIG 0.28  HD
ENDBRANCH 24 25
BRANCH 24 29
ATOM     29  CB  SER C   0     107.814 173.306  53.265  1.00 47.94 LIG 0.21  C 
BRANCH 29 30
ATOM     30 OG   SER C   0     107.940 172.794  51.951  1.00 49.79 LIG-0.40  OA
ATOM     31 HG   SER C   0     107.853 171.959  51.966  1.00 49.79 LIG 0.21  HD
ENDBRANCH 29 30
ENDBRANCH 24 29
ENDBRANCH 22 24
ENDBRANCH 1 20
TORSDOF 12
ENDMDL
MODEL 4
USER: ADFR SOLUTION from run 153
USER: SCORE 10.636094 LL:  -1.857 LR:  -8.964 RR:   0.000 FEB:  -5.384
USER: RMSD 5.808813
USER: SEED 152
USER: STATUS no improvement in best in 25 clusters for 5 generations
USER: GENES 14
USER: genes 0 Translation |==|  0.50461 0.67790 0.21348
USER: genes 1 Rotation |==|  0.27645 0.19678 0.48168 0.82825
USER: genes 2 Torsion [N]-CA--C-[N] |==|  0.97898
USER: genes 3 Torsion [C]-N--CA-[C] |==|  0.80356
USER: genes 4 Torsion [N]-CA--C-[O] |==|  0.16748
USER: genes 5 Torsion [N]-CA--CB-[CG] |==|  0.76705
USER: genes 6 Torsion [CA]-CB--CG-[CD2] |==|  0.54817
USER: genes 7 Torsion [C]-CA--CB-[CG] |==|  0.24469
USER: genes 8 Torsion [CA]-CB--CG-[CD1] |==|  0.74140
USER: genes 9 Torsion [C]-CA--N-[C] |==|  0.68976
USER: genes 10 Torsion [N]-C--CA-[N] |==|  0.46682
USER: genes 11 Torsion [C]-CA--N-[H2] |==|  0.80485
USER: genes 12 Torsion [C]-CA--CB-[OG] |==|  0.57907
USER: genes 13 Torsion [CA]-CB--OG-[HG] |==|  0.19952
ROOT
ATOM      1  CA  PHE C   1     109.424 176.271  54.881  1.00 43.43 LIG 0.18  C 
ENDROOT
BRANCH 1 2
ATOM      2  C   PHE C   1     109.417 174.935  54.154  1.00 43.95 LIG 0.24  C 
ATOM      3 O    PHE C   1     110.468 174.296  54.036  1.00 42.64 LIG-0.27  OA
ATOM      4  N   LEU C   2     108.262 174.500  53.665  1.00 45.78 LIG-0.35  N 
ATOM      5 H    LEU C   2     107.499 174.862  53.831  1.00 45.78 LIG 0.16  HD
BRANCH 4 6
ATOM      6  CA  LEU C   2     108.206 173.346  52.789  1.00 46.28 LIG 0.16  C 
BRANCH 6 7
ATOM      7  C   LEU C   2     108.814 173.733  51.446  1.00 47.91 LIG 0.22  C 
ATOM      8 O    LEU C   2     109.983 174.111  51.368  1.00 50.38 LIG-0.29  OA
ENDBRANCH 6 7
BRANCH 6 9
ATOM      9  CB  LEU C   2     106.761 172.874  52.617  1.00 44.46 LIG 0.04  C 
BRANCH 9 10
ATOM     10  CG  LEU C   2     106.235 171.950  53.715  1.00 41.86 LIG-0.02  C 
ATOM     11  CD2 LEU C   2     104.989 171.221  53.240  1.00 43.32 LIG 0.01  C 
ATOM     12  CD1 LEU C   2     105.948 172.740  54.980  1.00 39.91 LIG 0.01  C 
ENDBRANCH 9 10
ENDBRANCH 6 9
ENDBRANCH 4 6
ENDBRANCH 1 2
BRANCH 1 13
ATOM     13  CB  PHE C   1     109.846 176.122  56.344  1.00 40.74 LIG 0.07  C 
BRANCH 13 14
ATOM     14  CG  PHE C   1     111.326 176.208  56.535  1.00 40.58 LIG-0.06  A 
ATOM     15  CD1 PHE C   1     112.102 175.062  56.543  1.00 41.26 LIG 0.01  A 
ATOM     16  CE1 PHE C   1     113.461 175.133  56.740  1.00 41.59 LIG 0.00  A 
ATOM     17  CZ  PHE C   1     114.061 176.358  56.942  1.00 39.95 LIG 0.00  A 
ATOM     18  CE2 PHE C   1     113.297 177.510  56.953  1.00 40.65 LIG 0.00  A 
ATOM     19  CD2 PHE C   1     111.938 177.431  56.756  1.00 39.59 LIG 0.01  A 
ENDBRANCH 13 14
ENDBRANCH 1 13
BRANCH 1 20
ATOM     20  N   PHE C   1     108.155 176.980  54.785  1.00 44.33 LIG-0.35  N 
ATOM     21 H    PHE C   1     107.511 176.604  55.212  1.00 44.33 LIG 0.16  HD
ATOM     22  C   SER C   0     108.019 178.111  54.094  1.00 45.23 LIG 0.25  C 
ATOM     23 O    SER C   0     108.931 178.611  53.432  1.00 45.89 LIG-0.27  OA
BRANCH 22 24
ATOM     24  CA  SER C   0     106.648 178.774  54.158  1.00 46.83 LIG 0.30  C 
BRANCH 24 25
ATOM     25  N   SER C   0     106.690 180.126  53.609  1.00 48.27 LIG-0.06  N 
ATOM     26 H2   SER C   0     107.147 180.656  54.159  1.00 48.27 LIG 0.28  HD
ATOM     27 H1   SER C   0     105.861 180.437  53.520  1.00 48.27 LIG 0.28  HD
ATOM     28 H3   SER C   0     107.088 180.111  52.813  1.00 48.27 LIG 0.28  HD
ENDBRANCH 24 25
BRANCH 24 29
ATOM     29  CB  SER C   0     105.621 177.918  53.411  1.00 47.94 LIG 0.21  C 
BRANCH 29 30
ATOM     30 OG   SER C   0     104.575 178.715  52.886  1.00 49.79 LIG-0.40  OA
ATOM     31 HG   SER C   0     104.863 179.165  52.238  1.00 49.79 LIG 0.21  HD
ENDBRANCH 29 30
ENDBRANCH 24 29
ENDBRANCH 22 24
ENDBRANCH 1 20
TORSDOF 12
ENDMDL
MODEL 5
USER: ADFR SOLUTION from run 58
USER: SCORE 10.448253 LL:  -1.671 LR:  -8.944 RR:   0.000 FEB:  -5.365
USER: RMSD 7.409690
USER: SEED 57
USER: STATUS no improvement in best in 21 clusters for 5 generations
USER: GENES 14
USER: genes 0 Translation |==|  0.48310 0.59457 0.28675
USER: genes 1 Rotation |==|  0.58299 0.07970 0.24221 0.50218
USER: genes 2 Torsion [N]-CA--C-[N] |==|  0.29896
USER: genes 3 Torsion [C]-N--CA-[C] |==|  0.52460
USER: genes 4 Torsion [N]-CA--C-[O] |==|  0.74332
USER: genes 5 Torsion [N]-CA--CB-[CG] |==|  0.10415
USER: genes 6 Torsion [CA]-CB--CG-[CD2] |==|  0.71061
USER: genes 7 Torsion [C]-CA--CB-[CG] |==|  0.76445
USER: genes 8 Torsion [CA]-CB--CG-[CD1] |==|  0.07337
USER: genes 9 Torsion [C]-CA--N-[C] |==|  0.74018
USER: genes 10 Torsion [N]-C--CA-[N] |==|  0.96475
USER: genes 11 Torsion [C]-CA--N-[H2] |==|  0.21884
USER: genes 12 Torsion [C]-CA--CB-[OG] |==|  0.49467
USER: genes 13 Torsion [CA]-CB--OG-[HG] |==|  0.34835
ROOT
ATOM      1  CA  PHE C   1     109.021 175.084  56.090  1.00 43.43 LIG 0.18  C 
ENDROOT
BRANCH 1 2
ATOM      2  C   PHE C   1     110.460 174.633  56.290  1.00 43.95 LIG 0.24  C 
ATOM      3 O    PHE C   1     111.053 174.052  55.375  1.00 42.64 LIG-0.27  OA
ATOM      4  N   LEU C   2     111.034 174.886  57.461  1.00 45.78 LIG-0.35  N 
ATOM      5 H    LEU C   2     110.690 175.387  58.070  1.00 45.78 LIG 0.16  HD
BRANCH 4 6
ATOM      6  CA  LEU C   2     112.322 174.315  57.803  1.00 46.28 LIG 0.16  C 
BRANCH 6 7
ATOM      7  C   LEU C   2     112.601 174.606  59.273  1.00 47.91 LIG 0.22  C 
ATOM      8 O    LEU C   2     113.228 175.611  59.609  1.00 50.38 LIG-0.29  OA
ENDBRANCH 6 7
BRANCH 6 9
ATOM      9  CB  LEU C   2     113.420 174.902  56.915  1.00 44.46 LIG 0.04  C 
BRANCH 9 10
ATOM     10  CG  LEU C   2     113.272 176.385  56.578  1.00 41.86 LIG-0.02  C 
ATOM     11  CD2 LEU C   2     112.782 176.558  55.150  1.00 43.32 LIG 0.01  C 
ATOM     12  CD1 LEU C   2     114.591 177.111  56.786  1.00 39.91 LIG 0.01  C 
ENDBRANCH 9 10
ENDBRANCH 6 9
ENDBRANCH 4 6
ENDBRANCH 1 2
BRANCH 1 13
ATOM     13  CB  PHE C   1     108.125 173.936  55.623  1.00 40.74 LIG 0.07  C 
BRANCH 13 14
ATOM     14  CG  PHE C   1     108.160 173.736  54.142  1.00 40.58 LIG-0.06  A 
ATOM     15  CD1 PHE C   1     109.272 174.112  53.408  1.00 41.26 LIG 0.01  A 
ATOM     16  CE1 PHE C   1     109.302 173.950  52.043  1.00 41.59 LIG 0.00  A 
ATOM     17  CZ  PHE C   1     108.211 173.415  51.391  1.00 39.95 LIG 0.00  A 
ATOM     18  CE2 PHE C   1     107.088 173.049  52.109  1.00 40.65 LIG 0.00  A 
ATOM     19  CD2 PHE C   1     107.064 173.215  53.475  1.00 39.59 LIG 0.01  A 
ENDBRANCH 13 14
ENDBRANCH 1 13
BRANCH 1 20
ATOM     20  N   PHE C   1     108.899 176.226  55.194  1.00 44.33 LIG-0.35  N 
ATOM     21 H    PHE C   1     108.850 176.014  54.362  1.00 44.33 LIG 0.16  HD
ATOM     22  C   SER C   0     108.868 177.482  55.636  1.00 45.23 LIG 0.25  C 
ATOM     23 O    SER C   0     109.003 177.782  56.824  1.00 45.89 LIG-0.27  OA
BRANCH 22 24
ATOM     24  CA  SER C   0     108.654 178.559  54.580  1.00 46.83 LIG 0.30  C 
BRANCH 24 25
ATOM     25  N   SER C   0     108.820 178.018  53.234  1.00 48.27 LIG-0.06  N 
ATOM     26 H2   SER C   0     108.083 177.577  52.998  1.00 48.27 LIG 0.28  HD
ATOM     27 H1   SER C   0     109.515 177.462  53.221  1.00 48.27 LIG 0.28  HD
ATOM     28 H3   SER C   0     108.963 178.684  52.662  1.00 48.27 LIG 0.28  HD
ENDBRANCH 24 25
BRANCH 24 29
ATOM     29  CB  SER C   0     107.264 179.181  54.746  1.00 47.94 LIG 0.21  C 
BRANCH 29 30
ATOM     30 OG   SER C   0     107.051 180.218  53.804  1.00 49.79 LIG-0.40  OA
ATOM     31 HG   SER C   0     106.348 180.064  53.373  1.00 49.79 LIG 0.21  HD
ENDBRANCH 29 30
ENDBRANCH 24 29
ENDBRANCH 22 24
ENDBRANCH 1 20
TORSDOF 12
ENDMDL
MODEL 6
USER: ADFR SOLUTION from run 180
USER: SCORE 10.370951 LL:  -1.878 LR:  -8.879 RR:   0.000 FEB:  -5.299
USER: RMSD 7.804052
USER: SEED 179
USER: STATUS no improvement in best in 27 clusters for 5 generations
USER: GENES 14
USER: genes 0 Translation |==|  0.61656 0.63219 0.22684
USER: genes 1 Rotation |==|  0.15285 0.27925 0.77068 0.58654
USER: genes 2 Torsion [N]-CA--C-[N] |==|  0.51086
USER: genes 3 Torsion [C]-N--CA-[C] |==|  0.85033
USER: genes 4 Torsion [N]-CA--C-[O] |==|  0.52185
USER: genes 5 Torsion [N]-CA--CB-[CG] |==|  0.52790
USER: genes 6 Torsion [CA]-CB--CG-[CD2] |==|  0.63588
USER: genes 7 Torsion [C]-CA--CB-[CG] |==|  0.70821
USER: genes 8 Torsion [CA]-CB--CG-[CD1] |==|  0.78627
USER: genes 9 Torsion [C]-CA--N-[C] |==|  0.66656
USER: genes 10 Torsion [N]-C--CA-[N] |==|  0.29760
USER: genes 11 Torsion [C]-CA--N-[H2] |==|  0.90385
USER: genes 12 Torsion [C]-CA--CB-[OG] |==|  0.73331
USER: genes 13 Torsion [CA]-CB--OG-[HG] |==|  0.36813
ROOT
ATOM      1  CA  PHE C   1     111.524 175.620  55.102  1.00 43.43 LIG 0.18  C 
ENDROOT
BRANCH 1 2
ATOM      2  C   PHE C   1     111.989 175.008  56.415  1.00 43.95 LIG 0.24  C 
ATOM      3 O    PHE C   1     111.206 174.325  57.084  1.00 42.64 LIG-0.27  OA
ATOM      4  N   LEU C   2     113.240 175.235  56.797  1.00 45.78 LIG-0.35  N 
ATOM      5 H    LEU C   2     113.838 175.605  56.301  1.00 45.78 LIG 0.16  HD
BRANCH 4 6
ATOM      6  CA  LEU C   2     113.698 174.862  58.122  1.00 46.28 LIG 0.16  C 
BRANCH 6 7
ATOM      7  C   LEU C   2     112.759 175.487  59.147  1.00 47.91 LIG 0.22  C 
ATOM      8 O    LEU C   2     113.017 175.438  60.351  1.00 50.38 LIG-0.29  OA
ENDBRANCH 6 7
BRANCH 6 9
ATOM      9  CB  LEU C   2     115.136 175.334  58.342  1.00 44.46 LIG 0.04  C 
BRANCH 9 10
ATOM     10  CG  LEU C   2     115.819 174.799  59.601  1.00 41.86 LIG-0.02  C 
ATOM     11  CD2 LEU C   2     116.468 175.935  60.374  1.00 43.32 LIG 0.01  C 
ATOM     12  CD1 LEU C   2     116.843 173.738  59.240  1.00 39.91 LIG 0.01  C 
ENDBRANCH 9 10
ENDBRANCH 6 9
ENDBRANCH 4 6
ENDBRANCH 1 2
BRANCH 1 13
ATOM     13  CB  PHE C   1     111.839 177.114  55.027  1.00 40.74 LIG 0.07  C 
BRANCH 13 14
ATOM     14  CG  PHE C   1     110.632 177.975  55.220  1.00 40.58 LIG-0.06  A 
ATOM     15  CD1 PHE C   1     109.717 178.143  54.195  1.00 41.26 LIG 0.01  A 
ATOM     16  CE1 PHE C   1     108.616 178.950  54.359  1.00 41.59 LIG 0.00  A 
ATOM     17  CZ  PHE C   1     108.422 179.610  55.554  1.00 39.95 LIG 0.00  A 
ATOM     18  CE2 PHE C   1     109.335 179.464  56.581  1.00 40.65 LIG 0.00  A 
ATOM     19  CD2 PHE C   1     110.435 178.656  56.410  1.00 39.59 LIG 0.01  A 
ENDBRANCH 13 14
ENDBRANCH 1 13
BRANCH 1 20
ATOM     20  N   PHE C   1     110.112 175.380  54.829  1.00 44.33 LIG-0.35  N 
ATOM     21 H    PHE C   1     109.582 175.699  55.426  1.00 44.33 LIG 0.16  HD
ATOM     22  C   SER C   0     109.694 174.725  53.747  1.00 45.23 LIG 0.25  C 
ATOM     23 O    SER C   0     110.463 174.215  52.929  1.00 45.89 LIG-0.27  OA
BRANCH 22 24
ATOM     24  CA  SER C   0     108.184 174.630  53.564  1.00 46.83 LIG 0.30  C 
BRANCH 24 25
ATOM     25  N   SER C   0     107.728 175.500  52.484  1.00 48.27 LIG-0.06  N 
ATOM     26 H2   SER C   0     108.225 176.238  52.468  1.00 48.27 LIG 0.28  HD
ATOM     27 H1   SER C   0     106.876 175.720  52.619  1.00 48.27 LIG 0.28  HD
ATOM     28 H3   SER C   0     107.804 175.074  51.707  1.00 48.27 LIG 0.28  HD
ENDBRANCH 24 25
BRANCH 24 29
ATOM     29  CB  SER C   0     107.785 173.176  53.293  1.00 47.94 LIG 0.21  C 
BRANCH 29 30
ATOM     30 OG   SER C   0     107.663 172.928  51.904  1.00 49.79 LIG-0.40  OA
ATOM     31 HG   SER C   0     108.070 172.220  51.709  1.00 49.79 LIG 0.21  HD
ENDBRANCH 29 30
ENDBRANCH 24 29
ENDBRANCH 22 24
ENDBRANCH 1 20
TORSDOF 12
ENDMDL
MODEL 7
USER: ADFR SOLUTION from run 64
USER: SCORE 10.627670 LL:  -2.112 LR:  -8.851 RR:   0.000 FEB:  -5.271
USER: RMSD 6.610709
USER: SEED 63
USER: STATUS no improvement in best in 32 clusters for 5 generations
USER: GENES 14
USER: genes 0 Translation |==|  0.56551 0.64686 0.25213
USER: genes 1 Rotation |==|  0.94475 0.38721 0.36784 0.64836
USER: genes 2 Torsion [N]-CA--C-[N] |==|  0.88529
USER: genes 3 Torsion [C]-N--CA-[C] |==|  0.64091
USER: genes 4 Torsion [N]-CA--C-[O] |==|  0.91130
USER: genes 5 Torsion [N]-CA--CB-[CG] |==|  0.76458
USER: genes 6 Torsion [CA]-CB--CG-[CD2] |==|  0.18891
USER: genes 7 Torsion [C]-CA--CB-[CG] |==|  0.18691
USER: genes 8 Torsion [CA]-CB--CG-[CD1] |==|  0.62965
USER: genes 9 Torsion [C]-CA--N-[C] |==|  0.70000
USER: genes 10 Torsion [N]-C--CA-[N] |==|  0.88099
USER: genes 11 Torsion [C]-CA--N-[H2] |==|  0.12719
USER: genes 12 Torsion [C]-CA--CB-[OG] |==|  0.81185
USER: genes 13 Torsion [CA]-CB--OG-[HG] |==|  0.01988
ROOT
ATOM      1  CA  PHE C   1     110.566 175.829  55.519  1.00 43.43 LIG 0.18  C 
ENDROOT
BRANCH 1 2
ATOM      2  C   PHE C   1     110.154 177.132  56.187  1.00 43.95 LIG 0.24  C 
ATOM      3 O    PHE C   1     110.156 177.216  57.419  1.00 42.64 LIG-0.27  OA
ATOM      4  N   LEU C   2     109.800 178.145  55.405  1.00 45.78 LIG-0.35  N 
ATOM      5 H    LEU C   2     109.898 178.155  54.551  1.00 45.78 LIG 0.16  HD
BRANCH 4 6
ATOM      6  CA  LEU C   2     109.203 179.346  55.959  1.00 46.28 LIG 0.16  C 
BRANCH 6 7
ATOM      7  C   LEU C   2     107.930 179.652  55.179  1.00 47.91 LIG 0.22  C 
ATOM      8 O    LEU C   2     107.838 179.368  53.984  1.00 50.38 LIG-0.29  OA
ENDBRANCH 6 7
BRANCH 6 9
ATOM      9  CB  LEU C   2     110.184 180.516  55.880  1.00 44.46 LIG 0.04  C 
BRANCH 9 10
ATOM     10  CG  LEU C   2     111.182 180.617  57.033  1.00 41.86 LIG-0.02  C 
ATOM     11  CD2 LEU C   2     112.165 179.459  56.984  1.00 43.32 LIG 0.01  C 
ATOM     12  CD1 LEU C   2     110.454 180.650  58.365  1.00 39.91 LIG 0.01  C 
ENDBRANCH 9 10
ENDBRANCH 6 9
ENDBRANCH 4 6
ENDBRANCH 1 2
BRANCH 1 13
ATOM     13  CB  PHE C   1     112.040 175.840  55.109  1.00 40.74 LIG 0.07  C 
BRANCH 13 14
ATOM     14  CG  PHE C   1     112.970 175.858  56.279  1.00 40.58 LIG-0.06  A 
ATOM     15  CD1 PHE C   1     114.039 176.736  56.314  1.00 41.26 LIG 0.01  A 
ATOM     16  CE1 PHE C   1     114.911 176.743  57.377  1.00 41.59 LIG 0.00  A 
ATOM     17  CZ  PHE C   1     114.727 175.858  58.419  1.00 39.95 LIG 0.00  A 
ATOM     18  CE2 PHE C   1     113.673 174.965  58.391  1.00 40.65 LIG 0.00  A 
ATOM     19  CD2 PHE C   1     112.805 174.964  57.324  1.00 39.59 LIG 0.01  A 
ENDBRANCH 13 14
ENDBRANCH 1 13
BRANCH 1 20
ATOM     20  N   PHE C   1     109.722 175.476  54.385  1.00 44.33 LIG-0.35  N 
ATOM     21 H    PHE C   1     109.844 175.970  53.692  1.00 44.33 LIG 0.16  HD
ATOM     22  C   SER C   0     108.845 174.475  54.431  1.00 45.23 LIG 0.25  C 
ATOM     23 O    SER C   0     108.630 173.812  55.448  1.00 45.89 LIG-0.27  OA
BRANCH 22 24
ATOM     24  CA  SER C   0     108.097 174.180  53.136  1.00 46.83 LIG 0.30  C 
BRANCH 24 25
ATOM     25  N   SER C   0     107.665 175.413  52.484  1.00 48.27 LIG-0.06  N 
ATOM     26 H2   SER C   0     108.337 175.997  52.479  1.00 48.27 LIG 0.28  HD
ATOM     27 H1   SER C   0     106.976 175.758  52.928  1.00 48.27 LIG 0.28  HD
ATOM     28 H3   SER C   0     107.419 175.236  51.647  1.00 48.27 LIG 0.28  HD
ENDBRANCH 24 25
BRANCH 24 29
ATOM     29  CB  SER C   0     108.984 173.354  52.200  1.00 47.94 LIG 0.21  C 
BRANCH 29 30
ATOM     30 OG   SER C   0     110.088 174.112  51.739  1.00 49.79 LIG-0.40  OA
ATOM     31 HG   SER C   0     110.109 174.849  52.141  1.00 49.79 LIG 0.21  HD
ENDBRANCH 29 30
ENDBRANCH 24 29
ENDBRANCH 22 24
ENDBRANCH 1 20
TORSDOF 12
ENDMDL
MODEL 8
USER: ADFR SOLUTION from run 182
USER: SCORE 10.643500 LL:  -1.863 LR:  -8.831 RR:   0.000 FEB:  -5.251
USER: RMSD 7.906849
USER: SEED 181
USER: STATUS no improvement in best in 10 clusters for 5 generations
USER: GENES 14
USER: genes 0 Translation |==|  0.56347 0.77692 0.19520
USER: genes 1 Rotation |==|  0.22688 0.16430 0.74927 0.52412
USER: genes 2 Torsion [N]-CA--C-[N] |==|  0.35213
USER: genes 3 Torsion [C]-N--CA-[C] |==|  0.56140
USER: genes 4 Torsion [N]-CA--C-[O] |==|  0.87847
USER: genes 5 Torsion [N]-CA--CB-[CG] |==|  0.59002
USER: genes 6 Torsion [CA]-CB--CG-[CD2] |==|  0.74255
USER: genes 7 Torsion [C]-CA--CB-[CG] |==|  0.72767
USER: genes 8 Torsion [CA]-CB--CG-[CD1] |==|  0.23734
USER: genes 9 Torsion [C]-CA--N-[C] |==|  0.84115
USER: genes 10 Torsion [N]-C--CA-[N] |==|  0.08007
USER: genes 11 Torsion [C]-CA--N-[H2] |==|  0.36819
USER: genes 12 Torsion [C]-CA--CB-[OG] |==|  0.85620
USER: genes 13 Torsion [CA]-CB--OG-[HG] |==|  0.09982
ROOT
ATOM      1  CA  PHE C   1     110.528 177.682  54.580  1.00 43.43 LIG 0.18  C 
ENDROOT
BRANCH 1 2
ATOM      2  C   PHE C   1     111.204 177.188  55.850  1.00 43.95 LIG 0.24  C 
ATOM      3 O    PHE C   1     110.516 176.883  56.830  1.00 42.64 LIG-0.27  OA
ATOM      4  N   LEU C   2     112.529 177.103  55.856  1.00 45.78 LIG-0.35  N 
ATOM      5 H    LEU C   2     113.023 177.196  55.158  1.00 45.78 LIG 0.16  HD
BRANCH 4 6
ATOM      6  CA  LEU C   2     113.257 176.839  57.082  1.00 46.28 LIG 0.16  C 
BRANCH 6 7
ATOM      7  C   LEU C   2     114.688 177.334  56.907  1.00 47.91 LIG 0.22  C 
ATOM      8 O    LEU C   2     115.309 177.112  55.867  1.00 50.38 LIG-0.29  OA
ENDBRANCH 6 7
BRANCH 6 9
ATOM      9  CB  LEU C   2     113.235 175.345  57.407  1.00 44.46 LIG 0.04  C 
BRANCH 9 10
ATOM     10  CG  LEU C   2     113.234 174.994  58.895  1.00 41.86 LIG-0.02  C 
ATOM     11  CD2 LEU C   2     114.656 174.785  59.389  1.00 43.32 LIG 0.01  C 
ATOM     12  CD1 LEU C   2     112.388 173.758  59.148  1.00 39.91 LIG 0.01  C 
ENDBRANCH 9 10
ENDBRANCH 6 9
ENDBRANCH 4 6
ENDBRANCH 1 2
BRANCH 1 13
ATOM     13  CB  PHE C   1     109.970 179.096  54.744  1.00 40.74 LIG 0.07  C 
BRANCH 13 14
ATOM     14  CG  PHE C   1     108.508 179.113  55.054  1.00 40.58 LIG-0.06  A 
ATOM     15  CD1 PHE C   1     108.065 178.988  56.360  1.00 41.26 LIG 0.01  A 
ATOM     16  CE1 PHE C   1     106.720 178.981  56.650  1.00 41.59 LIG 0.00  A 
ATOM     17  CZ  PHE C   1     105.798 179.090  55.630  1.00 39.95 LIG 0.00  A 
ATOM     18  CE2 PHE C   1     106.226 179.199  54.320  1.00 40.65 LIG 0.00  A 
ATOM     19  CD2 PHE C   1     107.572 179.205  54.037  1.00 39.59 LIG 0.01  A 
ENDBRANCH 13 14
ENDBRANCH 1 13
BRANCH 1 20
ATOM     20  N   PHE C   1     109.494 176.777  54.094  1.00 44.33 LIG-0.35  N 
ATOM     21 H    PHE C   1     108.720 177.142  54.015  1.00 44.33 LIG 0.16  HD
ATOM     22  C   SER C   0     109.740 175.501  53.803  1.00 45.23 LIG 0.25  C 
ATOM     23 O    SER C   0     110.838 174.968  53.980  1.00 45.89 LIG-0.27  OA
BRANCH 22 24
ATOM     24  CA  SER C   0     108.573 174.708  53.228  1.00 46.83 LIG 0.30  C 
BRANCH 24 25
ATOM     25  N   SER C   0     107.657 175.576  52.493  1.00 48.27 LIG-0.06  N 
ATOM     26 H2   SER C   0     107.465 175.206  51.706  1.00 48.27 LIG 0.28  HD
ATOM     27 H1   SER C   0     108.040 176.368  52.362  1.00 48.27 LIG 0.28  HD
ATOM     28 H3   SER C   0     106.909 175.683  52.962  1.00 48.27 LIG 0.28  HD
ENDBRANCH 24 25
BRANCH 24 29
ATOM     29  CB  SER C   0     109.099 173.588  52.326  1.00 47.94 LIG 0.21  C 
BRANCH 29 30
ATOM     30 OG   SER C   0     110.009 174.090  51.363  1.00 49.79 LIG-0.40  OA
ATOM     31 HG   SER C   0     110.464 174.709  51.703  1.00 49.79 LIG 0.21  HD
ENDBRANCH 29 30
ENDBRANCH 24 29
ENDBRANCH 22 24
ENDBRANCH 1 20
TORSDOF 12
ENDMDL
MODEL 9
USER: ADFR SOLUTION from run 50
USER: SCORE 10.391072 LL:  -2.263 LR:  -8.771 RR:   0.000 FEB:  -5.192
USER: RMSD 6.423061
USER: SEED 49
USER: STATUS no improvement in best in 31 clusters for 5 generations
USER: GENES 14
USER: genes 0 Translation |==|  0.55046 0.60606 0.30209
USER: genes 1 Rotation |==|  0.87705 0.29223 0.36121 0.71308
USER: genes 2 Torsion [N]-CA--C-[N] |==|  0.82778
USER: genes 3 Torsion [C]-N--CA-[C] |==|  0.17273
USER: genes 4 Torsion [N]-CA--C-[O] |==|  0.52565
USER: genes 5 Torsion [N]-CA--CB-[CG] |==|  0.79247
USER: genes 6 Torsion [CA]-CB--CG-[CD2] |==|  0.59636
USER: genes 7 Torsion [C]-CA--CB-[CG] |==|  0.11986
USER: genes 8 Torsion [CA]-CB--CG-[CD1] |==|  0.23662
USER: genes 9 Torsion [C]-CA--N-[C] |==|  0.21077
USER: genes 10 Torsion [N]-C--CA-[N] |==|  0.31813
USER: genes 11 Torsion [C]-CA--N-[H2] |==|  0.70471
USER: genes 12 Torsion [C]-CA--CB-[OG] |==|  0.45195
USER: genes 13 Torsion [CA]-CB--OG-[HG] |==|  0.58235
ROOT
ATOM      1  CA  PHE C   1     110.284 175.247  56.343  1.00 43.43 LIG 0.18  C 
ENDROOT
BRANCH 1 2
ATOM      2  C   PHE C   1     110.382 176.763  56.426  1.00 43.95 LIG 0.24  C 
ATOM      3 O    PHE C   1     110.160 177.334  57.499  1.00 42.64 LIG-0.27  OA
ATOM      4  N   LEU C   2     110.707 177.426  55.322  1.00 45.78 LIG-0.35  N 
ATOM      5 H    LEU C   2     110.979 177.053  54.596  1.00 45.78 LIG 0.16  HD
BRANCH 4 6
ATOM      6  CA  LEU C   2     110.623 178.872  55.264  1.00 46.28 LIG 0.16  C 
BRANCH 6 7
ATOM      7  C   LEU C   2     111.588 179.451  56.292  1.00 47.91 LIG 0.22  C 
ATOM      8 O    LEU C   2     111.581 180.654  56.557  1.00 50.38 LIG-0.29  OA
ENDBRANCH 6 7
BRANCH 6 9
ATOM      9  CB  LEU C   2     109.192 179.336  55.540  1.00 44.46 LIG 0.04  C 
BRANCH 9 10
ATOM     10  CG  LEU C   2     108.198 179.122  54.398  1.00 41.86 LIG-0.02  C 
ATOM     11  CD2 LEU C   2     107.185 180.254  54.359  1.00 43.32 LIG 0.01  C 
ATOM     12  CD1 LEU C   2     107.503 177.780  54.545  1.00 39.91 LIG 0.01  C 
ENDBRANCH 9 10
ENDBRANCH 6 9
ENDBRANCH 4 6
ENDBRANCH 1 2
BRANCH 1 13
ATOM     13  CB  PHE C   1     111.631 174.607  56.006  1.00 40.74 LIG 0.07  C 
BRANCH 13 14
ATOM     14  CG  PHE C   1     112.769 175.210  56.764  1.00 40.58 LIG-0.06  A 
ATOM     15  CD1 PHE C   1     113.082 174.762  58.036  1.00 41.26 LIG 0.01  A 
ATOM     16  CE1 PHE C   1     114.114 175.327  58.748  1.00 41.59 LIG 0.00  A 
ATOM     17  CZ  PHE C   1     114.843 176.359  58.195  1.00 39.95 LIG 0.00  A 
ATOM     18  CE2 PHE C   1     114.533 176.827  56.933  1.00 40.65 LIG 0.00  A 
ATOM     19  CD2 PHE C   1     113.499 176.258  56.226  1.00 39.59 LIG 0.01  A 
ENDBRANCH 13 14
ENDBRANCH 1 13
BRANCH 1 20
ATOM     20  N   PHE C   1     109.254 174.791  55.419  1.00 44.33 LIG-0.35  N 
ATOM     21 H    PHE C   1     108.542 174.502  55.804  1.00 44.33 LIG 0.16  HD
ATOM     22  C   SER C   0     109.415 174.825  54.097  1.00 45.23 LIG 0.25  C 
ATOM     23 O    SER C   0     110.463 175.180  53.554  1.00 45.89 LIG-0.27  OA
BRANCH 22 24
ATOM     24  CA  SER C   0     108.214 174.390  53.265  1.00 46.83 LIG 0.30  C 
BRANCH 24 25
ATOM     25  N   SER C   0     107.683 175.503  52.484  1.00 48.27 LIG-0.06  N 
ATOM     26 H2   SER C   0     106.918 175.781  52.845  1.00 48.27 LIG 0.28  HD
ATOM     27 H1   SER C   0     107.536 175.236  51.648  1.00 48.27 LIG 0.28  HD
ATOM     28 H3   SER C   0     108.270 176.172  52.482  1.00 48.27 LIG 0.28  HD
ENDBRANCH 24 25
BRANCH 24 29
ATOM     29  CB  SER C   0     108.609 173.227  52.351  1.00 47.94 LIG 0.21  C 
BRANCH 29 30
ATOM     30 OG   SER C   0     107.466 172.545  51.866  1.00 49.79 LIG-0.40  OA
ATOM     31 HG   SER C   0     107.657 171.739  51.730  1.00 49.79 LIG 0.21  HD
ENDBRANCH 29 30
ENDBRANCH 24 29
ENDBRANCH 22 24
ENDBRANCH 1 20
TORSDOF 12
ENDMDL
MODEL 10
USER: ADFR SOLUTION from run 101
USER: SCORE 10.127488 LL:  -1.981 LR:  -8.721 RR:   0.000 FEB:  -5.142
USER: RMSD 7.272292
USER: SEED 100
USER: STATUS no improvement in best in 19 clusters for 5 generations
USER: GENES 14
USER: genes 0 Translation |==|  0.54921 0.54768 0.36293
USER: genes 1 Rotation |==|  0.79177 0.14790 0.33591 0.61819
USER: genes 2 Torsion [N]-CA--C-[N] |==|  0.64698
USER: genes 3 Torsion [C]-N--CA-[C] |==|  0.81562
USER: genes 4 Torsion [N]-CA--C-[O] |==|  0.58524
USER: genes 5 Torsion [N]-CA--CB-[CG] |==|  0.74167
USER: genes 6 Torsion [CA]-CB--CG-[CD2] |==|  0.47080
USER: genes 7 Torsion [C]-CA--CB-[CG] |==|  0.24444
USER: genes 8 Torsion [CA]-CB--CG-[CD1] |==|  0.90140
USER: genes 9 Torsion [C]-CA--N-[C] |==|  0.15279
USER: genes 10 Torsion [N]-C--CA-[N] |==|  0.34563
USER: genes 11 Torsion [C]-CA--N-[H2] |==|  0.28148
USER: genes 12 Torsion [C]-CA--CB-[OG] |==|  0.81041
USER: genes 13 Torsion [CA]-CB--OG-[HG] |==|  0.82839
ROOT
ATOM      1  CA  PHE C   1     110.261 174.415  57.347  1.00 43.43 LIG 0.18  C 
ENDROOT
BRANCH 1 2
ATOM      2  C   PHE C   1     111.325 175.471  57.607  1.00 43.95 LIG 0.24  C 
ATOM      3 O    PHE C   1     110.999 176.659  57.699  1.00 42.64 LIG-0.27  OA
ATOM      4  N   LEU C   2     112.584 175.068  57.727  1.00 45.78 LIG-0.35  N 
ATOM      5 H    LEU C   2     112.825 174.244  57.784  1.00 45.78 LIG 0.16  HD
BRANCH 4 6
ATOM      6  CA  LEU C   2     113.676 176.021  57.772  1.00 46.28 LIG 0.16  C 
BRANCH 6 7
ATOM      7  C   LEU C   2     113.764 176.713  56.416  1.00 47.91 LIG 0.22  C 
ATOM      8 O    LEU C   2     114.845 177.111  55.980  1.00 50.38 LIG-0.29  OA
ENDBRANCH 6 7
BRANCH 6 9
ATOM      9  CB  LEU C   2     114.990 175.315  58.109  1.00 44.46 LIG 0.04  C 
BRANCH 9 10
ATOM     10  CG  LEU C   2     115.356 175.280  59.592  1.00 41.86 LIG-0.02  C 
ATOM     11  CD2 LEU C   2     116.529 174.341  59.825  1.00 43.32 LIG 0.01  C 
ATOM     12  CD1 LEU C   2     114.157 174.861  60.425  1.00 39.91 LIG 0.01  C 
ENDBRANCH 9 10
ENDBRANCH 6 9
ENDBRANCH 4 6
ENDBRANCH 1 2
BRANCH 1 13
ATOM     13  CB  PHE C   1     110.864 173.015  57.230  1.00 40.74 LIG 0.07  C 
BRANCH 13 14
ATOM     14  CG  PHE C   1     110.985 172.321  58.548  1.00 40.58 LIG-0.06  A 
ATOM     15  CD1 PHE C   1     111.292 173.034  59.693  1.00 41.26 LIG 0.01  A 
ATOM     16  CE1 PHE C   1     111.426 172.398  60.905  1.00 41.59 LIG 0.00  A 
ATOM     17  CZ  PHE C   1     111.262 171.031  60.984  1.00 39.95 LIG 0.00  A 
ATOM     18  CE2 PHE C   1     110.970 170.303  59.846  1.00 40.65 LIG 0.00  A 
ATOM     19  CD2 PHE C   1     110.838 170.946  58.636  1.00 39.59 LIG 0.01  A 
ENDBRANCH 13 14
ENDBRANCH 1 13
BRANCH 1 20
ATOM     20  N   PHE C   1     109.432 174.714  56.187  1.00 44.33 LIG-0.35  N 
ATOM     21 H    PHE C   1     108.588 174.729  56.354  1.00 44.33 LIG 0.16  HD
ATOM     22  C   SER C   0     109.947 174.943  54.980  1.00 45.23 LIG 0.25  C 
ATOM     23 O    SER C   0     111.152 174.858  54.734  1.00 45.89 LIG-0.27  OA
BRANCH 22 24
ATOM     24  CA  SER C   0     108.954 175.323  53.888  1.00 46.83 LIG 0.30  C 
BRANCH 24 25
ATOM     25  N   SER C   0     109.315 176.592  53.265  1.00 48.27 LIG-0.06  N 
ATOM     26 H2   SER C   0     109.713 176.437  52.484  1.00 48.27 LIG 0.28  HD
ATOM     27 H1   SER C   0     109.872 177.037  53.798  1.00 48.27 LIG 0.28  HD
ATOM     28 H3   SER C   0     108.581 177.078  53.133  1.00 48.27 LIG 0.28  HD
ENDBRANCH 24 25
BRANCH 24 29
ATOM     29  CB  SER C   0     108.880 174.207  52.842  1.00 47.94 LIG 0.21  C 
BRANCH 29 30
ATOM     30 OG   SER C   0     110.088 174.111  52.109  1.00 49.79 LIG-0.40  OA
ATOM     31 HG   SER C   0     110.223 174.829  51.696  1.00 49.79 LIG 0.21  HD
ENDBRANCH 29 30
ENDBRANCH 24 29
ENDBRANCH 22 24
ENDBRANCH 1 20
TORSDOF 12
ENDMDL
MODEL 11
USER: ADFR SOLUTION from run 75
USER: SCORE 9.928622 LL:  -1.758 LR:  -8.718 RR:   0.000 FEB:  -5.139
USER: RMSD 5.249671
USER: SEED 74
USER: STATUS no improvement in best in 19 clusters for 5 generations
USER: GENES 14
USER: genes 0 Translation |==|  0.64889 0.65282 0.29628
USER: genes 1 Rotation |==|  0.15966 0.26231 0.35507 0.73805
USER: genes 2 Torsion [N]-CA--C-[N] |==|  0.97351
USER: genes 3 Torsion [C]-N--CA-[C] |==|  0.67271
USER: genes 4 Torsion [N]-CA--C-[O] |==|  0.37047
USER: genes 5 Torsion [N]-CA--CB-[CG] |==|  0.40384
USER: genes 6 Torsion [CA]-CB--CG-[CD2] |==|  0.68103
USER: genes 7 Torsion [C]-CA--CB-[CG] |==|  0.29655
USER: genes 8 Torsion [CA]-CB--CG-[CD1] |==|  0.58679
USER: genes 9 Torsion [C]-CA--N-[C] |==|  0.20000
USER: genes 10 Torsion [N]-C--CA-[N] |==|  0.95270
USER: genes 11 Torsion [C]-CA--N-[H2] |==|  0.88657
USER: genes 12 Torsion [C]-CA--CB-[OG] |==|  0.87561
USER: genes 13 Torsion [CA]-CB--OG-[HG] |==|  0.60257
ROOT
ATOM      1  CA  PHE C   1     112.130 175.914  56.248  1.00 43.43 LIG 0.18  C 
ENDROOT
BRANCH 1 2
ATOM      2  C   PHE C   1     111.315 174.799  55.608  1.00 43.95 LIG 0.24  C 
ATOM      3 O    PHE C   1     111.634 173.621  55.799  1.00 42.64 LIG-0.27  OA
ATOM      4  N   LEU C   2     110.276 175.142  54.856  1.00 45.78 LIG-0.35  N 
ATOM      5 H    LEU C   2     109.962 175.941  54.799  1.00 45.78 LIG 0.16  HD
BRANCH 4 6
ATOM      6  CA  LEU C   2     109.577 174.159  54.051  1.00 46.28 LIG 0.16  C 
BRANCH 6 7
ATOM      7  C   LEU C   2     109.713 174.554  52.585  1.00 47.91 LIG 0.22  C 
ATOM      8 O    LEU C   2     110.023 173.721  51.733  1.00 50.38 LIG-0.29  OA
ENDBRANCH 6 7
BRANCH 6 9
ATOM      9  CB  LEU C   2     108.104 174.084  54.459  1.00 44.46 LIG 0.04  C 
BRANCH 9 10
ATOM     10  CG  LEU C   2     107.120 173.805  53.324  1.00 41.86 LIG-0.02  C 
ATOM     11  CD2 LEU C   2     106.202 174.998  53.115  1.00 43.32 LIG 0.01  C 
ATOM     12  CD1 LEU C   2     106.314 172.551  53.616  1.00 39.91 LIG 0.01  C 
ENDBRANCH 9 10
ENDBRANCH 6 9
ENDBRANCH 4 6
ENDBRANCH 1 2
BRANCH 1 13
ATOM     13  CB  PHE C   1     112.055 175.870  57.775  1.00 40.74 LIG 0.07  C 
BRANCH 13 14
ATOM     14  CG  PHE C   1     113.319 175.383  58.406  1.00 40.58 LIG-0.06  A 
ATOM     15  CD1 PHE C   1     113.284 174.682  59.599  1.00 41.26 LIG 0.01  A 
ATOM     16  CE1 PHE C   1     114.445 174.249  60.196  1.00 41.59 LIG 0.00  A 
ATOM     17  CZ  PHE C   1     115.662 174.524  59.608  1.00 39.95 LIG 0.00  A 
ATOM     18  CE2 PHE C   1     115.713 175.236  58.425  1.00 40.65 LIG 0.00  A 
ATOM     19  CD2 PHE C   1     114.548 175.666  57.833  1.00 39.59 LIG 0.01  A 
ENDBRANCH 13 14
ENDBRANCH 1 13
BRANCH 1 20
ATOM     20  N   PHE C   1     111.771 177.237  55.755  1.00 44.33 LIG-0.35  N 
ATOM     21 H    PHE C   1     112.363 177.591  55.241  1.00 44.33 LIG 0.16  HD
ATOM     22  C   SER C   0     110.625 177.835  56.080  1.00 45.23 LIG 0.25  C 
ATOM     23 O    SER C   0     109.811 177.349  56.868  1.00 45.89 LIG-0.27  OA
BRANCH 22 24
ATOM     24  CA  SER C   0     110.361 179.182  55.418  1.00 46.83 LIG 0.30  C 
BRANCH 24 25
ATOM     25  N   SER C   0     111.588 179.745  54.862  1.00 48.27 LIG-0.06  N 
ATOM     26 H2   SER C   0     112.261 179.607  55.428  1.00 48.27 LIG 0.28  HD
ATOM     27 H1   SER C   0     111.483 180.620  54.736  1.00 48.27 LIG 0.28  HD
ATOM     28 H3   SER C   0     111.769 179.354  54.084  1.00 48.27 LIG 0.28  HD
ENDBRANCH 24 25
BRANCH 24 29
ATOM     29  CB  SER C   0     109.295 179.026  54.329  1.00 47.94 LIG 0.21  C 
BRANCH 29 30
ATOM     30 OG   SER C   0     109.541 177.881  53.532  1.00 49.79 LIG-0.40  OA
ATOM     31 HG   SER C   0     109.338 178.047  52.734  1.00 49.79 LIG 0.21  HD
ENDBRANCH 29 30
ENDBRANCH 24 29
ENDBRANCH 22 24
ENDBRANCH 1 20
TORSDOF 12
ENDMDL
MODEL 12
USER: ADFR SOLUTION from run 147
USER: SCORE 10.361888 LL:  -1.972 LR:  -8.602 RR:   0.000 FEB:  -5.022
USER: RMSD 6.527068
USER: SEED 146
USER: STATUS no improvement in best in 12 clusters for 5 generations
USER: GENES 14
USER: genes 0 Translation |==|  0.63225 0.65379 0.32717
USER: genes 1 Rotation |==|  0.88978 0.24673 0.39067 0.64824
USER: genes 2 Torsion [N]-CA--C-[N] |==|  0.19446
USER: genes 3 Torsion [C]-N--CA-[C] |==|  0.59623
USER: genes 4 Torsion [N]-CA--C-[O] |==|  0.34842
USER: genes 5 Torsion [N]-CA--CB-[CG] |==|  0.08535
USER: genes 6 Torsion [CA]-CB--CG-[CD2] |==|  0.12302
USER: genes 7 Torsion [C]-CA--CB-[CG] |==|  0.17593
USER: genes 8 Torsion [CA]-CB--CG-[CD1] |==|  0.16209
USER: genes 9 Torsion [C]-CA--N-[C] |==|  0.76503
USER: genes 10 Torsion [N]-C--CA-[N] |==|  0.79016
USER: genes 11 Torsion [C]-CA--N-[H2] |==|  0.55923
USER: genes 12 Torsion [C]-CA--CB-[OG] |==|  0.62784
USER: genes 13 Torsion [CA]-CB--OG-[HG] |==|  0.28642
ROOT
ATOM      1  CA  PHE C   1     111.818 175.928  56.757  1.00 43.43 LIG 0.18  C 
ENDROOT
BRANCH 1 2
ATOM      2  C   PHE C   1     112.067 177.396  57.069  1.00 43.95 LIG 0.24  C 
ATOM      3 O    PHE C   1     113.208 177.857  56.971  1.00 42.64 LIG-0.27  OA
ATOM      4  N   LEU C   2     111.029 178.136  57.441  1.00 45.78 LIG-0.35  N 
ATOM      5 H    LEU C   2     110.210 177.875  57.406  1.00 45.78 LIG 0.16  HD
BRANCH 4 6
ATOM      6  CA  LEU C   2     111.213 179.482  57.949  1.00 46.28 LIG 0.16  C 
BRANCH 6 7
ATOM      7  C   LEU C   2     110.159 179.739  59.019  1.00 47.91 LIG 0.22  C 
ATOM      8 O    LEU C   2     110.484 180.111  60.148  1.00 50.38 LIG-0.29  OA
ENDBRANCH 6 7
BRANCH 6 9
ATOM      9  CB  LEU C   2     111.097 180.502  56.815  1.00 44.46 LIG 0.04  C 
BRANCH 9 10
ATOM     10  CG  LEU C   2     110.160 180.113  55.672  1.00 41.86 LIG-0.02  C 
ATOM     11  CD2 LEU C   2     108.865 179.539  56.222  1.00 43.32 LIG 0.01  C 
ATOM     12  CD1 LEU C   2     110.838 179.120  54.744  1.00 39.91 LIG 0.01  C 
ENDBRANCH 9 10
ENDBRANCH 6 9
ENDBRANCH 4 6
ENDBRANCH 1 2
BRANCH 1 13
ATOM     13  CB  PHE C   1     113.118 175.124  56.720  1.00 40.74 LIG 0.07  C 
BRANCH 13 14
ATOM     14  CG  PHE C   1     113.822 175.094  58.039  1.00 40.58 LIG-0.06  A 
ATOM     15  CD1 PHE C   1     113.189 174.593  59.162  1.00 41.26 LIG 0.01  A 
ATOM     16  CE1 PHE C   1     113.822 174.582  60.383  1.00 41.59 LIG 0.00  A 
ATOM     17  CZ  PHE C   1     115.101 175.086  60.495  1.00 39.95 LIG 0.00  A 
ATOM     18  CE2 PHE C   1     115.741 175.604  59.386  1.00 40.65 LIG 0.00  A 
ATOM     19  CD2 PHE C   1     115.101 175.612  58.168  1.00 39.59 LIG 0.01  A 
ENDBRANCH 13 14
ENDBRANCH 1 13
BRANCH 1 20
ATOM     20  N   PHE C   1     111.057 175.725  55.531  1.00 44.33 LIG-0.35  N 
ATOM     21 H    PHE C   1     111.543 175.577  54.838  1.00 44.33 LIG 0.16  HD
ATOM     22  C   SER C   0     109.725 175.768  55.500  1.00 45.23 LIG 0.25  C 
ATOM     23 O    SER C   0     109.037 176.045  56.485  1.00 45.89 LIG-0.27  OA
BRANCH 22 24
ATOM     24  CA  SER C   0     109.076 175.455  54.158  1.00 46.83 LIG 0.30  C 
BRANCH 24 25
ATOM     25  N   SER C   0     109.207 176.577  53.234  1.00 48.27 LIG-0.06  N 
ATOM     26 H2   SER C   0     108.585 176.515  52.600  1.00 48.27 LIG 0.28  HD
ATOM     27 H1   SER C   0     110.014 176.561  52.859  1.00 48.27 LIG 0.28  HD
ATOM     28 H3   SER C   0     109.103 177.341  53.678  1.00 48.27 LIG 0.28  HD
ENDBRANCH 24 25
BRANCH 24 29
ATOM     29  CB  SER C   0     109.698 174.188  53.563  1.00 47.94 LIG 0.21  C 
BRANCH 29 30
ATOM     30 OG   SER C   0     110.012 174.365  52.194  1.00 49.79 LIG-0.40  OA
ATOM     31 HG   SER C   0     110.838 174.486  52.109  1.00 49.79 LIG 0.21  HD
ENDBRANCH 29 30
ENDBRANCH 24 29
ENDBRANCH 22 24
ENDBRANCH 1 20
TORSDOF 12
ENDMDL
MODEL 13
USER: ADFR SOLUTION from run 168
USER: SCORE 10.066889 LL:  -2.212 LR:  -8.573 RR:   0.000 FEB:  -4.993
USER: RMSD 6.949632
USER: SEED 167
USER: STATUS no improvement in best in 13 clusters for 5 generations
USER: GENES 14
USER: genes 0 Translation |==|  0.52691 0.53916 0.34221
USER: genes 1 Rotation |==|  0.80910 0.15717 0.35550 0.62665
USER: genes 2 Torsion [N]-CA--C-[N] |==|  0.80576
USER: genes 3 Torsion [C]-N--CA-[C] |==|  0.21953
USER: genes 4 Torsion [N]-CA--C-[O] |==|  0.92014
USER: genes 5 Torsion [N]-CA--CB-[CG] |==|  0.76222
USER: genes 6 Torsion [CA]-CB--CG-[CD2] |==|  0.56623
USER: genes 7 Torsion [C]-CA--CB-[CG] |==|  0.22120
USER: genes 8 Torsion [CA]-CB--CG-[CD1] |==|  0.83428
USER: genes 9 Torsion [C]-CA--N-[C] |==|  0.19017
USER: genes 10 Torsion [N]-C--CA-[N] |==|  0.42602
USER: genes 11 Torsion [C]-CA--N-[H2] |==|  0.75810
USER: genes 12 Torsion [C]-CA--CB-[OG] |==|  0.67733
USER: genes 13 Torsion [CA]-CB--OG-[HG] |==|  0.40525
ROOT
ATOM      1  CA  PHE C   1     109.843 174.294  57.005  1.00 43.43 LIG 0.18  C 
ENDROOT
BRANCH 1 2
ATOM      2  C   PHE C   1     110.786 175.462  57.250  1.00 43.95 LIG 0.24  C 
ATOM      3 O    PHE C   1     110.578 176.230  58.195  1.00 42.64 LIG-0.27  OA
ATOM      4  N   LEU C   2     111.814 175.614  56.423  1.00 45.78 LIG-0.35  N 
ATOM      5 H    LEU C   2     112.049 175.035  55.832  1.00 45.78 LIG 0.16  HD
BRANCH 4 6
ATOM      6  CA  LEU C   2     112.636 176.808  56.462  1.00 46.28 LIG 0.16  C 
BRANCH 6 7
ATOM      7  C   LEU C   2     113.609 176.683  57.628  1.00 47.91 LIG 0.22  C 
ATOM      8 O    LEU C   2     113.315 176.025  58.627  1.00 50.38 LIG-0.29  OA
ENDBRANCH 6 7
BRANCH 6 9
ATOM      9  CB  LEU C   2     111.763 178.055  56.613  1.00 44.46 LIG 0.04  C 
BRANCH 9 10
ATOM     10  CG  LEU C   2     111.213 178.635  55.311  1.00 41.86 LIG-0.02  C 
ATOM     11  CD2 LEU C   2     110.889 180.110  55.484  1.00 43.32 LIG 0.01  C 
ATOM     12  CD1 LEU C   2     109.984 177.863  54.863  1.00 39.91 LIG 0.01  C 
ENDBRANCH 9 10
ENDBRANCH 6 9
ENDBRANCH 4 6
ENDBRANCH 1 2
BRANCH 1 13
ATOM     13  CB  PHE C   1     110.586 172.958  56.976  1.00 40.74 LIG 0.07  C 
BRANCH 13 14
ATOM     14  CG  PHE C   1     110.900 172.436  58.341  1.00 40.58 LIG-0.06  A 
ATOM     15  CD1 PHE C   1     111.682 173.173  59.213  1.00 41.26 LIG 0.01  A 
ATOM     16  CE1 PHE C   1     111.992 172.688  60.462  1.00 41.59 LIG 0.00  A 
ATOM     17  CZ  PHE C   1     111.528 171.449  60.851  1.00 39.95 LIG 0.00  A 
ATOM     18  CE2 PHE C   1     110.759 170.695  59.986  1.00 40.65 LIG 0.00  A 
ATOM     19  CD2 PHE C   1     110.453 171.185  58.737  1.00 39.59 LIG 0.01  A 
ENDBRANCH 13 14
ENDBRANCH 1 13
BRANCH 1 20
ATOM     20  N   PHE C   1     109.033 174.456  55.805  1.00 44.33 LIG-0.35  N 
ATOM     21 H    PHE C   1     108.196 174.576  55.961  1.00 44.33 LIG 0.16  HD
ATOM     22  C   SER C   0     109.555 174.420  54.580  1.00 45.23 LIG 0.25  C 
ATOM     23 O    SER C   0     110.746 174.184  54.361  1.00 45.89 LIG-0.27  OA
BRANCH 22 24
ATOM     24  CA  SER C   0     108.590 174.688  53.432  1.00 46.83 LIG 0.30  C 
BRANCH 24 25
ATOM     25  N   SER C   0     109.288 175.236  52.273  1.00 48.27 LIG-0.06  N 
ATOM     26 H2   SER C   0     109.338 176.121  52.348  1.00 48.27 LIG 0.28  HD
ATOM     27 H1   SER C   0     108.842 175.026  51.531  1.00 48.27 LIG 0.28  HD
ATOM     28 H3   SER C   0     110.109 174.894  52.231  1.00 48.27 LIG 0.28  HD
ENDBRANCH 24 25
BRANCH 24 29
ATOM     29  CB  SER C   0     107.853 173.398  53.060  1.00 47.94 LIG 0.21  C 
BRANCH 29 30
ATOM     30 OG   SER C   0     108.169 172.989  51.742  1.00 49.79 LIG-0.40  OA
ATOM     31 HG   SER C   0     108.177 172.150  51.703  1.00 49.79 LIG 0.21  HD
ENDBRANCH 29 30
ENDBRANCH 24 29
ENDBRANCH 22 24
ENDBRANCH 1 20
TORSDOF 12
ENDMDL
MODEL 14
USER: ADFR SOLUTION from run 67
USER: SCORE 10.211286 LL:  -1.912 LR:  -8.545 RR:   0.000 FEB:  -4.966
USER: RMSD 5.313550
USER: SEED 66
USER: STATUS no improvement in best in 14 clusters for 5 generations
USER: GENES 14
USER: genes 0 Translation |==|  0.59602 0.57594 0.33156
USER: genes 1 Rotation |==|  0.08438 0.27289 0.49888 0.66026
USER: genes 2 Torsion [N]-CA--C-[N] |==|  0.48333
USER: genes 3 Torsion [C]-N--CA-[C] |==|  0.84259
USER: genes 4 Torsion [N]-CA--C-[O] |==|  0.85574
USER: genes 5 Torsion [N]-CA--CB-[CG] |==|  0.74574
USER: genes 6 Torsion [CA]-CB--CG-[CD2] |==|  0.94439
USER: genes 7 Torsion [C]-CA--CB-[CG] |==|  0.28065
USER: genes 8 Torsion [CA]-CB--CG-[CD1] |==|  0.68813
USER: genes 9 Torsion [C]-CA--N-[C] |==|  0.80973
USER: genes 10 Torsion [N]-C--CA-[N] |==|  0.62446
USER: genes 11 Torsion [C]-CA--N-[H2] |==|  0.38811
USER: genes 12 Torsion [C]-CA--CB-[OG] |==|  0.42200
USER: genes 13 Torsion [CA]-CB--OG-[HG] |==|  0.08274
ROOT
ATOM      1  CA  PHE C   1     111.138 174.818  56.830  1.00 43.43 LIG 0.18  C 
ENDROOT
BRANCH 1 2
ATOM      2  C   PHE C   1     110.299 173.625  57.261  1.00 43.95 LIG 0.24  C 
ATOM      3 O    PHE C   1     109.144 173.505  56.842  1.00 42.64 LIG-0.27  OA
ATOM      4  N   LEU C   2     110.852 172.743  58.087  1.00 45.78 LIG-0.35  N 
ATOM      5 H    LEU C   2     111.685 172.737  58.302  1.00 45.78 LIG 0.16  HD
BRANCH 4 6
ATOM      6  CA  LEU C   2     110.060 171.696  58.703  1.00 46.28 LIG 0.16  C 
BRANCH 6 7
ATOM      7  C   LEU C   2     108.915 172.348  59.469  1.00 47.91 LIG 0.22  C 
ATOM      8 O    LEU C   2     109.130 173.246  60.283  1.00 50.38 LIG-0.29  OA
ENDBRANCH 6 7
BRANCH 6 9
ATOM      9  CB  LEU C   2     110.927 170.850  59.637  1.00 44.46 LIG 0.04  C 
BRANCH 9 10
ATOM     10  CG  LEU C   2     111.574 169.620  59.001  1.00 41.86 LIG-0.02  C 
ATOM     11  CD2 LEU C   2     110.838 169.233  57.729  1.00 43.32 LIG 0.01  C 
ATOM     12  CD1 LEU C   2     111.594 168.463  59.984  1.00 39.91 LIG 0.01  C 
ENDBRANCH 9 10
ENDBRANCH 6 9
ENDBRANCH 4 6
ENDBRANCH 1 2
BRANCH 1 13
ATOM     13  CB  PHE C   1     111.569 175.673  58.022  1.00 40.74 LIG 0.07  C 
BRANCH 13 14
ATOM     14  CG  PHE C   1     112.981 175.420  58.441  1.00 40.58 LIG-0.06  A 
ATOM     15  CD1 PHE C   1     113.257 174.819  59.657  1.00 41.26 LIG 0.01  A 
ATOM     16  CE1 PHE C   1     114.555 174.603  60.057  1.00 41.59 LIG 0.00  A 
ATOM     17  CZ  PHE C   1     115.598 174.996  59.245  1.00 39.95 LIG 0.00  A 
ATOM     18  CE2 PHE C   1     115.338 175.612  58.035  1.00 40.65 LIG 0.00  A 
ATOM     19  CD2 PHE C   1     114.037 175.825  57.641  1.00 39.59 LIG 0.01  A 
ENDBRANCH 13 14
ENDBRANCH 1 13
BRANCH 1 20
ATOM     20  N   PHE C   1     110.484 175.641  55.820  1.00 44.33 LIG-0.35  N 
ATOM     21 H    PHE C   1     110.251 176.419  56.101  1.00 44.33 LIG 0.16  HD
ATOM     22  C   SER C   0     110.273 175.213  54.576  1.00 45.23 LIG 0.25  C 
ATOM     23 O    SER C   0     110.553 174.073  54.199  1.00 45.89 LIG-0.27  OA
BRANCH 22 24
ATOM     24  CA  SER C   0     109.653 176.222  53.617  1.00 46.83 LIG 0.30  C 
BRANCH 24 25
ATOM     25  N   SER C   0     108.584 175.613  52.831  1.00 48.27 LIG-0.06  N 
ATOM     26 H2   SER C   0     107.909 176.187  52.753  1.00 48.27 LIG 0.28  HD
ATOM     27 H1   SER C   0     108.300 174.874  53.237  1.00 48.27 LIG 0.28  HD
ATOM     28 H3   SER C   0     108.892 175.405  52.022  1.00 48.27 LIG 0.28  HD
ENDBRANCH 24 25
BRANCH 24 29
ATOM     29  CB  SER C   0     109.128 177.428  54.401  1.00 47.94 LIG 0.21  C 
BRANCH 29 30
ATOM     30 OG   SER C   0     109.143 178.601  53.607  1.00 49.79 LIG-0.40  OA
ATOM     31 HG   SER C   0     109.036 178.394  52.800  1.00 49.79 LIG 0.21  HD
ENDBRANCH 29 30
ENDBRANCH 24 29
ENDBRANCH 22 24
ENDBRANCH 1 20
TORSDOF 12
ENDMDL
MODEL 15
USER: ADFR SOLUTION from run 141
USER: SCORE 10.147857 LL:  -2.118 LR:  -8.522 RR:   0.000 FEB:  -4.943
USER: RMSD 6.483009
USER: SEED 140
USER: STATUS no improvement in best in 20 clusters for 5 generations
USER: GENES 14
USER: genes 0 Translation |==|  0.59665 0.58200 0.26623
USER: genes 1 Rotation |==|  0.08537 0.39059 0.75708 0.50425
USER: genes 2 Torsion [N]-CA--C-[N] |==|  0.32290
USER: genes 3 Torsion [C]-N--CA-[C] |==|  0.74973
USER: genes 4 Torsion [N]-CA--C-[O] |==|  0.17801
USER: genes 5 Torsion [N]-CA--CB-[CG] |==|  0.92486
USER: genes 6 Torsion [CA]-CB--CG-[CD2] |==|  0.80276
USER: genes 7 Torsion [C]-CA--CB-[CG] |==|  0.79900
USER: genes 8 Torsion [CA]-CB--CG-[CD1] |==|  0.27959
USER: genes 9 Torsion [C]-CA--N-[C] |==|  0.54471
USER: genes 10 Torsion [N]-C--CA-[N] |==|  0.31158
USER: genes 11 Torsion [C]-CA--N-[H2] |==|  0.61871
USER: genes 12 Torsion [C]-CA--CB-[OG] |==|  0.75762
USER: genes 13 Torsion [CA]-CB--OG-[HG] |==|  0.40504
ROOT
ATOM      1  CA  PHE C   1     111.150 174.905  55.752  1.00 43.43 LIG 0.18  C 
ENDROOT
BRANCH 1 2
ATOM      2  C   PHE C   1     111.164 174.959  57.272  1.00 43.95 LIG 0.24  C 
ATOM      3 O    PHE C   1     110.655 175.922  57.855  1.00 42.64 LIG-0.27  OA
ATOM      4  N   LEU C   2     111.734 173.953  57.925  1.00 45.78 LIG-0.35  N 
ATOM      5 H    LEU C   2     111.991 173.220  57.555  1.00 45.78 LIG 0.16  HD
BRANCH 4 6
ATOM      6  CA  LEU C   2     111.970 174.024  59.354  1.00 46.28 LIG 0.16  C 
BRANCH 6 7
ATOM      7  C   LEU C   2     113.352 174.625  59.582  1.00 47.91 LIG 0.22  C 
ATOM      8 O    LEU C   2     113.602 175.781  59.240  1.00 50.38 LIG-0.29  OA
ENDBRANCH 6 7
BRANCH 6 9
ATOM      9  CB  LEU C   2     111.870 172.634  59.983  1.00 44.46 LIG 0.04  C 
BRANCH 9 10
ATOM     10  CG  LEU C   2     110.971 171.641  59.246  1.00 41.86 LIG-0.02  C 
ATOM     11  CD2 LEU C   2     109.511 172.028  59.409  1.00 43.32 LIG 0.01  C 
ATOM     12  CD1 LEU C   2     111.213 170.229  59.752  1.00 39.91 LIG 0.01  C 
ENDBRANCH 9 10
ENDBRANCH 6 9
ENDBRANCH 4 6
ENDBRANCH 1 2
BRANCH 1 13
ATOM     13  CB  PHE C   1     111.920 176.071  55.132  1.00 40.74 LIG 0.07  C 
BRANCH 13 14
ATOM     14  CG  PHE C   1     111.204 177.377  55.262  1.00 40.58 LIG-0.06  A 
ATOM     15  CD1 PHE C   1     111.566 178.283  56.243  1.00 41.26 LIG 0.01  A 
ATOM     16  CE1 PHE C   1     110.897 179.477  56.382  1.00 41.59 LIG 0.00  A 
ATOM     17  CZ  PHE C   1     109.845 179.774  55.542  1.00 39.95 LIG 0.00  A 
ATOM     18  CE2 PHE C   1     109.461 178.872  54.568  1.00 40.65 LIG 0.00  A 
ATOM     19  CD2 PHE C   1     110.135 177.679  54.435  1.00 39.59 LIG 0.01  A 
ENDBRANCH 13 14
ENDBRANCH 1 13
BRANCH 1 20
ATOM     20  N   PHE C   1     109.805 174.827  55.196  1.00 44.33 LIG-0.35  N 
ATOM     21 H    PHE C   1     109.185 175.038  55.752  1.00 44.33 LIG 0.16  HD
ATOM     22  C   SER C   0     109.572 174.460  53.937  1.00 45.23 LIG 0.25  C 
ATOM     23 O    SER C   0     110.462 174.096  53.165  1.00 45.89 LIG-0.27  OA
BRANCH 22 24
ATOM     24  CA  SER C   0     108.118 174.508  53.483  1.00 46.83 LIG 0.30  C 
BRANCH 24 25
ATOM     25  N   SER C   0     107.912 175.552  52.484  1.00 48.27 LIG-0.06  N 
ATOM     26 H2   SER C   0     107.156 175.988  52.661  1.00 48.27 LIG 0.28  HD
ATOM     27 H1   SER C   0     107.858 175.183  51.676  1.00 48.27 LIG 0.28  HD
ATOM     28 H3   SER C   0     108.595 176.122  52.504  1.00 48.27 LIG 0.28  HD
ENDBRANCH 24 25
BRANCH 24 29
ATOM     29  CB  SER C   0     107.700 173.141  52.934  1.00 47.94 LIG 0.21  C 
BRANCH 29 30
ATOM     30 OG   SER C   0     108.006 173.028  51.555  1.00 49.79 LIG-0.40  OA
ATOM     31 HG   SER C   0     108.220 172.235  51.380  1.00 49.79 LIG 0.21  HD
ENDBRANCH 29 30
ENDBRANCH 24 29
ENDBRANCH 22 24
ENDBRANCH 1 20
TORSDOF 12
ENDMDL
MODEL 16
USER: ADFR SOLUTION from run 195
USER: SCORE 9.870811 LL:  -1.935 LR:  -8.514 RR:   0.000 FEB:  -4.935
USER: RMSD 7.858459
USER: SEED 194
USER: STATUS no improvement in best in 13 clusters for 5 generations
USER: GENES 14
USER: genes 0 Translation |==|  0.57319 0.68534 0.31601
USER: genes 1 Rotation |==|  0.73266 0.11824 0.27693 0.51925
USER: genes 2 Torsion [N]-CA--C-[N] |==|  0.55556
USER: genes 3 Torsion [C]-N--CA-[C] |==|  0.82940
USER: genes 4 Torsion [N]-CA--C-[O] |==|  0.24068
USER: genes 5 Torsion [N]-CA--CB-[CG] |==|  0.52159
USER: genes 6 Torsion [CA]-CB--CG-[CD2] |==|  0.59499
USER: genes 7 Torsion [C]-CA--CB-[CG] |==|  0.56853
USER: genes 8 Torsion [CA]-CB--CG-[CD1] |==|  0.27878
USER: genes 9 Torsion [C]-CA--N-[C] |==|  0.67408
USER: genes 10 Torsion [N]-C--CA-[N] |==|  0.14209
USER: genes 11 Torsion [C]-CA--N-[H2] |==|  0.91702
USER: genes 12 Torsion [C]-CA--CB-[OG] |==|  0.48842
USER: genes 13 Torsion [CA]-CB--OG-[HG] |==|  0.32456
ROOT
ATOM      1  CA  PHE C   1     110.710 176.377  56.573  1.00 43.43 LIG 0.18  C 
ENDROOT
BRANCH 1 2
ATOM      2  C   PHE C   1     112.050 176.773  57.175  1.00 43.95 LIG 0.24  C 
ATOM      3 O    PHE C   1     112.450 177.937  57.066  1.00 42.64 LIG-0.27  OA
ATOM      4  N   LEU C   2     112.750 175.836  57.803  1.00 45.78 LIG-0.35  N 
ATOM      5 H    LEU C   2     112.449 175.053  57.994  1.00 45.78 LIG 0.16  HD
BRANCH 4 6
ATOM      6  CA  LEU C   2     114.117 176.076  58.223  1.00 46.28 LIG 0.16  C 
BRANCH 6 7
ATOM      7  C   LEU C   2     114.957 176.361  56.983  1.00 47.91 LIG 0.22  C 
ATOM      8 O    LEU C   2     115.044 177.502  56.528  1.00 50.38 LIG-0.29  OA
ENDBRANCH 6 7
BRANCH 6 9
ATOM      9  CB  LEU C   2     114.664 174.868  58.985  1.00 44.46 LIG 0.04  C 
BRANCH 9 10
ATOM     10  CG  LEU C   2     116.030 175.066  59.641  1.00 41.86 LIG-0.02  C 
ATOM     11  CD2 LEU C   2     116.825 173.771  59.609  1.00 43.32 LIG 0.01  C 
ATOM     12  CD1 LEU C   2     115.867 175.563  61.067  1.00 39.91 LIG 0.01  C 
ENDBRANCH 9 10
ENDBRANCH 6 9
ENDBRANCH 4 6
ENDBRANCH 1 2
BRANCH 1 13
ATOM     13  CB  PHE C   1     110.726 174.943  56.041  1.00 40.74 LIG 0.07  C 
BRANCH 13 14
ATOM     14  CG  PHE C   1     109.712 174.710  54.967  1.00 40.58 LIG-0.06  A 
ATOM     15  CD1 PHE C   1     110.088 174.705  53.635  1.00 41.26 LIG 0.01  A 
ATOM     16  CE1 PHE C   1     109.157 174.513  52.641  1.00 41.59 LIG 0.00  A 
ATOM     17  CZ  PHE C   1     107.830 174.331  52.971  1.00 39.95 LIG 0.00  A 
ATOM     18  CE2 PHE C   1     107.438 174.348  54.296  1.00 40.65 LIG 0.00  A 
ATOM     19  CD2 PHE C   1     108.374 174.542  55.285  1.00 39.59 LIG 0.01  A 
ENDBRANCH 13 14
ENDBRANCH 1 13
BRANCH 1 20
ATOM     20  N   PHE C   1     110.252 177.300  55.543  1.00 44.33 LIG-0.35  N 
ATOM     21 H    PHE C   1     110.768 177.342  54.857  1.00 44.33 LIG 0.16  HD
ATOM     22  C   SER C   0     109.131 178.009  55.665  1.00 45.23 LIG 0.25  C 
ATOM     23 O    SER C   0     108.429 177.991  56.679  1.00 45.89 LIG-0.27  OA
BRANCH 22 24
ATOM     24  CA  SER C   0     108.746 178.867  54.466  1.00 46.83 LIG 0.30  C 
BRANCH 24 25
ATOM     25  N   SER C   0     108.753 178.084  53.234  1.00 48.27 LIG-0.06  N 
ATOM     26 H2   SER C   0     109.354 177.431  53.300  1.00 48.27 LIG 0.28  HD
ATOM     27 H1   SER C   0     108.962 178.611  52.548  1.00 48.27 LIG 0.28  HD
ATOM     28 H3   SER C   0     107.946 177.732  53.102  1.00 48.27 LIG 0.28  HD
ENDBRANCH 24 25
BRANCH 24 29
ATOM     29  CB  SER C   0     107.371 179.499  54.699  1.00 47.94 LIG 0.21  C 
BRANCH 29 30
ATOM     30 OG   SER C   0     107.026 180.379  53.644  1.00 49.79 LIG-0.40  OA
ATOM     31 HG   SER C   0     106.343 180.090  53.250  1.00 49.79 LIG 0.21  HD
ENDBRANCH 29 30
ENDBRANCH 24 29
ENDBRANCH 22 24
ENDBRANCH 1 20
TORSDOF 12
ENDMDL
MODEL 17
USER: ADFR SOLUTION from run 107
USER: SCORE 9.691406 LL:  -2.040 LR:  -8.468 RR:   0.000 FEB:  -4.889
USER: RMSD 7.680023
USER: SEED 106
USER: STATUS no improvement in best in 17 clusters for 5 generations
USER: GENES 14
USER: genes 0 Translation |==|  0.65698 0.72170 0.27115
USER: genes 1 Rotation |==|  0.25121 0.14633 0.70110 0.65026
USER: genes 2 Torsion [N]-CA--C-[N] |==|  0.58325
USER: genes 3 Torsion [C]-N--CA-[C] |==|  0.80800
USER: genes 4 Torsion [N]-CA--C-[O] |==|  0.82169
USER: genes 5 Torsion [N]-CA--CB-[CG] |==|  0.47483
USER: genes 6 Torsion [CA]-CB--CG-[CD2] |==|  0.52126
USER: genes 7 Torsion [C]-CA--CB-[CG] |==|  0.77410
USER: genes 8 Torsion [CA]-CB--CG-[CD1] |==|  0.63741
USER: genes 9 Torsion [C]-CA--N-[C] |==|  0.53912
USER: genes 10 Torsion [N]-C--CA-[N] |==|  0.49799
USER: genes 11 Torsion [C]-CA--N-[H2] |==|  0.73934
USER: genes 12 Torsion [C]-CA--CB-[OG] |==|  0.96137
USER: genes 13 Torsion [CA]-CB--OG-[HG] |==|  0.78762
ROOT
ATOM      1  CA  PHE C   1     112.281 176.895  55.833  1.00 43.43 LIG 0.18  C 
ENDROOT
BRANCH 1 2
ATOM      2  C   PHE C   1     113.114 175.825  56.523  1.00 43.95 LIG 0.24  C 
ATOM      3 O    PHE C   1     112.996 174.643  56.182  1.00 42.64 LIG-0.27  OA
ATOM      4  N   LEU C   2     113.949 176.209  57.481  1.00 45.78 LIG-0.35  N 
ATOM      5 H    LEU C   2     114.137 177.029  57.659  1.00 45.78 LIG 0.16  HD
BRANCH 4 6
ATOM      6  CA  LEU C   2     114.622 175.237  58.321  1.00 46.28 LIG 0.16  C 
BRANCH 6 7
ATOM      7  C   LEU C   2     113.584 174.579  59.222  1.00 47.91 LIG 0.22  C 
ATOM      8 O    LEU C   2     112.970 175.237  60.063  1.00 50.38 LIG-0.29  OA
ENDBRANCH 6 7
BRANCH 6 9
ATOM      9  CB  LEU C   2     115.713 175.915  59.153  1.00 44.46 LIG 0.04  C 
BRANCH 9 10
ATOM     10  CG  LEU C   2     116.351 175.044  60.236  1.00 41.86 LIG-0.02  C 
ATOM     11  CD2 LEU C   2     117.274 175.878  61.108  1.00 43.32 LIG 0.01  C 
ATOM     12  CD1 LEU C   2     117.104 173.885  59.608  1.00 39.91 LIG 0.01  C 
ENDBRANCH 9 10
ENDBRANCH 6 9
ENDBRANCH 4 6
ENDBRANCH 1 2
BRANCH 1 13
ATOM     13  CB  PHE C   1     112.090 178.127  56.719  1.00 40.74 LIG 0.07  C 
BRANCH 13 14
ATOM     14  CG  PHE C   1     110.996 177.958  57.723  1.00 40.58 LIG-0.06  A 
ATOM     15  CD1 PHE C   1     110.019 178.928  57.869  1.00 41.26 LIG 0.01  A 
ATOM     16  CE1 PHE C   1     109.022 178.788  58.806  1.00 41.59 LIG 0.00  A 
ATOM     17  CZ  PHE C   1     108.997 177.675  59.619  1.00 39.95 LIG 0.00  A 
ATOM     18  CE2 PHE C   1     109.975 176.706  59.496  1.00 40.65 LIG 0.00  A 
ATOM     19  CD2 PHE C   1     110.970 176.852  58.557  1.00 39.59 LIG 0.01  A 
ENDBRANCH 13 14
ENDBRANCH 1 13
BRANCH 1 20
ATOM     20  N   PHE C   1     110.995 176.401  55.359  1.00 44.33 LIG-0.35  N 
ATOM     21 H    PHE C   1     110.773 175.636  55.684  1.00 44.33 LIG 0.16  HD
ATOM     22  C   SER C   0     110.239 177.084  54.501  1.00 45.23 LIG 0.25  C 
ATOM     23 O    SER C   0     110.592 178.149  53.991  1.00 45.89 LIG-0.27  OA
BRANCH 22 24
ATOM     24  CA  SER C   0     108.884 176.470  54.167  1.00 46.83 LIG 0.30  C 
BRANCH 24 25
ATOM     25  N   SER C   0     108.140 177.311  53.234  1.00 48.27 LIG-0.06  N 
ATOM     26 H2   SER C   0     107.602 177.856  53.689  1.00 48.27 LIG 0.28  HD
ATOM     27 H1   SER C   0     107.654 176.798  52.694  1.00 48.27 LIG 0.28  HD
ATOM     28 H3   SER C   0     108.710 177.794  52.750  1.00 48.27 LIG 0.28  HD
ENDBRANCH 24 25
BRANCH 24 29
ATOM     29  CB  SER C   0     109.078 175.064  53.593  1.00 47.94 LIG 0.21  C 
BRANCH 29 30
ATOM     30 OG   SER C   0     110.429 174.839  53.233  1.00 49.79 LIG-0.40  OA
ATOM     31 HG   SER C   0     110.597 175.235  52.512  1.00 49.79 LIG 0.21  HD
ENDBRANCH 29 30
ENDBRANCH 24 29
ENDBRANCH 22 24
ENDBRANCH 1 20
TORSDOF 12
ENDMDL
MODEL 18
USER: ADFR SOLUTION from run 44
USER: SCORE 9.937996 LL:  -1.555 LR:  -8.452 RR:   0.000 FEB:  -4.873
USER: RMSD 5.795396
USER: SEED 43
USER: STATUS no improvement in best in 12 clusters for 5 generations
USER: GENES 14
USER: genes 0 Translation |==|  0.58142 0.73680 0.24876
USER: genes 1 Rotation |==|  0.70016 0.67583 0.80345 0.79486
USER: genes 2 Torsion [N]-CA--C-[N] |==|  0.42481
USER: genes 3 Torsion [C]-N--CA-[C] |==|  0.87203
USER: genes 4 Torsion [N]-CA--C-[O] |==|  0.30644
USER: genes 5 Torsion [N]-CA--CB-[CG] |==|  0.59044
USER: genes 6 Torsion [CA]-CB--CG-[CD2] |==|  0.24890
USER: genes 7 Torsion [C]-CA--CB-[CG] |==|  0.19318
USER: genes 8 Torsion [CA]-CB--CG-[CD1] |==|  0.76766
USER: genes 9 Torsion [C]-CA--N-[C] |==|  0.83317
USER: genes 10 Torsion [N]-C--CA-[N] |==|  0.97086
USER: genes 11 Torsion [C]-CA--N-[H2] |==|  0.06193
USER: genes 12 Torsion [C]-CA--CB-[OG] |==|  0.05952
USER: genes 13 Torsion [CA]-CB--OG-[HG] |==|  0.11328
ROOT
ATOM      1  CA  PHE C   1     110.865 177.110  55.464  1.00 43.43 LIG 0.18  C 
ENDROOT
BRANCH 1 2
ATOM      2  C   PHE C   1     110.355 175.906  54.687  1.00 43.95 LIG 0.24  C 
ATOM      3 O    PHE C   1     111.142 175.236  54.010  1.00 42.64 LIG-0.27  OA
ATOM      4  N   LEU C   2     109.062 175.616  54.768  1.00 45.78 LIG-0.35  N 
ATOM      5 H    LEU C   2     108.516 175.989  55.318  1.00 45.78 LIG 0.16  HD
BRANCH 4 6
ATOM      6  CA  LEU C   2     108.462 174.616  53.906  1.00 46.28 LIG 0.16  C 
BRANCH 6 7
ATOM      7  C   LEU C   2     108.946 174.860  52.481  1.00 47.91 LIG 0.22  C 
ATOM      8 O    LEU C   2     109.720 174.073  51.934  1.00 50.38 LIG-0.29  OA
ENDBRANCH 6 7
BRANCH 6 9
ATOM      9  CB  LEU C   2     106.936 174.690  53.982  1.00 44.46 LIG 0.04  C 
BRANCH 9 10
ATOM     10  CG  LEU C   2     106.204 173.358  53.815  1.00 41.86 LIG-0.02  C 
ATOM     11  CD2 LEU C   2     106.019 172.684  55.164  1.00 43.32 LIG 0.01  C 
ATOM     12  CD1 LEU C   2     106.960 172.453  52.859  1.00 39.91 LIG 0.01  C 
ENDBRANCH 9 10
ENDBRANCH 6 9
ENDBRANCH 4 6
ENDBRANCH 1 2
BRANCH 1 13
ATOM     13  CB  PHE C   1     110.607 178.420  54.717  1.00 40.74 LIG 0.07  C 
BRANCH 13 14
ATOM     14  CG  PHE C   1     109.158 178.781  54.658  1.00 40.58 LIG-0.06  A 
ATOM     15  CD1 PHE C   1     108.338 178.242  53.682  1.00 41.26 LIG 0.01  A 
ATOM     16  CE1 PHE C   1     107.009 178.586  53.609  1.00 41.59 LIG 0.00  A 
ATOM     17  CZ  PHE C   1     106.484 179.488  54.511  1.00 39.95 LIG 0.00  A 
ATOM     18  CE2 PHE C   1     107.294 180.047  55.481  1.00 40.65 LIG 0.00  A 
ATOM     19  CD2 PHE C   1     108.623 179.698  55.549  1.00 39.59 LIG 0.01  A 
ENDBRANCH 13 14
ENDBRANCH 1 13
BRANCH 1 20
ATOM     20  N   PHE C   1     112.270 176.999  55.832  1.00 44.33 LIG-0.35  N 
ATOM     21 H    PHE C   1     112.766 177.625  55.512  1.00 44.33 LIG 0.16  HD
ATOM     22  C   SER C   0     112.733 176.012  56.597  1.00 45.23 LIG 0.25  C 
ATOM     23 O    SER C   0     112.028 175.084  56.999  1.00 45.89 LIG-0.27  OA
BRANCH 22 24
ATOM     24  CA  SER C   0     114.211 176.083  56.960  1.00 46.83 LIG 0.30  C 
BRANCH 24 25
ATOM     25  N   SER C   0     114.897 177.111  56.182  1.00 48.27 LIG-0.06  N 
ATOM     26 H2   SER C   0     114.304 177.708  55.892  1.00 48.27 LIG 0.28  HD
ATOM     27 H1   SER C   0     115.304 176.735  55.486  1.00 48.27 LIG 0.28  HD
ATOM     28 H3   SER C   0     115.500 177.517  56.694  1.00 48.27 LIG 0.28  HD
ENDBRANCH 24 25
BRANCH 24 29
ATOM     29  CB  SER C   0     114.366 176.345  58.461  1.00 47.94 LIG 0.21  C 
BRANCH 29 30
ATOM     30 OG   SER C   0     113.197 175.974  59.169  1.00 49.79 LIG-0.40  OA
ATOM     31 HG   SER C   0     112.900 175.252  58.859  1.00 49.79 LIG 0.21  HD
ENDBRANCH 29 30
ENDBRANCH 24 29
ENDBRANCH 22 24
ENDBRANCH 1 20
TORSDOF 12
ENDMDL
MODEL 19
USER: ADFR SOLUTION from run 3
USER: SCORE 10.131520 LL:  -1.985 LR:  -8.390 RR:   0.000 FEB:  -4.810
USER: RMSD 4.181062
USER: SEED 239458
USER: STATUS no improvement in best in 15 clusters for 5 generations
USER: GENES 14
USER: genes 0 Translation |==|  0.61391 0.65995 0.27949
USER: genes 1 Rotation |==|  0.39807 0.38186 0.39316 0.96286
USER: genes 2 Torsion [N]-CA--C-[N] |==|  0.07664
USER: genes 3 Torsion [C]-N--CA-[C] |==|  0.55691
USER: genes 4 Torsion [N]-CA--C-[O] |==|  0.15999
USER: genes 5 Torsion [N]-CA--CB-[CG] |==|  0.63721
USER: genes 6 Torsion [CA]-CB--CG-[CD2] |==|  0.47634
USER: genes 7 Torsion [C]-CA--CB-[CG] |==|  0.51321
USER: genes 8 Torsion [CA]-CB--CG-[CD1] |==|  0.77908
USER: genes 9 Torsion [C]-CA--N-[C] |==|  0.65308
USER: genes 10 Torsion [N]-C--CA-[N] |==|  0.20643
USER: genes 11 Torsion [C]-CA--N-[H2] |==|  0.32006
USER: genes 12 Torsion [C]-CA--CB-[OG] |==|  0.63329
USER: genes 13 Torsion [CA]-CB--OG-[HG] |==|  0.18188
ROOT
ATOM      1  CA  PHE C   1     111.474 176.015  55.971  1.00 43.43 LIG 0.18  C 
ENDROOT
BRANCH 1 2
ATOM      2  C   PHE C   1     110.524 175.703  54.824  1.00 43.95 LIG 0.24  C 
ATOM      3 O    PHE C   1     110.838 174.855  53.982  1.00 42.64 LIG-0.27  OA
ATOM      4  N   LEU C   2     109.375 176.366  54.771  1.00 45.78 LIG-0.35  N 
ATOM      5 H    LEU C   2     109.079 176.874  55.400  1.00 45.78 LIG 0.16  HD
BRANCH 4 6
ATOM      6  CA  LEU C   2     108.512 176.278  53.609  1.00 46.28 LIG 0.16  C 
BRANCH 6 7
ATOM      7  C   LEU C   2     107.581 177.485  53.609  1.00 47.91 LIG 0.22  C 
ATOM      8 O    LEU C   2     108.034 178.631  53.609  1.00 50.38 LIG-0.29  OA
ENDBRANCH 6 7
BRANCH 6 9
ATOM      9  CB  LEU C   2     107.711 174.975  53.635  1.00 44.46 LIG 0.04  C 
BRANCH 9 10
ATOM     10  CG  LEU C   2     107.736 174.160  52.342  1.00 41.86 LIG-0.02  C 
ATOM     11  CD2 LEU C   2     107.087 172.803  52.559  1.00 43.32 LIG 0.01  C 
ATOM     12  CD1 LEU C   2     109.161 174.003  51.841  1.00 39.91 LIG 0.01  C 
ENDBRANCH 9 10
ENDBRANCH 6 9
ENDBRANCH 4 6
ENDBRANCH 1 2
BRANCH 1 13
ATOM     13  CB  PHE C   1     112.372 174.824  56.307  1.00 40.74 LIG 0.07  C 
BRANCH 13 14
ATOM     14  CG  PHE C   1     113.236 175.066  57.502  1.00 40.58 LIG-0.06  A 
ATOM     15  CD1 PHE C   1     114.395 175.814  57.393  1.00 41.26 LIG 0.01  A 
ATOM     16  CE1 PHE C   1     115.205 176.022  58.485  1.00 41.59 LIG 0.00  A 
ATOM     17  CZ  PHE C   1     114.868 175.471  59.703  1.00 39.95 LIG 0.00  A 
ATOM     18  CE2 PHE C   1     113.722 174.709  59.824  1.00 40.65 LIG 0.00  A 
ATOM     19  CD2 PHE C   1     112.916 174.505  58.728  1.00 39.59 LIG 0.01  A 
ENDBRANCH 13 14
ENDBRANCH 1 13
BRANCH 1 20
ATOM     20  N   PHE C   1     110.789 176.493  57.165  1.00 44.33 LIG-0.35  N 
ATOM     21 H    PHE C   1     110.175 175.963  57.451  1.00 44.33 LIG 0.16  HD
ATOM     22  C   SER C   0     111.097 177.648  57.752  1.00 45.23 LIG 0.25  C 
ATOM     23 O    SER C   0     111.934 178.432  57.299  1.00 45.89 LIG-0.27  OA
BRANCH 22 24
ATOM     24  CA  SER C   0     110.346 177.966  59.039  1.00 46.83 LIG 0.30  C 
BRANCH 24 25
ATOM     25  N   SER C   0     110.838 177.157  60.150  1.00 48.27 LIG-0.06  N 
ATOM     26 H2   SER C   0     111.213 177.686  60.760  1.00 48.27 LIG 0.28  HD
ATOM     27 H1   SER C   0     111.442 176.577  59.850  1.00 48.27 LIG 0.28  HD
ATOM     28 H3   SER C   0     110.160 176.714  60.518  1.00 48.27 LIG 0.28  HD
ENDBRANCH 24 25
BRANCH 24 29
ATOM     29  CB  SER C   0     110.472 179.459  59.359  1.00 47.94 LIG 0.21  C 
BRANCH 29 30
ATOM     30 OG   SER C   0     110.838 179.664  60.712  1.00 49.79 LIG-0.40  OA
ATOM     31 HG   SER C   0     111.610 179.361  60.842  1.00 49.79 LIG 0.21  HD
ENDBRANCH 29 30
ENDBRANCH 24 29
ENDBRANCH 22 24
ENDBRANCH 1 20
TORSDOF 12
ENDMDL
MODEL 20
USER: ADFR SOLUTION from run 161
USER: SCORE 9.814024 LL:  -1.775 LR:  -8.358 RR:   0.000 FEB:  -4.778
USER: RMSD 8.089005
USER: SEED 160
USER: STATUS no improvement in best in 14 clusters for 5 generations
USER: GENES 14
USER: genes 0 Translation |==|  0.43492 0.57925 0.15289
USER: genes 1 Rotation |==|  0.32530 0.84253 0.81454 0.55676
USER: genes 2 Torsion [N]-CA--C-[N] |==|  0.28333
USER: genes 3 Torsion [C]-N--CA-[C] |==|  0.62100
USER: genes 4 Torsion [N]-CA--C-[O] |==|  0.27843
USER: genes 5 Torsion [N]-CA--CB-[CG] |==|  0.76405
USER: genes 6 Torsion [CA]-CB--CG-[CD2] |==|  0.59301
USER: genes 7 Torsion [C]-CA--CB-[CG] |==|  0.36217
USER: genes 8 Torsion [CA]-CB--CG-[CD1] |==|  0.20922
USER: genes 9 Torsion [C]-CA--N-[C] |==|  0.66466
USER: genes 10 Torsion [N]-C--CA-[N] |==|  0.34767
USER: genes 11 Torsion [C]-CA--N-[H2] |==|  0.34533
USER: genes 12 Torsion [C]-CA--CB-[OG] |==|  0.51125
USER: genes 13 Torsion [CA]-CB--OG-[HG] |==|  0.06781
ROOT
ATOM      1  CA  PHE C   1     108.118 174.865  53.882  1.00 43.43 LIG 0.18  C 
ENDROOT
BRANCH 1 2
ATOM      2  C   PHE C   1     109.505 174.608  54.450  1.00 43.95 LIG 0.24  C 
ATOM      3 O    PHE C   1     110.463 174.460  53.685  1.00 42.64 LIG-0.27  OA
ATOM      4  N   LEU C   2     109.634 174.551  55.771  1.00 45.78 LIG-0.35  N 
ATOM      5 H    LEU C   2     109.014 174.764  56.328  1.00 45.78 LIG 0.16  HD
BRANCH 4 6
ATOM      6  CA  LEU C   2     110.873 174.111  56.384  1.00 46.28 LIG 0.16  C 
BRANCH 6 7
ATOM      7  C   LEU C   2     110.531 173.164  57.529  1.00 47.91 LIG 0.22  C 
ATOM      8 O    LEU C   2     110.611 171.944  57.383  1.00 50.38 LIG-0.29  OA
ENDBRANCH 6 7
BRANCH 6 9
ATOM      9  CB  LEU C   2     111.674 175.311  56.892  1.00 44.46 LIG 0.04  C 
BRANCH 9 10
ATOM     10  CG  LEU C   2     112.566 175.993  55.855  1.00 41.86 LIG-0.02  C 
ATOM     11  CD2 LEU C   2     113.826 176.530  56.512  1.00 43.32 LIG 0.01  C 
ATOM     12  CD1 LEU C   2     111.808 177.106  55.152  1.00 39.91 LIG 0.01  C 
ENDBRANCH 9 10
ENDBRANCH 6 9
ENDBRANCH 4 6
ENDBRANCH 1 2
BRANCH 1 13
ATOM     13  CB  PHE C   1     107.774 173.890  52.754  1.00 40.74 LIG 0.07  C 
BRANCH 13 14
ATOM     14  CG  PHE C   1     106.438 173.245  52.930  1.00 40.58 LIG-0.06  A 
ATOM     15  CD1 PHE C   1     105.276 173.954  52.676  1.00 41.26 LIG 0.01  A 
ATOM     16  CE1 PHE C   1     104.043 173.373  52.856  1.00 41.59 LIG 0.00  A 
ATOM     17  CZ  PHE C   1     103.957 172.071  53.304  1.00 39.95 LIG 0.00  A 
ATOM     18  CE2 PHE C   1     105.107 171.356  53.576  1.00 40.65 LIG 0.00  A 
ATOM     19  CD2 PHE C   1     106.338 171.944  53.394  1.00 39.59 LIG 0.01  A 
ENDBRANCH 13 14
ENDBRANCH 1 13
BRANCH 1 20
ATOM     20  N   PHE C   1     107.926 176.242  53.444  1.00 44.33 LIG-0.35  N 
ATOM     21 H    PHE C   1     108.478 176.494  52.834  1.00 44.33 LIG 0.16  HD
ATOM     22  C   SER C   0     106.978 177.028  53.950  1.00 45.23 LIG 0.25  C 
ATOM     23 O    SER C   0     106.233 176.680  54.869  1.00 45.89 LIG-0.27  OA
BRANCH 22 24
ATOM     24  CA  SER C   0     106.854 178.414  53.328  1.00 46.83 LIG 0.30  C 
BRANCH 24 25
ATOM     25  N   SER C   0     105.494 178.662  52.859  1.00 48.27 LIG-0.06  N 
ATOM     26 H2   SER C   0     105.181 179.405  53.235  1.00 48.27 LIG 0.28  HD
ATOM     27 H1   SER C   0     104.973 177.975  53.082  1.00 48.27 LIG 0.28  HD
ATOM     28 H3   SER C   0     105.498 178.755  51.974  1.00 48.27 LIG 0.28  HD
ENDBRANCH 24 25
BRANCH 24 29
ATOM     29  CB  SER C   0     107.279 179.479  54.344  1.00 47.94 LIG 0.21  C 
BRANCH 29 30
ATOM     30 OG   SER C   0     107.088 180.784  53.828  1.00 49.79 LIG-0.40  OA
ATOM     31 HG   SER C   0     106.495 180.766  53.234  1.00 49.79 LIG 0.21  HD
ENDBRANCH 29 30
ENDBRANCH 24 29
ENDBRANCH 22 24
ENDBRANCH 1 20
TORSDOF 12
ENDMDL
MODEL 21
USER: ADFR SOLUTION from run 152
USER: SCORE 9.960484 LL:  -2.246 LR:  -8.294 RR:   0.000 FEB:  -4.714
USER: RMSD 6.193407
USER: SEED 151
USER: STATUS no improvement in best in 26 clusters for 5 generations
USER: GENES 14
USER: genes 0 Translation |==|  0.54881 0.65403 0.31903
USER: genes 1 Rotation |==|  0.96369 0.46147 0.34901 0.60348
USER: genes 2 Torsion [N]-CA--C-[N] |==|  0.38334
USER: genes 3 Torsion [C]-N--CA-[C] |==|  0.81623
USER: genes 4 Torsion [N]-CA--C-[O] |==|  0.47280
USER: genes 5 Torsion [N]-CA--CB-[CG] |==|  0.28306
USER: genes 6 Torsion [CA]-CB--CG-[CD2] |==|  0.67612
USER: genes 7 Torsion [C]-CA--CB-[CG] |==|  0.21917
USER: genes 8 Torsion [CA]-CB--CG-[CD1] |==|  0.55334
USER: genes 9 Torsion [C]-CA--N-[C] |==|  0.51222
USER: genes 10 Torsion [N]-C--CA-[N] |==|  0.33543
USER: genes 11 Torsion [C]-CA--N-[H2] |==|  0.10006
USER: genes 12 Torsion [C]-CA--CB-[OG] |==|  0.63882
USER: genes 13 Torsion [CA]-CB--OG-[HG] |==|  0.39841
ROOT
ATOM      1  CA  PHE C   1     110.253 175.931  56.623  1.00 43.43 LIG 0.18  C 
ENDROOT
BRANCH 1 2
ATOM      2  C   PHE C   1     109.679 176.888  57.657  1.00 43.95 LIG 0.24  C 
ATOM      3 O    PHE C   1     109.092 177.909  57.287  1.00 42.64 LIG-0.27  OA
ATOM      4  N   LEU C   2     109.836 176.582  58.940  1.00 45.78 LIG-0.35  N 
ATOM      5 H    LEU C   2     110.135 175.828  59.225  1.00 45.78 LIG 0.16  HD
BRANCH 4 6
ATOM      6  CA  LEU C   2     109.502 177.534  59.983  1.00 46.28 LIG 0.16  C 
BRANCH 6 7
ATOM      7  C   LEU C   2     110.464 178.711  59.884  1.00 47.91 LIG 0.22  C 
ATOM      8 O    LEU C   2     110.278 179.735  60.543  1.00 50.38 LIG-0.29  OA
ENDBRANCH 6 7
BRANCH 6 9
ATOM      9  CB  LEU C   2     109.591 176.872  61.359  1.00 44.46 LIG 0.04  C 
BRANCH 9 10
ATOM     10  CG  LEU C   2     110.851 177.191  62.163  1.00 41.86 LIG-0.02  C 
ATOM     11  CD2 LEU C   2     111.664 175.929  62.396  1.00 43.32 LIG 0.01  C 
ATOM     12  CD1 LEU C   2     110.487 177.849  63.482  1.00 39.91 LIG 0.01  C 
ENDBRANCH 9 10
ENDBRANCH 6 9
ENDBRANCH 4 6
ENDBRANCH 1 2
BRANCH 1 13
ATOM     13  CB  PHE C   1     111.634 176.376  56.140  1.00 40.74 LIG 0.07  C 
BRANCH 13 14
ATOM     14  CG  PHE C   1     112.726 176.035  57.103  1.00 40.58 LIG-0.06  A 
ATOM     15  CD1 PHE C   1     113.946 176.685  57.041  1.00 41.26 LIG 0.01  A 
ATOM     16  CE1 PHE C   1     114.962 176.361  57.910  1.00 41.59 LIG 0.00  A 
ATOM     17  CZ  PHE C   1     114.769 175.371  58.851  1.00 39.95 LIG 0.00  A 
ATOM     18  CE2 PHE C   1     113.561 174.703  58.914  1.00 40.65 LIG 0.00  A 
ATOM     19  CD2 PHE C   1     112.550 175.031  58.041  1.00 39.59 LIG 0.01  A 
ENDBRANCH 13 14
ENDBRANCH 1 13
BRANCH 1 20
ATOM     20  N   PHE C   1     109.362 175.712  55.492  1.00 44.33 LIG-0.35  N 
ATOM     21 H    PHE C   1     108.648 176.191  55.511  1.00 44.33 LIG 0.16  HD
ATOM     22  C   SER C   0     109.639 174.843  54.520  1.00 45.23 LIG 0.25  C 
ATOM     23 O    SER C   0     110.633 174.113  54.532  1.00 45.89 LIG-0.27  OA
BRANCH 22 24
ATOM     24  CA  SER C   0     108.646 174.790  53.365  1.00 46.83 LIG 0.30  C 
BRANCH 24 25
ATOM     25  N   SER C   0     109.296 175.103  52.096  1.00 48.27 LIG-0.06  N 
ATOM     26 H2   SER C   0     110.121 174.770  52.095  1.00 48.27 LIG 0.28  HD
ATOM     27 H1   SER C   0     109.333 175.986  51.991  1.00 48.27 LIG 0.28  HD
ATOM     28 H3   SER C   0     108.830 174.744  51.428  1.00 48.27 LIG 0.28  HD
ENDBRANCH 24 25
BRANCH 24 29
ATOM     29  CB  SER C   0     107.987 173.409  53.311  1.00 47.94 LIG 0.21  C 
BRANCH 29 30
ATOM     30 OG   SER C   0     108.043 172.866  52.004  1.00 49.79 LIG-0.40  OA
ATOM     31 HG   SER C   0     108.165 172.036  52.050  1.00 49.79 LIG 0.21  HD
ENDBRANCH 29 30
ENDBRANCH 24 29
ENDBRANCH 22 24
ENDBRANCH 1 20
TORSDOF 12
ENDMDL
MODEL 22
USER: ADFR SOLUTION from run 32
USER: SCORE 9.428417 LL:  -2.243 LR:  -8.267 RR:   0.000 FEB:  -4.687
USER: RMSD 6.378896
USER: SEED 31
USER: STATUS no improvement in best in 13 clusters for 5 generations
USER: GENES 14
USER: genes 0 Translation |==|  0.52495 0.69503 0.18545
USER: genes 1 Rotation |==|  0.27830 0.58708 0.16938 0.78975
USER: genes 2 Torsion [N]-CA--C-[N] |==|  0.60287
USER: genes 3 Torsion [C]-N--CA-[C] |==|  0.85291
USER: genes 4 Torsion [N]-CA--C-[O] |==|  0.31251
USER: genes 5 Torsion [N]-CA--CB-[CG] |==|  0.74618
USER: genes 6 Torsion [CA]-CB--CG-[CD2] |==|  0.61444
USER: genes 7 Torsion [C]-CA--CB-[CG] |==|  0.21627
USER: genes 8 Torsion [CA]-CB--CG-[CD1] |==|  0.08115
USER: genes 9 Torsion [C]-CA--N-[C] |==|  0.52792
USER: genes 10 Torsion [N]-C--CA-[N] |==|  0.89274
USER: genes 11 Torsion [C]-CA--N-[H2] |==|  0.98178
USER: genes 12 Torsion [C]-CA--CB-[OG] |==|  0.69046
USER: genes 13 Torsion [CA]-CB--OG-[HG] |==|  0.59026
ROOT
ATOM      1  CA  PHE C   1     109.806 176.515  54.419  1.00 43.43 LIG 0.18  C 
ENDROOT
BRANCH 1 2
ATOM      2  C   PHE C   1     108.891 177.579  53.832  1.00 43.95 LIG 0.24  C 
ATOM      3 O    PHE C   1     109.337 178.706  53.592  1.00 42.64 LIG-0.27  OA
ATOM      4  N   LEU C   2     107.626 177.250  53.598  1.00 45.78 LIG-0.35  N 
ATOM      5 H    LEU C   2     107.317 176.449  53.645  1.00 45.78 LIG 0.16  HD
BRANCH 4 6
ATOM      6  CA  LEU C   2     106.645 178.255  53.234  1.00 46.28 LIG 0.16  C 
BRANCH 6 7
ATOM      7  C   LEU C   2     106.687 179.365  54.277  1.00 47.91 LIG 0.22  C 
ATOM      8 O    LEU C   2     107.088 180.493  53.984  1.00 50.38 LIG-0.29  OA
ENDBRANCH 6 7
BRANCH 6 9
ATOM      9  CB  LEU C   2     105.249 177.636  53.153  1.00 44.46 LIG 0.04  C 
BRANCH 9 10
ATOM     10  CG  LEU C   2     104.839 177.114  51.777  1.00 41.86 LIG-0.02  C 
ATOM     11  CD2 LEU C   2     103.389 177.467  51.488  1.00 43.32 LIG 0.01  C 
ATOM     12  CD1 LEU C   2     105.055 175.613  51.692  1.00 39.91 LIG 0.01  C 
ENDBRANCH 9 10
ENDBRANCH 6 9
ENDBRANCH 4 6
ENDBRANCH 1 2
BRANCH 1 13
ATOM     13  CB  PHE C   1     109.015 175.361  55.036  1.00 40.74 LIG 0.07  C 
BRANCH 13 14
ATOM     14  CG  PHE C   1     108.479 174.410  54.014  1.00 40.58 LIG-0.06  A 
ATOM     15  CD1 PHE C   1     109.142 174.222  52.814  1.00 41.26 LIG 0.01  A 
ATOM     16  CE1 PHE C   1     108.643 173.365  51.860  1.00 41.59 LIG 0.00  A 
ATOM     17  CZ  PHE C   1     107.463 172.691  52.095  1.00 39.95 LIG 0.00  A 
ATOM     18  CE2 PHE C   1     106.782 172.881  53.282  1.00 40.65 LIG 0.00  A 
ATOM     19  CD2 PHE C   1     107.287 173.740  54.232  1.00 39.59 LIG 0.01  A 
ENDBRANCH 13 14
ENDBRANCH 1 13
BRANCH 1 20
ATOM     20  N   PHE C   1     110.762 177.051  55.379  1.00 44.33 LIG-0.35  N 
ATOM     21 H    PHE C   1     110.612 177.867  55.604  1.00 44.33 LIG 0.16  HD
ATOM     22  C   SER C   0     111.774 176.330  55.859  1.00 45.23 LIG 0.25  C 
ATOM     23 O    SER C   0     112.021 175.181  55.484  1.00 45.89 LIG-0.27  OA
BRANCH 22 24
ATOM     24  CA  SER C   0     112.637 177.007  56.917  1.00 46.83 LIG 0.30  C 
BRANCH 24 25
ATOM     25  N   SER C   0     112.837 178.420  56.609  1.00 48.27 LIG-0.06  N 
ATOM     26 H2   SER C   0     112.495 178.600  55.808  1.00 48.27 LIG 0.28  HD
ATOM     27 H1   SER C   0     113.708 178.603  56.608  1.00 48.27 LIG 0.28  HD
ATOM     28 H3   SER C   0     112.431 178.918  57.225  1.00 48.27 LIG 0.28  HD
ENDBRANCH 24 25
BRANCH 24 29
ATOM     29  CB  SER C   0     111.993 176.839  58.297  1.00 47.94 LIG 0.21  C 
BRANCH 29 30
ATOM     30 OG   SER C   0     111.519 178.077  58.795  1.00 49.79 LIG-0.40  OA
ATOM     31 HG   SER C   0     111.588 178.087  59.632  1.00 49.79 LIG 0.21  HD
ENDBRANCH 29 30
ENDBRANCH 24 29
ENDBRANCH 22 24
ENDBRANCH 1 20
TORSDOF 12
ENDMDL
MODEL 23
USER: ADFR SOLUTION from run 116
USER: SCORE 10.276388 LL:  -2.149 LR:  -8.265 RR:   0.000 FEB:  -4.685
USER: RMSD 5.537369
USER: SEED 115
USER: STATUS no improvement in best in 20 clusters for 5 generations
USER: GENES 14
USER: genes 0 Translation |==|  0.56657 0.52226 0.31665
USER: genes 1 Rotation |==|  0.10833 0.22908 0.62474 0.58739
USER: genes 2 Torsion [N]-CA--C-[N] |==|  0.44695
USER: genes 3 Torsion [C]-N--CA-[C] |==|  0.20361
USER: genes 4 Torsion [N]-CA--C-[O] |==|  0.01394
USER: genes 5 Torsion [N]-CA--CB-[CG] |==|  0.34466
USER: genes 6 Torsion [CA]-CB--CG-[CD2] |==|  0.64724
USER: genes 7 Torsion [C]-CA--CB-[CG] |==|  0.26027
USER: genes 8 Torsion [CA]-CB--CG-[CD1] |==|  0.26674
USER: genes 9 Torsion [C]-CA--N-[C] |==|  0.56657
USER: genes 10 Torsion [N]-C--CA-[N] |==|  0.50536
USER: genes 11 Torsion [C]-CA--N-[H2] |==|  0.76856
USER: genes 12 Torsion [C]-CA--CB-[OG] |==|  0.66488
USER: genes 13 Torsion [CA]-CB--OG-[HG] |==|  0.34684
ROOT
ATOM      1  CA  PHE C   1     110.586 174.053  56.584  1.00 43.43 LIG 0.18  C 
ENDROOT
BRANCH 1 2
ATOM      2  C   PHE C   1     110.340 173.010  57.663  1.00 43.95 LIG 0.24  C 
ATOM      3 O    PHE C   1     109.201 172.566  57.837  1.00 42.64 LIG-0.27  OA
ATOM      4  N   LEU C   2     111.378 172.611  58.390  1.00 45.78 LIG-0.35  N 
ATOM      5 H    LEU C   2     112.196 172.813  58.217  1.00 45.78 LIG 0.16  HD
BRANCH 4 6
ATOM      6  CA  LEU C   2     111.195 171.779  59.564  1.00 46.28 LIG 0.16  C 
BRANCH 6 7
ATOM      7  C   LEU C   2     110.838 170.371  59.103  1.00 47.91 LIG 0.22  C 
ATOM      8 O    LEU C   2     110.838 170.080  57.906  1.00 50.38 LIG-0.29  OA
ENDBRANCH 6 7
BRANCH 6 9
ATOM      9  CB  LEU C   2     110.097 172.353  60.460  1.00 44.46 LIG 0.04  C 
BRANCH 9 10
ATOM     10  CG  LEU C   2     108.947 171.400  60.785  1.00 41.86 LIG-0.02  C 
ATOM     11  CD2 LEU C   2     107.613 172.045  60.447  1.00 43.32 LIG 0.01  C 
ATOM     12  CD1 LEU C   2     108.992 170.992  62.247  1.00 39.91 LIG 0.01  C 
ENDBRANCH 9 10
ENDBRANCH 6 9
ENDBRANCH 4 6
ENDBRANCH 1 2
BRANCH 1 13
ATOM     13  CB  PHE C   1     110.820 175.443  57.177  1.00 40.74 LIG 0.07  C 
BRANCH 13 14
ATOM     14  CG  PHE C   1     112.267 175.752  57.384  1.00 40.58 LIG-0.06  A 
ATOM     15  CD1 PHE C   1     112.976 176.467  56.434  1.00 41.26 LIG 0.01  A 
ATOM     16  CE1 PHE C   1     114.314 176.736  56.609  1.00 41.59 LIG 0.00  A 
ATOM     17  CZ  PHE C   1     114.963 176.282  57.738  1.00 39.95 LIG 0.00  A 
ATOM     18  CE2 PHE C   1     114.272 175.554  58.687  1.00 40.65 LIG 0.00  A 
ATOM     19  CD2 PHE C   1     112.934 175.288  58.506  1.00 39.59 LIG 0.01  A 
ENDBRANCH 13 14
ENDBRANCH 1 13
BRANCH 1 20
ATOM     20  N   PHE C   1     109.531 174.096  55.580  1.00 44.33 LIG-0.35  N 
ATOM     21 H    PHE C   1     108.773 173.798  55.857  1.00 44.33 LIG 0.16  HD
ATOM     22  C   SER C   0     109.734 174.559  54.348  1.00 45.23 LIG 0.25  C 
ATOM     23 O    SER C   0     110.838 174.926  53.939  1.00 45.89 LIG-0.27  OA
BRANCH 22 24
ATOM     24  CA  SER C   0     108.509 174.615  53.442  1.00 46.83 LIG 0.30  C 
BRANCH 24 25
ATOM     25  N   SER C   0     108.861 175.094  52.109  1.00 48.27 LIG-0.06  N 
ATOM     26 H2   SER C   0     108.881 175.984  52.109  1.00 48.27 LIG 0.28  HD
ATOM     27 H1   SER C   0     108.254 174.811  51.522  1.00 48.27 LIG 0.28  HD
ATOM     28 H3   SER C   0     109.661 174.779  51.882  1.00 48.27 LIG 0.28  HD
ENDBRANCH 24 25
BRANCH 24 29
ATOM     29  CB  SER C   0     107.857 173.232  53.367  1.00 47.94 LIG 0.21  C 
BRANCH 29 30
ATOM     30 OG   SER C   0     107.817 172.756  52.033  1.00 49.79 LIG-0.40  OA
ATOM     31 HG   SER C   0     108.188 172.004  51.992  1.00 49.79 LIG 0.21  HD
ENDBRANCH 29 30
ENDBRANCH 24 29
ENDBRANCH 22 24
ENDBRANCH 1 20
TORSDOF 12
ENDMDL
MODEL 24
USER: ADFR SOLUTION from run 89
USER: SCORE 10.030678 LL:  -2.150 LR:  -8.231 RR:   0.000 FEB:  -4.652
USER: RMSD 6.665957
USER: SEED 88
USER: STATUS no improvement in best in 22 clusters for 5 generations
USER: GENES 14
USER: genes 0 Translation |==|  0.56361 0.70841 0.23745
USER: genes 1 Rotation |==|  0.90096 0.32751 0.38914 0.71723
USER: genes 2 Torsion [N]-CA--C-[N] |==|  0.35139
USER: genes 3 Torsion [C]-N--CA-[C] |==|  0.78577
USER: genes 4 Torsion [N]-CA--C-[O] |==|  0.96005
USER: genes 5 Torsion [N]-CA--CB-[CG] |==|  0.08400
USER: genes 6 Torsion [CA]-CB--CG-[CD2] |==|  0.54034
USER: genes 7 Torsion [C]-CA--CB-[CG] |==|  0.26067
USER: genes 8 Torsion [CA]-CB--CG-[CD1] |==|  0.14953
USER: genes 9 Torsion [C]-CA--N-[C] |==|  0.58286
USER: genes 10 Torsion [N]-C--CA-[N] |==|  0.94549
USER: genes 11 Torsion [C]-CA--N-[H2] |==|  0.42893
USER: genes 12 Torsion [C]-CA--CB-[OG] |==|  0.78401
USER: genes 13 Torsion [CA]-CB--OG-[HG] |==|  0.14135
ROOT
ATOM      1  CA  PHE C   1     110.531 176.706  55.277  1.00 43.43 LIG 0.18  C 
ENDROOT
BRANCH 1 2
ATOM      2  C   PHE C   1     110.323 178.209  55.389  1.00 43.95 LIG 0.24  C 
ATOM      3 O    PHE C   1     110.377 178.911  54.374  1.00 42.64 LIG-0.27  OA
ATOM      4  N   LEU C   2     110.090 178.716  56.594  1.00 45.78 LIG-0.35  N 
ATOM      5 H    LEU C   2     109.932 178.243  57.295  1.00 45.78 LIG 0.16  HD
BRANCH 4 6
ATOM      6  CA  LEU C   2     110.084 180.149  56.815  1.00 46.28 LIG 0.16  C 
BRANCH 6 7
ATOM      7  C   LEU C   2     111.528 180.633  56.861  1.00 47.91 LIG 0.22  C 
ATOM      8 O    LEU C   2     112.458 179.834  56.984  1.00 50.38 LIG-0.29  OA
ENDBRANCH 6 7
BRANCH 6 9
ATOM      9  CB  LEU C   2     109.356 180.486  58.118  1.00 44.46 LIG 0.04  C 
BRANCH 9 10
ATOM     10  CG  LEU C   2     109.435 179.420  59.211  1.00 41.86 LIG-0.02  C 
ATOM     11  CD2 LEU C   2     108.404 179.695  60.293  1.00 43.32 LIG 0.01  C 
ATOM     12  CD1 LEU C   2     110.834 179.368  59.801  1.00 39.91 LIG 0.01  C 
ENDBRANCH 9 10
ENDBRANCH 6 9
ENDBRANCH 4 6
ENDBRANCH 1 2
BRANCH 1 13
ATOM     13  CB  PHE C   1     111.991 176.352  54.990  1.00 40.74 LIG 0.07  C 
BRANCH 13 14
ATOM     14  CG  PHE C   1     112.774 176.061  56.230  1.00 40.58 LIG-0.06  A 
ATOM     15  CD1 PHE C   1     112.330 175.114  57.136  1.00 41.26 LIG 0.01  A 
ATOM     16  CE1 PHE C   1     113.034 174.857  58.289  1.00 41.59 LIG 0.00  A 
ATOM     17  CZ  PHE C   1     114.193 175.557  58.554  1.00 39.95 LIG 0.00  A 
ATOM     18  CE2 PHE C   1     114.640 176.517  57.667  1.00 40.65 LIG 0.00  A 
ATOM     19  CD2 PHE C   1     113.930 176.769  56.515  1.00 39.59 LIG 0.01  A 
ENDBRANCH 13 14
ENDBRANCH 1 13
BRANCH 1 20
ATOM     20  N   PHE C   1     109.651 176.079  54.299  1.00 44.33 LIG-0.35  N 
ATOM     21 H    PHE C   1     109.432 176.594  53.645  1.00 44.33 LIG 0.16  HD
ATOM     22  C   SER C   0     109.230 174.821  54.418  1.00 45.23 LIG 0.25  C 
ATOM     23 O    SER C   0     109.496 174.110  55.390  1.00 45.89 LIG-0.27  OA
BRANCH 22 24
ATOM     24  CA  SER C   0     108.382 174.287  53.270  1.00 46.83 LIG 0.30  C 
BRANCH 24 25
ATOM     25  N   SER C   0     107.812 175.377  52.484  1.00 48.27 LIG-0.06  N 
ATOM     26 H2   SER C   0     107.651 175.093  51.656  1.00 48.27 LIG 0.28  HD
ATOM     27 H1   SER C   0     108.387 176.056  52.458  1.00 48.27 LIG 0.28  HD
ATOM     28 H3   SER C   0     107.052 175.647  52.859  1.00 48.27 LIG 0.28  HD
ENDBRANCH 24 25
BRANCH 24 29
ATOM     29  CB  SER C   0     109.227 173.365  52.385  1.00 47.94 LIG 0.21  C 
BRANCH 29 30
ATOM     30 OG   SER C   0     110.075 174.111  51.530  1.00 49.79 LIG-0.40  OA
ATOM     31 HG   SER C   0     110.503 174.674  51.982  1.00 49.79 LIG 0.21  HD
ENDBRANCH 29 30
ENDBRANCH 24 29
ENDBRANCH 22 24
ENDBRANCH 1 20
TORSDOF 12
ENDMDL
MODEL 25
USER: ADFR SOLUTION from run 30
USER: SCORE 9.620554 LL:  -2.344 LR:  -8.202 RR:   0.000 FEB:  -4.622
USER: RMSD 5.398471
USER: SEED 29
USER: STATUS no improvement in best in 20 clusters for 5 generations
USER: GENES 14
USER: genes 0 Translation |==|  0.71401 0.65898 0.32548
USER: genes 1 Rotation |==|  0.12974 0.24230 0.47588 0.71429
USER: genes 2 Torsion [N]-CA--C-[N] |==|  0.73333
USER: genes 3 Torsion [C]-N--CA-[C] |==|  0.73611
USER: genes 4 Torsion [N]-CA--C-[O] |==|  0.12814
USER: genes 5 Torsion [N]-CA--CB-[CG] |==|  0.51982
USER: genes 6 Torsion [CA]-CB--CG-[CD2] |==|  0.45561
USER: genes 7 Torsion [C]-CA--CB-[CG] |==|  0.14902
USER: genes 8 Torsion [CA]-CB--CG-[CD1] |==|  0.17120
USER: genes 9 Torsion [C]-CA--N-[C] |==|  0.16719
USER: genes 10 Torsion [N]-C--CA-[N] |==|  0.90746
USER: genes 11 Torsion [C]-CA--N-[H2] |==|  0.91456
USER: genes 12 Torsion [C]-CA--CB-[OG] |==|  0.51807
USER: genes 13 Torsion [CA]-CB--OG-[HG] |==|  0.47338
ROOT
ATOM      1  CA  PHE C   1     113.351 176.001  56.729  1.00 43.43 LIG 0.18  C 
ENDROOT
BRANCH 1 2
ATOM      2  C   PHE C   1     112.709 174.623  56.784  1.00 43.95 LIG 0.24  C 
ATOM      3 O    PHE C   1     112.894 173.825  55.859  1.00 42.64 LIG-0.27  OA
ATOM      4  N   LEU C   2     111.963 174.326  57.841  1.00 45.78 LIG-0.35  N 
ATOM      5 H    LEU C   2     111.911 174.812  58.549  1.00 45.78 LIG 0.16  HD
BRANCH 4 6
ATOM      6  CA  LEU C   2     111.157 173.121  57.875  1.00 46.28 LIG 0.16  C 
BRANCH 6 7
ATOM      7  C   LEU C   2     109.745 173.476  57.425  1.00 47.91 LIG 0.22  C 
ATOM      8 O    LEU C   2     109.557 174.172  56.426  1.00 50.38 LIG-0.29  OA
ENDBRANCH 6 7
BRANCH 6 9
ATOM      9  CB  LEU C   2     111.145 172.525  59.283  1.00 44.46 LIG 0.04  C 
BRANCH 9 10
ATOM     10  CG  LEU C   2     110.470 171.160  59.415  1.00 41.86 LIG-0.02  C 
ATOM     11  CD2 LEU C   2     110.856 170.503  60.730  1.00 43.32 LIG 0.01  C 
ATOM     12  CD1 LEU C   2     110.838 170.271  58.240  1.00 39.91 LIG 0.01  C 
ENDBRANCH 9 10
ENDBRANCH 6 9
ENDBRANCH 4 6
ENDBRANCH 1 2
BRANCH 1 13
ATOM     13  CB  PHE C   1     113.648 176.547  58.127  1.00 40.74 LIG 0.07  C 
BRANCH 13 14
ATOM     14  CG  PHE C   1     114.458 175.607  58.959  1.00 40.58 LIG-0.06  A 
ATOM     15  CD1 PHE C   1     115.731 175.235  58.563  1.00 41.26 LIG 0.01  A 
ATOM     16  CE1 PHE C   1     116.473 174.354  59.313  1.00 41.59 LIG 0.00  A 
ATOM     17  CZ  PHE C   1     115.943 173.823  60.470  1.00 39.95 LIG 0.00  A 
ATOM     18  CE2 PHE C   1     114.668 174.173  60.871  1.00 40.65 LIG 0.00  A 
ATOM     19  CD2 PHE C   1     113.930 175.055  60.115  1.00 39.59 LIG 0.01  A 
ENDBRANCH 13 14
ENDBRANCH 1 13
BRANCH 1 20
ATOM     20  N   PHE C   1     112.573 176.963  55.959  1.00 44.33 LIG-0.35  N 
ATOM     21 H    PHE C   1     112.991 177.289  55.282  1.00 44.33 LIG 0.16  HD
ATOM     22  C   SER C   0     111.325 177.298  56.285  1.00 45.23 LIG 0.25  C 
ATOM     23 O    SER C   0     110.755 176.875  57.293  1.00 45.89 LIG-0.27  OA
BRANCH 22 24
ATOM     24  CA  SER C   0     110.618 178.255  55.332  1.00 46.83 LIG 0.30  C 
BRANCH 24 25
ATOM     25  N   SER C   0     111.560 179.198  54.737  1.00 48.27 LIG-0.06  N 
ATOM     26 H2   SER C   0     112.222 179.358  55.310  1.00 48.27 LIG 0.28  HD
ATOM     27 H1   SER C   0     111.139 179.960  54.551  1.00 48.27 LIG 0.28  HD
ATOM     28 H3   SER C   0     111.892 178.853  53.988  1.00 48.27 LIG 0.28  HD
ENDBRANCH 24 25
BRANCH 24 29
ATOM     29  CB  SER C   0     109.888 177.460  54.246  1.00 47.94 LIG 0.21  C 
BRANCH 29 30
ATOM     30 OG   SER C   0     109.344 178.320  53.260  1.00 49.79 LIG-0.40  OA
ATOM     31 HG   SER C   0     109.066 177.863  52.613  1.00 49.79 LIG 0.21  HD
ENDBRANCH 29 30
ENDBRANCH 24 29
ENDBRANCH 22 24
ENDBRANCH 1 20
TORSDOF 12
ENDMDL
MODEL 26
USER: ADFR SOLUTION from run 49
USER: SCORE 9.694803 LL:  -2.205 LR:  -8.185 RR:   0.000 FEB:  -4.606
USER: RMSD 6.110994
USER: SEED 48
USER: STATUS no improvement in best in 17 clusters for 5 generations
USER: GENES 14
USER: genes 0 Translation |==|  0.60920 0.66407 0.36486
USER: genes 1 Rotation |==|  0.01098 0.48267 0.59126 0.54722
USER: genes 2 Torsion [N]-CA--C-[N] |==|  0.68678
USER: genes 3 Torsion [C]-N--CA-[C] |==|  0.67733
USER: genes 4 Torsion [N]-CA--C-[O] |==|  0.81240
USER: genes 5 Torsion [N]-CA--CB-[CG] |==|  0.93513
USER: genes 6 Torsion [CA]-CB--CG-[CD2] |==|  0.75385
USER: genes 7 Torsion [C]-CA--CB-[CG] |==|  0.21787
USER: genes 8 Torsion [CA]-CB--CG-[CD1] |==|  0.43559
USER: genes 9 Torsion [C]-CA--N-[C] |==|  0.66672
USER: genes 10 Torsion [N]-C--CA-[N] |==|  0.55525
USER: genes 11 Torsion [C]-CA--N-[H2] |==|  0.12151
USER: genes 12 Torsion [C]-CA--CB-[OG] |==|  0.42757
USER: genes 13 Torsion [CA]-CB--OG-[HG] |==|  0.11731
ROOT
ATOM      1  CA  PHE C   1     111.386 176.074  57.379  1.00 43.43 LIG 0.18  C 
ENDROOT
BRANCH 1 2
ATOM      2  C   PHE C   1     110.463 176.217  58.581  1.00 43.95 LIG 0.24  C 
ATOM      3 O    PHE C   1     109.422 175.555  58.635  1.00 42.64 LIG-0.27  OA
ATOM      4  N   LEU C   2     110.820 177.063  59.540  1.00 45.78 LIG-0.35  N 
ATOM      5 H    LEU C   2     111.588 177.448  59.586  1.00 45.78 LIG 0.16  HD
BRANCH 4 6
ATOM      6  CA  LEU C   2     109.906 177.408  60.612  1.00 46.28 LIG 0.16  C 
BRANCH 6 7
ATOM      7  C   LEU C   2     109.593 178.897  60.515  1.00 47.91 LIG 0.22  C 
ATOM      8 O    LEU C   2     110.463 179.741  60.734  1.00 50.38 LIG-0.29  OA
ENDBRANCH 6 7
BRANCH 6 9
ATOM      9  CB  LEU C   2     110.523 177.070  61.970  1.00 44.46 LIG 0.04  C 
BRANCH 9 10
ATOM     10  CG  LEU C   2     111.612 175.998  61.950  1.00 41.86 LIG-0.02  C 
ATOM     11  CD2 LEU C   2     110.997 174.617  62.107  1.00 43.32 LIG 0.01  C 
ATOM     12  CD1 LEU C   2     112.634 176.260  63.042  1.00 39.91 LIG 0.01  C 
ENDBRANCH 9 10
ENDBRANCH 6 9
ENDBRANCH 4 6
ENDBRANCH 1 2
BRANCH 1 13
ATOM     13  CB  PHE C   1     112.750 176.717  57.629  1.00 40.74 LIG 0.07  C 
BRANCH 13 14
ATOM     14  CG  PHE C   1     113.649 175.869  58.469  1.00 40.58 LIG-0.06  A 
ATOM     15  CD1 PHE C   1     115.023 176.027  58.411  1.00 41.26 LIG 0.01  A 
ATOM     16  CE1 PHE C   1     115.856 175.235  59.165  1.00 41.59 LIG 0.00  A 
ATOM     17  CZ  PHE C   1     115.322 174.263  59.985  1.00 39.95 LIG 0.00  A 
ATOM     18  CE2 PHE C   1     113.953 174.083  60.041  1.00 40.65 LIG 0.00  A 
ATOM     19  CD2 PHE C   1     113.125 174.878  59.283  1.00 39.59 LIG 0.01  A 
ENDBRANCH 13 14
ENDBRANCH 1 13
BRANCH 1 20
ATOM     20  N   PHE C   1     110.799 176.581  56.146  1.00 44.33 LIG-0.35  N 
ATOM     21 H    PHE C   1     110.595 177.416  56.173  1.00 44.33 LIG 0.16  HD
ATOM     22  C   SER C   0     110.602 175.810  55.077  1.00 45.23 LIG 0.25  C 
ATOM     23 O    SER C   0     110.838 174.600  55.067  1.00 45.89 LIG-0.27  OA
BRANCH 22 24
ATOM     24  CA  SER C   0     110.056 176.509  53.838  1.00 46.83 LIG 0.30  C 
BRANCH 24 25
ATOM     25  N   SER C   0     109.449 175.552  52.918  1.00 48.27 LIG-0.06  N 
ATOM     26 H2   SER C   0     108.949 174.975  53.376  1.00 48.27 LIG 0.28  HD
ATOM     27 H1   SER C   0     110.088 175.110  52.484  1.00 48.27 LIG 0.28  HD
ATOM     28 H3   SER C   0     108.939 175.986  52.332  1.00 48.27 LIG 0.28  HD
ENDBRANCH 24 25
BRANCH 24 29
ATOM     29  CB  SER C   0     109.044 177.581  54.250  1.00 47.94 LIG 0.21  C 
BRANCH 29 30
ATOM     30 OG   SER C   0     108.963 178.610  53.280  1.00 49.79 LIG-0.40  OA
ATOM     31 HG   SER C   0     108.964 178.271  52.512  1.00 49.79 LIG 0.21  HD
ENDBRANCH 29 30
ENDBRANCH 24 29
ENDBRANCH 22 24
ENDBRANCH 1 20
TORSDOF 12
ENDMDL
MODEL 27
USER: ADFR SOLUTION from run 52
USER: SCORE 10.164274 LL:  -2.136 LR:  -8.127 RR:   0.000 FEB:  -4.548
USER: RMSD 7.066694
USER: SEED 51
USER: STATUS no improvement in best in 10 clusters for 5 generations
USER: GENES 14
USER: genes 0 Translation |==|  0.59404 0.76180 0.20559
USER: genes 1 Rotation |==|  0.24039 0.16388 0.74091 0.60764
USER: genes 2 Torsion [N]-CA--C-[N] |==|  0.91982
USER: genes 3 Torsion [C]-N--CA-[C] |==|  0.54342
USER: genes 4 Torsion [N]-CA--C-[O] |==|  0.23152
USER: genes 5 Torsion [N]-CA--CB-[CG] |==|  0.59796
USER: genes 6 Torsion [CA]-CB--CG-[CD2] |==|  0.61424
USER: genes 7 Torsion [C]-CA--CB-[CG] |==|  0.87970
USER: genes 8 Torsion [CA]-CB--CG-[CD1] |==|  0.32634
USER: genes 9 Torsion [C]-CA--N-[C] |==|  0.85509
USER: genes 10 Torsion [N]-C--CA-[N] |==|  0.10053
USER: genes 11 Torsion [C]-CA--N-[H2] |==|  0.07177
USER: genes 12 Torsion [C]-CA--CB-[OG] |==|  0.91141
USER: genes 13 Torsion [CA]-CB--OG-[HG] |==|  0.93634
ROOT
ATOM      1  CA  PHE C   1     111.101 177.467  54.751  1.00 43.43 LIG 0.18  C 
ENDROOT
BRANCH 1 2
ATOM      2  C   PHE C   1     111.951 176.637  55.701  1.00 43.95 LIG 0.24  C 
ATOM      3 O    PHE C   1     113.179 176.767  55.697  1.00 42.64 LIG-0.27  OA
ATOM      4  N   LEU C   2     111.329 175.788  56.512  1.00 45.78 LIG-0.35  N 
ATOM      5 H    LEU C   2     110.476 175.759  56.619  1.00 45.78 LIG 0.16  HD
BRANCH 4 6
ATOM      6  CA  LEU C   2     112.071 174.821  57.297  1.00 46.28 LIG 0.16  C 
BRANCH 6 7
ATOM      7  C   LEU C   2     111.095 173.765  57.803  1.00 47.91 LIG 0.22  C 
ATOM      8 O    LEU C   2     110.770 172.814  57.092  1.00 50.38 LIG-0.29  OA
ENDBRANCH 6 7
BRANCH 6 9
ATOM      9  CB  LEU C   2     112.780 175.510  58.464  1.00 44.46 LIG 0.04  C 
BRANCH 9 10
ATOM     10  CG  LEU C   2     114.146 174.934  58.837  1.00 41.86 LIG-0.02  C 
ATOM     11  CD2 LEU C   2     114.299 174.873  60.348  1.00 43.32 LIG 0.01  C 
ATOM     12  CD1 LEU C   2     115.258 175.759  58.215  1.00 39.91 LIG 0.01  C 
ENDBRANCH 9 10
ENDBRANCH 6 9
ENDBRANCH 4 6
ENDBRANCH 1 2
BRANCH 1 13
ATOM     13  CB  PHE C   1     110.815 178.860  55.312  1.00 40.74 LIG 0.07  C 
BRANCH 13 14
ATOM     14  CG  PHE C   1     110.452 178.841  56.762  1.00 40.58 LIG-0.06  A 
ATOM     15  CD1 PHE C   1     111.246 179.485  57.695  1.00 41.26 LIG 0.01  A 
ATOM     16  CE1 PHE C   1     110.928 179.453  59.032  1.00 41.59 LIG 0.00  A 
ATOM     17  CZ  PHE C   1     109.811 178.764  59.456  1.00 39.95 LIG 0.00  A 
ATOM     18  CE2 PHE C   1     109.017 178.103  58.538  1.00 40.65 LIG 0.00  A 
ATOM     19  CD2 PHE C   1     109.341 178.139  57.201  1.00 39.59 LIG 0.01  A 
ENDBRANCH 13 14
ENDBRANCH 1 13
BRANCH 1 20
ATOM     20  N   PHE C   1     109.861 176.805  54.369  1.00 44.33 LIG-0.35  N 
ATOM     21 H    PHE C   1     109.157 177.285  54.488  1.00 44.33 LIG 0.16  HD
ATOM     22  C   SER C   0     109.832 175.566  53.879  1.00 45.23 LIG 0.25  C 
ATOM     23 O    SER C   0     110.838 174.861  53.771  1.00 45.89 LIG-0.27  OA
BRANCH 22 24
ATOM     24  CA  SER C   0     108.466 175.047  53.449  1.00 46.83 LIG 0.30  C 
BRANCH 24 25
ATOM     25  N   SER C   0     107.659 176.111  52.860  1.00 48.27 LIG-0.06  N 
ATOM     26 H2   SER C   0     108.194 176.735  52.519  1.00 48.27 LIG 0.28  HD
ATOM     27 H1   SER C   0     107.141 176.474  53.486  1.00 48.27 LIG 0.28  HD
ATOM     28 H3   SER C   0     107.148 175.773  52.214  1.00 48.27 LIG 0.28  HD
ENDBRANCH 24 25
BRANCH 24 29
ATOM     29  CB  SER C   0     108.637 173.887  52.464  1.00 47.94 LIG 0.21  C 
BRANCH 29 30
ATOM     30 OG   SER C   0     109.804 174.050  51.678  1.00 49.79 LIG-0.40  OA
ATOM     31 HG   SER C   0     110.017 174.862  51.658  1.00 49.79 LIG 0.21  HD
ENDBRANCH 29 30
ENDBRANCH 24 29
ENDBRANCH 22 24
ENDBRANCH 1 20
TORSDOF 12
ENDMDL
MODEL 28
USER: ADFR SOLUTION from run 120
USER: SCORE 10.180336 LL:  -2.051 LR:  -8.132 RR:   0.000 FEB:  -4.553
USER: RMSD 6.635565
USER: SEED 119
USER: STATUS no improvement in best in 14 clusters for 5 generations
USER: GENES 14
USER: genes 0 Translation |==|  0.53294 0.66655 0.34770
USER: genes 1 Rotation |==|  0.87965 0.19943 0.37576 0.50958
USER: genes 2 Torsion [N]-CA--C-[N] |==|  0.93819
USER: genes 3 Torsion [C]-N--CA-[C] |==|  0.86274
USER: genes 4 Torsion [N]-CA--C-[O] |==|  0.39698
USER: genes 5 Torsion [N]-CA--CB-[CG] |==|  0.10528
USER: genes 6 Torsion [CA]-CB--CG-[CD2] |==|  0.12837
USER: genes 7 Torsion [C]-CA--CB-[CG] |==|  0.91988
USER: genes 8 Torsion [CA]-CB--CG-[CD1] |==|  0.31622
USER: genes 9 Torsion [C]-CA--N-[C] |==|  0.81184
USER: genes 10 Torsion [N]-C--CA-[N] |==|  0.12564
USER: genes 11 Torsion [C]-CA--N-[H2] |==|  0.71015
USER: genes 12 Torsion [C]-CA--CB-[OG] |==|  0.31937
USER: genes 13 Torsion [CA]-CB--OG-[HG] |==|  0.43193
ROOT
ATOM      1  CA  PHE C   1     109.956 176.109  57.096  1.00 43.43 LIG 0.18  C 
ENDROOT
BRANCH 1 2
ATOM      2  C   PHE C   1     110.426 177.189  58.059  1.00 43.95 LIG 0.24  C 
ATOM      3 O    PHE C   1     110.349 177.000  59.277  1.00 42.64 LIG-0.27  OA
ATOM      4  N   LEU C   2     110.908 178.314  57.543  1.00 45.78 LIG-0.35  N 
ATOM      5 H    LEU C   2     111.082 178.428  56.708  1.00 45.78 LIG 0.16  HD
BRANCH 4 6
ATOM      6  CA  LEU C   2     111.186 179.464  58.381  1.00 46.28 LIG 0.16  C 
BRANCH 6 7
ATOM      7  C   LEU C   2     109.963 179.730  59.251  1.00 47.91 LIG 0.22  C 
ATOM      8 O    LEU C   2     110.088 180.111  60.416  1.00 50.38 LIG-0.29  OA
ENDBRANCH 6 7
BRANCH 6 9
ATOM      9  CB  LEU C   2     111.517 180.685  57.521  1.00 44.46 LIG 0.04  C 
BRANCH 9 10
ATOM     10  CG  LEU C   2     110.704 180.824  56.234  1.00 41.86 LIG-0.02  C 
ATOM     11  CD2 LEU C   2     109.228 180.591  56.512  1.00 43.32 LIG 0.01  C 
ATOM     12  CD1 LEU C   2     111.213 179.858  55.179  1.00 39.91 LIG 0.01  C 
ENDBRANCH 9 10
ENDBRANCH 6 9
ENDBRANCH 4 6
ENDBRANCH 1 2
BRANCH 1 13
ATOM     13  CB  PHE C   1     110.966 174.967  56.983  1.00 40.74 LIG 0.07  C 
BRANCH 13 14
ATOM     14  CG  PHE C   1     112.373 175.408  57.226  1.00 40.58 LIG-0.06  A 
ATOM     15  CD1 PHE C   1     113.071 174.956  58.332  1.00 41.26 LIG 0.01  A 
ATOM     16  CE1 PHE C   1     114.359 175.375  58.573  1.00 41.59 LIG 0.00  A 
ATOM     17  CZ  PHE C   1     114.963 176.265  57.709  1.00 39.95 LIG 0.00  A 
ATOM     18  CE2 PHE C   1     114.273 176.737  56.609  1.00 40.65 LIG 0.00  A 
ATOM     19  CD2 PHE C   1     112.985 176.314  56.375  1.00 39.59 LIG 0.01  A 
ENDBRANCH 13 14
ENDBRANCH 1 13
BRANCH 1 20
ATOM     20  N   PHE C   1     109.620 176.628  55.776  1.00 44.33 LIG-0.35  N 
ATOM     21 H    PHE C   1     110.155 176.371  55.154  1.00 44.33 LIG 0.16  HD
ATOM     22  C   SER C   0     108.575 177.427  55.566  1.00 45.23 LIG 0.25  C 
ATOM     23 O    SER C   0     107.851 177.843  56.473  1.00 45.89 LIG-0.27  OA
BRANCH 22 24
ATOM     24  CA  SER C   0     108.311 177.816  54.117  1.00 46.83 LIG 0.30  C 
BRANCH 24 25
ATOM     25  N   SER C   0     108.404 176.657  53.234  1.00 48.27 LIG-0.06  N 
ATOM     26 H2   SER C   0     109.172 176.687  52.785  1.00 48.27 LIG 0.28  HD
ATOM     27 H1   SER C   0     107.725 176.666  52.659  1.00 48.27 LIG 0.28  HD
ATOM     28 H3   SER C   0     108.372 175.912  53.719  1.00 48.27 LIG 0.28  HD
ENDBRANCH 24 25
BRANCH 24 29
ATOM     29  CB  SER C   0     106.934 178.477  53.999  1.00 47.94 LIG 0.21  C 
BRANCH 29 30
ATOM     30 OG   SER C   0     107.049 179.834  53.609  1.00 49.79 LIG-0.40  OA
ATOM     31 HG   SER C   0     106.338 180.078  53.234  1.00 49.79 LIG 0.21  HD
ENDBRANCH 29 30
ENDBRANCH 24 29
ENDBRANCH 22 24
ENDBRANCH 1 20
TORSDOF 12
ENDMDL
MODEL 29
USER: ADFR SOLUTION from run 86
USER: SCORE 9.843268 LL:  -2.159 LR:  -8.115 RR:   0.000 FEB:  -4.535
USER: RMSD 6.842354
USER: SEED 85
USER: STATUS no improvement in best in 9 clusters for 5 generations
USER: GENES 14
USER: genes 0 Translation |==|  0.56032 0.65182 0.20744
USER: genes 1 Rotation |==|  0.33421 0.66908 0.16958 0.79112
USER: genes 2 Torsion [N]-CA--C-[N] |==|  0.83597
USER: genes 3 Torsion [C]-N--CA-[C] |==|  0.17384
USER: genes 4 Torsion [N]-CA--C-[O] |==|  0.61426
USER: genes 5 Torsion [N]-CA--CB-[CG] |==|  0.79724
USER: genes 6 Torsion [CA]-CB--CG-[CD2] |==|  0.23485
USER: genes 7 Torsion [C]-CA--CB-[CG] |==|  0.22288
USER: genes 8 Torsion [CA]-CB--CG-[CD1] |==|  0.60877
USER: genes 9 Torsion [C]-CA--N-[C] |==|  0.73173
USER: genes 10 Torsion [N]-C--CA-[N] |==|  0.66724
USER: genes 11 Torsion [C]-CA--N-[H2] |==|  0.00740
USER: genes 12 Torsion [C]-CA--CB-[OG] |==|  0.56698
USER: genes 13 Torsion [CA]-CB--OG-[HG] |==|  0.36954
ROOT
ATOM      1  CA  PHE C   1     110.469 175.899  54.782  1.00 43.43 LIG 0.18  C 
ENDROOT
BRANCH 1 2
ATOM      2  C   PHE C   1     109.760 177.240  54.657  1.00 43.95 LIG 0.24  C 
ATOM      3 O    PHE C   1     109.766 177.838  53.576  1.00 42.64 LIG-0.27  OA
ATOM      4  N   LEU C   2     109.152 177.723  55.734  1.00 45.78 LIG-0.35  N 
ATOM      5 H    LEU C   2     109.032 177.280  56.462  1.00 45.78 LIG 0.16  HD
BRANCH 4 6
ATOM      6  CA  LEU C   2     108.632 179.077  55.757  1.00 46.28 LIG 0.16  C 
BRANCH 6 7
ATOM      7  C   LEU C   2     107.546 179.191  54.695  1.00 47.91 LIG 0.22  C 
ATOM      8 O    LEU C   2     107.461 180.194  53.984  1.00 50.38 LIG-0.29  OA
ENDBRANCH 6 7
BRANCH 6 9
ATOM      9  CB  LEU C   2     109.754 180.085  55.499  1.00 44.46 LIG 0.04  C 
BRANCH 9 10
ATOM     10  CG  LEU C   2     110.737 180.285  56.652  1.00 41.86 LIG-0.02  C 
ATOM     11  CD2 LEU C   2     111.825 179.225  56.610  1.00 43.32 LIG 0.01  C 
ATOM     12  CD1 LEU C   2     110.007 180.255  57.984  1.00 39.91 LIG 0.01  C 
ENDBRANCH 9 10
ENDBRANCH 6 9
ENDBRANCH 4 6
ENDBRANCH 1 2
BRANCH 1 13
ATOM     13  CB  PHE C   1     109.485 174.755  55.027  1.00 40.74 LIG 0.07  C 
BRANCH 13 14
ATOM     14  CG  PHE C   1     108.816 174.284  53.776  1.00 40.58 LIG-0.06  A 
ATOM     15  CD1 PHE C   1     107.477 173.933  53.784  1.00 41.26 LIG 0.01  A 
ATOM     16  CE1 PHE C   1     106.861 173.479  52.642  1.00 41.59 LIG 0.00  A 
ATOM     17  CZ  PHE C   1     107.584 173.361  51.473  1.00 39.95 LIG 0.00  A 
ATOM     18  CE2 PHE C   1     108.925 173.693  51.454  1.00 40.65 LIG 0.00  A 
ATOM     19  CD2 PHE C   1     109.536 174.146  52.601  1.00 39.59 LIG 0.01  A 
ENDBRANCH 13 14
ENDBRANCH 1 13
BRANCH 1 20
ATOM     20  N   PHE C   1     111.516 175.900  55.795  1.00 44.33 LIG-0.35  N 
ATOM     21 H    PHE C   1     111.230 175.760  56.594  1.00 44.33 LIG 0.16  HD
ATOM     22  C   SER C   0     112.800 176.098  55.497  1.00 45.23 LIG 0.25  C 
ATOM     23 O    SER C   0     113.194 176.361  54.359  1.00 45.89 LIG-0.27  OA
BRANCH 22 24
ATOM     24  CA  SER C   0     113.782 175.986  56.657  1.00 46.83 LIG 0.30  C 
BRANCH 24 25
ATOM     25  N   SER C   0     114.506 177.238  56.857  1.00 48.27 LIG-0.06  N 
ATOM     26 H2   SER C   0     114.207 177.849  56.283  1.00 48.27 LIG 0.28  HD
ATOM     27 H1   SER C   0     115.375 177.103  56.721  1.00 48.27 LIG 0.28  HD
ATOM     28 H3   SER C   0     114.378 177.525  57.690  1.00 48.27 LIG 0.28  HD
ENDBRANCH 24 25
BRANCH 24 29
ATOM     29  CB  SER C   0     113.036 175.582  57.932  1.00 47.94 LIG 0.21  C 
BRANCH 29 30
ATOM     30 OG   SER C   0     113.743 175.987  59.090  1.00 49.79 LIG-0.40  OA
ATOM     31 HG   SER C   0     113.214 176.359  59.625  1.00 49.79 LIG 0.21  HD
ENDBRANCH 29 30
ENDBRANCH 24 29
ENDBRANCH 22 24
ENDBRANCH 1 20
TORSDOF 12
ENDMDL
MODEL 30
USER: ADFR SOLUTION from run 10
USER: SCORE 10.103773 LL:  -2.769 LR:  -8.098 RR:   0.000 FEB:  -4.518
USER: RMSD 6.538948
USER: SEED 941553
USER: STATUS no improvement in best in 22 clusters for 5 generations
USER: GENES 14
USER: genes 0 Translation |==|  0.50149 0.55911 0.33974
USER: genes 1 Rotation |==|  0.85561 0.19633 0.39362 0.64147
USER: genes 2 Torsion [N]-CA--C-[N] |==|  0.89195
USER: genes 3 Torsion [C]-N--CA-[C] |==|  0.59396
USER: genes 4 Torsion [N]-CA--C-[O] |==|  0.00891
USER: genes 5 Torsion [N]-CA--CB-[CG] |==|  0.03612
USER: genes 6 Torsion [CA]-CB--CG-[CD2] |==|  0.50752
USER: genes 7 Torsion [C]-CA--CB-[CG] |==|  0.10951
USER: genes 8 Torsion [CA]-CB--CG-[CD1] |==|  0.19722
USER: genes 9 Torsion [C]-CA--N-[C] |==|  0.19956
USER: genes 10 Torsion [N]-C--CA-[N] |==|  0.32661
USER: genes 11 Torsion [C]-CA--N-[H2] |==|  0.01042
USER: genes 12 Torsion [C]-CA--CB-[OG] |==|  0.38703
USER: genes 13 Torsion [CA]-CB--OG-[HG] |==|  0.53423
ROOT
ATOM      1  CA  PHE C   1     109.366 174.578  56.965  1.00 43.43 LIG 0.18  C 
ENDROOT
BRANCH 1 2
ATOM      2  C   PHE C   1     109.930 175.972  57.198  1.00 43.95 LIG 0.24  C 
ATOM      3 O    PHE C   1     109.912 176.458  58.333  1.00 42.64 LIG-0.27  OA
ATOM      4  N   LEU C   2     110.428 176.623  56.153  1.00 45.78 LIG-0.35  N 
ATOM      5 H    LEU C   2     110.560 176.269  55.380  1.00 45.78 LIG 0.16  HD
BRANCH 4 6
ATOM      6  CA  LEU C   2     110.796 178.022  56.248  1.00 46.28 LIG 0.16  C 
BRANCH 6 7
ATOM      7  C   LEU C   2     110.515 178.685  54.904  1.00 47.91 LIG 0.22  C 
ATOM      8 O    LEU C   2     109.998 178.050  53.984  1.00 50.38 LIG-0.29  OA
ENDBRANCH 6 7
BRANCH 6 9
ATOM      9  CB  LEU C   2     112.271 178.163  56.627  1.00 44.46 LIG 0.04  C 
BRANCH 9 10
ATOM     10  CG  LEU C   2     113.104 176.886  56.519  1.00 41.86 LIG-0.02  C 
ATOM     11  CD2 LEU C   2     114.528 177.142  56.984  1.00 43.32 LIG 0.01  C 
ATOM     12  CD1 LEU C   2     113.088 176.361  55.094  1.00 39.91 LIG 0.01  C 
ENDBRANCH 9 10
ENDBRANCH 6 9
ENDBRANCH 4 6
ENDBRANCH 1 2
BRANCH 1 13
ATOM     13  CB  PHE C   1     110.449 173.502  57.057  1.00 40.74 LIG 0.07  C 
BRANCH 13 14
ATOM     14  CG  PHE C   1     111.435 173.760  58.150  1.00 40.58 LIG-0.06  A 
ATOM     15  CD1 PHE C   1     111.066 173.622  59.477  1.00 41.26 LIG 0.01  A 
ATOM     16  CE1 PHE C   1     111.962 173.879  60.488  1.00 41.59 LIG 0.00  A 
ATOM     17  CZ  PHE C   1     113.242 174.289  60.181  1.00 39.95 LIG 0.00  A 
ATOM     18  CE2 PHE C   1     113.620 174.447  58.862  1.00 40.65 LIG 0.00  A 
ATOM     19  CD2 PHE C   1     112.719 174.189  57.855  1.00 39.59 LIG 0.01  A 
ENDBRANCH 13 14
ENDBRANCH 1 13
BRANCH 1 20
ATOM     20  N   PHE C   1     108.634 174.461  55.710  1.00 44.33 LIG-0.35  N 
ATOM     21 H    PHE C   1     107.782 174.395  55.807  1.00 44.33 LIG 0.16  HD
ATOM     22  C   SER C   0     109.242 174.459  54.525  1.00 45.23 LIG 0.25  C 
ATOM     23 O    SER C   0     110.468 174.490  54.396  1.00 45.89 LIG-0.27  OA
BRANCH 22 24
ATOM     24  CA  SER C   0     108.331 174.413  53.304  1.00 46.83 LIG 0.30  C 
BRANCH 24 25
ATOM     25  N   SER C   0     108.486 175.611  52.485  1.00 48.27 LIG-0.06  N 
ATOM     26 H2   SER C   0     109.128 176.123  52.827  1.00 48.27 LIG 0.28  HD
ATOM     27 H1   SER C   0     107.720 176.064  52.474  1.00 48.27 LIG 0.28  HD
ATOM     28 H3   SER C   0     108.703 175.377  51.654  1.00 48.27 LIG 0.28  HD
ENDBRANCH 24 25
BRANCH 24 29
ATOM     29  CB  SER C   0     108.625 173.153  52.484  1.00 47.94 LIG 0.21  C 
BRANCH 29 30
ATOM     30 OG   SER C   0     107.430 172.563  52.006  1.00 49.79 LIG-0.40  OA
ATOM     31 HG   SER C   0     107.596 171.795  51.708  1.00 49.79 LIG 0.21  HD
ENDBRANCH 29 30
ENDBRANCH 24 29
ENDBRANCH 22 24
ENDBRANCH 1 20
TORSDOF 12
ENDMDL
MODEL 31
USER: ADFR SOLUTION from run 50
USER: SCORE 9.871068 LL:  -1.966 LR:  -8.066 RR:   0.000 FEB:  -4.486
USER: RMSD 7.954092
USER: SEED 49
USER: STATUS no improvement in best in 31 clusters for 5 generations
USER: GENES 14
USER: genes 0 Translation |==|  0.48770 0.70668 0.19555
USER: genes 1 Rotation |==|  0.81020 0.24357 0.21686 0.58858
USER: genes 2 Torsion [N]-CA--C-[N] |==|  0.30636
USER: genes 3 Torsion [C]-N--CA-[C] |==|  0.17183
USER: genes 4 Torsion [N]-CA--C-[O] |==|  0.05997
USER: genes 5 Torsion [N]-CA--CB-[CG] |==|  0.80597
USER: genes 6 Torsion [CA]-CB--CG-[CD2] |==|  0.60006
USER: genes 7 Torsion [C]-CA--CB-[CG] |==|  0.47423
USER: genes 8 Torsion [CA]-CB--CG-[CD1] |==|  0.40895
USER: genes 9 Torsion [C]-CA--N-[C] |==|  0.73334
USER: genes 10 Torsion [N]-C--CA-[N] |==|  0.79185
USER: genes 11 Torsion [C]-CA--N-[H2] |==|  0.59409
USER: genes 12 Torsion [C]-CA--CB-[OG] |==|  0.52055
USER: genes 13 Torsion [CA]-CB--OG-[HG] |==|  0.14774
ROOT
ATOM      1  CA  PHE C   1     109.107 176.681  54.586  1.00 43.43 LIG 0.18  C 
ENDROOT
BRANCH 1 2
ATOM      2  C   PHE C   1     110.151 177.641  55.137  1.00 43.95 LIG 0.24  C 
ATOM      3 O    PHE C   1     110.839 178.310  54.359  1.00 42.64 LIG-0.27  OA
ATOM      4  N   LEU C   2     110.285 177.722  56.455  1.00 45.78 LIG-0.35  N 
ATOM      5 H    LEU C   2     109.747 177.360  57.020  1.00 45.78 LIG 0.16  HD
BRANCH 4 6
ATOM      6  CA  LEU C   2     111.386 178.453  57.053  1.00 46.28 LIG 0.16  C 
BRANCH 6 7
ATOM      7  C   LEU C   2     111.275 179.914  56.635  1.00 47.91 LIG 0.22  C 
ATOM      8 O    LEU C   2     110.199 180.383  56.260  1.00 50.38 LIG-0.29  OA
ENDBRANCH 6 7
BRANCH 6 9
ATOM      9  CB  LEU C   2     112.725 177.861  56.609  1.00 44.46 LIG 0.04  C 
BRANCH 9 10
ATOM     10  CG  LEU C   2     113.053 176.479  57.173  1.00 41.86 LIG-0.02  C 
ATOM     11  CD2 LEU C   2     114.542 176.361  57.452  1.00 43.32 LIG 0.01  C 
ATOM     12  CD1 LEU C   2     112.597 175.392  56.215  1.00 39.91 LIG 0.01  C 
ENDBRANCH 9 10
ENDBRANCH 6 9
ENDBRANCH 4 6
ENDBRANCH 1 2
BRANCH 1 13
ATOM     13  CB  PHE C   1     109.717 175.675  53.609  1.00 40.74 LIG 0.07  C 
BRANCH 13 14
ATOM     14  CG  PHE C   1     108.767 174.588  53.223  1.00 40.58 LIG-0.06  A 
ATOM     15  CD1 PHE C   1     108.817 174.026  51.959  1.00 41.26 LIG 0.01  A 
ATOM     16  CE1 PHE C   1     107.931 173.040  51.591  1.00 41.59 LIG 0.00  A 
ATOM     17  CZ  PHE C   1     106.973 172.611  52.485  1.00 39.95 LIG 0.00  A 
ATOM     18  CE2 PHE C   1     106.901 173.174  53.745  1.00 40.65 LIG 0.00  A 
ATOM     19  CD2 PHE C   1     107.790 174.159  54.107  1.00 39.59 LIG 0.01  A 
ENDBRANCH 13 14
ENDBRANCH 1 13
BRANCH 1 20
ATOM     20  N   PHE C   1     107.972 177.362  53.976  1.00 44.33 LIG-0.35  N 
ATOM     21 H    PHE C   1     108.101 177.593  53.158  1.00 44.33 LIG 0.16  HD
ATOM     22  C   SER C   0     106.840 177.597  54.638  1.00 45.23 LIG 0.25  C 
ATOM     23 O    SER C   0     106.686 177.320  55.829  1.00 45.89 LIG-0.27  OA
BRANCH 22 24
ATOM     24  CA  SER C   0     105.718 178.245  53.836  1.00 46.83 LIG 0.30  C 
BRANCH 24 25
ATOM     25  N   SER C   0     105.981 179.662  53.609  1.00 48.27 LIG-0.06  N 
ATOM     26 H2   SER C   0     105.213 180.111  53.609  1.00 48.27 LIG 0.28  HD
ATOM     27 H1   SER C   0     106.386 179.767  52.823  1.00 48.27 LIG 0.28  HD
ATOM     28 H3   SER C   0     106.507 179.974  54.256  1.00 48.27 LIG 0.28  HD
ENDBRANCH 24 25
BRANCH 24 29
ATOM     29  CB  SER C   0     105.537 177.507  52.506  1.00 47.94 LIG 0.21  C 
BRANCH 29 30
ATOM     30 OG   SER C   0     104.620 178.183  51.665  1.00 49.79 LIG-0.40  OA
ATOM     31 HG   SER C   0     104.855 178.985  51.581  1.00 49.79 LIG 0.21  HD
ENDBRANCH 29 30
ENDBRANCH 24 29
ENDBRANCH 22 24
ENDBRANCH 1 20
TORSDOF 12
ENDMDL
MODEL 32
USER: ADFR SOLUTION from run 150
USER: SCORE 10.109260 LL:  -2.126 LR:  -8.051 RR:   0.000 FEB:  -4.471
USER: RMSD 7.702962
USER: SEED 149
USER: STATUS no improvement in best in 20 clusters for 5 generations
USER: GENES 14
USER: genes 0 Translation |==|  0.57257 0.73398 0.19844
USER: genes 1 Rotation |==|  0.27625 0.15311 0.74893 0.63280
USER: genes 2 Torsion [N]-CA--C-[N] |==|  0.87778
USER: genes 3 Torsion [C]-N--CA-[C] |==|  0.57980
USER: genes 4 Torsion [N]-CA--C-[O] |==|  0.10241
USER: genes 5 Torsion [N]-CA--CB-[CG] |==|  0.72371
USER: genes 6 Torsion [CA]-CB--CG-[CD2] |==|  0.60995
USER: genes 7 Torsion [C]-CA--CB-[CG] |==|  0.60457
USER: genes 8 Torsion [CA]-CB--CG-[CD1] |==|  0.32689
USER: genes 9 Torsion [C]-CA--N-[C] |==|  0.84020
USER: genes 10 Torsion [N]-C--CA-[N] |==|  0.19657
USER: genes 11 Torsion [C]-CA--N-[H2] |==|  0.93816
USER: genes 12 Torsion [C]-CA--CB-[OG] |==|  0.67657
USER: genes 13 Torsion [CA]-CB--OG-[HG] |==|  0.48014
ROOT
ATOM      1  CA  PHE C   1     110.699 177.070  54.633  1.00 43.43 LIG 0.18  C 
ENDROOT
BRANCH 1 2
ATOM      2  C   PHE C   1     111.735 176.243  55.378  1.00 43.95 LIG 0.24  C 
ATOM      3 O    PHE C   1     112.917 176.272  55.017  1.00 42.64 LIG-0.27  OA
ATOM      4  N   LEU C   2     111.323 175.509  56.405  1.00 45.78 LIG-0.35  N 
ATOM      5 H    LEU C   2     110.537 175.557  56.750  1.00 45.78 LIG 0.16  HD
BRANCH 4 6
ATOM      6  CA  LEU C   2     112.202 174.542  57.035  1.00 46.28 LIG 0.16  C 
BRANCH 6 7
ATOM      7  C   LEU C   2     111.345 173.423  57.617  1.00 47.91 LIG 0.22  C 
ATOM      8 O    LEU C   2     110.337 173.030  57.029  1.00 50.38 LIG-0.29  OA
ENDBRANCH 6 7
BRANCH 6 9
ATOM      9  CB  LEU C   2     113.037 175.211  58.128  1.00 44.46 LIG 0.04  C 
BRANCH 9 10
ATOM     10  CG  LEU C   2     114.465 175.585  57.730  1.00 41.86 LIG-0.02  C 
ATOM     11  CD2 LEU C   2     115.424 175.304  58.875  1.00 43.32 LIG 0.01  C 
ATOM     12  CD1 LEU C   2     114.535 177.044  57.313  1.00 39.91 LIG 0.01  C 
ENDBRANCH 9 10
ENDBRANCH 6 9
ENDBRANCH 4 6
ENDBRANCH 1 2
BRANCH 1 13
ATOM     13  CB  PHE C   1     110.400 178.389  55.349  1.00 40.74 LIG 0.07  C 
BRANCH 13 14
ATOM     14  CG  PHE C   1     108.958 178.776  55.277  1.00 40.58 LIG-0.06  A 
ATOM     15  CD1 PHE C   1     108.202 178.888  56.431  1.00 41.26 LIG 0.01  A 
ATOM     16  CE1 PHE C   1     106.870 179.224  56.371  1.00 41.59 LIG 0.00  A 
ATOM     17  CZ  PHE C   1     106.273 179.442  55.147  1.00 39.95 LIG 0.00  A 
ATOM     18  CE2 PHE C   1     107.011 179.319  53.985  1.00 40.65 LIG 0.00  A 
ATOM     19  CD2 PHE C   1     108.344 178.983  54.053  1.00 39.59 LIG 0.01  A 
ENDBRANCH 13 14
ENDBRANCH 1 13
BRANCH 1 20
ATOM     20  N   PHE C   1     109.466 176.339  54.372  1.00 44.33 LIG-0.35  N 
ATOM     21 H    PHE C   1     108.762 176.714  54.695  1.00 44.33 LIG 0.16  HD
ATOM     22  C   SER C   0     109.444 175.193  53.693  1.00 45.23 LIG 0.25  C 
ATOM     23 O    SER C   0     110.463 174.630  53.289  1.00 45.89 LIG-0.27  OA
BRANCH 22 24
ATOM     24  CA  SER C   0     108.066 174.595  53.433  1.00 46.83 LIG 0.30  C 
BRANCH 24 25
ATOM     25  N   SER C   0     107.323 175.387  52.457  1.00 48.27 LIG-0.06  N 
ATOM     26 H2   SER C   0     107.650 176.214  52.435  1.00 48.27 LIG 0.28  HD
ATOM     27 H1   SER C   0     106.464 175.414  52.690  1.00 48.27 LIG 0.28  HD
ATOM     28 H3   SER C   0     107.400 175.015  51.652  1.00 48.27 LIG 0.28  HD
ENDBRANCH 24 25
BRANCH 24 29
ATOM     29  CB  SER C   0     108.211 173.146  52.958  1.00 47.94 LIG 0.21  C 
BRANCH 29 30
ATOM     30 OG   SER C   0     107.724 172.989  51.637  1.00 49.79 LIG-0.40  OA
ATOM     31 HG   SER C   0     107.901 172.216  51.363  1.00 49.79 LIG 0.21  HD
ENDBRANCH 29 30
ENDBRANCH 24 29
ENDBRANCH 22 24
ENDBRANCH 1 20
TORSDOF 12
ENDMDL
MODEL 33
USER: ADFR SOLUTION from run 54
USER: SCORE 10.395607 LL:  -2.458 LR:  -8.055 RR:   0.000 FEB:  -4.475
USER: RMSD 7.495993
USER: SEED 53
USER: STATUS no improvement in best in 16 clusters for 5 generations
USER: GENES 14
USER: genes 0 Translation |==|  0.51428 0.66371 0.15190
USER: genes 1 Rotation |==|  0.19766 0.17808 0.73351 0.52081
USER: genes 2 Torsion [N]-CA--C-[N] |==|  0.38616
USER: genes 3 Torsion [C]-N--CA-[C] |==|  0.81843
USER: genes 4 Torsion [N]-CA--C-[O] |==|  0.49471
USER: genes 5 Torsion [N]-CA--CB-[CG] |==|  0.31035
USER: genes 6 Torsion [CA]-CB--CG-[CD2] |==|  0.68699
USER: genes 7 Torsion [C]-CA--CB-[CG] |==|  0.05593
USER: genes 8 Torsion [CA]-CB--CG-[CD1] |==|  0.72535
USER: genes 9 Torsion [C]-CA--N-[C] |==|  0.72488
USER: genes 10 Torsion [N]-C--CA-[N] |==|  0.69151
USER: genes 11 Torsion [C]-CA--N-[H2] |==|  0.66132
USER: genes 12 Torsion [C]-CA--CB-[OG] |==|  0.60379
USER: genes 13 Torsion [CA]-CB--OG-[HG] |==|  0.49393
ROOT
ATOM      1  CA  PHE C   1     109.606 176.069  53.865  1.00 43.43 LIG 0.18  C 
ENDROOT
BRANCH 1 2
ATOM      2  C   PHE C   1     110.097 175.511  55.192  1.00 43.95 LIG 0.24  C 
ATOM      3 O    PHE C   1     109.283 175.071  56.011  1.00 42.64 LIG-0.27  OA
ATOM      4  N   LEU C   2     111.405 175.519  55.424  1.00 45.78 LIG-0.35  N 
ATOM      5 H    LEU C   2     112.000 175.709  54.832  1.00 45.78 LIG 0.16  HD
BRANCH 4 6
ATOM      6  CA  LEU C   2     111.936 175.197  56.734  1.00 46.28 LIG 0.16  C 
BRANCH 6 7
ATOM      7  C   LEU C   2     111.483 176.274  57.713  1.00 47.91 LIG 0.22  C 
ATOM      8 O    LEU C   2     111.779 176.207  58.907  1.00 50.38 LIG-0.29  OA
ENDBRANCH 6 7
BRANCH 6 9
ATOM      9  CB  LEU C   2     113.462 175.112  56.687  1.00 44.46 LIG 0.04  C 
BRANCH 9 10
ATOM     10  CG  LEU C   2     114.207 176.214  57.440  1.00 41.86 LIG-0.02  C 
ATOM     11  CD2 LEU C   2     114.952 177.111  56.465  1.00 43.32 LIG 0.01  C 
ATOM     12  CD1 LEU C   2     115.162 175.611  58.455  1.00 39.91 LIG 0.01  C 
ENDBRANCH 9 10
ENDBRANCH 6 9
ENDBRANCH 4 6
ENDBRANCH 1 2
BRANCH 1 13
ATOM     13  CB  PHE C   1     109.185 177.534  53.984  1.00 40.74 LIG 0.07  C 
BRANCH 13 14
ATOM     14  CG  PHE C   1     109.773 178.214  55.178  1.00 40.58 LIG-0.06  A 
ATOM     15  CD1 PHE C   1     109.031 178.370  56.336  1.00 41.26 LIG 0.01  A 
ATOM     16  CE1 PHE C   1     109.559 179.013  57.430  1.00 41.59 LIG 0.00  A 
ATOM     17  CZ  PHE C   1     110.840 179.520  57.376  1.00 39.95 LIG 0.00  A 
ATOM     18  CE2 PHE C   1     111.588 179.386  56.222  1.00 40.65 LIG 0.00  A 
ATOM     19  CD2 PHE C   1     111.054 178.741  55.130  1.00 39.59 LIG 0.01  A 
ENDBRANCH 13 14
ENDBRANCH 1 13
BRANCH 1 20
ATOM     20  N   PHE C   1     108.536 175.276  53.274  1.00 44.33 LIG-0.35  N 
ATOM     21 H    PHE C   1     107.758 175.438  53.602  1.00 44.33 LIG 0.16  HD
ATOM     22  C   SER C   0     108.757 174.384  52.309  1.00 45.23 LIG 0.25  C 
ATOM     23 O    SER C   0     109.883 174.111  51.888  1.00 45.89 LIG-0.27  OA
BRANCH 22 24
ATOM     24  CA  SER C   0     107.523 173.695  51.738  1.00 46.83 LIG 0.30  C 
BRANCH 24 25
ATOM     25  N   SER C   0     107.487 172.284  52.109  1.00 48.27 LIG-0.06  N 
ATOM     26 H2   SER C   0     107.463 171.784  51.373  1.00 48.27 LIG 0.28  HD
ATOM     27 H1   SER C   0     106.762 172.124  52.600  1.00 48.27 LIG 0.28  HD
ATOM     28 H3   SER C   0     108.214 172.083  52.582  1.00 48.27 LIG 0.28  HD
ENDBRANCH 24 25
BRANCH 24 29
ATOM     29  CB  SER C   0     106.258 174.414  52.219  1.00 47.94 LIG 0.21  C 
BRANCH 29 30
ATOM     30 OG   SER C   0     105.215 173.493  52.484  1.00 49.79 LIG-0.40  OA
ATOM     31 HG   SER C   0     104.544 173.906  52.774  1.00 49.79 LIG 0.21  HD
ENDBRANCH 29 30
ENDBRANCH 24 29
ENDBRANCH 22 24
ENDBRANCH 1 20
TORSDOF 12
ENDMDL
MODEL 34
USER: ADFR SOLUTION from run 9
USER: SCORE 10.614533 LL:  -2.634 LR:  -8.004 RR:   0.000 FEB:  -4.424
USER: RMSD 7.101102
USER: SEED 778852
USER: STATUS no improvement in best in 11 clusters for 5 generations
USER: GENES 14
USER: genes 0 Translation |==|  0.50526 0.52435 0.33173
USER: genes 1 Rotation |==|  0.56801 0.02038 0.45050 0.61355
USER: genes 2 Torsion [N]-CA--C-[N] |==|  0.42112
USER: genes 3 Torsion [C]-N--CA-[C] |==|  0.54247
USER: genes 4 Torsion [N]-CA--C-[O] |==|  0.94711
USER: genes 5 Torsion [N]-CA--CB-[CG] |==|  0.13220
USER: genes 6 Torsion [CA]-CB--CG-[CD2] |==|  0.69679
USER: genes 7 Torsion [C]-CA--CB-[CG] |==|  0.04967
USER: genes 8 Torsion [CA]-CB--CG-[CD1] |==|  0.72858
USER: genes 9 Torsion [C]-CA--N-[C] |==|  0.82085
USER: genes 10 Torsion [N]-C--CA-[N] |==|  0.60521
USER: genes 11 Torsion [C]-CA--N-[H2] |==|  0.46040
USER: genes 12 Torsion [C]-CA--CB-[OG] |==|  0.61557
USER: genes 13 Torsion [CA]-CB--OG-[HG] |==|  0.45390
ROOT
ATOM      1  CA  PHE C   1     109.437 174.083  56.833  1.00 43.43 LIG 0.18  C 
ENDROOT
BRANCH 1 2
ATOM      2  C   PHE C   1     110.955 173.990  56.862  1.00 43.95 LIG 0.24  C 
ATOM      3 O    PHE C   1     111.549 173.381  55.966  1.00 42.64 LIG-0.27  OA
ATOM      4  N   LEU C   2     111.594 174.578  57.867  1.00 45.78 LIG-0.35  N 
ATOM      5 H    LEU C   2     111.220 175.103  58.437  1.00 45.78 LIG 0.16  HD
BRANCH 4 6
ATOM      6  CA  LEU C   2     113.012 174.365  58.079  1.00 46.28 LIG 0.16  C 
BRANCH 6 7
ATOM      7  C   LEU C   2     113.364 174.841  59.484  1.00 47.91 LIG 0.22  C 
ATOM      8 O    LEU C   2     112.621 175.611  60.094  1.00 50.38 LIG-0.29  OA
ENDBRANCH 6 7
BRANCH 6 9
ATOM      9  CB  LEU C   2     113.830 175.120  57.029  1.00 44.46 LIG 0.04  C 
BRANCH 9 10
ATOM     10  CG  LEU C   2     113.426 176.577  56.803  1.00 41.86 LIG-0.02  C 
ATOM     11  CD2 LEU C   2     112.755 176.736  55.449  1.00 43.32 LIG 0.01  C 
ATOM     12  CD1 LEU C   2     114.637 177.486  56.915  1.00 39.91 LIG 0.01  C 
ENDBRANCH 9 10
ENDBRANCH 6 9
ENDBRANCH 4 6
ENDBRANCH 1 2
BRANCH 1 13
ATOM     13  CB  PHE C   1     108.784 173.024  57.722  1.00 40.74 LIG 0.07  C 
BRANCH 13 14
ATOM     14  CG  PHE C   1     109.729 172.439  58.721  1.00 40.58 LIG-0.06  A 
ATOM     15  CD1 PHE C   1     110.358 171.232  58.470  1.00 41.26 LIG 0.01  A 
ATOM     16  CE1 PHE C   1     111.213 170.677  59.393  1.00 41.59 LIG 0.00  A 
ATOM     17  CZ  PHE C   1     111.442 171.323  60.590  1.00 39.95 LIG 0.00  A 
ATOM     18  CE2 PHE C   1     110.809 172.521  60.861  1.00 40.65 LIG 0.00  A 
ATOM     19  CD2 PHE C   1     109.955 173.070  59.933  1.00 39.59 LIG 0.01  A 
ENDBRANCH 13 14
ENDBRANCH 1 13
BRANCH 1 20
ATOM     20  N   PHE C   1     108.887 174.028  55.484  1.00 44.33 LIG-0.35  N 
ATOM     21 H    PHE C   1     108.399 173.336  55.334  1.00 44.33 LIG 0.16  HD
ATOM     22  C   SER C   0     109.128 174.971  54.575  1.00 45.23 LIG 0.25  C 
ATOM     23 O    SER C   0     109.882 175.926  54.777  1.00 45.89 LIG-0.27  OA
BRANCH 22 24
ATOM     24  CA  SER C   0     108.414 174.810  53.238  1.00 46.83 LIG 0.30  C 
BRANCH 24 25
ATOM     25  N   SER C   0     109.275 175.212  52.129  1.00 48.27 LIG-0.06  N 
ATOM     26 H2   SER C   0     108.927 174.922  51.363  1.00 48.27 LIG 0.28  HD
ATOM     27 H1   SER C   0     110.085 174.860  52.239  1.00 48.27 LIG 0.28  HD
ATOM     28 H3   SER C   0     109.338 176.099  52.109  1.00 48.27 LIG 0.28  HD
ENDBRANCH 24 25
BRANCH 24 29
ATOM     29  CB  SER C   0     107.951 173.361  53.067  1.00 47.94 LIG 0.21  C 
BRANCH 29 30
ATOM     30 OG   SER C   0     108.175 172.904  51.745  1.00 49.79 LIG-0.40  OA
ATOM     31 HG   SER C   0     108.133 172.065  51.728  1.00 49.79 LIG 0.21  HD
ENDBRANCH 29 30
ENDBRANCH 24 29
ENDBRANCH 22 24
ENDBRANCH 1 20
TORSDOF 12
ENDMDL
MODEL 35
USER: ADFR SOLUTION from run 15
USER: SCORE 9.715937 LL:  -1.765 LR:  -7.975 RR:   0.000 FEB:  -4.395
USER: RMSD 7.887624
USER: SEED 307943
USER: STATUS no improvement in best in 12 clusters for 5 generations
USER: GENES 14
USER: genes 0 Translation |==|  0.51518 0.70252 0.19437
USER: genes 1 Rotation |==|  0.78613 0.20657 0.21677 0.54257
USER: genes 2 Torsion [N]-CA--C-[N] |==|  0.43333
USER: genes 3 Torsion [C]-N--CA-[C] |==|  0.78874
USER: genes 4 Torsion [N]-CA--C-[O] |==|  0.48451
USER: genes 5 Torsion [N]-CA--CB-[CG] |==|  0.25368
USER: genes 6 Torsion [CA]-CB--CG-[CD2] |==|  0.68336
USER: genes 7 Torsion [C]-CA--CB-[CG] |==|  0.44662
USER: genes 8 Torsion [CA]-CB--CG-[CD1] |==|  0.41633
USER: genes 9 Torsion [C]-CA--N-[C] |==|  0.80675
USER: genes 10 Torsion [N]-C--CA-[N] |==|  0.16959
USER: genes 11 Torsion [C]-CA--N-[H2] |==|  0.84887
USER: genes 12 Torsion [C]-CA--CB-[OG] |==|  0.61709
USER: genes 13 Torsion [CA]-CB--OG-[HG] |==|  0.79559
ROOT
ATOM      1  CA  PHE C   1     109.623 176.622  54.566  1.00 43.43 LIG 0.18  C 
ENDROOT
BRANCH 1 2
ATOM      2  C   PHE C   1     110.829 177.295  55.203  1.00 43.95 LIG 0.24  C 
ATOM      3 O    PHE C   1     111.218 178.387  54.776  1.00 42.64 LIG-0.27  OA
ATOM      4  N   LEU C   2     111.428 176.671  56.210  1.00 45.78 LIG-0.35  N 
ATOM      5 H    LEU C   2     111.115 175.972  56.603  1.00 45.78 LIG 0.16  HD
BRANCH 4 6
ATOM      6  CA  LEU C   2     112.696 177.140  56.735  1.00 46.28 LIG 0.16  C 
BRANCH 6 7
ATOM      7  C   LEU C   2     113.797 176.736  55.762  1.00 47.91 LIG 0.22  C 
ATOM      8 O    LEU C   2     114.959 177.109  55.933  1.00 50.38 LIG-0.29  OA
ENDBRANCH 6 7
BRANCH 6 9
ATOM      9  CB  LEU C   2     112.953 176.551  58.123  1.00 44.46 LIG 0.04  C 
BRANCH 9 10
ATOM     10  CG  LEU C   2     113.729 175.234  58.146  1.00 41.86 LIG-0.02  C 
ATOM     11  CD2 LEU C   2     112.846 174.109  58.658  1.00 43.32 LIG 0.01  C 
ATOM     12  CD1 LEU C   2     114.978 175.370  58.999  1.00 39.91 LIG 0.01  C 
ENDBRANCH 9 10
ENDBRANCH 6 9
ENDBRANCH 4 6
ENDBRANCH 1 2
BRANCH 1 13
ATOM     13  CB  PHE C   1     110.034 175.502  53.609  1.00 40.74 LIG 0.07  C 
BRANCH 13 14
ATOM     14  CG  PHE C   1     108.925 174.541  53.326  1.00 40.58 LIG-0.06  A 
ATOM     15  CD1 PHE C   1     108.856 173.885  52.110  1.00 41.26 LIG 0.01  A 
ATOM     16  CE1 PHE C   1     107.826 173.015  51.835  1.00 41.59 LIG 0.00  A 
ATOM     17  CZ  PHE C   1     106.842 172.800  52.777  1.00 39.95 LIG 0.00  A 
ATOM     18  CE2 PHE C   1     106.889 173.460  53.990  1.00 40.65 LIG 0.00  A 
ATOM     19  CD2 PHE C   1     107.921 174.328  54.258  1.00 39.59 LIG 0.01  A 
ENDBRANCH 13 14
ENDBRANCH 1 13
BRANCH 1 20
ATOM     20  N   PHE C   1     108.730 177.562  53.900  1.00 44.33 LIG-0.35  N 
ATOM     21 H    PHE C   1     108.729 177.495  53.043  1.00 44.33 LIG 0.16  HD
ATOM     22  C   SER C   0     107.987 178.441  54.572  1.00 45.23 LIG 0.25  C 
ATOM     23 O    SER C   0     108.043 178.574  55.796  1.00 45.89 LIG-0.27  OA
BRANCH 22 24
ATOM     24  CA  SER C   0     107.045 179.298  53.736  1.00 46.83 LIG 0.30  C 
BRANCH 24 25
ATOM     25  N   SER C   0     106.072 178.473  53.026  1.00 48.27 LIG-0.06  N 
ATOM     26 H2   SER C   0     106.499 177.856  52.547  1.00 48.27 LIG 0.28  HD
ATOM     27 H1   SER C   0     105.587 178.986  52.483  1.00 48.27 LIG 0.28  HD
ATOM     28 H3   SER C   0     105.536 178.074  53.613  1.00 48.27 LIG 0.28  HD
ENDBRANCH 24 25
BRANCH 24 29
ATOM     29  CB  SER C   0     106.337 180.318  54.633  1.00 47.94 LIG 0.21  C 
BRANCH 29 30
ATOM     30 OG   SER C   0     104.966 180.430  54.299  1.00 49.79 LIG-0.40  OA
ATOM     31 HG   SER C   0     104.886 180.850  53.576  1.00 49.79 LIG 0.21  HD
ENDBRANCH 29 30
ENDBRANCH 24 29
ENDBRANCH 22 24
ENDBRANCH 1 20
TORSDOF 12
ENDMDL
MODEL 36
USER: ADFR SOLUTION from run 142
USER: SCORE 9.286400 LL:  -1.674 LR:  -7.936 RR:   0.000 FEB:  -4.356
USER: RMSD 5.282369
USER: SEED 141
USER: STATUS no improvement in best in 15 clusters for 5 generations
USER: GENES 14
USER: genes 0 Translation |==|  0.55379 0.66475 0.26643
USER: genes 1 Rotation |==|  0.72973 0.68191 0.83552 0.72706
USER: genes 2 Torsion [N]-CA--C-[N] |==|  0.52132
USER: genes 3 Torsion [C]-N--CA-[C] |==|  0.83913
USER: genes 4 Torsion [N]-CA--C-[O] |==|  0.26239
USER: genes 5 Torsion [N]-CA--CB-[CG] |==|  0.20467
USER: genes 6 Torsion [CA]-CB--CG-[CD2] |==|  0.74949
USER: genes 7 Torsion [C]-CA--CB-[CG] |==|  0.52551
USER: genes 8 Torsion [CA]-CB--CG-[CD1] |==|  0.36433
USER: genes 9 Torsion [C]-CA--N-[C] |==|  0.75753
USER: genes 10 Torsion [N]-C--CA-[N] |==|  0.02319
USER: genes 11 Torsion [C]-CA--N-[H2] |==|  0.03229
USER: genes 12 Torsion [C]-CA--CB-[OG] |==|  0.02732
USER: genes 13 Torsion [CA]-CB--OG-[HG] |==|  0.70821
ROOT
ATOM      1  CA  PHE C   1     110.347 176.084  55.755  1.00 43.43 LIG 0.18  C 
ENDROOT
BRANCH 1 2
ATOM      2  C   PHE C   1     109.967 174.969  54.792  1.00 43.95 LIG 0.24  C 
ATOM      3 O    PHE C   1     110.838 174.200  54.371  1.00 42.64 LIG-0.27  OA
ATOM      4  N   LEU C   2     108.693 174.864  54.434  1.00 45.78 LIG-0.35  N 
ATOM      5 H    LEU C   2     108.050 175.307  54.797  1.00 45.78 LIG 0.16  HD
BRANCH 4 6
ATOM      6  CA  LEU C   2     108.284 173.966  53.371  1.00 46.28 LIG 0.16  C 
BRANCH 6 7
ATOM      7  C   LEU C   2     109.036 174.351  52.103  1.00 47.91 LIG 0.22  C 
ATOM      8 O    LEU C   2     110.088 173.787  51.797  1.00 50.38 LIG-0.29  OA
ENDBRANCH 6 7
BRANCH 6 9
ATOM      9  CB  LEU C   2     106.772 174.047  53.154  1.00 44.46 LIG 0.04  C 
BRANCH 9 10
ATOM     10  CG  LEU C   2     106.275 175.313  52.456  1.00 41.86 LIG-0.02  C 
ATOM     11  CD2 LEU C   2     105.950 176.388  53.480  1.00 43.32 LIG 0.01  C 
ATOM     12  CD1 LEU C   2     105.061 175.003  51.597  1.00 39.91 LIG 0.01  C 
ENDBRANCH 9 10
ENDBRANCH 6 9
ENDBRANCH 4 6
ENDBRANCH 1 2
BRANCH 1 13
ATOM     13  CB  PHE C   1     109.733 177.424  55.346  1.00 40.74 LIG 0.07  C 
BRANCH 13 14
ATOM     14  CG  PHE C   1     110.261 178.573  56.142  1.00 40.58 LIG-0.06  A 
ATOM     15  CD1 PHE C   1     110.706 179.721  55.510  1.00 41.26 LIG 0.01  A 
ATOM     16  CE1 PHE C   1     111.213 180.774  56.235  1.00 41.59 LIG 0.00  A 
ATOM     17  CZ  PHE C   1     111.291 180.685  57.609  1.00 39.95 LIG 0.00  A 
ATOM     18  CE2 PHE C   1     110.865 179.539  58.253  1.00 40.65 LIG 0.00  A 
ATOM     19  CD2 PHE C   1     110.359 178.490  57.522  1.00 39.59 LIG 0.01  A 
ENDBRANCH 13 14
ENDBRANCH 1 13
BRANCH 1 20
ATOM     20  N   PHE C   1     111.786 176.215  55.938  1.00 44.33 LIG-0.35  N 
ATOM     21 H    PHE C   1     112.156 176.782  55.407  1.00 44.33 LIG 0.16  HD
ATOM     22  C   SER C   0     112.458 175.514  56.850  1.00 45.23 LIG 0.25  C 
ATOM     23 O    SER C   0     111.932 174.657  57.563  1.00 45.89 LIG-0.27  OA
BRANCH 22 24
ATOM     24  CA  SER C   0     113.945 175.825  56.972  1.00 46.83 LIG 0.30  C 
BRANCH 24 25
ATOM     25  N   SER C   0     114.306 176.995  56.177  1.00 48.27 LIG-0.06  N 
ATOM     26 H2   SER C   0     113.566 177.408  55.903  1.00 48.27 LIG 0.28  HD
ATOM     27 H1   SER C   0     114.780 176.738  55.469  1.00 48.27 LIG 0.28  HD
ATOM     28 H3   SER C   0     114.791 177.553  56.672  1.00 48.27 LIG 0.28  HD
ENDBRANCH 24 25
BRANCH 24 29
ATOM     29  CB  SER C   0     114.312 176.037  58.444  1.00 47.94 LIG 0.21  C 
BRANCH 29 30
ATOM     30 OG   SER C   0     113.242 175.669  59.297  1.00 49.79 LIG-0.40  OA
ATOM     31 HG   SER C   0     112.871 176.361  59.595  1.00 49.79 LIG 0.21  HD
ENDBRANCH 29 30
ENDBRANCH 24 29
ENDBRANCH 22 24
ENDBRANCH 1 20
TORSDOF 12
ENDMDL
MODEL 37
USER: ADFR SOLUTION from run 44
USER: SCORE 9.735232 LL:  -1.910 LR:  -7.924 RR:   0.000 FEB:  -4.345
USER: RMSD 8.071173
USER: SEED 43
USER: STATUS no improvement in best in 12 clusters for 5 generations
USER: GENES 14
USER: genes 0 Translation |==|  0.65827 0.67979 0.34514
USER: genes 1 Rotation |==|  0.27866 0.85258 0.77609 0.52169
USER: genes 2 Torsion [N]-CA--C-[N] |==|  0.41680
USER: genes 3 Torsion [C]-N--CA-[C] |==|  0.81742
USER: genes 4 Torsion [N]-CA--C-[O] |==|  0.61940
USER: genes 5 Torsion [N]-CA--CB-[CG] |==|  0.54519
USER: genes 6 Torsion [CA]-CB--CG-[CD2] |==|  0.02366
USER: genes 7 Torsion [C]-CA--CB-[CG] |==|  0.47534
USER: genes 8 Torsion [CA]-CB--CG-[CD1] |==|  0.76775
USER: genes 9 Torsion [C]-CA--N-[C] |==|  0.61835
USER: genes 10 Torsion [N]-C--CA-[N] |==|  0.00666
USER: genes 11 Torsion [C]-CA--N-[H2] |==|  0.79193
USER: genes 12 Torsion [C]-CA--CB-[OG] |==|  0.79100
USER: genes 13 Torsion [CA]-CB--OG-[HG] |==|  0.57667
ROOT
ATOM      1  CA  PHE C   1     112.306 176.298  57.054  1.00 43.43 LIG 0.18  C 
ENDROOT
BRANCH 1 2
ATOM      2  C   PHE C   1     113.661 176.423  57.733  1.00 43.95 LIG 0.24  C 
ATOM      3 O    PHE C   1     114.527 177.154  57.242  1.00 42.64 LIG-0.27  OA
ATOM      4  N   LEU C   2     113.864 175.729  58.847  1.00 45.78 LIG-0.35  N 
ATOM      5 H    LEU C   2     113.247 175.307  59.274  1.00 45.78 LIG 0.16  HD
BRANCH 4 6
ATOM      6  CA  LEU C   2     115.183 175.633  59.441  1.00 46.28 LIG 0.16  C 
BRANCH 6 7
ATOM      7  C   LEU C   2     116.084 174.861  58.484  1.00 47.91 LIG 0.22  C 
ATOM      8 O    LEU C   2     116.859 173.999  58.903  1.00 50.38 LIG-0.29  OA
ENDBRANCH 6 7
BRANCH 6 9
ATOM      9  CB  LEU C   2     115.109 174.936  60.800  1.00 44.46 LIG 0.04  C 
BRANCH 9 10
ATOM     10  CG  LEU C   2     116.335 175.110  61.697  1.00 41.86 LIG-0.02  C 
ATOM     11  CD2 LEU C   2     117.288 176.131  61.098  1.00 43.32 LIG 0.01  C 
ATOM     12  CD1 LEU C   2     117.034 173.777  61.904  1.00 39.91 LIG 0.01  C 
ENDBRANCH 9 10
ENDBRANCH 6 9
ENDBRANCH 4 6
ENDBRANCH 1 2
BRANCH 1 13
ATOM     13  CB  PHE C   1     112.240 175.077  56.135  1.00 40.74 LIG 0.07  C 
BRANCH 13 14
ATOM     14  CG  PHE C   1     110.862 174.810  55.620  1.00 40.58 LIG-0.06  A 
ATOM     15  CD1 PHE C   1     109.954 174.095  56.381  1.00 41.26 LIG 0.01  A 
ATOM     16  CE1 PHE C   1     108.692 173.827  55.905  1.00 41.59 LIG 0.00  A 
ATOM     17  CZ  PHE C   1     108.326 174.265  54.649  1.00 39.95 LIG 0.00  A 
ATOM     18  CE2 PHE C   1     109.227 174.966  53.871  1.00 40.65 LIG 0.00  A 
ATOM     19  CD2 PHE C   1     110.488 175.231  54.354  1.00 39.59 LIG 0.01  A 
ENDBRANCH 13 14
ENDBRANCH 1 13
BRANCH 1 20
ATOM     20  N   PHE C   1     111.915 177.503  56.333  1.00 44.33 LIG-0.35  N 
ATOM     21 H    PHE C   1     112.552 177.861  55.880  1.00 44.33 LIG 0.16  HD
ATOM     22  C   SER C   0     110.678 177.994  56.379  1.00 45.23 LIG 0.25  C 
ATOM     23 O    SER C   0     109.786 177.511  57.081  1.00 45.89 LIG-0.27  OA
BRANCH 22 24
ATOM     24  CA  SER C   0     110.408 179.213  55.505  1.00 46.83 LIG 0.30  C 
BRANCH 24 25
ATOM     25  N   SER C   0     111.588 179.574  54.726  1.00 48.27 LIG-0.06  N 
ATOM     26 H2   SER C   0     112.186 179.966  55.256  1.00 48.27 LIG 0.28  HD
ATOM     27 H1   SER C   0     111.355 180.137  54.076  1.00 48.27 LIG 0.28  HD
ATOM     28 H3   SER C   0     111.944 178.841  54.368  1.00 48.27 LIG 0.28  HD
ENDBRANCH 24 25
BRANCH 24 29
ATOM     29  CB  SER C   0     109.214 178.939  54.586  1.00 47.94 LIG 0.21  C 
BRANCH 29 30
ATOM     30 OG   SER C   0     109.575 178.077  53.521  1.00 49.79 LIG-0.40  OA
ATOM     31 HG   SER C   0     109.081 178.228  52.859  1.00 49.79 LIG 0.21  HD
ENDBRANCH 29 30
ENDBRANCH 24 29
ENDBRANCH 22 24
ENDBRANCH 1 20
TORSDOF 12
ENDMDL
MODEL 38
USER: ADFR SOLUTION from run 141
USER: SCORE 9.821266 LL:  -1.988 LR:  -7.885 RR:   0.000 FEB:  -4.305
USER: RMSD 7.628931
USER: SEED 140
USER: STATUS no improvement in best in 20 clusters for 5 generations
USER: GENES 14
USER: genes 0 Translation |==|  0.55476 0.89060 0.24742
USER: genes 1 Rotation |==|  0.22743 0.20385 0.68893 0.72871
USER: genes 2 Torsion [N]-CA--C-[N] |==|  0.37163
USER: genes 3 Torsion [C]-N--CA-[C] |==|  0.17201
USER: genes 4 Torsion [N]-CA--C-[O] |==|  0.11932
USER: genes 5 Torsion [N]-CA--CB-[CG] |==|  0.47642
USER: genes 6 Torsion [CA]-CB--CG-[CD2] |==|  0.66733
USER: genes 7 Torsion [C]-CA--CB-[CG] |==|  0.83241
USER: genes 8 Torsion [CA]-CB--CG-[CD1] |==|  0.74757
USER: genes 9 Torsion [C]-CA--N-[C] |==|  0.77949
USER: genes 10 Torsion [N]-C--CA-[N] |==|  0.23090
USER: genes 11 Torsion [C]-CA--N-[H2] |==|  0.50286
USER: genes 12 Torsion [C]-CA--CB-[OG] |==|  0.59533
USER: genes 13 Torsion [CA]-CB--OG-[HG] |==|  0.13238
ROOT
ATOM      1  CA  PHE C   1     110.365 179.302  55.441  1.00 43.43 LIG 0.18  C 
ENDROOT
BRANCH 1 2
ATOM      2  C   PHE C   1     110.932 177.961  55.882  1.00 43.95 LIG 0.24  C 
ATOM      3 O    PHE C   1     110.386 177.336  56.797  1.00 42.64 LIG-0.27  OA
ATOM      4  N   LEU C   2     112.011 177.507  55.256  1.00 45.78 LIG-0.35  N 
ATOM      5 H    LEU C   2     112.342 177.859  54.544  1.00 45.78 LIG 0.16  HD
BRANCH 4 6
ATOM      6  CA  LEU C   2     112.729 176.346  55.746  1.00 46.28 LIG 0.16  C 
BRANCH 6 7
ATOM      7  C   LEU C   2     111.789 175.148  55.705  1.00 47.91 LIG 0.22  C 
ATOM      8 O    LEU C   2     111.055 174.954  54.734  1.00 50.38 LIG-0.29  OA
ENDBRANCH 6 7
BRANCH 6 9
ATOM      9  CB  LEU C   2     113.235 176.591  57.168  1.00 44.46 LIG 0.04  C 
BRANCH 9 10
ATOM     10  CG  LEU C   2     113.832 175.374  57.874  1.00 41.86 LIG-0.02  C 
ATOM     11  CD2 LEU C   2     113.050 175.059  59.138  1.00 43.32 LIG 0.01  C 
ATOM     12  CD1 LEU C   2     115.298 175.611  58.193  1.00 39.91 LIG 0.01  C 
ENDBRANCH 9 10
ENDBRANCH 6 9
ENDBRANCH 4 6
ENDBRANCH 1 2
BRANCH 1 13
ATOM     13  CB  PHE C   1     110.776 180.433  56.385  1.00 40.74 LIG 0.07  C 
BRANCH 13 14
ATOM     14  CG  PHE C   1     110.303 180.222  57.787  1.00 40.58 LIG-0.06  A 
ATOM     15  CD1 PHE C   1     109.078 180.719  58.198  1.00 41.26 LIG 0.01  A 
ATOM     16  CE1 PHE C   1     108.645 180.547  59.492  1.00 41.59 LIG 0.00  A 
ATOM     17  CZ  PHE C   1     109.444 179.881  60.398  1.00 39.95 LIG 0.00  A 
ATOM     18  CE2 PHE C   1     110.676 179.394  60.007  1.00 40.65 LIG 0.00  A 
ATOM     19  CD2 PHE C   1     111.102 179.569  58.711  1.00 39.59 LIG 0.01  A 
ENDBRANCH 13 14
ENDBRANCH 1 13
BRANCH 1 20
ATOM     20  N   PHE C   1     108.918 179.281  55.269  1.00 44.33 LIG-0.35  N 
ATOM     21 H    PHE C   1     108.482 179.620  55.928  1.00 44.33 LIG 0.16  HD
ATOM     22  C   SER C   0     108.335 178.779  54.181  1.00 45.23 LIG 0.25  C 
ATOM     23 O    SER C   0     108.963 178.236  53.269  1.00 45.89 LIG-0.27  OA
BRANCH 22 24
ATOM     24  CA  SER C   0     106.818 178.905  54.115  1.00 46.83 LIG 0.30  C 
BRANCH 24 25
ATOM     25  N   SER C   0     106.420 180.219  53.617  1.00 48.27 LIG-0.06  N 
ATOM     26 H2   SER C   0     105.532 180.274  53.602  1.00 48.27 LIG 0.28  HD
ATOM     27 H1   SER C   0     106.738 180.333  52.794  1.00 48.27 LIG 0.28  HD
ATOM     28 H3   SER C   0     106.748 180.851  54.152  1.00 48.27 LIG 0.28  HD
ENDBRANCH 24 25
BRANCH 24 29
ATOM     29  CB  SER C   0     106.241 177.794  53.233  1.00 47.94 LIG 0.21  C 
BRANCH 29 30
ATOM     30 OG   SER C   0     105.105 178.245  52.518  1.00 49.79 LIG-0.40  OA
ATOM     31 HG   SER C   0     105.275 178.986  52.161  1.00 49.79 LIG 0.21  HD
ENDBRANCH 29 30
ENDBRANCH 24 29
ENDBRANCH 22 24
ENDBRANCH 1 20
TORSDOF 12
ENDMDL
MODEL 39
USER: ADFR SOLUTION from run 106
USER: SCORE 9.334597 LL:  -2.155 LR:  -7.880 RR:   0.000 FEB:  -4.300
USER: RMSD 7.278083
USER: SEED 105
USER: STATUS no improvement in best in 14 clusters for 5 generations
USER: GENES 14
USER: genes 0 Translation |==|  0.64377 0.63973 0.25637
USER: genes 1 Rotation |==|  0.14868 0.31612 0.76827 0.64419
USER: genes 2 Torsion [N]-CA--C-[N] |==|  0.60313
USER: genes 3 Torsion [C]-N--CA-[C] |==|  0.82753
USER: genes 4 Torsion [N]-CA--C-[O] |==|  0.92012
USER: genes 5 Torsion [N]-CA--CB-[CG] |==|  0.55638
USER: genes 6 Torsion [CA]-CB--CG-[CD2] |==|  0.64270
USER: genes 7 Torsion [C]-CA--CB-[CG] |==|  0.73923
USER: genes 8 Torsion [CA]-CB--CG-[CD1] |==|  0.70046
USER: genes 9 Torsion [C]-CA--N-[C] |==|  0.66121
USER: genes 10 Torsion [N]-C--CA-[N] |==|  0.88300
USER: genes 11 Torsion [C]-CA--N-[H2] |==|  0.05892
USER: genes 12 Torsion [C]-CA--CB-[OG] |==|  0.01751
USER: genes 13 Torsion [CA]-CB--OG-[HG] |==|  0.30045
ROOT
ATOM      1  CA  PHE C   1     112.034 175.727  55.589  1.00 43.43 LIG 0.18  C 
ENDROOT
BRANCH 1 2
ATOM      2  C   PHE C   1     112.470 174.904  56.792  1.00 43.95 LIG 0.24  C 
ATOM      3 O    PHE C   1     111.811 173.914  57.128  1.00 42.64 LIG-0.27  OA
ATOM      4  N   LEU C   2     113.560 175.288  57.446  1.00 45.78 LIG-0.35  N 
ATOM      5 H    LEU C   2     114.100 175.898  57.170  1.00 45.78 LIG 0.16  HD
BRANCH 4 6
ATOM      6  CA  LEU C   2     113.925 174.685  58.713  1.00 46.28 LIG 0.16  C 
BRANCH 6 7
ATOM      7  C   LEU C   2     112.816 174.973  59.718  1.00 47.91 LIG 0.22  C 
ATOM      8 O    LEU C   2     112.122 175.986  59.620  1.00 50.38 LIG-0.29  OA
ENDBRANCH 6 7
BRANCH 6 9
ATOM      9  CB  LEU C   2     115.262 175.241  59.204  1.00 44.46 LIG 0.04  C 
BRANCH 9 10
ATOM     10  CG  LEU C   2     115.994 174.382  60.235  1.00 41.86 LIG-0.02  C 
ATOM     11  CD2 LEU C   2     116.381 175.219  61.443  1.00 43.32 LIG 0.01  C 
ATOM     12  CD1 LEU C   2     117.220 173.736  59.613  1.00 39.91 LIG 0.01  C 
ENDBRANCH 9 10
ENDBRANCH 6 9
ENDBRANCH 4 6
ENDBRANCH 1 2
BRANCH 1 13
ATOM     13  CB  PHE C   1     112.687 177.110  55.578  1.00 40.74 LIG 0.07  C 
BRANCH 13 14
ATOM     14  CG  PHE C   1     111.840 178.160  56.220  1.00 40.58 LIG-0.06  A 
ATOM     15  CD1 PHE C   1     111.213 179.125  55.451  1.00 41.26 LIG 0.01  A 
ATOM     16  CE1 PHE C   1     110.449 180.107  56.038  1.00 41.59 LIG 0.00  A 
ATOM     17  CZ  PHE C   1     110.311 180.140  57.410  1.00 39.95 LIG 0.00  A 
ATOM     18  CE2 PHE C   1     110.944 179.192  58.191  1.00 40.65 LIG 0.00  A 
ATOM     19  CD2 PHE C   1     111.707 178.213  57.598  1.00 39.59 LIG 0.01  A 
ENDBRANCH 13 14
ENDBRANCH 1 13
BRANCH 1 20
ATOM     20  N   PHE C   1     110.586 175.845  55.472  1.00 44.33 LIG-0.35  N 
ATOM     21 H    PHE C   1     110.207 176.196  56.160  1.00 44.33 LIG 0.16  HD
ATOM     22  C   SER C   0     109.921 175.442  54.391  1.00 45.23 LIG 0.25  C 
ATOM     23 O    SER C   0     110.463 174.882  53.436  1.00 45.89 LIG-0.27  OA
BRANCH 22 24
ATOM     24  CA  SER C   0     108.420 175.709  54.389  1.00 46.83 LIG 0.30  C 
BRANCH 24 25
ATOM     25  N   SER C   0     107.831 175.416  55.692  1.00 48.27 LIG-0.06  N 
ATOM     26 H2   SER C   0     108.466 175.435  56.316  1.00 48.27 LIG 0.28  HD
ATOM     27 H1   SER C   0     107.458 174.609  55.674  1.00 48.27 LIG 0.28  HD
ATOM     28 H3   SER C   0     107.211 176.025  55.881  1.00 48.27 LIG 0.28  HD
ENDBRANCH 24 25
BRANCH 24 29
ATOM     29  CB  SER C   0     108.152 177.162  53.987  1.00 47.94 LIG 0.21  C 
BRANCH 29 30
ATOM     30 OG   SER C   0     109.346 177.813  53.591  1.00 49.79 LIG-0.40  OA
ATOM     31 HG   SER C   0     109.338 177.931  52.760  1.00 49.79 LIG 0.21  HD
ENDBRANCH 29 30
ENDBRANCH 24 29
ENDBRANCH 22 24
ENDBRANCH 1 20
TORSDOF 12
ENDMDL
MODEL 40
USER: ADFR SOLUTION from run 20
USER: SCORE 10.023056 LL:  -2.288 LR:  -7.870 RR:   0.000 FEB:  -4.291
USER: RMSD 7.049133
USER: SEED 19
USER: STATUS no improvement in best in 12 clusters for 5 generations
USER: GENES 14
USER: genes 0 Translation |==|  0.54159 0.65961 0.30638
USER: genes 1 Rotation |==|  0.23972 0.10277 0.62635 0.59221
USER: genes 2 Torsion [N]-CA--C-[N] |==|  0.47813
USER: genes 3 Torsion [C]-N--CA-[C] |==|  0.72741
USER: genes 4 Torsion [N]-CA--C-[O] |==|  0.92238
USER: genes 5 Torsion [N]-CA--CB-[CG] |==|  0.10273
USER: genes 6 Torsion [CA]-CB--CG-[CD2] |==|  0.75937
USER: genes 7 Torsion [C]-CA--CB-[CG] |==|  0.32345
USER: genes 8 Torsion [CA]-CB--CG-[CD1] |==|  0.11465
USER: genes 9 Torsion [C]-CA--N-[C] |==|  0.77202
USER: genes 10 Torsion [N]-C--CA-[N] |==|  0.42994
USER: genes 11 Torsion [C]-CA--N-[H2] |==|  0.89621
USER: genes 12 Torsion [C]-CA--CB-[OG] |==|  0.62391
USER: genes 13 Torsion [CA]-CB--OG-[HG] |==|  0.35099
ROOT
ATOM      1  CA  PHE C   1     110.118 176.010  56.414  1.00 43.43 LIG 0.18  C 
ENDROOT
BRANCH 1 2
ATOM      2  C   PHE C   1     110.723 174.866  57.214  1.00 43.95 LIG 0.24  C 
ATOM      3 O    PHE C   1     110.269 173.724  57.089  1.00 42.64 LIG-0.27  OA
ATOM      4  N   LEU C   2     111.733 175.145  58.030  1.00 45.78 LIG-0.35  N 
ATOM      5 H    LEU C   2     112.144 175.901  58.051  1.00 45.78 LIG 0.16  HD
BRANCH 4 6
ATOM      6  CA  LEU C   2     112.229 174.160  58.972  1.00 46.28 LIG 0.16  C 
BRANCH 6 7
ATOM      7  C   LEU C   2     111.607 174.444  60.334  1.00 47.91 LIG 0.22  C 
ATOM      8 O    LEU C   2     111.266 175.585  60.647  1.00 50.38 LIG-0.29  OA
ENDBRANCH 6 7
BRANCH 6 9
ATOM      9  CB  LEU C   2     113.756 174.215  59.049  1.00 44.46 LIG 0.04  C 
BRANCH 9 10
ATOM     10  CG  LEU C   2     114.370 175.611  58.950  1.00 41.86 LIG-0.02  C 
ATOM     11  CD2 LEU C   2     114.583 175.994  57.495  1.00 43.32 LIG 0.01  C 
ATOM     12  CD1 LEU C   2     115.679 175.670  59.719  1.00 39.91 LIG 0.01  C 
ENDBRANCH 9 10
ENDBRANCH 6 9
ENDBRANCH 4 6
ENDBRANCH 1 2
BRANCH 1 13
ATOM     13  CB  PHE C   1     109.507 177.079  57.322  1.00 40.74 LIG 0.07  C 
BRANCH 13 14
ATOM     14  CG  PHE C   1     110.190 178.403  57.204  1.00 40.58 LIG-0.06  A 
ATOM     15  CD1 PHE C   1     110.577 178.887  55.966  1.00 41.26 LIG 0.01  A 
ATOM     16  CE1 PHE C   1     111.225 180.094  55.853  1.00 41.59 LIG 0.00  A 
ATOM     17  CZ  PHE C   1     111.504 180.832  56.984  1.00 39.95 LIG 0.00  A 
ATOM     18  CE2 PHE C   1     111.137 180.355  58.228  1.00 40.65 LIG 0.00  A 
ATOM     19  CD2 PHE C   1     110.489 179.145  58.335  1.00 39.59 LIG 0.01  A 
ENDBRANCH 13 14
ENDBRANCH 1 13
BRANCH 1 20
ATOM     20  N   PHE C   1     109.146 175.564  55.424  1.00 44.33 LIG-0.35  N 
ATOM     21 H    PHE C   1     108.329 175.627  55.683  1.00 44.33 LIG 0.16  HD
ATOM     22  C   SER C   0     109.506 175.101  54.228  1.00 45.23 LIG 0.25  C 
ATOM     23 O    SER C   0     110.682 174.952  53.888  1.00 45.89 LIG-0.27  OA
BRANCH 22 24
ATOM     24  CA  SER C   0     108.368 174.751  53.276  1.00 46.83 LIG 0.30  C 
BRANCH 24 25
ATOM     25  N   SER C   0     108.802 174.833  51.884  1.00 48.27 LIG-0.06  N 
ATOM     26 H2   SER C   0     109.362 175.519  51.788  1.00 48.27 LIG 0.28  HD
ATOM     27 H1   SER C   0     108.093 174.954  51.359  1.00 48.27 LIG 0.28  HD
ATOM     28 H3   SER C   0     109.214 174.078  51.656  1.00 48.27 LIG 0.28  HD
ENDBRANCH 24 25
BRANCH 24 29
ATOM     29  CB  SER C   0     107.835 173.351  53.595  1.00 47.94 LIG 0.21  C 
BRANCH 29 30
ATOM     30 OG   SER C   0     107.639 172.596  52.413  1.00 49.79 LIG-0.40  OA
ATOM     31 HG   SER C   0     108.048 171.865  52.477  1.00 49.79 LIG 0.21  HD
ENDBRANCH 29 30
ENDBRANCH 24 29
ENDBRANCH 22 24
ENDBRANCH 1 20
TORSDOF 12
ENDMDL
MODEL 41
USER: ADFR SOLUTION from run 133
USER: SCORE 9.718660 LL:  -2.250 LR:  -7.863 RR:   0.000 FEB:  -4.283
USER: RMSD 7.390221
USER: SEED 132
USER: STATUS no improvement in best in 15 clusters for 5 generations
USER: GENES 14
USER: genes 0 Translation |==|  0.56802 0.81722 0.29521
USER: genes 1 Rotation |==|  0.41231 0.06989 0.72915 0.56935
USER: genes 2 Torsion [N]-CA--C-[N] |==|  0.93472
USER: genes 3 Torsion [C]-N--CA-[C] |==|  0.84288
USER: genes 4 Torsion [N]-CA--C-[O] |==|  0.28102
USER: genes 5 Torsion [N]-CA--CB-[CG] |==|  0.61816
USER: genes 6 Torsion [CA]-CB--CG-[CD2] |==|  0.23777
USER: genes 7 Torsion [C]-CA--CB-[CG] |==|  0.90235
USER: genes 8 Torsion [CA]-CB--CG-[CD1] |==|  0.31196
USER: genes 9 Torsion [C]-CA--N-[C] |==|  0.64580
USER: genes 10 Torsion [N]-C--CA-[N] |==|  0.44084
USER: genes 11 Torsion [C]-CA--N-[H2] |==|  0.60392
USER: genes 12 Torsion [C]-CA--CB-[OG] |==|  0.68357
USER: genes 13 Torsion [CA]-CB--OG-[HG] |==|  0.18410
ROOT
ATOM      1  CA  PHE C   1     110.613 178.256  56.230  1.00 43.43 LIG 0.18  C 
ENDROOT
BRANCH 1 2
ATOM      2  C   PHE C   1     111.976 178.050  56.874  1.00 43.95 LIG 0.24  C 
ATOM      3 O    PHE C   1     112.752 179.005  56.984  1.00 42.64 LIG-0.27  OA
ATOM      4  N   LEU C   2     112.284 176.830  57.299  1.00 45.78 LIG-0.35  N 
ATOM      5 H    LEU C   2     111.726 176.177  57.341  1.00 45.78 LIG 0.16  HD
BRANCH 4 6
ATOM      6  CA  LEU C   2     113.629 176.505  57.734  1.00 46.28 LIG 0.16  C 
BRANCH 6 7
ATOM      7  C   LEU C   2     114.592 176.825  56.597  1.00 47.91 LIG 0.22  C 
ATOM      8 O    LEU C   2     115.261 177.859  56.609  1.00 50.38 LIG-0.29  OA
ENDBRANCH 6 7
BRANCH 6 9
ATOM      9  CB  LEU C   2     113.722 175.030  58.127  1.00 44.46 LIG 0.04  C 
BRANCH 9 10
ATOM     10  CG  LEU C   2     114.514 174.737  59.401  1.00 41.86 LIG-0.02  C 
ATOM     11  CD2 LEU C   2     113.620 174.872  60.623  1.00 43.32 LIG 0.01  C 
ATOM     12  CD1 LEU C   2     115.713 175.664  59.506  1.00 39.91 LIG 0.01  C 
ENDBRANCH 9 10
ENDBRANCH 6 9
ENDBRANCH 4 6
ENDBRANCH 1 2
BRANCH 1 13
ATOM     13  CB  PHE C   1     109.624 178.918  57.190  1.00 40.74 LIG 0.07  C 
BRANCH 13 14
ATOM     14  CG  PHE C   1     109.812 178.486  58.609  1.00 40.58 LIG-0.06  A 
ATOM     15  CD1 PHE C   1     110.267 179.380  59.562  1.00 41.26 LIG 0.01  A 
ATOM     16  CE1 PHE C   1     110.463 178.984  60.864  1.00 41.59 LIG 0.00  A 
ATOM     17  CZ  PHE C   1     110.213 177.677  61.227  1.00 39.95 LIG 0.00  A 
ATOM     18  CE2 PHE C   1     109.773 176.769  60.284  1.00 40.65 LIG 0.00  A 
ATOM     19  CD2 PHE C   1     109.580 177.172  58.983  1.00 39.59 LIG 0.01  A 
ENDBRANCH 13 14
ENDBRANCH 1 13
BRANCH 1 20
ATOM     20  N   PHE C   1     110.050 177.030  55.679  1.00 44.33 LIG-0.35  N 
ATOM     21 H    PHE C   1     110.026 176.376  56.237  1.00 44.33 LIG 0.16  HD
ATOM     22  C   SER C   0     109.615 176.944  54.423  1.00 45.23 LIG 0.25  C 
ATOM     23 O    SER C   0     109.712 177.867  53.612  1.00 45.89 LIG-0.27  OA
BRANCH 22 24
ATOM     24  CA  SER C   0     108.978 175.619  54.024  1.00 46.83 LIG 0.30  C 
BRANCH 24 25
ATOM     25  N   SER C   0     108.114 175.778  52.859  1.00 48.27 LIG-0.06  N 
ATOM     26 H2   SER C   0     107.397 175.258  52.948  1.00 48.27 LIG 0.28  HD
ATOM     27 H1   SER C   0     108.559 175.546  52.124  1.00 48.27 LIG 0.28  HD
ATOM     28 H3   SER C   0     107.858 176.628  52.793  1.00 48.27 LIG 0.28  HD
ENDBRANCH 24 25
BRANCH 24 29
ATOM     29  CB  SER C   0     110.070 174.580  53.751  1.00 47.94 LIG 0.21  C 
BRANCH 29 30
ATOM     30 OG   SER C   0     110.088 174.203  52.385  1.00 49.79 LIG-0.40  OA
ATOM     31 HG   SER C   0     110.321 174.860  51.917  1.00 49.79 LIG 0.21  HD
ENDBRANCH 29 30
ENDBRANCH 24 29
ENDBRANCH 22 24
ENDBRANCH 1 20
TORSDOF 12
ENDMDL
MODEL 42
USER: ADFR SOLUTION from run 143
USER: SCORE 9.467679 LL:  -2.046 LR:  -7.854 RR:   0.000 FEB:  -4.274
USER: RMSD 4.558495
USER: SEED 142
USER: STATUS no improvement in best in 12 clusters for 5 generations
USER: GENES 14
USER: genes 0 Translation |==|  0.60874 0.74438 0.24154
USER: genes 1 Rotation |==|  0.45087 0.43275 0.47037 0.99212
USER: genes 2 Torsion [N]-CA--C-[N] |==|  0.84444
USER: genes 3 Torsion [C]-N--CA-[C] |==|  0.22663
USER: genes 4 Torsion [N]-CA--C-[O] |==|  0.08079
USER: genes 5 Torsion [N]-CA--CB-[CG] |==|  0.86138
USER: genes 6 Torsion [CA]-CB--CG-[CD2] |==|  0.70933
USER: genes 7 Torsion [C]-CA--CB-[CG] |==|  0.61728
USER: genes 8 Torsion [CA]-CB--CG-[CD1] |==|  0.72509
USER: genes 9 Torsion [C]-CA--N-[C] |==|  0.66838
USER: genes 10 Torsion [N]-C--CA-[N] |==|  0.14113
USER: genes 11 Torsion [C]-CA--N-[H2] |==|  0.26108
USER: genes 12 Torsion [C]-CA--CB-[OG] |==|  0.56749
USER: genes 13 Torsion [CA]-CB--OG-[HG] |==|  0.20170
ROOT
ATOM      1  CA  PHE C   1     111.377 177.218  55.344  1.00 43.43 LIG 0.18  C 
ENDROOT
BRANCH 1 2
ATOM      2  C   PHE C   1     110.296 176.780  54.368  1.00 43.95 LIG 0.24  C 
ATOM      3 O    PHE C   1     110.000 177.508  53.415  1.00 42.64 LIG-0.27  OA
ATOM      4  N   LEU C   2     109.701 175.613  54.583  1.00 45.78 LIG-0.35  N 
ATOM      5 H    LEU C   2     109.962 175.036  55.165  1.00 45.78 LIG 0.16  HD
BRANCH 4 6
ATOM      6  CA  LEU C   2     108.529 175.218  53.825  1.00 46.28 LIG 0.16  C 
BRANCH 6 7
ATOM      7  C   LEU C   2     108.990 174.660  52.484  1.00 47.91 LIG 0.22  C 
ATOM      8 O    LEU C   2     110.088 174.111  52.373  1.00 50.38 LIG-0.29  OA
ENDBRANCH 6 7
BRANCH 6 9
ATOM      9  CB  LEU C   2     107.594 176.412  53.625  1.00 44.46 LIG 0.04  C 
BRANCH 9 10
ATOM     10  CG  LEU C   2     107.255 177.203  54.888  1.00 41.86 LIG-0.02  C 
ATOM     11  CD2 LEU C   2     105.843 176.883  55.350  1.00 43.32 LIG 0.01  C 
ATOM     12  CD1 LEU C   2     107.417 178.693  54.642  1.00 39.91 LIG 0.01  C 
ENDBRANCH 9 10
ENDBRANCH 6 9
ENDBRANCH 4 6
ENDBRANCH 1 2
BRANCH 1 13
ATOM     13  CB  PHE C   1     112.637 176.360  55.222  1.00 40.74 LIG 0.07  C 
BRANCH 13 14
ATOM     14  CG  PHE C   1     113.224 175.996  56.548  1.00 40.58 LIG-0.06  A 
ATOM     15  CD1 PHE C   1     114.297 176.704  57.060  1.00 41.26 LIG 0.01  A 
ATOM     16  CE1 PHE C   1     114.855 176.361  58.269  1.00 41.59 LIG 0.00  A 
ATOM     17  CZ  PHE C   1     114.350 175.292  58.978  1.00 39.95 LIG 0.00  A 
ATOM     18  CE2 PHE C   1     113.289 174.565  58.472  1.00 40.65 LIG 0.00  A 
ATOM     19  CD2 PHE C   1     112.735 174.914  57.262  1.00 39.59 LIG 0.01  A 
ENDBRANCH 13 14
ENDBRANCH 1 13
BRANCH 1 20
ATOM     20  N   PHE C   1     110.917 177.258  56.726  1.00 44.33 LIG-0.35  N 
ATOM     21 H    PHE C   1     110.647 176.498  57.027  1.00 44.33 LIG 0.16  HD
ATOM     22  C   SER C   0     110.919 178.377  57.449  1.00 45.23 LIG 0.25  C 
ATOM     23 O    SER C   0     111.246 179.474  56.992  1.00 45.89 LIG-0.27  OA
BRANCH 22 24
ATOM     24  CA  SER C   0     110.484 178.235  58.903  1.00 46.83 LIG 0.30  C 
BRANCH 24 25
ATOM     25  N   SER C   0     111.213 177.160  59.569  1.00 48.27 LIG-0.06  N 
ATOM     26 H2   SER C   0     111.925 177.496  59.984  1.00 48.27 LIG 0.28  HD
ATOM     27 H1   SER C   0     111.477 176.562  58.965  1.00 48.27 LIG 0.28  HD
ATOM     28 H3   SER C   0     110.682 176.765  60.164  1.00 48.27 LIG 0.28  HD
ENDBRANCH 24 25
BRANCH 24 29
ATOM     29  CB  SER C   0     110.688 179.564  59.638  1.00 47.94 LIG 0.21  C 
BRANCH 29 30
ATOM     30 OG   SER C   0     110.838 179.361  61.031  1.00 49.79 LIG-0.40  OA
ATOM     31 HG   SER C   0     111.590 179.022  61.186  1.00 49.79 LIG 0.21  HD
ENDBRANCH 29 30
ENDBRANCH 24 29
ENDBRANCH 22 24
ENDBRANCH 1 20
TORSDOF 12
ENDMDL
MODEL 43
USER: ADFR SOLUTION from run 191
USER: SCORE 9.215130 LL:  -2.076 LR:  -7.806 RR:   0.000 FEB:  -4.227
USER: RMSD 4.880299
USER: SEED 190
USER: STATUS no improvement in best in 17 clusters for 5 generations
USER: GENES 14
USER: genes 0 Translation |==|  0.57291 0.56526 0.27674
USER: genes 1 Rotation |==|  0.18980 0.43660 0.14294 0.64920
USER: genes 2 Torsion [N]-CA--C-[N] |==|  0.74446
USER: genes 3 Torsion [C]-N--CA-[C] |==|  0.65946
USER: genes 4 Torsion [N]-CA--C-[O] |==|  0.17840
USER: genes 5 Torsion [N]-CA--CB-[CG] |==|  0.78317
USER: genes 6 Torsion [CA]-CB--CG-[CD2] |==|  0.26079
USER: genes 7 Torsion [C]-CA--CB-[CG] |==|  0.41064
USER: genes 8 Torsion [CA]-CB--CG-[CD1] |==|  0.74273
USER: genes 9 Torsion [C]-CA--N-[C] |==|  0.66374
USER: genes 10 Torsion [N]-C--CA-[N] |==|  0.97210
USER: genes 11 Torsion [C]-CA--N-[H2] |==|  0.20895
USER: genes 12 Torsion [C]-CA--CB-[OG] |==|  0.86923
USER: genes 13 Torsion [CA]-CB--OG-[HG] |==|  0.33794
ROOT
ATOM      1  CA  PHE C   1     110.705 174.666  55.925  1.00 43.43 LIG 0.18  C 
ENDROOT
BRANCH 1 2
ATOM      2  C   PHE C   1     109.933 174.920  54.639  1.00 43.95 LIG 0.24  C 
ATOM      3 O    PHE C   1     110.370 174.488  53.567  1.00 42.64 LIG-0.27  OA
ATOM      4  N   LEU C   2     108.801 175.610  54.720  1.00 45.78 LIG-0.35  N 
ATOM      5 H    LEU C   2     108.415 175.821  55.459  1.00 45.78 LIG 0.16  HD
BRANCH 4 6
ATOM      6  CA  LEU C   2     108.116 176.068  53.527  1.00 46.28 LIG 0.16  C 
BRANCH 6 7
ATOM      7  C   LEU C   2     107.971 177.583  53.609  1.00 47.91 LIG 0.22  C 
ATOM      8 O    LEU C   2     108.963 178.313  53.609  1.00 50.38 LIG-0.29  OA
ENDBRANCH 6 7
BRANCH 6 9
ATOM      9  CB  LEU C   2     106.747 175.396  53.405  1.00 44.46 LIG 0.04  C 
BRANCH 9 10
ATOM     10  CG  LEU C   2     106.763 173.958  52.888  1.00 41.86 LIG-0.02  C 
ATOM     11  CD2 LEU C   2     106.788 172.978  54.050  1.00 43.32 LIG 0.01  C 
ATOM     12  CD1 LEU C   2     107.954 173.736  51.972  1.00 39.91 LIG 0.01  C 
ENDBRANCH 9 10
ENDBRANCH 6 9
ENDBRANCH 4 6
ENDBRANCH 1 2
BRANCH 1 13
ATOM     13  CB  PHE C   1     109.772 174.492  57.125  1.00 40.74 LIG 0.07  C 
BRANCH 13 14
ATOM     14  CG  PHE C   1     110.312 173.548  58.150  1.00 40.58 LIG-0.06  A 
ATOM     15  CD1 PHE C   1     109.981 172.205  58.112  1.00 41.26 LIG 0.01  A 
ATOM     16  CE1 PHE C   1     110.457 171.334  59.064  1.00 41.59 LIG 0.00  A 
ATOM     17  CZ  PHE C   1     111.266 171.803  60.078  1.00 39.95 LIG 0.00  A 
ATOM     18  CE2 PHE C   1     111.592 173.145  60.138  1.00 40.65 LIG 0.00  A 
ATOM     19  CD2 PHE C   1     111.112 174.010  59.182  1.00 39.59 LIG 0.01  A 
ENDBRANCH 13 14
ENDBRANCH 1 13
BRANCH 1 20
ATOM     20  N   PHE C   1     111.708 175.687  56.200  1.00 44.33 LIG-0.35  N 
ATOM     21 H    PHE C   1     111.387 176.481  56.271  1.00 44.33 LIG 0.16  HD
ATOM     22  C   SER C   0     113.003 175.401  56.329  1.00 45.23 LIG 0.25  C 
ATOM     23 O    SER C   0     113.463 174.269  56.163  1.00 45.89 LIG-0.27  OA
BRANCH 22 24
ATOM     24  CA  SER C   0     113.913 176.566  56.698  1.00 46.83 LIG 0.30  C 
BRANCH 24 25
ATOM     25  N   SER C   0     113.202 177.838  56.610  1.00 48.27 LIG-0.06  N 
ATOM     26 H2   SER C   0     112.656 177.923  57.308  1.00 48.27 LIG 0.28  HD
ATOM     27 H1   SER C   0     112.726 177.861  55.858  1.00 48.27 LIG 0.28  HD
ATOM     28 H3   SER C   0     113.789 178.507  56.609  1.00 48.27 LIG 0.28  HD
ENDBRANCH 24 25
BRANCH 24 29
ATOM     29  CB  SER C   0     114.478 176.358  58.106  1.00 47.94 LIG 0.21  C 
BRANCH 29 30
ATOM     30 OG   SER C   0     113.461 175.986  59.017  1.00 49.79 LIG-0.40  OA
ATOM     31 HG   SER C   0     113.651 175.245  59.363  1.00 49.79 LIG 0.21  HD
ENDBRANCH 29 30
ENDBRANCH 24 29
ENDBRANCH 22 24
ENDBRANCH 1 20
TORSDOF 12
ENDMDL
MODEL 44
USER: ADFR SOLUTION from run 135
USER: SCORE 9.634840 LL:  -1.982 LR:  -7.807 RR:   0.000 FEB:  -4.227
USER: RMSD 4.945334
USER: SEED 134
USER: STATUS no improvement in best in 18 clusters for 5 generations
USER: GENES 14
USER: genes 0 Translation |==|  0.60055 0.72699 0.21570
USER: genes 1 Rotation |==|  0.30828 0.48321 0.54844 0.95893
USER: genes 2 Torsion [N]-CA--C-[N] |==|  0.36336
USER: genes 3 Torsion [C]-N--CA-[C] |==|  0.66319
USER: genes 4 Torsion [N]-CA--C-[O] |==|  0.24728
USER: genes 5 Torsion [N]-CA--CB-[CG] |==|  0.44884
USER: genes 6 Torsion [CA]-CB--CG-[CD2] |==|  0.51429
USER: genes 7 Torsion [C]-CA--CB-[CG] |==|  0.74172
USER: genes 8 Torsion [CA]-CB--CG-[CD1] |==|  0.17817
USER: genes 9 Torsion [C]-CA--N-[C] |==|  0.65172
USER: genes 10 Torsion [N]-C--CA-[N] |==|  0.71011
USER: genes 11 Torsion [C]-CA--N-[H2] |==|  0.16584
USER: genes 12 Torsion [C]-CA--CB-[OG] |==|  0.48612
USER: genes 13 Torsion [CA]-CB--OG-[HG] |==|  0.56009
ROOT
ATOM      1  CA  PHE C   1     111.223 176.971  54.918  1.00 43.43 LIG 0.18  C 
ENDROOT
BRANCH 1 2
ATOM      2  C   PHE C   1     110.148 175.917  54.703  1.00 43.95 LIG 0.24  C 
ATOM      3 O    PHE C   1     109.828 175.169  55.633  1.00 42.64 LIG-0.27  OA
ATOM      4  N   LEU C   2     109.585 175.839  53.503  1.00 45.78 LIG-0.35  N 
ATOM      5 H    LEU C   2     109.702 176.416  52.875  1.00 45.78 LIG 0.16  HD
BRANCH 4 6
ATOM      6  CA  LEU C   2     108.705 174.739  53.157  1.00 46.28 LIG 0.16  C 
BRANCH 6 7
ATOM      7  C   LEU C   2     109.288 174.022  51.945  1.00 47.91 LIG 0.22  C 
ATOM      8 O    LEU C   2     110.090 173.097  52.084  1.00 50.38 LIG-0.29  OA
ENDBRANCH 6 7
BRANCH 6 9
ATOM      9  CB  LEU C   2     107.296 175.254  52.859  1.00 44.46 LIG 0.04  C 
BRANCH 9 10
ATOM     10  CG  LEU C   2     106.398 174.299  52.073  1.00 41.86 LIG-0.02  C 
ATOM     11  CD2 LEU C   2     105.079 174.972  51.734  1.00 43.32 LIG 0.01  C 
ATOM     12  CD1 LEU C   2     106.165 173.022  52.861  1.00 39.91 LIG 0.01  C 
ENDBRANCH 9 10
ENDBRANCH 6 9
ENDBRANCH 4 6
ENDBRANCH 1 2
BRANCH 1 13
ATOM     13  CB  PHE C   1     112.626 176.361  54.921  1.00 40.74 LIG 0.07  C 
BRANCH 13 14
ATOM     14  CG  PHE C   1     113.103 176.004  56.291  1.00 40.58 LIG-0.06  A 
ATOM     15  CD1 PHE C   1     112.455 175.029  57.030  1.00 41.26 LIG 0.01  A 
ATOM     16  CE1 PHE C   1     112.875 174.710  58.300  1.00 41.59 LIG 0.00  A 
ATOM     17  CZ  PHE C   1     113.950 175.375  58.852  1.00 39.95 LIG 0.00  A 
ATOM     18  CE2 PHE C   1     114.598 176.361  58.133  1.00 40.65 LIG 0.00  A 
ATOM     19  CD2 PHE C   1     114.171 176.675  56.863  1.00 39.59 LIG 0.01  A 
ENDBRANCH 13 14
ENDBRANCH 1 13
BRANCH 1 20
ATOM     20  N   PHE C   1     111.010 177.768  56.119  1.00 44.33 LIG-0.35  N 
ATOM     21 H    PHE C   1     110.925 177.302  56.837  1.00 44.33 LIG 0.16  HD
ATOM     22  C   SER C   0     110.954 179.098  56.094  1.00 45.23 LIG 0.25  C 
ATOM     23 O    SER C   0     111.013 179.756  55.052  1.00 45.89 LIG-0.27  OA
BRANCH 22 24
ATOM     24  CA  SER C   0     110.808 179.789  57.444  1.00 46.83 LIG 0.30  C 
BRANCH 24 25
ATOM     25  N   SER C   0     109.445 180.271  57.645  1.00 48.27 LIG-0.06  N 
ATOM     26 H2   SER C   0     108.879 179.585  57.610  1.00 48.27 LIG 0.28  HD
ATOM     27 H1   SER C   0     109.240 180.857  57.007  1.00 48.27 LIG 0.28  HD
ATOM     28 H3   SER C   0     109.383 180.666  58.440  1.00 48.27 LIG 0.28  HD
ENDBRANCH 24 25
BRANCH 24 29
ATOM     29  CB  SER C   0     111.213 178.827  58.566  1.00 47.94 LIG 0.21  C 
BRANCH 29 30
ATOM     30 OG   SER C   0     111.197 179.474  59.826  1.00 49.79 LIG-0.40  OA
ATOM     31 HG   SER C   0     111.686 179.052  60.363  1.00 49.79 LIG 0.21  HD
ENDBRANCH 29 30
ENDBRANCH 24 29
ENDBRANCH 22 24
ENDBRANCH 1 20
TORSDOF 12
ENDMDL
MODEL 45
USER: ADFR SOLUTION from run 138
USER: SCORE 10.049060 LL:  -2.261 LR:  -7.809 RR:   0.000 FEB:  -4.229
USER: RMSD 6.425351
USER: SEED 137
USER: STATUS no improvement in best in 15 clusters for 5 generations
USER: GENES 14
USER: genes 0 Translation |==|  0.56433 0.77273 0.19507
USER: genes 1 Rotation |==|  0.23617 0.16062 0.75255 0.53793
USER: genes 2 Torsion [N]-CA--C-[N] |==|  0.92634
USER: genes 3 Torsion [C]-N--CA-[C] |==|  0.82787
USER: genes 4 Torsion [N]-CA--C-[O] |==|  0.91838
USER: genes 5 Torsion [N]-CA--CB-[CG] |==|  0.24163
USER: genes 6 Torsion [CA]-CB--CG-[CD2] |==|  0.75061
USER: genes 7 Torsion [C]-CA--CB-[CG] |==|  0.99125
USER: genes 8 Torsion [CA]-CB--CG-[CD1] |==|  0.26587
USER: genes 9 Torsion [C]-CA--N-[C] |==|  0.83792
USER: genes 10 Torsion [N]-C--CA-[N] |==|  0.09585
USER: genes 11 Torsion [C]-CA--N-[H2] |==|  0.35292
USER: genes 12 Torsion [C]-CA--CB-[OG] |==|  0.86396
USER: genes 13 Torsion [CA]-CB--OG-[HG] |==|  0.10239
ROOT
ATOM      1  CA  PHE C   1     110.544 177.622  54.578  1.00 43.43 LIG 0.18  C 
ENDROOT
BRANCH 1 2
ATOM      2  C   PHE C   1     111.300 177.095  55.788  1.00 43.95 LIG 0.24  C 
ATOM      3 O    PHE C   1     112.469 177.445  55.980  1.00 42.64 LIG-0.27  OA
ATOM      4  N   LEU C   2     110.663 176.264  56.604  1.00 45.78 LIG-0.35  N 
ATOM      5 H    LEU C   2     109.820 176.094  56.562  1.00 45.78 LIG 0.16  HD
BRANCH 4 6
ATOM      6  CA  LEU C   2     111.368 175.561  57.658  1.00 46.28 LIG 0.16  C 
BRANCH 6 7
ATOM      7  C   LEU C   2     112.417 174.660  57.016  1.00 47.91 LIG 0.22  C 
ATOM      8 O    LEU C   2     112.242 174.192  55.890  1.00 50.38 LIG-0.29  OA
ENDBRANCH 6 7
BRANCH 6 9
ATOM      9  CB  LEU C   2     110.391 174.741  58.502  1.00 44.46 LIG 0.04  C 
BRANCH 9 10
ATOM     10  CG  LEU C   2     110.094 173.334  57.986  1.00 41.86 LIG-0.02  C 
ATOM     11  CD2 LEU C   2     108.907 173.357  57.038  1.00 43.32 LIG 0.01  C 
ATOM     12  CD1 LEU C   2     109.840 172.386  59.145  1.00 39.91 LIG 0.01  C 
ENDBRANCH 9 10
ENDBRANCH 6 9
ENDBRANCH 4 6
ENDBRANCH 1 2
BRANCH 1 13
ATOM     13  CB  PHE C   1     109.990 179.027  54.820  1.00 40.74 LIG 0.07  C 
BRANCH 13 14
ATOM     14  CG  PHE C   1     110.251 179.525  56.204  1.00 40.58 LIG-0.06  A 
ATOM     15  CD1 PHE C   1     111.346 180.329  56.468  1.00 41.26 LIG 0.01  A 
ATOM     16  CE1 PHE C   1     111.604 180.773  57.743  1.00 41.59 LIG 0.00  A 
ATOM     17  CZ  PHE C   1     110.769 180.408  58.778  1.00 39.95 LIG 0.00  A 
ATOM     18  CE2 PHE C   1     109.680 179.593  58.533  1.00 40.65 LIG 0.00  A 
ATOM     19  CD2 PHE C   1     109.428 179.152  57.255  1.00 39.59 LIG 0.01  A 
ENDBRANCH 13 14
ENDBRANCH 1 13
BRANCH 1 20
ATOM     20  N   PHE C   1     109.487 176.726  54.129  1.00 44.33 LIG-0.35  N 
ATOM     21 H    PHE C   1     108.705 177.082  54.124  1.00 44.33 LIG 0.16  HD
ATOM     22  C   SER C   0     109.724 175.467  53.763  1.00 45.23 LIG 0.25  C 
ATOM     23 O    SER C   0     110.838 174.943  53.834  1.00 45.89 LIG-0.27  OA
BRANCH 22 24
ATOM     24  CA  SER C   0     108.526 174.684  53.241  1.00 46.83 LIG 0.30  C 
BRANCH 24 25
ATOM     25  N   SER C   0     107.613 175.549  52.499  1.00 48.27 LIG-0.06  N 
ATOM     26 H2   SER C   0     107.457 175.198  51.697  1.00 48.27 LIG 0.28  HD
ATOM     27 H1   SER C   0     107.980 176.355  52.403  1.00 48.27 LIG 0.28  HD
ATOM     28 H3   SER C   0     106.847 175.624  52.945  1.00 48.27 LIG 0.28  HD
ENDBRANCH 24 25
BRANCH 24 29
ATOM     29  CB  SER C   0     109.005 173.524  52.363  1.00 47.94 LIG 0.21  C 
BRANCH 29 30
ATOM     30 OG   SER C   0     109.951 173.963  51.405  1.00 49.79 LIG-0.40  OA
ATOM     31 HG   SER C   0     110.441 174.554  51.746  1.00 49.79 LIG 0.21  HD
ENDBRANCH 29 30
ENDBRANCH 24 29
ENDBRANCH 22 24
ENDBRANCH 1 20
TORSDOF 12
ENDMDL
MODEL 46
USER: ADFR SOLUTION from run 91
USER: SCORE 9.715720 LL:  -1.978 LR:  -7.789 RR:   0.000 FEB:  -4.209
USER: RMSD 4.926755
USER: SEED 90
USER: STATUS no improvement in best in 18 clusters for 5 generations
USER: GENES 14
USER: genes 0 Translation |==|  0.65513 0.66149 0.34830
USER: genes 1 Rotation |==|  0.45860 0.37011 0.39568 0.96961
USER: genes 2 Torsion [N]-CA--C-[N] |==|  0.96995
USER: genes 3 Torsion [C]-N--CA-[C] |==|  0.19796
USER: genes 4 Torsion [N]-CA--C-[O] |==|  0.78852
USER: genes 5 Torsion [N]-CA--CB-[CG] |==|  0.85595
USER: genes 6 Torsion [CA]-CB--CG-[CD2] |==|  0.67433
USER: genes 7 Torsion [C]-CA--CB-[CG] |==|  0.49994
USER: genes 8 Torsion [CA]-CB--CG-[CD1] |==|  0.73727
USER: genes 9 Torsion [C]-CA--N-[C] |==|  0.74450
USER: genes 10 Torsion [N]-C--CA-[N] |==|  0.18285
USER: genes 11 Torsion [C]-CA--N-[H2] |==|  0.90538
USER: genes 12 Torsion [C]-CA--CB-[OG] |==|  0.80943
USER: genes 13 Torsion [CA]-CB--OG-[HG] |==|  0.06737
ROOT
ATOM      1  CA  PHE C   1     112.247 176.037  57.106  1.00 43.43 LIG 0.18  C 
ENDROOT
BRANCH 1 2
ATOM      2  C   PHE C   1     111.421 175.916  55.834  1.00 43.95 LIG 0.24  C 
ATOM      3 O    PHE C   1     111.978 175.984  54.734  1.00 42.64 LIG-0.27  OA
ATOM      4  N   LEU C   2     110.110 175.741  55.959  1.00 45.78 LIG-0.35  N 
ATOM      5 H    LEU C   2     109.713 175.575  56.704  1.00 45.78 LIG 0.16  HD
BRANCH 4 6
ATOM      6  CA  LEU C   2     109.231 175.821  54.809  1.00 46.28 LIG 0.16  C 
BRANCH 6 7
ATOM      7  C   LEU C   2     109.465 174.590  53.940  1.00 47.91 LIG 0.22  C 
ATOM      8 O    LEU C   2     110.463 174.504  53.224  1.00 50.38 LIG-0.29  OA
ENDBRANCH 6 7
BRANCH 6 9
ATOM      9  CB  LEU C   2     109.498 177.103  54.018  1.00 44.46 LIG 0.04  C 
BRANCH 9 10
ATOM     10  CG  LEU C   2     109.483 178.395  54.835  1.00 41.86 LIG-0.02  C 
ATOM     11  CD2 LEU C   2     108.365 179.308  54.359  1.00 43.32 LIG 0.01  C 
ATOM     12  CD1 LEU C   2     110.827 179.096  54.744  1.00 39.91 LIG 0.01  C 
ENDBRANCH 9 10
ENDBRANCH 6 9
ENDBRANCH 4 6
ENDBRANCH 1 2
BRANCH 1 13
ATOM     13  CB  PHE C   1     113.221 174.869  57.266  1.00 40.74 LIG 0.07  C 
BRANCH 13 14
ATOM     14  CG  PHE C   1     114.046 174.965  58.509  1.00 40.58 LIG-0.06  A 
ATOM     15  CD1 PHE C   1     115.305 175.538  58.474  1.00 41.26 LIG 0.01  A 
ATOM     16  CE1 PHE C   1     116.078 175.609  59.610  1.00 41.59 LIG 0.00  A 
ATOM     17  CZ  PHE C   1     115.600 175.097  60.798  1.00 39.95 LIG 0.00  A 
ATOM     18  CE2 PHE C   1     114.350 174.508  60.844  1.00 40.65 LIG 0.00  A 
ATOM     19  CD2 PHE C   1     113.583 174.439  59.704  1.00 39.59 LIG 0.01  A 
ENDBRANCH 13 14
ENDBRANCH 1 13
BRANCH 1 20
ATOM     20  N   PHE C   1     111.431 176.191  58.304  1.00 44.33 LIG-0.35  N 
ATOM     21 H    PHE C   1     111.194 175.446  58.663  1.00 44.33 LIG 0.16  HD
ATOM     22  C   SER C   0     111.091 177.384  58.789  1.00 45.23 LIG 0.25  C 
ATOM     23 O    SER C   0     111.381 178.445  58.233  1.00 45.89 LIG-0.27  OA
BRANCH 22 24
ATOM     24  CA  SER C   0     110.305 177.377  60.095  1.00 46.83 LIG 0.30  C 
BRANCH 24 25
ATOM     25  N   SER C   0     111.114 176.859  61.194  1.00 48.27 LIG-0.06  N 
ATOM     26 H2   SER C   0     111.661 176.227  60.889  1.00 48.27 LIG 0.28  HD
ATOM     27 H1   SER C   0     110.582 176.514  61.818  1.00 48.27 LIG 0.28  HD
ATOM     28 H3   SER C   0     111.593 177.521  61.548  1.00 48.27 LIG 0.28  HD
ENDBRANCH 24 25
BRANCH 24 29
ATOM     29  CB  SER C   0     109.805 178.790  60.408  1.00 47.94 LIG 0.21  C 
BRANCH 29 30
ATOM     30 OG   SER C   0     110.879 179.653  60.734  1.00 49.79 LIG-0.40  OA
ATOM     31 HG   SER C   0     111.588 179.361  60.391  1.00 49.79 LIG 0.21  HD
ENDBRANCH 29 30
ENDBRANCH 24 29
ENDBRANCH 22 24
ENDBRANCH 1 20
TORSDOF 12
ENDMDL
MODEL 47
USER: ADFR SOLUTION from run 181
USER: SCORE 9.932202 LL:  -2.238 LR:  -7.778 RR:   0.000 FEB:  -4.198
USER: RMSD 6.248947
USER: SEED 180
USER: STATUS no improvement in best in 15 clusters for 5 generations
USER: GENES 14
USER: genes 0 Translation |==|  0.53441 0.53908 0.33274
USER: genes 1 Rotation |==|  0.10823 0.21066 0.58763 0.57160
USER: genes 2 Torsion [N]-CA--C-[N] |==|  0.43723
USER: genes 3 Torsion [C]-N--CA-[C] |==|  0.75127
USER: genes 4 Torsion [N]-CA--C-[O] |==|  0.93457
USER: genes 5 Torsion [N]-CA--CB-[CG] |==|  0.68936
USER: genes 6 Torsion [CA]-CB--CG-[CD2] |==|  0.54278
USER: genes 7 Torsion [C]-CA--CB-[CG] |==|  0.54213
USER: genes 8 Torsion [CA]-CB--CG-[CD1] |==|  0.25878
USER: genes 9 Torsion [C]-CA--N-[C] |==|  0.62506
USER: genes 10 Torsion [N]-C--CA-[N] |==|  0.45877
USER: genes 11 Torsion [C]-CA--N-[H2] |==|  0.41179
USER: genes 12 Torsion [C]-CA--CB-[OG] |==|  0.64394
USER: genes 13 Torsion [CA]-CB--OG-[HG] |==|  0.40813
ROOT
ATOM      1  CA  PHE C   1     109.983 174.293  56.849  1.00 43.43 LIG 0.18  C 
ENDROOT
BRANCH 1 2
ATOM      2  C   PHE C   1     109.619 173.184  57.825  1.00 43.95 LIG 0.24  C 
ATOM      3 O    PHE C   1     108.472 172.728  57.833  1.00 42.64 LIG-0.27  OA
ATOM      4  N   LEU C   2     110.566 172.744  58.646  1.00 45.78 LIG-0.35  N 
ATOM      5 H    LEU C   2     111.397 172.958  58.586  1.00 45.78 LIG 0.16  HD
BRANCH 4 6
ATOM      6  CA  LEU C   2     110.252 171.841  59.736  1.00 46.28 LIG 0.16  C 
BRANCH 6 7
ATOM      7  C   LEU C   2     109.908 172.674  60.965  1.00 47.91 LIG 0.22  C 
ATOM      8 O    LEU C   2     110.321 173.828  61.081  1.00 50.38 LIG-0.29  OA
ENDBRANCH 6 7
BRANCH 6 9
ATOM      9  CB  LEU C   2     111.435 170.914  60.021  1.00 44.46 LIG 0.04  C 
BRANCH 9 10
ATOM     10  CG  LEU C   2     111.213 169.440  59.682  1.00 41.86 LIG-0.02  C 
ATOM     11  CD2 LEU C   2     112.277 168.579  60.342  1.00 43.32 LIG 0.01  C 
ATOM     12  CD1 LEU C   2     111.213 169.236  58.176  1.00 39.91 LIG 0.01  C 
ENDBRANCH 9 10
ENDBRANCH 6 9
ENDBRANCH 4 6
ENDBRANCH 1 2
BRANCH 1 13
ATOM     13  CB  PHE C   1     110.046 175.658  57.535  1.00 40.74 LIG 0.07  C 
BRANCH 13 14
ATOM     14  CG  PHE C   1     110.041 176.797  56.567  1.00 40.58 LIG-0.06  A 
ATOM     15  CD1 PHE C   1     108.853 177.408  56.206  1.00 41.26 LIG 0.01  A 
ATOM     16  CE1 PHE C   1     108.839 178.442  55.300  1.00 41.59 LIG 0.00  A 
ATOM     17  CZ  PHE C   1     110.021 178.873  54.733  1.00 39.95 LIG 0.00  A 
ATOM     18  CE2 PHE C   1     111.213 178.262  55.072  1.00 40.65 LIG 0.00  A 
ATOM     19  CD2 PHE C   1     111.220 177.228  55.979  1.00 39.59 LIG 0.01  A 
ENDBRANCH 13 14
ENDBRANCH 1 13
BRANCH 1 20
ATOM     20  N   PHE C   1     109.103 174.343  55.689  1.00 44.33 LIG-0.35  N 
ATOM     21 H    PHE C   1     108.268 174.273  55.881  1.00 44.33 LIG 0.16  HD
ATOM     22  C   SER C   0     109.564 174.486  54.447  1.00 45.23 LIG 0.25  C 
ATOM     23 O    SER C   0     110.766 174.521  54.174  1.00 45.89 LIG-0.27  OA
BRANCH 22 24
ATOM     24  CA  SER C   0     108.511 174.604  53.352  1.00 46.83 LIG 0.30  C 
BRANCH 24 25
ATOM     25  N   SER C   0     109.097 175.099  52.109  1.00 48.27 LIG-0.06  N 
ATOM     26 H2   SER C   0     108.661 174.750  51.416  1.00 48.27 LIG 0.28  HD
ATOM     27 H1   SER C   0     109.954 174.861  52.070  1.00 48.27 LIG 0.28  HD
ATOM     28 H3   SER C   0     109.034 175.986  52.084  1.00 48.27 LIG 0.28  HD
ENDBRANCH 24 25
BRANCH 24 29
ATOM     29  CB  SER C   0     107.837 173.247  53.130  1.00 47.94 LIG 0.21  C 
BRANCH 29 30
ATOM     30 OG   SER C   0     107.858 172.882  51.762  1.00 49.79 LIG-0.40  OA
ATOM     31 HG   SER C   0     107.924 172.047  51.696  1.00 49.79 LIG 0.21  HD
ENDBRANCH 29 30
ENDBRANCH 24 29
ENDBRANCH 22 24
ENDBRANCH 1 20
TORSDOF 12
ENDMDL
MODEL 48
USER: ADFR SOLUTION from run 177
USER: SCORE 9.187615 LL:  -1.547 LR:  -7.779 RR:   0.000 FEB:  -4.199
USER: RMSD 5.945364
USER: SEED 176
USER: STATUS no improvement in best in 14 clusters for 5 generations
USER: GENES 14
USER: genes 0 Translation |==|  0.59524 0.62429 0.32835
USER: genes 1 Rotation |==|  0.17273 0.16400 0.59734 0.64326
USER: genes 2 Torsion [N]-CA--C-[N] |==|  0.86903
USER: genes 3 Torsion [C]-N--CA-[C] |==|  0.50837
USER: genes 4 Torsion [N]-CA--C-[O] |==|  0.96834
USER: genes 5 Torsion [N]-CA--CB-[CG] |==|  0.48175
USER: genes 6 Torsion [CA]-CB--CG-[CD2] |==|  0.52232
USER: genes 7 Torsion [C]-CA--CB-[CG] |==|  0.48384
USER: genes 8 Torsion [CA]-CB--CG-[CD1] |==|  0.48028
USER: genes 9 Torsion [C]-CA--N-[C] |==|  0.81150
USER: genes 10 Torsion [N]-C--CA-[N] |==|  0.19551
USER: genes 11 Torsion [C]-CA--N-[H2] |==|  0.18375
USER: genes 12 Torsion [C]-CA--CB-[OG] |==|  0.83299
USER: genes 13 Torsion [CA]-CB--OG-[HG] |==|  0.94268
ROOT
ATOM      1  CA  PHE C   1     111.124 175.507  56.777  1.00 43.43 LIG 0.18  C 
ENDROOT
BRANCH 1 2
ATOM      2  C   PHE C   1     111.257 174.142  57.434  1.00 43.95 LIG 0.24  C 
ATOM      3 O    PHE C   1     112.361 173.588  57.476  1.00 42.64 LIG-0.27  OA
ATOM      4  N   LEU C   2     110.163 173.589  57.945  1.00 45.78 LIG-0.35  N 
ATOM      5 H    LEU C   2     109.411 173.996  58.034  1.00 45.78 LIG 0.16  HD
BRANCH 4 6
ATOM      6  CA  LEU C   2     110.164 172.213  58.403  1.00 46.28 LIG 0.16  C 
BRANCH 6 7
ATOM      7  C   LEU C   2     108.753 171.859  58.859  1.00 47.91 LIG 0.22  C 
ATOM      8 O    LEU C   2     107.897 172.734  58.999  1.00 50.38 LIG-0.29  OA
ENDBRANCH 6 7
BRANCH 6 9
ATOM      9  CB  LEU C   2     111.166 172.029  59.544  1.00 44.46 LIG 0.04  C 
BRANCH 9 10
ATOM     10  CG  LEU C   2     111.150 170.658  60.220  1.00 41.86 LIG-0.02  C 
ATOM     11  CD2 LEU C   2     112.040 170.665  61.451  1.00 43.32 LIG 0.01  C 
ATOM     12  CD1 LEU C   2     111.588 169.580  59.244  1.00 39.91 LIG 0.01  C 
ENDBRANCH 9 10
ENDBRANCH 6 9
ENDBRANCH 4 6
ENDBRANCH 1 2
BRANCH 1 13
ATOM     13  CB  PHE C   1     111.056 176.633  57.810  1.00 40.74 LIG 0.07  C 
BRANCH 13 14
ATOM     14  CG  PHE C   1     111.064 177.993  57.190  1.00 40.58 LIG-0.06  A 
ATOM     15  CD1 PHE C   1     110.861 179.121  57.967  1.00 41.26 LIG 0.01  A 
ATOM     16  CE1 PHE C   1     110.846 180.373  57.399  1.00 41.59 LIG 0.00  A 
ATOM     17  CZ  PHE C   1     111.025 180.512  56.039  1.00 39.95 LIG 0.00  A 
ATOM     18  CE2 PHE C   1     111.213 179.394  55.249  1.00 40.65 LIG 0.00  A 
ATOM     19  CD2 PHE C   1     111.226 178.144  55.823  1.00 39.59 LIG 0.01  A 
ENDBRANCH 13 14
ENDBRANCH 1 13
BRANCH 1 20
ATOM     20  N   PHE C   1     109.998 175.589  55.856  1.00 44.33 LIG-0.35  N 
ATOM     21 H    PHE C   1     109.367 176.112  56.120  1.00 44.33 LIG 0.16  HD
ATOM     22  C   SER C   0     109.960 174.912  54.709  1.00 45.23 LIG 0.25  C 
ATOM     23 O    SER C   0     110.838 174.116  54.368  1.00 45.89 LIG-0.27  OA
BRANCH 22 24
ATOM     24  CA  SER C   0     108.751 175.169  53.818  1.00 46.83 LIG 0.30  C 
BRANCH 24 25
ATOM     25  N   SER C   0     108.802 176.506  53.234  1.00 48.27 LIG-0.06  N 
ATOM     26 H2   SER C   0     109.490 176.559  52.673  1.00 48.27 LIG 0.28  HD
ATOM     27 H1   SER C   0     108.900 177.109  53.881  1.00 48.27 LIG 0.28  HD
ATOM     28 H3   SER C   0     108.046 176.666  52.793  1.00 48.27 LIG 0.28  HD
ENDBRANCH 24 25
BRANCH 24 29
ATOM     29  CB  SER C   0     108.677 174.101  52.723  1.00 47.94 LIG 0.21  C 
BRANCH 29 30
ATOM     30 OG   SER C   0     109.838 174.117  51.912  1.00 49.79 LIG-0.40  OA
ATOM     31 HG   SER C   0     110.220 174.861  51.985  1.00 49.79 LIG 0.21  HD
ENDBRANCH 29 30
ENDBRANCH 24 29
ENDBRANCH 22 24
ENDBRANCH 1 20
TORSDOF 12
ENDMDL
MODEL 49
USER: ADFR SOLUTION from run 27
USER: SCORE 9.892725 LL:  -2.292 LR:  -7.768 RR:   0.000 FEB:  -4.189
USER: RMSD 6.124219
USER: SEED 26
USER: STATUS no improvement in best in 28 clusters for 5 generations
USER: GENES 14
USER: genes 0 Translation |==|  0.51086 0.68077 0.21369
USER: genes 1 Rotation |==|  0.27135 0.20818 0.49124 0.83539
USER: genes 2 Torsion [N]-CA--C-[N] |==|  0.98533
USER: genes 3 Torsion [C]-N--CA-[C] |==|  0.79762
USER: genes 4 Torsion [N]-CA--C-[O] |==|  0.16689
USER: genes 5 Torsion [N]-CA--CB-[CG] |==|  0.77793
USER: genes 6 Torsion [CA]-CB--CG-[CD2] |==|  0.55475
USER: genes 7 Torsion [C]-CA--CB-[CG] |==|  0.90859
USER: genes 8 Torsion [CA]-CB--CG-[CD1] |==|  0.80324
USER: genes 9 Torsion [C]-CA--N-[C] |==|  0.69125
USER: genes 10 Torsion [N]-C--CA-[N] |==|  0.48123
USER: genes 11 Torsion [C]-CA--N-[H2] |==|  0.15213
USER: genes 12 Torsion [C]-CA--CB-[OG] |==|  0.63450
USER: genes 13 Torsion [CA]-CB--OG-[HG] |==|  0.10386
ROOT
ATOM      1  CA  PHE C   1     109.542 176.312  54.885  1.00 43.43 LIG 0.18  C 
ENDROOT
BRANCH 1 2
ATOM      2  C   PHE C   1     109.479 174.960  54.190  1.00 43.95 LIG 0.24  C 
ATOM      3 O    PHE C   1     110.510 174.293  54.056  1.00 42.64 LIG-0.27  OA
ATOM      4  N   LEU C   2     108.299 174.544  53.746  1.00 45.78 LIG-0.35  N 
ATOM      5 H    LEU C   2     107.551 174.929  53.925  1.00 45.78 LIG 0.16  HD
BRANCH 4 6
ATOM      6  CA  LEU C   2     108.188 173.372  52.899  1.00 46.28 LIG 0.16  C 
BRANCH 6 7
ATOM      7  C   LEU C   2     108.715 173.729  51.514  1.00 47.91 LIG 0.22  C 
ATOM      8 O    LEU C   2     109.878 174.105  51.359  1.00 50.38 LIG-0.29  OA
ENDBRANCH 6 7
BRANCH 6 9
ATOM      9  CB  LEU C   2     106.734 172.902  52.823  1.00 44.46 LIG 0.04  C 
BRANCH 9 10
ATOM     10  CG  LEU C   2     106.245 172.081  54.016  1.00 41.86 LIG-0.02  C 
ATOM     11  CD2 LEU C   2     105.010 171.281  53.636  1.00 43.32 LIG 0.01  C 
ATOM     12  CD1 LEU C   2     105.957 172.986  55.201  1.00 39.91 LIG 0.01  C 
ENDBRANCH 9 10
ENDBRANCH 6 9
ENDBRANCH 4 6
ENDBRANCH 1 2
BRANCH 1 13
ATOM     13  CB  PHE C   1     110.056 176.192  56.320  1.00 40.74 LIG 0.07  C 
BRANCH 13 14
ATOM     14  CG  PHE C   1     109.657 174.910  56.976  1.00 40.58 LIG-0.06  A 
ATOM     15  CD1 PHE C   1     108.340 174.686  57.338  1.00 41.26 LIG 0.01  A 
ATOM     16  CE1 PHE C   1     107.969 173.517  57.962  1.00 41.59 LIG 0.00  A 
ATOM     17  CZ  PHE C   1     108.920 172.558  58.241  1.00 39.95 LIG 0.00  A 
ATOM     18  CE2 PHE C   1     110.242 172.775  57.900  1.00 40.65 LIG 0.00  A 
ATOM     19  CD2 PHE C   1     110.606 173.946  57.277  1.00 39.59 LIG 0.01  A 
ENDBRANCH 13 14
ENDBRANCH 1 13
BRANCH 1 20
ATOM     20  N   PHE C   1     108.273 177.028  54.855  1.00 44.33 LIG-0.35  N 
ATOM     21 H    PHE C   1     107.658 176.670  55.337  1.00 44.33 LIG 0.16  HD
ATOM     22  C   SER C   0     108.095 178.139  54.141  1.00 45.23 LIG 0.25  C 
ATOM     23 O    SER C   0     108.962 178.611  53.402  1.00 45.89 LIG-0.27  OA
BRANCH 22 24
ATOM     24  CA  SER C   0     106.737 178.815  54.280  1.00 46.83 LIG 0.30  C 
BRANCH 24 25
ATOM     25  N   SER C   0     106.712 180.097  53.583  1.00 48.27 LIG-0.06  N 
ATOM     26 H2   SER C   0     106.952 179.978  52.734  1.00 48.27 LIG 0.28  HD
ATOM     27 H1   SER C   0     107.279 180.660  53.976  1.00 48.27 LIG 0.28  HD
ATOM     28 H3   SER C   0     105.890 180.436  53.615  1.00 48.27 LIG 0.28  HD
ENDBRANCH 24 25
BRANCH 24 29
ATOM     29  CB  SER C   0     105.639 177.888  53.749  1.00 47.94 LIG 0.21  C 
BRANCH 29 30
ATOM     30 OG   SER C   0     104.771 178.576  52.866  1.00 49.79 LIG-0.40  OA
ATOM     31 HG   SER C   0     105.214 179.117  52.402  1.00 49.79 LIG 0.21  HD
ENDBRANCH 29 30
ENDBRANCH 24 29
ENDBRANCH 22 24
ENDBRANCH 1 20
TORSDOF 12
ENDMDL
MODEL 50
USER: ADFR SOLUTION from run 88
USER: SCORE 9.317253 LL:  -2.279 LR:  -7.766 RR:   0.000 FEB:  -4.187
USER: RMSD 5.003548
USER: SEED 87
USER: STATUS no improvement in best in 20 clusters for 5 generations
USER: GENES 14
USER: genes 0 Translation |==|  0.55156 0.53290 0.32600
USER: genes 1 Rotation |==|  0.08353 0.26004 0.61840 0.57035
USER: genes 2 Torsion [N]-CA--C-[N] |==|  0.78333
USER: genes 3 Torsion [C]-N--CA-[C] |==|  0.16742
USER: genes 4 Torsion [N]-CA--C-[O] |==|  0.13079
USER: genes 5 Torsion [N]-CA--CB-[CG] |==|  0.79084
USER: genes 6 Torsion [CA]-CB--CG-[CD2] |==|  0.26405
USER: genes 7 Torsion [C]-CA--CB-[CG] |==|  0.27407
USER: genes 8 Torsion [CA]-CB--CG-[CD1] |==|  0.80745
USER: genes 9 Torsion [C]-CA--N-[C] |==|  0.58999
USER: genes 10 Torsion [N]-C--CA-[N] |==|  0.46131
USER: genes 11 Torsion [C]-CA--N-[H2] |==|  0.07560
USER: genes 12 Torsion [C]-CA--CB-[OG] |==|  0.67493
USER: genes 13 Torsion [CA]-CB--OG-[HG] |==|  0.36519
ROOT
ATOM      1  CA  PHE C   1     110.305 174.205  56.738  1.00 43.43 LIG 0.18  C 
ENDROOT
BRANCH 1 2
ATOM      2  C   PHE C   1     109.857 173.308  57.882  1.00 43.95 LIG 0.24  C 
ATOM      3 O    PHE C   1     110.308 172.161  57.974  1.00 42.64 LIG-0.27  OA
ATOM      4  N   LEU C   2     108.984 173.801  58.753  1.00 45.78 LIG-0.35  N 
ATOM      5 H    LEU C   2     108.743 174.626  58.783  1.00 45.78 LIG 0.16  HD
BRANCH 4 6
ATOM      6  CA  LEU C   2     108.356 172.951  59.746  1.00 46.28 LIG 0.16  C 
BRANCH 6 7
ATOM      7  C   LEU C   2     109.448 172.350  60.623  1.00 47.91 LIG 0.22  C 
ATOM      8 O    LEU C   2     110.346 173.055  61.086  1.00 50.38 LIG-0.29  OA
ENDBRANCH 6 7
BRANCH 6 9
ATOM      9  CB  LEU C   2     107.535 171.852  59.069  1.00 44.46 LIG 0.04  C 
BRANCH 9 10
ATOM     10  CG  LEU C   2     106.204 172.300  58.468  1.00 41.86 LIG-0.02  C 
ATOM     11  CD2 LEU C   2     106.369 172.613  56.990  1.00 43.32 LIG 0.01  C 
ATOM     12  CD1 LEU C   2     105.663 173.506  59.216  1.00 39.91 LIG 0.01  C 
ENDBRANCH 9 10
ENDBRANCH 6 9
ENDBRANCH 4 6
ENDBRANCH 1 2
BRANCH 1 13
ATOM     13  CB  PHE C   1     110.699 175.599  57.228  1.00 40.74 LIG 0.07  C 
BRANCH 13 14
ATOM     14  CG  PHE C   1     112.176 175.764  57.390  1.00 40.58 LIG-0.06  A 
ATOM     15  CD1 PHE C   1     112.851 175.095  58.395  1.00 41.26 LIG 0.01  A 
ATOM     16  CE1 PHE C   1     114.206 175.258  58.563  1.00 41.59 LIG 0.00  A 
ATOM     17  CZ  PHE C   1     114.903 176.106  57.728  1.00 39.95 LIG 0.00  A 
ATOM     18  CE2 PHE C   1     114.240 176.792  56.729  1.00 40.65 LIG 0.00  A 
ATOM     19  CD2 PHE C   1     112.884 176.625  56.567  1.00 39.59 LIG 0.01  A 
ENDBRANCH 13 14
ENDBRANCH 1 13
BRANCH 1 20
ATOM     20  N   PHE C   1     109.321 174.298  55.667  1.00 44.33 LIG-0.35  N 
ATOM     21 H    PHE C   1     108.506 174.245  55.936  1.00 44.33 LIG 0.16  HD
ATOM     22  C   SER C   0     109.667 174.452  54.390  1.00 45.23 LIG 0.25  C 
ATOM     23 O    SER C   0     110.838 174.463  54.005  1.00 45.89 LIG-0.27  OA
BRANCH 22 24
ATOM     24  CA  SER C   0     108.519 174.615  53.400  1.00 46.83 LIG 0.30  C 
BRANCH 24 25
ATOM     25  N   SER C   0     109.001 175.097  52.109  1.00 48.27 LIG-0.06  N 
ATOM     26 H2   SER C   0     109.846 174.843  51.994  1.00 48.27 LIG 0.28  HD
ATOM     27 H1   SER C   0     108.953 175.986  52.088  1.00 48.27 LIG 0.28  HD
ATOM     28 H3   SER C   0     108.497 174.758  51.459  1.00 48.27 LIG 0.28  HD
ENDBRANCH 24 25
BRANCH 24 29
ATOM     29  CB  SER C   0     107.779 173.284  53.240  1.00 47.94 LIG 0.21  C 
BRANCH 29 30
ATOM     30 OG   SER C   0     107.875 172.802  51.912  1.00 49.79 LIG-0.40  OA
ATOM     31 HG   SER C   0     108.104 171.994  51.923  1.00 49.79 LIG 0.21  HD
ENDBRANCH 29 30
ENDBRANCH 24 29
ENDBRANCH 22 24
ENDBRANCH 1 20
TORSDOF 12
ENDMDL
MODEL 51
USER: ADFR SOLUTION from run 23
USER: SCORE 9.818912 LL:  -2.135 LR:  -7.750 RR:   0.000 FEB:  -4.170
USER: RMSD 4.693804
USER: SEED 22
USER: STATUS no improvement in best in 12 clusters for 5 generations
USER: GENES 14
USER: genes 0 Translation |==|  0.58915 0.65061 0.21618
USER: genes 1 Rotation |==|  0.24121 0.37432 0.35312 0.88165
USER: genes 2 Torsion [N]-CA--C-[N] |==|  0.93831
USER: genes 3 Torsion [C]-N--CA-[C] |==|  0.61509
USER: genes 4 Torsion [N]-CA--C-[O] |==|  0.03038
USER: genes 5 Torsion [N]-CA--CB-[CG] |==|  0.71138
USER: genes 6 Torsion [CA]-CB--CG-[CD2] |==|  0.93810
USER: genes 7 Torsion [C]-CA--CB-[CG] |==|  0.48217
USER: genes 8 Torsion [CA]-CB--CG-[CD1] |==|  0.94423
USER: genes 9 Torsion [C]-CA--N-[C] |==|  0.84444
USER: genes 10 Torsion [N]-C--CA-[N] |==|  0.72749
USER: genes 11 Torsion [C]-CA--N-[H2] |==|  0.19428
USER: genes 12 Torsion [C]-CA--CB-[OG] |==|  0.14438
USER: genes 13 Torsion [CA]-CB--OG-[HG] |==|  0.03369
ROOT
ATOM      1  CA  PHE C   1     111.010 175.882  54.926  1.00 43.43 LIG 0.18  C 
ENDROOT
BRANCH 1 2
ATOM      2  C   PHE C   1     109.893 175.307  54.068  1.00 43.95 LIG 0.24  C 
ATOM      3 O    PHE C   1     110.160 174.490  53.182  1.00 42.64 LIG-0.27  OA
ATOM      4  N   LEU C   2     108.652 175.715  54.309  1.00 45.78 LIG-0.35  N 
ATOM      5 H    LEU C   2     108.421 176.189  54.989  1.00 45.78 LIG 0.16  HD
BRANCH 4 6
ATOM      6  CA  LEU C   2     107.564 175.375  53.412  1.00 46.28 LIG 0.16  C 
BRANCH 6 7
ATOM      7  C   LEU C   2     106.676 176.603  53.248  1.00 47.91 LIG 0.22  C 
ATOM      8 O    LEU C   2     107.039 177.704  53.664  1.00 50.38 LIG-0.29  OA
ENDBRANCH 6 7
BRANCH 6 9
ATOM      9  CB  LEU C   2     106.764 174.194  53.965  1.00 44.46 LIG 0.04  C 
BRANCH 9 10
ATOM     10  CG  LEU C   2     107.022 172.849  53.287  1.00 41.86 LIG-0.02  C 
ATOM     11  CD2 LEU C   2     107.586 173.059  51.892  1.00 43.32 LIG 0.01  C 
ATOM     12  CD1 LEU C   2     105.745 172.028  53.234  1.00 39.91 LIG 0.01  C 
ENDBRANCH 9 10
ENDBRANCH 6 9
ENDBRANCH 4 6
ENDBRANCH 1 2
BRANCH 1 13
ATOM     13  CB  PHE C   1     111.485 174.886  55.985  1.00 40.74 LIG 0.07  C 
BRANCH 13 14
ATOM     14  CG  PHE C   1     112.682 175.366  56.740  1.00 40.58 LIG-0.06  A 
ATOM     15  CD1 PHE C   1     113.491 176.360  56.217  1.00 41.26 LIG 0.01  A 
ATOM     16  CE1 PHE C   1     114.606 176.791  56.897  1.00 41.59 LIG 0.00  A 
ATOM     17  CZ  PHE C   1     114.931 176.223  58.111  1.00 39.95 LIG 0.00  A 
ATOM     18  CE2 PHE C   1     114.141 175.220  58.639  1.00 40.65 LIG 0.00  A 
ATOM     19  CD2 PHE C   1     113.027 174.792  57.953  1.00 39.59 LIG 0.01  A 
ENDBRANCH 13 14
ENDBRANCH 1 13
BRANCH 1 20
ATOM     20  N   PHE C   1     110.659 177.155  55.542  1.00 44.33 LIG-0.35  N 
ATOM     21 H    PHE C   1     110.735 177.162  56.398  1.00 44.33 LIG 0.16  HD
ATOM     22  C   SER C   0     110.258 178.208  54.830  1.00 45.23 LIG 0.25  C 
ATOM     23 O    SER C   0     110.090 178.171  53.609  1.00 45.89 LIG-0.27  OA
BRANCH 22 24
ATOM     24  CA  SER C   0     110.007 179.490  55.614  1.00 46.83 LIG 0.30  C 
BRANCH 24 25
ATOM     25  N   SER C   0     108.588 179.660  55.908  1.00 48.27 LIG-0.06  N 
ATOM     26 H2   SER C   0     108.334 179.053  56.507  1.00 48.27 LIG 0.28  HD
ATOM     27 H1   SER C   0     108.115 179.554  55.161  1.00 48.27 LIG 0.28  HD
ATOM     28 H3   SER C   0     108.447 180.476  56.234  1.00 48.27 LIG 0.28  HD
ENDBRANCH 24 25
BRANCH 24 29
ATOM     29  CB  SER C   0     110.831 179.479  56.905  1.00 47.94 LIG 0.21  C 
BRANCH 29 30
ATOM     30 OG   SER C   0     112.195 179.204  56.641  1.00 49.79 LIG-0.40  OA
ATOM     31 HG   SER C   0     112.337 179.261  55.816  1.00 49.79 LIG 0.21  HD
ENDBRANCH 29 30
ENDBRANCH 24 29
ENDBRANCH 22 24
ENDBRANCH 1 20
TORSDOF 12
ENDMDL
MODEL 52
USER: ADFR SOLUTION from run 92
USER: SCORE 9.410433 LL:  -2.485 LR:  -7.711 RR:   0.000 FEB:  -4.131
USER: RMSD 5.470049
USER: SEED 91
USER: STATUS no improvement in best in 27 clusters for 5 generations
USER: GENES 14
USER: genes 0 Translation |==|  0.55513 0.52037 0.32164
USER: genes 1 Rotation |==|  0.10075 0.23354 0.61278 0.58291
USER: genes 2 Torsion [N]-CA--C-[N] |==|  0.77252
USER: genes 3 Torsion [C]-N--CA-[C] |==|  0.55067
USER: genes 4 Torsion [N]-CA--C-[O] |==|  0.94162
USER: genes 5 Torsion [N]-CA--CB-[CG] |==|  0.03085
USER: genes 6 Torsion [CA]-CB--CG-[CD2] |==|  0.59342
USER: genes 7 Torsion [C]-CA--CB-[CG] |==|  0.27389
USER: genes 8 Torsion [CA]-CB--CG-[CD1] |==|  0.31500
USER: genes 9 Torsion [C]-CA--N-[C] |==|  0.58368
USER: genes 10 Torsion [N]-C--CA-[N] |==|  0.47782
USER: genes 11 Torsion [C]-CA--N-[H2] |==|  0.71641
USER: genes 12 Torsion [C]-CA--CB-[OG] |==|  0.65968
USER: genes 13 Torsion [CA]-CB--OG-[HG] |==|  0.42338
ROOT
ATOM      1  CA  PHE C   1     110.372 174.026  56.666  1.00 43.43 LIG 0.18  C 
ENDROOT
BRANCH 1 2
ATOM      2  C   PHE C   1     110.035 172.991  57.728  1.00 43.95 LIG 0.24  C 
ATOM      3 O    PHE C   1     110.551 171.870  57.676  1.00 42.64 LIG-0.27  OA
ATOM      4  N   LEU C   2     109.183 173.338  58.686  1.00 45.78 LIG-0.35  N 
ATOM      5 H    LEU C   2     108.900 174.140  58.815  1.00 45.78 LIG 0.16  HD
BRANCH 4 6
ATOM      6  CA  LEU C   2     108.655 172.355  59.612  1.00 46.28 LIG 0.16  C 
BRANCH 6 7
ATOM      7  C   LEU C   2     107.407 172.934  60.267  1.00 47.91 LIG 0.22  C 
ATOM      8 O    LEU C   2     107.213 174.150  60.291  1.00 50.38 LIG-0.29  OA
ENDBRANCH 6 7
BRANCH 6 9
ATOM      9  CB  LEU C   2     109.704 171.995  60.666  1.00 44.46 LIG 0.04  C 
BRANCH 9 10
ATOM     10  CG  LEU C   2     110.938 172.896  60.701  1.00 41.86 LIG-0.02  C 
ATOM     11  CD2 LEU C   2     112.169 172.092  61.086  1.00 43.32 LIG 0.01  C 
ATOM     12  CD1 LEU C   2     110.726 174.050  61.665  1.00 39.91 LIG 0.01  C 
ENDBRANCH 9 10
ENDBRANCH 6 9
ENDBRANCH 4 6
ENDBRANCH 1 2
BRANCH 1 13
ATOM     13  CB  PHE C   1     110.622 175.407  57.275  1.00 40.74 LIG 0.07  C 
BRANCH 13 14
ATOM     14  CG  PHE C   1     112.074 175.712  57.449  1.00 40.58 LIG-0.06  A 
ATOM     15  CD1 PHE C   1     112.676 176.716  56.710  1.00 41.26 LIG 0.01  A 
ATOM     16  CE1 PHE C   1     114.016 176.987  56.850  1.00 41.59 LIG 0.00  A 
ATOM     17  CZ  PHE C   1     114.778 176.246  57.729  1.00 39.95 LIG 0.00  A 
ATOM     18  CE2 PHE C   1     114.195 175.231  58.463  1.00 40.65 LIG 0.00  A 
ATOM     19  CD2 PHE C   1     112.853 174.964  58.317  1.00 39.59 LIG 0.01  A 
ENDBRANCH 13 14
ENDBRANCH 1 13
BRANCH 1 20
ATOM     20  N   PHE C   1     109.371 174.107  55.610  1.00 44.33 LIG-0.35  N 
ATOM     21 H    PHE C   1     108.574 173.914  55.868  1.00 44.33 LIG 0.16  HD
ATOM     22  C   SER C   0     109.678 174.450  54.359  1.00 45.23 LIG 0.25  C 
ATOM     23 O    SER C   0     110.832 174.663  53.982  1.00 45.89 LIG-0.27  OA
BRANCH 22 24
ATOM     24  CA  SER C   0     108.507 174.569  53.391  1.00 46.83 LIG 0.30  C 
BRANCH 24 25
ATOM     25  N   SER C   0     108.935 175.128  52.112  1.00 48.27 LIG-0.06  N 
ATOM     26 H2   SER C   0     108.703 175.986  52.071  1.00 48.27 LIG 0.28  HD
ATOM     27 H1   SER C   0     108.543 174.683  51.448  1.00 48.27 LIG 0.28  HD
ATOM     28 H3   SER C   0     109.818 175.055  52.037  1.00 48.27 LIG 0.28  HD
ENDBRANCH 24 25
BRANCH 24 29
ATOM     29  CB  SER C   0     107.857 173.196  53.192  1.00 47.94 LIG 0.21  C 
BRANCH 29 30
ATOM     30 OG   SER C   0     107.854 172.824  51.826  1.00 49.79 LIG-0.40  OA
ATOM     31 HG   SER C   0     107.861 171.987  51.763  1.00 49.79 LIG 0.21  HD
ENDBRANCH 29 30
ENDBRANCH 24 29
ENDBRANCH 22 24
ENDBRANCH 1 20
TORSDOF 12
ENDMDL
MODEL 53
USER: ADFR SOLUTION from run 90
USER: SCORE 9.601481 LL:  -1.945 LR:  -7.701 RR:   0.000 FEB:  -4.122
USER: RMSD 5.189037
USER: SEED 89
USER: STATUS no improvement in best in 19 clusters for 5 generations
USER: GENES 14
USER: genes 0 Translation |==|  0.63649 0.60722 0.33191
USER: genes 1 Rotation |==|  0.04243 0.34958 0.55278 0.62337
USER: genes 2 Torsion [N]-CA--C-[N] |==|  0.35719
USER: genes 3 Torsion [C]-N--CA-[C] |==|  0.53465
USER: genes 4 Torsion [N]-CA--C-[O] |==|  0.76996
USER: genes 5 Torsion [N]-CA--CB-[CG] |==|  0.58092
USER: genes 6 Torsion [CA]-CB--CG-[CD2] |==|  0.50937
USER: genes 7 Torsion [C]-CA--CB-[CG] |==|  0.19553
USER: genes 8 Torsion [CA]-CB--CG-[CD1] |==|  0.79046
USER: genes 9 Torsion [C]-CA--N-[C] |==|  0.81615
USER: genes 10 Torsion [N]-C--CA-[N] |==|  0.49956
USER: genes 11 Torsion [C]-CA--N-[H2] |==|  0.13292
USER: genes 12 Torsion [C]-CA--CB-[OG] |==|  0.40283
USER: genes 13 Torsion [CA]-CB--OG-[HG] |==|  0.14731
ROOT
ATOM      1  CA  PHE C   1     111.897 175.264  56.835  1.00 43.43 LIG 0.18  C 
ENDROOT
BRANCH 1 2
ATOM      2  C   PHE C   1     110.939 174.499  57.736  1.00 43.95 LIG 0.24  C 
ATOM      3 O    PHE C   1     109.959 175.076  58.219  1.00 42.64 LIG-0.27  OA
ATOM      4  N   LEU C   2     111.197 173.218  57.972  1.00 45.78 LIG-0.35  N 
ATOM      5 H    LEU C   2     111.800 172.762  57.561  1.00 45.78 LIG 0.16  HD
BRANCH 4 6
ATOM      6  CA  LEU C   2     110.455 172.476  58.973  1.00 46.28 LIG 0.16  C 
BRANCH 6 7
ATOM      7  C   LEU C   2     111.177 171.157  59.225  1.00 47.91 LIG 0.22  C 
ATOM      8 O    LEU C   2     111.001 170.189  58.484  1.00 50.38 LIG-0.29  OA
ENDBRANCH 6 7
BRANCH 6 9
ATOM      9  CB  LEU C   2     109.021 172.230  58.503  1.00 44.46 LIG 0.04  C 
BRANCH 9 10
ATOM     10  CG  LEU C   2     107.975 172.115  59.611  1.00 41.86 LIG-0.02  C 
ATOM     11  CD2 LEU C   2     106.612 171.790  59.022  1.00 43.32 LIG 0.01  C 
ATOM     12  CD1 LEU C   2     107.919 173.398  60.423  1.00 39.91 LIG 0.01  C 
ENDBRANCH 9 10
ENDBRANCH 6 9
ENDBRANCH 4 6
ENDBRANCH 1 2
BRANCH 1 13
ATOM     13  CB  PHE C   1     112.786 176.220  57.632  1.00 40.74 LIG 0.07  C 
BRANCH 13 14
ATOM     14  CG  PHE C   1     113.801 175.511  58.468  1.00 40.58 LIG-0.06  A 
ATOM     15  CD1 PHE C   1     113.428 174.878  59.641  1.00 41.26 LIG 0.01  A 
ATOM     16  CE1 PHE C   1     114.361 174.243  60.426  1.00 41.59 LIG 0.00  A 
ATOM     17  CZ  PHE C   1     115.688 174.241  60.050  1.00 39.95 LIG 0.00  A 
ATOM     18  CE2 PHE C   1     116.078 174.883  58.889  1.00 40.65 LIG 0.00  A 
ATOM     19  CD2 PHE C   1     115.139 175.517  58.109  1.00 39.59 LIG 0.01  A 
ENDBRANCH 13 14
ENDBRANCH 1 13
BRANCH 1 20
ATOM     20  N   PHE C   1     111.223 175.972  55.755  1.00 44.33 LIG-0.35  N 
ATOM     21 H    PHE C   1     111.275 176.828  55.812  1.00 44.33 LIG 0.16  HD
ATOM     22  C   SER C   0     110.588 175.337  54.771  1.00 45.23 LIG 0.25  C 
ATOM     23 O    SER C   0     110.463 174.111  54.730  1.00 45.89 LIG-0.27  OA
BRANCH 22 24
ATOM     24  CA  SER C   0     110.004 176.218  53.672  1.00 46.83 LIG 0.30  C 
BRANCH 24 25
ATOM     25  N   SER C   0     109.338 175.415  52.651  1.00 48.27 LIG-0.06  N 
ATOM     26 H2   SER C   0     108.800 174.824  53.043  1.00 48.27 LIG 0.28  HD
ATOM     27 H1   SER C   0     109.948 174.984  52.167  1.00 48.27 LIG 0.28  HD
ATOM     28 H3   SER C   0     108.860 175.946  52.121  1.00 48.27 LIG 0.28  HD
ENDBRANCH 24 25
BRANCH 24 29
ATOM     29  CB  SER C   0     109.034 177.234  54.282  1.00 47.94 LIG 0.21  C 
BRANCH 29 30
ATOM     30 OG   SER C   0     109.086 178.469  53.592  1.00 49.79 LIG-0.40  OA
ATOM     31 HG   SER C   0     108.972 178.337  52.770  1.00 49.79 LIG 0.21  HD
ENDBRANCH 29 30
ENDBRANCH 24 29
ENDBRANCH 22 24
ENDBRANCH 1 20
TORSDOF 12
ENDMDL
MODEL 54
USER: ADFR SOLUTION from run 125
USER: SCORE 9.594052 LL:  -2.640 LR:  -7.684 RR:   0.000 FEB:  -4.104
USER: RMSD 5.551472
USER: SEED 124
USER: STATUS no improvement in best in 8 clusters for 5 generations
USER: GENES 14
USER: genes 0 Translation |==|  0.70661 0.66950 0.31688
USER: genes 1 Rotation |==|  0.10437 0.28516 0.49931 0.71754
USER: genes 2 Torsion [N]-CA--C-[N] |==|  0.80599
USER: genes 3 Torsion [C]-N--CA-[C] |==|  0.18857
USER: genes 4 Torsion [N]-CA--C-[O] |==|  0.13106
USER: genes 5 Torsion [N]-CA--CB-[CG] |==|  0.87533
USER: genes 6 Torsion [CA]-CB--CG-[CD2] |==|  0.70198
USER: genes 7 Torsion [C]-CA--CB-[CG] |==|  0.12778
USER: genes 8 Torsion [CA]-CB--CG-[CD1] |==|  0.71304
USER: genes 9 Torsion [C]-CA--N-[C] |==|  0.18333
USER: genes 10 Torsion [N]-C--CA-[N] |==|  0.91170
USER: genes 11 Torsion [C]-CA--N-[H2] |==|  0.50330
USER: genes 12 Torsion [C]-CA--CB-[OG] |==|  0.58730
USER: genes 13 Torsion [CA]-CB--OG-[HG] |==|  0.36145
ROOT
ATOM      1  CA  PHE C   1     113.212 176.151  56.588  1.00 43.43 LIG 0.18  C 
ENDROOT
BRANCH 1 2
ATOM      2  C   PHE C   1     112.411 174.885  56.852  1.00 43.95 LIG 0.24  C 
ATOM      3 O    PHE C   1     112.700 173.842  56.257  1.00 42.64 LIG-0.27  OA
ATOM      4  N   LEU C   2     111.415 174.952  57.727  1.00 45.78 LIG-0.35  N 
ATOM      5 H    LEU C   2     111.264 175.627  58.239  1.00 45.78 LIG 0.16  HD
BRANCH 4 6
ATOM      6  CA  LEU C   2     110.481 173.854  57.884  1.00 46.28 LIG 0.16  C 
BRANCH 6 7
ATOM      7  C   LEU C   2     111.227 172.672  58.493  1.00 47.91 LIG 0.22  C 
ATOM      8 O    LEU C   2     111.962 172.825  59.469  1.00 50.38 LIG-0.29  OA
ENDBRANCH 6 7
BRANCH 6 9
ATOM      9  CB  LEU C   2     109.869 173.475  56.534  1.00 44.46 LIG 0.04  C 
BRANCH 9 10
ATOM     10  CG  LEU C   2     109.410 174.646  55.667  1.00 41.86 LIG-0.02  C 
ATOM     11  CD2 LEU C   2     107.893 174.723  55.642  1.00 43.32 LIG 0.01  C 
ATOM     12  CD1 LEU C   2     109.967 174.515  54.260  1.00 39.91 LIG 0.01  C 
ENDBRANCH 9 10
ENDBRANCH 6 9
ENDBRANCH 4 6
ENDBRANCH 1 2
BRANCH 1 13
ATOM     13  CB  PHE C   1     113.796 176.736  57.875  1.00 40.74 LIG 0.07  C 
BRANCH 13 14
ATOM     14  CG  PHE C   1     114.441 175.704  58.742  1.00 40.58 LIG-0.06  A 
ATOM     15  CD1 PHE C   1     113.797 175.234  59.874  1.00 41.26 LIG 0.01  A 
ATOM     16  CE1 PHE C   1     114.394 174.300  60.688  1.00 41.59 LIG 0.00  A 
ATOM     17  CZ  PHE C   1     115.654 173.830  60.383  1.00 39.95 LIG 0.00  A 
ATOM     18  CE2 PHE C   1     116.316 174.301  59.265  1.00 40.65 LIG 0.00  A 
ATOM     19  CD2 PHE C   1     115.713 175.236  58.455  1.00 39.59 LIG 0.01  A 
ENDBRANCH 13 14
ENDBRANCH 1 13
BRANCH 1 20
ATOM     20  N   PHE C   1     112.455 177.164  55.863  1.00 44.33 LIG-0.35  N 
ATOM     21 H    PHE C   1     112.755 177.327  55.074  1.00 44.33 LIG 0.16  HD
ATOM     22  C   SER C   0     111.395 177.776  56.388  1.00 45.23 LIG 0.25  C 
ATOM     23 O    SER C   0     111.009 177.584  57.543  1.00 45.89 LIG-0.27  OA
BRANCH 22 24
ATOM     24  CA  SER C   0     110.663 178.751  55.473  1.00 46.83 LIG 0.30  C 
BRANCH 24 25
ATOM     25  N   SER C   0     111.585 179.391  54.540  1.00 48.27 LIG-0.06  N 
ATOM     26 H2   SER C   0     111.138 179.967  54.029  1.00 48.27 LIG 0.28  HD
ATOM     27 H1   SER C   0     111.964 178.772  54.025  1.00 48.27 LIG 0.28  HD
ATOM     28 H3   SER C   0     112.215 179.825  54.995  1.00 48.27 LIG 0.28  HD
ENDBRANCH 24 25
BRANCH 24 29
ATOM     29  CB  SER C   0     109.549 178.019  54.719  1.00 47.94 LIG 0.21  C 
BRANCH 29 30
ATOM     30 OG   SER C   0     109.338 178.588  53.439  1.00 49.79 LIG-0.40  OA
ATOM     31 HG   SER C   0     109.336 177.980  52.859  1.00 49.79 LIG 0.21  HD
ENDBRANCH 29 30
ENDBRANCH 24 29
ENDBRANCH 22 24
ENDBRANCH 1 20
TORSDOF 12
ENDMDL
MODEL 55
USER: ADFR SOLUTION from run 128
USER: SCORE 9.530797 LL:  -2.025 LR:  -7.681 RR:   0.000 FEB:  -4.101
USER: RMSD 6.072500
USER: SEED 127
USER: STATUS no improvement in best in 8 clusters for 5 generations
USER: GENES 14
USER: genes 0 Translation |==|  0.69491 0.65001 0.38364
USER: genes 1 Rotation |==|  0.05731 0.41419 0.61757 0.68122
USER: genes 2 Torsion [N]-CA--C-[N] |==|  0.30612
USER: genes 3 Torsion [C]-N--CA-[C] |==|  0.80702
USER: genes 4 Torsion [N]-CA--C-[O] |==|  0.27161
USER: genes 5 Torsion [N]-CA--CB-[CG] |==|  0.38217
USER: genes 6 Torsion [CA]-CB--CG-[CD2] |==|  0.57774
USER: genes 7 Torsion [C]-CA--CB-[CG] |==|  0.12530
USER: genes 8 Torsion [CA]-CB--CG-[CD1] |==|  0.25159
USER: genes 9 Torsion [C]-CA--N-[C] |==|  0.72625
USER: genes 10 Torsion [N]-C--CA-[N] |==|  0.17635
USER: genes 11 Torsion [C]-CA--N-[H2] |==|  0.22924
USER: genes 12 Torsion [C]-CA--CB-[OG] |==|  0.52059
USER: genes 13 Torsion [CA]-CB--OG-[HG] |==|  0.40532
ROOT
ATOM      1  CA  PHE C   1     112.992 175.874  57.689  1.00 43.43 LIG 0.18  C 
ENDROOT
BRANCH 1 2
ATOM      2  C   PHE C   1     112.288 175.135  58.817  1.00 43.95 LIG 0.24  C 
ATOM      3 O    PHE C   1     111.979 175.742  59.847  1.00 42.64 LIG-0.27  OA
ATOM      4  N   LEU C   2     112.028 173.844  58.647  1.00 45.78 LIG-0.35  N 
ATOM      5 H    LEU C   2     112.125 173.425  57.902  1.00 45.78 LIG 0.16  HD
BRANCH 4 6
ATOM      6  CA  LEU C   2     111.547 173.026  59.744  1.00 46.28 LIG 0.16  C 
BRANCH 6 7
ATOM      7  C   LEU C   2     112.681 172.858  60.749  1.00 47.91 LIG 0.22  C 
ATOM      8 O    LEU C   2     112.746 173.570  61.752  1.00 50.38 LIG-0.29  OA
ENDBRANCH 6 7
BRANCH 6 9
ATOM      9  CB  LEU C   2     111.071 171.667  59.229  1.00 44.46 LIG 0.04  C 
BRANCH 9 10
ATOM     10  CG  LEU C   2     111.480 170.461  60.075  1.00 41.86 LIG-0.02  C 
ATOM     11  CD2 LEU C   2     111.588 169.218  59.207  1.00 43.32 LIG 0.01  C 
ATOM     12  CD1 LEU C   2     110.489 170.245  61.205  1.00 39.91 LIG 0.01  C 
ENDBRANCH 9 10
ENDBRANCH 6 9
ENDBRANCH 4 6
ENDBRANCH 1 2
BRANCH 1 13
ATOM     13  CB  PHE C   1     114.277 176.552  58.167  1.00 40.74 LIG 0.07  C 
BRANCH 13 14
ATOM     14  CG  PHE C   1     115.114 175.668  59.035  1.00 40.58 LIG-0.06  A 
ATOM     15  CD1 PHE C   1     116.088 174.856  58.480  1.00 41.26 LIG 0.01  A 
ATOM     16  CE1 PHE C   1     116.847 174.025  59.270  1.00 41.59 LIG 0.00  A 
ATOM     17  CZ  PHE C   1     116.631 173.989  60.632  1.00 39.95 LIG 0.00  A 
ATOM     18  CE2 PHE C   1     115.652 174.782  61.198  1.00 40.65 LIG 0.00  A 
ATOM     19  CD2 PHE C   1     114.896 175.611  60.402  1.00 39.59 LIG 0.01  A 
ENDBRANCH 13 14
ENDBRANCH 1 13
BRANCH 1 20
ATOM     20  N   PHE C   1     112.131 176.832  57.008  1.00 44.33 LIG-0.35  N 
ATOM     21 H    PHE C   1     112.057 177.586  57.415  1.00 44.33 LIG 0.16  HD
ATOM     22  C   SER C   0     111.520 176.553  55.858  1.00 45.23 LIG 0.25  C 
ATOM     23 O    SER C   0     111.580 175.448  55.314  1.00 45.89 LIG-0.27  OA
BRANCH 22 24
ATOM     24  CA  SER C   0     110.720 177.689  55.231  1.00 46.83 LIG 0.30  C 
BRANCH 24 25
ATOM     25  N   SER C   0     111.588 178.803  54.863  1.00 48.27 LIG-0.06  N 
ATOM     26 H2   SER C   0     111.963 178.639  54.073  1.00 48.27 LIG 0.28  HD
ATOM     27 H1   SER C   0     112.224 178.901  55.479  1.00 48.27 LIG 0.28  HD
ATOM     28 H3   SER C   0     111.107 179.550  54.814  1.00 48.27 LIG 0.28  HD
ENDBRANCH 24 25
BRANCH 24 29
ATOM     29  CB  SER C   0     109.954 177.172  54.010  1.00 47.94 LIG 0.21  C 
BRANCH 29 30
ATOM     30 OG   SER C   0     109.336 178.235  53.306  1.00 49.79 LIG-0.40  OA
ATOM     31 HG   SER C   0     109.337 178.064  52.484  1.00 49.79 LIG 0.21  HD
ENDBRANCH 29 30
ENDBRANCH 24 29
ENDBRANCH 22 24
ENDBRANCH 1 20
TORSDOF 12
ENDMDL
MODEL 56
USER: ADFR SOLUTION from run 165
USER: SCORE 9.932890 LL:  -2.299 LR:  -7.683 RR:   0.000 FEB:  -4.104
USER: RMSD 6.080261
USER: SEED 164
USER: STATUS no improvement in best in 8 clusters for 5 generations
USER: GENES 14
USER: genes 0 Translation |==|  0.63471 0.64615 0.28555
USER: genes 1 Rotation |==|  0.05200 0.34292 0.62857 0.58996
USER: genes 2 Torsion [N]-CA--C-[N] |==|  0.45422
USER: genes 3 Torsion [C]-N--CA-[C] |==|  0.66046
USER: genes 4 Torsion [N]-CA--C-[O] |==|  0.01516
USER: genes 5 Torsion [N]-CA--CB-[CG] |==|  0.81998
USER: genes 6 Torsion [CA]-CB--CG-[CD2] |==|  0.82031
USER: genes 7 Torsion [C]-CA--CB-[CG] |==|  0.79102
USER: genes 8 Torsion [CA]-CB--CG-[CD1] |==|  0.24572
USER: genes 9 Torsion [C]-CA--N-[C] |==|  0.78877
USER: genes 10 Torsion [N]-C--CA-[N] |==|  0.55007
USER: genes 11 Torsion [C]-CA--N-[H2] |==|  0.28537
USER: genes 12 Torsion [C]-CA--CB-[OG] |==|  0.29971
USER: genes 13 Torsion [CA]-CB--OG-[HG] |==|  0.14232
ROOT
ATOM      1  CA  PHE C   1     111.864 175.819  56.071  1.00 43.43 LIG 0.18  C 
ENDROOT
BRANCH 1 2
ATOM      2  C   PHE C   1     111.248 175.172  57.302  1.00 43.95 LIG 0.24  C 
ATOM      3 O    PHE C   1     110.039 175.299  57.521  1.00 42.64 LIG-0.27  OA
ATOM      4  N   LEU C   2     112.049 174.484  58.108  1.00 45.78 LIG-0.35  N 
ATOM      5 H    LEU C   2     112.865 174.281  57.923  1.00 45.78 LIG 0.16  HD
BRANCH 4 6
ATOM      6  CA  LEU C   2     111.587 174.012  59.399  1.00 46.28 LIG 0.16  C 
BRANCH 6 7
ATOM      7  C   LEU C   2     112.502 174.584  60.475  1.00 47.91 LIG 0.22  C 
ATOM      8 O    LEU C   2     113.385 175.394  60.187  1.00 50.38 LIG-0.29  OA
ENDBRANCH 6 7
BRANCH 6 9
ATOM      9  CB  LEU C   2     111.588 172.483  59.441  1.00 44.46 LIG 0.04  C 
BRANCH 9 10
ATOM     10  CG  LEU C   2     110.614 171.797  58.483  1.00 41.86 LIG-0.02  C 
ATOM     11  CD2 LEU C   2     109.180 172.129  58.859  1.00 43.32 LIG 0.01  C 
ATOM     12  CD1 LEU C   2     110.838 170.295  58.484  1.00 39.91 LIG 0.01  C 
ENDBRANCH 9 10
ENDBRANCH 6 9
ENDBRANCH 4 6
ENDBRANCH 1 2
BRANCH 1 13
ATOM     13  CB  PHE C   1     112.755 177.006  56.436  1.00 40.74 LIG 0.07  C 
BRANCH 13 14
ATOM     14  CG  PHE C   1     111.976 178.223  56.820  1.00 40.58 LIG-0.06  A 
ATOM     15  CD1 PHE C   1     111.589 178.424  58.134  1.00 41.26 LIG 0.01  A 
ATOM     16  CE1 PHE C   1     110.853 179.530  58.490  1.00 41.59 LIG 0.00  A 
ATOM     17  CZ  PHE C   1     110.486 180.448  57.528  1.00 39.95 LIG 0.00  A 
ATOM     18  CE2 PHE C   1     110.853 180.253  56.210  1.00 40.65 LIG 0.00  A 
ATOM     19  CD2 PHE C   1     111.588 179.144  55.861  1.00 39.59 LIG 0.01  A 
ENDBRANCH 13 14
ENDBRANCH 1 13
BRANCH 1 20
ATOM     20  N   PHE C   1     110.873 176.210  55.076  1.00 44.33 LIG-0.35  N 
ATOM     21 H    PHE C   1     110.713 177.054  55.055  1.00 44.33 LIG 0.16  HD
ATOM     22  C   SER C   0     110.276 175.327  54.276  1.00 45.23 LIG 0.25  C 
ATOM     23 O    SER C   0     110.463 174.111  54.355  1.00 45.89 LIG-0.27  OA
BRANCH 22 24
ATOM     24  CA  SER C   0     109.326 175.904  53.234  1.00 46.83 LIG 0.30  C 
BRANCH 24 25
ATOM     25  N   SER C   0     108.427 174.877  52.714  1.00 48.27 LIG-0.06  N 
ATOM     26 H2   SER C   0     107.625 174.968  53.088  1.00 48.27 LIG 0.28  HD
ATOM     27 H1   SER C   0     108.753 174.072  52.907  1.00 48.27 LIG 0.28  HD
ATOM     28 H3   SER C   0     108.356 174.964  51.832  1.00 48.27 LIG 0.28  HD
ENDBRANCH 24 25
BRANCH 24 29
ATOM     29  CB  SER C   0     108.530 177.063  53.841  1.00 47.94 LIG 0.21  C 
BRANCH 29 30
ATOM     30 OG   SER C   0     108.963 178.308  53.323  1.00 49.79 LIG-0.40  OA
ATOM     31 HG   SER C   0     108.969 178.276  52.484  1.00 49.79 LIG 0.21  HD
ENDBRANCH 29 30
ENDBRANCH 24 29
ENDBRANCH 22 24
ENDBRANCH 1 20
TORSDOF 12
ENDMDL
MODEL 57
USER: ADFR SOLUTION from run 126
USER: SCORE 9.958532 LL:  -2.360 LR:  -7.680 RR:   0.000 FEB:  -4.100
USER: RMSD 6.251228
USER: SEED 125
USER: STATUS no improvement in best in 18 clusters for 5 generations
USER: GENES 14
USER: genes 0 Translation |==|  0.50551 0.69219 0.20214
USER: genes 1 Rotation |==|  0.27517 0.22410 0.54276 0.84857
USER: genes 2 Torsion [N]-CA--C-[N] |==|  0.03656
USER: genes 3 Torsion [C]-N--CA-[C] |==|  0.79039
USER: genes 4 Torsion [N]-CA--C-[O] |==|  0.14763
USER: genes 5 Torsion [N]-CA--CB-[CG] |==|  0.04720
USER: genes 6 Torsion [CA]-CB--CG-[CD2] |==|  0.56170
USER: genes 7 Torsion [C]-CA--CB-[CG] |==|  0.44874
USER: genes 8 Torsion [CA]-CB--CG-[CD1] |==|  0.41085
USER: genes 9 Torsion [C]-CA--N-[C] |==|  0.68410
USER: genes 10 Torsion [N]-C--CA-[N] |==|  0.56093
USER: genes 11 Torsion [C]-CA--N-[H2] |==|  0.94640
USER: genes 12 Torsion [C]-CA--CB-[OG] |==|  0.68121
USER: genes 13 Torsion [CA]-CB--OG-[HG] |==|  0.47734
ROOT
ATOM      1  CA  PHE C   1     109.441 176.475  54.694  1.00 43.43 LIG 0.18  C 
ENDROOT
BRANCH 1 2
ATOM      2  C   PHE C   1     109.438 175.065  54.123  1.00 43.95 LIG 0.24  C 
ATOM      3 O    PHE C   1     110.463 174.378  54.180  1.00 42.64 LIG-0.27  OA
ATOM      4  N   LEU C   2     108.313 174.620  53.574  1.00 45.78 LIG-0.35  N 
ATOM      5 H    LEU C   2     107.556 175.027  53.623  1.00 45.78 LIG 0.16  HD
BRANCH 4 6
ATOM      6  CA  LEU C   2     108.283 173.376  52.830  1.00 46.28 LIG 0.16  C 
BRANCH 6 7
ATOM      7  C   LEU C   2     108.927 173.615  51.469  1.00 47.91 LIG 0.22  C 
ATOM      8 O    LEU C   2     110.051 174.111  51.381  1.00 50.38 LIG-0.29  OA
ENDBRANCH 6 7
BRANCH 6 9
ATOM      9  CB  LEU C   2     106.845 172.881  52.672  1.00 44.46 LIG 0.04  C 
BRANCH 9 10
ATOM     10  CG  LEU C   2     105.758 173.924  52.931  1.00 41.86 LIG-0.02  C 
ATOM     11  CD2 LEU C   2     104.445 173.243  53.283  1.00 43.32 LIG 0.01  C 
ATOM     12  CD1 LEU C   2     105.589 174.826  51.721  1.00 39.91 LIG 0.01  C 
ENDBRANCH 9 10
ENDBRANCH 6 9
ENDBRANCH 4 6
ENDBRANCH 1 2
BRANCH 1 13
ATOM     13  CB  PHE C   1     110.192 176.548  56.025  1.00 40.74 LIG 0.07  C 
BRANCH 13 14
ATOM     14  CG  PHE C   1     110.594 177.940  56.390  1.00 40.58 LIG-0.06  A 
ATOM     15  CD1 PHE C   1     110.657 178.328  57.718  1.00 41.26 LIG 0.01  A 
ATOM     16  CE1 PHE C   1     111.005 179.614  58.060  1.00 41.59 LIG 0.00  A 
ATOM     17  CZ  PHE C   1     111.287 180.534  57.072  1.00 39.95 LIG 0.00  A 
ATOM     18  CE2 PHE C   1     111.212 180.166  55.742  1.00 40.65 LIG 0.00  A 
ATOM     19  CD2 PHE C   1     110.863 178.878  55.407  1.00 39.59 LIG 0.01  A 
ENDBRANCH 13 14
ENDBRANCH 1 13
BRANCH 1 20
ATOM     20  N   PHE C   1     108.105 177.040  54.829  1.00 44.33 LIG-0.35  N 
ATOM     21 H    PHE C   1     107.613 176.639  55.410  1.00 44.33 LIG 0.16  HD
ATOM     22  C   SER C   0     107.694 178.083  54.111  1.00 45.23 LIG 0.25  C 
ATOM     23 O    SER C   0     108.382 178.611  53.234  1.00 45.89 LIG-0.27  OA
BRANCH 22 24
ATOM     24  CA  SER C   0     106.298 178.607  54.428  1.00 46.83 LIG 0.30  C 
BRANCH 24 25
ATOM     25  N   SER C   0     105.750 179.361  53.304  1.00 48.27 LIG-0.06  N 
ATOM     26 H2   SER C   0     106.412 179.614  52.766  1.00 48.27 LIG 0.28  HD
ATOM     27 H1   SER C   0     105.325 180.081  53.609  1.00 48.27 LIG 0.28  HD
ATOM     28 H3   SER C   0     105.179 178.849  52.853  1.00 48.27 LIG 0.28  HD
ENDBRANCH 24 25
BRANCH 24 29
ATOM     29  CB  SER C   0     105.377 177.440  54.797  1.00 47.94 LIG 0.21  C 
BRANCH 29 30
ATOM     30 OG   SER C   0     104.343 177.281  53.843  1.00 49.79 LIG-0.40  OA
ATOM     31 HG   SER C   0     103.921 176.573  54.003  1.00 49.79 LIG 0.21  HD
ENDBRANCH 29 30
ENDBRANCH 24 29
ENDBRANCH 22 24
ENDBRANCH 1 20
TORSDOF 12
ENDMDL
MODEL 58
USER: ADFR SOLUTION from run 70
USER: SCORE 9.736990 LL:  -2.140 LR:  -7.677 RR:   0.000 FEB:  -4.097
USER: RMSD 8.368014
USER: SEED 69
USER: STATUS no improvement in best in 15 clusters for 5 generations
USER: GENES 14
USER: genes 0 Translation |==|  0.45233 0.87814 0.23073
USER: genes 1 Rotation |==|  0.57957 0.91080 0.22661 0.51307
USER: genes 2 Torsion [N]-CA--C-[N] |==|  0.88337
USER: genes 3 Torsion [C]-N--CA-[C] |==|  0.19278
USER: genes 4 Torsion [N]-CA--C-[O] |==|  0.29654
USER: genes 5 Torsion [N]-CA--CB-[CG] |==|  0.73638
USER: genes 6 Torsion [CA]-CB--CG-[CD2] |==|  0.59095
USER: genes 7 Torsion [C]-CA--CB-[CG] |==|  0.54446
USER: genes 8 Torsion [CA]-CB--CG-[CD1] |==|  0.89282
USER: genes 9 Torsion [C]-CA--N-[C] |==|  0.80052
USER: genes 10 Torsion [N]-C--CA-[N] |==|  0.26795
USER: genes 11 Torsion [C]-CA--N-[H2] |==|  0.66704
USER: genes 12 Torsion [C]-CA--CB-[OG] |==|  0.67507
USER: genes 13 Torsion [CA]-CB--OG-[HG] |==|  0.30096
ROOT
ATOM      1  CA  PHE C   1     108.444 179.124  55.166  1.00 43.43 LIG 0.18  C 
ENDROOT
BRANCH 1 2
ATOM      2  C   PHE C   1     109.622 179.357  56.100  1.00 43.95 LIG 0.24  C 
ATOM      3 O    PHE C   1     110.394 180.299  55.890  1.00 42.64 LIG-0.27  OA
ATOM      4  N   LEU C   2     109.778 178.525  57.123  1.00 45.78 LIG-0.35  N 
ATOM      5 H    LEU C   2     109.197 177.937  57.361  1.00 45.78 LIG 0.16  HD
BRANCH 4 6
ATOM      6  CA  LEU C   2     110.979 178.553  57.935  1.00 46.28 LIG 0.16  C 
BRANCH 6 7
ATOM      7  C   LEU C   2     110.982 179.845  58.743  1.00 47.91 LIG 0.22  C 
ATOM      8 O    LEU C   2     110.754 179.834  59.953  1.00 50.38 LIG-0.29  OA
ENDBRANCH 6 7
BRANCH 6 9
ATOM      9  CB  LEU C   2     112.224 178.459  57.052  1.00 44.46 LIG 0.04  C 
BRANCH 9 10
ATOM     10  CG  LEU C   2     112.795 177.054  56.865  1.00 41.86 LIG-0.02  C 
ATOM     11  CD2 LEU C   2     114.307 177.111  56.723  1.00 43.32 LIG 0.01  C 
ATOM     12  CD1 LEU C   2     112.165 176.383  55.656  1.00 39.91 LIG 0.01  C 
ENDBRANCH 9 10
ENDBRANCH 6 9
ENDBRANCH 4 6
ENDBRANCH 1 2
BRANCH 1 13
ATOM     13  CB  PHE C   1     107.157 179.749  55.705  1.00 40.74 LIG 0.07  C 
BRANCH 13 14
ATOM     14  CG  PHE C   1     105.929 179.229  55.030  1.00 40.58 LIG-0.06  A 
ATOM     15  CD1 PHE C   1     105.930 178.974  53.670  1.00 41.26 LIG 0.01  A 
ATOM     16  CE1 PHE C   1     104.798 178.515  53.038  1.00 41.59 LIG 0.00  A 
ATOM     17  CZ  PHE C   1     103.642 178.314  53.764  1.00 39.95 LIG 0.00  A 
ATOM     18  CE2 PHE C   1     103.622 178.579  55.120  1.00 40.65 LIG 0.00  A 
ATOM     19  CD2 PHE C   1     104.758 179.038  55.745  1.00 39.59 LIG 0.01  A 
ENDBRANCH 13 14
ENDBRANCH 1 13
BRANCH 1 20
ATOM     20  N   PHE C   1     108.236 177.717  54.850  1.00 44.33 LIG-0.35  N 
ATOM     21 H    PHE C   1     107.541 177.375  55.221  1.00 44.33 LIG 0.16  HD
ATOM     22  C   SER C   0     109.058 177.034  54.054  1.00 45.23 LIG 0.25  C 
ATOM     23 O    SER C   0     110.088 177.515  53.576  1.00 45.89 LIG-0.27  OA
BRANCH 22 24
ATOM     24  CA  SER C   0     108.658 175.595  53.755  1.00 46.83 LIG 0.30  C 
BRANCH 24 25
ATOM     25  N   SER C   0     107.946 175.499  52.484  1.00 48.27 LIG-0.06  N 
ATOM     26 H2   SER C   0     107.130 175.170  52.625  1.00 48.27 LIG 0.28  HD
ATOM     27 H1   SER C   0     108.391 174.959  51.934  1.00 48.27 LIG 0.28  HD
ATOM     28 H3   SER C   0     107.881 176.307  52.118  1.00 48.27 LIG 0.28  HD
ENDBRANCH 24 25
BRANCH 24 29
ATOM     29  CB  SER C   0     109.901 174.701  53.748  1.00 47.94 LIG 0.21  C 
BRANCH 29 30
ATOM     30 OG   SER C   0     110.113 174.127  52.471  1.00 49.79 LIG-0.40  OA
ATOM     31 HG   SER C   0     110.780 174.486  52.109  1.00 49.79 LIG 0.21  HD
ENDBRANCH 29 30
ENDBRANCH 24 29
ENDBRANCH 22 24
ENDBRANCH 1 20
TORSDOF 12
ENDMDL
MODEL 59
USER: ADFR SOLUTION from run 170
USER: SCORE 9.475023 LL:  -1.908 LR:  -7.660 RR:   0.000 FEB:  -4.081
USER: RMSD 4.579244
USER: SEED 169
USER: STATUS no improvement in best in 12 clusters for 5 generations
USER: GENES 14
USER: genes 0 Translation |==|  0.53437 0.58675 0.35798
USER: genes 1 Rotation |==|  0.02834 0.36003 0.49164 0.58873
USER: genes 2 Torsion [N]-CA--C-[N] |==|  0.06111
USER: genes 3 Torsion [C]-N--CA-[C] |==|  0.85193
USER: genes 4 Torsion [N]-CA--C-[O] |==|  0.58897
USER: genes 5 Torsion [N]-CA--CB-[CG] |==|  0.12716
USER: genes 6 Torsion [CA]-CB--CG-[CD2] |==|  0.72448
USER: genes 7 Torsion [C]-CA--CB-[CG] |==|  0.41558
USER: genes 8 Torsion [CA]-CB--CG-[CD1] |==|  0.72290
USER: genes 9 Torsion [C]-CA--N-[C] |==|  0.68953
USER: genes 10 Torsion [N]-C--CA-[N] |==|  0.61638
USER: genes 11 Torsion [C]-CA--N-[H2] |==|  0.44486
USER: genes 12 Torsion [C]-CA--CB-[OG] |==|  0.39492
USER: genes 13 Torsion [CA]-CB--OG-[HG] |==|  0.16893
ROOT
ATOM      1  CA  PHE C   1     109.982 174.972  57.266  1.00 43.43 LIG 0.18  C 
ENDROOT
BRANCH 1 2
ATOM      2  C   PHE C   1     108.749 174.375  57.926  1.00 43.95 LIG 0.24  C 
ATOM      3 O    PHE C   1     108.754 174.146  59.140  1.00 42.64 LIG-0.27  OA
ATOM      4  N   LEU C   2     107.696 174.119  57.158  1.00 45.78 LIG-0.35  N 
ATOM      5 H    LEU C   2     107.620 174.373  56.340  1.00 45.78 LIG 0.16  HD
BRANCH 4 6
ATOM      6  CA  LEU C   2     106.564 173.368  57.665  1.00 46.28 LIG 0.16  C 
BRANCH 6 7
ATOM      7  C   LEU C   2     107.080 172.057  58.246  1.00 47.91 LIG 0.22  C 
ATOM      8 O    LEU C   2     106.394 171.034  58.203  1.00 50.38 LIG-0.29  OA
ENDBRANCH 6 7
BRANCH 6 9
ATOM      9  CB  LEU C   2     105.552 173.107  56.549  1.00 44.46 LIG 0.04  C 
BRANCH 9 10
ATOM     10  CG  LEU C   2     106.142 172.620  55.225  1.00 41.86 LIG-0.02  C 
ATOM     11  CD2 LEU C   2     106.270 173.775  54.246  1.00 43.32 LIG 0.01  C 
ATOM     12  CD1 LEU C   2     105.287 171.509  54.640  1.00 39.91 LIG 0.01  C 
ENDBRANCH 9 10
ENDBRANCH 6 9
ENDBRANCH 4 6
ENDBRANCH 1 2
BRANCH 1 13
ATOM     13  CB  PHE C   1     110.738 175.908  58.211  1.00 40.74 LIG 0.07  C 
BRANCH 13 14
ATOM     14  CG  PHE C   1     112.209 175.938  57.947  1.00 40.58 LIG-0.06  A 
ATOM     15  CD1 PHE C   1     113.078 175.197  58.730  1.00 41.26 LIG 0.01  A 
ATOM     16  CE1 PHE C   1     114.435 175.237  58.506  1.00 41.59 LIG 0.00  A 
ATOM     17  CZ  PHE C   1     114.940 176.030  57.498  1.00 39.95 LIG 0.00  A 
ATOM     18  CE2 PHE C   1     114.086 176.787  56.719  1.00 40.65 LIG 0.00  A 
ATOM     19  CD2 PHE C   1     112.730 176.743  56.948  1.00 39.59 LIG 0.01  A 
ENDBRANCH 13 14
ENDBRANCH 1 13
BRANCH 1 20
ATOM     20  N   PHE C   1     109.687 175.645  56.007  1.00 44.33 LIG-0.35  N 
ATOM     21 H    PHE C   1     109.225 176.365  56.096  1.00 44.33 LIG 0.16  HD
ATOM     22  C   SER C   0     110.103 175.177  54.831  1.00 45.23 LIG 0.25  C 
ATOM     23 O    SER C   0     110.710 174.111  54.707  1.00 45.89 LIG-0.27  OA
BRANCH 22 24
ATOM     24  CA  SER C   0     109.784 176.039  53.616  1.00 46.83 LIG 0.30  C 
BRANCH 24 25
ATOM     25  N   SER C   0     109.340 175.221  52.491  1.00 48.27 LIG-0.06  N 
ATOM     26 H2   SER C   0     108.895 175.730  51.912  1.00 48.27 LIG 0.28  HD
ATOM     27 H1   SER C   0     108.806 174.573  52.787  1.00 48.27 LIG 0.28  HD
ATOM     28 H3   SER C   0     110.047 174.861  52.089  1.00 48.27 LIG 0.28  HD
ENDBRANCH 24 25
BRANCH 24 29
ATOM     29  CB  SER C   0     108.721 177.079  53.982  1.00 47.94 LIG 0.21  C 
BRANCH 29 30
ATOM     30 OG   SER C   0     108.976 178.319  53.346  1.00 49.79 LIG-0.40  OA
ATOM     31 HG   SER C   0     108.960 178.215  52.513  1.00 49.79 LIG 0.21  HD
ENDBRANCH 29 30
ENDBRANCH 24 29
ENDBRANCH 22 24
ENDBRANCH 1 20
TORSDOF 12
ENDMDL
MODEL 60
USER: ADFR SOLUTION from run 158
USER: SCORE 9.269565 LL:  -1.679 LR:  -7.650 RR:   0.000 FEB:  -4.071
USER: RMSD 7.964321
USER: SEED 157
USER: STATUS no improvement in best in 22 clusters for 5 generations
USER: GENES 14
USER: genes 0 Translation |==|  0.70039 0.67245 0.34153
USER: genes 1 Rotation |==|  0.17116 0.24503 0.76863 0.56847
USER: genes 2 Torsion [N]-CA--C-[N] |==|  0.37059
USER: genes 3 Torsion [C]-N--CA-[C] |==|  0.82057
USER: genes 4 Torsion [N]-CA--C-[O] |==|  0.37231
USER: genes 5 Torsion [N]-CA--CB-[CG] |==|  0.53260
USER: genes 6 Torsion [CA]-CB--CG-[CD2] |==|  0.08835
USER: genes 7 Torsion [C]-CA--CB-[CG] |==|  0.62743
USER: genes 8 Torsion [CA]-CB--CG-[CD1] |==|  0.82626
USER: genes 9 Torsion [C]-CA--N-[C] |==|  0.77447
USER: genes 10 Torsion [N]-C--CA-[N] |==|  0.87447
USER: genes 11 Torsion [C]-CA--N-[H2] |==|  0.98239
USER: genes 12 Torsion [C]-CA--CB-[OG] |==|  0.16637
USER: genes 13 Torsion [CA]-CB--OG-[HG] |==|  0.56428
ROOT
ATOM      1  CA  PHE C   1     113.095 176.193  56.994  1.00 43.43 LIG 0.18  C 
ENDROOT
BRANCH 1 2
ATOM      2  C   PHE C   1     113.631 175.611  58.294  1.00 43.95 LIG 0.24  C 
ATOM      3 O    PHE C   1     112.920 175.611  59.304  1.00 42.64 LIG-0.27  OA
ATOM      4  N   LEU C   2     114.864 175.119  58.292  1.00 45.78 LIG-0.35  N 
ATOM      5 H    LEU C   2     115.337 175.000  57.583  1.00 45.78 LIG 0.16  HD
BRANCH 4 6
ATOM      6  CA  LEU C   2     115.520 174.735  59.527  1.00 46.28 LIG 0.16  C 
BRANCH 6 7
ATOM      7  C   LEU C   2     115.716 175.986  60.375  1.00 47.91 LIG 0.22  C 
ATOM      8 O    LEU C   2     115.437 175.985  61.575  1.00 50.38 LIG-0.29  OA
ENDBRANCH 6 7
BRANCH 6 9
ATOM      9  CB  LEU C   2     116.861 174.061  59.234  1.00 44.46 LIG 0.04  C 
BRANCH 9 10
ATOM     10  CG  LEU C   2     117.520 173.361  60.422  1.00 41.86 LIG-0.02  C 
ATOM     11  CD2 LEU C   2     116.463 172.810  61.365  1.00 43.32 LIG 0.01  C 
ATOM     12  CD1 LEU C   2     118.448 174.317  61.153  1.00 39.91 LIG 0.01  C 
ENDBRANCH 9 10
ENDBRANCH 6 9
ENDBRANCH 4 6
ENDBRANCH 1 2
BRANCH 1 13
ATOM     13  CB  PHE C   1     113.161 177.721  56.984  1.00 40.74 LIG 0.07  C 
BRANCH 13 14
ATOM     14  CG  PHE C   1     111.900 178.355  56.493  1.00 40.58 LIG-0.06  A 
ATOM     15  CD1 PHE C   1     111.459 178.133  55.200  1.00 41.26 LIG 0.01  A 
ATOM     16  CE1 PHE C   1     110.311 178.731  54.735  1.00 41.59 LIG 0.00  A 
ATOM     17  CZ  PHE C   1     109.592 179.570  55.560  1.00 39.95 LIG 0.00  A 
ATOM     18  CE2 PHE C   1     110.029 179.814  56.849  1.00 40.65 LIG 0.00  A 
ATOM     19  CD2 PHE C   1     111.179 179.213  57.307  1.00 39.59 LIG 0.01  A 
ENDBRANCH 13 14
ENDBRANCH 1 13
BRANCH 1 20
ATOM     20  N   PHE C   1     111.748 175.737  56.677  1.00 44.33 LIG-0.35  N 
ATOM     21 H    PHE C   1     111.130 176.296  56.892  1.00 44.33 LIG 0.16  HD
ATOM     22  C   SER C   0     111.508 174.558  56.106  1.00 45.23 LIG 0.25  C 
ATOM     23 O    SER C   0     112.393 173.736  55.860  1.00 45.89 LIG-0.27  OA
BRANCH 22 24
ATOM     24  CA  SER C   0     110.053 174.264  55.763  1.00 46.83 LIG 0.30  C 
BRANCH 24 25
ATOM     25  N   SER C   0     109.169 174.619  56.870  1.00 48.27 LIG-0.06  N 
ATOM     26 H2   SER C   0     109.657 174.858  57.575  1.00 48.27 LIG 0.28  HD
ATOM     27 H1   SER C   0     108.663 173.918  57.083  1.00 48.27 LIG 0.28  HD
ATOM     28 H3   SER C   0     108.647 175.298  56.626  1.00 48.27 LIG 0.28  HD
ENDBRANCH 24 25
BRANCH 24 29
ATOM     29  CB  SER C   0     109.656 175.016  54.490  1.00 47.94 LIG 0.21  C 
BRANCH 29 30
ATOM     30 OG   SER C   0     110.463 174.627  53.393  1.00 49.79 LIG-0.40  OA
ATOM     31 HG   SER C   0     110.462 175.236  52.815  1.00 49.79 LIG 0.21  HD
ENDBRANCH 29 30
ENDBRANCH 24 29
ENDBRANCH 22 24
ENDBRANCH 1 20
TORSDOF 12
ENDMDL
MODEL 61
USER: ADFR SOLUTION from run 184
USER: SCORE 9.595999 LL:  -2.312 LR:  -7.640 RR:   0.000 FEB:  -4.060
USER: RMSD 7.710470
USER: SEED 183
USER: STATUS no improvement in best in 21 clusters for 5 generations
USER: GENES 14
USER: genes 0 Translation |==|  0.55779 0.71649 0.20762
USER: genes 1 Rotation |==|  0.84671 0.74001 0.23207 0.51999
USER: genes 2 Torsion [N]-CA--C-[N] |==|  0.50304
USER: genes 3 Torsion [C]-N--CA-[C] |==|  0.17477
USER: genes 4 Torsion [N]-CA--C-[O] |==|  0.32074
USER: genes 5 Torsion [N]-CA--CB-[CG] |==|  0.76496
USER: genes 6 Torsion [CA]-CB--CG-[CD2] |==|  0.43621
USER: genes 7 Torsion [C]-CA--CB-[CG] |==|  0.76736
USER: genes 8 Torsion [CA]-CB--CG-[CD1] |==|  0.28523
USER: genes 9 Torsion [C]-CA--N-[C] |==|  0.70035
USER: genes 10 Torsion [N]-C--CA-[N] |==|  0.31831
USER: genes 11 Torsion [C]-CA--N-[H2] |==|  0.01588
USER: genes 12 Torsion [C]-CA--CB-[OG] |==|  0.60530
USER: genes 13 Torsion [CA]-CB--OG-[HG] |==|  0.32965
ROOT
ATOM      1  CA  PHE C   1     110.422 176.821  54.785  1.00 43.43 LIG 0.18  C 
ENDROOT
BRANCH 1 2
ATOM      2  C   PHE C   1     110.698 176.673  56.273  1.00 43.95 LIG 0.24  C 
ATOM      3 O    PHE C   1     109.944 175.988  56.971  1.00 42.64 LIG-0.27  OA
ATOM      4  N   LEU C   2     111.758 177.299  56.773  1.00 45.78 LIG-0.35  N 
ATOM      5 H    LEU C   2     112.362 177.684  56.297  1.00 45.78 LIG 0.16  HD
BRANCH 4 6
ATOM      6  CA  LEU C   2     111.976 177.377  58.205  1.00 46.28 LIG 0.16  C 
BRANCH 6 7
ATOM      7  C   LEU C   2     112.163 175.962  58.739  1.00 47.91 LIG 0.22  C 
ATOM      8 O    LEU C   2     113.235 175.611  59.234  1.00 50.38 LIG-0.29  OA
ENDBRANCH 6 7
BRANCH 6 9
ATOM      9  CB  LEU C   2     110.793 178.065  58.889  1.00 44.46 LIG 0.04  C 
BRANCH 9 10
ATOM     10  CG  LEU C   2     110.842 179.593  58.909  1.00 41.86 LIG-0.02  C 
ATOM     11  CD2 LEU C   2     109.444 180.165  59.073  1.00 43.32 LIG 0.01  C 
ATOM     12  CD1 LEU C   2     111.494 180.119  57.642  1.00 39.91 LIG 0.01  C 
ENDBRANCH 9 10
ENDBRANCH 6 9
ENDBRANCH 4 6
ENDBRANCH 1 2
BRANCH 1 13
ATOM     13  CB  PHE C   1     110.361 178.289  54.359  1.00 40.74 LIG 0.07  C 
BRANCH 13 14
ATOM     14  CG  PHE C   1     109.020 178.907  54.590  1.00 40.58 LIG-0.06  A 
ATOM     15  CD1 PHE C   1     108.811 179.748  55.669  1.00 41.26 LIG 0.01  A 
ATOM     16  CE1 PHE C   1     107.574 180.304  55.900  1.00 41.59 LIG 0.00  A 
ATOM     17  CZ  PHE C   1     106.524 180.014  55.053  1.00 39.95 LIG 0.00  A 
ATOM     18  CE2 PHE C   1     106.714 179.164  53.981  1.00 40.65 LIG 0.00  A 
ATOM     19  CD2 PHE C   1     107.954 178.611  53.756  1.00 39.59 LIG 0.01  A 
ENDBRANCH 13 14
ENDBRANCH 1 13
BRANCH 1 20
ATOM     20  N   PHE C   1     109.222 176.114  54.354  1.00 44.33 LIG-0.35  N 
ATOM     21 H    PHE C   1     108.489 176.480  54.613  1.00 44.33 LIG 0.16  HD
ATOM     22  C   SER C   0     109.272 175.001  53.624  1.00 45.23 LIG 0.25  C 
ATOM     23 O    SER C   0     110.328 174.446  53.311  1.00 45.89 LIG-0.27  OA
BRANCH 22 24
ATOM     24  CA  SER C   0     107.930 174.427  53.185  1.00 46.83 LIG 0.30  C 
BRANCH 24 25
ATOM     25  N   SER C   0     107.781 174.486  51.734  1.00 48.27 LIG-0.06  N 
ATOM     26 H2   SER C   0     108.541 174.772  51.369  1.00 48.27 LIG 0.28  HD
ATOM     27 H1   SER C   0     107.122 175.047  51.526  1.00 48.27 LIG 0.28  HD
ATOM     28 H3   SER C   0     107.588 173.675  51.422  1.00 48.27 LIG 0.28  HD
ENDBRANCH 24 25
BRANCH 24 29
ATOM     29  CB  SER C   0     107.792 172.987  53.686  1.00 47.94 LIG 0.21  C 
BRANCH 29 30
ATOM     30 OG   SER C   0     107.144 172.170  52.726  1.00 49.79 LIG-0.40  OA
ATOM     31 HG   SER C   0     107.662 171.554  52.488  1.00 49.79 LIG 0.21  HD
ENDBRANCH 29 30
ENDBRANCH 24 29
ENDBRANCH 22 24
ENDBRANCH 1 20
TORSDOF 12
ENDMDL
MODEL 62
USER: ADFR SOLUTION from run 49
USER: SCORE 9.356490 LL:  -2.156 LR:  -7.643 RR:   0.000 FEB:  -4.064
USER: RMSD 6.606282
USER: SEED 48
USER: STATUS no improvement in best in 17 clusters for 5 generations
USER: GENES 14
USER: genes 0 Translation |==|  0.61863 0.58786 0.24998
USER: genes 1 Rotation |==|  0.11073 0.34919 0.76732 0.56534
USER: genes 2 Torsion [N]-CA--C-[N] |==|  0.12044
USER: genes 3 Torsion [C]-N--CA-[C] |==|  0.52750
USER: genes 4 Torsion [N]-CA--C-[O] |==|  0.11198
USER: genes 5 Torsion [N]-CA--CB-[CG] |==|  0.62365
USER: genes 6 Torsion [CA]-CB--CG-[CD2] |==|  0.43821
USER: genes 7 Torsion [C]-CA--CB-[CG] |==|  0.75847
USER: genes 8 Torsion [CA]-CB--CG-[CD1] |==|  0.76937
USER: genes 9 Torsion [C]-CA--N-[C] |==|  0.61111
USER: genes 10 Torsion [N]-C--CA-[N] |==|  0.33037
USER: genes 11 Torsion [C]-CA--N-[H2] |==|  0.61012
USER: genes 12 Torsion [C]-CA--CB-[OG] |==|  0.75306
USER: genes 13 Torsion [CA]-CB--OG-[HG] |==|  0.30621
ROOT
ATOM      1  CA  PHE C   1     111.562 174.988  55.484  1.00 43.43 LIG 0.18  C 
ENDROOT
BRANCH 1 2
ATOM      2  C   PHE C   1     111.790 174.625  56.943  1.00 43.95 LIG 0.24  C 
ATOM      3 O    PHE C   1     112.607 175.266  57.613  1.00 42.64 LIG-0.27  OA
ATOM      4  N   LEU C   2     111.091 173.615  57.449  1.00 45.78 LIG-0.35  N 
ATOM      5 H    LEU C   2     110.438 173.229  57.045  1.00 45.78 LIG 0.16  HD
BRANCH 4 6
ATOM      6  CA  LEU C   2     111.394 173.078  58.761  1.00 46.28 LIG 0.16  C 
BRANCH 6 7
ATOM      7  C   LEU C   2     110.597 171.792  58.948  1.00 47.91 LIG 0.22  C 
ATOM      8 O    LEU C   2     110.469 170.989  58.023  1.00 50.38 LIG-0.29  OA
ENDBRANCH 6 7
BRANCH 6 9
ATOM      9  CB  LEU C   2     111.047 174.096  59.849  1.00 44.46 LIG 0.04  C 
BRANCH 9 10
ATOM     10  CG  LEU C   2     112.093 174.265  60.950  1.00 41.86 LIG-0.02  C 
ATOM     11  CD2 LEU C   2     111.932 175.615  61.630  1.00 43.32 LIG 0.01  C 
ATOM     12  CD1 LEU C   2     113.493 174.113  60.380  1.00 39.91 LIG 0.01  C 
ENDBRANCH 9 10
ENDBRANCH 6 9
ENDBRANCH 4 6
ENDBRANCH 1 2
BRANCH 1 13
ATOM     13  CB  PHE C   1     112.220 176.319  55.118  1.00 40.74 LIG 0.07  C 
BRANCH 13 14
ATOM     14  CG  PHE C   1     111.343 177.497  55.393  1.00 40.58 LIG-0.06  A 
ATOM     15  CD1 PHE C   1     110.379 177.884  54.478  1.00 41.26 LIG 0.01  A 
ATOM     16  CE1 PHE C   1     109.582 178.981  54.715  1.00 41.59 LIG 0.00  A 
ATOM     17  CZ  PHE C   1     109.750 179.712  55.872  1.00 39.95 LIG 0.00  A 
ATOM     18  CE2 PHE C   1     110.719 179.347  56.787  1.00 40.65 LIG 0.00  A 
ATOM     19  CD2 PHE C   1     111.512 178.250  56.544  1.00 39.59 LIG 0.01  A 
ENDBRANCH 13 14
ENDBRANCH 1 13
BRANCH 1 20
ATOM     20  N   PHE C   1     110.154 174.994  55.110  1.00 44.33 LIG-0.35  N 
ATOM     21 H    PHE C   1     109.635 175.329  55.709  1.00 44.33 LIG 0.16  HD
ATOM     22  C   SER C   0     109.721 174.521  53.942  1.00 45.23 LIG 0.25  C 
ATOM     23 O    SER C   0     110.463 173.984  53.117  1.00 45.89 LIG-0.27  OA
BRANCH 22 24
ATOM     24  CA  SER C   0     108.230 174.674  53.668  1.00 46.83 LIG 0.30  C 
BRANCH 24 25
ATOM     25  N   SER C   0     107.994 175.494  52.484  1.00 48.27 LIG-0.06  N 
ATOM     26 H2   SER C   0     107.297 176.029  52.628  1.00 48.27 LIG 0.28  HD
ATOM     27 H1   SER C   0     107.824 174.968  51.787  1.00 48.27 LIG 0.28  HD
ATOM     28 H3   SER C   0     108.716 175.986  52.314  1.00 48.27 LIG 0.28  HD
ENDBRANCH 24 25
BRANCH 24 29
ATOM     29  CB  SER C   0     107.587 173.294  53.508  1.00 47.94 LIG 0.21  C 
BRANCH 29 30
ATOM     30 OG   SER C   0     107.636 172.858  52.162  1.00 49.79 LIG-0.40  OA
ATOM     31 HG   SER C   0     108.176 172.218  52.094  1.00 49.79 LIG 0.21  HD
ENDBRANCH 29 30
ENDBRANCH 24 29
ENDBRANCH 22 24
ENDBRANCH 1 20
TORSDOF 12
ENDMDL
MODEL 63
USER: ADFR SOLUTION from run 196
USER: SCORE 8.915976 LL:  -2.061 LR:  -7.642 RR:   0.000 FEB:  -4.063
USER: RMSD 5.378213
USER: SEED 195
USER: STATUS no improvement in best in 21 clusters for 5 generations
USER: GENES 14
USER: genes 0 Translation |==|  0.47559 0.56356 0.13063
USER: genes 1 Rotation |==|  0.14999 0.30872 0.37471 0.77424
USER: genes 2 Torsion [N]-CA--C-[N] |==|  0.71595
USER: genes 3 Torsion [C]-N--CA-[C] |==|  0.74393
USER: genes 4 Torsion [N]-CA--C-[O] |==|  0.33208
USER: genes 5 Torsion [N]-CA--CB-[CG] |==|  0.22387
USER: genes 6 Torsion [CA]-CB--CG-[CD2] |==|  0.80514
USER: genes 7 Torsion [C]-CA--CB-[CG] |==|  0.42992
USER: genes 8 Torsion [CA]-CB--CG-[CD1] |==|  0.14141
USER: genes 9 Torsion [C]-CA--N-[C] |==|  0.17061
USER: genes 10 Torsion [N]-C--CA-[N] |==|  0.37681
USER: genes 11 Torsion [C]-CA--N-[H2] |==|  0.84731
USER: genes 12 Torsion [C]-CA--CB-[OG] |==|  0.50165
USER: genes 13 Torsion [CA]-CB--OG-[HG] |==|  0.45979
ROOT
ATOM      1  CA  PHE C   1     108.880 174.642  53.514  1.00 43.43 LIG 0.18  C 
ENDROOT
BRANCH 1 2
ATOM      2  C   PHE C   1     107.865 173.645  52.977  1.00 43.95 LIG 0.24  C 
ATOM      3 O    PHE C   1     107.857 173.368  51.773  1.00 42.64 LIG-0.27  OA
ATOM      4  N   LEU C   2     107.011 173.103  53.837  1.00 45.78 LIG-0.35  N 
ATOM      5 H    LEU C   2     107.066 173.186  54.692  1.00 45.78 LIG 0.16  HD
BRANCH 4 6
ATOM      6  CA  LEU C   2     105.889 172.306  53.379  1.00 46.28 LIG 0.16  C 
BRANCH 6 7
ATOM      7  C   LEU C   2     104.683 173.224  53.216  1.00 47.91 LIG 0.22  C 
ATOM      8 O    LEU C   2     104.137 173.361  52.120  1.00 50.38 LIG-0.29  OA
ENDBRANCH 6 7
BRANCH 6 9
ATOM      9  CB  LEU C   2     105.588 171.183  54.373  1.00 44.46 LIG 0.04  C 
BRANCH 9 10
ATOM     10  CG  LEU C   2     104.772 171.591  55.599  1.00 41.86 LIG-0.02  C 
ATOM     11  CD2 LEU C   2     105.604 172.468  56.520  1.00 43.32 LIG 0.01  C 
ATOM     12  CD1 LEU C   2     104.269 170.361  56.335  1.00 39.91 LIG 0.01  C 
ENDBRANCH 9 10
ENDBRANCH 6 9
ENDBRANCH 4 6
ENDBRANCH 1 2
BRANCH 1 13
ATOM     13  CB  PHE C   1     109.135 174.445  55.010  1.00 40.74 LIG 0.07  C 
BRANCH 13 14
ATOM     14  CG  PHE C   1     110.479 174.938  55.441  1.00 40.58 LIG-0.06  A 
ATOM     15  CD1 PHE C   1     110.899 176.215  55.109  1.00 41.26 LIG 0.01  A 
ATOM     16  CE1 PHE C   1     112.142 176.667  55.484  1.00 41.59 LIG 0.00  A 
ATOM     17  CZ  PHE C   1     112.988 175.839  56.192  1.00 39.95 LIG 0.00  A 
ATOM     18  CE2 PHE C   1     112.588 174.557  56.517  1.00 40.65 LIG 0.00  A 
ATOM     19  CD2 PHE C   1     111.343 174.110  56.138  1.00 39.59 LIG 0.01  A 
ENDBRANCH 13 14
ENDBRANCH 1 13
BRANCH 1 20
ATOM     20  N   PHE C   1     108.525 176.027  53.234  1.00 44.33 LIG-0.35  N 
ATOM     21 H    PHE C   1     109.097 176.443  52.746  1.00 44.33 LIG 0.16  HD
ATOM     22  C   SER C   0     107.408 176.586  53.698  1.00 45.23 LIG 0.25  C 
ATOM     23 O    SER C   0     106.624 176.003  54.450  1.00 45.89 LIG-0.27  OA
BRANCH 22 24
ATOM     24  CA  SER C   0     107.139 178.017  53.248  1.00 46.83 LIG 0.30  C 
BRANCH 24 25
ATOM     25  N   SER C   0     105.744 178.193  52.855  1.00 48.27 LIG-0.06  N 
ATOM     26 H2   SER C   0     105.533 177.593  52.232  1.00 48.27 LIG 0.28  HD
ATOM     27 H1   SER C   0     105.629 179.013  52.528  1.00 48.27 LIG 0.28  HD
ATOM     28 H3   SER C   0     105.220 178.081  53.565  1.00 48.27 LIG 0.28  HD
ENDBRANCH 24 25
BRANCH 24 29
ATOM     29  CB  SER C   0     107.514 178.993  54.367  1.00 47.94 LIG 0.21  C 
BRANCH 29 30
ATOM     30 OG   SER C   0     107.263 180.333  53.984  1.00 49.79 LIG-0.40  OA
ATOM     31 HG   SER C   0     107.284 180.827  54.663  1.00 49.79 LIG 0.21  HD
ENDBRANCH 29 30
ENDBRANCH 24 29
ENDBRANCH 22 24
ENDBRANCH 1 20
TORSDOF 12
ENDMDL
MODEL 64
USER: ADFR SOLUTION from run 37
USER: SCORE 9.385312 LL:  -1.867 LR:  -7.625 RR:   0.000 FEB:  -4.046
USER: RMSD 8.181298
USER: SEED 36
USER: STATUS no improvement in best in 20 clusters for 5 generations
USER: GENES 14
USER: genes 0 Translation |==|  0.67184 0.65058 0.37311
USER: genes 1 Rotation |==|  0.70070 0.10868 0.26380 0.52827
USER: genes 2 Torsion [N]-CA--C-[N] |==|  0.43549
USER: genes 3 Torsion [C]-N--CA-[C] |==|  0.77395
USER: genes 4 Torsion [N]-CA--C-[O] |==|  0.73530
USER: genes 5 Torsion [N]-CA--CB-[CG] |==|  0.49106
USER: genes 6 Torsion [CA]-CB--CG-[CD2] |==|  0.67874
USER: genes 7 Torsion [C]-CA--CB-[CG] |==|  0.29017
USER: genes 8 Torsion [CA]-CB--CG-[CD1] |==|  0.33669
USER: genes 9 Torsion [C]-CA--N-[C] |==|  0.60235
USER: genes 10 Torsion [N]-C--CA-[N] |==|  0.89524
USER: genes 11 Torsion [C]-CA--N-[H2] |==|  0.65056
USER: genes 12 Torsion [C]-CA--CB-[OG] |==|  0.44483
USER: genes 13 Torsion [CA]-CB--OG-[HG] |==|  0.45067
ROOT
ATOM      1  CA  PHE C   1     112.560 175.882  57.515  1.00 43.43 LIG 0.18  C 
ENDROOT
BRANCH 1 2
ATOM      2  C   PHE C   1     113.990 176.136  57.968  1.00 43.95 LIG 0.24  C 
ATOM      3 O    PHE C   1     114.757 176.776  57.242  1.00 42.64 LIG-0.27  OA
ATOM      4  N   LEU C   2     114.364 175.651  59.146  1.00 45.78 LIG-0.35  N 
ATOM      5 H    LEU C   2     113.825 175.305  59.721  1.00 45.78 LIG 0.16  HD
BRANCH 4 6
ATOM      6  CA  LEU C   2     115.755 175.672  59.558  1.00 46.28 LIG 0.16  C 
BRANCH 6 7
ATOM      7  C   LEU C   2     116.464 174.486  58.914  1.00 47.91 LIG 0.22  C 
ATOM      8 O    LEU C   2     116.602 173.426  59.526  1.00 50.38 LIG-0.29  OA
ENDBRANCH 6 7
BRANCH 6 9
ATOM      9  CB  LEU C   2     115.862 175.608  61.082  1.00 44.46 LIG 0.04  C 
BRANCH 9 10
ATOM     10  CG  LEU C   2     117.284 175.546  61.640  1.00 41.86 LIG-0.02  C 
ATOM     11  CD2 LEU C   2     117.515 174.226  62.355  1.00 43.32 LIG 0.01  C 
ATOM     12  CD1 LEU C   2     117.540 176.717  62.573  1.00 39.91 LIG 0.01  C 
ENDBRANCH 9 10
ENDBRANCH 6 9
ENDBRANCH 4 6
ENDBRANCH 1 2
BRANCH 1 13
ATOM     13  CB  PHE C   1     112.373 174.457  56.991  1.00 40.74 LIG 0.07  C 
BRANCH 13 14
ATOM     14  CG  PHE C   1     111.655 173.571  57.956  1.00 40.58 LIG-0.06  A 
ATOM     15  CD1 PHE C   1     110.469 172.954  57.596  1.00 41.26 LIG 0.01  A 
ATOM     16  CE1 PHE C   1     109.793 172.154  58.487  1.00 41.59 LIG 0.00  A 
ATOM     17  CZ  PHE C   1     110.292 171.969  59.759  1.00 39.95 LIG 0.00  A 
ATOM     18  CE2 PHE C   1     111.467 172.591  60.138  1.00 40.65 LIG 0.00  A 
ATOM     19  CD2 PHE C   1     112.139 173.390  59.242  1.00 39.59 LIG 0.01  A 
ENDBRANCH 13 14
ENDBRANCH 1 13
BRANCH 1 20
ATOM     20  N   PHE C   1     112.090 176.853  56.536  1.00 44.33 LIG-0.35  N 
ATOM     21 H    PHE C   1     112.692 177.105  55.976  1.00 44.33 LIG 0.16  HD
ATOM     22  C   SER C   0     110.836 177.304  56.521  1.00 45.23 LIG 0.25  C 
ATOM     23 O    SER C   0     109.996 176.987  57.366  1.00 45.89 LIG-0.27  OA
BRANCH 22 24
ATOM     24  CA  SER C   0     110.479 178.253  55.384  1.00 46.83 LIG 0.30  C 
BRANCH 24 25
ATOM     25  N   SER C   0     111.588 179.154  55.082  1.00 48.27 LIG-0.06  N 
ATOM     26 H2   SER C   0     111.304 179.997  55.118  1.00 48.27 LIG 0.28  HD
ATOM     27 H1   SER C   0     111.898 178.980  54.266  1.00 48.27 LIG 0.28  HD
ATOM     28 H3   SER C   0     112.239 179.034  55.677  1.00 48.27 LIG 0.28  HD
ENDBRANCH 24 25
BRANCH 24 29
ATOM     29  CB  SER C   0     110.079 177.451  54.143  1.00 47.94 LIG 0.21  C 
BRANCH 29 30
ATOM     30 OG   SER C   0     109.326 178.242  53.242  1.00 49.79 LIG-0.40  OA
ATOM     31 HG   SER C   0     109.325 177.880  52.484  1.00 49.79 LIG 0.21  HD
ENDBRANCH 29 30
ENDBRANCH 24 29
ENDBRANCH 22 24
ENDBRANCH 1 20
TORSDOF 12
ENDMDL
MODEL 65
USER: ADFR SOLUTION from run 149
USER: SCORE 10.113461 LL:  -2.553 LR:  -7.566 RR:   0.000 FEB:  -3.987
USER: RMSD 5.967486
USER: SEED 148
USER: STATUS no improvement in best in 18 clusters for 5 generations
USER: GENES 14
USER: genes 0 Translation |==|  0.58606 0.81705 0.24198
USER: genes 1 Rotation |==|  0.23615 0.23445 0.57863 0.82200
USER: genes 2 Torsion [N]-CA--C-[N] |==|  0.94212
USER: genes 3 Torsion [C]-N--CA-[C] |==|  0.19898
USER: genes 4 Torsion [N]-CA--C-[O] |==|  0.77230
USER: genes 5 Torsion [N]-CA--CB-[CG] |==|  0.75026
USER: genes 6 Torsion [CA]-CB--CG-[CD2] |==|  0.00534
USER: genes 7 Torsion [C]-CA--CB-[CG] |==|  0.03169
USER: genes 8 Torsion [CA]-CB--CG-[CD1] |==|  0.75260
USER: genes 9 Torsion [C]-CA--N-[C] |==|  0.82390
USER: genes 10 Torsion [N]-C--CA-[N] |==|  0.48754
USER: genes 11 Torsion [C]-CA--N-[H2] |==|  0.79017
USER: genes 12 Torsion [C]-CA--CB-[OG] |==|  0.64665
USER: genes 13 Torsion [CA]-CB--OG-[HG] |==|  0.50598
ROOT
ATOM      1  CA  PHE C   1     110.952 178.254  55.352  1.00 43.43 LIG 0.18  C 
ENDROOT
BRANCH 1 2
ATOM      2  C   PHE C   1     110.946 176.749  55.131  1.00 43.95 LIG 0.24  C 
ATOM      3 O    PHE C   1     111.961 176.188  54.707  1.00 42.64 LIG-0.27  OA
ATOM      4  N   LEU C   2     109.829 176.085  55.408  1.00 45.78 LIG-0.35  N 
ATOM      5 H    LEU C   2     109.150 176.426  55.811  1.00 45.78 LIG 0.16  HD
BRANCH 4 6
ATOM      6  CA  LEU C   2     109.675 174.692  55.036  1.00 46.28 LIG 0.16  C 
BRANCH 6 7
ATOM      7  C   LEU C   2     110.568 173.851  55.941  1.00 47.91 LIG 0.22  C 
ATOM      8 O    LEU C   2     111.769 173.722  55.699  1.00 50.38 LIG-0.29  OA
ENDBRANCH 6 7
BRANCH 6 9
ATOM      9  CB  LEU C   2     110.043 174.486  53.566  1.00 44.46 LIG 0.04  C 
BRANCH 9 10
ATOM     10  CG  LEU C   2     108.893 174.642  52.571  1.00 41.86 LIG-0.02  C 
ATOM     11  CD2 LEU C   2     107.614 175.023  53.296  1.00 43.32 LIG 0.01  C 
ATOM     12  CD1 LEU C   2     108.701 173.361  51.777  1.00 39.91 LIG 0.01  C 
ENDBRANCH 9 10
ENDBRANCH 6 9
ENDBRANCH 4 6
ENDBRANCH 1 2
BRANCH 1 13
ATOM     13  CB  PHE C   1     111.729 178.643  56.610  1.00 40.74 LIG 0.07  C 
BRANCH 13 14
ATOM     14  CG  PHE C   1     112.523 177.510  57.177  1.00 40.58 LIG-0.06  A 
ATOM     15  CD1 PHE C   1     111.959 176.650  58.103  1.00 41.26 LIG 0.01  A 
ATOM     16  CE1 PHE C   1     112.691 175.619  58.644  1.00 41.59 LIG 0.00  A 
ATOM     17  CZ  PHE C   1     114.006 175.442  58.271  1.00 39.95 LIG 0.00  A 
ATOM     18  CE2 PHE C   1     114.588 176.303  57.359  1.00 40.65 LIG 0.00  A 
ATOM     19  CD2 PHE C   1     113.850 177.332  56.821  1.00 39.59 LIG 0.01  A 
ENDBRANCH 13 14
ENDBRANCH 1 13
BRANCH 1 20
ATOM     20  N   PHE C   1     109.614 178.832  55.378  1.00 44.33 LIG-0.35  N 
ATOM     21 H    PHE C   1     109.402 179.189  56.131  1.00 44.33 LIG 0.16  HD
ATOM     22  C   SER C   0     108.803 178.805  54.321  1.00 45.23 LIG 0.25  C 
ATOM     23 O    SER C   0     109.089 178.236  53.266  1.00 45.89 LIG-0.27  OA
BRANCH 22 24
ATOM     24  CA  SER C   0     107.469 179.525  54.483  1.00 46.83 LIG 0.30  C 
BRANCH 24 25
ATOM     25  N   SER C   0     106.713 179.519  53.234  1.00 48.27 LIG-0.06  N 
ATOM     26 H2   SER C   0     107.065 180.112  52.671  1.00 48.27 LIG 0.28  HD
ATOM     27 H1   SER C   0     105.866 179.736  53.399  1.00 48.27 LIG 0.28  HD
ATOM     28 H3   SER C   0     106.746 178.708  52.871  1.00 48.27 LIG 0.28  HD
ENDBRANCH 24 25
BRANCH 24 29
ATOM     29  CB  SER C   0     106.661 178.875  55.609  1.00 47.94 LIG 0.21  C 
BRANCH 29 30
ATOM     30 OG   SER C   0     105.361 178.524  55.170  1.00 49.79 LIG-0.40  OA
ATOM     31 HG   SER C   0     104.928 178.197  55.810  1.00 49.79 LIG 0.21  HD
ENDBRANCH 29 30
ENDBRANCH 24 29
ENDBRANCH 22 24
ENDBRANCH 1 20
TORSDOF 12
ENDMDL
MODEL 66
USER: ADFR SOLUTION from run 166
USER: SCORE 9.498973 LL:  -2.384 LR:  -7.563 RR:   0.000 FEB:  -3.984
USER: RMSD 6.487996
USER: SEED 165
USER: STATUS no improvement in best in 11 clusters for 5 generations
USER: GENES 14
USER: genes 0 Translation |==|  0.54044 0.62734 0.32340
USER: genes 1 Rotation |==|  0.97259 0.49684 0.35534 0.57563
USER: genes 2 Torsion [N]-CA--C-[N] |==|  0.49312
USER: genes 3 Torsion [C]-N--CA-[C] |==|  0.74473
USER: genes 4 Torsion [N]-CA--C-[O] |==|  0.59202
USER: genes 5 Torsion [N]-CA--CB-[CG] |==|  0.12621
USER: genes 6 Torsion [CA]-CB--CG-[CD2] |==|  0.75398
USER: genes 7 Torsion [C]-CA--CB-[CG] |==|  0.87181
USER: genes 8 Torsion [CA]-CB--CG-[CD1] |==|  0.78430
USER: genes 9 Torsion [C]-CA--N-[C] |==|  0.51111
USER: genes 10 Torsion [N]-C--CA-[N] |==|  0.38184
USER: genes 11 Torsion [C]-CA--N-[H2] |==|  0.06118
USER: genes 12 Torsion [C]-CA--CB-[OG] |==|  0.65724
USER: genes 13 Torsion [CA]-CB--OG-[HG] |==|  0.39369
ROOT
ATOM      1  CA  PHE C   1     110.096 175.551  56.695  1.00 43.43 LIG 0.18  C 
ENDROOT
BRANCH 1 2
ATOM      2  C   PHE C   1     109.418 176.275  57.849  1.00 43.95 LIG 0.24  C 
ATOM      3 O    PHE C   1     108.273 176.715  57.707  1.00 42.64 LIG-0.27  OA
ATOM      4  N   LEU C   2     110.097 176.408  58.983  1.00 45.78 LIG-0.35  N 
ATOM      5 H    LEU C   2     110.843 176.015  59.149  1.00 45.78 LIG 0.16  HD
BRANCH 4 6
ATOM      6  CA  LEU C   2     109.607 177.256  60.053  1.00 46.28 LIG 0.16  C 
BRANCH 6 7
ATOM      7  C   LEU C   2     110.201 178.648  59.872  1.00 47.91 LIG 0.22  C 
ATOM      8 O    LEU C   2     110.470 179.350  60.848  1.00 50.38 LIG-0.29  OA
ENDBRANCH 6 7
BRANCH 6 9
ATOM      9  CB  LEU C   2     109.991 176.673  61.414  1.00 44.46 LIG 0.04  C 
BRANCH 9 10
ATOM     10  CG  LEU C   2     111.436 176.190  61.540  1.00 41.86 LIG-0.02  C 
ATOM     11  CD2 LEU C   2     111.548 174.738  61.107  1.00 43.32 LIG 0.01  C 
ATOM     12  CD1 LEU C   2     111.932 176.367  62.965  1.00 39.91 LIG 0.01  C 
ENDBRANCH 9 10
ENDBRANCH 6 9
ENDBRANCH 4 6
ENDBRANCH 1 2
BRANCH 1 13
ATOM     13  CB  PHE C   1     111.425 176.205  56.314  1.00 40.74 LIG 0.07  C 
BRANCH 13 14
ATOM     14  CG  PHE C   1     111.332 177.693  56.206  1.00 40.58 LIG-0.06  A 
ATOM     15  CD1 PHE C   1     110.766 178.283  55.090  1.00 41.26 LIG 0.01  A 
ATOM     16  CE1 PHE C   1     110.697 179.652  54.975  1.00 41.59 LIG 0.00  A 
ATOM     17  CZ  PHE C   1     111.205 180.450  55.978  1.00 39.95 LIG 0.00  A 
ATOM     18  CE2 PHE C   1     111.787 179.875  57.092  1.00 40.65 LIG 0.00  A 
ATOM     19  CD2 PHE C   1     111.854 178.505  57.200  1.00 39.59 LIG 0.01  A 
ENDBRANCH 13 14
ENDBRANCH 1 13
BRANCH 1 20
ATOM     20  N   PHE C   1     109.239 175.414  55.525  1.00 44.33 LIG-0.35  N 
ATOM     21 H    PHE C   1     108.476 175.803  55.602  1.00 44.33 LIG 0.16  HD
ATOM     22  C   SER C   0     109.616 174.743  54.437  1.00 45.23 LIG 0.25  C 
ATOM     23 O    SER C   0     110.685 174.133  54.358  1.00 45.89 LIG-0.27  OA
BRANCH 22 24
ATOM     24  CA  SER C   0     108.639 174.761  53.267  1.00 46.83 LIG 0.30  C 
BRANCH 24 25
ATOM     25  N   SER C   0     109.338 174.958  52.001  1.00 48.27 LIG-0.06  N 
ATOM     26 H2   SER C   0     110.190 174.717  52.091  1.00 48.27 LIG 0.28  HD
ATOM     27 H1   SER C   0     109.296 175.816  51.768  1.00 48.27 LIG 0.28  HD
ATOM     28 H3   SER C   0     108.954 174.461  51.370  1.00 48.27 LIG 0.28  HD
ENDBRANCH 24 25
BRANCH 24 29
ATOM     29  CB  SER C   0     107.832 173.460  53.244  1.00 47.94 LIG 0.21  C 
BRANCH 29 30
ATOM     30 OG   SER C   0     107.969 172.794  52.002  1.00 49.79 LIG-0.40  OA
ATOM     31 HG   SER C   0     108.009 171.965  52.132  1.00 49.79 LIG 0.21  HD
ENDBRANCH 29 30
ENDBRANCH 24 29
ENDBRANCH 22 24
ENDBRANCH 1 20
TORSDOF 12
ENDMDL
MODEL 67
USER: ADFR SOLUTION from run 51
USER: SCORE 8.764856 LL:  -2.132 LR:  -7.563 RR:   0.000 FEB:  -3.983
USER: RMSD 4.535030
USER: SEED 50
USER: STATUS no improvement in best in 15 clusters for 5 generations
USER: GENES 14
USER: genes 0 Translation |==|  0.63530 0.75575 0.38135
USER: genes 1 Rotation |==|  0.46284 0.44991 0.32132 0.96280
USER: genes 2 Torsion [N]-CA--C-[N] |==|  0.45280
USER: genes 3 Torsion [C]-N--CA-[C] |==|  0.17556
USER: genes 4 Torsion [N]-CA--C-[O] |==|  0.54199
USER: genes 5 Torsion [N]-CA--CB-[CG] |==|  0.83923
USER: genes 6 Torsion [CA]-CB--CG-[CD2] |==|  0.62857
USER: genes 7 Torsion [C]-CA--CB-[CG] |==|  0.50918
USER: genes 8 Torsion [CA]-CB--CG-[CD1] |==|  0.77636
USER: genes 9 Torsion [C]-CA--N-[C] |==|  0.19001
USER: genes 10 Torsion [N]-C--CA-[N] |==|  0.83907
USER: genes 11 Torsion [C]-CA--N-[H2] |==|  0.23005
USER: genes 12 Torsion [C]-CA--CB-[OG] |==|  0.77121
USER: genes 13 Torsion [CA]-CB--OG-[HG] |==|  0.58743
ROOT
ATOM      1  CA  PHE C   1     111.875 177.380  57.651  1.00 43.43 LIG 0.18  C 
ENDROOT
BRANCH 1 2
ATOM      2  C   PHE C   1     110.780 177.744  56.659  1.00 43.95 LIG 0.24  C 
ATOM      3 O    PHE C   1     109.606 177.803  57.038  1.00 42.64 LIG-0.27  OA
ATOM      4  N   LEU C   2     111.136 177.988  55.403  1.00 45.78 LIG-0.35  N 
ATOM      5 H    LEU C   2     111.950 178.068  55.138  1.00 45.78 LIG 0.16  HD
BRANCH 4 6
ATOM      6  CA  LEU C   2     110.141 178.140  54.359  1.00 46.28 LIG 0.16  C 
BRANCH 6 7
ATOM      7  C   LEU C   2     109.289 179.361  54.682  1.00 47.91 LIG 0.22  C 
ATOM      8 O    LEU C   2     108.213 179.549  54.112  1.00 50.38 LIG-0.29  OA
ENDBRANCH 6 7
BRANCH 6 9
ATOM      9  CB  LEU C   2     109.275 176.883  54.258  1.00 44.46 LIG 0.04  C 
BRANCH 9 10
ATOM     10  CG  LEU C   2     110.031 175.583  53.983  1.00 41.86 LIG-0.02  C 
ATOM     11  CD2 LEU C   2     109.338 174.790  52.888  1.00 43.32 LIG 0.01  C 
ATOM     12  CD1 LEU C   2     110.147 174.759  55.254  1.00 39.91 LIG 0.01  C 
ENDBRANCH 9 10
ENDBRANCH 6 9
ENDBRANCH 4 6
ENDBRANCH 1 2
BRANCH 1 13
ATOM     13  CB  PHE C   1     112.432 175.979  57.396  1.00 40.74 LIG 0.07  C 
BRANCH 13 14
ATOM     14  CG  PHE C   1     113.454 175.566  58.406  1.00 40.58 LIG-0.06  A 
ATOM     15  CD1 PHE C   1     114.763 176.005  58.301  1.00 41.26 LIG 0.01  A 
ATOM     16  CE1 PHE C   1     115.713 175.611  59.214  1.00 41.59 LIG 0.00  A 
ATOM     17  CZ  PHE C   1     115.364 174.762  60.243  1.00 39.95 LIG 0.00  A 
ATOM     18  CE2 PHE C   1     114.065 174.304  60.352  1.00 40.65 LIG 0.00  A 
ATOM     19  CD2 PHE C   1     113.120 174.701  59.434  1.00 39.59 LIG 0.01  A 
ENDBRANCH 13 14
ENDBRANCH 1 13
BRANCH 1 20
ATOM     20  N   PHE C   1     111.456 177.519  59.040  1.00 44.33 LIG-0.35  N 
ATOM     21 H    PHE C   1     111.847 178.159  59.461  1.00 44.33 LIG 0.16  HD
ATOM     22  C   SER C   0     110.547 176.720  59.596  1.00 45.23 LIG 0.25  C 
ATOM     23 O    SER C   0     110.038 175.765  59.006  1.00 45.89 LIG-0.27  OA
BRANCH 22 24
ATOM     24  CA  SER C   0     110.157 177.047  61.033  1.00 46.83 LIG 0.30  C 
BRANCH 24 25
ATOM     25  N   SER C   0     111.322 177.029  61.912  1.00 48.27 LIG-0.06  N 
ATOM     26 H2   SER C   0     111.745 177.810  61.859  1.00 48.27 LIG 0.28  HD
ATOM     27 H1   SER C   0     111.873 176.376  61.662  1.00 48.27 LIG 0.28  HD
ATOM     28 H3   SER C   0     111.059 176.890  62.751  1.00 48.27 LIG 0.28  HD
ENDBRANCH 24 25
BRANCH 24 29
ATOM     29  CB  SER C   0     109.459 178.409  61.084  1.00 47.94 LIG 0.21  C 
BRANCH 29 30
ATOM     30 OG   SER C   0     110.401 179.467  61.109  1.00 49.79 LIG-0.40  OA
ATOM     31 HG   SER C   0     110.088 180.111  61.547  1.00 49.79 LIG 0.21  HD
ENDBRANCH 29 30
ENDBRANCH 24 29
ENDBRANCH 22 24
ENDBRANCH 1 20
TORSDOF 12
ENDMDL
MODEL 68
USER: ADFR SOLUTION from run 78
USER: SCORE 9.750009 LL:  -2.262 LR:  -7.553 RR:   0.000 FEB:  -3.974
USER: RMSD 7.394331
USER: SEED 77
USER: STATUS no improvement in best in 25 clusters for 5 generations
USER: GENES 14
USER: genes 0 Translation |==|  0.49590 0.56591 0.31973
USER: genes 1 Rotation |==|  0.40717 0.90492 0.77410 0.54788
USER: genes 2 Torsion [N]-CA--C-[N] |==|  0.12001
USER: genes 3 Torsion [C]-N--CA-[C] |==|  0.70928
USER: genes 4 Torsion [N]-CA--C-[O] |==|  0.73489
USER: genes 5 Torsion [N]-CA--CB-[CG] |==|  0.05019
USER: genes 6 Torsion [CA]-CB--CG-[CD2] |==|  0.75683
USER: genes 7 Torsion [C]-CA--CB-[CG] |==|  0.61387
USER: genes 8 Torsion [CA]-CB--CG-[CD1] |==|  0.32003
USER: genes 9 Torsion [C]-CA--N-[C] |==|  0.13928
USER: genes 10 Torsion [N]-C--CA-[N] |==|  0.76391
USER: genes 11 Torsion [C]-CA--N-[H2] |==|  0.57106
USER: genes 12 Torsion [C]-CA--CB-[OG] |==|  0.25785
USER: genes 13 Torsion [CA]-CB--OG-[HG] |==|  0.11340
ROOT
ATOM      1  CA  PHE C   1     109.261 174.675  56.635  1.00 43.43 LIG 0.18  C 
ENDROOT
BRANCH 1 2
ATOM      2  C   PHE C   1     110.617 174.105  57.022  1.00 43.95 LIG 0.24  C 
ATOM      3 O    PHE C   1     110.827 172.893  56.907  1.00 42.64 LIG-0.27  OA
ATOM      4  N   LEU C   2     111.538 174.946  57.477  1.00 45.78 LIG-0.35  N 
ATOM      5 H    LEU C   2     111.462 175.803  57.459  1.00 45.78 LIG 0.16  HD
BRANCH 4 6
ATOM      6  CA  LEU C   2     112.776 174.461  58.056  1.00 46.28 LIG 0.16  C 
BRANCH 6 7
ATOM      7  C   LEU C   2     112.693 174.619  59.570  1.00 47.91 LIG 0.22  C 
ATOM      8 O    LEU C   2     113.165 175.611  60.127  1.00 50.38 LIG-0.29  OA
ENDBRANCH 6 7
BRANCH 6 9
ATOM      9  CB  LEU C   2     113.969 175.235  57.493  1.00 44.46 LIG 0.04  C 
BRANCH 9 10
ATOM     10  CG  LEU C   2     113.634 176.570  56.829  1.00 41.86 LIG-0.02  C 
ATOM     11  CD2 LEU C   2     113.299 176.361  55.361  1.00 43.32 LIG 0.01  C 
ATOM     12  CD1 LEU C   2     114.788 177.545  56.984  1.00 39.91 LIG 0.01  C 
ENDBRANCH 9 10
ENDBRANCH 6 9
ENDBRANCH 4 6
ENDBRANCH 1 2
BRANCH 1 13
ATOM     13  CB  PHE C   1     108.408 173.654  55.880  1.00 40.74 LIG 0.07  C 
BRANCH 13 14
ATOM     14  CG  PHE C   1     107.664 174.254  54.731  1.00 40.58 LIG-0.06  A 
ATOM     15  CD1 PHE C   1     107.945 173.867  53.432  1.00 41.26 LIG 0.01  A 
ATOM     16  CE1 PHE C   1     107.279 174.430  52.369  1.00 41.59 LIG 0.00  A 
ATOM     17  CZ  PHE C   1     106.324 175.400  52.594  1.00 39.95 LIG 0.00  A 
ATOM     18  CE2 PHE C   1     106.043 175.807  53.884  1.00 40.65 LIG 0.00  A 
ATOM     19  CD2 PHE C   1     106.714 175.240  54.943  1.00 39.59 LIG 0.01  A 
ENDBRANCH 13 14
ENDBRANCH 1 13
BRANCH 1 20
ATOM     20  N   PHE C   1     109.359 175.918  55.880  1.00 44.33 LIG-0.35  N 
ATOM     21 H    PHE C   1     108.866 176.552  56.185  1.00 44.33 LIG 0.16  HD
ATOM     22  C   SER C   0     110.147 176.047  54.813  1.00 45.23 LIG 0.25  C 
ATOM     23 O    SER C   0     110.803 175.114  54.343  1.00 45.89 LIG-0.27  OA
BRANCH 22 24
ATOM     24  CA  SER C   0     110.201 177.433  54.184  1.00 46.83 LIG 0.30  C 
BRANCH 24 25
ATOM     25  N   SER C   0     109.104 177.627  53.240  1.00 48.27 LIG-0.06  N 
ATOM     26 H2   SER C   0     109.337 178.236  52.635  1.00 48.27 LIG 0.28  HD
ATOM     27 H1   SER C   0     108.381 177.905  53.678  1.00 48.27 LIG 0.28  HD
ATOM     28 H3   SER C   0     108.924 176.856  52.832  1.00 48.27 LIG 0.28  HD
ENDBRANCH 24 25
BRANCH 24 29
ATOM     29  CB  SER C   0     110.168 178.503  55.279  1.00 47.94 LIG 0.21  C 
BRANCH 29 30
ATOM     30 OG   SER C   0     111.477 178.885  55.662  1.00 49.79 LIG-0.40  OA
ATOM     31 HG   SER C   0     111.963 178.944  54.980  1.00 49.79 LIG 0.21  HD
ENDBRANCH 29 30
ENDBRANCH 24 29
ENDBRANCH 22 24
ENDBRANCH 1 20
TORSDOF 12
ENDMDL
MODEL 69
USER: ADFR SOLUTION from run 35
USER: SCORE 9.209136 LL:  -2.062 LR:  -7.550 RR:   0.000 FEB:  -3.970
USER: RMSD 7.467588
USER: SEED 34
USER: STATUS no improvement in best in 26 clusters for 5 generations
USER: GENES 14
USER: genes 0 Translation |==|  0.54620 0.59118 0.22561
USER: genes 1 Rotation |==|  0.32088 0.81541 0.80699 0.65554
USER: genes 2 Torsion [N]-CA--C-[N] |==|  0.15584
USER: genes 3 Torsion [C]-N--CA-[C] |==|  0.71113
USER: genes 4 Torsion [N]-CA--C-[O] |==|  0.96243
USER: genes 5 Torsion [N]-CA--CB-[CG] |==|  0.75619
USER: genes 6 Torsion [CA]-CB--CG-[CD2] |==|  0.61473
USER: genes 7 Torsion [C]-CA--CB-[CG] |==|  0.41458
USER: genes 8 Torsion [CA]-CB--CG-[CD1] |==|  0.56808
USER: genes 9 Torsion [C]-CA--N-[C] |==|  0.78037
USER: genes 10 Torsion [N]-C--CA-[N] |==|  0.86024
USER: genes 11 Torsion [C]-CA--N-[H2] |==|  0.88547
USER: genes 12 Torsion [C]-CA--CB-[OG] |==|  0.82026
USER: genes 13 Torsion [CA]-CB--OG-[HG] |==|  0.25082
ROOT
ATOM      1  CA  PHE C   1     110.204 175.035  55.082  1.00 43.43 LIG 0.18  C 
ENDROOT
BRANCH 1 2
ATOM      2  C   PHE C   1     111.275 174.390  55.948  1.00 43.95 LIG 0.24  C 
ATOM      3 O    PHE C   1     111.933 173.443  55.505  1.00 42.64 LIG-0.27  OA
ATOM      4  N   LEU C   2     111.463 174.878  57.169  1.00 45.78 LIG-0.35  N 
ATOM      5 H    LEU C   2     111.105 175.603  57.461  1.00 45.78 LIG 0.16  HD
BRANCH 4 6
ATOM      6  CA  LEU C   2     112.314 174.196  58.125  1.00 46.28 LIG 0.16  C 
BRANCH 6 7
ATOM      7  C   LEU C   2     111.425 173.489  59.140  1.00 47.91 LIG 0.22  C 
ATOM      8 O    LEU C   2     110.223 173.749  59.216  1.00 50.38 LIG-0.29  OA
ENDBRANCH 6 7
BRANCH 6 9
ATOM      9  CB  LEU C   2     113.245 175.192  58.819  1.00 44.46 LIG 0.04  C 
BRANCH 9 10
ATOM     10  CG  LEU C   2     114.570 175.462  58.105  1.00 41.86 LIG-0.02  C 
ATOM     11  CD2 LEU C   2     115.707 175.533  59.111  1.00 43.32 LIG 0.01  C 
ATOM     12  CD1 LEU C   2     114.485 176.745  57.297  1.00 39.91 LIG 0.01  C 
ENDBRANCH 9 10
ENDBRANCH 6 9
ENDBRANCH 4 6
ENDBRANCH 1 2
BRANCH 1 13
ATOM     13  CB  PHE C   1     110.075 174.342  53.724  1.00 40.74 LIG 0.07  C 
BRANCH 13 14
ATOM     14  CG  PHE C   1     108.688 174.397  53.172  1.00 40.58 LIG-0.06  A 
ATOM     15  CD1 PHE C   1     108.254 173.446  52.264  1.00 41.26 LIG 0.01  A 
ATOM     16  CE1 PHE C   1     106.986 173.503  51.736  1.00 41.59 LIG 0.00  A 
ATOM     17  CZ  PHE C   1     106.135 174.524  52.105  1.00 39.95 LIG 0.00  A 
ATOM     18  CE2 PHE C   1     106.559 175.489  52.998  1.00 40.65 LIG 0.00  A 
ATOM     19  CD2 PHE C   1     107.829 175.426  53.523  1.00 39.59 LIG 0.01  A 
ENDBRANCH 13 14
ENDBRANCH 1 13
BRANCH 1 20
ATOM     20  N   PHE C   1     110.398 176.469  54.908  1.00 44.33 LIG-0.35  N 
ATOM     21 H    PHE C   1     110.749 176.685  54.153  1.00 44.33 LIG 0.16  HD
ATOM     22  C   SER C   0     110.057 177.356  55.842  1.00 45.23 LIG 0.25  C 
ATOM     23 O    SER C   0     109.614 177.034  56.946  1.00 45.89 LIG-0.27  OA
BRANCH 22 24
ATOM     24  CA  SER C   0     110.247 178.822  55.474  1.00 46.83 LIG 0.30  C 
BRANCH 24 25
ATOM     25  N   SER C   0     111.588 179.065  54.951  1.00 48.27 LIG-0.06  N 
ATOM     26 H2   SER C   0     112.182 178.608  55.432  1.00 48.27 LIG 0.28  HD
ATOM     27 H1   SER C   0     111.773 179.934  55.000  1.00 48.27 LIG 0.28  HD
ATOM     28 H3   SER C   0     111.627 178.801  54.102  1.00 48.27 LIG 0.28  HD
ENDBRANCH 24 25
BRANCH 24 29
ATOM     29  CB  SER C   0     109.183 179.245  54.457  1.00 47.94 LIG 0.21  C 
BRANCH 29 30
ATOM     30 OG   SER C   0     109.338 178.548  53.234  1.00 49.79 LIG-0.40  OA
ATOM     31 HG   SER C   0     108.885 177.841  53.255  1.00 49.79 LIG 0.21  HD
ENDBRANCH 29 30
ENDBRANCH 24 29
ENDBRANCH 22 24
ENDBRANCH 1 20
TORSDOF 12
ENDMDL
MODEL 70
USER: ADFR SOLUTION from run 99
USER: SCORE 9.898273 LL:  -2.414 LR:  -7.539 RR:   0.000 FEB:  -3.960
USER: RMSD 5.070808
USER: SEED 98
USER: STATUS no improvement in best in 13 clusters for 5 generations
USER: GENES 14
USER: genes 0 Translation |==|  0.64257 0.61404 0.31127
USER: genes 1 Rotation |==|  0.08022 0.28500 0.55262 0.65746
USER: genes 2 Torsion [N]-CA--C-[N] |==|  0.91508
USER: genes 3 Torsion [C]-N--CA-[C] |==|  0.57538
USER: genes 4 Torsion [N]-CA--C-[O] |==|  0.08965
USER: genes 5 Torsion [N]-CA--CB-[CG] |==|  0.79915
USER: genes 6 Torsion [CA]-CB--CG-[CD2] |==|  0.78993
USER: genes 7 Torsion [C]-CA--CB-[CG] |==|  0.16340
USER: genes 8 Torsion [CA]-CB--CG-[CD1] |==|  0.24558
USER: genes 9 Torsion [C]-CA--N-[C] |==|  0.85000
USER: genes 10 Torsion [N]-C--CA-[N] |==|  0.54761
USER: genes 11 Torsion [C]-CA--N-[H2] |==|  0.33210
USER: genes 12 Torsion [C]-CA--CB-[OG] |==|  0.40588
USER: genes 13 Torsion [CA]-CB--OG-[HG] |==|  0.04071
ROOT
ATOM      1  CA  PHE C   1     112.011 175.361  56.495  1.00 43.43 LIG 0.18  C 
ENDROOT
BRANCH 1 2
ATOM      2  C   PHE C   1     111.306 174.216  57.205  1.00 43.95 LIG 0.24  C 
ATOM      3 O    PHE C   1     111.954 173.229  57.569  1.00 42.64 LIG-0.27  OA
ATOM      4  N   LEU C   2     109.998 174.323  57.410  1.00 45.78 LIG-0.35  N 
ATOM      5 H    LEU C   2     109.544 175.041  57.274  1.00 45.78 LIG 0.16  HD
BRANCH 4 6
ATOM      6  CA  LEU C   2     109.220 173.198  57.892  1.00 46.28 LIG 0.16  C 
BRANCH 6 7
ATOM      7  C   LEU C   2     107.786 173.362  57.403  1.00 47.91 LIG 0.22  C 
ATOM      8 O    LEU C   2     107.545 173.903  56.323  1.00 50.38 LIG-0.29  OA
ENDBRANCH 6 7
BRANCH 6 9
ATOM      9  CB  LEU C   2     109.270 173.129  59.420  1.00 44.46 LIG 0.04  C 
BRANCH 9 10
ATOM     10  CG  LEU C   2     110.601 172.673  60.016  1.00 41.86 LIG-0.02  C 
ATOM     11  CD2 LEU C   2     110.768 171.172  59.851  1.00 43.32 LIG 0.01  C 
ATOM     12  CD1 LEU C   2     110.690 173.068  61.479  1.00 39.91 LIG 0.01  C 
ENDBRANCH 9 10
ENDBRANCH 6 9
ENDBRANCH 4 6
ENDBRANCH 1 2
BRANCH 1 13
ATOM     13  CB  PHE C   1     112.630 176.350  57.484  1.00 40.74 LIG 0.07  C 
BRANCH 13 14
ATOM     14  CG  PHE C   1     113.626 175.714  58.398  1.00 40.58 LIG-0.06  A 
ATOM     15  CD1 PHE C   1     114.958 175.623  58.033  1.00 41.26 LIG 0.01  A 
ATOM     16  CE1 PHE C   1     115.876 175.019  58.860  1.00 41.59 LIG 0.00  A 
ATOM     17  CZ  PHE C   1     115.467 174.488  60.065  1.00 39.95 LIG 0.00  A 
ATOM     18  CE2 PHE C   1     114.138 174.557  60.437  1.00 40.65 LIG 0.00  A 
ATOM     19  CD2 PHE C   1     113.225 175.162  59.604  1.00 39.59 LIG 0.01  A 
ENDBRANCH 13 14
ENDBRANCH 1 13
BRANCH 1 20
ATOM     20  N   PHE C   1     111.155 176.057  55.543  1.00 44.33 LIG-0.35  N 
ATOM     21 H    PHE C   1     111.112 176.907  55.668  1.00 44.33 LIG 0.16  HD
ATOM     22  C   SER C   0     110.501 175.421  54.572  1.00 45.23 LIG 0.25  C 
ATOM     23 O    SER C   0     110.516 174.196  54.439  1.00 45.89 LIG-0.27  OA
BRANCH 22 24
ATOM     24  CA  SER C   0     109.712 176.300  53.609  1.00 46.83 LIG 0.30  C 
BRANCH 24 25
ATOM     25  N   SER C   0     108.736 175.516  52.858  1.00 48.27 LIG-0.06  N 
ATOM     26 H2   SER C   0     107.917 175.821  53.027  1.00 48.27 LIG 0.28  HD
ATOM     27 H1   SER C   0     108.790 174.662  53.103  1.00 48.27 LIG 0.28  HD
ATOM     28 H3   SER C   0     108.905 175.586  51.988  1.00 48.27 LIG 0.28  HD
ENDBRANCH 24 25
BRANCH 24 29
ATOM     29  CB  SER C   0     109.023 177.428  54.382  1.00 47.94 LIG 0.21  C 
BRANCH 29 30
ATOM     30 OG   SER C   0     108.959 178.614  53.609  1.00 49.79 LIG-0.40  OA
ATOM     31 HG   SER C   0     109.126 178.435  52.806  1.00 49.79 LIG 0.21  HD
ENDBRANCH 29 30
ENDBRANCH 24 29
ENDBRANCH 22 24
ENDBRANCH 1 20
TORSDOF 12
ENDMDL
MODEL 71
USER: ADFR SOLUTION from run 142
USER: SCORE 9.114097 LL:  -2.285 LR:  -7.537 RR:   0.000 FEB:  -3.957
USER: RMSD 7.540087
USER: SEED 141
USER: STATUS no improvement in best in 15 clusters for 5 generations
USER: GENES 14
USER: genes 0 Translation |==|  0.61766 0.78485 0.26813
USER: genes 1 Rotation |==|  0.23571 0.22341 0.71423 0.74031
USER: genes 2 Torsion [N]-CA--C-[N] |==|  0.61257
USER: genes 3 Torsion [C]-N--CA-[C] |==|  0.80694
USER: genes 4 Torsion [N]-CA--C-[O] |==|  0.84715
USER: genes 5 Torsion [N]-CA--CB-[CG] |==|  0.41775
USER: genes 6 Torsion [CA]-CB--CG-[CD2] |==|  0.69638
USER: genes 7 Torsion [C]-CA--CB-[CG] |==|  0.73775
USER: genes 8 Torsion [CA]-CB--CG-[CD1] |==|  0.16177
USER: genes 9 Torsion [C]-CA--N-[C] |==|  0.66111
USER: genes 10 Torsion [N]-C--CA-[N] |==|  0.14439
USER: genes 11 Torsion [C]-CA--N-[H2] |==|  0.36821
USER: genes 12 Torsion [C]-CA--CB-[OG] |==|  0.74262
USER: genes 13 Torsion [CA]-CB--OG-[HG] |==|  0.55259
ROOT
ATOM      1  CA  PHE C   1     111.544 177.795  55.783  1.00 43.43 LIG 0.18  C 
ENDROOT
BRANCH 1 2
ATOM      2  C   PHE C   1     112.176 176.479  56.211  1.00 43.95 LIG 0.24  C 
ATOM      3 O    PHE C   1     111.684 175.411  55.830  1.00 42.64 LIG-0.27  OA
ATOM      4  N   LEU C   2     113.249 176.530  56.991  1.00 45.78 LIG-0.35  N 
ATOM      5 H    LEU C   2     113.680 177.251  57.175  1.00 45.78 LIG 0.16  HD
BRANCH 4 6
ATOM      6  CA  LEU C   2     113.787 175.331  57.605  1.00 46.28 LIG 0.16  C 
BRANCH 6 7
ATOM      7  C   LEU C   2     112.805 174.856  58.670  1.00 47.91 LIG 0.22  C 
ATOM      8 O    LEU C   2     112.440 175.611  59.573  1.00 50.38 LIG-0.29  OA
ENDBRANCH 6 7
BRANCH 6 9
ATOM      9  CB  LEU C   2     115.160 175.612  58.217  1.00 44.46 LIG 0.04  C 
BRANCH 9 10
ATOM     10  CG  LEU C   2     115.525 174.762  59.433  1.00 41.86 LIG-0.02  C 
ATOM     11  CD2 LEU C   2     115.517 175.610  60.694  1.00 43.32 LIG 0.01  C 
ATOM     12  CD1 LEU C   2     116.881 174.107  59.234  1.00 39.91 LIG 0.01  C 
ENDBRANCH 9 10
ENDBRANCH 6 9
ENDBRANCH 4 6
ENDBRANCH 1 2
BRANCH 1 13
ATOM     13  CB  PHE C   1     112.065 178.972  56.609  1.00 40.74 LIG 0.07  C 
BRANCH 13 14
ATOM     14  CG  PHE C   1     111.191 179.296  57.777  1.00 40.58 LIG-0.06  A 
ATOM     15  CD1 PHE C   1     110.925 178.341  58.743  1.00 41.26 LIG 0.01  A 
ATOM     16  CE1 PHE C   1     110.104 178.626  59.809  1.00 41.59 LIG 0.00  A 
ATOM     17  CZ  PHE C   1     109.528 179.874  59.916  1.00 39.95 LIG 0.00  A 
ATOM     18  CE2 PHE C   1     109.772 180.833  58.951  1.00 40.65 LIG 0.00  A 
ATOM     19  CD2 PHE C   1     110.594 180.541  57.887  1.00 39.59 LIG 0.01  A 
ENDBRANCH 13 14
ENDBRANCH 1 13
BRANCH 1 20
ATOM     20  N   PHE C   1     110.087 177.762  55.802  1.00 44.33 LIG-0.35  N 
ATOM     21 H    PHE C   1     109.752 177.566  56.569  1.00 44.33 LIG 0.16  HD
ATOM     22  C   SER C   0     109.352 178.015  54.720  1.00 45.23 LIG 0.25  C 
ATOM     23 O    SER C   0     109.840 178.232  53.609  1.00 45.89 LIG-0.27  OA
BRANCH 22 24
ATOM     24  CA  SER C   0     107.842 178.021  54.923  1.00 46.83 LIG 0.30  C 
BRANCH 24 25
ATOM     25  N   SER C   0     107.462 178.896  56.028  1.00 48.27 LIG-0.06  N 
ATOM     26 H2   SER C   0     106.788 179.419  55.775  1.00 48.27 LIG 0.28  HD
ATOM     27 H1   SER C   0     108.158 179.401  56.260  1.00 48.27 LIG 0.28  HD
ATOM     28 H3   SER C   0     107.210 178.403  56.725  1.00 48.27 LIG 0.28  HD
ENDBRANCH 24 25
BRANCH 24 29
ATOM     29  CB  SER C   0     107.145 178.450  53.629  1.00 47.94 LIG 0.21  C 
BRANCH 29 30
ATOM     30 OG   SER C   0     106.915 179.847  53.609  1.00 49.79 LIG-0.40  OA
ATOM     31 HG   SER C   0     106.323 180.025  53.041  1.00 49.79 LIG 0.21  HD
ENDBRANCH 29 30
ENDBRANCH 24 29
ENDBRANCH 22 24
ENDBRANCH 1 20
TORSDOF 12
ENDMDL
MODEL 72
USER: ADFR SOLUTION from run 116
USER: SCORE 9.755199 LL:  -2.307 LR:  -7.533 RR:   0.000 FEB:  -3.954
USER: RMSD 6.736611
USER: SEED 115
USER: STATUS no improvement in best in 20 clusters for 5 generations
USER: GENES 14
USER: genes 0 Translation |==|  0.52326 0.67612 0.18892
USER: genes 1 Rotation |==|  0.90259 0.29298 0.42904 0.70008
USER: genes 2 Torsion [N]-CA--C-[N] |==|  0.43709
USER: genes 3 Torsion [C]-N--CA-[C] |==|  0.59039
USER: genes 4 Torsion [N]-CA--C-[O] |==|  0.15335
USER: genes 5 Torsion [N]-CA--CB-[CG] |==|  0.90916
USER: genes 6 Torsion [CA]-CB--CG-[CD2] |==|  0.61322
USER: genes 7 Torsion [C]-CA--CB-[CG] |==|  0.22955
USER: genes 8 Torsion [CA]-CB--CG-[CD1] |==|  0.69858
USER: genes 9 Torsion [C]-CA--N-[C] |==|  0.62131
USER: genes 10 Torsion [N]-C--CA-[N] |==|  0.33184
USER: genes 11 Torsion [C]-CA--N-[H2] |==|  0.72854
USER: genes 12 Torsion [C]-CA--CB-[OG] |==|  0.77747
USER: genes 13 Torsion [CA]-CB--OG-[HG] |==|  0.17101
ROOT
ATOM      1  CA  PHE C   1     109.774 176.246  54.476  1.00 43.43 LIG 0.18  C 
ENDROOT
BRANCH 1 2
ATOM      2  C   PHE C   1     109.634 177.760  54.508  1.00 43.95 LIG 0.24  C 
ATOM      3 O    PHE C   1     109.373 178.373  53.468  1.00 42.64 LIG-0.27  OA
ATOM      4  N   LEU C   2     109.800 178.375  55.674  1.00 45.78 LIG-0.35  N 
ATOM      5 H    LEU C   2     109.866 177.969  56.430  1.00 45.78 LIG 0.16  HD
BRANCH 4 6
ATOM      6  CA  LEU C   2     109.885 179.820  55.753  1.00 46.28 LIG 0.16  C 
BRANCH 6 7
ATOM      7  C   LEU C   2     110.821 180.184  56.900  1.00 47.91 LIG 0.22  C 
ATOM      8 O    LEU C   2     111.969 179.739  56.943  1.00 50.38 LIG-0.29  OA
ENDBRANCH 6 7
BRANCH 6 9
ATOM      9  CB  LEU C   2     108.498 180.427  55.970  1.00 44.46 LIG 0.04  C 
BRANCH 9 10
ATOM     10  CG  LEU C   2     107.340 179.670  55.319  1.00 41.86 LIG-0.02  C 
ATOM     11  CD2 LEU C   2     106.346 180.646  54.711  1.00 43.32 LIG 0.01  C 
ATOM     12  CD1 LEU C   2     106.658 178.769  56.334  1.00 39.91 LIG 0.01  C 
ENDBRANCH 9 10
ENDBRANCH 6 9
ENDBRANCH 4 6
ENDBRANCH 1 2
BRANCH 1 13
ATOM     13  CB  PHE C   1     111.239 175.808  54.514  1.00 40.74 LIG 0.07  C 
BRANCH 13 14
ATOM     14  CG  PHE C   1     111.802 175.777  55.898  1.00 40.58 LIG-0.06  A 
ATOM     15  CD1 PHE C   1     112.725 176.726  56.304  1.00 41.26 LIG 0.01  A 
ATOM     16  CE1 PHE C   1     113.262 176.691  57.569  1.00 41.59 LIG 0.00  A 
ATOM     17  CZ  PHE C   1     112.888 175.694  58.445  1.00 39.95 LIG 0.00  A 
ATOM     18  CE2 PHE C   1     111.980 174.730  58.050  1.00 40.65 LIG 0.00  A 
ATOM     19  CD2 PHE C   1     111.446 174.771  56.782  1.00 39.59 LIG 0.01  A 
ENDBRANCH 13 14
ENDBRANCH 1 13
BRANCH 1 20
ATOM     20  N   PHE C   1     109.086 175.633  53.347  1.00 44.33 LIG-0.35  N 
ATOM     21 H    PHE C   1     109.200 176.046  52.602  1.00 44.33 LIG 0.16  HD
ATOM     22  C   SER C   0     108.351 174.529  53.472  1.00 45.23 LIG 0.25  C 
ATOM     23 O    SER C   0     108.140 173.978  54.555  1.00 45.89 LIG-0.27  OA
BRANCH 22 24
ATOM     24  CA  SER C   0     107.764 173.966  52.183  1.00 46.83 LIG 0.30  C 
BRANCH 24 25
ATOM     25  N   SER C   0     108.245 172.611  51.932  1.00 48.27 LIG-0.06  N 
ATOM     26 H2   SER C   0     108.926 172.639  51.359  1.00 48.27 LIG 0.28  HD
ATOM     27 H1   SER C   0     107.587 172.121  51.587  1.00 48.27 LIG 0.28  HD
ATOM     28 H3   SER C   0     108.516 172.246  52.697  1.00 48.27 LIG 0.28  HD
ENDBRANCH 24 25
BRANCH 24 29
ATOM     29  CB  SER C   0     106.234 173.993  52.253  1.00 47.94 LIG 0.21  C 
BRANCH 29 30
ATOM     30 OG   SER C   0     105.736 172.900  53.004  1.00 49.79 LIG-0.40  OA
ATOM     31 HG   SER C   0     106.024 172.947  53.792  1.00 49.79 LIG 0.21  HD
ENDBRANCH 29 30
ENDBRANCH 24 29
ENDBRANCH 22 24
ENDBRANCH 1 20
TORSDOF 12
ENDMDL
MODEL 73
USER: ADFR SOLUTION from run 59
USER: SCORE 9.410864 LL:  -2.531 LR:  -7.523 RR:   0.000 FEB:  -3.944
USER: RMSD 6.922656
USER: SEED 58
USER: STATUS no improvement in best in 8 clusters for 5 generations
USER: GENES 14
USER: genes 0 Translation |==|  0.51489 0.58876 0.37345
USER: genes 1 Rotation |==|  0.32589 0.93788 0.66713 0.50377
USER: genes 2 Torsion [N]-CA--C-[N] |==|  0.82944
USER: genes 3 Torsion [C]-N--CA-[C] |==|  0.18305
USER: genes 4 Torsion [N]-CA--C-[O] |==|  0.02851
USER: genes 5 Torsion [N]-CA--CB-[CG] |==|  0.83925
USER: genes 6 Torsion [CA]-CB--CG-[CD2] |==|  0.28660
USER: genes 7 Torsion [C]-CA--CB-[CG] |==|  0.09478
USER: genes 8 Torsion [CA]-CB--CG-[CD1] |==|  0.65734
USER: genes 9 Torsion [C]-CA--N-[C] |==|  0.19285
USER: genes 10 Torsion [N]-C--CA-[N] |==|  0.67770
USER: genes 11 Torsion [C]-CA--N-[H2] |==|  0.05018
USER: genes 12 Torsion [C]-CA--CB-[OG] |==|  0.52099
USER: genes 13 Torsion [CA]-CB--OG-[HG] |==|  0.98336
ROOT
ATOM      1  CA  PHE C   1     109.617 175.001  57.521  1.00 43.43 LIG 0.18  C 
ENDROOT
BRANCH 1 2
ATOM      2  C   PHE C   1     110.989 175.111  58.170  1.00 43.95 LIG 0.24  C 
ATOM      3 O    PHE C   1     111.097 175.622  59.289  1.00 42.64 LIG-0.27  OA
ATOM      4  N   LEU C   2     112.034 174.646  57.496  1.00 45.78 LIG-0.35  N 
ATOM      5 H    LEU C   2     111.977 174.184  56.773  1.00 45.78 LIG 0.16  HD
BRANCH 4 6
ATOM      6  CA  LEU C   2     113.389 174.894  57.949  1.00 46.28 LIG 0.16  C 
BRANCH 6 7
ATOM      7  C   LEU C   2     113.592 174.168  59.274  1.00 47.91 LIG 0.22  C 
ATOM      8 O    LEU C   2     112.757 173.362  59.687  1.00 50.38 LIG-0.29  OA
ENDBRANCH 6 7
BRANCH 6 9
ATOM      9  CB  LEU C   2     113.633 176.396  58.109  1.00 44.46 LIG 0.04  C 
BRANCH 9 10
ATOM     10  CG  LEU C   2     113.410 177.237  56.852  1.00 41.86 LIG-0.02  C 
ATOM     11  CD2 LEU C   2     112.084 177.974  56.936  1.00 43.32 LIG 0.01  C 
ATOM     12  CD1 LEU C   2     113.462 176.361  55.612  1.00 39.91 LIG 0.01  C 
ENDBRANCH 9 10
ENDBRANCH 6 9
ENDBRANCH 4 6
ENDBRANCH 1 2
BRANCH 1 13
ATOM     13  CB  PHE C   1     109.196 173.544  57.323  1.00 40.74 LIG 0.07  C 
BRANCH 13 14
ATOM     14  CG  PHE C   1     109.686 172.643  58.409  1.00 40.58 LIG-0.06  A 
ATOM     15  CD1 PHE C   1     110.463 171.538  58.109  1.00 41.26 LIG 0.01  A 
ATOM     16  CE1 PHE C   1     110.900 170.692  59.103  1.00 41.59 LIG 0.00  A 
ATOM     17  CZ  PHE C   1     110.553 170.940  60.414  1.00 39.95 LIG 0.00  A 
ATOM     18  CE2 PHE C   1     109.765 172.031  60.728  1.00 40.65 LIG 0.00  A 
ATOM     19  CD2 PHE C   1     109.331 172.872  59.729  1.00 39.59 LIG 0.01  A 
ENDBRANCH 13 14
ENDBRANCH 1 13
BRANCH 1 20
ATOM     20  N   PHE C   1     109.518 175.737  56.267  1.00 44.33 LIG-0.35  N 
ATOM     21 H    PHE C   1     109.010 176.430  56.308  1.00 44.33 LIG 0.16  HD
ATOM     22  C   SER C   0     110.163 175.361  55.164  1.00 45.23 LIG 0.25  C 
ATOM     23 O    SER C   0     110.838 174.332  55.096  1.00 45.89 LIG-0.27  OA
BRANCH 22 24
ATOM     24  CA  SER C   0     110.022 176.283  53.959  1.00 46.83 LIG 0.30  C 
BRANCH 24 25
ATOM     25  N   SER C   0     109.335 175.611  52.859  1.00 48.27 LIG-0.06  N 
ATOM     26 H2   SER C   0     108.901 174.899  53.171  1.00 48.27 LIG 0.28  HD
ATOM     27 H1   SER C   0     109.931 175.351  52.251  1.00 48.27 LIG 0.28  HD
ATOM     28 H3   SER C   0     108.755 176.172  52.484  1.00 48.27 LIG 0.28  HD
ENDBRANCH 24 25
BRANCH 24 29
ATOM     29  CB  SER C   0     109.277 177.558  54.364  1.00 47.94 LIG 0.21  C 
BRANCH 29 30
ATOM     30 OG   SER C   0     108.977 178.357  53.234  1.00 49.79 LIG-0.40  OA
ATOM     31 HG   SER C   0     109.336 178.024  52.552  1.00 49.79 LIG 0.21  HD
ENDBRANCH 29 30
ENDBRANCH 24 29
ENDBRANCH 22 24
ENDBRANCH 1 20
TORSDOF 12
ENDMDL
MODEL 74
USER: ADFR SOLUTION from run 127
USER: SCORE 9.518738 LL:  -2.106 LR:  -7.508 RR:   0.000 FEB:  -3.929
USER: RMSD 5.317691
USER: SEED 126
USER: STATUS no improvement in best in 12 clusters for 5 generations
USER: GENES 14
USER: genes 0 Translation |==|  0.51595 0.66205 0.17895
USER: genes 1 Rotation |==|  0.71502 0.65361 0.83023 0.76669
USER: genes 2 Torsion [N]-CA--C-[N] |==|  0.43482
USER: genes 3 Torsion [C]-N--CA-[C] |==|  0.64095
USER: genes 4 Torsion [N]-CA--C-[O] |==|  0.88015
USER: genes 5 Torsion [N]-CA--CB-[CG] |==|  0.20299
USER: genes 6 Torsion [CA]-CB--CG-[CD2] |==|  0.76539
USER: genes 7 Torsion [C]-CA--CB-[CG] |==|  0.49339
USER: genes 8 Torsion [CA]-CB--CG-[CD1] |==|  0.72878
USER: genes 9 Torsion [C]-CA--N-[C] |==|  0.64619
USER: genes 10 Torsion [N]-C--CA-[N] |==|  0.04315
USER: genes 11 Torsion [C]-CA--N-[H2] |==|  0.48204
USER: genes 12 Torsion [C]-CA--CB-[OG] |==|  0.65145
USER: genes 13 Torsion [CA]-CB--OG-[HG] |==|  0.22802
ROOT
ATOM      1  CA  PHE C   1     109.637 176.045  54.312  1.00 43.43 LIG 0.18  C 
ENDROOT
BRANCH 1 2
ATOM      2  C   PHE C   1     109.231 174.958  53.328  1.00 43.95 LIG 0.24  C 
ATOM      3 O    PHE C   1     110.088 174.427  52.614  1.00 42.64 LIG-0.27  OA
ATOM      4  N   LEU C   2     107.949 174.616  53.274  1.00 45.78 LIG-0.35  N 
ATOM      5 H    LEU C   2     107.353 174.882  53.835  1.00 45.78 LIG 0.16  HD
BRANCH 4 6
ATOM      6  CA  LEU C   2     107.450 173.741  52.231  1.00 46.28 LIG 0.16  C 
BRANCH 6 7
ATOM      7  C   LEU C   2     106.232 174.401  51.594  1.00 47.91 LIG 0.22  C 
ATOM      8 O    LEU C   2     105.374 174.947  52.289  1.00 50.38 LIG-0.29  OA
ENDBRANCH 6 7
BRANCH 6 9
ATOM      9  CB  LEU C   2     107.087 172.372  52.808  1.00 44.46 LIG 0.04  C 
BRANCH 9 10
ATOM     10  CG  LEU C   2     105.815 172.330  53.654  1.00 41.86 LIG-0.02  C 
ATOM     11  CD2 LEU C   2     106.119 172.738  55.086  1.00 43.32 LIG 0.01  C 
ATOM     12  CD1 LEU C   2     105.193 170.946  53.608  1.00 39.91 LIG 0.01  C 
ENDBRANCH 9 10
ENDBRANCH 6 9
ENDBRANCH 4 6
ENDBRANCH 1 2
BRANCH 1 13
ATOM     13  CB  PHE C   1     109.290 177.441  53.793  1.00 40.74 LIG 0.07  C 
BRANCH 13 14
ATOM     14  CG  PHE C   1     109.627 178.525  54.766  1.00 40.58 LIG-0.06  A 
ATOM     15  CD1 PHE C   1     108.654 179.051  55.597  1.00 41.26 LIG 0.01  A 
ATOM     16  CE1 PHE C   1     108.952 180.063  56.479  1.00 41.59 LIG 0.00  A 
ATOM     17  CZ  PHE C   1     110.234 180.569  56.533  1.00 39.95 LIG 0.00  A 
ATOM     18  CE2 PHE C   1     111.213 180.064  55.698  1.00 40.65 LIG 0.00  A 
ATOM     19  CD2 PHE C   1     110.907 179.052  54.818  1.00 39.59 LIG 0.01  A 
ENDBRANCH 13 14
ENDBRANCH 1 13
BRANCH 1 20
ATOM     20  N   PHE C   1     111.042 175.976  54.692  1.00 44.33 LIG-0.35  N 
ATOM     21 H    PHE C   1     111.584 175.955  54.025  1.00 44.33 LIG 0.16  HD
ATOM     22  C   SER C   0     111.438 175.948  55.964  1.00 45.23 LIG 0.25  C 
ATOM     23 O    SER C   0     110.653 175.913  56.914  1.00 45.89 LIG-0.27  OA
BRANCH 22 24
ATOM     24  CA  SER C   0     112.944 175.958  56.196  1.00 46.83 LIG 0.30  C 
BRANCH 24 25
ATOM     25  N   SER C   0     113.661 176.361  54.990  1.00 48.27 LIG-0.06  N 
ATOM     26 H2   SER C   0     114.527 176.450  55.175  1.00 48.27 LIG 0.28  HD
ATOM     27 H1   SER C   0     113.339 177.138  54.699  1.00 48.27 LIG 0.28  HD
ATOM     28 H3   SER C   0     113.554 175.741  54.360  1.00 48.27 LIG 0.28  HD
ENDBRANCH 24 25
BRANCH 24 29
ATOM     29  CB  SER C   0     113.283 176.889  57.364  1.00 47.94 LIG 0.21  C 
BRANCH 29 30
ATOM     30 OG   SER C   0     114.240 177.861  56.984  1.00 49.79 LIG-0.40  OA
ATOM     31 HG   SER C   0     113.855 178.495  56.590  1.00 49.79 LIG 0.21  HD
ENDBRANCH 29 30
ENDBRANCH 24 29
ENDBRANCH 22 24
ENDBRANCH 1 20
TORSDOF 12
ENDMDL
MODEL 75
USER: ADFR SOLUTION from run 64
USER: SCORE 9.279905 LL:  -1.926 LR:  -7.511 RR:   0.000 FEB:  -3.932
USER: RMSD 7.356892
USER: SEED 63
USER: STATUS no improvement in best in 32 clusters for 5 generations
USER: GENES 14
USER: genes 0 Translation |==|  0.58380 0.58553 0.32420
USER: genes 1 Rotation |==|  0.65511 0.05776 0.33247 0.54797
USER: genes 2 Torsion [N]-CA--C-[N] |==|  0.31111
USER: genes 3 Torsion [C]-N--CA-[C] |==|  0.16542
USER: genes 4 Torsion [N]-CA--C-[O] |==|  0.09984
USER: genes 5 Torsion [N]-CA--CB-[CG] |==|  0.57670
USER: genes 6 Torsion [CA]-CB--CG-[CD2] |==|  0.95240
USER: genes 7 Torsion [C]-CA--CB-[CG] |==|  0.16352
USER: genes 8 Torsion [CA]-CB--CG-[CD1] |==|  0.56055
USER: genes 9 Torsion [C]-CA--N-[C] |==|  0.77719
USER: genes 10 Torsion [N]-C--CA-[N] |==|  0.07228
USER: genes 11 Torsion [C]-CA--N-[H2] |==|  0.68991
USER: genes 12 Torsion [C]-CA--CB-[OG] |==|  0.61077
USER: genes 13 Torsion [CA]-CB--OG-[HG] |==|  0.84379
ROOT
ATOM      1  CA  PHE C   1     110.909 174.955  56.708  1.00 43.43 LIG 0.18  C 
ENDROOT
BRANCH 1 2
ATOM      2  C   PHE C   1     112.384 175.098  57.051  1.00 43.95 LIG 0.24  C 
ATOM      3 O    PHE C   1     113.232 174.518  56.364  1.00 42.64 LIG-0.27  OA
ATOM      4  N   LEU C   2     112.710 175.853  58.093  1.00 45.78 LIG-0.35  N 
ATOM      5 H    LEU C   2     112.157 176.359  58.516  1.00 45.78 LIG 0.16  HD
BRANCH 4 6
ATOM      6  CA  LEU C   2     114.066 175.878  58.607  1.00 46.28 LIG 0.16  C 
BRANCH 6 7
ATOM      7  C   LEU C   2     114.993 176.349  57.493  1.00 47.91 LIG 0.22  C 
ATOM      8 O    LEU C   2     114.626 177.205  56.686  1.00 50.38 LIG-0.29  OA
ENDBRANCH 6 7
BRANCH 6 9
ATOM      9  CB  LEU C   2     114.475 174.490  59.104  1.00 44.46 LIG 0.04  C 
BRANCH 9 10
ATOM     10  CG  LEU C   2     115.526 174.472  60.214  1.00 41.86 LIG-0.02  C 
ATOM     11  CD2 LEU C   2     116.237 175.812  60.291  1.00 43.32 LIG 0.01  C 
ATOM     12  CD1 LEU C   2     116.519 173.346  59.985  1.00 39.91 LIG 0.01  C 
ENDBRANCH 9 10
ENDBRANCH 6 9
ENDBRANCH 4 6
ENDBRANCH 1 2
BRANCH 1 13
ATOM     13  CB  PHE C   1     110.463 173.492  56.712  1.00 40.74 LIG 0.07  C 
BRANCH 13 14
ATOM     14  CG  PHE C   1     110.679 172.820  58.029  1.00 40.58 LIG-0.06  A 
ATOM     15  CD1 PHE C   1     110.767 171.442  58.110  1.00 41.26 LIG 0.01  A 
ATOM     16  CE1 PHE C   1     110.945 170.816  59.321  1.00 41.59 LIG 0.00  A 
ATOM     17  CZ  PHE C   1     111.028 171.567  60.475  1.00 39.95 LIG 0.00  A 
ATOM     18  CE2 PHE C   1     110.926 172.944  60.412  1.00 40.65 LIG 0.00  A 
ATOM     19  CD2 PHE C   1     110.748 173.563  59.197  1.00 39.59 LIG 0.01  A 
ENDBRANCH 13 14
ENDBRANCH 1 13
BRANCH 1 20
ATOM     20  N   PHE C   1     110.550 175.596  55.450  1.00 44.33 LIG-0.35  N 
ATOM     21 H    PHE C   1     110.489 175.053  54.786  1.00 44.33 LIG 0.16  HD
ATOM     22  C   SER C   0     110.339 176.908  55.351  1.00 45.23 LIG 0.25  C 
ATOM     23 O    SER C   0     110.491 177.688  56.293  1.00 45.89 LIG-0.27  OA
BRANCH 22 24
ATOM     24  CA  SER C   0     109.890 177.412  53.984  1.00 46.83 LIG 0.30  C 
BRANCH 24 25
ATOM     25  N   SER C   0     109.205 176.364  53.234  1.00 48.27 LIG-0.06  N 
ATOM     26 H2   SER C   0     109.706 176.121  52.539  1.00 48.27 LIG 0.28  HD
ATOM     27 H1   SER C   0     108.422 176.671  52.942  1.00 48.27 LIG 0.28  HD
ATOM     28 H3   SER C   0     109.070 175.661  53.762  1.00 48.27 LIG 0.28  HD
ENDBRANCH 24 25
BRANCH 24 29
ATOM     29  CB  SER C   0     108.986 178.637  54.154  1.00 47.94 LIG 0.21  C 
BRANCH 29 30
ATOM     30 OG   SER C   0     107.905 178.605  53.240  1.00 49.79 LIG-0.40  OA
ATOM     31 HG   SER C   0     108.201 178.546  52.456  1.00 49.79 LIG 0.21  HD
ENDBRANCH 29 30
ENDBRANCH 24 29
ENDBRANCH 22 24
ENDBRANCH 1 20
TORSDOF 12
ENDMDL
MODEL 76
USER: ADFR SOLUTION from run 21
USER: SCORE 9.737630 LL:  -2.303 LR:  -7.495 RR:   0.000 FEB:  -3.916
USER: RMSD 7.929933
USER: SEED 20
USER: STATUS no improvement in best in 22 clusters for 5 generations
USER: GENES 14
USER: genes 0 Translation |==|  0.52221 0.72493 0.15041
USER: genes 1 Rotation |==|  0.23391 0.16255 0.75511 0.51555
USER: genes 2 Torsion [N]-CA--C-[N] |==|  0.46111
USER: genes 3 Torsion [C]-N--CA-[C] |==|  0.70220
USER: genes 4 Torsion [N]-CA--C-[O] |==|  0.92961
USER: genes 5 Torsion [N]-CA--CB-[CG] |==|  0.63481
USER: genes 6 Torsion [CA]-CB--CG-[CD2] |==|  0.04051
USER: genes 7 Torsion [C]-CA--CB-[CG] |==|  0.74003
USER: genes 8 Torsion [CA]-CB--CG-[CD1] |==|  0.15034
USER: genes 9 Torsion [C]-CA--N-[C] |==|  0.79488
USER: genes 10 Torsion [N]-C--CA-[N] |==|  0.53322
USER: genes 11 Torsion [C]-CA--N-[H2] |==|  0.90455
USER: genes 12 Torsion [C]-CA--CB-[OG] |==|  0.69624
USER: genes 13 Torsion [CA]-CB--OG-[HG] |==|  0.51747
ROOT
ATOM      1  CA  PHE C   1     109.754 176.941  53.841  1.00 43.43 LIG 0.18  C 
ENDROOT
BRANCH 1 2
ATOM      2  C   PHE C   1     110.453 176.513  55.122  1.00 43.95 LIG 0.24  C 
ATOM      3 O    PHE C   1     109.982 175.593  55.799  1.00 42.64 LIG-0.27  OA
ATOM      4  N   LEU C   2     111.561 177.157  55.470  1.00 45.78 LIG-0.35  N 
ATOM      5 H    LEU C   2     111.975 177.717  54.965  1.00 45.78 LIG 0.16  HD
BRANCH 4 6
ATOM      6  CA  LEU C   2     112.171 176.951  56.770  1.00 46.28 LIG 0.16  C 
BRANCH 6 7
ATOM      7  C   LEU C   2     111.920 178.191  57.620  1.00 47.91 LIG 0.22  C 
ATOM      8 O    LEU C   2     111.726 179.288  57.094  1.00 50.38 LIG-0.29  OA
ENDBRANCH 6 7
BRANCH 6 9
ATOM      9  CB  LEU C   2     113.670 176.687  56.622  1.00 44.46 LIG 0.04  C 
BRANCH 9 10
ATOM     10  CG  LEU C   2     114.205 175.479  57.392  1.00 41.86 LIG-0.02  C 
ATOM     11  CD2 LEU C   2     113.059 174.595  57.853  1.00 43.32 LIG 0.01  C 
ATOM     12  CD1 LEU C   2     115.045 175.933  58.573  1.00 39.91 LIG 0.01  C 
ENDBRANCH 9 10
ENDBRANCH 6 9
ENDBRANCH 4 6
ENDBRANCH 1 2
BRANCH 1 13
ATOM     13  CB  PHE C   1     109.139 178.336  53.966  1.00 40.74 LIG 0.07  C 
BRANCH 13 14
ATOM     14  CG  PHE C   1     107.705 178.304  54.385  1.00 40.58 LIG-0.06  A 
ATOM     15  CD1 PHE C   1     107.322 177.627  55.529  1.00 41.26 LIG 0.01  A 
ATOM     16  CE1 PHE C   1     106.001 177.576  55.909  1.00 41.59 LIG 0.00  A 
ATOM     17  CZ  PHE C   1     105.041 178.197  55.137  1.00 39.95 LIG 0.00  A 
ATOM     18  CE2 PHE C   1     105.407 178.864  53.983  1.00 40.65 LIG 0.00  A 
ATOM     19  CD2 PHE C   1     106.730 178.910  53.609  1.00 39.59 LIG 0.01  A 
ENDBRANCH 13 14
ENDBRANCH 1 13
BRANCH 1 20
ATOM     20  N   PHE C   1     108.757 175.981  53.386  1.00 44.33 LIG-0.35  N 
ATOM     21 H    PHE C   1     107.945 176.234  53.512  1.00 44.33 LIG 0.16  HD
ATOM     22  C   SER C   0     109.087 174.818  52.827  1.00 45.23 LIG 0.25  C 
ATOM     23 O    SER C   0     110.253 174.433  52.708  1.00 45.89 LIG-0.27  OA
BRANCH 22 24
ATOM     24  CA  SER C   0     107.929 173.961  52.330  1.00 46.83 LIG 0.30  C 
BRANCH 24 25
ATOM     25  N   SER C   0     108.376 172.611  52.000  1.00 48.27 LIG-0.06  N 
ATOM     26 H2   SER C   0     109.202 172.644  51.670  1.00 48.27 LIG 0.28  HD
ATOM     27 H1   SER C   0     107.829 172.257  51.394  1.00 48.27 LIG 0.28  HD
ATOM     28 H3   SER C   0     108.369 172.108  52.734  1.00 48.27 LIG 0.28  HD
ENDBRANCH 24 25
BRANCH 24 29
ATOM     29  CB  SER C   0     106.821 173.922  53.386  1.00 47.94 LIG 0.21  C 
BRANCH 29 30
ATOM     30 OG   SER C   0     106.736 172.645  53.992  1.00 49.79 LIG-0.40  OA
ATOM     31 HG   SER C   0     106.070 172.621  54.503  1.00 49.79 LIG 0.21  HD
ENDBRANCH 29 30
ENDBRANCH 24 29
ENDBRANCH 22 24
ENDBRANCH 1 20
TORSDOF 12
ENDMDL
MODEL 77
USER: ADFR SOLUTION from run 32
USER: SCORE 9.427651 LL:  -2.110 LR:  -7.496 RR:   0.000 FEB:  -3.917
USER: RMSD 9.333019
USER: SEED 31
USER: STATUS no improvement in best in 13 clusters for 5 generations
USER: GENES 14
USER: genes 0 Translation |==|  0.73580 0.32519 0.64526
USER: genes 1 Rotation |==|  0.36447 0.75724 0.12779 0.66407
USER: genes 2 Torsion [N]-CA--C-[N] |==|  0.29209
USER: genes 3 Torsion [C]-N--CA-[C] |==|  0.67432
USER: genes 4 Torsion [N]-CA--C-[O] |==|  0.64599
USER: genes 5 Torsion [N]-CA--CB-[CG] |==|  0.98047
USER: genes 6 Torsion [CA]-CB--CG-[CD2] |==|  0.59973
USER: genes 7 Torsion [C]-CA--CB-[CG] |==|  0.43986
USER: genes 8 Torsion [CA]-CB--CG-[CD1] |==|  0.93945
USER: genes 9 Torsion [C]-CA--N-[C] |==|  0.73376
USER: genes 10 Torsion [N]-C--CA-[N] |==|  0.84122
USER: genes 11 Torsion [C]-CA--N-[H2] |==|  0.19949
USER: genes 12 Torsion [C]-CA--CB-[OG] |==|  0.61297
USER: genes 13 Torsion [CA]-CB--OG-[HG] |==|  0.69035
ROOT
ATOM      1  CA  PHE C   1     113.759 171.245  62.006  1.00 43.43 LIG 0.18  C 
ENDROOT
BRANCH 1 2
ATOM      2  C   PHE C   1     113.932 172.755  62.068  1.00 43.95 LIG 0.24  C 
ATOM      3 O    PHE C   1     113.660 173.360  63.110  1.00 42.64 LIG-0.27  OA
ATOM      4  N   LEU C   2     114.375 173.375  60.981  1.00 45.78 LIG-0.35  N 
ATOM      5 H    LEU C   2     114.681 172.972  60.284  1.00 45.78 LIG 0.16  HD
BRANCH 4 6
ATOM      6  CA  LEU C   2     114.374 174.822  60.890  1.00 46.28 LIG 0.16  C 
BRANCH 6 7
ATOM      7  C   LEU C   2     113.448 175.231  59.750  1.00 47.91 LIG 0.22  C 
ATOM      8 O    LEU C   2     113.839 175.986  58.859  1.00 50.38 LIG-0.29  OA
ENDBRANCH 6 7
BRANCH 6 9
ATOM      9  CB  LEU C   2     115.791 175.345  60.653  1.00 44.46 LIG 0.04  C 
BRANCH 9 10
ATOM     10  CG  LEU C   2     116.901 174.297  60.729  1.00 41.86 LIG-0.02  C 
ATOM     11  CD2 LEU C   2     118.153 174.896  61.348  1.00 43.32 LIG 0.01  C 
ATOM     12  CD1 LEU C   2     117.198 173.736  59.349  1.00 39.91 LIG 0.01  C 
ENDBRANCH 9 10
ENDBRANCH 6 9
ENDBRANCH 4 6
ENDBRANCH 1 2
BRANCH 1 13
ATOM     13  CB  PHE C   1     112.375 170.809  62.488  1.00 40.74 LIG 0.07  C 
BRANCH 13 14
ATOM     14  CG  PHE C   1     111.979 169.461  61.979  1.00 40.58 LIG-0.06  A 
ATOM     15  CD1 PHE C   1     112.573 168.935  60.845  1.00 41.26 LIG 0.01  A 
ATOM     16  CE1 PHE C   1     112.198 167.704  60.359  1.00 41.59 LIG 0.00  A 
ATOM     17  CZ  PHE C   1     111.211 166.986  61.001  1.00 39.95 LIG 0.00  A 
ATOM     18  CE2 PHE C   1     110.597 167.505  62.125  1.00 40.65 LIG 0.00  A 
ATOM     19  CD2 PHE C   1     110.977 168.737  62.605  1.00 39.59 LIG 0.01  A 
ENDBRANCH 13 14
ENDBRANCH 1 13
BRANCH 1 20
ATOM     20  N   PHE C   1     114.801 170.521  62.722  1.00 44.33 LIG-0.35  N 
ATOM     21 H    PHE C   1     114.654 170.439  63.565  1.00 44.33 LIG 0.16  HD
ATOM     22  C   SER C   0     115.882 170.034  62.113  1.00 45.23 LIG 0.25  C 
ATOM     23 O    SER C   0     116.118 170.211  60.916  1.00 45.89 LIG-0.27  OA
BRANCH 22 24
ATOM     24  CA  SER C   0     116.838 169.231  62.987  1.00 46.83 LIG 0.30  C 
BRANCH 24 25
ATOM     25  N   SER C   0     117.302 170.020  64.124  1.00 48.27 LIG-0.06  N 
ATOM     26 H2   SER C   0     116.637 170.121  64.706  1.00 48.27 LIG 0.28  HD
ATOM     27 H1   SER C   0     117.572 170.819  63.841  1.00 48.27 LIG 0.28  HD
ATOM     28 H3   SER C   0     117.981 169.601  64.518  1.00 48.27 LIG 0.28  HD
ENDBRANCH 24 25
BRANCH 24 29
ATOM     29  CB  SER C   0     116.153 167.947  63.462  1.00 47.94 LIG 0.21  C 
BRANCH 29 30
ATOM     30 OG   SER C   0     116.463 167.671  64.816  1.00 49.79 LIG-0.40  OA
ATOM     31 HG   SER C   0     116.947 166.986  64.859  1.00 49.79 LIG 0.21  HD
ENDBRANCH 29 30
ENDBRANCH 24 29
ENDBRANCH 22 24
ENDBRANCH 1 20
TORSDOF 12
ENDMDL
MODEL 78
USER: ADFR SOLUTION from run 78
USER: SCORE 9.663383 LL:  -2.222 LR:  -7.490 RR:   0.000 FEB:  -3.910
USER: RMSD 8.025120
USER: SEED 77
USER: STATUS no improvement in best in 25 clusters for 5 generations
USER: GENES 14
USER: genes 0 Translation |==|  0.47423 0.64590 0.19575
USER: genes 1 Rotation |==|  0.71521 0.25871 0.11881 0.51245
USER: genes 2 Torsion [N]-CA--C-[N] |==|  0.12220
USER: genes 3 Torsion [C]-N--CA-[C] |==|  0.72687
USER: genes 4 Torsion [N]-CA--C-[O] |==|  0.56859
USER: genes 5 Torsion [N]-CA--CB-[CG] |==|  0.97397
USER: genes 6 Torsion [CA]-CB--CG-[CD2] |==|  0.79176
USER: genes 7 Torsion [C]-CA--CB-[CG] |==|  0.42925
USER: genes 8 Torsion [CA]-CB--CG-[CD1] |==|  0.23256
USER: genes 9 Torsion [C]-CA--N-[C] |==|  0.15040
USER: genes 10 Torsion [N]-C--CA-[N] |==|  0.74138
USER: genes 11 Torsion [C]-CA--N-[H2] |==|  0.77835
USER: genes 12 Torsion [C]-CA--CB-[OG] |==|  0.63535
USER: genes 13 Torsion [CA]-CB--OG-[HG] |==|  0.51963
ROOT
ATOM      1  CA  PHE C   1     108.855 175.815  54.589  1.00 43.43 LIG 0.18  C 
ENDROOT
BRANCH 1 2
ATOM      2  C   PHE C   1     110.307 176.077  54.959  1.00 43.95 LIG 0.24  C 
ATOM      3 O    PHE C   1     111.211 175.585  54.276  1.00 42.64 LIG-0.27  OA
ATOM      4  N   LEU C   2     110.550 176.838  56.020  1.00 45.78 LIG-0.35  N 
ATOM      5 H    LEU C   2     109.949 177.286  56.442  1.00 45.78 LIG 0.16  HD
BRANCH 4 6
ATOM      6  CA  LEU C   2     111.891 176.969  56.556  1.00 46.28 LIG 0.16  C 
BRANCH 6 7
ATOM      7  C   LEU C   2     112.028 176.019  57.740  1.00 47.91 LIG 0.22  C 
ATOM      8 O    LEU C   2     112.853 176.234  58.630  1.00 50.38 LIG-0.29  OA
ENDBRANCH 6 7
BRANCH 6 9
ATOM      9  CB  LEU C   2     112.158 178.413  56.984  1.00 44.46 LIG 0.04  C 
BRANCH 9 10
ATOM     10  CG  LEU C   2     111.096 179.430  56.567  1.00 41.86 LIG-0.02  C 
ATOM     11  CD2 LEU C   2     111.211 179.736  55.083  1.00 43.32 LIG 0.01  C 
ATOM     12  CD1 LEU C   2     111.225 180.699  57.390  1.00 39.91 LIG 0.01  C 
ENDBRANCH 9 10
ENDBRANCH 6 9
ENDBRANCH 4 6
ENDBRANCH 1 2
BRANCH 1 13
ATOM     13  CB  PHE C   1     108.727 175.148  53.219  1.00 40.74 LIG 0.07  C 
BRANCH 13 14
ATOM     14  CG  PHE C   1     107.473 174.348  53.075  1.00 40.58 LIG-0.06  A 
ATOM     15  CD1 PHE C   1     106.285 174.961  52.715  1.00 41.26 LIG 0.01  A 
ATOM     16  CE1 PHE C   1     105.123 174.235  52.602  1.00 41.59 LIG 0.00  A 
ATOM     17  CZ  PHE C   1     105.134 172.880  52.859  1.00 39.95 LIG 0.00  A 
ATOM     18  CE2 PHE C   1     106.309 172.256  53.234  1.00 40.65 LIG 0.00  A 
ATOM     19  CD2 PHE C   1     107.468 172.990  53.346  1.00 39.59 LIG 0.01  A 
ENDBRANCH 13 14
ENDBRANCH 1 13
BRANCH 1 20
ATOM     20  N   PHE C   1     108.024 177.010  54.655  1.00 44.33 LIG-0.35  N 
ATOM     21 H    PHE C   1     107.327 176.924  55.151  1.00 44.33 LIG 0.16  HD
ATOM     22  C   SER C   0     108.329 178.131  54.002  1.00 45.23 LIG 0.25  C 
ATOM     23 O    SER C   0     109.295 178.226  53.243  1.00 45.89 LIG-0.27  OA
BRANCH 22 24
ATOM     24  CA  SER C   0     107.404 179.318  54.240  1.00 46.83 LIG 0.30  C 
BRANCH 24 25
ATOM     25  N   SER C   0     106.347 179.373  53.234  1.00 48.27 LIG-0.06  N 
ATOM     26 H2   SER C   0     106.668 179.733  52.486  1.00 48.27 LIG 0.28  HD
ATOM     27 H1   SER C   0     105.674 179.871  53.537  1.00 48.27 LIG 0.28  HD
ATOM     28 H3   SER C   0     106.054 178.550  53.066  1.00 48.27 LIG 0.28  HD
ENDBRANCH 24 25
BRANCH 24 29
ATOM     29  CB  SER C   0     106.807 179.237  55.648  1.00 47.94 LIG 0.21  C 
BRANCH 29 30
ATOM     30 OG   SER C   0     105.403 179.424  55.621  1.00 49.79 LIG-0.40  OA
ATOM     31 HG   SER C   0     105.112 179.472  56.407  1.00 49.79 LIG 0.21  HD
ENDBRANCH 29 30
ENDBRANCH 24 29
ENDBRANCH 22 24
ENDBRANCH 1 20
TORSDOF 12
ENDMDL
MODEL 79
USER: ADFR SOLUTION from run 150
USER: SCORE 10.257326 LL:  -2.775 LR:  -7.494 RR:   0.000 FEB:  -3.915
USER: RMSD 6.044732
USER: SEED 149
USER: STATUS no improvement in best in 20 clusters for 5 generations
USER: GENES 14
USER: genes 0 Translation |==|  0.53402 0.53108 0.30440
USER: genes 1 Rotation |==|  0.94989 0.29724 0.42297 0.52358
USER: genes 2 Torsion [N]-CA--C-[N] |==|  0.97360
USER: genes 3 Torsion [C]-N--CA-[C] |==|  0.74130
USER: genes 4 Torsion [N]-CA--C-[O] |==|  0.93370
USER: genes 5 Torsion [N]-CA--CB-[CG] |==|  0.01112
USER: genes 6 Torsion [CA]-CB--CG-[CD2] |==|  0.55148
USER: genes 7 Torsion [C]-CA--CB-[CG] |==|  0.90037
USER: genes 8 Torsion [CA]-CB--CG-[CD1] |==|  0.32245
USER: genes 9 Torsion [C]-CA--N-[C] |==|  0.77178
USER: genes 10 Torsion [N]-C--CA-[N] |==|  0.91344
USER: genes 11 Torsion [C]-CA--N-[H2] |==|  0.47688
USER: genes 12 Torsion [C]-CA--CB-[OG] |==|  0.72850
USER: genes 13 Torsion [CA]-CB--OG-[HG] |==|  0.45391
ROOT
ATOM      1  CA  PHE C   1     109.976 174.179  56.382  1.00 43.43 LIG 0.18  C 
ENDROOT
BRANCH 1 2
ATOM      2  C   PHE C   1     109.712 175.363  57.300  1.00 43.95 LIG 0.24  C 
ATOM      3 O    PHE C   1     109.749 175.208  58.525  1.00 42.64 LIG-0.27  OA
ATOM      4  N   LEU C   2     109.447 176.537  56.739  1.00 45.78 LIG-0.35  N 
ATOM      5 H    LEU C   2     109.528 176.701  55.899  1.00 45.78 LIG 0.16  HD
BRANCH 4 6
ATOM      6  CA  LEU C   2     108.987 177.660  57.533  1.00 46.28 LIG 0.16  C 
BRANCH 6 7
ATOM      7  C   LEU C   2     107.463 177.666  57.519  1.00 47.91 LIG 0.22  C 
ATOM      8 O    LEU C   2     106.839 177.128  56.603  1.00 50.38 LIG-0.29  OA
ENDBRANCH 6 7
BRANCH 6 9
ATOM      9  CB  LEU C   2     109.541 178.972  56.976  1.00 44.46 LIG 0.04  C 
BRANCH 9 10
ATOM     10  CG  LEU C   2     110.355 178.849  55.688  1.00 41.86 LIG-0.02  C 
ATOM     11  CD2 LEU C   2     111.213 180.086  55.484  1.00 43.32 LIG 0.01  C 
ATOM     12  CD1 LEU C   2     109.436 178.629  54.499  1.00 39.91 LIG 0.01  C 
ENDBRANCH 9 10
ENDBRANCH 6 9
ENDBRANCH 4 6
ENDBRANCH 1 2
BRANCH 1 13
ATOM     13  CB  PHE C   1     111.402 173.647  56.532  1.00 40.74 LIG 0.07  C 
BRANCH 13 14
ATOM     14  CG  PHE C   1     112.403 174.729  56.781  1.00 40.58 LIG-0.06  A 
ATOM     15  CD1 PHE C   1     113.106 174.776  57.972  1.00 41.26 LIG 0.01  A 
ATOM     16  CE1 PHE C   1     114.013 175.780  58.216  1.00 41.59 LIG 0.00  A 
ATOM     17  CZ  PHE C   1     114.221 176.761  57.269  1.00 39.95 LIG 0.00  A 
ATOM     18  CE2 PHE C   1     113.515 176.736  56.081  1.00 40.65 LIG 0.00  A 
ATOM     19  CD2 PHE C   1     112.609 175.728  55.844  1.00 39.59 LIG 0.01  A 
ENDBRANCH 13 14
ENDBRANCH 1 13
BRANCH 1 20
ATOM     20  N   PHE C   1     109.681 174.464  54.983  1.00 44.33 LIG-0.35  N 
ATOM     21 H    PHE C   1     110.372 174.677  54.517  1.00 44.33 LIG 0.16  HD
ATOM     22  C   SER C   0     108.448 174.398  54.484  1.00 45.23 LIG 0.25  C 
ATOM     23 O    SER C   0     107.454 174.156  55.173  1.00 45.89 LIG-0.27  OA
BRANCH 22 24
ATOM     24  CA  SER C   0     108.317 174.645  52.986  1.00 46.83 LIG 0.30  C 
BRANCH 24 25
ATOM     25  N   SER C   0     109.338 175.575  52.514  1.00 48.27 LIG-0.06  N 
ATOM     26 H2   SER C   0     109.319 175.611  51.625  1.00 48.27 LIG 0.28  HD
ATOM     27 H1   SER C   0     110.140 175.298  52.783  1.00 48.27 LIG 0.28  HD
ATOM     28 H3   SER C   0     109.178 176.385  52.847  1.00 48.27 LIG 0.28  HD
ENDBRANCH 24 25
BRANCH 24 29
ATOM     29  CB  SER C   0     108.405 173.315  52.231  1.00 47.94 LIG 0.21  C 
BRANCH 29 30
ATOM     30 OG   SER C   0     109.713 173.094  51.734  1.00 49.79 LIG-0.40  OA
ATOM     31 HG   SER C   0     109.802 172.284  51.530  1.00 49.79 LIG 0.21  HD
ENDBRANCH 29 30
ENDBRANCH 24 29
ENDBRANCH 22 24
ENDBRANCH 1 20
TORSDOF 12
ENDMDL
MODEL 80
USER: ADFR SOLUTION from run 197
USER: SCORE 9.397865 LL:  -2.009 LR:  -7.472 RR:   0.000 FEB:  -3.893
USER: RMSD 5.112465
USER: SEED 196
USER: STATUS no improvement in best in 10 clusters for 5 generations
USER: GENES 14
USER: genes 0 Translation |==|  0.58761 0.63372 0.21780
USER: genes 1 Rotation |==|  0.23561 0.37464 0.37098 0.88436
USER: genes 2 Torsion [N]-CA--C-[N] |==|  0.87460
USER: genes 3 Torsion [C]-N--CA-[C] |==|  0.15005
USER: genes 4 Torsion [N]-CA--C-[O] |==|  0.46133
USER: genes 5 Torsion [N]-CA--CB-[CG] |==|  0.74408
USER: genes 6 Torsion [CA]-CB--CG-[CD2] |==|  0.61715
USER: genes 7 Torsion [C]-CA--CB-[CG] |==|  0.48399
USER: genes 8 Torsion [CA]-CB--CG-[CD1] |==|  0.44160
USER: genes 9 Torsion [C]-CA--N-[C] |==|  0.84011
USER: genes 10 Torsion [N]-C--CA-[N] |==|  0.87655
USER: genes 11 Torsion [C]-CA--N-[H2] |==|  0.60572
USER: genes 12 Torsion [C]-CA--CB-[OG] |==|  0.82710
USER: genes 13 Torsion [CA]-CB--OG-[HG] |==|  0.31836
ROOT
ATOM      1  CA  PHE C   1     110.981 175.641  54.953  1.00 43.43 LIG 0.18  C 
ENDROOT
BRANCH 1 2
ATOM      2  C   PHE C   1     109.857 174.985  54.166  1.00 43.95 LIG 0.24  C 
ATOM      3 O    PHE C   1     110.088 174.506  53.051  1.00 42.64 LIG-0.27  OA
ATOM      4  N   LEU C   2     108.649 174.952  54.717  1.00 45.78 LIG-0.35  N 
ATOM      5 H    LEU C   2     108.483 175.171  55.533  1.00 45.78 LIG 0.16  HD
BRANCH 4 6
ATOM      6  CA  LEU C   2     107.489 174.532  53.956  1.00 46.28 LIG 0.16  C 
BRANCH 6 7
ATOM      7  C   LEU C   2     107.779 173.161  53.356  1.00 47.91 LIG 0.22  C 
ATOM      8 O    LEU C   2     106.873 172.475  52.881  1.00 50.38 LIG-0.29  OA
ENDBRANCH 6 7
BRANCH 6 9
ATOM      9  CB  LEU C   2     107.171 175.550  52.859  1.00 44.46 LIG 0.04  C 
BRANCH 9 10
ATOM     10  CG  LEU C   2     106.174 176.643  53.244  1.00 41.86 LIG-0.02  C 
ATOM     11  CD2 LEU C   2     105.194 176.888  52.109  1.00 43.32 LIG 0.01  C 
ATOM     12  CD1 LEU C   2     106.906 177.923  53.610  1.00 39.91 LIG 0.01  C 
ENDBRANCH 9 10
ENDBRANCH 6 9
ENDBRANCH 4 6
ENDBRANCH 1 2
BRANCH 1 13
ATOM     13  CB  PHE C   1     111.556 174.704  56.015  1.00 40.74 LIG 0.07  C 
BRANCH 13 14
ATOM     14  CG  PHE C   1     112.751 175.273  56.709  1.00 40.58 LIG-0.06  A 
ATOM     15  CD1 PHE C   1     113.136 174.797  57.951  1.00 41.26 LIG 0.01  A 
ATOM     16  CE1 PHE C   1     114.221 175.332  58.605  1.00 41.59 LIG 0.00  A 
ATOM     17  CZ  PHE C   1     114.932 176.361  58.024  1.00 39.95 LIG 0.00  A 
ATOM     18  CE2 PHE C   1     114.550 176.857  56.792  1.00 40.65 LIG 0.00  A 
ATOM     19  CD2 PHE C   1     113.463 176.318  56.144  1.00 39.59 LIG 0.01  A 
ENDBRANCH 13 14
ENDBRANCH 1 13
BRANCH 1 20
ATOM     20  N   PHE C   1     110.593 176.913  55.549  1.00 44.33 LIG-0.35  N 
ATOM     21 H    PHE C   1     110.689 176.942  56.403  1.00 44.33 LIG 0.16  HD
ATOM     22  C   SER C   0     110.134 177.933  54.824  1.00 45.23 LIG 0.25  C 
ATOM     23 O    SER C   0     109.939 177.862  53.609  1.00 45.89 LIG-0.27  OA
BRANCH 22 24
ATOM     24  CA  SER C   0     109.850 179.222  55.586  1.00 46.83 LIG 0.30  C 
BRANCH 24 25
ATOM     25  N   SER C   0     109.142 178.952  56.834  1.00 48.27 LIG-0.06  N 
ATOM     26 H2   SER C   0     108.538 179.589  56.976  1.00 48.27 LIG 0.28  HD
ATOM     27 H1   SER C   0     109.723 178.938  57.508  1.00 48.27 LIG 0.28  HD
ATOM     28 H3   SER C   0     108.734 178.163  56.779  1.00 48.27 LIG 0.28  HD
ENDBRANCH 24 25
BRANCH 24 29
ATOM     29  CB  SER C   0     111.161 179.965  55.857  1.00 47.94 LIG 0.21  C 
BRANCH 29 30
ATOM     30 OG   SER C   0     112.027 179.195  56.672  1.00 49.79 LIG-0.40  OA
ATOM     31 HG   SER C   0     112.713 178.987  56.234  1.00 49.79 LIG 0.21  HD
ENDBRANCH 29 30
ENDBRANCH 24 29
ENDBRANCH 22 24
ENDBRANCH 1 20
TORSDOF 12
ENDMDL
MODEL 81
USER: ADFR SOLUTION from run 26
USER: SCORE 9.757939 LL:  -2.299 LR:  -7.459 RR:   0.000 FEB:  -3.879
USER: RMSD 6.579967
USER: SEED 25
USER: STATUS no improvement in best in 23 clusters for 5 generations
USER: GENES 14
USER: genes 0 Translation |==|  0.64730 0.65126 0.27235
USER: genes 1 Rotation |==|  0.06620 0.31773 0.62934 0.60892
USER: genes 2 Torsion [N]-CA--C-[N] |==|  0.38023
USER: genes 3 Torsion [C]-N--CA-[C] |==|  0.17123
USER: genes 4 Torsion [N]-CA--C-[O] |==|  0.26275
USER: genes 5 Torsion [N]-CA--CB-[CG] |==|  0.78257
USER: genes 6 Torsion [CA]-CB--CG-[CD2] |==|  0.52290
USER: genes 7 Torsion [C]-CA--CB-[CG] |==|  0.78500
USER: genes 8 Torsion [CA]-CB--CG-[CD1] |==|  0.24161
USER: genes 9 Torsion [C]-CA--N-[C] |==|  0.82447
USER: genes 10 Torsion [N]-C--CA-[N] |==|  0.53245
USER: genes 11 Torsion [C]-CA--N-[H2] |==|  0.29664
USER: genes 12 Torsion [C]-CA--CB-[OG] |==|  0.29673
USER: genes 13 Torsion [CA]-CB--OG-[HG] |==|  0.13758
ROOT
ATOM      1  CA  PHE C   1     112.100 175.891  55.853  1.00 43.43 LIG 0.18  C 
ENDROOT
BRANCH 1 2
ATOM      2  C   PHE C   1     111.578 175.069  57.022  1.00 43.95 LIG 0.24  C 
ATOM      3 O    PHE C   1     110.534 175.407  57.590  1.00 42.64 LIG-0.27  OA
ATOM      4  N   LEU C   2     112.277 174.003  57.392  1.00 45.78 LIG-0.35  N 
ATOM      5 H    LEU C   2     112.938 173.679  56.947  1.00 45.78 LIG 0.16  HD
BRANCH 4 6
ATOM      6  CA  LEU C   2     111.963 173.289  58.615  1.00 46.28 LIG 0.16  C 
BRANCH 6 7
ATOM      7  C   LEU C   2     110.544 172.743  58.500  1.00 47.91 LIG 0.22  C 
ATOM      8 O    LEU C   2     110.340 171.594  58.107  1.00 50.38 LIG-0.29  OA
ENDBRANCH 6 7
BRANCH 6 9
ATOM      9  CB  LEU C   2     112.093 174.216  59.824  1.00 44.46 LIG 0.04  C 
BRANCH 9 10
ATOM     10  CG  LEU C   2     113.521 174.475  60.305  1.00 41.86 LIG-0.02  C 
ATOM     11  CD2 LEU C   2     113.507 175.236  61.620  1.00 43.32 LIG 0.01  C 
ATOM     12  CD1 LEU C   2     114.306 175.236  59.250  1.00 39.91 LIG 0.01  C 
ENDBRANCH 9 10
ENDBRANCH 6 9
ENDBRANCH 4 6
ENDBRANCH 1 2
BRANCH 1 13
ATOM     13  CB  PHE C   1     112.893 177.111  56.323  1.00 40.74 LIG 0.07  C 
BRANCH 13 14
ATOM     14  CG  PHE C   1     112.019 178.227  56.798  1.00 40.58 LIG-0.06  A 
ATOM     15  CD1 PHE C   1     111.587 178.272  58.112  1.00 41.26 LIG 0.01  A 
ATOM     16  CE1 PHE C   1     110.766 179.283  58.550  1.00 41.59 LIG 0.00  A 
ATOM     17  CZ  PHE C   1     110.356 180.263  57.670  1.00 39.95 LIG 0.00  A 
ATOM     18  CE2 PHE C   1     110.766 180.223  56.351  1.00 40.65 LIG 0.00  A 
ATOM     19  CD2 PHE C   1     111.588 179.207  55.919  1.00 39.59 LIG 0.01  A 
ENDBRANCH 13 14
ENDBRANCH 1 13
BRANCH 1 20
ATOM     20  N   PHE C   1     111.052 176.291  54.923  1.00 44.33 LIG-0.35  N 
ATOM     21 H    PHE C   1     110.939 177.141  54.867  1.00 44.33 LIG 0.16  HD
ATOM     22  C   SER C   0     110.340 175.407  54.225  1.00 45.23 LIG 0.25  C 
ATOM     23 O    SER C   0     110.463 174.187  54.357  1.00 45.89 LIG-0.27  OA
BRANCH 22 24
ATOM     24  CA  SER C   0     109.338 175.986  53.234  1.00 46.83 LIG 0.30  C 
BRANCH 24 25
ATOM     25  N   SER C   0     108.433 174.955  52.735  1.00 48.27 LIG-0.06  N 
ATOM     26 H2   SER C   0     107.629 175.063  53.099  1.00 48.27 LIG 0.28  HD
ATOM     27 H1   SER C   0     108.750 174.151  52.951  1.00 48.27 LIG 0.28  HD
ATOM     28 H3   SER C   0     108.369 175.019  51.850  1.00 48.27 LIG 0.28  HD
ENDBRANCH 24 25
BRANCH 24 29
ATOM     29  CB  SER C   0     108.552 177.123  53.894  1.00 47.94 LIG 0.21  C 
BRANCH 29 30
ATOM     30 OG   SER C   0     108.961 178.384  53.398  1.00 49.79 LIG-0.40  OA
ATOM     31 HG   SER C   0     108.967 178.367  52.559  1.00 49.79 LIG 0.21  HD
ENDBRANCH 29 30
ENDBRANCH 24 29
ENDBRANCH 22 24
ENDBRANCH 1 20
TORSDOF 12
ENDMDL
MODEL 82
USER: ADFR SOLUTION from run 111
USER: SCORE 9.481685 LL:  -2.171 LR:  -7.459 RR:   0.000 FEB:  -3.879
USER: RMSD 5.380160
USER: SEED 110
USER: STATUS no improvement in best in 16 clusters for 5 generations
USER: GENES 14
USER: genes 0 Translation |==|  0.72985 0.63496 0.38776
USER: genes 1 Rotation |==|  0.69790 0.64507 0.74123 0.86276
USER: genes 2 Torsion [N]-CA--C-[N] |==|  0.31112
USER: genes 3 Torsion [C]-N--CA-[C] |==|  0.81222
USER: genes 4 Torsion [N]-CA--C-[O] |==|  0.23093
USER: genes 5 Torsion [N]-CA--CB-[CG] |==|  0.81162
USER: genes 6 Torsion [CA]-CB--CG-[CD2] |==|  0.21129
USER: genes 7 Torsion [C]-CA--CB-[CG] |==|  0.15287
USER: genes 8 Torsion [CA]-CB--CG-[CD1] |==|  0.25776
USER: genes 9 Torsion [C]-CA--N-[C] |==|  0.76802
USER: genes 10 Torsion [N]-C--CA-[N] |==|  0.91533
USER: genes 11 Torsion [C]-CA--N-[H2] |==|  0.72756
USER: genes 12 Torsion [C]-CA--CB-[OG] |==|  0.52115
USER: genes 13 Torsion [CA]-CB--OG-[HG] |==|  0.67079
ROOT
ATOM      1  CA  PHE C   1     113.648 175.659  57.757  1.00 43.43 LIG 0.18  C 
ENDROOT
BRANCH 1 2
ATOM      2  C   PHE C   1     112.782 174.611  57.074  1.00 43.95 LIG 0.24  C 
ATOM      3 O    PHE C   1     113.153 174.112  56.007  1.00 42.64 LIG-0.27  OA
ATOM      4  N   LEU C   2     111.642 174.267  57.663  1.00 45.78 LIG-0.35  N 
ATOM      5 H    LEU C   2     111.415 174.509  58.457  1.00 45.78 LIG 0.16  HD
BRANCH 4 6
ATOM      6  CA  LEU C   2     110.670 173.434  56.983  1.00 46.28 LIG 0.16  C 
BRANCH 6 7
ATOM      7  C   LEU C   2     110.090 174.226  55.817  1.00 47.91 LIG 0.22  C 
ATOM      8 O    LEU C   2     110.680 174.282  54.737  1.00 50.38 LIG-0.29  OA
ENDBRANCH 6 7
BRANCH 6 9
ATOM      9  CB  LEU C   2     109.566 173.003  57.950  1.00 44.46 LIG 0.04  C 
BRANCH 9 10
ATOM     10  CG  LEU C   2     109.998 172.042  59.057  1.00 41.86 LIG-0.02  C 
ATOM     11  CD2 LEU C   2     110.764 172.790  60.136  1.00 43.32 LIG 0.01  C 
ATOM     12  CD1 LEU C   2     110.838 170.914  58.484  1.00 39.91 LIG 0.01  C 
ENDBRANCH 9 10
ENDBRANCH 6 9
ENDBRANCH 4 6
ENDBRANCH 1 2
BRANCH 1 13
ATOM     13  CB  PHE C   1     113.910 176.861  56.848  1.00 40.74 LIG 0.07  C 
BRANCH 13 14
ATOM     14  CG  PHE C   1     112.654 177.486  56.332  1.00 40.58 LIG-0.06  A 
ATOM     15  CD1 PHE C   1     112.066 178.541  57.007  1.00 41.26 LIG 0.01  A 
ATOM     16  CE1 PHE C   1     110.899 179.107  56.549  1.00 41.59 LIG 0.00  A 
ATOM     17  CZ  PHE C   1     110.299 178.613  55.410  1.00 39.95 LIG 0.00  A 
ATOM     18  CE2 PHE C   1     110.866 177.550  54.734  1.00 40.65 LIG 0.00  A 
ATOM     19  CD2 PHE C   1     112.034 176.989  55.198  1.00 39.59 LIG 0.01  A 
ENDBRANCH 13 14
ENDBRANCH 1 13
BRANCH 1 20
ATOM     20  N   PHE C   1     114.902 175.120  58.267  1.00 44.33 LIG-0.35  N 
ATOM     21 H    PHE C   1     115.570 175.230  57.738  1.00 44.33 LIG 0.16  HD
ATOM     22  C   SER C   0     114.991 174.514  59.450  1.00 45.23 LIG 0.25  C 
ATOM     23 O    SER C   0     114.015 174.302  60.175  1.00 45.89 LIG-0.27  OA
BRANCH 22 24
ATOM     24  CA  SER C   0     116.387 174.079  59.877  1.00 46.83 LIG 0.30  C 
BRANCH 24 25
ATOM     25  N   SER C   0     117.213 173.748  58.719  1.00 48.27 LIG-0.06  N 
ATOM     26 H2   SER C   0     117.213 172.867  58.597  1.00 48.27 LIG 0.28  HD
ATOM     27 H1   SER C   0     118.046 174.028  58.859  1.00 48.27 LIG 0.28  HD
ATOM     28 H3   SER C   0     116.884 174.149  57.996  1.00 48.27 LIG 0.28  HD
ENDBRANCH 24 25
BRANCH 24 29
ATOM     29  CB  SER C   0     117.043 175.183  60.712  1.00 47.94 LIG 0.21  C 
BRANCH 29 30
ATOM     30 OG   SER C   0     118.402 174.886  60.978  1.00 49.79 LIG-0.40  OA
ATOM     31 HG   SER C   0     118.517 174.820  61.807  1.00 49.79 LIG 0.21  HD
ENDBRANCH 29 30
ENDBRANCH 24 29
ENDBRANCH 22 24
ENDBRANCH 1 20
TORSDOF 12
ENDMDL
MODEL 83
USER: ADFR SOLUTION from run 147
USER: SCORE 9.179529 LL:  -2.005 LR:  -7.463 RR:   0.000 FEB:  -3.883
USER: RMSD 4.819636
USER: SEED 146
USER: STATUS no improvement in best in 12 clusters for 5 generations
USER: GENES 14
USER: genes 0 Translation |==|  0.57091 0.59543 0.28276
USER: genes 1 Rotation |==|  0.09202 0.38048 0.37167 0.72978
USER: genes 2 Torsion [N]-CA--C-[N] |==|  0.02827
USER: genes 3 Torsion [C]-N--CA-[C] |==|  0.18115
USER: genes 4 Torsion [N]-CA--C-[O] |==|  0.08668
USER: genes 5 Torsion [N]-CA--CB-[CG] |==|  0.75515
USER: genes 6 Torsion [CA]-CB--CG-[CD2] |==|  0.21611
USER: genes 7 Torsion [C]-CA--CB-[CG] |==|  0.45431
USER: genes 8 Torsion [CA]-CB--CG-[CD1] |==|  0.57182
USER: genes 9 Torsion [C]-CA--N-[C] |==|  0.19993
USER: genes 10 Torsion [N]-C--CA-[N] |==|  0.86592
USER: genes 11 Torsion [C]-CA--N-[H2] |==|  0.61773
USER: genes 12 Torsion [C]-CA--CB-[OG] |==|  0.82761
USER: genes 13 Torsion [CA]-CB--OG-[HG] |==|  0.49909
ROOT
ATOM      1  CA  PHE C   1     110.668 175.096  56.025  1.00 43.43 LIG 0.18  C 
ENDROOT
BRANCH 1 2
ATOM      2  C   PHE C   1     109.311 174.444  55.803  1.00 43.95 LIG 0.24  C 
ATOM      3 O    PHE C   1     109.054 173.364  56.345  1.00 42.64 LIG-0.27  OA
ATOM      4  N   LEU C   2     108.441 175.072  55.021  1.00 45.78 LIG-0.35  N 
ATOM      5 H    LEU C   2     108.545 175.873  54.726  1.00 45.78 LIG 0.16  HD
BRANCH 4 6
ATOM      6  CA  LEU C   2     107.213 174.427  54.596  1.00 46.28 LIG 0.16  C 
BRANCH 6 7
ATOM      7  C   LEU C   2     106.347 174.186  55.827  1.00 47.91 LIG 0.22  C 
ATOM      8 O    LEU C   2     106.391 174.954  56.790  1.00 50.38 LIG-0.29  OA
ENDBRANCH 6 7
BRANCH 6 9
ATOM      9  CB  LEU C   2     107.520 173.110  53.881  1.00 44.46 LIG 0.04  C 
BRANCH 9 10
ATOM     10  CG  LEU C   2     107.761 173.218  52.376  1.00 41.86 LIG-0.02  C 
ATOM     11  CD2 LEU C   2     109.160 173.745  52.100  1.00 43.32 LIG 0.01  C 
ATOM     12  CD1 LEU C   2     106.713 174.111  51.734  1.00 39.91 LIG 0.01  C 
ENDBRANCH 9 10
ENDBRANCH 6 9
ENDBRANCH 4 6
ENDBRANCH 1 2
BRANCH 1 13
ATOM     13  CB  PHE C   1     111.090 175.046  57.494  1.00 40.74 LIG 0.07  C 
BRANCH 13 14
ATOM     14  CG  PHE C   1     112.548 175.311  57.689  1.00 40.58 LIG-0.06  A 
ATOM     15  CD1 PHE C   1     113.211 174.810  58.795  1.00 41.26 LIG 0.01  A 
ATOM     16  CE1 PHE C   1     114.548 175.068  58.993  1.00 41.59 LIG 0.00  A 
ATOM     17  CZ  PHE C   1     115.237 175.844  58.085  1.00 39.95 LIG 0.00  A 
ATOM     18  CE2 PHE C   1     114.584 176.365  56.984  1.00 40.65 LIG 0.00  A 
ATOM     19  CD2 PHE C   1     113.247 176.103  56.793  1.00 39.59 LIG 0.01  A 
ENDBRANCH 13 14
ENDBRANCH 1 13
BRANCH 1 20
ATOM     20  N   PHE C   1     110.735 176.461  55.519  1.00 44.33 LIG-0.35  N 
ATOM     21 H    PHE C   1     111.213 176.547  54.809  1.00 44.33 LIG 0.16  HD
ATOM     22  C   SER C   0     110.106 177.475  56.111  1.00 45.23 LIG 0.25  C 
ATOM     23 O    SER C   0     109.475 177.354  57.163  1.00 45.89 LIG-0.27  OA
BRANCH 22 24
ATOM     24  CA  SER C   0     110.207 178.826  55.413  1.00 46.83 LIG 0.30  C 
BRANCH 24 25
ATOM     25  N   SER C   0     111.588 179.129  55.050  1.00 48.27 LIG-0.06  N 
ATOM     26 H2   SER C   0     111.762 179.983  55.231  1.00 48.27 LIG 0.28  HD
ATOM     27 H1   SER C   0     111.706 178.981  54.180  1.00 48.27 LIG 0.28  HD
ATOM     28 H3   SER C   0     112.139 178.608  55.516  1.00 48.27 LIG 0.28  HD
ENDBRANCH 24 25
BRANCH 24 29
ATOM     29  CB  SER C   0     109.306 178.839  54.175  1.00 47.94 LIG 0.21  C 
BRANCH 29 30
ATOM     30 OG   SER C   0     109.713 177.862  53.234  1.00 49.79 LIG-0.40  OA
ATOM     31 HG   SER C   0     109.203 177.885  52.567  1.00 49.79 LIG 0.21  HD
ENDBRANCH 29 30
ENDBRANCH 24 29
ENDBRANCH 22 24
ENDBRANCH 1 20
TORSDOF 12
ENDMDL
MODEL 84
USER: ADFR SOLUTION from run 81
USER: SCORE 9.204106 LL:  -1.808 LR:  -7.453 RR:   0.000 FEB:  -3.874
USER: RMSD 7.788577
USER: SEED 80
USER: STATUS no improvement in best in 14 clusters for 5 generations
USER: GENES 14
USER: genes 0 Translation |==|  0.47128 0.53045 0.33536
USER: genes 1 Rotation |==|  0.50131 0.00877 0.50140 0.59323
USER: genes 2 Torsion [N]-CA--C-[N] |==|  0.35011
USER: genes 3 Torsion [C]-N--CA-[C] |==|  0.64447
USER: genes 4 Torsion [N]-CA--C-[O] |==|  0.73093
USER: genes 5 Torsion [N]-CA--CB-[CG] |==|  0.12908
USER: genes 6 Torsion [CA]-CB--CG-[CD2] |==|  0.72827
USER: genes 7 Torsion [C]-CA--CB-[CG] |==|  0.58380
USER: genes 8 Torsion [CA]-CB--CG-[CD1] |==|  0.82748
USER: genes 9 Torsion [C]-CA--N-[C] |==|  0.81573
USER: genes 10 Torsion [N]-C--CA-[N] |==|  0.34118
USER: genes 11 Torsion [C]-CA--N-[H2] |==|  0.13535
USER: genes 12 Torsion [C]-CA--CB-[OG] |==|  0.88645
USER: genes 13 Torsion [CA]-CB--OG-[HG] |==|  0.82981
ROOT
ATOM      1  CA  PHE C   1     108.800 174.170  56.892  1.00 43.43 LIG 0.18  C 
ENDROOT
BRANCH 1 2
ATOM      2  C   PHE C   1     110.250 173.772  57.119  1.00 43.95 LIG 0.24  C 
ATOM      3 O    PHE C   1     110.615 172.619  56.867  1.00 42.64 LIG-0.27  OA
ATOM      4  N   LEU C   2     111.082 174.695  57.588  1.00 45.78 LIG-0.35  N 
ATOM      5 H    LEU C   2     110.886 175.530  57.662  1.00 45.78 LIG 0.16  HD
BRANCH 4 6
ATOM      6  CA  LEU C   2     112.421 174.347  58.022  1.00 46.28 LIG 0.16  C 
BRANCH 6 7
ATOM      7  C   LEU C   2     112.629 174.899  59.427  1.00 47.91 LIG 0.22  C 
ATOM      8 O    LEU C   2     113.198 175.977  59.604  1.00 50.38 LIG-0.29  OA
ENDBRANCH 6 7
BRANCH 6 9
ATOM      9  CB  LEU C   2     113.461 174.914  57.055  1.00 44.46 LIG 0.04  C 
BRANCH 9 10
ATOM     10  CG  LEU C   2     113.258 176.374  56.651  1.00 41.86 LIG-0.02  C 
ATOM     11  CD2 LEU C   2     112.554 176.458  55.307  1.00 43.32 LIG 0.01  C 
ATOM     12  CD1 LEU C   2     114.589 177.104  56.609  1.00 39.91 LIG 0.01  C 
ENDBRANCH 9 10
ENDBRANCH 6 9
ENDBRANCH 4 6
ENDBRANCH 1 2
BRANCH 1 13
ATOM     13  CB  PHE C   1     107.866 173.535  57.924  1.00 40.74 LIG 0.07  C 
BRANCH 13 14
ATOM     14  CG  PHE C   1     106.494 173.279  57.389  1.00 40.58 LIG-0.06  A 
ATOM     15  CD1 PHE C   1     105.700 174.329  56.961  1.00 41.26 LIG 0.01  A 
ATOM     16  CE1 PHE C   1     104.429 174.103  56.488  1.00 41.59 LIG 0.00  A 
ATOM     17  CZ  PHE C   1     103.931 172.818  56.446  1.00 39.95 LIG 0.00  A 
ATOM     18  CE2 PHE C   1     104.707 171.761  56.885  1.00 40.65 LIG 0.00  A 
ATOM     19  CD2 PHE C   1     105.978 171.994  57.357  1.00 39.59 LIG 0.01  A 
ENDBRANCH 13 14
ENDBRANCH 1 13
BRANCH 1 20
ATOM     20  N   PHE C   1     108.335 173.888  55.540  1.00 44.33 LIG-0.35  N 
ATOM     21 H    PHE C   1     107.727 173.281  55.499  1.00 44.33 LIG 0.16  HD
ATOM     22  C   SER C   0     108.817 174.521  54.472  1.00 45.23 LIG 0.25  C 
ATOM     23 O    SER C   0     109.734 175.343  54.532  1.00 45.89 LIG-0.27  OA
BRANCH 22 24
ATOM     24  CA  SER C   0     108.170 174.171  53.137  1.00 46.83 LIG 0.30  C 
BRANCH 24 25
ATOM     25  N   SER C   0     107.632 175.361  52.485  1.00 48.27 LIG-0.06  N 
ATOM     26 H2   SER C   0     108.249 176.004  52.484  1.00 48.27 LIG 0.28  HD
ATOM     27 H1   SER C   0     106.912 175.642  52.925  1.00 48.27 LIG 0.28  HD
ATOM     28 H3   SER C   0     107.408 175.164  51.646  1.00 48.27 LIG 0.28  HD
ENDBRANCH 24 25
BRANCH 24 29
ATOM     29  CB  SER C   0     109.188 173.471  52.234  1.00 47.94 LIG 0.21  C 
BRANCH 29 30
ATOM     30 OG   SER C   0     110.463 174.080  52.329  1.00 49.79 LIG-0.40  OA
ATOM     31 HG   SER C   0     110.411 174.880  52.079  1.00 49.79 LIG 0.21  HD
ENDBRANCH 29 30
ENDBRANCH 24 29
ENDBRANCH 22 24
ENDBRANCH 1 20
TORSDOF 12
ENDMDL
MODEL 85
USER: ADFR SOLUTION from run 50
USER: SCORE 9.835853 LL:  -2.408 LR:  -7.447 RR:   0.000 FEB:  -3.868
USER: RMSD 6.858579
USER: SEED 49
USER: STATUS no improvement in best in 31 clusters for 5 generations
USER: GENES 14
USER: genes 0 Translation |==|  0.56183 0.65476 0.21148
USER: genes 1 Rotation |==|  0.35273 0.67967 0.12993 0.74306
USER: genes 2 Torsion [N]-CA--C-[N] |==|  0.93058
USER: genes 3 Torsion [C]-N--CA-[C] |==|  0.58548
USER: genes 4 Torsion [N]-CA--C-[O] |==|  0.05278
USER: genes 5 Torsion [N]-CA--CB-[CG] |==|  0.80783
USER: genes 6 Torsion [CA]-CB--CG-[CD2] |==|  0.61852
USER: genes 7 Torsion [C]-CA--CB-[CG] |==|  0.26416
USER: genes 8 Torsion [CA]-CB--CG-[CD1] |==|  0.54559
USER: genes 9 Torsion [C]-CA--N-[C] |==|  0.80716
USER: genes 10 Torsion [N]-C--CA-[N] |==|  0.56328
USER: genes 11 Torsion [C]-CA--N-[H2] |==|  0.09679
USER: genes 12 Torsion [C]-CA--CB-[OG] |==|  0.56557
USER: genes 13 Torsion [CA]-CB--OG-[HG] |==|  0.50816
ROOT
ATOM      1  CA  PHE C   1     110.497 175.941  54.848  1.00 43.43 LIG 0.18  C 
ENDROOT
BRANCH 1 2
ATOM      2  C   PHE C   1     110.156 177.411  54.652  1.00 43.95 LIG 0.24  C 
ATOM      3 O    PHE C   1     109.710 177.796  53.567  1.00 42.64 LIG-0.27  OA
ATOM      4  N   LEU C   2     110.357 178.237  55.673  1.00 45.78 LIG-0.35  N 
ATOM      5 H    LEU C   2     110.554 177.982  56.470  1.00 45.78 LIG 0.16  HD
BRANCH 4 6
ATOM      6  CA  LEU C   2     110.252 179.673  55.506  1.00 46.28 LIG 0.16  C 
BRANCH 6 7
ATOM      7  C   LEU C   2     111.210 180.341  56.485  1.00 47.91 LIG 0.22  C 
ATOM      8 O    LEU C   2     112.141 179.710  56.987  1.00 50.38 LIG-0.29  OA
ENDBRANCH 6 7
BRANCH 6 9
ATOM      9  CB  LEU C   2     108.815 180.137  55.750  1.00 44.46 LIG 0.04  C 
BRANCH 9 10
ATOM     10  CG  LEU C   2     107.797 179.709  54.693  1.00 41.86 LIG-0.02  C 
ATOM     11  CD2 LEU C   2     106.863 180.861  54.361  1.00 43.32 LIG 0.01  C 
ATOM     12  CD1 LEU C   2     107.011 178.500  55.172  1.00 39.91 LIG 0.01  C 
ENDBRANCH 9 10
ENDBRANCH 6 9
ENDBRANCH 4 6
ENDBRANCH 1 2
BRANCH 1 13
ATOM     13  CB  PHE C   1     109.251 175.099  55.127  1.00 40.74 LIG 0.07  C 
BRANCH 13 14
ATOM     14  CG  PHE C   1     108.691 174.463  53.895  1.00 40.58 LIG-0.06  A 
ATOM     15  CD1 PHE C   1     107.403 173.957  53.889  1.00 41.26 LIG 0.01  A 
ATOM     16  CE1 PHE C   1     106.890 173.351  52.766  1.00 41.59 LIG 0.00  A 
ATOM     17  CZ  PHE C   1     107.668 173.236  51.633  1.00 39.95 LIG 0.00  A 
ATOM     18  CE2 PHE C   1     108.961 173.723  51.630  1.00 40.65 LIG 0.00  A 
ATOM     19  CD2 PHE C   1     109.469 174.327  52.757  1.00 39.59 LIG 0.01  A 
ENDBRANCH 13 14
ENDBRANCH 1 13
BRANCH 1 20
ATOM     20  N   PHE C   1     111.504 175.721  55.879  1.00 44.33 LIG-0.35  N 
ATOM     21 H    PHE C   1     111.201 175.341  56.588  1.00 44.33 LIG 0.16  HD
ATOM     22  C   SER C   0     112.777 176.082  55.724  1.00 45.23 LIG 0.25  C 
ATOM     23 O    SER C   0     113.190 176.685  54.731  1.00 45.89 LIG-0.27  OA
BRANCH 22 24
ATOM     24  CA  SER C   0     113.722 175.709  56.860  1.00 46.83 LIG 0.30  C 
BRANCH 24 25
ATOM     25  N   SER C   0     114.901 176.569  56.868  1.00 48.27 LIG-0.06  N 
ATOM     26 H2   SER C   0     114.672 177.389  56.611  1.00 48.27 LIG 0.28  HD
ATOM     27 H1   SER C   0     115.511 176.242  56.308  1.00 48.27 LIG 0.28  HD
ATOM     28 H3   SER C   0     115.241 176.599  57.690  1.00 48.27 LIG 0.28  HD
ENDBRANCH 24 25
BRANCH 24 29
ATOM     29  CB  SER C   0     112.983 175.789  58.198  1.00 47.94 LIG 0.21  C 
BRANCH 29 30
ATOM     30 OG   SER C   0     113.886 175.985  59.272  1.00 49.79 LIG-0.40  OA
ATOM     31 HG   SER C   0     113.463 175.986  59.997  1.00 49.79 LIG 0.21  HD
ENDBRANCH 29 30
ENDBRANCH 24 29
ENDBRANCH 22 24
ENDBRANCH 1 20
TORSDOF 12
ENDMDL
MODEL 86
USER: ADFR SOLUTION from run 89
USER: SCORE 9.342173 LL:  -1.968 LR:  -7.452 RR:   0.000 FEB:  -3.873
USER: RMSD 8.081945
USER: SEED 88
USER: STATUS no improvement in best in 22 clusters for 5 generations
USER: GENES 14
USER: genes 0 Translation |==|  0.48965 0.69222 0.19102
USER: genes 1 Rotation |==|  0.78578 0.22585 0.21426 0.60735
USER: genes 2 Torsion [N]-CA--C-[N] |==|  0.40522
USER: genes 3 Torsion [C]-N--CA-[C] |==|  0.61082
USER: genes 4 Torsion [N]-CA--C-[O] |==|  0.10148
USER: genes 5 Torsion [N]-CA--CB-[CG] |==|  0.93482
USER: genes 6 Torsion [CA]-CB--CG-[CD2] |==|  0.76738
USER: genes 7 Torsion [C]-CA--CB-[CG] |==|  0.48464
USER: genes 8 Torsion [CA]-CB--CG-[CD1] |==|  0.88910
USER: genes 9 Torsion [C]-CA--N-[C] |==|  0.75594
USER: genes 10 Torsion [N]-C--CA-[N] |==|  0.75820
USER: genes 11 Torsion [C]-CA--N-[H2] |==|  0.92180
USER: genes 12 Torsion [C]-CA--CB-[OG] |==|  0.55083
USER: genes 13 Torsion [CA]-CB--OG-[HG] |==|  0.01601
ROOT
ATOM      1  CA  PHE C   1     109.144 176.475  54.511  1.00 43.43 LIG 0.18  C 
ENDROOT
BRANCH 1 2
ATOM      2  C   PHE C   1     110.279 177.421  54.872  1.00 43.95 LIG 0.24  C 
ATOM      3 O    PHE C   1     110.490 178.419  54.175  1.00 42.64 LIG-0.27  OA
ATOM      4  N   LEU C   2     111.012 177.132  55.941  1.00 45.78 LIG-0.35  N 
ATOM      5 H    LEU C   2     110.819 176.515  56.508  1.00 45.78 LIG 0.16  HD
BRANCH 4 6
ATOM      6  CA  LEU C   2     112.230 177.864  56.234  1.00 46.28 LIG 0.16  C 
BRANCH 6 7
ATOM      7  C   LEU C   2     113.274 176.875  56.739  1.00 47.91 LIG 0.22  C 
ATOM      8 O    LEU C   2     113.345 175.738  56.270  1.00 50.38 LIG-0.29  OA
ENDBRANCH 6 7
BRANCH 6 9
ATOM      9  CB  LEU C   2     111.963 178.952  57.275  1.00 44.46 LIG 0.04  C 
BRANCH 9 10
ATOM     10  CG  LEU C   2     110.515 179.431  57.370  1.00 41.86 LIG-0.02  C 
ATOM     11  CD2 LEU C   2     110.239 180.493  56.319  1.00 43.32 LIG 0.01  C 
ATOM     12  CD1 LEU C   2     110.222 179.963  58.762  1.00 39.91 LIG 0.01  C 
ENDBRANCH 9 10
ENDBRANCH 6 9
ENDBRANCH 4 6
ENDBRANCH 1 2
BRANCH 1 13
ATOM     13  CB  PHE C   1     109.614 175.346  53.592  1.00 40.74 LIG 0.07  C 
BRANCH 13 14
ATOM     14  CG  PHE C   1     108.550 174.330  53.329  1.00 40.58 LIG-0.06  A 
ATOM     15  CD1 PHE C   1     107.701 173.921  54.342  1.00 41.26 LIG 0.01  A 
ATOM     16  CE1 PHE C   1     106.734 172.970  54.112  1.00 41.59 LIG 0.00  A 
ATOM     17  CZ  PHE C   1     106.612 172.407  52.859  1.00 39.95 LIG 0.00  A 
ATOM     18  CE2 PHE C   1     107.463 172.793  51.841  1.00 40.65 LIG 0.00  A 
ATOM     19  CD2 PHE C   1     108.428 173.745  52.079  1.00 39.59 LIG 0.01  A 
ENDBRANCH 13 14
ENDBRANCH 1 13
BRANCH 1 20
ATOM     20  N   PHE C   1     107.993 177.158  53.935  1.00 44.33 LIG-0.35  N 
ATOM     21 H    PHE C   1     108.008 177.204  53.076  1.00 44.33 LIG 0.16  HD
ATOM     22  C   SER C   0     107.012 177.661  54.682  1.00 45.23 LIG 0.25  C 
ATOM     23 O    SER C   0     107.029 177.648  55.915  1.00 45.89 LIG-0.27  OA
BRANCH 22 24
ATOM     24  CA  SER C   0     105.839 178.272  53.925  1.00 46.83 LIG 0.30  C 
BRANCH 24 25
ATOM     25  N   SER C   0     106.088 179.675  53.609  1.00 48.27 LIG-0.06  N 
ATOM     26 H2   SER C   0     106.633 180.025  54.220  1.00 48.27 LIG 0.28  HD
ATOM     27 H1   SER C   0     105.318 180.121  53.609  1.00 48.27 LIG 0.28  HD
ATOM     28 H3   SER C   0     106.466 179.736  52.805  1.00 48.27 LIG 0.28  HD
ENDBRANCH 24 25
BRANCH 24 29
ATOM     29  CB  SER C   0     105.569 177.469  52.649  1.00 47.94 LIG 0.21  C 
BRANCH 29 30
ATOM     30 OG   SER C   0     104.795 178.215  51.728  1.00 49.79 LIG-0.40  OA
ATOM     31 HG   SER C   0     104.690 178.996  52.018  1.00 49.79 LIG 0.21  HD
ENDBRANCH 29 30
ENDBRANCH 24 29
ENDBRANCH 22 24
ENDBRANCH 1 20
TORSDOF 12
ENDMDL
MODEL 87
USER: ADFR SOLUTION from run 96
USER: SCORE 9.491765 LL:  -2.275 LR:  -7.420 RR:   0.000 FEB:  -3.840
USER: RMSD 6.232522
USER: SEED 95
USER: STATUS no improvement in best in 18 clusters for 5 generations
USER: GENES 14
USER: genes 0 Translation |==|  0.54159 0.56629 0.20484
USER: genes 1 Rotation |==|  0.89301 0.72747 0.29072 0.50079
USER: genes 2 Torsion [N]-CA--C-[N] |==|  0.42264
USER: genes 3 Torsion [C]-N--CA-[C] |==|  0.57118
USER: genes 4 Torsion [N]-CA--C-[O] |==|  0.24144
USER: genes 5 Torsion [N]-CA--CB-[CG] |==|  0.45281
USER: genes 6 Torsion [CA]-CB--CG-[CD2] |==|  0.54115
USER: genes 7 Torsion [C]-CA--CB-[CG] |==|  0.13894
USER: genes 8 Torsion [CA]-CB--CG-[CD1] |==|  0.14613
USER: genes 9 Torsion [C]-CA--N-[C] |==|  0.56863
USER: genes 10 Torsion [N]-C--CA-[N] |==|  0.76677
USER: genes 11 Torsion [C]-CA--N-[H2] |==|  0.07839
USER: genes 12 Torsion [C]-CA--CB-[OG] |==|  0.59756
USER: genes 13 Torsion [CA]-CB--OG-[HG] |==|  0.51906
ROOT
ATOM      1  CA  PHE C   1     110.118 174.681  54.739  1.00 43.43 LIG 0.18  C 
ENDROOT
BRANCH 1 2
ATOM      2  C   PHE C   1     110.013 174.300  56.208  1.00 43.95 LIG 0.24  C 
ATOM      3 O    PHE C   1     108.901 174.176  56.731  1.00 42.64 LIG-0.27  OA
ATOM      4  N   LEU C   2     111.141 174.114  56.883  1.00 45.78 LIG-0.35  N 
ATOM      5 H    LEU C   2     111.921 174.079  56.523  1.00 45.78 LIG 0.16  HD
BRANCH 4 6
ATOM      6  CA  LEU C   2     111.134 173.952  58.325  1.00 46.28 LIG 0.16  C 
BRANCH 6 7
ATOM      7  C   LEU C   2     112.490 174.391  58.864  1.00 47.91 LIG 0.22  C 
ATOM      8 O    LEU C   2     112.705 175.572  59.144  1.00 50.38 LIG-0.29  OA
ENDBRANCH 6 7
BRANCH 6 9
ATOM      9  CB  LEU C   2     110.846 172.496  58.697  1.00 44.46 LIG 0.04  C 
BRANCH 9 10
ATOM     10  CG  LEU C   2     111.202 172.101  60.130  1.00 41.86 LIG-0.02  C 
ATOM     11  CD2 LEU C   2     111.220 170.588  60.272  1.00 43.32 LIG 0.01  C 
ATOM     12  CD1 LEU C   2     110.224 172.723  61.111  1.00 39.91 LIG 0.01  C 
ENDBRANCH 9 10
ENDBRANCH 6 9
ENDBRANCH 4 6
ENDBRANCH 1 2
BRANCH 1 13
ATOM     13  CB  PHE C   1     110.361 176.179  54.554  1.00 40.74 LIG 0.07  C 
BRANCH 13 14
ATOM     14  CG  PHE C   1     111.486 176.694  55.393  1.00 40.58 LIG-0.06  A 
ATOM     15  CD1 PHE C   1     112.729 176.087  55.352  1.00 41.26 LIG 0.01  A 
ATOM     16  CE1 PHE C   1     113.762 176.542  56.137  1.00 41.59 LIG 0.00  A 
ATOM     17  CZ  PHE C   1     113.559 177.611  56.984  1.00 39.95 LIG 0.00  A 
ATOM     18  CE2 PHE C   1     112.319 178.219  57.047  1.00 40.65 LIG 0.00  A 
ATOM     19  CD2 PHE C   1     111.290 177.757  56.259  1.00 39.59 LIG 0.01  A 
ENDBRANCH 13 14
ENDBRANCH 1 13
BRANCH 1 20
ATOM     20  N   PHE C   1     108.969 174.248  53.954  1.00 44.33 LIG-0.35  N 
ATOM     21 H    PHE C   1     108.250 174.146  54.414  1.00 44.33 LIG 0.16  HD
ATOM     22  C   SER C   0     109.039 174.035  52.641  1.00 45.23 LIG 0.25  C 
ATOM     23 O    SER C   0     110.088 174.121  51.999  1.00 45.89 LIG-0.27  OA
BRANCH 22 24
ATOM     24  CA  SER C   0     107.731 173.666  51.951  1.00 46.83 LIG 0.30  C 
BRANCH 24 25
ATOM     25  N   SER C   0     107.460 172.236  52.065  1.00 48.27 LIG-0.06  N 
ATOM     26 H2   SER C   0     107.835 171.921  52.808  1.00 48.27 LIG 0.28  HD
ATOM     27 H1   SER C   0     107.799 171.812  51.359  1.00 48.27 LIG 0.28  HD
ATOM     28 H3   SER C   0     106.581 172.102  52.097  1.00 48.27 LIG 0.28  HD
ENDBRANCH 24 25
BRANCH 24 29
ATOM     29  CB  SER C   0     106.581 174.484  52.546  1.00 47.94 LIG 0.21  C 
BRANCH 29 30
ATOM     30 OG   SER C   0     105.384 173.729  52.592  1.00 49.79 LIG-0.40  OA
ATOM     31 HG   SER C   0     104.750 174.223  52.832  1.00 49.79 LIG 0.21  HD
ENDBRANCH 29 30
ENDBRANCH 24 29
ENDBRANCH 22 24
ENDBRANCH 1 20
TORSDOF 12
ENDMDL
MODEL 88
USER: ADFR SOLUTION from run 14
USER: SCORE 9.413437 LL:  -2.035 LR:  -7.413 RR:   0.000 FEB:  -3.833
USER: RMSD 6.521717
USER: SEED 728656
USER: STATUS no improvement in best in 19 clusters for 5 generations
USER: GENES 14
USER: genes 0 Translation |==|  0.44715 0.61159 0.30181
USER: genes 1 Rotation |==|  0.37247 0.92363 0.72979 0.53832
USER: genes 2 Torsion [N]-CA--C-[N] |==|  0.35926
USER: genes 3 Torsion [C]-N--CA-[C] |==|  0.17062
USER: genes 4 Torsion [N]-CA--C-[O] |==|  0.39598
USER: genes 5 Torsion [N]-CA--CB-[CG] |==|  0.78607
USER: genes 6 Torsion [CA]-CB--CG-[CD2] |==|  0.51188
USER: genes 7 Torsion [C]-CA--CB-[CG] |==|  0.73917
USER: genes 8 Torsion [CA]-CB--CG-[CD1] |==|  0.61400
USER: genes 9 Torsion [C]-CA--N-[C] |==|  0.82262
USER: genes 10 Torsion [N]-C--CA-[N] |==|  0.91214
USER: genes 11 Torsion [C]-CA--N-[H2] |==|  0.35549
USER: genes 12 Torsion [C]-CA--CB-[OG] |==|  0.62086
USER: genes 13 Torsion [CA]-CB--OG-[HG] |==|  0.55306
ROOT
ATOM      1  CA  PHE C   1     108.347 175.326  56.339  1.00 43.43 LIG 0.18  C 
ENDROOT
BRANCH 1 2
ATOM      2  C   PHE C   1     109.715 174.996  56.917  1.00 43.95 LIG 0.24  C 
ATOM      3 O    PHE C   1     110.665 174.782  56.157  1.00 42.64 LIG-0.27  OA
ATOM      4  N   LEU C   2     109.836 174.949  58.238  1.00 45.78 LIG-0.35  N 
ATOM      5 H    LEU C   2     109.227 175.205  58.790  1.00 45.78 LIG 0.16  HD
BRANCH 4 6
ATOM      6  CA  LEU C   2     111.045 174.445  58.862  1.00 46.28 LIG 0.16  C 
BRANCH 6 7
ATOM      7  C   LEU C   2     112.208 175.335  58.441  1.00 47.91 LIG 0.22  C 
ATOM      8 O    LEU C   2     113.110 175.612  59.234  1.00 50.38 LIG-0.29  OA
ENDBRANCH 6 7
BRANCH 6 9
ATOM      9  CB  LEU C   2     111.294 172.993  58.452  1.00 44.46 LIG 0.04  C 
BRANCH 9 10
ATOM     10  CG  LEU C   2     110.424 171.951  59.156  1.00 41.86 LIG-0.02  C 
ATOM     11  CD2 LEU C   2     110.838 170.549  58.741  1.00 43.32 LIG 0.01  C 
ATOM     12  CD1 LEU C   2     108.956 172.192  58.850  1.00 39.91 LIG 0.01  C 
ENDBRANCH 9 10
ENDBRANCH 6 9
ENDBRANCH 4 6
ENDBRANCH 1 2
BRANCH 1 13
ATOM     13  CB  PHE C   1     107.658 174.089  55.762  1.00 40.74 LIG 0.07  C 
BRANCH 13 14
ATOM     14  CG  PHE C   1     107.898 173.918  54.297  1.00 40.58 LIG-0.06  A 
ATOM     15  CD1 PHE C   1     106.872 173.518  53.458  1.00 41.26 LIG 0.01  A 
ATOM     16  CE1 PHE C   1     107.092 173.338  52.113  1.00 41.59 LIG 0.00  A 
ATOM     17  CZ  PHE C   1     108.350 173.549  51.589  1.00 39.95 LIG 0.00  A 
ATOM     18  CE2 PHE C   1     109.388 173.934  52.417  1.00 40.65 LIG 0.00  A 
ATOM     19  CD2 PHE C   1     109.161 174.111  53.762  1.00 39.59 LIG 0.01  A 
ENDBRANCH 13 14
ENDBRANCH 1 13
BRANCH 1 20
ATOM     20  N   PHE C   1     108.388 176.396  55.350  1.00 44.33 LIG-0.35  N 
ATOM     21 H    PHE C   1     108.156 176.150  54.560  1.00 44.33 LIG 0.16  HD
ATOM     22  C   SER C   0     108.754 177.640  55.657  1.00 45.23 LIG 0.25  C 
ATOM     23 O    SER C   0     109.147 177.970  56.779  1.00 45.89 LIG-0.27  OA
BRANCH 22 24
ATOM     24  CA  SER C   0     108.665 178.662  54.530  1.00 46.83 LIG 0.30  C 
BRANCH 24 25
ATOM     25  N   SER C   0     108.918 178.040  53.234  1.00 48.27 LIG-0.06  N 
ATOM     26 H2   SER C   0     108.257 178.242  52.673  1.00 48.27 LIG 0.28  HD
ATOM     27 H1   SER C   0     108.964 177.156  53.332  1.00 48.27 LIG 0.28  HD
ATOM     28 H3   SER C   0     109.688 178.341  52.906  1.00 48.27 LIG 0.28  HD
ENDBRANCH 24 25
BRANCH 24 29
ATOM     29  CB  SER C   0     107.290 179.336  54.548  1.00 47.94 LIG 0.21  C 
BRANCH 29 30
ATOM     30 OG   SER C   0     106.758 179.450  53.240  1.00 49.79 LIG-0.40  OA
ATOM     31 HG   SER C   0     106.155 180.035  53.233  1.00 49.79 LIG 0.21  HD
ENDBRANCH 29 30
ENDBRANCH 24 29
ENDBRANCH 22 24
ENDBRANCH 1 20
TORSDOF 12
ENDMDL
MODEL 89
USER: ADFR SOLUTION from run 103
USER: SCORE 9.185644 LL:  -1.871 LR:  -7.399 RR:   0.000 FEB:  -3.819
USER: RMSD 4.525639
USER: SEED 102
USER: STATUS no improvement in best in 11 clusters for 5 generations
USER: GENES 14
USER: genes 0 Translation |==|  0.49808 0.54598 0.34622
USER: genes 1 Rotation |==|  0.02759 0.37462 0.46212 0.59838
USER: genes 2 Torsion [N]-CA--C-[N] |==|  0.43541
USER: genes 3 Torsion [C]-N--CA-[C] |==|  0.56028
USER: genes 4 Torsion [N]-CA--C-[O] |==|  0.03026
USER: genes 5 Torsion [N]-CA--CB-[CG] |==|  0.33965
USER: genes 6 Torsion [CA]-CB--CG-[CD2] |==|  0.60645
USER: genes 7 Torsion [C]-CA--CB-[CG] |==|  0.49544
USER: genes 8 Torsion [CA]-CB--CG-[CD1] |==|  0.76615
USER: genes 9 Torsion [C]-CA--N-[C] |==|  0.63133
USER: genes 10 Torsion [N]-C--CA-[N] |==|  0.69705
USER: genes 11 Torsion [C]-CA--N-[H2] |==|  0.39589
USER: genes 12 Torsion [C]-CA--CB-[OG] |==|  0.39367
USER: genes 13 Torsion [CA]-CB--OG-[HG] |==|  0.15807
ROOT
ATOM      1  CA  PHE C   1     109.302 174.391  57.072  1.00 43.43 LIG 0.18  C 
ENDROOT
BRANCH 1 2
ATOM      2  C   PHE C   1     107.972 173.851  57.576  1.00 43.95 LIG 0.24  C 
ATOM      3 O    PHE C   1     106.920 174.408  57.246  1.00 42.64 LIG-0.27  OA
ATOM      4  N   LEU C   2     107.994 172.785  58.367  1.00 45.78 LIG-0.35  N 
ATOM      5 H    LEU C   2     108.695 172.309  58.519  1.00 45.78 LIG 0.16  HD
BRANCH 4 6
ATOM      6  CA  LEU C   2     106.798 172.333  59.050  1.00 46.28 LIG 0.16  C 
BRANCH 6 7
ATOM      7  C   LEU C   2     107.219 171.487  60.246  1.00 47.91 LIG 0.22  C 
ATOM      8 O    LEU C   2     108.395 171.450  60.610  1.00 50.38 LIG-0.29  OA
ENDBRANCH 6 7
BRANCH 6 9
ATOM      9  CB  LEU C   2     105.910 171.529  58.100  1.00 44.46 LIG 0.04  C 
BRANCH 9 10
ATOM     10  CG  LEU C   2     105.588 170.103  58.548  1.00 41.86 LIG-0.02  C 
ATOM     11  CD2 LEU C   2     105.588 169.161  57.355  1.00 43.32 LIG 0.01  C 
ATOM     12  CD1 LEU C   2     104.251 170.062  59.266  1.00 39.91 LIG 0.01  C 
ENDBRANCH 9 10
ENDBRANCH 6 9
ENDBRANCH 4 6
ENDBRANCH 1 2
BRANCH 1 13
ATOM     13  CB  PHE C   1     110.033 175.199  58.145  1.00 40.74 LIG 0.07  C 
BRANCH 13 14
ATOM     14  CG  PHE C   1     111.361 175.709  57.686  1.00 40.58 LIG-0.06  A 
ATOM     15  CD1 PHE C   1     112.485 174.904  57.758  1.00 41.26 LIG 0.01  A 
ATOM     16  CE1 PHE C   1     113.715 175.374  57.358  1.00 41.59 LIG 0.00  A 
ATOM     17  CZ  PHE C   1     113.835 176.665  56.888  1.00 39.95 LIG 0.00  A 
ATOM     18  CE2 PHE C   1     112.725 177.485  56.825  1.00 40.65 LIG 0.00  A 
ATOM     19  CD2 PHE C   1     111.498 177.009  57.227  1.00 39.59 LIG 0.01  A 
ENDBRANCH 13 14
ENDBRANCH 1 13
BRANCH 1 20
ATOM     20  N   PHE C   1     109.175 175.167  55.845  1.00 44.33 LIG-0.35  N 
ATOM     21 H    PHE C   1     108.541 175.749  55.863  1.00 44.33 LIG 0.16  HD
ATOM     22  C   SER C   0     109.974 174.983  54.796  1.00 45.23 LIG 0.25  C 
ATOM     23 O    SER C   0     110.838 174.104  54.753  1.00 45.89 LIG-0.27  OA
BRANCH 22 24
ATOM     24  CA  SER C   0     109.766 175.930  53.620  1.00 46.83 LIG 0.30  C 
BRANCH 24 25
ATOM     25  N   SER C   0     109.167 175.236  52.484  1.00 48.27 LIG-0.06  N 
ATOM     26 H2   SER C   0     108.588 175.776  52.078  1.00 48.27 LIG 0.28  HD
ATOM     27 H1   SER C   0     108.742 174.508  52.771  1.00 48.27 LIG 0.28  HD
ATOM     28 H3   SER C   0     109.805 174.999  51.910  1.00 48.27 LIG 0.28  HD
ENDBRANCH 24 25
BRANCH 24 29
ATOM     29  CB  SER C   0     108.895 177.112  54.054  1.00 47.94 LIG 0.21  C 
BRANCH 29 30
ATOM     30 OG   SER C   0     109.337 178.319  53.458  1.00 49.79 LIG-0.40  OA
ATOM     31 HG   SER C   0     109.338 178.236  52.623  1.00 49.79 LIG 0.21  HD
ENDBRANCH 29 30
ENDBRANCH 24 29
ENDBRANCH 22 24
ENDBRANCH 1 20
TORSDOF 12
ENDMDL
MODEL 90
USER: ADFR SOLUTION from run 91
USER: SCORE 9.712129 LL:  -2.387 LR:  -7.397 RR:   0.000 FEB:  -3.817
USER: RMSD 5.617678
USER: SEED 90
USER: STATUS no improvement in best in 18 clusters for 5 generations
USER: GENES 14
USER: genes 0 Translation |==|  0.58745 0.58873 0.27702
USER: genes 1 Rotation |==|  0.98141 0.52716 0.36811 0.51045
USER: genes 2 Torsion [N]-CA--C-[N] |==|  0.34444
USER: genes 3 Torsion [C]-N--CA-[C] |==|  0.85409
USER: genes 4 Torsion [N]-CA--C-[O] |==|  0.87446
USER: genes 5 Torsion [N]-CA--CB-[CG] |==|  0.08542
USER: genes 6 Torsion [CA]-CB--CG-[CD2] |==|  0.72850
USER: genes 7 Torsion [C]-CA--CB-[CG] |==|  0.15699
USER: genes 8 Torsion [CA]-CB--CG-[CD1] |==|  0.05578
USER: genes 9 Torsion [C]-CA--N-[C] |==|  0.83161
USER: genes 10 Torsion [N]-C--CA-[N] |==|  0.05965
USER: genes 11 Torsion [C]-CA--N-[H2] |==|  0.77773
USER: genes 12 Torsion [C]-CA--CB-[OG] |==|  0.67352
USER: genes 13 Torsion [CA]-CB--OG-[HG] |==|  0.43704
ROOT
ATOM      1  CA  PHE C   1     110.978 175.000  55.930  1.00 43.43 LIG 0.18  C 
ENDROOT
BRANCH 1 2
ATOM      2  C   PHE C   1     110.223 175.338  57.207  1.00 43.95 LIG 0.24  C 
ATOM      3 O    PHE C   1     109.702 176.451  57.334  1.00 42.64 LIG-0.27  OA
ATOM      4  N   LEU C   2     110.154 174.408  58.152  1.00 45.78 LIG-0.35  N 
ATOM      5 H    LEU C   2     110.404 173.591  58.047  1.00 45.78 LIG 0.16  HD
BRANCH 4 6
ATOM      6  CA  LEU C   2     109.634 174.716  59.470  1.00 46.28 LIG 0.16  C 
BRANCH 6 7
ATOM      7  C   LEU C   2     110.382 175.930  60.009  1.00 47.91 LIG 0.22  C 
ATOM      8 O    LEU C   2     111.608 176.009  59.914  1.00 50.38 LIG-0.29  OA
ENDBRANCH 6 7
BRANCH 6 9
ATOM      9  CB  LEU C   2     109.799 173.517  60.405  1.00 44.46 LIG 0.04  C 
BRANCH 9 10
ATOM     10  CG  LEU C   2     111.006 172.622  60.121  1.00 41.86 LIG-0.02  C 
ATOM     11  CD2 LEU C   2     110.588 171.414  59.300  1.00 43.32 LIG 0.01  C 
ATOM     12  CD1 LEU C   2     111.662 172.190  61.421  1.00 39.91 LIG 0.01  C 
ENDBRANCH 9 10
ENDBRANCH 6 9
ENDBRANCH 4 6
ENDBRANCH 1 2
BRANCH 1 13
ATOM     13  CB  PHE C   1     112.283 175.789  55.813  1.00 40.74 LIG 0.07  C 
BRANCH 13 14
ATOM     14  CG  PHE C   1     113.191 175.589  56.984  1.00 40.58 LIG-0.06  A 
ATOM     15  CD1 PHE C   1     113.043 174.487  57.808  1.00 41.26 LIG 0.01  A 
ATOM     16  CE1 PHE C   1     113.861 174.308  58.898  1.00 41.59 LIG 0.00  A 
ATOM     17  CZ  PHE C   1     114.836 175.241  59.184  1.00 39.95 LIG 0.00  A 
ATOM     18  CE2 PHE C   1     114.985 176.354  58.380  1.00 40.65 LIG 0.00  A 
ATOM     19  CD2 PHE C   1     114.163 176.527  57.290  1.00 39.59 LIG 0.01  A 
ENDBRANCH 13 14
ENDBRANCH 1 13
BRANCH 1 20
ATOM     20  N   PHE C   1     110.170 175.167  54.729  1.00 44.33 LIG-0.35  N 
ATOM     21 H    PHE C   1     110.483 175.745  54.174  1.00 44.33 LIG 0.16  HD
ATOM     22  C   SER C   0     109.049 174.478  54.519  1.00 45.23 LIG 0.25  C 
ATOM     23 O    SER C   0     108.573 173.698  55.347  1.00 45.89 LIG-0.27  OA
BRANCH 22 24
ATOM     24  CA  SER C   0     108.363 174.707  53.177  1.00 46.83 LIG 0.30  C 
BRANCH 24 25
ATOM     25  N   SER C   0     109.299 175.236  52.190  1.00 48.27 LIG-0.06  N 
ATOM     26 H2   SER C   0     109.403 176.111  52.318  1.00 48.27 LIG 0.28  HD
ATOM     27 H1   SER C   0     108.981 175.092  51.372  1.00 48.27 LIG 0.28  HD
ATOM     28 H3   SER C   0     110.085 174.828  52.278  1.00 48.27 LIG 0.28  HD
ENDBRANCH 24 25
BRANCH 24 29
ATOM     29  CB  SER C   0     107.738 173.399  52.684  1.00 47.94 LIG 0.21  C 
BRANCH 29 30
ATOM     30 OG   SER C   0     108.323 172.979  51.465  1.00 49.79 LIG-0.40  OA
ATOM     31 HG   SER C   0     108.211 172.152  51.370  1.00 49.79 LIG 0.21  HD
ENDBRANCH 29 30
ENDBRANCH 24 29
ENDBRANCH 22 24
ENDBRANCH 1 20
TORSDOF 12
ENDMDL
MODEL 91
USER: ADFR SOLUTION from run 102
USER: SCORE 9.179210 LL:  -2.158 LR:  -7.391 RR:   0.000 FEB:  -3.811
USER: RMSD 6.332862
USER: SEED 101
USER: STATUS no improvement in best in 15 clusters for 5 generations
USER: GENES 14
USER: genes 0 Translation |==|  0.61691 0.63619 0.34309
USER: genes 1 Rotation |==|  0.04731 0.65096 0.64920 0.50502
USER: genes 2 Torsion [N]-CA--C-[N] |==|  0.35146
USER: genes 3 Torsion [C]-N--CA-[C] |==|  0.62903
USER: genes 4 Torsion [N]-CA--C-[O] |==|  0.28165
USER: genes 5 Torsion [N]-CA--CB-[CG] |==|  0.65048
USER: genes 6 Torsion [CA]-CB--CG-[CD2] |==|  0.12075
USER: genes 7 Torsion [C]-CA--CB-[CG] |==|  0.10052
USER: genes 8 Torsion [CA]-CB--CG-[CD1] |==|  0.64876
USER: genes 9 Torsion [C]-CA--N-[C] |==|  0.56670
USER: genes 10 Torsion [N]-C--CA-[N] |==|  0.52768
USER: genes 11 Torsion [C]-CA--N-[H2] |==|  0.11517
USER: genes 12 Torsion [C]-CA--CB-[OG] |==|  0.38407
USER: genes 13 Torsion [CA]-CB--OG-[HG] |==|  0.14367
ROOT
ATOM      1  CA  PHE C   1     111.530 175.677  57.020  1.00 43.43 LIG 0.18  C 
ENDROOT
BRANCH 1 2
ATOM      2  C   PHE C   1     111.342 176.547  58.253  1.00 43.95 LIG 0.24  C 
ATOM      3 O    PHE C   1     111.640 177.745  58.208  1.00 42.64 LIG-0.27  OA
ATOM      4  N   LEU C   2     110.856 175.976  59.349  1.00 45.78 LIG-0.35  N 
ATOM      5 H    LEU C   2     110.533 175.179  59.377  1.00 45.78 LIG 0.16  HD
BRANCH 4 6
ATOM      6  CA  LEU C   2     110.838 176.680  60.616  1.00 46.28 LIG 0.16  C 
BRANCH 6 7
ATOM      7  C   LEU C   2     111.366 175.742  61.695  1.00 47.91 LIG 0.22  C 
ATOM      8 O    LEU C   2     112.521 175.843  62.110  1.00 50.38 LIG-0.29  OA
ENDBRANCH 6 7
BRANCH 6 9
ATOM      9  CB  LEU C   2     109.420 177.148  60.948  1.00 44.46 LIG 0.04  C 
BRANCH 9 10
ATOM     10  CG  LEU C   2     109.271 178.639  61.246  1.00 41.86 LIG-0.02  C 
ATOM     11  CD2 LEU C   2     110.068 179.461  60.246  1.00 43.32 LIG 0.01  C 
ATOM     12  CD1 LEU C   2     109.712 178.944  62.667  1.00 39.91 LIG 0.01  C 
ENDBRANCH 9 10
ENDBRANCH 6 9
ENDBRANCH 4 6
ENDBRANCH 1 2
BRANCH 1 13
ATOM     13  CB  PHE C   1     113.007 175.398  56.739  1.00 40.74 LIG 0.07  C 
BRANCH 13 14
ATOM     14  CG  PHE C   1     113.815 175.230  57.986  1.00 40.58 LIG-0.06  A 
ATOM     15  CD1 PHE C   1     114.956 175.986  58.192  1.00 41.26 LIG 0.01  A 
ATOM     16  CE1 PHE C   1     115.715 175.821  59.326  1.00 41.59 LIG 0.00  A 
ATOM     17  CZ  PHE C   1     115.345 174.885  60.269  1.00 39.95 LIG 0.00  A 
ATOM     18  CE2 PHE C   1     114.217 174.111  60.069  1.00 40.65 LIG 0.00  A 
ATOM     19  CD2 PHE C   1     113.462 174.281  58.932  1.00 39.59 LIG 0.01  A 
ENDBRANCH 13 14
ENDBRANCH 1 13
BRANCH 1 20
ATOM     20  N   PHE C   1     110.877 176.217  55.835  1.00 44.33 LIG-0.35  N 
ATOM     21 H    PHE C   1     110.754 177.068  55.860  1.00 44.33 LIG 0.16  HD
ATOM     22  C   SER C   0     110.510 175.451  54.808  1.00 45.23 LIG 0.25  C 
ATOM     23 O    SER C   0     110.632 174.224  54.806  1.00 45.89 LIG-0.27  OA
BRANCH 22 24
ATOM     24  CA  SER C   0     109.914 176.178  53.609  1.00 46.83 LIG 0.30  C 
BRANCH 24 25
ATOM     25  N   SER C   0     109.338 175.236  52.654  1.00 48.27 LIG-0.06  N 
ATOM     26 H2   SER C   0     108.900 174.598  53.094  1.00 48.27 LIG 0.28  HD
ATOM     27 H1   SER C   0     109.988 174.868  52.170  1.00 48.27 LIG 0.28  HD
ATOM     28 H3   SER C   0     108.775 175.666  52.116  1.00 48.27 LIG 0.28  HD
ENDBRANCH 24 25
BRANCH 24 29
ATOM     29  CB  SER C   0     108.860 177.183  54.082  1.00 47.94 LIG 0.21  C 
BRANCH 29 30
ATOM     30 OG   SER C   0     108.963 178.405  53.373  1.00 49.79 LIG-0.40  OA
ATOM     31 HG   SER C   0     108.963 178.251  52.548  1.00 49.79 LIG 0.21  HD
ENDBRANCH 29 30
ENDBRANCH 24 29
ENDBRANCH 22 24
ENDBRANCH 1 20
TORSDOF 12
ENDMDL
MODEL 92
USER: ADFR SOLUTION from run 198
USER: SCORE 9.359132 LL:  -1.983 LR:  -7.380 RR:   0.000 FEB:  -3.801
USER: RMSD 7.354429
USER: SEED 197
USER: STATUS no improvement in best in 14 clusters for 5 generations
USER: GENES 14
USER: genes 0 Translation |==|  0.64259 0.70034 0.38818
USER: genes 1 Rotation |==|  0.35315 0.50144 0.92314 0.72224
USER: genes 2 Torsion [N]-CA--C-[N] |==|  0.94722
USER: genes 3 Torsion [C]-N--CA-[C] |==|  0.69010
USER: genes 4 Torsion [N]-CA--C-[O] |==|  0.93370
USER: genes 5 Torsion [N]-CA--CB-[CG] |==|  0.37303
USER: genes 6 Torsion [CA]-CB--CG-[CD2] |==|  0.62265
USER: genes 7 Torsion [C]-CA--CB-[CG] |==|  0.36978
USER: genes 8 Torsion [CA]-CB--CG-[CD1] |==|  0.84867
USER: genes 9 Torsion [C]-CA--N-[C] |==|  0.82220
USER: genes 10 Torsion [N]-C--CA-[N] |==|  0.75305
USER: genes 11 Torsion [C]-CA--N-[H2] |==|  0.61562
USER: genes 12 Torsion [C]-CA--CB-[OG] |==|  0.75437
USER: genes 13 Torsion [CA]-CB--OG-[HG] |==|  0.08819
ROOT
ATOM      1  CA  PHE C   1     112.012 176.591  57.764  1.00 43.43 LIG 0.18  C 
ENDROOT
BRANCH 1 2
ATOM      2  C   PHE C   1     113.232 175.691  57.888  1.00 43.95 LIG 0.24  C 
ATOM      3 O    PHE C   1     113.527 174.928  56.963  1.00 42.64 LIG-0.27  OA
ATOM      4  N   LEU C   2     113.945 175.762  59.007  1.00 45.78 LIG-0.35  N 
ATOM      5 H    LEU C   2     113.834 176.361  59.614  1.00 45.78 LIG 0.16  HD
BRANCH 4 6
ATOM      6  CA  LEU C   2     114.995 174.802  59.288  1.00 46.28 LIG 0.16  C 
BRANCH 6 7
ATOM      7  C   LEU C   2     114.550 173.936  60.461  1.00 47.91 LIG 0.22  C 
ATOM      8 O    LEU C   2     113.715 174.347  61.268  1.00 50.38 LIG-0.29  OA
ENDBRANCH 6 7
BRANCH 6 9
ATOM      9  CB  LEU C   2     116.306 175.522  59.609  1.00 44.46 LIG 0.04  C 
BRANCH 9 10
ATOM     10  CG  LEU C   2     117.064 174.997  60.828  1.00 41.86 LIG-0.02  C 
ATOM     11  CD2 LEU C   2     117.563 176.153  61.679  1.00 43.32 LIG 0.01  C 
ATOM     12  CD1 LEU C   2     118.217 174.109  60.395  1.00 39.91 LIG 0.01  C 
ENDBRANCH 9 10
ENDBRANCH 6 9
ENDBRANCH 4 6
ENDBRANCH 1 2
BRANCH 1 13
ATOM     13  CB  PHE C   1     112.253 177.748  56.794  1.00 40.74 LIG 0.07  C 
BRANCH 13 14
ATOM     14  CG  PHE C   1     111.133 177.938  55.823  1.00 40.58 LIG-0.06  A 
ATOM     15  CD1 PHE C   1     110.701 176.886  55.034  1.00 41.26 LIG 0.01  A 
ATOM     16  CE1 PHE C   1     109.686 177.060  54.123  1.00 41.59 LIG 0.00  A 
ATOM     17  CZ  PHE C   1     109.093 178.297  53.984  1.00 39.95 LIG 0.00  A 
ATOM     18  CE2 PHE C   1     109.524 179.361  54.754  1.00 40.65 LIG 0.00  A 
ATOM     19  CD2 PHE C   1     110.542 179.180  55.663  1.00 39.59 LIG 0.01  A 
ENDBRANCH 13 14
ENDBRANCH 1 13
BRANCH 1 20
ATOM     20  N   PHE C   1     111.537 177.090  59.048  1.00 44.33 LIG-0.35  N 
ATOM     21 H    PHE C   1     111.592 177.944  59.133  1.00 44.33 LIG 0.16  HD
ATOM     22  C   SER C   0     111.062 176.284  59.997  1.00 45.23 LIG 0.25  C 
ATOM     23 O    SER C   0     111.047 175.056  59.893  1.00 45.89 LIG-0.27  OA
BRANCH 22 24
ATOM     24  CA  SER C   0     110.529 176.967  61.251  1.00 46.83 LIG 0.30  C 
BRANCH 24 25
ATOM     25  N   SER C   0     111.588 177.161  62.237  1.00 48.27 LIG-0.06  N 
ATOM     26 H2   SER C   0     111.276 176.972  63.049  1.00 48.27 LIG 0.28  HD
ATOM     27 H1   SER C   0     111.863 178.007  62.215  1.00 48.27 LIG 0.28  HD
ATOM     28 H3   SER C   0     112.271 176.623  62.048  1.00 48.27 LIG 0.28  HD
ENDBRANCH 24 25
BRANCH 24 29
ATOM     29  CB  SER C   0     109.884 178.306  60.878  1.00 47.94 LIG 0.21  C 
BRANCH 29 30
ATOM     30 OG   SER C   0     110.838 179.353  60.883  1.00 49.79 LIG-0.40  OA
ATOM     31 HG   SER C   0     111.588 179.050  60.659  1.00 49.79 LIG 0.21  HD
ENDBRANCH 29 30
ENDBRANCH 24 29
ENDBRANCH 22 24
ENDBRANCH 1 20
TORSDOF 12
ENDMDL
MODEL 93
USER: ADFR SOLUTION from run 191
USER: SCORE 9.389788 LL:  -2.041 LR:  -7.369 RR:   0.000 FEB:  -3.789
USER: RMSD 5.702804
USER: SEED 190
USER: STATUS no improvement in best in 17 clusters for 5 generations
USER: GENES 14
USER: genes 0 Translation |==|  0.57725 0.53872 0.35590
USER: genes 1 Rotation |==|  0.14674 0.46216 0.19212 0.67026
USER: genes 2 Torsion [N]-CA--C-[N] |==|  0.01044
USER: genes 3 Torsion [C]-N--CA-[C] |==|  0.77984
USER: genes 4 Torsion [N]-CA--C-[O] |==|  0.96505
USER: genes 5 Torsion [N]-CA--CB-[CG] |==|  0.95150
USER: genes 6 Torsion [CA]-CB--CG-[CD2] |==|  0.61338
USER: genes 7 Torsion [C]-CA--CB-[CG] |==|  0.33556
USER: genes 8 Torsion [CA]-CB--CG-[CD1] |==|  0.36269
USER: genes 9 Torsion [C]-CA--N-[C] |==|  0.72802
USER: genes 10 Torsion [N]-C--CA-[N] |==|  0.86042
USER: genes 11 Torsion [C]-CA--N-[H2] |==|  0.19054
USER: genes 12 Torsion [C]-CA--CB-[OG] |==|  0.88051
USER: genes 13 Torsion [CA]-CB--OG-[HG] |==|  0.31472
ROOT
ATOM      1  CA  PHE C   1     110.786 174.288  57.231  1.00 43.43 LIG 0.18  C 
ENDROOT
BRANCH 1 2
ATOM      2  C   PHE C   1     109.675 174.567  56.231  1.00 43.95 LIG 0.24  C 
ATOM      3 O    PHE C   1     108.716 173.792  56.150  1.00 42.64 LIG-0.27  OA
ATOM      4  N   LEU C   2     109.781 175.650  55.471  1.00 45.78 LIG-0.35  N 
ATOM      5 H    LEU C   2     110.372 176.265  55.583  1.00 45.78 LIG 0.16  HD
BRANCH 4 6
ATOM      6  CA  LEU C   2     108.876 175.878  54.360  1.00 46.28 LIG 0.16  C 
BRANCH 6 7
ATOM      7  C   LEU C   2     109.338 175.027  53.183  1.00 47.91 LIG 0.22  C 
ATOM      8 O    LEU C   2     110.445 174.486  53.191  1.00 50.38 LIG-0.29  OA
ENDBRANCH 6 7
BRANCH 6 9
ATOM      9  CB  LEU C   2     108.853 177.360  53.984  1.00 44.46 LIG 0.04  C 
BRANCH 9 10
ATOM     10  CG  LEU C   2     109.401 178.317  55.043  1.00 41.86 LIG-0.02  C 
ATOM     11  CD2 LEU C   2     108.536 179.563  55.127  1.00 43.32 LIG 0.01  C 
ATOM     12  CD1 LEU C   2     110.843 178.681  54.734  1.00 39.91 LIG 0.01  C 
ENDBRANCH 9 10
ENDBRANCH 6 9
ENDBRANCH 4 6
ENDBRANCH 1 2
BRANCH 1 13
ATOM     13  CB  PHE C   1     110.238 174.025  58.634  1.00 40.74 LIG 0.07  C 
BRANCH 13 14
ATOM     14  CG  PHE C   1     110.615 172.679  59.164  1.00 40.58 LIG-0.06  A 
ATOM     15  CD1 PHE C   1     111.160 172.549  60.430  1.00 41.26 LIG 0.01  A 
ATOM     16  CE1 PHE C   1     111.530 171.317  60.915  1.00 41.59 LIG 0.00  A 
ATOM     17  CZ  PHE C   1     111.366 170.194  60.131  1.00 39.95 LIG 0.00  A 
ATOM     18  CE2 PHE C   1     110.838 170.310  58.859  1.00 40.65 LIG 0.00  A 
ATOM     19  CD2 PHE C   1     110.471 171.546  58.380  1.00 39.59 LIG 0.01  A 
ENDBRANCH 13 14
ENDBRANCH 1 13
BRANCH 1 20
ATOM     20  N   PHE C   1     111.799 175.335  57.266  1.00 44.33 LIG-0.35  N 
ATOM     21 H    PHE C   1     111.585 176.012  57.751  1.00 44.33 LIG 0.16  HD
ATOM     22  C   SER C   0     112.950 175.239  56.603  1.00 45.23 LIG 0.25  C 
ATOM     23 O    SER C   0     113.223 174.294  55.859  1.00 45.89 LIG-0.27  OA
BRANCH 22 24
ATOM     24  CA  SER C   0     113.938 176.381  56.807  1.00 46.83 LIG 0.30  C 
BRANCH 24 25
ATOM     25  N   SER C   0     113.296 177.676  56.609  1.00 48.27 LIG-0.06  N 
ATOM     26 H2   SER C   0     112.715 177.823  57.267  1.00 48.27 LIG 0.28  HD
ATOM     27 H1   SER C   0     112.866 177.679  55.829  1.00 48.27 LIG 0.28  HD
ATOM     28 H3   SER C   0     113.913 178.317  56.609  1.00 48.27 LIG 0.28  HD
ENDBRANCH 24 25
BRANCH 24 29
ATOM     29  CB  SER C   0     114.555 176.290  58.206  1.00 47.94 LIG 0.21  C 
BRANCH 29 30
ATOM     30 OG   SER C   0     113.572 175.986  59.180  1.00 49.79 LIG-0.40  OA
ATOM     31 HG   SER C   0     113.719 175.222  59.496  1.00 49.79 LIG 0.21  HD
ENDBRANCH 29 30
ENDBRANCH 24 29
ENDBRANCH 22 24
ENDBRANCH 1 20
TORSDOF 12
ENDMDL
