MODEL 1
USER: ADFR SOLUTION from run 27
USER: SCORE 16.230009 LL:  -3.824 LR: -14.675 RR:   0.000 FEB:  -8.410
USER: RMSD 5.635388
USER: SEED 26
USER: STATUS no improvement in best in 8 clusters for 5 generations
USER: GENES 23
USER: genes 0 Translation |==|  0.36158 0.74522 0.52452
USER: genes 1 Rotation |==|  0.17217 0.48943 0.58063 0.86867
USER: genes 2 Torsion [C]-CA--CB-[CG] |==|  0.57158
USER: genes 3 Torsion [CA]-CB--CG-[CD1] |==|  0.37119
USER: genes 4 Torsion [N]-CA--C-[N] |==|  0.58282
USER: genes 5 Torsion [C]-N--CA-[C] |==|  0.66801
USER: genes 6 Torsion [N]-CA--C-[N] |==|  0.83522
USER: genes 7 Torsion [C]-N--CA-[C] |==|  0.75302
USER: genes 8 Torsion [N]-CA--C-[O] |==|  0.64781
USER: genes 9 Torsion [N]-CA--CB-[CG] |==|  0.84858
USER: genes 10 Torsion [CA]-CB--CG-[CD1] |==|  0.31892
USER: genes 11 Torsion [N]-CA--CB-[CG] |==|  0.46457
USER: genes 12 Torsion [CA]-CB--CG-[ND2] |==|  0.30709
USER: genes 13 Torsion [CB]-CA--N-[C] |==|  0.82068
USER: genes 14 Torsion [N]-C--CA-[N] |==|  0.53889
USER: genes 15 Torsion [C]-CA--CB-[CG] |==|  0.45883
USER: genes 16 Torsion [CA]-CB--CG-[CD1] |==|  0.51666
USER: genes 17 Torsion [C]-CA--N-[C] |==|  0.59592
USER: genes 18 Torsion [N]-C--CA-[N] |==|  0.39751
USER: genes 19 Torsion [C]-CA--N-[C] |==|  0.77563
USER: genes 20 Torsion [N]-C--CA-[N] |==|  0.42694
USER: genes 21 Torsion [C]-CA--CB-[CG] |==|  0.82741
USER: genes 22 Torsion [CA]-CB--CG-[OD1] |==|  0.31550
ROOT
ATOM      1  CA  LEU D   5      -8.566 -31.696  16.808  1.00 45.78 LIG 0.18  C 
ENDROOT
BRANCH 1 2
ATOM      2  CB  LEU D   5      -9.534 -32.828  16.478  1.00 44.83 LIG 0.04  C 
BRANCH 2 3
ATOM      3  CG  LEU D   5      -9.562 -33.357  15.049  1.00 46.71 LIG-0.02  C 
ATOM      4  CD1 LEU D   5      -9.543 -34.876  15.085  1.00 43.35 LIG 0.01  C 
ATOM      5  CD2 LEU D   5     -10.792 -32.854  14.293  1.00 50.41 LIG 0.01  C 
ENDBRANCH 2 3
ENDBRANCH 1 2
BRANCH 1 6
ATOM      6  C   LEU D   5      -8.248 -31.784  18.292  1.00 49.70 LIG 0.24  C 
ATOM      7  N   ASN D   6      -9.208 -32.323  19.047  1.00 52.00 LIG-0.35  N 
ATOM      8 H    ASN D   6      -9.983 -32.534  18.741  1.00 52.00 LIG 0.16  HD
ATOM      9 O    LEU D   5      -7.141 -31.414  18.725  1.00 48.20 LIG-0.27  OA
BRANCH 7 10
ATOM     10  CA  ASN D   6      -9.041 -32.609  20.472  1.00 59.27 LIG 0.18  C 
BRANCH 10 11
ATOM     11  C   ASN D   6      -9.227 -34.114  20.701  1.00 60.71 LIG 0.24  C 
ATOM     12  N   LEU D   7     -10.402 -34.629  20.341  1.00 62.75 LIG-0.35  N 
ATOM     13 H    LEU D   7     -10.996 -34.193  19.897  1.00 62.75 LIG 0.16  HD
ATOM     14 O    ASN D   6      -8.320 -34.789  21.193  1.00 63.11 LIG-0.27  OA
BRANCH 12 15
ATOM     15  CA  LEU D   7     -10.796 -36.005  20.673  1.00 66.71 LIG 0.16  C 
BRANCH 15 16
ATOM     16  C   LEU D   7     -10.367 -37.030  19.617  1.00 66.58 LIG 0.22  C 
ATOM     17 O    LEU D   7     -11.181 -37.801  19.120  1.00 70.30 LIG-0.29  OA
ENDBRANCH 15 16
BRANCH 15 18
ATOM     18  CB  LEU D   7     -12.316 -36.059  20.882  1.00 67.13 LIG 0.04  C 
BRANCH 18 19
ATOM     19  CG  LEU D   7     -12.855 -35.063  21.919  1.00 64.50 LIG-0.02  C 
ATOM     20  CD1 LEU D   7     -13.760 -34.032  21.254  1.00 64.54 LIG 0.01  C 
ATOM     21  CD2 LEU D   7     -13.584 -35.783  23.051  1.00 62.99 LIG 0.01  C 
ENDBRANCH 18 19
ENDBRANCH 15 18
ENDBRANCH 12 15
ENDBRANCH 10 11
BRANCH 10 22
ATOM     22  CB  ASN D   6     -10.055 -31.791  21.287  1.00 63.11 LIG 0.14  C 
BRANCH 22 23
ATOM     23  CG  ASN D   6     -10.162 -32.250  22.731  1.00 71.29 LIG 0.22  C 
ATOM     24  ND2 ASN D   6      -9.681 -31.415  23.654  1.00 72.89 LIG-0.37  N 
ATOM     25 21HD ASN D   6      -9.712 -31.629  24.486  1.00 72.89 LIG 0.16  HD
ATOM     26 22HD ASN D   6      -9.340 -30.662  23.416  1.00 72.89 LIG 0.16  HD
ATOM     27 OD1  ASN D   6     -10.663 -33.345  23.020  1.00 74.05 LIG-0.27  OA
ENDBRANCH 22 23
ENDBRANCH 10 22
ENDBRANCH 7 10
ENDBRANCH 1 6
BRANCH 1 28
ATOM     28  N   LEU D   5      -7.342 -31.785  15.994  1.00 43.46 LIG-0.35  N 
ATOM     29 H    LEU D   5      -7.232 -31.126  15.453  1.00 43.46 LIG 0.16  HD
ATOM     30  C   LEU D   4      -6.492 -32.802  16.098  1.00 41.34 LIG 0.24  C 
ATOM     31 O    LEU D   4      -6.676 -33.760  16.834  1.00 44.89 LIG-0.27  OA
BRANCH 30 32
ATOM     32  CA  LEU D   4      -5.214 -32.709  15.317  1.00 41.83 LIG 0.18  C 
BRANCH 32 33
ATOM     33  CB  LEU D   4      -5.530 -32.145  13.920  1.00 37.92 LIG 0.04  C 
BRANCH 33 34
ATOM     34  CG  LEU D   4      -4.330 -31.653  13.117  1.00 37.44 LIG-0.02  C 
ATOM     35  CD1 LEU D   4      -4.810 -30.996  11.835  1.00 34.88 LIG 0.01  C 
ATOM     36  CD2 LEU D   4      -3.494 -30.669  13.938  1.00 37.22 LIG 0.01  C 
ENDBRANCH 33 34
ENDBRANCH 32 33
BRANCH 32 37
ATOM     37  N   LEU D   4      -4.494 -33.982  15.225  1.00 45.71 LIG-0.35  N 
ATOM     38 H    LEU D   4      -4.999 -34.678  15.178  1.00 45.71 LIG 0.16  HD
ATOM     39  C   ASP D   3      -3.163 -34.019  15.218  1.00 59.12 LIG 0.24  C 
ATOM     40 O    ASP D   3      -2.455 -33.029  15.431  1.00 63.71 LIG-0.27  OA
BRANCH 39 41
ATOM     41  CA  ASP D   3      -2.509 -35.377  14.984  1.00 63.74 LIG 0.19  C 
BRANCH 41 42
ATOM     42  N   ASP D   3      -1.297 -35.288  14.180  1.00 62.73 LIG-0.35  N 
ATOM     43 H    ASP D   3      -0.566 -35.299  14.634  1.00 62.73 LIG 0.16  HD
ATOM     44  C   GLY D   2      -1.347 -35.198  12.858  1.00 63.13 LIG 0.25  C 
ATOM     45 O    GLY D   2      -2.403 -35.118  12.226  1.00 65.69 LIG-0.27  OA
BRANCH 44 46
ATOM     46  CA  GLY D   2      -0.013 -35.189  12.140  1.00 64.97 LIG 0.47  C 
ATOM     47  N   GLY D   2      -0.127 -35.706  10.746  1.00 67.04 LIG 0.61  N 
ENDBRANCH 44 46
ENDBRANCH 41 42
BRANCH 41 48
ATOM     48  CB  ASP D   3      -2.230 -36.064  16.328  1.00 68.02 LIG 0.15  C 
BRANCH 48 49
ATOM     49  CG  ASP D   3      -1.266 -35.285  17.190  1.00 72.98 LIG 0.17  C 
ATOM     50 OD1  ASP D   3      -1.685 -34.787  18.258  1.00 76.93 LIG-0.65  OA
ATOM     51 OD2  ASP D   3      -0.086 -35.161  16.793  1.00 81.56 LIG-0.65  OA
ENDBRANCH 48 49
ENDBRANCH 41 48
ENDBRANCH 39 41
ENDBRANCH 32 37
ENDBRANCH 30 32
ENDBRANCH 1 28
TORSDOF 21
ENDMDL
MODEL 2
USER: ADFR SOLUTION from run 115
USER: SCORE 16.075611 LL:  -3.838 LR: -14.103 RR:   0.000 FEB:  -7.839
USER: RMSD 2.851256
USER: SEED 114
USER: STATUS no improvement in best in 6 clusters for 5 generations
USER: GENES 23
USER: genes 0 Translation |==|  0.36675 0.57871 0.42981
USER: genes 1 Rotation |==|  0.47491 0.42956 0.50007 0.99438
USER: genes 2 Torsion [C]-CA--CB-[CG] |==|  0.26915
USER: genes 3 Torsion [CA]-CB--CG-[CD1] |==|  0.24270
USER: genes 4 Torsion [N]-CA--C-[N] |==|  0.42069
USER: genes 5 Torsion [C]-N--CA-[C] |==|  0.54723
USER: genes 6 Torsion [N]-CA--C-[N] |==|  0.32550
USER: genes 7 Torsion [C]-N--CA-[C] |==|  0.65657
USER: genes 8 Torsion [N]-CA--C-[O] |==|  0.19171
USER: genes 9 Torsion [N]-CA--CB-[CG] |==|  0.74004
USER: genes 10 Torsion [CA]-CB--CG-[CD1] |==|  0.39322
USER: genes 11 Torsion [N]-CA--CB-[CG] |==|  0.42612
USER: genes 12 Torsion [CA]-CB--CG-[ND2] |==|  0.22730
USER: genes 13 Torsion [CB]-CA--N-[C] |==|  0.21667
USER: genes 14 Torsion [N]-C--CA-[N] |==|  0.95654
USER: genes 15 Torsion [C]-CA--CB-[CG] |==|  0.45005
USER: genes 16 Torsion [CA]-CB--CG-[CD1] |==|  0.22954
USER: genes 17 Torsion [C]-CA--N-[C] |==|  0.78262
USER: genes 18 Torsion [N]-C--CA-[N] |==|  0.13978
USER: genes 19 Torsion [C]-CA--N-[C] |==|  0.76161
USER: genes 20 Torsion [N]-C--CA-[N] |==|  0.38171
USER: genes 21 Torsion [C]-CA--CB-[CG] |==|  0.79315
USER: genes 22 Torsion [CA]-CB--CG-[OD1] |==|  0.81471
ROOT
ATOM      1  CA  LEU D   5      -8.453 -35.068  15.174  1.00 45.78 LIG 0.18  C 
ENDROOT
BRANCH 1 2
ATOM      2  CB  LEU D   5      -9.309 -34.751  13.952  1.00 44.83 LIG 0.04  C 
BRANCH 2 3
ATOM      3  CG  LEU D   5     -10.754 -34.325  14.176  1.00 46.71 LIG-0.02  C 
ATOM      4  CD1 LEU D   5     -10.799 -32.820  14.380  1.00 43.35 LIG 0.01  C 
ATOM      5  CD2 LEU D   5     -11.645 -34.735  13.003  1.00 50.41 LIG 0.01  C 
ENDBRANCH 2 3
ENDBRANCH 1 2
BRANCH 1 6
ATOM      6  C   LEU D   5      -8.477 -36.575  15.371  1.00 49.70 LIG 0.24  C 
ATOM      7  N   ASN D   6      -9.500 -37.037  16.092  1.00 52.00 LIG-0.35  N 
ATOM      8 H    ASN D   6     -10.065 -36.524  16.489  1.00 52.00 LIG 0.16  HD
ATOM      9 O    LEU D   5      -7.612 -37.296  14.840  1.00 48.20 LIG-0.27  OA
BRANCH 7 10
ATOM     10  CA  ASN D   6      -9.767 -38.463  16.285  1.00 59.27 LIG 0.18  C 
BRANCH 10 11
ATOM     11  C   ASN D   6     -11.208 -38.636  16.780  1.00 60.71 LIG 0.24  C 
ATOM     12  N   LEU D   7     -12.033 -39.315  15.984  1.00 62.75 LIG-0.35  N 
ATOM     13 H    LEU D   7     -11.773 -39.743  15.285  1.00 62.75 LIG 0.16  HD
ATOM     14 O    ASN D   6     -11.559 -38.162  17.864  1.00 63.11 LIG-0.27  OA
BRANCH 12 15
ATOM     15  CA  LEU D   7     -13.479 -39.397  16.230  1.00 66.71 LIG 0.16  C 
BRANCH 15 16
ATOM     16  C   LEU D   7     -13.994 -40.835  16.346  1.00 66.58 LIG 0.22  C 
ATOM     17 O    LEU D   7     -13.693 -41.537  17.305  1.00 70.30 LIG-0.29  OA
ENDBRANCH 15 16
BRANCH 15 18
ATOM     18  CB  LEU D   7     -14.225 -38.651  15.115  1.00 67.13 LIG 0.04  C 
BRANCH 18 19
ATOM     19  CG  LEU D   7     -14.551 -37.184  15.433  1.00 64.50 LIG-0.02  C 
ATOM     20  CD1 LEU D   7     -14.379 -36.314  14.193  1.00 64.54 LIG 0.01  C 
ATOM     21  CD2 LEU D   7     -15.957 -37.043  16.010  1.00 62.99 LIG 0.01  C 
ENDBRANCH 18 19
ENDBRANCH 15 18
ENDBRANCH 12 15
ENDBRANCH 10 11
BRANCH 10 22
ATOM     22  CB  ASN D   6      -8.758 -39.049  17.284  1.00 63.11 LIG 0.14  C 
BRANCH 22 23
ATOM     23  CG  ASN D   6      -9.295 -40.263  18.025  1.00 71.29 LIG 0.22  C 
ATOM     24  ND2 ASN D   6      -9.221 -41.428  17.379  1.00 72.89 LIG-0.37  N 
ATOM     25 21HD ASN D   6      -9.516 -42.145  17.751  1.00 72.89 LIG 0.16  HD
ATOM     26 22HD ASN D   6      -8.878 -41.462  16.591  1.00 72.89 LIG 0.16  HD
ATOM     27 OD1  ASN D   6      -9.778 -40.159  19.159  1.00 74.05 LIG-0.27  OA
ENDBRANCH 22 23
ENDBRANCH 10 22
ENDBRANCH 7 10
ENDBRANCH 1 6
BRANCH 1 28
ATOM     28  N   LEU D   5      -7.077 -34.574  15.005  1.00 43.46 LIG-0.35  N 
ATOM     29 H    LEU D   5      -6.508 -35.184  14.796  1.00 43.46 LIG 0.16  HD
ATOM     30  C   LEU D   4      -6.757 -33.293  15.164  1.00 41.34 LIG 0.24  C 
ATOM     31 O    LEU D   4      -7.560 -32.437  15.506  1.00 44.89 LIG-0.27  OA
BRANCH 30 32
ATOM     32  CA  LEU D   4      -5.352 -32.891  14.827  1.00 41.83 LIG 0.18  C 
BRANCH 32 33
ATOM     33  CB  LEU D   4      -5.373 -32.062  13.530  1.00 37.92 LIG 0.04  C 
BRANCH 33 34
ATOM     34  CG  LEU D   4      -4.131 -31.218  13.261  1.00 37.44 LIG-0.02  C 
ATOM     35  CD1 LEU D   4      -3.056 -32.082  12.626  1.00 34.88 LIG 0.01  C 
ATOM     36  CD2 LEU D   4      -4.466 -30.033  12.353  1.00 37.22 LIG 0.01  C 
ENDBRANCH 33 34
ENDBRANCH 32 33
BRANCH 32 37
ATOM     37  N   LEU D   4      -4.432 -34.026  14.716  1.00 45.71 LIG-0.35  N 
ATOM     38 H    LEU D   4      -4.249 -34.263  13.910  1.00 45.71 LIG 0.16  HD
ATOM     39  C   ASP D   3      -3.939 -34.620  15.802  1.00 59.12 LIG 0.24  C 
ATOM     40 O    ASP D   3      -4.322 -34.362  16.949  1.00 63.71 LIG-0.27  OA
BRANCH 39 41
ATOM     41  CA  ASP D   3      -2.889 -35.703  15.583  1.00 63.74 LIG 0.19  C 
BRANCH 41 42
ATOM     42  N   ASP D   3      -1.809 -35.271  14.704  1.00 62.73 LIG-0.35  N 
ATOM     43 H    ASP D   3      -1.121 -34.955  15.114  1.00 62.73 LIG 0.16  HD
ATOM     44  C   GLY D   2      -1.906 -35.369  13.385  1.00 63.13 LIG 0.25  C 
ATOM     45 O    GLY D   2      -2.924 -35.765  12.812  1.00 65.69 LIG-0.27  OA
BRANCH 44 46
ATOM     46  CA  GLY D   2      -0.682 -34.956  12.595  1.00 64.97 LIG 0.47  C 
ATOM     47  N   GLY D   2      -0.395 -35.901  11.477  1.00 67.04 LIG 0.61  N 
ENDBRANCH 44 46
ENDBRANCH 41 42
BRANCH 41 48
ATOM     48  CB  ASP D   3      -2.342 -36.185  16.933  1.00 68.02 LIG 0.15  C 
BRANCH 48 49
ATOM     49  CG  ASP D   3      -1.402 -35.189  17.569  1.00 72.98 LIG 0.17  C 
ATOM     50 OD1  ASP D   3      -0.305 -34.961  17.014  1.00 76.93 LIG-0.65  OA
ATOM     51 OD2  ASP D   3      -1.757 -34.639  18.635  1.00 81.56 LIG-0.65  OA
ENDBRANCH 48 49
ENDBRANCH 41 48
ENDBRANCH 39 41
ENDBRANCH 32 37
ENDBRANCH 30 32
ENDBRANCH 1 28
TORSDOF 21
ENDMDL
MODEL 3
USER: ADFR SOLUTION from run 120
USER: SCORE 16.583590 LL:  -4.240 LR: -14.066 RR:   0.000 FEB:  -7.802
USER: RMSD 5.788252
USER: SEED 119
USER: STATUS no improvement in best in 4 clusters for 5 generations
USER: GENES 23
USER: genes 0 Translation |==|  0.36901 0.71721 0.57883
USER: genes 1 Rotation |==|  0.18453 0.47760 0.54958 0.88408
USER: genes 2 Torsion [C]-CA--CB-[CG] |==|  0.54416
USER: genes 3 Torsion [CA]-CB--CG-[CD1] |==|  0.38598
USER: genes 4 Torsion [N]-CA--C-[N] |==|  0.46048
USER: genes 5 Torsion [C]-N--CA-[C] |==|  0.79809
USER: genes 6 Torsion [N]-CA--C-[N] |==|  0.91133
USER: genes 7 Torsion [C]-N--CA-[C] |==|  0.66282
USER: genes 8 Torsion [N]-CA--C-[O] |==|  0.58771
USER: genes 9 Torsion [N]-CA--CB-[CG] |==|  0.84283
USER: genes 10 Torsion [CA]-CB--CG-[CD1] |==|  0.35077
USER: genes 11 Torsion [N]-CA--CB-[CG] |==|  0.50385
USER: genes 12 Torsion [CA]-CB--CG-[ND2] |==|  0.61587
USER: genes 13 Torsion [CB]-CA--N-[C] |==|  0.23613
USER: genes 14 Torsion [N]-C--CA-[N] |==|  0.11281
USER: genes 15 Torsion [C]-CA--CB-[CG] |==|  0.38973
USER: genes 16 Torsion [CA]-CB--CG-[CD1] |==|  0.24218
USER: genes 17 Torsion [C]-CA--N-[C] |==|  0.77778
USER: genes 18 Torsion [N]-C--CA-[N] |==|  0.88197
USER: genes 19 Torsion [C]-CA--N-[C] |==|  0.80229
USER: genes 20 Torsion [N]-C--CA-[N] |==|  0.34767
USER: genes 21 Torsion [C]-CA--CB-[CG] |==|  0.18633
USER: genes 22 Torsion [CA]-CB--CG-[OD1] |==|  0.56895
ROOT
ATOM      1  CA  LEU D   5      -8.404 -32.263  17.745  1.00 45.78 LIG 0.18  C 
ENDROOT
BRANCH 1 2
ATOM      2  CB  LEU D   5      -9.401 -33.290  17.215  1.00 44.83 LIG 0.04  C 
BRANCH 2 3
ATOM      3  CG  LEU D   5      -9.460 -33.525  15.711  1.00 46.71 LIG-0.02  C 
ATOM      4  CD1 LEU D   5      -9.607 -35.015  15.451  1.00 43.35 LIG 0.01  C 
ATOM      5  CD2 LEU D   5     -10.613 -32.752  15.070  1.00 50.41 LIG 0.01  C 
ENDBRANCH 2 3
ENDBRANCH 1 2
BRANCH 1 6
ATOM      6  C   LEU D   5      -8.258 -32.498  19.239  1.00 49.70 LIG 0.24  C 
ATOM      7  N   ASN D   6      -9.307 -32.130  19.977  1.00 52.00 LIG-0.35  N 
ATOM      8 H    ASN D   6      -9.988 -31.717  19.653  1.00 52.00 LIG 0.16  HD
ATOM      9 O    LEU D   5      -7.235 -33.041  19.697  1.00 48.20 LIG-0.27  OA
BRANCH 7 10
ATOM     10  CA  ASN D   6      -9.409 -32.390  21.414  1.00 59.27 LIG 0.18  C 
BRANCH 10 11
ATOM     11  C   ASN D   6      -9.668 -33.886  21.630  1.00 60.71 LIG 0.24  C 
ATOM     12  N   LEU D   7     -10.374 -34.509  20.687  1.00 62.75 LIG-0.35  N 
ATOM     13 H    LEU D   7     -10.585 -34.148  19.935  1.00 62.75 LIG 0.16  HD
ATOM     14 O    ASN D   6      -9.233 -34.459  22.632  1.00 63.11 LIG-0.27  OA
BRANCH 12 15
ATOM     15  CA  LEU D   7     -10.864 -35.884  20.847  1.00 66.71 LIG 0.16  C 
BRANCH 15 16
ATOM     16  C   LEU D   7     -10.355 -36.839  19.762  1.00 66.58 LIG 0.22  C 
ATOM     17 O    LEU D   7     -11.038 -37.785  19.384  1.00 70.30 LIG-0.29  OA
ENDBRANCH 15 16
BRANCH 15 18
ATOM     18  CB  LEU D   7     -12.399 -35.875  20.872  1.00 67.13 LIG 0.04  C 
BRANCH 18 19
ATOM     19  CG  LEU D   7     -13.017 -34.979  21.956  1.00 64.50 LIG-0.02  C 
ATOM     20  CD1 LEU D   7     -14.012 -34.001  21.342  1.00 64.54 LIG 0.01  C 
ATOM     21  CD2 LEU D   7     -13.672 -35.812  23.054  1.00 62.99 LIG 0.01  C 
ENDBRANCH 18 19
ENDBRANCH 15 18
ENDBRANCH 12 15
ENDBRANCH 10 11
BRANCH 10 22
ATOM     22  CB  ASN D   6     -10.533 -31.535  22.017  1.00 63.11 LIG 0.14  C 
BRANCH 22 23
ATOM     23  CG  ASN D   6     -10.681 -31.724  23.518  1.00 71.29 LIG 0.22  C 
ATOM     24  ND2 ASN D   6     -11.929 -31.802  23.983  1.00 72.89 LIG-0.37  N 
ATOM     25 21HD ASN D   6     -12.068 -31.903  24.825  1.00 72.89 LIG 0.16  HD
ATOM     26 22HD ASN D   6     -12.594 -31.751  23.440  1.00 72.89 LIG 0.16  HD
ATOM     27 OD1  ASN D   6      -9.689 -31.791  24.255  1.00 74.05 LIG-0.27  OA
ENDBRANCH 22 23
ENDBRANCH 10 22
ENDBRANCH 7 10
ENDBRANCH 1 6
BRANCH 1 28
ATOM     28  N   LEU D   5      -7.107 -32.375  17.057  1.00 43.46 LIG-0.35  N 
ATOM     29 H    LEU D   5      -6.532 -32.864  17.469  1.00 43.46 LIG 0.16  HD
ATOM     30  C   LEU D   4      -6.862 -31.768  15.900  1.00 41.34 LIG 0.24  C 
ATOM     31 O    LEU D   4      -7.665 -31.037  15.341  1.00 44.89 LIG-0.27  OA
BRANCH 30 32
ATOM     32  CA  LEU D   4      -5.554 -32.071  15.231  1.00 41.83 LIG 0.18  C 
BRANCH 32 33
ATOM     33  CB  LEU D   4      -5.625 -31.593  13.769  1.00 37.92 LIG 0.04  C 
BRANCH 33 34
ATOM     34  CG  LEU D   4      -4.360 -30.937  13.224  1.00 37.44 LIG-0.02  C 
ATOM     35  CD1 LEU D   4      -3.435 -32.003  12.663  1.00 34.88 LIG 0.01  C 
ATOM     36  CD2 LEU D   4      -4.704 -29.910  12.142  1.00 37.22 LIG 0.01  C 
ENDBRANCH 33 34
ENDBRANCH 32 33
BRANCH 32 37
ATOM     37  N   LEU D   4      -5.175 -33.485  15.308  1.00 45.71 LIG-0.35  N 
ATOM     38 H    LEU D   4      -5.337 -33.940  14.597  1.00 45.71 LIG 0.16  HD
ATOM     39  C   ASP D   3      -4.623 -33.988  16.411  1.00 59.12 LIG 0.24  C 
ATOM     40 O    ASP D   3      -4.528 -33.359  17.471  1.00 63.71 LIG-0.27  OA
BRANCH 39 41
ATOM     41  CA  ASP D   3      -4.142 -35.434  16.347  1.00 63.74 LIG 0.19  C 
BRANCH 41 42
ATOM     42  N   ASP D   3      -5.082 -36.311  15.658  1.00 62.73 LIG-0.35  N 
ATOM     43 H    ASP D   3      -4.817 -36.580  14.885  1.00 62.73 LIG 0.16  HD
ATOM     44  C   GLY D   2      -6.242 -36.649  16.204  1.00 63.13 LIG 0.25  C 
ATOM     45 O    GLY D   2      -6.634 -36.204  17.286  1.00 65.69 LIG-0.27  OA
BRANCH 44 46
ATOM     46  CA  GLY D   2      -7.089 -37.626  15.416  1.00 64.97 LIG 0.47  C 
ATOM     47  N   GLY D   2      -7.457 -38.824  16.225  1.00 67.04 LIG 0.61  N 
ENDBRANCH 44 46
ENDBRANCH 41 42
BRANCH 41 48
ATOM     48  CB  ASP D   3      -2.753 -35.497  15.698  1.00 68.02 LIG 0.15  C 
BRANCH 48 49
ATOM     49  CG  ASP D   3      -1.685 -34.851  16.548  1.00 72.98 LIG 0.17  C 
ATOM     50 OD1  ASP D   3      -0.656 -34.413  15.988  1.00 76.93 LIG-0.65  OA
ATOM     51 OD2  ASP D   3      -1.870 -34.790  17.784  1.00 81.56 LIG-0.65  OA
ENDBRANCH 48 49
ENDBRANCH 41 48
ENDBRANCH 39 41
ENDBRANCH 32 37
ENDBRANCH 30 32
ENDBRANCH 1 28
TORSDOF 21
ENDMDL
MODEL 4
USER: ADFR SOLUTION from run 32
USER: SCORE 17.024684 LL:  -3.682 LR: -13.995 RR:   0.000 FEB:  -7.731
USER: RMSD 6.432535
USER: SEED 31
USER: STATUS no improvement in best in 2 clusters for 5 generations
USER: GENES 23
USER: genes 0 Translation |==|  0.48056 0.70961 0.63099
USER: genes 1 Rotation |==|  0.72976 0.64423 0.20679 0.80072
USER: genes 2 Torsion [C]-CA--CB-[CG] |==|  0.57754
USER: genes 3 Torsion [CA]-CB--CG-[CD1] |==|  0.37265
USER: genes 4 Torsion [N]-CA--C-[N] |==|  0.27321
USER: genes 5 Torsion [C]-N--CA-[C] |==|  0.63594
USER: genes 6 Torsion [N]-CA--C-[N] |==|  0.37430
USER: genes 7 Torsion [C]-N--CA-[C] |==|  0.55569
USER: genes 8 Torsion [N]-CA--C-[O] |==|  0.14749
USER: genes 9 Torsion [N]-CA--CB-[CG] |==|  0.11486
USER: genes 10 Torsion [CA]-CB--CG-[CD1] |==|  0.36966
USER: genes 11 Torsion [N]-CA--CB-[CG] |==|  0.71453
USER: genes 12 Torsion [CA]-CB--CG-[ND2] |==|  0.89070
USER: genes 13 Torsion [CB]-CA--N-[C] |==|  0.78664
USER: genes 14 Torsion [N]-C--CA-[N] |==|  0.07222
USER: genes 15 Torsion [C]-CA--CB-[CG] |==|  0.32133
USER: genes 16 Torsion [CA]-CB--CG-[CD1] |==|  0.99681
USER: genes 17 Torsion [C]-CA--N-[C] |==|  0.69457
USER: genes 18 Torsion [N]-C--CA-[N] |==|  0.37026
USER: genes 19 Torsion [C]-CA--N-[C] |==|  0.84253
USER: genes 20 Torsion [N]-C--CA-[N] |==|  0.88048
USER: genes 21 Torsion [C]-CA--CB-[CG] |==|  0.86046
USER: genes 22 Torsion [CA]-CB--CG-[OD1] |==|  0.32149
ROOT
ATOM      1  CA  LEU D   5      -5.978 -32.417  18.645  1.00 45.78 LIG 0.18  C 
ENDROOT
BRANCH 1 2
ATOM      2  CB  LEU D   5      -5.562 -31.154  19.392  1.00 44.83 LIG 0.04  C 
BRANCH 2 3
ATOM      3  CG  LEU D   5      -4.115 -30.692  19.273  1.00 46.71 LIG-0.02  C 
ATOM      4  CD1 LEU D   5      -4.096 -29.195  19.010  1.00 43.35 LIG 0.01  C 
ATOM      5  CD2 LEU D   5      -3.318 -31.025  20.535  1.00 50.41 LIG 0.01  C 
ENDBRANCH 2 3
ENDBRANCH 1 2
BRANCH 1 6
ATOM      6  C   LEU D   5      -7.459 -32.295  18.328  1.00 49.70 LIG 0.24  C 
ATOM      7  N   ASN D   6      -8.167 -33.416  18.479  1.00 52.00 LIG-0.35  N 
ATOM      8 H    ASN D   6      -7.809 -34.176  18.663  1.00 52.00 LIG 0.16  HD
ATOM      9 O    LEU D   5      -7.948 -31.197  18.002  1.00 48.20 LIG-0.27  OA
BRANCH 7 10
ATOM     10  CA  ASN D   6      -9.623 -33.470  18.347  1.00 59.27 LIG 0.18  C 
BRANCH 10 11
ATOM     11  C   ASN D   6     -10.204 -34.214  19.555  1.00 60.71 LIG 0.24  C 
ATOM     12  N   LEU D   7     -11.269 -33.662  20.136  1.00 62.75 LIG-0.35  N 
ATOM     13 H    LEU D   7     -11.698 -32.994  19.806  1.00 62.75 LIG 0.16  HD
ATOM     14 O    ASN D   6      -9.694 -35.266  19.947  1.00 63.11 LIG-0.27  OA
BRANCH 12 15
ATOM     15  CA  LEU D   7     -11.815 -34.150  21.410  1.00 66.71 LIG 0.16  C 
BRANCH 15 16
ATOM     16  C   LEU D   7     -13.268 -33.726  21.649  1.00 66.58 LIG 0.22  C 
ATOM     17 O    LEU D   7     -14.135 -33.949  20.810  1.00 70.30 LIG-0.29  OA
ENDBRANCH 15 16
BRANCH 15 18
ATOM     18  CB  LEU D   7     -10.922 -33.667  22.561  1.00 67.13 LIG 0.04  C 
BRANCH 18 19
ATOM     19  CG  LEU D   7     -10.434 -32.216  22.428  1.00 64.50 LIG-0.02  C 
ATOM     20  CD1 LEU D   7     -10.625 -31.463  23.739  1.00 64.54 LIG 0.01  C 
ATOM     21  CD2 LEU D   7      -8.979 -32.162  21.971  1.00 62.99 LIG 0.01  C 
ENDBRANCH 18 19
ENDBRANCH 15 18
ENDBRANCH 12 15
ENDBRANCH 10 11
BRANCH 10 22
ATOM     22  CB  ASN D   6      -9.998 -34.166  17.029  1.00 63.11 LIG 0.14  C 
BRANCH 22 23
ATOM     23  CG  ASN D   6     -10.429 -33.190  15.946  1.00 71.29 LIG 0.22  C 
ATOM     24  ND2 ASN D   6     -11.181 -32.162  16.344  1.00 72.89 LIG-0.37  N 
ATOM     25 21HD ASN D   6     -11.456 -31.584  15.770  1.00 72.89 LIG 0.16  HD
ATOM     26 22HD ASN D   6     -11.391 -32.078  17.174  1.00 72.89 LIG 0.16  HD
ATOM     27 OD1  ASN D   6     -10.099 -33.356  14.765  1.00 74.05 LIG-0.27  OA
ENDBRANCH 22 23
ENDBRANCH 10 22
ENDBRANCH 7 10
ENDBRANCH 1 6
BRANCH 1 28
ATOM     28  N   LEU D   5      -5.183 -32.598  17.418  1.00 43.46 LIG-0.35  N 
ATOM     29 H    LEU D   5      -4.568 -33.195  17.483  1.00 43.46 LIG 0.16  HD
ATOM     30  C   LEU D   4      -5.410 -31.893  16.314  1.00 41.34 LIG 0.24  C 
ATOM     31 O    LEU D   4      -6.255 -31.013  16.240  1.00 44.89 LIG-0.27  OA
BRANCH 30 32
ATOM     32  CA  LEU D   4      -4.628 -32.266  15.090  1.00 41.83 LIG 0.18  C 
BRANCH 32 33
ATOM     33  CB  LEU D   4      -5.473 -31.938  13.846  1.00 37.92 LIG 0.04  C 
BRANCH 33 34
ATOM     34  CG  LEU D   4      -4.909 -30.859  12.926  1.00 37.44 LIG-0.02  C 
ATOM     35  CD1 LEU D   4      -3.608 -30.330  13.501  1.00 34.88 LIG 0.01  C 
ATOM     36  CD2 LEU D   4      -4.681 -31.412  11.517  1.00 37.22 LIG 0.01  C 
ENDBRANCH 33 34
ENDBRANCH 32 33
BRANCH 32 37
ATOM     37  N   LEU D   4      -4.193 -33.666  15.082  1.00 45.71 LIG-0.35  N 
ATOM     38 H    LEU D   4      -4.826 -34.238  14.976  1.00 45.71 LIG 0.16  HD
ATOM     39  C   ASP D   3      -2.909 -33.986  15.228  1.00 59.12 LIG 0.24  C 
ATOM     40 O    ASP D   3      -2.033 -33.165  15.521  1.00 63.71 LIG-0.27  OA
BRANCH 39 41
ATOM     41  CA  ASP D   3      -2.540 -35.458  15.071  1.00 63.74 LIG 0.19  C 
BRANCH 41 42
ATOM     42  N   ASP D   3      -1.376 -35.659  14.217  1.00 62.73 LIG-0.35  N 
ATOM     43 H    ASP D   3      -0.731 -36.092  14.589  1.00 62.73 LIG 0.16  HD
ATOM     44  C   GLY D   2      -1.341 -35.202  12.973  1.00 63.13 LIG 0.25  C 
ATOM     45 O    GLY D   2      -2.247 -34.530  12.476  1.00 65.69 LIG-0.27  OA
BRANCH 44 46
ATOM     46  CA  GLY D   2      -0.103 -35.547  12.171  1.00 64.97 LIG 0.47  C 
ATOM     47  N   GLY D   2       1.144 -35.383  12.973  1.00 67.04 LIG 0.61  N 
ENDBRANCH 44 46
ENDBRANCH 41 42
BRANCH 41 48
ATOM     48  CB  ASP D   3      -2.329 -36.096  16.450  1.00 68.02 LIG 0.15  C 
BRANCH 48 49
ATOM     49  CG  ASP D   3      -1.396 -35.294  17.326  1.00 72.98 LIG 0.17  C 
ATOM     50 OD1  ASP D   3      -1.847 -34.787  18.376  1.00 76.93 LIG-0.65  OA
ATOM     51 OD2  ASP D   3      -0.208 -35.162  16.957  1.00 81.56 LIG-0.65  OA
ENDBRANCH 48 49
ENDBRANCH 41 48
ENDBRANCH 39 41
ENDBRANCH 32 37
ENDBRANCH 30 32
ENDBRANCH 1 28
TORSDOF 21
ENDMDL
MODEL 5
USER: ADFR SOLUTION from run 61
USER: SCORE 14.576213 LL:  -3.404 LR: -13.861 RR:   0.000 FEB:  -7.597
USER: RMSD 6.500677
USER: SEED 60
USER: STATUS no improvement in best in 19 clusters for 5 generations
USER: GENES 23
USER: genes 0 Translation |==|  0.36587 0.69686 0.47924
USER: genes 1 Rotation |==|  0.12741 0.48108 0.57953 0.82325
USER: genes 2 Torsion [C]-CA--CB-[CG] |==|  0.47944
USER: genes 3 Torsion [CA]-CB--CG-[CD1] |==|  0.87837
USER: genes 4 Torsion [N]-CA--C-[N] |==|  0.75234
USER: genes 5 Torsion [C]-N--CA-[C] |==|  0.20563
USER: genes 6 Torsion [N]-CA--C-[N] |==|  0.29984
USER: genes 7 Torsion [C]-N--CA-[C] |==|  0.22122
USER: genes 8 Torsion [N]-CA--C-[O] |==|  0.45100
USER: genes 9 Torsion [N]-CA--CB-[CG] |==|  0.75151
USER: genes 10 Torsion [CA]-CB--CG-[CD1] |==|  0.90063
USER: genes 11 Torsion [N]-CA--CB-[CG] |==|  0.46553
USER: genes 12 Torsion [CA]-CB--CG-[ND2] |==|  0.12141
USER: genes 13 Torsion [CB]-CA--N-[C] |==|  0.53030
USER: genes 14 Torsion [N]-C--CA-[N] |==|  0.84882
USER: genes 15 Torsion [C]-CA--CB-[CG] |==|  0.38256
USER: genes 16 Torsion [CA]-CB--CG-[CD1] |==|  0.72043
USER: genes 17 Torsion [C]-CA--N-[C] |==|  0.66807
USER: genes 18 Torsion [N]-C--CA-[N] |==|  0.35186
USER: genes 19 Torsion [C]-CA--N-[C] |==|  0.82751
USER: genes 20 Torsion [N]-C--CA-[N] |==|  0.42468
USER: genes 21 Torsion [C]-CA--CB-[CG] |==|  0.81137
USER: genes 22 Torsion [CA]-CB--CG-[OD1] |==|  0.85639
ROOT
ATOM      1  CA  LEU D   5      -8.472 -32.676  16.027  1.00 45.78 LIG 0.18  C 
ENDROOT
BRANCH 1 2
ATOM      2  CB  LEU D   5      -9.375 -33.902  15.932  1.00 44.83 LIG 0.04  C 
BRANCH 2 3
ATOM      3  CG  LEU D   5      -9.896 -34.307  14.559  1.00 46.71 LIG-0.02  C 
ATOM      4  CD1 LEU D   5     -10.358 -33.061  13.820  1.00 43.35 LIG 0.01  C 
ATOM      5  CD2 LEU D   5      -8.828 -35.045  13.752  1.00 50.41 LIG 0.01  C 
ENDBRANCH 2 3
ENDBRANCH 1 2
BRANCH 1 6
ATOM      6  C   LEU D   5      -8.249 -32.385  17.502  1.00 49.70 LIG 0.24  C 
ATOM      7  N   ASN D   6      -8.219 -33.459  18.294  1.00 52.00 LIG-0.35  N 
ATOM      8 H    ASN D   6      -8.391 -34.254  18.014  1.00 52.00 LIG 0.16  HD
ATOM      9 O    LEU D   5      -8.064 -31.219  17.896  1.00 48.20 LIG-0.27  OA
BRANCH 7 10
ATOM     10  CA  ASN D   6      -7.890 -33.397  19.719  1.00 59.27 LIG 0.18  C 
BRANCH 10 11
ATOM     11  C   ASN D   6      -9.079 -32.794  20.476  1.00 60.71 LIG 0.24  C 
ATOM     12  N   LEU D   7      -9.789 -33.633  21.231  1.00 62.75 LIG-0.35  N 
ATOM     13 H    LEU D   7      -9.549 -34.442  21.397  1.00 62.75 LIG 0.16  HD
ATOM     14 O    ASN D   6      -9.343 -31.594  20.376  1.00 63.11 LIG-0.27  OA
BRANCH 12 15
ATOM     15  CA  LEU D   7     -11.060 -33.247  21.858  1.00 66.71 LIG 0.16  C 
BRANCH 15 16
ATOM     16  C   LEU D   7     -12.249 -33.288  20.893  1.00 66.58 LIG 0.22  C 
ATOM     17 O    LEU D   7     -13.401 -33.311  21.314  1.00 70.30 LIG-0.29  OA
ENDBRANCH 15 16
BRANCH 15 18
ATOM     18  CB  LEU D   7     -10.918 -31.846  22.470  1.00 67.13 LIG 0.04  C 
BRANCH 18 19
ATOM     19  CG  LEU D   7     -10.424 -31.829  23.925  1.00 64.50 LIG-0.02  C 
ATOM     20  CD1 LEU D   7     -10.988 -33.016  24.697  1.00 64.54 LIG 0.01  C 
ATOM     21  CD2 LEU D   7      -8.900 -31.806  23.991  1.00 62.99 LIG 0.01  C 
ENDBRANCH 18 19
ENDBRANCH 15 18
ENDBRANCH 12 15
ENDBRANCH 10 11
BRANCH 10 22
ATOM     22  CB  ASN D   6      -6.617 -32.561  19.920  1.00 63.11 LIG 0.14  C 
BRANCH 22 23
ATOM     23  CG  ASN D   6      -6.374 -32.195  21.375  1.00 71.29 LIG 0.22  C 
ATOM     24  ND2 ASN D   6      -6.560 -33.169  22.267  1.00 72.89 LIG-0.37  N 
ATOM     25 21HD ASN D   6      -6.441 -33.013  23.104  1.00 72.89 LIG 0.16  HD
ATOM     26 22HD ASN D   6      -6.799 -33.953  22.005  1.00 72.89 LIG 0.16  HD
ATOM     27 OD1  ASN D   6      -6.030 -31.051  21.699  1.00 74.05 LIG-0.27  OA
ENDBRANCH 22 23
ENDBRANCH 10 22
ENDBRANCH 7 10
ENDBRANCH 1 6
BRANCH 1 28
ATOM     28  N   LEU D   5      -7.196 -32.897  15.327  1.00 43.46 LIG-0.35  N 
ATOM     29 H    LEU D   5      -7.181 -33.606  14.840  1.00 43.46 LIG 0.16  HD
ATOM     30  C   LEU D   4      -6.167 -32.064  15.446  1.00 41.34 LIG 0.24  C 
ATOM     31 O    LEU D   4      -6.176 -31.083  16.175  1.00 44.89 LIG-0.27  OA
BRANCH 30 32
ATOM     32  CA  LEU D   4      -4.972 -32.321  14.575  1.00 41.83 LIG 0.18  C 
BRANCH 32 33
ATOM     33  CB  LEU D   4      -5.349 -32.004  13.116  1.00 37.92 LIG 0.04  C 
BRANCH 33 34
ATOM     34  CG  LEU D   4      -4.297 -31.248  12.310  1.00 37.44 LIG-0.02  C 
ATOM     35  CD1 LEU D   4      -4.669 -29.778  12.241  1.00 34.88 LIG 0.01  C 
ATOM     36  CD2 LEU D   4      -2.910 -31.417  12.934  1.00 37.22 LIG 0.01  C 
ENDBRANCH 33 34
ENDBRANCH 32 33
BRANCH 32 37
ATOM     37  N   LEU D   4      -4.442 -33.682  14.702  1.00 45.71 LIG-0.35  N 
ATOM     38 H    LEU D   4      -4.996 -34.305  14.489  1.00 45.71 LIG 0.16  HD
ATOM     39  C   ASP D   3      -3.195 -33.897  15.117  1.00 59.12 LIG 0.24  C 
ATOM     40 O    ASP D   3      -2.462 -33.003  15.555  1.00 63.71 LIG-0.27  OA
BRANCH 39 41
ATOM     41  CA  ASP D   3      -2.694 -35.337  15.088  1.00 63.74 LIG 0.19  C 
BRANCH 41 42
ATOM     42  N   ASP D   3      -1.439 -35.482  14.360  1.00 62.73 LIG-0.35  N 
ATOM     43 H    ASP D   3      -0.781 -35.767  14.837  1.00 62.73 LIG 0.16  HD
ATOM     44  C   GLY D   2      -1.348 -35.191  13.069  1.00 63.13 LIG 0.25  C 
ATOM     45 O    GLY D   2      -2.284 -34.723  12.416  1.00 65.69 LIG-0.27  OA
BRANCH 44 46
ATOM     46  CA  GLY D   2      -0.007 -35.459  12.419  1.00 64.97 LIG 0.47  C 
ATOM     47  N   GLY D   2      -0.141 -35.735  10.959  1.00 67.04 LIG 0.61  N 
ENDBRANCH 44 46
ENDBRANCH 41 42
BRANCH 41 48
ATOM     48  CB  ASP D   3      -2.568 -35.878  16.518  1.00 68.02 LIG 0.15  C 
BRANCH 48 49
ATOM     49  CG  ASP D   3      -1.469 -35.201  17.301  1.00 72.98 LIG 0.17  C 
ATOM     50 OD1  ASP D   3      -0.325 -35.137  16.799  1.00 76.93 LIG-0.65  OA
ATOM     51 OD2  ASP D   3      -1.747 -34.738  18.430  1.00 81.56 LIG-0.65  OA
ENDBRANCH 48 49
ENDBRANCH 41 48
ENDBRANCH 39 41
ENDBRANCH 32 37
ENDBRANCH 30 32
ENDBRANCH 1 28
TORSDOF 21
ENDMDL
MODEL 6
USER: ADFR SOLUTION from run 41
USER: SCORE 16.937115 LL:  -3.783 LR: -13.850 RR:   0.000 FEB:  -7.585
USER: RMSD 6.355006
USER: SEED 40
USER: STATUS 1 or 2 clusters left
USER: GENES 23
USER: genes 0 Translation |==|  0.35672 0.72775 0.52488
USER: genes 1 Rotation |==|  0.25148 0.49493 0.46610 0.93251
USER: genes 2 Torsion [C]-CA--CB-[CG] |==|  0.70632
USER: genes 3 Torsion [CA]-CB--CG-[CD1] |==|  0.20438
USER: genes 4 Torsion [N]-CA--C-[N] |==|  0.15555
USER: genes 5 Torsion [C]-N--CA-[C] |==|  0.83720
USER: genes 6 Torsion [N]-CA--C-[N] |==|  0.39650
USER: genes 7 Torsion [C]-N--CA-[C] |==|  0.78311
USER: genes 8 Torsion [N]-CA--C-[O] |==|  0.06212
USER: genes 9 Torsion [N]-CA--CB-[CG] |==|  0.70330
USER: genes 10 Torsion [CA]-CB--CG-[CD1] |==|  0.58288
USER: genes 11 Torsion [N]-CA--CB-[CG] |==|  0.43574
USER: genes 12 Torsion [CA]-CB--CG-[ND2] |==|  0.63793
USER: genes 13 Torsion [CB]-CA--N-[C] |==|  0.18853
USER: genes 14 Torsion [N]-C--CA-[N] |==|  0.04663
USER: genes 15 Torsion [C]-CA--CB-[CG] |==|  0.34721
USER: genes 16 Torsion [CA]-CB--CG-[CD1] |==|  0.81366
USER: genes 17 Torsion [C]-CA--N-[C] |==|  0.72736
USER: genes 18 Torsion [N]-C--CA-[N] |==|  0.97164
USER: genes 19 Torsion [C]-CA--N-[C] |==|  0.73537
USER: genes 20 Torsion [N]-C--CA-[N] |==|  0.68231
USER: genes 21 Torsion [C]-CA--CB-[CG] |==|  0.25779
USER: genes 22 Torsion [CA]-CB--CG-[OD1] |==|  0.00483
ROOT
ATOM      1  CA  LEU D   5      -8.671 -32.050  16.814  1.00 45.78 LIG 0.18  C 
ENDROOT
BRANCH 1 2
ATOM      2  CB  LEU D   5      -9.809 -32.488  15.897  1.00 44.83 LIG 0.04  C 
BRANCH 2 3
ATOM      3  CG  LEU D   5      -9.490 -33.462  14.770  1.00 46.71 LIG-0.02  C 
ATOM      4  CD1 LEU D   5      -9.266 -34.844  15.361  1.00 43.35 LIG 0.01  C 
ATOM      5  CD2 LEU D   5     -10.610 -33.499  13.730  1.00 50.41 LIG 0.01  C 
ENDBRANCH 2 3
ENDBRANCH 1 2
BRANCH 1 6
ATOM      6  C   LEU D   5      -8.853 -32.767  18.142  1.00 49.70 LIG 0.24  C 
ATOM      7  N   ASN D   6      -7.908 -32.523  19.052  1.00 52.00 LIG-0.35  N 
ATOM      8 H    ASN D   6      -7.203 -32.060  18.886  1.00 52.00 LIG 0.16  HD
ATOM      9 O    LEU D   5      -9.850 -33.485  18.342  1.00 48.20 LIG-0.27  OA
BRANCH 7 10
ATOM     10  CA  ASN D   6      -7.973 -33.017  20.429  1.00 59.27 LIG 0.18  C 
BRANCH 10 11
ATOM     11  C   ASN D   6      -9.253 -32.486  21.086  1.00 60.71 LIG 0.24  C 
ATOM     12  N   LEU D   7      -9.881 -33.316  21.919  1.00 62.75 LIG-0.35  N 
ATOM     13 H    LEU D   7      -9.551 -34.065  22.182  1.00 62.75 LIG 0.16  HD
ATOM     14 O    ASN D   6      -9.657 -31.346  20.841  1.00 63.11 LIG-0.27  OA
BRANCH 12 15
ATOM     15  CA  LEU D   7     -11.211 -33.023  22.470  1.00 66.71 LIG 0.16  C 
BRANCH 15 16
ATOM     16  C   LEU D   7     -11.181 -32.017  23.625  1.00 66.58 LIG 0.22  C 
ATOM     17 O    LEU D   7     -10.243 -31.238  23.757  1.00 70.30 LIG-0.29  OA
ENDBRANCH 15 16
BRANCH 15 18
ATOM     18  CB  LEU D   7     -11.871 -34.334  22.921  1.00 67.13 LIG 0.04  C 
BRANCH 18 19
ATOM     19  CG  LEU D   7     -13.009 -34.824  22.014  1.00 64.50 LIG-0.02  C 
ATOM     20  CD1 LEU D   7     -14.038 -35.608  22.819  1.00 64.54 LIG 0.01  C 
ATOM     21  CD2 LEU D   7     -13.663 -33.662  21.271  1.00 62.99 LIG 0.01  C 
ENDBRANCH 18 19
ENDBRANCH 15 18
ENDBRANCH 12 15
ENDBRANCH 10 11
BRANCH 10 22
ATOM     22  CB  ASN D   6      -6.722 -32.569  21.199  1.00 63.11 LIG 0.14  C 
BRANCH 22 23
ATOM     23  CG  ASN D   6      -6.935 -32.532  22.704  1.00 71.29 LIG 0.22  C 
ATOM     24  ND2 ASN D   6      -6.560 -31.412  23.325  1.00 72.89 LIG-0.37  N 
ATOM     25 21HD ASN D   6      -6.653 -31.341  24.177  1.00 72.89 LIG 0.16  HD
ATOM     26 22HD ASN D   6      -6.224 -30.761  22.874  1.00 72.89 LIG 0.16  HD
ATOM     27 OD1  ASN D   6      -7.423 -33.496  23.306  1.00 74.05 LIG-0.27  OA
ENDBRANCH 22 23
ENDBRANCH 10 22
ENDBRANCH 7 10
ENDBRANCH 1 6
BRANCH 1 28
ATOM     28  N   LEU D   5      -7.359 -32.353  16.219  1.00 43.46 LIG-0.35  N 
ATOM     29 H    LEU D   5      -6.918 -32.964  16.633  1.00 43.46 LIG 0.16  HD
ATOM     30  C   LEU D   4      -6.909 -31.727  15.135  1.00 41.34 LIG 0.24  C 
ATOM     31 O    LEU D   4      -7.518 -30.827  14.577  1.00 44.89 LIG-0.27  OA
BRANCH 30 32
ATOM     32  CA  LEU D   4      -5.622 -32.221  14.544  1.00 41.83 LIG 0.18  C 
BRANCH 32 33
ATOM     33  CB  LEU D   4      -5.735 -32.177  13.009  1.00 37.92 LIG 0.04  C 
BRANCH 33 34
ATOM     34  CG  LEU D   4      -4.647 -31.389  12.287  1.00 37.44 LIG-0.02  C 
ATOM     35  CD1 LEU D   4      -4.781 -29.914  12.620  1.00 34.88 LIG 0.01  C 
ATOM     36  CD2 LEU D   4      -3.258 -31.898  12.677  1.00 37.22 LIG 0.01  C 
ENDBRANCH 33 34
ENDBRANCH 32 33
BRANCH 32 37
ATOM     37  N   LEU D   4      -5.243 -33.558  15.010  1.00 45.71 LIG-0.35  N 
ATOM     38 H    LEU D   4      -5.632 -34.206  14.598  1.00 45.71 LIG 0.16  HD
ATOM     39  C   ASP D   3      -4.361 -33.718  15.995  1.00 59.12 LIG 0.24  C 
ATOM     40 O    ASP D   3      -3.921 -32.781  16.670  1.00 63.71 LIG-0.27  OA
BRANCH 39 41
ATOM     41  CA  ASP D   3      -3.932 -35.146  16.316  1.00 63.74 LIG 0.19  C 
BRANCH 41 42
ATOM     42  N   ASP D   3      -4.746 -36.145  15.635  1.00 62.73 LIG-0.35  N 
ATOM     43 H    ASP D   3      -4.492 -36.326  14.833  1.00 62.73 LIG 0.16  HD
ATOM     44  C   GLY D   2      -5.788 -36.713  16.228  1.00 63.13 LIG 0.25  C 
ATOM     45 O    GLY D   2      -6.178 -36.397  17.355  1.00 65.69 LIG-0.27  OA
BRANCH 44 46
ATOM     46  CA  GLY D   2      -6.500 -37.790  15.436  1.00 64.97 LIG 0.47  C 
ATOM     47  N   GLY D   2      -7.890 -37.389  15.073  1.00 67.04 LIG 0.61  N 
ENDBRANCH 44 46
ENDBRANCH 41 42
BRANCH 41 48
ATOM     48  CB  ASP D   3      -2.444 -35.333  15.993  1.00 68.02 LIG 0.15  C 
BRANCH 48 49
ATOM     49  CG  ASP D   3      -1.554 -35.078  17.185  1.00 72.98 LIG 0.17  C 
ATOM     50 OD1  ASP D   3      -2.084 -34.787  18.279  1.00 76.93 LIG-0.65  OA
ATOM     51 OD2  ASP D   3      -0.315 -35.160  17.025  1.00 81.56 LIG-0.65  OA
ENDBRANCH 48 49
ENDBRANCH 41 48
ENDBRANCH 39 41
ENDBRANCH 32 37
ENDBRANCH 30 32
ENDBRANCH 1 28
TORSDOF 21
ENDMDL
MODEL 7
USER: ADFR SOLUTION from run 27
USER: SCORE 16.385918 LL:  -4.718 LR: -13.813 RR:   0.000 FEB:  -7.549
USER: RMSD 6.529933
USER: SEED 26
USER: STATUS no improvement in best in 8 clusters for 5 generations
USER: GENES 23
USER: genes 0 Translation |==|  0.36646 0.65427 0.35892
USER: genes 1 Rotation |==|  0.10468 0.36070 0.50662 0.77253
USER: genes 2 Torsion [C]-CA--CB-[CG] |==|  0.10918
USER: genes 3 Torsion [CA]-CB--CG-[CD1] |==|  0.28845
USER: genes 4 Torsion [N]-CA--C-[N] |==|  0.86821
USER: genes 5 Torsion [C]-N--CA-[C] |==|  0.74462
USER: genes 6 Torsion [N]-CA--C-[N] |==|  0.95339
USER: genes 7 Torsion [C]-N--CA-[C] |==|  0.53131
USER: genes 8 Torsion [N]-CA--C-[O] |==|  0.52372
USER: genes 9 Torsion [N]-CA--CB-[CG] |==|  0.68032
USER: genes 10 Torsion [CA]-CB--CG-[CD1] |==|  0.43044
USER: genes 11 Torsion [N]-CA--CB-[CG] |==|  0.58431
USER: genes 12 Torsion [CA]-CB--CG-[ND2] |==|  0.92639
USER: genes 13 Torsion [CB]-CA--N-[C] |==|  0.49382
USER: genes 14 Torsion [N]-C--CA-[N] |==|  0.92778
USER: genes 15 Torsion [C]-CA--CB-[CG] |==|  0.29103
USER: genes 16 Torsion [CA]-CB--CG-[CD1] |==|  0.75455
USER: genes 17 Torsion [C]-CA--N-[C] |==|  0.57931
USER: genes 18 Torsion [N]-C--CA-[N] |==|  0.35979
USER: genes 19 Torsion [C]-CA--N-[C] |==|  0.83347
USER: genes 20 Torsion [N]-C--CA-[N] |==|  0.44717
USER: genes 21 Torsion [C]-CA--CB-[CG] |==|  0.80189
USER: genes 22 Torsion [CA]-CB--CG-[OD1] |==|  0.35897
ROOT
ATOM      1  CA  LEU D   5      -8.460 -33.538  13.951  1.00 45.78 LIG 0.18  C 
ENDROOT
BRANCH 1 2
ATOM      2  CB  LEU D   5      -8.965 -34.939  13.619  1.00 44.83 LIG 0.04  C 
BRANCH 2 3
ATOM      3  CG  LEU D   5     -10.429 -35.259  13.892  1.00 46.71 LIG-0.02  C 
ATOM      4  CD1 LEU D   5     -11.188 -35.256  12.575  1.00 43.35 LIG 0.01  C 
ATOM      5  CD2 LEU D   5     -10.583 -36.607  14.597  1.00 50.41 LIG 0.01  C 
ENDBRANCH 2 3
ENDBRANCH 1 2
BRANCH 1 6
ATOM      6  C   LEU D   5      -9.113 -33.114  15.256  1.00 49.70 LIG 0.24  C 
ATOM      7  N   ASN D   6      -8.623 -33.698  16.352  1.00 52.00 LIG-0.35  N 
ATOM      8 H    ASN D   6      -8.037 -34.327  16.328  1.00 52.00 LIG 0.16  HD
ATOM      9 O    LEU D   5     -10.006 -32.246  15.264  1.00 48.20 LIG-0.27  OA
BRANCH 7 10
ATOM     10  CA  ASN D   6      -9.032 -33.330  17.709  1.00 59.27 LIG 0.18  C 
BRANCH 10 11
ATOM     11  C   ASN D   6      -8.079 -32.252  18.238  1.00 60.71 LIG 0.24  C 
ATOM     12  N   LEU D   7      -6.925 -32.108  17.588  1.00 62.75 LIG-0.35  N 
ATOM     13 H    LEU D   7      -6.747 -32.500  16.844  1.00 62.75 LIG 0.16  HD
ATOM     14 O    ASN D   6      -8.390 -31.567  19.216  1.00 63.11 LIG-0.27  OA
BRANCH 12 15
ATOM     15  CA  LEU D   7      -5.837 -31.258  18.090  1.00 66.71 LIG 0.16  C 
BRANCH 15 16
ATOM     16  C   LEU D   7      -4.726 -31.025  17.061  1.00 66.58 LIG 0.22  C 
ATOM     17 O    LEU D   7      -3.680 -30.468  17.378  1.00 70.30 LIG-0.29  OA
ENDBRANCH 15 16
BRANCH 15 18
ATOM     18  CB  LEU D   7      -5.258 -31.878  19.369  1.00 67.13 LIG 0.04  C 
BRANCH 18 19
ATOM     19  CG  LEU D   7      -5.462 -31.037  20.638  1.00 64.50 LIG-0.02  C 
ATOM     20  CD1 LEU D   7      -5.443 -31.922  21.879  1.00 64.54 LIG 0.01  C 
ATOM     21  CD2 LEU D   7      -4.417 -29.929  20.740  1.00 62.99 LIG 0.01  C 
ENDBRANCH 18 19
ENDBRANCH 15 18
ENDBRANCH 12 15
ENDBRANCH 10 11
BRANCH 10 22
ATOM     22  CB  ASN D   6      -9.023 -34.576  18.608  1.00 63.11 LIG 0.14  C 
BRANCH 22 23
ATOM     23  CG  ASN D   6     -10.056 -34.509  19.721  1.00 71.29 LIG 0.22  C 
ATOM     24  ND2 ASN D   6     -10.412 -33.287  20.123  1.00 72.89 LIG-0.37  N 
ATOM     25 21HD ASN D   6     -10.988 -33.193  20.754  1.00 72.89 LIG 0.16  HD
ATOM     26 22HD ASN D   6     -10.064 -32.593  19.752  1.00 72.89 LIG 0.16  HD
ATOM     27 OD1  ASN D   6     -10.525 -35.538  20.223  1.00 74.05 LIG-0.27  OA
ENDBRANCH 22 23
ENDBRANCH 10 22
ENDBRANCH 7 10
ENDBRANCH 1 6
BRANCH 1 28
ATOM     28  N   LEU D   5      -6.991 -33.511  14.056  1.00 43.46 LIG-0.35  N 
ATOM     29 H    LEU D   5      -6.617 -34.278  13.948  1.00 43.46 LIG 0.16  HD
ATOM     30  C   LEU D   4      -6.317 -32.391  14.296  1.00 41.34 LIG 0.24  C 
ATOM     31 O    LEU D   4      -6.854 -31.312  14.494  1.00 44.89 LIG-0.27  OA
BRANCH 30 32
ATOM     32  CA  LEU D   4      -4.819 -32.468  14.240  1.00 41.83 LIG 0.18  C 
BRANCH 32 33
ATOM     33  CB  LEU D   4      -4.351 -31.968  12.861  1.00 37.92 LIG 0.04  C 
BRANCH 33 34
ATOM     34  CG  LEU D   4      -3.735 -30.572  12.836  1.00 37.44 LIG-0.02  C 
ATOM     35  CD1 LEU D   4      -4.828 -29.537  12.635  1.00 34.88 LIG 0.01  C 
ATOM     36  CD2 LEU D   4      -2.971 -30.293  14.133  1.00 37.22 LIG 0.01  C 
ENDBRANCH 33 34
ENDBRANCH 32 33
BRANCH 32 37
ATOM     37  N   LEU D   4      -4.294 -33.806  14.525  1.00 45.71 LIG-0.35  N 
ATOM     38 H    LEU D   4      -4.823 -34.452  14.316  1.00 45.71 LIG 0.16  HD
ATOM     39  C   ASP D   3      -3.088 -33.970  15.064  1.00 59.12 LIG 0.24  C 
ATOM     40 O    ASP D   3      -2.401 -33.034  15.489  1.00 63.71 LIG-0.27  OA
BRANCH 39 41
ATOM     41  CA  ASP D   3      -2.577 -35.401  15.198  1.00 63.74 LIG 0.19  C 
BRANCH 41 42
ATOM     42  N   ASP D   3      -1.234 -35.573  14.657  1.00 62.73 LIG-0.35  N 
ATOM     43 H    ASP D   3      -0.651 -35.844  15.229  1.00 62.73 LIG 0.16  HD
ATOM     44  C   GLY D   2      -0.963 -35.324  13.382  1.00 63.13 LIG 0.25  C 
ATOM     45 O    GLY D   2      -1.796 -34.875  12.591  1.00 65.69 LIG-0.27  OA
BRANCH 44 46
ATOM     46  CA  GLY D   2       0.453 -35.617  12.934  1.00 64.97 LIG 0.47  C 
ATOM     47  N   GLY D   2       0.552 -35.750  11.451  1.00 67.04 LIG 0.61  N 
ENDBRANCH 44 46
ENDBRANCH 41 42
BRANCH 41 48
ATOM     48  CB  ASP D   3      -2.641 -35.846  16.665  1.00 68.02 LIG 0.15  C 
BRANCH 48 49
ATOM     49  CG  ASP D   3      -1.607 -35.162  17.526  1.00 72.98 LIG 0.17  C 
ATOM     50 OD1  ASP D   3      -1.977 -34.614  18.588  1.00 76.93 LIG-0.65  OA
ATOM     51 OD2  ASP D   3      -0.418 -35.162  17.135  1.00 81.56 LIG-0.65  OA
ENDBRANCH 48 49
ENDBRANCH 41 48
ENDBRANCH 39 41
ENDBRANCH 32 37
ENDBRANCH 30 32
ENDBRANCH 1 28
TORSDOF 21
ENDMDL
MODEL 8
USER: ADFR SOLUTION from run 177
USER: SCORE 15.289086 LL:  -3.602 LR: -13.695 RR:   0.000 FEB:  -7.431
USER: RMSD 5.686102
USER: SEED 176
USER: STATUS no improvement in best in 17 clusters for 5 generations
USER: GENES 23
USER: genes 0 Translation |==|  0.37083 0.66953 0.38943
USER: genes 1 Rotation |==|  0.20048 0.31583 0.47011 0.85423
USER: genes 2 Torsion [C]-CA--CB-[CG] |==|  0.06178
USER: genes 3 Torsion [CA]-CB--CG-[CD1] |==|  0.20964
USER: genes 4 Torsion [N]-CA--C-[N] |==|  0.85526
USER: genes 5 Torsion [C]-N--CA-[C] |==|  0.77007
USER: genes 6 Torsion [N]-CA--C-[N] |==|  0.24578
USER: genes 7 Torsion [C]-N--CA-[C] |==|  0.12782
USER: genes 8 Torsion [N]-CA--C-[O] |==|  0.16813
USER: genes 9 Torsion [N]-CA--CB-[CG] |==|  0.75903
USER: genes 10 Torsion [CA]-CB--CG-[CD1] |==|  0.24671
USER: genes 11 Torsion [N]-CA--CB-[CG] |==|  0.55308
USER: genes 12 Torsion [CA]-CB--CG-[ND2] |==|  0.81246
USER: genes 13 Torsion [CB]-CA--N-[C] |==|  0.16391
USER: genes 14 Torsion [N]-C--CA-[N] |==|  0.18355
USER: genes 15 Torsion [C]-CA--CB-[CG] |==|  0.26040
USER: genes 16 Torsion [CA]-CB--CG-[CD1] |==|  0.75165
USER: genes 17 Torsion [C]-CA--N-[C] |==|  0.52226
USER: genes 18 Torsion [N]-C--CA-[N] |==|  0.34747
USER: genes 19 Torsion [C]-CA--N-[C] |==|  0.81007
USER: genes 20 Torsion [N]-C--CA-[N] |==|  0.62240
USER: genes 21 Torsion [C]-CA--CB-[CG] |==|  0.82138
USER: genes 22 Torsion [CA]-CB--CG-[OD1] |==|  0.34275
ROOT
ATOM      1  CA  LEU D   5      -8.364 -33.229  14.478  1.00 45.78 LIG 0.18  C 
ENDROOT
BRANCH 1 2
ATOM      2  CB  LEU D   5      -8.572 -34.327  13.438  1.00 44.83 LIG 0.04  C 
BRANCH 2 3
ATOM      3  CG  LEU D   5      -9.819 -35.194  13.549  1.00 46.71 LIG-0.02  C 
ATOM      4  CD1 LEU D   5     -11.020 -34.395  13.069  1.00 43.35 LIG 0.01  C 
ATOM      5  CD2 LEU D   5      -9.675 -36.484  12.739  1.00 50.41 LIG 0.01  C 
ENDBRANCH 2 3
ENDBRANCH 1 2
BRANCH 1 6
ATOM      6  C   LEU D   5      -9.177 -33.603  15.706  1.00 49.70 LIG 0.24  C 
ATOM      7  N   ASN D   6      -8.717 -34.651  16.393  1.00 52.00 LIG-0.35  N 
ATOM      8 H    ASN D   6      -8.059 -35.136  16.126  1.00 52.00 LIG 0.16  HD
ATOM      9 O    LEU D   5     -10.166 -32.925  16.041  1.00 48.20 LIG-0.27  OA
BRANCH 7 10
ATOM     10  CA  ASN D   6      -9.285 -35.086  17.670  1.00 59.27 LIG 0.18  C 
BRANCH 10 11
ATOM     11  C   ASN D   6      -8.682 -34.237  18.796  1.00 60.71 LIG 0.24  C 
ATOM     12  N   LEU D   7      -9.315 -33.100  19.087  1.00 62.75 LIG-0.35  N 
ATOM     13 H    LEU D   7     -10.082 -32.887  18.762  1.00 62.75 LIG 0.16  HD
ATOM     14 O    ASN D   6      -7.665 -34.609  19.385  1.00 63.11 LIG-0.27  OA
BRANCH 12 15
ATOM     15  CA  LEU D   7      -8.754 -32.096  20.000  1.00 66.71 LIG 0.16  C 
BRANCH 15 16
ATOM     16  C   LEU D   7      -7.277 -31.789  19.731  1.00 66.58 LIG 0.22  C 
ATOM     17 O    LEU D   7      -6.914 -31.339  18.649  1.00 70.30 LIG-0.29  OA
ENDBRANCH 15 16
BRANCH 15 18
ATOM     18  CB  LEU D   7      -8.945 -32.567  21.449  1.00 67.13 LIG 0.04  C 
BRANCH 18 19
ATOM     19  CG  LEU D   7     -10.295 -32.182  22.074  1.00 64.50 LIG-0.02  C 
ATOM     20  CD1 LEU D   7     -11.341 -33.255  21.796  1.00 64.54 LIG 0.01  C 
ATOM     21  CD2 LEU D   7     -10.157 -31.926  23.572  1.00 62.99 LIG 0.01  C 
ENDBRANCH 18 19
ENDBRANCH 15 18
ENDBRANCH 12 15
ENDBRANCH 10 11
BRANCH 10 22
ATOM     22  CB  ASN D   6      -8.999 -36.580  17.883  1.00 63.11 LIG 0.14  C 
BRANCH 22 23
ATOM     23  CG  ASN D   6      -9.915 -37.217  18.914  1.00 71.29 LIG 0.22  C 
ATOM     24  ND2 ASN D   6      -9.757 -36.810  20.175  1.00 72.89 LIG-0.37  N 
ATOM     25 21HD ASN D   6     -10.246 -37.143  20.799  1.00 72.89 LIG 0.16  HD
ATOM     26 22HD ASN D   6      -9.165 -36.216  20.364  1.00 72.89 LIG 0.16  HD
ATOM     27 OD1  ASN D   6     -10.751 -38.070  18.589  1.00 74.05 LIG-0.27  OA
ENDBRANCH 22 23
ENDBRANCH 10 22
ENDBRANCH 7 10
ENDBRANCH 1 6
BRANCH 1 28
ATOM     28  N   LEU D   5      -6.938 -33.069  14.808  1.00 43.46 LIG-0.35  N 
ATOM     29 H    LEU D   5      -6.755 -33.191  15.640  1.00 43.46 LIG 0.16  HD
ATOM     30  C   LEU D   4      -6.026 -32.765  13.890  1.00 41.34 LIG 0.24  C 
ATOM     31 O    LEU D   4      -6.297 -32.547  12.719  1.00 44.89 LIG-0.27  OA
BRANCH 30 32
ATOM     32  CA  LEU D   4      -4.590 -32.768  14.325  1.00 41.83 LIG 0.18  C 
BRANCH 32 33
ATOM     33  CB  LEU D   4      -3.736 -32.146  13.205  1.00 37.92 LIG 0.04  C 
BRANCH 33 34
ATOM     34  CG  LEU D   4      -3.461 -30.651  13.334  1.00 37.44 LIG-0.02  C 
ATOM     35  CD1 LEU D   4      -4.563 -29.869  12.642  1.00 34.88 LIG 0.01  C 
ATOM     36  CD2 LEU D   4      -3.364 -30.241  14.806  1.00 37.22 LIG 0.01  C 
ENDBRANCH 33 34
ENDBRANCH 32 33
BRANCH 32 37
ATOM     37  N   LEU D   4      -4.096 -34.098  14.692  1.00 45.71 LIG-0.35  N 
ATOM     38 H    LEU D   4      -4.638 -34.743  14.518  1.00 45.71 LIG 0.16  HD
ATOM     39  C   ASP D   3      -2.897 -34.255  15.248  1.00 59.12 LIG 0.24  C 
ATOM     40 O    ASP D   3      -2.192 -33.311  15.621  1.00 63.71 LIG-0.27  OA
BRANCH 39 41
ATOM     41  CA  ASP D   3      -2.418 -35.686  15.470  1.00 63.74 LIG 0.19  C 
BRANCH 41 42
ATOM     42  N   ASP D   3      -1.121 -35.947  14.859  1.00 62.73 LIG-0.35  N 
ATOM     43 H    ASP D   3      -0.482 -36.078  15.421  1.00 62.73 LIG 0.16  HD
ATOM     44  C   GLY D   2      -0.967 -35.977  13.542  1.00 63.13 LIG 0.25  C 
ATOM     45 O    GLY D   2      -1.880 -35.725  12.751  1.00 65.69 LIG-0.27  OA
BRANCH 44 46
ATOM     46  CA  GLY D   2       0.416 -36.335  13.040  1.00 64.97 LIG 0.47  C 
ATOM     47  N   GLY D   2       0.853 -35.445  11.925  1.00 67.04 LIG 0.61  N 
ENDBRANCH 44 46
ENDBRANCH 41 42
BRANCH 41 48
ATOM     48  CB  ASP D   3      -2.395 -36.006  16.970  1.00 68.02 LIG 0.15  C 
BRANCH 48 49
ATOM     49  CG  ASP D   3      -1.399 -35.162  17.730  1.00 72.98 LIG 0.17  C 
ATOM     50 OD1  ASP D   3      -1.806 -34.471  18.689  1.00 76.93 LIG-0.65  OA
ATOM     51 OD2  ASP D   3      -0.204 -35.182  17.359  1.00 81.56 LIG-0.65  OA
ENDBRANCH 48 49
ENDBRANCH 41 48
ENDBRANCH 39 41
ENDBRANCH 32 37
ENDBRANCH 30 32
ENDBRANCH 1 28
TORSDOF 21
ENDMDL
MODEL 9
USER: ADFR SOLUTION from run 75
USER: SCORE 15.917826 LL:  -4.002 LR: -13.647 RR:   0.000 FEB:  -7.383
USER: RMSD 3.502311
USER: SEED 74
USER: STATUS no improvement in best in 4 clusters for 5 generations
USER: GENES 23
USER: genes 0 Translation |==|  0.39988 0.65991 0.45276
USER: genes 1 Rotation |==|  0.46798 0.50487 0.40447 0.98972
USER: genes 2 Torsion [C]-CA--CB-[CG] |==|  0.01893
USER: genes 3 Torsion [CA]-CB--CG-[CD1] |==|  0.33078
USER: genes 4 Torsion [N]-CA--C-[N] |==|  0.97682
USER: genes 5 Torsion [C]-N--CA-[C] |==|  0.23616
USER: genes 6 Torsion [N]-CA--C-[N] |==|  0.83477
USER: genes 7 Torsion [C]-N--CA-[C] |==|  0.81858
USER: genes 8 Torsion [N]-CA--C-[O] |==|  0.92295
USER: genes 9 Torsion [N]-CA--CB-[CG] |==|  0.64494
USER: genes 10 Torsion [CA]-CB--CG-[CD1] |==|  0.14053
USER: genes 11 Torsion [N]-CA--CB-[CG] |==|  0.42312
USER: genes 12 Torsion [CA]-CB--CG-[ND2] |==|  0.15031
USER: genes 13 Torsion [CB]-CA--N-[C] |==|  0.21044
USER: genes 14 Torsion [N]-C--CA-[N] |==|  0.90660
USER: genes 15 Torsion [C]-CA--CB-[CG] |==|  0.29083
USER: genes 16 Torsion [CA]-CB--CG-[CD1] |==|  0.70681
USER: genes 17 Torsion [C]-CA--N-[C] |==|  0.64509
USER: genes 18 Torsion [N]-C--CA-[N] |==|  0.36681
USER: genes 19 Torsion [C]-CA--N-[C] |==|  0.81598
USER: genes 20 Torsion [N]-C--CA-[N] |==|  0.50992
USER: genes 21 Torsion [C]-CA--CB-[CG] |==|  0.85127
USER: genes 22 Torsion [CA]-CB--CG-[OD1] |==|  0.31437
ROOT
ATOM      1  CA  LEU D   5      -7.733 -33.424  15.570  1.00 45.78 LIG 0.18  C 
ENDROOT
BRANCH 1 2
ATOM      2  CB  LEU D   5      -8.686 -32.708  14.619  1.00 44.83 LIG 0.04  C 
BRANCH 2 3
ATOM      3  CG  LEU D   5      -9.993 -33.401  14.254  1.00 46.71 LIG-0.02  C 
ATOM      4  CD1 LEU D   5     -11.155 -32.534  14.710  1.00 43.35 LIG 0.01  C 
ATOM      5  CD2 LEU D   5     -10.081 -33.669  12.751  1.00 50.41 LIG 0.01  C 
ENDBRANCH 2 3
ENDBRANCH 1 2
BRANCH 1 6
ATOM      6  C   LEU D   5      -8.288 -34.818  15.811  1.00 49.70 LIG 0.24  C 
ATOM      7  N   ASN D   6      -7.544 -35.816  15.331  1.00 52.00 LIG-0.35  N 
ATOM      8 H    ASN D   6      -6.842 -35.690  14.850  1.00 52.00 LIG 0.16  HD
ATOM      9 O    LEU D   5      -9.341 -34.976  16.457  1.00 48.20 LIG-0.27  OA
BRANCH 7 10
ATOM     10  CA  ASN D   6      -7.844 -37.228  15.571  1.00 59.27 LIG 0.18  C 
BRANCH 10 11
ATOM     11  C   ASN D   6      -8.859 -37.705  14.526  1.00 60.71 LIG 0.24  C 
ATOM     12  N   LEU D   7     -10.029 -37.066  14.500  1.00 62.75 LIG-0.35  N 
ATOM     13 H    LEU D   7     -10.189 -36.351  14.949  1.00 62.75 LIG 0.16  HD
ATOM     14 O    ASN D   6      -8.583 -38.633  13.762  1.00 63.11 LIG-0.27  OA
BRANCH 12 15
ATOM     15  CA  LEU D   7     -11.164 -37.531  13.692  1.00 66.71 LIG 0.16  C 
BRANCH 15 16
ATOM     16  C   LEU D   7     -10.901 -37.468  12.183  1.00 66.58 LIG 0.22  C 
ATOM     17 O    LEU D   7     -10.119 -36.648  11.715  1.00 70.30 LIG-0.29  OA
ENDBRANCH 15 16
BRANCH 15 18
ATOM     18  CB  LEU D   7     -12.411 -36.711  14.051  1.00 67.13 LIG 0.04  C 
BRANCH 18 19
ATOM     19  CG  LEU D   7     -13.646 -37.548  14.415  1.00 64.50 LIG-0.02  C 
ATOM     20  CD1 LEU D   7     -13.294 -38.595  15.466  1.00 64.54 LIG 0.01  C 
ATOM     21  CD2 LEU D   7     -14.795 -36.662  14.887  1.00 62.99 LIG 0.01  C 
ENDBRANCH 18 19
ENDBRANCH 15 18
ENDBRANCH 12 15
ENDBRANCH 10 11
BRANCH 10 22
ATOM     22  CB  ASN D   6      -8.384 -37.407  16.999  1.00 63.11 LIG 0.14  C 
BRANCH 22 23
ATOM     23  CG  ASN D   6      -9.312 -38.603  17.135  1.00 71.29 LIG 0.22  C 
ATOM     24  ND2 ASN D   6      -8.827 -39.776  16.723  1.00 72.89 LIG-0.37  N 
ATOM     25 21HD ASN D   6      -9.313 -40.483  16.773  1.00 72.89 LIG 0.16  HD
ATOM     26 22HD ASN D   6      -8.028 -39.824  16.408  1.00 72.89 LIG 0.16  HD
ATOM     27 OD1  ASN D   6     -10.454 -38.479  17.595  1.00 74.05 LIG-0.27  OA
ENDBRANCH 22 23
ENDBRANCH 10 22
ENDBRANCH 7 10
ENDBRANCH 1 6
BRANCH 1 28
ATOM     28  N   LEU D   5      -6.369 -33.480  15.017  1.00 43.46 LIG-0.35  N 
ATOM     29 H    LEU D   5      -6.148 -34.251  14.707  1.00 43.46 LIG 0.16  HD
ATOM     30  C   LEU D   4      -5.563 -32.423  15.005  1.00 41.34 LIG 0.24  C 
ATOM     31 O    LEU D   4      -5.864 -31.342  15.488  1.00 44.89 LIG-0.27  OA
BRANCH 30 32
ATOM     32  CA  LEU D   4      -4.253 -32.570  14.289  1.00 41.83 LIG 0.18  C 
BRANCH 32 33
ATOM     33  CB  LEU D   4      -4.442 -32.143  12.822  1.00 37.92 LIG 0.04  C 
BRANCH 33 34
ATOM     34  CG  LEU D   4      -3.872 -30.777  12.450  1.00 37.44 LIG-0.02  C 
ATOM     35  CD1 LEU D   4      -5.005 -29.779  12.292  1.00 34.88 LIG 0.01  C 
ATOM     36  CD2 LEU D   4      -2.882 -30.295  13.512  1.00 37.22 LIG 0.01  C 
ENDBRANCH 33 34
ENDBRANCH 32 33
BRANCH 32 37
ATOM     37  N   LEU D   4      -3.687 -33.919  14.380  1.00 45.71 LIG-0.35  N 
ATOM     38 H    LEU D   4      -4.224 -34.550  14.147  1.00 45.71 LIG 0.16  HD
ATOM     39  C   ASP D   3      -2.436 -34.112  14.793  1.00 59.12 LIG 0.24  C 
ATOM     40 O    ASP D   3      -1.728 -33.213  15.258  1.00 63.71 LIG-0.27  OA
BRANCH 39 41
ATOM     41  CA  ASP D   3      -1.897 -35.538  14.726  1.00 63.74 LIG 0.19  C 
BRANCH 41 42
ATOM     42  N   ASP D   3      -0.578 -35.612  14.109  1.00 62.73 LIG-0.35  N 
ATOM     43 H    ASP D   3       0.051 -35.858  14.642  1.00 62.73 LIG 0.16  HD
ATOM     44  C   GLY D   2      -0.393 -35.319  12.829  1.00 63.13 LIG 0.25  C 
ATOM     45 O    GLY D   2      -1.294 -34.906  12.095  1.00 65.69 LIG-0.27  OA
BRANCH 44 46
ATOM     46  CA  GLY D   2       1.011 -35.512  12.298  1.00 64.97 LIG 0.47  C 
ATOM     47  N   GLY D   2       1.135 -35.075  10.877  1.00 67.04 LIG 0.61  N 
ENDBRANCH 44 46
ENDBRANCH 41 42
BRANCH 41 48
ATOM     48  CB  ASP D   3      -1.887 -36.162  16.127  1.00 68.02 LIG 0.15  C 
BRANCH 48 49
ATOM     49  CG  ASP D   3      -1.153 -35.313  17.137  1.00 72.98 LIG 0.17  C 
ATOM     50 OD1  ASP D   3      -1.805 -34.787  18.065  1.00 76.93 LIG-0.65  OA
ATOM     51 OD2  ASP D   3       0.081 -35.162  16.996  1.00 81.56 LIG-0.65  OA
ENDBRANCH 48 49
ENDBRANCH 41 48
ENDBRANCH 39 41
ENDBRANCH 32 37
ENDBRANCH 30 32
ENDBRANCH 1 28
TORSDOF 21
ENDMDL
MODEL 10
USER: ADFR SOLUTION from run 176
USER: SCORE 16.757997 LL:  -3.522 LR: -13.643 RR:   0.000 FEB:  -7.378
USER: RMSD 6.492771
USER: SEED 175
USER: STATUS searching
USER: GENES 23
USER: genes 0 Translation |==|  0.42399 0.76302 0.51123
USER: genes 1 Rotation |==|  0.31590 0.52150 0.47444 0.96367
USER: genes 2 Torsion [C]-CA--CB-[CG] |==|  0.95907
USER: genes 3 Torsion [CA]-CB--CG-[CD1] |==|  0.27418
USER: genes 4 Torsion [N]-CA--C-[N] |==|  0.38767
USER: genes 5 Torsion [C]-N--CA-[C] |==|  0.59686
USER: genes 6 Torsion [N]-CA--C-[N] |==|  0.44105
USER: genes 7 Torsion [C]-N--CA-[C] |==|  0.82341
USER: genes 8 Torsion [N]-CA--C-[O] |==|  0.78699
USER: genes 9 Torsion [N]-CA--CB-[CG] |==|  0.67715
USER: genes 10 Torsion [CA]-CB--CG-[CD1] |==|  0.58741
USER: genes 11 Torsion [N]-CA--CB-[CG] |==|  0.24455
USER: genes 12 Torsion [CA]-CB--CG-[ND2] |==|  0.69701
USER: genes 13 Torsion [CB]-CA--N-[C] |==|  0.85556
USER: genes 14 Torsion [N]-C--CA-[N] |==|  0.36353
USER: genes 15 Torsion [C]-CA--CB-[CG] |==|  0.31134
USER: genes 16 Torsion [CA]-CB--CG-[CD1] |==|  0.71616
USER: genes 17 Torsion [C]-CA--N-[C] |==|  0.62574
USER: genes 18 Torsion [N]-C--CA-[N] |==|  0.39190
USER: genes 19 Torsion [C]-CA--N-[C] |==|  0.80109
USER: genes 20 Torsion [N]-C--CA-[N] |==|  0.03403
USER: genes 21 Torsion [C]-CA--CB-[CG] |==|  0.82477
USER: genes 22 Torsion [CA]-CB--CG-[OD1] |==|  0.33132
ROOT
ATOM      1  CA  LEU D   5      -7.208 -31.336  16.579  1.00 45.78 LIG 0.18  C 
ENDROOT
BRANCH 1 2
ATOM      2  CB  LEU D   5      -8.434 -31.491  15.684  1.00 44.83 LIG 0.04  C 
BRANCH 2 3
ATOM      3  CG  LEU D   5      -9.240 -32.780  15.786  1.00 46.71 LIG-0.02  C 
ATOM      4  CD1 LEU D   5     -10.449 -32.537  16.676  1.00 43.35 LIG 0.01  C 
ATOM      5  CD2 LEU D   5      -9.680 -33.273  14.407  1.00 50.41 LIG 0.01  C 
ENDBRANCH 2 3
ENDBRANCH 1 2
BRANCH 1 6
ATOM      6  C   LEU D   5      -7.289 -32.406  17.655  1.00 49.70 LIG 0.24  C 
ATOM      7  N   ASN D   6      -7.775 -31.995  18.828  1.00 52.00 LIG-0.35  N 
ATOM      8 H    ASN D   6      -7.958 -31.173  18.999  1.00 52.00 LIG 0.16  HD
ATOM      9 O    LEU D   5      -6.960 -33.581  17.405  1.00 48.20 LIG-0.27  OA
BRANCH 7 10
ATOM     10  CA  ASN D   6      -8.049 -32.901  19.945  1.00 59.27 LIG 0.18  C 
BRANCH 10 11
ATOM     11  C   ASN D   6      -9.286 -32.401  20.698  1.00 60.71 LIG 0.24  C 
ATOM     12  N   LEU D   7      -9.931 -33.298  21.444  1.00 62.75 LIG-0.35  N 
ATOM     13 H    LEU D   7      -9.628 -34.086  21.606  1.00 62.75 LIG 0.16  HD
ATOM     14 O    ASN D   6      -9.645 -31.224  20.603  1.00 63.11 LIG-0.27  OA
BRANCH 12 15
ATOM     15  CA  LEU D   7     -11.233 -33.019  22.065  1.00 66.71 LIG 0.16  C 
BRANCH 15 16
ATOM     16  C   LEU D   7     -11.180 -31.893  23.103  1.00 66.58 LIG 0.22  C 
ATOM     17 O    LEU D   7     -10.718 -32.089  24.222  1.00 70.30 LIG-0.29  OA
ENDBRANCH 15 16
BRANCH 15 18
ATOM     18  CB  LEU D   7     -11.776 -34.306  22.702  1.00 67.13 LIG 0.04  C 
BRANCH 18 19
ATOM     19  CG  LEU D   7     -13.080 -34.827  22.080  1.00 64.50 LIG-0.02  C 
ATOM     20  CD1 LEU D   7     -13.929 -35.537  23.128  1.00 64.54 LIG 0.01  C 
ATOM     21  CD2 LEU D   7     -13.862 -33.700  21.411  1.00 62.99 LIG 0.01  C 
ENDBRANCH 18 19
ENDBRANCH 15 18
ENDBRANCH 12 15
ENDBRANCH 10 11
BRANCH 10 22
ATOM     22  CB  ASN D   6      -6.822 -32.970  20.867  1.00 63.11 LIG 0.14  C 
BRANCH 22 23
ATOM     23  CG  ASN D   6      -6.828 -31.895  21.941  1.00 71.29 LIG 0.22  C 
ATOM     24  ND2 ASN D   6      -5.930 -30.918  21.802  1.00 72.89 LIG-0.37  N 
ATOM     25 21HD ASN D   6      -5.888 -30.287  22.385  1.00 72.89 LIG 0.16  HD
ATOM     26 22HD ASN D   6      -5.393 -30.919  21.130  1.00 72.89 LIG 0.16  HD
ATOM     27 OD1  ASN D   6      -7.622 -31.940  22.889  1.00 74.05 LIG-0.27  OA
ENDBRANCH 22 23
ENDBRANCH 10 22
ENDBRANCH 7 10
ENDBRANCH 1 6
BRANCH 1 28
ATOM     28  N   LEU D   5      -5.963 -31.452  15.802  1.00 43.46 LIG-0.35  N 
ATOM     29 H    LEU D   5      -5.412 -30.802  15.922  1.00 43.46 LIG 0.16  HD
ATOM     30  C   LEU D   4      -5.724 -32.479  14.993  1.00 41.34 LIG 0.24  C 
ATOM     31 O    LEU D   4      -6.527 -33.377  14.790  1.00 44.89 LIG-0.27  OA
BRANCH 30 32
ATOM     32  CA  LEU D   4      -4.363 -32.555  14.366  1.00 41.83 LIG 0.18  C 
BRANCH 32 33
ATOM     33  CB  LEU D   4      -4.477 -32.140  12.888  1.00 37.92 LIG 0.04  C 
BRANCH 33 34
ATOM     34  CG  LEU D   4      -3.803 -30.824  12.514  1.00 37.44 LIG-0.02  C 
ATOM     35  CD1 LEU D   4      -4.851 -29.732  12.388  1.00 34.88 LIG 0.01  C 
ATOM     36  CD2 LEU D   4      -2.754 -30.436  13.560  1.00 37.22 LIG 0.01  C 
ENDBRANCH 33 34
ENDBRANCH 32 33
BRANCH 32 37
ATOM     37  N   LEU D   4      -3.733 -33.872  14.500  1.00 45.71 LIG-0.35  N 
ATOM     38 H    LEU D   4      -4.249 -34.537  14.324  1.00 45.71 LIG 0.16  HD
ATOM     39  C   ASP D   3      -2.458 -33.989  14.866  1.00 59.12 LIG 0.24  C 
ATOM     40 O    ASP D   3      -1.772 -33.035  15.251  1.00 63.71 LIG-0.27  OA
BRANCH 39 41
ATOM     41  CA  ASP D   3      -1.857 -35.390  14.846  1.00 63.74 LIG 0.19  C 
BRANCH 41 42
ATOM     42  N   ASP D   3      -0.480 -35.407  14.367  1.00 62.73 LIG-0.35  N 
ATOM     43 H    ASP D   3       0.107 -35.562  14.976  1.00 62.73 LIG 0.16  HD
ATOM     44  C   GLY D   2      -0.188 -35.198  13.090  1.00 63.13 LIG 0.25  C 
ATOM     45 O    GLY D   2      -1.037 -34.914  12.242  1.00 65.69 LIG-0.27  OA
BRANCH 44 46
ATOM     46  CA  GLY D   2       1.274 -35.319  12.714  1.00 64.97 LIG 0.47  C 
ATOM     47  N   GLY D   2       2.081 -35.939  13.804  1.00 67.04 LIG 0.61  N 
ENDBRANCH 44 46
ENDBRANCH 41 42
BRANCH 41 48
ATOM     48  CB  ASP D   3      -1.964 -36.027  16.238  1.00 68.02 LIG 0.15  C 
BRANCH 48 49
ATOM     49  CG  ASP D   3      -1.175 -35.275  17.284  1.00 72.98 LIG 0.17  C 
ATOM     50 OD1  ASP D   3      -1.785 -34.787  18.260  1.00 76.93 LIG-0.65  OA
ATOM     51 OD2  ASP D   3       0.061 -35.162  17.123  1.00 81.56 LIG-0.65  OA
ENDBRANCH 48 49
ENDBRANCH 41 48
ENDBRANCH 39 41
ENDBRANCH 32 37
ENDBRANCH 30 32
ENDBRANCH 1 28
TORSDOF 21
ENDMDL
MODEL 11
USER: ADFR SOLUTION from run 177
USER: SCORE 16.306666 LL:  -4.162 LR: -13.606 RR:   0.000 FEB:  -7.341
USER: RMSD 6.332229
USER: SEED 176
USER: STATUS no improvement in best in 17 clusters for 5 generations
USER: GENES 23
USER: genes 0 Translation |==|  0.41176 0.71334 0.51083
USER: genes 1 Rotation |==|  0.13557 0.43162 0.57799 0.82624
USER: genes 2 Torsion [C]-CA--CB-[CG] |==|  0.28578
USER: genes 3 Torsion [CA]-CB--CG-[CD1] |==|  0.87100
USER: genes 4 Torsion [N]-CA--C-[N] |==|  0.89684
USER: genes 5 Torsion [C]-N--CA-[C] |==|  0.16667
USER: genes 6 Torsion [N]-CA--C-[N] |==|  0.07488
USER: genes 7 Torsion [C]-N--CA-[C] |==|  0.49629
USER: genes 8 Torsion [N]-CA--C-[O] |==|  0.99427
USER: genes 9 Torsion [N]-CA--CB-[CG] |==|  0.61274
USER: genes 10 Torsion [CA]-CB--CG-[CD1] |==|  0.34905
USER: genes 11 Torsion [N]-CA--CB-[CG] |==|  0.72238
USER: genes 12 Torsion [CA]-CB--CG-[ND2] |==|  0.65998
USER: genes 13 Torsion [CB]-CA--N-[C] |==|  0.18591
USER: genes 14 Torsion [N]-C--CA-[N] |==|  0.20452
USER: genes 15 Torsion [C]-CA--CB-[CG] |==|  0.28861
USER: genes 16 Torsion [CA]-CB--CG-[CD1] |==|  0.72967
USER: genes 17 Torsion [C]-CA--N-[C] |==|  0.59227
USER: genes 18 Torsion [N]-C--CA-[N] |==|  0.39453
USER: genes 19 Torsion [C]-CA--N-[C] |==|  0.81661
USER: genes 20 Torsion [N]-C--CA-[N] |==|  0.89582
USER: genes 21 Torsion [C]-CA--CB-[CG] |==|  0.81481
USER: genes 22 Torsion [CA]-CB--CG-[OD1] |==|  0.35702
ROOT
ATOM      1  CA  LEU D   5      -7.474 -32.342  16.572  1.00 45.78 LIG 0.18  C 
ENDROOT
BRANCH 1 2
ATOM      2  CB  LEU D   5      -8.170 -33.672  16.296  1.00 44.83 LIG 0.04  C 
BRANCH 2 3
ATOM      3  CG  LEU D   5      -9.604 -33.640  15.782  1.00 46.71 LIG-0.02  C 
ATOM      4  CD1 LEU D   5     -10.407 -32.659  16.620  1.00 43.35 LIG 0.01  C 
ATOM      5  CD2 LEU D   5      -9.658 -33.252  14.304  1.00 50.41 LIG 0.01  C 
ENDBRANCH 2 3
ENDBRANCH 1 2
BRANCH 1 6
ATOM      6  C   LEU D   5      -7.477 -32.128  18.076  1.00 49.70 LIG 0.24  C 
ATOM      7  N   ASN D   6      -6.473 -32.711  18.734  1.00 52.00 LIG-0.35  N 
ATOM      8 H    ASN D   6      -5.906 -33.236  18.357  1.00 52.00 LIG 0.16  HD
ATOM      9 O    LEU D   5      -8.345 -31.414  18.612  1.00 48.20 LIG-0.27  OA
BRANCH 7 10
ATOM     10  CA  ASN D   6      -6.231 -32.518  20.165  1.00 59.27 LIG 0.18  C 
BRANCH 10 11
ATOM     11  C   ASN D   6      -7.463 -32.993  20.945  1.00 60.71 LIG 0.24  C 
ATOM     12  N   LEU D   7      -8.206 -33.935  20.365  1.00 62.75 LIG-0.35  N 
ATOM     13 H    LEU D   7      -7.970 -34.354  19.652  1.00 62.75 LIG 0.16  HD
ATOM     14 O    ASN D   6      -7.728 -32.513  22.050  1.00 63.11 LIG-0.27  OA
BRANCH 12 15
ATOM     15  CA  LEU D   7      -9.511 -34.349  20.897  1.00 66.71 LIG 0.16  C 
BRANCH 15 16
ATOM     16  C   LEU D   7     -10.198 -35.424  20.048  1.00 66.58 LIG 0.22  C 
ATOM     17 O    LEU D   7      -9.684 -35.834  19.013  1.00 70.30 LIG-0.29  OA
ENDBRANCH 15 16
BRANCH 15 18
ATOM     18  CB  LEU D   7     -10.417 -33.117  21.033  1.00 67.13 LIG 0.04  C 
BRANCH 18 19
ATOM     19  CG  LEU D   7     -11.270 -33.087  22.309  1.00 64.50 LIG-0.02  C 
ATOM     20  CD1 LEU D   7     -11.048 -31.787  23.074  1.00 64.54 LIG 0.01  C 
ATOM     21  CD2 LEU D   7     -12.749 -33.289  21.990  1.00 62.99 LIG 0.01  C 
ENDBRANCH 18 19
ENDBRANCH 15 18
ENDBRANCH 12 15
ENDBRANCH 10 11
BRANCH 10 22
ATOM     22  CB  ASN D   6      -5.930 -31.037  20.443  1.00 63.11 LIG 0.14  C 
BRANCH 22 23
ATOM     23  CG  ASN D   6      -4.444 -30.754  20.591  1.00 71.29 LIG 0.22  C 
ATOM     24  ND2 ASN D   6      -4.061 -30.196  21.741  1.00 72.89 LIG-0.37  N 
ATOM     25 21HD ASN D   6      -3.232 -30.010  21.873  1.00 72.89 LIG 0.16  HD
ATOM     26 22HD ASN D   6      -4.643 -30.023  22.350  1.00 72.89 LIG 0.16  HD
ATOM     27 OD1  ASN D   6      -3.647 -31.022  19.683  1.00 74.05 LIG-0.27  OA
ENDBRANCH 22 23
ENDBRANCH 10 22
ENDBRANCH 7 10
ENDBRANCH 1 6
BRANCH 1 28
ATOM     28  N   LEU D   5      -6.104 -32.335  16.034  1.00 43.46 LIG-0.35  N 
ATOM     29 H    LEU D   5      -5.490 -32.306  16.636  1.00 43.46 LIG 0.16  HD
ATOM     30  C   LEU D   4      -5.852 -32.371  14.729  1.00 41.34 LIG 0.24  C 
ATOM     31 O    LEU D   4      -6.726 -32.364  13.875  1.00 44.89 LIG-0.27  OA
BRANCH 30 32
ATOM     32  CA  LEU D   4      -4.417 -32.500  14.311  1.00 41.83 LIG 0.18  C 
BRANCH 32 33
ATOM     33  CB  LEU D   4      -4.293 -32.078  12.836  1.00 37.92 LIG 0.04  C 
BRANCH 33 34
ATOM     34  CG  LEU D   4      -3.692 -30.698  12.589  1.00 37.44 LIG-0.02  C 
ATOM     35  CD1 LEU D   4      -4.805 -29.687  12.383  1.00 34.88 LIG 0.01  C 
ATOM     36  CD2 LEU D   4      -2.801 -30.277  13.761  1.00 37.22 LIG 0.01  C 
ENDBRANCH 33 34
ENDBRANCH 32 33
BRANCH 32 37
ATOM     37  N   LEU D   4      -3.867 -33.841  14.527  1.00 45.71 LIG-0.35  N 
ATOM     38 H    LEU D   4      -4.433 -34.482  14.426  1.00 45.71 LIG 0.16  HD
ATOM     39  C   ASP D   3      -2.587 -34.015  14.852  1.00 59.12 LIG 0.24  C 
ATOM     40 O    ASP D   3      -1.826 -33.083  15.132  1.00 63.71 LIG-0.27  OA
BRANCH 39 41
ATOM     41  CA  ASP D   3      -2.079 -35.451  14.923  1.00 63.74 LIG 0.19  C 
BRANCH 41 42
ATOM     42  N   ASP D   3      -0.720 -35.594  14.414  1.00 62.73 LIG-0.35  N 
ATOM     43 H    ASP D   3      -0.139 -35.817  15.008  1.00 62.73 LIG 0.16  HD
ATOM     44  C   GLY D   2      -0.434 -35.390  13.135  1.00 63.13 LIG 0.25  C 
ATOM     45 O    GLY D   2      -1.267 -35.009  12.310  1.00 65.69 LIG-0.27  OA
BRANCH 44 46
ATOM     46  CA  GLY D   2       1.001 -35.647  12.726  1.00 64.97 LIG 0.47  C 
ATOM     47  N   GLY D   2       1.967 -35.218  13.778  1.00 67.04 LIG 0.61  N 
ENDBRANCH 44 46
ENDBRANCH 41 42
BRANCH 41 48
ATOM     48  CB  ASP D   3      -2.187 -35.976  16.361  1.00 68.02 LIG 0.15  C 
BRANCH 48 49
ATOM     49  CG  ASP D   3      -1.258 -35.260  17.312  1.00 72.98 LIG 0.17  C 
ATOM     50 OD1  ASP D   3      -1.730 -34.787  18.369  1.00 76.93 LIG-0.65  OA
ATOM     51 OD2  ASP D   3      -0.051 -35.162  16.997  1.00 81.56 LIG-0.65  OA
ENDBRANCH 48 49
ENDBRANCH 41 48
ENDBRANCH 39 41
ENDBRANCH 32 37
ENDBRANCH 30 32
ENDBRANCH 1 28
TORSDOF 21
ENDMDL
MODEL 12
USER: ADFR SOLUTION from run 177
USER: SCORE 16.261574 LL:  -4.103 LR: -13.522 RR:   0.000 FEB:  -7.258
USER: RMSD 5.505903
USER: SEED 176
USER: STATUS no improvement in best in 17 clusters for 5 generations
USER: GENES 23
USER: genes 0 Translation |==|  0.37323 0.66767 0.39788
USER: genes 1 Rotation |==|  0.20773 0.34041 0.43959 0.86805
USER: genes 2 Torsion [C]-CA--CB-[CG] |==|  0.03516
USER: genes 3 Torsion [CA]-CB--CG-[CD1] |==|  0.23369
USER: genes 4 Torsion [N]-CA--C-[N] |==|  0.88851
USER: genes 5 Torsion [C]-N--CA-[C] |==|  0.76710
USER: genes 6 Torsion [N]-CA--C-[N] |==|  0.23558
USER: genes 7 Torsion [C]-N--CA-[C] |==|  0.13497
USER: genes 8 Torsion [N]-CA--C-[O] |==|  0.15885
USER: genes 9 Torsion [N]-CA--CB-[CG] |==|  0.76383
USER: genes 10 Torsion [CA]-CB--CG-[CD1] |==|  0.24322
USER: genes 11 Torsion [N]-CA--CB-[CG] |==|  0.56307
USER: genes 12 Torsion [CA]-CB--CG-[ND2] |==|  0.80634
USER: genes 13 Torsion [CB]-CA--N-[C] |==|  0.24999
USER: genes 14 Torsion [N]-C--CA-[N] |==|  0.06084
USER: genes 15 Torsion [C]-CA--CB-[CG] |==|  0.24957
USER: genes 16 Torsion [CA]-CB--CG-[CD1] |==|  0.71260
USER: genes 17 Torsion [C]-CA--N-[C] |==|  0.69950
USER: genes 18 Torsion [N]-C--CA-[N] |==|  0.89957
USER: genes 19 Torsion [C]-CA--N-[C] |==|  0.85522
USER: genes 20 Torsion [N]-C--CA-[N] |==|  0.48956
USER: genes 21 Torsion [C]-CA--CB-[CG] |==|  0.19582
USER: genes 22 Torsion [CA]-CB--CG-[OD1] |==|  0.03435
ROOT
ATOM      1  CA  LEU D   5      -8.312 -33.267  14.623  1.00 45.78 LIG 0.18  C 
ENDROOT
BRANCH 1 2
ATOM      2  CB  LEU D   5      -8.671 -34.213  13.481  1.00 44.83 LIG 0.04  C 
BRANCH 2 3
ATOM      3  CG  LEU D   5      -9.912 -35.084  13.632  1.00 46.71 LIG-0.02  C 
ATOM      4  CD1 LEU D   5     -11.132 -34.281  13.213  1.00 43.35 LIG 0.01  C 
ATOM      5  CD2 LEU D   5      -9.799 -36.363  12.801  1.00 50.41 LIG 0.01  C 
ENDBRANCH 2 3
ENDBRANCH 1 2
BRANCH 1 6
ATOM      6  C   LEU D   5      -9.156 -33.659  15.825  1.00 49.70 LIG 0.24  C 
ATOM      7  N   ASN D   6      -8.686 -34.684  16.538  1.00 52.00 LIG-0.35  N 
ATOM      8 H    ASN D   6      -8.002 -35.147  16.301  1.00 52.00 LIG 0.16  HD
ATOM      9 O    LEU D   5     -10.181 -33.014  16.116  1.00 48.20 LIG-0.27  OA
BRANCH 7 10
ATOM     10  CA  ASN D   6      -9.286 -35.128  17.798  1.00 59.27 LIG 0.18  C 
BRANCH 10 11
ATOM     11  C   ASN D   6      -8.736 -34.266  18.940  1.00 60.71 LIG 0.24  C 
ATOM     12  N   LEU D   7      -9.354 -33.105  19.159  1.00 62.75 LIG-0.35  N 
ATOM     13 H    LEU D   7     -10.091 -32.880  18.777  1.00 62.75 LIG 0.16  HD
ATOM     14 O    ASN D   6      -7.772 -34.650  19.606  1.00 63.11 LIG-0.27  OA
BRANCH 12 15
ATOM     15  CA  LEU D   7      -8.827 -32.092  20.083  1.00 66.71 LIG 0.16  C 
BRANCH 15 16
ATOM     16  C   LEU D   7      -7.341 -31.788  19.865  1.00 66.58 LIG 0.22  C 
ATOM     17 O    LEU D   7      -6.930 -31.405  18.775  1.00 70.30 LIG-0.29  OA
ENDBRANCH 15 16
BRANCH 15 18
ATOM     18  CB  LEU D   7      -9.072 -32.550  21.528  1.00 67.13 LIG 0.04  C 
BRANCH 18 19
ATOM     19  CG  LEU D   7     -10.459 -32.197  22.085  1.00 64.50 LIG-0.02  C 
ATOM     20  CD1 LEU D   7     -11.468 -33.288  21.748  1.00 64.54 LIG 0.01  C 
ATOM     21  CD2 LEU D   7     -10.403 -31.947  23.590  1.00 62.99 LIG 0.01  C 
ENDBRANCH 18 19
ENDBRANCH 15 18
ENDBRANCH 12 15
ENDBRANCH 10 11
BRANCH 10 22
ATOM     22  CB  ASN D   6      -8.978 -36.616  18.022  1.00 63.11 LIG 0.14  C 
BRANCH 22 23
ATOM     23  CG  ASN D   6      -9.968 -37.290  18.958  1.00 71.29 LIG 0.22  C 
ATOM     24  ND2 ASN D   6      -9.908 -36.927  20.241  1.00 72.89 LIG-0.37  N 
ATOM     25 21HD ASN D   6     -10.442 -37.283  20.813  1.00 72.89 LIG 0.16  HD
ATOM     26 22HD ASN D   6      -9.335 -36.338  20.495  1.00 72.89 LIG 0.16  HD
ATOM     27 OD1  ASN D   6     -10.773 -38.133  18.541  1.00 74.05 LIG-0.27  OA
ENDBRANCH 22 23
ENDBRANCH 10 22
ENDBRANCH 7 10
ENDBRANCH 1 6
BRANCH 1 28
ATOM     28  N   LEU D   5      -6.875 -33.330  14.937  1.00 43.46 LIG-0.35  N 
ATOM     29 H    LEU D   5      -6.671 -33.918  15.530  1.00 43.46 LIG 0.16  HD
ATOM     30  C   LEU D   4      -5.984 -32.540  14.347  1.00 41.34 LIG 0.24  C 
ATOM     31 O    LEU D   4      -6.284 -31.673  13.540  1.00 44.89 LIG-0.27  OA
BRANCH 30 32
ATOM     32  CA  LEU D   4      -4.536 -32.795  14.648  1.00 41.83 LIG 0.18  C 
BRANCH 32 33
ATOM     33  CB  LEU D   4      -3.708 -32.479  13.389  1.00 37.92 LIG 0.04  C 
BRANCH 33 34
ATOM     34  CG  LEU D   4      -3.212 -31.042  13.266  1.00 37.44 LIG-0.02  C 
ATOM     35  CD1 LEU D   4      -4.064 -30.294  12.255  1.00 34.88 LIG 0.01  C 
ATOM     36  CD2 LEU D   4      -3.254 -30.334  14.622  1.00 37.22 LIG 0.01  C 
ENDBRANCH 33 34
ENDBRANCH 32 33
BRANCH 32 37
ATOM     37  N   LEU D   4      -4.273 -34.154  15.129  1.00 45.71 LIG-0.35  N 
ATOM     38 H    LEU D   4      -4.340 -34.767  14.528  1.00 45.71 LIG 0.16  HD
ATOM     39  C   ASP D   3      -3.957 -34.383  16.402  1.00 59.12 LIG 0.24  C 
ATOM     40 O    ASP D   3      -4.005 -33.515  17.280  1.00 63.71 LIG-0.27  OA
BRANCH 39 41
ATOM     41  CA  ASP D   3      -3.571 -35.811  16.774  1.00 63.74 LIG 0.19  C 
BRANCH 41 42
ATOM     42  N   ASP D   3      -4.337 -36.811  16.040  1.00 62.73 LIG-0.35  N 
ATOM     43 H    ASP D   3      -3.858 -37.406  15.644  1.00 62.73 LIG 0.16  HD
ATOM     44  C   GLY D   2      -5.663 -36.781  16.005  1.00 63.13 LIG 0.25  C 
ATOM     45 O    GLY D   2      -6.331 -35.885  16.526  1.00 65.69 LIG-0.27  OA
BRANCH 44 46
ATOM     46  CA  GLY D   2      -6.335 -37.923  15.272  1.00 64.97 LIG 0.47  C 
ATOM     47  N   GLY D   2      -7.822 -37.847  15.365  1.00 67.04 LIG 0.61  N 
ENDBRANCH 44 46
ENDBRANCH 41 42
BRANCH 41 48
ATOM     48  CB  ASP D   3      -2.064 -36.016  16.575  1.00 68.02 LIG 0.15  C 
BRANCH 48 49
ATOM     49  CG  ASP D   3      -1.236 -35.272  17.596  1.00 72.98 LIG 0.17  C 
ATOM     50 OD1  ASP D   3      -1.809 -34.788  18.596  1.00 76.93 LIG-0.65  OA
ATOM     51 OD2  ASP D   3      -0.006 -35.162  17.392  1.00 81.56 LIG-0.65  OA
ENDBRANCH 48 49
ENDBRANCH 41 48
ENDBRANCH 39 41
ENDBRANCH 32 37
ENDBRANCH 30 32
ENDBRANCH 1 28
TORSDOF 21
ENDMDL
MODEL 13
USER: ADFR SOLUTION from run 82
USER: SCORE 15.800092 LL:  -3.664 LR: -13.497 RR:   0.000 FEB:  -7.232
USER: RMSD 8.597399
USER: SEED 81
USER: STATUS no improvement in best in 11 clusters for 5 generations
USER: GENES 23
USER: genes 0 Translation |==|  0.32903 0.69029 0.60270
USER: genes 1 Rotation |==|  0.13016 0.67683 0.75695 0.62618
USER: genes 2 Torsion [C]-CA--CB-[CG] |==|  0.18202
USER: genes 3 Torsion [CA]-CB--CG-[CD1] |==|  0.37399
USER: genes 4 Torsion [N]-CA--C-[N] |==|  0.76793
USER: genes 5 Torsion [C]-N--CA-[C] |==|  0.75886
USER: genes 6 Torsion [N]-CA--C-[N] |==|  0.33010
USER: genes 7 Torsion [C]-N--CA-[C] |==|  0.60760
USER: genes 8 Torsion [N]-CA--C-[O] |==|  0.31927
USER: genes 9 Torsion [N]-CA--CB-[CG] |==|  0.50516
USER: genes 10 Torsion [CA]-CB--CG-[CD1] |==|  0.74321
USER: genes 11 Torsion [N]-CA--CB-[CG] |==|  0.57013
USER: genes 12 Torsion [CA]-CB--CG-[ND2] |==|  0.33390
USER: genes 13 Torsion [CB]-CA--N-[C] |==|  0.50611
USER: genes 14 Torsion [N]-C--CA-[N] |==|  0.02085
USER: genes 15 Torsion [C]-CA--CB-[CG] |==|  0.64658
USER: genes 16 Torsion [CA]-CB--CG-[CD1] |==|  0.40052
USER: genes 17 Torsion [C]-CA--N-[C] |==|  0.72832
USER: genes 18 Torsion [N]-C--CA-[N] |==|  0.41003
USER: genes 19 Torsion [C]-CA--N-[C] |==|  0.82778
USER: genes 20 Torsion [N]-C--CA-[N] |==|  0.30855
USER: genes 21 Torsion [C]-CA--CB-[CG] |==|  0.30809
USER: genes 22 Torsion [CA]-CB--CG-[OD1] |==|  0.07214
ROOT
ATOM      1  CA  LEU D   5      -9.273 -32.809  18.157  1.00 45.78 LIG 0.18  C 
ENDROOT
BRANCH 1 2
ATOM      2  CB  LEU D   5      -9.340 -33.429  19.549  1.00 44.83 LIG 0.04  C 
BRANCH 2 3
ATOM      3  CG  LEU D   5      -9.680 -32.523  20.725  1.00 46.71 LIG-0.02  C 
ATOM      4  CD1 LEU D   5     -10.714 -33.214  21.598  1.00 43.35 LIG 0.01  C 
ATOM      5  CD2 LEU D   5      -8.434 -32.177  21.541  1.00 50.41 LIG 0.01  C 
ENDBRANCH 2 3
ENDBRANCH 1 2
BRANCH 1 6
ATOM      6  C   LEU D   5      -8.109 -31.833  18.147  1.00 49.70 LIG 0.24  C 
ATOM      7  N   ASN D   6      -7.028 -32.231  18.822  1.00 52.00 LIG-0.35  N 
ATOM      8 H    ASN D   6      -7.009 -32.947  19.296  1.00 52.00 LIG 0.16  HD
ATOM      9 O    LEU D   5      -8.180 -30.769  17.503  1.00 48.20 LIG-0.27  OA
BRANCH 7 10
ATOM     10  CA  ASN D   6      -5.765 -31.491  18.824  1.00 59.27 LIG 0.18  C 
BRANCH 10 11
ATOM     11  C   ASN D   6      -4.926 -31.938  17.621  1.00 60.71 LIG 0.24  C 
ATOM     12  N   LEU D   7      -4.622 -30.998  16.727  1.00 62.75 LIG-0.35  N 
ATOM     13 H    LEU D   7      -4.772 -30.160  16.849  1.00 62.75 LIG 0.16  HD
ATOM     14 O    ASN D   6      -4.564 -33.112  17.512  1.00 63.11 LIG-0.27  OA
BRANCH 12 15
ATOM     15  CA  LEU D   7      -3.994 -31.311  15.436  1.00 66.71 LIG 0.16  C 
BRANCH 15 16
ATOM     16  C   LEU D   7      -2.940 -30.283  15.010  1.00 66.58 LIG 0.22  C 
ATOM     17 O    LEU D   7      -1.758 -30.596  14.913  1.00 70.30 LIG-0.29  OA
ENDBRANCH 15 16
BRANCH 15 18
ATOM     18  CB  LEU D   7      -5.083 -31.435  14.361  1.00 67.13 LIG 0.04  C 
BRANCH 18 19
ATOM     19  CG  LEU D   7      -4.564 -31.806  12.964  1.00 64.50 LIG-0.02  C 
ATOM     20  CD1 LEU D   7      -4.290 -30.552  12.142  1.00 64.54 LIG 0.01  C 
ATOM     21  CD2 LEU D   7      -3.320 -32.687  13.051  1.00 62.99 LIG 0.01  C 
ENDBRANCH 18 19
ENDBRANCH 15 18
ENDBRANCH 12 15
ENDBRANCH 10 11
BRANCH 10 22
ATOM     22  CB  ASN D   6      -5.023 -31.738  20.146  1.00 63.11 LIG 0.14  C 
BRANCH 22 23
ATOM     23  CG  ASN D   6      -4.072 -30.610  20.510  1.00 71.29 LIG 0.22  C 
ATOM     24  ND2 ASN D   6      -4.307 -29.990  21.668  1.00 72.89 LIG-0.37  N 
ATOM     25 21HD ASN D   6      -3.802 -29.341  21.919  1.00 72.89 LIG 0.16  HD
ATOM     26 22HD ASN D   6      -4.964 -30.240  22.164  1.00 72.89 LIG 0.16  HD
ATOM     27 OD1  ASN D   6      -3.141 -30.289  19.760  1.00 74.05 LIG-0.27  OA
ENDBRANCH 22 23
ENDBRANCH 10 22
ENDBRANCH 7 10
ENDBRANCH 1 6
BRANCH 1 28
ATOM     28  N   LEU D   5      -9.114 -33.841  17.119  1.00 43.46 LIG-0.35  N 
ATOM     29 H    LEU D   5      -9.110 -34.646  17.422  1.00 43.46 LIG 0.16  HD
ATOM     30  C   LEU D   4      -8.989 -33.539  15.830  1.00 41.34 LIG 0.24  C 
ATOM     31 O    LEU D   4      -8.948 -32.393  15.409  1.00 44.89 LIG-0.27  OA
BRANCH 30 32
ATOM     32  CA  LEU D   4      -8.974 -34.682  14.858  1.00 41.83 LIG 0.18  C 
BRANCH 32 33
ATOM     33  CB  LEU D   4      -9.954 -34.367  13.713  1.00 37.92 LIG 0.04  C 
BRANCH 33 34
ATOM     34  CG  LEU D   4     -10.996 -35.442  13.418  1.00 37.44 LIG-0.02  C 
ATOM     35  CD1 LEU D   4     -12.305 -34.787  13.017  1.00 34.88 LIG 0.01  C 
ATOM     36  CD2 LEU D   4     -10.510 -36.379  12.310  1.00 37.22 LIG 0.01  C 
ENDBRANCH 33 34
ENDBRANCH 32 33
BRANCH 32 37
ATOM     37  N   LEU D   4      -9.278 -35.976  15.475  1.00 45.71 LIG-0.35  N 
ATOM     38 H    LEU D   4     -10.116 -36.136  15.580  1.00 45.71 LIG 0.16  HD
ATOM     39  C   ASP D   3      -8.304 -36.812  15.832  1.00 59.12 LIG 0.24  C 
ATOM     40 O    ASP D   3      -7.106 -36.509  15.807  1.00 63.71 LIG-0.27  OA
BRANCH 39 41
ATOM     41  CA  ASP D   3      -8.724 -38.186  16.342  1.00 63.74 LIG 0.19  C 
BRANCH 41 42
ATOM     42  N   ASP D   3      -7.762 -39.229  16.005  1.00 62.73 LIG-0.35  N 
ATOM     43 H    ASP D   3      -7.403 -39.616  16.685  1.00 62.73 LIG 0.16  HD
ATOM     44  C   GLY D   2      -7.483 -39.536  14.745  1.00 63.13 LIG 0.25  C 
ATOM     45 O    GLY D   2      -7.959 -38.929  13.783  1.00 65.69 LIG-0.27  OA
BRANCH 44 46
ATOM     46  CA  GLY D   2      -6.525 -40.690  14.537  1.00 64.97 LIG 0.47  C 
ATOM     47  N   GLY D   2      -7.205 -41.880  13.948  1.00 67.04 LIG 0.61  N 
ENDBRANCH 44 46
ENDBRANCH 41 42
BRANCH 41 48
ATOM     48  CB  ASP D   3      -8.972 -38.132  17.855  1.00 68.02 LIG 0.15  C 
BRANCH 48 49
ATOM     49  CG  ASP D   3     -10.430 -38.294  18.211  1.00 72.98 LIG 0.17  C 
ATOM     50 OD1  ASP D   3     -11.175 -38.917  17.423  1.00 76.93 LIG-0.65  OA
ATOM     51 OD2  ASP D   3     -10.836 -37.788  19.281  1.00 81.56 LIG-0.65  OA
ENDBRANCH 48 49
ENDBRANCH 41 48
ENDBRANCH 39 41
ENDBRANCH 32 37
ENDBRANCH 30 32
ENDBRANCH 1 28
TORSDOF 21
ENDMDL
MODEL 14
USER: ADFR SOLUTION from run 182
USER: SCORE 16.018332 LL:  -3.669 LR: -13.472 RR:   0.000 FEB:  -7.208
USER: RMSD 9.366758
USER: SEED 181
USER: STATUS no improvement in best in 12 clusters for 5 generations
USER: GENES 23
USER: genes 0 Translation |==|  0.41092 0.67833 0.45663
USER: genes 1 Rotation |==|  0.86434 0.28980 0.69420 0.68804
USER: genes 2 Torsion [C]-CA--CB-[CG] |==|  0.43588
USER: genes 3 Torsion [CA]-CB--CG-[CD1] |==|  0.86902
USER: genes 4 Torsion [N]-CA--C-[N] |==|  0.42525
USER: genes 5 Torsion [C]-N--CA-[C] |==|  0.21513
USER: genes 6 Torsion [N]-CA--C-[N] |==|  0.09975
USER: genes 7 Torsion [C]-N--CA-[C] |==|  0.11778
USER: genes 8 Torsion [N]-CA--C-[O] |==|  0.22778
USER: genes 9 Torsion [N]-CA--CB-[CG] |==|  0.95099
USER: genes 10 Torsion [CA]-CB--CG-[CD1] |==|  0.42886
USER: genes 11 Torsion [N]-CA--CB-[CG] |==|  0.70394
USER: genes 12 Torsion [CA]-CB--CG-[ND2] |==|  0.83463
USER: genes 13 Torsion [CB]-CA--N-[C] |==|  0.87120
USER: genes 14 Torsion [N]-C--CA-[N] |==|  0.93753
USER: genes 15 Torsion [C]-CA--CB-[CG] |==|  0.42589
USER: genes 16 Torsion [CA]-CB--CG-[CD1] |==|  0.03940
USER: genes 17 Torsion [C]-CA--N-[C] |==|  0.81868
USER: genes 18 Torsion [N]-C--CA-[N] |==|  0.38332
USER: genes 19 Torsion [C]-CA--N-[C] |==|  0.83939
USER: genes 20 Torsion [N]-C--CA-[N] |==|  0.70979
USER: genes 21 Torsion [C]-CA--CB-[CG] |==|  0.57103
USER: genes 22 Torsion [CA]-CB--CG-[OD1] |==|  0.37567
ROOT
ATOM      1  CA  LEU D   5      -7.493 -33.051  15.637  1.00 45.78 LIG 0.18  C 
ENDROOT
BRANCH 1 2
ATOM      2  CB  LEU D   5      -8.501 -32.049  15.082  1.00 44.83 LIG 0.04  C 
BRANCH 2 3
ATOM      3  CG  LEU D   5      -9.918 -32.534  14.804  1.00 46.71 LIG-0.02  C 
ATOM      4  CD1 LEU D   5      -9.849 -33.845  14.039  1.00 43.35 LIG 0.01  C 
ATOM      5  CD2 LEU D   5     -10.712 -32.708  16.099  1.00 50.41 LIG 0.01  C 
ENDBRANCH 2 3
ENDBRANCH 1 2
BRANCH 1 6
ATOM      6  C   LEU D   5      -6.103 -32.541  15.291  1.00 49.70 LIG 0.24  C 
ATOM      7  N   ASN D   6      -5.663 -32.873  14.075  1.00 52.00 LIG-0.35  N 
ATOM      8 H    ASN D   6      -6.091 -33.402  13.549  1.00 52.00 LIG 0.16  HD
ATOM      9 O    LEU D   5      -5.473 -31.827  16.093  1.00 48.20 LIG-0.27  OA
BRANCH 7 10
ATOM     10  CA  ASN D   6      -4.409 -32.373  13.511  1.00 59.27 LIG 0.18  C 
BRANCH 10 11
ATOM     11  C   ASN D   6      -3.241 -33.145  14.136  1.00 60.71 LIG 0.24  C 
ATOM     12  N   LEU D   7      -3.452 -34.435  14.395  1.00 62.75 LIG-0.35  N 
ATOM     13 H    LEU D   7      -4.149 -34.865  14.131  1.00 62.75 LIG 0.16  HD
ATOM     14 O    ASN D   6      -2.172 -32.578  14.376  1.00 63.11 LIG-0.27  OA
BRANCH 12 15
ATOM     15  CA  LEU D   7      -2.504 -35.252  15.163  1.00 66.71 LIG 0.16  C 
BRANCH 15 16
ATOM     16  C   LEU D   7      -1.938 -34.530  16.391  1.00 66.58 LIG 0.22  C 
ATOM     17 O    LEU D   7      -2.570 -34.483  17.440  1.00 70.30 LIG-0.29  OA
ENDBRANCH 15 16
BRANCH 15 18
ATOM     18  CB  LEU D   7      -1.365 -35.708  14.240  1.00 67.13 LIG 0.04  C 
BRANCH 18 19
ATOM     19  CG  LEU D   7      -1.675 -35.600  12.739  1.00 64.50 LIG-0.02  C 
ATOM     20  CD1 LEU D   7      -0.390 -35.451  11.934  1.00 64.54 LIG 0.01  C 
ATOM     21  CD2 LEU D   7      -2.489 -36.798  12.256  1.00 62.99 LIG 0.01  C 
ENDBRANCH 18 19
ENDBRANCH 15 18
ENDBRANCH 12 15
ENDBRANCH 10 11
BRANCH 10 22
ATOM     22  CB  ASN D   6      -4.288 -30.864  13.776  1.00 63.11 LIG 0.14  C 
BRANCH 22 23
ATOM     23  CG  ASN D   6      -4.512 -30.025  12.529  1.00 71.29 LIG 0.22  C 
ATOM     24  ND2 ASN D   6      -3.680 -30.248  11.510  1.00 72.89 LIG-0.37  N 
ATOM     25 21HD ASN D   6      -3.760 -29.796  10.783  1.00 72.89 LIG 0.16  HD
ATOM     26 22HD ASN D   6      -3.063 -30.844  11.581  1.00 72.89 LIG 0.16  HD
ATOM     27 OD1  ASN D   6      -5.415 -29.180  12.479  1.00 74.05 LIG-0.27  OA
ENDBRANCH 22 23
ENDBRANCH 10 22
ENDBRANCH 7 10
ENDBRANCH 1 6
BRANCH 1 28
ATOM     28  N   LEU D   5      -7.652 -33.220  17.091  1.00 43.46 LIG-0.35  N 
ATOM     29 H    LEU D   5      -7.653 -34.040  17.351  1.00 43.46 LIG 0.16  HD
ATOM     30  C   LEU D   4      -7.782 -32.186  17.916  1.00 41.34 LIG 0.24  C 
ATOM     31 O    LEU D   4      -7.828 -31.025  17.538  1.00 44.89 LIG-0.27  OA
BRANCH 30 32
ATOM     32  CA  LEU D   4      -7.796 -32.481  19.387  1.00 41.83 LIG 0.18  C 
BRANCH 32 33
ATOM     33  CB  LEU D   4      -6.412 -32.145  19.971  1.00 37.92 LIG 0.04  C 
BRANCH 33 34
ATOM     34  CG  LEU D   4      -6.389 -31.770  21.449  1.00 37.44 LIG-0.02  C 
ATOM     35  CD1 LEU D   4      -7.710 -32.153  22.092  1.00 34.88 LIG 0.01  C 
ATOM     36  CD2 LEU D   4      -5.228 -32.462  22.167  1.00 37.22 LIG 0.01  C 
ENDBRANCH 33 34
ENDBRANCH 32 33
BRANCH 32 37
ATOM     37  N   LEU D   4      -8.183 -33.860  19.700  1.00 45.71 LIG-0.35  N 
ATOM     38 H    LEU D   4      -7.563 -34.333  20.063  1.00 45.71 LIG 0.16  HD
ATOM     39  C   ASP D   3      -9.408 -34.307  19.430  1.00 59.12 LIG 0.24  C 
ATOM     40 O    ASP D   3     -10.238 -33.662  18.780  1.00 63.71 LIG-0.27  OA
BRANCH 39 41
ATOM     41  CA  ASP D   3      -9.755 -35.711  19.914  1.00 63.74 LIG 0.19  C 
BRANCH 41 42
ATOM     42  N   ASP D   3     -11.096 -35.796  20.481  1.00 62.73 LIG-0.35  N 
ATOM     43 H    ASP D   3     -11.610 -36.370  20.096  1.00 62.73 LIG 0.16  HD
ATOM     44  C   GLY D   2     -11.464 -35.039  21.506  1.00 63.13 LIG 0.25  C 
ATOM     45 O    GLY D   2     -10.737 -34.177  22.004  1.00 65.69 LIG-0.27  OA
BRANCH 44 46
ATOM     46  CA  GLY D   2     -12.858 -35.283  22.045  1.00 64.97 LIG 0.47  C 
ATOM     47  N   GLY D   2     -13.811 -34.213  21.631  1.00 67.04 LIG 0.61  N 
ENDBRANCH 44 46
ENDBRANCH 41 42
BRANCH 41 48
ATOM     48  CB  ASP D   3      -9.574 -36.720  18.772  1.00 68.02 LIG 0.15  C 
BRANCH 48 49
ATOM     49  CG  ASP D   3     -10.436 -37.949  18.940  1.00 72.98 LIG 0.17  C 
ATOM     50 OD1  ASP D   3     -11.062 -38.383  17.948  1.00 76.93 LIG-0.65  OA
ATOM     51 OD2  ASP D   3     -10.497 -38.477  20.073  1.00 81.56 LIG-0.65  OA
ENDBRANCH 48 49
ENDBRANCH 41 48
ENDBRANCH 39 41
ENDBRANCH 32 37
ENDBRANCH 30 32
ENDBRANCH 1 28
TORSDOF 21
ENDMDL
MODEL 15
USER: ADFR SOLUTION from run 135
USER: SCORE 14.717928 LL:  -3.396 LR: -13.411 RR:   0.000 FEB:  -7.146
USER: RMSD 9.251411
USER: SEED 134
USER: STATUS no improvement in best in 4 clusters for 5 generations
USER: GENES 23
USER: genes 0 Translation |==|  0.33609 0.69031 0.61517
USER: genes 1 Rotation |==|  0.12537 0.67832 0.75764 0.60713
USER: genes 2 Torsion [C]-CA--CB-[CG] |==|  0.18255
USER: genes 3 Torsion [CA]-CB--CG-[CD1] |==|  0.33171
USER: genes 4 Torsion [N]-CA--C-[N] |==|  0.74730
USER: genes 5 Torsion [C]-N--CA-[C] |==|  0.81327
USER: genes 6 Torsion [N]-CA--C-[N] |==|  0.97520
USER: genes 7 Torsion [C]-N--CA-[C] |==|  0.13328
USER: genes 8 Torsion [N]-CA--C-[O] |==|  0.16681
USER: genes 9 Torsion [N]-CA--CB-[CG] |==|  0.37339
USER: genes 10 Torsion [CA]-CB--CG-[CD1] |==|  0.39651
USER: genes 11 Torsion [N]-CA--CB-[CG] |==|  0.60907
USER: genes 12 Torsion [CA]-CB--CG-[ND2] |==|  0.29003
USER: genes 13 Torsion [CB]-CA--N-[C] |==|  0.35233
USER: genes 14 Torsion [N]-C--CA-[N] |==|  0.39119
USER: genes 15 Torsion [C]-CA--CB-[CG] |==|  0.72796
USER: genes 16 Torsion [CA]-CB--CG-[CD1] |==|  0.78475
USER: genes 17 Torsion [C]-CA--N-[C] |==|  0.60496
USER: genes 18 Torsion [N]-C--CA-[N] |==|  0.39632
USER: genes 19 Torsion [C]-CA--N-[C] |==|  0.71565
USER: genes 20 Torsion [N]-C--CA-[N] |==|  0.29757
USER: genes 21 Torsion [C]-CA--CB-[CG] |==|  0.84585
USER: genes 22 Torsion [CA]-CB--CG-[OD1] |==|  0.21421
ROOT
ATOM      1  CA  LEU D   5      -9.120 -32.808  18.372  1.00 45.78 LIG 0.18  C 
ENDROOT
BRANCH 1 2
ATOM      2  CB  LEU D   5      -9.133 -33.341  19.801  1.00 44.83 LIG 0.04  C 
BRANCH 2 3
ATOM      3  CG  LEU D   5      -9.493 -32.378  20.925  1.00 46.71 LIG-0.02  C 
ATOM      4  CD1 LEU D   5     -10.736 -32.890  21.635  1.00 43.35 LIG 0.01  C 
ATOM      5  CD2 LEU D   5      -8.338 -32.217  21.913  1.00 50.41 LIG 0.01  C 
ENDBRANCH 2 3
ENDBRANCH 1 2
BRANCH 1 6
ATOM      6  C   LEU D   5      -7.999 -31.787  18.275  1.00 49.70 LIG 0.24  C 
ATOM      7  N   ASN D   6      -6.951 -32.017  19.069  1.00 52.00 LIG-0.35  N 
ATOM      8 H    ASN D   6      -6.935 -32.647  19.654  1.00 52.00 LIG 0.16  HD
ATOM      9 O    LEU D   5      -8.070 -30.844  17.465  1.00 48.20 LIG-0.27  OA
BRANCH 7 10
ATOM     10  CA  ASN D   6      -5.723 -31.222  19.029  1.00 59.27 LIG 0.18  C 
BRANCH 10 11
ATOM     11  C   ASN D   6      -5.015 -31.471  17.692  1.00 60.71 LIG 0.24  C 
ATOM     12  N   LEU D   7      -5.506 -32.450  16.932  1.00 62.75 LIG-0.35  N 
ATOM     13 H    LEU D   7      -6.245 -32.856  17.101  1.00 62.75 LIG 0.16  HD
ATOM     14 O    ASN D   6      -4.045 -30.785  17.360  1.00 63.11 LIG-0.27  OA
BRANCH 12 15
ATOM     15  CA  LEU D   7      -4.823 -32.930  15.724  1.00 66.71 LIG 0.16  C 
BRANCH 15 16
ATOM     16  C   LEU D   7      -3.332 -33.208  15.940  1.00 66.58 LIG 0.22  C 
ATOM     17 O    LEU D   7      -2.959 -34.037  16.764  1.00 70.30 LIG-0.29  OA
ENDBRANCH 15 16
BRANCH 15 18
ATOM     18  CB  LEU D   7      -5.017 -31.909  14.594  1.00 67.13 LIG 0.04  C 
BRANCH 18 19
ATOM     19  CG  LEU D   7      -3.742 -31.577  13.805  1.00 64.50 LIG-0.02  C 
ATOM     20  CD1 LEU D   7      -4.059 -31.385  12.327  1.00 64.54 LIG 0.01  C 
ATOM     21  CD2 LEU D   7      -3.040 -30.349  14.380  1.00 62.99 LIG 0.01  C 
ENDBRANCH 18 19
ENDBRANCH 15 18
ENDBRANCH 12 15
ENDBRANCH 10 11
BRANCH 10 22
ATOM     22  CB  ASN D   6      -4.824 -31.598  20.216  1.00 63.11 LIG 0.14  C 
BRANCH 22 23
ATOM     23  CG  ASN D   6      -4.127 -30.397  20.834  1.00 71.29 LIG 0.22  C 
ATOM     24  ND2 ASN D   6      -4.619 -29.963  21.996  1.00 72.89 LIG-0.37  N 
ATOM     25 21HD ASN D   6      -4.265 -29.282  22.385  1.00 72.89 LIG 0.16  HD
ATOM     26 22HD ASN D   6      -5.290 -30.363  22.355  1.00 72.89 LIG 0.16  HD
ATOM     27 OD1  ASN D   6      -3.164 -29.857  20.275  1.00 74.05 LIG-0.27  OA
ENDBRANCH 22 23
ENDBRANCH 10 22
ENDBRANCH 7 10
ENDBRANCH 1 6
BRANCH 1 28
ATOM     28  N   LEU D   5      -8.937 -33.897  17.397  1.00 43.46 LIG-0.35  N 
ATOM     29 H    LEU D   5      -8.252 -34.394  17.552  1.00 43.46 LIG 0.16  HD
ATOM     30  C   LEU D   4      -9.766 -34.083  16.375  1.00 41.34 LIG 0.24  C 
ATOM     31 O    LEU D   4     -10.711 -33.347  16.133  1.00 44.89 LIG-0.27  OA
BRANCH 30 32
ATOM     32  CA  LEU D   4      -9.554 -35.308  15.535  1.00 41.83 LIG 0.18  C 
BRANCH 32 33
ATOM     33  CB  LEU D   4      -8.684 -34.929  14.322  1.00 37.92 LIG 0.04  C 
BRANCH 33 34
ATOM     34  CG  LEU D   4      -9.440 -34.651  13.026  1.00 37.44 LIG-0.02  C 
ATOM     35  CD1 LEU D   4      -9.859 -35.964  12.390  1.00 34.88 LIG 0.01  C 
ATOM     36  CD2 LEU D   4     -10.666 -33.774  13.290  1.00 37.22 LIG 0.01  C 
ENDBRANCH 33 34
ENDBRANCH 32 33
BRANCH 32 37
ATOM     37  N   LEU D   4     -10.803 -35.947  15.113  1.00 45.71 LIG-0.35  N 
ATOM     38 H    LEU D   4     -11.437 -35.401  14.914  1.00 45.71 LIG 0.16  HD
ATOM     39  C   ASP D   3     -10.910 -37.274  15.055  1.00 59.12 LIG 0.24  C 
ATOM     40 O    ASP D   3     -10.042 -38.044  15.480  1.00 63.71 LIG-0.27  OA
BRANCH 39 41
ATOM     41  CA  ASP D   3     -12.203 -37.840  14.477  1.00 63.74 LIG 0.19  C 
BRANCH 41 42
ATOM     42  N   ASP D   3     -11.984 -39.036  13.672  1.00 62.73 LIG-0.35  N 
ATOM     43 H    ASP D   3     -11.854 -39.754  14.128  1.00 62.73 LIG 0.16  HD
ATOM     44  C   GLY D   2     -11.990 -38.990  12.346  1.00 63.13 LIG 0.25  C 
ATOM     45 O    GLY D   2     -12.115 -37.943  11.708  1.00 65.69 LIG-0.27  OA
BRANCH 44 46
ATOM     46  CA  GLY D   2     -11.827 -40.317  11.634  1.00 64.97 LIG 0.47  C 
ATOM     47  N   GLY D   2     -13.103 -40.778  11.014  1.00 67.04 LIG 0.61  N 
ENDBRANCH 44 46
ENDBRANCH 41 42
BRANCH 41 48
ATOM     48  CB  ASP D   3     -13.208 -38.110  15.604  1.00 68.02 LIG 0.15  C 
BRANCH 48 49
ATOM     49  CG  ASP D   3     -12.650 -39.016  16.676  1.00 72.98 LIG 0.17  C 
ATOM     50 OD1  ASP D   3     -11.851 -38.538  17.510  1.00 76.93 LIG-0.65  OA
ATOM     51 OD2  ASP D   3     -13.004 -40.216  16.678  1.00 81.56 LIG-0.65  OA
ENDBRANCH 48 49
ENDBRANCH 41 48
ENDBRANCH 39 41
ENDBRANCH 32 37
ENDBRANCH 30 32
ENDBRANCH 1 28
TORSDOF 21
ENDMDL
MODEL 16
USER: ADFR SOLUTION from run 71
USER: SCORE 15.677064 LL:  -3.650 LR: -13.326 RR:   0.000 FEB:  -7.062
USER: RMSD 3.544426
USER: SEED 70
USER: STATUS no improvement in best in 7 clusters for 5 generations
USER: GENES 23
USER: genes 0 Translation |==|  0.38415 0.59999 0.43448
USER: genes 1 Rotation |==|  0.54666 0.47913 0.45223 0.99508
USER: genes 2 Torsion [C]-CA--CB-[CG] |==|  0.37874
USER: genes 3 Torsion [CA]-CB--CG-[CD1] |==|  0.60990
USER: genes 4 Torsion [N]-CA--C-[N] |==|  0.56111
USER: genes 5 Torsion [C]-N--CA-[C] |==|  0.73248
USER: genes 6 Torsion [N]-CA--C-[N] |==|  0.45731
USER: genes 7 Torsion [C]-N--CA-[C] |==|  0.13801
USER: genes 8 Torsion [N]-CA--C-[O] |==|  0.19370
USER: genes 9 Torsion [N]-CA--CB-[CG] |==|  0.81326
USER: genes 10 Torsion [CA]-CB--CG-[CD1] |==|  0.87978
USER: genes 11 Torsion [N]-CA--CB-[CG] |==|  0.72185
USER: genes 12 Torsion [CA]-CB--CG-[ND2] |==|  0.80344
USER: genes 13 Torsion [CB]-CA--N-[C] |==|  0.17008
USER: genes 14 Torsion [N]-C--CA-[N] |==|  0.94291
USER: genes 15 Torsion [C]-CA--CB-[CG] |==|  0.31591
USER: genes 16 Torsion [CA]-CB--CG-[CD1] |==|  0.16191
USER: genes 17 Torsion [C]-CA--N-[C] |==|  0.74400
USER: genes 18 Torsion [N]-C--CA-[N] |==|  0.18903
USER: genes 19 Torsion [C]-CA--N-[C] |==|  0.75916
USER: genes 20 Torsion [N]-C--CA-[N] |==|  0.06508
USER: genes 21 Torsion [C]-CA--CB-[CG] |==|  0.80097
USER: genes 22 Torsion [CA]-CB--CG-[OD1] |==|  0.31656
ROOT
ATOM      1  CA  LEU D   5      -8.075 -34.637  15.255  1.00 45.78 LIG 0.18  C 
ENDROOT
BRANCH 1 2
ATOM      2  CB  LEU D   5      -9.040 -33.840  14.382  1.00 44.83 LIG 0.04  C 
BRANCH 2 3
ATOM      3  CG  LEU D   5      -9.742 -32.638  15.000  1.00 46.71 LIG-0.02  C 
ATOM      4  CD1 LEU D   5     -11.180 -32.601  14.510  1.00 43.35 LIG 0.01  C 
ATOM      5  CD2 LEU D   5      -9.698 -32.690  16.528  1.00 50.41 LIG 0.01  C 
ENDBRANCH 2 3
ENDBRANCH 1 2
BRANCH 1 6
ATOM      6  C   LEU D   5      -8.345 -36.112  15.007  1.00 49.70 LIG 0.24  C 
ATOM      7  N   ASN D   6      -9.626 -36.428  14.803  1.00 52.00 LIG-0.35  N 
ATOM      8 H    ASN D   6     -10.268 -35.862  14.883  1.00 52.00 LIG 0.16  HD
ATOM      9 O    LEU D   5      -7.405 -36.928  14.958  1.00 48.20 LIG-0.27  OA
BRANCH 7 10
ATOM     10  CA  ASN D   6     -10.070 -37.770  14.423  1.00 59.27 LIG 0.18  C 
BRANCH 10 11
ATOM     11  C   ASN D   6     -10.237 -37.824  12.900  1.00 60.71 LIG 0.24  C 
ATOM     12  N   LEU D   7     -10.327 -39.037  12.355  1.00 62.75 LIG-0.35  N 
ATOM     13 H    LEU D   7     -10.408 -39.759  12.815  1.00 62.75 LIG 0.16  HD
ATOM     14 O    ASN D   6     -10.283 -36.785  12.237  1.00 63.11 LIG-0.27  OA
BRANCH 12 15
ATOM     15  CA  LEU D   7     -10.296 -39.255  10.903  1.00 66.71 LIG 0.16  C 
BRANCH 15 16
ATOM     16  C   LEU D   7      -9.129 -38.544  10.208  1.00 66.58 LIG 0.22  C 
ATOM     17 O    LEU D   7      -7.974 -38.919  10.376  1.00 70.30 LIG-0.29  OA
ENDBRANCH 15 16
BRANCH 15 18
ATOM     18  CB  LEU D   7     -11.632 -38.806  10.295  1.00 67.13 LIG 0.04  C 
BRANCH 18 19
ATOM     19  CG  LEU D   7     -12.840 -39.664  10.700  1.00 64.50 LIG-0.02  C 
ATOM     20  CD1 LEU D   7     -12.488 -41.146  10.649  1.00 64.54 LIG 0.01  C 
ATOM     21  CD2 LEU D   7     -13.360 -39.270  12.080  1.00 62.99 LIG 0.01  C 
ENDBRANCH 18 19
ENDBRANCH 15 18
ENDBRANCH 12 15
ENDBRANCH 10 11
BRANCH 10 22
ATOM     22  CB  ASN D   6     -11.387 -38.101  15.142  1.00 63.11 LIG 0.14  C 
BRANCH 22 23
ATOM     23  CG  ASN D   6     -11.188 -38.984  16.363  1.00 71.29 LIG 0.22  C 
ATOM     24  ND2 ASN D   6     -10.843 -40.250  16.126  1.00 72.89 LIG-0.37  N 
ATOM     25 21HD ASN D   6     -10.723 -40.793  16.782  1.00 72.89 LIG 0.16  HD
ATOM     26 22HD ASN D   6     -10.740 -40.524  15.317  1.00 72.89 LIG 0.16  HD
ATOM     27 OD1  ASN D   6     -11.349 -38.540  17.507  1.00 74.05 LIG-0.27  OA
ENDBRANCH 22 23
ENDBRANCH 10 22
ENDBRANCH 7 10
ENDBRANCH 1 6
BRANCH 1 28
ATOM     28  N   LEU D   5      -6.675 -34.293  14.954  1.00 43.46 LIG-0.35  N 
ATOM     29 H    LEU D   5      -6.205 -34.954  14.668  1.00 43.46 LIG 0.16  HD
ATOM     30  C   LEU D   4      -6.195 -33.063  15.115  1.00 41.34 LIG 0.24  C 
ATOM     31 O    LEU D   4      -6.854 -32.138  15.566  1.00 44.89 LIG-0.27  OA
BRANCH 30 32
ATOM     32  CA  LEU D   4      -4.795 -32.807  14.642  1.00 41.83 LIG 0.18  C 
BRANCH 32 33
ATOM     33  CB  LEU D   4      -4.857 -32.034  13.313  1.00 37.92 LIG 0.04  C 
BRANCH 33 34
ATOM     34  CG  LEU D   4      -4.318 -30.607  13.349  1.00 37.44 LIG-0.02  C 
ATOM     35  CD1 LEU D   4      -2.868 -30.623  13.800  1.00 34.88 LIG 0.01  C 
ATOM     36  CD2 LEU D   4      -4.439 -29.945  11.975  1.00 37.22 LIG 0.01  C 
ENDBRANCH 33 34
ENDBRANCH 32 33
BRANCH 32 37
ATOM     37  N   LEU D   4      -3.993 -34.027  14.510  1.00 45.71 LIG-0.35  N 
ATOM     38 H    LEU D   4      -4.056 -34.416  13.745  1.00 45.71 LIG 0.16  HD
ATOM     39  C   ASP D   3      -3.239 -34.466  15.516  1.00 59.12 LIG 0.24  C 
ATOM     40 O    ASP D   3      -3.271 -33.978  16.651  1.00 63.71 LIG-0.27  OA
BRANCH 39 41
ATOM     41  CA  ASP D   3      -2.340 -35.666  15.235  1.00 63.74 LIG 0.19  C 
BRANCH 41 42
ATOM     42  N   ASP D   3      -1.260 -35.355  14.307  1.00 62.73 LIG-0.35  N 
ATOM     43 H    ASP D   3      -0.523 -35.119  14.683  1.00 62.73 LIG 0.16  HD
ATOM     44  C   GLY D   2      -1.428 -35.439  12.994  1.00 63.13 LIG 0.25  C 
ATOM     45 O    GLY D   2      -2.509 -35.717  12.469  1.00 65.69 LIG-0.27  OA
BRANCH 44 46
ATOM     46  CA  GLY D   2      -0.203 -35.164  12.147  1.00 64.97 LIG 0.47  C 
ATOM     47  N   GLY D   2       1.061 -35.394  12.904  1.00 67.04 LIG 0.61  N 
ENDBRANCH 44 46
ENDBRANCH 41 42
BRANCH 41 48
ATOM     48  CB  ASP D   3      -1.791 -36.229  16.552  1.00 68.02 LIG 0.15  C 
BRANCH 48 49
ATOM     49  CG  ASP D   3      -0.755 -35.330  17.182  1.00 72.98 LIG 0.17  C 
ATOM     50 OD1  ASP D   3      -1.020 -34.783  18.275  1.00 76.93 LIG-0.65  OA
ATOM     51 OD2  ASP D   3       0.327 -35.160  16.577  1.00 81.56 LIG-0.65  OA
ENDBRANCH 48 49
ENDBRANCH 41 48
ENDBRANCH 39 41
ENDBRANCH 32 37
ENDBRANCH 30 32
ENDBRANCH 1 28
TORSDOF 21
ENDMDL
MODEL 17
USER: ADFR SOLUTION from run 177
USER: SCORE 16.647056 LL:  -4.982 LR: -13.296 RR:   0.000 FEB:  -7.031
USER: RMSD 6.319211
USER: SEED 176
USER: STATUS no improvement in best in 17 clusters for 5 generations
USER: GENES 23
USER: genes 0 Translation |==|  0.37705 0.66665 0.35817
USER: genes 1 Rotation |==|  0.12464 0.36388 0.46746 0.79919
USER: genes 2 Torsion [C]-CA--CB-[CG] |==|  0.01784
USER: genes 3 Torsion [CA]-CB--CG-[CD1] |==|  0.34986
USER: genes 4 Torsion [N]-CA--C-[N] |==|  0.90569
USER: genes 5 Torsion [C]-N--CA-[C] |==|  0.73912
USER: genes 6 Torsion [N]-CA--C-[N] |==|  0.93292
USER: genes 7 Torsion [C]-N--CA-[C] |==|  0.56473
USER: genes 8 Torsion [N]-CA--C-[O] |==|  0.57723
USER: genes 9 Torsion [N]-CA--CB-[CG] |==|  0.67435
USER: genes 10 Torsion [CA]-CB--CG-[CD1] |==|  0.29403
USER: genes 11 Torsion [N]-CA--CB-[CG] |==|  0.55594
USER: genes 12 Torsion [CA]-CB--CG-[ND2] |==|  0.99354
USER: genes 13 Torsion [CB]-CA--N-[C] |==|  0.43720
USER: genes 14 Torsion [N]-C--CA-[N] |==|  0.94448
USER: genes 15 Torsion [C]-CA--CB-[CG] |==|  0.26007
USER: genes 16 Torsion [CA]-CB--CG-[CD1] |==|  0.74604
USER: genes 17 Torsion [C]-CA--N-[C] |==|  0.73773
USER: genes 18 Torsion [N]-C--CA-[N] |==|  0.88240
USER: genes 19 Torsion [C]-CA--N-[C] |==|  0.82218
USER: genes 20 Torsion [N]-C--CA-[N] |==|  0.33305
USER: genes 21 Torsion [C]-CA--CB-[CG] |==|  0.22522
USER: genes 22 Torsion [CA]-CB--CG-[OD1] |==|  0.00984
ROOT
ATOM      1  CA  LEU D   5      -8.229 -33.287  13.938  1.00 45.78 LIG 0.18  C 
ENDROOT
BRANCH 1 2
ATOM      2  CB  LEU D   5      -8.794 -34.567  13.329  1.00 44.83 LIG 0.04  C 
BRANCH 2 3
ATOM      3  CG  LEU D   5     -10.001 -35.210  13.998  1.00 46.71 LIG-0.02  C 
ATOM      4  CD1 LEU D   5     -11.098 -35.398  12.963  1.00 43.35 LIG 0.01  C 
ATOM      5  CD2 LEU D   5      -9.635 -36.549  14.640  1.00 50.41 LIG 0.01  C 
ENDBRANCH 2 3
ENDBRANCH 1 2
BRANCH 1 6
ATOM      6  C   LEU D   5      -8.970 -33.036  15.241  1.00 49.70 LIG 0.24  C 
ATOM      7  N   ASN D   6      -8.442 -33.623  16.317  1.00 52.00 LIG-0.35  N 
ATOM      8 H    ASN D   6      -7.780 -34.170  16.276  1.00 52.00 LIG 0.16  HD
ATOM      9 O    LEU D   5      -9.967 -32.290  15.268  1.00 48.20 LIG-0.27  OA
BRANCH 7 10
ATOM     10  CA  ASN D   6      -8.935 -33.399  17.677  1.00 59.27 LIG 0.18  C 
BRANCH 10 11
ATOM     11  C   ASN D   6      -8.112 -32.280  18.325  1.00 60.71 LIG 0.24  C 
ATOM     12  N   LEU D   7      -6.889 -32.081  17.833  1.00 62.75 LIG-0.35  N 
ATOM     13 H    LEU D   7      -6.596 -32.462  17.120  1.00 62.75 LIG 0.16  HD
ATOM     14 O    ASN D   6      -8.581 -31.612  19.250  1.00 63.11 LIG-0.27  OA
BRANCH 12 15
ATOM     15  CA  LEU D   7      -5.918 -31.182  18.472  1.00 66.71 LIG 0.16  C 
BRANCH 15 16
ATOM     16  C   LEU D   7      -4.847 -30.663  17.507  1.00 66.58 LIG 0.22  C 
ATOM     17 O    LEU D   7      -3.733 -30.350  17.912  1.00 70.30 LIG-0.29  OA
ENDBRANCH 15 16
BRANCH 15 18
ATOM     18  CB  LEU D   7      -5.263 -31.906  19.657  1.00 67.13 LIG 0.04  C 
BRANCH 18 19
ATOM     19  CG  LEU D   7      -5.527 -31.262  21.026  1.00 64.50 LIG-0.02  C 
ATOM     20  CD1 LEU D   7      -6.529 -32.088  21.824  1.00 64.54 LIG 0.01  C 
ATOM     21  CD2 LEU D   7      -4.230 -31.069  21.806  1.00 62.99 LIG 0.01  C 
ENDBRANCH 18 19
ENDBRANCH 15 18
ENDBRANCH 12 15
ENDBRANCH 10 11
BRANCH 10 22
ATOM     22  CB  ASN D   6      -8.839 -34.703  18.484  1.00 63.11 LIG 0.14  C 
BRANCH 22 23
ATOM     23  CG  ASN D   6      -9.746 -34.712  19.703  1.00 71.29 LIG 0.22  C 
ATOM     24  ND2 ASN D   6     -10.446 -33.598  19.927  1.00 72.89 LIG-0.37  N 
ATOM     25 21HD ASN D   6     -10.970 -33.549  20.606  1.00 72.89 LIG 0.16  HD
ATOM     26 22HD ASN D   6     -10.372 -32.929  19.391  1.00 72.89 LIG 0.16  HD
ATOM     27 OD1  ASN D   6      -9.816 -35.702  20.443  1.00 74.05 LIG-0.27  OA
ENDBRANCH 22 23
ENDBRANCH 10 22
ENDBRANCH 7 10
ENDBRANCH 1 6
BRANCH 1 28
ATOM     28  N   LEU D   5      -6.778 -33.398  14.162  1.00 43.46 LIG-0.35  N 
ATOM     29 H    LEU D   5      -6.493 -34.207  14.224  1.00 43.46 LIG 0.16  HD
ATOM     30  C   LEU D   4      -5.990 -32.331  14.258  1.00 41.34 LIG 0.24  C 
ATOM     31 O    LEU D   4      -6.406 -31.183  14.217  1.00 44.89 LIG-0.27  OA
BRANCH 30 32
ATOM     32  CA  LEU D   4      -4.513 -32.576  14.345  1.00 41.83 LIG 0.18  C 
BRANCH 32 33
ATOM     33  CB  LEU D   4      -3.877 -32.246  12.983  1.00 37.92 LIG 0.04  C 
BRANCH 33 34
ATOM     34  CG  LEU D   4      -3.334 -30.828  12.831  1.00 37.44 LIG-0.02  C 
ATOM     35  CD1 LEU D   4      -4.415 -29.927  12.259  1.00 34.88 LIG 0.01  C 
ATOM     36  CD2 LEU D   4      -2.848 -30.286  14.177  1.00 37.22 LIG 0.01  C 
ENDBRANCH 33 34
ENDBRANCH 32 33
BRANCH 32 37
ATOM     37  N   LEU D   4      -4.173 -33.936  14.773  1.00 45.71 LIG-0.35  N 
ATOM     38 H    LEU D   4      -4.142 -34.516  14.138  1.00 45.71 LIG 0.16  HD
ATOM     39  C   ASP D   3      -3.936 -34.213  16.054  1.00 59.12 LIG 0.24  C 
ATOM     40 O    ASP D   3      -4.124 -33.405  16.970  1.00 63.71 LIG-0.27  OA
BRANCH 39 41
ATOM     41  CA  ASP D   3      -3.460 -35.625  16.381  1.00 63.74 LIG 0.19  C 
BRANCH 41 42
ATOM     42  N   ASP D   3      -4.184 -36.650  15.638  1.00 62.73 LIG-0.35  N 
ATOM     43 H    ASP D   3      -3.698 -37.103  15.091  1.00 62.73 LIG 0.16  HD
ATOM     44  C   GLY D   2      -5.484 -36.844  15.812  1.00 63.13 LIG 0.25  C 
ATOM     45 O    GLY D   2      -6.178 -36.143  16.552  1.00 65.69 LIG-0.27  OA
BRANCH 44 46
ATOM     46  CA  GLY D   2      -6.096 -37.991  15.034  1.00 64.97 LIG 0.47  C 
ATOM     47  N   GLY D   2      -6.704 -39.013  15.934  1.00 67.04 LIG 0.61  N 
ENDBRANCH 44 46
ENDBRANCH 41 42
BRANCH 41 48
ATOM     48  CB  ASP D   3      -1.948 -35.737  16.144  1.00 68.02 LIG 0.15  C 
BRANCH 48 49
ATOM     49  CG  ASP D   3      -1.137 -35.193  17.296  1.00 72.98 LIG 0.17  C 
ATOM     50 OD1  ASP D   3      -1.739 -34.787  18.314  1.00 76.93 LIG-0.65  OA
ATOM     51 OD2  ASP D   3       0.108 -35.162  17.179  1.00 81.56 LIG-0.65  OA
ENDBRANCH 48 49
ENDBRANCH 41 48
ENDBRANCH 39 41
ENDBRANCH 32 37
ENDBRANCH 30 32
ENDBRANCH 1 28
TORSDOF 21
ENDMDL
MODEL 18
USER: ADFR SOLUTION from run 75
USER: SCORE 16.417816 LL:  -3.812 LR: -13.268 RR:   0.000 FEB:  -7.004
USER: RMSD 9.588812
USER: SEED 74
USER: STATUS no improvement in best in 4 clusters for 5 generations
USER: GENES 23
USER: genes 0 Translation |==|  0.37169 0.68291 0.55651
USER: genes 1 Rotation |==|  0.86379 0.34667 0.80465 0.53655
USER: genes 2 Torsion [C]-CA--CB-[CG] |==|  0.40073
USER: genes 3 Torsion [CA]-CB--CG-[CD1] |==|  0.56240
USER: genes 4 Torsion [N]-CA--C-[N] |==|  0.16247
USER: genes 5 Torsion [C]-N--CA-[C] |==|  0.79421
USER: genes 6 Torsion [N]-CA--C-[N] |==|  0.97778
USER: genes 7 Torsion [C]-N--CA-[C] |==|  0.84685
USER: genes 8 Torsion [N]-CA--C-[O] |==|  0.40469
USER: genes 9 Torsion [N]-CA--CB-[CG] |==|  0.21523
USER: genes 10 Torsion [CA]-CB--CG-[CD1] |==|  0.88720
USER: genes 11 Torsion [N]-CA--CB-[CG] |==|  0.84934
USER: genes 12 Torsion [CA]-CB--CG-[ND2] |==|  0.71210
USER: genes 13 Torsion [CB]-CA--N-[C] |==|  0.75278
USER: genes 14 Torsion [N]-C--CA-[N] |==|  0.09511
USER: genes 15 Torsion [C]-CA--CB-[CG] |==|  0.26778
USER: genes 16 Torsion [CA]-CB--CG-[CD1] |==|  0.10284
USER: genes 17 Torsion [C]-CA--N-[C] |==|  0.65389
USER: genes 18 Torsion [N]-C--CA-[N] |==|  0.38567
USER: genes 19 Torsion [C]-CA--N-[C] |==|  0.82200
USER: genes 20 Torsion [N]-C--CA-[N] |==|  0.68915
USER: genes 21 Torsion [C]-CA--CB-[CG] |==|  0.76550
USER: genes 22 Torsion [CA]-CB--CG-[OD1] |==|  0.26905
ROOT
ATOM      1  CA  LEU D   5      -8.346 -32.958  17.360  1.00 45.78 LIG 0.18  C 
ENDROOT
BRANCH 1 2
ATOM      2  CB  LEU D   5      -9.410 -32.454  16.389  1.00 44.83 LIG 0.04  C 
BRANCH 2 3
ATOM      3  CG  LEU D   5      -9.829 -33.367  15.244  1.00 46.71 LIG-0.02  C 
ATOM      4  CD1 LEU D   5     -10.428 -32.521  14.132  1.00 43.35 LIG 0.01  C 
ATOM      5  CD2 LEU D   5      -8.647 -34.183  14.720  1.00 50.41 LIG 0.01  C 
ENDBRANCH 2 3
ENDBRANCH 1 2
BRANCH 1 6
ATOM      6  C   LEU D   5      -7.494 -31.766  17.764  1.00 49.70 LIG 0.24  C 
ATOM      7  N   ASN D   6      -6.499 -32.040  18.610  1.00 52.00 LIG-0.35  N 
ATOM      8 H    ASN D   6      -6.387 -32.813  18.969  1.00 52.00 LIG 0.16  HD
ATOM      9 O    LEU D   5      -7.712 -30.639  17.280  1.00 48.20 LIG-0.27  OA
BRANCH 7 10
ATOM     10  CA  ASN D   6      -5.496 -31.055  19.016  1.00 59.27 LIG 0.18  C 
BRANCH 10 11
ATOM     11  C   ASN D   6      -4.524 -30.828  17.852  1.00 60.71 LIG 0.24  C 
ATOM     12  N   LEU D   7      -4.651 -31.644  16.805  1.00 62.75 LIG-0.35  N 
ATOM     13 H    LEU D   7      -5.303 -32.196  16.709  1.00 62.75 LIG 0.16  HD
ATOM     14 O    ASN D   6      -3.680 -29.930  17.906  1.00 63.11 LIG-0.27  OA
BRANCH 12 15
ATOM     15  CA  LEU D   7      -3.676 -31.675  15.706  1.00 66.71 LIG 0.16  C 
BRANCH 15 16
ATOM     16  C   LEU D   7      -3.447 -30.304  15.060  1.00 66.58 LIG 0.22  C 
ATOM     17 O    LEU D   7      -2.343 -29.988  14.630  1.00 70.30 LIG-0.29  OA
ENDBRANCH 15 16
BRANCH 15 18
ATOM     18  CB  LEU D   7      -4.135 -32.692  14.652  1.00 67.13 LIG 0.04  C 
BRANCH 18 19
ATOM     19  CG  LEU D   7      -5.265 -32.199  13.736  1.00 64.50 LIG-0.02  C 
ATOM     20  CD1 LEU D   7      -6.298 -31.412  14.533  1.00 64.54 LIG 0.01  C 
ATOM     21  CD2 LEU D   7      -4.716 -31.369  12.578  1.00 62.99 LIG 0.01  C 
ENDBRANCH 18 19
ENDBRANCH 15 18
ENDBRANCH 12 15
ENDBRANCH 10 11
BRANCH 10 22
ATOM     22  CB  ASN D   6      -4.760 -31.551  20.270  1.00 63.11 LIG 0.14  C 
BRANCH 22 23
ATOM     23  CG  ASN D   6      -5.704 -31.906  21.407  1.00 71.29 LIG 0.22  C 
ATOM     24  ND2 ASN D   6      -5.785 -31.023  22.404  1.00 72.89 LIG-0.37  N 
ATOM     25 21HD ASN D   6      -6.300 -31.179  23.075  1.00 72.89 LIG 0.16  HD
ATOM     26 22HD ASN D   6      -5.322 -30.299  22.377  1.00 72.89 LIG 0.16  HD
ATOM     27 OD1  ASN D   6      -6.348 -32.963  21.399  1.00 74.05 LIG-0.27  OA
ENDBRANCH 22 23
ENDBRANCH 10 22
ENDBRANCH 7 10
ENDBRANCH 1 6
BRANCH 1 28
ATOM     28  N   LEU D   5      -8.957 -33.601  18.535  1.00 43.46 LIG-0.35  N 
ATOM     29 H    LEU D   5      -9.078 -34.448  18.449  1.00 43.46 LIG 0.16  HD
ATOM     30  C   LEU D   4      -9.286 -32.918  19.627  1.00 41.34 LIG 0.24  C 
ATOM     31 O    LEU D   4      -9.156 -31.708  19.728  1.00 44.89 LIG-0.27  OA
BRANCH 30 32
ATOM     32  CA  LEU D   4      -9.771 -33.707  20.808  1.00 41.83 LIG 0.18  C 
BRANCH 32 33
ATOM     33  CB  LEU D   4      -9.580 -32.859  22.079  1.00 37.92 LIG 0.04  C 
BRANCH 33 34
ATOM     34  CG  LEU D   4     -10.806 -32.082  22.548  1.00 37.44 LIG-0.02  C 
ATOM     35  CD1 LEU D   4     -12.056 -32.912  22.311  1.00 34.88 LIG 0.01  C 
ATOM     36  CD2 LEU D   4     -10.684 -31.718  24.029  1.00 37.22 LIG 0.01  C 
ENDBRANCH 33 34
ENDBRANCH 32 33
BRANCH 32 37
ATOM     37  N   LEU D   4      -9.122 -35.014  20.940  1.00 45.71 LIG-0.35  N 
ATOM     38 H    LEU D   4      -8.263 -34.988  20.975  1.00 45.71 LIG 0.16  HD
ATOM     39  C   ASP D   3      -9.841 -36.134  20.999  1.00 59.12 LIG 0.24  C 
ATOM     40 O    ASP D   3     -11.061 -36.169  20.805  1.00 63.71 LIG-0.27  OA
BRANCH 39 41
ATOM     41  CA  ASP D   3      -9.083 -37.430  21.271  1.00 63.74 LIG 0.19  C 
BRANCH 41 42
ATOM     42  N   ASP D   3      -9.784 -38.308  22.200  1.00 62.73 LIG-0.35  N 
ATOM     43 H    ASP D   3     -10.033 -39.059  21.862  1.00 62.73 LIG 0.16  HD
ATOM     44  C   GLY D   2     -10.005 -37.952  23.459  1.00 63.13 LIG 0.25  C 
ATOM     45 O    GLY D   2      -9.698 -36.846  23.911  1.00 65.69 LIG-0.27  OA
BRANCH 44 46
ATOM     46  CA  GLY D   2     -10.675 -38.988  24.336  1.00 64.97 LIG 0.47  C 
ATOM     47  N   GLY D   2     -12.057 -38.581  24.725  1.00 67.04 LIG 0.61  N 
ENDBRANCH 44 46
ENDBRANCH 41 42
BRANCH 41 48
ATOM     48  CB  ASP D   3      -8.784 -38.150  19.951  1.00 68.02 LIG 0.15  C 
BRANCH 48 49
ATOM     49  CG  ASP D   3      -9.935 -39.007  19.482  1.00 72.98 LIG 0.17  C 
ATOM     50 OD1  ASP D   3     -10.728 -38.537  18.637  1.00 76.93 LIG-0.65  OA
ATOM     51 OD2  ASP D   3     -10.055 -40.154  19.968  1.00 81.56 LIG-0.65  OA
ENDBRANCH 48 49
ENDBRANCH 41 48
ENDBRANCH 39 41
ENDBRANCH 32 37
ENDBRANCH 30 32
ENDBRANCH 1 28
TORSDOF 21
ENDMDL
MODEL 19
USER: ADFR SOLUTION from run 16
USER: SCORE 15.334060 LL:  -3.089 LR: -13.259 RR:   0.000 FEB:  -6.995
USER: RMSD 9.624536
USER: SEED 572218
USER: STATUS no improvement in best in 10 clusters for 5 generations
USER: GENES 23
USER: genes 0 Translation |==|  0.35603 0.68637 0.55610
USER: genes 1 Rotation |==|  0.88816 0.33885 0.76717 0.54450
USER: genes 2 Torsion [C]-CA--CB-[CG] |==|  0.39275
USER: genes 3 Torsion [CA]-CB--CG-[CD1] |==|  0.67068
USER: genes 4 Torsion [N]-CA--C-[N] |==|  0.13921
USER: genes 5 Torsion [C]-N--CA-[C] |==|  0.78716
USER: genes 6 Torsion [N]-CA--C-[N] |==|  0.00599
USER: genes 7 Torsion [C]-N--CA-[C] |==|  0.19520
USER: genes 8 Torsion [N]-CA--C-[O] |==|  0.07832
USER: genes 9 Torsion [N]-CA--CB-[CG] |==|  0.60602
USER: genes 10 Torsion [CA]-CB--CG-[CD1] |==|  0.92793
USER: genes 11 Torsion [N]-CA--CB-[CG] |==|  0.56923
USER: genes 12 Torsion [CA]-CB--CG-[ND2] |==|  0.30754
USER: genes 13 Torsion [CB]-CA--N-[C] |==|  0.76682
USER: genes 14 Torsion [N]-C--CA-[N] |==|  0.09906
USER: genes 15 Torsion [C]-CA--CB-[CG] |==|  0.24244
USER: genes 16 Torsion [CA]-CB--CG-[CD1] |==|  0.08640
USER: genes 17 Torsion [C]-CA--N-[C] |==|  0.67505
USER: genes 18 Torsion [N]-C--CA-[N] |==|  0.06260
USER: genes 19 Torsion [C]-CA--N-[C] |==|  0.16882
USER: genes 20 Torsion [N]-C--CA-[N] |==|  0.61004
USER: genes 21 Torsion [C]-CA--CB-[CG] |==|  0.24117
USER: genes 22 Torsion [CA]-CB--CG-[OD1] |==|  0.97380
ROOT
ATOM      1  CA  LEU D   5      -8.686 -32.888  17.353  1.00 45.78 LIG 0.18  C 
ENDROOT
BRANCH 1 2
ATOM      2  CB  LEU D   5      -9.889 -32.315  16.609  1.00 44.83 LIG 0.04  C 
BRANCH 2 3
ATOM      3  CG  LEU D   5     -10.486 -33.132  15.470  1.00 46.71 LIG-0.02  C 
ATOM      4  CD1 LEU D   5     -10.373 -32.335  14.180  1.00 43.35 LIG 0.01  C 
ATOM      5  CD2 LEU D   5      -9.787 -34.485  15.328  1.00 50.41 LIG 0.01  C 
ENDBRANCH 2 3
ENDBRANCH 1 2
BRANCH 1 6
ATOM      6  C   LEU D   5      -7.745 -31.734  17.656  1.00 49.70 LIG 0.24  C 
ATOM      7  N   ASN D   6      -6.714 -32.036  18.449  1.00 52.00 LIG-0.35  N 
ATOM      8 H    ASN D   6      -6.623 -32.801  18.830  1.00 52.00 LIG 0.16  HD
ATOM      9 O    LEU D   5      -7.930 -30.615  17.143  1.00 48.20 LIG-0.27  OA
BRANCH 7 10
ATOM     10  CA  ASN D   6      -5.633 -31.097  18.753  1.00 59.27 LIG 0.18  C 
BRANCH 10 11
ATOM     11  C   ASN D   6      -4.692 -31.018  17.545  1.00 60.71 LIG 0.24  C 
ATOM     12  N   LEU D   7      -5.032 -31.740  16.478  1.00 62.75 LIG-0.35  N 
ATOM     13 H    LEU D   7      -5.787 -32.144  16.399  1.00 62.75 LIG 0.16  HD
ATOM     14 O    ASN D   6      -3.680 -30.313  17.585  1.00 63.11 LIG-0.27  OA
BRANCH 12 15
ATOM     15  CA  LEU D   7      -4.137 -31.917  15.327  1.00 66.71 LIG 0.16  C 
BRANCH 15 16
ATOM     16  C   LEU D   7      -2.923 -32.801  15.632  1.00 66.58 LIG 0.22  C 
ATOM     17 O    LEU D   7      -2.980 -33.675  16.490  1.00 70.30 LIG-0.29  OA
ENDBRANCH 15 16
BRANCH 15 18
ATOM     18  CB  LEU D   7      -3.682 -30.539  14.824  1.00 67.13 LIG 0.04  C 
BRANCH 18 19
ATOM     19  CG  LEU D   7      -3.576 -30.418  13.297  1.00 64.50 LIG-0.02  C 
ATOM     20  CD1 LEU D   7      -3.322 -31.781  12.665  1.00 64.54 LIG 0.01  C 
ATOM     21  CD2 LEU D   7      -4.822 -29.763  12.707  1.00 62.99 LIG 0.01  C 
ENDBRANCH 18 19
ENDBRANCH 15 18
ENDBRANCH 12 15
ENDBRANCH 10 11
BRANCH 10 22
ATOM     22  CB  ASN D   6      -4.887 -31.557  20.015  1.00 63.11 LIG 0.14  C 
BRANCH 22 23
ATOM     23  CG  ASN D   6      -4.193 -30.416  20.740  1.00 71.29 LIG 0.22  C 
ATOM     24  ND2 ASN D   6      -4.706 -30.071  21.923  1.00 72.89 LIG-0.37  N 
ATOM     25 21HD ASN D   6      -4.354 -29.428  22.373  1.00 72.89 LIG 0.16  HD
ATOM     26 22HD ASN D   6      -5.388 -30.492  22.236  1.00 72.89 LIG 0.16  HD
ATOM     27 OD1  ASN D   6      -3.214 -29.843  20.246  1.00 74.05 LIG-0.27  OA
ENDBRANCH 22 23
ENDBRANCH 10 22
ENDBRANCH 7 10
ENDBRANCH 1 6
BRANCH 1 28
ATOM     28  N   LEU D   5      -9.100 -33.578  18.586  1.00 43.46 LIG-0.35  N 
ATOM     29 H    LEU D   5      -9.191 -34.429  18.498  1.00 43.46 LIG 0.16  HD
ATOM     30  C   LEU D   4      -9.310 -32.929  19.727  1.00 41.34 LIG 0.24  C 
ATOM     31 O    LEU D   4      -9.225 -31.715  19.836  1.00 44.89 LIG-0.27  OA
BRANCH 30 32
ATOM     32  CA  LEU D   4      -9.591 -33.759  20.945  1.00 41.83 LIG 0.18  C 
BRANCH 32 33
ATOM     33  CB  LEU D   4      -9.303 -32.909  22.196  1.00 37.92 LIG 0.04  C 
BRANCH 33 34
ATOM     34  CG  LEU D   4     -10.463 -32.053  22.697  1.00 37.44 LIG-0.02  C 
ATOM     35  CD1 LEU D   4     -11.778 -32.743  22.383  1.00 34.88 LIG 0.01  C 
ATOM     36  CD2 LEU D   4     -10.341 -31.802  24.202  1.00 37.22 LIG 0.01  C 
ENDBRANCH 33 34
ENDBRANCH 32 33
BRANCH 32 37
ATOM     37  N   LEU D   4      -8.843 -35.019  20.976  1.00 45.71 LIG-0.35  N 
ATOM     38 H    LEU D   4      -7.988 -34.929  21.010  1.00 45.71 LIG 0.16  HD
ATOM     39  C   ASP D   3      -9.474 -36.192  20.953  1.00 59.12 LIG 0.24  C 
ATOM     40 O    ASP D   3     -10.689 -36.306  20.760  1.00 63.71 LIG-0.27  OA
BRANCH 39 41
ATOM     41  CA  ASP D   3      -8.617 -37.442  21.124  1.00 63.74 LIG 0.19  C 
BRANCH 41 42
ATOM     42  N   ASP D   3      -7.351 -37.170  21.793  1.00 62.73 LIG-0.35  N 
ATOM     43 H    ASP D   3      -6.653 -37.354  21.324  1.00 62.73 LIG 0.16  HD
ATOM     44  C   GLY D   2      -7.308 -36.678  23.024  1.00 63.13 LIG 0.25  C 
ATOM     45 O    GLY D   2      -8.316 -36.480  23.706  1.00 65.69 LIG-0.27  OA
BRANCH 44 46
ATOM     46  CA  GLY D   2      -5.930 -36.371  23.571  1.00 64.97 LIG 0.47  C 
ATOM     47  N   GLY D   2      -5.805 -36.742  25.010  1.00 67.04 LIG 0.61  N 
ENDBRANCH 44 46
ENDBRANCH 41 42
BRANCH 41 48
ATOM     48  CB  ASP D   3      -9.411 -38.525  21.865  1.00 68.02 LIG 0.15  C 
BRANCH 48 49
ATOM     49  CG  ASP D   3     -10.242 -39.376  20.936  1.00 72.98 LIG 0.17  C 
ATOM     50 OD1  ASP D   3     -10.352 -39.027  19.740  1.00 76.93 LIG-0.65  OA
ATOM     51 OD2  ASP D   3     -10.797 -40.395  21.405  1.00 81.56 LIG-0.65  OA
ENDBRANCH 48 49
ENDBRANCH 41 48
ENDBRANCH 39 41
ENDBRANCH 32 37
ENDBRANCH 30 32
ENDBRANCH 1 28
TORSDOF 21
ENDMDL
MODEL 20
USER: ADFR SOLUTION from run 34
USER: SCORE 16.729319 LL:  -4.213 LR: -13.251 RR:   0.000 FEB:  -6.987
USER: RMSD 8.380070
USER: SEED 33
USER: STATUS no improvement in best in 6 clusters for 5 generations
USER: GENES 23
USER: genes 0 Translation |==|  0.52990 0.71918 0.42658
USER: genes 1 Rotation |==|  0.35237 0.72738 0.13434 0.70687
USER: genes 2 Torsion [C]-CA--CB-[CG] |==|  0.40779
USER: genes 3 Torsion [CA]-CB--CG-[CD1] |==|  0.06488
USER: genes 4 Torsion [N]-CA--C-[N] |==|  0.26892
USER: genes 5 Torsion [C]-N--CA-[C] |==|  0.15956
USER: genes 6 Torsion [N]-CA--C-[N] |==|  0.10992
USER: genes 7 Torsion [C]-N--CA-[C] |==|  0.16180
USER: genes 8 Torsion [N]-CA--C-[O] |==|  0.96334
USER: genes 9 Torsion [N]-CA--CB-[CG] |==|  0.38725
USER: genes 10 Torsion [CA]-CB--CG-[CD1] |==|  0.34178
USER: genes 11 Torsion [N]-CA--CB-[CG] |==|  0.57403
USER: genes 12 Torsion [CA]-CB--CG-[ND2] |==|  0.76924
USER: genes 13 Torsion [CB]-CA--N-[C] |==|  0.78333
USER: genes 14 Torsion [N]-C--CA-[N] |==|  0.36089
USER: genes 15 Torsion [C]-CA--CB-[CG] |==|  0.72918
USER: genes 16 Torsion [CA]-CB--CG-[CD1] |==|  0.77503
USER: genes 17 Torsion [C]-CA--N-[C] |==|  0.60598
USER: genes 18 Torsion [N]-C--CA-[N] |==|  0.36542
USER: genes 19 Torsion [C]-CA--N-[C] |==|  0.72982
USER: genes 20 Torsion [N]-C--CA-[N] |==|  0.58770
USER: genes 21 Torsion [C]-CA--CB-[CG] |==|  0.54296
USER: genes 22 Torsion [CA]-CB--CG-[OD1] |==|  0.18801
ROOT
ATOM      1  CA  LEU D   5      -4.905 -32.224  15.119  1.00 45.78 LIG 0.18  C 
ENDROOT
BRANCH 1 2
ATOM      2  CB  LEU D   5      -4.928 -30.938  14.298  1.00 44.83 LIG 0.04  C 
BRANCH 2 3
ATOM      3  CG  LEU D   5      -3.869 -30.755  13.218  1.00 46.71 LIG-0.02  C 
ATOM      4  CD1 LEU D   5      -3.356 -32.121  12.793  1.00 43.35 LIG 0.01  C 
ATOM      5  CD2 LEU D   5      -4.425 -29.992  12.015  1.00 50.41 LIG 0.01  C 
ENDBRANCH 2 3
ENDBRANCH 1 2
BRANCH 1 6
ATOM      6  C   LEU D   5      -5.385 -31.881  16.519  1.00 49.70 LIG 0.24  C 
ATOM      7  N   ASN D   6      -4.741 -32.504  17.508  1.00 52.00 LIG-0.35  N 
ATOM      8 H    ASN D   6      -4.152 -33.116  17.373  1.00 52.00 LIG 0.16  HD
ATOM      9 O    LEU D   5      -6.284 -31.037  16.691  1.00 48.20 LIG-0.27  OA
BRANCH 7 10
ATOM     10  CA  ASN D   6      -4.971 -32.213  18.924  1.00 59.27 LIG 0.18  C 
BRANCH 10 11
ATOM     11  C   ASN D   6      -6.455 -32.427  19.241  1.00 60.71 LIG 0.24  C 
ATOM     12  N   LEU D   7      -7.041 -33.475  18.661  1.00 62.75 LIG-0.35  N 
ATOM     13 H    LEU D   7      -6.611 -34.078  18.225  1.00 62.75 LIG 0.16  HD
ATOM     14 O    ASN D   6      -7.052 -31.657  19.997  1.00 63.11 LIG-0.27  OA
BRANCH 12 15
ATOM     15  CA  LEU D   7      -8.493 -33.697  18.713  1.00 66.71 LIG 0.16  C 
BRANCH 15 16
ATOM     16  C   LEU D   7      -9.305 -32.537  18.127  1.00 66.58 LIG 0.22  C 
ATOM     17 O    LEU D   7      -8.779 -31.454  17.894  1.00 70.30 LIG-0.29  OA
ENDBRANCH 15 16
BRANCH 15 18
ATOM     18  CB  LEU D   7      -8.911 -33.961  20.167  1.00 67.13 LIG 0.04  C 
BRANCH 18 19
ATOM     19  CG  LEU D   7     -10.226 -33.287  20.587  1.00 64.50 LIG-0.02  C 
ATOM     20  CD1 LEU D   7     -11.222 -34.323  21.095  1.00 64.54 LIG 0.01  C 
ATOM     21  CD2 LEU D   7      -9.981 -32.202  21.632  1.00 62.99 LIG 0.01  C 
ENDBRANCH 18 19
ENDBRANCH 15 18
ENDBRANCH 12 15
ENDBRANCH 10 11
BRANCH 10 22
ATOM     22  CB  ASN D   6      -4.535 -30.772  19.233  1.00 63.11 LIG 0.14  C 
BRANCH 22 23
ATOM     23  CG  ASN D   6      -4.124 -30.577  20.683  1.00 71.29 LIG 0.22  C 
ATOM     24  ND2 ASN D   6      -5.113 -30.361  21.553  1.00 72.89 LIG-0.37  N 
ATOM     25 21HD ASN D   6      -4.935 -30.239  22.385  1.00 72.89 LIG 0.16  HD
ATOM     26 22HD ASN D   6      -5.929 -30.344  21.281  1.00 72.89 LIG 0.16  HD
ATOM     27 OD1  ASN D   6      -2.935 -30.610  21.023  1.00 74.05 LIG-0.27  OA
ENDBRANCH 22 23
ENDBRANCH 10 22
ENDBRANCH 7 10
ENDBRANCH 1 6
BRANCH 1 28
ATOM     28  N   LEU D   5      -5.747 -33.264  14.505  1.00 43.46 LIG-0.35  N 
ATOM     29 H    LEU D   5      -5.307 -33.863  14.074  1.00 43.46 LIG 0.16  HD
ATOM     30  C   LEU D   4      -7.072 -33.263  14.618  1.00 41.34 LIG 0.24  C 
ATOM     31 O    LEU D   4      -7.697 -32.384  15.192  1.00 44.89 LIG-0.27  OA
BRANCH 30 32
ATOM     32  CA  LEU D   4      -7.807 -34.450  14.069  1.00 41.83 LIG 0.18  C 
BRANCH 32 33
ATOM     33  CB  LEU D   4      -8.500 -34.037  12.758  1.00 37.92 LIG 0.04  C 
BRANCH 33 34
ATOM     34  CG  LEU D   4      -9.974 -33.662  12.877  1.00 37.44 LIG-0.02  C 
ATOM     35  CD1 LEU D   4     -10.820 -34.923  12.904  1.00 34.88 LIG 0.01  C 
ATOM     36  CD2 LEU D   4     -10.222 -32.829  14.137  1.00 37.22 LIG 0.01  C 
ENDBRANCH 33 34
ENDBRANCH 32 33
BRANCH 32 37
ATOM     37  N   LEU D   4      -8.764 -35.030  15.015  1.00 45.71 LIG-0.35  N 
ATOM     38 H    LEU D   4      -9.190 -34.456  15.494  1.00 45.71 LIG 0.16  HD
ATOM     39  C   ASP D   3      -8.934 -36.349  15.098  1.00 59.12 LIG 0.24  C 
ATOM     40 O    ASP D   3      -8.216 -37.164  14.509  1.00 63.71 LIG-0.27  OA
BRANCH 39 41
ATOM     41  CA  ASP D   3     -10.047 -36.847  16.014  1.00 63.74 LIG 0.19  C 
BRANCH 41 42
ATOM     42  N   ASP D   3     -10.903 -37.838  15.374  1.00 62.73 LIG-0.35  N 
ATOM     43 H    ASP D   3     -10.593 -38.641  15.390  1.00 62.73 LIG 0.16  HD
ATOM     44  C   GLY D   2     -12.060 -37.501  14.819  1.00 63.13 LIG 0.25  C 
ATOM     45 O    GLY D   2     -12.459 -36.336  14.747  1.00 65.69 LIG-0.27  OA
BRANCH 44 46
ATOM     46  CA  GLY D   2     -12.885 -38.639  14.257  1.00 64.97 LIG 0.47  C 
ATOM     47  N   GLY D   2     -13.689 -38.213  13.075  1.00 67.04 LIG 0.61  N 
ENDBRANCH 44 46
ENDBRANCH 41 42
BRANCH 41 48
ATOM     48  CB  ASP D   3      -9.448 -37.395  17.316  1.00 68.02 LIG 0.15  C 
BRANCH 48 49
ATOM     49  CG  ASP D   3     -10.430 -38.233  18.100  1.00 72.98 LIG 0.17  C 
ATOM     50 OD1  ASP D   3     -10.795 -39.331  17.626  1.00 76.93 LIG-0.65  OA
ATOM     51 OD2  ASP D   3     -10.847 -37.787  19.193  1.00 81.56 LIG-0.65  OA
ENDBRANCH 48 49
ENDBRANCH 41 48
ENDBRANCH 39 41
ENDBRANCH 32 37
ENDBRANCH 30 32
ENDBRANCH 1 28
TORSDOF 21
ENDMDL
MODEL 21
USER: ADFR SOLUTION from run 167
USER: SCORE 16.591575 LL:  -4.606 LR: -13.175 RR:   0.000 FEB:  -6.911
USER: RMSD 8.145349
USER: SEED 166
USER: STATUS no improvement in best in 2 clusters for 5 generations
USER: GENES 23
USER: genes 0 Translation |==|  0.50806 0.67868 0.41943
USER: genes 1 Rotation |==|  0.28660 0.76792 0.15775 0.62467
USER: genes 2 Torsion [C]-CA--CB-[CG] |==|  0.35010
USER: genes 3 Torsion [CA]-CB--CG-[CD1] |==|  0.61692
USER: genes 4 Torsion [N]-CA--C-[N] |==|  0.87197
USER: genes 5 Torsion [C]-N--CA-[C] |==|  0.56880
USER: genes 6 Torsion [N]-CA--C-[N] |==|  0.36667
USER: genes 7 Torsion [C]-N--CA-[C] |==|  0.13356
USER: genes 8 Torsion [N]-CA--C-[O] |==|  0.28968
USER: genes 9 Torsion [N]-CA--CB-[CG] |==|  0.59283
USER: genes 10 Torsion [CA]-CB--CG-[CD1] |==|  0.41707
USER: genes 11 Torsion [N]-CA--CB-[CG] |==|  0.67009
USER: genes 12 Torsion [CA]-CB--CG-[ND2] |==|  0.76087
USER: genes 13 Torsion [CB]-CA--N-[C] |==|  0.87167
USER: genes 14 Torsion [N]-C--CA-[N] |==|  0.15358
USER: genes 15 Torsion [C]-CA--CB-[CG] |==|  0.30081
USER: genes 16 Torsion [CA]-CB--CG-[CD1] |==|  0.88753
USER: genes 17 Torsion [C]-CA--N-[C] |==|  0.69457
USER: genes 18 Torsion [N]-C--CA-[N] |==|  0.94147
USER: genes 19 Torsion [C]-CA--N-[C] |==|  0.83257
USER: genes 20 Torsion [N]-C--CA-[N] |==|  0.04207
USER: genes 21 Torsion [C]-CA--CB-[CG] |==|  0.68430
USER: genes 22 Torsion [CA]-CB--CG-[OD1] |==|  0.81840
ROOT
ATOM      1  CA  LEU D   5      -5.380 -33.044  14.995  1.00 45.78 LIG 0.18  C 
ENDROOT
BRANCH 1 2
ATOM      2  CB  LEU D   5      -5.602 -31.779  14.171  1.00 44.83 LIG 0.04  C 
BRANCH 2 3
ATOM      3  CG  LEU D   5      -4.715 -31.550  12.953  1.00 46.71 LIG-0.02  C 
ATOM      4  CD1 LEU D   5      -4.301 -30.088  12.913  1.00 43.35 LIG 0.01  C 
ATOM      5  CD2 LEU D   5      -3.483 -32.455  12.982  1.00 50.41 LIG 0.01  C 
ENDBRANCH 2 3
ENDBRANCH 1 2
BRANCH 1 6
ATOM      6  C   LEU D   5      -5.170 -32.617  16.439  1.00 49.70 LIG 0.24  C 
ATOM      7  N   ASN D   6      -6.278 -32.256  17.090  1.00 52.00 LIG-0.35  N 
ATOM      8 H    ASN D   6      -7.046 -32.189  16.710  1.00 52.00 LIG 0.16  HD
ATOM      9 O    LEU D   5      -4.037 -32.662  16.954  1.00 48.20 LIG-0.27  OA
BRANCH 7 10
ATOM     10  CA  ASN D   6      -6.300 -31.936  18.519  1.00 59.27 LIG 0.18  C 
BRANCH 10 11
ATOM     11  C   ASN D   6      -7.716 -32.173  19.057  1.00 60.71 LIG 0.24  C 
ATOM     12  N   LEU D   7      -7.813 -32.877  20.185  1.00 62.75 LIG-0.35  N 
ATOM     13 H    LEU D   7      -7.135 -33.098  20.666  1.00 62.75 LIG 0.16  HD
ATOM     14 O    ASN D   6      -8.697 -31.722  18.460  1.00 63.11 LIG-0.27  OA
BRANCH 12 15
ATOM     15  CA  LEU D   7      -9.100 -33.346  20.714  1.00 66.71 LIG 0.16  C 
BRANCH 15 16
ATOM     16  C   LEU D   7      -9.977 -34.029  19.660  1.00 66.58 LIG 0.22  C 
ATOM     17 O    LEU D   7     -10.099 -35.250  19.636  1.00 70.30 LIG-0.29  OA
ENDBRANCH 15 16
BRANCH 15 18
ATOM     18  CB  LEU D   7      -9.848 -32.164  21.346  1.00 67.13 LIG 0.04  C 
BRANCH 18 19
ATOM     19  CG  LEU D   7     -10.711 -32.528  22.563  1.00 64.50 LIG-0.02  C 
ATOM     20  CD1 LEU D   7     -10.804 -31.351  23.527  1.00 64.54 LIG 0.01  C 
ATOM     21  CD2 LEU D   7     -12.099 -32.999  22.137  1.00 62.99 LIG 0.01  C 
ENDBRANCH 18 19
ENDBRANCH 15 18
ENDBRANCH 12 15
ENDBRANCH 10 11
BRANCH 10 22
ATOM     22  CB  ASN D   6      -5.857 -30.481  18.731  1.00 63.11 LIG 0.14  C 
BRANCH 22 23
ATOM     23  CG  ASN D   6      -4.601 -30.363  19.578  1.00 71.29 LIG 0.22  C 
ATOM     24  ND2 ASN D   6      -4.781 -30.337  20.900  1.00 72.89 LIG-0.37  N 
ATOM     25 21HD ASN D   6      -4.104 -30.266  21.425  1.00 72.89 LIG 0.16  HD
ATOM     26 22HD ASN D   6      -5.575 -30.391  21.227  1.00 72.89 LIG 0.16  HD
ATOM     27 OD1  ASN D   6      -3.481 -30.287  19.057  1.00 74.05 LIG-0.27  OA
ENDBRANCH 22 23
ENDBRANCH 10 22
ENDBRANCH 7 10
ENDBRANCH 1 6
BRANCH 1 28
ATOM     28  N   LEU D   5      -6.519 -33.969  14.871  1.00 43.46 LIG-0.35  N 
ATOM     29 H    LEU D   5      -6.293 -34.786  14.730  1.00 43.46 LIG 0.16  HD
ATOM     30  C   LEU D   4      -7.780 -33.560  14.973  1.00 41.34 LIG 0.24  C 
ATOM     31 O    LEU D   4      -8.098 -32.390  15.127  1.00 44.89 LIG-0.27  OA
BRANCH 30 32
ATOM     32  CA  LEU D   4      -8.845 -34.617  14.969  1.00 41.83 LIG 0.18  C 
BRANCH 32 33
ATOM     33  CB  LEU D   4     -10.217 -33.934  15.107  1.00 37.92 LIG 0.04  C 
BRANCH 33 34
ATOM     34  CG  LEU D   4     -11.087 -33.934  13.854  1.00 37.44 LIG-0.02  C 
ATOM     35  CD1 LEU D   4     -10.224 -33.662  12.635  1.00 34.88 LIG 0.01  C 
ATOM     36  CD2 LEU D   4     -11.817 -35.270  13.700  1.00 37.22 LIG 0.01  C 
ENDBRANCH 33 34
ENDBRANCH 32 33
BRANCH 32 37
ATOM     37  N   LEU D   4      -8.654 -35.638  16.002  1.00 45.71 LIG-0.35  N 
ATOM     38 H    LEU D   4      -8.786 -35.364  16.807  1.00 45.71 LIG 0.16  HD
ATOM     39  C   ASP D   3      -8.306 -36.883  15.681  1.00 59.12 LIG 0.24  C 
ATOM     40 O    ASP D   3      -7.982 -37.224  14.539  1.00 63.71 LIG-0.27  OA
BRANCH 39 41
ATOM     41  CA  ASP D   3      -8.263 -37.904  16.813  1.00 63.74 LIG 0.19  C 
BRANCH 41 42
ATOM     42  N   ASP D   3      -8.134 -37.284  18.127  1.00 62.73 LIG-0.35  N 
ATOM     43 H    ASP D   3      -8.783 -37.454  18.666  1.00 62.73 LIG 0.16  HD
ATOM     44  C   GLY D   2      -7.091 -36.526  18.437  1.00 63.13 LIG 0.25  C 
ATOM     45 O    GLY D   2      -6.202 -36.240  17.631  1.00 65.69 LIG-0.27  OA
BRANCH 44 46
ATOM     46  CA  GLY D   2      -7.045 -36.007  19.858  1.00 64.97 LIG 0.47  C 
ATOM     47  N   GLY D   2      -7.992 -36.737  20.750  1.00 67.04 LIG 0.61  N 
ENDBRANCH 44 46
ENDBRANCH 41 42
BRANCH 41 48
ATOM     48  CB  ASP D   3      -9.499 -38.810  16.750  1.00 68.02 LIG 0.15  C 
BRANCH 48 49
ATOM     49  CG  ASP D   3     -10.420 -38.621  17.932  1.00 72.98 LIG 0.17  C 
ATOM     50 OD1  ASP D   3     -10.010 -38.938  19.069  1.00 76.93 LIG-0.65  OA
ATOM     51 OD2  ASP D   3     -11.565 -38.162  17.721  1.00 81.56 LIG-0.65  OA
ENDBRANCH 48 49
ENDBRANCH 41 48
ENDBRANCH 39 41
ENDBRANCH 32 37
ENDBRANCH 30 32
ENDBRANCH 1 28
TORSDOF 21
ENDMDL
MODEL 22
USER: ADFR SOLUTION from run 1
USER: SCORE 15.917009 LL:  -3.861 LR: -13.081 RR:   0.000 FEB:  -6.817
USER: RMSD 8.280814
USER: SEED 729378
USER: STATUS no improvement in best in 16 clusters for 5 generations
USER: GENES 23
USER: genes 0 Translation |==|  0.41568 0.74519 0.52439
USER: genes 1 Rotation |==|  0.14710 0.47667 0.53324 0.85187
USER: genes 2 Torsion [C]-CA--CB-[CG] |==|  0.72250
USER: genes 3 Torsion [CA]-CB--CG-[CD1] |==|  0.20842
USER: genes 4 Torsion [N]-CA--C-[N] |==|  0.06141
USER: genes 5 Torsion [C]-N--CA-[C] |==|  0.56763
USER: genes 6 Torsion [N]-CA--C-[N] |==|  0.45853
USER: genes 7 Torsion [C]-N--CA-[C] |==|  0.22279
USER: genes 8 Torsion [N]-CA--C-[O] |==|  0.12990
USER: genes 9 Torsion [N]-CA--CB-[CG] |==|  0.78148
USER: genes 10 Torsion [CA]-CB--CG-[CD1] |==|  0.27373
USER: genes 11 Torsion [N]-CA--CB-[CG] |==|  0.49498
USER: genes 12 Torsion [CA]-CB--CG-[ND2] |==|  0.13439
USER: genes 13 Torsion [CB]-CA--N-[C] |==|  0.18333
USER: genes 14 Torsion [N]-C--CA-[N] |==|  0.17388
USER: genes 15 Torsion [C]-CA--CB-[CG] |==|  0.26003
USER: genes 16 Torsion [CA]-CB--CG-[CD1] |==|  0.72877
USER: genes 17 Torsion [C]-CA--N-[C] |==|  0.78719
USER: genes 18 Torsion [N]-C--CA-[N] |==|  0.90441
USER: genes 19 Torsion [C]-CA--N-[C] |==|  0.67474
USER: genes 20 Torsion [N]-C--CA-[N] |==|  0.52842
USER: genes 21 Torsion [C]-CA--CB-[CG] |==|  0.20393
USER: genes 22 Torsion [CA]-CB--CG-[OD1] |==|  0.51528
ROOT
ATOM      1  CA  LEU D   5      -7.389 -31.697  16.806  1.00 45.78 LIG 0.18  C 
ENDROOT
BRANCH 1 2
ATOM      2  CB  LEU D   5      -8.400 -32.770  16.414  1.00 44.83 LIG 0.04  C 
BRANCH 2 3
ATOM      3  CG  LEU D   5      -7.874 -34.141  16.010  1.00 46.71 LIG-0.02  C 
ATOM      4  CD1 LEU D   5      -7.425 -34.885  17.258  1.00 43.35 LIG 0.01  C 
ATOM      5  CD2 LEU D   5      -8.934 -34.947  15.258  1.00 50.41 LIG 0.01  C 
ENDBRANCH 2 3
ENDBRANCH 1 2
BRANCH 1 6
ATOM      6  C   LEU D   5      -7.344 -31.643  18.324  1.00 49.70 LIG 0.24  C 
ATOM      7  N   ASN D   6      -6.142 -31.397  18.848  1.00 52.00 LIG-0.35  N 
ATOM      8 H    ASN D   6      -5.424 -31.350  18.376  1.00 52.00 LIG 0.16  HD
ATOM      9 O    LEU D   5      -8.386 -31.777  18.993  1.00 48.20 LIG-0.27  OA
BRANCH 7 10
ATOM     10  CA  ASN D   6      -5.919 -31.182  20.278  1.00 59.27 LIG 0.18  C 
BRANCH 10 11
ATOM     11  C   ASN D   6      -4.639 -30.358  20.462  1.00 60.71 LIG 0.24  C 
ATOM     12  N   LEU D   7      -4.451 -29.812  21.664  1.00 62.75 LIG-0.35  N 
ATOM     13 H    LEU D   7      -4.940 -29.990  22.348  1.00 62.75 LIG 0.16  HD
ATOM     14 O    ASN D   6      -3.841 -30.224  19.531  1.00 63.11 LIG-0.27  OA
BRANCH 12 15
ATOM     15  CA  LEU D   7      -3.378 -28.845  21.933  1.00 66.71 LIG 0.16  C 
BRANCH 15 16
ATOM     16  C   LEU D   7      -3.717 -27.422  21.477  1.00 66.58 LIG 0.22  C 
ATOM     17 O    LEU D   7      -4.803 -26.917  21.741  1.00 70.30 LIG-0.29  OA
ENDBRANCH 15 16
BRANCH 15 18
ATOM     18  CB  LEU D   7      -2.084 -29.326  21.263  1.00 67.13 LIG 0.04  C 
BRANCH 18 19
ATOM     19  CG  LEU D   7      -1.342 -30.434  22.025  1.00 64.50 LIG-0.02  C 
ATOM     20  CD1 LEU D   7      -1.662 -31.801  21.433  1.00 64.54 LIG 0.01  C 
ATOM     21  CD2 LEU D   7       0.164 -30.182  22.040  1.00 62.99 LIG 0.01  C 
ENDBRANCH 18 19
ENDBRANCH 15 18
ENDBRANCH 12 15
ENDBRANCH 10 11
BRANCH 10 22
ATOM     22  CB  ASN D   6      -5.820 -32.536  20.996  1.00 63.11 LIG 0.14  C 
BRANCH 22 23
ATOM     23  CG  ASN D   6      -5.544 -32.398  22.485  1.00 71.29 LIG 0.22  C 
ATOM     24  ND2 ASN D   6      -6.311 -31.532  23.149  1.00 72.89 LIG-0.37  N 
ATOM     25 21HD ASN D   6      -6.192 -31.412  23.992  1.00 72.89 LIG 0.16  HD
ATOM     26 22HD ASN D   6      -6.923 -31.093  22.734  1.00 72.89 LIG 0.16  HD
ATOM     27 OD1  ASN D   6      -4.649 -33.053  23.034  1.00 74.05 LIG-0.27  OA
ENDBRANCH 22 23
ENDBRANCH 10 22
ENDBRANCH 7 10
ENDBRANCH 1 6
BRANCH 1 28
ATOM     28  N   LEU D   5      -6.059 -31.985  16.242  1.00 43.46 LIG-0.35  N 
ATOM     29 H    LEU D   5      -5.459 -32.162  16.832  1.00 43.46 LIG 0.16  HD
ATOM     30  C   LEU D   4      -5.824 -31.969  14.934  1.00 41.34 LIG 0.24  C 
ATOM     31 O    LEU D   4      -6.668 -31.671  14.102  1.00 44.89 LIG-0.27  OA
BRANCH 30 32
ATOM     32  CA  LEU D   4      -4.466 -32.415  14.477  1.00 41.83 LIG 0.18  C 
BRANCH 32 33
ATOM     33  CB  LEU D   4      -4.347 -32.159  12.964  1.00 37.92 LIG 0.04  C 
BRANCH 33 34
ATOM     34  CG  LEU D   4      -3.718 -30.827  12.565  1.00 37.44 LIG-0.02  C 
ATOM     35  CD1 LEU D   4      -4.811 -29.822  12.250  1.00 34.88 LIG 0.01  C 
ATOM     36  CD2 LEU D   4      -2.815 -30.297  13.682  1.00 37.22 LIG 0.01  C 
ENDBRANCH 33 34
ENDBRANCH 32 33
BRANCH 32 37
ATOM     37  N   LEU D   4      -4.174 -33.814  14.802  1.00 45.71 LIG-0.35  N 
ATOM     38 H    LEU D   4      -4.234 -34.358  14.139  1.00 45.71 LIG 0.16  HD
ATOM     39  C   ASP D   3      -3.843 -34.176  16.041  1.00 59.12 LIG 0.24  C 
ATOM     40 O    ASP D   3      -3.900 -33.411  17.009  1.00 63.71 LIG-0.27  OA
BRANCH 39 41
ATOM     41  CA  ASP D   3      -3.427 -35.629  16.250  1.00 63.74 LIG 0.19  C 
BRANCH 41 42
ATOM     42  N   ASP D   3      -4.152 -36.552  15.386  1.00 62.73 LIG-0.35  N 
ATOM     43 H    ASP D   3      -4.017 -36.434  14.544  1.00 62.73 LIG 0.16  HD
ATOM     44  C   GLY D   2      -4.949 -37.489  15.884  1.00 63.13 LIG 0.25  C 
ATOM     45 O    GLY D   2      -5.182 -37.604  17.089  1.00 65.69 LIG-0.27  OA
BRANCH 44 46
ATOM     46  CA  GLY D   2      -5.580 -38.429  14.879  1.00 64.97 LIG 0.47  C 
ATOM     47  N   GLY D   2      -6.637 -39.280  15.499  1.00 67.04 LIG 0.61  N 
ENDBRANCH 44 46
ENDBRANCH 41 42
BRANCH 41 48
ATOM     48  CB  ASP D   3      -1.911 -35.773  16.063  1.00 68.02 LIG 0.15  C 
BRANCH 48 49
ATOM     49  CG  ASP D   3      -1.126 -35.199  17.217  1.00 72.98 LIG 0.17  C 
ATOM     50 OD1  ASP D   3       0.122 -35.162  17.135  1.00 76.93 LIG-0.65  OA
ATOM     51 OD2  ASP D   3      -1.758 -34.791  18.217  1.00 81.56 LIG-0.65  OA
ENDBRANCH 48 49
ENDBRANCH 41 48
ENDBRANCH 39 41
ENDBRANCH 32 37
ENDBRANCH 30 32
ENDBRANCH 1 28
TORSDOF 21
ENDMDL
MODEL 23
USER: ADFR SOLUTION from run 177
USER: SCORE 15.937856 LL:  -4.115 LR: -13.055 RR:   0.000 FEB:  -6.791
USER: RMSD 6.027018
USER: SEED 176
USER: STATUS no improvement in best in 17 clusters for 5 generations
USER: GENES 23
USER: genes 0 Translation |==|  0.41285 0.71388 0.51397
USER: genes 1 Rotation |==|  0.13380 0.44381 0.55850 0.83064
USER: genes 2 Torsion [C]-CA--CB-[CG] |==|  0.28133
USER: genes 3 Torsion [CA]-CB--CG-[CD1] |==|  0.85345
USER: genes 4 Torsion [N]-CA--C-[N] |==|  0.91479
USER: genes 5 Torsion [C]-N--CA-[C] |==|  0.16446
USER: genes 6 Torsion [N]-CA--C-[N] |==|  0.08292
USER: genes 7 Torsion [C]-N--CA-[C] |==|  0.50282
USER: genes 8 Torsion [N]-CA--C-[O] |==|  0.98309
USER: genes 9 Torsion [N]-CA--CB-[CG] |==|  0.62269
USER: genes 10 Torsion [CA]-CB--CG-[CD1] |==|  0.33292
USER: genes 11 Torsion [N]-CA--CB-[CG] |==|  0.73248
USER: genes 12 Torsion [CA]-CB--CG-[ND2] |==|  0.66120
USER: genes 13 Torsion [CB]-CA--N-[C] |==|  0.19230
USER: genes 14 Torsion [N]-C--CA-[N] |==|  0.18546
USER: genes 15 Torsion [C]-CA--CB-[CG] |==|  0.26951
USER: genes 16 Torsion [CA]-CB--CG-[CD1] |==|  0.73116
USER: genes 17 Torsion [C]-CA--N-[C] |==|  0.77222
USER: genes 18 Torsion [N]-C--CA-[N] |==|  0.90388
USER: genes 19 Torsion [C]-CA--N-[C] |==|  0.79223
USER: genes 20 Torsion [N]-C--CA-[N] |==|  0.37991
USER: genes 21 Torsion [C]-CA--CB-[CG] |==|  0.21633
USER: genes 22 Torsion [CA]-CB--CG-[OD1] |==|  0.99214
ROOT
ATOM      1  CA  LEU D   5      -7.450 -32.331  16.626  1.00 45.78 LIG 0.18  C 
ENDROOT
BRANCH 1 2
ATOM      2  CB  LEU D   5      -8.256 -33.590  16.317  1.00 44.83 LIG 0.04  C 
BRANCH 2 3
ATOM      3  CG  LEU D   5      -9.681 -33.424  15.806  1.00 46.71 LIG-0.02  C 
ATOM      4  CD1 LEU D   5     -10.446 -32.521  16.760  1.00 43.35 LIG 0.01  C 
ATOM      5  CD2 LEU D   5      -9.702 -32.848  14.390  1.00 50.41 LIG 0.01  C 
ENDBRANCH 2 3
ENDBRANCH 1 2
BRANCH 1 6
ATOM      6  C   LEU D   5      -7.470 -32.133  18.133  1.00 49.70 LIG 0.24  C 
ATOM      7  N   ASN D   6      -6.459 -32.701  18.793  1.00 52.00 LIG-0.35  N 
ATOM      8 H    ASN D   6      -5.879 -33.210  18.416  1.00 52.00 LIG 0.16  HD
ATOM      9 O    LEU D   5      -8.358 -31.443  18.669  1.00 48.20 LIG-0.27  OA
BRANCH 7 10
ATOM     10  CA  ASN D   6      -6.234 -32.518  20.228  1.00 59.27 LIG 0.18  C 
BRANCH 10 11
ATOM     11  C   ASN D   6      -7.470 -33.009  20.991  1.00 60.71 LIG 0.24  C 
ATOM     12  N   LEU D   7      -8.166 -33.994  20.424  1.00 62.75 LIG-0.35  N 
ATOM     13 H    LEU D   7      -7.897 -34.427  19.731  1.00 62.75 LIG 0.16  HD
ATOM     14 O    ASN D   6      -7.780 -32.503  22.072  1.00 63.11 LIG-0.27  OA
BRANCH 12 15
ATOM     15  CA  LEU D   7      -9.470 -34.435  20.935  1.00 66.71 LIG 0.16  C 
BRANCH 15 16
ATOM     16  C   LEU D   7     -10.073 -35.597  20.138  1.00 66.58 LIG 0.22  C 
ATOM     17 O    LEU D   7      -9.536 -36.002  19.113  1.00 70.30 LIG-0.29  OA
ENDBRANCH 15 16
BRANCH 15 18
ATOM     18  CB  LEU D   7     -10.437 -33.242  20.951  1.00 67.13 LIG 0.04  C 
BRANCH 18 19
ATOM     19  CG  LEU D   7     -11.280 -33.118  22.229  1.00 64.50 LIG-0.02  C 
ATOM     20  CD1 LEU D   7     -11.009 -31.789  22.925  1.00 64.54 LIG 0.01  C 
ATOM     21  CD2 LEU D   7     -12.767 -33.287  21.929  1.00 62.99 LIG 0.01  C 
ENDBRANCH 18 19
ENDBRANCH 15 18
ENDBRANCH 12 15
ENDBRANCH 10 11
BRANCH 10 22
ATOM     22  CB  ASN D   6      -5.947 -31.037  20.521  1.00 63.11 LIG 0.14  C 
BRANCH 22 23
ATOM     23  CG  ASN D   6      -4.462 -30.726  20.599  1.00 71.29 LIG 0.22  C 
ATOM     24  ND2 ASN D   6      -4.029 -30.193  21.743  1.00 72.89 LIG-0.37  N 
ATOM     25 21HD ASN D   6      -3.199 -29.993  21.837  1.00 72.89 LIG 0.16  HD
ATOM     26 22HD ASN D   6      -4.582 -30.048  22.386  1.00 72.89 LIG 0.16  HD
ATOM     27 OD1  ASN D   6      -3.708 -30.954  19.644  1.00 74.05 LIG-0.27  OA
ENDBRANCH 22 23
ENDBRANCH 10 22
ENDBRANCH 7 10
ENDBRANCH 1 6
BRANCH 1 28
ATOM     28  N   LEU D   5      -6.072 -32.442  16.120  1.00 43.46 LIG-0.35  N 
ATOM     29 H    LEU D   5      -5.476 -32.506  16.737  1.00 43.46 LIG 0.16  HD
ATOM     30  C   LEU D   4      -5.790 -32.442  14.821  1.00 41.34 LIG 0.24  C 
ATOM     31 O    LEU D   4      -6.635 -32.304  13.949  1.00 44.89 LIG-0.27  OA
BRANCH 30 32
ATOM     32  CA  LEU D   4      -4.365 -32.701  14.430  1.00 41.83 LIG 0.18  C 
BRANCH 32 33
ATOM     33  CB  LEU D   4      -4.200 -32.387  12.932  1.00 37.92 LIG 0.04  C 
BRANCH 33 34
ATOM     34  CG  LEU D   4      -3.648 -31.004  12.601  1.00 37.44 LIG-0.02  C 
ATOM     35  CD1 LEU D   4      -4.795 -30.059  12.290  1.00 34.88 LIG 0.01  C 
ATOM     36  CD2 LEU D   4      -2.813 -30.461  13.763  1.00 37.22 LIG 0.01  C 
ENDBRANCH 33 34
ENDBRANCH 32 33
BRANCH 32 37
ATOM     37  N   LEU D   4      -3.915 -34.061  14.739  1.00 45.71 LIG-0.35  N 
ATOM     38 H    LEU D   4      -3.941 -34.608  14.075  1.00 45.71 LIG 0.16  HD
ATOM     39  C   ASP D   3      -3.505 -34.387  15.963  1.00 59.12 LIG 0.24  C 
ATOM     40 O    ASP D   3      -3.608 -33.633  16.937  1.00 63.71 LIG-0.27  OA
BRANCH 39 41
ATOM     41  CA  ASP D   3      -2.930 -35.788  16.152  1.00 63.74 LIG 0.19  C 
BRANCH 41 42
ATOM     42  N   ASP D   3      -3.587 -36.783  15.313  1.00 62.73 LIG-0.35  N 
ATOM     43 H    ASP D   3      -3.122 -37.040  14.635  1.00 62.73 LIG 0.16  HD
ATOM     44  C   GLY D   2      -4.801 -37.237  15.595  1.00 63.13 LIG 0.25  C 
ATOM     45 O    GLY D   2      -5.479 -36.811  16.533  1.00 65.69 LIG-0.27  OA
BRANCH 44 46
ATOM     46  CA  GLY D   2      -5.333 -38.324  14.685  1.00 64.97 LIG 0.47  C 
ATOM     47  N   GLY D   2      -6.005 -39.413  15.452  1.00 67.04 LIG 0.61  N 
ENDBRANCH 44 46
ENDBRANCH 41 42
BRANCH 41 48
ATOM     48  CB  ASP D   3      -1.416 -35.772  15.907  1.00 68.02 LIG 0.15  C 
BRANCH 48 49
ATOM     49  CG  ASP D   3      -0.643 -35.215  17.078  1.00 72.98 LIG 0.17  C 
ATOM     50 OD1  ASP D   3      -1.278 -34.787  18.067  1.00 76.93 LIG-0.65  OA
ATOM     51 OD2  ASP D   3       0.606 -35.195  17.006  1.00 81.56 LIG-0.65  OA
ENDBRANCH 48 49
ENDBRANCH 41 48
ENDBRANCH 39 41
ENDBRANCH 32 37
ENDBRANCH 30 32
ENDBRANCH 1 28
TORSDOF 21
ENDMDL
MODEL 24
USER: ADFR SOLUTION from run 8
USER: SCORE 15.694103 LL:  -4.015 LR: -13.048 RR:   0.000 FEB:  -6.783
USER: RMSD 9.642196
USER: SEED 496220
USER: STATUS no improvement in best in 9 clusters for 5 generations
USER: GENES 23
USER: genes 0 Translation |==|  0.49262 0.70579 0.44210
USER: genes 1 Rotation |==|  0.36647 0.67628 0.09472 0.69193
USER: genes 2 Torsion [C]-CA--CB-[CG] |==|  0.35182
USER: genes 3 Torsion [CA]-CB--CG-[CD1] |==|  0.41633
USER: genes 4 Torsion [N]-CA--C-[N] |==|  0.33068
USER: genes 5 Torsion [C]-N--CA-[C] |==|  0.62302
USER: genes 6 Torsion [N]-CA--C-[N] |==|  0.55556
USER: genes 7 Torsion [C]-N--CA-[C] |==|  0.21103
USER: genes 8 Torsion [N]-CA--C-[O] |==|  0.20104
USER: genes 9 Torsion [N]-CA--CB-[CG] |==|  0.81837
USER: genes 10 Torsion [CA]-CB--CG-[CD1] |==|  0.53334
USER: genes 11 Torsion [N]-CA--CB-[CG] |==|  0.70728
USER: genes 12 Torsion [CA]-CB--CG-[ND2] |==|  0.11220
USER: genes 13 Torsion [CB]-CA--N-[C] |==|  0.82567
USER: genes 14 Torsion [N]-C--CA-[N] |==|  0.19769
USER: genes 15 Torsion [C]-CA--CB-[CG] |==|  0.49744
USER: genes 16 Torsion [CA]-CB--CG-[CD1] |==|  0.89762
USER: genes 17 Torsion [C]-CA--N-[C] |==|  0.70341
USER: genes 18 Torsion [N]-C--CA-[N] |==|  0.90287
USER: genes 19 Torsion [C]-CA--N-[C] |==|  0.84698
USER: genes 20 Torsion [N]-C--CA-[N] |==|  0.81434
USER: genes 21 Torsion [C]-CA--CB-[CG] |==|  0.55178
USER: genes 22 Torsion [CA]-CB--CG-[OD1] |==|  0.68024
ROOT
ATOM      1  CA  LEU D   5      -5.715 -32.495  15.386  1.00 45.78 LIG 0.18  C 
ENDROOT
BRANCH 1 2
ATOM      2  CB  LEU D   5      -5.511 -31.421  14.322  1.00 44.83 LIG 0.04  C 
BRANCH 2 3
ATOM      3  CG  LEU D   5      -4.119 -31.255  13.726  1.00 46.71 LIG-0.02  C 
ATOM      4  CD1 LEU D   5      -4.251 -30.760  12.295  1.00 43.35 LIG 0.01  C 
ATOM      5  CD2 LEU D   5      -3.271 -30.287  14.552  1.00 50.41 LIG 0.01  C 
ENDBRANCH 2 3
ENDBRANCH 1 2
BRANCH 1 6
ATOM      6  C   LEU D   5      -6.349 -31.826  16.595  1.00 49.70 LIG 0.24  C 
ATOM      7  N   ASN D   6      -5.629 -31.883  17.718  1.00 52.00 LIG-0.35  N 
ATOM      8 H    ASN D   6      -4.898 -32.331  17.785  1.00 52.00 LIG 0.16  HD
ATOM      9 O    LEU D   5      -7.440 -31.235  16.492  1.00 48.20 LIG-0.27  OA
BRANCH 7 10
ATOM     10  CA  ASN D   6      -6.008 -31.191  18.950  1.00 59.27 LIG 0.18  C 
BRANCH 10 11
ATOM     11  C   ASN D   6      -4.765 -30.518  19.544  1.00 60.71 LIG 0.24  C 
ATOM     12  N   LEU D   7      -4.821 -30.203  20.838  1.00 62.75 LIG-0.35  N 
ATOM     13 H    LEU D   7      -5.455 -30.455  21.361  1.00 62.75 LIG 0.16  HD
ATOM     14 O    ASN D   6      -3.778 -30.292  18.839  1.00 63.11 LIG-0.27  OA
BRANCH 12 15
ATOM     15  CA  LEU D   7      -3.793 -29.387  21.496  1.00 66.71 LIG 0.16  C 
BRANCH 15 16
ATOM     16  C   LEU D   7      -3.901 -27.894  21.168  1.00 66.58 LIG 0.22  C 
ATOM     17 O    LEU D   7      -4.805 -27.210  21.635  1.00 70.30 LIG-0.29  OA
ENDBRANCH 15 16
BRANCH 15 18
ATOM     18  CB  LEU D   7      -2.404 -29.918  21.115  1.00 67.13 LIG 0.04  C 
BRANCH 18 19
ATOM     19  CG  LEU D   7      -2.095 -31.331  21.630  1.00 64.50 LIG-0.02  C 
ATOM     20  CD1 LEU D   7      -0.615 -31.653  21.463  1.00 64.54 LIG 0.01  C 
ATOM     21  CD2 LEU D   7      -2.531 -31.498  23.083  1.00 62.99 LIG 0.01  C 
ENDBRANCH 18 19
ENDBRANCH 15 18
ENDBRANCH 12 15
ENDBRANCH 10 11
BRANCH 10 22
ATOM     22  CB  ASN D   6      -6.627 -32.193  19.937  1.00 63.11 LIG 0.14  C 
BRANCH 22 23
ATOM     23  CG  ASN D   6      -8.137 -32.058  20.048  1.00 71.29 LIG 0.22  C 
ATOM     24  ND2 ASN D   6      -8.795 -31.839  18.909  1.00 72.89 LIG-0.37  N 
ATOM     25 21HD ASN D   6      -9.650 -31.749  18.917  1.00 72.89 LIG 0.16  HD
ATOM     26 22HD ASN D   6      -8.364 -31.786  18.166  1.00 72.89 LIG 0.16  HD
ATOM     27 OD1  ASN D   6      -8.709 -32.142  21.143  1.00 74.05 LIG-0.27  OA
ENDBRANCH 22 23
ENDBRANCH 10 22
ENDBRANCH 7 10
ENDBRANCH 1 6
BRANCH 1 28
ATOM     28  N   LEU D   5      -6.557 -33.593  14.882  1.00 43.46 LIG-0.35  N 
ATOM     29 H    LEU D   5      -6.159 -34.355  14.853  1.00 43.46 LIG 0.16  HD
ATOM     30  C   LEU D   4      -7.819 -33.408  14.510  1.00 41.34 LIG 0.24  C 
ATOM     31 O    LEU D   4      -8.366 -32.315  14.508  1.00 44.89 LIG-0.27  OA
BRANCH 30 32
ATOM     32  CA  LEU D   4      -8.613 -34.629  14.148  1.00 41.83 LIG 0.18  C 
BRANCH 32 33
ATOM     33  CB  LEU D   4      -9.879 -34.187  13.392  1.00 37.92 LIG 0.04  C 
BRANCH 33 34
ATOM     34  CG  LEU D   4     -10.799 -35.311  12.925  1.00 37.44 LIG-0.02  C 
ATOM     35  CD1 LEU D   4      -9.965 -36.500  12.482  1.00 34.88 LIG 0.01  C 
ATOM     36  CD2 LEU D   4     -11.761 -35.723  14.041  1.00 37.22 LIG 0.01  C 
ENDBRANCH 33 34
ENDBRANCH 32 33
BRANCH 32 37
ATOM     37  N   LEU D   4      -8.950 -35.467  15.301  1.00 45.71 LIG-0.35  N 
ATOM     38 H    LEU D   4      -9.560 -35.144  15.815  1.00 45.71 LIG 0.16  HD
ATOM     39  C   ASP D   3      -8.338 -36.632  15.506  1.00 59.12 LIG 0.24  C 
ATOM     40 O    ASP D   3      -7.367 -37.014  14.843  1.00 63.71 LIG-0.27  OA
BRANCH 39 41
ATOM     41  CA  ASP D   3      -8.851 -37.492  16.656  1.00 63.74 LIG 0.19  C 
BRANCH 41 42
ATOM     42  N   ASP D   3      -9.302 -36.700  17.794  1.00 62.73 LIG-0.35  N 
ATOM     43 H    ASP D   3     -10.109 -36.862  18.043  1.00 62.73 LIG 0.16  HD
ATOM     44  C   GLY D   2      -8.510 -35.809  18.377  1.00 63.13 LIG 0.25  C 
ATOM     45 O    GLY D   2      -7.378 -35.543  17.967  1.00 65.69 LIG-0.27  OA
BRANCH 44 46
ATOM     46  CA  GLY D   2      -9.077 -35.111  19.595  1.00 64.97 LIG 0.47  C 
ATOM     47  N   GLY D   2     -10.225 -34.225  19.246  1.00 67.04 LIG 0.61  N 
ENDBRANCH 44 46
ENDBRANCH 41 42
BRANCH 41 48
ATOM     48  CB  ASP D   3      -9.962 -38.425  16.159  1.00 68.02 LIG 0.15  C 
BRANCH 48 49
ATOM     49  CG  ASP D   3     -10.812 -38.968  17.283  1.00 72.98 LIG 0.17  C 
ATOM     50 OD1  ASP D   3     -10.793 -40.197  17.510  1.00 76.93 LIG-0.65  OA
ATOM     51 OD2  ASP D   3     -11.511 -38.162  17.937  1.00 81.56 LIG-0.65  OA
ENDBRANCH 48 49
ENDBRANCH 41 48
ENDBRANCH 39 41
ENDBRANCH 32 37
ENDBRANCH 30 32
ENDBRANCH 1 28
TORSDOF 21
ENDMDL
MODEL 25
USER: ADFR SOLUTION from run 140
USER: SCORE 16.999996 LL:  -5.038 LR: -13.015 RR:   0.000 FEB:  -6.751
USER: RMSD 7.989348
USER: SEED 139
USER: STATUS searching
USER: GENES 23
USER: genes 0 Translation |==|  0.38523 0.73898 0.51131
USER: genes 1 Rotation |==|  0.17284 0.79677 0.59451 0.71438
USER: genes 2 Torsion [C]-CA--CB-[CG] |==|  0.84946
USER: genes 3 Torsion [CA]-CB--CG-[CD1] |==|  0.35101
USER: genes 4 Torsion [N]-CA--C-[N] |==|  0.03017
USER: genes 5 Torsion [C]-N--CA-[C] |==|  0.67661
USER: genes 6 Torsion [N]-CA--C-[N] |==|  0.86135
USER: genes 7 Torsion [C]-N--CA-[C] |==|  0.20022
USER: genes 8 Torsion [N]-CA--C-[O] |==|  0.07463
USER: genes 9 Torsion [N]-CA--CB-[CG] |==|  0.77934
USER: genes 10 Torsion [CA]-CB--CG-[CD1] |==|  0.02757
USER: genes 11 Torsion [N]-CA--CB-[CG] |==|  0.08196
USER: genes 12 Torsion [CA]-CB--CG-[ND2] |==|  0.19657
USER: genes 13 Torsion [CB]-CA--N-[C] |==|  0.17803
USER: genes 14 Torsion [N]-C--CA-[N] |==|  0.17874
USER: genes 15 Torsion [C]-CA--CB-[CG] |==|  0.51140
USER: genes 16 Torsion [CA]-CB--CG-[CD1] |==|  0.90896
USER: genes 17 Torsion [C]-CA--N-[C] |==|  0.76667
USER: genes 18 Torsion [N]-C--CA-[N] |==|  0.45122
USER: genes 19 Torsion [C]-CA--N-[C] |==|  0.81956
USER: genes 20 Torsion [N]-C--CA-[N] |==|  0.60404
USER: genes 21 Torsion [C]-CA--CB-[CG] |==|  0.38605
USER: genes 22 Torsion [CA]-CB--CG-[OD1] |==|  0.90444
ROOT
ATOM      1  CA  LEU D   5      -8.051 -31.823  16.580  1.00 45.78 LIG 0.18  C 
ENDROOT
BRANCH 1 2
ATOM      2  CB  LEU D   5      -8.944 -31.786  17.816  1.00 44.83 LIG 0.04  C 
BRANCH 2 3
ATOM      3  CG  LEU D   5      -8.788 -32.893  18.850  1.00 46.71 LIG-0.02  C 
ATOM      4  CD1 LEU D   5      -8.555 -32.265  20.215  1.00 43.35 LIG 0.01  C 
ATOM      5  CD2 LEU D   5     -10.015 -33.804  18.882  1.00 50.41 LIG 0.01  C 
ENDBRANCH 2 3
ENDBRANCH 1 2
BRANCH 1 6
ATOM      6  C   LEU D   5      -6.611 -31.903  17.059  1.00 49.70 LIG 0.24  C 
ATOM      7  N   ASN D   6      -5.861 -32.824  16.450  1.00 52.00 LIG-0.35  N 
ATOM      8 H    ASN D   6      -6.178 -33.389  15.884  1.00 52.00 LIG 0.16  HD
ATOM      9 O    LEU D   5      -6.188 -31.116  17.926  1.00 48.20 LIG-0.27  OA
BRANCH 7 10
ATOM     10  CA  ASN D   6      -4.423 -32.968  16.680  1.00 59.27 LIG 0.18  C 
BRANCH 10 11
ATOM     11  C   ASN D   6      -3.678 -32.673  15.373  1.00 60.71 LIG 0.24  C 
ATOM     12  N   LEU D   7      -4.112 -33.311  14.285  1.00 62.75 LIG-0.35  N 
ATOM     13 H    LEU D   7      -4.836 -33.774  14.264  1.00 62.75 LIG 0.16  HD
ATOM     14 O    ASN D   6      -2.732 -31.883  15.355  1.00 63.11 LIG-0.27  OA
BRANCH 12 15
ATOM     15  CA  LEU D   7      -3.385 -33.279  13.009  1.00 66.71 LIG 0.16  C 
BRANCH 15 16
ATOM     16  C   LEU D   7      -2.094 -34.105  13.027  1.00 66.58 LIG 0.22  C 
ATOM     17 O    LEU D   7      -1.971 -35.066  13.779  1.00 70.30 LIG-0.29  OA
ENDBRANCH 15 16
BRANCH 15 18
ATOM     18  CB  LEU D   7      -3.082 -31.822  12.636  1.00 67.13 LIG 0.04  C 
BRANCH 18 19
ATOM     19  CG  LEU D   7      -4.263 -31.060  12.017  1.00 64.50 LIG-0.02  C 
ATOM     20  CD1 LEU D   7      -5.549 -31.869  12.141  1.00 64.54 LIG 0.01  C 
ATOM     21  CD2 LEU D   7      -4.421 -29.679  12.647  1.00 62.99 LIG 0.01  C 
ENDBRANCH 18 19
ENDBRANCH 15 18
ENDBRANCH 12 15
ENDBRANCH 10 11
BRANCH 10 22
ATOM     22  CB  ASN D   6      -4.120 -34.386  17.189  1.00 63.11 LIG 0.14  C 
BRANCH 22 23
ATOM     23  CG  ASN D   6      -5.106 -35.422  16.675  1.00 71.29 LIG 0.22  C 
ATOM     24  ND2 ASN D   6      -5.022 -35.724  15.378  1.00 72.89 LIG-0.37  N 
ATOM     25 21HD ASN D   6      -5.561 -36.300  15.036  1.00 72.89 LIG 0.16  HD
ATOM     26 22HD ASN D   6      -4.430 -35.343  14.885  1.00 72.89 LIG 0.16  HD
ATOM     27 OD1  ASN D   6      -5.941 -35.941  17.428  1.00 74.05 LIG-0.27  OA
ENDBRANCH 22 23
ENDBRANCH 10 22
ENDBRANCH 7 10
ENDBRANCH 1 6
BRANCH 1 28
ATOM     28  N   LEU D   5      -8.390 -32.962  15.711  1.00 43.46 LIG-0.35  N 
ATOM     29 H    LEU D   5      -7.760 -33.543  15.632  1.00 43.46 LIG 0.16  HD
ATOM     30  C   LEU D   4      -9.569 -33.070  15.108  1.00 41.34 LIG 0.24  C 
ATOM     31 O    LEU D   4     -10.444 -32.221  15.185  1.00 44.89 LIG-0.27  OA
BRANCH 30 32
ATOM     32  CA  LEU D   4      -9.844 -34.343  14.363  1.00 41.83 LIG 0.18  C 
BRANCH 32 33
ATOM     33  CB  LEU D   4     -11.154 -34.178  13.571  1.00 37.92 LIG 0.04  C 
BRANCH 33 34
ATOM     34  CG  LEU D   4     -11.640 -35.418  12.827  1.00 37.44 LIG-0.02  C 
ATOM     35  CD1 LEU D   4     -10.446 -36.231  12.359  1.00 34.88 LIG 0.01  C 
ATOM     36  CD2 LEU D   4     -12.544 -36.269  13.722  1.00 37.22 LIG 0.01  C 
ENDBRANCH 33 34
ENDBRANCH 32 33
BRANCH 32 37
ATOM     37  N   LEU D   4      -9.894 -35.525  15.229  1.00 45.71 LIG-0.35  N 
ATOM     38 H    LEU D   4     -10.684 -35.756  15.477  1.00 45.71 LIG 0.16  HD
ATOM     39  C   ASP D   3      -8.780 -36.164  15.582  1.00 59.12 LIG 0.24  C 
ATOM     40 O    ASP D   3      -7.646 -35.738  15.338  1.00 63.71 LIG-0.27  OA
BRANCH 39 41
ATOM     41  CA  ASP D   3      -8.945 -37.458  16.373  1.00 63.74 LIG 0.19  C 
BRANCH 41 42
ATOM     42  N   ASP D   3      -7.743 -38.282  16.361  1.00 62.73 LIG-0.35  N 
ATOM     43 H    ASP D   3      -7.371 -38.382  17.131  1.00 62.73 LIG 0.16  HD
ATOM     44  C   GLY D   2      -7.282 -38.822  15.240  1.00 63.13 LIG 0.25  C 
ATOM     45 O    GLY D   2      -7.790 -38.616  14.135  1.00 65.69 LIG-0.27  OA
BRANCH 44 46
ATOM     46  CA  GLY D   2      -6.070 -39.718  15.382  1.00 64.97 LIG 0.47  C 
ATOM     47  N   GLY D   2      -5.125 -39.563  14.238  1.00 67.04 LIG 0.61  N 
ENDBRANCH 44 46
ENDBRANCH 41 42
BRANCH 41 48
ATOM     48  CB  ASP D   3      -9.384 -37.144  17.809  1.00 68.02 LIG 0.15  C 
BRANCH 48 49
ATOM     49  CG  ASP D   3     -10.438 -38.098  18.317  1.00 72.98 LIG 0.17  C 
ATOM     50 OD1  ASP D   3     -11.284 -38.543  17.510  1.00 76.93 LIG-0.65  OA
ATOM     51 OD2  ASP D   3     -10.428 -38.398  19.532  1.00 81.56 LIG-0.65  OA
ENDBRANCH 48 49
ENDBRANCH 41 48
ENDBRANCH 39 41
ENDBRANCH 32 37
ENDBRANCH 30 32
ENDBRANCH 1 28
TORSDOF 21
ENDMDL
MODEL 26
USER: ADFR SOLUTION from run 177
USER: SCORE 16.343474 LL:  -4.420 LR: -12.994 RR:   0.000 FEB:  -6.730
USER: RMSD 6.823696
USER: SEED 176
USER: STATUS no improvement in best in 17 clusters for 5 generations
USER: GENES 23
USER: genes 0 Translation |==|  0.39228 0.72530 0.46551
USER: genes 1 Rotation |==|  0.10083 0.40304 0.57817 0.77414
USER: genes 2 Torsion [C]-CA--CB-[CG] |==|  0.23922
USER: genes 3 Torsion [CA]-CB--CG-[CD1] |==|  0.07102
USER: genes 4 Torsion [N]-CA--C-[N] |==|  0.67131
USER: genes 5 Torsion [C]-N--CA-[C] |==|  0.81609
USER: genes 6 Torsion [N]-CA--C-[N] |==|  0.95927
USER: genes 7 Torsion [C]-N--CA-[C] |==|  0.17084
USER: genes 8 Torsion [N]-CA--C-[O] |==|  0.97185
USER: genes 9 Torsion [N]-CA--CB-[CG] |==|  0.77600
USER: genes 10 Torsion [CA]-CB--CG-[CD1] |==|  0.04825
USER: genes 11 Torsion [N]-CA--CB-[CG] |==|  0.57570
USER: genes 12 Torsion [CA]-CB--CG-[ND2] |==|  0.99393
USER: genes 13 Torsion [CB]-CA--N-[C] |==|  0.16111
USER: genes 14 Torsion [N]-C--CA-[N] |==|  0.26827
USER: genes 15 Torsion [C]-CA--CB-[CG] |==|  0.29093
USER: genes 16 Torsion [CA]-CB--CG-[CD1] |==|  0.74493
USER: genes 17 Torsion [C]-CA--N-[C] |==|  0.59331
USER: genes 18 Torsion [N]-C--CA-[N] |==|  0.38739
USER: genes 19 Torsion [C]-CA--N-[C] |==|  0.81860
USER: genes 20 Torsion [N]-C--CA-[N] |==|  0.89824
USER: genes 21 Torsion [C]-CA--CB-[CG] |==|  0.80978
USER: genes 22 Torsion [CA]-CB--CG-[OD1] |==|  0.33331
ROOT
ATOM      1  CA  LEU D   5      -7.898 -32.100  15.790  1.00 45.78 LIG 0.18  C 
ENDROOT
BRANCH 1 2
ATOM      2  CB  LEU D   5      -8.438 -33.526  15.749  1.00 44.83 LIG 0.04  C 
BRANCH 2 3
ATOM      3  CG  LEU D   5      -9.919 -33.726  15.451  1.00 46.71 LIG-0.02  C 
ATOM      4  CD1 LEU D   5     -10.426 -32.537  14.651  1.00 43.35 LIG 0.01  C 
ATOM      5  CD2 LEU D   5     -10.163 -35.029  14.689  1.00 50.41 LIG 0.01  C 
ENDBRANCH 2 3
ENDBRANCH 1 2
BRANCH 1 6
ATOM      6  C   LEU D   5      -8.120 -31.567  17.196  1.00 49.70 LIG 0.24  C 
ATOM      7  N   ASN D   6      -8.635 -32.443  18.060  1.00 52.00 LIG-0.35  N 
ATOM      8 H    ASN D   6      -8.900 -33.228  17.832  1.00 52.00 LIG 0.16  HD
ATOM      9 O    LEU D   5      -7.787 -30.404  17.492  1.00 48.20 LIG-0.27  OA
BRANCH 7 10
ATOM     10  CA  ASN D   6      -8.803 -32.159  19.487  1.00 59.27 LIG 0.18  C 
BRANCH 10 11
ATOM     11  C   ASN D   6      -7.419 -32.009  20.129  1.00 60.71 LIG 0.24  C 
ATOM     12  N   LEU D   7      -6.382 -32.444  19.414  1.00 62.75 LIG-0.35  N 
ATOM     13 H    LEU D   7      -6.442 -32.691  18.592  1.00 62.75 LIG 0.16  HD
ATOM     14 O    ASN D   6      -7.300 -31.507  21.249  1.00 63.11 LIG-0.27  OA
BRANCH 12 15
ATOM     15  CA  LEU D   7      -5.026 -32.544  19.970  1.00 66.71 LIG 0.16  C 
BRANCH 15 16
ATOM     16  C   LEU D   7      -4.926 -33.512  21.154  1.00 66.58 LIG 0.22  C 
ATOM     17 O    LEU D   7      -5.934 -33.977  21.674  1.00 70.30 LIG-0.29  OA
ENDBRANCH 15 16
BRANCH 15 18
ATOM     18  CB  LEU D   7      -4.545 -31.146  20.382  1.00 67.13 LIG 0.04  C 
BRANCH 18 19
ATOM     19  CG  LEU D   7      -4.011 -30.286  19.227  1.00 64.50 LIG-0.02  C 
ATOM     20  CD1 LEU D   7      -4.469 -30.845  17.885  1.00 64.54 LIG 0.01  C 
ATOM     21  CD2 LEU D   7      -4.430 -28.826  19.385  1.00 62.99 LIG 0.01  C 
ENDBRANCH 18 19
ENDBRANCH 15 18
ENDBRANCH 12 15
ENDBRANCH 10 11
BRANCH 10 22
ATOM     22  CB  ASN D   6      -9.607 -33.290  20.148  1.00 63.11 LIG 0.14  C 
BRANCH 22 23
ATOM     23  CG  ASN D   6     -10.380 -32.827  21.372  1.00 71.29 LIG 0.22  C 
ATOM     24  ND2 ASN D   6     -10.222 -31.550  21.722  1.00 72.89 LIG-0.37  N 
ATOM     25 21HD ASN D   6     -10.632 -31.239  22.411  1.00 72.89 LIG 0.16  HD
ATOM     26 22HD ASN D   6      -9.709 -31.037  21.259  1.00 72.89 LIG 0.16  HD
ATOM     27 OD1  ASN D   6     -11.105 -33.606  22.004  1.00 74.05 LIG-0.27  OA
ENDBRANCH 22 23
ENDBRANCH 10 22
ENDBRANCH 7 10
ENDBRANCH 1 6
BRANCH 1 28
ATOM     28  N   LEU D   5      -6.473 -32.058  15.422  1.00 43.46 LIG-0.35  N 
ATOM     29 H    LEU D   5      -5.964 -31.718  16.026  1.00 43.46 LIG 0.16  HD
ATOM     30  C   LEU D   4      -6.027 -32.511  14.255  1.00 41.34 LIG 0.24  C 
ATOM     31 O    LEU D   4      -6.758 -32.952  13.380  1.00 44.89 LIG-0.27  OA
BRANCH 30 32
ATOM     32  CA  LEU D   4      -4.540 -32.543  14.054  1.00 41.83 LIG 0.18  C 
BRANCH 32 33
ATOM     33  CB  LEU D   4      -4.226 -32.081  12.620  1.00 37.92 LIG 0.04  C 
BRANCH 33 34
ATOM     34  CG  LEU D   4      -3.666 -30.668  12.486  1.00 37.44 LIG-0.02  C 
ATOM     35  CD1 LEU D   4      -4.805 -29.687  12.271  1.00 34.88 LIG 0.01  C 
ATOM     36  CD2 LEU D   4      -2.861 -30.283  13.729  1.00 37.22 LIG 0.01  C 
ENDBRANCH 33 34
ENDBRANCH 32 33
BRANCH 32 37
ATOM     37  N   LEU D   4      -3.943 -33.852  14.333  1.00 45.71 LIG-0.35  N 
ATOM     38 H    LEU D   4      -4.443 -34.524  14.135  1.00 45.71 LIG 0.16  HD
ATOM     39  C   ASP D   3      -2.720 -33.953  14.850  1.00 59.12 LIG 0.24  C 
ATOM     40 O    ASP D   3      -2.074 -32.982  15.259  1.00 63.71 LIG-0.27  OA
BRANCH 39 41
ATOM     41  CA  ASP D   3      -2.136 -35.356  14.977  1.00 63.74 LIG 0.19  C 
BRANCH 41 42
ATOM     42  N   ASP D   3      -0.722 -35.411  14.626  1.00 62.73 LIG-0.35  N 
ATOM     43 H    ASP D   3      -0.199 -35.612  15.280  1.00 62.73 LIG 0.16  HD
ATOM     44  C   GLY D   2      -0.304 -35.167  13.391  1.00 63.13 LIG 0.25  C 
ATOM     45 O    GLY D   2      -1.058 -34.818  12.480  1.00 65.69 LIG-0.27  OA
BRANCH 44 46
ATOM     46  CA  GLY D   2       1.181 -35.334  13.146  1.00 64.97 LIG 0.47  C 
ATOM     47  N   GLY D   2       1.993 -34.890  14.316  1.00 67.04 LIG 0.61  N 
ENDBRANCH 44 46
ENDBRANCH 41 42
BRANCH 41 48
ATOM     48  CB  ASP D   3      -2.373 -35.897  16.393  1.00 68.02 LIG 0.15  C 
BRANCH 48 49
ATOM     49  CG  ASP D   3      -1.571 -35.162  17.439  1.00 72.98 LIG 0.17  C 
ATOM     50 OD1  ASP D   3      -2.180 -34.575  18.360  1.00 76.93 LIG-0.65  OA
ATOM     51 OD2  ASP D   3      -0.324 -35.162  17.335  1.00 81.56 LIG-0.65  OA
ENDBRANCH 48 49
ENDBRANCH 41 48
ENDBRANCH 39 41
ENDBRANCH 32 37
ENDBRANCH 30 32
ENDBRANCH 1 28
TORSDOF 21
ENDMDL
MODEL 27
USER: ADFR SOLUTION from run 98
USER: SCORE 16.339932 LL:  -4.417 LR: -12.965 RR:   0.000 FEB:  -6.701
USER: RMSD 8.619503
USER: SEED 97
USER: STATUS no improvement in best in 19 clusters for 5 generations
USER: GENES 23
USER: genes 0 Translation |==|  0.42544 0.70604 0.39542
USER: genes 1 Rotation |==|  0.16679 0.82142 0.61924 0.64642
USER: genes 2 Torsion [C]-CA--CB-[CG] |==|  0.73546
USER: genes 3 Torsion [CA]-CB--CG-[CD1] |==|  0.20879
USER: genes 4 Torsion [N]-CA--C-[N] |==|  0.11946
USER: genes 5 Torsion [C]-N--CA-[C] |==|  0.17751
USER: genes 6 Torsion [N]-CA--C-[N] |==|  0.09148
USER: genes 7 Torsion [C]-N--CA-[C] |==|  0.17028
USER: genes 8 Torsion [N]-CA--C-[O] |==|  0.65264
USER: genes 9 Torsion [N]-CA--CB-[CG] |==|  0.86020
USER: genes 10 Torsion [CA]-CB--CG-[CD1] |==|  0.29824
USER: genes 11 Torsion [N]-CA--CB-[CG] |==|  0.88134
USER: genes 12 Torsion [CA]-CB--CG-[ND2] |==|  0.75153
USER: genes 13 Torsion [CB]-CA--N-[C] |==|  0.18889
USER: genes 14 Torsion [N]-C--CA-[N] |==|  0.15654
USER: genes 15 Torsion [C]-CA--CB-[CG] |==|  0.55980
USER: genes 16 Torsion [CA]-CB--CG-[CD1] |==|  0.39620
USER: genes 17 Torsion [C]-CA--N-[C] |==|  0.14096
USER: genes 18 Torsion [N]-C--CA-[N] |==|  0.16111
USER: genes 19 Torsion [C]-CA--N-[C] |==|  0.78113
USER: genes 20 Torsion [N]-C--CA-[N] |==|  0.51506
USER: genes 21 Torsion [C]-CA--CB-[CG] |==|  0.30508
USER: genes 22 Torsion [CA]-CB--CG-[OD1] |==|  0.39604
ROOT
ATOM      1  CA  LEU D   5      -7.177 -32.490  14.581  1.00 45.78 LIG 0.18  C 
ENDROOT
BRANCH 1 2
ATOM      2  CB  LEU D   5      -7.722 -32.286  15.991  1.00 44.83 LIG 0.04  C 
BRANCH 2 3
ATOM      3  CG  LEU D   5      -8.081 -33.520  16.809  1.00 46.71 LIG-0.02  C 
ATOM      4  CD1 LEU D   5      -6.801 -34.177  17.299  1.00 43.35 LIG 0.01  C 
ATOM      5  CD2 LEU D   5      -8.987 -33.164  17.988  1.00 50.41 LIG 0.01  C 
ENDBRANCH 2 3
ENDBRANCH 1 2
BRANCH 1 6
ATOM      6  C   LEU D   5      -5.660 -32.462  14.669  1.00 49.70 LIG 0.24  C 
ATOM      7  N   ASN D   6      -5.020 -32.930  13.595  1.00 52.00 LIG-0.35  N 
ATOM      8 H    ASN D   6      -5.424 -33.296  12.930  1.00 52.00 LIG 0.16  HD
ATOM      9 O    LEU D   5      -5.092 -31.986  15.670  1.00 48.20 LIG-0.27  OA
BRANCH 7 10
ATOM     10  CA  ASN D   6      -3.566 -32.870  13.437  1.00 59.27 LIG 0.18  C 
BRANCH 10 11
ATOM     11  C   ASN D   6      -2.913 -33.729  14.526  1.00 60.71 LIG 0.24  C 
ATOM     12  N   LEU D   7      -3.586 -34.813  14.911  1.00 62.75 LIG-0.35  N 
ATOM     13 H    LEU D   7      -4.290 -35.103  14.510  1.00 62.75 LIG 0.16  HD
ATOM     14 O    ASN D   6      -1.820 -33.413  15.002  1.00 63.11 LIG-0.27  OA
BRANCH 12 15
ATOM     15  CA  LEU D   7      -3.184 -35.622  16.070  1.00 66.71 LIG 0.16  C 
BRANCH 15 16
ATOM     16  C   LEU D   7      -3.201 -34.842  17.389  1.00 66.58 LIG 0.22  C 
ATOM     17 O    LEU D   7      -2.204 -34.787  18.101  1.00 70.30 LIG-0.29  OA
ENDBRANCH 15 16
BRANCH 15 18
ATOM     18  CB  LEU D   7      -1.789 -36.211  15.816  1.00 67.13 LIG 0.04  C 
BRANCH 18 19
ATOM     19  CG  LEU D   7      -1.631 -36.923  14.464  1.00 64.50 LIG-0.02  C 
ATOM     20  CD1 LEU D   7      -0.780 -36.090  13.514  1.00 64.54 LIG 0.01  C 
ATOM     21  CD2 LEU D   7      -1.046 -38.322  14.642  1.00 62.99 LIG 0.01  C 
ENDBRANCH 18 19
ENDBRANCH 15 18
ENDBRANCH 12 15
ENDBRANCH 10 11
BRANCH 10 22
ATOM     22  CB  ASN D   6      -3.097 -31.409  13.521  1.00 63.11 LIG 0.14  C 
BRANCH 22 23
ATOM     23  CG  ASN D   6      -3.995 -30.455  12.751  1.00 71.29 LIG 0.22  C 
ATOM     24  ND2 ASN D   6      -3.680 -30.252  11.470  1.00 72.89 LIG-0.37  N 
ATOM     25 21HD ASN D   6      -4.152 -29.717  10.991  1.00 72.89 LIG 0.16  HD
ATOM     26 22HD ASN D   6      -3.004 -30.657  11.124  1.00 72.89 LIG 0.16  HD
ATOM     27 OD1  ASN D   6      -4.955 -29.897  13.297  1.00 74.05 LIG-0.27  OA
ENDBRANCH 22 23
ENDBRANCH 10 22
ENDBRANCH 7 10
ENDBRANCH 1 6
BRANCH 1 28
ATOM     28  N   LEU D   5      -7.655 -33.756  14.001  1.00 43.46 LIG-0.35  N 
ATOM     29 H    LEU D   5      -7.040 -34.346  13.891  1.00 43.46 LIG 0.16  HD
ATOM     30  C   LEU D   4      -8.930 -33.954  13.682  1.00 41.34 LIG 0.24  C 
ATOM     31 O    LEU D   4      -9.793 -33.097  13.797  1.00 44.89 LIG-0.27  OA
BRANCH 30 32
ATOM     32  CA  LEU D   4      -9.318 -35.331  13.231  1.00 41.83 LIG 0.18  C 
BRANCH 32 33
ATOM     33  CB  LEU D   4     -10.822 -35.337  12.901  1.00 37.92 LIG 0.04  C 
BRANCH 33 34
ATOM     34  CG  LEU D   4     -11.500 -36.704  12.923  1.00 37.44 LIG-0.02  C 
ATOM     35  CD1 LEU D   4     -12.900 -36.568  13.494  1.00 34.88 LIG 0.01  C 
ATOM     36  CD2 LEU D   4     -11.555 -37.305  11.516  1.00 37.22 LIG 0.01  C 
ENDBRANCH 33 34
ENDBRANCH 32 33
BRANCH 32 37
ATOM     37  N   LEU D   4      -8.984 -36.377  14.202  1.00 45.71 LIG-0.35  N 
ATOM     38 H    LEU D   4      -8.547 -37.043  13.877  1.00 45.71 LIG 0.16  HD
ATOM     39  C   ASP D   3      -9.345 -36.269  15.479  1.00 59.12 LIG 0.24  C 
ATOM     40 O    ASP D   3     -10.094 -35.379  15.900  1.00 63.71 LIG-0.27  OA
BRANCH 39 41
ATOM     41  CA  ASP D   3      -8.836 -37.341  16.437  1.00 63.74 LIG 0.19  C 
BRANCH 41 42
ATOM     42  N   ASP D   3      -7.381 -37.430  16.461  1.00 62.73 LIG-0.35  N 
ATOM     43 H    ASP D   3      -7.012 -37.047  17.137  1.00 62.73 LIG 0.16  HD
ATOM     44  C   GLY D   2      -6.708 -38.057  15.505  1.00 63.13 LIG 0.25  C 
ATOM     45 O    GLY D   2      -7.248 -38.545  14.510  1.00 65.69 LIG-0.27  OA
BRANCH 44 46
ATOM     46  CA  GLY D   2      -5.208 -38.141  15.693  1.00 64.97 LIG 0.47  C 
ATOM     47  N   GLY D   2      -4.531 -38.746  14.510  1.00 67.04 LIG 0.61  N 
ENDBRANCH 44 46
ENDBRANCH 41 42
BRANCH 41 48
ATOM     48  CB  ASP D   3      -9.398 -37.098  17.844  1.00 68.02 LIG 0.15  C 
BRANCH 48 49
ATOM     49  CG  ASP D   3     -10.418 -38.135  18.250  1.00 72.98 LIG 0.17  C 
ATOM     50 OD1  ASP D   3     -10.437 -38.524  19.438  1.00 76.93 LIG-0.65  OA
ATOM     51 OD2  ASP D   3     -11.198 -38.570  17.374  1.00 81.56 LIG-0.65  OA
ENDBRANCH 48 49
ENDBRANCH 41 48
ENDBRANCH 39 41
ENDBRANCH 32 37
ENDBRANCH 30 32
ENDBRANCH 1 28
TORSDOF 21
ENDMDL
MODEL 28
USER: ADFR SOLUTION from run 145
USER: SCORE 15.208718 LL:  -3.951 LR: -12.963 RR:   0.000 FEB:  -6.698
USER: RMSD 9.390589
USER: SEED 144
USER: STATUS 1 or 2 clusters left
USER: GENES 23
USER: genes 0 Translation |==|  0.29323 0.60137 0.37830
USER: genes 1 Rotation |==|  0.12374 0.61483 0.20672 0.59608
USER: genes 2 Torsion [C]-CA--CB-[CG] |==|  0.54933
USER: genes 3 Torsion [CA]-CB--CG-[CD1] |==|  0.86081
USER: genes 4 Torsion [N]-CA--C-[N] |==|  0.02180
USER: genes 5 Torsion [C]-N--CA-[C] |==|  0.85524
USER: genes 6 Torsion [N]-CA--C-[N] |==|  0.89583
USER: genes 7 Torsion [C]-N--CA-[C] |==|  0.11551
USER: genes 8 Torsion [N]-CA--C-[O] |==|  0.45983
USER: genes 9 Torsion [N]-CA--CB-[CG] |==|  0.63191
USER: genes 10 Torsion [CA]-CB--CG-[CD1] |==|  0.45009
USER: genes 11 Torsion [N]-CA--CB-[CG] |==|  0.47914
USER: genes 12 Torsion [CA]-CB--CG-[ND2] |==|  0.30397
USER: genes 13 Torsion [CB]-CA--N-[C] |==|  0.29431
USER: genes 14 Torsion [N]-C--CA-[N] |==|  0.30000
USER: genes 15 Torsion [C]-CA--CB-[CG] |==|  0.27745
USER: genes 16 Torsion [CA]-CB--CG-[CD1] |==|  0.49441
USER: genes 17 Torsion [C]-CA--N-[C] |==|  0.69461
USER: genes 18 Torsion [N]-C--CA-[N] |==|  0.87565
USER: genes 19 Torsion [C]-CA--N-[C] |==|  0.79338
USER: genes 20 Torsion [N]-C--CA-[N] |==|  0.27969
USER: genes 21 Torsion [C]-CA--CB-[CG] |==|  0.10300
USER: genes 22 Torsion [CA]-CB--CG-[OD1] |==|  0.21240
ROOT
ATOM      1  CA  LEU D   5     -10.052 -34.609  14.286  1.00 45.78 LIG 0.18  C 
ENDROOT
BRANCH 1 2
ATOM      2  CB  LEU D   5     -11.214 -34.315  13.342  1.00 44.83 LIG 0.04  C 
BRANCH 2 3
ATOM      3  CG  LEU D   5     -11.920 -35.491  12.680  1.00 46.71 LIG-0.02  C 
ATOM      4  CD1 LEU D   5     -10.877 -36.400  12.050  1.00 43.35 LIG 0.01  C 
ATOM      5  CD2 LEU D   5     -12.771 -36.268  13.685  1.00 50.41 LIG 0.01  C 
ENDBRANCH 2 3
ENDBRANCH 1 2
BRANCH 1 6
ATOM      6  C   LEU D   5      -9.824 -33.368  15.132  1.00 49.70 LIG 0.24  C 
ATOM      7  N   ASN D   6      -9.752 -33.582  16.447  1.00 52.00 LIG-0.35  N 
ATOM      8 H    ASN D   6      -9.901 -34.348  16.807  1.00 52.00 LIG 0.16  HD
ATOM      9 O    LEU D   5      -9.672 -32.255  14.594  1.00 48.20 LIG-0.27  OA
BRANCH 7 10
ATOM     10  CA  ASN D   6      -9.411 -32.536  17.413  1.00 59.27 LIG 0.18  C 
BRANCH 10 11
ATOM     11  C   ASN D   6      -8.109 -31.859  16.972  1.00 60.71 LIG 0.24  C 
ATOM     12  N   LEU D   7      -7.180 -32.650  16.435  1.00 62.75 LIG-0.35  N 
ATOM     13 H    LEU D   7      -7.319 -33.473  16.227  1.00 62.75 LIG 0.16  HD
ATOM     14 O    ASN D   6      -7.954 -30.644  17.117  1.00 63.11 LIG-0.27  OA
BRANCH 12 15
ATOM     15  CA  LEU D   7      -5.817 -32.183  16.145  1.00 66.71 LIG 0.16  C 
BRANCH 15 16
ATOM     16  C   LEU D   7      -5.231 -31.298  17.250  1.00 66.58 LIG 0.22  C 
ATOM     17 O    LEU D   7      -4.031 -31.049  17.287  1.00 70.30 LIG-0.29  OA
ENDBRANCH 15 16
BRANCH 15 18
ATOM     18  CB  LEU D   7      -5.814 -31.435  14.804  1.00 67.13 LIG 0.04  C 
BRANCH 18 19
ATOM     19  CG  LEU D   7      -4.689 -31.848  13.843  1.00 64.50 LIG-0.02  C 
ATOM     20  CD1 LEU D   7      -5.009 -31.407  12.420  1.00 64.54 LIG 0.01  C 
ATOM     21  CD2 LEU D   7      -3.341 -31.295  14.299  1.00 62.99 LIG 0.01  C 
ENDBRANCH 18 19
ENDBRANCH 15 18
ENDBRANCH 12 15
ENDBRANCH 10 11
BRANCH 10 22
ATOM     22  CB  ASN D   6      -9.276 -33.151  18.815  1.00 63.11 LIG 0.14  C 
BRANCH 22 23
ATOM     23  CG  ASN D   6      -8.746 -32.166  19.844  1.00 71.29 LIG 0.22  C 
ATOM     24  ND2 ASN D   6      -9.618 -31.749  20.764  1.00 72.89 LIG-0.37  N 
ATOM     25 21HD ASN D   6      -9.371 -31.187  21.366  1.00 72.89 LIG 0.16  HD
ATOM     26 22HD ASN D   6     -10.426 -32.042  20.755  1.00 72.89 LIG 0.16  HD
ATOM     27 OD1  ASN D   6      -7.573 -31.775  19.812  1.00 74.05 LIG-0.27  OA
ENDBRANCH 22 23
ENDBRANCH 10 22
ENDBRANCH 7 10
ENDBRANCH 1 6
BRANCH 1 28
ATOM     28  N   LEU D   5     -10.333 -35.785  15.127  1.00 43.46 LIG-0.35  N 
ATOM     29 H    LEU D   5     -10.903 -35.639  15.755  1.00 43.46 LIG 0.16  HD
ATOM     30  C   LEU D   4      -9.749 -36.961  14.922  1.00 41.34 LIG 0.24  C 
ATOM     31 O    LEU D   4      -8.905 -37.151  14.060  1.00 44.89 LIG-0.27  OA
BRANCH 30 32
ATOM     32  CA  LEU D   4     -10.221 -38.115  15.757  1.00 41.83 LIG 0.18  C 
BRANCH 32 33
ATOM     33  CB  LEU D   4      -8.999 -38.776  16.420  1.00 37.92 LIG 0.04  C 
BRANCH 33 34
ATOM     34  CG  LEU D   4      -8.747 -38.394  17.875  1.00 37.44 LIG-0.02  C 
ATOM     35  CD1 LEU D   4      -7.546 -39.159  18.401  1.00 34.88 LIG 0.01  C 
ATOM     36  CD2 LEU D   4      -8.516 -36.887  18.008  1.00 37.22 LIG 0.01  C 
ENDBRANCH 33 34
ENDBRANCH 32 33
BRANCH 32 37
ATOM     37  N   LEU D   4     -11.010 -39.093  15.003  1.00 45.71 LIG-0.35  N 
ATOM     38 H    LEU D   4     -10.560 -39.557  14.434  1.00 45.71 LIG 0.16  HD
ATOM     39  C   ASP D   3     -12.319 -39.226  15.210  1.00 59.12 LIG 0.24  C 
ATOM     40 O    ASP D   3     -12.974 -38.459  15.924  1.00 63.71 LIG-0.27  OA
BRANCH 39 41
ATOM     41  CA  ASP D   3     -13.025 -40.361  14.475  1.00 63.74 LIG 0.19  C 
BRANCH 41 42
ATOM     42  N   ASP D   3     -12.632 -40.455  13.075  1.00 62.73 LIG-0.35  N 
ATOM     43 H    ASP D   3     -12.107 -41.113  12.895  1.00 62.73 LIG 0.16  HD
ATOM     44  C   GLY D   2     -13.065 -39.584  12.173  1.00 63.13 LIG 0.25  C 
ATOM     45 O    GLY D   2     -13.766 -38.610  12.458  1.00 65.69 LIG-0.27  OA
BRANCH 44 46
ATOM     46  CA  GLY D   2     -12.643 -39.842  10.742  1.00 64.97 LIG 0.47  C 
ATOM     47  N   GLY D   2     -13.731 -40.483   9.946  1.00 67.04 LIG 0.61  N 
ENDBRANCH 44 46
ENDBRANCH 41 42
BRANCH 41 48
ATOM     48  CB  ASP D   3     -12.786 -41.689  15.205  1.00 68.02 LIG 0.15  C 
BRANCH 48 49
ATOM     49  CG  ASP D   3     -12.773 -41.533  16.707  1.00 72.98 LIG 0.17  C 
ATOM     50 OD1  ASP D   3     -13.863 -41.394  17.305  1.00 76.93 LIG-0.65  OA
ATOM     51 OD2  ASP D   3     -11.668 -41.539  17.293  1.00 81.56 LIG-0.65  OA
ENDBRANCH 48 49
ENDBRANCH 41 48
ENDBRANCH 39 41
ENDBRANCH 32 37
ENDBRANCH 30 32
ENDBRANCH 1 28
TORSDOF 21
ENDMDL
MODEL 29
USER: ADFR SOLUTION from run 103
USER: SCORE 15.764851 LL:  -4.191 LR: -12.939 RR:   0.000 FEB:  -6.675
USER: RMSD 9.187138
USER: SEED 102
USER: STATUS no improvement in best in 10 clusters for 5 generations
USER: GENES 23
USER: genes 0 Translation |==|  0.32999 0.60507 0.32051
USER: genes 1 Rotation |==|  0.09204 0.64508 0.27833 0.61570
USER: genes 2 Torsion [C]-CA--CB-[CG] |==|  0.57313
USER: genes 3 Torsion [CA]-CB--CG-[CD1] |==|  0.91072
USER: genes 4 Torsion [N]-CA--C-[N] |==|  0.15912
USER: genes 5 Torsion [C]-N--CA-[C] |==|  0.62419
USER: genes 6 Torsion [N]-CA--C-[N] |==|  0.02411
USER: genes 7 Torsion [C]-N--CA-[C] |==|  0.09643
USER: genes 8 Torsion [N]-CA--C-[O] |==|  0.64435
USER: genes 9 Torsion [N]-CA--CB-[CG] |==|  0.12843
USER: genes 10 Torsion [CA]-CB--CG-[CD1] |==|  0.30861
USER: genes 11 Torsion [N]-CA--CB-[CG] |==|  0.72134
USER: genes 12 Torsion [CA]-CB--CG-[ND2] |==|  0.19055
USER: genes 13 Torsion [CB]-CA--N-[C] |==|  0.77716
USER: genes 14 Torsion [N]-C--CA-[N] |==|  0.80171
USER: genes 15 Torsion [C]-CA--CB-[CG] |==|  0.22668
USER: genes 16 Torsion [CA]-CB--CG-[CD1] |==|  0.69345
USER: genes 17 Torsion [C]-CA--N-[C] |==|  0.68221
USER: genes 18 Torsion [N]-C--CA-[N] |==|  0.93112
USER: genes 19 Torsion [C]-CA--N-[C] |==|  0.76984
USER: genes 20 Torsion [N]-C--CA-[N] |==|  0.13292
USER: genes 21 Torsion [C]-CA--CB-[CG] |==|  0.25435
USER: genes 22 Torsion [CA]-CB--CG-[OD1] |==|  0.09759
ROOT
ATOM      1  CA  LEU D   5      -9.253 -34.534  13.289  1.00 45.78 LIG 0.18  C 
ENDROOT
BRANCH 1 2
ATOM      2  CB  LEU D   5     -10.645 -34.164  12.785  1.00 44.83 LIG 0.04  C 
BRANCH 2 3
ATOM      3  CG  LEU D   5     -11.572 -35.289  12.343  1.00 46.71 LIG-0.02  C 
ATOM      4  CD1 LEU D   5     -10.737 -36.414  11.754  1.00 43.35 LIG 0.01  C 
ATOM      5  CD2 LEU D   5     -12.419 -35.804  13.508  1.00 50.41 LIG 0.01  C 
ENDBRANCH 2 3
ENDBRANCH 1 2
BRANCH 1 6
ATOM      6  C   LEU D   5      -8.802 -33.435  14.236  1.00 49.70 LIG 0.24  C 
ATOM      7  N   ASN D   6      -7.597 -33.614  14.781  1.00 52.00 LIG-0.35  N 
ATOM      8 H    ASN D   6      -7.135 -34.331  14.674  1.00 52.00 LIG 0.16  HD
ATOM      9 O    LEU D   5      -9.516 -32.432  14.427  1.00 48.20 LIG-0.27  OA
BRANCH 7 10
ATOM     10  CA  ASN D   6      -6.937 -32.610  15.617  1.00 59.27 LIG 0.18  C 
BRANCH 10 11
ATOM     11  C   ASN D   6      -5.470 -32.494  15.187  1.00 60.71 LIG 0.24  C 
ATOM     12  N   LEU D   7      -5.122 -33.146  14.078  1.00 62.75 LIG-0.35  N 
ATOM     13 H    LEU D   7      -5.688 -33.520  13.550  1.00 62.75 LIG 0.16  HD
ATOM     14 O    ASN D   6      -4.674 -31.825  15.851  1.00 63.11 LIG-0.27  OA
BRANCH 12 15
ATOM     15  CA  LEU D   7      -3.723 -33.287  13.651  1.00 66.71 LIG 0.16  C 
BRANCH 15 16
ATOM     16  C   LEU D   7      -2.743 -33.426  14.821  1.00 66.58 LIG 0.22  C 
ATOM     17 O    LEU D   7      -1.757 -32.702  14.905  1.00 70.30 LIG-0.29  OA
ENDBRANCH 15 16
BRANCH 15 18
ATOM     18  CB  LEU D   7      -3.340 -32.088  12.772  1.00 67.13 LIG 0.04  C 
BRANCH 18 19
ATOM     19  CG  LEU D   7      -3.767 -30.723  13.330  1.00 64.50 LIG-0.02  C 
ATOM     20  CD1 LEU D   7      -2.550 -29.913  13.760  1.00 64.54 LIG 0.01  C 
ATOM     21  CD2 LEU D   7      -4.610 -29.951  12.317  1.00 62.99 LIG 0.01  C 
ENDBRANCH 18 19
ENDBRANCH 15 18
ENDBRANCH 12 15
ENDBRANCH 10 11
BRANCH 10 22
ATOM     22  CB  ASN D   6      -7.057 -33.007  17.096  1.00 63.11 LIG 0.14  C 
BRANCH 22 23
ATOM     23  CG  ASN D   6      -8.159 -32.253  17.823  1.00 71.29 LIG 0.22  C 
ATOM     24  ND2 ASN D   6      -9.410 -32.545  17.463  1.00 72.89 LIG-0.37  N 
ATOM     25 21HD ASN D   6     -10.070 -32.142  17.840  1.00 72.89 LIG 0.16  HD
ATOM     26 22HD ASN D   6      -9.556 -33.135  16.855  1.00 72.89 LIG 0.16  HD
ATOM     27 OD1  ASN D   6      -7.894 -31.412  18.692  1.00 74.05 LIG-0.27  OA
ENDBRANCH 22 23
ENDBRANCH 10 22
ENDBRANCH 7 10
ENDBRANCH 1 6
BRANCH 1 28
ATOM     28  N   LEU D   5      -9.258 -35.847  13.957  1.00 43.46 LIG-0.35  N 
ATOM     29 H    LEU D   5      -8.975 -36.492  13.464  1.00 43.46 LIG 0.16  HD
ATOM     30  C   LEU D   4      -9.666 -36.003  15.212  1.00 41.34 LIG 0.24  C 
ATOM     31 O    LEU D   4     -10.110 -35.092  15.893  1.00 44.89 LIG-0.27  OA
BRANCH 30 32
ATOM     32  CA  LEU D   4      -9.491 -37.362  15.825  1.00 41.83 LIG 0.18  C 
BRANCH 32 33
ATOM     33  CB  LEU D   4      -8.023 -37.793  15.656  1.00 37.92 LIG 0.04  C 
BRANCH 33 34
ATOM     34  CG  LEU D   4      -7.044 -37.230  16.681  1.00 37.44 LIG-0.02  C 
ATOM     35  CD1 LEU D   4      -6.125 -36.226  16.009  1.00 34.88 LIG 0.01  C 
ATOM     36  CD2 LEU D   4      -7.794 -36.570  17.841  1.00 37.22 LIG 0.01  C 
ENDBRANCH 33 34
ENDBRANCH 32 33
BRANCH 32 37
ATOM     37  N   LEU D   4     -10.406 -38.368  15.279  1.00 45.71 LIG-0.35  N 
ATOM     38 H    LEU D   4     -10.280 -38.556  14.449  1.00 45.71 LIG 0.16  HD
ATOM     39  C   ASP D   3     -11.347 -38.925  16.039  1.00 59.12 LIG 0.24  C 
ATOM     40 O    ASP D   3     -11.609 -38.542  17.184  1.00 63.71 LIG-0.27  OA
BRANCH 39 41
ATOM     41  CA  ASP D   3     -12.160 -40.056  15.418  1.00 63.74 LIG 0.19  C 
BRANCH 41 42
ATOM     42  N   ASP D   3     -12.200 -39.987  13.962  1.00 62.73 LIG-0.35  N 
ATOM     43 H    ASP D   3     -11.625 -40.490  13.566  1.00 62.73 LIG 0.16  HD
ATOM     44  C   GLY D   2     -13.063 -39.205  13.328  1.00 63.13 LIG 0.25  C 
ATOM     45 O    GLY D   2     -13.837 -38.442  13.911  1.00 65.69 LIG-0.27  OA
BRANCH 44 46
ATOM     46  CA  GLY D   2     -13.049 -39.287  11.816  1.00 64.97 LIG 0.47  C 
ATOM     47  N   GLY D   2     -13.070 -40.698  11.334  1.00 67.04 LIG 0.61  N 
ENDBRANCH 44 46
ENDBRANCH 41 42
BRANCH 41 48
ATOM     48  CB  ASP D   3     -11.621 -41.412  15.891  1.00 68.02 LIG 0.15  C 
BRANCH 48 49
ATOM     49  CG  ASP D   3     -12.317 -41.912  17.135  1.00 72.98 LIG 0.17  C 
ATOM     50 OD1  ASP D   3     -13.535 -41.670  17.279  1.00 76.93 LIG-0.65  OA
ATOM     51 OD2  ASP D   3     -11.639 -42.541  17.978  1.00 81.56 LIG-0.65  OA
ENDBRANCH 48 49
ENDBRANCH 41 48
ENDBRANCH 39 41
ENDBRANCH 32 37
ENDBRANCH 30 32
ENDBRANCH 1 28
TORSDOF 21
ENDMDL
MODEL 30
USER: ADFR SOLUTION from run 124
USER: SCORE 16.231725 LL:  -3.947 LR: -12.826 RR:   0.000 FEB:  -6.562
USER: RMSD 10.450733
USER: SEED 123
USER: STATUS no improvement in best in 9 clusters for 5 generations
USER: GENES 23
USER: genes 0 Translation |==|  0.36052 0.67760 0.58962
USER: genes 1 Rotation |==|  0.87695 0.37118 0.79307 0.57364
USER: genes 2 Torsion [C]-CA--CB-[CG] |==|  0.28906
USER: genes 3 Torsion [CA]-CB--CG-[CD1] |==|  0.52596
USER: genes 4 Torsion [N]-CA--C-[N] |==|  0.17595
USER: genes 5 Torsion [C]-N--CA-[C] |==|  0.77846
USER: genes 6 Torsion [N]-CA--C-[N] |==|  0.01667
USER: genes 7 Torsion [C]-N--CA-[C] |==|  0.14599
USER: genes 8 Torsion [N]-CA--C-[O] |==|  0.66895
USER: genes 9 Torsion [N]-CA--CB-[CG] |==|  0.61489
USER: genes 10 Torsion [CA]-CB--CG-[CD1] |==|  0.44047
USER: genes 11 Torsion [N]-CA--CB-[CG] |==|  0.58363
USER: genes 12 Torsion [CA]-CB--CG-[ND2] |==|  0.31027
USER: genes 13 Torsion [CB]-CA--N-[C] |==|  0.76330
USER: genes 14 Torsion [N]-C--CA-[N] |==|  0.89461
USER: genes 15 Torsion [C]-CA--CB-[CG] |==|  0.29913
USER: genes 16 Torsion [CA]-CB--CG-[CD1] |==|  0.71024
USER: genes 17 Torsion [C]-CA--N-[C] |==|  0.78466
USER: genes 18 Torsion [N]-C--CA-[N] |==|  0.03294
USER: genes 19 Torsion [C]-CA--N-[C] |==|  0.72098
USER: genes 20 Torsion [N]-C--CA-[N] |==|  0.07778
USER: genes 21 Torsion [C]-CA--CB-[CG] |==|  0.65511
USER: genes 22 Torsion [CA]-CB--CG-[OD1] |==|  0.18519
ROOT
ATOM      1  CA  LEU D   5      -8.589 -33.066  17.931  1.00 45.78 LIG 0.18  C 
ENDROOT
BRANCH 1 2
ATOM      2  CB  LEU D   5      -9.761 -32.695  17.028  1.00 44.83 LIG 0.04  C 
BRANCH 2 3
ATOM      3  CG  LEU D   5      -9.757 -33.213  15.595  1.00 46.71 LIG-0.02  C 
ATOM      4  CD1 LEU D   5     -10.881 -32.540  14.824  1.00 43.35 LIG 0.01  C 
ATOM      5  CD2 LEU D   5      -8.412 -32.959  14.914  1.00 50.41 LIG 0.01  C 
ENDBRANCH 2 3
ENDBRANCH 1 2
BRANCH 1 6
ATOM      6  C   LEU D   5      -7.698 -31.840  18.050  1.00 49.70 LIG 0.24  C 
ATOM      7  N   ASN D   6      -6.560 -32.028  18.720  1.00 52.00 LIG-0.35  N 
ATOM      8 H    ASN D   6      -6.370 -32.761  19.127  1.00 52.00 LIG 0.16  HD
ATOM      9 O    LEU D   5      -8.022 -30.767  17.505  1.00 48.20 LIG-0.27  OA
BRANCH 7 10
ATOM     10  CA  ASN D   6      -5.516 -31.008  18.833  1.00 59.27 LIG 0.18  C 
BRANCH 10 11
ATOM     11  C   ASN D   6      -4.689 -31.000  17.542  1.00 60.71 LIG 0.24  C 
ATOM     12  N   LEU D   7      -5.121 -31.784  16.554  1.00 62.75 LIG-0.35  N 
ATOM     13 H    LEU D   7      -5.878 -32.191  16.568  1.00 62.75 LIG 0.16  HD
ATOM     14 O    ASN D   6      -3.681 -30.294  17.448  1.00 63.11 LIG-0.27  OA
BRANCH 12 15
ATOM     15  CA  LEU D   7      -4.334 -32.028  15.338  1.00 66.71 LIG 0.16  C 
BRANCH 15 16
ATOM     16  C   LEU D   7      -2.905 -32.503  15.626  1.00 66.58 LIG 0.22  C 
ATOM     17 O    LEU D   7      -1.937 -31.851  15.251  1.00 70.30 LIG-0.29  OA
ENDBRANCH 15 16
BRANCH 15 18
ATOM     18  CB  LEU D   7      -4.310 -30.751  14.487  1.00 67.13 LIG 0.04  C 
BRANCH 18 19
ATOM     19  CG  LEU D   7      -4.474 -30.985  12.977  1.00 64.50 LIG-0.02  C 
ATOM     20  CD1 LEU D   7      -4.961 -29.716  12.287  1.00 64.54 LIG 0.01  C 
ATOM     21  CD2 LEU D   7      -3.175 -31.487  12.351  1.00 62.99 LIG 0.01  C 
ENDBRANCH 18 19
ENDBRANCH 15 18
ENDBRANCH 12 15
ENDBRANCH 10 11
BRANCH 10 22
ATOM     22  CB  ASN D   6      -4.637 -31.299  20.059  1.00 63.11 LIG 0.14  C 
BRANCH 22 23
ATOM     23  CG  ASN D   6      -4.056 -30.041  20.682  1.00 71.29 LIG 0.22  C 
ATOM     24  ND2 ASN D   6      -4.518 -29.713  21.890  1.00 72.89 LIG-0.37  N 
ATOM     25 21HD ASN D   6      -4.226 -29.007  22.284  1.00 72.89 LIG 0.16  HD
ATOM     26 22HD ASN D   6      -5.108 -30.207  22.273  1.00 72.89 LIG 0.16  HD
ATOM     27 OD1  ASN D   6      -3.207 -29.364  20.087  1.00 74.05 LIG-0.27  OA
ENDBRANCH 22 23
ENDBRANCH 10 22
ENDBRANCH 7 10
ENDBRANCH 1 6
BRANCH 1 28
ATOM     28  N   LEU D   5      -9.055 -33.517  19.253  1.00 43.46 LIG-0.35  N 
ATOM     29 H    LEU D   5      -9.133 -34.371  19.324  1.00 43.46 LIG 0.16  HD
ATOM     30  C   LEU D   4      -9.325 -32.668  20.239  1.00 41.34 LIG 0.24  C 
ATOM     31 O    LEU D   4      -9.256 -31.454  20.119  1.00 44.89 LIG-0.27  OA
BRANCH 30 32
ATOM     32  CA  LEU D   4      -9.656 -33.257  21.579  1.00 41.83 LIG 0.18  C 
BRANCH 32 33
ATOM     33  CB  LEU D   4      -8.344 -33.509  22.344  1.00 37.92 LIG 0.04  C 
BRANCH 33 34
ATOM     34  CG  LEU D   4      -8.065 -32.564  23.509  1.00 37.44 LIG-0.02  C 
ATOM     35  CD1 LEU D   4      -7.002 -31.558  23.105  1.00 34.88 LIG 0.01  C 
ATOM     36  CD2 LEU D   4      -9.343 -31.842  23.941  1.00 37.22 LIG 0.01  C 
ENDBRANCH 33 34
ENDBRANCH 32 33
BRANCH 32 37
ATOM     37  N   LEU D   4     -10.463 -34.477  21.494  1.00 45.71 LIG-0.35  N 
ATOM     38 H    LEU D   4     -10.025 -35.207  21.615  1.00 45.71 LIG 0.16  HD
ATOM     39  C   ASP D   3     -11.771 -34.420  21.248  1.00 59.12 LIG 0.24  C 
ATOM     40 O    ASP D   3     -12.357 -33.378  20.935  1.00 63.71 LIG-0.27  OA
BRANCH 39 41
ATOM     41  CA  ASP D   3     -12.547 -35.731  21.312  1.00 63.74 LIG 0.19  C 
BRANCH 41 42
ATOM     42  N   ASP D   3     -11.773 -36.815  21.906  1.00 62.73 LIG-0.35  N 
ATOM     43 H    ASP D   3     -11.740 -36.800  22.766  1.00 62.73 LIG 0.16  HD
ATOM     44  C   GLY D   2     -11.178 -37.734  21.158  1.00 63.13 LIG 0.25  C 
ATOM     45 O    GLY D   2     -11.181 -37.705  19.925  1.00 65.69 LIG-0.27  OA
BRANCH 44 46
ATOM     46  CA  GLY D   2     -10.472 -38.846  21.905  1.00 64.97 LIG 0.47  C 
ATOM     47  N   GLY D   2     -11.089 -39.102  23.239  1.00 67.04 LIG 0.61  N 
ENDBRANCH 44 46
ENDBRANCH 41 42
BRANCH 41 48
ATOM     48  CB  ASP D   3     -13.869 -35.523  22.062  1.00 68.02 LIG 0.15  C 
BRANCH 48 49
ATOM     49  CG  ASP D   3     -14.025 -36.459  23.236  1.00 72.98 LIG 0.17  C 
ATOM     50 OD1  ASP D   3     -13.255 -36.331  24.213  1.00 76.93 LIG-0.65  OA
ATOM     51 OD2  ASP D   3     -14.917 -37.335  23.179  1.00 81.56 LIG-0.65  OA
ENDBRANCH 48 49
ENDBRANCH 41 48
ENDBRANCH 39 41
ENDBRANCH 32 37
ENDBRANCH 30 32
ENDBRANCH 1 28
TORSDOF 21
ENDMDL
MODEL 31
USER: ADFR SOLUTION from run 70
USER: SCORE 15.149265 LL:  -3.820 LR: -12.834 RR:   0.000 FEB:  -6.569
USER: RMSD 8.979932
USER: SEED 69
USER: STATUS no improvement in best in 19 clusters for 5 generations
USER: GENES 23
USER: genes 0 Translation |==|  0.59227 0.68333 0.32359
USER: genes 1 Rotation |==|  0.70498 0.09861 0.69460 0.59488
USER: genes 2 Torsion [C]-CA--CB-[CG] |==|  0.46153
USER: genes 3 Torsion [CA]-CB--CG-[CD1] |==|  0.99032
USER: genes 4 Torsion [N]-CA--C-[N] |==|  0.36269
USER: genes 5 Torsion [C]-N--CA-[C] |==|  0.52292
USER: genes 6 Torsion [N]-CA--C-[N] |==|  0.05529
USER: genes 7 Torsion [C]-N--CA-[C] |==|  0.66033
USER: genes 8 Torsion [N]-CA--C-[O] |==|  0.72320
USER: genes 9 Torsion [N]-CA--CB-[CG] |==|  0.87811
USER: genes 10 Torsion [CA]-CB--CG-[CD1] |==|  0.50252
USER: genes 11 Torsion [N]-CA--CB-[CG] |==|  0.62436
USER: genes 12 Torsion [CA]-CB--CG-[ND2] |==|  0.81438
USER: genes 13 Torsion [CB]-CA--N-[C] |==|  0.87413
USER: genes 14 Torsion [N]-C--CA-[N] |==|  0.46578
USER: genes 15 Torsion [C]-CA--CB-[CG] |==|  0.38112
USER: genes 16 Torsion [CA]-CB--CG-[CD1] |==|  0.95609
USER: genes 17 Torsion [C]-CA--N-[C] |==|  0.67725
USER: genes 18 Torsion [N]-C--CA-[N] |==|  0.35177
USER: genes 19 Torsion [C]-CA--N-[C] |==|  0.83000
USER: genes 20 Torsion [N]-C--CA-[N] |==|  0.35430
USER: genes 21 Torsion [C]-CA--CB-[CG] |==|  0.17984
USER: genes 22 Torsion [CA]-CB--CG-[OD1] |==|  0.00384
ROOT
ATOM      1  CA  LEU D   5      -3.548 -32.949  13.342  1.00 45.78 LIG 0.18  C 
ENDROOT
BRANCH 1 2
ATOM      2  CB  LEU D   5      -3.218 -31.504  12.981  1.00 44.83 LIG 0.04  C 
BRANCH 2 3
ATOM      3  CG  LEU D   5      -4.134 -30.780  12.003  1.00 46.71 LIG-0.02  C 
ATOM      4  CD1 LEU D   5      -5.195 -31.750  11.510  1.00 43.35 LIG 0.01  C 
ATOM      5  CD2 LEU D   5      -4.784 -29.556  12.649  1.00 50.41 LIG 0.01  C 
ENDBRANCH 2 3
ENDBRANCH 1 2
BRANCH 1 6
ATOM      6  C   LEU D   5      -2.329 -33.538  14.033  1.00 49.70 LIG 0.24  C 
ATOM      7  N   ASN D   6      -1.637 -34.420  13.309  1.00 52.00 LIG-0.35  N 
ATOM      8 H    ASN D   6      -1.895 -34.702  12.539  1.00 52.00 LIG 0.16  HD
ATOM      9 O    LEU D   5      -2.006 -33.162  15.175  1.00 48.20 LIG-0.27  OA
BRANCH 7 10
ATOM     10  CA  ASN D   6      -0.366 -34.999  13.749  1.00 59.27 LIG 0.18  C 
BRANCH 10 11
ATOM     11  C   ASN D   6       0.241 -35.801  12.593  1.00 60.71 LIG 0.24  C 
ATOM     12  N   LEU D   7      -0.205 -35.512  11.370  1.00 62.75 LIG-0.35  N 
ATOM     13 H    LEU D   7      -0.715 -34.841  11.197  1.00 62.75 LIG 0.16  HD
ATOM     14 O    ASN D   6       1.097 -36.663  12.809  1.00 63.11 LIG-0.27  OA
BRANCH 12 15
ATOM     15  CA  LEU D   7       0.137 -36.321  10.193  1.00 66.71 LIG 0.16  C 
BRANCH 15 16
ATOM     16  C   LEU D   7       0.826 -35.518   9.085  1.00 66.58 LIG 0.22  C 
ATOM     17 O    LEU D   7       0.196 -35.116   8.113  1.00 70.30 LIG-0.29  OA
ENDBRANCH 15 16
BRANCH 15 18
ATOM     18  CB  LEU D   7      -1.134 -36.992   9.654  1.00 67.13 LIG 0.04  C 
BRANCH 18 19
ATOM     19  CG  LEU D   7      -2.043 -37.602  10.731  1.00 64.50 LIG-0.02  C 
ATOM     20  CD1 LEU D   7      -3.262 -38.262  10.097  1.00 64.54 LIG 0.01  C 
ATOM     21  CD2 LEU D   7      -1.276 -38.592  11.605  1.00 62.99 LIG 0.01  C 
ENDBRANCH 18 19
ENDBRANCH 15 18
ENDBRANCH 12 15
ENDBRANCH 10 11
BRANCH 10 22
ATOM     22  CB  ASN D   6      -0.601 -35.885  14.982  1.00 63.11 LIG 0.14  C 
BRANCH 22 23
ATOM     23  CG  ASN D   6       0.430 -35.660  16.077  1.00 71.29 LIG 0.22  C 
ATOM     24  ND2 ASN D   6       1.680 -36.030  15.794  1.00 72.89 LIG-0.37  N 
ATOM     25 21HD ASN D   6       2.301 -35.931  16.381  1.00 72.89 LIG 0.16  HD
ATOM     26 22HD ASN D   6       1.865 -36.370  15.025  1.00 72.89 LIG 0.16  HD
ATOM     27 OD1  ASN D   6       0.111 -35.169  17.167  1.00 74.05 LIG-0.27  OA
ENDBRANCH 22 23
ENDBRANCH 10 22
ENDBRANCH 7 10
ENDBRANCH 1 6
BRANCH 1 28
ATOM     28  N   LEU D   5      -4.739 -33.026  14.204  1.00 43.46 LIG-0.35  N 
ATOM     29 H    LEU D   5      -5.302 -33.634  13.971  1.00 43.46 LIG 0.16  HD
ATOM     30  C   LEU D   4      -4.915 -32.221  15.247  1.00 41.34 LIG 0.24  C 
ATOM     31 O    LEU D   4      -4.136 -31.328  15.546  1.00 44.89 LIG-0.27  OA
BRANCH 30 32
ATOM     32  CA  LEU D   4      -6.099 -32.490  16.128  1.00 41.83 LIG 0.18  C 
BRANCH 32 33
ATOM     33  CB  LEU D   4      -7.383 -32.175  15.339  1.00 37.92 LIG 0.04  C 
BRANCH 33 34
ATOM     34  CG  LEU D   4      -8.519 -33.181  15.493  1.00 37.44 LIG-0.02  C 
ATOM     35  CD1 LEU D   4      -7.981 -34.469  16.091  1.00 34.88 LIG 0.01  C 
ATOM     36  CD2 LEU D   4      -9.633 -32.611  16.374  1.00 37.22 LIG 0.01  C 
ENDBRANCH 33 34
ENDBRANCH 32 33
BRANCH 32 37
ATOM     37  N   LEU D   4      -6.061 -31.753  17.394  1.00 45.71 LIG-0.35  N 
ATOM     38 H    LEU D   4      -6.095 -30.897  17.313  1.00 45.71 LIG 0.16  HD
ATOM     39  C   ASP D   3      -5.979 -32.393  18.559  1.00 59.12 LIG 0.24  C 
ATOM     40 O    ASP D   3      -5.786 -33.610  18.653  1.00 63.71 LIG-0.27  OA
BRANCH 39 41
ATOM     41  CA  ASP D   3      -6.081 -31.546  19.824  1.00 63.74 LIG 0.19  C 
BRANCH 41 42
ATOM     42  N   ASP D   3      -7.107 -32.026  20.742  1.00 62.73 LIG-0.35  N 
ATOM     43 H    ASP D   3      -6.811 -32.267  21.513  1.00 62.73 LIG 0.16  HD
ATOM     44  C   GLY D   2      -8.385 -32.076  20.389  1.00 63.13 LIG 0.25  C 
ATOM     45 O    GLY D   2      -8.784 -31.787  19.259  1.00 65.69 LIG-0.27  OA
BRANCH 44 46
ATOM     46  CA  GLY D   2      -9.354 -32.521  21.464  1.00 64.97 LIG 0.47  C 
ATOM     47  N   GLY D   2     -10.480 -31.556  21.634  1.00 67.04 LIG 0.61  N 
ENDBRANCH 44 46
ENDBRANCH 41 42
BRANCH 41 48
ATOM     48  CB  ASP D   3      -4.714 -31.470  20.516  1.00 68.02 LIG 0.15  C 
BRANCH 48 49
ATOM     49  CG  ASP D   3      -3.680 -30.750  19.683  1.00 72.98 LIG 0.17  C 
ATOM     50 OD1  ASP D   3      -4.022 -30.282  18.575  1.00 76.93 LIG-0.65  OA
ATOM     51 OD2  ASP D   3      -2.516 -30.660  20.135  1.00 81.56 LIG-0.65  OA
ENDBRANCH 48 49
ENDBRANCH 41 48
ENDBRANCH 39 41
ENDBRANCH 32 37
ENDBRANCH 30 32
ENDBRANCH 1 28
TORSDOF 21
ENDMDL
MODEL 32
USER: ADFR SOLUTION from run 33
USER: SCORE 15.068713 LL:  -3.589 LR: -12.822 RR:   0.000 FEB:  -6.557
USER: RMSD 9.820057
USER: SEED 32
USER: STATUS no improvement in best in 18 clusters for 5 generations
USER: GENES 23
USER: genes 0 Translation |==|  0.60680 0.66253 0.31656
USER: genes 1 Rotation |==|  0.68855 0.05954 0.60185 0.60034
USER: genes 2 Torsion [C]-CA--CB-[CG] |==|  0.59479
USER: genes 3 Torsion [CA]-CB--CG-[CD1] |==|  0.36694
USER: genes 4 Torsion [N]-CA--C-[N] |==|  0.41076
USER: genes 5 Torsion [C]-N--CA-[C] |==|  0.66765
USER: genes 6 Torsion [N]-CA--C-[N] |==|  0.82896
USER: genes 7 Torsion [C]-N--CA-[C] |==|  0.77602
USER: genes 8 Torsion [N]-CA--C-[O] |==|  0.68121
USER: genes 9 Torsion [N]-CA--CB-[CG] |==|  0.84732
USER: genes 10 Torsion [CA]-CB--CG-[CD1] |==|  0.92501
USER: genes 11 Torsion [N]-CA--CB-[CG] |==|  0.99695
USER: genes 12 Torsion [CA]-CB--CG-[ND2] |==|  0.75361
USER: genes 13 Torsion [CB]-CA--N-[C] |==|  0.84444
USER: genes 14 Torsion [N]-C--CA-[N] |==|  0.62220
USER: genes 15 Torsion [C]-CA--CB-[CG] |==|  0.65397
USER: genes 16 Torsion [CA]-CB--CG-[CD1] |==|  0.21124
USER: genes 17 Torsion [C]-CA--N-[C] |==|  0.66501
USER: genes 18 Torsion [N]-C--CA-[N] |==|  0.34452
USER: genes 19 Torsion [C]-CA--N-[C] |==|  0.76439
USER: genes 20 Torsion [N]-C--CA-[N] |==|  0.33790
USER: genes 21 Torsion [C]-CA--CB-[CG] |==|  0.16989
USER: genes 22 Torsion [CA]-CB--CG-[OD1] |==|  0.03020
ROOT
ATOM      1  CA  LEU D   5      -3.232 -33.371  13.221  1.00 45.78 LIG 0.18  C 
ENDROOT
BRANCH 1 2
ATOM      2  CB  LEU D   5      -2.634 -31.969  13.296  1.00 44.83 LIG 0.04  C 
BRANCH 2 3
ATOM      3  CG  LEU D   5      -3.508 -30.843  13.833  1.00 46.71 LIG-0.02  C 
ATOM      4  CD1 LEU D   5      -2.719 -30.056  14.868  1.00 43.35 LIG 0.01  C 
ATOM      5  CD2 LEU D   5      -3.985 -29.922  12.709  1.00 50.41 LIG 0.01  C 
ENDBRANCH 2 3
ENDBRANCH 1 2
BRANCH 1 6
ATOM      6  C   LEU D   5      -2.114 -34.360  13.503  1.00 49.70 LIG 0.24  C 
ATOM      7  N   ASN D   6      -1.440 -34.777  12.430  1.00 52.00 LIG-0.35  N 
ATOM      8 H    ASN D   6      -1.663 -34.571  11.625  1.00 52.00 LIG 0.16  HD
ATOM      9 O    LEU D   5      -1.847 -34.696  14.672  1.00 48.20 LIG-0.27  OA
BRANCH 7 10
ATOM     10  CA  ASN D   6      -0.252 -35.629  12.508  1.00 59.27 LIG 0.18  C 
BRANCH 10 11
ATOM     11  C   ASN D   6       0.933 -34.886  11.880  1.00 60.71 LIG 0.24  C 
ATOM     12  N   LEU D   7       0.820 -34.570  10.590  1.00 62.75 LIG-0.35  N 
ATOM     13 H    LEU D   7       0.092 -34.660  10.142  1.00 62.75 LIG 0.16  HD
ATOM     14 O    ASN D   6       1.927 -34.607  12.556  1.00 63.11 LIG-0.27  OA
BRANCH 12 15
ATOM     15  CA  LEU D   7       1.942 -34.035   9.807  1.00 66.71 LIG 0.16  C 
BRANCH 15 16
ATOM     16  C   LEU D   7       2.166 -32.534  10.018  1.00 66.58 LIG 0.22  C 
ATOM     17 O    LEU D   7       2.001 -31.737   9.100  1.00 70.30 LIG-0.29  OA
ENDBRANCH 15 16
BRANCH 15 18
ATOM     18  CB  LEU D   7       1.710 -34.336   8.320  1.00 67.13 LIG 0.04  C 
BRANCH 18 19
ATOM     19  CG  LEU D   7       1.477 -35.819   7.995  1.00 64.50 LIG-0.02  C 
ATOM     20  CD1 LEU D   7       2.155 -36.708   9.030  1.00 64.54 LIG 0.01  C 
ATOM     21  CD2 LEU D   7      -0.013 -36.135   7.892  1.00 62.99 LIG 0.01  C 
ENDBRANCH 18 19
ENDBRANCH 15 18
ENDBRANCH 12 15
ENDBRANCH 10 11
BRANCH 10 22
ATOM     22  CB  ASN D   6      -0.521 -36.961  11.792  1.00 63.11 LIG 0.14  C 
BRANCH 22 23
ATOM     23  CG  ASN D   6      -1.928 -37.053  11.225  1.00 71.29 LIG 0.22  C 
ATOM     24  ND2 ASN D   6      -2.863 -37.541  12.043  1.00 72.89 LIG-0.37  N 
ATOM     25 21HD ASN D   6      -3.675 -37.619  11.770  1.00 72.89 LIG 0.16  HD
ATOM     26 22HD ASN D   6      -2.654 -37.777  12.843  1.00 72.89 LIG 0.16  HD
ATOM     27 OD1  ASN D   6      -2.177 -36.700  10.065  1.00 74.05 LIG-0.27  OA
ENDBRANCH 22 23
ENDBRANCH 10 22
ENDBRANCH 7 10
ENDBRANCH 1 6
BRANCH 1 28
ATOM     28  N   LEU D   5      -4.341 -33.531  14.176  1.00 43.46 LIG-0.35  N 
ATOM     29 H    LEU D   5      -5.081 -33.780  13.816  1.00 43.46 LIG 0.16  HD
ATOM     30  C   LEU D   4      -4.195 -33.306  15.478  1.00 41.34 LIG 0.24  C 
ATOM     31 O    LEU D   4      -3.154 -32.907  15.979  1.00 44.89 LIG-0.27  OA
BRANCH 30 32
ATOM     32  CA  LEU D   4      -5.358 -33.638  16.366  1.00 41.83 LIG 0.18  C 
BRANCH 32 33
ATOM     33  CB  LEU D   4      -6.591 -33.904  15.483  1.00 37.92 LIG 0.04  C 
BRANCH 33 34
ATOM     34  CG  LEU D   4      -7.822 -33.058  15.792  1.00 37.44 LIG-0.02  C 
ATOM     35  CD1 LEU D   4      -7.625 -31.654  15.250  1.00 34.88 LIG 0.01  C 
ATOM     36  CD2 LEU D   4      -9.080 -33.689  15.189  1.00 37.22 LIG 0.01  C 
ENDBRANCH 33 34
ENDBRANCH 32 33
BRANCH 32 37
ATOM     37  N   LEU D   4      -5.637 -32.608  17.369  1.00 45.71 LIG-0.35  N 
ATOM     38 H    LEU D   4      -5.818 -31.831  17.047  1.00 45.71 LIG 0.16  HD
ATOM     39  C   ASP D   3      -5.603 -32.890  18.671  1.00 59.12 LIG 0.24  C 
ATOM     40 O    ASP D   3      -5.202 -33.969  19.121  1.00 63.71 LIG-0.27  OA
BRANCH 39 41
ATOM     41  CA  ASP D   3      -6.038 -31.787  19.630  1.00 63.74 LIG 0.19  C 
BRANCH 41 42
ATOM     42  N   ASP D   3      -7.118 -32.205  20.516  1.00 62.73 LIG-0.35  N 
ATOM     43 H    ASP D   3      -6.858 -32.490  21.285  1.00 62.73 LIG 0.16  HD
ATOM     44  C   GLY D   2      -8.388 -32.139  20.140  1.00 63.13 LIG 0.25  C 
ATOM     45 O    GLY D   2      -8.740 -31.787  19.011  1.00 65.69 LIG-0.27  OA
BRANCH 44 46
ATOM     46  CA  GLY D   2      -9.413 -32.531  21.184  1.00 64.97 LIG 0.47  C 
ATOM     47  N   GLY D   2     -10.375 -31.426  21.464  1.00 67.04 LIG 0.61  N 
ENDBRANCH 44 46
ENDBRANCH 41 42
BRANCH 41 48
ATOM     48  CB  ASP D   3      -4.832 -31.282  20.432  1.00 68.02 LIG 0.15  C 
BRANCH 48 49
ATOM     49  CG  ASP D   3      -3.755 -30.691  19.553  1.00 72.98 LIG 0.17  C 
ATOM     50 OD1  ASP D   3      -4.014 -30.478  18.349  1.00 76.93 LIG-0.65  OA
ATOM     51 OD2  ASP D   3      -2.641 -30.447  20.067  1.00 81.56 LIG-0.65  OA
ENDBRANCH 48 49
ENDBRANCH 41 48
ENDBRANCH 39 41
ENDBRANCH 32 37
ENDBRANCH 30 32
ENDBRANCH 1 28
TORSDOF 21
ENDMDL
MODEL 33
USER: ADFR SOLUTION from run 35
USER: SCORE 16.196953 LL:  -4.050 LR: -12.788 RR:   0.000 FEB:  -6.523
USER: RMSD 8.713201
USER: SEED 34
USER: STATUS no improvement in best in 15 clusters for 5 generations
USER: GENES 23
USER: genes 0 Translation |==|  0.43614 0.64135 0.45273
USER: genes 1 Rotation |==|  0.20510 0.82698 0.58399 0.72150
USER: genes 2 Torsion [C]-CA--CB-[CG] |==|  0.31984
USER: genes 3 Torsion [CA]-CB--CG-[CD1] |==|  0.95270
USER: genes 4 Torsion [N]-CA--C-[N] |==|  0.15356
USER: genes 5 Torsion [C]-N--CA-[C] |==|  0.76111
USER: genes 6 Torsion [N]-CA--C-[N] |==|  0.03089
USER: genes 7 Torsion [C]-N--CA-[C] |==|  0.62333
USER: genes 8 Torsion [N]-CA--C-[O] |==|  0.07639
USER: genes 9 Torsion [N]-CA--CB-[CG] |==|  0.15182
USER: genes 10 Torsion [CA]-CB--CG-[CD1] |==|  0.46626
USER: genes 11 Torsion [N]-CA--CB-[CG] |==|  0.22129
USER: genes 12 Torsion [CA]-CB--CG-[ND2] |==|  0.44862
USER: genes 13 Torsion [CB]-CA--N-[C] |==|  0.16259
USER: genes 14 Torsion [N]-C--CA-[N] |==|  0.20673
USER: genes 15 Torsion [C]-CA--CB-[CG] |==|  0.53536
USER: genes 16 Torsion [CA]-CB--CG-[CD1] |==|  0.88523
USER: genes 17 Torsion [C]-CA--N-[C] |==|  0.77179
USER: genes 18 Torsion [N]-C--CA-[N] |==|  0.37156
USER: genes 19 Torsion [C]-CA--N-[C] |==|  0.79493
USER: genes 20 Torsion [N]-C--CA-[N] |==|  0.15016
USER: genes 21 Torsion [C]-CA--CB-[CG] |==|  0.34974
USER: genes 22 Torsion [CA]-CB--CG-[OD1] |==|  0.24561
ROOT
ATOM      1  CA  LEU D   5      -6.944 -33.800  15.570  1.00 45.78 LIG 0.18  C 
ENDROOT
BRANCH 1 2
ATOM      2  CB  LEU D   5      -7.780 -33.640  16.836  1.00 44.83 LIG 0.04  C 
BRANCH 2 3
ATOM      3  CG  LEU D   5      -8.352 -32.264  17.151  1.00 46.71 LIG-0.02  C 
ATOM      4  CD1 LEU D   5      -7.611 -31.222  16.329  1.00 43.35 LIG 0.01  C 
ATOM      5  CD2 LEU D   5      -9.853 -32.205  16.866  1.00 50.41 LIG 0.01  C 
ENDBRANCH 2 3
ENDBRANCH 1 2
BRANCH 1 6
ATOM      6  C   LEU D   5      -5.528 -34.149  15.997  1.00 49.70 LIG 0.24  C 
ATOM      7  N   ASN D   6      -4.674 -34.379  14.998  1.00 52.00 LIG-0.35  N 
ATOM      8 H    ASN D   6      -4.913 -34.409  14.173  1.00 52.00 LIG 0.16  HD
ATOM      9 O    LEU D   5      -5.216 -34.162  17.203  1.00 48.20 LIG-0.27  OA
BRANCH 7 10
ATOM     10  CA  ASN D   6      -3.242 -34.604  15.202  1.00 59.27 LIG 0.18  C 
BRANCH 10 11
ATOM     11  C   ASN D   6      -2.528 -33.248  15.249  1.00 60.71 LIG 0.24  C 
ATOM     12  N   LEU D   7      -3.307 -32.170  15.336  1.00 62.75 LIG-0.35  N 
ATOM     13 H    LEU D   7      -4.154 -32.206  15.477  1.00 62.75 LIG 0.16  HD
ATOM     14 O    ASN D   6      -1.297 -33.187  15.210  1.00 63.11 LIG-0.27  OA
BRANCH 12 15
ATOM     15  CA  LEU D   7      -2.783 -30.804  15.197  1.00 66.71 LIG 0.16  C 
BRANCH 15 16
ATOM     16  C   LEU D   7      -3.332 -29.834  16.249  1.00 66.58 LIG 0.22  C 
ATOM     17 O    LEU D   7      -3.695 -30.237  17.348  1.00 70.30 LIG-0.29  OA
ENDBRANCH 15 16
BRANCH 15 18
ATOM     18  CB  LEU D   7      -3.086 -30.287  13.784  1.00 67.13 LIG 0.04  C 
BRANCH 18 19
ATOM     19  CG  LEU D   7      -4.567 -30.353  13.382  1.00 64.50 LIG-0.02  C 
ATOM     20  CD1 LEU D   7      -4.813 -29.555  12.107  1.00 64.54 LIG 0.01  C 
ATOM     21  CD2 LEU D   7      -5.034 -31.797  13.225  1.00 62.99 LIG 0.01  C 
ENDBRANCH 18 19
ENDBRANCH 15 18
ENDBRANCH 12 15
ENDBRANCH 10 11
BRANCH 10 22
ATOM     22  CB  ASN D   6      -2.691 -35.487  14.072  1.00 63.11 LIG 0.14  C 
BRANCH 22 23
ATOM     23  CG  ASN D   6      -2.425 -34.712  12.792  1.00 71.29 LIG 0.22  C 
ATOM     24  ND2 ASN D   6      -1.609 -35.292  11.909  1.00 72.89 LIG-0.37  N 
ATOM     25 21HD ASN D   6      -1.421 -34.893  11.171  1.00 72.89 LIG 0.16  HD
ATOM     26 22HD ASN D   6      -1.271 -36.064  12.079  1.00 72.89 LIG 0.16  HD
ATOM     27 OD1  ASN D   6      -2.936 -33.602  12.597  1.00 74.05 LIG-0.27  OA
ENDBRANCH 22 23
ENDBRANCH 10 22
ENDBRANCH 7 10
ENDBRANCH 1 6
BRANCH 1 28
ATOM     28  N   LEU D   5      -7.506 -34.835  14.686  1.00 43.46 LIG-0.35  N 
ATOM     29 H    LEU D   5      -6.964 -35.480  14.512  1.00 43.46 LIG 0.16  HD
ATOM     30  C   LEU D   4      -8.744 -34.766  14.208  1.00 41.34 LIG 0.24  C 
ATOM     31 O    LEU D   4      -9.495 -33.825  14.420  1.00 44.89 LIG-0.27  OA
BRANCH 30 32
ATOM     32  CA  LEU D   4      -9.248 -35.949  13.435  1.00 41.83 LIG 0.18  C 
BRANCH 32 33
ATOM     33  CB  LEU D   4     -10.460 -35.508  12.594  1.00 37.92 LIG 0.04  C 
BRANCH 33 34
ATOM     34  CG  LEU D   4     -11.285 -36.635  11.979  1.00 37.44 LIG-0.02  C 
ATOM     35  CD1 LEU D   4     -10.357 -37.712  11.445  1.00 34.88 LIG 0.01  C 
ATOM     36  CD2 LEU D   4     -12.248 -37.228  13.011  1.00 37.22 LIG 0.01  C 
ENDBRANCH 33 34
ENDBRANCH 32 33
BRANCH 32 37
ATOM     37  N   LEU D   4      -9.579 -37.099  14.281  1.00 45.71 LIG-0.35  N 
ATOM     38 H    LEU D   4     -10.414 -37.175  14.473  1.00 45.71 LIG 0.16  HD
ATOM     39  C   ASP D   3      -8.633 -37.939  14.699  1.00 59.12 LIG 0.24  C 
ATOM     40 O    ASP D   3      -7.425 -37.736  14.534  1.00 63.71 LIG-0.27  OA
BRANCH 39 41
ATOM     41  CA  ASP D   3      -9.094 -39.177  15.461  1.00 63.74 LIG 0.19  C 
BRANCH 41 42
ATOM     42  N   ASP D   3      -8.445 -40.397  14.997  1.00 62.73 LIG-0.35  N 
ATOM     43 H    ASP D   3      -7.847 -40.709  15.532  1.00 62.73 LIG 0.16  HD
ATOM     44  C   GLY D   2      -8.771 -40.960  13.841  1.00 63.13 LIG 0.25  C 
ATOM     45 O    GLY D   2      -9.585 -40.466  13.057  1.00 65.69 LIG-0.27  OA
BRANCH 44 46
ATOM     46  CA  GLY D   2      -8.076 -42.265  13.516  1.00 64.97 LIG 0.47  C 
ATOM     47  N   GLY D   2      -8.238 -43.270  14.607  1.00 67.04 LIG 0.61  N 
ENDBRANCH 44 46
ENDBRANCH 41 42
BRANCH 41 48
ATOM     48  CB  ASP D   3      -8.879 -38.977  16.967  1.00 68.02 LIG 0.15  C 
BRANCH 48 49
ATOM     49  CG  ASP D   3     -10.138 -39.206  17.769  1.00 72.98 LIG 0.17  C 
ATOM     50 OD1  ASP D   3     -10.394 -40.364  18.166  1.00 76.93 LIG-0.65  OA
ATOM     51 OD2  ASP D   3     -10.881 -38.225  17.995  1.00 81.56 LIG-0.65  OA
ENDBRANCH 48 49
ENDBRANCH 41 48
ENDBRANCH 39 41
ENDBRANCH 32 37
ENDBRANCH 30 32
ENDBRANCH 1 28
TORSDOF 21
ENDMDL
MODEL 34
USER: ADFR SOLUTION from run 115
USER: SCORE 16.148734 LL:  -4.583 LR: -12.776 RR:   0.000 FEB:  -6.512
USER: RMSD 2.851844
USER: SEED 114
USER: STATUS no improvement in best in 6 clusters for 5 generations
USER: GENES 23
USER: genes 0 Translation |==|  0.35059 0.58617 0.40024
USER: genes 1 Rotation |==|  0.43491 0.39246 0.50792 0.98387
USER: genes 2 Torsion [C]-CA--CB-[CG] |==|  0.33508
USER: genes 3 Torsion [CA]-CB--CG-[CD1] |==|  0.70507
USER: genes 4 Torsion [N]-CA--C-[N] |==|  0.35761
USER: genes 5 Torsion [C]-N--CA-[C] |==|  0.74055
USER: genes 6 Torsion [N]-CA--C-[N] |==|  0.00271
USER: genes 7 Torsion [C]-N--CA-[C] |==|  0.65736
USER: genes 8 Torsion [N]-CA--C-[O] |==|  0.97480
USER: genes 9 Torsion [N]-CA--CB-[CG] |==|  0.74178
USER: genes 10 Torsion [CA]-CB--CG-[CD1] |==|  0.57080
USER: genes 11 Torsion [N]-CA--CB-[CG] |==|  0.59440
USER: genes 12 Torsion [CA]-CB--CG-[ND2] |==|  0.90194
USER: genes 13 Torsion [CB]-CA--N-[C] |==|  0.23195
USER: genes 14 Torsion [N]-C--CA-[N] |==|  0.93683
USER: genes 15 Torsion [C]-CA--CB-[CG] |==|  0.46193
USER: genes 16 Torsion [CA]-CB--CG-[CD1] |==|  0.59990
USER: genes 17 Torsion [C]-CA--N-[C] |==|  0.79036
USER: genes 18 Torsion [N]-C--CA-[N] |==|  0.87225
USER: genes 19 Torsion [C]-CA--N-[C] |==|  0.81047
USER: genes 20 Torsion [N]-C--CA-[N] |==|  0.15715
USER: genes 21 Torsion [C]-CA--CB-[CG] |==|  0.35814
USER: genes 22 Torsion [CA]-CB--CG-[OD1] |==|  0.85397
ROOT
ATOM      1  CA  LEU D   5      -8.805 -34.917  14.664  1.00 45.78 LIG 0.18  C 
ENDROOT
BRANCH 1 2
ATOM      2  CB  LEU D   5      -9.467 -34.827  13.292  1.00 44.83 LIG 0.04  C 
BRANCH 2 3
ATOM      3  CG  LEU D   5     -10.684 -33.925  13.139  1.00 46.71 LIG-0.02  C 
ATOM      4  CD1 LEU D   5     -11.929 -34.791  13.032  1.00 43.35 LIG 0.01  C 
ATOM      5  CD2 LEU D   5     -10.808 -32.951  14.312  1.00 50.41 LIG 0.01  C 
ENDBRANCH 2 3
ENDBRANCH 1 2
BRANCH 1 6
ATOM      6  C   LEU D   5      -8.853 -36.372  15.101  1.00 49.70 LIG 0.24  C 
ATOM      7  N   ASN D   6      -9.696 -36.637  16.101  1.00 52.00 LIG-0.35  N 
ATOM      8 H    ASN D   6     -10.125 -36.026  16.528  1.00 52.00 LIG 0.16  HD
ATOM      9 O    LEU D   5      -8.175 -37.233  14.509  1.00 48.20 LIG-0.27  OA
BRANCH 7 10
ATOM     10  CA  ASN D   6      -9.977 -37.992  16.576  1.00 59.27 LIG 0.18  C 
BRANCH 10 11
ATOM     11  C   ASN D   6     -11.217 -38.525  15.850  1.00 60.71 LIG 0.24  C 
ATOM     12  N   LEU D   7     -11.774 -37.713  14.951  1.00 62.75 LIG-0.35  N 
ATOM     13 H    LEU D   7     -11.414 -36.978  14.688  1.00 62.75 LIG 0.16  HD
ATOM     14 O    ASN D   6     -11.656 -39.650  16.101  1.00 63.11 LIG-0.27  OA
BRANCH 12 15
ATOM     15  CA  LEU D   7     -13.068 -38.004  14.319  1.00 66.71 LIG 0.16  C 
BRANCH 15 16
ATOM     16  C   LEU D   7     -13.000 -38.045  12.789  1.00 66.58 LIG 0.22  C 
ATOM     17 O    LEU D   7     -11.989 -37.688  12.193  1.00 70.30 LIG-0.29  OA
ENDBRANCH 15 16
BRANCH 15 18
ATOM     18  CB  LEU D   7     -14.100 -36.965  14.780  1.00 67.13 LIG 0.04  C 
BRANCH 18 19
ATOM     19  CG  LEU D   7     -14.923 -37.381  16.008  1.00 64.50 LIG-0.02  C 
ATOM     20  CD1 LEU D   7     -16.267 -36.662  16.022  1.00 64.54 LIG 0.01  C 
ATOM     21  CD2 LEU D   7     -15.110 -38.895  16.062  1.00 62.99 LIG 0.01  C 
ENDBRANCH 18 19
ENDBRANCH 15 18
ENDBRANCH 12 15
ENDBRANCH 10 11
BRANCH 10 22
ATOM     22  CB  ASN D   6     -10.185 -37.975  18.098  1.00 63.11 LIG 0.14  C 
BRANCH 22 23
ATOM     23  CG  ASN D   6      -9.680 -39.237  18.779  1.00 71.29 LIG 0.22  C 
ATOM     24  ND2 ASN D   6      -9.825 -40.374  18.096  1.00 72.89 LIG-0.37  N 
ATOM     25 21HD ASN D   6      -9.561 -41.117  18.438  1.00 72.89 LIG 0.16  HD
ATOM     26 22HD ASN D   6     -10.182 -40.363  17.314  1.00 72.89 LIG 0.16  HD
ATOM     27 OD1  ASN D   6      -9.172 -39.197  19.907  1.00 74.05 LIG-0.27  OA
ENDBRANCH 22 23
ENDBRANCH 10 22
ENDBRANCH 7 10
ENDBRANCH 1 6
BRANCH 1 28
ATOM     28  N   LEU D   5      -7.420 -34.418  14.623  1.00 43.46 LIG-0.35  N 
ATOM     29 H    LEU D   5      -6.827 -35.034  14.529  1.00 43.46 LIG 0.16  HD
ATOM     30  C   LEU D   4      -7.128 -33.125  14.721  1.00 41.34 LIG 0.24  C 
ATOM     31 O    LEU D   4      -7.969 -32.257  14.900  1.00 44.89 LIG-0.27  OA
BRANCH 30 32
ATOM     32  CA  LEU D   4      -5.694 -32.729  14.524  1.00 41.83 LIG 0.18  C 
BRANCH 32 33
ATOM     33  CB  LEU D   4      -5.530 -32.162  13.103  1.00 37.92 LIG 0.04  C 
BRANCH 33 34
ATOM     34  CG  LEU D   4      -4.228 -31.414  12.834  1.00 37.44 LIG-0.02  C 
ATOM     35  CD1 LEU D   4      -4.494 -30.247  11.901  1.00 34.88 LIG 0.01  C 
ATOM     36  CD2 LEU D   4      -3.607 -30.917  14.142  1.00 37.22 LIG 0.01  C 
ENDBRANCH 33 34
ENDBRANCH 32 33
BRANCH 32 37
ATOM     37  N   LEU D   4      -4.750 -33.823  14.771  1.00 45.71 LIG-0.35  N 
ATOM     38 H    LEU D   4      -4.413 -34.173  14.061  1.00 45.71 LIG 0.16  HD
ATOM     39  C   ASP D   3      -4.462 -34.215  16.011  1.00 59.12 LIG 0.24  C 
ATOM     40 O    ASP D   3      -5.060 -33.800  17.010  1.00 63.71 LIG-0.27  OA
BRANCH 39 41
ATOM     41  CA  ASP D   3      -3.369 -35.267  16.168  1.00 63.74 LIG 0.19  C 
BRANCH 41 42
ATOM     42  N   ASP D   3      -3.516 -36.376  15.233  1.00 62.73 LIG-0.35  N 
ATOM     43 H    ASP D   3      -2.903 -36.418  14.631  1.00 62.73 LIG 0.16  HD
ATOM     44  C   GLY D   2      -4.523 -37.234  15.327  1.00 63.13 LIG 0.25  C 
ATOM     45 O    GLY D   2      -5.429 -37.123  16.157  1.00 65.69 LIG-0.27  OA
BRANCH 44 46
ATOM     46  CA  GLY D   2      -4.514 -38.382  14.340  1.00 64.97 LIG 0.47  C 
ATOM     47  N   GLY D   2      -3.252 -39.175  14.418  1.00 67.04 LIG 0.61  N 
ENDBRANCH 44 46
ENDBRANCH 41 42
BRANCH 41 48
ATOM     48  CB  ASP D   3      -1.988 -34.614  16.036  1.00 68.02 LIG 0.15  C 
BRANCH 48 49
ATOM     49  CG  ASP D   3      -1.066 -34.967  17.179  1.00 72.98 LIG 0.17  C 
ATOM     50 OD1  ASP D   3      -1.466 -34.787  18.350  1.00 76.93 LIG-0.65  OA
ATOM     51 OD2  ASP D   3       0.069 -35.418  16.905  1.00 81.56 LIG-0.65  OA
ENDBRANCH 48 49
ENDBRANCH 41 48
ENDBRANCH 39 41
ENDBRANCH 32 37
ENDBRANCH 30 32
ENDBRANCH 1 28
TORSDOF 21
ENDMDL
MODEL 35
USER: ADFR SOLUTION from run 162
USER: SCORE 16.114231 LL:  -4.468 LR: -12.773 RR:   0.000 FEB:  -6.509
USER: RMSD 9.036230
USER: SEED 161
USER: STATUS no improvement in best in 16 clusters for 5 generations
USER: GENES 23
USER: genes 0 Translation |==|  0.38729 0.63510 0.35648
USER: genes 1 Rotation |==|  0.10685 0.61665 0.24700 0.63347
USER: genes 2 Torsion [C]-CA--CB-[CG] |==|  0.78174
USER: genes 3 Torsion [CA]-CB--CG-[CD1] |==|  0.26761
USER: genes 4 Torsion [N]-CA--C-[N] |==|  0.14308
USER: genes 5 Torsion [C]-N--CA-[C] |==|  0.66815
USER: genes 6 Torsion [N]-CA--C-[N] |==|  0.07923
USER: genes 7 Torsion [C]-N--CA-[C] |==|  0.82909
USER: genes 8 Torsion [N]-CA--C-[O] |==|  0.45372
USER: genes 9 Torsion [N]-CA--CB-[CG] |==|  0.11895
USER: genes 10 Torsion [CA]-CB--CG-[CD1] |==|  0.76735
USER: genes 11 Torsion [N]-CA--CB-[CG] |==|  0.74740
USER: genes 12 Torsion [CA]-CB--CG-[ND2] |==|  0.10285
USER: genes 13 Torsion [CB]-CA--N-[C] |==|  0.78238
USER: genes 14 Torsion [N]-C--CA-[N] |==|  0.46845
USER: genes 15 Torsion [C]-CA--CB-[CG] |==|  0.92099
USER: genes 16 Torsion [CA]-CB--CG-[CD1] |==|  0.33323
USER: genes 17 Torsion [C]-CA--N-[C] |==|  0.77314
USER: genes 18 Torsion [N]-C--CA-[N] |==|  0.84649
USER: genes 19 Torsion [C]-CA--N-[C] |==|  0.75329
USER: genes 20 Torsion [N]-C--CA-[N] |==|  0.48260
USER: genes 21 Torsion [C]-CA--CB-[CG] |==|  0.75612
USER: genes 22 Torsion [CA]-CB--CG-[OD1] |==|  0.07543
ROOT
ATOM      1  CA  LEU D   5      -8.006 -33.926  13.909  1.00 45.78 LIG 0.18  C 
ENDROOT
BRANCH 1 2
ATOM      2  CB  LEU D   5      -9.313 -33.672  13.164  1.00 44.83 LIG 0.04  C 
BRANCH 2 3
ATOM      3  CG  LEU D   5     -10.621 -34.011  13.867  1.00 46.71 LIG-0.02  C 
ATOM      4  CD1 LEU D   5     -11.177 -32.751  14.509  1.00 43.35 LIG 0.01  C 
ATOM      5  CD2 LEU D   5     -11.637 -34.612  12.896  1.00 50.41 LIG 0.01  C 
ENDBRANCH 2 3
ENDBRANCH 1 2
BRANCH 1 6
ATOM      6  C   LEU D   5      -7.814 -32.787  14.897  1.00 49.70 LIG 0.24  C 
ATOM      7  N   ASN D   6      -6.780 -32.926  15.729  1.00 52.00 LIG-0.35  N 
ATOM      8 H    ASN D   6      -6.299 -33.637  15.767  1.00 52.00 LIG 0.16  HD
ATOM      9 O    LEU D   5      -8.562 -31.791  14.867  1.00 48.20 LIG-0.27  OA
BRANCH 7 10
ATOM     10  CA  ASN D   6      -6.356 -31.881  16.663  1.00 59.27 LIG 0.18  C 
BRANCH 10 11
ATOM     11  C   ASN D   6      -4.915 -31.476  16.333  1.00 60.71 LIG 0.24  C 
ATOM     12  N   LEU D   7      -4.534 -31.615  15.063  1.00 62.75 LIG-0.35  N 
ATOM     13 H    LEU D   7      -5.076 -31.807  14.423  1.00 62.75 LIG 0.16  HD
ATOM     14 O    ASN D   6      -4.168 -31.044  17.215  1.00 63.11 LIG-0.27  OA
BRANCH 12 15
ATOM     15  CA  LEU D   7      -3.139 -31.452  14.635  1.00 66.71 LIG 0.16  C 
BRANCH 15 16
ATOM     16  C   LEU D   7      -2.584 -30.048  14.899  1.00 66.58 LIG 0.22  C 
ATOM     17 O    LEU D   7      -1.376 -29.836  14.885  1.00 70.30 LIG-0.29  OA
ENDBRANCH 15 16
BRANCH 15 18
ATOM     18  CB  LEU D   7      -3.024 -31.800  13.144  1.00 67.13 LIG 0.04  C 
BRANCH 18 19
ATOM     19  CG  LEU D   7      -4.154 -31.241  12.266  1.00 64.50 LIG-0.02  C 
ATOM     20  CD1 LEU D   7      -5.367 -32.162  12.302  1.00 64.54 LIG 0.01  C 
ATOM     21  CD2 LEU D   7      -4.529 -29.822  12.686  1.00 62.99 LIG 0.01  C 
ENDBRANCH 18 19
ENDBRANCH 15 18
ENDBRANCH 12 15
ENDBRANCH 10 11
BRANCH 10 22
ATOM     22  CB  ASN D   6      -6.475 -32.397  18.105  1.00 63.11 LIG 0.14  C 
BRANCH 22 23
ATOM     23  CG  ASN D   6      -7.828 -32.098  18.730  1.00 71.29 LIG 0.22  C 
ATOM     24  ND2 ASN D   6      -8.884 -32.183  17.920  1.00 72.89 LIG-0.37  N 
ATOM     25 21HD ASN D   6      -9.672 -32.018  18.222  1.00 72.89 LIG 0.16  HD
ATOM     26 22HD ASN D   6      -8.777 -32.402  17.095  1.00 72.89 LIG 0.16  HD
ATOM     27 OD1  ASN D   6      -7.928 -31.787  19.924  1.00 74.05 LIG-0.27  OA
ENDBRANCH 22 23
ENDBRANCH 10 22
ENDBRANCH 7 10
ENDBRANCH 1 6
BRANCH 1 28
ATOM     28  N   LEU D   5      -8.028 -35.229  14.595  1.00 43.46 LIG-0.35  N 
ATOM     29 H    LEU D   5      -7.593 -35.848  14.186  1.00 43.46 LIG 0.16  HD
ATOM     30  C   LEU D   4      -8.667 -35.416  15.745  1.00 41.34 LIG 0.24  C 
ATOM     31 O    LEU D   4      -9.323 -34.547  16.300  1.00 44.89 LIG-0.27  OA
BRANCH 30 32
ATOM     32  CA  LEU D   4      -8.499 -36.749  16.414  1.00 41.83 LIG 0.18  C 
BRANCH 32 33
ATOM     33  CB  LEU D   4      -9.171 -37.826  15.543  1.00 37.92 LIG 0.04  C 
BRANCH 33 34
ATOM     34  CG  LEU D   4     -10.344 -37.351  14.691  1.00 37.44 LIG-0.02  C 
ATOM     35  CD1 LEU D   4     -10.038 -37.592  13.223  1.00 34.88 LIG 0.01  C 
ATOM     36  CD2 LEU D   4     -11.632 -38.075  15.090  1.00 37.22 LIG 0.01  C 
ENDBRANCH 33 34
ENDBRANCH 32 33
BRANCH 32 37
ATOM     37  N   LEU D   4      -9.012 -36.780  17.786  1.00 45.71 LIG-0.35  N 
ATOM     38 H    LEU D   4      -9.799 -37.117  17.868  1.00 45.71 LIG 0.16  HD
ATOM     39  C   ASP D   3      -8.286 -36.315  18.801  1.00 59.12 LIG 0.24  C 
ATOM     40 O    ASP D   3      -7.222 -35.706  18.652  1.00 63.71 LIG-0.27  OA
BRANCH 39 41
ATOM     41  CA  ASP D   3      -8.850 -36.514  20.204  1.00 63.74 LIG 0.19  C 
BRANCH 41 42
ATOM     42  N   ASP D   3     -10.194 -35.968  20.354  1.00 62.73 LIG-0.35  N 
ATOM     43 H    ASP D   3     -10.826 -36.527  20.187  1.00 62.73 LIG 0.16  HD
ATOM     44  C   GLY D   2     -10.394 -34.709  20.720  1.00 63.13 LIG 0.25  C 
ATOM     45 O    GLY D   2      -9.476 -33.903  20.895  1.00 65.69 LIG-0.27  OA
BRANCH 44 46
ATOM     46  CA  GLY D   2     -11.837 -34.293  20.913  1.00 64.97 LIG 0.47  C 
ATOM     47  N   GLY D   2     -11.950 -32.912  21.466  1.00 67.04 LIG 0.61  N 
ENDBRANCH 44 46
ENDBRANCH 41 42
BRANCH 41 48
ATOM     48  CB  ASP D   3      -8.815 -38.002  20.578  1.00 68.02 LIG 0.15  C 
BRANCH 48 49
ATOM     49  CG  ASP D   3     -10.055 -38.742  20.137  1.00 72.98 LIG 0.17  C 
ATOM     50 OD1  ASP D   3     -10.688 -38.315  19.146  1.00 76.93 LIG-0.65  OA
ATOM     51 OD2  ASP D   3     -10.405 -39.750  20.790  1.00 81.56 LIG-0.65  OA
ENDBRANCH 48 49
ENDBRANCH 41 48
ENDBRANCH 39 41
ENDBRANCH 32 37
ENDBRANCH 30 32
ENDBRANCH 1 28
TORSDOF 21
ENDMDL
MODEL 36
USER: ADFR SOLUTION from run 109
USER: SCORE 16.175863 LL:  -5.181 LR: -12.747 RR:   0.000 FEB:  -6.483
USER: RMSD 9.174946
USER: SEED 108
USER: STATUS no improvement in best in 5 clusters for 5 generations
USER: GENES 23
USER: genes 0 Translation |==|  0.41749 0.67689 0.36497
USER: genes 1 Rotation |==|  0.13226 0.82285 0.46541 0.59667
USER: genes 2 Torsion [C]-CA--CB-[CG] |==|  0.72705
USER: genes 3 Torsion [CA]-CB--CG-[CD1] |==|  0.37924
USER: genes 4 Torsion [N]-CA--C-[N] |==|  0.46142
USER: genes 5 Torsion [C]-N--CA-[C] |==|  0.77486
USER: genes 6 Torsion [N]-CA--C-[N] |==|  0.14069
USER: genes 7 Torsion [C]-N--CA-[C] |==|  0.80652
USER: genes 8 Torsion [N]-CA--C-[O] |==|  0.20048
USER: genes 9 Torsion [N]-CA--CB-[CG] |==|  0.49377
USER: genes 10 Torsion [CA]-CB--CG-[CD1] |==|  0.37454
USER: genes 11 Torsion [N]-CA--CB-[CG] |==|  0.98008
USER: genes 12 Torsion [CA]-CB--CG-[ND2] |==|  0.70857
USER: genes 13 Torsion [CB]-CA--N-[C] |==|  0.21942
USER: genes 14 Torsion [N]-C--CA-[N] |==|  0.10425
USER: genes 15 Torsion [C]-CA--CB-[CG] |==|  0.79718
USER: genes 16 Torsion [CA]-CB--CG-[CD1] |==|  0.34158
USER: genes 17 Torsion [C]-CA--N-[C] |==|  0.69259
USER: genes 18 Torsion [N]-C--CA-[N] |==|  0.90007
USER: genes 19 Torsion [C]-CA--N-[C] |==|  0.84244
USER: genes 20 Torsion [N]-C--CA-[N] |==|  0.93747
USER: genes 21 Torsion [C]-CA--CB-[CG] |==|  0.73036
USER: genes 22 Torsion [CA]-CB--CG-[OD1] |==|  0.83979
ROOT
ATOM      1  CA  LEU D   5      -7.350 -33.080  14.056  1.00 45.78 LIG 0.18  C 
ENDROOT
BRANCH 1 2
ATOM      2  CB  LEU D   5      -8.239 -32.163  14.890  1.00 44.83 LIG 0.04  C 
BRANCH 2 3
ATOM      3  CG  LEU D   5      -9.031 -32.779  16.036  1.00 46.71 LIG-0.02  C 
ATOM      4  CD1 LEU D   5      -8.932 -31.869  17.250  1.00 43.35 LIG 0.01  C 
ATOM      5  CD2 LEU D   5     -10.494 -32.997  15.648  1.00 50.41 LIG 0.01  C 
ENDBRANCH 2 3
ENDBRANCH 1 2
BRANCH 1 6
ATOM      6  C   LEU D   5      -5.930 -32.942  14.581  1.00 49.70 LIG 0.24  C 
ATOM      7  N   ASN D   6      -5.329 -31.785  14.295  1.00 52.00 LIG-0.35  N 
ATOM      8 H    ASN D   6      -5.678 -31.188  13.785  1.00 52.00 LIG 0.16  HD
ATOM      9 O    LEU D   5      -5.418 -33.848  15.265  1.00 48.20 LIG-0.27  OA
BRANCH 7 10
ATOM     10  CA  ASN D   6      -4.014 -31.414  14.819  1.00 59.27 LIG 0.18  C 
BRANCH 10 11
ATOM     11  C   ASN D   6      -4.181 -30.878  16.245  1.00 60.71 LIG 0.24  C 
ATOM     12  N   LEU D   7      -4.884 -31.637  17.086  1.00 62.75 LIG-0.35  N 
ATOM     13 H    LEU D   7      -5.140 -32.437  16.903  1.00 62.75 LIG 0.16  HD
ATOM     14 O    ASN D   6      -3.680 -29.799  16.572  1.00 63.11 LIG-0.27  OA
BRANCH 12 15
ATOM     15  CA  LEU D   7      -5.290 -31.170  18.419  1.00 66.71 LIG 0.16  C 
BRANCH 15 16
ATOM     16  C   LEU D   7      -4.116 -31.025  19.394  1.00 66.58 LIG 0.22  C 
ATOM     17 O    LEU D   7      -3.305 -30.113  19.271  1.00 70.30 LIG-0.29  OA
ENDBRANCH 15 16
BRANCH 15 18
ATOM     18  CB  LEU D   7      -6.343 -32.130  18.991  1.00 67.13 LIG 0.04  C 
BRANCH 18 19
ATOM     19  CG  LEU D   7      -6.817 -31.787  20.411  1.00 64.50 LIG-0.02  C 
ATOM     20  CD1 LEU D   7      -8.335 -31.884  20.509  1.00 64.54 LIG 0.01  C 
ATOM     21  CD2 LEU D   7      -6.142 -32.679  21.450  1.00 62.99 LIG 0.01  C 
ENDBRANCH 18 19
ENDBRANCH 15 18
ENDBRANCH 12 15
ENDBRANCH 10 11
BRANCH 10 22
ATOM     22  CB  ASN D   6      -3.368 -30.365  13.900  1.00 63.11 LIG 0.14  C 
BRANCH 22 23
ATOM     23  CG  ASN D   6      -4.163 -30.125  12.627  1.00 71.29 LIG 0.22  C 
ATOM     24  ND2 ASN D   6      -3.665 -30.658  11.510  1.00 72.89 LIG-0.37  N 
ATOM     25 21HD ASN D   6      -4.073 -30.547  10.761  1.00 72.89 LIG 0.16  HD
ATOM     26 22HD ASN D   6      -2.935 -31.113  11.539  1.00 72.89 LIG 0.16  HD
ATOM     27 OD1  ASN D   6      -5.209 -29.462  12.640  1.00 74.05 LIG-0.27  OA
ENDBRANCH 22 23
ENDBRANCH 10 22
ENDBRANCH 7 10
ENDBRANCH 1 6
BRANCH 1 28
ATOM     28  N   LEU D   5      -7.810 -34.477  14.123  1.00 43.46 LIG-0.35  N 
ATOM     29 H    LEU D   5      -7.357 -34.971  14.662  1.00 43.46 LIG 0.16  HD
ATOM     30  C   LEU D   4      -8.840 -34.920  13.408  1.00 41.34 LIG 0.24  C 
ATOM     31 O    LEU D   4      -9.452 -34.228  12.610  1.00 44.89 LIG-0.27  OA
BRANCH 30 32
ATOM     32  CA  LEU D   4      -9.300 -36.325  13.669  1.00 41.83 LIG 0.18  C 
BRANCH 32 33
ATOM     33  CB  LEU D   4     -10.727 -36.486  13.113  1.00 37.92 LIG 0.04  C 
BRANCH 33 34
ATOM     34  CG  LEU D   4     -11.830 -35.797  13.911  1.00 37.44 LIG-0.02  C 
ATOM     35  CD1 LEU D   4     -12.584 -34.835  13.010  1.00 34.88 LIG 0.01  C 
ATOM     36  CD2 LEU D   4     -12.791 -36.827  14.510  1.00 37.22 LIG 0.01  C 
ENDBRANCH 33 34
ENDBRANCH 32 33
BRANCH 32 37
ATOM     37  N   LEU D   4      -9.235 -36.706  15.082  1.00 45.71 LIG-0.35  N 
ATOM     38 H    LEU D   4      -9.805 -36.307  15.589  1.00 45.71 LIG 0.16  HD
ATOM     39  C   ASP D   3      -8.349 -37.603  15.511  1.00 59.12 LIG 0.24  C 
ATOM     40 O    ASP D   3      -7.446 -38.058  14.801  1.00 63.71 LIG-0.27  OA
BRANCH 39 41
ATOM     41  CA  ASP D   3      -8.448 -38.031  16.972  1.00 63.74 LIG 0.19  C 
BRANCH 41 42
ATOM     42  N   ASP D   3      -8.842 -36.939  17.853  1.00 62.73 LIG-0.35  N 
ATOM     43 H    ASP D   3      -9.550 -37.093  18.318  1.00 62.73 LIG 0.16  HD
ATOM     44  C   GLY D   2      -8.147 -35.811  17.914  1.00 63.13 LIG 0.25  C 
ATOM     45 O    GLY D   2      -7.172 -35.581  17.195  1.00 65.69 LIG-0.27  OA
BRANCH 44 46
ATOM     46  CA  GLY D   2      -8.621 -34.790  18.927  1.00 64.97 LIG 0.47  C 
ATOM     47  N   GLY D   2     -10.055 -34.987  19.288  1.00 67.04 LIG 0.61  N 
ENDBRANCH 44 46
ENDBRANCH 41 42
BRANCH 41 48
ATOM     48  CB  ASP D   3      -9.407 -39.221  17.106  1.00 68.02 LIG 0.15  C 
BRANCH 48 49
ATOM     49  CG  ASP D   3     -10.801 -38.802  17.510  1.00 72.98 LIG 0.17  C 
ATOM     50 OD1  ASP D   3     -10.950 -38.162  18.574  1.00 76.93 LIG-0.65  OA
ATOM     51 OD2  ASP D   3     -11.753 -39.124  16.765  1.00 81.56 LIG-0.65  OA
ENDBRANCH 48 49
ENDBRANCH 41 48
ENDBRANCH 39 41
ENDBRANCH 32 37
ENDBRANCH 30 32
ENDBRANCH 1 28
TORSDOF 21
ENDMDL
MODEL 37
USER: ADFR SOLUTION from run 179
USER: SCORE 14.553268 LL:  -3.873 LR: -12.732 RR:   0.000 FEB:  -6.468
USER: RMSD 4.822383
USER: SEED 178
USER: STATUS no improvement in best in 15 clusters for 5 generations
USER: GENES 23
USER: genes 0 Translation |==|  0.33997 0.58333 0.38241
USER: genes 1 Rotation |==|  0.40618 0.32862 0.56338 0.95586
USER: genes 2 Torsion [C]-CA--CB-[CG] |==|  0.27429
USER: genes 3 Torsion [CA]-CB--CG-[CD1] |==|  0.67245
USER: genes 4 Torsion [N]-CA--C-[N] |==|  0.30259
USER: genes 5 Torsion [C]-N--CA-[C] |==|  0.72833
USER: genes 6 Torsion [N]-CA--C-[N] |==|  0.02950
USER: genes 7 Torsion [C]-N--CA-[C] |==|  0.65188
USER: genes 8 Torsion [N]-CA--C-[O] |==|  0.40819
USER: genes 9 Torsion [N]-CA--CB-[CG] |==|  0.59727
USER: genes 10 Torsion [CA]-CB--CG-[CD1] |==|  0.09227
USER: genes 11 Torsion [N]-CA--CB-[CG] |==|  0.56725
USER: genes 12 Torsion [CA]-CB--CG-[ND2] |==|  0.26146
USER: genes 13 Torsion [CB]-CA--N-[C] |==|  0.27498
USER: genes 14 Torsion [N]-C--CA-[N] |==|  0.82022
USER: genes 15 Torsion [C]-CA--CB-[CG] |==|  0.48705
USER: genes 16 Torsion [CA]-CB--CG-[CD1] |==|  0.31975
USER: genes 17 Torsion [C]-CA--N-[C] |==|  0.77480
USER: genes 18 Torsion [N]-C--CA-[N] |==|  0.48871
USER: genes 19 Torsion [C]-CA--N-[C] |==|  0.71872
USER: genes 20 Torsion [N]-C--CA-[N] |==|  0.18814
USER: genes 21 Torsion [C]-CA--CB-[CG] |==|  0.44192
USER: genes 22 Torsion [CA]-CB--CG-[OD1] |==|  0.74284
ROOT
ATOM      1  CA  LEU D   5      -9.036 -34.975  14.357  1.00 45.78 LIG 0.18  C 
ENDROOT
BRANCH 1 2
ATOM      2  CB  LEU D   5      -9.324 -35.239  12.882  1.00 44.83 LIG 0.04  C 
BRANCH 2 3
ATOM      3  CG  LEU D   5     -10.769 -35.161  12.406  1.00 46.71 LIG-0.02  C 
ATOM      4  CD1 LEU D   5     -11.189 -36.523  11.878  1.00 43.35 LIG 0.01  C 
ATOM      5  CD2 LEU D   5     -11.703 -34.711  13.531  1.00 50.41 LIG 0.01  C 
ENDBRANCH 2 3
ENDBRANCH 1 2
BRANCH 1 6
ATOM      6  C   LEU D   5      -8.903 -36.323  15.045  1.00 49.70 LIG 0.24  C 
ATOM      7  N   ASN D   6      -9.645 -36.474  16.144  1.00 52.00 LIG-0.35  N 
ATOM      8 H    ASN D   6     -10.106 -35.837  16.491  1.00 52.00 LIG 0.16  HD
ATOM      9 O    LEU D   5      -8.179 -37.213  14.560  1.00 48.20 LIG-0.27  OA
BRANCH 7 10
ATOM     10  CA  ASN D   6      -9.751 -37.739  16.873  1.00 59.27 LIG 0.18  C 
BRANCH 10 11
ATOM     11  C   ASN D   6     -11.034 -38.456  16.438  1.00 60.71 LIG 0.24  C 
ATOM     12  N   LEU D   7     -11.667 -37.952  15.378  1.00 62.75 LIG-0.35  N 
ATOM     13 H    LEU D   7     -11.337 -37.335  14.878  1.00 62.75 LIG 0.16  HD
ATOM     14 O    ASN D   6     -11.438 -39.446  17.053  1.00 63.11 LIG-0.27  OA
BRANCH 12 15
ATOM     15  CA  LEU D   7     -13.000 -38.408  14.964  1.00 66.71 LIG 0.16  C 
BRANCH 15 16
ATOM     16  C   LEU D   7     -13.056 -38.870  13.504  1.00 66.58 LIG 0.22  C 
ATOM     17 O    LEU D   7     -13.805 -39.778  13.159  1.00 70.30 LIG-0.29  OA
ENDBRANCH 15 16
BRANCH 15 18
ATOM     18  CB  LEU D   7     -14.018 -37.285  15.207  1.00 67.13 LIG 0.04  C 
BRANCH 18 19
ATOM     19  CG  LEU D   7     -15.410 -37.765  15.641  1.00 64.50 LIG-0.02  C 
ATOM     20  CD1 LEU D   7     -15.303 -39.027  16.489  1.00 64.54 LIG 0.01  C 
ATOM     21  CD2 LEU D   7     -16.166 -36.667  16.385  1.00 62.99 LIG 0.01  C 
ENDBRANCH 18 19
ENDBRANCH 15 18
ENDBRANCH 12 15
ENDBRANCH 10 11
BRANCH 10 22
ATOM     22  CB  ASN D   6      -9.747 -37.468  18.385  1.00 63.11 LIG 0.14  C 
BRANCH 22 23
ATOM     23  CG  ASN D   6      -9.273 -38.660  19.199  1.00 71.29 LIG 0.22  C 
ATOM     24  ND2 ASN D   6      -7.976 -38.682  19.513  1.00 72.89 LIG-0.37  N 
ATOM     25 21HD ASN D   6      -7.655 -39.338  19.968  1.00 72.89 LIG 0.16  HD
ATOM     26 22HD ASN D   6      -7.461 -38.041  19.261  1.00 72.89 LIG 0.16  HD
ATOM     27 OD1  ASN D   6     -10.055 -39.558  19.537  1.00 74.05 LIG-0.27  OA
ENDBRANCH 22 23
ENDBRANCH 10 22
ENDBRANCH 7 10
ENDBRANCH 1 6
BRANCH 1 28
ATOM     28  N   LEU D   5      -7.817 -34.166  14.526  1.00 43.46 LIG-0.35  N 
ATOM     29 H    LEU D   5      -7.086 -34.618  14.477  1.00 43.46 LIG 0.16  HD
ATOM     30  C   LEU D   4      -7.858 -32.854  14.734  1.00 41.34 LIG 0.24  C 
ATOM     31 O    LEU D   4      -8.898 -32.224  14.850  1.00 44.89 LIG-0.27  OA
BRANCH 30 32
ATOM     32  CA  LEU D   4      -6.548 -32.122  14.751  1.00 41.83 LIG 0.18  C 
BRANCH 32 33
ATOM     33  CB  LEU D   4      -5.854 -32.323  13.392  1.00 37.92 LIG 0.04  C 
BRANCH 33 34
ATOM     34  CG  LEU D   4      -4.553 -31.552  13.191  1.00 37.44 LIG-0.02  C 
ATOM     35  CD1 LEU D   4      -3.398 -32.529  13.056  1.00 34.88 LIG 0.01  C 
ATOM     36  CD2 LEU D   4      -4.638 -30.656  11.953  1.00 37.22 LIG 0.01  C 
ENDBRANCH 33 34
ENDBRANCH 32 33
BRANCH 32 37
ATOM     37  N   LEU D   4      -5.673 -32.519  15.857  1.00 45.71 LIG-0.35  N 
ATOM     38 H    LEU D   4      -5.062 -33.086  15.646  1.00 45.71 LIG 0.16  HD
ATOM     39  C   ASP D   3      -5.842 -32.018  17.080  1.00 59.12 LIG 0.24  C 
ATOM     40 O    ASP D   3      -6.809 -31.318  17.399  1.00 63.71 LIG-0.27  OA
BRANCH 39 41
ATOM     41  CA  ASP D   3      -4.801 -32.389  18.130  1.00 63.74 LIG 0.19  C 
BRANCH 41 42
ATOM     42  N   ASP D   3      -5.023 -31.718  19.405  1.00 62.73 LIG-0.35  N 
ATOM     43 H    ASP D   3      -5.641 -32.068  19.890  1.00 62.73 LIG 0.16  HD
ATOM     44  C   GLY D   2      -4.314 -30.655  19.762  1.00 63.13 LIG 0.25  C 
ATOM     45 O    GLY D   2      -3.475 -30.126  19.029  1.00 65.69 LIG-0.27  OA
BRANCH 44 46
ATOM     46  CA  GLY D   2      -4.593 -30.102  21.144  1.00 64.97 LIG 0.47  C 
ATOM     47  N   GLY D   2      -4.153 -31.038  22.219  1.00 67.04 LIG 0.61  N 
ENDBRANCH 44 46
ENDBRANCH 41 42
BRANCH 41 48
ATOM     48  CB  ASP D   3      -4.755 -33.912  18.310  1.00 68.02 LIG 0.15  C 
BRANCH 48 49
ATOM     49  CG  ASP D   3      -3.459 -34.387  18.922  1.00 72.98 LIG 0.17  C 
ATOM     50 OD1  ASP D   3      -2.526 -34.727  18.162  1.00 76.93 LIG-0.65  OA
ATOM     51 OD2  ASP D   3      -3.375 -34.430  20.170  1.00 81.56 LIG-0.65  OA
ENDBRANCH 48 49
ENDBRANCH 41 48
ENDBRANCH 39 41
ENDBRANCH 32 37
ENDBRANCH 30 32
ENDBRANCH 1 28
TORSDOF 21
ENDMDL
MODEL 38
USER: ADFR SOLUTION from run 75
USER: SCORE 15.835105 LL:  -3.668 LR: -12.728 RR:   0.000 FEB:  -6.464
USER: RMSD 8.867194
USER: SEED 74
USER: STATUS no improvement in best in 4 clusters for 5 generations
USER: GENES 23
USER: genes 0 Translation |==|  0.37646 0.67553 0.52047
USER: genes 1 Rotation |==|  0.83918 0.34562 0.83329 0.50652
USER: genes 2 Torsion [C]-CA--CB-[CG] |==|  0.44586
USER: genes 3 Torsion [CA]-CB--CG-[CD1] |==|  0.45041
USER: genes 4 Torsion [N]-CA--C-[N] |==|  0.19129
USER: genes 5 Torsion [C]-N--CA-[C] |==|  0.76480
USER: genes 6 Torsion [N]-CA--C-[N] |==|  0.99723
USER: genes 7 Torsion [C]-N--CA-[C] |==|  0.82518
USER: genes 8 Torsion [N]-CA--C-[O] |==|  0.43315
USER: genes 9 Torsion [N]-CA--CB-[CG] |==|  0.21283
USER: genes 10 Torsion [CA]-CB--CG-[CD1] |==|  0.88822
USER: genes 11 Torsion [N]-CA--CB-[CG] |==|  0.79029
USER: genes 12 Torsion [CA]-CB--CG-[ND2] |==|  0.63431
USER: genes 13 Torsion [CB]-CA--N-[C] |==|  0.73401
USER: genes 14 Torsion [N]-C--CA-[N] |==|  0.06807
USER: genes 15 Torsion [C]-CA--CB-[CG] |==|  0.25649
USER: genes 16 Torsion [CA]-CB--CG-[CD1] |==|  0.16051
USER: genes 17 Torsion [C]-CA--N-[C] |==|  0.17298
USER: genes 18 Torsion [N]-C--CA-[N] |==|  0.46650
USER: genes 19 Torsion [C]-CA--N-[C] |==|  0.79895
USER: genes 20 Torsion [N]-C--CA-[N] |==|  0.30101
USER: genes 21 Torsion [C]-CA--CB-[CG] |==|  0.26646
USER: genes 22 Torsion [CA]-CB--CG-[OD1] |==|  0.92973
ROOT
ATOM      1  CA  LEU D   5      -8.242 -33.107  16.738  1.00 45.78 LIG 0.18  C 
ENDROOT
BRANCH 1 2
ATOM      2  CB  LEU D   5      -9.141 -32.601  15.614  1.00 44.83 LIG 0.04  C 
BRANCH 2 3
ATOM      3  CG  LEU D   5      -9.606 -33.598  14.560  1.00 46.71 LIG-0.02  C 
ATOM      4  CD1 LEU D   5     -10.803 -33.017  13.825  1.00 43.35 LIG 0.01  C 
ATOM      5  CD2 LEU D   5      -8.484 -33.934  13.577  1.00 50.41 LIG 0.01  C 
ENDBRANCH 2 3
ENDBRANCH 1 2
BRANCH 1 6
ATOM      6  C   LEU D   5      -7.540 -31.902  17.341  1.00 49.70 LIG 0.24  C 
ATOM      7  N   ASN D   6      -6.546 -32.187  18.185  1.00 52.00 LIG-0.35  N 
ATOM      8 H    ASN D   6      -6.360 -32.987  18.438  1.00 52.00 LIG 0.16  HD
ATOM      9 O    LEU D   5      -7.867 -30.747  17.008  1.00 48.20 LIG-0.27  OA
BRANCH 7 10
ATOM     10  CA  ASN D   6      -5.670 -31.169  18.767  1.00 59.27 LIG 0.18  C 
BRANCH 10 11
ATOM     11  C   ASN D   6      -4.534 -30.870  17.782  1.00 60.71 LIG 0.24  C 
ATOM     12  N   LEU D   7      -4.534 -31.567  16.646  1.00 62.75 LIG-0.35  N 
ATOM     13 H    LEU D   7      -5.183 -32.075  16.400  1.00 62.75 LIG 0.16  HD
ATOM     14 O    ASN D   6      -3.678 -30.023  18.051  1.00 63.11 LIG-0.27  OA
BRANCH 12 15
ATOM     15  CA  LEU D   7      -3.412 -31.531  15.698  1.00 66.71 LIG 0.16  C 
BRANCH 15 16
ATOM     16  C   LEU D   7      -3.170 -30.142  15.097  1.00 66.58 LIG 0.22  C 
ATOM     17 O    LEU D   7      -2.068 -29.829  14.659  1.00 70.30 LIG-0.29  OA
ENDBRANCH 15 16
BRANCH 15 18
ATOM     18  CB  LEU D   7      -3.658 -32.559  14.584  1.00 67.13 LIG 0.04  C 
BRANCH 18 19
ATOM     19  CG  LEU D   7      -4.687 -32.125  13.529  1.00 64.50 LIG-0.02  C 
ATOM     20  CD1 LEU D   7      -5.863 -31.412  14.186  1.00 64.54 LIG 0.01  C 
ATOM     21  CD2 LEU D   7      -4.044 -31.250  12.456  1.00 62.99 LIG 0.01  C 
ENDBRANCH 18 19
ENDBRANCH 15 18
ENDBRANCH 12 15
ENDBRANCH 10 11
BRANCH 10 22
ATOM     22  CB  ASN D   6      -5.126 -31.664  20.116  1.00 63.11 LIG 0.14  C 
BRANCH 22 23
ATOM     23  CG  ASN D   6      -6.159 -31.600  21.229  1.00 71.29 LIG 0.22  C 
ATOM     24  ND2 ASN D   6      -5.761 -31.037  22.371  1.00 72.89 LIG-0.37  N 
ATOM     25 21HD ASN D   6      -6.304 -30.981  23.035  1.00 72.89 LIG 0.16  HD
ATOM     26 22HD ASN D   6      -4.960 -30.730  22.444  1.00 72.89 LIG 0.16  HD
ATOM     27 OD1  ASN D   6      -7.298 -32.057  21.073  1.00 74.05 LIG-0.27  OA
ENDBRANCH 22 23
ENDBRANCH 10 22
ENDBRANCH 7 10
ENDBRANCH 1 6
BRANCH 1 28
ATOM     28  N   LEU D   5      -9.019 -33.836  17.755  1.00 43.46 LIG-0.35  N 
ATOM     29 H    LEU D   5      -9.155 -34.664  17.565  1.00 43.46 LIG 0.16  HD
ATOM     30  C   LEU D   4      -9.462 -33.253  18.864  1.00 41.34 LIG 0.24  C 
ATOM     31 O    LEU D   4      -9.305 -32.066  19.108  1.00 44.89 LIG-0.27  OA
BRANCH 30 32
ATOM     32  CA  LEU D   4     -10.118 -34.133  19.886  1.00 41.83 LIG 0.18  C 
BRANCH 32 33
ATOM     33  CB  LEU D   4      -9.849 -33.549  21.285  1.00 37.92 LIG 0.04  C 
BRANCH 33 34
ATOM     34  CG  LEU D   4     -10.910 -32.590  21.818  1.00 37.44 LIG-0.02  C 
ATOM     35  CD1 LEU D   4     -12.256 -33.291  21.857  1.00 34.88 LIG 0.01  C 
ATOM     36  CD2 LEU D   4     -10.533 -32.086  23.213  1.00 37.22 LIG 0.01  C 
ENDBRANCH 33 34
ENDBRANCH 32 33
BRANCH 32 37
ATOM     37  N   LEU D   4      -9.695 -35.534  19.806  1.00 45.71 LIG-0.35  N 
ATOM     38 H    LEU D   4     -10.325 -36.090  19.621  1.00 45.71 LIG 0.16  HD
ATOM     39  C   ASP D   3      -8.425 -35.880  20.008  1.00 59.12 LIG 0.24  C 
ATOM     40 O    ASP D   3      -7.563 -35.092  20.412  1.00 63.71 LIG-0.27  OA
BRANCH 39 41
ATOM     41  CA  ASP D   3      -8.059 -37.341  19.771  1.00 63.74 LIG 0.19  C 
BRANCH 41 42
ATOM     42  N   ASP D   3      -6.618 -37.563  19.744  1.00 62.73 LIG-0.35  N 
ATOM     43 H    ASP D   3      -6.307 -37.970  20.436  1.00 62.73 LIG 0.16  HD
ATOM     44  C   GLY D   2      -5.873 -37.161  18.723  1.00 63.13 LIG 0.25  C 
ATOM     45 O    GLY D   2      -6.325 -36.524  17.769  1.00 65.69 LIG-0.27  OA
BRANCH 44 46
ATOM     46  CA  GLY D   2      -4.404 -37.524  18.787  1.00 64.97 LIG 0.47  C 
ATOM     47  N   GLY D   2      -4.048 -38.586  17.801  1.00 67.04 LIG 0.61  N 
ENDBRANCH 44 46
ENDBRANCH 41 42
BRANCH 41 48
ATOM     48  CB  ASP D   3      -8.734 -38.229  20.824  1.00 68.02 LIG 0.15  C 
BRANCH 48 49
ATOM     49  CG  ASP D   3     -10.033 -38.824  20.336  1.00 72.98 LIG 0.17  C 
ATOM     50 OD1  ASP D   3     -10.665 -38.230  19.436  1.00 76.93 LIG-0.65  OA
ATOM     51 OD2  ASP D   3     -10.430 -39.888  20.863  1.00 81.56 LIG-0.65  OA
ENDBRANCH 48 49
ENDBRANCH 41 48
ENDBRANCH 39 41
ENDBRANCH 32 37
ENDBRANCH 30 32
ENDBRANCH 1 28
TORSDOF 21
ENDMDL
MODEL 39
USER: ADFR SOLUTION from run 122
USER: SCORE 16.670529 LL:  -4.507 LR: -12.722 RR:   0.000 FEB:  -6.458
USER: RMSD 8.188592
USER: SEED 121
USER: STATUS no improvement in best in 6 clusters for 5 generations
USER: GENES 23
USER: genes 0 Translation |==|  0.38925 0.64904 0.40225
USER: genes 1 Rotation |==|  0.19346 0.85030 0.40644 0.65675
USER: genes 2 Torsion [C]-CA--CB-[CG] |==|  0.78458
USER: genes 3 Torsion [CA]-CB--CG-[CD1] |==|  0.28694
USER: genes 4 Torsion [N]-CA--C-[N] |==|  0.11611
USER: genes 5 Torsion [C]-N--CA-[C] |==|  0.83279
USER: genes 6 Torsion [N]-CA--C-[N] |==|  0.89456
USER: genes 7 Torsion [C]-N--CA-[C] |==|  0.87206
USER: genes 8 Torsion [N]-CA--C-[O] |==|  0.59945
USER: genes 9 Torsion [N]-CA--CB-[CG] |==|  0.18449
USER: genes 10 Torsion [CA]-CB--CG-[CD1] |==|  0.40320
USER: genes 11 Torsion [N]-CA--CB-[CG] |==|  0.86212
USER: genes 12 Torsion [CA]-CB--CG-[ND2] |==|  0.69866
USER: genes 13 Torsion [CB]-CA--N-[C] |==|  0.16627
USER: genes 14 Torsion [N]-C--CA-[N] |==|  0.04318
USER: genes 15 Torsion [C]-CA--CB-[CG] |==|  0.56691
USER: genes 16 Torsion [CA]-CB--CG-[CD1] |==|  0.48260
USER: genes 17 Torsion [C]-CA--N-[C] |==|  0.72676
USER: genes 18 Torsion [N]-C--CA-[N] |==|  0.53333
USER: genes 19 Torsion [C]-CA--N-[C] |==|  0.77208
USER: genes 20 Torsion [N]-C--CA-[N] |==|  0.38802
USER: genes 21 Torsion [C]-CA--CB-[CG] |==|  0.28493
USER: genes 22 Torsion [CA]-CB--CG-[OD1] |==|  0.43572
ROOT
ATOM      1  CA  LEU D   5      -7.964 -33.644  14.699  1.00 45.78 LIG 0.18  C 
ENDROOT
BRANCH 1 2
ATOM      2  CB  LEU D   5      -8.820 -32.547  15.326  1.00 44.83 LIG 0.04  C 
BRANCH 2 3
ATOM      3  CG  LEU D   5      -9.761 -32.930  16.460  1.00 46.71 LIG-0.02  C 
ATOM      4  CD1 LEU D   5      -9.154 -32.480  17.779  1.00 43.35 LIG 0.01  C 
ATOM      5  CD2 LEU D   5     -11.146 -32.311  16.268  1.00 50.41 LIG 0.01  C 
ENDBRANCH 2 3
ENDBRANCH 1 2
BRANCH 1 6
ATOM      6  C   LEU D   5      -6.808 -33.919  15.646  1.00 49.70 LIG 0.24  C 
ATOM      7  N   ASN D   6      -6.156 -35.063  15.429  1.00 52.00 LIG-0.35  N 
ATOM      8 H    ASN D   6      -6.410 -35.647  14.851  1.00 52.00 LIG 0.16  HD
ATOM      9 O    LEU D   5      -6.493 -33.088  16.519  1.00 48.20 LIG-0.27  OA
BRANCH 7 10
ATOM     10  CA  ASN D   6      -4.940 -35.444  16.150  1.00 59.27 LIG 0.18  C 
BRANCH 10 11
ATOM     11  C   ASN D   6      -3.857 -34.391  15.888  1.00 60.71 LIG 0.24  C 
ATOM     12  N   LEU D   7      -3.808 -33.883  14.656  1.00 62.75 LIG-0.35  N 
ATOM     13 H    LEU D   7      -4.407 -34.031  14.057  1.00 62.75 LIG 0.16  HD
ATOM     14 O    ASN D   6      -3.086 -34.048  16.787  1.00 63.11 LIG-0.27  OA
BRANCH 12 15
ATOM     15  CA  LEU D   7      -2.713 -33.015  14.203  1.00 66.71 LIG 0.16  C 
BRANCH 15 16
ATOM     16  C   LEU D   7      -2.355 -31.916  15.209  1.00 66.58 LIG 0.22  C 
ATOM     17 O    LEU D   7      -2.009 -30.803  14.829  1.00 70.30 LIG-0.29  OA
ENDBRANCH 15 16
BRANCH 15 18
ATOM     18  CB  LEU D   7      -3.084 -32.398  12.848  1.00 67.13 LIG 0.04  C 
BRANCH 18 19
ATOM     19  CG  LEU D   7      -4.266 -31.418  12.893  1.00 64.50 LIG-0.02  C 
ATOM     20  CD1 LEU D   7      -4.062 -30.284  11.895  1.00 64.54 LIG 0.01  C 
ATOM     21  CD2 LEU D   7      -5.590 -32.136  12.644  1.00 62.99 LIG 0.01  C 
ENDBRANCH 18 19
ENDBRANCH 15 18
ENDBRANCH 12 15
ENDBRANCH 10 11
BRANCH 10 22
ATOM     22  CB  ASN D   6      -4.485 -36.839  15.697  1.00 63.11 LIG 0.14  C 
BRANCH 22 23
ATOM     23  CG  ASN D   6      -5.607 -37.864  15.719  1.00 71.29 LIG 0.22  C 
ATOM     24  ND2 ASN D   6      -5.541 -38.791  16.677  1.00 72.89 LIG-0.37  N 
ATOM     25 21HD ASN D   6      -6.148 -39.397  16.730  1.00 72.89 LIG 0.16  HD
ATOM     26 22HD ASN D   6      -4.891 -38.782  17.240  1.00 72.89 LIG 0.16  HD
ATOM     27 OD1  ASN D   6      -6.521 -37.832  14.884  1.00 74.05 LIG-0.27  OA
ENDBRANCH 22 23
ENDBRANCH 10 22
ENDBRANCH 7 10
ENDBRANCH 1 6
BRANCH 1 28
ATOM     28  N   LEU D   5      -8.754 -34.862  14.452  1.00 43.46 LIG-0.35  N 
ATOM     29 H    LEU D   5      -8.463 -35.558  14.865  1.00 43.46 LIG 0.16  HD
ATOM     30  C   LEU D   4      -9.821 -34.869  13.659  1.00 41.34 LIG 0.24  C 
ATOM     31 O    LEU D   4     -10.203 -33.888  13.039  1.00 44.89 LIG-0.27  OA
BRANCH 30 32
ATOM     32  CA  LEU D   4     -10.622 -36.136  13.599  1.00 41.83 LIG 0.18  C 
BRANCH 32 33
ATOM     33  CB  LEU D   4     -12.117 -35.772  13.572  1.00 37.92 LIG 0.04  C 
BRANCH 33 34
ATOM     34  CG  LEU D   4     -13.071 -36.852  14.075  1.00 37.44 LIG-0.02  C 
ATOM     35  CD1 LEU D   4     -14.483 -36.297  14.133  1.00 34.88 LIG 0.01  C 
ATOM     36  CD2 LEU D   4     -13.022 -38.085  13.169  1.00 37.22 LIG 0.01  C 
ENDBRANCH 33 34
ENDBRANCH 32 33
BRANCH 32 37
ATOM     37  N   LEU D   4     -10.322 -37.066  14.692  1.00 45.71 LIG-0.35  N 
ATOM     38 H    LEU D   4     -10.724 -36.893  15.432  1.00 45.71 LIG 0.16  HD
ATOM     39  C   ASP D   3      -9.487 -38.088  14.513  1.00 59.12 LIG 0.24  C 
ATOM     40 O    ASP D   3      -8.809 -38.240  13.492  1.00 63.71 LIG-0.27  OA
BRANCH 39 41
ATOM     41  CA  ASP D   3      -9.344 -39.075  15.667  1.00 63.74 LIG 0.19  C 
BRANCH 41 42
ATOM     42  N   ASP D   3      -8.219 -39.986  15.493  1.00 62.73 LIG-0.35  N 
ATOM     43 H    ASP D   3      -7.506 -39.756  15.916  1.00 62.73 LIG 0.16  HD
ATOM     44  C   GLY D   2      -8.317 -41.073  14.739  1.00 63.13 LIG 0.25  C 
ATOM     45 O    GLY D   2      -9.327 -41.354  14.089  1.00 65.69 LIG-0.27  OA
BRANCH 44 46
ATOM     46  CA  GLY D   2      -7.099 -41.972  14.706  1.00 64.97 LIG 0.47  C 
ATOM     47  N   GLY D   2      -7.471 -43.417  14.739  1.00 67.04 LIG 0.61  N 
ENDBRANCH 44 46
ENDBRANCH 41 42
BRANCH 41 48
ATOM     48  CB  ASP D   3      -9.239 -38.317  16.997  1.00 68.02 LIG 0.15  C 
BRANCH 48 49
ATOM     49  CG  ASP D   3     -10.529 -38.336  17.781  1.00 72.98 LIG 0.17  C 
ATOM     50 OD1  ASP D   3     -10.483 -38.160  19.018  1.00 76.93 LIG-0.65  OA
ATOM     51 OD2  ASP D   3     -11.596 -38.537  17.158  1.00 81.56 LIG-0.65  OA
ENDBRANCH 48 49
ENDBRANCH 41 48
ENDBRANCH 39 41
ENDBRANCH 32 37
ENDBRANCH 30 32
ENDBRANCH 1 28
TORSDOF 21
ENDMDL
MODEL 40
USER: ADFR SOLUTION from run 198
USER: SCORE 15.601451 LL:  -4.126 LR: -12.724 RR:   0.000 FEB:  -6.459
USER: RMSD 8.248243
USER: SEED 197
USER: STATUS no improvement in best in 7 clusters for 5 generations
USER: GENES 23
USER: genes 0 Translation |==|  0.54480 0.70881 0.42631
USER: genes 1 Rotation |==|  0.37022 0.82782 0.16546 0.61737
USER: genes 2 Torsion [C]-CA--CB-[CG] |==|  0.43038
USER: genes 3 Torsion [CA]-CB--CG-[CD1] |==|  0.96862
USER: genes 4 Torsion [N]-CA--C-[N] |==|  0.83163
USER: genes 5 Torsion [C]-N--CA-[C] |==|  0.65343
USER: genes 6 Torsion [N]-CA--C-[N] |==|  0.38610
USER: genes 7 Torsion [C]-N--CA-[C] |==|  0.11861
USER: genes 8 Torsion [N]-CA--C-[O] |==|  0.12180
USER: genes 9 Torsion [N]-CA--CB-[CG] |==|  0.68412
USER: genes 10 Torsion [CA]-CB--CG-[CD1] |==|  0.23848
USER: genes 11 Torsion [N]-CA--CB-[CG] |==|  0.63478
USER: genes 12 Torsion [CA]-CB--CG-[ND2] |==|  0.71885
USER: genes 13 Torsion [CB]-CA--N-[C] |==|  0.55556
USER: genes 14 Torsion [N]-C--CA-[N] |==|  0.46615
USER: genes 15 Torsion [C]-CA--CB-[CG] |==|  0.64301
USER: genes 16 Torsion [CA]-CB--CG-[CD1] |==|  0.39409
USER: genes 17 Torsion [C]-CA--N-[C] |==|  0.56831
USER: genes 18 Torsion [N]-C--CA-[N] |==|  0.90490
USER: genes 19 Torsion [C]-CA--N-[C] |==|  0.83247
USER: genes 20 Torsion [N]-C--CA-[N] |==|  0.60723
USER: genes 21 Torsion [C]-CA--CB-[CG] |==|  0.56481
USER: genes 22 Torsion [CA]-CB--CG-[OD1] |==|  0.72471
ROOT
ATOM      1  CA  LEU D   5      -4.581 -32.434  15.114  1.00 45.78 LIG 0.18  C 
ENDROOT
BRANCH 1 2
ATOM      2  CB  LEU D   5      -4.306 -31.010  14.638  1.00 44.83 LIG 0.04  C 
BRANCH 2 3
ATOM      3  CG  LEU D   5      -3.741 -30.817  13.237  1.00 46.71 LIG-0.02  C 
ATOM      4  CD1 LEU D   5      -3.304 -32.166  12.691  1.00 43.35 LIG 0.01  C 
ATOM      5  CD2 LEU D   5      -4.766 -30.167  12.307  1.00 50.41 LIG 0.01  C 
ENDBRANCH 2 3
ENDBRANCH 1 2
BRANCH 1 6
ATOM      6  C   LEU D   5      -4.519 -32.428  16.632  1.00 49.70 LIG 0.24  C 
ATOM      7  N   ASN D   6      -5.418 -31.647  17.234  1.00 52.00 LIG-0.35  N 
ATOM      8 H    ASN D   6      -5.944 -31.120  16.805  1.00 52.00 LIG 0.16  HD
ATOM      9 O    LEU D   5      -3.704 -33.153  17.235  1.00 48.20 LIG-0.27  OA
BRANCH 7 10
ATOM     10  CA  ASN D   6      -5.600 -31.605  18.686  1.00 59.27 LIG 0.18  C 
BRANCH 10 11
ATOM     11  C   ASN D   6      -7.070 -31.898  19.010  1.00 60.71 LIG 0.24  C 
ATOM     12  N   LEU D   7      -7.301 -32.690  20.057  1.00 62.75 LIG-0.35  N 
ATOM     13 H    LEU D   7      -6.689 -32.941  20.607  1.00 62.75 LIG 0.16  HD
ATOM     14 O    ASN D   6      -7.972 -31.413  18.322  1.00 63.11 LIG-0.27  OA
BRANCH 12 15
ATOM     15  CA  LEU D   7      -8.637 -33.213  20.371  1.00 66.71 LIG 0.16  C 
BRANCH 15 16
ATOM     16  C   LEU D   7      -9.403 -33.701  19.137  1.00 66.58 LIG 0.22  C 
ATOM     17 O    LEU D   7      -8.847 -34.378  18.278  1.00 70.30 LIG-0.29  OA
ENDBRANCH 15 16
BRANCH 15 18
ATOM     18  CB  LEU D   7      -9.443 -32.133  21.106  1.00 67.13 LIG 0.04  C 
BRANCH 18 19
ATOM     19  CG  LEU D   7      -9.783 -32.470  22.566  1.00 64.50 LIG-0.02  C 
ATOM     20  CD1 LEU D   7      -8.642 -32.063  23.491  1.00 64.54 LIG 0.01  C 
ATOM     21  CD2 LEU D   7     -11.095 -31.817  22.993  1.00 62.99 LIG 0.01  C 
ENDBRANCH 18 19
ENDBRANCH 15 18
ENDBRANCH 12 15
ENDBRANCH 10 11
BRANCH 10 22
ATOM     22  CB  ASN D   6      -5.173 -30.229  19.222  1.00 63.11 LIG 0.14  C 
BRANCH 22 23
ATOM     23  CG  ASN D   6      -4.246 -30.324  20.422  1.00 71.29 LIG 0.22  C 
ATOM     24  ND2 ASN D   6      -4.805 -30.120  21.617  1.00 72.89 LIG-0.37  N 
ATOM     25 21HD ASN D   6      -4.323 -30.157  22.328  1.00 72.89 LIG 0.16  HD
ATOM     26 22HD ASN D   6      -5.646 -29.951  21.675  1.00 72.89 LIG 0.16  HD
ATOM     27 OD1  ASN D   6      -3.041 -30.570  20.284  1.00 74.05 LIG-0.27  OA
ENDBRANCH 22 23
ENDBRANCH 10 22
ENDBRANCH 7 10
ENDBRANCH 1 6
BRANCH 1 28
ATOM     28  N   LEU D   5      -5.887 -32.914  14.634  1.00 43.46 LIG-0.35  N 
ATOM     29 H    LEU D   5      -6.194 -32.480  13.958  1.00 43.46 LIG 0.16  HD
ATOM     30  C   LEU D   4      -6.525 -33.930  15.207  1.00 41.34 LIG 0.24  C 
ATOM     31 O    LEU D   4      -6.108 -34.514  16.196  1.00 44.89 LIG-0.27  OA
BRANCH 30 32
ATOM     32  CA  LEU D   4      -7.779 -34.415  14.541  1.00 41.83 LIG 0.18  C 
BRANCH 32 33
ATOM     33  CB  LEU D   4      -8.858 -33.324  14.670  1.00 37.92 LIG 0.04  C 
BRANCH 33 34
ATOM     34  CG  LEU D   4     -10.201 -33.783  15.229  1.00 37.44 LIG-0.02  C 
ATOM     35  CD1 LEU D   4     -10.767 -32.708  16.140  1.00 34.88 LIG 0.01  C 
ATOM     36  CD2 LEU D   4     -11.183 -34.092  14.097  1.00 37.22 LIG 0.01  C 
ENDBRANCH 33 34
ENDBRANCH 32 33
BRANCH 32 37
ATOM     37  N   LEU D   4      -8.257 -35.698  15.064  1.00 45.71 LIG-0.35  N 
ATOM     38 H    LEU D   4      -8.006 -35.874  15.868  1.00 45.71 LIG 0.16  HD
ATOM     39  C   ASP D   3      -9.019 -36.500  14.324  1.00 59.12 LIG 0.24  C 
ATOM     40 O    ASP D   3      -9.252 -36.300  13.126  1.00 63.71 LIG-0.27  OA
BRANCH 39 41
ATOM     41  CA  ASP D   3      -9.576 -37.747  15.002  1.00 63.74 LIG 0.19  C 
BRANCH 41 42
ATOM     42  N   ASP D   3      -8.660 -38.308  15.988  1.00 62.73 LIG-0.35  N 
ATOM     43 H    ASP D   3      -8.974 -38.339  16.789  1.00 62.73 LIG 0.16  HD
ATOM     44  C   GLY D   2      -7.449 -38.729  15.650  1.00 63.13 LIG 0.25  C 
ATOM     45 O    GLY D   2      -6.991 -38.620  14.510  1.00 65.69 LIG-0.27  OA
BRANCH 44 46
ATOM     46  CA  GLY D   2      -6.630 -39.360  16.756  1.00 64.97 LIG 0.47  C 
ATOM     47  N   GLY D   2      -5.190 -38.980  16.671  1.00 67.04 LIG 0.61  N 
ENDBRANCH 44 46
ENDBRANCH 41 42
BRANCH 41 48
ATOM     48  CB  ASP D   3     -10.941 -37.439  15.630  1.00 68.02 LIG 0.15  C 
BRANCH 48 49
ATOM     49  CG  ASP D   3     -11.292 -38.384  16.754  1.00 72.98 LIG 0.17  C 
ATOM     50 OD1  ASP D   3     -12.058 -39.343  16.514  1.00 76.93 LIG-0.65  OA
ATOM     51 OD2  ASP D   3     -10.806 -38.163  17.886  1.00 81.56 LIG-0.65  OA
ENDBRANCH 48 49
ENDBRANCH 41 48
ENDBRANCH 39 41
ENDBRANCH 32 37
ENDBRANCH 30 32
ENDBRANCH 1 28
TORSDOF 21
ENDMDL
MODEL 41
USER: ADFR SOLUTION from run 148
USER: SCORE 15.802125 LL:  -4.062 LR: -12.707 RR:   0.000 FEB:  -6.443
USER: RMSD 4.242448
USER: SEED 147
USER: STATUS no improvement in best in 17 clusters for 5 generations
USER: GENES 23
USER: genes 0 Translation |==|  0.34724 0.73620 0.46109
USER: genes 1 Rotation |==|  0.31570 0.43473 0.47488 0.95950
USER: genes 2 Torsion [C]-CA--CB-[CG] |==|  0.89609
USER: genes 3 Torsion [CA]-CB--CG-[CD1] |==|  0.35207
USER: genes 4 Torsion [N]-CA--C-[N] |==|  0.03286
USER: genes 5 Torsion [C]-N--CA-[C] |==|  0.16029
USER: genes 6 Torsion [N]-CA--C-[N] |==|  0.07778
USER: genes 7 Torsion [C]-N--CA-[C] |==|  0.87426
USER: genes 8 Torsion [N]-CA--C-[O] |==|  0.27101
USER: genes 9 Torsion [N]-CA--CB-[CG] |==|  0.65730
USER: genes 10 Torsion [CA]-CB--CG-[CD1] |==|  0.53814
USER: genes 11 Torsion [N]-CA--CB-[CG] |==|  0.90772
USER: genes 12 Torsion [CA]-CB--CG-[ND2] |==|  0.43021
USER: genes 13 Torsion [CB]-CA--N-[C] |==|  0.81553
USER: genes 14 Torsion [N]-C--CA-[N] |==|  0.42865
USER: genes 15 Torsion [C]-CA--CB-[CG] |==|  0.38812
USER: genes 16 Torsion [CA]-CB--CG-[CD1] |==|  0.58298
USER: genes 17 Torsion [C]-CA--N-[C] |==|  0.55711
USER: genes 18 Torsion [N]-C--CA-[N] |==|  0.38500
USER: genes 19 Torsion [C]-CA--N-[C] |==|  0.80804
USER: genes 20 Torsion [N]-C--CA-[N] |==|  0.07550
USER: genes 21 Torsion [C]-CA--CB-[CG] |==|  0.79393
USER: genes 22 Torsion [CA]-CB--CG-[OD1] |==|  0.34222
ROOT
ATOM      1  CA  LEU D   5      -8.878 -31.879  15.714  1.00 45.78 LIG 0.18  C 
ENDROOT
BRANCH 1 2
ATOM      2  CB  LEU D   5      -9.728 -32.196  14.487  1.00 44.83 LIG 0.04  C 
BRANCH 2 3
ATOM      3  CG  LEU D   5      -9.922 -33.658  14.105  1.00 46.71 LIG-0.02  C 
ATOM      4  CD1 LEU D   5     -11.409 -33.942  13.977  1.00 43.35 LIG 0.01  C 
ATOM      5  CD2 LEU D   5      -9.197 -33.994  12.801  1.00 50.41 LIG 0.01  C 
ENDBRANCH 2 3
ENDBRANCH 1 2
BRANCH 1 6
ATOM      6  C   LEU D   5      -9.163 -32.946  16.757  1.00 49.70 LIG 0.24  C 
ATOM      7  N   ASN D   6      -8.086 -33.464  17.350  1.00 52.00 LIG-0.35  N 
ATOM      8 H    ASN D   6      -7.282 -33.274  17.112  1.00 52.00 LIG 0.16  HD
ATOM      9 O    LEU D   5     -10.336 -33.253  17.043  1.00 48.20 LIG-0.27  OA
BRANCH 7 10
ATOM     10  CA  ASN D   6      -8.159 -34.409  18.466  1.00 59.27 LIG 0.18  C 
BRANCH 10 11
ATOM     11  C   ASN D   6      -8.972 -35.633  18.027  1.00 60.71 LIG 0.24  C 
ATOM     12  N   LEU D   7      -8.952 -35.924  16.726  1.00 62.75 LIG-0.35  N 
ATOM     13 H    LEU D   7      -8.431 -35.538  16.161  1.00 62.75 LIG 0.16  HD
ATOM     14 O    ASN D   6      -9.601 -36.296  18.855  1.00 63.11 LIG-0.27  OA
BRANCH 12 15
ATOM     15  CA  LEU D   7      -9.829 -36.942  16.132  1.00 66.71 LIG 0.16  C 
BRANCH 15 16
ATOM     16  C   LEU D   7      -9.888 -38.240  16.944  1.00 66.58 LIG 0.22  C 
ATOM     17 O    LEU D   7     -10.806 -38.451  17.730  1.00 70.30 LIG-0.29  OA
ENDBRANCH 15 16
BRANCH 15 18
ATOM     18  CB  LEU D   7      -9.368 -37.231  14.697  1.00 67.13 LIG 0.04  C 
BRANCH 18 19
ATOM     19  CG  LEU D   7     -10.448 -37.026  13.624  1.00 64.50 LIG-0.02  C 
ATOM     20  CD1 LEU D   7     -10.016 -37.649  12.301  1.00 64.54 LIG 0.01  C 
ATOM     21  CD2 LEU D   7     -11.793 -37.583  14.080  1.00 62.99 LIG 0.01  C 
ENDBRANCH 18 19
ENDBRANCH 15 18
ENDBRANCH 12 15
ENDBRANCH 10 11
BRANCH 10 22
ATOM     22  CB  ASN D   6      -8.795 -33.722  19.684  1.00 63.11 LIG 0.14  C 
BRANCH 22 23
ATOM     23  CG  ASN D   6      -8.457 -32.243  19.773  1.00 71.29 LIG 0.22  C 
ATOM     24  ND2 ASN D   6      -9.326 -31.478  20.436  1.00 72.89 LIG-0.37  N 
ATOM     25 21HD ASN D   6      -9.184 -30.633  20.510  1.00 72.89 LIG 0.16  HD
ATOM     26 22HD ASN D   6     -10.027 -31.829  20.788  1.00 72.89 LIG 0.16  HD
ATOM     27 OD1  ASN D   6      -7.433 -31.787  19.247  1.00 74.05 LIG-0.27  OA
ENDBRANCH 22 23
ENDBRANCH 10 22
ENDBRANCH 7 10
ENDBRANCH 1 6
BRANCH 1 28
ATOM     28  N   LEU D   5      -7.445 -31.835  15.374  1.00 43.46 LIG-0.35  N 
ATOM     29 H    LEU D   5      -7.091 -31.055  15.450  1.00 43.46 LIG 0.16  HD
ATOM     30  C   LEU D   4      -6.774 -32.914  14.986  1.00 41.34 LIG 0.24  C 
ATOM     31 O    LEU D   4      -7.292 -34.011  14.836  1.00 44.89 LIG-0.27  OA
BRANCH 30 32
ATOM     32  CA  LEU D   4      -5.291 -32.770  14.804  1.00 41.83 LIG 0.18  C 
BRANCH 32 33
ATOM     33  CB  LEU D   4      -5.024 -32.147  13.421  1.00 37.92 LIG 0.04  C 
BRANCH 33 34
ATOM     34  CG  LEU D   4      -3.912 -31.104  13.368  1.00 37.44 LIG-0.02  C 
ATOM     35  CD1 LEU D   4      -4.212 -30.095  12.274  1.00 34.88 LIG 0.01  C 
ATOM     36  CD2 LEU D   4      -3.767 -30.396  14.718  1.00 37.22 LIG 0.01  C 
ENDBRANCH 33 34
ENDBRANCH 32 33
BRANCH 32 37
ATOM     37  N   LEU D   4      -4.559 -34.028  14.969  1.00 45.71 LIG-0.35  N 
ATOM     38 H    LEU D   4      -5.037 -34.737  14.874  1.00 45.71 LIG 0.16  HD
ATOM     39  C   ASP D   3      -3.256 -34.034  15.245  1.00 59.12 LIG 0.24  C 
ATOM     40 O    ASP D   3      -2.616 -33.013  15.519  1.00 63.71 LIG-0.27  OA
BRANCH 39 41
ATOM     41  CA  ASP D   3      -2.558 -35.389  15.265  1.00 63.74 LIG 0.19  C 
BRANCH 41 42
ATOM     42  N   ASP D   3      -1.244 -35.356  14.633  1.00 62.73 LIG-0.35  N 
ATOM     43 H    ASP D   3      -0.585 -35.453  15.177  1.00 62.73 LIG 0.16  HD
ATOM     44  C   GLY D   2      -1.108 -35.189  13.325  1.00 63.13 LIG 0.25  C 
ATOM     45 O    GLY D   2      -2.061 -34.988  12.568  1.00 65.69 LIG-0.27  OA
BRANCH 44 46
ATOM     46  CA  GLY D   2       0.307 -35.251  12.789  1.00 64.97 LIG 0.47  C 
ATOM     47  N   GLY D   2       1.191 -36.094  13.646  1.00 67.04 LIG 0.61  N 
ENDBRANCH 44 46
ENDBRANCH 41 42
BRANCH 41 48
ATOM     48  CB  ASP D   3      -2.464 -35.910  16.705  1.00 68.02 LIG 0.15  C 
BRANCH 48 49
ATOM     49  CG  ASP D   3      -1.421 -35.183  17.520  1.00 72.98 LIG 0.17  C 
ATOM     50 OD1  ASP D   3      -1.771 -34.623  18.582  1.00 76.93 LIG-0.65  OA
ATOM     51 OD2  ASP D   3      -0.246 -35.162  17.091  1.00 81.56 LIG-0.65  OA
ENDBRANCH 48 49
ENDBRANCH 41 48
ENDBRANCH 39 41
ENDBRANCH 32 37
ENDBRANCH 30 32
ENDBRANCH 1 28
TORSDOF 21
ENDMDL
MODEL 42
USER: ADFR SOLUTION from run 16
USER: SCORE 15.892743 LL:  -3.919 LR: -12.709 RR:   0.000 FEB:  -6.444
USER: RMSD 9.484686
USER: SEED 572218
USER: STATUS no improvement in best in 10 clusters for 5 generations
USER: GENES 23
USER: genes 0 Translation |==|  0.35602 0.68234 0.56219
USER: genes 1 Rotation |==|  0.88194 0.34132 0.77554 0.55500
USER: genes 2 Torsion [C]-CA--CB-[CG] |==|  0.27506
USER: genes 3 Torsion [CA]-CB--CG-[CD1] |==|  0.94276
USER: genes 4 Torsion [N]-CA--C-[N] |==|  0.16380
USER: genes 5 Torsion [C]-N--CA-[C] |==|  0.78131
USER: genes 6 Torsion [N]-CA--C-[N] |==|  1.00000
USER: genes 7 Torsion [C]-N--CA-[C] |==|  0.14614
USER: genes 8 Torsion [N]-CA--C-[O] |==|  0.62255
USER: genes 9 Torsion [N]-CA--CB-[CG] |==|  0.68534
USER: genes 10 Torsion [CA]-CB--CG-[CD1] |==|  0.63578
USER: genes 11 Torsion [N]-CA--CB-[CG] |==|  0.66766
USER: genes 12 Torsion [CA]-CB--CG-[ND2] |==|  0.27490
USER: genes 13 Torsion [CB]-CA--N-[C] |==|  0.75752
USER: genes 14 Torsion [N]-C--CA-[N] |==|  0.00415
USER: genes 15 Torsion [C]-CA--CB-[CG] |==|  0.34847
USER: genes 16 Torsion [CA]-CB--CG-[CD1] |==|  0.53932
USER: genes 17 Torsion [C]-CA--N-[C] |==|  0.72882
USER: genes 18 Torsion [N]-C--CA-[N] |==|  0.89662
USER: genes 19 Torsion [C]-CA--N-[C] |==|  0.69208
USER: genes 20 Torsion [N]-C--CA-[N] |==|  0.19464
USER: genes 21 Torsion [C]-CA--CB-[CG] |==|  0.56462
USER: genes 22 Torsion [CA]-CB--CG-[OD1] |==|  0.35585
ROOT
ATOM      1  CA  LEU D   5      -8.687 -32.970  17.458  1.00 45.78 LIG 0.18  C 
ENDROOT
BRANCH 1 2
ATOM      2  CB  LEU D   5      -9.859 -32.413  16.656  1.00 44.83 LIG 0.04  C 
BRANCH 2 3
ATOM      3  CG  LEU D   5      -9.857 -32.613  15.146  1.00 46.71 LIG-0.02  C 
ATOM      4  CD1 LEU D   5      -8.435 -32.892  14.687  1.00 43.35 LIG 0.01  C 
ATOM      5  CD2 LEU D   5     -10.787 -33.754  14.733  1.00 50.41 LIG 0.01  C 
ENDBRANCH 2 3
ENDBRANCH 1 2
BRANCH 1 6
ATOM      6  C   LEU D   5      -7.729 -31.820  17.726  1.00 49.70 LIG 0.24  C 
ATOM      7  N   ASN D   6      -6.628 -32.146  18.407  1.00 52.00 LIG-0.35  N 
ATOM      8 H    ASN D   6      -6.497 -32.926  18.742  1.00 52.00 LIG 0.16  HD
ATOM      9 O    LEU D   5      -7.969 -30.681  17.285  1.00 48.20 LIG-0.27  OA
BRANCH 7 10
ATOM     10  CA  ASN D   6      -5.530 -31.209  18.652  1.00 59.27 LIG 0.18  C 
BRANCH 10 11
ATOM     11  C   ASN D   6      -4.674 -31.105  17.385  1.00 60.71 LIG 0.24  C 
ATOM     12  N   LEU D   7      -5.060 -31.844  16.345  1.00 62.75 LIG-0.35  N 
ATOM     13 H    LEU D   7      -5.805 -32.271  16.317  1.00 62.75 LIG 0.16  HD
ATOM     14 O    ASN D   6      -3.686 -30.368  17.356  1.00 63.11 LIG-0.27  OA
BRANCH 12 15
ATOM     15  CA  LEU D   7      -4.239 -31.996  15.137  1.00 66.71 LIG 0.16  C 
BRANCH 15 16
ATOM     16  C   LEU D   7      -2.805 -32.449  15.432  1.00 66.58 LIG 0.22  C 
ATOM     17 O    LEU D   7      -1.850 -31.924  14.868  1.00 70.30 LIG-0.29  OA
ENDBRANCH 15 16
BRANCH 15 18
ATOM     18  CB  LEU D   7      -4.231 -30.672  14.360  1.00 67.13 LIG 0.04  C 
BRANCH 18 19
ATOM     19  CG  LEU D   7      -4.937 -30.726  12.996  1.00 64.50 LIG-0.02  C 
ATOM     20  CD1 LEU D   7      -4.055 -30.120  11.911  1.00 64.54 LIG 0.01  C 
ATOM     21  CD2 LEU D   7      -5.343 -32.153  12.640  1.00 62.99 LIG 0.01  C 
ENDBRANCH 18 19
ENDBRANCH 15 18
ENDBRANCH 12 15
ENDBRANCH 10 11
BRANCH 10 22
ATOM     22  CB  ASN D   6      -4.699 -31.690  19.851  1.00 63.11 LIG 0.14  C 
BRANCH 22 23
ATOM     23  CG  ASN D   6      -4.674 -30.688  20.994  1.00 71.29 LIG 0.22  C 
ATOM     24  ND2 ASN D   6      -5.518 -30.920  22.001  1.00 72.89 LIG-0.37  N 
ATOM     25 21HD ASN D   6      -5.549 -30.380  22.669  1.00 72.89 LIG 0.16  HD
ATOM     26 22HD ASN D   6      -6.033 -31.609  21.981  1.00 72.89 LIG 0.16  HD
ATOM     27 OD1  ASN D   6      -3.914 -29.711  20.974  1.00 74.05 LIG-0.27  OA
ENDBRANCH 22 23
ENDBRANCH 10 22
ENDBRANCH 7 10
ENDBRANCH 1 6
BRANCH 1 28
ATOM     28  N   LEU D   5      -9.144 -33.588  18.713  1.00 43.46 LIG-0.35  N 
ATOM     29 H    LEU D   5      -9.294 -34.433  18.654  1.00 43.46 LIG 0.16  HD
ATOM     30  C   LEU D   4      -9.306 -32.888  19.832  1.00 41.34 LIG 0.24  C 
ATOM     31 O    LEU D   4      -9.137 -31.680  19.900  1.00 44.89 LIG-0.27  OA
BRANCH 30 32
ATOM     32  CA  LEU D   4      -9.641 -33.655  21.077  1.00 41.83 LIG 0.18  C 
BRANCH 32 33
ATOM     33  CB  LEU D   4      -8.616 -33.295  22.168  1.00 37.92 LIG 0.04  C 
BRANCH 33 34
ATOM     34  CG  LEU D   4      -9.199 -32.793  23.486  1.00 37.44 LIG-0.02  C 
ATOM     35  CD1 LEU D   4      -8.100 -32.158  24.319  1.00 34.88 LIG 0.01  C 
ATOM     36  CD2 LEU D   4     -10.324 -31.787  23.233  1.00 37.22 LIG 0.01  C 
ENDBRANCH 33 34
ENDBRANCH 32 33
BRANCH 32 37
ATOM     37  N   LEU D   4      -9.707 -35.104  20.868  1.00 45.71 LIG-0.35  N 
ATOM     38 H    LEU D   4      -8.946 -35.504  20.884  1.00 45.71 LIG 0.16  HD
ATOM     39  C   ASP D   3     -10.873 -35.717  20.673  1.00 59.12 LIG 0.24  C 
ATOM     40 O    ASP D   3     -11.939 -35.113  20.510  1.00 63.71 LIG-0.27  OA
BRANCH 39 41
ATOM     41  CA  ASP D   3     -10.850 -37.241  20.599  1.00 63.74 LIG 0.19  C 
BRANCH 41 42
ATOM     42  N   ASP D   3      -9.668 -37.754  19.918  1.00 62.73 LIG-0.35  N 
ATOM     43 H    ASP D   3      -8.932 -37.645  20.350  1.00 62.73 LIG 0.16  HD
ATOM     44  C   GLY D   2      -9.751 -38.338  18.730  1.00 63.13 LIG 0.25  C 
ATOM     45 O    GLY D   2     -10.805 -38.430  18.095  1.00 65.69 LIG-0.27  OA
BRANCH 44 46
ATOM     46  CA  GLY D   2      -8.459 -38.895  18.170  1.00 64.97 LIG 0.47  C 
ATOM     47  N   GLY D   2      -7.994 -40.094  18.926  1.00 67.04 LIG 0.61  N 
ENDBRANCH 44 46
ENDBRANCH 41 42
BRANCH 41 48
ATOM     48  CB  ASP D   3     -10.978 -37.836  22.007  1.00 68.02 LIG 0.15  C 
BRANCH 48 49
ATOM     49  CG  ASP D   3     -10.419 -39.236  22.099  1.00 72.98 LIG 0.17  C 
ATOM     50 OD1  ASP D   3      -9.589 -39.493  22.998  1.00 76.93 LIG-0.65  OA
ATOM     51 OD2  ASP D   3     -10.805 -40.082  21.261  1.00 81.56 LIG-0.65  OA
ENDBRANCH 48 49
ENDBRANCH 41 48
ENDBRANCH 39 41
ENDBRANCH 32 37
ENDBRANCH 30 32
ENDBRANCH 1 28
TORSDOF 21
ENDMDL
MODEL 43
USER: ADFR SOLUTION from run 187
USER: SCORE 14.230765 LL:  -4.175 LR: -12.679 RR:   0.000 FEB:  -6.415
USER: RMSD 7.222234
USER: SEED 186
USER: STATUS no improvement in best in 42 clusters for 5 generations
USER: GENES 23
USER: genes 0 Translation |==|  0.54941 0.71154 0.38937
USER: genes 1 Rotation |==|  0.31108 0.51073 0.22323 0.87093
USER: genes 2 Torsion [C]-CA--CB-[CG] |==|  0.37342
USER: genes 3 Torsion [CA]-CB--CG-[CD1] |==|  0.66026
USER: genes 4 Torsion [N]-CA--C-[N] |==|  0.54738
USER: genes 5 Torsion [C]-N--CA-[C] |==|  0.19262
USER: genes 6 Torsion [N]-CA--C-[N] |==|  0.02783
USER: genes 7 Torsion [C]-N--CA-[C] |==|  0.55580
USER: genes 8 Torsion [N]-CA--C-[O] |==|  0.89193
USER: genes 9 Torsion [N]-CA--CB-[CG] |==|  0.71886
USER: genes 10 Torsion [CA]-CB--CG-[CD1] |==|  0.94384
USER: genes 11 Torsion [N]-CA--CB-[CG] |==|  0.57066
USER: genes 12 Torsion [CA]-CB--CG-[ND2] |==|  0.80847
USER: genes 13 Torsion [CB]-CA--N-[C] |==|  0.30415
USER: genes 14 Torsion [N]-C--CA-[N] |==|  0.76735
USER: genes 15 Torsion [C]-CA--CB-[CG] |==|  0.47841
USER: genes 16 Torsion [CA]-CB--CG-[CD1] |==|  0.26133
USER: genes 17 Torsion [C]-CA--N-[C] |==|  0.67069
USER: genes 18 Torsion [N]-C--CA-[N] |==|  0.41968
USER: genes 19 Torsion [C]-CA--N-[C] |==|  0.80371
USER: genes 20 Torsion [N]-C--CA-[N] |==|  0.35894
USER: genes 21 Torsion [C]-CA--CB-[CG] |==|  0.96792
USER: genes 22 Torsion [CA]-CB--CG-[OD1] |==|  0.78540
ROOT
ATOM      1  CA  LEU D   5      -4.480 -32.378  14.477  1.00 45.78 LIG 0.18  C 
ENDROOT
BRANCH 1 2
ATOM      2  CB  LEU D   5      -4.990 -31.847  13.140  1.00 44.83 LIG 0.04  C 
BRANCH 2 3
ATOM      3  CG  LEU D   5      -4.221 -30.712  12.477  1.00 46.71 LIG-0.02  C 
ATOM      4  CD1 LEU D   5      -5.162 -29.537  12.263  1.00 43.35 LIG 0.01  C 
ATOM      5  CD2 LEU D   5      -3.017 -30.287  13.319  1.00 50.41 LIG 0.01  C 
ENDBRANCH 2 3
ENDBRANCH 1 2
BRANCH 1 6
ATOM      6  C   LEU D   5      -5.679 -32.517  15.400  1.00 49.70 LIG 0.24  C 
ATOM      7  N   ASN D   6      -6.565 -31.521  15.334  1.00 52.00 LIG-0.35  N 
ATOM      8 H    ASN D   6      -6.439 -30.810  14.867  1.00 52.00 LIG 0.16  HD
ATOM      9 O    LEU D   5      -5.812 -33.527  16.117  1.00 48.20 LIG-0.27  OA
BRANCH 7 10
ATOM     10  CA  ASN D   6      -7.842 -31.534  16.049  1.00 59.27 LIG 0.18  C 
BRANCH 10 11
ATOM     11  C   ASN D   6      -7.571 -31.402  17.552  1.00 60.71 LIG 0.24  C 
ATOM     12  N   LEU D   7      -6.322 -31.099  17.906  1.00 62.75 LIG-0.35  N 
ATOM     13 H    LEU D   7      -5.712 -30.869  17.346  1.00 62.75 LIG 0.16  HD
ATOM     14 O    ASN D   6      -8.479 -31.572  18.370  1.00 63.11 LIG-0.27  OA
BRANCH 12 15
ATOM     15  CA  LEU D   7      -5.869 -31.128  19.303  1.00 66.71 LIG 0.16  C 
BRANCH 15 16
ATOM     16  C   LEU D   7      -4.600 -30.303  19.546  1.00 66.58 LIG 0.22  C 
ATOM     17 O    LEU D   7      -3.692 -30.287  18.723  1.00 70.30 LIG-0.29  OA
ENDBRANCH 15 16
BRANCH 15 18
ATOM     18  CB  LEU D   7      -5.648 -32.586  19.732  1.00 67.13 LIG 0.04  C 
BRANCH 18 19
ATOM     19  CG  LEU D   7      -6.781 -33.183  20.579  1.00 64.50 LIG-0.02  C 
ATOM     20  CD1 LEU D   7      -7.618 -32.078  21.213  1.00 64.54 LIG 0.01  C 
ATOM     21  CD2 LEU D   7      -7.652 -34.125  19.752  1.00 62.99 LIG 0.01  C 
ENDBRANCH 18 19
ENDBRANCH 15 18
ENDBRANCH 12 15
ENDBRANCH 10 11
BRANCH 10 22
ATOM     22  CB  ASN D   6      -8.601 -32.831  15.729  1.00 63.11 LIG 0.14  C 
BRANCH 22 23
ATOM     23  CG  ASN D   6     -10.106 -32.690  15.888  1.00 71.29 LIG 0.22  C 
ATOM     24  ND2 ASN D   6     -10.556 -32.537  17.135  1.00 72.89 LIG-0.37  N 
ATOM     25 21HD ASN D   6     -11.400 -32.459  17.281  1.00 72.89 LIG 0.16  HD
ATOM     26 22HD ASN D   6     -10.002 -32.518  17.793  1.00 72.89 LIG 0.16  HD
ATOM     27 OD1  ASN D   6     -10.860 -32.725  14.907  1.00 74.05 LIG-0.27  OA
ENDBRANCH 22 23
ENDBRANCH 10 22
ENDBRANCH 7 10
ENDBRANCH 1 6
BRANCH 1 28
ATOM     28  N   LEU D   5      -3.783 -33.665  14.310  1.00 43.46 LIG-0.35  N 
ATOM     29 H    LEU D   5      -4.302 -34.322  14.112  1.00 43.46 LIG 0.16  HD
ATOM     30  C   LEU D   4      -2.467 -33.783  14.454  1.00 41.34 LIG 0.24  C 
ATOM     31 O    LEU D   4      -1.740 -32.857  14.780  1.00 44.89 LIG-0.27  OA
BRANCH 30 32
ATOM     32  CA  LEU D   4      -1.859 -35.114  14.121  1.00 41.83 LIG 0.18  C 
BRANCH 32 33
ATOM     33  CB  LEU D   4      -2.540 -35.664  12.855  1.00 37.92 LIG 0.04  C 
BRANCH 33 34
ATOM     34  CG  LEU D   4      -1.920 -36.926  12.263  1.00 37.44 LIG-0.02  C 
ATOM     35  CD1 LEU D   4      -2.641 -38.149  12.802  1.00 34.88 LIG 0.01  C 
ATOM     36  CD2 LEU D   4      -1.988 -36.900  10.735  1.00 37.22 LIG 0.01  C 
ENDBRANCH 33 34
ENDBRANCH 32 33
BRANCH 32 37
ATOM     37  N   LEU D   4      -1.930 -36.078  15.222  1.00 45.71 LIG-0.35  N 
ATOM     38 H    LEU D   4      -2.728 -36.280  15.473  1.00 45.71 LIG 0.16  HD
ATOM     39  C   ASP D   3      -0.823 -36.580  15.767  1.00 59.12 LIG 0.24  C 
ATOM     40 O    ASP D   3       0.312 -36.174  15.496  1.00 63.71 LIG-0.27  OA
BRANCH 39 41
ATOM     41  CA  ASP D   3      -1.002 -37.675  16.814  1.00 63.74 LIG 0.19  C 
BRANCH 41 42
ATOM     42  N   ASP D   3       0.125 -38.598  16.862  1.00 62.73 LIG-0.35  N 
ATOM     43 H    ASP D   3       0.613 -38.529  17.568  1.00 62.73 LIG 0.16  HD
ATOM     44  C   GLY D   2       0.355 -39.464  15.884  1.00 63.13 LIG 0.25  C 
ATOM     45 O    GLY D   2      -0.317 -39.507  14.851  1.00 65.69 LIG-0.27  OA
BRANCH 44 46
ATOM     46  CA  GLY D   2       1.513 -40.416  16.096  1.00 64.97 LIG 0.47  C 
ATOM     47  N   GLY D   2       1.118 -41.835  15.862  1.00 67.04 LIG 0.61  N 
ENDBRANCH 44 46
ENDBRANCH 41 42
BRANCH 41 48
ATOM     48  CB  ASP D   3      -1.260 -37.048  18.191  1.00 68.02 LIG 0.15  C 
BRANCH 48 49
ATOM     49  CG  ASP D   3      -0.997 -35.561  18.211  1.00 72.98 LIG 0.17  C 
ATOM     50 OD1  ASP D   3       0.187 -35.162  18.260  1.00 76.93 LIG-0.65  OA
ATOM     51 OD2  ASP D   3      -1.980 -34.787  18.188  1.00 81.56 LIG-0.65  OA
ENDBRANCH 48 49
ENDBRANCH 41 48
ENDBRANCH 39 41
ENDBRANCH 32 37
ENDBRANCH 30 32
ENDBRANCH 1 28
TORSDOF 21
ENDMDL
