MODEL 1
USER: ADFR SOLUTION from run 66
USER: SCORE 21.435817 LL:  -6.287 LR: -19.479 RR:   0.000 FEB: -10.828
USER: RMSD 4.312431
USER: SEED 65
USER: STATUS no improvement in best in 6 clusters for 5 generations
USER: GENES 31
USER: genes 0 Translation |==|  0.62116 0.62076 0.65440
USER: genes 1 Rotation |==|  0.45269 0.39745 0.36176 0.96705
USER: genes 2 Torsion [CB]-CA--N-[C] |==|  0.87617
USER: genes 3 Torsion [N]-C--CA-[N] |==|  0.25600
USER: genes 4 Torsion [C]-CA--N-[C] |==|  0.80531
USER: genes 5 Torsion [N]-C--CA-[N] |==|  0.02287
USER: genes 6 Torsion [C]-CA--N-[C] |==|  0.63860
USER: genes 7 Torsion [N]-C--CA-[N] |==|  0.44729
USER: genes 8 Torsion [C]-CA--N-[H3] |==|  0.05210
USER: genes 9 Torsion [C]-CA--CB-[CG] |==|  0.86117
USER: genes 10 Torsion [CA]-CB--CG-[CD] |==|  0.79374
USER: genes 11 Torsion [CB]-CG--CD-[OE2] |==|  0.42383
USER: genes 12 Torsion [C]-CA--CB-[CG2] |==|  0.51473
USER: genes 13 Torsion [CA]-CB--OG1-[HG1] |==|  0.98934
USER: genes 14 Torsion [C]-CA--CB-[CG] |==|  0.72349
USER: genes 15 Torsion [CA]-CB--CG-[CD2] |==|  0.62869
USER: genes 16 Torsion [N]-CA--C-[N] |==|  0.29746
USER: genes 17 Torsion [C]-N--CA-[CB] |==|  0.41306
USER: genes 18 Torsion [N]-CA--CB-[CG] |==|  0.14208
USER: genes 19 Torsion [CA]-CB--CG-[OD1] |==|  0.83516
USER: genes 20 Torsion [N]-CA--C-[N] |==|  0.08086
USER: genes 21 Torsion [C]-N--CA-[CB] |==|  0.77352
USER: genes 22 Torsion [N]-CA--CB-[CG] |==|  0.93499
USER: genes 23 Torsion [CA]-CB--CG-[CD2] |==|  0.60515
USER: genes 24 Torsion [N]-CA--C-[N] |==|  0.66695
USER: genes 25 Torsion [C]-N--CA-[CB] |==|  0.87801
USER: genes 26 Torsion [N]-CA--CB-[CG] |==|  0.56048
USER: genes 27 Torsion [CA]-CB--CG-[OD2] |==|  0.27142
USER: genes 28 Torsion [N]-CA--C-[O] |==|  0.72945
USER: genes 29 Torsion [N]-CA--CB-[CG] |==|  0.51409
USER: genes 30 Torsion [CA]-CB--CG-[CD2] |==|  0.09151
ROOT
ATOM      1  CA  LEU E   4      22.400 -17.794   0.613  1.00 22.51 LIG 0.18  C 
ENDROOT
BRANCH 1 2
ATOM      2  N   LEU E   4      21.971 -17.068  -0.554  1.00 20.57 LIG-0.35  N 
ATOM      3  C   LEU E   3      20.708 -16.724  -0.797  1.00 20.37 LIG 0.24  C 
ATOM      4 O    LEU E   3      19.755 -17.033  -0.067  1.00 19.26 LIG-0.27  OA
ATOM      5 H    LEU E   4      22.616 -16.873  -1.089  1.00 20.57 LIG 0.16  HD
BRANCH 3 6
ATOM      6  CA  LEU E   3      20.440 -15.962  -2.098  1.00 20.55 LIG 0.18  C 
BRANCH 6 7
ATOM      7  N   LEU E   3      20.094 -16.763  -3.249  1.00 20.86 LIG-0.35  N 
ATOM      8  C   THR E   2      21.008 -17.536  -3.828  1.00 24.34 LIG 0.24  C 
ATOM      9 O    THR E   2      22.118 -17.752  -3.324  1.00 23.87 LIG-0.27  OA
ATOM     10 H    LEU E   3      19.277 -16.692  -3.508  1.00 20.86 LIG 0.16  HD
BRANCH 8 11
ATOM     11  CA  THR E   2      20.622 -18.158  -5.146  1.00 25.18 LIG 0.20  C 
BRANCH 11 12
ATOM     12  N   THR E   2      19.344 -17.577  -5.572  1.00 26.55 LIG-0.34  N 
ATOM     13  C   GLU E   1      18.316 -18.324  -5.958  1.00 27.17 LIG 0.25  C 
ATOM     14 O    GLU E   1      18.385 -19.549  -6.113  1.00 25.74 LIG-0.27  OA
ATOM     15 H    THR E   2      19.325 -16.717  -5.548  1.00 26.55 LIG 0.16  HD
BRANCH 13 16
ATOM     16  CA  GLU E   1      17.015 -17.586  -6.273  1.00 31.71 LIG 0.28  C 
BRANCH 16 17
ATOM     17  N   GLU E   1      16.183 -18.488  -7.098  1.00 33.09 LIG-0.07  N 
ATOM     18 H3   GLU E   1      16.473 -19.325  -7.008  1.00 33.09 LIG 0.28  HD
ATOM     19 H2   GLU E   1      16.240 -18.246  -7.952  1.00 33.09 LIG 0.28  HD
ATOM     20 H1   GLU E   1      15.336 -18.438  -6.831  1.00 33.09 LIG 0.28  HD
ENDBRANCH 16 17
BRANCH 16 21
ATOM     21  CB  GLU E   1      16.286 -17.210  -4.975  1.00 32.36 LIG 0.05  C 
BRANCH 21 22
ATOM     22  CG  GLU E   1      16.137 -18.378  -4.014  1.00 32.63 LIG 0.12  C 
BRANCH 22 23
ATOM     23  CD  GLU E   1      15.084 -19.398  -4.430  1.00 33.25 LIG 0.17  C 
ATOM     24 OE2  GLU E   1      15.227 -20.584  -4.051  1.00 34.04 LIG-0.65  OA
ATOM     25 OE1  GLU E   1      14.118 -19.040  -5.135  1.00 33.29 LIG-0.65  OA
ENDBRANCH 22 23
ENDBRANCH 21 22
ENDBRANCH 16 21
ENDBRANCH 13 16
ENDBRANCH 11 12
BRANCH 11 26
ATOM     26  CB  THR E   2      21.724 -17.922  -6.193  1.00 27.29 LIG 0.15  C 
ATOM     27  CG2 THR E   2      21.291 -18.423  -7.524  1.00 26.73 LIG 0.04  C 
BRANCH 26 28
ATOM     28 OG1  THR E   2      21.963 -16.510  -6.284  1.00 28.79 LIG-0.39  OA
ATOM     29 HG1  THR E   2      21.420 -16.102  -5.790  1.00 28.79 LIG 0.21  HD
ENDBRANCH 26 28
ENDBRANCH 11 26
ENDBRANCH 8 11
ENDBRANCH 6 7
BRANCH 6 30
ATOM     30  CB  LEU E   3      19.335 -14.912  -1.868  1.00 20.98 LIG 0.04  C 
BRANCH 30 31
ATOM     31  CG  LEU E   3      17.934 -15.285  -2.317  1.00 22.16 LIG-0.02  C 
ATOM     32  CD2 LEU E   3      17.231 -14.203  -3.095  1.00 24.43 LIG 0.01  C 
ATOM     33  CD1 LEU E   3      17.134 -15.692  -1.093  1.00 21.08 LIG 0.01  C 
ENDBRANCH 30 31
ENDBRANCH 6 30
ENDBRANCH 3 6
ENDBRANCH 1 2
BRANCH 1 34
ATOM     34  C   LEU E   4      21.987 -19.253   0.422  1.00 22.59 LIG 0.24  C 
ATOM     35 O    LEU E   4      20.807 -19.571   0.499  1.00 22.01 LIG-0.27  OA
ATOM     36  N   ASP E   5      22.961 -20.113   0.157  1.00 23.28 LIG-0.35  N 
ATOM     37 H    ASP E   5      23.784 -19.886   0.056  1.00 23.28 LIG 0.16  HD
BRANCH 36 38
ATOM     38  CA  ASP E   5      22.710 -21.567   0.009  1.00 26.12 LIG 0.19  C 
BRANCH 38 39
ATOM     39  CB  ASP E   5      23.694 -22.173  -0.983  1.00 27.88 LIG 0.15  C 
BRANCH 39 40
ATOM     40  CG  ASP E   5      25.163 -21.821  -0.672  1.00 30.83 LIG 0.17  C 
ATOM     41 OD1  ASP E   5      25.545 -20.637  -0.636  1.00 34.24 LIG-0.65  OA
ATOM     42 OD2  ASP E   5      25.925 -22.774  -0.458  1.00 35.63 LIG-0.65  OA
ENDBRANCH 39 40
ENDBRANCH 38 39
BRANCH 38 43
ATOM     43  C   ASP E   5      22.856 -22.227   1.367  1.00 25.92 LIG 0.24  C 
ATOM     44 O    ASP E   5      23.263 -23.394   1.454  1.00 27.30 LIG-0.27  OA
ATOM     45  N   LEU E   6      22.570 -21.471   2.416  1.00 28.24 LIG-0.35  N 
ATOM     46 H    LEU E   6      22.307 -20.654   2.358  1.00 28.24 LIG 0.16  HD
BRANCH 45 47
ATOM     47  CA  LEU E   6      22.678 -21.976   3.796  1.00 31.78 LIG 0.18  C 
BRANCH 47 48
ATOM     48  CB  LEU E   6      21.429 -22.789   4.181  1.00 30.53 LIG 0.04  C 
BRANCH 48 49
ATOM     49  CG  LEU E   6      20.181 -22.446   3.363  1.00 30.12 LIG-0.02  C 
ATOM     50  CD1 LEU E   6      20.016 -23.362   2.163  1.00 29.14 LIG 0.01  C 
ATOM     51  CD2 LEU E   6      18.927 -22.477   4.236  1.00 31.89 LIG 0.01  C 
ENDBRANCH 48 49
ENDBRANCH 47 48
BRANCH 47 52
ATOM     52  C   LEU E   6      23.937 -22.812   4.017  1.00 36.88 LIG 0.24  C 
ATOM     53 O    LEU E   6      25.047 -22.294   3.827  1.00 37.54 LIG-0.27  OA
ATOM     54  N   ASP E   7      23.757 -24.080   4.401  1.00 40.21 LIG-0.35  N 
ATOM     55 H    ASP E   7      22.987 -24.402   4.609  1.00 40.21 LIG 0.16  HD
BRANCH 54 56
ATOM     56  CA  ASP E   7      24.848 -25.050   4.506  1.00 48.33 LIG 0.17  C 
BRANCH 56 57
ATOM     57  CB  ASP E   7      25.756 -24.936   3.294  1.00 51.73 LIG 0.15  C 
BRANCH 57 58
ATOM     58  CG  ASP E   7      26.566 -26.197   3.053  1.00 58.06 LIG 0.17  C 
ATOM     59 OD2  ASP E   7      26.142 -27.012   2.207  1.00 65.10 LIG-0.65  OA
ATOM     60 OD1  ASP E   7      27.629 -26.378   3.696  1.00 65.94 LIG-0.65  OA
ENDBRANCH 57 58
ENDBRANCH 56 57
BRANCH 56 61
ATOM     61  C   ASP E   7      25.663 -24.844   5.775  1.00 49.55 LIG 0.22  C 
ATOM     62 O    ASP E   7      26.713 -24.204   5.737  1.00 55.15 LIG-0.29  OA
ENDBRANCH 56 61
ENDBRANCH 54 56
ENDBRANCH 47 52
ENDBRANCH 45 47
ENDBRANCH 38 43
ENDBRANCH 36 38
ENDBRANCH 1 34
BRANCH 1 63
ATOM     63  CB  LEU E   4      21.730 -17.216   1.864  1.00 22.63 LIG 0.04  C 
BRANCH 63 64
ATOM     64  CG  LEU E   4      22.107 -17.736   3.248  1.00 23.40 LIG-0.02  C 
ATOM     65  CD2 LEU E   4      23.582 -18.135   3.257  1.00 23.91 LIG 0.01  C 
ATOM     66  CD1 LEU E   4      21.228 -18.894   3.677  1.00 22.51 LIG 0.01  C 
ENDBRANCH 63 64
ENDBRANCH 1 63
TORSDOF 29
ENDMDL
MODEL 2
USER: ADFR SOLUTION from run 136
USER: SCORE 22.436579 LL:  -6.525 LR: -19.451 RR:   0.000 FEB: -10.800
USER: RMSD 2.717529
USER: SEED 135
USER: STATUS no improvement in best in 3 clusters for 5 generations
USER: GENES 31
USER: genes 0 Translation |==|  0.57236 0.64812 0.60788
USER: genes 1 Rotation |==|  0.40579 0.55550 0.49671 0.98789
USER: genes 2 Torsion [CB]-CA--N-[C] |==|  0.24772
USER: genes 3 Torsion [N]-C--CA-[N] |==|  0.93477
USER: genes 4 Torsion [C]-CA--N-[C] |==|  0.79229
USER: genes 5 Torsion [N]-C--CA-[N] |==|  0.34449
USER: genes 6 Torsion [C]-CA--N-[C] |==|  0.84061
USER: genes 7 Torsion [N]-C--CA-[N] |==|  0.04526
USER: genes 8 Torsion [C]-CA--N-[H3] |==|  0.13857
USER: genes 9 Torsion [C]-CA--CB-[CG] |==|  0.74238
USER: genes 10 Torsion [CA]-CB--CG-[CD] |==|  0.16242
USER: genes 11 Torsion [CB]-CG--CD-[OE2] |==|  0.31654
USER: genes 12 Torsion [C]-CA--CB-[CG2] |==|  0.07010
USER: genes 13 Torsion [CA]-CB--OG1-[HG1] |==|  0.53337
USER: genes 14 Torsion [C]-CA--CB-[CG] |==|  0.33981
USER: genes 15 Torsion [CA]-CB--CG-[CD2] |==|  0.35905
USER: genes 16 Torsion [N]-CA--C-[N] |==|  0.39062
USER: genes 17 Torsion [C]-N--CA-[CB] |==|  0.44853
USER: genes 18 Torsion [N]-CA--CB-[CG] |==|  0.53783
USER: genes 19 Torsion [CA]-CB--CG-[OD1] |==|  0.52708
USER: genes 20 Torsion [N]-CA--C-[N] |==|  0.41913
USER: genes 21 Torsion [C]-N--CA-[CB] |==|  0.34502
USER: genes 22 Torsion [N]-CA--CB-[CG] |==|  0.71945
USER: genes 23 Torsion [CA]-CB--CG-[CD2] |==|  0.37031
USER: genes 24 Torsion [N]-CA--C-[N] |==|  0.89248
USER: genes 25 Torsion [C]-N--CA-[CB] |==|  0.46196
USER: genes 26 Torsion [N]-CA--CB-[CG] |==|  0.64324
USER: genes 27 Torsion [CA]-CB--CG-[OD2] |==|  0.86710
USER: genes 28 Torsion [N]-CA--C-[O] |==|  0.90988
USER: genes 29 Torsion [N]-CA--CB-[CG] |==|  0.35770
USER: genes 30 Torsion [CA]-CB--CG-[CD2] |==|  0.74051
ROOT
ATOM      1  CA  LEU E   4      21.265 -17.158  -0.330  1.00 22.51 LIG 0.18  C 
ENDROOT
BRANCH 1 2
ATOM      2  N   LEU E   4      19.947 -16.941  -0.866  1.00 20.57 LIG-0.35  N 
ATOM      3  C   LEU E   3      19.590 -15.862  -1.558  1.00 20.37 LIG 0.24  C 
ATOM      4 O    LEU E   3      20.343 -14.901  -1.776  1.00 19.26 LIG-0.27  OA
ATOM      5 H    LEU E   4      19.401 -17.584  -0.696  1.00 20.57 LIG 0.16  HD
BRANCH 3 6
ATOM      6  CA  LEU E   3      18.138 -15.800  -2.040  1.00 20.55 LIG 0.18  C 
BRANCH 6 7
ATOM      7  N   LEU E   3      17.455 -17.065  -2.177  1.00 20.86 LIG-0.35  N 
ATOM      8  C   THR E   2      17.732 -17.870  -3.200  1.00 24.34 LIG 0.24  C 
ATOM      9 O    THR E   2      18.688 -17.677  -3.963  1.00 23.87 LIG-0.27  OA
ATOM     10 H    LEU E   3      16.880 -17.236  -1.562  1.00 20.86 LIG 0.16  HD
BRANCH 8 11
ATOM     11  CA  THR E   2      16.820 -19.055  -3.386  1.00 25.18 LIG 0.20  C 
BRANCH 11 12
ATOM     12  N   THR E   2      16.275 -19.005  -4.748  1.00 26.55 LIG-0.34  N 
ATOM     13  C   GLU E   1      15.591 -17.961  -5.203  1.00 27.17 LIG 0.25  C 
ATOM     14 O    GLU E   1      15.249 -17.009  -4.491  1.00 25.74 LIG-0.27  OA
ATOM     15 H    THR E   2      16.438 -19.707  -5.216  1.00 26.55 LIG 0.16  HD
BRANCH 13 16
ATOM     16  CA  GLU E   1      15.176 -18.004  -6.673  1.00 31.71 LIG 0.28  C 
BRANCH 16 17
ATOM     17  N   GLU E   1      15.312 -19.404  -7.131  1.00 33.09 LIG-0.07  N 
ATOM     18 H3   GLU E   1      14.903 -19.946  -6.556  1.00 33.09 LIG 0.28  HD
ATOM     19 H2   GLU E   1      16.174 -19.618  -7.177  1.00 33.09 LIG 0.28  HD
ATOM     20 H1   GLU E   1      14.942 -19.491  -7.935  1.00 33.09 LIG 0.28  HD
ENDBRANCH 16 17
BRANCH 16 21
ATOM     21  CB  GLU E   1      13.729 -17.518  -6.835  1.00 32.36 LIG 0.05  C 
BRANCH 21 22
ATOM     22  CG  GLU E   1      12.711 -18.647  -6.796  1.00 32.63 LIG 0.12  C 
BRANCH 22 23
ATOM     23  CD  GLU E   1      12.741 -19.471  -5.514  1.00 33.25 LIG 0.17  C 
ATOM     24 OE2  GLU E   1      11.743 -19.423  -4.758  1.00 34.04 LIG-0.65  OA
ATOM     25 OE1  GLU E   1      13.746 -20.160  -5.244  1.00 33.29 LIG-0.65  OA
ENDBRANCH 22 23
ENDBRANCH 21 22
ENDBRANCH 16 21
ENDBRANCH 13 16
ENDBRANCH 11 12
BRANCH 11 26
ATOM     26  CB  THR E   2      17.586 -20.366  -3.136  1.00 27.29 LIG 0.15  C 
ATOM     27  CG2 THR E   2      18.743 -20.126  -2.234  1.00 26.73 LIG 0.04  C 
BRANCH 26 28
ATOM     28 OG1  THR E   2      16.693 -21.295  -2.507  1.00 28.79 LIG-0.39  OA
ATOM     29 HG1  THR E   2      17.129 -21.950  -2.216  1.00 28.79 LIG 0.21  HD
ENDBRANCH 26 28
ENDBRANCH 11 26
ENDBRANCH 8 11
ENDBRANCH 6 7
BRANCH 6 30
ATOM     30  CB  LEU E   3      17.318 -14.886  -1.107  1.00 20.98 LIG 0.04  C 
BRANCH 30 31
ATOM     31  CG  LEU E   3      16.620 -13.703  -1.754  1.00 22.16 LIG-0.02  C 
ATOM     32  CD2 LEU E   3      15.158 -13.591  -1.408  1.00 24.43 LIG 0.01  C 
ATOM     33  CD1 LEU E   3      16.826 -13.791  -3.255  1.00 21.08 LIG 0.01  C 
ENDBRANCH 30 31
ENDBRANCH 6 30
ENDBRANCH 3 6
ENDBRANCH 1 2
BRANCH 1 34
ATOM     34  C   LEU E   4      21.497 -18.668  -0.281  1.00 22.59 LIG 0.24  C 
ATOM     35 O    LEU E   4      20.582 -19.418   0.032  1.00 22.01 LIG-0.27  OA
ATOM     36  N   ASP E   5      22.711 -19.090  -0.609  1.00 23.28 LIG-0.35  N 
ATOM     37 H    ASP E   5      23.342 -18.569  -0.873  1.00 23.28 LIG 0.16  HD
BRANCH 36 38
ATOM     38  CA  ASP E   5      23.091 -20.522  -0.546  1.00 26.12 LIG 0.19  C 
BRANCH 38 39
ATOM     39  CB  ASP E   5      24.337 -20.773  -1.385  1.00 27.88 LIG 0.15  C 
BRANCH 39 40
ATOM     40  CG  ASP E   5      24.604 -22.269  -1.644  1.00 30.83 LIG 0.17  C 
ATOM     41 OD1  ASP E   5      25.673 -22.651  -2.157  1.00 34.24 LIG-0.65  OA
ATOM     42 OD2  ASP E   5      23.706 -23.055  -1.311  1.00 35.63 LIG-0.65  OA
ENDBRANCH 39 40
ENDBRANCH 38 39
BRANCH 38 43
ATOM     43  C   ASP E   5      23.347 -20.894   0.902  1.00 25.92 LIG 0.24  C 
ATOM     44 O    ASP E   5      23.716 -20.032   1.712  1.00 27.30 LIG-0.27  OA
ATOM     45  N   LEU E   6      23.111 -22.155   1.231  1.00 28.24 LIG-0.35  N 
ATOM     46 H    LEU E   6      22.835 -22.749   0.674  1.00 28.24 LIG 0.16  HD
BRANCH 45 47
ATOM     47  CA  LEU E   6      23.305 -22.655   2.603  1.00 31.78 LIG 0.18  C 
BRANCH 47 48
ATOM     48  CB  LEU E   6      22.014 -23.298   3.140  1.00 30.53 LIG 0.04  C 
BRANCH 48 49
ATOM     49  CG  LEU E   6      21.213 -22.400   4.087  1.00 30.12 LIG-0.02  C 
ATOM     50  CD1 LEU E   6      21.753 -20.980   4.121  1.00 29.14 LIG 0.01  C 
ATOM     51  CD2 LEU E   6      19.729 -22.400   3.721  1.00 31.89 LIG 0.01  C 
ENDBRANCH 48 49
ENDBRANCH 47 48
BRANCH 47 52
ATOM     52  C   LEU E   6      24.465 -23.644   2.708  1.00 36.88 LIG 0.24  C 
ATOM     53 O    LEU E   6      25.208 -23.600   3.701  1.00 37.54 LIG-0.27  OA
ATOM     54  N   ASP E   7      24.615 -24.505   1.697  1.00 40.21 LIG-0.35  N 
ATOM     55 H    ASP E   7      24.046 -24.580   1.056  1.00 40.21 LIG 0.16  HD
BRANCH 54 56
ATOM     56  CA  ASP E   7      25.760 -25.408   1.574  1.00 48.33 LIG 0.17  C 
BRANCH 56 57
ATOM     57  CB  ASP E   7      25.467 -26.469   0.526  1.00 51.73 LIG 0.15  C 
BRANCH 57 58
ATOM     58  CG  ASP E   7      25.712 -27.876   1.039  1.00 58.06 LIG 0.17  C 
ATOM     59 OD2  ASP E   7      26.785 -28.103   1.635  1.00 65.10 LIG-0.65  OA
ATOM     60 OD1  ASP E   7      24.835 -28.757   0.861  1.00 65.94 LIG-0.65  OA
ENDBRANCH 57 58
ENDBRANCH 56 57
BRANCH 56 61
ATOM     61  C   ASP E   7      27.030 -24.659   1.198  1.00 49.55 LIG 0.22  C 
ATOM     62 O    ASP E   7      26.968 -23.657   0.486  1.00 55.15 LIG-0.29  OA
ENDBRANCH 56 61
ENDBRANCH 54 56
ENDBRANCH 47 52
ENDBRANCH 45 47
ENDBRANCH 38 43
ENDBRANCH 36 38
ENDBRANCH 1 34
BRANCH 1 63
ATOM     63  CB  LEU E   4      21.360 -16.565   1.080  1.00 22.63 LIG 0.04  C 
BRANCH 63 64
ATOM     64  CG  LEU E   4      21.883 -17.410   2.238  1.00 23.40 LIG-0.02  C 
ATOM     65  CD2 LEU E   4      20.708 -18.073   2.955  1.00 23.91 LIG 0.01  C 
ATOM     66  CD1 LEU E   4      22.718 -16.591   3.203  1.00 22.51 LIG 0.01  C 
ENDBRANCH 63 64
ENDBRANCH 1 63
TORSDOF 29
ENDMDL
MODEL 3
USER: ADFR SOLUTION from run 173
USER: SCORE 22.414160 LL:  -6.755 LR: -18.999 RR:   0.000 FEB: -10.348
USER: RMSD 4.967244
USER: SEED 172
USER: STATUS no improvement in best in 4 clusters for 5 generations
USER: GENES 31
USER: genes 0 Translation |==|  0.55791 0.65290 0.57759
USER: genes 1 Rotation |==|  0.38162 0.55886 0.47305 0.98145
USER: genes 2 Torsion [CB]-CA--N-[C] |==|  0.20671
USER: genes 3 Torsion [N]-C--CA-[N] |==|  0.92669
USER: genes 4 Torsion [C]-CA--N-[C] |==|  0.83747
USER: genes 5 Torsion [N]-C--CA-[N] |==|  0.76252
USER: genes 6 Torsion [C]-CA--N-[C] |==|  0.71875
USER: genes 7 Torsion [N]-C--CA-[N] |==|  0.79789
USER: genes 8 Torsion [C]-CA--N-[H3] |==|  0.06855
USER: genes 9 Torsion [C]-CA--CB-[CG] |==|  0.24067
USER: genes 10 Torsion [CA]-CB--CG-[CD] |==|  0.70078
USER: genes 11 Torsion [CB]-CG--CD-[OE2] |==|  0.14730
USER: genes 12 Torsion [C]-CA--CB-[CG2] |==|  0.23847
USER: genes 13 Torsion [CA]-CB--OG1-[HG1] |==|  0.90461
USER: genes 14 Torsion [C]-CA--CB-[CG] |==|  0.33946
USER: genes 15 Torsion [CA]-CB--CG-[CD2] |==|  0.37304
USER: genes 16 Torsion [N]-CA--C-[N] |==|  0.42665
USER: genes 17 Torsion [C]-N--CA-[CB] |==|  0.52225
USER: genes 18 Torsion [N]-CA--CB-[CG] |==|  0.50241
USER: genes 19 Torsion [CA]-CB--CG-[OD1] |==|  0.73751
USER: genes 20 Torsion [N]-CA--C-[N] |==|  0.36111
USER: genes 21 Torsion [C]-N--CA-[CB] |==|  0.51688
USER: genes 22 Torsion [N]-CA--CB-[CG] |==|  0.83819
USER: genes 23 Torsion [CA]-CB--CG-[CD2] |==|  0.68628
USER: genes 24 Torsion [N]-CA--C-[N] |==|  0.88217
USER: genes 25 Torsion [C]-N--CA-[CB] |==|  0.44167
USER: genes 26 Torsion [N]-CA--CB-[CG] |==|  0.52924
USER: genes 27 Torsion [CA]-CB--CG-[OD2] |==|  0.76585
USER: genes 28 Torsion [N]-CA--C-[O] |==|  0.06321
USER: genes 29 Torsion [N]-CA--CB-[CG] |==|  0.37642
USER: genes 30 Torsion [CA]-CB--CG-[CD2] |==|  0.73604
ROOT
ATOM      1  CA  LEU E   4      20.929 -17.047  -0.943  1.00 22.51 LIG 0.18  C 
ENDROOT
BRANCH 1 2
ATOM      2  N   LEU E   4      19.632 -16.780  -1.508  1.00 20.57 LIG-0.35  N 
ATOM      3  C   LEU E   3      19.288 -15.627  -2.076  1.00 20.37 LIG 0.24  C 
ATOM      4 O    LEU E   3      20.033 -14.638  -2.139  1.00 19.26 LIG-0.27  OA
ATOM      5 H    LEU E   4      19.090 -17.445  -1.443  1.00 20.57 LIG 0.16  HD
BRANCH 3 6
ATOM      6  CA  LEU E   3      17.857 -15.522  -2.612  1.00 20.55 LIG 0.18  C 
BRANCH 6 7
ATOM      7  N   LEU E   3      17.226 -16.762  -2.997  1.00 20.86 LIG-0.35  N 
ATOM      8  C   THR E   2      17.776 -17.535  -3.930  1.00 24.34 LIG 0.24  C 
ATOM      9 O    THR E   2      18.915 -17.338  -4.374  1.00 23.87 LIG-0.27  OA
ATOM     10 H    LEU E   3      16.494 -16.942  -2.582  1.00 20.86 LIG 0.16  HD
BRANCH 8 11
ATOM     11  CA  THR E   2      16.941 -18.687  -4.424  1.00 25.18 LIG 0.20  C 
BRANCH 11 12
ATOM     12  N   THR E   2      17.142 -19.823  -3.517  1.00 26.55 LIG-0.34  N 
ATOM     13  C   GLU E   1      17.944 -20.839  -3.815  1.00 27.17 LIG 0.25  C 
ATOM     14 O    GLU E   1      18.483 -20.979  -4.920  1.00 25.74 LIG-0.27  OA
ATOM     15 H    THR E   2      16.697 -19.769  -2.784  1.00 26.55 LIG 0.16  HD
BRANCH 13 16
ATOM     16  CA  GLU E   1      18.139 -21.898  -2.731  1.00 31.71 LIG 0.28  C 
BRANCH 16 17
ATOM     17  N   GLU E   1      18.992 -21.303  -1.679  1.00 33.09 LIG-0.07  N 
ATOM     18 H3   GLU E   1      18.914 -20.417  -1.699  1.00 33.09 LIG 0.28  HD
ATOM     19 H2   GLU E   1      19.840 -21.528  -1.823  1.00 33.09 LIG 0.28  HD
ATOM     20 H1   GLU E   1      18.735 -21.605  -0.882  1.00 33.09 LIG 0.28  HD
ENDBRANCH 16 17
BRANCH 16 21
ATOM     21  CB  GLU E   1      16.782 -22.326  -2.152  1.00 32.36 LIG 0.05  C 
BRANCH 21 22
ATOM     22  CG  GLU E   1      16.123 -23.446  -2.942  1.00 32.63 LIG 0.12  C 
BRANCH 22 23
ATOM     23  CD  GLU E   1      14.916 -23.005  -3.761  1.00 33.25 LIG 0.17  C 
ATOM     24 OE2  GLU E   1      15.056 -22.039  -4.546  1.00 34.04 LIG-0.65  OA
ATOM     25 OE1  GLU E   1      13.827 -23.602  -3.630  1.00 33.29 LIG-0.65  OA
ENDBRANCH 22 23
ENDBRANCH 21 22
ENDBRANCH 16 21
ENDBRANCH 13 16
ENDBRANCH 11 12
BRANCH 11 26
ATOM     26  CB  THR E   2      15.458 -18.283  -4.498  1.00 27.29 LIG 0.15  C 
ATOM     27  CG2 THR E   2      15.164 -17.625  -5.798  1.00 26.73 LIG 0.04  C 
BRANCH 26 28
ATOM     28 OG1  THR E   2      14.663 -19.472  -4.389  1.00 28.79 LIG-0.39  OA
ATOM     29 HG1  THR E   2      15.060 -20.110  -4.762  1.00 28.79 LIG 0.21  HD
ENDBRANCH 26 28
ENDBRANCH 11 26
ENDBRANCH 8 11
ENDBRANCH 6 7
BRANCH 6 30
ATOM     30  CB  LEU E   3      16.965 -14.805  -1.579  1.00 20.98 LIG 0.04  C 
BRANCH 30 31
ATOM     31  CG  LEU E   3      16.258 -13.546  -2.047  1.00 22.16 LIG-0.02  C 
ATOM     32  CD2 LEU E   3      14.804 -13.479  -1.656  1.00 24.43 LIG 0.01  C 
ATOM     33  CD1 LEU E   3      16.429 -13.434  -3.551  1.00 21.08 LIG 0.01  C 
ENDBRANCH 30 31
ENDBRANCH 6 30
ENDBRANCH 3 6
ENDBRANCH 1 2
BRANCH 1 34
ATOM     34  C   LEU E   4      21.033 -18.556  -0.728  1.00 22.59 LIG 0.24  C 
ATOM     35 O    LEU E   4      20.020 -19.224  -0.574  1.00 22.01 LIG-0.27  OA
ATOM     36  N   ASP E   5      22.256 -19.072  -0.740  1.00 23.28 LIG-0.35  N 
ATOM     37 H    ASP E   5      22.966 -18.612  -0.894  1.00 23.28 LIG 0.16  HD
BRANCH 36 38
ATOM     38  CA  ASP E   5      22.506 -20.511  -0.484  1.00 26.12 LIG 0.19  C 
BRANCH 38 39
ATOM     39  CB  ASP E   5      24.003 -20.771  -0.367  1.00 27.88 LIG 0.15  C 
BRANCH 39 40
ATOM     40  CG  ASP E   5      24.344 -22.255  -0.121  1.00 30.83 LIG 0.17  C 
ATOM     41 OD1  ASP E   5      24.513 -22.691   1.033  1.00 34.24 LIG-0.65  OA
ATOM     42 OD2  ASP E   5      24.431 -22.974  -1.125  1.00 35.63 LIG-0.65  OA
ENDBRANCH 39 40
ENDBRANCH 38 39
BRANCH 38 43
ATOM     43  C   ASP E   5      21.800 -20.907   0.799  1.00 25.92 LIG 0.24  C 
ATOM     44 O    ASP E   5      21.917 -20.210   1.816  1.00 27.30 LIG-0.27  OA
ATOM     45  N   LEU E   6      21.040 -21.989   0.736  1.00 28.24 LIG-0.35  N 
ATOM     46 H    LEU E   6      20.941 -22.462   0.024  1.00 28.24 LIG 0.16  HD
BRANCH 45 47
ATOM     47  CA  LEU E   6      20.287 -22.485   1.901  1.00 31.78 LIG 0.18  C 
BRANCH 47 48
ATOM     48  CB  LEU E   6      19.615 -23.833   1.586  1.00 30.53 LIG 0.04  C 
BRANCH 48 49
ATOM     49  CG  LEU E   6      18.653 -23.790   0.395  1.00 30.12 LIG-0.02  C 
ATOM     50  CD1 LEU E   6      19.033 -24.792  -0.682  1.00 29.14 LIG 0.01  C 
ATOM     51  CD2 LEU E   6      17.210 -24.012   0.846  1.00 31.89 LIG 0.01  C 
ENDBRANCH 48 49
ENDBRANCH 47 48
BRANCH 47 52
ATOM     52  C   LEU E   6      21.157 -22.612   3.150  1.00 36.88 LIG 0.24  C 
ATOM     53 O    LEU E   6      20.706 -22.231   4.241  1.00 37.54 LIG-0.27  OA
ATOM     54  N   ASP E   7      22.377 -23.129   2.983  1.00 40.21 LIG-0.35  N 
ATOM     55 H    ASP E   7      22.647 -23.466   2.238  1.00 40.21 LIG 0.16  HD
BRANCH 54 56
ATOM     56  CA  ASP E   7      23.383 -23.177   4.046  1.00 48.33 LIG 0.17  C 
BRANCH 56 57
ATOM     57  CB  ASP E   7      24.418 -24.243   3.726  1.00 51.73 LIG 0.15  C 
BRANCH 57 58
ATOM     58  CG  ASP E   7      25.342 -24.525   4.897  1.00 58.06 LIG 0.17  C 
ATOM     59 OD2  ASP E   7      26.334 -23.782   5.051  1.00 65.10 LIG-0.65  OA
ATOM     60 OD1  ASP E   7      25.080 -25.477   5.672  1.00 65.94 LIG-0.65  OA
ENDBRANCH 57 58
ENDBRANCH 56 57
BRANCH 56 61
ATOM     61  C   ASP E   7      24.074 -21.834   4.227  1.00 49.55 LIG 0.22  C 
ATOM     62 O    ASP E   7      23.521 -20.799   3.855  1.00 55.15 LIG-0.29  OA
ENDBRANCH 56 61
ENDBRANCH 54 56
ENDBRANCH 47 52
ENDBRANCH 45 47
ENDBRANCH 38 43
ENDBRANCH 36 38
ENDBRANCH 1 34
BRANCH 1 63
ATOM     63  CB  LEU E   4      21.079 -16.313   0.394  1.00 22.63 LIG 0.04  C 
BRANCH 63 64
ATOM     64  CG  LEU E   4      21.677 -17.027   1.602  1.00 23.40 LIG-0.02  C 
ATOM     65  CD2 LEU E   4      20.552 -17.602   2.462  1.00 23.91 LIG 0.01  C 
ATOM     66  CD1 LEU E   4      22.570 -16.111   2.416  1.00 22.51 LIG 0.01  C 
ENDBRANCH 63 64
ENDBRANCH 1 63
TORSDOF 29
ENDMDL
MODEL 4
USER: ADFR SOLUTION from run 112
USER: SCORE 22.515966 LL:  -5.880 LR: -18.754 RR:   0.000 FEB: -10.104
USER: RMSD 4.545326
USER: SEED 111
USER: STATUS no improvement in best in 3 clusters for 5 generations
USER: GENES 31
USER: genes 0 Translation |==|  0.60302 0.61129 0.63837
USER: genes 1 Rotation |==|  0.47366 0.36286 0.58071 0.97327
USER: genes 2 Torsion [CB]-CA--N-[C] |==|  0.24976
USER: genes 3 Torsion [N]-C--CA-[N] |==|  0.41656
USER: genes 4 Torsion [C]-CA--N-[C] |==|  0.82517
USER: genes 5 Torsion [N]-C--CA-[N] |==|  0.26676
USER: genes 6 Torsion [C]-CA--N-[C] |==|  0.61955
USER: genes 7 Torsion [N]-C--CA-[N] |==|  0.38495
USER: genes 8 Torsion [C]-CA--N-[H3] |==|  0.02488
USER: genes 9 Torsion [C]-CA--CB-[CG] |==|  0.36193
USER: genes 10 Torsion [CA]-CB--CG-[CD] |==|  0.98375
USER: genes 11 Torsion [CB]-CG--CD-[OE2] |==|  0.23354
USER: genes 12 Torsion [C]-CA--CB-[CG2] |==|  0.49303
USER: genes 13 Torsion [CA]-CB--OG1-[HG1] |==|  0.02303
USER: genes 14 Torsion [C]-CA--CB-[CG] |==|  0.28612
USER: genes 15 Torsion [CA]-CB--CG-[CD2] |==|  0.08303
USER: genes 16 Torsion [N]-CA--C-[N] |==|  0.95289
USER: genes 17 Torsion [C]-N--CA-[CB] |==|  0.86951
USER: genes 18 Torsion [N]-CA--CB-[CG] |==|  0.56292
USER: genes 19 Torsion [CA]-CB--CG-[OD1] |==|  0.61333
USER: genes 20 Torsion [N]-CA--C-[N] |==|  0.80607
USER: genes 21 Torsion [C]-N--CA-[CB] |==|  0.85915
USER: genes 22 Torsion [N]-CA--CB-[CG] |==|  0.83231
USER: genes 23 Torsion [CA]-CB--CG-[CD2] |==|  0.62302
USER: genes 24 Torsion [N]-CA--C-[N] |==|  0.34943
USER: genes 25 Torsion [C]-N--CA-[CB] |==|  0.17578
USER: genes 26 Torsion [N]-CA--CB-[CG] |==|  0.58397
USER: genes 27 Torsion [CA]-CB--CG-[OD2] |==|  0.80344
USER: genes 28 Torsion [N]-CA--C-[O] |==|  0.84892
USER: genes 29 Torsion [N]-CA--CB-[CG] |==|  0.55845
USER: genes 30 Torsion [CA]-CB--CG-[CD2] |==|  0.08671
ROOT
ATOM      1  CA  LEU E   4      21.978 -18.015   0.288  1.00 22.51 LIG 0.18  C 
ENDROOT
BRANCH 1 2
ATOM      2  N   LEU E   4      21.286 -18.005  -0.975  1.00 20.57 LIG-0.35  N 
ATOM      3  C   LEU E   3      20.907 -16.900  -1.610  1.00 20.37 LIG 0.24  C 
ATOM      4 O    LEU E   3      21.066 -15.755  -1.161  1.00 19.26 LIG-0.27  OA
ATOM      5 H    LEU E   4      21.138 -18.794  -1.287  1.00 20.57 LIG 0.16  HD
BRANCH 3 6
ATOM      6  CA  LEU E   3      20.171 -17.087  -2.940  1.00 20.55 LIG 0.18  C 
BRANCH 6 7
ATOM      7  N   LEU E   3      19.211 -16.067  -3.289  1.00 20.86 LIG-0.35  N 
ATOM      8  C   THR E   2      18.139 -15.864  -2.528  1.00 24.34 LIG 0.24  C 
ATOM      9 O    THR E   2      18.000 -16.390  -1.415  1.00 23.87 LIG-0.27  OA
ATOM     10 H    LEU E   3      19.394 -15.625  -4.004  1.00 20.86 LIG 0.16  HD
BRANCH 8 11
ATOM     11  CA  THR E   2      17.086 -14.942  -3.084  1.00 25.18 LIG 0.20  C 
BRANCH 11 12
ATOM     12  N   THR E   2      16.054 -15.760  -3.732  1.00 26.55 LIG-0.34  N 
ATOM     13  C   GLU E   1      15.524 -15.438  -4.906  1.00 27.17 LIG 0.25  C 
ATOM     14 O    GLU E   1      15.755 -14.371  -5.488  1.00 25.74 LIG-0.27  OA
ATOM     15 H    THR E   2      15.828 -16.458  -3.284  1.00 26.55 LIG 0.16  HD
BRANCH 13 16
ATOM     16  CA  GLU E   1      14.538 -16.438  -5.509  1.00 31.71 LIG 0.28  C 
BRANCH 16 17
ATOM     17  N   GLU E   1      13.418 -15.664  -6.085  1.00 33.09 LIG-0.07  N 
ATOM     18 H3   GLU E   1      13.619 -14.797  -6.074  1.00 33.09 LIG 0.28  HD
ATOM     19 H2   GLU E   1      12.682 -15.803  -5.604  1.00 33.09 LIG 0.28  HD
ATOM     20 H1   GLU E   1      13.277 -15.924  -6.925  1.00 33.09 LIG 0.28  HD
ENDBRANCH 16 17
BRANCH 16 21
ATOM     21  CB  GLU E   1      15.227 -17.283  -6.591  1.00 32.36 LIG 0.05  C 
BRANCH 21 22
ATOM     22  CG  GLU E   1      15.000 -18.776  -6.417  1.00 32.63 LIG 0.12  C 
BRANCH 22 23
ATOM     23  CD  GLU E   1      14.260 -19.151  -5.139  1.00 33.25 LIG 0.17  C 
ATOM     24 OE2  GLU E   1      13.009 -19.102  -5.145  1.00 34.04 LIG-0.65  OA
ATOM     25 OE1  GLU E   1      14.906 -19.488  -4.126  1.00 33.29 LIG-0.65  OA
ENDBRANCH 22 23
ENDBRANCH 21 22
ENDBRANCH 16 21
ENDBRANCH 13 16
ENDBRANCH 11 12
BRANCH 11 26
ATOM     26  CB  THR E   2      16.490 -14.070  -1.964  1.00 27.29 LIG 0.15  C 
ATOM     27  CG2 THR E   2      15.494 -13.118  -2.522  1.00 26.73 LIG 0.04  C 
BRANCH 26 28
ATOM     28 OG1  THR E   2      15.832 -14.933  -1.026  1.00 28.79 LIG-0.39  OA
ATOM     29 HG1  THR E   2      16.001 -15.733  -1.214  1.00 28.79 LIG 0.21  HD
ENDBRANCH 26 28
ENDBRANCH 11 26
ENDBRANCH 8 11
ENDBRANCH 6 7
BRANCH 6 30
ATOM     30  CB  LEU E   3      21.193 -17.227  -4.086  1.00 20.98 LIG 0.04  C 
BRANCH 30 31
ATOM     31  CG  LEU E   3      21.433 -18.629  -4.617  1.00 22.16 LIG-0.02  C 
ATOM     32  CD2 LEU E   3      20.237 -19.538  -4.508  1.00 24.43 LIG 0.01  C 
ATOM     33  CD1 LEU E   3      22.636 -19.211  -3.898  1.00 21.08 LIG 0.01  C 
ENDBRANCH 30 31
ENDBRANCH 6 30
ENDBRANCH 3 6
ENDBRANCH 1 2
BRANCH 1 34
ATOM     34  C   LEU E   4      22.856 -19.265   0.320  1.00 22.59 LIG 0.24  C 
ATOM     35 O    LEU E   4      23.758 -19.360   1.142  1.00 22.01 LIG-0.27  OA
ATOM     36  N   ASP E   5      22.568 -20.212  -0.564  1.00 23.28 LIG-0.35  N 
ATOM     37 H    ASP E   5      21.907 -20.167  -1.111  1.00 23.28 LIG 0.16  HD
BRANCH 36 38
ATOM     38  CA  ASP E   5      23.376 -21.449  -0.684  1.00 26.12 LIG 0.19  C 
BRANCH 38 39
ATOM     39  CB  ASP E   5      24.860 -21.108  -0.713  1.00 27.88 LIG 0.15  C 
BRANCH 39 40
ATOM     40  CG  ASP E   5      25.723 -22.202  -1.373  1.00 30.83 LIG 0.17  C 
ATOM     41 OD1  ASP E   5      26.827 -22.523  -0.896  1.00 34.24 LIG-0.65  OA
ATOM     42 OD2  ASP E   5      25.253 -22.738  -2.386  1.00 35.63 LIG-0.65  OA
ENDBRANCH 39 40
ENDBRANCH 38 39
BRANCH 38 43
ATOM     43  C   ASP E   5      23.066 -22.350   0.496  1.00 25.92 LIG 0.24  C 
ATOM     44 O    ASP E   5      22.471 -23.423   0.323  1.00 27.30 LIG-0.27  OA
ATOM     45  N   LEU E   6      23.503 -21.937   1.676  1.00 28.24 LIG-0.35  N 
ATOM     46 H    LEU E   6      23.935 -21.203   1.794  1.00 28.24 LIG 0.16  HD
BRANCH 45 47
ATOM     47  CA  LEU E   6      23.284 -22.715   2.907  1.00 31.78 LIG 0.18  C 
BRANCH 47 48
ATOM     48  CB  LEU E   6      21.802 -23.104   3.054  1.00 30.53 LIG 0.04  C 
BRANCH 48 49
ATOM     49  CG  LEU E   6      20.846 -21.910   3.133  1.00 30.12 LIG-0.02  C 
ATOM     50  CD1 LEU E   6      20.165 -21.635   1.803  1.00 29.14 LIG 0.01  C 
ATOM     51  CD2 LEU E   6      19.807 -22.111   4.235  1.00 31.89 LIG 0.01  C 
ENDBRANCH 48 49
ENDBRANCH 47 48
BRANCH 47 52
ATOM     52  C   LEU E   6      24.162 -23.964   2.976  1.00 36.88 LIG 0.24  C 
ATOM     53 O    LEU E   6      24.128 -24.778   2.040  1.00 37.54 LIG-0.27  OA
ATOM     54  N   ASP E   7      24.920 -24.107   4.067  1.00 40.21 LIG-0.35  N 
ATOM     55 H    ASP E   7      24.997 -23.497   4.669  1.00 40.21 LIG 0.16  HD
BRANCH 54 56
ATOM     56  CA  ASP E   7      25.696 -25.315   4.354  1.00 48.33 LIG 0.17  C 
BRANCH 56 57
ATOM     57  CB  ASP E   7      26.754 -25.512   3.281  1.00 51.73 LIG 0.15  C 
BRANCH 57 58
ATOM     58  CG  ASP E   7      27.083 -26.976   3.051  1.00 58.06 LIG 0.17  C 
ATOM     59 OD2  ASP E   7      27.714 -27.581   3.943  1.00 65.10 LIG-0.65  OA
ATOM     60 OD1  ASP E   7      26.707 -27.531   1.990  1.00 65.94 LIG-0.65  OA
ENDBRANCH 57 58
ENDBRANCH 56 57
BRANCH 56 61
ATOM     61  C   ASP E   7      26.364 -25.244   5.720  1.00 49.55 LIG 0.22  C 
ATOM     62 O    ASP E   7      27.087 -24.289   6.005  1.00 55.15 LIG-0.29  OA
ENDBRANCH 56 61
ENDBRANCH 54 56
ENDBRANCH 47 52
ENDBRANCH 45 47
ENDBRANCH 38 43
ENDBRANCH 36 38
ENDBRANCH 1 34
BRANCH 1 63
ATOM     63  CB  LEU E   4      20.966 -18.052   1.438  1.00 22.63 LIG 0.04  C 
BRANCH 63 64
ATOM     64  CG  LEU E   4      21.372 -17.596   2.836  1.00 23.40 LIG-0.02  C 
ATOM     65  CD2 LEU E   4      22.428 -16.497   2.726  1.00 23.91 LIG 0.01  C 
ATOM     66  CD1 LEU E   4      21.873 -18.748   3.684  1.00 22.51 LIG 0.01  C 
ENDBRANCH 63 64
ENDBRANCH 1 63
TORSDOF 29
ENDMDL
MODEL 5
USER: ADFR SOLUTION from run 136
USER: SCORE 22.549809 LL:  -6.437 LR: -18.734 RR:   0.000 FEB: -10.083
USER: RMSD 3.907459
USER: SEED 135
USER: STATUS no improvement in best in 3 clusters for 5 generations
USER: GENES 31
USER: genes 0 Translation |==|  0.56986 0.65159 0.59539
USER: genes 1 Rotation |==|  0.40088 0.55463 0.47918 0.98658
USER: genes 2 Torsion [CB]-CA--N-[C] |==|  0.22593
USER: genes 3 Torsion [N]-C--CA-[N] |==|  0.95556
USER: genes 4 Torsion [C]-CA--N-[C] |==|  0.76908
USER: genes 5 Torsion [N]-C--CA-[N] |==|  0.33903
USER: genes 6 Torsion [C]-CA--N-[C] |==|  0.84938
USER: genes 7 Torsion [N]-C--CA-[N] |==|  0.00722
USER: genes 8 Torsion [C]-CA--N-[H3] |==|  0.14135
USER: genes 9 Torsion [C]-CA--CB-[CG] |==|  0.73329
USER: genes 10 Torsion [CA]-CB--CG-[CD] |==|  0.16904
USER: genes 11 Torsion [CB]-CG--CD-[OE2] |==|  0.30729
USER: genes 12 Torsion [C]-CA--CB-[CG2] |==|  0.11000
USER: genes 13 Torsion [CA]-CB--OG1-[HG1] |==|  0.53543
USER: genes 14 Torsion [C]-CA--CB-[CG] |==|  0.37522
USER: genes 15 Torsion [CA]-CB--CG-[CD2] |==|  0.34518
USER: genes 16 Torsion [N]-CA--C-[N] |==|  0.42782
USER: genes 17 Torsion [C]-N--CA-[CB] |==|  0.52797
USER: genes 18 Torsion [N]-CA--CB-[CG] |==|  0.58077
USER: genes 19 Torsion [CA]-CB--CG-[OD1] |==|  0.40325
USER: genes 20 Torsion [N]-CA--C-[N] |==|  0.38076
USER: genes 21 Torsion [C]-N--CA-[CB] |==|  0.54514
USER: genes 22 Torsion [N]-CA--CB-[CG] |==|  0.80095
USER: genes 23 Torsion [CA]-CB--CG-[CD2] |==|  0.26970
USER: genes 24 Torsion [N]-CA--C-[N] |==|  0.85359
USER: genes 25 Torsion [C]-N--CA-[CB] |==|  0.36932
USER: genes 26 Torsion [N]-CA--CB-[CG] |==|  0.27759
USER: genes 27 Torsion [CA]-CB--CG-[OD2] |==|  0.83526
USER: genes 28 Torsion [N]-CA--C-[O] |==|  0.12326
USER: genes 29 Torsion [N]-CA--CB-[CG] |==|  0.35831
USER: genes 30 Torsion [CA]-CB--CG-[CD2] |==|  0.74051
ROOT
ATOM      1  CA  LEU E   4      21.207 -17.078  -0.582  1.00 22.51 LIG 0.18  C 
ENDROOT
BRANCH 1 2
ATOM      2  N   LEU E   4      19.914 -16.790  -1.147  1.00 20.57 LIG-0.35  N 
ATOM      3  C   LEU E   3      19.598 -15.644  -1.744  1.00 20.37 LIG 0.24  C 
ATOM      4 O    LEU E   3      20.370 -14.678  -1.839  1.00 19.26 LIG-0.27  OA
ATOM      5 H    LEU E   4      19.355 -17.438  -1.061  1.00 20.57 LIG 0.16  HD
BRANCH 3 6
ATOM      6  CA  LEU E   3      18.167 -15.515  -2.275  1.00 20.55 LIG 0.18  C 
BRANCH 6 7
ATOM      7  N   LEU E   3      17.418 -16.742  -2.402  1.00 20.86 LIG-0.35  N 
ATOM      8  C   THR E   2      17.562 -17.508  -3.480  1.00 24.34 LIG 0.24  C 
ATOM      9 O    THR E   2      18.451 -17.319  -4.321  1.00 23.87 LIG-0.27  OA
ATOM     10 H    LEU E   3      16.896 -16.919  -1.742  1.00 20.86 LIG 0.16  HD
BRANCH 8 11
ATOM     11  CA  THR E   2      16.584 -18.645  -3.631  1.00 25.18 LIG 0.20  C 
BRANCH 11 12
ATOM     12  N   THR E   2      15.884 -18.482  -4.909  1.00 26.55 LIG-0.34  N 
ATOM     13  C   GLU E   1      15.248 -17.362  -5.235  1.00 27.17 LIG 0.25  C 
ATOM     14 O    GLU E   1      15.083 -16.420  -4.451  1.00 25.74 LIG-0.27  OA
ATOM     15 H    THR E   2      15.923 -19.172  -5.421  1.00 26.55 LIG 0.16  HD
BRANCH 13 16
ATOM     16  CA  GLU E   1      14.654 -17.297  -6.642  1.00 31.71 LIG 0.28  C 
BRANCH 16 17
ATOM     17  N   GLU E   1      14.908 -18.602  -7.290  1.00 33.09 LIG-0.07  N 
ATOM     18 H3   GLU E   1      14.636 -19.258  -6.754  1.00 33.09 LIG 0.28  HD
ATOM     19 H2   GLU E   1      15.779 -18.691  -7.448  1.00 33.09 LIG 0.28  HD
ATOM     20 H1   GLU E   1      14.462 -18.644  -8.059  1.00 33.09 LIG 0.28  HD
ENDBRANCH 16 17
BRANCH 16 21
ATOM     21  CB  GLU E   1      13.148 -17.008  -6.574  1.00 32.36 LIG 0.05  C 
BRANCH 21 22
ATOM     22  CG  GLU E   1      12.295 -18.265  -6.647  1.00 32.63 LIG 0.12  C 
BRANCH 22 23
ATOM     23  CD  GLU E   1      12.541 -19.254  -5.514  1.00 33.25 LIG 0.17  C 
ATOM     24 OE2  GLU E   1      11.637 -19.412  -4.661  1.00 34.04 LIG-0.65  OA
ATOM     25 OE1  GLU E   1      13.624 -19.871  -5.455  1.00 33.29 LIG-0.65  OA
ENDBRANCH 22 23
ENDBRANCH 21 22
ENDBRANCH 16 21
ENDBRANCH 13 16
ENDBRANCH 11 12
BRANCH 11 26
ATOM     26  CB  THR E   2      17.318 -19.996  -3.560  1.00 27.29 LIG 0.15  C 
ATOM     27  CG2 THR E   2      18.382 -19.955  -2.524  1.00 26.73 LIG 0.04  C 
BRANCH 26 28
ATOM     28 OG1  THR E   2      16.363 -21.007  -3.206  1.00 28.79 LIG-0.39  OA
ATOM     29 HG1  THR E   2      16.767 -21.711  -2.993  1.00 28.79 LIG 0.21  HD
ENDBRANCH 26 28
ENDBRANCH 11 26
ENDBRANCH 8 11
ENDBRANCH 6 7
BRANCH 6 30
ATOM     30  CB  LEU E   3      17.372 -14.531  -1.394  1.00 20.98 LIG 0.04  C 
BRANCH 30 31
ATOM     31  CG  LEU E   3      16.519 -13.504  -2.117  1.00 22.16 LIG-0.02  C 
ATOM     32  CD2 LEU E   3      15.067 -13.522  -1.714  1.00 24.43 LIG 0.01  C 
ATOM     33  CD1 LEU E   3      16.679 -13.719  -3.611  1.00 21.08 LIG 0.01  C 
ENDBRANCH 30 31
ENDBRANCH 6 30
ENDBRANCH 3 6
ENDBRANCH 1 2
BRANCH 1 34
ATOM     34  C   LEU E   4      21.338 -18.597  -0.488  1.00 22.59 LIG 0.24  C 
ATOM     35 O    LEU E   4      20.336 -19.295  -0.414  1.00 22.01 LIG-0.27  OA
ATOM     36  N   ASP E   5      22.571 -19.086  -0.512  1.00 23.28 LIG-0.35  N 
ATOM     37 H    ASP E   5      23.275 -18.602  -0.610  1.00 23.28 LIG 0.16  HD
BRANCH 36 38
ATOM     38  CA  ASP E   5      22.847 -20.536  -0.367  1.00 26.12 LIG 0.19  C 
BRANCH 38 39
ATOM     39  CB  ASP E   5      24.340 -20.772  -0.183  1.00 27.88 LIG 0.15  C 
BRANCH 39 40
ATOM     40  CG  ASP E   5      24.810 -22.140  -0.718  1.00 30.83 LIG 0.17  C 
ATOM     41 OD1  ASP E   5      25.932 -22.273  -1.241  1.00 34.24 LIG-0.65  OA
ATOM     42 OD2  ASP E   5      24.017 -23.082  -0.592  1.00 35.63 LIG-0.65  OA
ENDBRANCH 39 40
ENDBRANCH 38 39
BRANCH 38 43
ATOM     43  C   ASP E   5      22.079 -21.060   0.831  1.00 25.92 LIG 0.24  C 
ATOM     44 O    ASP E   5      22.010 -20.389   1.870  1.00 27.30 LIG-0.27  OA
ATOM     45  N   LEU E   6      21.472 -22.226   0.671  1.00 28.24 LIG-0.35  N 
ATOM     46 H    LEU E   6      21.501 -22.683  -0.057  1.00 28.24 LIG 0.16  HD
BRANCH 45 47
ATOM     47  CA  LEU E   6      20.681 -22.850   1.746  1.00 31.78 LIG 0.18  C 
BRANCH 47 48
ATOM     48  CB  LEU E   6      20.433 -24.340   1.449  1.00 30.53 LIG 0.04  C 
BRANCH 48 49
ATOM     49  CG  LEU E   6      19.440 -24.596   0.312  1.00 30.12 LIG-0.02  C 
ATOM     50  CD1 LEU E   6      18.445 -23.460   0.156  1.00 29.14 LIG 0.01  C 
ATOM     51  CD2 LEU E   6      20.170 -24.853  -1.006  1.00 31.89 LIG 0.01  C 
ENDBRANCH 48 49
ENDBRANCH 47 48
BRANCH 47 52
ATOM     52  C   LEU E   6      21.329 -22.690   3.120  1.00 36.88 LIG 0.24  C 
ATOM     53 O    LEU E   6      20.664 -22.209   4.049  1.00 37.54 LIG-0.27  OA
ATOM     54  N   ASP E   7      22.603 -23.079   3.232  1.00 40.21 LIG-0.35  N 
ATOM     55 H    ASP E   7      23.027 -23.487   2.604  1.00 40.21 LIG 0.16  HD
BRANCH 54 56
ATOM     56  CA  ASP E   7      23.410 -22.852   4.433  1.00 48.33 LIG 0.17  C 
BRANCH 56 57
ATOM     57  CB  ASP E   7      24.136 -24.131   4.813  1.00 51.73 LIG 0.15  C 
BRANCH 57 58
ATOM     58  CG  ASP E   7      25.584 -24.135   4.358  1.00 58.06 LIG 0.17  C 
ATOM     59 OD2  ASP E   7      25.814 -24.016   3.137  1.00 65.10 LIG-0.65  OA
ATOM     60 OD1  ASP E   7      26.497 -24.245   5.213  1.00 65.94 LIG-0.65  OA
ENDBRANCH 57 58
ENDBRANCH 56 57
BRANCH 56 61
ATOM     61  C   ASP E   7      24.421 -21.733   4.228  1.00 49.55 LIG 0.22  C 
ATOM     62 O    ASP E   7      24.082 -20.688   3.674  1.00 55.15 LIG-0.29  OA
ENDBRANCH 56 61
ENDBRANCH 54 56
ENDBRANCH 47 52
ENDBRANCH 45 47
ENDBRANCH 38 43
ENDBRANCH 36 38
ENDBRANCH 1 34
BRANCH 1 63
ATOM     63  CB  LEU E   4      21.320 -16.452   0.812  1.00 22.63 LIG 0.04  C 
BRANCH 63 64
ATOM     64  CG  LEU E   4      21.774 -17.294   2.000  1.00 23.40 LIG-0.02  C 
ATOM     65  CD2 LEU E   4      20.550 -17.863   2.717  1.00 23.91 LIG 0.01  C 
ATOM     66  CD1 LEU E   4      22.645 -16.503   2.955  1.00 22.51 LIG 0.01  C 
ENDBRANCH 63 64
ENDBRANCH 1 63
TORSDOF 29
ENDMDL
MODEL 6
USER: ADFR SOLUTION from run 49
USER: SCORE 21.900086 LL:  -5.772 LR: -18.601 RR:   0.000 FEB:  -9.950
USER: RMSD 9.788945
USER: SEED 48
USER: STATUS no improvement in best in 5 clusters for 5 generations
USER: GENES 31
USER: genes 0 Translation |==|  0.46783 0.62149 0.53068
USER: genes 1 Rotation |==|  0.56461 0.94077 0.72611 0.52061
USER: genes 2 Torsion [CB]-CA--N-[C] |==|  0.86662
USER: genes 3 Torsion [N]-C--CA-[N] |==|  0.98769
USER: genes 4 Torsion [C]-CA--N-[C] |==|  0.77341
USER: genes 5 Torsion [N]-C--CA-[N] |==|  0.11876
USER: genes 6 Torsion [C]-CA--N-[C] |==|  0.65077
USER: genes 7 Torsion [N]-C--CA-[N] |==|  0.53463
USER: genes 8 Torsion [C]-CA--N-[H3] |==|  0.16995
USER: genes 9 Torsion [C]-CA--CB-[CG] |==|  0.52435
USER: genes 10 Torsion [CA]-CB--CG-[CD] |==|  0.78608
USER: genes 11 Torsion [CB]-CG--CD-[OE2] |==|  0.04171
USER: genes 12 Torsion [C]-CA--CB-[CG2] |==|  0.82648
USER: genes 13 Torsion [CA]-CB--OG1-[HG1] |==|  0.83313
USER: genes 14 Torsion [C]-CA--CB-[CG] |==|  0.34379
USER: genes 15 Torsion [CA]-CB--CG-[CD2] |==|  0.11667
USER: genes 16 Torsion [N]-CA--C-[N] |==|  0.36982
USER: genes 17 Torsion [C]-N--CA-[CB] |==|  0.79438
USER: genes 18 Torsion [N]-CA--CB-[CG] |==|  0.68021
USER: genes 19 Torsion [CA]-CB--CG-[OD1] |==|  0.47924
USER: genes 20 Torsion [N]-CA--C-[N] |==|  0.10011
USER: genes 21 Torsion [C]-N--CA-[CB] |==|  0.42494
USER: genes 22 Torsion [N]-CA--CB-[CG] |==|  0.34973
USER: genes 23 Torsion [CA]-CB--CG-[CD2] |==|  0.58785
USER: genes 24 Torsion [N]-CA--C-[N] |==|  0.91875
USER: genes 25 Torsion [C]-N--CA-[CB] |==|  0.82455
USER: genes 26 Torsion [N]-CA--CB-[CG] |==|  0.80301
USER: genes 27 Torsion [CA]-CB--CG-[OD2] |==|  0.29869
USER: genes 28 Torsion [N]-CA--C-[O] |==|  0.28700
USER: genes 29 Torsion [N]-CA--CB-[CG] |==|  0.70634
USER: genes 30 Torsion [CA]-CB--CG-[CD2] |==|  0.23610
ROOT
ATOM      1  CA  LEU E   4      18.835 -17.777  -1.893  1.00 22.51 LIG 0.18  C 
ENDROOT
BRANCH 1 2
ATOM      2  N   LEU E   4      19.926 -18.393  -1.183  1.00 20.57 LIG-0.35  N 
ATOM      3  C   LEU E   3      21.070 -18.768  -1.751  1.00 20.37 LIG 0.24  C 
ATOM      4 O    LEU E   3      21.303 -18.670  -2.964  1.00 19.26 LIG-0.27  OA
ATOM      5 H    LEU E   4      19.768 -18.499  -0.344  1.00 20.57 LIG 0.16  HD
BRANCH 3 6
ATOM      6  CA  LEU E   3      22.112 -19.419  -0.837  1.00 20.55 LIG 0.18  C 
BRANCH 6 7
ATOM      7  N   LEU E   3      21.789 -19.470   0.569  1.00 20.86 LIG-0.35  N 
ATOM      8  C   THR E   2      21.989 -18.407   1.343  1.00 24.34 LIG 0.24  C 
ATOM      9 O    THR E   2      22.278 -17.292   0.887  1.00 23.87 LIG-0.27  OA
ATOM     10 H    LEU E   3      21.469 -20.220   0.841  1.00 20.86 LIG 0.16  HD
BRANCH 8 11
ATOM     11  CA  THR E   2      21.836 -18.620   2.827  1.00 25.18 LIG 0.20  C 
BRANCH 11 12
ATOM     12  N   THR E   2      22.483 -19.889   3.179  1.00 26.55 LIG-0.34  N 
ATOM     13  C   GLU E   1      21.848 -20.854   3.832  1.00 27.17 LIG 0.25  C 
ATOM     14 O    GLU E   1      20.714 -20.723   4.308  1.00 25.74 LIG-0.27  OA
ATOM     15 H    THR E   2      23.302 -19.946   2.925  1.00 26.55 LIG 0.16  HD
BRANCH 13 16
ATOM     16  CA  GLU E   1      22.615 -22.161   4.036  1.00 31.71 LIG 0.28  C 
BRANCH 16 17
ATOM     17  N   GLU E   1      21.644 -23.176   4.498  1.00 33.09 LIG-0.07  N 
ATOM     18 H3   GLU E   1      21.018 -23.294   3.877  1.00 33.09 LIG 0.28  HD
ATOM     19 H2   GLU E   1      21.263 -22.901   5.254  1.00 33.09 LIG 0.28  HD
ATOM     20 H1   GLU E   1      22.066 -23.947   4.643  1.00 33.09 LIG 0.28  HD
ENDBRANCH 16 17
BRANCH 16 21
ATOM     21  CB  GLU E   1      23.279 -22.602   2.724  1.00 32.36 LIG 0.05  C 
BRANCH 21 22
ATOM     22  CG  GLU E   1      23.880 -23.996   2.798  1.00 32.63 LIG 0.12  C 
BRANCH 22 23
ATOM     23  CD  GLU E   1      25.208 -24.066   3.543  1.00 33.25 LIG 0.17  C 
ATOM     24 OE2  GLU E   1      25.538 -23.089   4.254  1.00 34.04 LIG-0.65  OA
ATOM     25 OE1  GLU E   1      25.931 -25.076   3.426  1.00 33.29 LIG-0.65  OA
ENDBRANCH 22 23
ENDBRANCH 21 22
ENDBRANCH 16 21
ENDBRANCH 13 16
ENDBRANCH 11 12
BRANCH 11 26
ATOM     26  CB  THR E   2      22.449 -17.442   3.604  1.00 27.29 LIG 0.15  C 
ATOM     27  CG2 THR E   2      23.909 -17.350   3.339  1.00 26.73 LIG 0.04  C 
BRANCH 26 28
ATOM     28 OG1  THR E   2      21.819 -16.233   3.158  1.00 28.79 LIG-0.39  OA
ATOM     29 HG1  THR E   2      21.953 -16.134   2.335  1.00 28.79 LIG 0.21  HD
ENDBRANCH 26 28
ENDBRANCH 11 26
ENDBRANCH 8 11
ENDBRANCH 6 7
BRANCH 6 30
ATOM     30  CB  LEU E   3      22.421 -20.846  -1.333  1.00 20.98 LIG 0.04  C 
BRANCH 30 31
ATOM     31  CG  LEU E   3      23.874 -21.161  -1.641  1.00 22.16 LIG-0.02  C 
ATOM     32  CD2 LEU E   3      24.847 -20.611  -0.630  1.00 24.43 LIG 0.01  C 
ATOM     33  CD1 LEU E   3      24.186 -20.655  -3.038  1.00 21.08 LIG 0.01  C 
ENDBRANCH 30 31
ENDBRANCH 6 30
ENDBRANCH 3 6
ENDBRANCH 1 2
BRANCH 1 34
ATOM     34  C   LEU E   4      18.189 -18.854  -2.763  1.00 22.59 LIG 0.24  C 
ATOM     35 O    LEU E   4      18.889 -19.601  -3.434  1.00 22.01 LIG-0.27  OA
ATOM     36  N   ASP E   5      16.865 -18.930  -2.725  1.00 23.28 LIG-0.35  N 
ATOM     37 H    ASP E   5      16.374 -18.437  -2.219  1.00 23.28 LIG 0.16  HD
BRANCH 36 38
ATOM     38  CA  ASP E   5      16.106 -19.887  -3.565  1.00 26.12 LIG 0.19  C 
BRANCH 38 39
ATOM     39  CB  ASP E   5      16.091 -19.418  -5.014  1.00 27.88 LIG 0.15  C 
BRANCH 39 40
ATOM     40  CG  ASP E   5      14.681 -19.054  -5.520  1.00 30.83 LIG 0.17  C 
ATOM     41 OD1  ASP E   5      14.516 -18.524  -6.635  1.00 34.24 LIG-0.65  OA
ATOM     42 OD2  ASP E   5      13.737 -19.323  -4.764  1.00 35.63 LIG-0.65  OA
ENDBRANCH 39 40
ENDBRANCH 38 39
BRANCH 38 43
ATOM     43  C   ASP E   5      16.759 -21.251  -3.459  1.00 25.92 LIG 0.24  C 
ATOM     44 O    ASP E   5      16.838 -21.984  -4.455  1.00 27.30 LIG-0.27  OA
ATOM     45  N   LEU E   6      17.260 -21.568  -2.276  1.00 28.24 LIG-0.35  N 
ATOM     46 H    LEU E   6      17.225 -21.051  -1.589  1.00 28.24 LIG 0.16  HD
BRANCH 45 47
ATOM     47  CA  LEU E   6      17.933 -22.855  -2.030  1.00 31.78 LIG 0.18  C 
BRANCH 47 48
ATOM     48  CB  LEU E   6      18.961 -22.728  -0.891  1.00 30.53 LIG 0.04  C 
BRANCH 48 49
ATOM     49  CG  LEU E   6      18.772 -23.742   0.240  1.00 30.12 LIG-0.02  C 
ATOM     50  CD1 LEU E   6      19.502 -25.046  -0.033  1.00 29.14 LIG 0.01  C 
ATOM     51  CD2 LEU E   6      19.208 -23.156   1.582  1.00 31.89 LIG 0.01  C 
ENDBRANCH 48 49
ENDBRANCH 47 48
BRANCH 47 52
ATOM     52  C   LEU E   6      16.948 -23.982  -1.722  1.00 36.88 LIG 0.24  C 
ATOM     53 O    LEU E   6      17.246 -25.146  -2.033  1.00 37.54 LIG-0.27  OA
ATOM     54  N   ASP E   7      15.800 -23.633  -1.134  1.00 40.21 LIG-0.35  N 
ATOM     55 H    ASP E   7      15.641 -22.837  -0.849  1.00 40.21 LIG 0.16  HD
BRANCH 54 56
ATOM     56  CA  ASP E   7      14.694 -24.567  -0.913  1.00 48.33 LIG 0.17  C 
BRANCH 56 57
ATOM     57  CB  ASP E   7      14.160 -25.057  -2.249  1.00 51.73 LIG 0.15  C 
BRANCH 57 58
ATOM     58  CG  ASP E   7      13.409 -23.977  -3.006  1.00 58.06 LIG 0.17  C 
ATOM     59 OD2  ASP E   7      13.956 -23.479  -4.011  1.00 65.10 LIG-0.65  OA
ATOM     60 OD1  ASP E   7      12.270 -23.629  -2.610  1.00 65.94 LIG-0.65  OA
ENDBRANCH 57 58
ENDBRANCH 56 57
BRANCH 56 61
ATOM     61  C   ASP E   7      15.123 -25.757  -0.068  1.00 49.55 LIG 0.22  C 
ATOM     62 O    ASP E   7      14.807 -25.817   1.120  1.00 55.15 LIG-0.29  OA
ENDBRANCH 56 61
ENDBRANCH 54 56
ENDBRANCH 47 52
ENDBRANCH 45 47
ENDBRANCH 38 43
ENDBRANCH 36 38
ENDBRANCH 1 34
BRANCH 1 63
ATOM     63  CB  LEU E   4      19.360 -16.636  -2.770  1.00 22.63 LIG 0.04  C 
BRANCH 63 64
ATOM     64  CG  LEU E   4      19.127 -15.184  -2.365  1.00 23.40 LIG-0.02  C 
ATOM     65  CD2 LEU E   4      20.224 -14.744  -1.395  1.00 23.91 LIG 0.01  C 
ATOM     66  CD1 LEU E   4      17.752 -14.978  -1.760  1.00 22.51 LIG 0.01  C 
ENDBRANCH 63 64
ENDBRANCH 1 63
TORSDOF 29
ENDMDL
MODEL 7
USER: ADFR SOLUTION from run 174
USER: SCORE 22.343489 LL:  -6.804 LR: -18.513 RR:   0.000 FEB:  -9.862
USER: RMSD 4.196648
USER: SEED 173
USER: STATUS searching
USER: GENES 31
USER: genes 0 Translation |==|  0.55027 0.63885 0.59536
USER: genes 1 Rotation |==|  0.48415 0.51107 0.48702 0.99946
USER: genes 2 Torsion [CB]-CA--N-[C] |==|  0.27204
USER: genes 3 Torsion [N]-C--CA-[N] |==|  0.89084
USER: genes 4 Torsion [C]-CA--N-[C] |==|  0.86111
USER: genes 5 Torsion [N]-C--CA-[N] |==|  0.47578
USER: genes 6 Torsion [C]-CA--N-[C] |==|  0.78387
USER: genes 7 Torsion [N]-C--CA-[N] |==|  0.49785
USER: genes 8 Torsion [C]-CA--N-[H3] |==|  0.31267
USER: genes 9 Torsion [C]-CA--CB-[CG] |==|  0.83239
USER: genes 10 Torsion [CA]-CB--CG-[CD] |==|  0.75739
USER: genes 11 Torsion [CB]-CG--CD-[OE2] |==|  0.14263
USER: genes 12 Torsion [C]-CA--CB-[CG2] |==|  0.94346
USER: genes 13 Torsion [CA]-CB--OG1-[HG1] |==|  0.78640
USER: genes 14 Torsion [C]-CA--CB-[CG] |==|  0.34732
USER: genes 15 Torsion [CA]-CB--CG-[CD2] |==|  0.34734
USER: genes 16 Torsion [N]-CA--C-[N] |==|  0.34304
USER: genes 17 Torsion [C]-N--CA-[CB] |==|  0.52541
USER: genes 18 Torsion [N]-CA--CB-[CG] |==|  0.30770
USER: genes 19 Torsion [CA]-CB--CG-[OD1] |==|  0.27409
USER: genes 20 Torsion [N]-CA--C-[N] |==|  0.89421
USER: genes 21 Torsion [C]-N--CA-[CB] |==|  0.80454
USER: genes 22 Torsion [N]-CA--CB-[CG] |==|  0.64565
USER: genes 23 Torsion [CA]-CB--CG-[CD2] |==|  0.98665
USER: genes 24 Torsion [N]-CA--C-[N] |==|  0.19094
USER: genes 25 Torsion [C]-N--CA-[CB] |==|  0.80943
USER: genes 26 Torsion [N]-CA--CB-[CG] |==|  0.79808
USER: genes 27 Torsion [CA]-CB--CG-[OD2] |==|  0.17406
USER: genes 28 Torsion [N]-CA--C-[O] |==|  0.51511
USER: genes 29 Torsion [N]-CA--CB-[CG] |==|  0.57278
USER: genes 30 Torsion [CA]-CB--CG-[CD2] |==|  0.93681
ROOT
ATOM      1  CA  LEU E   4      20.752 -17.374  -0.583  1.00 22.51 LIG 0.18  C 
ENDROOT
BRANCH 1 2
ATOM      2  N   LEU E   4      19.562 -16.917  -1.254  1.00 20.57 LIG-0.35  N 
ATOM      3  C   LEU E   3      19.420 -15.703  -1.779  1.00 20.37 LIG 0.24  C 
ATOM      4 O    LEU E   3      20.281 -14.814  -1.708  1.00 19.26 LIG-0.27  OA
ATOM      5 H    LEU E   4      18.940 -17.512  -1.284  1.00 20.57 LIG 0.16  HD
BRANCH 3 6
ATOM      6  CA  LEU E   3      18.076 -15.393  -2.445  1.00 20.55 LIG 0.18  C 
BRANCH 6 7
ATOM      7  N   LEU E   3      17.481 -16.460  -3.214  1.00 20.86 LIG-0.35  N 
ATOM      8  C   THR E   2      18.197 -17.109  -4.127  1.00 24.34 LIG 0.24  C 
ATOM      9 O    THR E   2      19.423 -16.971  -4.238  1.00 23.87 LIG-0.27  OA
ATOM     10 H    LEU E   3      16.657 -16.624  -3.030  1.00 20.86 LIG 0.16  HD
BRANCH 8 11
ATOM     11  CA  THR E   2      17.440 -18.047  -5.031  1.00 25.18 LIG 0.20  C 
BRANCH 11 12
ATOM     12  N   THR E   2      18.350 -18.500  -6.089  1.00 26.55 LIG-0.34  N 
ATOM     13  C   GLU E   1      18.662 -17.742  -7.134  1.00 27.17 LIG 0.25  C 
ATOM     14 O    GLU E   1      18.122 -16.655  -7.370  1.00 25.74 LIG-0.27  OA
ATOM     15 H    THR E   2      18.659 -19.294  -5.969  1.00 26.55 LIG 0.16  HD
BRANCH 13 16
ATOM     16  CA  GLU E   1      19.704 -18.303  -8.100  1.00 31.71 LIG 0.28  C 
BRANCH 16 17
ATOM     17  N   GLU E   1      19.881 -17.314  -9.185  1.00 33.09 LIG-0.07  N 
ATOM     18 H3   GLU E   1      20.696 -16.961  -9.136  1.00 33.09 LIG 0.28  HD
ATOM     19 H2   GLU E   1      19.274 -16.668  -9.099  1.00 33.09 LIG 0.28  HD
ATOM     20 H1   GLU E   1      19.778 -17.714  -9.973  1.00 33.09 LIG 0.28  HD
ENDBRANCH 16 17
BRANCH 16 21
ATOM     21  CB  GLU E   1      21.032 -18.552  -7.370  1.00 32.36 LIG 0.05  C 
BRANCH 21 22
ATOM     22  CG  GLU E   1      21.626 -17.290  -6.766  1.00 32.63 LIG 0.12  C 
BRANCH 22 23
ATOM     23  CD  GLU E   1      22.514 -16.499  -7.719  1.00 33.25 LIG 0.17  C 
ATOM     24 OE2  GLU E   1      22.056 -16.209  -8.849  1.00 34.04 LIG-0.65  OA
ATOM     25 OE1  GLU E   1      23.663 -16.167  -7.364  1.00 33.29 LIG-0.65  OA
ENDBRANCH 22 23
ENDBRANCH 21 22
ENDBRANCH 16 21
ENDBRANCH 13 16
ENDBRANCH 11 12
BRANCH 11 26
ATOM     26  CB  THR E   2      16.880 -19.233  -4.226  1.00 27.29 LIG 0.15  C 
ATOM     27  CG2 THR E   2      17.621 -19.388  -2.948  1.00 26.73 LIG 0.04  C 
BRANCH 26 28
ATOM     28 OG1  THR E   2      15.501 -18.965  -3.933  1.00 28.79 LIG-0.39  OA
ATOM     29 HG1  THR E   2      15.451 -18.409  -3.307  1.00 28.79 LIG 0.21  HD
ENDBRANCH 26 28
ENDBRANCH 11 26
ENDBRANCH 8 11
ENDBRANCH 6 7
BRANCH 6 30
ATOM     30  CB  LEU E   3      17.066 -14.918  -1.381  1.00 20.98 LIG 0.04  C 
BRANCH 30 31
ATOM     31  CG  LEU E   3      16.399 -13.576  -1.624  1.00 22.16 LIG-0.02  C 
ATOM     32  CD2 LEU E   3      14.894 -13.628  -1.608  1.00 24.43 LIG 0.01  C 
ATOM     33  CD1 LEU E   3      16.917 -13.019  -2.938  1.00 21.08 LIG 0.01  C 
ENDBRANCH 30 31
ENDBRANCH 6 30
ENDBRANCH 3 6
ENDBRANCH 1 2
BRANCH 1 34
ATOM     34  C   LEU E   4      20.956 -18.840  -0.960  1.00 22.59 LIG 0.24  C 
ATOM     35 O    LEU E   4      20.063 -19.654  -0.762  1.00 22.01 LIG-0.27  OA
ATOM     36  N   ASP E   5      22.121 -19.151  -1.515  1.00 23.28 LIG-0.35  N 
ATOM     37 H    ASP E   5      22.731 -18.573  -1.697  1.00 23.28 LIG 0.16  HD
BRANCH 36 38
ATOM     38  CA  ASP E   5      22.476 -20.545  -1.874  1.00 26.12 LIG 0.19  C 
BRANCH 38 39
ATOM     39  CB  ASP E   5      23.942 -20.628  -2.277  1.00 27.88 LIG 0.15  C 
BRANCH 39 40
ATOM     40  CG  ASP E   5      24.810 -21.394  -1.258  1.00 30.83 LIG 0.17  C 
ATOM     41 OD1  ASP E   5      25.109 -22.588  -1.440  1.00 34.24 LIG-0.65  OA
ATOM     42 OD2  ASP E   5      25.189 -20.755  -0.267  1.00 35.63 LIG-0.65  OA
ENDBRANCH 39 40
ENDBRANCH 38 39
BRANCH 38 43
ATOM     43  C   ASP E   5      22.206 -21.439  -0.678  1.00 25.92 LIG 0.24  C 
ATOM     44 O    ASP E   5      21.781 -22.591  -0.843  1.00 27.30 LIG-0.27  OA
ATOM     45  N   LEU E   6      22.494 -20.928   0.509  1.00 28.24 LIG-0.35  N 
ATOM     46 H    LEU E   6      22.810 -20.136   0.623  1.00 28.24 LIG 0.16  HD
BRANCH 45 47
ATOM     47  CA  LEU E   6      22.294 -21.685   1.756  1.00 31.78 LIG 0.18  C 
BRANCH 47 48
ATOM     48  CB  LEU E   6      20.796 -21.854   2.061  1.00 30.53 LIG 0.04  C 
BRANCH 48 49
ATOM     49  CG  LEU E   6      20.388 -21.410   3.469  1.00 30.12 LIG-0.02  C 
ATOM     50  CD1 LEU E   6      19.587 -22.477   4.195  1.00 29.14 LIG 0.01  C 
ATOM     51  CD2 LEU E   6      21.610 -21.005   4.292  1.00 31.89 LIG 0.01  C 
ENDBRANCH 48 49
ENDBRANCH 47 48
BRANCH 47 52
ATOM     52  C   LEU E   6      22.981 -23.050   1.729  1.00 36.88 LIG 0.24  C 
ATOM     53 O    LEU E   6      22.284 -24.076   1.706  1.00 37.54 LIG-0.27  OA
ATOM     54  N   ASP E   7      24.317 -23.051   1.743  1.00 40.21 LIG-0.35  N 
ATOM     55 H    ASP E   7      24.788 -22.335   1.675  1.00 40.21 LIG 0.16  HD
BRANCH 54 56
ATOM     56  CA  ASP E   7      25.118 -24.270   1.874  1.00 48.33 LIG 0.17  C 
BRANCH 56 57
ATOM     57  CB  ASP E   7      24.950 -24.848   3.269  1.00 51.73 LIG 0.15  C 
BRANCH 57 58
ATOM     58  CG  ASP E   7      25.665 -24.029   4.328  1.00 58.06 LIG 0.17  C 
ATOM     59 OD2  ASP E   7      25.292 -22.851   4.506  1.00 65.10 LIG-0.65  OA
ATOM     60 OD1  ASP E   7      26.590 -24.557   4.992  1.00 65.94 LIG-0.65  OA
ENDBRANCH 57 58
ENDBRANCH 56 57
BRANCH 56 61
ATOM     61  C   ASP E   7      24.727 -25.314   0.838  1.00 49.55 LIG 0.22  C 
ATOM     62 O    ASP E   7      25.233 -26.436   0.871  1.00 55.15 LIG-0.29  OA
ENDBRANCH 56 61
ENDBRANCH 54 56
ENDBRANCH 47 52
ENDBRANCH 45 47
ENDBRANCH 38 43
ENDBRANCH 36 38
ENDBRANCH 1 34
BRANCH 1 63
ATOM     63  CB  LEU E   4      20.581 -17.239   0.934  1.00 22.63 LIG 0.04  C 
BRANCH 63 64
ATOM     64  CG  LEU E   4      21.801 -17.069   1.834  1.00 23.40 LIG-0.02  C 
ATOM     65  CD2 LEU E   4      23.038 -17.615   1.122  1.00 23.91 LIG 0.01  C 
ATOM     66  CD1 LEU E   4      21.609 -17.739   3.180  1.00 22.51 LIG 0.01  C 
ENDBRANCH 63 64
ENDBRANCH 1 63
TORSDOF 29
ENDMDL
MODEL 8
USER: ADFR SOLUTION from run 4
USER: SCORE 21.708101 LL:  -5.665 LR: -18.499 RR:   0.000 FEB:  -9.848
USER: RMSD 2.785655
USER: SEED 462649
USER: STATUS 1 or 2 clusters left
USER: GENES 31
USER: genes 0 Translation |==|  0.59575 0.61396 0.66097
USER: genes 1 Rotation |==|  0.53948 0.41481 0.44088 0.98753
USER: genes 2 Torsion [CB]-CA--N-[C] |==|  0.83140
USER: genes 3 Torsion [N]-C--CA-[N] |==|  0.47973
USER: genes 4 Torsion [C]-CA--N-[C] |==|  0.68889
USER: genes 5 Torsion [N]-C--CA-[N] |==|  0.34715
USER: genes 6 Torsion [C]-CA--N-[C] |==|  0.77012
USER: genes 7 Torsion [N]-C--CA-[N] |==|  0.75299
USER: genes 8 Torsion [C]-CA--N-[H3] |==|  0.05284
USER: genes 9 Torsion [C]-CA--CB-[CG] |==|  0.30145
USER: genes 10 Torsion [CA]-CB--CG-[CD] |==|  0.84461
USER: genes 11 Torsion [CB]-CG--CD-[OE2] |==|  0.40236
USER: genes 12 Torsion [C]-CA--CB-[CG2] |==|  0.06575
USER: genes 13 Torsion [CA]-CB--OG1-[HG1] |==|  0.83524
USER: genes 14 Torsion [C]-CA--CB-[CG] |==|  0.53229
USER: genes 15 Torsion [CA]-CB--CG-[CD2] |==|  0.23811
USER: genes 16 Torsion [N]-CA--C-[N] |==|  0.27642
USER: genes 17 Torsion [C]-N--CA-[CB] |==|  0.50733
USER: genes 18 Torsion [N]-CA--CB-[CG] |==|  0.46903
USER: genes 19 Torsion [CA]-CB--CG-[OD1] |==|  0.09159
USER: genes 20 Torsion [N]-CA--C-[N] |==|  0.90208
USER: genes 21 Torsion [C]-N--CA-[CB] |==|  0.87158
USER: genes 22 Torsion [N]-CA--CB-[CG] |==|  0.82390
USER: genes 23 Torsion [CA]-CB--CG-[CD2] |==|  0.73458
USER: genes 24 Torsion [N]-CA--C-[N] |==|  0.87424
USER: genes 25 Torsion [C]-N--CA-[CB] |==|  0.36964
USER: genes 26 Torsion [N]-CA--CB-[CG] |==|  0.67237
USER: genes 27 Torsion [CA]-CB--CG-[OD2] |==|  0.40284
USER: genes 28 Torsion [N]-CA--C-[O] |==|  0.32565
USER: genes 29 Torsion [N]-CA--CB-[CG] |==|  0.60510
USER: genes 30 Torsion [CA]-CB--CG-[CD2] |==|  0.13564
ROOT
ATOM      1  CA  LEU E   4      21.809 -17.952   0.746  1.00 22.51 LIG 0.18  C 
ENDROOT
BRANCH 1 2
ATOM      2  N   LEU E   4      21.061 -17.148  -0.186  1.00 20.57 LIG-0.35  N 
ATOM      3  C   LEU E   3      19.831 -17.438  -0.602  1.00 20.37 LIG 0.24  C 
ATOM      4 O    LEU E   3      19.211 -18.458  -0.269  1.00 19.26 LIG-0.27  OA
ATOM      5 H    LEU E   4      21.490 -16.452  -0.454  1.00 20.57 LIG 0.16  HD
BRANCH 3 6
ATOM      6  CA  LEU E   3      19.197 -16.471  -1.606  1.00 20.55 LIG 0.18  C 
BRANCH 6 7
ATOM      7  N   LEU E   3      17.934 -16.876  -2.175  1.00 20.86 LIG-0.35  N 
ATOM      8  C   THR E   2      17.848 -17.188  -3.465  1.00 24.34 LIG 0.24  C 
ATOM      9 O    THR E   2      18.844 -17.327  -4.187  1.00 23.87 LIG-0.27  OA
ATOM     10 H    LEU E   3      17.275 -16.893  -1.622  1.00 20.86 LIG 0.16  HD
BRANCH 8 11
ATOM     11  CA  THR E   2      16.459 -17.381  -4.018  1.00 25.18 LIG 0.20  C 
BRANCH 11 12
ATOM     12  N   THR E   2      16.297 -16.489  -5.172  1.00 26.55 LIG-0.34  N 
ATOM     13  C   GLU E   1      15.971 -15.209  -5.041  1.00 27.17 LIG 0.25  C 
ATOM     14 O    GLU E   1      15.655 -14.693  -3.962  1.00 25.74 LIG-0.27  OA
ATOM     15 H    THR E   2      16.430 -16.871  -5.931  1.00 26.55 LIG 0.16  HD
BRANCH 13 16
ATOM     16  CA  GLU E   1      15.940 -14.377  -6.323  1.00 31.71 LIG 0.28  C 
BRANCH 16 17
ATOM     17  N   GLU E   1      17.299 -13.829  -6.528  1.00 33.09 LIG-0.07  N 
ATOM     18 H3   GLU E   1      17.884 -14.301  -6.052  1.00 33.09 LIG 0.28  HD
ATOM     19 H2   GLU E   1      17.320 -12.980  -6.264  1.00 33.09 LIG 0.28  HD
ATOM     20 H1   GLU E   1      17.512 -13.877  -7.391  1.00 33.09 LIG 0.28  HD
ENDBRANCH 16 17
BRANCH 16 21
ATOM     21  CB  GLU E   1      15.520 -15.247  -7.516  1.00 32.36 LIG 0.05  C 
BRANCH 21 22
ATOM     22  CG  GLU E   1      14.121 -14.931  -8.022  1.00 32.63 LIG 0.12  C 
BRANCH 22 23
ATOM     23  CD  GLU E   1      13.035 -15.033  -6.959  1.00 33.25 LIG 0.17  C 
ATOM     24 OE2  GLU E   1      12.078 -14.227  -7.014  1.00 34.04 LIG-0.65  OA
ATOM     25 OE1  GLU E   1      13.122 -15.900  -6.066  1.00 33.29 LIG-0.65  OA
ENDBRANCH 22 23
ENDBRANCH 21 22
ENDBRANCH 16 21
ENDBRANCH 13 16
ENDBRANCH 11 12
BRANCH 11 26
ATOM     26  CB  THR E   2      16.237 -18.853  -4.409  1.00 27.29 LIG 0.15  C 
ATOM     27  CG2 THR E   2      17.158 -19.737  -3.648  1.00 26.73 LIG 0.04  C 
BRANCH 26 28
ATOM     28 OG1  THR E   2      14.884 -19.203  -4.086  1.00 28.79 LIG-0.39  OA
ATOM     29 HG1  THR E   2      14.755 -19.093  -3.264  1.00 28.79 LIG 0.21  HD
ENDBRANCH 26 28
ENDBRANCH 11 26
ENDBRANCH 8 11
ENDBRANCH 6 7
BRANCH 6 30
ATOM     30  CB  LEU E   3      19.033 -15.081  -0.957  1.00 20.98 LIG 0.04  C 
BRANCH 30 31
ATOM     31  CG  LEU E   3      18.178 -14.076  -1.707  1.00 22.16 LIG-0.02  C 
ATOM     32  CD2 LEU E   3      16.704 -14.184  -1.413  1.00 24.43 LIG 0.01  C 
ATOM     33  CD1 LEU E   3      18.456 -14.228  -3.192  1.00 21.08 LIG 0.01  C 
ENDBRANCH 30 31
ENDBRANCH 6 30
ENDBRANCH 3 6
ENDBRANCH 1 2
BRANCH 1 34
ATOM     34  C   LEU E   4      21.952 -19.346   0.136  1.00 22.59 LIG 0.24  C 
ATOM     35 O    LEU E   4      21.022 -20.140   0.199  1.00 22.01 LIG-0.27  OA
ATOM     36  N   ASP E   5      23.106 -19.615  -0.460  1.00 23.28 LIG-0.35  N 
ATOM     37 H    ASP E   5      23.743 -19.044  -0.545  1.00 23.28 LIG 0.16  HD
BRANCH 36 38
ATOM     38  CA  ASP E   5      23.402 -20.948  -1.039  1.00 26.12 LIG 0.19  C 
BRANCH 38 39
ATOM     39  CB  ASP E   5      24.820 -20.977  -1.594  1.00 27.88 LIG 0.15  C 
BRANCH 39 40
ATOM     40  CG  ASP E   5      25.299 -22.395  -1.965  1.00 30.83 LIG 0.17  C 
ATOM     41 OD1  ASP E   5      24.501 -23.250  -2.394  1.00 34.24 LIG-0.65  OA
ATOM     42 OD2  ASP E   5      26.507 -22.625  -1.817  1.00 35.63 LIG-0.65  OA
ENDBRANCH 39 40
ENDBRANCH 38 39
BRANCH 38 43
ATOM     43  C   ASP E   5      23.238 -21.997   0.044  1.00 25.92 LIG 0.24  C 
ATOM     44 O    ASP E   5      22.830 -23.131  -0.242  1.00 27.30 LIG-0.27  OA
ATOM     45  N   LEU E   6      23.596 -21.634   1.266  1.00 28.24 LIG-0.35  N 
ATOM     46 H    LEU E   6      23.900 -20.853   1.462  1.00 28.24 LIG 0.16  HD
BRANCH 45 47
ATOM     47  CA  LEU E   6      23.502 -22.552   2.414  1.00 31.78 LIG 0.18  C 
BRANCH 47 48
ATOM     48  CB  LEU E   6      22.143 -23.274   2.429  1.00 30.53 LIG 0.04  C 
BRANCH 48 49
ATOM     49  CG  LEU E   6      20.941 -22.344   2.611  1.00 30.12 LIG-0.02  C 
ATOM     50  CD1 LEU E   6      19.765 -22.752   1.740  1.00 29.14 LIG 0.01  C 
ATOM     51  CD2 LEU E   6      20.520 -22.270   4.078  1.00 31.89 LIG 0.01  C 
ENDBRANCH 48 49
ENDBRANCH 47 48
BRANCH 47 52
ATOM     52  C   LEU E   6      24.638 -23.573   2.442  1.00 36.88 LIG 0.24  C 
ATOM     53 O    LEU E   6      25.229 -23.789   3.511  1.00 37.54 LIG-0.27  OA
ATOM     54  N   ASP E   7      24.935 -24.174   1.286  1.00 40.21 LIG-0.35  N 
ATOM     55 H    ASP E   7      24.464 -24.077   0.572  1.00 40.21 LIG 0.16  HD
BRANCH 54 56
ATOM     56  CA  ASP E   7      26.089 -25.059   1.113  1.00 48.33 LIG 0.17  C 
BRANCH 56 57
ATOM     57  CB  ASP E   7      25.661 -26.327   0.393  1.00 51.73 LIG 0.15  C 
BRANCH 57 58
ATOM     58  CG  ASP E   7      25.868 -27.572   1.236  1.00 58.06 LIG 0.17  C 
ATOM     59 OD2  ASP E   7      25.038 -28.498   1.125  1.00 65.10 LIG-0.65  OA
ATOM     60 OD1  ASP E   7      26.859 -27.638   2.002  1.00 65.94 LIG-0.65  OA
ENDBRANCH 57 58
ENDBRANCH 56 57
BRANCH 56 61
ATOM     61  C   ASP E   7      27.205 -24.381   0.331  1.00 49.55 LIG 0.22  C 
ATOM     62 O    ASP E   7      28.298 -24.184   0.861  1.00 55.15 LIG-0.29  OA
ENDBRANCH 56 61
ENDBRANCH 54 56
ENDBRANCH 47 52
ENDBRANCH 45 47
ENDBRANCH 38 43
ENDBRANCH 36 38
ENDBRANCH 1 34
BRANCH 1 63
ATOM     63  CB  LEU E   4      21.063 -18.035   2.082  1.00 22.63 LIG 0.04  C 
BRANCH 63 64
ATOM     64  CG  LEU E   4      21.834 -18.014   3.397  1.00 23.40 LIG-0.02  C 
ATOM     65  CD2 LEU E   4      22.833 -16.858   3.382  1.00 23.91 LIG 0.01  C 
ATOM     66  CD1 LEU E   4      22.532 -19.333   3.665  1.00 22.51 LIG 0.01  C 
ENDBRANCH 63 64
ENDBRANCH 1 63
TORSDOF 29
ENDMDL
MODEL 9
USER: ADFR SOLUTION from run 174
USER: SCORE 22.170270 LL:  -7.298 LR: -18.459 RR:   0.000 FEB:  -9.809
USER: RMSD 4.213783
USER: SEED 173
USER: STATUS searching
USER: GENES 31
USER: genes 0 Translation |==|  0.54298 0.63766 0.58725
USER: genes 1 Rotation |==|  0.47994 0.51349 0.49156 0.99934
USER: genes 2 Torsion [CB]-CA--N-[C] |==|  0.29104
USER: genes 3 Torsion [N]-C--CA-[N] |==|  0.89107
USER: genes 4 Torsion [C]-CA--N-[C] |==|  0.83486
USER: genes 5 Torsion [N]-C--CA-[N] |==|  0.68486
USER: genes 6 Torsion [C]-CA--N-[C] |==|  0.16309
USER: genes 7 Torsion [N]-C--CA-[N] |==|  0.55272
USER: genes 8 Torsion [C]-CA--N-[H3] |==|  0.23276
USER: genes 9 Torsion [C]-CA--CB-[CG] |==|  0.87615
USER: genes 10 Torsion [CA]-CB--CG-[CD] |==|  0.77320
USER: genes 11 Torsion [CB]-CG--CD-[OE2] |==|  0.07990
USER: genes 12 Torsion [C]-CA--CB-[CG2] |==|  0.25716
USER: genes 13 Torsion [CA]-CB--OG1-[HG1] |==|  0.79145
USER: genes 14 Torsion [C]-CA--CB-[CG] |==|  0.34914
USER: genes 15 Torsion [CA]-CB--CG-[CD2] |==|  0.37741
USER: genes 16 Torsion [N]-CA--C-[N] |==|  0.34628
USER: genes 17 Torsion [C]-N--CA-[CB] |==|  0.52267
USER: genes 18 Torsion [N]-CA--CB-[CG] |==|  0.30746
USER: genes 19 Torsion [CA]-CB--CG-[OD1] |==|  0.27159
USER: genes 20 Torsion [N]-CA--C-[N] |==|  0.89153
USER: genes 21 Torsion [C]-N--CA-[CB] |==|  0.80502
USER: genes 22 Torsion [N]-CA--CB-[CG] |==|  0.64041
USER: genes 23 Torsion [CA]-CB--CG-[CD2] |==|  0.98393
USER: genes 24 Torsion [N]-CA--C-[N] |==|  0.19493
USER: genes 25 Torsion [C]-N--CA-[CB] |==|  0.81082
USER: genes 26 Torsion [N]-CA--CB-[CG] |==|  0.79836
USER: genes 27 Torsion [CA]-CB--CG-[OD2] |==|  0.17374
USER: genes 28 Torsion [N]-CA--C-[O] |==|  0.51397
USER: genes 29 Torsion [N]-CA--CB-[CG] |==|  0.57184
USER: genes 30 Torsion [CA]-CB--CG-[CD2] |==|  0.93611
ROOT
ATOM      1  CA  LEU E   4      20.582 -17.401  -0.747  1.00 22.51 LIG 0.18  C 
ENDROOT
BRANCH 1 2
ATOM      2  N   LEU E   4      19.377 -16.978  -1.412  1.00 20.57 LIG-0.35  N 
ATOM      3  C   LEU E   3      19.252 -15.827  -2.068  1.00 20.37 LIG 0.24  C 
ATOM      4 O    LEU E   3      20.145 -14.971  -2.139  1.00 19.26 LIG-0.27  OA
ATOM      5 H    LEU E   4      18.735 -17.546  -1.345  1.00 20.57 LIG 0.16  HD
BRANCH 3 6
ATOM      6  CA  LEU E   3      17.888 -15.541  -2.704  1.00 20.55 LIG 0.18  C 
BRANCH 6 7
ATOM      7  N   LEU E   3      17.219 -16.664  -3.315  1.00 20.86 LIG-0.35  N 
ATOM      8  C   THR E   2      17.797 -17.330  -4.312  1.00 24.34 LIG 0.24  C 
ATOM      9 O    THR E   2      18.978 -17.151  -4.638  1.00 23.87 LIG-0.27  OA
ATOM     10 H    LEU E   3      16.447 -16.851  -2.986  1.00 20.86 LIG 0.16  HD
BRANCH 8 11
ATOM     11  CA  THR E   2      16.939 -18.337  -5.033  1.00 25.18 LIG 0.20  C 
BRANCH 11 12
ATOM     12  N   THR E   2      17.477 -19.675  -4.763  1.00 26.55 LIG-0.34  N 
ATOM     13  C   GLU E   1      17.593 -20.161  -3.533  1.00 27.17 LIG 0.25  C 
ATOM     14 O    GLU E   1      17.382 -19.492  -2.514  1.00 25.74 LIG-0.27  OA
ATOM     15 H    THR E   2      17.707 -20.109  -5.469  1.00 26.55 LIG 0.16  HD
BRANCH 13 16
ATOM     16  CA  GLU E   1      18.069 -21.609  -3.411  1.00 31.71 LIG 0.28  C 
BRANCH 16 17
ATOM     17  N   GLU E   1      17.694 -22.086  -2.062  1.00 33.09 LIG-0.07  N 
ATOM     18 H3   GLU E   1      16.850 -22.367  -2.071  1.00 33.09 LIG 0.28  HD
ATOM     19 H2   GLU E   1      17.779 -21.421  -1.478  1.00 33.09 LIG 0.28  HD
ATOM     20 H1   GLU E   1      18.228 -22.758  -1.826  1.00 33.09 LIG 0.28  HD
ENDBRANCH 16 17
BRANCH 16 21
ATOM     21  CB  GLU E   1      17.419 -22.479  -4.496  1.00 32.36 LIG 0.05  C 
BRANCH 21 22
ATOM     22  CG  GLU E   1      15.930 -22.217  -4.659  1.00 32.63 LIG 0.12  C 
BRANCH 22 23
ATOM     23  CD  GLU E   1      15.054 -22.936  -3.641  1.00 33.25 LIG 0.17  C 
ATOM     24 OE2  GLU E   1      15.541 -23.187  -2.514  1.00 34.04 LIG-0.65  OA
ATOM     25 OE1  GLU E   1      13.889 -23.263  -3.947  1.00 33.29 LIG-0.65  OA
ENDBRANCH 22 23
ENDBRANCH 21 22
ENDBRANCH 16 21
ENDBRANCH 13 16
ENDBRANCH 11 12
BRANCH 11 26
ATOM     26  CB  THR E   2      15.474 -18.218  -4.577  1.00 27.29 LIG 0.15  C 
ATOM     27  CG2 THR E   2      14.726 -17.298  -5.473  1.00 26.73 LIG 0.04  C 
BRANCH 26 28
ATOM     28 OG1  THR E   2      14.876 -19.520  -4.645  1.00 28.79 LIG-0.39  OA
ATOM     29 HG1  THR E   2      14.722 -19.716  -5.447  1.00 28.79 LIG 0.21  HD
ENDBRANCH 26 28
ENDBRANCH 11 26
ENDBRANCH 8 11
ENDBRANCH 6 7
BRANCH 6 30
ATOM     30  CB  LEU E   3      16.949 -14.906  -1.659  1.00 20.98 LIG 0.04  C 
BRANCH 30 31
ATOM     31  CG  LEU E   3      16.306 -13.583  -2.034  1.00 22.16 LIG-0.02  C 
ATOM     32  CD2 LEU E   3      14.841 -13.496  -1.695  1.00 24.43 LIG 0.01  C 
ATOM     33  CD1 LEU E   3      16.545 -13.340  -3.513  1.00 21.08 LIG 0.01  C 
ENDBRANCH 30 31
ENDBRANCH 6 30
ENDBRANCH 3 6
ENDBRANCH 1 2
BRANCH 1 34
ATOM     34  C   LEU E   4      20.809 -18.870  -1.103  1.00 22.59 LIG 0.24  C 
ATOM     35 O    LEU E   4      19.926 -19.693  -0.902  1.00 22.01 LIG-0.27  OA
ATOM     36  N   ASP E   5      21.983 -19.172  -1.643  1.00 23.28 LIG-0.35  N 
ATOM     37 H    ASP E   5      22.587 -18.589  -1.828  1.00 23.28 LIG 0.16  HD
BRANCH 36 38
ATOM     38  CA  ASP E   5      22.359 -20.567  -1.980  1.00 26.12 LIG 0.19  C 
BRANCH 38 39
ATOM     39  CB  ASP E   5      23.824 -20.630  -2.392  1.00 27.88 LIG 0.15  C 
BRANCH 39 40
ATOM     40  CG  ASP E   5      24.713 -21.361  -1.366  1.00 30.83 LIG 0.17  C 
ATOM     41 OD1  ASP E   5      25.018 -22.558  -1.519  1.00 34.24 LIG-0.65  OA
ATOM     42 OD2  ASP E   5      25.102 -20.692  -0.399  1.00 35.63 LIG-0.65  OA
ENDBRANCH 39 40
ENDBRANCH 38 39
BRANCH 38 43
ATOM     43  C   ASP E   5      22.114 -21.443  -0.767  1.00 25.92 LIG 0.24  C 
ATOM     44 O    ASP E   5      21.691 -22.599  -0.908  1.00 27.30 LIG-0.27  OA
ATOM     45  N   LEU E   6      22.420 -20.913   0.407  1.00 28.24 LIG-0.35  N 
ATOM     46 H    LEU E   6      22.735 -20.119   0.505  1.00 28.24 LIG 0.16  HD
BRANCH 45 47
ATOM     47  CA  LEU E   6      22.245 -21.653   1.669  1.00 31.78 LIG 0.18  C 
BRANCH 47 48
ATOM     48  CB  LEU E   6      20.752 -21.828   1.999  1.00 30.53 LIG 0.04  C 
BRANCH 48 49
ATOM     49  CG  LEU E   6      20.372 -21.407   3.422  1.00 30.12 LIG-0.02  C 
ATOM     50  CD1 LEU E   6      19.564 -22.477   4.137  1.00 29.14 LIG 0.01  C 
ATOM     51  CD2 LEU E   6      21.612 -21.040   4.236  1.00 31.89 LIG 0.01  C 
ENDBRANCH 48 49
ENDBRANCH 47 48
BRANCH 47 52
ATOM     52  C   LEU E   6      22.940 -23.014   1.652  1.00 36.88 LIG 0.24  C 
ATOM     53 O    LEU E   6      22.249 -24.044   1.627  1.00 37.54 LIG-0.27  OA
ATOM     54  N   ASP E   7      24.276 -23.007   1.674  1.00 40.21 LIG-0.35  N 
ATOM     55 H    ASP E   7      24.743 -22.288   1.607  1.00 40.21 LIG 0.16  HD
BRANCH 54 56
ATOM     56  CA  ASP E   7      25.084 -24.220   1.815  1.00 48.33 LIG 0.17  C 
BRANCH 56 57
ATOM     57  CB  ASP E   7      24.900 -24.801   3.207  1.00 51.73 LIG 0.15  C 
BRANCH 57 58
ATOM     58  CG  ASP E   7      25.592 -23.977   4.277  1.00 58.06 LIG 0.17  C 
ATOM     59 OD2  ASP E   7      25.208 -22.802   4.449  1.00 65.10 LIG-0.65  OA
ATOM     60 OD1  ASP E   7      26.510 -24.498   4.956  1.00 65.94 LIG-0.65  OA
ENDBRANCH 57 58
ENDBRANCH 56 57
BRANCH 56 61
ATOM     61  C   ASP E   7      24.714 -25.266   0.773  1.00 49.55 LIG 0.22  C 
ATOM     62 O    ASP E   7      25.233 -26.382   0.808  1.00 55.15 LIG-0.29  OA
ENDBRANCH 56 61
ENDBRANCH 54 56
ENDBRANCH 47 52
ENDBRANCH 45 47
ENDBRANCH 38 43
ENDBRANCH 36 38
ENDBRANCH 1 34
BRANCH 1 63
ATOM     63  CB  LEU E   4      20.425 -17.245   0.769  1.00 22.63 LIG 0.04  C 
BRANCH 63 64
ATOM     64  CG  LEU E   4      21.652 -17.046   1.654  1.00 23.40 LIG-0.02  C 
ATOM     65  CD2 LEU E   4      22.888 -17.594   0.940  1.00 23.91 LIG 0.01  C 
ATOM     66  CD1 LEU E   4      21.479 -17.692   3.015  1.00 22.51 LIG 0.01  C 
ENDBRANCH 63 64
ENDBRANCH 1 63
TORSDOF 29
ENDMDL
MODEL 10
USER: ADFR SOLUTION from run 174
USER: SCORE 22.057140 LL:  -6.912 LR: -18.352 RR:   0.000 FEB:  -9.701
USER: RMSD 2.775581
USER: SEED 173
USER: STATUS searching
USER: GENES 31
USER: genes 0 Translation |==|  0.55355 0.63936 0.59337
USER: genes 1 Rotation |==|  0.48000 0.52652 0.48650 0.99871
USER: genes 2 Torsion [CB]-CA--N-[C] |==|  0.27984
USER: genes 3 Torsion [N]-C--CA-[N] |==|  0.94216
USER: genes 4 Torsion [C]-CA--N-[C] |==|  0.80648
USER: genes 5 Torsion [N]-C--CA-[N] |==|  0.31669
USER: genes 6 Torsion [C]-CA--N-[C] |==|  0.58289
USER: genes 7 Torsion [N]-C--CA-[N] |==|  0.51363
USER: genes 8 Torsion [C]-CA--N-[H3] |==|  0.88950
USER: genes 9 Torsion [C]-CA--CB-[CG] |==|  0.84162
USER: genes 10 Torsion [CA]-CB--CG-[CD] |==|  0.78507
USER: genes 11 Torsion [CB]-CG--CD-[OE2] |==|  0.21154
USER: genes 12 Torsion [C]-CA--CB-[CG2] |==|  0.11296
USER: genes 13 Torsion [CA]-CB--OG1-[HG1] |==|  0.66482
USER: genes 14 Torsion [C]-CA--CB-[CG] |==|  0.39377
USER: genes 15 Torsion [CA]-CB--CG-[CD2] |==|  0.34743
USER: genes 16 Torsion [N]-CA--C-[N] |==|  0.34789
USER: genes 17 Torsion [C]-N--CA-[CB] |==|  0.52971
USER: genes 18 Torsion [N]-CA--CB-[CG] |==|  0.30777
USER: genes 19 Torsion [CA]-CB--CG-[OD1] |==|  0.27425
USER: genes 20 Torsion [N]-CA--C-[N] |==|  0.89515
USER: genes 21 Torsion [C]-N--CA-[CB] |==|  0.80555
USER: genes 22 Torsion [N]-CA--CB-[CG] |==|  0.64418
USER: genes 23 Torsion [CA]-CB--CG-[CD2] |==|  0.98650
USER: genes 24 Torsion [N]-CA--C-[N] |==|  0.19240
USER: genes 25 Torsion [C]-N--CA-[CB] |==|  0.81024
USER: genes 26 Torsion [N]-CA--CB-[CG] |==|  0.79832
USER: genes 27 Torsion [CA]-CB--CG-[OD2] |==|  0.17415
USER: genes 28 Torsion [N]-CA--C-[O] |==|  0.51499
USER: genes 29 Torsion [N]-CA--CB-[CG] |==|  0.57246
USER: genes 30 Torsion [CA]-CB--CG-[CD2] |==|  0.93649
ROOT
ATOM      1  CA  LEU E   4      20.828 -17.362  -0.623  1.00 22.51 LIG 0.18  C 
ENDROOT
BRANCH 1 2
ATOM      2  N   LEU E   4      19.600 -16.911  -1.226  1.00 20.57 LIG-0.35  N 
ATOM      3  C   LEU E   3      19.446 -15.724  -1.807  1.00 20.37 LIG 0.24  C 
ATOM      4 O    LEU E   3      20.330 -14.857  -1.853  1.00 19.26 LIG-0.27  OA
ATOM      5 H    LEU E   4      18.965 -17.488  -1.174  1.00 20.57 LIG 0.16  HD
BRANCH 3 6
ATOM      6  CA  LEU E   3      18.062 -15.414  -2.384  1.00 20.55 LIG 0.18  C 
BRANCH 6 7
ATOM      7  N   LEU E   3      17.216 -16.550  -2.666  1.00 20.86 LIG-0.35  N 
ATOM      8  C   THR E   2      17.513 -17.376  -3.664  1.00 24.34 LIG 0.24  C 
ATOM      9 O    THR E   2      18.592 -17.332  -4.271  1.00 23.87 LIG-0.27  OA
ATOM     10 H    LEU E   3      16.535 -16.633  -2.148  1.00 20.86 LIG 0.16  HD
BRANCH 8 11
ATOM     11  CA  THR E   2      16.465 -18.396  -4.025  1.00 25.18 LIG 0.20  C 
BRANCH 11 12
ATOM     12  N   THR E   2      15.972 -18.091  -5.373  1.00 26.55 LIG-0.34  N 
ATOM     13  C   GLU E   1      14.733 -18.375  -5.759  1.00 27.17 LIG 0.25  C 
ATOM     14 O    GLU E   1      13.938 -19.027  -5.072  1.00 25.74 LIG-0.27  OA
ATOM     15 H    THR E   2      16.554 -17.716  -5.883  1.00 26.55 LIG 0.16  HD
BRANCH 13 16
ATOM     16  CA  GLU E   1      14.327 -17.904  -7.156  1.00 31.71 LIG 0.28  C 
BRANCH 16 17
ATOM     17  N   GLU E   1      12.892 -18.215  -7.328  1.00 33.09 LIG-0.07  N 
ATOM     18 H3   GLU E   1      12.715 -19.010  -6.969  1.00 33.09 LIG 0.28  HD
ATOM     19 H2   GLU E   1      12.693 -18.232  -8.195  1.00 33.09 LIG 0.28  HD
ATOM     20 H1   GLU E   1      12.402 -17.592  -6.924  1.00 33.09 LIG 0.28  HD
ENDBRANCH 16 17
BRANCH 16 21
ATOM     21  CB  GLU E   1      14.577 -16.396  -7.305  1.00 32.36 LIG 0.05  C 
BRANCH 21 22
ATOM     22  CG  GLU E   1      13.852 -15.564  -6.260  1.00 32.63 LIG 0.12  C 
BRANCH 22 23
ATOM     23  CD  GLU E   1      12.364 -15.378  -6.532  1.00 33.25 LIG 0.17  C 
ATOM     24 OE2  GLU E   1      11.597 -16.339  -6.297  1.00 34.04 LIG-0.65  OA
ATOM     25 OE1  GLU E   1      11.948 -14.291  -6.982  1.00 33.29 LIG-0.65  OA
ENDBRANCH 22 23
ENDBRANCH 21 22
ENDBRANCH 16 21
ENDBRANCH 13 16
ENDBRANCH 11 12
BRANCH 11 26
ATOM     26  CB  THR E   2      17.050 -19.818  -3.950  1.00 27.29 LIG 0.15  C 
ATOM     27  CG2 THR E   2      17.934 -19.952  -2.763  1.00 26.73 LIG 0.04  C 
BRANCH 26 28
ATOM     28 OG1  THR E   2      15.963 -20.745  -3.825  1.00 28.79 LIG-0.39  OA
ATOM     29 HG1  THR E   2      16.048 -21.182  -3.113  1.00 28.79 LIG 0.21  HD
ENDBRANCH 26 28
ENDBRANCH 11 26
ENDBRANCH 8 11
ENDBRANCH 6 7
BRANCH 6 30
ATOM     30  CB  LEU E   3      17.310 -14.450  -1.444  1.00 20.98 LIG 0.04  C 
BRANCH 30 31
ATOM     31  CG  LEU E   3      16.461 -13.378  -2.103  1.00 22.16 LIG-0.02  C 
ATOM     32  CD2 LEU E   3      15.024 -13.370  -1.650  1.00 24.43 LIG 0.01  C 
ATOM     33  CD1 LEU E   3      16.563 -13.549  -3.608  1.00 21.08 LIG 0.01  C 
ENDBRANCH 30 31
ENDBRANCH 6 30
ENDBRANCH 3 6
ENDBRANCH 1 2
BRANCH 1 34
ATOM     34  C   LEU E   4      21.004 -18.835  -0.990  1.00 22.59 LIG 0.24  C 
ATOM     35 O    LEU E   4      20.109 -19.636  -0.754  1.00 22.01 LIG-0.27  OA
ATOM     36  N   ASP E   5      22.146 -19.165  -1.579  1.00 23.28 LIG-0.35  N 
ATOM     37 H    ASP E   5      22.756 -18.596  -1.788  1.00 23.28 LIG 0.16  HD
BRANCH 36 38
ATOM     38  CA  ASP E   5      22.474 -20.567  -1.933  1.00 26.12 LIG 0.19  C 
BRANCH 38 39
ATOM     39  CB  ASP E   5      23.935 -20.677  -2.346  1.00 27.88 LIG 0.15  C 
BRANCH 39 40
ATOM     40  CG  ASP E   5      24.797 -21.454  -1.330  1.00 30.83 LIG 0.17  C 
ATOM     41 OD1  ASP E   5      25.074 -22.654  -1.509  1.00 34.24 LIG-0.65  OA
ATOM     42 OD2  ASP E   5      25.194 -20.818  -0.344  1.00 35.63 LIG-0.65  OA
ENDBRANCH 39 40
ENDBRANCH 38 39
BRANCH 38 43
ATOM     43  C   ASP E   5      22.197 -21.450  -0.731  1.00 25.92 LIG 0.24  C 
ATOM     44 O    ASP E   5      21.756 -22.597  -0.887  1.00 27.30 LIG-0.27  OA
ATOM     45  N   LEU E   6      22.496 -20.935   0.452  1.00 28.24 LIG-0.35  N 
ATOM     46 H    LEU E   6      22.823 -20.146   0.560  1.00 28.24 LIG 0.16  HD
BRANCH 45 47
ATOM     47  CA  LEU E   6      22.292 -21.682   1.705  1.00 31.78 LIG 0.18  C 
BRANCH 47 48
ATOM     48  CB  LEU E   6      20.792 -21.838   2.011  1.00 30.53 LIG 0.04  C 
BRANCH 48 49
ATOM     49  CG  LEU E   6      20.391 -21.393   3.420  1.00 30.12 LIG-0.02  C 
ATOM     50  CD1 LEU E   6      19.580 -22.453   4.145  1.00 29.14 LIG 0.01  C 
ATOM     51  CD2 LEU E   6      21.618 -21.002   4.243  1.00 31.89 LIG 0.01  C 
ENDBRANCH 48 49
ENDBRANCH 47 48
BRANCH 47 52
ATOM     52  C   LEU E   6      22.967 -23.052   1.687  1.00 36.88 LIG 0.24  C 
ATOM     53 O    LEU E   6      22.263 -24.073   1.661  1.00 37.54 LIG-0.27  OA
ATOM     54  N   ASP E   7      24.304 -23.064   1.710  1.00 40.21 LIG-0.35  N 
ATOM     55 H    ASP E   7      24.781 -22.351   1.645  1.00 40.21 LIG 0.16  HD
BRANCH 54 56
ATOM     56  CA  ASP E   7      25.094 -24.288   1.851  1.00 48.33 LIG 0.17  C 
BRANCH 56 57
ATOM     57  CB  ASP E   7      24.905 -24.865   3.244  1.00 51.73 LIG 0.15  C 
BRANCH 57 58
ATOM     58  CG  ASP E   7      25.612 -24.050   4.312  1.00 58.06 LIG 0.17  C 
ATOM     59 OD2  ASP E   7      25.243 -22.870   4.485  1.00 65.10 LIG-0.65  OA
ATOM     60 OD1  ASP E   7      26.526 -24.582   4.987  1.00 65.94 LIG-0.65  OA
ENDBRANCH 57 58
ENDBRANCH 56 57
BRANCH 56 61
ATOM     61  C   ASP E   7      24.708 -25.330   0.811  1.00 49.55 LIG 0.22  C 
ATOM     62 O    ASP E   7      25.205 -26.455   0.850  1.00 55.15 LIG-0.29  OA
ENDBRANCH 56 61
ENDBRANCH 54 56
ENDBRANCH 47 52
ENDBRANCH 45 47
ENDBRANCH 38 43
ENDBRANCH 36 38
ENDBRANCH 1 34
BRANCH 1 63
ATOM     63  CB  LEU E   4      20.752 -17.204   0.899  1.00 22.63 LIG 0.04  C 
BRANCH 63 64
ATOM     64  CG  LEU E   4      22.027 -17.028   1.719  1.00 23.40 LIG-0.02  C 
ATOM     65  CD2 LEU E   4      23.214 -17.595   0.941  1.00 23.91 LIG 0.01  C 
ATOM     66  CD1 LEU E   4      21.914 -17.674   3.086  1.00 22.51 LIG 0.01  C 
ENDBRANCH 63 64
ENDBRANCH 1 63
TORSDOF 29
ENDMDL
MODEL 11
USER: ADFR SOLUTION from run 114
USER: SCORE 20.832832 LL:  -5.102 LR: -18.207 RR:   0.000 FEB:  -9.557
USER: RMSD 10.833626
USER: SEED 113
USER: STATUS no improvement in best in 5 clusters for 5 generations
USER: GENES 31
USER: genes 0 Translation |==|  0.53225 0.46403 0.69151
USER: genes 1 Rotation |==|  0.76469 0.55612 0.86954 0.70058
USER: genes 2 Torsion [CB]-CA--N-[C] |==|  0.26741
USER: genes 3 Torsion [N]-C--CA-[N] |==|  0.41966
USER: genes 4 Torsion [C]-CA--N-[C] |==|  0.52778
USER: genes 5 Torsion [N]-C--CA-[N] |==|  0.86351
USER: genes 6 Torsion [C]-CA--N-[C] |==|  0.70078
USER: genes 7 Torsion [N]-C--CA-[N] |==|  0.12400
USER: genes 8 Torsion [C]-CA--N-[H3] |==|  0.18815
USER: genes 9 Torsion [C]-CA--CB-[CG] |==|  0.45204
USER: genes 10 Torsion [CA]-CB--CG-[CD] |==|  0.77489
USER: genes 11 Torsion [CB]-CG--CD-[OE2] |==|  0.01897
USER: genes 12 Torsion [C]-CA--CB-[CG2] |==|  0.58745
USER: genes 13 Torsion [CA]-CB--OG1-[HG1] |==|  0.44146
USER: genes 14 Torsion [C]-CA--CB-[CG] |==|  0.27354
USER: genes 15 Torsion [CA]-CB--CG-[CD2] |==|  0.79411
USER: genes 16 Torsion [N]-CA--C-[N] |==|  0.39960
USER: genes 17 Torsion [C]-N--CA-[CB] |==|  0.85820
USER: genes 18 Torsion [N]-CA--CB-[CG] |==|  0.85197
USER: genes 19 Torsion [CA]-CB--CG-[OD1] |==|  0.80064
USER: genes 20 Torsion [N]-CA--C-[N] |==|  0.39641
USER: genes 21 Torsion [C]-N--CA-[CB] |==|  0.55001
USER: genes 22 Torsion [N]-CA--CB-[CG] |==|  0.61590
USER: genes 23 Torsion [CA]-CB--CG-[CD2] |==|  0.08081
USER: genes 24 Torsion [N]-CA--C-[N] |==|  0.29773
USER: genes 25 Torsion [C]-N--CA-[CB] |==|  0.43850
USER: genes 26 Torsion [N]-CA--CB-[CG] |==|  0.38034
USER: genes 27 Torsion [CA]-CB--CG-[OD2] |==|  0.71928
USER: genes 28 Torsion [N]-CA--C-[O] |==|  0.92954
USER: genes 29 Torsion [N]-CA--CB-[CG] |==|  0.66043
USER: genes 30 Torsion [CA]-CB--CG-[CD2] |==|  0.08555
ROOT
ATOM      1  CA  LEU E   4      20.333 -21.438   1.364  1.00 22.51 LIG 0.18  C 
ENDROOT
BRANCH 1 2
ATOM      2  N   LEU E   4      19.658 -22.386   0.516  1.00 20.57 LIG-0.35  N 
ATOM      3  C   LEU E   3      18.718 -23.229   0.937  1.00 20.37 LIG 0.24  C 
ATOM      4 O    LEU E   3      18.353 -23.322   2.118  1.00 19.26 LIG-0.27  OA
ATOM      5 H    LEU E   4      19.922 -22.358  -0.303  1.00 20.57 LIG 0.16  HD
BRANCH 3 6
ATOM      6  CA  LEU E   3      18.120 -24.174  -0.109  1.00 20.55 LIG 0.18  C 
BRANCH 6 7
ATOM      7  N   LEU E   3      17.638 -25.445   0.378  1.00 20.86 LIG-0.35  N 
ATOM      8  C   THR E   2      17.288 -26.402  -0.476  1.00 24.34 LIG 0.24  C 
ATOM      9 O    THR E   2      17.522 -26.333  -1.690  1.00 23.87 LIG-0.27  OA
ATOM     10 H    LEU E   3      17.602 -25.516   1.234  1.00 20.86 LIG 0.16  HD
BRANCH 8 11
ATOM     11  CA  THR E   2      16.590 -27.602   0.110  1.00 25.18 LIG 0.20  C 
BRANCH 11 12
ATOM     12  N   THR E   2      17.368 -28.067   1.265  1.00 26.55 LIG-0.34  N 
ATOM     13  C   GLU E   1      18.085 -29.184   1.237  1.00 27.17 LIG 0.25  C 
ATOM     14 O    GLU E   1      18.060 -29.986   0.296  1.00 25.74 LIG-0.27  OA
ATOM     15 H    THR E   2      17.314 -27.553   1.952  1.00 26.55 LIG 0.16  HD
BRANCH 13 16
ATOM     16  CA  GLU E   1      18.927 -29.487   2.476  1.00 31.71 LIG 0.28  C 
BRANCH 16 17
ATOM     17  N   GLU E   1      18.081 -29.228   3.661  1.00 33.09 LIG-0.07  N 
ATOM     18 H3   GLU E   1      17.426 -29.828   3.695  1.00 33.09 LIG 0.28  HD
ATOM     19 H2   GLU E   1      17.731 -28.412   3.603  1.00 33.09 LIG 0.28  HD
ATOM     20 H1   GLU E   1      18.576 -29.286   4.398  1.00 33.09 LIG 0.28  HD
ENDBRANCH 16 17
BRANCH 16 21
ATOM     21  CB  GLU E   1      19.402 -30.947   2.457  1.00 32.36 LIG 0.05  C 
BRANCH 21 22
ATOM     22  CG  GLU E   1      20.561 -31.211   3.405  1.00 32.63 LIG 0.12  C 
BRANCH 22 23
ATOM     23  CD  GLU E   1      21.923 -30.809   2.853  1.00 33.25 LIG 0.17  C 
ATOM     24 OE2  GLU E   1      21.961 -30.195   1.763  1.00 34.04 LIG-0.65  OA
ATOM     25 OE1  GLU E   1      22.958 -31.102   3.487  1.00 33.29 LIG-0.65  OA
ENDBRANCH 22 23
ENDBRANCH 21 22
ENDBRANCH 16 21
ENDBRANCH 13 16
ENDBRANCH 11 12
BRANCH 11 26
ATOM     26  CB  THR E   2      15.149 -27.242   0.511  1.00 27.29 LIG 0.15  C 
ATOM     27  CG2 THR E   2      14.722 -28.045   1.687  1.00 26.73 LIG 0.04  C 
BRANCH 26 28
ATOM     28 OG1  THR E   2      15.114 -25.852   0.861  1.00 28.79 LIG-0.39  OA
ATOM     29 HG1  THR E   2      14.326 -25.568   0.802  1.00 28.79 LIG 0.21  HD
ENDBRANCH 26 28
ENDBRANCH 11 26
ENDBRANCH 8 11
ENDBRANCH 6 7
BRANCH 6 30
ATOM     30  CB  LEU E   3      16.981 -23.461  -0.864  1.00 20.98 LIG 0.04  C 
BRANCH 30 31
ATOM     31  CG  LEU E   3      17.329 -22.863  -2.216  1.00 22.16 LIG-0.02  C 
ATOM     32  CD2 LEU E   3      18.148 -21.601  -2.134  1.00 24.43 LIG 0.01  C 
ATOM     33  CD1 LEU E   3      16.038 -22.633  -2.981  1.00 21.08 LIG 0.01  C 
ENDBRANCH 30 31
ENDBRANCH 6 30
ENDBRANCH 3 6
ENDBRANCH 1 2
BRANCH 1 34
ATOM     34  C   LEU E   4      20.575 -20.176   0.538  1.00 22.59 LIG 0.24  C 
ATOM     35 O    LEU E   4      20.830 -20.264  -0.656  1.00 22.01 LIG-0.27  OA
ATOM     36  N   ASP E   5      20.473 -19.020   1.181  1.00 23.28 LIG-0.35  N 
ATOM     37 H    ASP E   5      20.249 -18.953   2.009  1.00 23.28 LIG 0.16  HD
BRANCH 36 38
ATOM     38  CA  ASP E   5      20.742 -17.722   0.517  1.00 26.12 LIG 0.19  C 
BRANCH 38 39
ATOM     39  CB  ASP E   5      22.090 -17.763  -0.190  1.00 27.88 LIG 0.15  C 
BRANCH 39 40
ATOM     40  CG  ASP E   5      23.247 -18.199   0.732  1.00 30.83 LIG 0.17  C 
ATOM     41 OD1  ASP E   5      23.676 -17.444   1.624  1.00 34.24 LIG-0.65  OA
ATOM     42 OD2  ASP E   5      23.709 -19.331   0.537  1.00 35.63 LIG-0.65  OA
ENDBRANCH 39 40
ENDBRANCH 38 39
BRANCH 38 43
ATOM     43  C   ASP E   5      19.632 -17.446  -0.479  1.00 25.92 LIG 0.24  C 
ATOM     44 O    ASP E   5      19.112 -18.378  -1.108  1.00 27.30 LIG-0.27  OA
ATOM     45  N   LEU E   6      19.245 -16.184  -0.588  1.00 28.24 LIG-0.35  N 
ATOM     46 H    LEU E   6      19.591 -15.539  -0.136  1.00 28.24 LIG 0.16  HD
BRANCH 45 47
ATOM     47  CA  LEU E   6      18.171 -15.771  -1.507  1.00 31.78 LIG 0.18  C 
BRANCH 47 48
ATOM     48  CB  LEU E   6      18.225 -14.256  -1.767  1.00 30.53 LIG 0.04  C 
BRANCH 48 49
ATOM     49  CG  LEU E   6      16.854 -13.572  -1.778  1.00 30.12 LIG-0.02  C 
ATOM     50  CD1 LEU E   6      16.292 -13.442  -3.182  1.00 29.14 LIG 0.01  C 
ATOM     51  CD2 LEU E   6      15.867 -14.308  -0.872  1.00 31.89 LIG 0.01  C 
ENDBRANCH 48 49
ENDBRANCH 47 48
BRANCH 47 52
ATOM     52  C   LEU E   6      18.208 -16.532  -2.831  1.00 36.88 LIG 0.24  C 
ATOM     53 O    LEU E   6      19.095 -16.264  -3.657  1.00 37.54 LIG-0.27  OA
ATOM     54  N   ASP E   7      17.258 -17.451  -3.024  1.00 40.21 LIG-0.35  N 
ATOM     55 H    ASP E   7      16.700 -17.685  -2.412  1.00 40.21 LIG 0.16  HD
BRANCH 54 56
ATOM     56  CA  ASP E   7      17.064 -18.154  -4.294  1.00 48.33 LIG 0.17  C 
BRANCH 56 57
ATOM     57  CB  ASP E   7      16.324 -19.459  -4.052  1.00 51.73 LIG 0.15  C 
BRANCH 57 58
ATOM     58  CG  ASP E   7      15.241 -19.712  -5.085  1.00 58.06 LIG 0.17  C 
ATOM     59 OD2  ASP E   7      14.059 -19.470  -4.764  1.00 65.10 LIG-0.65  OA
ATOM     60 OD1  ASP E   7      15.562 -20.142  -6.220  1.00 65.94 LIG-0.65  OA
ENDBRANCH 57 58
ENDBRANCH 56 57
BRANCH 56 61
ATOM     61  C   ASP E   7      16.290 -17.306  -5.294  1.00 49.55 LIG 0.22  C 
ATOM     62 O    ASP E   7      15.527 -16.427  -4.897  1.00 55.15 LIG-0.29  OA
ENDBRANCH 56 61
ENDBRANCH 54 56
ENDBRANCH 47 52
ENDBRANCH 45 47
ENDBRANCH 38 43
ENDBRANCH 36 38
ENDBRANCH 1 34
BRANCH 1 63
ATOM     63  CB  LEU E   4      21.668 -22.020   1.840  1.00 22.63 LIG 0.04  C 
BRANCH 63 64
ATOM     64  CG  LEU E   4      21.960 -22.160   3.331  1.00 23.40 LIG-0.02  C 
ATOM     65  CD2 LEU E   4      20.653 -22.405   4.084  1.00 23.91 LIG 0.01  C 
ATOM     66  CD1 LEU E   4      22.686 -20.948   3.881  1.00 22.51 LIG 0.01  C 
ENDBRANCH 63 64
ENDBRANCH 1 63
TORSDOF 29
ENDMDL
MODEL 12
USER: ADFR SOLUTION from run 112
USER: SCORE 21.976981 LL:  -5.993 LR: -18.169 RR:   0.000 FEB:  -9.519
USER: RMSD 4.013687
USER: SEED 111
USER: STATUS no improvement in best in 3 clusters for 5 generations
USER: GENES 31
USER: genes 0 Translation |==|  0.61222 0.60239 0.62239
USER: genes 1 Rotation |==|  0.47403 0.37605 0.56024 0.97993
USER: genes 2 Torsion [CB]-CA--N-[C] |==|  0.21594
USER: genes 3 Torsion [N]-C--CA-[N] |==|  0.43886
USER: genes 4 Torsion [C]-CA--N-[C] |==|  0.82741
USER: genes 5 Torsion [N]-C--CA-[N] |==|  0.25746
USER: genes 6 Torsion [C]-CA--N-[C] |==|  0.62850
USER: genes 7 Torsion [N]-C--CA-[N] |==|  0.42282
USER: genes 8 Torsion [C]-CA--N-[H3] |==|  0.87922
USER: genes 9 Torsion [C]-CA--CB-[CG] |==|  0.22593
USER: genes 10 Torsion [CA]-CB--CG-[CD] |==|  0.16249
USER: genes 11 Torsion [CB]-CG--CD-[OE2] |==|  0.55894
USER: genes 12 Torsion [C]-CA--CB-[CG2] |==|  0.48971
USER: genes 13 Torsion [CA]-CB--OG1-[HG1] |==|  0.07944
USER: genes 14 Torsion [C]-CA--CB-[CG] |==|  0.26001
USER: genes 15 Torsion [CA]-CB--CG-[CD2] |==|  0.00836
USER: genes 16 Torsion [N]-CA--C-[N] |==|  0.02854
USER: genes 17 Torsion [C]-N--CA-[CB] |==|  0.86814
USER: genes 18 Torsion [N]-CA--CB-[CG] |==|  0.53998
USER: genes 19 Torsion [CA]-CB--CG-[OD1] |==|  0.61372
USER: genes 20 Torsion [N]-CA--C-[N] |==|  0.75202
USER: genes 21 Torsion [C]-N--CA-[CB] |==|  0.76446
USER: genes 22 Torsion [N]-CA--CB-[CG] |==|  0.81766
USER: genes 23 Torsion [CA]-CB--CG-[CD2] |==|  0.88711
USER: genes 24 Torsion [N]-CA--C-[N] |==|  0.19522
USER: genes 25 Torsion [C]-N--CA-[CB] |==|  0.51473
USER: genes 26 Torsion [N]-CA--CB-[CG] |==|  0.21072
USER: genes 27 Torsion [CA]-CB--CG-[OD2] |==|  0.77563
USER: genes 28 Torsion [N]-CA--C-[O] |==|  0.25608
USER: genes 29 Torsion [N]-CA--CB-[CG] |==|  0.59044
USER: genes 30 Torsion [CA]-CB--CG-[CD2] |==|  0.03513
ROOT
ATOM      1  CA  LEU E   4      22.192 -18.221  -0.036  1.00 22.51 LIG 0.18  C 
ENDROOT
BRANCH 1 2
ATOM      2  N   LEU E   4      21.438 -18.130  -1.260  1.00 20.57 LIG-0.35  N 
ATOM      3  C   LEU E   3      20.922 -17.001  -1.736  1.00 20.37 LIG 0.24  C 
ATOM      4 O    LEU E   3      20.993 -15.908  -1.153  1.00 19.26 LIG-0.27  OA
ATOM      5 H    LEU E   4      21.351 -18.886  -1.661  1.00 20.57 LIG 0.16  HD
BRANCH 3 6
ATOM      6  CA  LEU E   3      20.139 -17.100  -3.048  1.00 20.55 LIG 0.18  C 
BRANCH 6 7
ATOM      7  N   LEU E   3      19.192 -16.043  -3.310  1.00 20.86 LIG-0.35  N 
ATOM      8  C   THR E   2      18.159 -15.850  -2.495  1.00 24.34 LIG 0.24  C 
ATOM      9 O    THR E   2      18.054 -16.422  -1.401  1.00 23.87 LIG-0.27  OA
ATOM     10 H    LEU E   3      19.356 -15.574  -4.012  1.00 20.86 LIG 0.16  HD
BRANCH 8 11
ATOM     11  CA  THR E   2      17.106 -14.878  -2.964  1.00 25.18 LIG 0.20  C 
BRANCH 11 12
ATOM     12  N   THR E   2      16.067 -15.633  -3.673  1.00 26.55 LIG-0.34  N 
ATOM     13  C   GLU E   1      15.576 -15.242  -4.843  1.00 27.17 LIG 0.25  C 
ATOM     14 O    GLU E   1      15.854 -14.158  -5.369  1.00 25.74 LIG-0.27  OA
ATOM     15 H    THR E   2      15.810 -16.344  -3.263  1.00 26.55 LIG 0.16  HD
BRANCH 13 16
ATOM     16  CA  GLU E   1      14.576 -16.183  -5.514  1.00 31.71 LIG 0.28  C 
BRANCH 16 17
ATOM     17  N   GLU E   1      13.685 -15.355  -6.355  1.00 33.09 LIG-0.07  N 
ATOM     18 H3   GLU E   1      13.448 -14.624  -5.907  1.00 33.09 LIG 0.28  HD
ATOM     19 H2   GLU E   1      12.957 -15.821  -6.566  1.00 33.09 LIG 0.28  HD
ATOM     20 H1   GLU E   1      14.113 -15.120  -7.100  1.00 33.09 LIG 0.28  HD
ENDBRANCH 16 17
BRANCH 16 21
ATOM     21  CB  GLU E   1      15.312 -17.226  -6.367  1.00 32.36 LIG 0.05  C 
BRANCH 21 22
ATOM     22  CG  GLU E   1      15.847 -18.394  -5.552  1.00 32.63 LIG 0.12  C 
BRANCH 22 23
ATOM     23  CD  GLU E   1      14.779 -19.157  -4.779  1.00 33.25 LIG 0.17  C 
ATOM     24 OE2  GLU E   1      15.139 -19.845  -3.796  1.00 34.04 LIG-0.65  OA
ATOM     25 OE1  GLU E   1      13.586 -19.088  -5.139  1.00 33.29 LIG-0.65  OA
ENDBRANCH 22 23
ENDBRANCH 21 22
ENDBRANCH 16 21
ENDBRANCH 13 16
ENDBRANCH 11 12
BRANCH 11 26
ATOM     26  CB  THR E   2      16.522 -14.103  -1.770  1.00 27.29 LIG 0.15  C 
ATOM     27  CG2 THR E   2      15.549 -13.083  -2.240  1.00 26.73 LIG 0.04  C 
BRANCH 26 28
ATOM     28 OG1  THR E   2      15.841 -15.036  -0.919  1.00 28.79 LIG-0.39  OA
ATOM     29 HG1  THR E   2      16.198 -15.792  -0.990  1.00 28.79 LIG 0.21  HD
ENDBRANCH 26 28
ENDBRANCH 11 26
ENDBRANCH 8 11
ENDBRANCH 6 7
BRANCH 6 30
ATOM     30  CB  LEU E   3      21.121 -17.199  -4.234  1.00 20.98 LIG 0.04  C 
BRANCH 30 31
ATOM     31  CG  LEU E   3      21.482 -18.596  -4.705  1.00 22.16 LIG-0.02  C 
ATOM     32  CD2 LEU E   3      20.756 -19.695  -3.974  1.00 24.43 LIG 0.01  C 
ATOM     33  CD1 LEU E   3      22.987 -18.762  -4.596  1.00 21.08 LIG 0.01  C 
ENDBRANCH 30 31
ENDBRANCH 6 30
ENDBRANCH 3 6
ENDBRANCH 1 2
BRANCH 1 34
ATOM     34  C   LEU E   4      22.962 -19.541  -0.069  1.00 22.59 LIG 0.24  C 
ATOM     35 O    LEU E   4      23.518 -19.952   0.941  1.00 22.01 LIG-0.27  OA
ATOM     36  N   ASP E   5      22.966 -20.193  -1.225  1.00 23.28 LIG-0.35  N 
ATOM     37 H    ASP E   5      22.538 -19.930  -1.923  1.00 23.28 LIG 0.16  HD
BRANCH 36 38
ATOM     38  CA  ASP E   5      23.724 -21.454  -1.415  1.00 26.12 LIG 0.19  C 
BRANCH 38 39
ATOM     39  CB  ASP E   5      25.140 -21.303  -0.876  1.00 27.88 LIG 0.15  C 
BRANCH 39 40
ATOM     40  CG  ASP E   5      26.091 -22.423  -1.343  1.00 30.83 LIG 0.17  C 
ATOM     41 OD1  ASP E   5      26.916 -22.932  -0.562  1.00 34.24 LIG-0.65  OA
ATOM     42 OD2  ASP E   5      25.980 -22.784  -2.523  1.00 35.63 LIG-0.65  OA
ENDBRANCH 39 40
ENDBRANCH 38 39
BRANCH 38 43
ATOM     43  C   ASP E   5      22.999 -22.571  -0.689  1.00 25.92 LIG 0.24  C 
ATOM     44 O    ASP E   5      22.173 -23.272  -1.290  1.00 27.30 LIG-0.27  OA
ATOM     45  N   LEU E   6      23.339 -22.761   0.576  1.00 28.24 LIG-0.35  N 
ATOM     46 H    LEU E   6      23.928 -22.289   0.988  1.00 28.24 LIG 0.16  HD
BRANCH 45 47
ATOM     47  CA  LEU E   6      22.726 -23.817   1.401  1.00 31.78 LIG 0.18  C 
BRANCH 47 48
ATOM     48  CB  LEU E   6      21.403 -23.331   2.018  1.00 30.53 LIG 0.04  C 
BRANCH 48 49
ATOM     49  CG  LEU E   6      21.564 -22.193   3.031  1.00 30.12 LIG-0.02  C 
ATOM     50  CD1 LEU E   6      20.316 -21.999   3.875  1.00 29.14 LIG 0.01  C 
ATOM     51  CD2 LEU E   6      22.784 -22.421   3.923  1.00 31.89 LIG 0.01  C 
ENDBRANCH 48 49
ENDBRANCH 47 48
BRANCH 47 52
ATOM     52  C   LEU E   6      22.496 -25.110   0.621  1.00 36.88 LIG 0.24  C 
ATOM     53 O    LEU E   6      21.335 -25.454   0.349  1.00 37.54 LIG-0.27  OA
ATOM     54  N   ASP E   7      23.584 -25.809   0.282  1.00 40.21 LIG-0.35  N 
ATOM     55 H    ASP E   7      24.385 -25.520   0.403  1.00 40.21 LIG 0.16  HD
BRANCH 54 56
ATOM     56  CA  ASP E   7      23.526 -27.138  -0.329  1.00 48.33 LIG 0.17  C 
BRANCH 56 57
ATOM     57  CB  ASP E   7      24.931 -27.702  -0.466  1.00 51.73 LIG 0.15  C 
BRANCH 57 58
ATOM     58  CG  ASP E   7      25.490 -28.196   0.856  1.00 58.06 LIG 0.17  C 
ATOM     59 OD2  ASP E   7      25.971 -27.351   1.639  1.00 65.10 LIG-0.65  OA
ATOM     60 OD1  ASP E   7      25.444 -29.421   1.124  1.00 65.94 LIG-0.65  OA
ENDBRANCH 57 58
ENDBRANCH 56 57
BRANCH 56 61
ATOM     61  C   ASP E   7      22.670 -28.096   0.486  1.00 49.55 LIG 0.22  C 
ATOM     62 O    ASP E   7      21.472 -28.222   0.233  1.00 55.15 LIG-0.29  OA
ENDBRANCH 56 61
ENDBRANCH 54 56
ENDBRANCH 47 52
ENDBRANCH 45 47
ENDBRANCH 38 43
ENDBRANCH 36 38
ENDBRANCH 1 34
BRANCH 1 63
ATOM     63  CB  LEU E   4      21.242 -18.196   1.167  1.00 22.63 LIG 0.04  C 
BRANCH 63 64
ATOM     64  CG  LEU E   4      21.681 -17.558   2.481  1.00 23.40 LIG-0.02  C 
ATOM     65  CD2 LEU E   4      22.958 -16.751   2.253  1.00 23.91 LIG 0.01  C 
ATOM     66  CD1 LEU E   4      21.877 -18.591   3.573  1.00 22.51 LIG 0.01  C 
ENDBRANCH 63 64
ENDBRANCH 1 63
TORSDOF 29
ENDMDL
MODEL 13
USER: ADFR SOLUTION from run 17
USER: SCORE 22.981729 LL:  -7.658 LR: -18.139 RR:   0.000 FEB:  -9.488
USER: RMSD 3.206395
USER: SEED 16
USER: STATUS no improvement in best in 6 clusters for 5 generations
USER: GENES 31
USER: genes 0 Translation |==|  0.57932 0.65982 0.61751
USER: genes 1 Rotation |==|  0.50027 0.51441 0.40226 0.99014
USER: genes 2 Torsion [CB]-CA--N-[C] |==|  0.50556
USER: genes 3 Torsion [N]-C--CA-[N] |==|  0.61436
USER: genes 4 Torsion [C]-CA--N-[C] |==|  0.14671
USER: genes 5 Torsion [N]-C--CA-[N] |==|  0.94357
USER: genes 6 Torsion [C]-CA--N-[C] |==|  0.77978
USER: genes 7 Torsion [N]-C--CA-[N] |==|  0.87586
USER: genes 8 Torsion [C]-CA--N-[H3] |==|  0.65355
USER: genes 9 Torsion [C]-CA--CB-[CG] |==|  0.85988
USER: genes 10 Torsion [CA]-CB--CG-[CD] |==|  0.84353
USER: genes 11 Torsion [CB]-CG--CD-[OE2] |==|  0.38555
USER: genes 12 Torsion [C]-CA--CB-[CG2] |==|  0.19955
USER: genes 13 Torsion [CA]-CB--OG1-[HG1] |==|  0.25937
USER: genes 14 Torsion [C]-CA--CB-[CG] |==|  0.58389
USER: genes 15 Torsion [CA]-CB--CG-[CD2] |==|  0.75547
USER: genes 16 Torsion [N]-CA--C-[N] |==|  0.37365
USER: genes 17 Torsion [C]-N--CA-[CB] |==|  0.42465
USER: genes 18 Torsion [N]-CA--CB-[CG] |==|  0.19156
USER: genes 19 Torsion [CA]-CB--CG-[OD1] |==|  0.91918
USER: genes 20 Torsion [N]-CA--C-[N] |==|  0.92824
USER: genes 21 Torsion [C]-N--CA-[CB] |==|  0.87163
USER: genes 22 Torsion [N]-CA--CB-[CG] |==|  0.67366
USER: genes 23 Torsion [CA]-CB--CG-[CD2] |==|  0.48453
USER: genes 24 Torsion [N]-CA--C-[N] |==|  0.88786
USER: genes 25 Torsion [C]-N--CA-[CB] |==|  0.24270
USER: genes 26 Torsion [N]-CA--CB-[CG] |==|  0.60265
USER: genes 27 Torsion [CA]-CB--CG-[OD2] |==|  0.10923
USER: genes 28 Torsion [N]-CA--C-[O] |==|  0.83768
USER: genes 29 Torsion [N]-CA--CB-[CG] |==|  0.53434
USER: genes 30 Torsion [CA]-CB--CG-[CD2] |==|  0.39542
ROOT
ATOM      1  CA  LEU E   4      21.427 -16.886  -0.135  1.00 22.51 LIG 0.18  C 
ENDROOT
BRANCH 1 2
ATOM      2  N   LEU E   4      20.465 -16.020  -0.766  1.00 20.57 LIG-0.35  N 
ATOM      3  C   LEU E   3      20.305 -15.916  -2.082  1.00 20.37 LIG 0.24  C 
ATOM      4 O    LEU E   3      20.999 -16.520  -2.913  1.00 19.26 LIG-0.27  OA
ATOM      5 H    LEU E   4      19.996 -15.568  -0.204  1.00 20.57 LIG 0.16  HD
BRANCH 3 6
ATOM      6  CA  LEU E   3      19.239 -14.932  -2.572  1.00 20.55 LIG 0.18  C 
BRANCH 6 7
ATOM      7  N   LEU E   3      18.421 -15.372  -3.677  1.00 20.86 LIG-0.35  N 
ATOM      8  C   THR E   2      17.783 -16.538  -3.618  1.00 24.34 LIG 0.24  C 
ATOM      9 O    THR E   2      17.704 -17.205  -2.578  1.00 23.87 LIG-0.27  OA
ATOM     10 H    LEU E   3      18.389 -14.830  -4.344  1.00 20.86 LIG 0.16  HD
BRANCH 8 11
ATOM     11  CA  THR E   2      17.140 -17.016  -4.894  1.00 25.18 LIG 0.20  C 
BRANCH 11 12
ATOM     12  N   THR E   2      16.957 -15.859  -5.778  1.00 26.55 LIG-0.34  N 
ATOM     13  C   GLU E   1      15.957 -14.998  -5.625  1.00 27.17 LIG 0.25  C 
ATOM     14 O    GLU E   1      15.034 -15.163  -4.819  1.00 25.74 LIG-0.27  OA
ATOM     15 H    THR E   2      17.551 -15.793  -6.396  1.00 26.55 LIG 0.16  HD
BRANCH 13 16
ATOM     16  CA  GLU E   1      15.953 -13.783  -6.553  1.00 31.71 LIG 0.28  C 
BRANCH 16 17
ATOM     17  N   GLU E   1      17.333 -13.252  -6.592  1.00 33.09 LIG-0.07  N 
ATOM     18 H3   GLU E   1      17.327 -12.392  -6.363  1.00 33.09 LIG 0.28  HD
ATOM     19 H2   GLU E   1      17.660 -13.337  -7.415  1.00 33.09 LIG 0.28  HD
ATOM     20 H1   GLU E   1      17.843 -13.707  -6.022  1.00 33.09 LIG 0.28  HD
ENDBRANCH 16 17
BRANCH 16 21
ATOM     21  CB  GLU E   1      15.486 -14.185  -7.959  1.00 32.36 LIG 0.05  C 
BRANCH 21 22
ATOM     22  CG  GLU E   1      16.225 -15.393  -8.512  1.00 32.63 LIG 0.12  C 
BRANCH 22 23
ATOM     23  CD  GLU E   1      17.739 -15.232  -8.556  1.00 33.25 LIG 0.17  C 
ATOM     24 OE2  GLU E   1      18.448 -16.209  -8.223  1.00 34.04 LIG-0.65  OA
ATOM     25 OE1  GLU E   1      18.236 -14.143  -8.911  1.00 33.29 LIG-0.65  OA
ENDBRANCH 22 23
ENDBRANCH 21 22
ENDBRANCH 16 21
ENDBRANCH 13 16
ENDBRANCH 11 12
BRANCH 11 26
ATOM     26  CB  THR E   2      18.007 -18.099  -5.559  1.00 27.29 LIG 0.15  C 
ATOM     27  CG2 THR E   2      17.940 -19.365  -4.784  1.00 26.73 LIG 0.04  C 
BRANCH 26 28
ATOM     28 OG1  THR E   2      17.497 -18.335  -6.879  1.00 28.79 LIG-0.39  OA
ATOM     29 HG1  THR E   2      17.910 -17.854  -7.429  1.00 28.79 LIG 0.21  HD
ENDBRANCH 26 28
ENDBRANCH 11 26
ENDBRANCH 8 11
ENDBRANCH 6 7
BRANCH 6 30
ATOM     30  CB  LEU E   3      18.322 -14.531  -1.398  1.00 20.98 LIG 0.04  C 
BRANCH 30 31
ATOM     31  CG  LEU E   3      16.885 -14.185  -1.742  1.00 22.16 LIG-0.02  C 
ATOM     32  CD2 LEU E   3      16.672 -12.736  -2.097  1.00 24.43 LIG 0.01  C 
ATOM     33  CD1 LEU E   3      16.003 -14.602  -0.580  1.00 21.08 LIG 0.01  C 
ENDBRANCH 30 31
ENDBRANCH 6 30
ENDBRANCH 3 6
ENDBRANCH 1 2
BRANCH 1 34
ATOM     34  C   LEU E   4      21.129 -18.313  -0.594  1.00 22.59 LIG 0.24  C 
ATOM     35 O    LEU E   4      19.975 -18.720  -0.619  1.00 22.01 LIG-0.27  OA
ATOM     36  N   ASP E   5      22.172 -19.043  -0.968  1.00 23.28 LIG-0.35  N 
ATOM     37 H    ASP E   5      22.978 -18.744  -0.996  1.00 23.28 LIG 0.16  HD
BRANCH 36 38
ATOM     38  CA  ASP E   5      22.034 -20.461  -1.378  1.00 26.12 LIG 0.19  C 
BRANCH 38 39
ATOM     39  CB  ASP E   5      23.149 -20.840  -2.344  1.00 27.88 LIG 0.15  C 
BRANCH 39 40
ATOM     40  CG  ASP E   5      24.539 -20.887  -1.679  1.00 30.83 LIG 0.17  C 
ATOM     41 OD1  ASP E   5      24.807 -20.166  -0.700  1.00 34.24 LIG-0.65  OA
ATOM     42 OD2  ASP E   5      25.357 -21.679  -2.167  1.00 35.63 LIG-0.65  OA
ENDBRANCH 39 40
ENDBRANCH 38 39
BRANCH 38 43
ATOM     43  C   ASP E   5      22.091 -21.333  -0.139  1.00 25.92 LIG 0.24  C 
ATOM     44 O    ASP E   5      21.580 -22.462  -0.145  1.00 27.30 LIG-0.27  OA
ATOM     45  N   LEU E   6      22.746 -20.833   0.897  1.00 28.24 LIG-0.35  N 
ATOM     46 H    LEU E   6      23.120 -20.058   0.896  1.00 28.24 LIG 0.16  HD
BRANCH 45 47
ATOM     47  CA  LEU E   6      22.892 -21.573   2.163  1.00 31.78 LIG 0.18  C 
BRANCH 47 48
ATOM     48  CB  LEU E   6      21.547 -22.180   2.601  1.00 30.53 LIG 0.04  C 
BRANCH 48 49
ATOM     49  CG  LEU E   6      21.022 -21.644   3.936  1.00 30.12 LIG-0.02  C 
ATOM     50  CD1 LEU E   6      21.023 -20.125   3.982  1.00 29.14 LIG 0.01  C 
ATOM     51  CD2 LEU E   6      19.626 -22.187   4.235  1.00 31.89 LIG 0.01  C 
ENDBRANCH 48 49
ENDBRANCH 47 48
BRANCH 47 52
ATOM     52  C   LEU E   6      23.958 -22.664   2.084  1.00 36.88 LIG 0.24  C 
ATOM     53 O    LEU E   6      24.720 -22.834   3.048  1.00 37.54 LIG-0.27  OA
ATOM     54  N   ASP E   7      24.009 -23.375   0.954  1.00 40.21 LIG-0.35  N 
ATOM     55 H    ASP E   7      23.423 -23.303   0.327  1.00 40.21 LIG 0.16  HD
BRANCH 54 56
ATOM     56  CA  ASP E   7      25.064 -24.347   0.662  1.00 48.33 LIG 0.17  C 
BRANCH 56 57
ATOM     57  CB  ASP E   7      24.683 -25.704   1.230  1.00 51.73 LIG 0.15  C 
BRANCH 57 58
ATOM     58  CG  ASP E   7      25.878 -26.458   1.785  1.00 58.06 LIG 0.17  C 
ATOM     59 OD2  ASP E   7      26.741 -25.807   2.409  1.00 65.10 LIG-0.65  OA
ATOM     60 OD1  ASP E   7      25.957 -27.699   1.611  1.00 65.94 LIG-0.65  OA
ENDBRANCH 57 58
ENDBRANCH 56 57
BRANCH 56 61
ATOM     61  C   ASP E   7      25.315 -24.473  -0.834  1.00 49.55 LIG 0.22  C 
ATOM     62 O    ASP E   7      24.401 -24.803  -1.588  1.00 55.15 LIG-0.29  OA
ENDBRANCH 56 61
ENDBRANCH 54 56
ENDBRANCH 47 52
ENDBRANCH 45 47
ENDBRANCH 38 43
ENDBRANCH 36 38
ENDBRANCH 1 34
BRANCH 1 63
ATOM     63  CB  LEU E   4      21.300 -16.786   1.389  1.00 22.63 LIG 0.04  C 
BRANCH 63 64
ATOM     64  CG  LEU E   4      22.377 -17.380   2.293  1.00 23.40 LIG-0.02  C 
ATOM     65  CD2 LEU E   4      22.588 -16.465   3.499  1.00 23.91 LIG 0.01  C 
ATOM     66  CD1 LEU E   4      23.677 -17.608   1.548  1.00 22.51 LIG 0.01  C 
ENDBRANCH 63 64
ENDBRANCH 1 63
TORSDOF 29
ENDMDL
MODEL 14
USER: ADFR SOLUTION from run 49
USER: SCORE 21.188270 LL:  -6.425 LR: -18.069 RR:   0.000 FEB:  -9.418
USER: RMSD 9.612217
USER: SEED 48
USER: STATUS no improvement in best in 5 clusters for 5 generations
USER: GENES 31
USER: genes 0 Translation |==|  0.45779 0.63305 0.52058
USER: genes 1 Rotation |==|  0.53700 0.95669 0.69183 0.55713
USER: genes 2 Torsion [CB]-CA--N-[C] |==|  0.20840
USER: genes 3 Torsion [N]-C--CA-[N] |==|  0.11633
USER: genes 4 Torsion [C]-CA--N-[C] |==|  0.73321
USER: genes 5 Torsion [N]-C--CA-[N] |==|  0.38814
USER: genes 6 Torsion [C]-CA--N-[C] |==|  0.84304
USER: genes 7 Torsion [N]-C--CA-[N] |==|  0.14231
USER: genes 8 Torsion [C]-CA--N-[H3] |==|  0.32068
USER: genes 9 Torsion [C]-CA--CB-[CG] |==|  0.56380
USER: genes 10 Torsion [CA]-CB--CG-[CD] |==|  0.23882
USER: genes 11 Torsion [CB]-CG--CD-[OE2] |==|  0.30983
USER: genes 12 Torsion [C]-CA--CB-[CG2] |==|  0.01552
USER: genes 13 Torsion [CA]-CB--OG1-[HG1] |==|  0.85075
USER: genes 14 Torsion [C]-CA--CB-[CG] |==|  0.42351
USER: genes 15 Torsion [CA]-CB--CG-[CD2] |==|  0.27491
USER: genes 16 Torsion [N]-CA--C-[N] |==|  0.34794
USER: genes 17 Torsion [C]-N--CA-[CB] |==|  0.78889
USER: genes 18 Torsion [N]-CA--CB-[CG] |==|  0.69974
USER: genes 19 Torsion [CA]-CB--CG-[OD1] |==|  0.05577
USER: genes 20 Torsion [N]-CA--C-[N] |==|  0.15425
USER: genes 21 Torsion [C]-N--CA-[CB] |==|  0.36753
USER: genes 22 Torsion [N]-CA--CB-[CG] |==|  0.40965
USER: genes 23 Torsion [CA]-CB--CG-[CD2] |==|  0.61645
USER: genes 24 Torsion [N]-CA--C-[N] |==|  0.93484
USER: genes 25 Torsion [C]-N--CA-[CB] |==|  0.77387
USER: genes 26 Torsion [N]-CA--CB-[CG] |==|  0.81808
USER: genes 27 Torsion [CA]-CB--CG-[OD2] |==|  0.30706
USER: genes 28 Torsion [N]-CA--C-[O] |==|  0.29613
USER: genes 29 Torsion [N]-CA--CB-[CG] |==|  0.68111
USER: genes 30 Torsion [CA]-CB--CG-[CD2] |==|  0.25021
ROOT
ATOM      1  CA  LEU E   4      18.602 -17.509  -2.097  1.00 22.51 LIG 0.18  C 
ENDROOT
BRANCH 1 2
ATOM      2  N   LEU E   4      19.577 -17.943  -1.131  1.00 20.57 LIG-0.35  N 
ATOM      3  C   LEU E   3      19.999 -17.201  -0.110  1.00 20.37 LIG 0.24  C 
ATOM      4 O    LEU E   3      19.633 -16.035   0.094  1.00 19.26 LIG-0.27  OA
ATOM      5 H    LEU E   4      19.867 -18.740  -1.276  1.00 20.57 LIG 0.16  HD
BRANCH 3 6
ATOM      6  CA  LEU E   3      21.051 -17.828   0.809  1.00 20.55 LIG 0.18  C 
BRANCH 6 7
ATOM      7  N   LEU E   3      22.110 -18.565   0.161  1.00 20.86 LIG-0.35  N 
ATOM      8  C   THR E   2      22.027 -19.886   0.032  1.00 24.34 LIG 0.24  C 
ATOM      9 O    THR E   2      20.992 -20.519   0.281  1.00 23.87 LIG-0.27  OA
ATOM     10 H    LEU E   3      22.767 -18.086  -0.119  1.00 20.86 LIG 0.16  HD
BRANCH 8 11
ATOM     11  CA  THR E   2      23.267 -20.592  -0.451  1.00 25.18 LIG 0.20  C 
BRANCH 11 12
ATOM     12  N   THR E   2      23.410 -21.840   0.307  1.00 26.55 LIG-0.34  N 
ATOM     13  C   GLU E   1      23.471 -21.863   1.634  1.00 27.17 LIG 0.25  C 
ATOM     14 O    GLU E   1      23.540 -20.844   2.330  1.00 25.74 LIG-0.27  OA
ATOM     15 H    THR E   2      23.451 -22.545  -0.183  1.00 26.55 LIG 0.16  HD
BRANCH 13 16
ATOM     16  CA  GLU E   1      23.513 -23.242   2.292  1.00 31.71 LIG 0.28  C 
BRANCH 16 17
ATOM     17  N   GLU E   1      24.592 -24.013   1.637  1.00 33.09 LIG-0.07  N 
ATOM     18 H3   GLU E   1      25.232 -24.190   2.228  1.00 33.09 LIG 0.28  HD
ATOM     19 H2   GLU E   1      24.932 -23.536   0.967  1.00 33.09 LIG 0.28  HD
ATOM     20 H1   GLU E   1      24.261 -24.776   1.320  1.00 33.09 LIG 0.28  HD
ENDBRANCH 16 17
BRANCH 16 21
ATOM     21  CB  GLU E   1      23.779 -23.108   3.798  1.00 32.36 LIG 0.05  C 
BRANCH 21 22
ATOM     22  CG  GLU E   1      24.375 -24.364   4.414  1.00 32.63 LIG 0.12  C 
BRANCH 22 23
ATOM     23  CD  GLU E   1      25.893 -24.450   4.312  1.00 33.25 LIG 0.17  C 
ATOM     24 OE2  GLU E   1      26.562 -24.357   5.366  1.00 34.04 LIG-0.65  OA
ATOM     25 OE1  GLU E   1      26.431 -24.604   3.196  1.00 33.29 LIG-0.65  OA
ENDBRANCH 22 23
ENDBRANCH 21 22
ENDBRANCH 16 21
ENDBRANCH 13 16
ENDBRANCH 11 12
BRANCH 11 26
ATOM     26  CB  THR E   2      23.177 -20.862  -1.964  1.00 27.29 LIG 0.15  C 
ATOM     27  CG2 THR E   2      21.957 -20.230  -2.531  1.00 26.73 LIG 0.04  C 
BRANCH 26 28
ATOM     28 OG1  THR E   2      24.331 -20.288  -2.592  1.00 28.79 LIG-0.39  OA
ATOM     29 HG1  THR E   2      24.394 -19.479  -2.377  1.00 28.79 LIG 0.21  HD
ENDBRANCH 26 28
ENDBRANCH 11 26
ENDBRANCH 8 11
ENDBRANCH 6 7
BRANCH 6 30
ATOM     30  CB  LEU E   3      21.674 -16.739   1.706  1.00 20.98 LIG 0.04  C 
BRANCH 30 31
ATOM     31  CG  LEU E   3      22.212 -17.190   3.052  1.00 22.16 LIG-0.02  C 
ATOM     32  CD2 LEU E   3      23.703 -17.401   3.075  1.00 24.43 LIG 0.01  C 
ATOM     33  CD1 LEU E   3      21.470 -18.449   3.463  1.00 21.08 LIG 0.01  C 
ENDBRANCH 30 31
ENDBRANCH 6 30
ENDBRANCH 3 6
ENDBRANCH 1 2
BRANCH 1 34
ATOM     34  C   LEU E   4      18.125 -18.747  -2.856  1.00 22.59 LIG 0.24  C 
ATOM     35 O    LEU E   4      18.939 -19.486  -3.394  1.00 22.01 LIG-0.27  OA
ATOM     36  N   ASP E   5      16.816 -18.963  -2.871  1.00 23.28 LIG-0.35  N 
ATOM     37 H    ASP E   5      16.247 -18.471  -2.455  1.00 23.28 LIG 0.16  HD
BRANCH 36 38
ATOM     38  CA  ASP E   5      16.213 -20.092  -3.619  1.00 26.12 LIG 0.19  C 
BRANCH 38 39
ATOM     39  CB  ASP E   5      16.192 -19.783  -5.111  1.00 27.88 LIG 0.15  C 
BRANCH 39 40
ATOM     40  CG  ASP E   5      14.779 -19.487  -5.650  1.00 30.83 LIG 0.17  C 
ATOM     41 OD1  ASP E   5      13.858 -19.147  -4.885  1.00 34.24 LIG-0.65  OA
ATOM     42 OD2  ASP E   5      14.621 -19.601  -6.874  1.00 35.63 LIG-0.65  OA
ENDBRANCH 39 40
ENDBRANCH 38 39
BRANCH 38 43
ATOM     43  C   ASP E   5      17.026 -21.343  -3.351  1.00 25.92 LIG 0.24  C 
ATOM     44 O    ASP E   5      17.538 -21.968  -4.291  1.00 27.30 LIG-0.27  OA
ATOM     45  N   LEU E   6      17.180 -21.678  -2.079  1.00 28.24 LIG-0.35  N 
ATOM     46 H    LEU E   6      16.843 -21.233  -1.425  1.00 28.24 LIG 0.16  HD
BRANCH 45 47
ATOM     47  CA  LEU E   6      17.955 -22.862  -1.670  1.00 31.78 LIG 0.18  C 
BRANCH 47 48
ATOM     48  CB  LEU E   6      18.937 -22.510  -0.539  1.00 30.53 LIG 0.04  C 
BRANCH 48 49
ATOM     49  CG  LEU E   6      19.188 -23.651   0.451  1.00 30.12 LIG-0.02  C 
ATOM     50  CD1 LEU E   6      20.464 -24.412   0.135  1.00 29.14 LIG 0.01  C 
ATOM     51  CD2 LEU E   6      19.217 -23.133   1.889  1.00 31.89 LIG 0.01  C 
ENDBRANCH 48 49
ENDBRANCH 47 48
BRANCH 47 52
ATOM     52  C   LEU E   6      17.063 -24.027  -1.244  1.00 36.88 LIG 0.24  C 
ATOM     53 O    LEU E   6      17.509 -25.183  -1.307  1.00 37.54 LIG-0.27  OA
ATOM     54  N   ASP E   7      15.829 -23.721  -0.832  1.00 40.21 LIG-0.35  N 
ATOM     55 H    ASP E   7      15.561 -22.912  -0.715  1.00 40.21 LIG 0.16  HD
BRANCH 54 56
ATOM     56  CA  ASP E   7      14.807 -24.727  -0.538  1.00 48.33 LIG 0.17  C 
BRANCH 56 57
ATOM     57  CB  ASP E   7      14.149 -25.185  -1.829  1.00 51.73 LIG 0.15  C 
BRANCH 57 58
ATOM     58  CG  ASP E   7      13.365 -24.076  -2.507  1.00 58.06 LIG 0.17  C 
ATOM     59 OD2  ASP E   7      13.809 -23.618  -3.580  1.00 65.10 LIG-0.65  OA
ATOM     60 OD1  ASP E   7      12.302 -23.665  -1.982  1.00 65.94 LIG-0.65  OA
ENDBRANCH 57 58
ENDBRANCH 56 57
BRANCH 56 61
ATOM     61  C   ASP E   7      15.393 -25.929   0.189  1.00 49.55 LIG 0.22  C 
ATOM     62 O    ASP E   7      15.169 -26.094   1.388  1.00 55.15 LIG-0.29  OA
ENDBRANCH 56 61
ENDBRANCH 54 56
ENDBRANCH 47 52
ENDBRANCH 45 47
ENDBRANCH 38 43
ENDBRANCH 36 38
ENDBRANCH 1 34
BRANCH 1 63
ATOM     63  CB  LEU E   4      19.238 -16.508  -3.069  1.00 22.63 LIG 0.04  C 
BRANCH 63 64
ATOM     64  CG  LEU E   4      18.762 -15.059  -3.102  1.00 23.40 LIG-0.02  C 
ATOM     65  CD2 LEU E   4      19.586 -14.231  -2.117  1.00 23.91 LIG 0.01  C 
ATOM     66  CD1 LEU E   4      17.280 -14.942  -2.805  1.00 22.51 LIG 0.01  C 
ENDBRANCH 63 64
ENDBRANCH 1 63
TORSDOF 29
ENDMDL
MODEL 15
USER: ADFR SOLUTION from run 87
USER: SCORE 21.399761 LL:  -5.245 LR: -18.064 RR:   0.000 FEB:  -9.413
USER: RMSD 9.709610
USER: SEED 86
USER: STATUS no improvement in best in 4 clusters for 5 generations
USER: GENES 31
USER: genes 0 Translation |==|  0.43880 0.67816 0.53901
USER: genes 1 Rotation |==|  0.49834 0.93389 0.73685 0.57511
USER: genes 2 Torsion [CB]-CA--N-[C] |==|  0.87673
USER: genes 3 Torsion [N]-C--CA-[N] |==|  0.40286
USER: genes 4 Torsion [C]-CA--N-[C] |==|  0.65025
USER: genes 5 Torsion [N]-C--CA-[N] |==|  0.44419
USER: genes 6 Torsion [C]-CA--N-[C] |==|  0.83856
USER: genes 7 Torsion [N]-C--CA-[N] |==|  0.70541
USER: genes 8 Torsion [C]-CA--N-[H3] |==|  0.57748
USER: genes 9 Torsion [C]-CA--CB-[CG] |==|  0.43070
USER: genes 10 Torsion [CA]-CB--CG-[CD] |==|  0.84712
USER: genes 11 Torsion [CB]-CG--CD-[OE2] |==|  0.58225
USER: genes 12 Torsion [C]-CA--CB-[CG2] |==|  0.97616
USER: genes 13 Torsion [CA]-CB--OG1-[HG1] |==|  0.84851
USER: genes 14 Torsion [C]-CA--CB-[CG] |==|  0.43050
USER: genes 15 Torsion [CA]-CB--CG-[CD2] |==|  0.26005
USER: genes 16 Torsion [N]-CA--C-[N] |==|  0.25070
USER: genes 17 Torsion [C]-N--CA-[CB] |==|  0.84387
USER: genes 18 Torsion [N]-CA--CB-[CG] |==|  0.74077
USER: genes 19 Torsion [CA]-CB--CG-[OD1] |==|  0.88492
USER: genes 20 Torsion [N]-CA--C-[N] |==|  0.38629
USER: genes 21 Torsion [C]-N--CA-[CB] |==|  0.16449
USER: genes 22 Torsion [N]-CA--CB-[CG] |==|  0.11789
USER: genes 23 Torsion [CA]-CB--CG-[CD2] |==|  0.49818
USER: genes 24 Torsion [N]-CA--C-[N] |==|  0.05046
USER: genes 25 Torsion [C]-N--CA-[CB] |==|  0.45888
USER: genes 26 Torsion [N]-CA--CB-[CG] |==|  0.95850
USER: genes 27 Torsion [CA]-CB--CG-[OD2] |==|  0.68911
USER: genes 28 Torsion [N]-CA--C-[O] |==|  0.08417
USER: genes 29 Torsion [N]-CA--CB-[CG] |==|  0.59858
USER: genes 30 Torsion [CA]-CB--CG-[CD2] |==|  0.13658
ROOT
ATOM      1  CA  LEU E   4      18.160 -16.460  -1.724  1.00 22.51 LIG 0.18  C 
ENDROOT
BRANCH 1 2
ATOM      2  N   LEU E   4      19.046 -16.952  -0.700  1.00 20.57 LIG-0.35  N 
ATOM      3  C   LEU E   3      20.360 -17.091  -0.854  1.00 20.37 LIG 0.24  C 
ATOM      4 O    LEU E   3      20.961 -16.856  -1.913  1.00 19.26 LIG-0.27  OA
ATOM      5 H    LEU E   4      18.641 -17.151   0.032  1.00 20.57 LIG 0.16  HD
BRANCH 3 6
ATOM      6  CA  LEU E   3      21.140 -17.642   0.343  1.00 20.55 LIG 0.18  C 
BRANCH 6 7
ATOM      7  N   LEU E   3      22.264 -18.495   0.038  1.00 20.86 LIG-0.35  N 
ATOM      8  C   THR E   2      22.352 -19.708   0.575  1.00 24.34 LIG 0.24  C 
ATOM      9 O    THR E   2      21.418 -20.233   1.197  1.00 23.87 LIG-0.27  OA
ATOM     10 H    LEU E   3      22.842 -18.155  -0.500  1.00 20.86 LIG 0.16  HD
BRANCH 8 11
ATOM     11  CA  THR E   2      23.657 -20.435   0.381  1.00 25.18 LIG 0.20  C 
BRANCH 11 12
ATOM     12  N   THR E   2      23.755 -21.485   1.401  1.00 26.55 LIG-0.34  N 
ATOM     13  C   GLU E   1      23.704 -21.220   2.702  1.00 27.17 LIG 0.25  C 
ATOM     14 O    GLU E   1      23.699 -20.073   3.163  1.00 25.74 LIG-0.27  OA
ATOM     15 H    THR E   2      23.847 -22.278   1.081  1.00 26.55 LIG 0.16  HD
BRANCH 13 16
ATOM     16  CA  GLU E   1      23.711 -22.423   3.645  1.00 31.71 LIG 0.28  C 
BRANCH 16 17
ATOM     17  N   GLU E   1      22.341 -22.574   4.181  1.00 33.09 LIG-0.07  N 
ATOM     18 H3   GLU E   1      22.376 -22.956   4.984  1.00 33.09 LIG 0.28  HD
ATOM     19 H2   GLU E   1      21.862 -23.084   3.632  1.00 33.09 LIG 0.28  HD
ATOM     20 H1   GLU E   1      21.959 -21.773   4.250  1.00 33.09 LIG 0.28  HD
ENDBRANCH 16 17
BRANCH 16 21
ATOM     21  CB  GLU E   1      24.143 -23.690   2.893  1.00 32.36 LIG 0.05  C 
BRANCH 21 22
ATOM     22  CG  GLU E   1      24.748 -24.748   3.803  1.00 32.63 LIG 0.12  C 
BRANCH 22 23
ATOM     23  CD  GLU E   1      25.922 -24.254   4.640  1.00 33.25 LIG 0.17  C 
ATOM     24 OE2  GLU E   1      26.808 -25.079   4.960  1.00 34.04 LIG-0.65  OA
ATOM     25 OE1  GLU E   1      25.973 -23.057   4.990  1.00 33.29 LIG-0.65  OA
ENDBRANCH 22 23
ENDBRANCH 21 22
ENDBRANCH 16 21
ENDBRANCH 13 16
ENDBRANCH 11 12
BRANCH 11 26
ATOM     26  CB  THR E   2      23.738 -21.023  -1.039  1.00 27.29 LIG 0.15  C 
ATOM     27  CG2 THR E   2      22.431 -20.884  -1.733  1.00 26.73 LIG 0.04  C 
BRANCH 26 28
ATOM     28 OG1  THR E   2      24.732 -20.293  -1.771  1.00 28.79 LIG-0.39  OA
ATOM     29 HG1  THR E   2      24.555 -19.473  -1.744  1.00 28.79 LIG 0.21  HD
ENDBRANCH 26 28
ENDBRANCH 11 26
ENDBRANCH 8 11
ENDBRANCH 6 7
BRANCH 6 30
ATOM     30  CB  LEU E   3      21.620 -16.477   1.232  1.00 20.98 LIG 0.04  C 
BRANCH 30 31
ATOM     31  CG  LEU E   3      21.874 -16.795   2.695  1.00 22.16 LIG-0.02  C 
ATOM     32  CD2 LEU E   3      23.304 -17.155   3.004  1.00 24.43 LIG 0.01  C 
ATOM     33  CD1 LEU E   3      20.925 -17.903   3.113  1.00 21.08 LIG 0.01  C 
ENDBRANCH 30 31
ENDBRANCH 6 30
ENDBRANCH 3 6
ENDBRANCH 1 2
BRANCH 1 34
ATOM     34  C   LEU E   4      17.969 -17.583  -2.743  1.00 22.59 LIG 0.24  C 
ATOM     35 O    LEU E   4      18.738 -17.689  -3.689  1.00 22.01 LIG-0.27  OA
ATOM     36  N   ASP E   5      16.958 -18.413  -2.523  1.00 23.28 LIG-0.35  N 
ATOM     37 H    ASP E   5      16.445 -18.369  -1.835  1.00 23.28 LIG 0.16  HD
BRANCH 36 38
ATOM     38  CA  ASP E   5      16.621 -19.510  -3.463  1.00 26.12 LIG 0.19  C 
BRANCH 38 39
ATOM     39  CB  ASP E   5      16.375 -18.949  -4.858  1.00 27.88 LIG 0.15  C 
BRANCH 39 40
ATOM     40  CG  ASP E   5      14.890 -18.642  -5.136  1.00 30.83 LIG 0.17  C 
ATOM     41 OD1  ASP E   5      13.993 -19.421  -4.764  1.00 34.24 LIG-0.65  OA
ATOM     42 OD2  ASP E   5      14.649 -17.586  -5.737  1.00 35.63 LIG-0.65  OA
ENDBRANCH 39 40
ENDBRANCH 38 39
BRANCH 38 43
ATOM     43  C   ASP E   5      17.769 -20.500  -3.488  1.00 25.92 LIG 0.24  C 
ATOM     44 O    ASP E   5      18.940 -20.099  -3.445  1.00 27.30 LIG-0.27  OA
ATOM     45  N   LEU E   6      17.434 -21.781  -3.511  1.00 28.24 LIG-0.35  N 
ATOM     46 H    LEU E   6      16.621 -22.061  -3.519  1.00 28.24 LIG 0.16  HD
BRANCH 45 47
ATOM     47  CA  LEU E   6      18.444 -22.853  -3.525  1.00 31.78 LIG 0.18  C 
BRANCH 47 48
ATOM     48  CB  LEU E   6      19.351 -22.769  -2.285  1.00 30.53 LIG 0.04  C 
BRANCH 48 49
ATOM     49  CG  LEU E   6      18.603 -22.473  -0.981  1.00 30.12 LIG-0.02  C 
ATOM     50  CD1 LEU E   6      17.492 -23.475  -0.720  1.00 29.14 LIG 0.01  C 
ATOM     51  CD2 LEU E   6      19.566 -22.421   0.204  1.00 31.89 LIG 0.01  C 
ENDBRANCH 48 49
ENDBRANCH 47 48
BRANCH 47 52
ATOM     52  C   LEU E   6      17.820 -24.244  -3.624  1.00 36.88 LIG 0.24  C 
ATOM     53 O    LEU E   6      18.502 -25.235  -3.318  1.00 37.54 LIG-0.27  OA
ATOM     54  N   ASP E   7      16.556 -24.307  -4.053  1.00 40.21 LIG-0.35  N 
ATOM     55 H    ASP E   7      16.069 -23.610  -4.183  1.00 40.21 LIG 0.16  HD
BRANCH 54 56
ATOM     56  CA  ASP E   7      15.869 -25.566  -4.347  1.00 48.33 LIG 0.17  C 
BRANCH 56 57
ATOM     57  CB  ASP E   7      14.372 -25.322  -4.453  1.00 51.73 LIG 0.15  C 
BRANCH 57 58
ATOM     58  CG  ASP E   7      13.961 -23.977  -3.884  1.00 58.06 LIG 0.17  C 
ATOM     59 OD2  ASP E   7      13.275 -23.968  -2.841  1.00 65.10 LIG-0.65  OA
ATOM     60 OD1  ASP E   7      14.327 -22.926  -4.465  1.00 65.94 LIG-0.65  OA
ENDBRANCH 57 58
ENDBRANCH 56 57
BRANCH 56 61
ATOM     61  C   ASP E   7      16.375 -26.195  -5.637  1.00 49.55 LIG 0.22  C 
ATOM     62 O    ASP E   7      17.539 -26.020  -5.994  1.00 55.15 LIG-0.29  OA
ENDBRANCH 56 61
ENDBRANCH 54 56
ENDBRANCH 47 52
ENDBRANCH 45 47
ENDBRANCH 38 43
ENDBRANCH 36 38
ENDBRANCH 1 34
BRANCH 1 63
ATOM     63  CB  LEU E   4      18.777 -15.232  -2.403  1.00 22.63 LIG 0.04  C 
BRANCH 63 64
ATOM     64  CG  LEU E   4      17.889 -14.083  -2.870  1.00 23.40 LIG-0.02  C 
ATOM     65  CD2 LEU E   4      16.944 -13.678  -1.738  1.00 23.91 LIG 0.01  C 
ATOM     66  CD1 LEU E   4      17.114 -14.440  -4.123  1.00 22.51 LIG 0.01  C 
ENDBRANCH 63 64
ENDBRANCH 1 63
TORSDOF 29
ENDMDL
MODEL 16
USER: ADFR SOLUTION from run 137
USER: SCORE 20.716717 LL:  -5.816 LR: -18.050 RR:   0.000 FEB:  -9.399
USER: RMSD 4.869387
USER: SEED 136
USER: STATUS no improvement in best in 10 clusters for 5 generations
USER: GENES 31
USER: genes 0 Translation |==|  0.63658 0.56443 0.70656
USER: genes 1 Rotation |==|  0.46574 0.39912 0.43572 0.98427
USER: genes 2 Torsion [CB]-CA--N-[C] |==|  0.15297
USER: genes 3 Torsion [N]-C--CA-[N] |==|  0.89582
USER: genes 4 Torsion [C]-CA--N-[C] |==|  0.51667
USER: genes 5 Torsion [N]-C--CA-[N] |==|  0.37882
USER: genes 6 Torsion [C]-CA--N-[C] |==|  0.82676
USER: genes 7 Torsion [N]-C--CA-[N] |==|  0.35933
USER: genes 8 Torsion [C]-CA--N-[H3] |==|  0.23546
USER: genes 9 Torsion [C]-CA--CB-[CG] |==|  0.54316
USER: genes 10 Torsion [CA]-CB--CG-[CD] |==|  0.23832
USER: genes 11 Torsion [CB]-CG--CD-[OE2] |==|  0.93327
USER: genes 12 Torsion [C]-CA--CB-[CG2] |==|  0.33978
USER: genes 13 Torsion [CA]-CB--OG1-[HG1] |==|  0.34953
USER: genes 14 Torsion [C]-CA--CB-[CG] |==|  0.31682
USER: genes 15 Torsion [CA]-CB--CG-[CD2] |==|  0.38661
USER: genes 16 Torsion [N]-CA--C-[N] |==|  0.52970
USER: genes 17 Torsion [C]-N--CA-[CB] |==|  0.51198
USER: genes 18 Torsion [N]-CA--CB-[CG] |==|  0.78462
USER: genes 19 Torsion [CA]-CB--CG-[OD1] |==|  0.24614
USER: genes 20 Torsion [N]-CA--C-[N] |==|  0.36816
USER: genes 21 Torsion [C]-N--CA-[CB] |==|  0.21590
USER: genes 22 Torsion [N]-CA--CB-[CG] |==|  0.57642
USER: genes 23 Torsion [CA]-CB--CG-[CD2] |==|  0.49142
USER: genes 24 Torsion [N]-CA--C-[N] |==|  0.00899
USER: genes 25 Torsion [C]-N--CA-[CB] |==|  0.45484
USER: genes 26 Torsion [N]-CA--CB-[CG] |==|  0.17110
USER: genes 27 Torsion [CA]-CB--CG-[OD2] |==|  0.82782
USER: genes 28 Torsion [N]-CA--C-[O] |==|  0.03349
USER: genes 29 Torsion [N]-CA--CB-[CG] |==|  0.62683
USER: genes 30 Torsion [CA]-CB--CG-[CD2] |==|  0.21184
ROOT
ATOM      1  CA  LEU E   4      22.758 -19.104   1.669  1.00 22.51 LIG 0.18  C 
ENDROOT
BRANCH 1 2
ATOM      2  N   LEU E   4      22.091 -18.551   0.518  1.00 20.57 LIG-0.35  N 
ATOM      3  C   LEU E   3      21.789 -17.263   0.378  1.00 20.37 LIG 0.24  C 
ATOM      4 O    LEU E   3      22.007 -16.403   1.245  1.00 19.26 LIG-0.27  OA
ATOM      5 H    LEU E   4      21.903 -19.140  -0.080  1.00 20.57 LIG 0.16  HD
BRANCH 3 6
ATOM      6  CA  LEU E   3      21.067 -16.861  -0.911  1.00 20.55 LIG 0.18  C 
BRANCH 6 7
ATOM      7  N   LEU E   3      21.478 -17.544  -2.114  1.00 20.86 LIG-0.35  N 
ATOM      8  C   THR E   2      20.991 -17.175  -3.296  1.00 24.34 LIG 0.24  C 
ATOM      9 O    THR E   2      20.326 -16.142  -3.452  1.00 23.87 LIG-0.27  OA
ATOM     10 H    LEU E   3      22.042 -18.182  -1.995  1.00 20.86 LIG 0.16  HD
BRANCH 8 11
ATOM     11  CA  THR E   2      21.299 -18.080  -4.461  1.00 25.18 LIG 0.20  C 
BRANCH 11 12
ATOM     12  N   THR E   2      20.074 -18.241  -5.253  1.00 26.55 LIG-0.34  N 
ATOM     13  C   GLU E   1      18.975 -18.799  -4.760  1.00 27.17 LIG 0.25  C 
ATOM     14 O    GLU E   1      18.926 -19.340  -3.649  1.00 25.74 LIG-0.27  OA
ATOM     15 H    THR E   2      20.136 -17.944  -6.058  1.00 26.55 LIG 0.16  HD
BRANCH 13 16
ATOM     16  CA  GLU E   1      17.744 -18.804  -5.666  1.00 31.71 LIG 0.28  C 
BRANCH 16 17
ATOM     17  N   GLU E   1      17.225 -20.188  -5.701  1.00 33.09 LIG-0.07  N 
ATOM     18 H3   GLU E   1      16.691 -20.323  -5.002  1.00 33.09 LIG 0.28  HD
ATOM     19 H2   GLU E   1      17.905 -20.761  -5.668  1.00 33.09 LIG 0.28  HD
ATOM     20 H1   GLU E   1      16.766 -20.315  -6.453  1.00 33.09 LIG 0.28  HD
ENDBRANCH 16 17
BRANCH 16 21
ATOM     21  CB  GLU E   1      16.679 -17.838  -5.127  1.00 32.36 LIG 0.05  C 
BRANCH 21 22
ATOM     22  CG  GLU E   1      15.306 -18.058  -5.741  1.00 32.63 LIG 0.12  C 
BRANCH 22 23
ATOM     23  CD  GLU E   1      14.473 -19.126  -5.043  1.00 33.25 LIG 0.17  C 
ATOM     24 OE2  GLU E   1      15.074 -20.010  -4.389  1.00 34.04 LIG-0.65  OA
ATOM     25 OE1  GLU E   1      13.229 -19.102  -5.139  1.00 33.29 LIG-0.65  OA
ENDBRANCH 22 23
ENDBRANCH 21 22
ENDBRANCH 16 21
ENDBRANCH 13 16
ENDBRANCH 11 12
BRANCH 11 26
ATOM     26  CB  THR E   2      22.443 -17.495  -5.307  1.00 27.29 LIG 0.15  C 
ATOM     27  CG2 THR E   2      23.569 -18.462  -5.396  1.00 26.73 LIG 0.04  C 
BRANCH 26 28
ATOM     28 OG1  THR E   2      21.942 -17.244  -6.627  1.00 28.79 LIG-0.39  OA
ATOM     29 HG1  THR E   2      22.089 -16.444  -6.835  1.00 28.79 LIG 0.21  HD
ENDBRANCH 26 28
ENDBRANCH 11 26
ENDBRANCH 8 11
ENDBRANCH 6 7
BRANCH 6 30
ATOM     30  CB  LEU E   3      19.545 -17.032  -0.731  1.00 20.98 LIG 0.04  C 
BRANCH 30 31
ATOM     31  CG  LEU E   3      18.709 -15.765  -0.759  1.00 22.16 LIG-0.02  C 
ATOM     32  CD2 LEU E   3      17.413 -15.904  -1.516  1.00 24.43 LIG 0.01  C 
ATOM     33  CD1 LEU E   3      19.561 -14.644  -1.326  1.00 21.08 LIG 0.01  C 
ENDBRANCH 30 31
ENDBRANCH 6 30
ENDBRANCH 3 6
ENDBRANCH 1 2
BRANCH 1 34
ATOM     34  C   LEU E   4      22.798 -20.621   1.490  1.00 22.59 LIG 0.24  C 
ATOM     35 O    LEU E   4      22.506 -21.118   0.410  1.00 22.01 LIG-0.27  OA
ATOM     36  N   ASP E   5      23.177 -21.331   2.545  1.00 23.28 LIG-0.35  N 
ATOM     37 H    ASP E   5      23.427 -20.981   3.290  1.00 23.28 LIG 0.16  HD
BRANCH 36 38
ATOM     38  CA  ASP E   5      23.202 -22.813   2.529  1.00 26.12 LIG 0.19  C 
BRANCH 38 39
ATOM     39  CB  ASP E   5      23.575 -23.347   3.906  1.00 27.88 LIG 0.15  C 
BRANCH 39 40
ATOM     40  CG  ASP E   5      25.084 -23.248   4.208  1.00 30.83 LIG 0.17  C 
ATOM     41 OD1  ASP E   5      25.568 -22.225   4.727  1.00 34.24 LIG-0.65  OA
ATOM     42 OD2  ASP E   5      25.771 -24.235   3.913  1.00 35.63 LIG-0.65  OA
ENDBRANCH 39 40
ENDBRANCH 38 39
BRANCH 38 43
ATOM     43  C   ASP E   5      21.832 -23.319   2.121  1.00 25.92 LIG 0.24  C 
ATOM     44 O    ASP E   5      20.811 -22.828   2.622  1.00 27.30 LIG-0.27  OA
ATOM     45  N   LEU E   6      21.811 -24.258   1.187  1.00 28.24 LIG-0.35  N 
ATOM     46 H    LEU E   6      22.518 -24.584   0.823  1.00 28.24 LIG 0.16  HD
BRANCH 45 47
ATOM     47  CA  LEU E   6      20.551 -24.833   0.685  1.00 31.78 LIG 0.18  C 
BRANCH 47 48
ATOM     48  CB  LEU E   6      19.868 -23.876  -0.307  1.00 30.53 LIG 0.04  C 
BRANCH 48 49
ATOM     49  CG  LEU E   6      18.345 -24.022  -0.372  1.00 30.12 LIG-0.02  C 
ATOM     50  CD1 LEU E   6      17.704 -23.928   1.002  1.00 29.14 LIG 0.01  C 
ATOM     51  CD2 LEU E   6      17.734 -22.990  -1.320  1.00 31.89 LIG 0.01  C 
ENDBRANCH 48 49
ENDBRANCH 47 48
BRANCH 47 52
ATOM     52  C   LEU E   6      20.749 -26.204   0.040  1.00 36.88 LIG 0.24  C 
ATOM     53 O    LEU E   6      19.775 -26.777  -0.471  1.00 37.54 LIG-0.27  OA
ATOM     54  N   ASP E   7      21.985 -26.712   0.076  1.00 40.21 LIG-0.35  N 
ATOM     55 H    ASP E   7      22.667 -26.270   0.358  1.00 40.21 LIG 0.16  HD
BRANCH 54 56
ATOM     56  CA  ASP E   7      22.307 -28.072  -0.360  1.00 48.33 LIG 0.17  C 
BRANCH 56 57
ATOM     57  CB  ASP E   7      23.807 -28.202  -0.572  1.00 51.73 LIG 0.15  C 
BRANCH 57 58
ATOM     58  CG  ASP E   7      24.597 -27.959   0.701  1.00 58.06 LIG 0.17  C 
ATOM     59 OD2  ASP E   7      24.512 -26.834   1.236  1.00 65.10 LIG-0.65  OA
ATOM     60 OD1  ASP E   7      25.295 -28.886   1.178  1.00 65.94 LIG-0.65  OA
ENDBRANCH 57 58
ENDBRANCH 56 57
BRANCH 56 61
ATOM     61  C   ASP E   7      21.843 -29.112   0.650  1.00 49.55 LIG 0.22  C 
ATOM     62 O    ASP E   7      21.086 -28.789   1.564  1.00 55.15 LIG-0.29  OA
ENDBRANCH 56 61
ENDBRANCH 54 56
ENDBRANCH 47 52
ENDBRANCH 45 47
ENDBRANCH 38 43
ENDBRANCH 36 38
ENDBRANCH 1 34
BRANCH 1 63
ATOM     63  CB  LEU E   4      21.987 -18.744   2.943  1.00 22.63 LIG 0.04  C 
BRANCH 63 64
ATOM     64  CG  LEU E   4      22.729 -18.229   4.173  1.00 23.40 LIG-0.02  C 
ATOM     65  CD2 LEU E   4      23.124 -16.769   3.953  1.00 23.91 LIG 0.01  C 
ATOM     66  CD1 LEU E   4      23.942 -19.078   4.499  1.00 22.51 LIG 0.01  C 
ENDBRANCH 63 64
ENDBRANCH 1 63
TORSDOF 29
ENDMDL
MODEL 17
USER: ADFR SOLUTION from run 7
USER: SCORE 20.788020 LL:  -6.042 LR: -18.042 RR:   0.000 FEB:  -9.391
USER: RMSD 5.257105
USER: SEED 594327
USER: STATUS no improvement in best in 9 clusters for 5 generations
USER: GENES 31
USER: genes 0 Translation |==|  0.62831 0.54783 0.73961
USER: genes 1 Rotation |==|  0.35851 0.42997 0.47587 0.97381
USER: genes 2 Torsion [CB]-CA--N-[C] |==|  0.23986
USER: genes 3 Torsion [N]-C--CA-[N] |==|  0.44200
USER: genes 4 Torsion [C]-CA--N-[C] |==|  0.78907
USER: genes 5 Torsion [N]-C--CA-[N] |==|  0.11739
USER: genes 6 Torsion [C]-CA--N-[C] |==|  0.14626
USER: genes 7 Torsion [N]-C--CA-[N] |==|  0.37686
USER: genes 8 Torsion [C]-CA--N-[H3] |==|  0.22534
USER: genes 9 Torsion [C]-CA--CB-[CG] |==|  0.60967
USER: genes 10 Torsion [CA]-CB--CG-[CD] |==|  0.23845
USER: genes 11 Torsion [CB]-CG--CD-[OE2] |==|  0.32636
USER: genes 12 Torsion [C]-CA--CB-[CG2] |==|  0.55183
USER: genes 13 Torsion [CA]-CB--OG1-[HG1] |==|  0.78944
USER: genes 14 Torsion [C]-CA--CB-[CG] |==|  0.88249
USER: genes 15 Torsion [CA]-CB--CG-[CD2] |==|  0.62166
USER: genes 16 Torsion [N]-CA--C-[N] |==|  0.26361
USER: genes 17 Torsion [C]-N--CA-[CB] |==|  0.82221
USER: genes 18 Torsion [N]-CA--CB-[CG] |==|  0.61959
USER: genes 19 Torsion [CA]-CB--CG-[OD1] |==|  0.89811
USER: genes 20 Torsion [N]-CA--C-[N] |==|  0.18696
USER: genes 21 Torsion [C]-N--CA-[CB] |==|  0.36002
USER: genes 22 Torsion [N]-CA--CB-[CG] |==|  0.74704
USER: genes 23 Torsion [CA]-CB--CG-[CD2] |==|  0.14750
USER: genes 24 Torsion [N]-CA--C-[N] |==|  0.90713
USER: genes 25 Torsion [C]-N--CA-[CB] |==|  0.88213
USER: genes 26 Torsion [N]-CA--CB-[CG] |==|  0.72088
USER: genes 27 Torsion [CA]-CB--CG-[OD2] |==|  0.11709
USER: genes 28 Torsion [N]-CA--C-[O] |==|  0.17065
USER: genes 29 Torsion [N]-CA--CB-[CG] |==|  0.67892
USER: genes 30 Torsion [CA]-CB--CG-[CD2] |==|  0.24667
ROOT
ATOM      1  CA  LEU E   4      22.566 -19.490   2.338  1.00 22.51 LIG 0.18  C 
ENDROOT
BRANCH 1 2
ATOM      2  N   LEU E   4      21.675 -19.492   1.206  1.00 20.57 LIG-0.35  N 
ATOM      3  C   LEU E   3      21.683 -18.568   0.249  1.00 20.37 LIG 0.24  C 
ATOM      4 O    LEU E   3      22.427 -17.577   0.250  1.00 19.26 LIG-0.27  OA
ATOM      5 H    LEU E   4      21.129 -20.156   1.206  1.00 20.57 LIG 0.16  HD
BRANCH 3 6
ATOM      6  CA  LEU E   3      20.652 -18.729  -0.872  1.00 20.55 LIG 0.18  C 
BRANCH 6 7
ATOM      7  N   LEU E   3      20.337 -17.540  -1.627  1.00 20.86 LIG-0.35  N 
ATOM      8  C   THR E   2      19.553 -16.600  -1.106  1.00 24.34 LIG 0.24  C 
ATOM      9 O    THR E   2      19.210 -16.601   0.084  1.00 23.87 LIG-0.27  OA
ATOM     10 H    LEU E   3      20.691 -17.502  -2.410  1.00 20.86 LIG 0.16  HD
BRANCH 8 11
ATOM     11  CA  THR E   2      19.100 -15.509  -2.041  1.00 25.18 LIG 0.20  C 
BRANCH 11 12
ATOM     12  N   THR E   2      18.730 -16.125  -3.321  1.00 26.55 LIG-0.34  N 
ATOM     13  C   GLU E   1      17.873 -17.136  -3.403  1.00 27.17 LIG 0.25  C 
ATOM     14 O    GLU E   1      17.416 -17.723  -2.416  1.00 25.74 LIG-0.27  OA
ATOM     15 H    THR E   2      19.117 -15.773  -4.003  1.00 26.55 LIG 0.16  HD
BRANCH 13 16
ATOM     16  CA  GLU E   1      17.503 -17.605  -4.810  1.00 31.71 LIG 0.28  C 
BRANCH 16 17
ATOM     17  N   GLU E   1      17.541 -19.083  -4.808  1.00 33.09 LIG-0.07  N 
ATOM     18 H3   GLU E   1      16.783 -19.400  -4.465  1.00 33.09 LIG 0.28  HD
ATOM     19 H2   GLU E   1      18.227 -19.362  -4.315  1.00 33.09 LIG 0.28  HD
ATOM     20 H1   GLU E   1      17.635 -19.380  -5.642  1.00 33.09 LIG 0.28  HD
ENDBRANCH 16 17
BRANCH 16 21
ATOM     21  CB  GLU E   1      16.105 -17.098  -5.192  1.00 32.36 LIG 0.05  C 
BRANCH 21 22
ATOM     22  CG  GLU E   1      15.286 -18.124  -5.959  1.00 32.63 LIG 0.12  C 
BRANCH 22 23
ATOM     23  CD  GLU E   1      14.522 -19.102  -5.075  1.00 33.25 LIG 0.17  C 
ATOM     24 OE2  GLU E   1      13.272 -19.104  -5.139  1.00 34.04 LIG-0.65  OA
ATOM     25 OE1  GLU E   1      15.149 -19.865  -4.310  1.00 33.29 LIG-0.65  OA
ENDBRANCH 22 23
ENDBRANCH 21 22
ENDBRANCH 16 21
ENDBRANCH 13 16
ENDBRANCH 11 12
BRANCH 11 26
ATOM     26  CB  THR E   2      17.919 -14.734  -1.429  1.00 27.29 LIG 0.15  C 
ATOM     27  CG2 THR E   2      17.189 -13.984  -2.484  1.00 26.73 LIG 0.04  C 
BRANCH 26 28
ATOM     28 OG1  THR E   2      17.024 -15.680  -0.829  1.00 28.79 LIG-0.39  OA
ATOM     29 HG1  THR E   2      16.584 -16.069  -1.428  1.00 28.79 LIG 0.21  HD
ENDBRANCH 26 28
ENDBRANCH 11 26
ENDBRANCH 8 11
ENDBRANCH 6 7
BRANCH 6 30
ATOM     30  CB  LEU E   3      21.108 -19.835  -1.845  1.00 20.98 LIG 0.04  C 
BRANCH 30 31
ATOM     31  CG  LEU E   3      22.579 -19.848  -2.220  1.00 22.16 LIG-0.02  C 
ATOM     32  CD2 LEU E   3      22.835 -20.073  -3.687  1.00 24.43 LIG 0.01  C 
ATOM     33  CD1 LEU E   3      23.277 -20.896  -1.372  1.00 21.08 LIG 0.01  C 
ENDBRANCH 30 31
ENDBRANCH 6 30
ENDBRANCH 3 6
ENDBRANCH 1 2
BRANCH 1 34
ATOM     34  C   LEU E   4      22.716 -20.937   2.805  1.00 22.59 LIG 0.24  C 
ATOM     35 O    LEU E   4      21.888 -21.426   3.561  1.00 22.01 LIG-0.27  OA
ATOM     36  N   ASP E   5      23.761 -21.605   2.332  1.00 23.28 LIG-0.35  N 
ATOM     37 H    ASP E   5      24.319 -21.278   1.765  1.00 23.28 LIG 0.16  HD
BRANCH 36 38
ATOM     38  CA  ASP E   5      24.062 -22.996   2.749  1.00 26.12 LIG 0.19  C 
BRANCH 38 39
ATOM     39  CB  ASP E   5      24.387 -23.040   4.237  1.00 27.88 LIG 0.15  C 
BRANCH 39 40
ATOM     40  CG  ASP E   5      25.595 -23.939   4.568  1.00 30.83 LIG 0.17  C 
ATOM     41 OD1  ASP E   5      25.796 -24.999   3.946  1.00 34.24 LIG-0.65  OA
ATOM     42 OD2  ASP E   5      26.345 -23.544   5.471  1.00 35.63 LIG-0.65  OA
ENDBRANCH 39 40
ENDBRANCH 38 39
BRANCH 38 43
ATOM     43  C   ASP E   5      22.857 -23.865   2.447  1.00 25.92 LIG 0.24  C 
ATOM     44 O    ASP E   5      22.173 -24.328   3.371  1.00 27.30 LIG-0.27  OA
ATOM     45  N   LEU E   6      22.575 -24.047   1.166  1.00 28.24 LIG-0.35  N 
ATOM     46 H    LEU E   6      23.036 -23.709   0.524  1.00 28.24 LIG 0.16  HD
BRANCH 45 47
ATOM     47  CA  LEU E   6      21.427 -24.859   0.725  1.00 31.78 LIG 0.18  C 
BRANCH 47 48
ATOM     48  CB  LEU E   6      20.574 -24.090  -0.299  1.00 30.53 LIG 0.04  C 
BRANCH 48 49
ATOM     49  CG  LEU E   6      19.439 -23.270   0.319  1.00 30.12 LIG-0.02  C 
ATOM     50  CD1 LEU E   6      18.326 -24.152   0.860  1.00 29.14 LIG 0.01  C 
ATOM     51  CD2 LEU E   6      19.965 -22.341   1.413  1.00 31.89 LIG 0.01  C 
ENDBRANCH 48 49
ENDBRANCH 47 48
BRANCH 47 52
ATOM     52  C   LEU E   6      21.851 -26.208   0.147  1.00 36.88 LIG 0.24  C 
ATOM     53 O    LEU E   6      21.120 -27.195   0.319  1.00 37.54 LIG-0.27  OA
ATOM     54  N   ASP E   7      23.013 -26.241  -0.512  1.00 40.21 LIG-0.35  N 
ATOM     55 H    ASP E   7      23.469 -25.535  -0.696  1.00 40.21 LIG 0.16  HD
BRANCH 54 56
ATOM     56  CA  ASP E   7      23.630 -27.479  -0.991  1.00 48.33 LIG 0.17  C 
BRANCH 56 57
ATOM     57  CB  ASP E   7      23.515 -28.557   0.074  1.00 51.73 LIG 0.15  C 
BRANCH 57 58
ATOM     58  CG  ASP E   7      24.800 -28.736   0.861  1.00 58.06 LIG 0.17  C 
ATOM     59 OD2  ASP E   7      25.421 -27.711   1.208  1.00 65.10 LIG-0.65  OA
ATOM     60 OD1  ASP E   7      25.189 -29.895   1.145  1.00 65.94 LIG-0.65  OA
ENDBRANCH 57 58
ENDBRANCH 56 57
BRANCH 56 61
ATOM     61  C   ASP E   7      22.987 -27.966  -2.281  1.00 49.55 LIG 0.22  C 
ATOM     62 O    ASP E   7      23.024 -27.267  -3.293  1.00 55.15 LIG-0.29  OA
ENDBRANCH 56 61
ENDBRANCH 54 56
ENDBRANCH 47 52
ENDBRANCH 45 47
ENDBRANCH 38 43
ENDBRANCH 36 38
ENDBRANCH 1 34
BRANCH 1 63
ATOM     63  CB  LEU E   4      21.979 -18.632   3.464  1.00 22.63 LIG 0.04  C 
BRANCH 63 64
ATOM     64  CG  LEU E   4      22.692 -17.361   3.915  1.00 23.40 LIG-0.02  C 
ATOM     65  CD2 LEU E   4      22.206 -16.180   3.075  1.00 23.91 LIG 0.01  C 
ATOM     66  CD1 LEU E   4      24.200 -17.500   3.837  1.00 22.51 LIG 0.01  C 
ENDBRANCH 63 64
ENDBRANCH 1 63
TORSDOF 29
ENDMDL
MODEL 18
USER: ADFR SOLUTION from run 55
USER: SCORE 20.569561 LL:  -5.847 LR: -17.989 RR:   0.000 FEB:  -9.338
USER: RMSD 5.551203
USER: SEED 54
USER: STATUS no improvement in best in 4 clusters for 5 generations
USER: GENES 31
USER: genes 0 Translation |==|  0.66569 0.49410 0.73298
USER: genes 1 Rotation |==|  0.59766 0.43084 0.44532 0.98238
USER: genes 2 Torsion [CB]-CA--N-[C] |==|  0.48345
USER: genes 3 Torsion [N]-C--CA-[N] |==|  0.65635
USER: genes 4 Torsion [C]-CA--N-[C] |==|  0.53889
USER: genes 5 Torsion [N]-C--CA-[N] |==|  0.42652
USER: genes 6 Torsion [C]-CA--N-[C] |==|  0.82509
USER: genes 7 Torsion [N]-C--CA-[N] |==|  0.93708
USER: genes 8 Torsion [C]-CA--N-[H3] |==|  0.26608
USER: genes 9 Torsion [C]-CA--CB-[CG] |==|  0.98983
USER: genes 10 Torsion [CA]-CB--CG-[CD] |==|  0.35164
USER: genes 11 Torsion [CB]-CG--CD-[OE2] |==|  0.66655
USER: genes 12 Torsion [C]-CA--CB-[CG2] |==|  0.28016
USER: genes 13 Torsion [CA]-CB--OG1-[HG1] |==|  0.26253
USER: genes 14 Torsion [C]-CA--CB-[CG] |==|  0.21789
USER: genes 15 Torsion [CA]-CB--CG-[CD2] |==|  0.02186
USER: genes 16 Torsion [N]-CA--C-[N] |==|  0.50865
USER: genes 17 Torsion [C]-N--CA-[CB] |==|  0.52846
USER: genes 18 Torsion [N]-CA--CB-[CG] |==|  0.92364
USER: genes 19 Torsion [CA]-CB--CG-[OD1] |==|  0.14221
USER: genes 20 Torsion [N]-CA--C-[N] |==|  0.82567
USER: genes 21 Torsion [C]-N--CA-[CB] |==|  0.85480
USER: genes 22 Torsion [N]-CA--CB-[CG] |==|  0.75876
USER: genes 23 Torsion [CA]-CB--CG-[CD2] |==|  0.71735
USER: genes 24 Torsion [N]-CA--C-[N] |==|  0.35731
USER: genes 25 Torsion [C]-N--CA-[CB] |==|  0.34452
USER: genes 26 Torsion [N]-CA--CB-[CG] |==|  0.72310
USER: genes 27 Torsion [CA]-CB--CG-[OD2] |==|  0.81116
USER: genes 28 Torsion [N]-CA--C-[O] |==|  0.15630
USER: genes 29 Torsion [N]-CA--CB-[CG] |==|  0.22250
USER: genes 30 Torsion [CA]-CB--CG-[CD2] |==|  0.63938
ROOT
ATOM      1  CA  LEU E   4      23.435 -20.739   2.204  1.00 22.51 LIG 0.18  C 
ENDROOT
BRANCH 1 2
ATOM      2  N   LEU E   4      22.610 -19.791   1.502  1.00 20.57 LIG-0.35  N 
ATOM      3  C   LEU E   3      22.986 -19.144   0.401  1.00 20.37 LIG 0.24  C 
ATOM      4 O    LEU E   3      24.108 -19.253  -0.115  1.00 19.26 LIG-0.27  OA
ATOM      5 H    LEU E   4      21.838 -19.678   1.865  1.00 20.57 LIG 0.16  HD
BRANCH 3 6
ATOM      6  CA  LEU E   3      21.976 -18.163  -0.201  1.00 20.55 LIG 0.18  C 
BRANCH 6 7
ATOM      7  N   LEU E   3      21.612 -18.385  -1.580  1.00 20.86 LIG-0.35  N 
ATOM      8  C   THR E   2      20.971 -17.443  -2.266  1.00 24.34 LIG 0.24  C 
ATOM      9 O    THR E   2      20.819 -16.291  -1.837  1.00 23.87 LIG-0.27  OA
ATOM     10 H    LEU E   3      21.841 -19.151  -1.897  1.00 20.86 LIG 0.16  HD
BRANCH 8 11
ATOM     11  CA  THR E   2      20.436 -17.843  -3.617  1.00 25.18 LIG 0.20  C 
BRANCH 11 12
ATOM     12  N   THR E   2      19.287 -16.986  -3.927  1.00 26.55 LIG-0.34  N 
ATOM     13  C   GLU E   1      18.178 -16.989  -3.197  1.00 27.17 LIG 0.25  C 
ATOM     14 O    GLU E   1      17.969 -17.794  -2.281  1.00 25.74 LIG-0.27  OA
ATOM     15 H    THR E   2      19.398 -16.488  -4.620  1.00 26.55 LIG 0.16  HD
BRANCH 13 16
ATOM     16  CA  GLU E   1      17.105 -15.969  -3.576  1.00 31.71 LIG 0.28  C 
BRANCH 16 17
ATOM     17  N   GLU E   1      17.776 -14.873  -4.309  1.00 33.09 LIG-0.07  N 
ATOM     18 H3   GLU E   1      17.708 -15.016  -5.185  1.00 33.09 LIG 0.28  HD
ATOM     19 H2   GLU E   1      18.635 -14.846  -4.080  1.00 33.09 LIG 0.28  HD
ATOM     20 H1   GLU E   1      17.390 -14.098  -4.104  1.00 33.09 LIG 0.28  HD
ENDBRANCH 16 17
BRANCH 16 21
ATOM     21  CB  GLU E   1      16.026 -16.626  -4.449  1.00 32.36 LIG 0.05  C 
BRANCH 21 22
ATOM     22  CG  GLU E   1      16.333 -18.076  -4.788  1.00 32.63 LIG 0.12  C 
BRANCH 22 23
ATOM     23  CD  GLU E   1      15.212 -19.048  -4.442  1.00 33.25 LIG 0.17  C 
ATOM     24 OE2  GLU E   1      15.458 -19.969  -3.629  1.00 34.04 LIG-0.65  OA
ATOM     25 OE1  GLU E   1      14.091 -18.914  -4.973  1.00 33.29 LIG-0.65  OA
ENDBRANCH 22 23
ENDBRANCH 21 22
ENDBRANCH 16 21
ENDBRANCH 13 16
ENDBRANCH 11 12
BRANCH 11 26
ATOM     26  CB  THR E   2      21.535 -17.718  -4.687  1.00 27.29 LIG 0.15  C 
ATOM     27  CG2 THR E   2      22.111 -19.053  -4.996  1.00 26.73 LIG 0.04  C 
BRANCH 26 28
ATOM     28 OG1  THR E   2      20.944 -17.181  -5.878  1.00 28.79 LIG-0.39  OA
ATOM     29 HG1  THR E   2      21.044 -16.348  -5.889  1.00 28.79 LIG 0.21  HD
ENDBRANCH 26 28
ENDBRANCH 11 26
ENDBRANCH 8 11
ENDBRANCH 6 7
BRANCH 6 30
ATOM     30  CB  LEU E   3      20.697 -18.140   0.659  1.00 20.98 LIG 0.04  C 
BRANCH 30 31
ATOM     31  CG  LEU E   3      20.753 -17.333   1.944  1.00 22.16 LIG-0.02  C 
ATOM     32  CD2 LEU E   3      22.008 -16.514   2.098  1.00 24.43 LIG 0.01  C 
ATOM     33  CD1 LEU E   3      20.569 -18.285   3.112  1.00 21.08 LIG 0.01  C 
ENDBRANCH 30 31
ENDBRANCH 6 30
ENDBRANCH 3 6
ENDBRANCH 1 2
BRANCH 1 34
ATOM     34  C   LEU E   4      23.633 -21.943   1.284  1.00 22.59 LIG 0.24  C 
ATOM     35 O    LEU E   4      23.180 -21.927   0.147  1.00 22.01 LIG-0.27  OA
ATOM     36  N   ASP E   5      24.321 -22.962   1.784  1.00 23.28 LIG-0.35  N 
ATOM     37 H    ASP E   5      24.679 -22.958   2.566  1.00 23.28 LIG 0.16  HD
BRANCH 36 38
ATOM     38  CA  ASP E   5      24.535 -24.217   1.023  1.00 26.12 LIG 0.19  C 
BRANCH 38 39
ATOM     39  CB  ASP E   5      25.130 -25.286   1.930  1.00 27.88 LIG 0.15  C 
BRANCH 39 40
ATOM     40  CG  ASP E   5      25.958 -24.703   3.094  1.00 30.83 LIG 0.17  C 
ATOM     41 OD1  ASP E   5      25.489 -23.820   3.835  1.00 34.24 LIG-0.65  OA
ATOM     42 OD2  ASP E   5      27.097 -25.166   3.245  1.00 35.63 LIG-0.65  OA
ENDBRANCH 39 40
ENDBRANCH 38 39
BRANCH 38 43
ATOM     43  C   ASP E   5      23.203 -24.681   0.466  1.00 25.92 LIG 0.24  C 
ATOM     44 O    ASP E   5      23.042 -24.792  -0.758  1.00 27.30 LIG-0.27  OA
ATOM     45  N   LEU E   6      22.273 -24.991   1.357  1.00 28.24 LIG-0.35  N 
ATOM     46 H    LEU E   6      22.390 -24.935   2.207  1.00 28.24 LIG 0.16  HD
BRANCH 45 47
ATOM     47  CA  LEU E   6      20.937 -25.467   0.960  1.00 31.78 LIG 0.18  C 
BRANCH 47 48
ATOM     48  CB  LEU E   6      20.292 -24.505  -0.053  1.00 30.53 LIG 0.04  C 
BRANCH 48 49
ATOM     49  CG  LEU E   6      19.522 -23.345   0.585  1.00 30.12 LIG-0.02  C 
ATOM     50  CD1 LEU E   6      19.847 -22.014  -0.071  1.00 29.14 LIG 0.01  C 
ATOM     51  CD2 LEU E   6      18.016 -23.602   0.556  1.00 31.89 LIG 0.01  C 
ENDBRANCH 48 49
ENDBRANCH 47 48
BRANCH 47 52
ATOM     52  C   LEU E   6      20.964 -26.885   0.392  1.00 36.88 LIG 0.24  C 
ATOM     53 O    LEU E   6      21.757 -27.154  -0.522  1.00 37.54 LIG-0.27  OA
ATOM     54  N   ASP E   7      20.106 -27.761   0.923  1.00 40.21 LIG-0.35  N 
ATOM     55 H    ASP E   7      19.620 -27.585   1.611  1.00 40.21 LIG 0.16  HD
BRANCH 54 56
ATOM     56  CA  ASP E   7      19.902 -29.110   0.390  1.00 48.33 LIG 0.17  C 
BRANCH 56 57
ATOM     57  CB  ASP E   7      20.146 -30.137   1.483  1.00 51.73 LIG 0.15  C 
BRANCH 57 58
ATOM     58  CG  ASP E   7      21.524 -30.765   1.394  1.00 58.06 LIG 0.17  C 
ATOM     59 OD2  ASP E   7      21.766 -31.509   0.421  1.00 65.10 LIG-0.65  OA
ATOM     60 OD1  ASP E   7      22.373 -30.513   2.283  1.00 65.94 LIG-0.65  OA
ENDBRANCH 57 58
ENDBRANCH 56 57
BRANCH 56 61
ATOM     61  C   ASP E   7      18.498 -29.286  -0.171  1.00 49.55 LIG 0.22  C 
ATOM     62 O    ASP E   7      18.084 -28.528  -1.048  1.00 55.15 LIG-0.29  OA
ENDBRANCH 56 61
ENDBRANCH 54 56
ENDBRANCH 47 52
ENDBRANCH 45 47
ENDBRANCH 38 43
ENDBRANCH 36 38
ENDBRANCH 1 34
BRANCH 1 63
ATOM     63  CB  LEU E   4      22.744 -21.174   3.501  1.00 22.63 LIG 0.04  C 
BRANCH 63 64
ATOM     64  CG  LEU E   4      21.644 -22.230   3.470  1.00 23.40 LIG-0.02  C 
ATOM     65  CD2 LEU E   4      20.426 -21.718   4.238  1.00 23.91 LIG 0.01  C 
ATOM     66  CD1 LEU E   4      22.118 -23.558   4.027  1.00 22.51 LIG 0.01  C 
ENDBRANCH 63 64
ENDBRANCH 1 63
TORSDOF 29
ENDMDL
MODEL 19
USER: ADFR SOLUTION from run 67
USER: SCORE 21.667291 LL:  -7.108 LR: -17.908 RR:   0.000 FEB:  -9.257
USER: RMSD 6.192791
USER: SEED 66
USER: STATUS searching
USER: GENES 31
USER: genes 0 Translation |==|  0.55205 0.65769 0.58342
USER: genes 1 Rotation |==|  0.28831 0.25656 0.68007 0.83690
USER: genes 2 Torsion [CB]-CA--N-[C] |==|  0.84885
USER: genes 3 Torsion [N]-C--CA-[N] |==|  0.86111
USER: genes 4 Torsion [C]-CA--N-[C] |==|  0.18053
USER: genes 5 Torsion [N]-C--CA-[N] |==|  0.19683
USER: genes 6 Torsion [C]-CA--N-[C] |==|  0.75846
USER: genes 7 Torsion [N]-C--CA-[N] |==|  0.40310
USER: genes 8 Torsion [C]-CA--N-[H3] |==|  0.70611
USER: genes 9 Torsion [C]-CA--CB-[CG] |==|  0.82397
USER: genes 10 Torsion [CA]-CB--CG-[CD] |==|  0.79264
USER: genes 11 Torsion [CB]-CG--CD-[OE2] |==|  0.96443
USER: genes 12 Torsion [C]-CA--CB-[CG2] |==|  0.17452
USER: genes 13 Torsion [CA]-CB--OG1-[HG1] |==|  0.13305
USER: genes 14 Torsion [C]-CA--CB-[CG] |==|  0.10435
USER: genes 15 Torsion [CA]-CB--CG-[CD2] |==|  0.59500
USER: genes 16 Torsion [N]-CA--C-[N] |==|  0.09664
USER: genes 17 Torsion [C]-N--CA-[CB] |==|  0.87160
USER: genes 18 Torsion [N]-CA--CB-[CG] |==|  0.43709
USER: genes 19 Torsion [CA]-CB--CG-[OD1] |==|  0.13303
USER: genes 20 Torsion [N]-CA--C-[N] |==|  0.39817
USER: genes 21 Torsion [C]-N--CA-[CB] |==|  0.16219
USER: genes 22 Torsion [N]-CA--CB-[CG] |==|  0.71639
USER: genes 23 Torsion [CA]-CB--CG-[CD2] |==|  0.86257
USER: genes 24 Torsion [N]-CA--C-[N] |==|  0.53781
USER: genes 25 Torsion [C]-N--CA-[CB] |==|  0.84958
USER: genes 26 Torsion [N]-CA--CB-[CG] |==|  0.47730
USER: genes 27 Torsion [CA]-CB--CG-[OD2] |==|  0.30015
USER: genes 28 Torsion [N]-CA--C-[O] |==|  0.29646
USER: genes 29 Torsion [N]-CA--CB-[CG] |==|  0.73875
USER: genes 30 Torsion [CA]-CB--CG-[CD2] |==|  0.92047
ROOT
ATOM      1  CA  LEU E   4      20.793 -16.936  -0.825  1.00 22.51 LIG 0.18  C 
ENDROOT
BRANCH 1 2
ATOM      2  N   LEU E   4      21.114 -17.983  -1.760  1.00 20.57 LIG-0.35  N 
ATOM      3  C   LEU E   3      20.669 -19.233  -1.662  1.00 20.37 LIG 0.24  C 
ATOM      4 O    LEU E   3      19.966 -19.646  -0.728  1.00 19.26 LIG-0.27  OA
ATOM      5 H    LEU E   4      21.628 -17.722  -2.398  1.00 20.57 LIG 0.16  HD
BRANCH 3 6
ATOM      6  CA  LEU E   3      21.126 -20.214  -2.746  1.00 20.55 LIG 0.18  C 
BRANCH 6 7
ATOM      7  N   LEU E   3      20.963 -19.779  -4.113  1.00 20.86 LIG-0.35  N 
ATOM      8  C   THR E   2      21.650 -18.737  -4.572  1.00 24.34 LIG 0.24  C 
ATOM      9 O    THR E   2      22.575 -18.213  -3.936  1.00 23.87 LIG-0.27  OA
ATOM     10 H    LEU E   3      20.404 -20.239  -4.577  1.00 20.86 LIG 0.16  HD
BRANCH 8 11
ATOM     11  CA  THR E   2      21.255 -18.219  -5.931  1.00 25.18 LIG 0.20  C 
BRANCH 11 12
ATOM     12  N   THR E   2      19.948 -17.564  -5.810  1.00 26.55 LIG-0.34  N 
ATOM     13  C   GLU E   1      18.805 -18.232  -5.917  1.00 27.17 LIG 0.25  C 
ATOM     14 O    GLU E   1      18.740 -19.421  -6.250  1.00 25.74 LIG-0.27  OA
ATOM     15 H    THR E   2      19.992 -16.717  -5.666  1.00 26.55 LIG 0.16  HD
BRANCH 13 16
ATOM     16  CA  GLU E   1      17.523 -17.438  -5.664  1.00 31.71 LIG 0.28  C 
BRANCH 16 17
ATOM     17  N   GLU E   1      16.486 -17.971  -6.574  1.00 33.09 LIG-0.07  N 
ATOM     18 H3   GLU E   1      16.347 -17.393  -7.236  1.00 33.09 LIG 0.28  HD
ATOM     19 H2   GLU E   1      15.728 -18.091  -6.123  1.00 33.09 LIG 0.28  HD
ATOM     20 H1   GLU E   1      16.757 -18.748  -6.912  1.00 33.09 LIG 0.28  HD
ENDBRANCH 16 17
BRANCH 16 21
ATOM     21  CB  GLU E   1      17.085 -17.582  -4.199  1.00 32.36 LIG 0.05  C 
BRANCH 21 22
ATOM     22  CG  GLU E   1      16.729 -19.011  -3.820  1.00 32.63 LIG 0.12  C 
BRANCH 22 23
ATOM     23  CD  GLU E   1      15.387 -19.485  -4.364  1.00 33.25 LIG 0.17  C 
ATOM     24 OE2  GLU E   1      14.607 -18.629  -4.841  1.00 34.04 LIG-0.65  OA
ATOM     25 OE1  GLU E   1      15.094 -20.698  -4.320  1.00 33.29 LIG-0.65  OA
ENDBRANCH 22 23
ENDBRANCH 21 22
ENDBRANCH 16 21
ENDBRANCH 13 16
ENDBRANCH 11 12
BRANCH 11 26
ATOM     26  CB  THR E   2      22.322 -17.248  -6.466  1.00 27.29 LIG 0.15  C 
ATOM     27  CG2 THR E   2      23.618 -17.952  -6.651  1.00 26.73 LIG 0.04  C 
BRANCH 26 28
ATOM     28 OG1  THR E   2      21.880 -16.749  -7.736  1.00 28.79 LIG-0.39  OA
ATOM     29 HG1  THR E   2      21.081 -16.498  -7.675  1.00 28.79 LIG 0.21  HD
ENDBRANCH 26 28
ENDBRANCH 11 26
ENDBRANCH 8 11
ENDBRANCH 6 7
BRANCH 6 30
ATOM     30  CB  LEU E   3      22.601 -20.597  -2.513  1.00 20.98 LIG 0.04  C 
BRANCH 30 31
ATOM     31  CG  LEU E   3      23.043 -20.764  -1.071  1.00 22.16 LIG-0.02  C 
ATOM     32  CD2 LEU E   3      24.463 -20.335  -0.811  1.00 24.43 LIG 0.01  C 
ATOM     33  CD1 LEU E   3      22.823 -22.212  -0.670  1.00 21.08 LIG 0.01  C 
ENDBRANCH 30 31
ENDBRANCH 6 30
ENDBRANCH 3 6
ENDBRANCH 1 2
BRANCH 1 34
ATOM     34  C   LEU E   4      21.417 -17.314   0.518  1.00 22.59 LIG 0.24  C 
ATOM     35 O    LEU E   4      20.838 -17.042   1.561  1.00 22.01 LIG-0.27  OA
ATOM     36  N   ASP E   5      22.579 -17.953   0.470  1.00 23.28 LIG-0.35  N 
ATOM     37 H    ASP E   5      22.965 -18.186  -0.262  1.00 23.28 LIG 0.16  HD
BRANCH 36 38
ATOM     38  CA  ASP E   5      23.324 -18.325   1.697  1.00 26.12 LIG 0.19  C 
BRANCH 38 39
ATOM     39  CB  ASP E   5      23.374 -17.146   2.660  1.00 27.88 LIG 0.15  C 
BRANCH 39 40
ATOM     40  CG  ASP E   5      23.614 -17.567   4.124  1.00 30.83 LIG 0.17  C 
ATOM     41 OD1  ASP E   5      24.518 -18.370   4.421  1.00 34.24 LIG-0.65  OA
ATOM     42 OD2  ASP E   5      22.868 -17.060   4.973  1.00 35.63 LIG-0.65  OA
ENDBRANCH 39 40
ENDBRANCH 38 39
BRANCH 38 43
ATOM     43  C   ASP E   5      22.632 -19.508   2.347  1.00 25.92 LIG 0.24  C 
ATOM     44 O    ASP E   5      21.399 -19.615   2.295  1.00 27.30 LIG-0.27  OA
ATOM     45  N   LEU E   6      23.422 -20.408   2.911  1.00 28.24 LIG-0.35  N 
ATOM     46 H    LEU E   6      24.280 -20.346   2.929  1.00 28.24 LIG 0.16  HD
BRANCH 45 47
ATOM     47  CA  LEU E   6      22.890 -21.613   3.570  1.00 31.78 LIG 0.18  C 
BRANCH 47 48
ATOM     48  CB  LEU E   6      22.056 -22.452   2.585  1.00 30.53 LIG 0.04  C 
BRANCH 48 49
ATOM     49  CG  LEU E   6      20.542 -22.297   2.756  1.00 30.12 LIG-0.02  C 
ATOM     50  CD1 LEU E   6      19.766 -23.257   1.871  1.00 29.14 LIG 0.01  C 
ATOM     51  CD2 LEU E   6      20.134 -22.469   4.219  1.00 31.89 LIG 0.01  C 
ENDBRANCH 48 49
ENDBRANCH 47 48
BRANCH 47 52
ATOM     52  C   LEU E   6      23.988 -22.475   4.192  1.00 36.88 LIG 0.24  C 
ATOM     53 O    LEU E   6      25.128 -22.002   4.317  1.00 37.54 LIG-0.27  OA
ATOM     54  N   ASP E   7      23.645 -23.712   4.561  1.00 40.21 LIG-0.35  N 
ATOM     55 H    ASP E   7      22.833 -23.999   4.545  1.00 40.21 LIG 0.16  HD
BRANCH 54 56
ATOM     56  CA  ASP E   7      24.610 -24.709   5.029  1.00 48.33 LIG 0.17  C 
BRANCH 56 57
ATOM     57  CB  ASP E   7      25.719 -24.871   4.002  1.00 51.73 LIG 0.15  C 
BRANCH 57 58
ATOM     58  CG  ASP E   7      26.856 -25.740   4.508  1.00 58.06 LIG 0.17  C 
ATOM     59 OD2  ASP E   7      26.979 -26.883   4.022  1.00 65.10 LIG-0.65  OA
ATOM     60 OD1  ASP E   7      27.636 -25.285   5.380  1.00 65.94 LIG-0.65  OA
ENDBRANCH 57 58
ENDBRANCH 56 57
BRANCH 56 61
ATOM     61  C   ASP E   7      25.212 -24.322   6.372  1.00 49.55 LIG 0.22  C 
ATOM     62 O    ASP E   7      24.877 -24.920   7.394  1.00 55.15 LIG-0.29  OA
ENDBRANCH 56 61
ENDBRANCH 54 56
ENDBRANCH 47 52
ENDBRANCH 45 47
ENDBRANCH 38 43
ENDBRANCH 36 38
ENDBRANCH 1 34
BRANCH 1 63
ATOM     63  CB  LEU E   4      19.272 -16.810  -0.682  1.00 22.63 LIG 0.04  C 
BRANCH 63 64
ATOM     64  CG  LEU E   4      18.500 -15.806  -1.532  1.00 23.40 LIG-0.02  C 
ATOM     65  CD2 LEU E   4      19.408 -14.625  -1.875  1.00 23.91 LIG 0.01  C 
ATOM     66  CD1 LEU E   4      17.234 -15.336  -0.843  1.00 22.51 LIG 0.01  C 
ENDBRANCH 63 64
ENDBRANCH 1 63
TORSDOF 29
ENDMDL
MODEL 20
USER: ADFR SOLUTION from run 16
USER: SCORE 21.429121 LL:  -5.550 LR: -17.890 RR:   0.000 FEB:  -9.240
USER: RMSD 5.808479
USER: SEED 555764
USER: STATUS 1 or 2 clusters left
USER: GENES 31
USER: genes 0 Translation |==|  0.61704 0.61015 0.63229
USER: genes 1 Rotation |==|  0.33317 0.39919 0.37443 0.94299
USER: genes 2 Torsion [CB]-CA--N-[C] |==|  0.81557
USER: genes 3 Torsion [N]-C--CA-[N] |==|  0.62860
USER: genes 4 Torsion [C]-CA--N-[C] |==|  0.15348
USER: genes 5 Torsion [N]-C--CA-[N] |==|  0.99209
USER: genes 6 Torsion [C]-CA--N-[C] |==|  0.68514
USER: genes 7 Torsion [N]-C--CA-[N] |==|  0.40723
USER: genes 8 Torsion [C]-CA--N-[H3] |==|  0.32753
USER: genes 9 Torsion [C]-CA--CB-[CG] |==|  0.39684
USER: genes 10 Torsion [CA]-CB--CG-[CD] |==|  0.98655
USER: genes 11 Torsion [CB]-CG--CD-[OE2] |==|  0.73311
USER: genes 12 Torsion [C]-CA--CB-[CG2] |==|  0.47492
USER: genes 13 Torsion [CA]-CB--OG1-[HG1] |==|  0.88318
USER: genes 14 Torsion [C]-CA--CB-[CG] |==|  0.33982
USER: genes 15 Torsion [CA]-CB--CG-[CD2] |==|  0.48866
USER: genes 16 Torsion [N]-CA--C-[N] |==|  0.21976
USER: genes 17 Torsion [C]-N--CA-[CB] |==|  0.84636
USER: genes 18 Torsion [N]-CA--CB-[CG] |==|  0.83049
USER: genes 19 Torsion [CA]-CB--CG-[OD1] |==|  0.77296
USER: genes 20 Torsion [N]-CA--C-[N] |==|  0.37656
USER: genes 21 Torsion [C]-N--CA-[CB] |==|  0.84442
USER: genes 22 Torsion [N]-CA--CB-[CG] |==|  0.60779
USER: genes 23 Torsion [CA]-CB--CG-[CD2] |==|  0.06838
USER: genes 24 Torsion [N]-CA--C-[N] |==|  0.47601
USER: genes 25 Torsion [C]-N--CA-[CB] |==|  0.46645
USER: genes 26 Torsion [N]-CA--CB-[CG] |==|  0.32234
USER: genes 27 Torsion [CA]-CB--CG-[OD2] |==|  0.75054
USER: genes 28 Torsion [N]-CA--C-[O] |==|  0.06161
USER: genes 29 Torsion [N]-CA--CB-[CG] |==|  0.51385
USER: genes 30 Torsion [CA]-CB--CG-[CD2] |==|  0.09856
ROOT
ATOM      1  CA  LEU E   4      22.304 -18.041   0.165  1.00 22.51 LIG 0.18  C 
ENDROOT
BRANCH 1 2
ATOM      2  N   LEU E   4      21.752 -17.870  -1.154  1.00 20.57 LIG-0.35  N 
ATOM      3  C   LEU E   3      20.455 -17.954  -1.438  1.00 20.37 LIG 0.24  C 
ATOM      4 O    LEU E   3      19.582 -18.237  -0.604  1.00 19.26 LIG-0.27  OA
ATOM      5 H    LEU E   4      22.348 -17.705  -1.753  1.00 20.57 LIG 0.16  HD
BRANCH 3 6
ATOM      6  CA  LEU E   3      20.055 -17.755  -2.902  1.00 20.55 LIG 0.18  C 
BRANCH 6 7
ATOM      7  N   LEU E   3      18.936 -16.875  -3.146  1.00 20.86 LIG-0.35  N 
ATOM      8  C   THR E   2      18.946 -15.630  -2.677  1.00 24.34 LIG 0.24  C 
ATOM      9 O    THR E   2      19.956 -15.110  -2.183  1.00 23.87 LIG-0.27  OA
ATOM     10 H    LEU E   3      18.295 -17.221  -3.603  1.00 20.86 LIG 0.16  HD
BRANCH 8 11
ATOM     11  CA  THR E   2      17.654 -14.863  -2.784  1.00 25.18 LIG 0.20  C 
BRANCH 11 12
ATOM     12  N   THR E   2      16.674 -15.707  -3.477  1.00 26.55 LIG-0.34  N 
ATOM     13  C   GLU E   1      16.201 -15.407  -4.681  1.00 27.17 LIG 0.25  C 
ATOM     14 O    GLU E   1      16.442 -14.341  -5.260  1.00 25.74 LIG-0.27  OA
ATOM     15 H    THR E   2      16.439 -16.406  -3.034  1.00 26.55 LIG 0.16  HD
BRANCH 13 16
ATOM     16  CA  GLU E   1      15.267 -16.432  -5.324  1.00 31.71 LIG 0.28  C 
BRANCH 16 17
ATOM     17  N   GLU E   1      14.277 -15.686  -6.129  1.00 33.09 LIG-0.07  N 
ATOM     18 H3   GLU E   1      14.357 -15.913  -6.985  1.00 33.09 LIG 0.28  HD
ATOM     19 H2   GLU E   1      14.420 -14.812  -6.040  1.00 33.09 LIG 0.28  HD
ATOM     20 H1   GLU E   1      13.456 -15.882  -5.846  1.00 33.09 LIG 0.28  HD
ENDBRANCH 16 17
BRANCH 16 21
ATOM     21  CB  GLU E   1      16.066 -17.401  -6.208  1.00 32.36 LIG 0.05  C 
BRANCH 21 22
ATOM     22  CG  GLU E   1      15.543 -18.828  -6.152  1.00 32.63 LIG 0.12  C 
BRANCH 22 23
ATOM     23  CD  GLU E   1      14.415 -19.042  -5.151  1.00 33.25 LIG 0.17  C 
ATOM     24 OE2  GLU E   1      14.708 -19.477  -4.014  1.00 34.04 LIG-0.65  OA
ATOM     25 OE1  GLU E   1      13.238 -18.789  -5.482  1.00 33.29 LIG-0.65  OA
ENDBRANCH 22 23
ENDBRANCH 21 22
ENDBRANCH 16 21
ENDBRANCH 13 16
ENDBRANCH 11 12
BRANCH 11 26
ATOM     26  CB  THR E   2      17.155 -14.453  -1.387  1.00 27.29 LIG 0.15  C 
ATOM     27  CG2 THR E   2      16.007 -13.517  -1.501  1.00 26.73 LIG 0.04  C 
BRANCH 26 28
ATOM     28 OG1  THR E   2      16.723 -15.636  -0.700  1.00 28.79 LIG-0.39  OA
ATOM     29 HG1  THR E   2      16.292 -16.126  -1.229  1.00 28.79 LIG 0.21  HD
ENDBRANCH 26 28
ENDBRANCH 11 26
ENDBRANCH 8 11
ENDBRANCH 6 7
BRANCH 6 30
ATOM     30  CB  LEU E   3      21.270 -17.257  -3.711  1.00 20.98 LIG 0.04  C 
BRANCH 30 31
ATOM     31  CG  LEU E   3      21.693 -18.105  -4.897  1.00 22.16 LIG-0.02  C 
ATOM     32  CD2 LEU E   3      22.823 -17.514  -5.700  1.00 24.43 LIG 0.01  C 
ATOM     33  CD1 LEU E   3      20.472 -18.354  -5.764  1.00 21.08 LIG 0.01  C 
ENDBRANCH 30 31
ENDBRANCH 6 30
ENDBRANCH 3 6
ENDBRANCH 1 2
BRANCH 1 34
ATOM     34  C   LEU E   4      21.800 -19.380   0.702  1.00 22.59 LIG 0.24  C 
ATOM     35 O    LEU E   4      20.859 -19.412   1.483  1.00 22.01 LIG-0.27  OA
ATOM     36  N   ASP E   5      22.422 -20.465   0.260  1.00 23.28 LIG-0.35  N 
ATOM     37 H    ASP E   5      23.053 -20.449  -0.324  1.00 23.28 LIG 0.16  HD
BRANCH 36 38
ATOM     38  CA  ASP E   5      22.077 -21.824   0.745  1.00 26.12 LIG 0.19  C 
BRANCH 38 39
ATOM     39  CB  ASP E   5      22.179 -21.882   2.263  1.00 27.88 LIG 0.15  C 
BRANCH 39 40
ATOM     40  CG  ASP E   5      23.597 -21.581   2.788  1.00 30.83 LIG 0.17  C 
ATOM     41 OD1  ASP E   5      24.475 -22.463   2.808  1.00 34.24 LIG-0.65  OA
ATOM     42 OD2  ASP E   5      23.806 -20.424   3.178  1.00 35.63 LIG-0.65  OA
ENDBRANCH 39 40
ENDBRANCH 38 39
BRANCH 38 43
ATOM     43  C   ASP E   5      20.666 -22.155   0.298  1.00 25.92 LIG 0.24  C 
ATOM     44 O    ASP E   5      19.771 -21.301   0.370  1.00 27.30 LIG-0.27  OA
ATOM     45  N   LEU E   6      20.482 -23.368  -0.201  1.00 28.24 LIG-0.35  N 
ATOM     46 H    LEU E   6      21.107 -23.955  -0.272  1.00 28.24 LIG 0.16  HD
BRANCH 45 47
ATOM     47  CA  LEU E   6      19.167 -23.824  -0.685  1.00 31.78 LIG 0.18  C 
BRANCH 47 48
ATOM     48  CB  LEU E   6      18.101 -23.688   0.417  1.00 30.53 LIG 0.04  C 
BRANCH 48 49
ATOM     49  CG  LEU E   6      17.094 -24.842   0.460  1.00 30.12 LIG-0.02  C 
ATOM     50  CD1 LEU E   6      15.787 -24.485  -0.226  1.00 29.14 LIG 0.01  C 
ATOM     51  CD2 LEU E   6      17.688 -26.112  -0.148  1.00 31.89 LIG 0.01  C 
ENDBRANCH 48 49
ENDBRANCH 47 48
BRANCH 47 52
ATOM     52  C   LEU E   6      18.717 -23.083  -1.943  1.00 36.88 LIG 0.24  C 
ATOM     53 O    LEU E   6      19.365 -22.098  -2.328  1.00 37.54 LIG-0.27  OA
ATOM     54  N   ASP E   7      17.624 -23.548  -2.556  1.00 40.21 LIG-0.35  N 
ATOM     55 H    ASP E   7      17.233 -24.279  -2.327  1.00 40.21 LIG 0.16  HD
BRANCH 54 56
ATOM     56  CA  ASP E   7      16.979 -22.864  -3.678  1.00 48.33 LIG 0.17  C 
BRANCH 56 57
ATOM     57  CB  ASP E   7      15.962 -23.787  -4.327  1.00 51.73 LIG 0.15  C 
BRANCH 57 58
ATOM     58  CG  ASP E   7      14.542 -23.265  -4.206  1.00 58.06 LIG 0.17  C 
ATOM     59 OD2  ASP E   7      13.879 -23.602  -3.203  1.00 65.10 LIG-0.65  OA
ATOM     60 OD1  ASP E   7      14.085 -22.511  -5.099  1.00 65.94 LIG-0.65  OA
ENDBRANCH 57 58
ENDBRANCH 56 57
BRANCH 56 61
ATOM     61  C   ASP E   7      16.292 -21.580  -3.235  1.00 49.55 LIG 0.22  C 
ATOM     62 O    ASP E   7      16.643 -21.019  -2.197  1.00 55.15 LIG-0.29  OA
ENDBRANCH 56 61
ENDBRANCH 54 56
ENDBRANCH 47 52
ENDBRANCH 45 47
ENDBRANCH 38 43
ENDBRANCH 36 38
ENDBRANCH 1 34
BRANCH 1 63
ATOM     63  CB  LEU E   4      21.842 -16.900   1.077  1.00 22.63 LIG 0.04  C 
BRANCH 63 64
ATOM     64  CG  LEU E   4      22.379 -16.785   2.500  1.00 23.40 LIG-0.02  C 
ATOM     65  CD2 LEU E   4      23.841 -17.232   2.529  1.00 23.91 LIG 0.01  C 
ATOM     66  CD1 LEU E   4      21.548 -17.583   3.485  1.00 22.51 LIG 0.01  C 
ENDBRANCH 63 64
ENDBRANCH 1 63
TORSDOF 29
ENDMDL
MODEL 21
USER: ADFR SOLUTION from run 112
USER: SCORE 22.057073 LL:  -5.858 LR: -17.861 RR:   0.000 FEB:  -9.210
USER: RMSD 4.992822
USER: SEED 111
USER: STATUS no improvement in best in 3 clusters for 5 generations
USER: GENES 31
USER: genes 0 Translation |==|  0.61241 0.60650 0.61412
USER: genes 1 Rotation |==|  0.44646 0.38284 0.52310 0.98257
USER: genes 2 Torsion [CB]-CA--N-[C] |==|  0.16345
USER: genes 3 Torsion [N]-C--CA-[N] |==|  0.45332
USER: genes 4 Torsion [C]-CA--N-[C] |==|  0.81658
USER: genes 5 Torsion [N]-C--CA-[N] |==|  0.28333
USER: genes 6 Torsion [C]-CA--N-[C] |==|  0.69007
USER: genes 7 Torsion [N]-C--CA-[N] |==|  0.37500
USER: genes 8 Torsion [C]-CA--N-[H3] |==|  0.98914
USER: genes 9 Torsion [C]-CA--CB-[CG] |==|  0.19512
USER: genes 10 Torsion [CA]-CB--CG-[CD] |==|  0.19067
USER: genes 11 Torsion [CB]-CG--CD-[OE2] |==|  0.53440
USER: genes 12 Torsion [C]-CA--CB-[CG2] |==|  0.49879
USER: genes 13 Torsion [CA]-CB--OG1-[HG1] |==|  0.04457
USER: genes 14 Torsion [C]-CA--CB-[CG] |==|  0.26640
USER: genes 15 Torsion [CA]-CB--CG-[CD2] |==|  0.00502
USER: genes 16 Torsion [N]-CA--C-[N] |==|  0.10265
USER: genes 17 Torsion [C]-N--CA-[CB] |==|  0.80553
USER: genes 18 Torsion [N]-CA--CB-[CG] |==|  0.63760
USER: genes 19 Torsion [CA]-CB--CG-[OD1] |==|  0.08506
USER: genes 20 Torsion [N]-CA--C-[N] |==|  0.09545
USER: genes 21 Torsion [C]-N--CA-[CB] |==|  0.76927
USER: genes 22 Torsion [N]-CA--CB-[CG] |==|  0.61773
USER: genes 23 Torsion [CA]-CB--CG-[CD2] |==|  0.99897
USER: genes 24 Torsion [N]-CA--C-[N] |==|  0.14141
USER: genes 25 Torsion [C]-N--CA-[CB] |==|  0.37617
USER: genes 26 Torsion [N]-CA--CB-[CG] |==|  0.71566
USER: genes 27 Torsion [CA]-CB--CG-[OD2] |==|  0.03961
USER: genes 28 Torsion [N]-CA--C-[O] |==|  0.08811
USER: genes 29 Torsion [N]-CA--CB-[CG] |==|  0.55709
USER: genes 30 Torsion [CA]-CB--CG-[CD2] |==|  0.02811
ROOT
ATOM      1  CA  LEU E   4      22.197 -18.126  -0.203  1.00 22.51 LIG 0.18  C 
ENDROOT
BRANCH 1 2
ATOM      2  N   LEU E   4      21.453 -17.993  -1.429  1.00 20.57 LIG-0.35  N 
ATOM      3  C   LEU E   3      20.823 -16.883  -1.804  1.00 20.37 LIG 0.24  C 
ATOM      4 O    LEU E   3      20.768 -15.853  -1.116  1.00 19.26 LIG-0.27  OA
ATOM      5 H    LEU E   4      21.453 -18.710  -1.905  1.00 20.57 LIG 0.16  HD
BRANCH 3 6
ATOM      6  CA  LEU E   3      20.072 -16.933  -3.138  1.00 20.55 LIG 0.18  C 
BRANCH 6 7
ATOM      7  N   LEU E   3      19.100 -15.890  -3.364  1.00 20.86 LIG-0.35  N 
ATOM      8  C   THR E   2      18.005 -15.819  -2.612  1.00 24.34 LIG 0.24  C 
ATOM      9 O    THR E   2      17.849 -16.501  -1.591  1.00 23.87 LIG-0.27  OA
ATOM     10 H    LEU E   3      19.291 -15.347  -4.003  1.00 20.86 LIG 0.16  HD
BRANCH 8 11
ATOM     11  CA  THR E   2      16.946 -14.845  -3.060  1.00 25.18 LIG 0.20  C 
BRANCH 11 12
ATOM     12  N   THR E   2      15.877 -15.600  -3.724  1.00 26.55 LIG-0.34  N 
ATOM     13  C   GLU E   1      15.642 -15.505  -5.027  1.00 27.17 LIG 0.25  C 
ATOM     14 O    GLU E   1      16.208 -14.688  -5.763  1.00 25.74 LIG-0.27  OA
ATOM     15 H    THR E   2      15.424 -16.104  -3.194  1.00 26.55 LIG 0.16  HD
BRANCH 13 16
ATOM     16  CA  GLU E   1      14.567 -16.430  -5.597  1.00 31.71 LIG 0.28  C 
BRANCH 16 17
ATOM     17  N   GLU E   1      13.716 -15.620  -6.495  1.00 33.09 LIG-0.07  N 
ATOM     18 H3   GLU E   1      13.976 -14.769  -6.464  1.00 33.09 LIG 0.28  HD
ATOM     19 H2   GLU E   1      12.868 -15.679  -6.234  1.00 33.09 LIG 0.28  HD
ATOM     20 H1   GLU E   1      13.791 -15.922  -7.329  1.00 33.09 LIG 0.28  HD
ENDBRANCH 16 17
BRANCH 16 21
ATOM     21  CB  GLU E   1      15.214 -17.592  -6.365  1.00 32.36 LIG 0.05  C 
BRANCH 21 22
ATOM     22  CG  GLU E   1      15.922 -18.586  -5.458  1.00 32.63 LIG 0.12  C 
BRANCH 22 23
ATOM     23  CD  GLU E   1      14.987 -19.400  -4.572  1.00 33.25 LIG 0.17  C 
ATOM     24 OE2  GLU E   1      15.489 -20.064  -3.636  1.00 34.04 LIG-0.65  OA
ATOM     25 OE1  GLU E   1      13.759 -19.394  -4.798  1.00 33.29 LIG-0.65  OA
ENDBRANCH 22 23
ENDBRANCH 21 22
ENDBRANCH 16 21
ENDBRANCH 13 16
ENDBRANCH 11 12
BRANCH 11 26
ATOM     26  CB  THR E   2      16.408 -14.047  -1.859  1.00 27.29 LIG 0.15  C 
ATOM     27  CG2 THR E   2      15.371 -13.079  -2.302  1.00 26.73 LIG 0.04  C 
BRANCH 26 28
ATOM     28 OG1  THR E   2      15.815 -14.971  -0.936  1.00 28.79 LIG-0.39  OA
ATOM     29 HG1  THR E   2      16.069 -15.751  -1.118  1.00 28.79 LIG 0.21  HD
ENDBRANCH 26 28
ENDBRANCH 11 26
ENDBRANCH 8 11
ENDBRANCH 6 7
BRANCH 6 30
ATOM     30  CB  LEU E   3      21.082 -16.939  -4.303  1.00 20.98 LIG 0.04  C 
BRANCH 30 31
ATOM     31  CG  LEU E   3      21.453 -18.295  -4.877  1.00 22.16 LIG-0.02  C 
ATOM     32  CD2 LEU E   3      20.731 -19.450  -4.233  1.00 24.43 LIG 0.01  C 
ATOM     33  CD1 LEU E   3      22.958 -18.459  -4.773  1.00 21.08 LIG 0.01  C 
ENDBRANCH 30 31
ENDBRANCH 6 30
ENDBRANCH 3 6
ENDBRANCH 1 2
BRANCH 1 34
ATOM     34  C   LEU E   4      22.728 -19.557  -0.143  1.00 22.59 LIG 0.24  C 
ATOM     35 O    LEU E   4      22.762 -20.154   0.925  1.00 22.01 LIG-0.27  OA
ATOM     36  N   ASP E   5      23.117 -20.092  -1.293  1.00 23.28 LIG-0.35  N 
ATOM     37 H    ASP E   5      23.052 -19.692  -2.051  1.00 23.28 LIG 0.16  HD
BRANCH 36 38
ATOM     38  CA  ASP E   5      23.710 -21.449  -1.370  1.00 26.12 LIG 0.19  C 
BRANCH 38 39
ATOM     39  CB  ASP E   5      25.098 -21.454  -0.743  1.00 27.88 LIG 0.15  C 
BRANCH 39 40
ATOM     40  CG  ASP E   5      26.167 -22.108  -1.640  1.00 30.83 LIG 0.17  C 
ATOM     41 OD1  ASP E   5      26.080 -22.062  -2.881  1.00 34.24 LIG-0.65  OA
ATOM     42 OD2  ASP E   5      27.107 -22.668  -1.059  1.00 35.63 LIG-0.65  OA
ENDBRANCH 39 40
ENDBRANCH 38 39
BRANCH 38 43
ATOM     43  C   ASP E   5      22.799 -22.420  -0.643  1.00 25.92 LIG 0.24  C 
ATOM     44 O    ASP E   5      23.279 -23.356   0.011  1.00 27.30 LIG-0.27  OA
ATOM     45  N   LEU E   6      21.501 -22.171  -0.720  1.00 28.24 LIG-0.35  N 
ATOM     46 H    LEU E   6      21.167 -21.508  -1.156  1.00 28.24 LIG 0.16  HD
BRANCH 45 47
ATOM     47  CA  LEU E   6      20.500 -23.022  -0.054  1.00 31.78 LIG 0.18  C 
BRANCH 47 48
ATOM     48  CB  LEU E   6      20.168 -24.254  -0.915  1.00 30.53 LIG 0.04  C 
BRANCH 48 49
ATOM     49  CG  LEU E   6      18.676 -24.597  -0.968  1.00 30.12 LIG-0.02  C 
ATOM     50  CD1 LEU E   6      18.404 -26.027  -0.535  1.00 29.14 LIG 0.01  C 
ATOM     51  CD2 LEU E   6      17.857 -23.619  -0.128  1.00 31.89 LIG 0.01  C 
ENDBRANCH 48 49
ENDBRANCH 47 48
BRANCH 47 52
ATOM     52  C   LEU E   6      20.940 -23.462   1.342  1.00 36.88 LIG 0.24  C 
ATOM     53 O    LEU E   6      20.883 -24.664   1.642  1.00 37.54 LIG-0.27  OA
ATOM     54  N   ASP E   7      21.358 -22.501   2.171  1.00 40.21 LIG-0.35  N 
ATOM     55 H    ASP E   7      21.471 -21.684   1.924  1.00 40.21 LIG 0.16  HD
BRANCH 54 56
ATOM     56  CA  ASP E   7      21.667 -22.735   3.583  1.00 48.33 LIG 0.17  C 
BRANCH 56 57
ATOM     57  CB  ASP E   7      22.968 -22.039   3.947  1.00 51.73 LIG 0.15  C 
BRANCH 57 58
ATOM     58  CG  ASP E   7      24.139 -23.001   4.028  1.00 58.06 LIG 0.17  C 
ATOM     59 OD2  ASP E   7      23.993 -24.142   3.542  1.00 65.10 LIG-0.65  OA
ATOM     60 OD1  ASP E   7      25.208 -22.623   4.565  1.00 65.94 LIG-0.65  OA
ENDBRANCH 57 58
ENDBRANCH 56 57
BRANCH 56 61
ATOM     61  C   ASP E   7      20.552 -22.240   4.492  1.00 49.55 LIG 0.22  C 
ATOM     62 O    ASP E   7      19.383 -22.267   4.107  1.00 55.15 LIG-0.29  OA
ENDBRANCH 56 61
ENDBRANCH 54 56
ENDBRANCH 47 52
ENDBRANCH 45 47
ENDBRANCH 38 43
ENDBRANCH 36 38
ENDBRANCH 1 34
BRANCH 1 63
ATOM     63  CB  LEU E   4      21.282 -17.852   0.996  1.00 22.63 LIG 0.04  C 
BRANCH 63 64
ATOM     64  CG  LEU E   4      21.877 -17.467   2.346  1.00 23.40 LIG-0.02  C 
ATOM     65  CD2 LEU E   4      23.369 -17.178   2.181  1.00 23.91 LIG 0.01  C 
ATOM     66  CD1 LEU E   4      21.644 -18.538   3.394  1.00 22.51 LIG 0.01  C 
ENDBRANCH 63 64
ENDBRANCH 1 63
TORSDOF 29
ENDMDL
MODEL 22
USER: ADFR SOLUTION from run 193
USER: SCORE 19.838181 LL:  -6.045 LR: -17.798 RR:   0.000 FEB:  -9.148
USER: RMSD 6.307171
USER: SEED 192
USER: STATUS no improvement in best in 6 clusters for 5 generations
USER: GENES 31
USER: genes 0 Translation |==|  0.61499 0.59650 0.63694
USER: genes 1 Rotation |==|  0.38953 0.36690 0.42437 0.96299
USER: genes 2 Torsion [CB]-CA--N-[C] |==|  0.88575
USER: genes 3 Torsion [N]-C--CA-[N] |==|  0.60788
USER: genes 4 Torsion [C]-CA--N-[C] |==|  0.15161
USER: genes 5 Torsion [N]-C--CA-[N] |==|  0.00000
USER: genes 6 Torsion [C]-CA--N-[C] |==|  0.65198
USER: genes 7 Torsion [N]-C--CA-[N] |==|  0.43357
USER: genes 8 Torsion [C]-CA--N-[H3] |==|  0.40455
USER: genes 9 Torsion [C]-CA--CB-[CG] |==|  0.34939
USER: genes 10 Torsion [CA]-CB--CG-[CD] |==|  0.04781
USER: genes 11 Torsion [CB]-CG--CD-[OE2] |==|  0.14888
USER: genes 12 Torsion [C]-CA--CB-[CG2] |==|  0.50538
USER: genes 13 Torsion [CA]-CB--OG1-[HG1] |==|  0.76649
USER: genes 14 Torsion [C]-CA--CB-[CG] |==|  0.31971
USER: genes 15 Torsion [CA]-CB--CG-[CD2] |==|  0.78943
USER: genes 16 Torsion [N]-CA--C-[N] |==|  0.83070
USER: genes 17 Torsion [C]-N--CA-[CB] |==|  0.29822
USER: genes 18 Torsion [N]-CA--CB-[CG] |==|  0.73587
USER: genes 19 Torsion [CA]-CB--CG-[OD1] |==|  0.86660
USER: genes 20 Torsion [N]-CA--C-[N] |==|  0.00701
USER: genes 21 Torsion [C]-N--CA-[CB] |==|  0.82858
USER: genes 22 Torsion [N]-CA--CB-[CG] |==|  0.61638
USER: genes 23 Torsion [CA]-CB--CG-[CD2] |==|  0.34367
USER: genes 24 Torsion [N]-CA--C-[N] |==|  0.74124
USER: genes 25 Torsion [C]-N--CA-[CB] |==|  0.31855
USER: genes 26 Torsion [N]-CA--CB-[CG] |==|  0.73676
USER: genes 27 Torsion [CA]-CB--CG-[OD2] |==|  0.24313
USER: genes 28 Torsion [N]-CA--C-[O] |==|  0.51210
USER: genes 29 Torsion [N]-CA--CB-[CG] |==|  0.47856
USER: genes 30 Torsion [CA]-CB--CG-[CD2] |==|  0.09654
ROOT
ATOM      1  CA  LEU E   4      22.257 -18.358   0.259  1.00 22.51 LIG 0.18  C 
ENDROOT
BRANCH 1 2
ATOM      2  N   LEU E   4      21.766 -18.131  -1.076  1.00 20.57 LIG-0.35  N 
ATOM      3  C   LEU E   3      20.476 -18.063  -1.395  1.00 20.37 LIG 0.24  C 
ATOM      4 O    LEU E   3      19.553 -18.233  -0.585  1.00 19.26 LIG-0.27  OA
ATOM      5 H    LEU E   4      22.393 -18.043  -1.658  1.00 20.57 LIG 0.16  HD
BRANCH 3 6
ATOM      6  CA  LEU E   3      20.143 -17.826  -2.871  1.00 20.55 LIG 0.18  C 
BRANCH 6 7
ATOM      7  N   LEU E   3      19.032 -16.946  -3.144  1.00 20.86 LIG-0.35  N 
ATOM      8  C   THR E   2      19.006 -15.719  -2.631  1.00 24.34 LIG 0.24  C 
ATOM      9 O    THR E   2      19.984 -15.209  -2.066  1.00 23.87 LIG-0.27  OA
ATOM     10 H    LEU E   3      18.419 -17.279  -3.646  1.00 20.86 LIG 0.16  HD
BRANCH 8 11
ATOM     11  CA  THR E   2      17.716 -14.956  -2.781  1.00 25.18 LIG 0.20  C 
BRANCH 11 12
ATOM     12  N   THR E   2      16.758 -15.808  -3.496  1.00 26.55 LIG-0.34  N 
ATOM     13  C   GLU E   1      16.142 -15.413  -4.604  1.00 27.17 LIG 0.25  C 
ATOM     14 O    GLU E   1      16.221 -14.264  -5.054  1.00 25.74 LIG-0.27  OA
ATOM     15 H    THR E   2      16.636 -16.578  -3.132  1.00 26.55 LIG 0.16  HD
BRANCH 13 16
ATOM     16  CA  GLU E   1      15.254 -16.446  -5.297  1.00 31.71 LIG 0.28  C 
BRANCH 16 17
ATOM     17  N   GLU E   1      14.256 -15.704  -6.098  1.00 33.09 LIG-0.07  N 
ATOM     18 H3   GLU E   1      14.074 -16.158  -6.841  1.00 33.09 LIG 0.28  HD
ATOM     19 H2   GLU E   1      14.582 -14.905  -6.312  1.00 33.09 LIG 0.28  HD
ATOM     20 H1   GLU E   1      13.510 -15.603  -5.623  1.00 33.09 LIG 0.28  HD
ENDBRANCH 16 17
BRANCH 16 21
ATOM     21  CB  GLU E   1      16.098 -17.362  -6.195  1.00 32.36 LIG 0.05  C 
BRANCH 21 22
ATOM     22  CG  GLU E   1      15.903 -18.839  -5.893  1.00 32.63 LIG 0.12  C 
BRANCH 22 23
ATOM     23  CD  GLU E   1      14.649 -19.151  -5.086  1.00 33.25 LIG 0.17  C 
ATOM     24 OE2  GLU E   1      13.551 -18.727  -5.513  1.00 34.04 LIG-0.65  OA
ATOM     25 OE1  GLU E   1      14.741 -19.807  -4.028  1.00 33.29 LIG-0.65  OA
ENDBRANCH 22 23
ENDBRANCH 21 22
ENDBRANCH 16 21
ENDBRANCH 13 16
ENDBRANCH 11 12
BRANCH 11 26
ATOM     26  CB  THR E   2      17.176 -14.538  -1.402  1.00 27.29 LIG 0.15  C 
ATOM     27  CG2 THR E   2      15.879 -13.826  -1.547  1.00 26.73 LIG 0.04  C 
BRANCH 26 28
ATOM     28 OG1  THR E   2      16.969 -15.724  -0.623  1.00 28.79 LIG-0.39  OA
ATOM     29 HG1  THR E   2      16.219 -16.053  -0.806  1.00 28.79 LIG 0.21  HD
ENDBRANCH 26 28
ENDBRANCH 11 26
ENDBRANCH 8 11
ENDBRANCH 6 7
BRANCH 6 30
ATOM     30  CB  LEU E   3      21.392 -17.301  -3.609  1.00 20.98 LIG 0.04  C 
BRANCH 30 31
ATOM     31  CG  LEU E   3      21.975 -18.199  -4.685  1.00 22.16 LIG-0.02  C 
ATOM     32  CD2 LEU E   3      22.753 -19.373  -4.148  1.00 24.43 LIG 0.01  C 
ATOM     33  CD1 LEU E   3      22.830 -17.347  -5.605  1.00 21.08 LIG 0.01  C 
ENDBRANCH 30 31
ENDBRANCH 6 30
ENDBRANCH 3 6
ENDBRANCH 1 2
BRANCH 1 34
ATOM     34  C   LEU E   4      22.126 -19.854   0.547  1.00 22.59 LIG 0.24  C 
ATOM     35 O    LEU E   4      23.121 -20.516   0.811  1.00 22.01 LIG-0.27  OA
ATOM     36  N   ASP E   5      20.900 -20.358   0.509  1.00 23.28 LIG-0.35  N 
ATOM     37 H    ASP E   5      20.194 -19.886   0.369  1.00 23.28 LIG 0.16  HD
BRANCH 36 38
ATOM     38  CA  ASP E   5      20.635 -21.803   0.708  1.00 26.12 LIG 0.19  C 
BRANCH 38 39
ATOM     39  CB  ASP E   5      19.997 -22.038   2.071  1.00 27.88 LIG 0.15  C 
BRANCH 39 40
ATOM     40  CG  ASP E   5      21.019 -22.411   3.164  1.00 30.83 LIG 0.17  C 
ATOM     41 OD1  ASP E   5      21.880 -23.288   2.965  1.00 34.24 LIG-0.65  OA
ATOM     42 OD2  ASP E   5      20.935 -21.789   4.232  1.00 35.63 LIG-0.65  OA
ENDBRANCH 39 40
ENDBRANCH 38 39
BRANCH 38 43
ATOM     43  C   ASP E   5      19.714 -22.286  -0.396  1.00 25.92 LIG 0.24  C 
ATOM     44 O    ASP E   5      19.284 -23.448  -0.387  1.00 27.30 LIG-0.27  OA
ATOM     45  N   LEU E   6      19.381 -21.389  -1.311  1.00 28.24 LIG-0.35  N 
ATOM     46 H    LEU E   6      19.661 -20.576  -1.307  1.00 28.24 LIG 0.16  HD
BRANCH 45 47
ATOM     47  CA  LEU E   6      18.484 -21.713  -2.435  1.00 31.78 LIG 0.18  C 
BRANCH 47 48
ATOM     48  CB  LEU E   6      19.093 -22.814  -3.321  1.00 30.53 LIG 0.04  C 
BRANCH 48 49
ATOM     49  CG  LEU E   6      18.925 -22.572  -4.824  1.00 30.12 LIG-0.02  C 
ATOM     50  CD1 LEU E   6      18.174 -21.285  -5.115  1.00 29.14 LIG 0.01  C 
ATOM     51  CD2 LEU E   6      20.278 -22.576  -5.535  1.00 31.89 LIG 0.01  C 
ENDBRANCH 48 49
ENDBRANCH 47 48
BRANCH 47 52
ATOM     52  C   LEU E   6      17.089 -22.127  -1.970  1.00 36.88 LIG 0.24  C 
ATOM     53 O    LEU E   6      16.236 -21.249  -1.764  1.00 37.54 LIG-0.27  OA
ATOM     54  N   ASP E   7      16.874 -23.435  -1.803  1.00 40.21 LIG-0.35  N 
ATOM     55 H    ASP E   7      17.446 -24.037  -2.028  1.00 40.21 LIG 0.16  HD
BRANCH 54 56
ATOM     56  CA  ASP E   7      15.646 -23.980  -1.220  1.00 48.33 LIG 0.17  C 
BRANCH 56 57
ATOM     57  CB  ASP E   7      14.896 -24.788  -2.265  1.00 51.73 LIG 0.15  C 
BRANCH 57 58
ATOM     58  CG  ASP E   7      13.831 -23.973  -2.976  1.00 58.06 LIG 0.17  C 
ATOM     59 OD2  ASP E   7      14.170 -23.321  -3.986  1.00 65.10 LIG-0.65  OA
ATOM     60 OD1  ASP E   7      12.654 -23.986  -2.541  1.00 65.94 LIG-0.65  OA
ENDBRANCH 57 58
ENDBRANCH 56 57
BRANCH 56 61
ATOM     61  C   ASP E   7      15.939 -24.857  -0.011  1.00 49.55 LIG 0.22  C 
ATOM     62 O    ASP E   7      15.024 -25.459   0.550  1.00 55.15 LIG-0.29  OA
ENDBRANCH 56 61
ENDBRANCH 54 56
ENDBRANCH 47 52
ENDBRANCH 45 47
ENDBRANCH 38 43
ENDBRANCH 36 38
ENDBRANCH 1 34
BRANCH 1 63
ATOM     63  CB  LEU E   4      21.426 -17.554   1.265  1.00 22.63 LIG 0.04  C 
BRANCH 63 64
ATOM     64  CG  LEU E   4      21.628 -17.754   2.764  1.00 23.40 LIG-0.02  C 
ATOM     65  CD2 LEU E   4      23.102 -18.042   3.045  1.00 23.91 LIG 0.01  C 
ATOM     66  CD1 LEU E   4      20.744 -18.858   3.312  1.00 22.51 LIG 0.01  C 
ENDBRANCH 63 64
ENDBRANCH 1 63
TORSDOF 29
ENDMDL
MODEL 23
USER: ADFR SOLUTION from run 7
USER: SCORE 21.263948 LL:  -5.780 LR: -17.804 RR:   0.000 FEB:  -9.153
USER: RMSD 5.373154
USER: SEED 594327
USER: STATUS no improvement in best in 9 clusters for 5 generations
USER: GENES 31
USER: genes 0 Translation |==|  0.61823 0.55712 0.71732
USER: genes 1 Rotation |==|  0.34996 0.38807 0.44267 0.96008
USER: genes 2 Torsion [CB]-CA--N-[C] |==|  0.18082
USER: genes 3 Torsion [N]-C--CA-[N] |==|  0.43243
USER: genes 4 Torsion [C]-CA--N-[C] |==|  0.83290
USER: genes 5 Torsion [N]-C--CA-[N] |==|  0.13058
USER: genes 6 Torsion [C]-CA--N-[C] |==|  0.14750
USER: genes 7 Torsion [N]-C--CA-[N] |==|  0.37767
USER: genes 8 Torsion [C]-CA--N-[H3] |==|  0.87910
USER: genes 9 Torsion [C]-CA--CB-[CG] |==|  0.61349
USER: genes 10 Torsion [CA]-CB--CG-[CD] |==|  0.23880
USER: genes 11 Torsion [CB]-CG--CD-[OE2] |==|  0.33483
USER: genes 12 Torsion [C]-CA--CB-[CG2] |==|  0.55664
USER: genes 13 Torsion [CA]-CB--OG1-[HG1] |==|  0.80982
USER: genes 14 Torsion [C]-CA--CB-[CG] |==|  0.61747
USER: genes 15 Torsion [CA]-CB--CG-[CD2] |==|  0.79154
USER: genes 16 Torsion [N]-CA--C-[N] |==|  0.19296
USER: genes 17 Torsion [C]-N--CA-[CB] |==|  0.85862
USER: genes 18 Torsion [N]-CA--CB-[CG] |==|  0.73527
USER: genes 19 Torsion [CA]-CB--CG-[OD1] |==|  0.87825
USER: genes 20 Torsion [N]-CA--C-[N] |==|  0.31667
USER: genes 21 Torsion [C]-N--CA-[CB] |==|  0.26839
USER: genes 22 Torsion [N]-CA--CB-[CG] |==|  0.75070
USER: genes 23 Torsion [CA]-CB--CG-[CD2] |==|  0.24742
USER: genes 24 Torsion [N]-CA--C-[N] |==|  0.39531
USER: genes 25 Torsion [C]-N--CA-[CB] |==|  0.37910
USER: genes 26 Torsion [N]-CA--CB-[CG] |==|  0.74485
USER: genes 27 Torsion [CA]-CB--CG-[OD2] |==|  0.95114
USER: genes 28 Torsion [N]-CA--C-[O] |==|  0.09472
USER: genes 29 Torsion [N]-CA--CB-[CG] |==|  0.65143
USER: genes 30 Torsion [CA]-CB--CG-[CD2] |==|  0.27193
ROOT
ATOM      1  CA  LEU E   4      22.332 -19.274   1.887  1.00 22.51 LIG 0.18  C 
ENDROOT
BRANCH 1 2
ATOM      2  N   LEU E   4      21.688 -19.255   0.598  1.00 20.57 LIG-0.35  N 
ATOM      3  C   LEU E   3      21.648 -18.192  -0.201  1.00 20.37 LIG 0.24  C 
ATOM      4 O    LEU E   3      22.120 -17.085   0.097  1.00 19.26 LIG-0.27  OA
ATOM      5 H    LEU E   4      21.326 -20.007   0.389  1.00 20.57 LIG 0.16  HD
BRANCH 3 6
ATOM      6  CA  LEU E   3      20.907 -18.357  -1.530  1.00 20.55 LIG 0.18  C 
BRANCH 6 7
ATOM      7  N   LEU E   3      20.392 -17.149  -2.130  1.00 20.86 LIG-0.35  N 
ATOM      8  C   THR E   2      19.503 -16.403  -1.480  1.00 24.34 LIG 0.24  C 
ATOM      9 O    THR E   2      19.215 -16.590  -0.290  1.00 23.87 LIG-0.27  OA
ATOM     10 H    LEU E   3      20.703 -16.970  -2.911  1.00 20.86 LIG 0.16  HD
BRANCH 8 11
ATOM     11  CA  THR E   2      18.857 -15.291  -2.266  1.00 25.18 LIG 0.20  C 
BRANCH 11 12
ATOM     12  N   THR E   2      18.424 -15.834  -3.559  1.00 26.55 LIG-0.34  N 
ATOM     13  C   GLU E   1      17.656 -16.913  -3.656  1.00 27.17 LIG 0.25  C 
ATOM     14 O    GLU E   1      17.349 -17.620  -2.688  1.00 25.74 LIG-0.27  OA
ATOM     15 H    THR E   2      18.711 -15.392  -4.238  1.00 26.55 LIG 0.16  HD
BRANCH 13 16
ATOM     16  CA  GLU E   1      17.196 -17.301  -5.061  1.00 31.71 LIG 0.28  C 
BRANCH 16 17
ATOM     17  N   GLU E   1      17.358 -18.765  -5.192  1.00 33.09 LIG-0.07  N 
ATOM     18 H3   GLU E   1      18.141 -19.009  -4.847  1.00 33.09 LIG 0.28  HD
ATOM     19 H2   GLU E   1      17.332 -18.991  -6.052  1.00 33.09 LIG 0.28  HD
ATOM     20 H1   GLU E   1      16.701 -19.177  -4.756  1.00 33.09 LIG 0.28  HD
ENDBRANCH 16 17
BRANCH 16 21
ATOM     21  CB  GLU E   1      15.730 -16.896  -5.275  1.00 32.36 LIG 0.05  C 
BRANCH 21 22
ATOM     22  CG  GLU E   1      14.925 -17.943  -6.027  1.00 32.63 LIG 0.12  C 
BRANCH 22 23
ATOM     23  CD  GLU E   1      14.332 -19.031  -5.139  1.00 33.25 LIG 0.17  C 
ATOM     24 OE2  GLU E   1      13.088 -19.174  -5.131  1.00 34.04 LIG-0.65  OA
ATOM     25 OE1  GLU E   1      15.086 -19.742  -4.444  1.00 33.29 LIG-0.65  OA
ENDBRANCH 22 23
ENDBRANCH 21 22
ENDBRANCH 16 21
ENDBRANCH 13 16
ENDBRANCH 11 12
BRANCH 11 26
ATOM     26  CB  THR E   2      17.675 -14.696  -1.482  1.00 27.29 LIG 0.15  C 
ATOM     27  CG2 THR E   2      16.753 -13.976  -2.400  1.00 26.73 LIG 0.04  C 
BRANCH 26 28
ATOM     28 OG1  THR E   2      16.961 -15.773  -0.859  1.00 28.79 LIG-0.39  OA
ATOM     29 HG1  THR E   2      16.582 -16.236  -1.448  1.00 28.79 LIG 0.21  HD
ENDBRANCH 26 28
ENDBRANCH 11 26
ENDBRANCH 8 11
ENDBRANCH 6 7
BRANCH 6 30
ATOM     30  CB  LEU E   3      21.817 -19.074  -2.548  1.00 20.98 LIG 0.04  C 
BRANCH 30 31
ATOM     31  CG  LEU E   3      21.813 -18.531  -3.966  1.00 22.16 LIG-0.02  C 
ATOM     32  CD2 LEU E   3      20.580 -18.887  -4.755  1.00 24.43 LIG 0.01  C 
ATOM     33  CD1 LEU E   3      23.071 -19.015  -4.664  1.00 21.08 LIG 0.01  C 
ENDBRANCH 30 31
ENDBRANCH 6 30
ENDBRANCH 3 6
ENDBRANCH 1 2
BRANCH 1 34
ATOM     34  C   LEU E   4      22.257 -20.706   2.415  1.00 22.59 LIG 0.24  C 
ATOM     35 O    LEU E   4      21.527 -20.972   3.361  1.00 22.01 LIG-0.27  OA
ATOM     36  N   ASP E   5      22.998 -21.608   1.785  1.00 23.28 LIG-0.35  N 
ATOM     37 H    ASP E   5      23.476 -21.432   1.092  1.00 23.28 LIG 0.16  HD
BRANCH 36 38
ATOM     38  CA  ASP E   5      23.067 -23.021   2.230  1.00 26.12 LIG 0.19  C 
BRANCH 38 39
ATOM     39  CB  ASP E   5      23.383 -23.088   3.719  1.00 27.88 LIG 0.15  C 
BRANCH 39 40
ATOM     40  CG  ASP E   5      24.886 -23.271   4.013  1.00 30.83 LIG 0.17  C 
ATOM     41 OD1  ASP E   5      25.572 -24.083   3.365  1.00 34.24 LIG-0.65  OA
ATOM     42 OD2  ASP E   5      25.360 -22.567   4.915  1.00 35.63 LIG-0.65  OA
ENDBRANCH 39 40
ENDBRANCH 38 39
BRANCH 38 43
ATOM     43  C   ASP E   5      21.735 -23.687   1.943  1.00 25.92 LIG 0.24  C 
ATOM     44 O    ASP E   5      20.707 -23.298   2.514  1.00 27.30 LIG-0.27  OA
ATOM     45  N   LEU E   6      21.748 -24.649   1.034  1.00 28.24 LIG-0.35  N 
ATOM     46 H    LEU E   6      22.458 -24.906   0.621  1.00 28.24 LIG 0.16  HD
BRANCH 45 47
ATOM     47  CA  LEU E   6      20.527 -25.376   0.646  1.00 31.78 LIG 0.18  C 
BRANCH 47 48
ATOM     48  CB  LEU E   6      19.913 -24.774  -0.630  1.00 30.53 LIG 0.04  C 
BRANCH 48 49
ATOM     49  CG  LEU E   6      18.901 -23.653  -0.370  1.00 30.12 LIG-0.02  C 
ATOM     50  CD1 LEU E   6      18.090 -23.897   0.891  1.00 29.14 LIG 0.01  C 
ATOM     51  CD2 LEU E   6      19.593 -22.292  -0.306  1.00 31.89 LIG 0.01  C 
ENDBRANCH 48 49
ENDBRANCH 47 48
BRANCH 47 52
ATOM     52  C   LEU E   6      20.772 -26.872   0.453  1.00 36.88 LIG 0.24  C 
ATOM     53 O    LEU E   6      21.831 -27.248  -0.070  1.00 37.54 LIG-0.27  OA
ATOM     54  N   ASP E   7      19.803 -27.697   0.861  1.00 40.21 LIG-0.35  N 
ATOM     55 H    ASP E   7      19.111 -27.430   1.297  1.00 40.21 LIG 0.16  HD
BRANCH 54 56
ATOM     56  CA  ASP E   7      19.816 -29.139   0.610  1.00 48.33 LIG 0.17  C 
BRANCH 56 57
ATOM     57  CB  ASP E   7      19.394 -29.884   1.865  1.00 51.73 LIG 0.15  C 
BRANCH 57 58
ATOM     58  CG  ASP E   7      20.575 -30.268   2.738  1.00 58.06 LIG 0.17  C 
ATOM     59 OD2  ASP E   7      21.712 -30.258   2.221  1.00 65.10 LIG-0.65  OA
ATOM     60 OD1  ASP E   7      20.379 -30.570   3.940  1.00 65.94 LIG-0.65  OA
ENDBRANCH 57 58
ENDBRANCH 56 57
BRANCH 56 61
ATOM     61  C   ASP E   7      18.895 -29.519  -0.541  1.00 49.55 LIG 0.22  C 
ATOM     62 O    ASP E   7      18.752 -28.754  -1.495  1.00 55.15 LIG-0.29  OA
ENDBRANCH 56 61
ENDBRANCH 54 56
ENDBRANCH 47 52
ENDBRANCH 45 47
ENDBRANCH 38 43
ENDBRANCH 36 38
ENDBRANCH 1 34
BRANCH 1 63
ATOM     63  CB  LEU E   4      21.611 -18.320   2.845  1.00 22.63 LIG 0.04  C 
BRANCH 63 64
ATOM     64  CG  LEU E   4      22.387 -17.225   3.570  1.00 23.40 LIG-0.02  C 
ATOM     65  CD2 LEU E   4      22.226 -15.904   2.818  1.00 23.91 LIG 0.01  C 
ATOM     66  CD1 LEU E   4      23.851 -17.583   3.734  1.00 22.51 LIG 0.01  C 
ENDBRANCH 63 64
ENDBRANCH 1 63
TORSDOF 29
ENDMDL
MODEL 24
USER: ADFR SOLUTION from run 111
USER: SCORE 20.271137 LL:  -5.488 LR: -17.779 RR:   0.000 FEB:  -9.129
USER: RMSD 4.233068
USER: SEED 110
USER: STATUS no improvement in best in 14 clusters for 5 generations
USER: GENES 31
USER: genes 0 Translation |==|  0.55860 0.65418 0.58385
USER: genes 1 Rotation |==|  0.43598 0.49462 0.46779 0.99481
USER: genes 2 Torsion [CB]-CA--N-[C] |==|  0.22439
USER: genes 3 Torsion [N]-C--CA-[N] |==|  0.87676
USER: genes 4 Torsion [C]-CA--N-[C] |==|  0.19029
USER: genes 5 Torsion [N]-C--CA-[N] |==|  0.82810
USER: genes 6 Torsion [C]-CA--N-[C] |==|  0.77772
USER: genes 7 Torsion [N]-C--CA-[N] |==|  0.27243
USER: genes 8 Torsion [C]-CA--N-[H3] |==|  0.16626
USER: genes 9 Torsion [C]-CA--CB-[CG] |==|  0.71433
USER: genes 10 Torsion [CA]-CB--CG-[CD] |==|  0.18630
USER: genes 11 Torsion [CB]-CG--CD-[OE2] |==|  0.81090
USER: genes 12 Torsion [C]-CA--CB-[CG2] |==|  0.14588
USER: genes 13 Torsion [CA]-CB--OG1-[HG1] |==|  0.78736
USER: genes 14 Torsion [C]-CA--CB-[CG] |==|  0.47833
USER: genes 15 Torsion [CA]-CB--CG-[CD2] |==|  0.92331
USER: genes 16 Torsion [N]-CA--C-[N] |==|  0.46665
USER: genes 17 Torsion [C]-N--CA-[CB] |==|  0.51689
USER: genes 18 Torsion [N]-CA--CB-[CG] |==|  0.63800
USER: genes 19 Torsion [CA]-CB--CG-[OD1] |==|  0.27487
USER: genes 20 Torsion [N]-CA--C-[N] |==|  0.49100
USER: genes 21 Torsion [C]-N--CA-[CB] |==|  0.86111
USER: genes 22 Torsion [N]-CA--CB-[CG] |==|  0.84054
USER: genes 23 Torsion [CA]-CB--CG-[CD2] |==|  0.30289
USER: genes 24 Torsion [N]-CA--C-[N] |==|  0.43751
USER: genes 25 Torsion [C]-N--CA-[CB] |==|  0.14660
USER: genes 26 Torsion [N]-CA--CB-[CG] |==|  0.63594
USER: genes 27 Torsion [CA]-CB--CG-[OD2] |==|  0.76210
USER: genes 28 Torsion [N]-CA--C-[O] |==|  0.21651
USER: genes 29 Torsion [N]-CA--CB-[CG] |==|  0.47282
USER: genes 30 Torsion [CA]-CB--CG-[CD2] |==|  0.69011
ROOT
ATOM      1  CA  LEU E   4      20.945 -17.017  -0.816  1.00 22.51 LIG 0.18  C 
ENDROOT
BRANCH 1 2
ATOM      2  N   LEU E   4      19.833 -16.627  -1.643  1.00 20.57 LIG-0.35  N 
ATOM      3  C   LEU E   3      19.665 -15.404  -2.140  1.00 20.37 LIG 0.24  C 
ATOM      4 O    LEU E   3      20.424 -14.453  -1.906  1.00 19.26 LIG-0.27  OA
ATOM      5 H    LEU E   4      19.277 -17.268  -1.789  1.00 20.57 LIG 0.16  HD
BRANCH 3 6
ATOM      6  CA  LEU E   3      18.413 -15.171  -2.990  1.00 20.55 LIG 0.18  C 
BRANCH 6 7
ATOM      7  N   LEU E   3      18.099 -16.194  -3.960  1.00 20.86 LIG-0.35  N 
ATOM      8  C   THR E   2      17.701 -17.399  -3.561  1.00 24.34 LIG 0.24  C 
ATOM      9 O    THR E   2      17.406 -17.650  -2.384  1.00 23.87 LIG-0.27  OA
ATOM     10 H    LEU E   3      18.190 -15.956  -4.781  1.00 20.86 LIG 0.16  HD
BRANCH 8 11
ATOM     11  CA  THR E   2      17.612 -18.462  -4.624  1.00 25.18 LIG 0.20  C 
BRANCH 11 12
ATOM     12  N   THR E   2      16.616 -18.038  -5.616  1.00 26.55 LIG-0.34  N 
ATOM     13  C   GLU E   1      15.311 -18.180  -5.419  1.00 27.17 LIG 0.25  C 
ATOM     14 O    GLU E   1      14.830 -18.789  -4.455  1.00 25.74 LIG-0.27  OA
ATOM     15 H    THR E   2      16.955 -17.694  -6.327  1.00 26.55 LIG 0.16  HD
BRANCH 13 16
ATOM     16  CA  GLU E   1      14.390 -17.597  -6.490  1.00 31.71 LIG 0.28  C 
BRANCH 16 17
ATOM     17  N   GLU E   1      13.994 -18.707  -7.385  1.00 33.09 LIG-0.07  N 
ATOM     18 H3   GLU E   1      13.570 -19.331  -6.914  1.00 33.09 LIG 0.28  HD
ATOM     19 H2   GLU E   1      14.720 -19.060  -7.759  1.00 33.09 LIG 0.28  HD
ATOM     20 H1   GLU E   1      13.454 -18.397  -8.021  1.00 33.09 LIG 0.28  HD
ENDBRANCH 16 17
BRANCH 16 21
ATOM     21  CB  GLU E   1      13.155 -16.955  -5.843  1.00 32.36 LIG 0.05  C 
BRANCH 21 22
ATOM     22  CG  GLU E   1      11.907 -17.816  -5.951  1.00 32.63 LIG 0.12  C 
BRANCH 22 23
ATOM     23  CD  GLU E   1      11.969 -19.110  -5.148  1.00 33.25 LIG 0.17  C 
ATOM     24 OE2  GLU E   1      12.775 -19.995  -5.515  1.00 34.04 LIG-0.65  OA
ATOM     25 OE1  GLU E   1      11.222 -19.261  -4.159  1.00 33.29 LIG-0.65  OA
ENDBRANCH 22 23
ENDBRANCH 21 22
ENDBRANCH 16 21
ENDBRANCH 13 16
ENDBRANCH 11 12
BRANCH 11 26
ATOM     26  CB  THR E   2      18.989 -18.689  -5.273  1.00 27.29 LIG 0.15  C 
ATOM     27  CG2 THR E   2      20.016 -18.948  -4.231  1.00 26.73 LIG 0.04  C 
BRANCH 26 28
ATOM     28 OG1  THR E   2      18.898 -19.836  -6.130  1.00 28.79 LIG-0.39  OA
ATOM     29 HG1  THR E   2      18.904 -20.534  -5.665  1.00 28.79 LIG 0.21  HD
ENDBRANCH 26 28
ENDBRANCH 11 26
ENDBRANCH 8 11
ENDBRANCH 6 7
BRANCH 6 30
ATOM     30  CB  LEU E   3      17.192 -14.959  -2.072  1.00 20.98 LIG 0.04  C 
BRANCH 30 31
ATOM     31  CG  LEU E   3      15.899 -14.533  -2.745  1.00 22.16 LIG-0.02  C 
ATOM     32  CD2 LEU E   3      16.099 -13.766  -4.025  1.00 24.43 LIG 0.01  C 
ATOM     33  CD1 LEU E   3      15.083 -13.734  -1.745  1.00 21.08 LIG 0.01  C 
ENDBRANCH 30 31
ENDBRANCH 6 30
ENDBRANCH 3 6
ENDBRANCH 1 2
BRANCH 1 34
ATOM     34  C   LEU E   4      21.057 -18.540  -0.888  1.00 22.59 LIG 0.24  C 
ATOM     35 O    LEU E   4      20.159 -19.197  -1.398  1.00 22.01 LIG-0.27  OA
ATOM     36  N   ASP E   5      22.166 -19.075  -0.393  1.00 23.28 LIG-0.35  N 
ATOM     37 H    ASP E   5      22.818 -18.612  -0.077  1.00 23.28 LIG 0.16  HD
BRANCH 36 38
ATOM     38  CA  ASP E   5      22.379 -20.541  -0.343  1.00 26.12 LIG 0.19  C 
BRANCH 38 39
ATOM     39  CB  ASP E   5      23.665 -20.861   0.407  1.00 27.88 LIG 0.15  C 
BRANCH 39 40
ATOM     40  CG  ASP E   5      24.586 -21.835  -0.353  1.00 30.83 LIG 0.17  C 
ATOM     41 OD1  ASP E   5      25.555 -21.418  -1.014  1.00 34.24 LIG-0.65  OA
ATOM     42 OD2  ASP E   5      24.310 -23.039  -0.262  1.00 35.63 LIG-0.65  OA
ENDBRANCH 39 40
ENDBRANCH 38 39
BRANCH 38 43
ATOM     43  C   ASP E   5      21.191 -21.182   0.350  1.00 25.92 LIG 0.24  C 
ATOM     44 O    ASP E   5      20.266 -20.479   0.779  1.00 27.30 LIG-0.27  OA
ATOM     45  N   LEU E   6      21.198 -22.504   0.416  1.00 28.24 LIG-0.35  N 
ATOM     46 H    LEU E   6      21.829 -22.995   0.099  1.00 28.24 LIG 0.16  HD
BRANCH 45 47
ATOM     47  CA  LEU E   6      20.104 -23.261   1.050  1.00 31.78 LIG 0.18  C 
BRANCH 47 48
ATOM     48  CB  LEU E   6      19.788 -22.700   2.447  1.00 30.53 LIG 0.04  C 
BRANCH 48 49
ATOM     49  CG  LEU E   6      20.983 -22.690   3.404  1.00 30.12 LIG-0.02  C 
ATOM     50  CD1 LEU E   6      22.122 -23.562   2.905  1.00 29.14 LIG 0.01  C 
ATOM     51  CD2 LEU E   6      21.472 -21.265   3.658  1.00 31.89 LIG 0.01  C 
ENDBRANCH 48 49
ENDBRANCH 47 48
BRANCH 47 52
ATOM     52  C   LEU E   6      18.837 -23.287   0.196  1.00 36.88 LIG 0.24  C 
ATOM     53 O    LEU E   6      18.660 -22.395  -0.648  1.00 37.54 LIG-0.27  OA
ATOM     54  N   ASP E   7      17.978 -24.284   0.425  1.00 40.21 LIG-0.35  N 
ATOM     55 H    ASP E   7      18.151 -24.940   0.954  1.00 40.21 LIG 0.16  HD
BRANCH 54 56
ATOM     56  CA  ASP E   7      16.655 -24.364  -0.197  1.00 48.33 LIG 0.17  C 
BRANCH 56 57
ATOM     57  CB  ASP E   7      16.788 -24.234  -1.706  1.00 51.73 LIG 0.15  C 
BRANCH 57 58
ATOM     58  CG  ASP E   7      15.824 -23.217  -2.289  1.00 58.06 LIG 0.17  C 
ATOM     59 OD2  ASP E   7      14.670 -23.601  -2.571  1.00 65.10 LIG-0.65  OA
ATOM     60 OD1  ASP E   7      16.207 -22.034  -2.458  1.00 65.94 LIG-0.65  OA
ENDBRANCH 57 58
ENDBRANCH 56 57
BRANCH 56 61
ATOM     61  C   ASP E   7      15.952 -25.671   0.141  1.00 49.55 LIG 0.22  C 
ATOM     62 O    ASP E   7      15.420 -25.818   1.241  1.00 55.15 LIG-0.29  OA
ENDBRANCH 56 61
ENDBRANCH 54 56
ENDBRANCH 47 52
ENDBRANCH 45 47
ENDBRANCH 38 43
ENDBRANCH 36 38
ENDBRANCH 1 34
BRANCH 1 63
ATOM     63  CB  LEU E   4      20.702 -16.575   0.631  1.00 22.63 LIG 0.04  C 
BRANCH 63 64
ATOM     64  CG  LEU E   4      21.620 -17.058   1.749  1.00 23.40 LIG-0.02  C 
ATOM     65  CD2 LEU E   4      20.849 -18.007   2.665  1.00 23.91 LIG 0.01  C 
ATOM     66  CD1 LEU E   4      22.211 -15.904   2.534  1.00 22.51 LIG 0.01  C 
ENDBRANCH 63 64
ENDBRANCH 1 63
TORSDOF 29
ENDMDL
MODEL 25
USER: ADFR SOLUTION from run 173
USER: SCORE 22.094920 LL:  -7.741 LR: -17.779 RR:   0.000 FEB:  -9.128
USER: RMSD 4.376103
USER: SEED 172
USER: STATUS no improvement in best in 4 clusters for 5 generations
USER: GENES 31
USER: genes 0 Translation |==|  0.54464 0.66726 0.56535
USER: genes 1 Rotation |==|  0.42056 0.55469 0.47472 0.98996
USER: genes 2 Torsion [CB]-CA--N-[C] |==|  0.23418
USER: genes 3 Torsion [N]-C--CA-[N] |==|  0.85366
USER: genes 4 Torsion [C]-CA--N-[C] |==|  0.66241
USER: genes 5 Torsion [N]-C--CA-[N] |==|  0.91366
USER: genes 6 Torsion [C]-CA--N-[C] |==|  0.82861
USER: genes 7 Torsion [N]-C--CA-[N] |==|  0.47113
USER: genes 8 Torsion [C]-CA--N-[H3] |==|  0.76507
USER: genes 9 Torsion [C]-CA--CB-[CG] |==|  0.28012
USER: genes 10 Torsion [CA]-CB--CG-[CD] |==|  0.94238
USER: genes 11 Torsion [CB]-CG--CD-[OE2] |==|  0.25133
USER: genes 12 Torsion [C]-CA--CB-[CG2] |==|  0.26165
USER: genes 13 Torsion [CA]-CB--OG1-[HG1] |==|  0.25365
USER: genes 14 Torsion [C]-CA--CB-[CG] |==|  0.31600
USER: genes 15 Torsion [CA]-CB--CG-[CD2] |==|  0.33436
USER: genes 16 Torsion [N]-CA--C-[N] |==|  0.39377
USER: genes 17 Torsion [C]-N--CA-[CB] |==|  0.38769
USER: genes 18 Torsion [N]-CA--CB-[CG] |==|  0.81461
USER: genes 19 Torsion [CA]-CB--CG-[OD1] |==|  0.72370
USER: genes 20 Torsion [N]-CA--C-[N] |==|  0.19770
USER: genes 21 Torsion [C]-N--CA-[CB] |==|  0.52789
USER: genes 22 Torsion [N]-CA--CB-[CG] |==|  0.22323
USER: genes 23 Torsion [CA]-CB--CG-[CD2] |==|  0.84807
USER: genes 24 Torsion [N]-CA--C-[N] |==|  0.47133
USER: genes 25 Torsion [C]-N--CA-[CB] |==|  0.56683
USER: genes 26 Torsion [N]-CA--CB-[CG] |==|  0.61927
USER: genes 27 Torsion [CA]-CB--CG-[OD2] |==|  0.89026
USER: genes 28 Torsion [N]-CA--C-[O] |==|  0.28784
USER: genes 29 Torsion [N]-CA--CB-[CG] |==|  0.38989
USER: genes 30 Torsion [CA]-CB--CG-[CD2] |==|  0.74018
ROOT
ATOM      1  CA  LEU E   4      20.621 -16.713  -1.191  1.00 22.51 LIG 0.18  C 
ENDROOT
BRANCH 1 2
ATOM      2  N   LEU E   4      19.340 -16.350  -1.741  1.00 20.57 LIG-0.35  N 
ATOM      3  C   LEU E   3      19.075 -15.173  -2.301  1.00 20.37 LIG 0.24  C 
ATOM      4 O    LEU E   3      19.890 -14.240  -2.369  1.00 19.26 LIG-0.27  OA
ATOM      5 H    LEU E   4      18.752 -16.974  -1.672  1.00 20.57 LIG 0.16  HD
BRANCH 3 6
ATOM      6  CA  LEU E   3      17.650 -14.962  -2.821  1.00 20.55 LIG 0.18  C 
BRANCH 6 7
ATOM      7  N   LEU E   3      17.141 -15.970  -3.720  1.00 20.86 LIG-0.35  N 
ATOM      8  C   THR E   2      16.739 -15.638  -4.943  1.00 24.34 LIG 0.24  C 
ATOM      9 O    THR E   2      16.942 -14.519  -5.433  1.00 23.87 LIG-0.27  OA
ATOM     10 H    LEU E   3      17.126 -16.768  -3.400  1.00 20.86 LIG 0.16  HD
BRANCH 8 11
ATOM     11  CA  THR E   2      16.020 -16.706  -5.726  1.00 25.18 LIG 0.20  C 
BRANCH 11 12
ATOM     12  N   THR E   2      16.549 -18.011  -5.316  1.00 26.55 LIG-0.34  N 
ATOM     13  C   GLU E   1      17.823 -18.348  -5.484  1.00 27.17 LIG 0.25  C 
ATOM     14 O    GLU E   1      18.634 -17.653  -6.107  1.00 25.74 LIG-0.27  OA
ATOM     15 H    THR E   2      15.963 -18.531  -4.961  1.00 26.55 LIG 0.16  HD
BRANCH 13 16
ATOM     16  CA  GLU E   1      18.254 -19.698  -4.912  1.00 31.71 LIG 0.28  C 
BRANCH 16 17
ATOM     17  N   GLU E   1      19.613 -19.981  -5.423  1.00 33.09 LIG-0.07  N 
ATOM     18 H3   GLU E   1      19.556 -20.355  -6.228  1.00 33.09 LIG 0.28  HD
ATOM     19 H2   GLU E   1      20.029 -20.538  -4.868  1.00 33.09 LIG 0.28  HD
ATOM     20 H1   GLU E   1      20.073 -19.221  -5.482  1.00 33.09 LIG 0.28  HD
ENDBRANCH 16 17
BRANCH 16 21
ATOM     21  CB  GLU E   1      18.250 -19.655  -3.377  1.00 32.36 LIG 0.05  C 
BRANCH 21 22
ATOM     22  CG  GLU E   1      17.018 -20.305  -2.765  1.00 32.63 LIG 0.12  C 
BRANCH 22 23
ATOM     23  CD  GLU E   1      15.833 -20.415  -3.716  1.00 33.25 LIG 0.17  C 
ATOM     24 OE2  GLU E   1      15.726 -21.453  -4.410  1.00 34.04 LIG-0.65  OA
ATOM     25 OE1  GLU E   1      15.008 -19.481  -3.789  1.00 33.29 LIG-0.65  OA
ENDBRANCH 22 23
ENDBRANCH 21 22
ENDBRANCH 16 21
ENDBRANCH 13 16
ENDBRANCH 11 12
BRANCH 11 26
ATOM     26  CB  THR E   2      14.502 -16.615  -5.489  1.00 27.29 LIG 0.15  C 
ATOM     27  CG2 THR E   2      13.860 -15.795  -6.549  1.00 26.73 LIG 0.04  C 
BRANCH 26 28
ATOM     28 OG1  THR E   2      13.960 -17.942  -5.537  1.00 28.79 LIG-0.39  OA
ATOM     29 HG1  THR E   2      13.955 -18.271  -4.764  1.00 28.79 LIG 0.21  HD
ENDBRANCH 26 28
ENDBRANCH 11 26
ENDBRANCH 8 11
ENDBRANCH 6 7
BRANCH 6 30
ATOM     30  CB  LEU E   3      16.679 -14.813  -1.633  1.00 20.98 LIG 0.04  C 
BRANCH 30 31
ATOM     31  CG  LEU E   3      16.016 -13.458  -1.460  1.00 22.16 LIG-0.02  C 
ATOM     32  CD2 LEU E   3      14.511 -13.500  -1.520  1.00 24.43 LIG 0.01  C 
ATOM     33  CD1 LEU E   3      16.583 -12.514  -2.504  1.00 21.08 LIG 0.01  C 
ENDBRANCH 30 31
ENDBRANCH 6 30
ENDBRANCH 3 6
ENDBRANCH 1 2
BRANCH 1 34
ATOM     34  C   LEU E   4      20.713 -18.238  -1.213  1.00 22.59 LIG 0.24  C 
ATOM     35 O    LEU E   4      19.721 -18.916  -0.976  1.00 22.01 LIG-0.27  OA
ATOM     36  N   ASP E   5      21.897 -18.754  -1.517  1.00 23.28 LIG-0.35  N 
ATOM     37 H    ASP E   5      22.583 -18.281  -1.729  1.00 23.28 LIG 0.16  HD
BRANCH 36 38
ATOM     38  CA  ASP E   5      22.143 -20.217  -1.516  1.00 26.12 LIG 0.19  C 
BRANCH 38 39
ATOM     39  CB  ASP E   5      23.016 -20.604  -2.702  1.00 27.88 LIG 0.15  C 
BRANCH 39 40
ATOM     40  CG  ASP E   5      22.318 -20.402  -4.062  1.00 30.83 LIG 0.17  C 
ATOM     41 OD1  ASP E   5      21.797 -21.359  -4.664  1.00 34.24 LIG-0.65  OA
ATOM     42 OD2  ASP E   5      22.301 -19.246  -4.507  1.00 35.63 LIG-0.65  OA
ENDBRANCH 39 40
ENDBRANCH 38 39
BRANCH 38 43
ATOM     43  C   ASP E   5      22.824 -20.594  -0.214  1.00 25.92 LIG 0.24  C 
ATOM     44 O    ASP E   5      24.027 -20.889  -0.202  1.00 27.30 LIG-0.27  OA
ATOM     45  N   LEU E   6      22.072 -20.541   0.874  1.00 28.24 LIG-0.35  N 
ATOM     46 H    LEU E   6      21.242 -20.316   0.870  1.00 28.24 LIG 0.16  HD
BRANCH 45 47
ATOM     47  CA  LEU E   6      22.603 -20.870   2.209  1.00 31.78 LIG 0.18  C 
BRANCH 47 48
ATOM     48  CB  LEU E   6      21.466 -20.967   3.242  1.00 30.53 LIG 0.04  C 
BRANCH 48 49
ATOM     49  CG  LEU E   6      20.711 -22.299   3.219  1.00 30.12 LIG-0.02  C 
ATOM     50  CD1 LEU E   6      19.583 -22.333   4.236  1.00 29.14 LIG 0.01  C 
ATOM     51  CD2 LEU E   6      20.178 -22.605   1.819  1.00 31.89 LIG 0.01  C 
ENDBRANCH 48 49
ENDBRANCH 47 48
BRANCH 47 52
ATOM     52  C   LEU E   6      23.424 -22.158   2.211  1.00 36.88 LIG 0.24  C 
ATOM     53 O    LEU E   6      23.404 -22.889   1.210  1.00 37.54 LIG-0.27  OA
ATOM     54  N   ASP E   7      24.120 -22.425   3.321  1.00 40.21 LIG-0.35  N 
ATOM     55 H    ASP E   7      24.192 -21.871   3.975  1.00 40.21 LIG 0.16  HD
BRANCH 54 56
ATOM     56  CA  ASP E   7      24.831 -23.686   3.539  1.00 48.33 LIG 0.17  C 
BRANCH 56 57
ATOM     57  CB  ASP E   7      25.000 -23.929   5.030  1.00 51.73 LIG 0.15  C 
BRANCH 57 58
ATOM     58  CG  ASP E   7      26.386 -24.436   5.383  1.00 58.06 LIG 0.17  C 
ATOM     59 OD2  ASP E   7      26.920 -25.262   4.615  1.00 65.10 LIG-0.65  OA
ATOM     60 OD1  ASP E   7      26.952 -24.007   6.418  1.00 65.94 LIG-0.65  OA
ENDBRANCH 57 58
ENDBRANCH 56 57
BRANCH 56 61
ATOM     61  C   ASP E   7      24.097 -24.862   2.911  1.00 49.55 LIG 0.22  C 
ATOM     62 O    ASP E   7      24.504 -25.352   1.857  1.00 55.15 LIG-0.29  OA
ENDBRANCH 56 61
ENDBRANCH 54 56
ENDBRANCH 47 52
ENDBRANCH 45 47
ENDBRANCH 38 43
ENDBRANCH 36 38
ENDBRANCH 1 34
BRANCH 1 63
ATOM     63  CB  LEU E   4      20.736 -16.200   0.249  1.00 22.63 LIG 0.04  C 
BRANCH 63 64
ATOM     64  CG  LEU E   4      21.400 -17.058   1.321  1.00 23.40 LIG-0.02  C 
ATOM     65  CD2 LEU E   4      20.333 -17.873   2.052  1.00 23.91 LIG 0.01  C 
ATOM     66  CD1 LEU E   4      22.208 -16.223   2.295  1.00 22.51 LIG 0.01  C 
ENDBRANCH 63 64
ENDBRANCH 1 63
TORSDOF 29
ENDMDL
MODEL 26
USER: ADFR SOLUTION from run 23
USER: SCORE 21.569753 LL:  -6.385 LR: -17.778 RR:   0.000 FEB:  -9.127
USER: RMSD 4.776822
USER: SEED 22
USER: STATUS searching
USER: GENES 31
USER: genes 0 Translation |==|  0.66220 0.59853 0.65988
USER: genes 1 Rotation |==|  0.47972 0.45659 0.43299 0.99317
USER: genes 2 Torsion [CB]-CA--N-[C] |==|  0.81281
USER: genes 3 Torsion [N]-C--CA-[N] |==|  0.31300
USER: genes 4 Torsion [C]-CA--N-[C] |==|  0.79444
USER: genes 5 Torsion [N]-C--CA-[N] |==|  0.03637
USER: genes 6 Torsion [C]-CA--N-[C] |==|  0.70302
USER: genes 7 Torsion [N]-C--CA-[N] |==|  0.86143
USER: genes 8 Torsion [C]-CA--N-[H3] |==|  0.47439
USER: genes 9 Torsion [C]-CA--CB-[CG] |==|  0.49063
USER: genes 10 Torsion [CA]-CB--CG-[CD] |==|  0.86606
USER: genes 11 Torsion [CB]-CG--CD-[OE2] |==|  0.94574
USER: genes 12 Torsion [C]-CA--CB-[CG2] |==|  0.60719
USER: genes 13 Torsion [CA]-CB--OG1-[HG1] |==|  0.76345
USER: genes 14 Torsion [C]-CA--CB-[CG] |==|  0.49222
USER: genes 15 Torsion [CA]-CB--CG-[CD2] |==|  0.83510
USER: genes 16 Torsion [N]-CA--C-[N] |==|  0.12810
USER: genes 17 Torsion [C]-N--CA-[CB] |==|  0.81578
USER: genes 18 Torsion [N]-CA--CB-[CG] |==|  0.72774
USER: genes 19 Torsion [CA]-CB--CG-[OD1] |==|  0.40080
USER: genes 20 Torsion [N]-CA--C-[N] |==|  0.10093
USER: genes 21 Torsion [C]-N--CA-[CB] |==|  0.81940
USER: genes 22 Torsion [N]-CA--CB-[CG] |==|  0.66622
USER: genes 23 Torsion [CA]-CB--CG-[CD2] |==|  0.11373
USER: genes 24 Torsion [N]-CA--C-[N] |==|  0.02773
USER: genes 25 Torsion [C]-N--CA-[CB] |==|  0.49678
USER: genes 26 Torsion [N]-CA--CB-[CG] |==|  0.75037
USER: genes 27 Torsion [CA]-CB--CG-[OD2] |==|  0.49535
USER: genes 28 Torsion [N]-CA--C-[O] |==|  0.24493
USER: genes 29 Torsion [N]-CA--CB-[CG] |==|  0.99931
USER: genes 30 Torsion [CA]-CB--CG-[CD2] |==|  0.66845
ROOT
ATOM      1  CA  LEU E   4      23.354 -18.311   0.724  1.00 22.51 LIG 0.18  C 
ENDROOT
BRANCH 1 2
ATOM      2  N   LEU E   4      22.462 -17.658  -0.199  1.00 20.57 LIG-0.35  N 
ATOM      3  C   LEU E   3      21.196 -18.016  -0.394  1.00 20.37 LIG 0.24  C 
ATOM      4 O    LEU E   3      20.658 -18.984   0.164  1.00 19.26 LIG-0.27  OA
ATOM      5 H    LEU E   4      22.829 -17.003  -0.620  1.00 20.57 LIG 0.16  HD
BRANCH 3 6
ATOM      6  CA  LEU E   3      20.402 -17.210  -1.426  1.00 20.55 LIG 0.18  C 
BRANCH 6 7
ATOM      7  N   LEU E   3      20.015 -17.912  -2.626  1.00 20.86 LIG-0.35  N 
ATOM      8  C   THR E   2      20.919 -18.193  -3.561  1.00 24.34 LIG 0.24  C 
ATOM      9 O    THR E   2      22.135 -18.041  -3.383  1.00 23.87 LIG-0.27  OA
ATOM     10 H    LEU E   3      19.182 -18.121  -2.673  1.00 20.86 LIG 0.16  HD
BRANCH 8 11
ATOM     11  CA  THR E   2      20.389 -18.723  -4.869  1.00 25.18 LIG 0.20  C 
BRANCH 11 12
ATOM     12  N   THR E   2      18.938 -18.509  -4.898  1.00 26.55 LIG-0.34  N 
ATOM     13  C   GLU E   1      18.068 -19.502  -4.756  1.00 27.17 LIG 0.25  C 
ATOM     14 O    GLU E   1      18.397 -20.694  -4.717  1.00 25.74 LIG-0.27  OA
ATOM     15 H    THR E   2      18.708 -17.688  -5.014  1.00 26.55 LIG 0.16  HD
BRANCH 13 16
ATOM     16  CA  GLU E   1      16.591 -19.115  -4.701  1.00 31.71 LIG 0.28  C 
BRANCH 16 17
ATOM     17  N   GLU E   1      16.454 -18.032  -3.704  1.00 33.09 LIG-0.07  N 
ATOM     18 H3   GLU E   1      15.632 -17.693  -3.744  1.00 33.09 LIG 0.28  HD
ATOM     19 H2   GLU E   1      17.046 -17.391  -3.879  1.00 33.09 LIG 0.28  HD
ATOM     20 H1   GLU E   1      16.601 -18.358  -2.889  1.00 33.09 LIG 0.28  HD
ENDBRANCH 16 17
BRANCH 16 21
ATOM     21  CB  GLU E   1      16.108 -18.647  -6.082  1.00 32.36 LIG 0.05  C 
BRANCH 21 22
ATOM     22  CG  GLU E   1      14.623 -18.324  -6.117  1.00 32.63 LIG 0.12  C 
BRANCH 22 23
ATOM     23  CD  GLU E   1      13.736 -19.395  -5.496  1.00 33.25 LIG 0.17  C 
ATOM     24 OE2  GLU E   1      14.205 -20.549  -5.366  1.00 34.04 LIG-0.65  OA
ATOM     25 OE1  GLU E   1      12.574 -19.108  -5.141  1.00 33.29 LIG-0.65  OA
ENDBRANCH 22 23
ENDBRANCH 21 22
ENDBRANCH 16 21
ENDBRANCH 13 16
ENDBRANCH 11 12
BRANCH 11 26
ATOM     26  CB  THR E   2      21.084 -18.026  -6.052  1.00 27.29 LIG 0.15  C 
ATOM     27  CG2 THR E   2      20.112 -17.770  -7.146  1.00 26.73 LIG 0.04  C 
BRANCH 26 28
ATOM     28 OG1  THR E   2      21.604 -16.771  -5.591  1.00 28.79 LIG-0.39  OA
ATOM     29 HG1  THR E   2      21.003 -16.187  -5.631  1.00 28.79 LIG 0.21  HD
ENDBRANCH 26 28
ENDBRANCH 11 26
ENDBRANCH 8 11
ENDBRANCH 6 7
BRANCH 6 30
ATOM     30  CB  LEU E   3      19.142 -16.615  -0.765  1.00 20.98 LIG 0.04  C 
BRANCH 30 31
ATOM     31  CG  LEU E   3      18.270 -15.728  -1.635  1.00 22.16 LIG-0.02  C 
ATOM     32  CD2 LEU E   3      18.983 -14.520  -2.185  1.00 24.43 LIG 0.01  C 
ATOM     33  CD1 LEU E   3      17.047 -15.327  -0.831  1.00 21.08 LIG 0.01  C 
ENDBRANCH 30 31
ENDBRANCH 6 30
ENDBRANCH 3 6
ENDBRANCH 1 2
BRANCH 1 34
ATOM     34  C   LEU E   4      23.323 -19.806   0.409  1.00 22.59 LIG 0.24  C 
ATOM     35 O    LEU E   4      23.199 -20.620   1.315  1.00 22.01 LIG-0.27  OA
ATOM     36  N   ASP E   5      23.417 -20.143  -0.871  1.00 23.28 LIG-0.35  N 
ATOM     37 H    ASP E   5      23.458 -19.572  -1.512  1.00 23.28 LIG 0.16  HD
BRANCH 36 38
ATOM     38  CA  ASP E   5      23.462 -21.558  -1.312  1.00 26.12 LIG 0.19  C 
BRANCH 38 39
ATOM     39  CB  ASP E   5      24.746 -22.219  -0.829  1.00 27.88 LIG 0.15  C 
BRANCH 39 40
ATOM     40  CG  ASP E   5      25.849 -22.263  -1.906  1.00 30.83 LIG 0.17  C 
ATOM     41 OD1  ASP E   5      27.048 -22.127  -1.601  1.00 34.24 LIG-0.65  OA
ATOM     42 OD2  ASP E   5      25.473 -22.444  -3.072  1.00 35.63 LIG-0.65  OA
ENDBRANCH 39 40
ENDBRANCH 38 39
BRANCH 38 43
ATOM     43  C   ASP E   5      22.253 -22.281  -0.750  1.00 25.92 LIG 0.24  C 
ATOM     44 O    ASP E   5      22.356 -23.446  -0.342  1.00 27.30 LIG-0.27  OA
ATOM     45  N   LEU E   6      21.130 -21.580  -0.690  1.00 28.24 LIG-0.35  N 
ATOM     46 H    LEU E   6      21.063 -20.764  -0.953  1.00 28.24 LIG 0.16  HD
BRANCH 45 47
ATOM     47  CA  LEU E   6      19.881 -22.150  -0.156  1.00 31.78 LIG 0.18  C 
BRANCH 47 48
ATOM     48  CB  LEU E   6      19.379 -23.299  -1.047  1.00 30.53 LIG 0.04  C 
BRANCH 48 49
ATOM     49  CG  LEU E   6      17.985 -23.071  -1.640  1.00 30.12 LIG-0.02  C 
ATOM     50  CD1 LEU E   6      16.881 -23.451  -0.668  1.00 29.14 LIG 0.01  C 
ATOM     51  CD2 LEU E   6      17.816 -21.624  -2.102  1.00 31.89 LIG 0.01  C 
ENDBRANCH 48 49
ENDBRANCH 47 48
BRANCH 47 52
ATOM     52  C   LEU E   6      20.024 -22.630   1.287  1.00 36.88 LIG 0.24  C 
ATOM     53 O    LEU E   6      19.106 -23.289   1.798  1.00 37.54 LIG-0.27  OA
ATOM     54  N   ASP E   7      21.150 -22.293   1.923  1.00 40.21 LIG-0.35  N 
ATOM     55 H    ASP E   7      21.813 -21.908   1.533  1.00 40.21 LIG 0.16  HD
BRANCH 54 56
ATOM     56  CA  ASP E   7      21.374 -22.544   3.348  1.00 48.33 LIG 0.17  C 
BRANCH 56 57
ATOM     57  CB  ASP E   7      22.761 -22.066   3.743  1.00 51.73 LIG 0.15  C 
BRANCH 57 58
ATOM     58  CG  ASP E   7      23.815 -23.148   3.587  1.00 58.06 LIG 0.17  C 
ATOM     59 OD2  ASP E   7      24.998 -22.854   3.853  1.00 65.10 LIG-0.65  OA
ATOM     60 OD1  ASP E   7      23.468 -24.293   3.210  1.00 65.94 LIG-0.65  OA
ENDBRANCH 57 58
ENDBRANCH 56 57
BRANCH 56 61
ATOM     61  C   ASP E   7      20.331 -21.848   4.212  1.00 49.55 LIG 0.22  C 
ATOM     62 O    ASP E   7      19.273 -22.417   4.480  1.00 55.15 LIG-0.29  OA
ENDBRANCH 56 61
ENDBRANCH 54 56
ENDBRANCH 47 52
ENDBRANCH 45 47
ENDBRANCH 38 43
ENDBRANCH 36 38
ENDBRANCH 1 34
BRANCH 1 63
ATOM     63  CB  LEU E   4      22.889 -18.066   2.163  1.00 22.63 LIG 0.04  C 
BRANCH 63 64
ATOM     64  CG  LEU E   4      21.646 -17.225   2.438  1.00 23.40 LIG-0.02  C 
ATOM     65  CD2 LEU E   4      22.031 -16.008   3.278  1.00 23.91 LIG 0.01  C 
ATOM     66  CD1 LEU E   4      20.557 -18.032   3.118  1.00 22.51 LIG 0.01  C 
ENDBRANCH 63 64
ENDBRANCH 1 63
TORSDOF 29
ENDMDL
MODEL 27
USER: ADFR SOLUTION from run 194
USER: SCORE 21.474231 LL:  -6.341 LR: -17.772 RR:   0.000 FEB:  -9.121
USER: RMSD 11.091593
USER: SEED 193
USER: STATUS no improvement in best in 2 clusters for 5 generations
USER: GENES 31
USER: genes 0 Translation |==|  0.59066 0.62198 0.66699
USER: genes 1 Rotation |==|  0.69666 0.72857 0.86565 0.65931
USER: genes 2 Torsion [CB]-CA--N-[C] |==|  0.53753
USER: genes 3 Torsion [N]-C--CA-[N] |==|  0.21092
USER: genes 4 Torsion [C]-CA--N-[C] |==|  0.78025
USER: genes 5 Torsion [N]-C--CA-[N] |==|  0.44644
USER: genes 6 Torsion [C]-CA--N-[C] |==|  0.83327
USER: genes 7 Torsion [N]-C--CA-[N] |==|  0.81749
USER: genes 8 Torsion [C]-CA--N-[H3] |==|  0.31725
USER: genes 9 Torsion [C]-CA--CB-[CG] |==|  0.43238
USER: genes 10 Torsion [CA]-CB--CG-[CD] |==|  0.09917
USER: genes 11 Torsion [CB]-CG--CD-[OE2] |==|  0.63722
USER: genes 12 Torsion [C]-CA--CB-[CG2] |==|  0.89353
USER: genes 13 Torsion [CA]-CB--OG1-[HG1] |==|  0.41647
USER: genes 14 Torsion [C]-CA--CB-[CG] |==|  0.21765
USER: genes 15 Torsion [CA]-CB--CG-[CD2] |==|  0.05654
USER: genes 16 Torsion [N]-CA--C-[N] |==|  0.87778
USER: genes 17 Torsion [C]-N--CA-[CB] |==|  0.58280
USER: genes 18 Torsion [N]-CA--CB-[CG] |==|  0.78116
USER: genes 19 Torsion [CA]-CB--CG-[OD1] |==|  0.26275
USER: genes 20 Torsion [N]-CA--C-[N] |==|  0.81049
USER: genes 21 Torsion [C]-N--CA-[CB] |==|  0.86280
USER: genes 22 Torsion [N]-CA--CB-[CG] |==|  0.34509
USER: genes 23 Torsion [CA]-CB--CG-[CD2] |==|  0.66847
USER: genes 24 Torsion [N]-CA--C-[N] |==|  0.41190
USER: genes 25 Torsion [C]-N--CA-[CB] |==|  0.33777
USER: genes 26 Torsion [N]-CA--CB-[CG] |==|  0.10106
USER: genes 27 Torsion [CA]-CB--CG-[OD2] |==|  0.31949
USER: genes 28 Torsion [N]-CA--C-[O] |==|  0.31925
USER: genes 29 Torsion [N]-CA--CB-[CG] |==|  0.75978
USER: genes 30 Torsion [CA]-CB--CG-[CD2] |==|  0.16784
ROOT
ATOM      1  CA  LEU E   4      21.691 -17.766   0.868  1.00 22.51 LIG 0.18  C 
ENDROOT
BRANCH 1 2
ATOM      2  N   LEU E   4      21.619 -19.199   0.745  1.00 20.57 LIG-0.35  N 
ATOM      3  C   LEU E   3      20.600 -19.851   0.190  1.00 20.37 LIG 0.24  C 
ATOM      4 O    LEU E   3      19.578 -19.297  -0.241  1.00 19.26 LIG-0.27  OA
ATOM      5 H    LEU E   4      22.306 -19.603   1.069  1.00 20.57 LIG 0.16  HD
BRANCH 3 6
ATOM      6  CA  LEU E   3      20.694 -21.379   0.159  1.00 20.55 LIG 0.18  C 
BRANCH 6 7
ATOM      7  N   LEU E   3      20.442 -22.061   1.406  1.00 20.86 LIG-0.35  N 
ATOM      8  C   THR E   2      21.387 -22.126   2.339  1.00 24.34 LIG 0.24  C 
ATOM      9 O    THR E   2      22.435 -21.469   2.276  1.00 23.87 LIG-0.27  OA
ATOM     10 H    LEU E   3      19.657 -22.404   1.480  1.00 20.86 LIG 0.16  HD
BRANCH 8 11
ATOM     11  CA  THR E   2      21.117 -23.041   3.505  1.00 25.18 LIG 0.20  C 
BRANCH 11 12
ATOM     12  N   THR E   2      22.395 -23.341   4.159  1.00 26.55 LIG-0.34  N 
ATOM     13  C   GLU E   1      23.397 -23.937   3.524  1.00 27.17 LIG 0.25  C 
ATOM     14 O    GLU E   1      23.299 -24.401   2.382  1.00 25.74 LIG-0.27  OA
ATOM     15 H    THR E   2      22.433 -23.097   4.983  1.00 26.55 LIG 0.16  HD
BRANCH 13 16
ATOM     16  CA  GLU E   1      24.705 -24.090   4.300  1.00 31.71 LIG 0.28  C 
BRANCH 16 17
ATOM     17  N   GLU E   1      25.240 -22.732   4.538  1.00 33.09 LIG-0.07  N 
ATOM     18 H3   GLU E   1      25.230 -22.557   5.411  1.00 33.09 LIG 0.28  HD
ATOM     19 H2   GLU E   1      24.736 -22.135   4.112  1.00 33.09 LIG 0.28  HD
ATOM     20 H1   GLU E   1      26.075 -22.684   4.236  1.00 33.09 LIG 0.28  HD
ENDBRANCH 16 17
BRANCH 16 21
ATOM     21  CB  GLU E   1      24.457 -24.817   5.629  1.00 32.36 LIG 0.05  C 
BRANCH 21 22
ATOM     22  CG  GLU E   1      25.695 -25.518   6.167  1.00 32.63 LIG 0.12  C 
BRANCH 22 23
ATOM     23  CD  GLU E   1      26.998 -24.774   5.902  1.00 33.25 LIG 0.17  C 
ATOM     24 OE2  GLU E   1      27.953 -25.415   5.407  1.00 34.04 LIG-0.65  OA
ATOM     25 OE1  GLU E   1      27.088 -23.562   6.185  1.00 33.29 LIG-0.65  OA
ENDBRANCH 22 23
ENDBRANCH 21 22
ENDBRANCH 16 21
ENDBRANCH 13 16
ENDBRANCH 11 12
BRANCH 11 26
ATOM     26  CB  THR E   2      20.126 -22.386   4.483  1.00 27.29 LIG 0.15  C 
ATOM     27  CG2 THR E   2      20.398 -20.929   4.600  1.00 26.73 LIG 0.04  C 
BRANCH 26 28
ATOM     28 OG1  THR E   2      18.799 -22.570   3.969  1.00 28.79 LIG-0.39  OA
ATOM     29 HG1  THR E   2      18.255 -22.611   4.607  1.00 28.79 LIG 0.21  HD
ENDBRANCH 26 28
ENDBRANCH 11 26
ENDBRANCH 8 11
ENDBRANCH 6 7
BRANCH 6 30
ATOM     30  CB  LEU E   3      19.744 -21.937  -0.920  1.00 20.98 LIG 0.04  C 
BRANCH 30 31
ATOM     31  CG  LEU E   3      20.220 -21.851  -2.359  1.00 22.16 LIG-0.02  C 
ATOM     32  CD2 LEU E   3      21.711 -21.687  -2.501  1.00 24.43 LIG 0.01  C 
ATOM     33  CD1 LEU E   3      19.474 -20.718  -3.040  1.00 21.08 LIG 0.01  C 
ENDBRANCH 30 31
ENDBRANCH 6 30
ENDBRANCH 3 6
ENDBRANCH 1 2
BRANCH 1 34
ATOM     34  C   LEU E   4      21.301 -17.171  -0.484  1.00 22.59 LIG 0.24  C 
ATOM     35 O    LEU E   4      20.553 -16.202  -0.535  1.00 22.01 LIG-0.27  OA
ATOM     36  N   ASP E   5      21.827 -17.747  -1.558  1.00 23.28 LIG-0.35  N 
ATOM     37 H    ASP E   5      22.388 -18.397  -1.523  1.00 23.28 LIG 0.16  HD
BRANCH 36 38
ATOM     38  CA  ASP E   5      21.486 -17.310  -2.933  1.00 26.12 LIG 0.19  C 
BRANCH 38 39
ATOM     39  CB  ASP E   5      21.587 -18.485  -3.898  1.00 27.88 LIG 0.15  C 
BRANCH 39 40
ATOM     40  CG  ASP E   5      23.037 -18.811  -4.308  1.00 30.83 LIG 0.17  C 
ATOM     41 OD1  ASP E   5      23.694 -19.679  -3.705  1.00 34.24 LIG-0.65  OA
ATOM     42 OD2  ASP E   5      23.497 -18.170  -5.263  1.00 35.63 LIG-0.65  OA
ENDBRANCH 39 40
ENDBRANCH 38 39
BRANCH 38 43
ATOM     43  C   ASP E   5      20.077 -16.750  -2.930  1.00 25.92 LIG 0.24  C 
ATOM     44 O    ASP E   5      19.882 -15.548  -3.160  1.00 27.30 LIG-0.27  OA
ATOM     45  N   LEU E   6      19.103 -17.621  -2.717  1.00 28.24 LIG-0.35  N 
ATOM     46 H    LEU E   6      19.234 -18.459  -2.579  1.00 28.24 LIG 0.16  HD
BRANCH 45 47
ATOM     47  CA  LEU E   6      17.685 -17.221  -2.698  1.00 31.78 LIG 0.18  C 
BRANCH 47 48
ATOM     48  CB  LEU E   6      17.473 -15.998  -1.788  1.00 30.53 LIG 0.04  C 
BRANCH 48 49
ATOM     49  CG  LEU E   6      16.804 -14.808  -2.483  1.00 30.12 LIG-0.02  C 
ATOM     50  CD1 LEU E   6      15.451 -14.479  -1.876  1.00 29.14 LIG 0.01  C 
ATOM     51  CD2 LEU E   6      17.712 -13.579  -2.463  1.00 31.89 LIG 0.01  C 
ENDBRANCH 48 49
ENDBRANCH 47 48
BRANCH 47 52
ATOM     52  C   LEU E   6      17.138 -16.934  -4.096  1.00 36.88 LIG 0.24  C 
ATOM     53 O    LEU E   6      17.898 -16.466  -4.957  1.00 37.54 LIG-0.27  OA
ATOM     54  N   ASP E   7      15.845 -17.203  -4.302  1.00 40.21 LIG-0.35  N 
ATOM     55 H    ASP E   7      15.351 -17.604  -3.723  1.00 40.21 LIG 0.16  HD
BRANCH 54 56
ATOM     56  CA  ASP E   7      15.136 -16.845  -5.532  1.00 48.33 LIG 0.17  C 
BRANCH 56 57
ATOM     57  CB  ASP E   7      14.560 -18.095  -6.176  1.00 51.73 LIG 0.15  C 
BRANCH 57 58
ATOM     58  CG  ASP E   7      14.064 -19.100  -5.152  1.00 58.06 LIG 0.17  C 
ATOM     59 OD2  ASP E   7      12.841 -19.348  -5.122  1.00 65.10 LIG-0.65  OA
ATOM     60 OD1  ASP E   7      14.888 -19.653  -4.384  1.00 65.94 LIG-0.65  OA
ENDBRANCH 57 58
ENDBRANCH 56 57
BRANCH 56 61
ATOM     61  C   ASP E   7      14.018 -15.847  -5.267  1.00 49.55 LIG 0.22  C 
ATOM     62 O    ASP E   7      14.079 -14.712  -5.739  1.00 55.15 LIG-0.29  OA
ENDBRANCH 56 61
ENDBRANCH 54 56
ENDBRANCH 47 52
ENDBRANCH 45 47
ENDBRANCH 38 43
ENDBRANCH 36 38
ENDBRANCH 1 34
BRANCH 1 63
ATOM     63  CB  LEU E   4      23.117 -17.344   1.237  1.00 22.63 LIG 0.04  C 
BRANCH 63 64
ATOM     64  CG  LEU E   4      23.554 -17.304   2.698  1.00 23.40 LIG-0.02  C 
ATOM     65  CD2 LEU E   4      23.425 -18.700   3.306  1.00 23.91 LIG 0.01  C 
ATOM     66  CD1 LEU E   4      22.762 -16.287   3.498  1.00 22.51 LIG 0.01  C 
ENDBRANCH 63 64
ENDBRANCH 1 63
TORSDOF 29
ENDMDL
MODEL 28
USER: ADFR SOLUTION from run 163
USER: SCORE 20.698580 LL:  -6.201 LR: -17.767 RR:   0.000 FEB:  -9.116
USER: RMSD 5.874353
USER: SEED 162
USER: STATUS searching
USER: GENES 31
USER: genes 0 Translation |==|  0.53173 0.45549 0.69050
USER: genes 1 Rotation |==|  0.71777 0.08437 0.55630 0.66326
USER: genes 2 Torsion [CB]-CA--N-[C] |==|  0.84431
USER: genes 3 Torsion [N]-C--CA-[N] |==|  0.69715
USER: genes 4 Torsion [C]-CA--N-[C] |==|  0.18124
USER: genes 5 Torsion [N]-C--CA-[N] |==|  0.36873
USER: genes 6 Torsion [C]-CA--N-[C] |==|  0.83897
USER: genes 7 Torsion [N]-C--CA-[N] |==|  0.89894
USER: genes 8 Torsion [C]-CA--N-[H3] |==|  0.61978
USER: genes 9 Torsion [C]-CA--CB-[CG] |==|  0.44953
USER: genes 10 Torsion [CA]-CB--CG-[CD] |==|  0.18479
USER: genes 11 Torsion [CB]-CG--CD-[OE2] |==|  0.53444
USER: genes 12 Torsion [C]-CA--CB-[CG2] |==|  0.13083
USER: genes 13 Torsion [CA]-CB--OG1-[HG1] |==|  0.92569
USER: genes 14 Torsion [C]-CA--CB-[CG] |==|  0.22362
USER: genes 15 Torsion [CA]-CB--CG-[CD2] |==|  0.70283
USER: genes 16 Torsion [N]-CA--C-[N] |==|  0.07156
USER: genes 17 Torsion [C]-N--CA-[CB] |==|  0.79856
USER: genes 18 Torsion [N]-CA--CB-[CG] |==|  0.52679
USER: genes 19 Torsion [CA]-CB--CG-[OD1] |==|  0.54691
USER: genes 20 Torsion [N]-CA--C-[N] |==|  0.17634
USER: genes 21 Torsion [C]-N--CA-[CB] |==|  0.48949
USER: genes 22 Torsion [N]-CA--CB-[CG] |==|  0.80190
USER: genes 23 Torsion [CA]-CB--CG-[CD2] |==|  0.73471
USER: genes 24 Torsion [N]-CA--C-[N] |==|  0.36189
USER: genes 25 Torsion [C]-N--CA-[CB] |==|  0.43685
USER: genes 26 Torsion [N]-CA--CB-[CG] |==|  0.81179
USER: genes 27 Torsion [CA]-CB--CG-[OD2] |==|  0.90903
USER: genes 28 Torsion [N]-CA--C-[O] |==|  0.92173
USER: genes 29 Torsion [N]-CA--CB-[CG] |==|  0.55653
USER: genes 30 Torsion [CA]-CB--CG-[CD2] |==|  0.39732
ROOT
ATOM      1  CA  LEU E   4      20.321 -21.637   1.344  1.00 22.51 LIG 0.18  C 
ENDROOT
BRANCH 1 2
ATOM      2  N   LEU E   4      20.762 -20.279   1.157  1.00 20.57 LIG-0.35  N 
ATOM      3  C   LEU E   3      21.629 -19.897   0.223  1.00 20.37 LIG 0.24  C 
ATOM      4 O    LEU E   3      22.189 -20.678  -0.561  1.00 19.26 LIG-0.27  OA
ATOM      5 H    LEU E   4      20.409 -19.727   1.715  1.00 20.57 LIG 0.16  HD
BRANCH 3 6
ATOM      6  CA  LEU E   3      21.990 -18.410   0.183  1.00 20.55 LIG 0.18  C 
BRANCH 6 7
ATOM      7  N   LEU E   3      21.474 -17.655  -0.934  1.00 20.86 LIG-0.35  N 
ATOM      8  C   THR E   2      20.164 -17.478  -1.077  1.00 24.34 LIG 0.24  C 
ATOM      9 O    THR E   2      19.348 -17.778  -0.194  1.00 23.87 LIG-0.27  OA
ATOM     10 H    LEU E   3      22.071 -17.347  -1.471  1.00 20.86 LIG 0.16  HD
BRANCH 8 11
ATOM     11  CA  THR E   2      19.706 -16.876  -2.380  1.00 25.18 LIG 0.20  C 
BRANCH 11 12
ATOM     12  N   THR E   2      18.586 -17.677  -2.888  1.00 26.55 LIG-0.34  N 
ATOM     13  C   GLU E   1      18.694 -18.978  -3.132  1.00 27.17 LIG 0.25  C 
ATOM     14 O    GLU E   1      19.765 -19.594  -3.076  1.00 25.74 LIG-0.27  OA
ATOM     15 H    THR E   2      17.862 -17.229  -3.011  1.00 26.55 LIG 0.16  HD
BRANCH 13 16
ATOM     16  CA  GLU E   1      17.417 -19.702  -3.556  1.00 31.71 LIG 0.28  C 
BRANCH 16 17
ATOM     17  N   GLU E   1      16.295 -19.102  -2.801  1.00 33.09 LIG-0.07  N 
ATOM     18 H3   GLU E   1      15.757 -19.746  -2.506  1.00 33.09 LIG 0.28  HD
ATOM     19 H2   GLU E   1      15.838 -18.556  -3.334  1.00 33.09 LIG 0.28  HD
ATOM     20 H1   GLU E   1      16.615 -18.643  -2.109  1.00 33.09 LIG 0.28  HD
ENDBRANCH 16 17
BRANCH 16 21
ATOM     21  CB  GLU E   1      17.195 -19.554  -5.068  1.00 32.36 LIG 0.05  C 
BRANCH 21 22
ATOM     22  CG  GLU E   1      16.225 -20.580  -5.633  1.00 32.63 LIG 0.12  C 
BRANCH 22 23
ATOM     23  CD  GLU E   1      14.792 -20.423  -5.139  1.00 33.25 LIG 0.17  C 
ATOM     24 OE2  GLU E   1      13.985 -21.354  -5.362  1.00 34.04 LIG-0.65  OA
ATOM     25 OE1  GLU E   1      14.455 -19.383  -4.537  1.00 33.29 LIG-0.65  OA
ENDBRANCH 22 23
ENDBRANCH 21 22
ENDBRANCH 16 21
ENDBRANCH 13 16
ENDBRANCH 11 12
BRANCH 11 26
ATOM     26  CB  THR E   2      19.299 -15.406  -2.178  1.00 27.29 LIG 0.15  C 
ATOM     27  CG2 THR E   2      20.333 -14.685  -1.390  1.00 26.73 LIG 0.04  C 
BRANCH 26 28
ATOM     28 OG1  THR E   2      19.187 -14.790  -3.469  1.00 28.79 LIG-0.39  OA
ATOM     29 HG1  THR E   2      19.687 -15.188  -4.014  1.00 28.79 LIG 0.21  HD
ENDBRANCH 26 28
ENDBRANCH 11 26
ENDBRANCH 8 11
ENDBRANCH 6 7
BRANCH 6 30
ATOM     30  CB  LEU E   3      21.546 -17.731   1.495  1.00 20.98 LIG 0.04  C 
BRANCH 30 31
ATOM     31  CG  LEU E   3      22.461 -17.901   2.694  1.00 22.16 LIG-0.02  C 
ATOM     32  CD2 LEU E   3      21.926 -18.840   3.744  1.00 24.43 LIG 0.01  C 
ATOM     33  CD1 LEU E   3      22.743 -16.528   3.276  1.00 21.08 LIG 0.01  C 
ENDBRANCH 30 31
ENDBRANCH 6 30
ENDBRANCH 3 6
ENDBRANCH 1 2
BRANCH 1 34
ATOM     34  C   LEU E   4      21.541 -22.464   1.745  1.00 22.59 LIG 0.24  C 
ATOM     35 O    LEU E   4      21.578 -23.662   1.498  1.00 22.01 LIG-0.27  OA
ATOM     36  N   ASP E   5      22.529 -21.809   2.340  1.00 23.28 LIG-0.35  N 
ATOM     37 H    ASP E   5      22.526 -20.959   2.473  1.00 23.28 LIG 0.16  HD
BRANCH 36 38
ATOM     38  CA  ASP E   5      23.745 -22.498   2.836  1.00 26.12 LIG 0.19  C 
BRANCH 38 39
ATOM     39  CB  ASP E   5      23.418 -23.309   4.083  1.00 27.88 LIG 0.15  C 
BRANCH 39 40
ATOM     40  CG  ASP E   5      24.670 -23.862   4.794  1.00 30.83 LIG 0.17  C 
ATOM     41 OD1  ASP E   5      24.581 -24.784   5.625  1.00 34.24 LIG-0.65  OA
ATOM     42 OD2  ASP E   5      25.752 -23.345   4.486  1.00 35.63 LIG-0.65  OA
ENDBRANCH 39 40
ENDBRANCH 38 39
BRANCH 38 43
ATOM     43  C   ASP E   5      24.272 -23.405   1.741  1.00 25.92 LIG 0.24  C 
ATOM     44 O    ASP E   5      24.267 -24.634   1.892  1.00 27.30 LIG-0.27  OA
ATOM     45  N   LEU E   6      24.679 -22.805   0.632  1.00 28.24 LIG-0.35  N 
ATOM     46 H    LEU E   6      24.663 -21.953   0.518  1.00 28.24 LIG 0.16  HD
BRANCH 45 47
ATOM     47  CA  LEU E   6      25.203 -23.560  -0.519  1.00 31.78 LIG 0.18  C 
BRANCH 47 48
ATOM     48  CB  LEU E   6      25.511 -22.620  -1.697  1.00 30.53 LIG 0.04  C 
BRANCH 48 49
ATOM     49  CG  LEU E   6      24.267 -22.052  -2.387  1.00 30.12 LIG-0.02  C 
ATOM     50  CD1 LEU E   6      24.444 -20.593  -2.773  1.00 29.14 LIG 0.01  C 
ATOM     51  CD2 LEU E   6      23.888 -22.887  -3.609  1.00 31.89 LIG 0.01  C 
ENDBRANCH 48 49
ENDBRANCH 47 48
BRANCH 47 52
ATOM     52  C   LEU E   6      26.444 -24.380  -0.165  1.00 36.88 LIG 0.24  C 
ATOM     53 O    LEU E   6      27.384 -23.828   0.425  1.00 37.54 LIG-0.27  OA
ATOM     54  N   ASP E   7      26.439 -25.665  -0.531  1.00 40.21 LIG-0.35  N 
ATOM     55 H    ASP E   7      25.749 -26.056  -0.865  1.00 40.21 LIG 0.16  HD
BRANCH 54 56
ATOM     56  CA  ASP E   7      27.605 -26.542  -0.404  1.00 48.33 LIG 0.17  C 
BRANCH 56 57
ATOM     57  CB  ASP E   7      27.155 -27.993  -0.359  1.00 51.73 LIG 0.15  C 
BRANCH 57 58
ATOM     58  CG  ASP E   7      26.387 -28.324   0.907  1.00 58.06 LIG 0.17  C 
ATOM     59 OD2  ASP E   7      26.704 -27.727   1.957  1.00 65.10 LIG-0.65  OA
ATOM     60 OD1  ASP E   7      25.461 -29.170   0.861  1.00 65.94 LIG-0.65  OA
ENDBRANCH 57 58
ENDBRANCH 56 57
BRANCH 56 61
ATOM     61  C   ASP E   7      28.583 -26.347  -1.553  1.00 49.55 LIG 0.22  C 
ATOM     62 O    ASP E   7      28.177 -25.971  -2.653  1.00 55.15 LIG-0.29  OA
ENDBRANCH 56 61
ENDBRANCH 54 56
ENDBRANCH 47 52
ENDBRANCH 45 47
ENDBRANCH 38 43
ENDBRANCH 36 38
ENDBRANCH 1 34
BRANCH 1 63
ATOM     63  CB  LEU E   4      19.724 -22.176   0.039  1.00 22.63 LIG 0.04  C 
BRANCH 63 64
ATOM     64  CG  LEU E   4      18.783 -23.377   0.062  1.00 23.40 LIG-0.02  C 
ATOM     65  CD2 LEU E   4      17.688 -23.183  -0.987  1.00 23.91 LIG 0.01  C 
ATOM     66  CD1 LEU E   4      18.186 -23.602   1.437  1.00 22.51 LIG 0.01  C 
ENDBRANCH 63 64
ENDBRANCH 1 63
TORSDOF 29
ENDMDL
MODEL 29
USER: ADFR SOLUTION from run 120
USER: SCORE 21.818496 LL:  -6.197 LR: -17.680 RR:   0.000 FEB:  -9.029
USER: RMSD 5.447882
USER: SEED 119
USER: STATUS no improvement in best in 4 clusters for 5 generations
USER: GENES 31
USER: genes 0 Translation |==|  0.53246 0.62015 0.47723
USER: genes 1 Rotation |==|  0.12177 0.72528 0.34341 0.67796
USER: genes 2 Torsion [CB]-CA--N-[C] |==|  0.84980
USER: genes 3 Torsion [N]-C--CA-[N] |==|  0.89561
USER: genes 4 Torsion [C]-CA--N-[C] |==|  0.67210
USER: genes 5 Torsion [N]-C--CA-[N] |==|  0.90005
USER: genes 6 Torsion [C]-CA--N-[C] |==|  0.83264
USER: genes 7 Torsion [N]-C--CA-[N] |==|  0.41920
USER: genes 8 Torsion [C]-CA--N-[H3] |==|  0.59882
USER: genes 9 Torsion [C]-CA--CB-[CG] |==|  0.20112
USER: genes 10 Torsion [CA]-CB--CG-[CD] |==|  0.12616
USER: genes 11 Torsion [CB]-CG--CD-[OE2] |==|  0.71459
USER: genes 12 Torsion [C]-CA--CB-[CG2] |==|  0.32476
USER: genes 13 Torsion [CA]-CB--OG1-[HG1] |==|  0.61678
USER: genes 14 Torsion [C]-CA--CB-[CG] |==|  0.38004
USER: genes 15 Torsion [CA]-CB--CG-[CD2] |==|  0.22806
USER: genes 16 Torsion [N]-CA--C-[N] |==|  0.34548
USER: genes 17 Torsion [C]-N--CA-[CB] |==|  0.15911
USER: genes 18 Torsion [N]-CA--CB-[CG] |==|  0.52998
USER: genes 19 Torsion [CA]-CB--CG-[OD1] |==|  0.25982
USER: genes 20 Torsion [N]-CA--C-[N] |==|  0.74685
USER: genes 21 Torsion [C]-N--CA-[CB] |==|  0.85694
USER: genes 22 Torsion [N]-CA--CB-[CG] |==|  0.42391
USER: genes 23 Torsion [CA]-CB--CG-[CD2] |==|  0.69907
USER: genes 24 Torsion [N]-CA--C-[N] |==|  0.83333
USER: genes 25 Torsion [C]-N--CA-[CB] |==|  0.24628
USER: genes 26 Torsion [N]-CA--CB-[CG] |==|  0.29890
USER: genes 27 Torsion [CA]-CB--CG-[OD2] |==|  0.26988
USER: genes 28 Torsion [N]-CA--C-[O] |==|  0.26394
USER: genes 29 Torsion [N]-CA--CB-[CG] |==|  0.72695
USER: genes 30 Torsion [CA]-CB--CG-[CD2] |==|  0.53164
ROOT
ATOM      1  CA  LEU E   4      20.338 -17.808  -2.975  1.00 22.51 LIG 0.18  C 
ENDROOT
BRANCH 1 2
ATOM      2  N   LEU E   4      19.114 -17.066  -3.133  1.00 20.57 LIG-0.35  N 
ATOM      3  C   LEU E   3      19.015 -15.748  -2.978  1.00 20.37 LIG 0.24  C 
ATOM      4 O    LEU E   3      19.958 -15.020  -2.635  1.00 19.26 LIG-0.27  OA
ATOM      5 H    LEU E   4      18.441 -17.560  -3.340  1.00 20.57 LIG 0.16  HD
BRANCH 3 6
ATOM      6  CA  LEU E   3      17.627 -15.133  -3.176  1.00 20.55 LIG 0.18  C 
BRANCH 6 7
ATOM      7  N   LEU E   3      16.817 -15.704  -4.225  1.00 20.86 LIG-0.35  N 
ATOM      8  C   THR E   2      16.432 -14.958  -5.257  1.00 24.34 LIG 0.24  C 
ATOM      9 O    THR E   2      16.883 -13.824  -5.468  1.00 23.87 LIG-0.27  OA
ATOM     10 H    LEU E   3      16.619 -16.534  -4.121  1.00 20.86 LIG 0.16  HD
BRANCH 8 11
ATOM     11  CA  THR E   2      15.413 -15.569  -6.183  1.00 25.18 LIG 0.20  C 
BRANCH 11 12
ATOM     12  N   THR E   2      15.689 -17.006  -6.288  1.00 26.55 LIG-0.34  N 
ATOM     13  C   GLU E   1      16.842 -17.477  -6.749  1.00 27.17 LIG 0.25  C 
ATOM     14 O    GLU E   1      17.721 -16.761  -7.244  1.00 25.74 LIG-0.27  OA
ATOM     15 H    THR E   2      15.042 -17.507  -6.025  1.00 26.55 LIG 0.16  HD
BRANCH 13 16
ATOM     16  CA  GLU E   1      17.029 -18.994  -6.701  1.00 31.71 LIG 0.28  C 
BRANCH 16 17
ATOM     17  N   GLU E   1      17.932 -19.364  -7.812  1.00 33.09 LIG-0.07  N 
ATOM     18 H3   GLU E   1      17.685 -20.150  -8.146  1.00 33.09 LIG 0.28  HD
ATOM     19 H2   GLU E   1      18.767 -19.419  -7.511  1.00 33.09 LIG 0.28  HD
ATOM     20 H1   GLU E   1      17.888 -18.744  -8.450  1.00 33.09 LIG 0.28  HD
ENDBRANCH 16 17
BRANCH 16 21
ATOM     21  CB  GLU E   1      17.628 -19.416  -5.351  1.00 32.36 LIG 0.05  C 
BRANCH 21 22
ATOM     22  CG  GLU E   1      16.640 -19.312  -4.201  1.00 32.63 LIG 0.12  C 
BRANCH 22 23
ATOM     23  CD  GLU E   1      15.260 -19.881  -4.509  1.00 33.25 LIG 0.17  C 
ATOM     24 OE2  GLU E   1      14.333 -19.078  -4.764  1.00 34.04 LIG-0.65  OA
ATOM     25 OE1  GLU E   1      15.083 -21.117  -4.494  1.00 33.29 LIG-0.65  OA
ENDBRANCH 22 23
ENDBRANCH 21 22
ENDBRANCH 16 21
ENDBRANCH 13 16
ENDBRANCH 11 12
BRANCH 11 26
ATOM     26  CB  THR E   2      13.989 -15.307  -5.661  1.00 27.29 LIG 0.15  C 
ATOM     27  CG2 THR E   2      13.227 -14.474  -6.628  1.00 26.73 LIG 0.04  C 
BRANCH 26 28
ATOM     28 OG1  THR E   2      13.325 -16.570  -5.514  1.00 28.79 LIG-0.39  OA
ATOM     29 HG1  THR E   2      12.536 -16.507  -5.794  1.00 28.79 LIG 0.21  HD
ENDBRANCH 26 28
ENDBRANCH 11 26
ENDBRANCH 8 11
ENDBRANCH 6 7
BRANCH 6 30
ATOM     30  CB  LEU E   3      16.840 -15.186  -1.850  1.00 20.98 LIG 0.04  C 
BRANCH 30 31
ATOM     31  CG  LEU E   3      16.057 -13.942  -1.471  1.00 22.16 LIG-0.02  C 
ATOM     32  CD2 LEU E   3      14.712 -13.838  -2.142  1.00 24.43 LIG 0.01  C 
ATOM     33  CD1 LEU E   3      16.918 -12.728  -1.771  1.00 21.08 LIG 0.01  C 
ENDBRANCH 30 31
ENDBRANCH 6 30
ENDBRANCH 3 6
ENDBRANCH 1 2
BRANCH 1 34
ATOM     34  C   LEU E   4      20.747 -17.709  -1.506  1.00 22.59 LIG 0.24  C 
ATOM     35 O    LEU E   4      20.874 -16.612  -0.978  1.00 22.01 LIG-0.27  OA
ATOM     36  N   ASP E   5      20.929 -18.856  -0.865  1.00 23.28 LIG-0.35  N 
ATOM     37 H    ASP E   5      20.796 -19.628  -1.221  1.00 23.28 LIG 0.16  HD
BRANCH 36 38
ATOM     38  CA  ASP E   5      21.386 -18.907   0.545  1.00 26.12 LIG 0.19  C 
BRANCH 38 39
ATOM     39  CB  ASP E   5      20.429 -18.127   1.436  1.00 27.88 LIG 0.15  C 
BRANCH 39 40
ATOM     40  CG  ASP E   5      20.970 -17.909   2.864  1.00 30.83 LIG 0.17  C 
ATOM     41 OD1  ASP E   5      21.593 -16.874   3.162  1.00 34.24 LIG-0.65  OA
ATOM     42 OD2  ASP E   5      20.743 -18.810   3.682  1.00 35.63 LIG-0.65  OA
ENDBRANCH 39 40
ENDBRANCH 38 39
BRANCH 38 43
ATOM     43  C   ASP E   5      21.451 -20.357   0.983  1.00 25.92 LIG 0.24  C 
ATOM     44 O    ASP E   5      22.500 -21.003   0.850  1.00 27.30 LIG-0.27  OA
ATOM     45  N   LEU E   6      20.356 -20.848   1.541  1.00 28.24 LIG-0.35  N 
ATOM     46 H    LEU E   6      19.633 -20.395   1.654  1.00 28.24 LIG 0.16  HD
BRANCH 45 47
ATOM     47  CA  LEU E   6      20.278 -22.238   2.024  1.00 31.78 LIG 0.18  C 
BRANCH 47 48
ATOM     48  CB  LEU E   6      20.728 -23.224   0.932  1.00 30.53 LIG 0.04  C 
BRANCH 48 49
ATOM     49  CG  LEU E   6      21.309 -24.534   1.471  1.00 30.12 LIG-0.02  C 
ATOM     50  CD1 LEU E   6      20.635 -25.751   0.861  1.00 29.14 LIG 0.01  C 
ATOM     51  CD2 LEU E   6      22.821 -24.595   1.255  1.00 31.89 LIG 0.01  C 
ENDBRANCH 48 49
ENDBRANCH 47 48
BRANCH 47 52
ATOM     52  C   LEU E   6      21.091 -22.461   3.298  1.00 36.88 LIG 0.24  C 
ATOM     53 O    LEU E   6      20.510 -22.839   4.327  1.00 37.54 LIG-0.27  OA
ATOM     54  N   ASP E   7      22.404 -22.220   3.224  1.00 40.21 LIG-0.35  N 
ATOM     55 H    ASP E   7      22.807 -22.039   2.486  1.00 40.21 LIG 0.16  HD
BRANCH 54 56
ATOM     56  CA  ASP E   7      23.292 -22.239   4.388  1.00 48.33 LIG 0.17  C 
BRANCH 56 57
ATOM     57  CB  ASP E   7      23.821 -23.646   4.608  1.00 51.73 LIG 0.15  C 
BRANCH 57 58
ATOM     58  CG  ASP E   7      25.287 -23.780   4.237  1.00 58.06 LIG 0.17  C 
ATOM     59 OD2  ASP E   7      26.132 -23.697   5.153  1.00 65.10 LIG-0.65  OA
ATOM     60 OD1  ASP E   7      25.602 -23.977   3.039  1.00 65.94 LIG-0.65  OA
ENDBRANCH 57 58
ENDBRANCH 56 57
BRANCH 56 61
ATOM     61  C   ASP E   7      24.458 -21.275   4.222  1.00 49.55 LIG 0.22  C 
ATOM     62 O    ASP E   7      24.391 -20.138   4.687  1.00 55.15 LIG-0.29  OA
ENDBRANCH 56 61
ENDBRANCH 54 56
ENDBRANCH 47 52
ENDBRANCH 45 47
ENDBRANCH 38 43
ENDBRANCH 36 38
ENDBRANCH 1 34
BRANCH 1 63
ATOM     63  CB  LEU E   4      21.431 -17.211  -3.868  1.00 22.63 LIG 0.04  C 
BRANCH 63 64
ATOM     64  CG  LEU E   4      21.745 -17.837  -5.223  1.00 23.40 LIG-0.02  C 
ATOM     65  CD2 LEU E   4      23.040 -17.238  -5.772  1.00 23.91 LIG 0.01  C 
ATOM     66  CD1 LEU E   4      20.605 -17.660  -6.207  1.00 22.51 LIG 0.01  C 
ENDBRANCH 63 64
ENDBRANCH 1 63
TORSDOF 29
ENDMDL
MODEL 30
USER: ADFR SOLUTION from run 163
USER: SCORE 21.309158 LL:  -6.254 LR: -17.665 RR:   0.000 FEB:  -9.015
USER: RMSD 5.897360
USER: SEED 162
USER: STATUS searching
USER: GENES 31
USER: genes 0 Translation |==|  0.52520 0.45350 0.68666
USER: genes 1 Rotation |==|  0.69266 0.06803 0.58395 0.63869
USER: genes 2 Torsion [CB]-CA--N-[C] |==|  0.89215
USER: genes 3 Torsion [N]-C--CA-[N] |==|  0.69286
USER: genes 4 Torsion [C]-CA--N-[C] |==|  0.16192
USER: genes 5 Torsion [N]-C--CA-[N] |==|  0.36577
USER: genes 6 Torsion [C]-CA--N-[C] |==|  0.84070
USER: genes 7 Torsion [N]-C--CA-[N] |==|  0.89340
USER: genes 8 Torsion [C]-CA--N-[H3] |==|  0.61539
USER: genes 9 Torsion [C]-CA--CB-[CG] |==|  0.44597
USER: genes 10 Torsion [CA]-CB--CG-[CD] |==|  0.15078
USER: genes 11 Torsion [CB]-CG--CD-[OE2] |==|  0.59719
USER: genes 12 Torsion [C]-CA--CB-[CG2] |==|  0.12654
USER: genes 13 Torsion [CA]-CB--OG1-[HG1] |==|  0.02548
USER: genes 14 Torsion [C]-CA--CB-[CG] |==|  0.22891
USER: genes 15 Torsion [CA]-CB--CG-[CD2] |==|  0.72042
USER: genes 16 Torsion [N]-CA--C-[N] |==|  0.89568
USER: genes 17 Torsion [C]-N--CA-[CB] |==|  0.87222
USER: genes 18 Torsion [N]-CA--CB-[CG] |==|  0.62052
USER: genes 19 Torsion [CA]-CB--CG-[OD1] |==|  0.76192
USER: genes 20 Torsion [N]-CA--C-[N] |==|  0.96596
USER: genes 21 Torsion [C]-N--CA-[CB] |==|  0.51197
USER: genes 22 Torsion [N]-CA--CB-[CG] |==|  0.72632
USER: genes 23 Torsion [CA]-CB--CG-[CD2] |==|  0.82259
USER: genes 24 Torsion [N]-CA--C-[N] |==|  0.38922
USER: genes 25 Torsion [C]-N--CA-[CB] |==|  0.27443
USER: genes 26 Torsion [N]-CA--CB-[CG] |==|  0.11636
USER: genes 27 Torsion [CA]-CB--CG-[OD2] |==|  0.13498
USER: genes 28 Torsion [N]-CA--C-[O] |==|  0.00259
USER: genes 29 Torsion [N]-CA--CB-[CG] |==|  0.55190
USER: genes 30 Torsion [CA]-CB--CG-[CD2] |==|  0.38057
ROOT
ATOM      1  CA  LEU E   4      20.169 -21.683   1.266  1.00 22.51 LIG 0.18  C 
ENDROOT
BRANCH 1 2
ATOM      2  N   LEU E   4      20.729 -20.372   1.061  1.00 20.57 LIG-0.35  N 
ATOM      3  C   LEU E   3      21.520 -20.049   0.041  1.00 20.37 LIG 0.24  C 
ATOM      4 O    LEU E   3      21.899 -20.855  -0.822  1.00 19.26 LIG-0.27  OA
ATOM      5 H    LEU E   4      20.502 -19.807   1.670  1.00 20.57 LIG 0.16  HD
BRANCH 3 6
ATOM      6  CA  LEU E   3      22.031 -18.606  -0.005  1.00 20.55 LIG 0.18  C 
BRANCH 6 7
ATOM      7  N   LEU E   3      21.501 -17.773  -1.057  1.00 20.86 LIG-0.35  N 
ATOM      8  C   THR E   2      20.190 -17.570  -1.157  1.00 24.34 LIG 0.24  C 
ATOM      9 O    THR E   2      19.391 -17.916  -0.276  1.00 23.87 LIG-0.27  OA
ATOM     10 H    LEU E   3      22.089 -17.437  -1.587  1.00 20.86 LIG 0.16  HD
BRANCH 8 11
ATOM     11  CA  THR E   2      19.711 -16.876  -2.406  1.00 25.18 LIG 0.20  C 
BRANCH 11 12
ATOM     12  N   THR E   2      18.585 -17.641  -2.953  1.00 26.55 LIG-0.34  N 
ATOM     13  C   GLU E   1      18.687 -18.924  -3.280  1.00 27.17 LIG 0.25  C 
ATOM     14 O    GLU E   1      19.757 -19.544  -3.275  1.00 25.74 LIG-0.27  OA
ATOM     15 H    THR E   2      17.861 -17.184  -3.040  1.00 26.55 LIG 0.16  HD
BRANCH 13 16
ATOM     16  CA  GLU E   1      17.404 -19.618  -3.738  1.00 31.71 LIG 0.28  C 
BRANCH 16 17
ATOM     17  N   GLU E   1      16.299 -19.100  -2.902  1.00 33.09 LIG-0.07  N 
ATOM     18 H3   GLU E   1      15.761 -19.770  -2.673  1.00 33.09 LIG 0.28  HD
ATOM     19 H2   GLU E   1      15.838 -18.494  -3.362  1.00 33.09 LIG 0.28  HD
ATOM     20 H1   GLU E   1      16.633 -18.724  -2.168  1.00 33.09 LIG 0.28  HD
ENDBRANCH 16 17
BRANCH 16 21
ATOM     21  CB  GLU E   1      17.142 -19.332  -5.223  1.00 32.36 LIG 0.05  C 
BRANCH 21 22
ATOM     22  CG  GLU E   1      16.189 -20.328  -5.864  1.00 32.63 LIG 0.12  C 
BRANCH 22 23
ATOM     23  CD  GLU E   1      14.857 -20.473  -5.139  1.00 33.25 LIG 0.17  C 
ATOM     24 OE2  GLU E   1      14.318 -21.604  -5.113  1.00 34.04 LIG-0.65  OA
ATOM     25 OE1  GLU E   1      14.334 -19.477  -4.599  1.00 33.29 LIG-0.65  OA
ENDBRANCH 22 23
ENDBRANCH 21 22
ENDBRANCH 16 21
ENDBRANCH 13 16
ENDBRANCH 11 12
BRANCH 11 26
ATOM     26  CB  THR E   2      19.306 -15.425  -2.093  1.00 27.29 LIG 0.15  C 
ATOM     27  CG2 THR E   2      20.333 -14.773  -1.239  1.00 26.73 LIG 0.04  C 
BRANCH 26 28
ATOM     28 OG1  THR E   2      19.208 -14.709  -3.331  1.00 28.79 LIG-0.39  OA
ATOM     29 HG1  THR E   2      19.267 -15.248  -3.972  1.00 28.79 LIG 0.21  HD
ENDBRANCH 26 28
ENDBRANCH 11 26
ENDBRANCH 8 11
ENDBRANCH 6 7
BRANCH 6 30
ATOM     30  CB  LEU E   3      21.779 -17.921   1.353  1.00 20.98 LIG 0.04  C 
BRANCH 30 31
ATOM     31  CG  LEU E   3      22.798 -18.182   2.448  1.00 22.16 LIG-0.02  C 
ATOM     32  CD2 LEU E   3      22.362 -19.212   3.457  1.00 24.43 LIG 0.01  C 
ATOM     33  CD1 LEU E   3      23.127 -16.860   3.117  1.00 21.08 LIG 0.01  C 
ENDBRANCH 30 31
ENDBRANCH 6 30
ENDBRANCH 3 6
ENDBRANCH 1 2
BRANCH 1 34
ATOM     34  C   LEU E   4      21.248 -22.546   1.918  1.00 22.59 LIG 0.24  C 
ATOM     35 O    LEU E   4      20.942 -23.375   2.764  1.00 22.01 LIG-0.27  OA
ATOM     36  N   ASP E   5      22.493 -22.350   1.501  1.00 23.28 LIG-0.35  N 
ATOM     37 H    ASP E   5      22.705 -21.801   0.874  1.00 23.28 LIG 0.16  HD
BRANCH 36 38
ATOM     38  CA  ASP E   5      23.645 -23.074   2.091  1.00 26.12 LIG 0.19  C 
BRANCH 38 39
ATOM     39  CB  ASP E   5      23.552 -23.059   3.611  1.00 27.88 LIG 0.15  C 
BRANCH 39 40
ATOM     40  CG  ASP E   5      24.900 -22.764   4.299  1.00 30.83 LIG 0.17  C 
ATOM     41 OD1  ASP E   5      25.713 -23.676   4.537  1.00 34.24 LIG-0.65  OA
ATOM     42 OD2  ASP E   5      25.123 -21.580   4.589  1.00 35.63 LIG-0.65  OA
ENDBRANCH 39 40
ENDBRANCH 38 39
BRANCH 38 43
ATOM     43  C   ASP E   5      23.637 -24.501   1.576  1.00 25.92 LIG 0.24  C 
ATOM     44 O    ASP E   5      24.607 -25.244   1.783  1.00 27.30 LIG-0.27  OA
ATOM     45  N   LEU E   6      22.536 -24.890   0.952  1.00 28.24 LIG-0.35  N 
ATOM     46 H    LEU E   6      21.854 -24.382   0.827  1.00 28.24 LIG 0.16  HD
BRANCH 45 47
ATOM     47  CA  LEU E   6      22.384 -26.251   0.410  1.00 31.78 LIG 0.18  C 
BRANCH 47 48
ATOM     48  CB  LEU E   6      21.055 -26.392  -0.353  1.00 30.53 LIG 0.04  C 
BRANCH 48 49
ATOM     49  CG  LEU E   6      19.932 -27.041   0.461  1.00 30.12 LIG-0.02  C 
ATOM     50  CD1 LEU E   6      18.596 -26.981  -0.261  1.00 29.14 LIG 0.01  C 
ATOM     51  CD2 LEU E   6      20.279 -28.485   0.823  1.00 31.89 LIG 0.01  C 
ENDBRANCH 48 49
ENDBRANCH 47 48
BRANCH 47 52
ATOM     52  C   LEU E   6      23.550 -26.657  -0.490  1.00 36.88 LIG 0.24  C 
ATOM     53 O    LEU E   6      24.025 -25.823  -1.276  1.00 37.54 LIG-0.27  OA
ATOM     54  N   ASP E   7      23.986 -27.915  -0.379  1.00 40.21 LIG-0.35  N 
ATOM     55 H    ASP E   7      23.704 -28.458   0.226  1.00 40.21 LIG 0.16  HD
BRANCH 54 56
ATOM     56  CA  ASP E   7      24.987 -28.501  -1.272  1.00 48.33 LIG 0.17  C 
BRANCH 56 57
ATOM     57  CB  ASP E   7      26.354 -28.462  -0.609  1.00 51.73 LIG 0.15  C 
BRANCH 57 58
ATOM     58  CG  ASP E   7      26.298 -28.837   0.861  1.00 58.06 LIG 0.17  C 
ATOM     59 OD2  ASP E   7      25.673 -29.870   1.177  1.00 65.10 LIG-0.65  OA
ATOM     60 OD1  ASP E   7      26.882 -28.112   1.703  1.00 65.94 LIG-0.65  OA
ENDBRANCH 57 58
ENDBRANCH 56 57
BRANCH 56 61
ATOM     61  C   ASP E   7      24.641 -29.937  -1.641  1.00 49.55 LIG 0.22  C 
ATOM     62 O    ASP E   7      23.612 -30.454  -1.208  1.00 55.15 LIG-0.29  OA
ENDBRANCH 56 61
ENDBRANCH 54 56
ENDBRANCH 47 52
ENDBRANCH 45 47
ENDBRANCH 38 43
ENDBRANCH 36 38
ENDBRANCH 1 34
BRANCH 1 63
ATOM     63  CB  LEU E   4      19.751 -22.289  -0.078  1.00 22.63 LIG 0.04  C 
BRANCH 63 64
ATOM     64  CG  LEU E   4      18.765 -23.451  -0.126  1.00 23.40 LIG-0.02  C 
ATOM     65  CD2 LEU E   4      17.754 -23.215  -1.248  1.00 23.91 LIG 0.01  C 
ATOM     66  CD1 LEU E   4      18.064 -23.654   1.203  1.00 22.51 LIG 0.01  C 
ENDBRANCH 63 64
ENDBRANCH 1 63
TORSDOF 29
ENDMDL
MODEL 31
USER: ADFR SOLUTION from run 127
USER: SCORE 21.564178 LL:  -7.340 LR: -17.653 RR:   0.000 FEB:  -9.003
USER: RMSD 4.100191
USER: SEED 126
USER: STATUS no improvement in best in 4 clusters for 5 generations
USER: GENES 31
USER: genes 0 Translation |==|  0.56293 0.64853 0.58765
USER: genes 1 Rotation |==|  0.49687 0.50248 0.47113 0.99915
USER: genes 2 Torsion [CB]-CA--N-[C] |==|  0.25893
USER: genes 3 Torsion [N]-C--CA-[N] |==|  0.86107
USER: genes 4 Torsion [C]-CA--N-[C] |==|  0.19177
USER: genes 5 Torsion [N]-C--CA-[N] |==|  0.28512
USER: genes 6 Torsion [C]-CA--N-[C] |==|  0.73502
USER: genes 7 Torsion [N]-C--CA-[N] |==|  0.37530
USER: genes 8 Torsion [C]-CA--N-[H3] |==|  0.54588
USER: genes 9 Torsion [C]-CA--CB-[CG] |==|  0.87788
USER: genes 10 Torsion [CA]-CB--CG-[CD] |==|  0.79874
USER: genes 11 Torsion [CB]-CG--CD-[OE2] |==|  0.66457
USER: genes 12 Torsion [C]-CA--CB-[CG2] |==|  0.51077
USER: genes 13 Torsion [CA]-CB--OG1-[HG1] |==|  0.20744
USER: genes 14 Torsion [C]-CA--CB-[CG] |==|  0.36460
USER: genes 15 Torsion [CA]-CB--CG-[CD2] |==|  0.38375
USER: genes 16 Torsion [N]-CA--C-[N] |==|  0.41692
USER: genes 17 Torsion [C]-N--CA-[CB] |==|  0.41835
USER: genes 18 Torsion [N]-CA--CB-[CG] |==|  0.61562
USER: genes 19 Torsion [CA]-CB--CG-[OD1] |==|  0.60662
USER: genes 20 Torsion [N]-CA--C-[N] |==|  0.88404
USER: genes 21 Torsion [C]-N--CA-[CB] |==|  0.87546
USER: genes 22 Torsion [N]-CA--CB-[CG] |==|  0.63862
USER: genes 23 Torsion [CA]-CB--CG-[CD2] |==|  0.50284
USER: genes 24 Torsion [N]-CA--C-[N] |==|  0.88323
USER: genes 25 Torsion [C]-N--CA-[CB] |==|  0.32869
USER: genes 26 Torsion [N]-CA--CB-[CG] |==|  0.59219
USER: genes 27 Torsion [CA]-CB--CG-[OD2] |==|  0.52297
USER: genes 28 Torsion [N]-CA--C-[O] |==|  0.09270
USER: genes 29 Torsion [N]-CA--CB-[CG] |==|  0.60425
USER: genes 30 Torsion [CA]-CB--CG-[CD2] |==|  0.90953
ROOT
ATOM      1  CA  LEU E   4      21.046 -17.149  -0.739  1.00 22.51 LIG 0.18  C 
ENDROOT
BRANCH 1 2
ATOM      2  N   LEU E   4      19.914 -16.586  -1.429  1.00 20.57 LIG-0.35  N 
ATOM      3  C   LEU E   3      19.833 -15.316  -1.819  1.00 20.37 LIG 0.24  C 
ATOM      4 O    LEU E   3      20.706 -14.466  -1.590  1.00 19.26 LIG-0.27  OA
ATOM      5 H    LEU E   4      19.284 -17.155  -1.568  1.00 20.57 LIG 0.16  HD
BRANCH 3 6
ATOM      6  CA  LEU E   3      18.545 -14.894  -2.530  1.00 20.55 LIG 0.18  C 
BRANCH 6 7
ATOM      7  N   LEU E   3      18.112 -15.733  -3.622  1.00 20.86 LIG-0.35  N 
ATOM      8  C   THR E   2      17.663 -16.963  -3.387  1.00 24.34 LIG 0.24  C 
ATOM      9 O    THR E   2      17.421 -17.380  -2.245  1.00 23.87 LIG-0.27  OA
ATOM     10 H    LEU E   3      18.171 -15.374  -4.401  1.00 20.86 LIG 0.16  HD
BRANCH 8 11
ATOM     11  CA  THR E   2      17.446 -17.840  -4.592  1.00 25.18 LIG 0.20  C 
BRANCH 11 12
ATOM     12  N   THR E   2      18.567 -18.783  -4.682  1.00 26.55 LIG-0.34  N 
ATOM     13  C   GLU E   1      19.630 -18.554  -5.443  1.00 27.17 LIG 0.25  C 
ATOM     14 O    GLU E   1      19.712 -17.604  -6.230  1.00 25.74 LIG-0.27  OA
ATOM     15 H    THR E   2      18.470 -19.489  -4.201  1.00 26.55 LIG 0.16  HD
BRANCH 13 16
ATOM     16  CA  GLU E   1      20.766 -19.573  -5.356  1.00 31.71 LIG 0.28  C 
BRANCH 16 17
ATOM     17  N   GLU E   1      21.204 -19.868  -6.737  1.00 33.09 LIG-0.07  N 
ATOM     18 H3   GLU E   1      21.685 -20.616  -6.743  1.00 33.09 LIG 0.28  HD
ATOM     19 H2   GLU E   1      21.701 -19.195  -7.041  1.00 33.09 LIG 0.28  HD
ATOM     20 H1   GLU E   1      20.491 -19.970  -7.260  1.00 33.09 LIG 0.28  HD
ENDBRANCH 16 17
BRANCH 16 21
ATOM     21  CB  GLU E   1      21.929 -19.008  -4.526  1.00 32.36 LIG 0.05  C 
BRANCH 21 22
ATOM     22  CG  GLU E   1      22.260 -17.564  -4.869  1.00 32.63 LIG 0.12  C 
BRANCH 22 23
ATOM     23  CD  GLU E   1      22.950 -17.385  -6.216  1.00 33.25 LIG 0.17  C 
ATOM     24 OE2  GLU E   1      24.083 -16.852  -6.233  1.00 34.04 LIG-0.65  OA
ATOM     25 OE1  GLU E   1      22.377 -17.760  -7.259  1.00 33.29 LIG-0.65  OA
ENDBRANCH 22 23
ENDBRANCH 21 22
ENDBRANCH 16 21
ENDBRANCH 13 16
ENDBRANCH 11 12
BRANCH 11 26
ATOM     26  CB  THR E   2      16.099 -18.577  -4.485  1.00 27.29 LIG 0.15  C 
ATOM     27  CG2 THR E   2      15.927 -19.512  -5.627  1.00 26.73 LIG 0.04  C 
BRANCH 26 28
ATOM     28 OG1  THR E   2      16.095 -19.330  -3.264  1.00 28.79 LIG-0.39  OA
ATOM     29 HG1  THR E   2      15.989 -18.809  -2.614  1.00 28.79 LIG 0.21  HD
ENDBRANCH 26 28
ENDBRANCH 11 26
ENDBRANCH 8 11
ENDBRANCH 6 7
BRANCH 6 30
ATOM     30  CB  LEU E   3      17.399 -14.775  -1.504  1.00 20.98 LIG 0.04  C 
BRANCH 30 31
ATOM     31  CG  LEU E   3      16.569 -13.504  -1.554  1.00 22.16 LIG-0.02  C 
ATOM     32  CD2 LEU E   3      15.089 -13.734  -1.389  1.00 24.43 LIG 0.01  C 
ATOM     33  CD1 LEU E   3      16.874 -12.787  -2.857  1.00 21.08 LIG 0.01  C 
ENDBRANCH 30 31
ENDBRANCH 6 30
ENDBRANCH 3 6
ENDBRANCH 1 2
BRANCH 1 34
ATOM     34  C   LEU E   4      21.173 -18.606  -1.181  1.00 22.59 LIG 0.24  C 
ATOM     35 O    LEU E   4      20.178 -19.232  -1.522  1.00 22.01 LIG-0.27  OA
ATOM     36  N   ASP E   5      22.397 -19.117  -1.187  1.00 23.28 LIG-0.35  N 
ATOM     37 H    ASP E   5      23.103 -18.666  -0.992  1.00 23.28 LIG 0.16  HD
BRANCH 36 38
ATOM     38  CA  ASP E   5      22.657 -20.535  -1.535  1.00 26.12 LIG 0.19  C 
BRANCH 38 39
ATOM     39  CB  ASP E   5      24.041 -20.679  -2.156  1.00 27.88 LIG 0.15  C 
BRANCH 39 40
ATOM     40  CG  ASP E   5      24.067 -21.637  -3.364  1.00 30.83 LIG 0.17  C 
ATOM     41 OD1  ASP E   5      25.028 -22.406  -3.551  1.00 34.24 LIG-0.65  OA
ATOM     42 OD2  ASP E   5      23.087 -21.598  -4.120  1.00 35.63 LIG-0.65  OA
ENDBRANCH 39 40
ENDBRANCH 38 39
BRANCH 38 43
ATOM     43  C   ASP E   5      22.556 -21.372  -0.274  1.00 25.92 LIG 0.24  C 
ATOM     44 O    ASP E   5      22.020 -22.489  -0.307  1.00 27.30 LIG-0.27  OA
ATOM     45  N   LEU E   6      23.105 -20.855   0.815  1.00 28.24 LIG-0.35  N 
ATOM     46 H    LEU E   6      23.496 -20.089   0.835  1.00 28.24 LIG 0.16  HD
BRANCH 45 47
ATOM     47  CA  LEU E   6      23.092 -21.561   2.108  1.00 31.78 LIG 0.18  C 
BRANCH 47 48
ATOM     48  CB  LEU E   6      21.701 -22.155   2.394  1.00 30.53 LIG 0.04  C 
BRANCH 48 49
ATOM     49  CG  LEU E   6      21.151 -21.820   3.784  1.00 30.12 LIG-0.02  C 
ATOM     50  CD1 LEU E   6      21.078 -20.322   4.024  1.00 29.14 LIG 0.01  C 
ATOM     51  CD2 LEU E   6      19.782 -22.464   4.002  1.00 31.89 LIG 0.01  C 
ENDBRANCH 48 49
ENDBRANCH 47 48
BRANCH 47 52
ATOM     52  C   LEU E   6      24.155 -22.655   2.190  1.00 36.88 LIG 0.24  C 
ATOM     53 O    LEU E   6      24.815 -22.779   3.233  1.00 37.54 LIG-0.27  OA
ATOM     54  N   ASP E   7      24.317 -23.418   1.105  1.00 40.21 LIG-0.35  N 
ATOM     55 H    ASP E   7      23.798 -23.376   0.420  1.00 40.21 LIG 0.16  HD
BRANCH 54 56
ATOM     56  CA  ASP E   7      25.391 -24.403   0.968  1.00 48.33 LIG 0.17  C 
BRANCH 56 57
ATOM     57  CB  ASP E   7      24.798 -25.793   0.811  1.00 51.73 LIG 0.15  C 
BRANCH 57 58
ATOM     58  CG  ASP E   7      25.664 -26.869   1.440  1.00 58.06 LIG 0.17  C 
ATOM     59 OD2  ASP E   7      25.355 -28.062   1.236  1.00 65.10 LIG-0.65  OA
ATOM     60 OD1  ASP E   7      26.657 -26.534   2.129  1.00 65.94 LIG-0.65  OA
ENDBRANCH 57 58
ENDBRANCH 56 57
BRANCH 56 61
ATOM     61  C   ASP E   7      26.288 -24.095  -0.222  1.00 49.55 LIG 0.22  C 
ATOM     62 O    ASP E   7      26.502 -22.928  -0.549  1.00 55.15 LIG-0.29  OA
ENDBRANCH 56 61
ENDBRANCH 54 56
ENDBRANCH 47 52
ENDBRANCH 45 47
ENDBRANCH 38 43
ENDBRANCH 36 38
ENDBRANCH 1 34
BRANCH 1 63
ATOM     63  CB  LEU E   4      20.825 -17.075   0.776  1.00 22.63 LIG 0.04  C 
BRANCH 63 64
ATOM     64  CG  LEU E   4      21.991 -16.769   1.710  1.00 23.40 LIG-0.02  C 
ATOM     65  CD2 LEU E   4      23.278 -17.350   1.125  1.00 23.91 LIG 0.01  C 
ATOM     66  CD1 LEU E   4      21.746 -17.292   3.112  1.00 22.51 LIG 0.01  C 
ENDBRANCH 63 64
ENDBRANCH 1 63
TORSDOF 29
ENDMDL
MODEL 32
USER: ADFR SOLUTION from run 149
USER: SCORE 21.569949 LL:  -5.519 LR: -17.618 RR:   0.000 FEB:  -8.967
USER: RMSD 3.692501
USER: SEED 148
USER: STATUS no improvement in best in 8 clusters for 5 generations
USER: GENES 31
USER: genes 0 Translation |==|  0.62130 0.62721 0.69193
USER: genes 1 Rotation |==|  0.56001 0.33716 0.45986 0.96719
USER: genes 2 Torsion [CB]-CA--N-[C] |==|  0.90326
USER: genes 3 Torsion [N]-C--CA-[N] |==|  0.32783
USER: genes 4 Torsion [C]-CA--N-[C] |==|  0.85676
USER: genes 5 Torsion [N]-C--CA-[N] |==|  0.97537
USER: genes 6 Torsion [C]-CA--N-[C] |==|  0.81892
USER: genes 7 Torsion [N]-C--CA-[N] |==|  0.90701
USER: genes 8 Torsion [C]-CA--N-[H3] |==|  0.60790
USER: genes 9 Torsion [C]-CA--CB-[CG] |==|  0.12567
USER: genes 10 Torsion [CA]-CB--CG-[CD] |==|  0.21007
USER: genes 11 Torsion [CB]-CG--CD-[OE2] |==|  0.24296
USER: genes 12 Torsion [C]-CA--CB-[CG2] |==|  0.23092
USER: genes 13 Torsion [CA]-CB--OG1-[HG1] |==|  0.46314
USER: genes 14 Torsion [C]-CA--CB-[CG] |==|  0.64813
USER: genes 15 Torsion [CA]-CB--CG-[CD2] |==|  0.57605
USER: genes 16 Torsion [N]-CA--C-[N] |==|  0.84327
USER: genes 17 Torsion [C]-N--CA-[CB] |==|  0.87036
USER: genes 18 Torsion [N]-CA--CB-[CG] |==|  0.57510
USER: genes 19 Torsion [CA]-CB--CG-[OD1] |==|  0.70910
USER: genes 20 Torsion [N]-CA--C-[N] |==|  0.89804
USER: genes 21 Torsion [C]-N--CA-[CB] |==|  0.86660
USER: genes 22 Torsion [N]-CA--CB-[CG] |==|  0.89266
USER: genes 23 Torsion [CA]-CB--CG-[CD2] |==|  0.69820
USER: genes 24 Torsion [N]-CA--C-[N] |==|  0.89273
USER: genes 25 Torsion [C]-N--CA-[CB] |==|  0.29325
USER: genes 26 Torsion [N]-CA--CB-[CG] |==|  0.60796
USER: genes 27 Torsion [CA]-CB--CG-[OD2] |==|  0.49017
USER: genes 28 Torsion [N]-CA--C-[O] |==|  0.17255
USER: genes 29 Torsion [N]-CA--CB-[CG] |==|  0.54357
USER: genes 30 Torsion [CA]-CB--CG-[CD2] |==|  0.13262
ROOT
ATOM      1  CA  LEU E   4      22.403 -17.644   1.373  1.00 22.51 LIG 0.18  C 
ENDROOT
BRANCH 1 2
ATOM      2  N   LEU E   4      21.954 -16.835   0.269  1.00 20.57 LIG-0.35  N 
ATOM      3  C   LEU E   3      20.718 -16.861  -0.221  1.00 20.37 LIG 0.24  C 
ATOM      4 O    LEU E   3      19.827 -17.620   0.189  1.00 19.26 LIG-0.27  OA
ATOM      5 H    LEU E   4      22.570 -16.325  -0.050  1.00 20.57 LIG 0.16  HD
BRANCH 3 6
ATOM      6  CA  LEU E   3      20.427 -15.937  -1.407  1.00 20.55 LIG 0.18  C 
BRANCH 6 7
ATOM      7  N   LEU E   3      20.035 -16.580  -2.638  1.00 20.86 LIG-0.35  N 
ATOM      8  C   THR E   2      20.770 -17.565  -3.145  1.00 24.34 LIG 0.24  C 
ATOM      9 O    THR E   2      21.697 -18.098  -2.520  1.00 23.87 LIG-0.27  OA
ATOM     10 H    LEU E   3      19.313 -16.276  -2.993  1.00 20.86 LIG 0.16  HD
BRANCH 8 11
ATOM     11  CA  THR E   2      20.413 -18.023  -4.536  1.00 25.18 LIG 0.20  C 
BRANCH 11 12
ATOM     12  N   THR E   2      19.154 -17.374  -4.923  1.00 26.55 LIG-0.34  N 
ATOM     13  C   GLU E   1      18.006 -17.622  -4.304  1.00 27.17 LIG 0.25  C 
ATOM     14 O    GLU E   1      17.872 -18.501  -3.445  1.00 25.74 LIG-0.27  OA
ATOM     15 H    THR E   2      19.231 -16.826  -5.582  1.00 26.55 LIG 0.16  HD
BRANCH 13 16
ATOM     16  CA  GLU E   1      16.799 -16.795  -4.746  1.00 31.71 LIG 0.28  C 
BRANCH 16 17
ATOM     17  N   GLU E   1      17.295 -15.454  -5.122  1.00 33.09 LIG-0.07  N 
ATOM     18 H3   GLU E   1      16.717 -14.835  -4.849  1.00 33.09 LIG 0.28  HD
ATOM     19 H2   GLU E   1      17.382 -15.407  -6.007  1.00 33.09 LIG 0.28  HD
ATOM     20 H1   GLU E   1      18.085 -15.311  -4.739  1.00 33.09 LIG 0.28  HD
ENDBRANCH 16 17
BRANCH 16 21
ATOM     21  CB  GLU E   1      16.096 -17.467  -5.934  1.00 32.36 LIG 0.05  C 
BRANCH 21 22
ATOM     22  CG  GLU E   1      15.907 -18.964  -5.747  1.00 32.63 LIG 0.12  C 
BRANCH 22 23
ATOM     23  CD  GLU E   1      14.789 -19.337  -4.781  1.00 33.25 LIG 0.17  C 
ATOM     24 OE2  GLU E   1      13.627 -19.448  -5.236  1.00 34.04 LIG-0.65  OA
ATOM     25 OE1  GLU E   1      15.047 -19.515  -3.573  1.00 33.29 LIG-0.65  OA
ENDBRANCH 22 23
ENDBRANCH 21 22
ENDBRANCH 16 21
ENDBRANCH 13 16
ENDBRANCH 11 12
BRANCH 11 26
ATOM     26  CB  THR E   2      21.546 -17.683  -5.520  1.00 27.29 LIG 0.15  C 
ATOM     27  CG2 THR E   2      22.602 -18.728  -5.475  1.00 26.73 LIG 0.04  C 
BRANCH 26 28
ATOM     28 OG1  THR E   2      20.993 -17.639  -6.843  1.00 28.79 LIG-0.39  OA
ATOM     29 HG1  THR E   2      21.545 -17.283  -7.366  1.00 28.79 LIG 0.21  HD
ENDBRANCH 26 28
ENDBRANCH 11 26
ENDBRANCH 8 11
ENDBRANCH 6 7
BRANCH 6 30
ATOM     30  CB  LEU E   3      19.348 -14.907  -1.013  1.00 20.98 LIG 0.04  C 
BRANCH 30 31
ATOM     31  CG  LEU E   3      18.136 -14.809  -1.921  1.00 22.16 LIG-0.02  C 
ATOM     32  CD2 LEU E   3      17.475 -13.455  -1.915  1.00 24.43 LIG 0.01  C 
ATOM     33  CD1 LEU E   3      17.157 -15.901  -1.528  1.00 21.08 LIG 0.01  C 
ENDBRANCH 30 31
ENDBRANCH 6 30
ENDBRANCH 3 6
ENDBRANCH 1 2
BRANCH 1 34
ATOM     34  C   LEU E   4      22.819 -19.001   0.806  1.00 22.59 LIG 0.24  C 
ATOM     35 O    LEU E   4      23.944 -19.434   1.017  1.00 22.01 LIG-0.27  OA
ATOM     36  N   ASP E   5      21.900 -19.658   0.111  1.00 23.28 LIG-0.35  N 
ATOM     37 H    ASP E   5      21.095 -19.377   0.000  1.00 23.28 LIG 0.16  HD
BRANCH 36 38
ATOM     38  CA  ASP E   5      22.187 -20.956  -0.546  1.00 26.12 LIG 0.19  C 
BRANCH 38 39
ATOM     39  CB  ASP E   5      23.504 -20.880  -1.308  1.00 27.88 LIG 0.15  C 
BRANCH 39 40
ATOM     40  CG  ASP E   5      23.572 -21.854  -2.501  1.00 30.83 LIG 0.17  C 
ATOM     41 OD1  ASP E   5      24.248 -22.897  -2.440  1.00 34.24 LIG-0.65  OA
ATOM     42 OD2  ASP E   5      22.918 -21.541  -3.506  1.00 35.63 LIG-0.65  OA
ENDBRANCH 39 40
ENDBRANCH 38 39
BRANCH 38 43
ATOM     43  C   ASP E   5      22.254 -22.035   0.517  1.00 25.92 LIG 0.24  C 
ATOM     44 O    ASP E   5      21.854 -23.181   0.270  1.00 27.30 LIG-0.27  OA
ATOM     45  N   LEU E   6      22.797 -21.683   1.673  1.00 28.24 LIG-0.35  N 
ATOM     46 H    LEU E   6      23.095 -20.893   1.839  1.00 28.24 LIG 0.16  HD
BRANCH 45 47
ATOM     47  CA  LEU E   6      22.938 -22.630   2.792  1.00 31.78 LIG 0.18  C 
BRANCH 47 48
ATOM     48  CB  LEU E   6      21.621 -23.385   3.041  1.00 30.53 LIG 0.04  C 
BRANCH 48 49
ATOM     49  CG  LEU E   6      20.365 -22.524   2.880  1.00 30.12 LIG-0.02  C 
ATOM     50  CD1 LEU E   6      19.362 -23.148   1.925  1.00 29.14 LIG 0.01  C 
ATOM     51  CD2 LEU E   6      19.712 -22.245   4.233  1.00 31.89 LIG 0.01  C 
ENDBRANCH 48 49
ENDBRANCH 47 48
BRANCH 47 52
ATOM     52  C   LEU E   6      24.079 -23.623   2.578  1.00 36.88 LIG 0.24  C 
ATOM     53 O    LEU E   6      24.789 -23.945   3.544  1.00 37.54 LIG-0.27  OA
ATOM     54  N   ASP E   7      24.249 -24.086   1.336  1.00 40.21 LIG-0.35  N 
ATOM     55 H    ASP E   7      23.701 -23.920   0.694  1.00 40.21 LIG 0.16  HD
BRANCH 54 56
ATOM     56  CA  ASP E   7      25.384 -24.920   0.937  1.00 48.33 LIG 0.17  C 
BRANCH 56 57
ATOM     57  CB  ASP E   7      24.927 -26.359   0.761  1.00 51.73 LIG 0.15  C 
BRANCH 57 58
ATOM     58  CG  ASP E   7      25.949 -27.360   1.270  1.00 58.06 LIG 0.17  C 
ATOM     59 OD2  ASP E   7      25.648 -28.571   1.236  1.00 65.10 LIG-0.65  OA
ATOM     60 OD1  ASP E   7      27.055 -26.947   1.693  1.00 65.94 LIG-0.65  OA
ENDBRANCH 57 58
ENDBRANCH 56 57
BRANCH 56 61
ATOM     61  C   ASP E   7      26.019 -24.426  -0.354  1.00 49.55 LIG 0.22  C 
ATOM     62 O    ASP E   7      26.524 -23.305  -0.404  1.00 55.15 LIG-0.29  OA
ENDBRANCH 56 61
ENDBRANCH 54 56
ENDBRANCH 47 52
ENDBRANCH 45 47
ENDBRANCH 38 43
ENDBRANCH 36 38
ENDBRANCH 1 34
BRANCH 1 63
ATOM     63  CB  LEU E   4      21.268 -17.822   2.386  1.00 22.63 LIG 0.04  C 
BRANCH 63 64
ATOM     64  CG  LEU E   4      21.566 -18.323   3.796  1.00 23.40 LIG-0.02  C 
ATOM     65  CD2 LEU E   4      22.743 -17.540   4.376  1.00 23.91 LIG 0.01  C 
ATOM     66  CD1 LEU E   4      21.839 -19.814   3.821  1.00 22.51 LIG 0.01  C 
ENDBRANCH 63 64
ENDBRANCH 1 63
TORSDOF 29
ENDMDL
MODEL 33
USER: ADFR SOLUTION from run 41
USER: SCORE 20.882154 LL:  -5.279 LR: -17.606 RR:   0.000 FEB:  -8.956
USER: RMSD 9.346481
USER: SEED 40
USER: STATUS no improvement in best in 3 clusters for 5 generations
USER: GENES 31
USER: genes 0 Translation |==|  0.53333 0.57107 0.72872
USER: genes 1 Rotation |==|  0.56001 0.76246 0.88954 0.66053
USER: genes 2 Torsion [CB]-CA--N-[C] |==|  0.17942
USER: genes 3 Torsion [N]-C--CA-[N] |==|  0.95608
USER: genes 4 Torsion [C]-CA--N-[C] |==|  0.80154
USER: genes 5 Torsion [N]-C--CA-[N] |==|  0.43364
USER: genes 6 Torsion [C]-CA--N-[C] |==|  0.21050
USER: genes 7 Torsion [N]-C--CA-[N] |==|  0.10259
USER: genes 8 Torsion [C]-CA--N-[H3] |==|  0.49065
USER: genes 9 Torsion [C]-CA--CB-[CG] |==|  0.25318
USER: genes 10 Torsion [CA]-CB--CG-[CD] |==|  0.38254
USER: genes 11 Torsion [CB]-CG--CD-[OE2] |==|  0.44431
USER: genes 12 Torsion [C]-CA--CB-[CG2] |==|  0.02533
USER: genes 13 Torsion [CA]-CB--OG1-[HG1] |==|  0.01464
USER: genes 14 Torsion [C]-CA--CB-[CG] |==|  0.78980
USER: genes 15 Torsion [CA]-CB--CG-[CD2] |==|  0.75183
USER: genes 16 Torsion [N]-CA--C-[N] |==|  0.65985
USER: genes 17 Torsion [C]-N--CA-[CB] |==|  0.88286
USER: genes 18 Torsion [N]-CA--CB-[CG] |==|  0.83245
USER: genes 19 Torsion [CA]-CB--CG-[OD1] |==|  0.13570
USER: genes 20 Torsion [N]-CA--C-[N] |==|  0.85727
USER: genes 21 Torsion [C]-N--CA-[CB] |==|  0.84998
USER: genes 22 Torsion [N]-CA--CB-[CG] |==|  0.48066
USER: genes 23 Torsion [CA]-CB--CG-[CD2] |==|  0.63793
USER: genes 24 Torsion [N]-CA--C-[N] |==|  0.36703
USER: genes 25 Torsion [C]-N--CA-[CB] |==|  0.88845
USER: genes 26 Torsion [N]-CA--CB-[CG] |==|  0.41616
USER: genes 27 Torsion [CA]-CB--CG-[OD2] |==|  0.69752
USER: genes 28 Torsion [N]-CA--C-[O] |==|  0.07932
USER: genes 29 Torsion [N]-CA--CB-[CG] |==|  0.11224
USER: genes 30 Torsion [CA]-CB--CG-[CD2] |==|  0.66036
ROOT
ATOM      1  CA  LEU E   4      20.358 -18.950   2.118  1.00 22.51 LIG 0.18  C 
ENDROOT
BRANCH 1 2
ATOM      2  N   LEU E   4      20.735 -20.312   2.395  1.00 20.57 LIG-0.35  N 
ATOM      3  C   LEU E   3      20.709 -20.861   3.606  1.00 20.37 LIG 0.24  C 
ATOM      4 O    LEU E   3      20.402 -20.246   4.638  1.00 19.26 LIG-0.27  OA
ATOM      5 H    LEU E   4      20.983 -20.745   1.694  1.00 20.57 LIG 0.16  HD
BRANCH 3 6
ATOM      6  CA  LEU E   3      21.157 -22.322   3.710  1.00 20.55 LIG 0.18  C 
BRANCH 6 7
ATOM      7  N   LEU E   3      21.223 -23.061   2.472  1.00 20.86 LIG-0.35  N 
ATOM      8  C   THR E   2      20.107 -23.417   1.842  1.00 24.34 LIG 0.24  C 
ATOM      9 O    THR E   2      18.991 -22.991   2.168  1.00 23.87 LIG-0.27  OA
ATOM     10 H    LEU E   3      22.018 -23.238   2.197  1.00 20.86 LIG 0.16  HD
BRANCH 8 11
ATOM     11  CA  THR E   2      20.264 -24.370   0.686  1.00 25.18 LIG 0.20  C 
BRANCH 11 12
ATOM     12  N   THR E   2      18.992 -25.078   0.498  1.00 26.55 LIG-0.34  N 
ATOM     13  C   GLU E   1      17.936 -24.505  -0.067  1.00 27.17 LIG 0.25  C 
ATOM     14 O    GLU E   1      17.889 -23.305  -0.364  1.00 25.74 LIG-0.27  OA
ATOM     15 H    THR E   2      18.997 -25.888   0.785  1.00 26.55 LIG 0.16  HD
BRANCH 13 16
ATOM     16  CA  GLU E   1      16.714 -25.396  -0.294  1.00 31.71 LIG 0.28  C 
BRANCH 16 17
ATOM     17  N   GLU E   1      16.618 -26.315   0.860  1.00 33.09 LIG-0.07  N 
ATOM     18 H3   GLU E   1      15.886 -26.816   0.781  1.00 33.09 LIG 0.28  HD
ATOM     19 H2   GLU E   1      16.573 -25.843   1.613  1.00 33.09 LIG 0.28  HD
ATOM     20 H1   GLU E   1      17.335 -26.841   0.882  1.00 33.09 LIG 0.28  HD
ENDBRANCH 16 17
BRANCH 16 21
ATOM     21  CB  GLU E   1      15.445 -24.541  -0.415  1.00 32.36 LIG 0.05  C 
BRANCH 21 22
ATOM     22  CG  GLU E   1      15.127 -24.144  -1.848  1.00 32.63 LIG 0.12  C 
BRANCH 22 23
ATOM     23  CD  GLU E   1      13.651 -24.249  -2.213  1.00 33.25 LIG 0.17  C 
ATOM     24 OE2  GLU E   1      13.240 -23.602  -3.204  1.00 34.04 LIG-0.65  OA
ATOM     25 OE1  GLU E   1      12.892 -24.961  -1.524  1.00 33.29 LIG-0.65  OA
ENDBRANCH 22 23
ENDBRANCH 21 22
ENDBRANCH 16 21
ENDBRANCH 13 16
ENDBRANCH 11 12
BRANCH 11 26
ATOM     26  CB  THR E   2      20.676 -23.608  -0.586  1.00 27.29 LIG 0.15  C 
ATOM     27  CG2 THR E   2      21.012 -22.198  -0.259  1.00 26.73 LIG 0.04  C 
BRANCH 26 28
ATOM     28 OG1  THR E   2      21.837 -24.246  -1.135  1.00 28.79 LIG-0.39  OA
ATOM     29 HG1  THR E   2      22.010 -24.941  -0.696  1.00 28.79 LIG 0.21  HD
ENDBRANCH 26 28
ENDBRANCH 11 26
ENDBRANCH 8 11
ENDBRANCH 6 7
BRANCH 6 30
ATOM     30  CB  LEU E   3      22.528 -22.397   4.413  1.00 20.98 LIG 0.04  C 
BRANCH 30 31
ATOM     31  CG  LEU E   3      23.739 -21.994   3.591  1.00 22.16 LIG-0.02  C 
ATOM     32  CD2 LEU E   3      24.363 -23.130   2.823  1.00 24.43 LIG 0.01  C 
ATOM     33  CD1 LEU E   3      24.745 -21.336   4.517  1.00 21.08 LIG 0.01  C 
ENDBRANCH 30 31
ENDBRANCH 6 30
ENDBRANCH 3 6
ENDBRANCH 1 2
BRANCH 1 34
ATOM     34  C   LEU E   4      20.424 -18.756   0.603  1.00 22.59 LIG 0.24  C 
ATOM     35 O    LEU E   4      19.746 -19.459  -0.135  1.00 22.01 LIG-0.27  OA
ATOM     36  N   ASP E   5      21.225 -17.793   0.165  1.00 23.28 LIG-0.35  N 
ATOM     37 H    ASP E   5      21.667 -17.268   0.683  1.00 23.28 LIG 0.16  HD
BRANCH 36 38
ATOM     38  CA  ASP E   5      21.431 -17.537  -1.281  1.00 26.12 LIG 0.19  C 
BRANCH 38 39
ATOM     39  CB  ASP E   5      21.578 -18.853  -2.033  1.00 27.88 LIG 0.15  C 
BRANCH 39 40
ATOM     40  CG  ASP E   5      22.776 -19.697  -1.551  1.00 30.83 LIG 0.17  C 
ATOM     41 OD1  ASP E   5      22.962 -19.914  -0.339  1.00 34.24 LIG-0.65  OA
ATOM     42 OD2  ASP E   5      23.525 -20.143  -2.431  1.00 35.63 LIG-0.65  OA
ENDBRANCH 39 40
ENDBRANCH 38 39
BRANCH 38 43
ATOM     43  C   ASP E   5      20.243 -16.757  -1.810  1.00 25.92 LIG 0.24  C 
ATOM     44 O    ASP E   5      20.420 -15.735  -2.489  1.00 27.30 LIG-0.27  OA
ATOM     45  N   LEU E   6      19.048 -17.259  -1.541  1.00 28.24 LIG-0.35  N 
ATOM     46 H    LEU E   6      18.925 -17.980  -1.089  1.00 28.24 LIG 0.16  HD
BRANCH 45 47
ATOM     47  CA  LEU E   6      17.806 -16.614  -2.001  1.00 31.78 LIG 0.18  C 
BRANCH 47 48
ATOM     48  CB  LEU E   6      17.757 -15.141  -1.559  1.00 30.53 LIG 0.04  C 
BRANCH 48 49
ATOM     49  CG  LEU E   6      16.580 -14.352  -2.139  1.00 30.12 LIG-0.02  C 
ATOM     50  CD1 LEU E   6      15.499 -14.096  -1.103  1.00 29.14 LIG 0.01  C 
ATOM     51  CD2 LEU E   6      17.051 -13.036  -2.756  1.00 31.89 LIG 0.01  C 
ENDBRANCH 48 49
ENDBRANCH 47 48
BRANCH 47 52
ATOM     52  C   LEU E   6      17.621 -16.713  -3.515  1.00 36.88 LIG 0.24  C 
ATOM     53 O    LEU E   6      18.567 -16.414  -4.260  1.00 37.54 LIG-0.27  OA
ATOM     54  N   ASP E   7      16.423 -17.115  -3.949  1.00 40.21 LIG-0.35  N 
ATOM     55 H    ASP E   7      15.804 -17.398  -3.423  1.00 40.21 LIG 0.16  HD
BRANCH 54 56
ATOM     56  CA  ASP E   7      16.038 -17.116  -5.362  1.00 48.33 LIG 0.17  C 
BRANCH 56 57
ATOM     57  CB  ASP E   7      16.567 -15.862  -6.039  1.00 51.73 LIG 0.15  C 
BRANCH 57 58
ATOM     58  CG  ASP E   7      16.875 -16.081  -7.508  1.00 58.06 LIG 0.17  C 
ATOM     59 OD2  ASP E   7      18.074 -16.104  -7.857  1.00 65.10 LIG-0.65  OA
ATOM     60 OD1  ASP E   7      15.930 -16.242  -8.318  1.00 65.94 LIG-0.65  OA
ENDBRANCH 57 58
ENDBRANCH 56 57
BRANCH 56 61
ATOM     61  C   ASP E   7      16.563 -18.346  -6.087  1.00 49.55 LIG 0.22  C 
ATOM     62 O    ASP E   7      16.741 -19.397  -5.471  1.00 55.15 LIG-0.29  OA
ENDBRANCH 56 61
ENDBRANCH 54 56
ENDBRANCH 47 52
ENDBRANCH 45 47
ENDBRANCH 38 43
ENDBRANCH 36 38
ENDBRANCH 1 34
BRANCH 1 63
ATOM     63  CB  LEU E   4      21.326 -17.987   2.815  1.00 22.63 LIG 0.04  C 
BRANCH 63 64
ATOM     64  CG  LEU E   4      22.821 -18.286   2.844  1.00 23.40 LIG-0.02  C 
ATOM     65  CD2 LEU E   4      23.298 -18.350   4.295  1.00 23.91 LIG 0.01  C 
ATOM     66  CD1 LEU E   4      23.618 -17.267   2.054  1.00 22.51 LIG 0.01  C 
ENDBRANCH 63 64
ENDBRANCH 1 63
TORSDOF 29
ENDMDL
MODEL 34
USER: ADFR SOLUTION from run 188
USER: SCORE 21.127220 LL:  -5.667 LR: -17.596 RR:   0.000 FEB:  -8.946
USER: RMSD 3.991330
USER: SEED 187
USER: STATUS searching
USER: GENES 31
USER: genes 0 Translation |==|  0.59848 0.63170 0.65043
USER: genes 1 Rotation |==|  0.52275 0.43236 0.45039 0.99239
USER: genes 2 Torsion [CB]-CA--N-[C] |==|  0.83481
USER: genes 3 Torsion [N]-C--CA-[N] |==|  0.46088
USER: genes 4 Torsion [C]-CA--N-[C] |==|  0.71214
USER: genes 5 Torsion [N]-C--CA-[N] |==|  0.34499
USER: genes 6 Torsion [C]-CA--N-[C] |==|  0.77451
USER: genes 7 Torsion [N]-C--CA-[N] |==|  0.69235
USER: genes 8 Torsion [C]-CA--N-[H3] |==|  0.41976
USER: genes 9 Torsion [C]-CA--CB-[CG] |==|  0.75500
USER: genes 10 Torsion [CA]-CB--CG-[CD] |==|  0.76497
USER: genes 11 Torsion [CB]-CG--CD-[OE2] |==|  0.71979
USER: genes 12 Torsion [C]-CA--CB-[CG2] |==|  0.12590
USER: genes 13 Torsion [CA]-CB--OG1-[HG1] |==|  0.59742
USER: genes 14 Torsion [C]-CA--CB-[CG] |==|  0.53457
USER: genes 15 Torsion [CA]-CB--CG-[CD2] |==|  0.22884
USER: genes 16 Torsion [N]-CA--C-[N] |==|  0.36550
USER: genes 17 Torsion [C]-N--CA-[CB] |==|  0.44444
USER: genes 18 Torsion [N]-CA--CB-[CG] |==|  0.62826
USER: genes 19 Torsion [CA]-CB--CG-[OD1] |==|  0.08840
USER: genes 20 Torsion [N]-CA--C-[N] |==|  0.98622
USER: genes 21 Torsion [C]-N--CA-[CB] |==|  0.84423
USER: genes 22 Torsion [N]-CA--CB-[CG] |==|  0.78164
USER: genes 23 Torsion [CA]-CB--CG-[CD2] |==|  0.78013
USER: genes 24 Torsion [N]-CA--C-[N] |==|  0.45542
USER: genes 25 Torsion [C]-N--CA-[CB] |==|  0.86918
USER: genes 26 Torsion [N]-CA--CB-[CG] |==|  0.34014
USER: genes 27 Torsion [CA]-CB--CG-[OD2] |==|  0.19610
USER: genes 28 Torsion [N]-CA--C-[O] |==|  0.96209
USER: genes 29 Torsion [N]-CA--CB-[CG] |==|  0.57476
USER: genes 30 Torsion [CA]-CB--CG-[CD2] |==|  0.01766
ROOT
ATOM      1  CA  LEU E   4      21.873 -17.540   0.532  1.00 22.51 LIG 0.18  C 
ENDROOT
BRANCH 1 2
ATOM      2  N   LEU E   4      21.028 -16.823  -0.388  1.00 20.57 LIG-0.35  N 
ATOM      3  C   LEU E   3      19.773 -17.164  -0.671  1.00 20.37 LIG 0.24  C 
ATOM      4 O    LEU E   3      19.208 -18.166  -0.207  1.00 19.26 LIG-0.27  OA
ATOM      5 H    LEU E   4      21.415 -16.143  -0.745  1.00 20.57 LIG 0.16  HD
BRANCH 3 6
ATOM      6  CA  LEU E   3      19.032 -16.288  -1.684  1.00 20.55 LIG 0.18  C 
BRANCH 6 7
ATOM      7  N   LEU E   3      17.806 -16.828  -2.222  1.00 20.86 LIG-0.35  N 
ATOM      8  C   THR E   2      17.777 -17.332  -3.452  1.00 24.34 LIG 0.24  C 
ATOM      9 O    THR E   2      18.802 -17.533  -4.117  1.00 23.87 LIG-0.27  OA
ATOM     10 H    LEU E   3      17.130 -16.792  -1.691  1.00 20.86 LIG 0.16  HD
BRANCH 8 11
ATOM     11  CA  THR E   2      16.417 -17.666  -4.008  1.00 25.18 LIG 0.20  C 
BRANCH 11 12
ATOM     12  N   THR E   2      16.251 -16.948  -5.278  1.00 26.55 LIG-0.34  N 
ATOM     13  C   GLU E   1      15.894 -15.671  -5.332  1.00 27.17 LIG 0.25  C 
ATOM     14 O    GLU E   1      15.550 -15.017  -4.340  1.00 25.74 LIG-0.27  OA
ATOM     15 H    THR E   2      16.405 -17.429  -5.974  1.00 26.55 LIG 0.16  HD
BRANCH 13 16
ATOM     16  CA  GLU E   1      15.864 -15.027  -6.718  1.00 31.71 LIG 0.28  C 
BRANCH 16 17
ATOM     17  N   GLU E   1      16.973 -14.049  -6.776  1.00 33.09 LIG-0.07  N 
ATOM     18 H3   GLU E   1      17.255 -13.970  -7.616  1.00 33.09 LIG 0.28  HD
ATOM     19 H2   GLU E   1      17.644 -14.330  -6.264  1.00 33.09 LIG 0.28  HD
ATOM     20 H1   GLU E   1      16.687 -13.259  -6.483  1.00 33.09 LIG 0.28  HD
ENDBRANCH 16 17
BRANCH 16 21
ATOM     21  CB  GLU E   1      16.026 -16.096  -7.808  1.00 32.36 LIG 0.05  C 
BRANCH 21 22
ATOM     22  CG  GLU E   1      17.479 -16.381  -8.155  1.00 32.63 LIG 0.12  C 
BRANCH 22 23
ATOM     23  CD  GLU E   1      18.074 -15.425  -9.181  1.00 33.25 LIG 0.17  C 
ATOM     24 OE2  GLU E   1      18.166 -15.814 -10.368  1.00 34.04 LIG-0.65  OA
ATOM     25 OE1  GLU E   1      18.458 -14.292  -8.823  1.00 33.29 LIG-0.65  OA
ENDBRANCH 22 23
ENDBRANCH 21 22
ENDBRANCH 16 21
ENDBRANCH 13 16
ENDBRANCH 11 12
BRANCH 11 26
ATOM     26  CB  THR E   2      16.272 -19.186  -4.199  1.00 27.29 LIG 0.15  C 
ATOM     27  CG2 THR E   2      16.777 -19.909  -3.002  1.00 26.73 LIG 0.04  C 
BRANCH 26 28
ATOM     28 OG1  THR E   2      14.881 -19.487  -4.371  1.00 28.79 LIG-0.39  OA
ATOM     29 HG1  THR E   2      14.708 -20.227  -4.014  1.00 28.79 LIG 0.21  HD
ENDBRANCH 26 28
ENDBRANCH 11 26
ENDBRANCH 8 11
ENDBRANCH 6 7
BRANCH 6 30
ATOM     30  CB  LEU E   3      18.743 -14.906  -1.065  1.00 20.98 LIG 0.04  C 
BRANCH 30 31
ATOM     31  CG  LEU E   3      17.767 -14.014  -1.812  1.00 22.16 LIG-0.02  C 
ATOM     32  CD2 LEU E   3      16.319 -14.320  -1.530  1.00 24.43 LIG 0.01  C 
ATOM     33  CD1 LEU E   3      18.072 -14.114  -3.296  1.00 21.08 LIG 0.01  C 
ENDBRANCH 30 31
ENDBRANCH 6 30
ENDBRANCH 3 6
ENDBRANCH 1 2
BRANCH 1 34
ATOM     34  C   LEU E   4      22.019 -18.966   0.003  1.00 22.59 LIG 0.24  C 
ATOM     35 O    LEU E   4      21.029 -19.591  -0.356  1.00 22.01 LIG-0.27  OA
ATOM     36  N   ASP E   5      23.252 -19.452  -0.053  1.00 23.28 LIG-0.35  N 
ATOM     37 H    ASP E   5      23.953 -18.999   0.155  1.00 23.28 LIG 0.16  HD
BRANCH 36 38
ATOM     38  CA  ASP E   5      23.533 -20.842  -0.488  1.00 26.12 LIG 0.19  C 
BRANCH 38 39
ATOM     39  CB  ASP E   5      24.986 -20.973  -0.925  1.00 27.88 LIG 0.15  C 
BRANCH 39 40
ATOM     40  CG  ASP E   5      25.153 -21.728  -2.259  1.00 30.83 LIG 0.17  C 
ATOM     41 OD1  ASP E   5      24.283 -21.662  -3.147  1.00 34.24 LIG-0.65  OA
ATOM     42 OD2  ASP E   5      26.192 -22.389  -2.391  1.00 35.63 LIG-0.65  OA
ENDBRANCH 39 40
ENDBRANCH 38 39
BRANCH 38 43
ATOM     43  C   ASP E   5      23.243 -21.780   0.667  1.00 25.92 LIG 0.24  C 
ATOM     44 O    ASP E   5      23.357 -23.005   0.520  1.00 27.30 LIG-0.27  OA
ATOM     45  N   LEU E   6      22.915 -21.209   1.816  1.00 28.24 LIG-0.35  N 
ATOM     46 H    LEU E   6      22.857 -20.357   1.925  1.00 28.24 LIG 0.16  HD
BRANCH 45 47
ATOM     47  CA  LEU E   6      22.619 -21.996   3.025  1.00 31.78 LIG 0.18  C 
BRANCH 47 48
ATOM     48  CB  LEU E   6      21.489 -23.006   2.758  1.00 30.53 LIG 0.04  C 
BRANCH 48 49
ATOM     49  CG  LEU E   6      20.085 -22.394   2.770  1.00 30.12 LIG-0.02  C 
ATOM     50  CD1 LEU E   6      19.093 -23.227   1.977  1.00 29.14 LIG 0.01  C 
ATOM     51  CD2 LEU E   6      19.588 -22.186   4.200  1.00 31.89 LIG 0.01  C 
ENDBRANCH 48 49
ENDBRANCH 47 48
BRANCH 47 52
ATOM     52  C   LEU E   6      23.849 -22.718   3.571  1.00 36.88 LIG 0.24  C 
ATOM     53 O    LEU E   6      24.844 -22.852   2.842  1.00 37.54 LIG-0.27  OA
ATOM     54  N   ASP E   7      23.770 -23.179   4.823  1.00 40.21 LIG-0.35  N 
ATOM     55 H    ASP E   7      23.108 -23.008   5.345  1.00 40.21 LIG 0.16  HD
BRANCH 54 56
ATOM     56  CA  ASP E   7      24.799 -24.021   5.436  1.00 48.33 LIG 0.17  C 
BRANCH 56 57
ATOM     57  CB  ASP E   7      25.184 -25.139   4.482  1.00 51.73 LIG 0.15  C 
BRANCH 57 58
ATOM     58  CG  ASP E   7      26.666 -25.139   4.154  1.00 58.06 LIG 0.17  C 
ATOM     59 OD2  ASP E   7      27.463 -25.477   5.054  1.00 65.10 LIG-0.65  OA
ATOM     60 OD1  ASP E   7      27.041 -24.815   3.001  1.00 65.94 LIG-0.65  OA
ENDBRANCH 57 58
ENDBRANCH 56 57
BRANCH 56 61
ATOM     61  C   ASP E   7      26.038 -23.217   5.805  1.00 49.55 LIG 0.22  C 
ATOM     62 O    ASP E   7      26.190 -22.079   5.362  1.00 55.15 LIG-0.29  OA
ENDBRANCH 56 61
ENDBRANCH 54 56
ENDBRANCH 47 52
ENDBRANCH 45 47
ENDBRANCH 38 43
ENDBRANCH 36 38
ENDBRANCH 1 34
BRANCH 1 63
ATOM     63  CB  LEU E   4      21.232 -17.557   1.924  1.00 22.63 LIG 0.04  C 
BRANCH 63 64
ATOM     64  CG  LEU E   4      22.104 -17.676   3.171  1.00 23.40 LIG-0.02  C 
ATOM     65  CD2 LEU E   4      23.577 -17.603   2.771  1.00 23.91 LIG 0.01  C 
ATOM     66  CD1 LEU E   4      21.813 -18.946   3.946  1.00 22.51 LIG 0.01  C 
ENDBRANCH 63 64
ENDBRANCH 1 63
TORSDOF 29
ENDMDL
MODEL 35
USER: ADFR SOLUTION from run 23
USER: SCORE 20.208396 LL:  -5.390 LR: -17.586 RR:   0.000 FEB:  -8.935
USER: RMSD 3.822215
USER: SEED 22
USER: STATUS searching
USER: GENES 31
USER: genes 0 Translation |==|  0.64400 0.58483 0.65996
USER: genes 1 Rotation |==|  0.51007 0.43009 0.43043 0.99007
USER: genes 2 Torsion [CB]-CA--N-[C] |==|  0.87222
USER: genes 3 Torsion [N]-C--CA-[N] |==|  0.27404
USER: genes 4 Torsion [C]-CA--N-[C] |==|  0.79430
USER: genes 5 Torsion [N]-C--CA-[N] |==|  0.02745
USER: genes 6 Torsion [C]-CA--N-[C] |==|  0.74476
USER: genes 7 Torsion [N]-C--CA-[N] |==|  0.81746
USER: genes 8 Torsion [C]-CA--N-[H3] |==|  0.51460
USER: genes 9 Torsion [C]-CA--CB-[CG] |==|  0.38258
USER: genes 10 Torsion [CA]-CB--CG-[CD] |==|  0.01584
USER: genes 11 Torsion [CB]-CG--CD-[OE2] |==|  0.81982
USER: genes 12 Torsion [C]-CA--CB-[CG2] |==|  0.60325
USER: genes 13 Torsion [CA]-CB--OG1-[HG1] |==|  0.80964
USER: genes 14 Torsion [C]-CA--CB-[CG] |==|  0.51644
USER: genes 15 Torsion [CA]-CB--CG-[CD2] |==|  0.85249
USER: genes 16 Torsion [N]-CA--C-[N] |==|  0.29494
USER: genes 17 Torsion [C]-N--CA-[CB] |==|  0.53033
USER: genes 18 Torsion [N]-CA--CB-[CG] |==|  0.39936
USER: genes 19 Torsion [CA]-CB--CG-[OD1] |==|  0.68437
USER: genes 20 Torsion [N]-CA--C-[N] |==|  0.35028
USER: genes 21 Torsion [C]-N--CA-[CB] |==|  0.23405
USER: genes 22 Torsion [N]-CA--CB-[CG] |==|  0.82330
USER: genes 23 Torsion [CA]-CB--CG-[CD2] |==|  0.78916
USER: genes 24 Torsion [N]-CA--C-[N] |==|  0.29500
USER: genes 25 Torsion [C]-N--CA-[CB] |==|  0.39784
USER: genes 26 Torsion [N]-CA--CB-[CG] |==|  0.17943
USER: genes 27 Torsion [CA]-CB--CG-[OD2] |==|  0.21725
USER: genes 28 Torsion [N]-CA--C-[O] |==|  0.30022
USER: genes 29 Torsion [N]-CA--CB-[CG] |==|  0.75994
USER: genes 30 Torsion [CA]-CB--CG-[CD2] |==|  0.15967
ROOT
ATOM      1  CA  LEU E   4      22.931 -18.630   0.725  1.00 22.51 LIG 0.18  C 
ENDROOT
BRANCH 1 2
ATOM      2  N   LEU E   4      22.152 -17.879  -0.225  1.00 20.57 LIG-0.35  N 
ATOM      3  C   LEU E   3      20.826 -17.942  -0.318  1.00 20.37 LIG 0.24  C 
ATOM      4 O    LEU E   3      20.119 -18.689   0.373  1.00 19.26 LIG-0.27  OA
ATOM      5 H    LEU E   4      22.630 -17.379  -0.736  1.00 20.57 LIG 0.16  HD
BRANCH 3 6
ATOM      6  CA  LEU E   3      20.169 -17.079  -1.400  1.00 20.55 LIG 0.18  C 
BRANCH 6 7
ATOM      7  N   LEU E   3      19.824 -17.749  -2.631  1.00 20.86 LIG-0.35  N 
ATOM      8  C   THR E   2      20.772 -18.089  -3.499  1.00 24.34 LIG 0.24  C 
ATOM      9 O    THR E   2      21.979 -18.024  -3.231  1.00 23.87 LIG-0.27  OA
ATOM     10 H    LEU E   3      18.984 -17.898  -2.740  1.00 20.86 LIG 0.16  HD
BRANCH 8 11
ATOM     11  CA  THR E   2      20.305 -18.578  -4.846  1.00 25.18 LIG 0.20  C 
BRANCH 11 12
ATOM     12  N   THR E   2      18.862 -18.332  -4.949  1.00 26.55 LIG-0.34  N 
ATOM     13  C   GLU E   1      17.958 -19.238  -4.595  1.00 27.17 LIG 0.25  C 
ATOM     14 O    GLU E   1      18.246 -20.397  -4.274  1.00 25.74 LIG-0.27  OA
ATOM     15 H    THR E   2      18.660 -17.554  -5.256  1.00 26.55 LIG 0.16  HD
BRANCH 13 16
ATOM     16  CA  GLU E   1      16.494 -18.803  -4.656  1.00 31.71 LIG 0.28  C 
BRANCH 16 17
ATOM     17  N   GLU E   1      16.303 -17.746  -3.640  1.00 33.09 LIG-0.07  N 
ATOM     18 H3   GLU E   1      15.442 -17.525  -3.598  1.00 33.09 LIG 0.28  HD
ATOM     19 H2   GLU E   1      16.781 -17.030  -3.863  1.00 33.09 LIG 0.28  HD
ATOM     20 H1   GLU E   1      16.571 -18.045  -2.845  1.00 33.09 LIG 0.28  HD
ENDBRANCH 16 17
BRANCH 16 21
ATOM     21  CB  GLU E   1      16.149 -18.279  -6.057  1.00 32.36 LIG 0.05  C 
BRANCH 21 22
ATOM     22  CG  GLU E   1      14.798 -18.761  -6.560  1.00 32.63 LIG 0.12  C 
BRANCH 22 23
ATOM     23  CD  GLU E   1      13.994 -19.549  -5.533  1.00 33.25 LIG 0.17  C 
ATOM     24 OE2  GLU E   1      14.450 -20.649  -5.144  1.00 34.04 LIG-0.65  OA
ATOM     25 OE1  GLU E   1      12.911 -19.094  -5.112  1.00 33.29 LIG-0.65  OA
ENDBRANCH 22 23
ENDBRANCH 21 22
ENDBRANCH 16 21
ENDBRANCH 13 16
ENDBRANCH 11 12
BRANCH 11 26
ATOM     26  CB  THR E   2      21.077 -17.869  -5.972  1.00 27.29 LIG 0.15  C 
ATOM     27  CG2 THR E   2      20.180 -17.597  -7.125  1.00 26.73 LIG 0.04  C 
BRANCH 26 28
ATOM     28 OG1  THR E   2      21.568 -16.621  -5.463  1.00 28.79 LIG-0.39  OA
ATOM     29 HG1  THR E   2      20.923 -16.102  -5.323  1.00 28.79 LIG 0.21  HD
ENDBRANCH 26 28
ENDBRANCH 11 26
ENDBRANCH 8 11
ENDBRANCH 6 7
BRANCH 6 30
ATOM     30  CB  LEU E   3      18.910 -16.397  -0.829  1.00 20.98 LIG 0.04  C 
BRANCH 30 31
ATOM     31  CG  LEU E   3      18.056 -15.612  -1.808  1.00 22.16 LIG-0.02  C 
ATOM     32  CD2 LEU E   3      18.822 -14.583  -2.599  1.00 24.43 LIG 0.01  C 
ATOM     33  CD1 LEU E   3      16.912 -14.976  -1.039  1.00 21.08 LIG 0.01  C 
ENDBRANCH 30 31
ENDBRANCH 6 30
ENDBRANCH 3 6
ENDBRANCH 1 2
BRANCH 1 34
ATOM     34  C   LEU E   4      22.953 -20.083   0.254  1.00 22.59 LIG 0.24  C 
ATOM     35 O    LEU E   4      21.949 -20.776   0.358  1.00 22.01 LIG-0.27  OA
ATOM     36  N   ASP E   5      24.090 -20.516  -0.274  1.00 23.28 LIG-0.35  N 
ATOM     37 H    ASP E   5      24.782 -20.018  -0.391  1.00 23.28 LIG 0.16  HD
BRANCH 36 38
ATOM     38  CA  ASP E   5      24.270 -21.920  -0.716  1.00 26.12 LIG 0.19  C 
BRANCH 38 39
ATOM     39  CB  ASP E   5      25.737 -22.191  -1.023  1.00 27.88 LIG 0.15  C 
BRANCH 39 40
ATOM     40  CG  ASP E   5      26.188 -23.612  -0.629  1.00 30.83 LIG 0.17  C 
ATOM     41 OD1  ASP E   5      27.015 -23.793   0.283  1.00 34.24 LIG-0.65  OA
ATOM     42 OD2  ASP E   5      25.678 -24.547  -1.262  1.00 35.63 LIG-0.65  OA
ENDBRANCH 39 40
ENDBRANCH 38 39
BRANCH 38 43
ATOM     43  C   ASP E   5      23.782 -22.842   0.384  1.00 25.92 LIG 0.24  C 
ATOM     44 O    ASP E   5      24.194 -22.703   1.544  1.00 27.30 LIG-0.27  OA
ATOM     45  N   LEU E   6      22.880 -23.745   0.031  1.00 28.24 LIG-0.35  N 
ATOM     46 H    LEU E   6      22.577 -23.829  -0.769  1.00 28.24 LIG 0.16  HD
BRANCH 45 47
ATOM     47  CA  LEU E   6      22.309 -24.699   0.997  1.00 31.78 LIG 0.18  C 
BRANCH 47 48
ATOM     48  CB  LEU E   6      21.131 -24.068   1.760  1.00 30.53 LIG 0.04  C 
BRANCH 48 49
ATOM     49  CG  LEU E   6      21.518 -22.869   2.630  1.00 30.12 LIG-0.02  C 
ATOM     50  CD1 LEU E   6      20.321 -21.995   2.964  1.00 29.14 LIG 0.01  C 
ATOM     51  CD2 LEU E   6      22.223 -23.321   3.908  1.00 31.89 LIG 0.01  C 
ENDBRANCH 48 49
ENDBRANCH 47 48
BRANCH 47 52
ATOM     52  C   LEU E   6      21.867 -26.006   0.339  1.00 36.88 LIG 0.24  C 
ATOM     53 O    LEU E   6      20.832 -26.017  -0.345  1.00 37.54 LIG-0.27  OA
ATOM     54  N   ASP E   7      22.635 -27.078   0.555  1.00 40.21 LIG-0.35  N 
ATOM     55 H    ASP E   7      23.392 -27.039   0.961  1.00 40.21 LIG 0.16  HD
BRANCH 54 56
ATOM     56  CA  ASP E   7      22.269 -28.428   0.124  1.00 48.33 LIG 0.17  C 
BRANCH 56 57
ATOM     57  CB  ASP E   7      23.511 -29.176  -0.333  1.00 51.73 LIG 0.15  C 
BRANCH 57 58
ATOM     58  CG  ASP E   7      24.501 -29.403   0.795  1.00 58.06 LIG 0.17  C 
ATOM     59 OD2  ASP E   7      24.263 -30.324   1.604  1.00 65.10 LIG-0.65  OA
ATOM     60 OD1  ASP E   7      25.520 -28.676   0.874  1.00 65.94 LIG-0.65  OA
ENDBRANCH 57 58
ENDBRANCH 56 57
BRANCH 56 61
ATOM     61  C   ASP E   7      21.586 -29.208   1.238  1.00 49.55 LIG 0.22  C 
ATOM     62 O    ASP E   7      20.379 -29.443   1.178  1.00 55.15 LIG-0.29  OA
ENDBRANCH 56 61
ENDBRANCH 54 56
ENDBRANCH 47 52
ENDBRANCH 45 47
ENDBRANCH 38 43
ENDBRANCH 36 38
ENDBRANCH 1 34
BRANCH 1 63
ATOM     63  CB  LEU E   4      22.292 -18.536   2.115  1.00 22.63 LIG 0.04  C 
BRANCH 63 64
ATOM     64  CG  LEU E   4      22.628 -17.371   3.040  1.00 23.40 LIG-0.02  C 
ATOM     65  CD2 LEU E   4      22.291 -16.054   2.342  1.00 23.91 LIG 0.01  C 
ATOM     66  CD1 LEU E   4      24.079 -17.398   3.480  1.00 22.51 LIG 0.01  C 
ENDBRANCH 63 64
ENDBRANCH 1 63
TORSDOF 29
ENDMDL
MODEL 36
USER: ADFR SOLUTION from run 95
USER: SCORE 21.481058 LL:  -6.907 LR: -17.588 RR:   0.000 FEB:  -8.938
USER: RMSD 4.715981
USER: SEED 94
USER: STATUS no improvement in best in 2 clusters for 5 generations
USER: GENES 31
USER: genes 0 Translation |==|  0.61408 0.60392 0.64966
USER: genes 1 Rotation |==|  0.38345 0.44661 0.29588 0.93807
USER: genes 2 Torsion [CB]-CA--N-[C] |==|  0.86105
USER: genes 3 Torsion [N]-C--CA-[N] |==|  0.20802
USER: genes 4 Torsion [C]-CA--N-[C] |==|  0.77550
USER: genes 5 Torsion [N]-C--CA-[N] |==|  0.97575
USER: genes 6 Torsion [C]-CA--N-[C] |==|  0.72802
USER: genes 7 Torsion [N]-C--CA-[N] |==|  0.71251
USER: genes 8 Torsion [C]-CA--N-[H3] |==|  0.13390
USER: genes 9 Torsion [C]-CA--CB-[CG] |==|  0.39609
USER: genes 10 Torsion [CA]-CB--CG-[CD] |==|  0.14575
USER: genes 11 Torsion [CB]-CG--CD-[OE2] |==|  0.85545
USER: genes 12 Torsion [C]-CA--CB-[CG2] |==|  0.63592
USER: genes 13 Torsion [CA]-CB--OG1-[HG1] |==|  0.86203
USER: genes 14 Torsion [C]-CA--CB-[CG] |==|  0.74012
USER: genes 15 Torsion [CA]-CB--CG-[CD2] |==|  0.70229
USER: genes 16 Torsion [N]-CA--C-[N] |==|  0.06720
USER: genes 17 Torsion [C]-N--CA-[CB] |==|  0.49447
USER: genes 18 Torsion [N]-CA--CB-[CG] |==|  0.61634
USER: genes 19 Torsion [CA]-CB--CG-[OD1] |==|  0.30208
USER: genes 20 Torsion [N]-CA--C-[N] |==|  0.30595
USER: genes 21 Torsion [C]-N--CA-[CB] |==|  0.87596
USER: genes 22 Torsion [N]-CA--CB-[CG] |==|  0.79456
USER: genes 23 Torsion [CA]-CB--CG-[CD2] |==|  0.62726
USER: genes 24 Torsion [N]-CA--C-[N] |==|  0.37031
USER: genes 25 Torsion [C]-N--CA-[CB] |==|  0.81704
USER: genes 26 Torsion [N]-CA--CB-[CG] |==|  0.59752
USER: genes 27 Torsion [CA]-CB--CG-[OD2] |==|  0.89064
USER: genes 28 Torsion [N]-CA--C-[O] |==|  0.49156
USER: genes 29 Torsion [N]-CA--CB-[CG] |==|  0.51455
USER: genes 30 Torsion [CA]-CB--CG-[CD2] |==|  0.41018
ROOT
ATOM      1  CA  LEU E   4      22.235 -18.186   0.517  1.00 22.51 LIG 0.18  C 
ENDROOT
BRANCH 1 2
ATOM      2  N   LEU E   4      21.806 -17.498  -0.674  1.00 20.57 LIG-0.35  N 
ATOM      3  C   LEU E   3      20.656 -16.839  -0.782  1.00 20.37 LIG 0.24  C 
ATOM      4 O    LEU E   3      19.804 -16.783   0.117  1.00 19.26 LIG-0.27  OA
ATOM      5 H    LEU E   4      22.372 -17.554  -1.321  1.00 20.57 LIG 0.16  HD
BRANCH 3 6
ATOM      6  CA  LEU E   3      20.364 -16.178  -2.133  1.00 20.55 LIG 0.18  C 
BRANCH 6 7
ATOM      7  N   LEU E   3      19.974 -17.061  -3.206  1.00 20.86 LIG-0.35  N 
ATOM      8  C   THR E   2      20.895 -17.738  -3.887  1.00 24.34 LIG 0.24  C 
ATOM      9 O    THR E   2      22.081 -17.794  -3.535  1.00 23.87 LIG-0.27  OA
ATOM     10 H    LEU E   3      19.128 -17.103  -3.353  1.00 20.86 LIG 0.16  HD
BRANCH 8 11
ATOM     11  CA  THR E   2      20.421 -18.456  -5.125  1.00 25.18 LIG 0.20  C 
BRANCH 11 12
ATOM     12  N   THR E   2      18.956 -18.391  -5.161  1.00 26.55 LIG-0.34  N 
ATOM     13  C   GLU E   1      18.188 -19.389  -4.738  1.00 27.17 LIG 0.25  C 
ATOM     14 O    GLU E   1      18.632 -20.493  -4.402  1.00 25.74 LIG-0.27  OA
ATOM     15 H    THR E   2      18.645 -17.654  -5.478  1.00 26.55 LIG 0.16  HD
BRANCH 13 16
ATOM     16  CA  GLU E   1      16.680 -19.139  -4.737  1.00 31.71 LIG 0.28  C 
BRANCH 16 17
ATOM     17  N   GLU E   1      16.275 -18.889  -3.337  1.00 33.09 LIG-0.07  N 
ATOM     18 H3   GLU E   1      16.824 -18.293  -2.969  1.00 33.09 LIG 0.28  HD
ATOM     19 H2   GLU E   1      16.313 -19.650  -2.876  1.00 33.09 LIG 0.28  HD
ATOM     20 H1   GLU E   1      15.442 -18.574  -3.320  1.00 33.09 LIG 0.28  HD
ENDBRANCH 16 17
BRANCH 16 21
ATOM     21  CB  GLU E   1      16.337 -17.934  -5.625  1.00 32.36 LIG 0.05  C 
BRANCH 21 22
ATOM     22  CG  GLU E   1      15.040 -18.113  -6.399  1.00 32.63 LIG 0.12  C 
BRANCH 22 23
ATOM     23  CD  GLU E   1      13.845 -18.497  -5.534  1.00 33.25 LIG 0.17  C 
ATOM     24 OE2  GLU E   1      13.963 -19.477  -4.764  1.00 34.04 LIG-0.65  OA
ATOM     25 OE1  GLU E   1      12.787 -17.840  -5.615  1.00 33.29 LIG-0.65  OA
ENDBRANCH 22 23
ENDBRANCH 21 22
ENDBRANCH 16 21
ENDBRANCH 13 16
ENDBRANCH 11 12
BRANCH 11 26
ATOM     26  CB  THR E   2      21.043 -17.824  -6.383  1.00 27.29 LIG 0.15  C 
ATOM     27  CG2 THR E   2      19.994 -17.557  -7.401  1.00 26.73 LIG 0.04  C 
BRANCH 26 28
ATOM     28 OG1  THR E   2      21.652 -16.581  -6.007  1.00 28.79 LIG-0.39  OA
ATOM     29 HG1  THR E   2      21.107 -16.125  -5.560  1.00 28.79 LIG 0.21  HD
ENDBRANCH 26 28
ENDBRANCH 11 26
ENDBRANCH 8 11
ENDBRANCH 6 7
BRANCH 6 30
ATOM     30  CB  LEU E   3      19.283 -15.093  -1.958  1.00 20.98 LIG 0.04  C 
BRANCH 30 31
ATOM     31  CG  LEU E   3      17.846 -15.515  -2.205  1.00 22.16 LIG-0.02  C 
ATOM     32  CD2 LEU E   3      17.264 -14.983  -3.489  1.00 24.43 LIG 0.01  C 
ATOM     33  CD1 LEU E   3      17.014 -15.096  -1.007  1.00 21.08 LIG 0.01  C 
ENDBRANCH 30 31
ENDBRANCH 6 30
ENDBRANCH 3 6
ENDBRANCH 1 2
BRANCH 1 34
ATOM     34  C   LEU E   4      21.334 -19.407   0.690  1.00 22.59 LIG 0.24  C 
ATOM     35 O    LEU E   4      21.164 -19.891   1.801  1.00 22.01 LIG-0.27  OA
ATOM     36  N   ASP E   5      20.756 -19.876  -0.409  1.00 23.28 LIG-0.35  N 
ATOM     37 H    ASP E   5      20.837 -19.510  -1.183  1.00 23.28 LIG 0.16  HD
BRANCH 36 38
ATOM     38  CA  ASP E   5      19.906 -21.091  -0.396  1.00 26.12 LIG 0.19  C 
BRANCH 38 39
ATOM     39  CB  ASP E   5      19.344 -21.355  -1.787  1.00 27.88 LIG 0.15  C 
BRANCH 39 40
ATOM     40  CG  ASP E   5      17.863 -21.783  -1.772  1.00 30.83 LIG 0.17  C 
ATOM     41 OD1  ASP E   5      16.970 -21.017  -2.178  1.00 34.24 LIG-0.65  OA
ATOM     42 OD2  ASP E   5      17.623 -22.920  -1.344  1.00 35.63 LIG-0.65  OA
ENDBRANCH 39 40
ENDBRANCH 38 39
BRANCH 38 43
ATOM     43  C   ASP E   5      20.746 -22.267   0.066  1.00 25.92 LIG 0.24  C 
ATOM     44 O    ASP E   5      21.667 -22.693  -0.645  1.00 27.30 LIG-0.27  OA
ATOM     45  N   LEU E   6      20.459 -22.754   1.263  1.00 28.24 LIG-0.35  N 
ATOM     46 H    LEU E   6      19.834 -22.446   1.767  1.00 28.24 LIG 0.16  HD
BRANCH 45 47
ATOM     47  CA  LEU E   6      21.200 -23.888   1.844  1.00 31.78 LIG 0.18  C 
BRANCH 47 48
ATOM     48  CB  LEU E   6      21.402 -25.002   0.802  1.00 30.53 LIG 0.04  C 
BRANCH 48 49
ATOM     49  CG  LEU E   6      20.138 -25.808   0.492  1.00 30.12 LIG-0.02  C 
ATOM     50  CD1 LEU E   6      19.495 -25.382  -0.817  1.00 29.14 LIG 0.01  C 
ATOM     51  CD2 LEU E   6      20.431 -27.308   0.482  1.00 31.89 LIG 0.01  C 
ENDBRANCH 48 49
ENDBRANCH 47 48
BRANCH 47 52
ATOM     52  C   LEU E   6      22.546 -23.469   2.431  1.00 36.88 LIG 0.24  C 
ATOM     53 O    LEU E   6      23.295 -22.738   1.764  1.00 37.54 LIG-0.27  OA
ATOM     54  N   ASP E   7      22.842 -23.933   3.649  1.00 40.21 LIG-0.35  N 
ATOM     55 H    ASP E   7      22.282 -24.370   4.134  1.00 40.21 LIG 0.16  HD
BRANCH 54 56
ATOM     56  CA  ASP E   7      24.149 -23.750   4.283  1.00 48.33 LIG 0.17  C 
BRANCH 56 57
ATOM     57  CB  ASP E   7      25.209 -24.514   3.507  1.00 51.73 LIG 0.15  C 
BRANCH 57 58
ATOM     58  CG  ASP E   7      26.283 -25.096   4.408  1.00 58.06 LIG 0.17  C 
ATOM     59 OD2  ASP E   7      26.677 -24.405   5.370  1.00 65.10 LIG-0.65  OA
ATOM     60 OD1  ASP E   7      26.730 -26.245   4.169  1.00 65.94 LIG-0.65  OA
ENDBRANCH 57 58
ENDBRANCH 56 57
BRANCH 56 61
ATOM     61  C   ASP E   7      24.535 -22.280   4.361  1.00 49.55 LIG 0.22  C 
ATOM     62 O    ASP E   7      25.581 -21.946   4.918  1.00 55.15 LIG-0.29  OA
ENDBRANCH 56 61
ENDBRANCH 54 56
ENDBRANCH 47 52
ENDBRANCH 45 47
ENDBRANCH 38 43
ENDBRANCH 36 38
ENDBRANCH 1 34
BRANCH 1 63
ATOM     63  CB  LEU E   4      22.106 -17.259   1.730  1.00 22.63 LIG 0.04  C 
BRANCH 63 64
ATOM     64  CG  LEU E   4      22.609 -17.708   3.099  1.00 23.40 LIG-0.02  C 
ATOM     65  CD2 LEU E   4      23.115 -16.494   3.878  1.00 23.91 LIG 0.01  C 
ATOM     66  CD1 LEU E   4      23.685 -18.769   2.986  1.00 22.51 LIG 0.01  C 
ENDBRANCH 63 64
ENDBRANCH 1 63
TORSDOF 29
ENDMDL
MODEL 37
USER: ADFR SOLUTION from run 165
USER: SCORE 21.521400 LL:  -6.552 LR: -17.570 RR:   0.000 FEB:  -8.919
USER: RMSD 10.468660
USER: SEED 164
USER: STATUS searching
USER: GENES 31
USER: genes 0 Translation |==|  0.54188 0.51132 0.74970
USER: genes 1 Rotation |==|  0.59763 0.63893 0.94621 0.64856
USER: genes 2 Torsion [CB]-CA--N-[C] |==|  0.25420
USER: genes 3 Torsion [N]-C--CA-[N] |==|  0.66977
USER: genes 4 Torsion [C]-CA--N-[C] |==|  0.14511
USER: genes 5 Torsion [N]-C--CA-[N] |==|  0.94189
USER: genes 6 Torsion [C]-CA--N-[C] |==|  0.75934
USER: genes 7 Torsion [N]-C--CA-[N] |==|  0.49040
USER: genes 8 Torsion [C]-CA--N-[H3] |==|  0.89837
USER: genes 9 Torsion [C]-CA--CB-[CG] |==|  0.85270
USER: genes 10 Torsion [CA]-CB--CG-[CD] |==|  0.76862
USER: genes 11 Torsion [CB]-CG--CD-[OE2] |==|  0.66431
USER: genes 12 Torsion [C]-CA--CB-[CG2] |==|  0.33179
USER: genes 13 Torsion [CA]-CB--OG1-[HG1] |==|  0.14606
USER: genes 14 Torsion [C]-CA--CB-[CG] |==|  0.25287
USER: genes 15 Torsion [CA]-CB--CG-[CD2] |==|  0.00074
USER: genes 16 Torsion [N]-CA--C-[N] |==|  0.51667
USER: genes 17 Torsion [C]-N--CA-[CB] |==|  0.86581
USER: genes 18 Torsion [N]-CA--CB-[CG] |==|  0.88630
USER: genes 19 Torsion [CA]-CB--CG-[OD1] |==|  0.31615
USER: genes 20 Torsion [N]-CA--C-[N] |==|  0.34601
USER: genes 21 Torsion [C]-N--CA-[CB] |==|  0.51170
USER: genes 22 Torsion [N]-CA--CB-[CG] |==|  0.50530
USER: genes 23 Torsion [CA]-CB--CG-[CD2] |==|  0.70096
USER: genes 24 Torsion [N]-CA--C-[N] |==|  0.39945
USER: genes 25 Torsion [C]-N--CA-[CB] |==|  0.33583
USER: genes 26 Torsion [N]-CA--CB-[CG] |==|  0.16556
USER: genes 27 Torsion [CA]-CB--CG-[OD2] |==|  0.15914
USER: genes 28 Torsion [N]-CA--C-[O] |==|  0.03718
USER: genes 29 Torsion [N]-CA--CB-[CG] |==|  0.14167
USER: genes 30 Torsion [CA]-CB--CG-[CD2] |==|  0.71387
ROOT
ATOM      1  CA  LEU E   4      20.557 -20.339   2.542  1.00 22.51 LIG 0.18  C 
ENDROOT
BRANCH 1 2
ATOM      2  N   LEU E   4      20.899 -21.652   2.059  1.00 20.57 LIG-0.35  N 
ATOM      3  C   LEU E   3      20.366 -22.780   2.521  1.00 20.37 LIG 0.24  C 
ATOM      4 O    LEU E   3      19.549 -22.828   3.452  1.00 19.26 LIG-0.27  OA
ATOM      5 H    LEU E   4      21.490 -21.639   1.433  1.00 20.57 LIG 0.16  HD
BRANCH 3 6
ATOM      6  CA  LEU E   3      20.862 -24.085   1.892  1.00 20.55 LIG 0.18  C 
BRANCH 6 7
ATOM      7  N   LEU E   3      19.870 -24.889   1.219  1.00 20.86 LIG-0.35  N 
ATOM      8  C   THR E   2      19.085 -24.350   0.291  1.00 24.34 LIG 0.24  C 
ATOM      9 O    THR E   2      19.276 -23.216  -0.170  1.00 23.87 LIG-0.27  OA
ATOM     10 H    LEU E   3      19.840 -25.712   1.468  1.00 20.86 LIG 0.16  HD
BRANCH 8 11
ATOM     11  CA  THR E   2      17.938 -25.198  -0.194  1.00 25.18 LIG 0.20  C 
BRANCH 11 12
ATOM     12  N   THR E   2      18.245 -26.601   0.109  1.00 26.55 LIG-0.34  N 
ATOM     13  C   GLU E   1      18.950 -27.370  -0.713  1.00 27.17 LIG 0.25  C 
ATOM     14 O    GLU E   1      19.295 -27.016  -1.847  1.00 25.74 LIG-0.27  OA
ATOM     15 H    THR E   2      17.928 -26.875   0.860  1.00 26.55 LIG 0.16  HD
BRANCH 13 16
ATOM     16  CA  GLU E   1      19.281 -28.777  -0.218  1.00 31.71 LIG 0.28  C 
BRANCH 16 17
ATOM     17  N   GLU E   1      19.988 -29.476  -1.313  1.00 33.09 LIG-0.07  N 
ATOM     18 H3   GLU E   1      19.641 -29.232  -2.095  1.00 33.09 LIG 0.28  HD
ATOM     19 H2   GLU E   1      19.898 -30.355  -1.211  1.00 33.09 LIG 0.28  HD
ATOM     20 H1   GLU E   1      20.852 -29.263  -1.293  1.00 33.09 LIG 0.28  HD
ENDBRANCH 16 17
BRANCH 16 21
ATOM     21  CB  GLU E   1      20.159 -28.709   1.039  1.00 32.36 LIG 0.05  C 
BRANCH 21 22
ATOM     22  CG  GLU E   1      21.401 -27.852   0.855  1.00 32.63 LIG 0.12  C 
BRANCH 22 23
ATOM     23  CD  GLU E   1      22.568 -28.577   0.197  1.00 33.25 LIG 0.17  C 
ATOM     24 OE2  GLU E   1      23.646 -28.657   0.830  1.00 34.04 LIG-0.65  OA
ATOM     25 OE1  GLU E   1      22.431 -29.063  -0.944  1.00 33.29 LIG-0.65  OA
ENDBRANCH 22 23
ENDBRANCH 21 22
ENDBRANCH 16 21
ENDBRANCH 13 16
ENDBRANCH 11 12
BRANCH 11 26
ATOM     26  CB  THR E   2      16.624 -24.754   0.471  1.00 27.29 LIG 0.15  C 
ATOM     27  CG2 THR E   2      15.647 -24.308  -0.557  1.00 26.73 LIG 0.04  C 
BRANCH 26 28
ATOM     28 OG1  THR E   2      16.075 -25.877   1.175  1.00 28.79 LIG-0.39  OA
ATOM     29 HG1  THR E   2      16.657 -26.198   1.688  1.00 28.79 LIG 0.21  HD
ENDBRANCH 26 28
ENDBRANCH 11 26
ENDBRANCH 8 11
ENDBRANCH 6 7
BRANCH 6 30
ATOM     30  CB  LEU E   3      22.014 -23.785   0.911  1.00 20.98 LIG 0.04  C 
BRANCH 30 31
ATOM     31  CG  LEU E   3      23.421 -23.821   1.480  1.00 22.16 LIG-0.02  C 
ATOM     32  CD2 LEU E   3      23.479 -24.158   2.947  1.00 24.43 LIG 0.01  C 
ATOM     33  CD1 LEU E   3      24.084 -22.486   1.194  1.00 21.08 LIG 0.01  C 
ENDBRANCH 30 31
ENDBRANCH 6 30
ENDBRANCH 3 6
ENDBRANCH 1 2
BRANCH 1 34
ATOM     34  C   LEU E   4      20.701 -19.368   1.371  1.00 22.59 LIG 0.24  C 
ATOM     35 O    LEU E   4      20.930 -19.793   0.247  1.00 22.01 LIG-0.27  OA
ATOM     36  N   ASP E   5      20.546 -18.080   1.650  1.00 23.28 LIG-0.35  N 
ATOM     37 H    ASP E   5      20.339 -17.782   2.429  1.00 23.28 LIG 0.16  HD
BRANCH 36 38
ATOM     38  CA  ASP E   5      20.719 -17.025   0.621  1.00 26.12 LIG 0.19  C 
BRANCH 38 39
ATOM     39  CB  ASP E   5      22.017 -17.246  -0.144  1.00 27.88 LIG 0.15  C 
BRANCH 39 40
ATOM     40  CG  ASP E   5      23.190 -17.675   0.759  1.00 30.83 LIG 0.17  C 
ATOM     41 OD1  ASP E   5      23.698 -18.807   0.657  1.00 34.24 LIG-0.65  OA
ATOM     42 OD2  ASP E   5      23.592 -16.836   1.577  1.00 35.63 LIG-0.65  OA
ENDBRANCH 39 40
ENDBRANCH 38 39
BRANCH 38 43
ATOM     43  C   ASP E   5      19.534 -17.069  -0.324  1.00 25.92 LIG 0.24  C 
ATOM     44 O    ASP E   5      19.218 -18.130  -0.880  1.00 27.30 LIG-0.27  OA
ATOM     45  N   LEU E   6      18.861 -15.938  -0.469  1.00 28.24 LIG-0.35  N 
ATOM     46 H    LEU E   6      19.066 -15.206  -0.067  1.00 28.24 LIG 0.16  HD
BRANCH 45 47
ATOM     47  CA  LEU E   6      17.682 -15.836  -1.346  1.00 31.78 LIG 0.18  C 
BRANCH 47 48
ATOM     48  CB  LEU E   6      17.165 -14.388  -1.403  1.00 30.53 LIG 0.04  C 
BRANCH 48 49
ATOM     49  CG  LEU E   6      15.909 -14.204  -2.260  1.00 30.12 LIG-0.02  C 
ATOM     50  CD1 LEU E   6      14.807 -13.477  -1.510  1.00 29.14 LIG 0.01  C 
ATOM     51  CD2 LEU E   6      16.236 -13.480  -3.565  1.00 31.89 LIG 0.01  C 
ENDBRANCH 48 49
ENDBRANCH 47 48
BRANCH 47 52
ATOM     52  C   LEU E   6      17.957 -16.350  -2.759  1.00 36.88 LIG 0.24  C 
ATOM     53 O    LEU E   6      19.068 -16.146  -3.270  1.00 37.54 LIG-0.27  OA
ATOM     54  N   ASP E   7      16.957 -16.992  -3.370  1.00 40.21 LIG-0.35  N 
ATOM     55 H    ASP E   7      16.221 -17.199  -2.976  1.00 40.21 LIG 0.16  HD
BRANCH 54 56
ATOM     56  CA  ASP E   7      17.007 -17.408  -4.773  1.00 48.33 LIG 0.17  C 
BRANCH 56 57
ATOM     57  CB  ASP E   7      16.835 -18.915  -4.868  1.00 51.73 LIG 0.15  C 
BRANCH 57 58
ATOM     58  CG  ASP E   7      15.517 -19.388  -4.284  1.00 58.06 LIG 0.17  C 
ATOM     59 OD2  ASP E   7      14.464 -18.909  -4.754  1.00 65.10 LIG-0.65  OA
ATOM     60 OD1  ASP E   7      15.523 -20.243  -3.366  1.00 65.94 LIG-0.65  OA
ENDBRANCH 57 58
ENDBRANCH 56 57
BRANCH 56 61
ATOM     61  C   ASP E   7      15.934 -16.720  -5.604  1.00 49.55 LIG 0.22  C 
ATOM     62 O    ASP E   7      15.325 -15.752  -5.147  1.00 55.15 LIG-0.29  OA
ENDBRANCH 56 61
ENDBRANCH 54 56
ENDBRANCH 47 52
ENDBRANCH 45 47
ENDBRANCH 38 43
ENDBRANCH 36 38
ENDBRANCH 1 34
BRANCH 1 63
ATOM     63  CB  LEU E   4      21.503 -19.937   3.679  1.00 22.63 LIG 0.04  C 
BRANCH 63 64
ATOM     64  CG  LEU E   4      23.014 -20.043   3.497  1.00 23.40 LIG-0.02  C 
ATOM     65  CD2 LEU E   4      23.529 -21.282   4.229  1.00 23.91 LIG 0.01  C 
ATOM     66  CD1 LEU E   4      23.729 -18.794   3.972  1.00 22.51 LIG 0.01  C 
ENDBRANCH 63 64
ENDBRANCH 1 63
TORSDOF 29
ENDMDL
MODEL 38
USER: ADFR SOLUTION from run 131
USER: SCORE 20.804857 LL:  -5.933 LR: -17.535 RR:   0.000 FEB:  -8.884
USER: RMSD 10.060884
USER: SEED 130
USER: STATUS no improvement in best in 1 clusters for 5 generations
USER: GENES 31
USER: genes 0 Translation |==|  0.54863 0.55599 0.76864
USER: genes 1 Rotation |==|  0.60869 0.70820 0.91356 0.65428
USER: genes 2 Torsion [CB]-CA--N-[C] |==|  0.22475
USER: genes 3 Torsion [N]-C--CA-[N] |==|  0.95292
USER: genes 4 Torsion [C]-CA--N-[C] |==|  0.82271
USER: genes 5 Torsion [N]-C--CA-[N] |==|  0.34097
USER: genes 6 Torsion [C]-CA--N-[C] |==|  0.80867
USER: genes 7 Torsion [N]-C--CA-[N] |==|  0.57103
USER: genes 8 Torsion [C]-CA--N-[H3] |==|  0.95214
USER: genes 9 Torsion [C]-CA--CB-[CG] |==|  0.80643
USER: genes 10 Torsion [CA]-CB--CG-[CD] |==|  0.75124
USER: genes 11 Torsion [CB]-CG--CD-[OE2] |==|  0.67766
USER: genes 12 Torsion [C]-CA--CB-[CG2] |==|  0.37375
USER: genes 13 Torsion [CA]-CB--OG1-[HG1] |==|  0.49230
USER: genes 14 Torsion [C]-CA--CB-[CG] |==|  0.75998
USER: genes 15 Torsion [CA]-CB--CG-[CD2] |==|  0.10320
USER: genes 16 Torsion [N]-CA--C-[N] |==|  0.52434
USER: genes 17 Torsion [C]-N--CA-[CB] |==|  0.86722
USER: genes 18 Torsion [N]-CA--CB-[CG] |==|  0.37248
USER: genes 19 Torsion [CA]-CB--CG-[OD1] |==|  0.19055
USER: genes 20 Torsion [N]-CA--C-[N] |==|  0.34446
USER: genes 21 Torsion [C]-N--CA-[CB] |==|  0.42778
USER: genes 22 Torsion [N]-CA--CB-[CG] |==|  0.36418
USER: genes 23 Torsion [CA]-CB--CG-[CD2] |==|  0.75444
USER: genes 24 Torsion [N]-CA--C-[N] |==|  0.40481
USER: genes 25 Torsion [C]-N--CA-[CB] |==|  0.53418
USER: genes 26 Torsion [N]-CA--CB-[CG] |==|  0.78047
USER: genes 27 Torsion [CA]-CB--CG-[OD2] |==|  0.92738
USER: genes 28 Torsion [N]-CA--C-[O] |==|  0.77617
USER: genes 29 Torsion [N]-CA--CB-[CG] |==|  0.20308
USER: genes 30 Torsion [CA]-CB--CG-[CD2] |==|  0.60552
ROOT
ATOM      1  CA  LEU E   4      20.714 -19.300   2.926  1.00 22.51 LIG 0.18  C 
ENDROOT
BRANCH 1 2
ATOM      2  N   LEU E   4      20.987 -20.706   2.777  1.00 20.57 LIG-0.35  N 
ATOM      3  C   LEU E   3      20.703 -21.624   3.697  1.00 20.37 LIG 0.24  C 
ATOM      4 O    LEU E   3      20.213 -21.362   4.806  1.00 19.26 LIG-0.27  OA
ATOM      5 H    LEU E   4      21.357 -20.902   2.025  1.00 20.57 LIG 0.16  HD
BRANCH 3 6
ATOM      6  CA  LEU E   3      21.077 -23.071   3.367  1.00 20.55 LIG 0.18  C 
BRANCH 6 7
ATOM      7  N   LEU E   3      21.344 -23.362   1.978  1.00 20.86 LIG-0.35  N 
ATOM      8  C   THR E   2      20.380 -23.239   1.069  1.00 24.34 LIG 0.24  C 
ATOM      9 O    THR E   2      19.290 -22.707   1.319  1.00 23.87 LIG-0.27  OA
ATOM     10 H    LEU E   3      22.149 -23.611   1.807  1.00 20.86 LIG 0.16  HD
BRANCH 8 11
ATOM     11  CA  THR E   2      20.683 -23.774  -0.306  1.00 25.18 LIG 0.20  C 
BRANCH 11 12
ATOM     12  N   THR E   2      19.661 -24.771  -0.646  1.00 26.55 LIG-0.34  N 
ATOM     13  C   GLU E   1      19.580 -25.945  -0.031  1.00 27.17 LIG 0.25  C 
ATOM     14 O    GLU E   1      20.423 -26.349   0.779  1.00 25.74 LIG-0.27  OA
ATOM     15 H    THR E   2      19.127 -24.525  -1.274  1.00 26.55 LIG 0.16  HD
BRANCH 13 16
ATOM     16  CA  GLU E   1      18.401 -26.839  -0.416  1.00 31.71 LIG 0.28  C 
BRANCH 16 17
ATOM     17  N   GLU E   1      18.129 -27.730   0.732  1.00 33.09 LIG-0.07  N 
ATOM     18 H3   GLU E   1      18.833 -27.738   1.276  1.00 33.09 LIG 0.28  HD
ATOM     19 H2   GLU E   1      17.974 -28.556   0.437  1.00 33.09 LIG 0.28  HD
ATOM     20 H1   GLU E   1      17.415 -27.435   1.175  1.00 33.09 LIG 0.28  HD
ENDBRANCH 16 17
BRANCH 16 21
ATOM     21  CB  GLU E   1      17.169 -25.986  -0.746  1.00 32.36 LIG 0.05  C 
BRANCH 21 22
ATOM     22  CG  GLU E   1      16.572 -25.301   0.473  1.00 32.63 LIG 0.12  C 
BRANCH 22 23
ATOM     23  CD  GLU E   1      15.514 -26.126   1.197  1.00 33.25 LIG 0.17  C 
ATOM     24 OE2  GLU E   1      14.342 -25.685   1.230  1.00 34.04 LIG-0.65  OA
ATOM     25 OE1  GLU E   1      15.833 -27.203   1.740  1.00 33.29 LIG-0.65  OA
ENDBRANCH 22 23
ENDBRANCH 21 22
ENDBRANCH 16 21
ENDBRANCH 13 16
ENDBRANCH 11 12
BRANCH 11 26
ATOM     26  CB  THR E   2      20.713 -22.628  -1.333  1.00 27.29 LIG 0.15  C 
ATOM     27  CG2 THR E   2      21.896 -22.760  -2.223  1.00 26.73 LIG 0.04  C 
BRANCH 26 28
ATOM     28 OG1  THR E   2      19.523 -22.707  -2.129  1.00 28.79 LIG-0.39  OA
ATOM     29 HG1  THR E   2      19.504 -22.066  -2.671  1.00 28.79 LIG 0.21  HD
ENDBRANCH 26 28
ENDBRANCH 11 26
ENDBRANCH 8 11
ENDBRANCH 6 7
BRANCH 6 30
ATOM     30  CB  LEU E   3      22.294 -23.500   4.211  1.00 20.98 LIG 0.04  C 
BRANCH 30 31
ATOM     31  CG  LEU E   3      23.665 -23.175   3.646  1.00 22.16 LIG-0.02  C 
ATOM     32  CD2 LEU E   3      23.734 -21.851   2.931  1.00 24.43 LIG 0.01  C 
ATOM     33  CD1 LEU E   3      24.088 -24.314   2.737  1.00 21.08 LIG 0.01  C 
ENDBRANCH 30 31
ENDBRANCH 6 30
ENDBRANCH 3 6
ENDBRANCH 1 2
BRANCH 1 34
ATOM     34  C   LEU E   4      20.688 -18.688   1.526  1.00 22.59 LIG 0.24  C 
ATOM     35 O    LEU E   4      20.706 -19.412   0.540  1.00 22.01 LIG-0.27  OA
ATOM     36  N   ASP E   5      20.629 -17.364   1.462  1.00 23.28 LIG-0.35  N 
ATOM     37 H    ASP E   5      20.570 -16.855   2.152  1.00 23.28 LIG 0.16  HD
BRANCH 36 38
ATOM     38  CA  ASP E   5      20.660 -16.636   0.170  1.00 26.12 LIG 0.19  C 
BRANCH 38 39
ATOM     39  CB  ASP E   5      21.790 -17.163  -0.704  1.00 27.88 LIG 0.15  C 
BRANCH 39 40
ATOM     40  CG  ASP E   5      21.361 -17.420  -2.162  1.00 30.83 LIG 0.17  C 
ATOM     41 OD1  ASP E   5      21.072 -16.477  -2.922  1.00 34.24 LIG-0.65  OA
ATOM     42 OD2  ASP E   5      21.329 -18.603  -2.527  1.00 35.63 LIG-0.65  OA
ENDBRANCH 39 40
ENDBRANCH 38 39
BRANCH 38 43
ATOM     43  C   ASP E   5      19.325 -16.822  -0.525  1.00 25.92 LIG 0.24  C 
ATOM     44 O    ASP E   5      18.876 -17.961  -0.720  1.00 27.30 LIG-0.27  OA
ATOM     45  N   LEU E   6      18.678 -15.715  -0.854  1.00 28.24 LIG-0.35  N 
ATOM     46 H    LEU E   6      18.979 -14.923  -0.700  1.00 28.24 LIG 0.16  HD
BRANCH 45 47
ATOM     47  CA  LEU E   6      17.366 -15.744  -1.524  1.00 31.78 LIG 0.18  C 
BRANCH 47 48
ATOM     48  CB  LEU E   6      16.569 -14.463  -1.222  1.00 30.53 LIG 0.04  C 
BRANCH 48 49
ATOM     49  CG  LEU E   6      15.972 -13.789  -2.461  1.00 30.12 LIG-0.02  C 
ATOM     50  CD1 LEU E   6      14.652 -13.102  -2.157  1.00 29.14 LIG 0.01  C 
ATOM     51  CD2 LEU E   6      16.960 -12.801  -3.079  1.00 31.89 LIG 0.01  C 
ENDBRANCH 48 49
ENDBRANCH 47 48
BRANCH 47 52
ATOM     52  C   LEU E   6      17.484 -15.944  -3.034  1.00 36.88 LIG 0.24  C 
ATOM     53 O    LEU E   6      18.444 -15.440  -3.637  1.00 37.54 LIG-0.27  OA
ATOM     54  N   ASP E   7      16.519 -16.655  -3.623  1.00 40.21 LIG-0.35  N 
ATOM     55 H    ASP E   7      15.905 -17.068  -3.184  1.00 40.21 LIG 0.16  HD
BRANCH 54 56
ATOM     56  CA  ASP E   7      16.404 -16.808  -5.075  1.00 48.33 LIG 0.17  C 
BRANCH 56 57
ATOM     57  CB  ASP E   7      15.052 -17.408  -5.424  1.00 51.73 LIG 0.15  C 
BRANCH 57 58
ATOM     58  CG  ASP E   7      15.010 -18.909  -5.208  1.00 58.06 LIG 0.17  C 
ATOM     59 OD2  ASP E   7      16.084 -19.541  -5.278  1.00 65.10 LIG-0.65  OA
ATOM     60 OD1  ASP E   7      13.911 -19.464  -4.959  1.00 65.94 LIG-0.65  OA
ENDBRANCH 57 58
ENDBRANCH 56 57
BRANCH 56 61
ATOM     61  C   ASP E   7      16.572 -15.477  -5.795  1.00 49.55 LIG 0.22  C 
ATOM     62 O    ASP E   7      15.627 -14.692  -5.869  1.00 55.15 LIG-0.29  OA
ENDBRANCH 56 61
ENDBRANCH 54 56
ENDBRANCH 47 52
ENDBRANCH 45 47
ENDBRANCH 38 43
ENDBRANCH 36 38
ENDBRANCH 1 34
BRANCH 1 63
ATOM     63  CB  LEU E   4      21.810 -18.641   3.770  1.00 22.63 LIG 0.04  C 
BRANCH 63 64
ATOM     64  CG  LEU E   4      23.199 -18.408   3.182  1.00 23.40 LIG-0.02  C 
ATOM     65  CD2 LEU E   4      24.255 -18.665   4.256  1.00 23.91 LIG 0.01  C 
ATOM     66  CD1 LEU E   4      23.341 -17.016   2.600  1.00 22.51 LIG 0.01  C 
ENDBRANCH 63 64
ENDBRANCH 1 63
TORSDOF 29
ENDMDL
MODEL 39
USER: ADFR SOLUTION from run 135
USER: SCORE 21.484538 LL:  -6.854 LR: -17.516 RR:   0.000 FEB:  -8.865
USER: RMSD 4.254589
USER: SEED 134
USER: STATUS no improvement in best in 12 clusters for 5 generations
USER: GENES 31
USER: genes 0 Translation |==|  0.58069 0.66628 0.62095
USER: genes 1 Rotation |==|  0.47416 0.52280 0.40417 0.98952
USER: genes 2 Torsion [CB]-CA--N-[C] |==|  0.49444
USER: genes 3 Torsion [N]-C--CA-[N] |==|  0.61453
USER: genes 4 Torsion [C]-CA--N-[C] |==|  0.16327
USER: genes 5 Torsion [N]-C--CA-[N] |==|  0.93414
USER: genes 6 Torsion [C]-CA--N-[C] |==|  0.81727
USER: genes 7 Torsion [N]-C--CA-[N] |==|  0.83312
USER: genes 8 Torsion [C]-CA--N-[H3] |==|  0.39631
USER: genes 9 Torsion [C]-CA--CB-[CG] |==|  0.70954
USER: genes 10 Torsion [CA]-CB--CG-[CD] |==|  0.22532
USER: genes 11 Torsion [CB]-CG--CD-[OE2] |==|  0.68321
USER: genes 12 Torsion [C]-CA--CB-[CG2] |==|  0.21980
USER: genes 13 Torsion [CA]-CB--OG1-[HG1] |==|  0.16494
USER: genes 14 Torsion [C]-CA--CB-[CG] |==|  0.57073
USER: genes 15 Torsion [CA]-CB--CG-[CD2] |==|  0.76132
USER: genes 16 Torsion [N]-CA--C-[N] |==|  0.38920
USER: genes 17 Torsion [C]-N--CA-[CB] |==|  0.52014
USER: genes 18 Torsion [N]-CA--CB-[CG] |==|  0.47859
USER: genes 19 Torsion [CA]-CB--CG-[OD1] |==|  0.10740
USER: genes 20 Torsion [N]-CA--C-[N] |==|  0.41756
USER: genes 21 Torsion [C]-N--CA-[CB] |==|  0.53482
USER: genes 22 Torsion [N]-CA--CB-[CG] |==|  0.75869
USER: genes 23 Torsion [CA]-CB--CG-[CD2] |==|  0.12566
USER: genes 24 Torsion [N]-CA--C-[N] |==|  0.89506
USER: genes 25 Torsion [C]-N--CA-[CB] |==|  0.51522
USER: genes 26 Torsion [N]-CA--CB-[CG] |==|  0.54346
USER: genes 27 Torsion [CA]-CB--CG-[OD2] |==|  0.59546
USER: genes 28 Torsion [N]-CA--C-[O] |==|  0.82287
USER: genes 29 Torsion [N]-CA--CB-[CG] |==|  0.42836
USER: genes 30 Torsion [CA]-CB--CG-[CD2] |==|  0.69981
ROOT
ATOM      1  CA  LEU E   4      21.459 -16.736  -0.065  1.00 22.51 LIG 0.18  C 
ENDROOT
BRANCH 1 2
ATOM      2  N   LEU E   4      20.454 -15.941  -0.723  1.00 20.57 LIG-0.35  N 
ATOM      3  C   LEU E   3      20.274 -15.908  -2.041  1.00 20.37 LIG 0.24  C 
ATOM      4 O    LEU E   3      20.983 -16.522  -2.851  1.00 19.26 LIG-0.27  OA
ATOM      5 H    LEU E   4      19.973 -15.482  -0.177  1.00 20.57 LIG 0.16  HD
BRANCH 3 6
ATOM      6  CA  LEU E   3      19.161 -14.993  -2.561  1.00 20.55 LIG 0.18  C 
BRANCH 6 7
ATOM      7  N   LEU E   3      18.348 -15.519  -3.631  1.00 20.86 LIG-0.35  N 
ATOM      8  C   THR E   2      17.666 -16.648  -3.463  1.00 24.34 LIG 0.24  C 
ATOM      9 O    THR E   2      17.541 -17.197  -2.359  1.00 23.87 LIG-0.27  OA
ATOM     10 H    LEU E   3      18.350 -15.052  -4.353  1.00 20.86 LIG 0.16  HD
BRANCH 8 11
ATOM     11  CA  THR E   2      17.029 -17.237  -4.695  1.00 25.18 LIG 0.20  C 
BRANCH 11 12
ATOM     12  N   THR E   2      16.832 -16.159  -5.671  1.00 26.55 LIG-0.34  N 
ATOM     13  C   GLU E   1      15.995 -15.151  -5.459  1.00 27.17 LIG 0.25  C 
ATOM     14 O    GLU E   1      15.223 -15.099  -4.493  1.00 25.74 LIG-0.27  OA
ATOM     15 H    THR E   2      17.305 -16.242  -6.384  1.00 26.55 LIG 0.16  HD
BRANCH 13 16
ATOM     16  CA  GLU E   1      15.972 -14.046  -6.515  1.00 31.71 LIG 0.28  C 
BRANCH 16 17
ATOM     17  N   GLU E   1      17.333 -13.470  -6.582  1.00 33.09 LIG-0.07  N 
ATOM     18 H3   GLU E   1      17.530 -13.270  -7.426  1.00 33.09 LIG 0.28  HD
ATOM     19 H2   GLU E   1      17.921 -14.062  -6.274  1.00 33.09 LIG 0.28  HD
ATOM     20 H1   GLU E   1      17.368 -12.732  -6.086  1.00 33.09 LIG 0.28  HD
ENDBRANCH 16 17
BRANCH 16 21
ATOM     21  CB  GLU E   1      15.557 -14.618  -7.878  1.00 32.36 LIG 0.05  C 
BRANCH 21 22
ATOM     22  CG  GLU E   1      16.722 -14.772  -8.842  1.00 32.63 LIG 0.12  C 
BRANCH 22 23
ATOM     23  CD  GLU E   1      17.553 -16.030  -8.621  1.00 33.25 LIG 0.17  C 
ATOM     24 OE2  GLU E   1      18.738 -15.897  -8.239  1.00 34.04 LIG-0.65  OA
ATOM     25 OE1  GLU E   1      17.045 -17.151  -8.829  1.00 33.29 LIG-0.65  OA
ENDBRANCH 22 23
ENDBRANCH 21 22
ENDBRANCH 16 21
ENDBRANCH 13 16
ENDBRANCH 11 12
BRANCH 11 26
ATOM     26  CB  THR E   2      17.909 -18.361  -5.270  1.00 27.29 LIG 0.15  C 
ATOM     27  CG2 THR E   2      17.721 -19.615  -4.493  1.00 26.73 LIG 0.04  C 
BRANCH 26 28
ATOM     28 OG1  THR E   2      17.512 -18.593  -6.628  1.00 28.79 LIG-0.39  OA
ATOM     29 HG1  THR E   2      17.607 -17.887  -7.072  1.00 28.79 LIG 0.21  HD
ENDBRANCH 26 28
ENDBRANCH 11 26
ENDBRANCH 8 11
ENDBRANCH 6 7
BRANCH 6 30
ATOM     30  CB  LEU E   3      18.245 -14.573  -1.395  1.00 20.98 LIG 0.04  C 
BRANCH 30 31
ATOM     31  CG  LEU E   3      16.818 -14.195  -1.751  1.00 22.16 LIG-0.02  C 
ATOM     32  CD2 LEU E   3      16.649 -12.754  -2.155  1.00 24.43 LIG 0.01  C 
ATOM     33  CD1 LEU E   3      15.925 -14.545  -0.575  1.00 21.08 LIG 0.01  C 
ENDBRANCH 30 31
ENDBRANCH 6 30
ENDBRANCH 3 6
ENDBRANCH 1 2
BRANCH 1 34
ATOM     34  C   LEU E   4      21.155 -18.202  -0.370  1.00 22.59 LIG 0.24  C 
ATOM     35 O    LEU E   4      19.996 -18.596  -0.394  1.00 22.01 LIG-0.27  OA
ATOM     36  N   ASP E   5      22.199 -18.983  -0.616  1.00 23.28 LIG-0.35  N 
ATOM     37 H    ASP E   5      23.010 -18.699  -0.645  1.00 23.28 LIG 0.16  HD
BRANCH 36 38
ATOM     38  CA  ASP E   5      22.053 -20.438  -0.866  1.00 26.12 LIG 0.19  C 
BRANCH 38 39
ATOM     39  CB  ASP E   5      23.424 -21.098  -0.939  1.00 27.88 LIG 0.15  C 
BRANCH 39 40
ATOM     40  CG  ASP E   5      23.354 -22.637  -1.009  1.00 30.83 LIG 0.17  C 
ATOM     41 OD1  ASP E   5      22.472 -23.209  -1.676  1.00 34.24 LIG-0.65  OA
ATOM     42 OD2  ASP E   5      24.218 -23.257  -0.375  1.00 35.63 LIG-0.65  OA
ENDBRANCH 39 40
ENDBRANCH 38 39
BRANCH 38 43
ATOM     43  C   ASP E   5      21.234 -21.045   0.256  1.00 25.92 LIG 0.24  C 
ATOM     44 O    ASP E   5      21.236 -20.526   1.381  1.00 27.30 LIG-0.27  OA
ATOM     45  N   LEU E   6      20.508 -22.106  -0.060  1.00 28.24 LIG-0.35  N 
ATOM     46 H    LEU E   6      20.489 -22.454  -0.846  1.00 28.24 LIG 0.16  HD
BRANCH 45 47
ATOM     47  CA  LEU E   6      19.655 -22.792   0.927  1.00 31.78 LIG 0.18  C 
BRANCH 47 48
ATOM     48  CB  LEU E   6      19.177 -24.151   0.386  1.00 30.53 LIG 0.04  C 
BRANCH 48 49
ATOM     49  CG  LEU E   6      17.894 -24.078  -0.446  1.00 30.12 LIG-0.02  C 
ATOM     50  CD1 LEU E   6      16.653 -23.973   0.424  1.00 29.14 LIG 0.01  C 
ATOM     51  CD2 LEU E   6      17.949 -22.919  -1.441  1.00 31.89 LIG 0.01  C 
ENDBRANCH 48 49
ENDBRANCH 47 48
BRANCH 47 52
ATOM     52  C   LEU E   6      20.351 -22.979   2.274  1.00 36.88 LIG 0.24  C 
ATOM     53 O    LEU E   6      19.694 -22.847   3.317  1.00 37.54 LIG-0.27  OA
ATOM     54  N   ASP E   7      21.655 -23.271   2.241  1.00 40.21 LIG-0.35  N 
ATOM     55 H    ASP E   7      22.080 -23.442   1.513  1.00 40.21 LIG 0.16  HD
BRANCH 54 56
ATOM     56  CA  ASP E   7      22.496 -23.331   3.438  1.00 48.33 LIG 0.17  C 
BRANCH 56 57
ATOM     57  CB  ASP E   7      23.945 -23.553   3.039  1.00 51.73 LIG 0.15  C 
BRANCH 57 58
ATOM     58  CG  ASP E   7      24.808 -23.999   4.205  1.00 58.06 LIG 0.17  C 
ATOM     59 OD2  ASP E   7      25.993 -23.610   4.238  1.00 65.10 LIG-0.65  OA
ATOM     60 OD1  ASP E   7      24.308 -24.729   5.095  1.00 65.94 LIG-0.65  OA
ENDBRANCH 57 58
ENDBRANCH 56 57
BRANCH 56 61
ATOM     61  C   ASP E   7      22.385 -22.059   4.267  1.00 49.55 LIG 0.22  C 
ATOM     62 O    ASP E   7      22.761 -20.984   3.802  1.00 55.15 LIG-0.29  OA
ENDBRANCH 56 61
ENDBRANCH 54 56
ENDBRANCH 47 52
ENDBRANCH 45 47
ENDBRANCH 38 43
ENDBRANCH 36 38
ENDBRANCH 1 34
BRANCH 1 63
ATOM     63  CB  LEU E   4      21.411 -16.492   1.447  1.00 22.63 LIG 0.04  C 
BRANCH 63 64
ATOM     64  CG  LEU E   4      21.904 -17.562   2.416  1.00 23.40 LIG-0.02  C 
ATOM     65  CD2 LEU E   4      20.708 -18.190   3.131  1.00 23.91 LIG 0.01  C 
ATOM     66  CD1 LEU E   4      22.903 -17.006   3.412  1.00 22.51 LIG 0.01  C 
ENDBRANCH 63 64
ENDBRANCH 1 63
TORSDOF 29
ENDMDL
MODEL 40
USER: ADFR SOLUTION from run 9
USER: SCORE 21.131825 LL:  -6.404 LR: -17.523 RR:   0.000 FEB:  -8.872
USER: RMSD 3.886134
USER: SEED 305495
USER: STATUS no improvement in best in 5 clusters for 5 generations
USER: GENES 31
USER: genes 0 Translation |==|  0.55672 0.63914 0.61782
USER: genes 1 Rotation |==|  0.51599 0.50861 0.50258 0.99966
USER: genes 2 Torsion [CB]-CA--N-[C] |==|  0.40515
USER: genes 3 Torsion [N]-C--CA-[N] |==|  0.85121
USER: genes 4 Torsion [C]-CA--N-[C] |==|  0.74145
USER: genes 5 Torsion [N]-C--CA-[N] |==|  0.37414
USER: genes 6 Torsion [C]-CA--N-[C] |==|  0.82899
USER: genes 7 Torsion [N]-C--CA-[N] |==|  0.79586
USER: genes 8 Torsion [C]-CA--N-[H3] |==|  0.03290
USER: genes 9 Torsion [C]-CA--CB-[CG] |==|  0.16968
USER: genes 10 Torsion [CA]-CB--CG-[CD] |==|  0.72447
USER: genes 11 Torsion [CB]-CG--CD-[OE2] |==|  0.99003
USER: genes 12 Torsion [C]-CA--CB-[CG2] |==|  0.11096
USER: genes 13 Torsion [CA]-CB--OG1-[HG1] |==|  0.08842
USER: genes 14 Torsion [C]-CA--CB-[CG] |==|  0.39658
USER: genes 15 Torsion [CA]-CB--CG-[CD2] |==|  0.34920
USER: genes 16 Torsion [N]-CA--C-[N] |==|  0.24998
USER: genes 17 Torsion [C]-N--CA-[CB] |==|  0.52890
USER: genes 18 Torsion [N]-CA--CB-[CG] |==|  0.79864
USER: genes 19 Torsion [CA]-CB--CG-[OD1] |==|  0.42999
USER: genes 20 Torsion [N]-CA--C-[N] |==|  0.30330
USER: genes 21 Torsion [C]-N--CA-[CB] |==|  0.85967
USER: genes 22 Torsion [N]-CA--CB-[CG] |==|  0.52367
USER: genes 23 Torsion [CA]-CB--CG-[CD2] |==|  0.62516
USER: genes 24 Torsion [N]-CA--C-[N] |==|  0.39101
USER: genes 25 Torsion [C]-N--CA-[CB] |==|  0.86652
USER: genes 26 Torsion [N]-CA--CB-[CG] |==|  0.81832
USER: genes 27 Torsion [CA]-CB--CG-[OD2] |==|  0.46422
USER: genes 28 Torsion [N]-CA--C-[O] |==|  0.11065
USER: genes 29 Torsion [N]-CA--CB-[CG] |==|  0.57542
USER: genes 30 Torsion [CA]-CB--CG-[CD2] |==|  0.98089
ROOT
ATOM      1  CA  LEU E   4      20.902 -17.367  -0.128  1.00 22.51 LIG 0.18  C 
ENDROOT
BRANCH 1 2
ATOM      2  N   LEU E   4      19.691 -16.899  -0.753  1.00 20.57 LIG-0.35  N 
ATOM      3  C   LEU E   3      19.660 -16.136  -1.842  1.00 20.37 LIG 0.24  C 
ATOM      4 O    LEU E   3      20.673 -15.704  -2.413  1.00 19.26 LIG-0.27  OA
ATOM      5 H    LEU E   4      18.978 -17.163  -0.350  1.00 20.57 LIG 0.16  HD
BRANCH 3 6
ATOM      6  CA  LEU E   3      18.278 -15.726  -2.358  1.00 20.55 LIG 0.18  C 
BRANCH 6 7
ATOM      7  N   LEU E   3      17.340 -16.797  -2.595  1.00 20.86 LIG-0.35  N 
ATOM      8  C   THR E   2      17.237 -17.344  -3.803  1.00 24.34 LIG 0.24  C 
ATOM      9 O    THR E   2      18.039 -17.105  -4.716  1.00 23.87 LIG-0.27  OA
ATOM     10 H    LEU E   3      16.877 -17.034  -1.910  1.00 20.86 LIG 0.16  HD
BRANCH 8 11
ATOM     11  CA  THR E   2      16.086 -18.293  -4.014  1.00 25.18 LIG 0.20  C 
BRANCH 11 12
ATOM     12  N   THR E   2      15.453 -17.969  -5.298  1.00 26.55 LIG-0.34  N 
ATOM     13  C   GLU E   1      14.896 -16.788  -5.540  1.00 27.17 LIG 0.25  C 
ATOM     14 O    GLU E   1      14.748 -15.916  -4.676  1.00 25.74 LIG-0.27  OA
ATOM     15 H    THR E   2      15.477 -18.610  -5.872  1.00 26.55 LIG 0.16  HD
BRANCH 13 16
ATOM     16  CA  GLU E   1      14.370 -16.557  -6.956  1.00 31.71 LIG 0.28  C 
BRANCH 16 17
ATOM     17  N   GLU E   1      15.542 -16.364  -7.837  1.00 33.09 LIG-0.07  N 
ATOM     18 H3   GLU E   1      16.283 -16.592  -7.400  1.00 33.09 LIG 0.28  HD
ATOM     19 H2   GLU E   1      15.593 -15.510  -8.081  1.00 33.09 LIG 0.28  HD
ATOM     20 H1   GLU E   1      15.457 -16.875  -8.561  1.00 33.09 LIG 0.28  HD
ENDBRANCH 16 17
BRANCH 16 21
ATOM     21  CB  GLU E   1      13.534 -17.758  -7.420  1.00 32.36 LIG 0.05  C 
BRANCH 21 22
ATOM     22  CG  GLU E   1      12.313 -18.008  -6.548  1.00 32.63 LIG 0.12  C 
BRANCH 22 23
ATOM     23  CD  GLU E   1      12.499 -19.111  -5.514  1.00 33.25 LIG 0.17  C 
ATOM     24 OE2  GLU E   1      13.579 -19.745  -5.514  1.00 34.04 LIG-0.65  OA
ATOM     25 OE1  GLU E   1      11.584 -19.361  -4.703  1.00 33.29 LIG-0.65  OA
ENDBRANCH 22 23
ENDBRANCH 21 22
ENDBRANCH 16 21
ENDBRANCH 13 16
ENDBRANCH 11 12
BRANCH 11 26
ATOM     26  CB  THR E   2      16.578 -19.750  -3.982  1.00 27.29 LIG 0.15  C 
ATOM     27  CG2 THR E   2      17.603 -19.928  -2.921  1.00 26.73 LIG 0.04  C 
BRANCH 26 28
ATOM     28 OG1  THR E   2      15.458 -20.597  -3.692  1.00 28.79 LIG-0.39  OA
ATOM     29 HG1  THR E   2      14.760 -20.259  -4.013  1.00 28.79 LIG 0.21  HD
ENDBRANCH 26 28
ENDBRANCH 11 26
ENDBRANCH 8 11
ENDBRANCH 6 7
BRANCH 6 30
ATOM     30  CB  LEU E   3      17.642 -14.708  -1.389  1.00 20.98 LIG 0.04  C 
BRANCH 30 31
ATOM     31  CG  LEU E   3      16.825 -13.591  -2.014  1.00 22.16 LIG-0.02  C 
ATOM     32  CD2 LEU E   3      15.425 -13.479  -1.470  1.00 24.43 LIG 0.01  C 
ATOM     33  CD1 LEU E   3      16.817 -13.791  -3.519  1.00 21.08 LIG 0.01  C 
ENDBRANCH 30 31
ENDBRANCH 6 30
ENDBRANCH 3 6
ENDBRANCH 1 2
BRANCH 1 34
ATOM     34  C   LEU E   4      21.197 -18.758  -0.687  1.00 22.59 LIG 0.24  C 
ATOM     35 O    LEU E   4      20.731 -19.750  -0.140  1.00 22.01 LIG-0.27  OA
ATOM     36  N   ASP E   5      21.950 -18.810  -1.777  1.00 23.28 LIG-0.35  N 
ATOM     37 H    ASP E   5      22.240 -18.113  -2.190  1.00 23.28 LIG 0.16  HD
BRANCH 36 38
ATOM     38  CA  ASP E   5      22.365 -20.095  -2.389  1.00 26.12 LIG 0.19  C 
BRANCH 38 39
ATOM     39  CB  ASP E   5      23.420 -19.852  -3.460  1.00 27.88 LIG 0.15  C 
BRANCH 39 40
ATOM     40  CG  ASP E   5      22.850 -19.207  -4.739  1.00 30.83 LIG 0.17  C 
ATOM     41 OD1  ASP E   5      23.574 -18.531  -5.494  1.00 34.24 LIG-0.65  OA
ATOM     42 OD2  ASP E   5      21.649 -19.405  -4.968  1.00 35.63 LIG-0.65  OA
ENDBRANCH 39 40
ENDBRANCH 38 39
BRANCH 38 43
ATOM     43  C   ASP E   5      22.915 -20.997  -1.301  1.00 25.92 LIG 0.24  C 
ATOM     44 O    ASP E   5      23.987 -20.721  -0.745  1.00 27.30 LIG-0.27  OA
ATOM     45  N   LEU E   6      22.166 -22.038  -0.971  1.00 28.24 LIG-0.35  N 
ATOM     46 H    LEU E   6      21.411 -22.219  -1.342  1.00 28.24 LIG 0.16  HD
BRANCH 45 47
ATOM     47  CA  LEU E   6      22.570 -22.992   0.076  1.00 31.78 LIG 0.18  C 
BRANCH 47 48
ATOM     48  CB  LEU E   6      24.008 -23.486  -0.157  1.00 30.53 LIG 0.04  C 
BRANCH 48 49
ATOM     49  CG  LEU E   6      24.434 -24.632   0.765  1.00 30.12 LIG-0.02  C 
ATOM     50  CD1 LEU E   6      24.368 -25.980   0.068  1.00 29.14 LIG 0.01  C 
ATOM     51  CD2 LEU E   6      25.833 -24.390   1.331  1.00 31.89 LIG 0.01  C 
ENDBRANCH 48 49
ENDBRANCH 47 48
BRANCH 47 52
ATOM     52  C   LEU E   6      22.438 -22.408   1.482  1.00 36.88 LIG 0.24  C 
ATOM     53 O    LEU E   6      22.759 -21.226   1.678  1.00 37.54 LIG-0.27  OA
ATOM     54  N   ASP E   7      21.984 -23.229   2.434  1.00 40.21 LIG-0.35  N 
ATOM     55 H    ASP E   7      21.687 -24.020   2.270  1.00 40.21 LIG 0.16  HD
BRANCH 54 56
ATOM     56  CA  ASP E   7      21.945 -22.871   3.853  1.00 48.33 LIG 0.17  C 
BRANCH 56 57
ATOM     57  CB  ASP E   7      23.283 -22.283   4.272  1.00 51.73 LIG 0.15  C 
BRANCH 57 58
ATOM     58  CG  ASP E   7      24.412 -23.295   4.194  1.00 58.06 LIG 0.17  C 
ATOM     59 OD2  ASP E   7      25.583 -22.871   4.276  1.00 65.10 LIG-0.65  OA
ATOM     60 OD1  ASP E   7      24.138 -24.513   4.063  1.00 65.94 LIG-0.65  OA
ENDBRANCH 57 58
ENDBRANCH 56 57
BRANCH 56 61
ATOM     61  C   ASP E   7      20.835 -21.874   4.151  1.00 49.55 LIG 0.22  C 
ATOM     62 O    ASP E   7      19.740 -21.987   3.601  1.00 55.15 LIG-0.29  OA
ENDBRANCH 56 61
ENDBRANCH 54 56
ENDBRANCH 47 52
ENDBRANCH 45 47
ENDBRANCH 38 43
ENDBRANCH 36 38
ENDBRANCH 1 34
BRANCH 1 63
ATOM     63  CB  LEU E   4      20.712 -17.438   1.391  1.00 22.63 LIG 0.04  C 
BRANCH 63 64
ATOM     64  CG  LEU E   4      21.910 -17.292   2.324  1.00 23.40 LIG-0.02  C 
ATOM     65  CD2 LEU E   4      23.196 -17.257   1.499  1.00 23.91 LIG 0.01  C 
ATOM     66  CD1 LEU E   4      21.959 -18.398   3.360  1.00 22.51 LIG 0.01  C 
ENDBRANCH 63 64
ENDBRANCH 1 63
TORSDOF 29
ENDMDL
MODEL 41
USER: ADFR SOLUTION from run 18
USER: SCORE 21.670846 LL:  -6.565 LR: -17.524 RR:   0.000 FEB:  -8.873
USER: RMSD 10.390604
USER: SEED 17
USER: STATUS 1 or 2 clusters left
USER: GENES 31
USER: genes 0 Translation |==|  0.54109 0.59913 0.71023
USER: genes 1 Rotation |==|  0.55191 0.70735 0.90532 0.70007
USER: genes 2 Torsion [CB]-CA--N-[C] |==|  0.13265
USER: genes 3 Torsion [N]-C--CA-[N] |==|  0.02274
USER: genes 4 Torsion [C]-CA--N-[C] |==|  0.73199
USER: genes 5 Torsion [N]-C--CA-[N] |==|  0.92299
USER: genes 6 Torsion [C]-CA--N-[C] |==|  0.84333
USER: genes 7 Torsion [N]-C--CA-[N] |==|  0.51782
USER: genes 8 Torsion [C]-CA--N-[H3] |==|  0.46898
USER: genes 9 Torsion [C]-CA--CB-[CG] |==|  0.25112
USER: genes 10 Torsion [CA]-CB--CG-[CD] |==|  0.63603
USER: genes 11 Torsion [CB]-CG--CD-[OE2] |==|  0.25382
USER: genes 12 Torsion [C]-CA--CB-[CG2] |==|  0.97414
USER: genes 13 Torsion [CA]-CB--OG1-[HG1] |==|  0.17647
USER: genes 14 Torsion [C]-CA--CB-[CG] |==|  0.72373
USER: genes 15 Torsion [CA]-CB--CG-[CD2] |==|  0.66466
USER: genes 16 Torsion [N]-CA--C-[N] |==|  0.15556
USER: genes 17 Torsion [C]-N--CA-[CB] |==|  0.42354
USER: genes 18 Torsion [N]-CA--CB-[CG] |==|  0.24446
USER: genes 19 Torsion [CA]-CB--CG-[OD1] |==|  0.27462
USER: genes 20 Torsion [N]-CA--C-[N] |==|  0.89378
USER: genes 21 Torsion [C]-N--CA-[CB] |==|  0.82710
USER: genes 22 Torsion [N]-CA--CB-[CG] |==|  0.55068
USER: genes 23 Torsion [CA]-CB--CG-[CD2] |==|  0.09950
USER: genes 24 Torsion [N]-CA--C-[N] |==|  0.23841
USER: genes 25 Torsion [C]-N--CA-[CB] |==|  0.38218
USER: genes 26 Torsion [N]-CA--CB-[CG] |==|  0.17727
USER: genes 27 Torsion [CA]-CB--CG-[OD2] |==|  0.74554
USER: genes 28 Torsion [N]-CA--C-[O] |==|  0.23683
USER: genes 29 Torsion [N]-CA--CB-[CG] |==|  0.11932
USER: genes 30 Torsion [CA]-CB--CG-[CD2] |==|  0.60614
ROOT
ATOM      1  CA  LEU E   4      20.538 -18.297   1.743  1.00 22.51 LIG 0.18  C 
ENDROOT
BRANCH 1 2
ATOM      2  N   LEU E   4      20.723 -19.723   1.827  1.00 20.57 LIG-0.35  N 
ATOM      3  C   LEU E   3      20.721 -20.411   2.965  1.00 20.37 LIG 0.24  C 
ATOM      4 O    LEU E   3      20.606 -19.892   4.086  1.00 19.26 LIG-0.27  OA
ATOM      5 H    LEU E   4      20.837 -20.096   1.059  1.00 20.57 LIG 0.16  HD
BRANCH 3 6
ATOM      6  CA  LEU E   3      20.945 -21.922   2.859  1.00 20.55 LIG 0.18  C 
BRANCH 6 7
ATOM      7  N   LEU E   3      21.317 -22.423   1.557  1.00 20.86 LIG-0.35  N 
ATOM      8  C   THR E   2      20.393 -22.922   0.740  1.00 24.34 LIG 0.24  C 
ATOM      9 O    THR E   2      19.179 -22.819   0.962  1.00 23.87 LIG-0.27  OA
ATOM     10 H    LEU E   3      22.155 -22.369   1.373  1.00 20.86 LIG 0.16  HD
BRANCH 8 11
ATOM     11  CA  THR E   2      20.897 -23.622  -0.495  1.00 25.18 LIG 0.20  C 
BRANCH 11 12
ATOM     12  N   THR E   2      22.197 -23.043  -0.853  1.00 26.55 LIG-0.34  N 
ATOM     13  C   GLU E   1      22.360 -21.744  -1.076  1.00 27.17 LIG 0.25  C 
ATOM     14 O    GLU E   1      21.423 -20.939  -1.126  1.00 25.74 LIG-0.27  OA
ATOM     15 H    THR E   2      22.834 -23.618  -0.905  1.00 26.55 LIG 0.16  HD
BRANCH 13 16
ATOM     16  CA  GLU E   1      23.790 -21.269  -1.335  1.00 31.71 LIG 0.28  C 
BRANCH 16 17
ATOM     17  N   GLU E   1      23.760 -19.791  -1.399  1.00 33.09 LIG-0.07  N 
ATOM     18 H3   GLU E   1      24.592 -19.477  -1.387  1.00 33.09 LIG 0.28  HD
ATOM     19 H2   GLU E   1      23.314 -19.473  -0.699  1.00 33.09 LIG 0.28  HD
ATOM     20 H1   GLU E   1      23.357 -19.534  -2.150  1.00 33.09 LIG 0.28  HD
ENDBRANCH 16 17
BRANCH 16 21
ATOM     21  CB  GLU E   1      24.723 -21.745  -0.213  1.00 32.36 LIG 0.05  C 
BRANCH 21 22
ATOM     22  CG  GLU E   1      25.354 -23.099  -0.497  1.00 32.63 LIG 0.12  C 
BRANCH 22 23
ATOM     23  CD  GLU E   1      25.247 -24.091   0.655  1.00 33.25 LIG 0.17  C 
ATOM     24 OE2  GLU E   1      24.257 -24.858   0.685  1.00 34.04 LIG-0.65  OA
ATOM     25 OE1  GLU E   1      26.132 -24.115   1.536  1.00 33.29 LIG-0.65  OA
ENDBRANCH 22 23
ENDBRANCH 21 22
ENDBRANCH 16 21
ENDBRANCH 13 16
ENDBRANCH 11 12
BRANCH 11 26
ATOM     26  CB  THR E   2      21.006 -25.137  -0.247  1.00 27.29 LIG 0.15  C 
ATOM     27  CG2 THR E   2      20.801 -25.443   1.193  1.00 26.73 LIG 0.04  C 
BRANCH 26 28
ATOM     28 OG1  THR E   2      19.984 -25.792  -1.011  1.00 28.79 LIG-0.39  OA
ATOM     29 HG1  THR E   2      20.121 -25.665  -1.829  1.00 28.79 LIG 0.21  HD
ENDBRANCH 26 28
ENDBRANCH 11 26
ENDBRANCH 8 11
ENDBRANCH 6 7
BRANCH 6 30
ATOM     30  CB  LEU E   3      22.003 -22.365   3.889  1.00 20.98 LIG 0.04  C 
BRANCH 30 31
ATOM     31  CG  LEU E   3      23.416 -22.565   3.371  1.00 22.16 LIG-0.02  C 
ATOM     32  CD2 LEU E   3      23.951 -23.959   3.573  1.00 24.43 LIG 0.01  C 
ATOM     33  CD1 LEU E   3      24.314 -21.531   4.025  1.00 21.08 LIG 0.01  C 
ENDBRANCH 30 31
ENDBRANCH 6 30
ENDBRANCH 3 6
ENDBRANCH 1 2
BRANCH 1 34
ATOM     34  C   LEU E   4      20.916 -17.869   0.326  1.00 22.59 LIG 0.24  C 
ATOM     35 O    LEU E   4      21.784 -17.024   0.152  1.00 22.01 LIG-0.27  OA
ATOM     36  N   ASP E   5      20.272 -18.472  -0.665  1.00 23.28 LIG-0.35  N 
ATOM     37 H    ASP E   5      19.695 -19.098  -0.547  1.00 23.28 LIG 0.16  HD
BRANCH 36 38
ATOM     38  CA  ASP E   5      20.495 -18.110  -2.086  1.00 26.12 LIG 0.19  C 
BRANCH 38 39
ATOM     39  CB  ASP E   5      20.209 -19.306  -2.984  1.00 27.88 LIG 0.15  C 
BRANCH 39 40
ATOM     40  CG  ASP E   5      18.731 -19.405  -3.412  1.00 30.83 LIG 0.17  C 
ATOM     41 OD1  ASP E   5      18.356 -18.993  -4.526  1.00 34.24 LIG-0.65  OA
ATOM     42 OD2  ASP E   5      17.954 -19.916  -2.595  1.00 35.63 LIG-0.65  OA
ENDBRANCH 39 40
ENDBRANCH 38 39
BRANCH 38 43
ATOM     43  C   ASP E   5      19.582 -16.952  -2.442  1.00 25.92 LIG 0.24  C 
ATOM     44 O    ASP E   5      19.968 -16.070  -3.221  1.00 27.30 LIG-0.27  OA
ATOM     45  N   LEU E   6      18.369 -16.982  -1.912  1.00 28.24 LIG-0.35  N 
ATOM     46 H    LEU E   6      18.092 -17.606  -1.389  1.00 28.24 LIG 0.16  HD
BRANCH 45 47
ATOM     47  CA  LEU E   6      17.372 -15.930  -2.180  1.00 31.78 LIG 0.18  C 
BRANCH 47 48
ATOM     48  CB  LEU E   6      17.864 -14.566  -1.667  1.00 30.53 LIG 0.04  C 
BRANCH 48 49
ATOM     49  CG  LEU E   6      16.756 -13.523  -1.497  1.00 30.12 LIG-0.02  C 
ATOM     50  CD1 LEU E   6      16.512 -12.735  -2.772  1.00 29.14 LIG 0.01  C 
ATOM     51  CD2 LEU E   6      15.460 -14.173  -1.014  1.00 31.89 LIG 0.01  C 
ENDBRANCH 48 49
ENDBRANCH 47 48
BRANCH 47 52
ATOM     52  C   LEU E   6      17.007 -15.832  -3.660  1.00 36.88 LIG 0.24  C 
ATOM     53 O    LEU E   6      17.602 -15.013  -4.376  1.00 37.54 LIG-0.27  OA
ATOM     54  N   ASP E   7      16.041 -16.647  -4.096  1.00 40.21 LIG-0.35  N 
ATOM     55 H    ASP E   7      15.695 -17.267  -3.611  1.00 40.21 LIG 0.16  HD
BRANCH 54 56
ATOM     56  CA  ASP E   7      15.473 -16.571  -5.443  1.00 48.33 LIG 0.17  C 
BRANCH 56 57
ATOM     57  CB  ASP E   7      15.297 -17.971  -6.007  1.00 51.73 LIG 0.15  C 
BRANCH 57 58
ATOM     58  CG  ASP E   7      14.300 -18.797  -5.214  1.00 58.06 LIG 0.17  C 
ATOM     59 OD2  ASP E   7      14.737 -19.501  -4.281  1.00 65.10 LIG-0.65  OA
ATOM     60 OD1  ASP E   7      13.082 -18.739  -5.510  1.00 65.94 LIG-0.65  OA
ENDBRANCH 57 58
ENDBRANCH 56 57
BRANCH 56 61
ATOM     61  C   ASP E   7      14.133 -15.848  -5.448  1.00 49.55 LIG 0.22  C 
ATOM     62 O    ASP E   7      14.095 -14.620  -5.521  1.00 55.15 LIG-0.29  OA
ENDBRANCH 56 61
ENDBRANCH 54 56
ENDBRANCH 47 52
ENDBRANCH 45 47
ENDBRANCH 38 43
ENDBRANCH 36 38
ENDBRANCH 1 34
BRANCH 1 63
ATOM     63  CB  LEU E   4      21.439 -17.593   2.764  1.00 22.63 LIG 0.04  C 
BRANCH 63 64
ATOM     64  CG  LEU E   4      22.883 -18.044   2.958  1.00 23.40 LIG-0.02  C 
ATOM     65  CD2 LEU E   4      23.244 -17.970   4.441  1.00 23.91 LIG 0.01  C 
ATOM     66  CD1 LEU E   4      23.848 -17.228   2.121  1.00 22.51 LIG 0.01  C 
ENDBRANCH 63 64
ENDBRANCH 1 63
TORSDOF 29
ENDMDL
MODEL 42
USER: ADFR SOLUTION from run 126
USER: SCORE 21.009402 LL:  -6.196 LR: -17.501 RR:   0.000 FEB:  -8.850
USER: RMSD 4.457159
USER: SEED 125
USER: STATUS searching
USER: GENES 31
USER: genes 0 Translation |==|  0.61518 0.62847 0.63619
USER: genes 1 Rotation |==|  0.47265 0.38131 0.38730 0.97166
USER: genes 2 Torsion [CB]-CA--N-[C] |==|  0.88406
USER: genes 3 Torsion [N]-C--CA-[N] |==|  0.27199
USER: genes 4 Torsion [C]-CA--N-[C] |==|  0.81519
USER: genes 5 Torsion [N]-C--CA-[N] |==|  0.91006
USER: genes 6 Torsion [C]-CA--N-[C] |==|  0.83376
USER: genes 7 Torsion [N]-C--CA-[N] |==|  0.66687
USER: genes 8 Torsion [C]-CA--N-[H3] |==|  0.85162
USER: genes 9 Torsion [C]-CA--CB-[CG] |==|  0.42304
USER: genes 10 Torsion [CA]-CB--CG-[CD] |==|  0.06299
USER: genes 11 Torsion [CB]-CG--CD-[OE2] |==|  0.82484
USER: genes 12 Torsion [C]-CA--CB-[CG2] |==|  0.29689
USER: genes 13 Torsion [CA]-CB--OG1-[HG1] |==|  0.46575
USER: genes 14 Torsion [C]-CA--CB-[CG] |==|  0.75372
USER: genes 15 Torsion [CA]-CB--CG-[CD2] |==|  0.70393
USER: genes 16 Torsion [N]-CA--C-[N] |==|  0.27913
USER: genes 17 Torsion [C]-N--CA-[CB] |==|  0.52694
USER: genes 18 Torsion [N]-CA--CB-[CG] |==|  0.76140
USER: genes 19 Torsion [CA]-CB--CG-[OD1] |==|  0.44409
USER: genes 20 Torsion [N]-CA--C-[N] |==|  0.45721
USER: genes 21 Torsion [C]-N--CA-[CB] |==|  0.56880
USER: genes 22 Torsion [N]-CA--CB-[CG] |==|  0.03935
USER: genes 23 Torsion [CA]-CB--CG-[CD2] |==|  0.57117
USER: genes 24 Torsion [N]-CA--C-[N] |==|  0.82778
USER: genes 25 Torsion [C]-N--CA-[CB] |==|  0.37539
USER: genes 26 Torsion [N]-CA--CB-[CG] |==|  0.27567
USER: genes 27 Torsion [CA]-CB--CG-[OD2] |==|  0.28546
USER: genes 28 Torsion [N]-CA--C-[O] |==|  0.10757
USER: genes 29 Torsion [N]-CA--CB-[CG] |==|  0.53847
USER: genes 30 Torsion [CA]-CB--CG-[CD2] |==|  0.08422
ROOT
ATOM      1  CA  LEU E   4      22.261 -17.615   0.244  1.00 22.51 LIG 0.18  C 
ENDROOT
BRANCH 1 2
ATOM      2  N   LEU E   4      21.823 -16.898  -0.926  1.00 20.57 LIG-0.35  N 
ATOM      3  C   LEU E   3      20.549 -16.653  -1.218  1.00 20.37 LIG 0.24  C 
ATOM      4 O    LEU E   3      19.594 -17.057  -0.539  1.00 19.26 LIG-0.27  OA
ATOM      5 H    LEU E   4      22.472 -16.638  -1.427  1.00 20.57 LIG 0.16  HD
BRANCH 3 6
ATOM      6  CA  LEU E   3      20.274 -15.885  -2.514  1.00 20.55 LIG 0.18  C 
BRANCH 6 7
ATOM      7  N   LEU E   3      19.919 -16.679  -3.666  1.00 20.86 LIG-0.35  N 
ATOM      8  C   THR E   2      20.807 -17.505  -4.212  1.00 24.34 LIG 0.24  C 
ATOM      9 O    THR E   2      21.890 -17.772  -3.674  1.00 23.87 LIG-0.27  OA
ATOM     10 H    LEU E   3      19.114 -16.569  -3.949  1.00 20.86 LIG 0.16  HD
BRANCH 8 11
ATOM     11  CA  THR E   2      20.427 -18.120  -5.534  1.00 25.18 LIG 0.20  C 
BRANCH 11 12
ATOM     12  N   THR E   2      18.972 -18.306  -5.553  1.00 26.55 LIG-0.34  N 
ATOM     13  C   GLU E   1      18.339 -19.062  -4.663  1.00 27.17 LIG 0.25  C 
ATOM     14 O    GLU E   1      18.923 -19.768  -3.832  1.00 25.74 LIG-0.27  OA
ATOM     15 H    THR E   2      18.573 -17.884  -6.187  1.00 26.55 LIG 0.16  HD
BRANCH 13 16
ATOM     16  CA  GLU E   1      16.813 -19.077  -4.741  1.00 31.71 LIG 0.28  C 
BRANCH 16 17
ATOM     17  N   GLU E   1      16.298 -18.578  -3.447  1.00 33.09 LIG-0.07  N 
ATOM     18 H3   GLU E   1      16.658 -19.049  -2.783  1.00 33.09 LIG 0.28  HD
ATOM     19 H2   GLU E   1      15.413 -18.666  -3.426  1.00 33.09 LIG 0.28  HD
ATOM     20 H1   GLU E   1      16.514 -17.720  -3.353  1.00 33.09 LIG 0.28  HD
ENDBRANCH 16 17
BRANCH 16 21
ATOM     21  CB  GLU E   1      16.327 -18.191  -5.897  1.00 32.36 LIG 0.05  C 
BRANCH 21 22
ATOM     22  CG  GLU E   1      14.991 -18.636  -6.469  1.00 32.63 LIG 0.12  C 
BRANCH 22 23
ATOM     23  CD  GLU E   1      14.146 -19.467  -5.511  1.00 33.25 LIG 0.17  C 
ATOM     24 OE2  GLU E   1      14.596 -20.573  -5.135  1.00 34.04 LIG-0.65  OA
ATOM     25 OE1  GLU E   1      13.037 -19.038  -5.132  1.00 33.29 LIG-0.65  OA
ENDBRANCH 22 23
ENDBRANCH 21 22
ENDBRANCH 16 21
ENDBRANCH 13 16
ENDBRANCH 11 12
BRANCH 11 26
ATOM     26  CB  THR E   2      20.895 -17.227  -6.696  1.00 27.29 LIG 0.15  C 
ATOM     27  CG2 THR E   2      22.061 -17.840  -7.384  1.00 26.73 LIG 0.04  C 
BRANCH 26 28
ATOM     28 OG1  THR E   2      19.815 -17.106  -7.632  1.00 28.79 LIG-0.39  OA
ATOM     29 HG1  THR E   2      19.987 -16.495  -8.181  1.00 28.79 LIG 0.21  HD
ENDBRANCH 26 28
ENDBRANCH 11 26
ENDBRANCH 8 11
ENDBRANCH 6 7
BRANCH 6 30
ATOM     30  CB  LEU E   3      19.173 -14.833  -2.271  1.00 20.98 LIG 0.04  C 
BRANCH 30 31
ATOM     31  CG  LEU E   3      17.739 -15.288  -2.474  1.00 22.16 LIG-0.02  C 
ATOM     32  CD2 LEU E   3      17.097 -14.752  -3.727  1.00 24.43 LIG 0.01  C 
ATOM     33  CD1 LEU E   3      16.940 -14.907  -1.240  1.00 21.08 LIG 0.01  C 
ENDBRANCH 30 31
ENDBRANCH 6 30
ENDBRANCH 3 6
ENDBRANCH 1 2
BRANCH 1 34
ATOM     34  C   LEU E   4      22.045 -19.104  -0.024  1.00 22.59 LIG 0.24  C 
ATOM     35 O    LEU E   4      20.926 -19.589   0.077  1.00 22.01 LIG-0.27  OA
ATOM     36  N   ASP E   5      23.116 -19.801  -0.381  1.00 23.28 LIG-0.35  N 
ATOM     37 H    ASP E   5      23.894 -19.454  -0.498  1.00 23.28 LIG 0.16  HD
BRANCH 36 38
ATOM     38  CA  ASP E   5      23.062 -21.265  -0.612  1.00 26.12 LIG 0.19  C 
BRANCH 38 39
ATOM     39  CB  ASP E   5      24.470 -21.825  -0.771  1.00 27.88 LIG 0.15  C 
BRANCH 39 40
ATOM     40  CG  ASP E   5      25.000 -21.732  -2.216  1.00 30.83 LIG 0.17  C 
ATOM     41 OD1  ASP E   5      26.220 -21.788  -2.456  1.00 34.24 LIG-0.65  OA
ATOM     42 OD2  ASP E   5      24.150 -21.607  -3.108  1.00 35.63 LIG-0.65  OA
ENDBRANCH 39 40
ENDBRANCH 38 39
BRANCH 38 43
ATOM     43  C   ASP E   5      22.365 -21.918   0.566  1.00 25.92 LIG 0.24  C 
ATOM     44 O    ASP E   5      22.171 -21.278   1.610  1.00 27.30 LIG-0.27  OA
ATOM     45  N   LEU E   6      21.953 -23.163   0.384  1.00 28.24 LIG-0.35  N 
ATOM     46 H    LEU E   6      22.068 -23.601  -0.348  1.00 28.24 LIG 0.16  HD
BRANCH 45 47
ATOM     47  CA  LEU E   6      21.251 -23.917   1.437  1.00 31.78 LIG 0.18  C 
BRANCH 47 48
ATOM     48  CB  LEU E   6      21.429 -25.433   1.236  1.00 30.53 LIG 0.04  C 
BRANCH 48 49
ATOM     49  CG  LEU E   6      22.534 -25.808   0.244  1.00 30.12 LIG-0.02  C 
ATOM     50  CD1 LEU E   6      23.911 -25.776   0.883  1.00 29.14 LIG 0.01  C 
ATOM     51  CD2 LEU E   6      22.267 -27.176  -0.383  1.00 31.89 LIG 0.01  C 
ENDBRANCH 48 49
ENDBRANCH 47 48
BRANCH 47 52
ATOM     52  C   LEU E   6      21.701 -23.519   2.842  1.00 36.88 LIG 0.24  C 
ATOM     53 O    LEU E   6      20.875 -23.019   3.621  1.00 37.54 LIG-0.27  OA
ATOM     54  N   ASP E   7      22.985 -23.731   3.145  1.00 40.21 LIG-0.35  N 
ATOM     55 H    ASP E   7      23.527 -24.153   2.626  1.00 40.21 LIG 0.16  HD
BRANCH 54 56
ATOM     56  CA  ASP E   7      23.605 -23.266   4.387  1.00 48.33 LIG 0.17  C 
BRANCH 56 57
ATOM     57  CB  ASP E   7      24.458 -24.375   4.982  1.00 51.73 LIG 0.15  C 
BRANCH 57 58
ATOM     58  CG  ASP E   7      25.933 -24.208   4.665  1.00 58.06 LIG 0.17  C 
ATOM     59 OD2  ASP E   7      26.678 -23.768   5.565  1.00 65.10 LIG-0.65  OA
ATOM     60 OD1  ASP E   7      26.356 -24.522   3.526  1.00 65.94 LIG-0.65  OA
ENDBRANCH 57 58
ENDBRANCH 56 57
BRANCH 56 61
ATOM     61  C   ASP E   7      24.463 -22.030   4.160  1.00 49.55 LIG 0.22  C 
ATOM     62 O    ASP E   7      24.091 -21.155   3.379  1.00 55.15 LIG-0.29  OA
ENDBRANCH 56 61
ENDBRANCH 54 56
ENDBRANCH 47 52
ENDBRANCH 45 47
ENDBRANCH 38 43
ENDBRANCH 36 38
ENDBRANCH 1 34
BRANCH 1 63
ATOM     63  CB  LEU E   4      21.443 -17.175   1.463  1.00 22.63 LIG 0.04  C 
BRANCH 63 64
ATOM     64  CG  LEU E   4      21.904 -17.538   2.871  1.00 23.40 LIG-0.02  C 
ATOM     65  CD2 LEU E   4      23.430 -17.628   2.899  1.00 23.91 LIG 0.01  C 
ATOM     66  CD1 LEU E   4      21.274 -18.829   3.358  1.00 22.51 LIG 0.01  C 
ENDBRANCH 63 64
ENDBRANCH 1 63
TORSDOF 29
ENDMDL
MODEL 43
USER: ADFR SOLUTION from run 182
USER: SCORE 21.187345 LL:  -6.002 LR: -17.490 RR:   0.000 FEB:  -8.839
USER: RMSD 4.924122
USER: SEED 181
USER: STATUS searching
USER: GENES 31
USER: genes 0 Translation |==|  0.66344 0.53038 0.63046
USER: genes 1 Rotation |==|  0.66851 0.43679 0.37730 0.95006
USER: genes 2 Torsion [CB]-CA--N-[C] |==|  0.86101
USER: genes 3 Torsion [N]-C--CA-[N] |==|  0.44848
USER: genes 4 Torsion [C]-CA--N-[C] |==|  0.54547
USER: genes 5 Torsion [N]-C--CA-[N] |==|  0.91418
USER: genes 6 Torsion [C]-CA--N-[C] |==|  0.83280
USER: genes 7 Torsion [N]-C--CA-[N] |==|  0.00883
USER: genes 8 Torsion [C]-CA--N-[H3] |==|  0.89341
USER: genes 9 Torsion [C]-CA--CB-[CG] |==|  0.52741
USER: genes 10 Torsion [CA]-CB--CG-[CD] |==|  0.23359
USER: genes 11 Torsion [CB]-CG--CD-[OE2] |==|  0.95626
USER: genes 12 Torsion [C]-CA--CB-[CG2] |==|  0.37575
USER: genes 13 Torsion [CA]-CB--OG1-[HG1] |==|  0.01350
USER: genes 14 Torsion [C]-CA--CB-[CG] |==|  0.01533
USER: genes 15 Torsion [CA]-CB--CG-[CD2] |==|  0.76133
USER: genes 16 Torsion [N]-CA--C-[N] |==|  0.35911
USER: genes 17 Torsion [C]-N--CA-[CB] |==|  0.43666
USER: genes 18 Torsion [N]-CA--CB-[CG] |==|  0.12701
USER: genes 19 Torsion [CA]-CB--CG-[OD1] |==|  0.55550
USER: genes 20 Torsion [N]-CA--C-[N] |==|  0.14224
USER: genes 21 Torsion [C]-N--CA-[CB] |==|  0.88326
USER: genes 22 Torsion [N]-CA--CB-[CG] |==|  0.35767
USER: genes 23 Torsion [CA]-CB--CG-[CD2] |==|  0.61583
USER: genes 24 Torsion [N]-CA--C-[N] |==|  0.87667
USER: genes 25 Torsion [C]-N--CA-[CB] |==|  0.40278
USER: genes 26 Torsion [N]-CA--CB-[CG] |==|  0.74149
USER: genes 27 Torsion [CA]-CB--CG-[OD2] |==|  0.08210
USER: genes 28 Torsion [N]-CA--C-[O] |==|  0.48864
USER: genes 29 Torsion [N]-CA--CB-[CG] |==|  0.68312
USER: genes 30 Torsion [CA]-CB--CG-[CD2] |==|  0.56144
ROOT
ATOM      1  CA  LEU E   4      23.383 -19.896   0.128  1.00 22.51 LIG 0.18  C 
ENDROOT
BRANCH 1 2
ATOM      2  N   LEU E   4      22.809 -18.608  -0.168  1.00 20.57 LIG-0.35  N 
ATOM      3  C   LEU E   3      21.515 -18.401  -0.393  1.00 20.37 LIG 0.24  C 
ATOM      4 O    LEU E   3      20.665 -19.304  -0.420  1.00 19.26 LIG-0.27  OA
ATOM      5 H    LEU E   4      23.391 -17.974  -0.186  1.00 20.57 LIG 0.16  HD
BRANCH 3 6
ATOM      6  CA  LEU E   3      21.090 -16.963  -0.704  1.00 20.55 LIG 0.18  C 
BRANCH 6 7
ATOM      7  N   LEU E   3      19.806 -16.799  -1.342  1.00 20.86 LIG-0.35  N 
ATOM      8  C   THR E   2      19.494 -15.651  -1.938  1.00 24.34 LIG 0.24  C 
ATOM      9 O    THR E   2      20.324 -14.753  -2.136  1.00 23.87 LIG-0.27  OA
ATOM     10 H    LEU E   3      19.289 -17.485  -1.301  1.00 20.86 LIG 0.16  HD
BRANCH 8 11
ATOM     11  CA  THR E   2      18.062 -15.491  -2.379  1.00 25.18 LIG 0.20  C 
BRANCH 11 12
ATOM     12  N   THR E   2      17.537 -16.817  -2.725  1.00 26.55 LIG-0.34  N 
ATOM     13  C   GLU E   1      18.071 -17.566  -3.683  1.00 27.17 LIG 0.25  C 
ATOM     14 O    GLU E   1      18.961 -17.166  -4.442  1.00 25.74 LIG-0.27  OA
ATOM     15 H    THR E   2      16.859 -17.059  -2.254  1.00 26.55 LIG 0.16  HD
BRANCH 13 16
ATOM     16  CA  GLU E   1      17.487 -18.967  -3.861  1.00 31.71 LIG 0.28  C 
BRANCH 16 17
ATOM     17  N   GLU E   1      16.363 -19.102  -2.909  1.00 33.09 LIG-0.07  N 
ATOM     18 H3   GLU E   1      16.571 -18.699  -2.144  1.00 33.09 LIG 0.28  HD
ATOM     19 H2   GLU E   1      16.206 -19.965  -2.755  1.00 33.09 LIG 0.28  HD
ATOM     20 H1   GLU E   1      15.634 -18.725  -3.253  1.00 33.09 LIG 0.28  HD
ENDBRANCH 16 17
BRANCH 16 21
ATOM     21  CB  GLU E   1      17.003 -19.166  -5.304  1.00 32.36 LIG 0.05  C 
BRANCH 21 22
ATOM     22  CG  GLU E   1      16.198 -20.441  -5.494  1.00 32.63 LIG 0.12  C 
BRANCH 22 23
ATOM     23  CD  GLU E   1      14.722 -20.308  -5.139  1.00 33.25 LIG 0.17  C 
ATOM     24 OE2  GLU E   1      14.365 -19.316  -4.462  1.00 34.04 LIG-0.65  OA
ATOM     25 OE1  GLU E   1      13.912 -21.178  -5.518  1.00 33.29 LIG-0.65  OA
ENDBRANCH 22 23
ENDBRANCH 21 22
ENDBRANCH 16 21
ENDBRANCH 13 16
ENDBRANCH 11 12
BRANCH 11 26
ATOM     26  CB  THR E   2      17.229 -14.830  -1.267  1.00 27.29 LIG 0.15  C 
ATOM     27  CG2 THR E   2      16.356 -13.769  -1.834  1.00 26.73 LIG 0.04  C 
BRANCH 26 28
ATOM     28 OG1  THR E   2      16.404 -15.837  -0.664  1.00 28.79 LIG-0.39  OA
ATOM     29 HG1  THR E   2      16.591 -16.586  -0.993  1.00 28.79 LIG 0.21  HD
ENDBRANCH 26 28
ENDBRANCH 11 26
ENDBRANCH 8 11
ENDBRANCH 6 7
BRANCH 6 30
ATOM     30  CB  LEU E   3      21.119 -16.121   0.588  1.00 20.98 LIG 0.04  C 
BRANCH 30 31
ATOM     31  CG  LEU E   3      21.664 -16.800   1.832  1.00 22.16 LIG-0.02  C 
ATOM     32  CD2 LEU E   3      20.636 -17.594   2.596  1.00 24.43 LIG 0.01  C 
ATOM     33  CD1 LEU E   3      22.306 -15.742   2.710  1.00 21.08 LIG 0.01  C 
ENDBRANCH 30 31
ENDBRANCH 6 30
ENDBRANCH 3 6
ENDBRANCH 1 2
BRANCH 1 34
ATOM     34  C   LEU E   4      23.307 -20.734  -1.147  1.00 22.59 LIG 0.24  C 
ATOM     35 O    LEU E   4      22.252 -20.821  -1.762  1.00 22.01 LIG-0.27  OA
ATOM     36  N   ASP E   5      24.430 -21.323  -1.535  1.00 23.28 LIG-0.35  N 
ATOM     37 H    ASP E   5      25.183 -21.227  -1.131  1.00 23.28 LIG 0.16  HD
BRANCH 36 38
ATOM     38  CA  ASP E   5      24.485 -22.215  -2.719  1.00 26.12 LIG 0.19  C 
BRANCH 38 39
ATOM     39  CB  ASP E   5      25.909 -22.289  -3.256  1.00 27.88 LIG 0.15  C 
BRANCH 39 40
ATOM     40  CG  ASP E   5      26.964 -22.496  -2.151  1.00 30.83 LIG 0.17  C 
ATOM     41 OD1  ASP E   5      28.161 -22.217  -2.347  1.00 34.24 LIG-0.65  OA
ATOM     42 OD2  ASP E   5      26.552 -22.944  -1.072  1.00 35.63 LIG-0.65  OA
ENDBRANCH 39 40
ENDBRANCH 38 39
BRANCH 38 43
ATOM     43  C   ASP E   5      24.002 -23.594  -2.312  1.00 25.92 LIG 0.24  C 
ATOM     44 O    ASP E   5      24.701 -24.592  -2.537  1.00 27.30 LIG-0.27  OA
ATOM     45  N   LEU E   6      22.839 -23.641  -1.681  1.00 28.24 LIG-0.35  N 
ATOM     46 H    LEU E   6      22.362 -22.947  -1.505  1.00 28.24 LIG 0.16  HD
BRANCH 45 47
ATOM     47  CA  LEU E   6      22.252 -24.910  -1.217  1.00 31.78 LIG 0.18  C 
BRANCH 47 48
ATOM     48  CB  LEU E   6      22.420 -26.012  -2.278  1.00 30.53 LIG 0.04  C 
BRANCH 48 49
ATOM     49  CG  LEU E   6      23.034 -27.309  -1.744  1.00 30.12 LIG-0.02  C 
ATOM     50  CD1 LEU E   6      21.977 -28.349  -1.415  1.00 29.14 LIG 0.01  C 
ATOM     51  CD2 LEU E   6      24.057 -27.878  -2.726  1.00 31.89 LIG 0.01  C 
ENDBRANCH 48 49
ENDBRANCH 47 48
BRANCH 47 52
ATOM     52  C   LEU E   6      22.837 -25.374   0.116  1.00 36.88 LIG 0.24  C 
ATOM     53 O    LEU E   6      22.071 -25.789   1.000  1.00 37.54 LIG-0.27  OA
ATOM     54  N   ASP E   7      24.164 -25.292   0.252  1.00 40.21 LIG-0.35  N 
ATOM     55 H    ASP E   7      24.690 -25.081  -0.396  1.00 40.21 LIG 0.16  HD
BRANCH 54 56
ATOM     56  CA  ASP E   7      24.861 -25.551   1.513  1.00 48.33 LIG 0.17  C 
BRANCH 56 57
ATOM     57  CB  ASP E   7      26.200 -26.212   1.234  1.00 51.73 LIG 0.15  C 
BRANCH 57 58
ATOM     58  CG  ASP E   7      26.121 -27.727   1.277  1.00 58.06 LIG 0.17  C 
ATOM     59 OD2  ASP E   7      25.039 -28.265   0.963  1.00 65.10 LIG-0.65  OA
ATOM     60 OD1  ASP E   7      27.136 -28.386   1.611  1.00 65.94 LIG-0.65  OA
ENDBRANCH 57 58
ENDBRANCH 56 57
BRANCH 56 61
ATOM     61  C   ASP E   7      25.080 -24.272   2.308  1.00 49.55 LIG 0.22  C 
ATOM     62 O    ASP E   7      25.585 -24.320   3.429  1.00 55.15 LIG-0.29  OA
ENDBRANCH 56 61
ENDBRANCH 54 56
ENDBRANCH 47 52
ENDBRANCH 45 47
ENDBRANCH 38 43
ENDBRANCH 36 38
ENDBRANCH 1 34
BRANCH 1 63
ATOM     63  CB  LEU E   4      22.593 -20.574   1.252  1.00 22.63 LIG 0.04  C 
BRANCH 63 64
ATOM     64  CG  LEU E   4      23.247 -20.831   2.606  1.00 23.40 LIG-0.02  C 
ATOM     65  CD2 LEU E   4      22.503 -21.955   3.326  1.00 23.91 LIG 0.01  C 
ATOM     66  CD1 LEU E   4      23.295 -19.578   3.458  1.00 22.51 LIG 0.01  C 
ENDBRANCH 63 64
ENDBRANCH 1 63
TORSDOF 29
ENDMDL
