MODEL 1
USER: ADFR SOLUTION from run 101
USER: SCORE 15.070210 LL:  -4.530 LR: -11.973 RR:   0.000 FEB:  -6.603
USER: RMSD 6.646237
USER: SEED 100
USER: STATUS no improvement in best in 27 clusters for 5 generations
USER: GENES 20
USER: genes 0 Translation |==|  0.43252 0.64729 0.52570
USER: genes 1 Rotation |==|  0.71284 0.05563 0.50114 0.58503
USER: genes 2 Torsion [N]-C--CA-[N] |==|  0.43699
USER: genes 3 Torsion [C]-CA--CB-[CG] |==|  0.33844
USER: genes 4 Torsion [CA]-CB--CG-[CD1] |==|  0.50750
USER: genes 5 Torsion [C]-CA--N-[C] |==|  0.46981
USER: genes 6 Torsion [N]-C--CA-[N] |==|  0.48333
USER: genes 7 Torsion [C]-CA--CB-[CG1] |==|  0.72538
USER: genes 8 Torsion [CA]-CB--CG1-[CD1] |==|  0.64140
USER: genes 9 Torsion [C]-CA--N-[C] |==|  0.76444
USER: genes 10 Torsion [N]-C--CA-[N] |==|  0.54300
USER: genes 11 Torsion [C]-CA--CB-[CG] |==|  0.83545
USER: genes 12 Torsion [CA]-CB--CG-[OD1] |==|  0.38011
USER: genes 13 Torsion [C]-N--CA-[CB] |==|  0.15380
USER: genes 14 Torsion [N]-CA--CB-[CG] |==|  0.19864
USER: genes 15 Torsion [CA]-CB--CG-[CD1] |==|  0.32148
USER: genes 16 Torsion [N]-CA--C-[N] |==|  0.17663
USER: genes 17 Torsion [N]-CA--C-[O] |==|  0.94655
USER: genes 18 Torsion [C]-N--CA-[C] |==|  0.73499
USER: genes 19 Torsion [N]-CA--C-[O] |==|  0.00654
ROOT
ATOM      1  C   LEU G   4      38.846  10.268  23.110  1.00 61.38 LIG 0.24  C 
ATOM      2 O    LEU G   4      39.433  10.722  24.098  1.00 52.06 LIG-0.27  OA
ATOM      3  N   PHE G   5      38.821   8.993  22.764  1.00 60.80 LIG-0.35  N 
ATOM      4 H    PHE G   5      38.380   8.699  22.087  1.00 60.80 LIG 0.16  HD
ENDROOT
BRANCH 1 5
ATOM      5  CA  LEU G   4      38.111  11.165  22.158  1.00 58.56 LIG 0.18  C 
BRANCH 5 6
ATOM      6  CB  LEU G   4      39.033  11.437  20.973  1.00 61.47 LIG 0.04  C 
BRANCH 6 7
ATOM      7  CG  LEU G   4      38.461  11.023  19.635  1.00 62.80 LIG-0.02  C 
ATOM      8  CD1 LEU G   4      39.523  11.299  18.591  1.00 63.22 LIG 0.01  C 
ATOM      9  CD2 LEU G   4      38.078   9.545  19.704  1.00 64.86 LIG 0.01  C 
ENDBRANCH 6 7
ENDBRANCH 5 6
BRANCH 5 10
ATOM     10  N   LEU G   4      37.736  12.380  22.855  1.00 59.02 LIG-0.35  N 
ATOM     11 H    LEU G   4      37.843  12.357  23.708  1.00 59.02 LIG 0.16  HD
ATOM     12  C   ILE G   3      37.264  13.429  22.180  1.00 70.10 LIG 0.24  C 
ATOM     13 O    ILE G   3      37.331  13.505  20.933  1.00 64.55 LIG-0.27  OA
BRANCH 12 14
ATOM     14  CA  ILE G   3      36.624  14.561  23.028  1.00 67.83 LIG 0.18  C 
BRANCH 14 15
ATOM     15  CB  ILE G   3      35.363  14.045  23.791  1.00 66.94 LIG 0.01  C 
ATOM     16  CG2 ILE G   3      35.346  14.583  25.222  1.00 67.41 LIG 0.01  C 
BRANCH 15 17
ATOM     17  CG1 ILE G   3      34.042  14.417  23.063  1.00 59.79 LIG 0.00  C 
ATOM     18  CD1 ILE G   3      33.024  15.085  23.949  1.00 60.74 LIG 0.01  C 
ENDBRANCH 15 17
ENDBRANCH 14 15
BRANCH 14 19
ATOM     19  N   ILE G   3      36.288  15.689  22.174  1.00 79.60 LIG-0.34  N 
ATOM     20 H    ILE G   3      35.473  15.685  21.902  1.00 79.60 LIG 0.16  HD
ATOM     21  C   ASP G   2      37.162  16.643  21.841  1.00 93.07 LIG 0.26  C 
ATOM     22 O    ASP G   2      38.303  16.706  22.302  1.00 81.24 LIG-0.27  OA
BRANCH 21 23
ATOM     23  CA  ASP G   2      36.700  17.690  20.819  1.00 93.30 LIG 0.41  C 
ATOM     24  N   ASP G   2      37.900  18.413  20.308  1.00 94.60 LIG 0.61  N 
BRANCH 23 25
ATOM     25  CB  ASP G   2      35.925  17.059  19.652  1.00 96.36 LIG 0.16  C 
BRANCH 25 26
ATOM     26  CG  ASP G   2      36.744  16.035  18.897  1.00103.24 LIG 0.17  C 
ATOM     27 OD1  ASP G   2      36.210  14.960  18.560  1.00112.85 LIG-0.65  OA
ATOM     28 OD2  ASP G   2      37.926  16.303  18.630  1.00105.87 LIG-0.65  OA
ENDBRANCH 25 26
ENDBRANCH 23 25
ENDBRANCH 21 23
ENDBRANCH 14 19
ENDBRANCH 12 14
ENDBRANCH 5 10
ENDBRANCH 1 5
BRANCH 3 29
ATOM     29  CA  PHE G   5      39.525   7.968  23.481  1.00 70.05 LIG 0.18  C 
BRANCH 29 30
ATOM     30  CB  PHE G   5      39.124   7.972  24.971  1.00 73.20 LIG 0.07  C 
BRANCH 30 31
ATOM     31  CG  PHE G   5      37.712   7.456  25.205  1.00 79.36 LIG-0.06  A 
ATOM     32  CD1 PHE G   5      37.502   6.267  25.946  1.00 85.64 LIG 0.01  A 
ATOM     33  CE1 PHE G   5      36.223   5.783  26.186  1.00 88.71 LIG 0.00  A 
ATOM     34  CZ  PHE G   5      35.123   6.491  25.691  1.00 96.11 LIG 0.00  A 
ATOM     35  CE2 PHE G   5      35.311   7.681  24.969  1.00 91.53 LIG 0.00  A 
ATOM     36  CD2 PHE G   5      36.595   8.160  24.729  1.00 81.01 LIG 0.01  A 
ENDBRANCH 30 31
ENDBRANCH 29 30
BRANCH 29 37
ATOM     37  C   PHE G   5      39.213   6.664  22.755  1.00 74.26 LIG 0.24  C 
ATOM     38  N   PRO G   6      39.646   6.557  21.479  1.00 79.01 LIG-0.34  N 
ATOM     39  CD  PRO G   6      40.262   7.668  20.705  1.00 76.17 LIG 0.13  C 
ATOM     40  CA  PRO G   6      39.262   5.428  20.617  1.00 78.34 LIG 0.18  C 
ATOM     41  CG  PRO G   6      40.615   7.032  19.406  1.00 78.03 LIG 0.02  C 
ATOM     42  CB  PRO G   6      39.560   5.975  19.210  1.00 82.73 LIG 0.04  C 
ATOM     43 O    PHE G   5      38.513   5.807  23.308  1.00 61.78 LIG-0.27  OA
BRANCH 40 44
ATOM     44  C   PRO G   6      40.022   4.102  20.842  1.00 77.34 LIG 0.24  C 
ATOM     45 O    PRO G   6      41.093   4.125  21.423  1.00 92.50 LIG-0.27  OA
ATOM     46  N   ALA G   7      39.470   2.969  20.383  1.00 74.20 LIG-0.35  N 
ATOM     47 H    ALA G   7      38.629   2.884  20.222  1.00 74.20 LIG 0.16  HD
BRANCH 46 48
ATOM     48  CA  ALA G   7      40.263   1.741  20.106  1.00 71.75 LIG 0.16  C 
ATOM     49  CB  ALA G   7      39.470   0.493  20.496  1.00 70.01 LIG 0.04  C 
BRANCH 48 50
ATOM     50  C   ALA G   7      40.646   1.685  18.610  1.00 69.94 LIG 0.22  C 
ATOM     51 O    ALA G   7      40.324   2.622  17.836  1.00 56.97 LIG-0.29  OA
ENDBRANCH 48 50
ENDBRANCH 46 48
ENDBRANCH 40 44
ENDBRANCH 29 37
ENDBRANCH 3 29
TORSDOF 18
ENDMDL
MODEL 2
USER: ADFR SOLUTION from run 52
USER: SCORE 14.686109 LL:  -4.635 LR: -11.687 RR:   0.000 FEB:  -6.317
USER: RMSD 12.580501
USER: SEED 51
USER: STATUS no improvement in best in 29 clusters for 5 generations
USER: GENES 20
USER: genes 0 Translation |==|  0.46683 0.34168 0.67256
USER: genes 1 Rotation |==|  0.95506 0.68207 0.59878 0.50324
USER: genes 2 Torsion [N]-C--CA-[N] |==|  0.53857
USER: genes 3 Torsion [C]-CA--CB-[CG] |==|  0.59917
USER: genes 4 Torsion [CA]-CB--CG-[CD1] |==|  0.29297
USER: genes 5 Torsion [C]-CA--N-[C] |==|  0.75807
USER: genes 6 Torsion [N]-C--CA-[N] |==|  0.28672
USER: genes 7 Torsion [C]-CA--CB-[CG1] |==|  0.50881
USER: genes 8 Torsion [CA]-CB--CG1-[CD1] |==|  0.29258
USER: genes 9 Torsion [C]-CA--N-[C] |==|  0.77778
USER: genes 10 Torsion [N]-C--CA-[N] |==|  0.94492
USER: genes 11 Torsion [C]-CA--CB-[CG] |==|  0.94541
USER: genes 12 Torsion [CA]-CB--CG-[OD1] |==|  0.82431
USER: genes 13 Torsion [C]-N--CA-[CB] |==|  0.19979
USER: genes 14 Torsion [N]-CA--CB-[CG] |==|  0.75300
USER: genes 15 Torsion [CA]-CB--CG-[CD1] |==|  0.42143
USER: genes 16 Torsion [N]-CA--C-[N] |==|  0.42594
USER: genes 17 Torsion [N]-CA--C-[O] |==|  0.13725
USER: genes 18 Torsion [C]-N--CA-[C] |==|  0.79445
USER: genes 19 Torsion [N]-CA--C-[O] |==|  0.69885
ROOT
ATOM      1  C   LEU G   4      39.412   1.788  25.533  1.00 61.38 LIG 0.24  C 
ATOM      2 O    LEU G   4      38.722   1.389  26.478  1.00 52.06 LIG-0.27  OA
ATOM      3  N   PHE G   5      39.619   3.057  25.230  1.00 60.80 LIG-0.35  N 
ATOM      4 H    PHE G   5      40.128   3.308  24.584  1.00 60.80 LIG 0.16  HD
ENDROOT
BRANCH 1 5
ATOM      5  CA  LEU G   4      40.071   0.827  24.589  1.00 58.56 LIG 0.18  C 
BRANCH 5 6
ATOM      6  CB  LEU G   4      39.825   1.330  23.169  1.00 61.47 LIG 0.04  C 
BRANCH 6 7
ATOM      7  CG  LEU G   4      39.620   0.231  22.149  1.00 62.80 LIG-0.02  C 
ATOM      8  CD1 LEU G   4      38.142   0.200  21.819  1.00 63.22 LIG 0.01  C 
ATOM      9  CD2 LEU G   4      40.487   0.533  20.927  1.00 64.86 LIG 0.01  C 
ENDBRANCH 6 7
ENDBRANCH 5 6
BRANCH 5 10
ATOM     10  N   LEU G   4      39.521  -0.497  24.808  1.00 59.02 LIG-0.35  N 
ATOM     11 H    LEU G   4      38.854  -0.701  24.305  1.00 59.02 LIG 0.16  HD
ATOM     12  C   ILE G   3      40.044  -1.302  25.733  1.00 70.10 LIG 0.24  C 
ATOM     13 O    ILE G   3      41.141  -1.061  26.285  1.00 64.55 LIG-0.27  OA
BRANCH 12 14
ATOM     14  CA  ILE G   3      39.218  -2.566  26.092  1.00 67.83 LIG 0.18  C 
BRANCH 14 15
ATOM     15  CB  ILE G   3      39.126  -2.755  27.639  1.00 66.94 LIG 0.01  C 
ATOM     16  CG2 ILE G   3      38.457  -1.543  28.288  1.00 67.41 LIG 0.01  C 
BRANCH 15 17
ATOM     17  CG1 ILE G   3      38.371  -4.056  28.028  1.00 59.79 LIG 0.00  C 
ATOM     18  CD1 ILE G   3      39.271  -5.160  28.519  1.00 60.74 LIG 0.01  C 
ENDBRANCH 15 17
ENDBRANCH 14 15
BRANCH 14 19
ATOM     19  N   ILE G   3      39.806  -3.737  25.459  1.00 79.60 LIG-0.34  N 
ATOM     20 H    ILE G   3      40.292  -4.207  25.990  1.00 79.60 LIG 0.16  HD
ATOM     21  C   ASP G   2      39.609  -4.054  24.177  1.00 93.07 LIG 0.26  C 
ATOM     22 O    ASP G   2      38.839  -3.438  23.438  1.00 81.24 LIG-0.27  OA
BRANCH 21 23
ATOM     23  CA  ASP G   2      40.409  -5.238  23.619  1.00 93.30 LIG 0.41  C 
ATOM     24  N   ASP G   2      41.583  -5.475  24.507  1.00 94.60 LIG 0.61  N 
BRANCH 23 25
ATOM     25  CB  ASP G   2      39.560  -6.514  23.513  1.00 96.36 LIG 0.16  C 
BRANCH 25 26
ATOM     26  CG  ASP G   2      38.327  -6.467  24.389  1.00103.24 LIG 0.17  C 
ATOM     27 OD1  ASP G   2      38.465  -6.396  25.626  1.00112.85 LIG-0.65  OA
ATOM     28 OD2  ASP G   2      37.213  -6.493  23.844  1.00105.87 LIG-0.65  OA
ENDBRANCH 25 26
ENDBRANCH 23 25
ENDBRANCH 21 23
ENDBRANCH 14 19
ENDBRANCH 12 14
ENDBRANCH 5 10
ENDBRANCH 1 5
BRANCH 3 29
ATOM     29  CA  PHE G   5      39.019   4.147  25.945  1.00 70.05 LIG 0.18  C 
BRANCH 29 30
ATOM     30  CB  PHE G   5      39.657   4.299  27.341  1.00 73.20 LIG 0.07  C 
BRANCH 30 31
ATOM     31  CG  PHE G   5      38.961   3.461  28.403  1.00 79.36 LIG-0.06  A 
ATOM     32  CD1 PHE G   5      39.685   2.992  29.528  1.00 85.64 LIG 0.01  A 
ATOM     33  CE1 PHE G   5      39.070   2.238  30.518  1.00 88.71 LIG 0.00  A 
ATOM     34  CZ  PHE G   5      37.708   1.945  30.404  1.00 96.11 LIG 0.00  A 
ATOM     35  CE2 PHE G   5      36.970   2.416  29.305  1.00 91.53 LIG 0.00  A 
ATOM     36  CD2 PHE G   5      37.592   3.169  28.314  1.00 81.01 LIG 0.01  A 
ENDBRANCH 30 31
ENDBRANCH 29 30
BRANCH 29 37
ATOM     37  C   PHE G   5      39.179   5.371  25.050  1.00 74.26 LIG 0.24  C 
ATOM     38  N   PRO G   6      38.267   6.358  25.196  1.00 79.01 LIG-0.34  N 
ATOM     39  CD  PRO G   6      37.054   6.261  26.052  1.00 76.17 LIG 0.13  C 
ATOM     40  CA  PRO G   6      38.207   7.507  24.279  1.00 78.34 LIG 0.18  C 
ATOM     41  CG  PRO G   6      36.428   7.606  25.922  1.00 78.03 LIG 0.02  C 
ATOM     42  CB  PRO G   6      36.790   8.051  24.529  1.00 82.73 LIG 0.04  C 
ATOM     43 O    PHE G   5      40.056   5.382  24.178  1.00 61.78 LIG-0.27  OA
BRANCH 40 44
ATOM     44  C   PRO G   6      39.251   8.624  24.508  1.00 77.34 LIG 0.24  C 
ATOM     45 O    PRO G   6      40.425   8.320  24.625  1.00 92.50 LIG-0.27  OA
ATOM     46  N   ALA G   7      38.819   9.892  24.570  1.00 74.20 LIG-0.35  N 
ATOM     47 H    ALA G   7      38.073  10.155  24.232  1.00 74.20 LIG 0.16  HD
BRANCH 46 48
ATOM     48  CA  ALA G   7      39.594  10.975  25.234  1.00 71.75 LIG 0.16  C 
ATOM     49  CB  ALA G   7      39.064  12.346  24.813  1.00 70.01 LIG 0.04  C 
BRANCH 48 50
ATOM     50  C   ALA G   7      39.513  10.819  26.769  1.00 69.94 LIG 0.22  C 
ATOM     51 O    ALA G   7      38.835  11.626  27.455  1.00 56.97 LIG-0.29  OA
ENDBRANCH 48 50
ENDBRANCH 46 48
ENDBRANCH 40 44
ENDBRANCH 29 37
ENDBRANCH 3 29
TORSDOF 18
ENDMDL
MODEL 3
USER: ADFR SOLUTION from run 7
USER: SCORE 13.775195 LL:  -5.179 LR: -11.326 RR:   0.000 FEB:  -5.957
USER: RMSD 5.770980
USER: SEED 137069
USER: STATUS no improvement in best in 12 clusters for 5 generations
USER: GENES 20
USER: genes 0 Translation |==|  0.44492 0.58034 0.40918
USER: genes 1 Rotation |==|  0.50652 0.12665 0.40332 0.81815
USER: genes 2 Torsion [N]-C--CA-[N] |==|  0.23117
USER: genes 3 Torsion [C]-CA--CB-[CG] |==|  0.35458
USER: genes 4 Torsion [CA]-CB--CG-[CD1] |==|  0.41954
USER: genes 5 Torsion [C]-CA--N-[C] |==|  0.17139
USER: genes 6 Torsion [N]-C--CA-[N] |==|  0.91806
USER: genes 7 Torsion [C]-CA--CB-[CG1] |==|  0.30243
USER: genes 8 Torsion [CA]-CB--CG1-[CD1] |==|  0.75480
USER: genes 9 Torsion [C]-CA--N-[C] |==|  0.75013
USER: genes 10 Torsion [N]-C--CA-[N] |==|  0.43862
USER: genes 11 Torsion [C]-CA--CB-[CG] |==|  0.76934
USER: genes 12 Torsion [CA]-CB--CG-[OD1] |==|  0.11161
USER: genes 13 Torsion [C]-N--CA-[CB] |==|  0.91157
USER: genes 14 Torsion [N]-CA--CB-[CG] |==|  0.79095
USER: genes 15 Torsion [CA]-CB--CG-[CD1] |==|  0.24153
USER: genes 16 Torsion [N]-CA--C-[N] |==|  0.18616
USER: genes 17 Torsion [N]-CA--C-[O] |==|  0.41767
USER: genes 18 Torsion [C]-N--CA-[C] |==|  0.21831
USER: genes 19 Torsion [N]-CA--C-[O] |==|  0.33371
ROOT
ATOM      1  C   LEU G   4      39.050   8.411  21.187  1.00 61.38 LIG 0.24  C 
ATOM      2 O    LEU G   4      40.242   8.178  20.956  1.00 52.06 LIG-0.27  OA
ATOM      3  N   PHE G   5      38.194   7.541  21.695  1.00 60.80 LIG-0.35  N 
ATOM      4 H    PHE G   5      37.376   7.738  21.874  1.00 60.80 LIG 0.16  HD
ENDROOT
BRANCH 1 5
ATOM      5  CA  LEU G   4      38.438   9.742  20.865  1.00 58.56 LIG 0.18  C 
BRANCH 5 6
ATOM      6  CB  LEU G   4      39.279  10.385  19.766  1.00 61.47 LIG 0.04  C 
BRANCH 6 7
ATOM      7  CG  LEU G   4      38.483  10.845  18.565  1.00 62.80 LIG-0.02  C 
ATOM      8  CD1 LEU G   4      39.224  12.020  17.963  1.00 63.22 LIG 0.01  C 
ATOM      9  CD2 LEU G   4      38.350   9.675  17.591  1.00 64.86 LIG 0.01  C 
ENDBRANCH 6 7
ENDBRANCH 5 6
BRANCH 5 10
ATOM     10  N   LEU G   4      38.401  10.544  22.072  1.00 59.02 LIG-0.35  N 
ATOM     11 H    LEU G   4      37.613  10.771  22.332  1.00 59.02 LIG 0.16  HD
ATOM     12  C   ILE G   3      39.529  10.880  22.698  1.00 70.10 LIG 0.24  C 
ATOM     13 O    ILE G   3      40.629  10.351  22.420  1.00 64.55 LIG-0.27  OA
BRANCH 12 14
ATOM     14  CA  ILE G   3      39.408  11.967  23.799  1.00 67.83 LIG 0.18  C 
BRANCH 14 15
ATOM     15  CB  ILE G   3      39.210  11.319  25.206  1.00 66.94 LIG 0.01  C 
ATOM     16  CG2 ILE G   3      38.834   9.844  25.068  1.00 67.41 LIG 0.01  C 
BRANCH 15 17
ATOM     17  CG1 ILE G   3      40.468  11.470  26.105  1.00 59.79 LIG 0.00  C 
ATOM     18  CD1 ILE G   3      41.468  10.355  25.946  1.00 60.74 LIG 0.01  C 
ENDBRANCH 15 17
ENDBRANCH 14 15
BRANCH 14 19
ATOM     19  N   ILE G   3      38.312  12.870  23.483  1.00 79.60 LIG-0.34  N 
ATOM     20 H    ILE G   3      37.557  12.622  23.811  1.00 79.60 LIG 0.16  HD
ATOM     21  C   ASP G   2      38.462  13.979  22.754  1.00 93.07 LIG 0.26  C 
ATOM     22 O    ASP G   2      39.556  14.388  22.362  1.00 81.24 LIG-0.27  OA
BRANCH 21 23
ATOM     23  CA  ASP G   2      37.189  14.753  22.388  1.00 93.30 LIG 0.41  C 
ATOM     24  N   ASP G   2      37.566  16.161  22.078  1.00 94.60 LIG 0.61  N 
BRANCH 23 25
ATOM     25  CB  ASP G   2      36.453  14.126  21.194  1.00 96.36 LIG 0.16  C 
BRANCH 25 26
ATOM     26  CG  ASP G   2      37.026  14.564  19.863  1.00103.24 LIG 0.17  C 
ATOM     27 OD1  ASP G   2      38.263  14.662  19.739  1.00112.85 LIG-0.65  OA
ATOM     28 OD2  ASP G   2      36.242  14.806  18.933  1.00105.87 LIG-0.65  OA
ENDBRANCH 25 26
ENDBRANCH 23 25
ENDBRANCH 21 23
ENDBRANCH 14 19
ENDBRANCH 12 14
ENDBRANCH 5 10
ENDBRANCH 1 5
BRANCH 3 29
ATOM     29  CA  PHE G   5      38.538   6.182  22.001  1.00 70.05 LIG 0.18  C 
BRANCH 29 30
ATOM     30  CB  PHE G   5      39.609   5.658  21.022  1.00 73.20 LIG 0.07  C 
BRANCH 30 31
ATOM     31  CG  PHE G   5      39.047   5.338  19.646  1.00 79.36 LIG-0.06  A 
ATOM     32  CD1 PHE G   5      38.955   6.353  18.661  1.00 85.64 LIG 0.01  A 
ATOM     33  CE1 PHE G   5      38.459   6.083  17.392  1.00 88.71 LIG 0.00  A 
ATOM     34  CZ  PHE G   5      38.051   4.782  17.083  1.00 96.11 LIG 0.00  A 
ATOM     35  CE2 PHE G   5      38.150   3.761  18.040  1.00 91.53 LIG 0.00  A 
ATOM     36  CD2 PHE G   5      38.646   4.037  19.311  1.00 81.01 LIG 0.01  A 
ENDBRANCH 30 31
ENDBRANCH 29 30
BRANCH 29 37
ATOM     37  C   PHE G   5      38.974   6.181  23.461  1.00 74.26 LIG 0.24  C 
ATOM     38  N   PRO G   6      38.022   6.450  24.383  1.00 79.01 LIG-0.34  N 
ATOM     39  CD  PRO G   6      36.637   6.885  24.058  1.00 76.17 LIG 0.13  C 
ATOM     40  CA  PRO G   6      38.347   6.651  25.804  1.00 78.34 LIG 0.18  C 
ATOM     41  CG  PRO G   6      35.982   6.984  25.392  1.00 78.03 LIG 0.02  C 
ATOM     42  CB  PRO G   6      37.096   7.380  26.325  1.00 82.73 LIG 0.04  C 
ATOM     43 O    PHE G   5      40.169   6.034  23.744  1.00 61.78 LIG-0.27  OA
BRANCH 40 44
ATOM     44  C   PRO G   6      38.602   5.375  26.638  1.00 77.34 LIG 0.24  C 
ATOM     45 O    PRO G   6      39.364   5.431  27.587  1.00 92.50 LIG-0.27  OA
ATOM     46  N   ALA G   7      37.971   4.246  26.280  1.00 74.20 LIG-0.35  N 
ATOM     47 H    ALA G   7      37.251   4.236  25.810  1.00 74.20 LIG 0.16  HD
BRANCH 46 48
ATOM     48  CA  ALA G   7      38.459   2.894  26.663  1.00 71.75 LIG 0.16  C 
ATOM     49  CB  ALA G   7      39.974   2.802  26.482  1.00 70.01 LIG 0.04  C 
BRANCH 48 50
ATOM     50  C   ALA G   7      38.076   2.589  28.129  1.00 69.94 LIG 0.22  C 
ATOM     51 O    ALA G   7      37.348   1.601  28.403  1.00 56.97 LIG-0.29  OA
ENDBRANCH 48 50
ENDBRANCH 46 48
ENDBRANCH 40 44
ENDBRANCH 29 37
ENDBRANCH 3 29
TORSDOF 18
ENDMDL
MODEL 4
USER: ADFR SOLUTION from run 8
USER: SCORE 15.027970 LL:  -5.291 LR: -11.319 RR:   0.000 FEB:  -5.949
USER: RMSD 5.394205
USER: SEED 871806
USER: STATUS no improvement in best in 11 clusters for 5 generations
USER: GENES 20
USER: genes 0 Translation |==|  0.43778 0.49627 0.65363
USER: genes 1 Rotation |==|  0.71002 0.09617 0.50518 0.70684
USER: genes 2 Torsion [N]-C--CA-[N] |==|  0.82466
USER: genes 3 Torsion [C]-CA--CB-[CG] |==|  0.28180
USER: genes 4 Torsion [CA]-CB--CG-[CD1] |==|  0.31584
USER: genes 5 Torsion [C]-CA--N-[C] |==|  0.75088
USER: genes 6 Torsion [N]-C--CA-[N] |==|  0.48331
USER: genes 7 Torsion [C]-CA--CB-[CG1] |==|  0.76442
USER: genes 8 Torsion [CA]-CB--CG1-[CD1] |==|  0.20436
USER: genes 9 Torsion [C]-CA--N-[C] |==|  0.77045
USER: genes 10 Torsion [N]-C--CA-[N] |==|  0.26593
USER: genes 11 Torsion [C]-CA--CB-[CG] |==|  0.68915
USER: genes 12 Torsion [CA]-CB--CG-[OD1] |==|  0.13766
USER: genes 13 Torsion [C]-N--CA-[CB] |==|  0.17553
USER: genes 14 Torsion [N]-CA--CB-[CG] |==|  0.20550
USER: genes 15 Torsion [CA]-CB--CG-[CD1] |==|  0.35220
USER: genes 16 Torsion [N]-CA--C-[N] |==|  0.24299
USER: genes 17 Torsion [N]-CA--C-[O] |==|  0.83073
USER: genes 18 Torsion [C]-N--CA-[C] |==|  0.79924
USER: genes 19 Torsion [N]-CA--C-[O] |==|  0.00353
ROOT
ATOM      1  C   LEU G   4      38.932   6.078  25.221  1.00 61.38 LIG 0.24  C 
ATOM      2 O    LEU G   4      39.835   6.752  25.729  1.00 52.06 LIG-0.27  OA
ATOM      3  N   PHE G   5      38.901   4.757  25.189  1.00 60.80 LIG-0.35  N 
ATOM      4 H    PHE G   5      38.246   4.311  24.855  1.00 60.80 LIG 0.16  HD
ENDROOT
BRANCH 1 5
ATOM      5  CA  LEU G   4      37.766   6.725  24.536  1.00 58.56 LIG 0.18  C 
BRANCH 5 6
ATOM      6  CB  LEU G   4      36.494   6.239  25.225  1.00 61.47 LIG 0.04  C 
BRANCH 6 7
ATOM      7  CG  LEU G   4      35.897   7.232  26.198  1.00 62.80 LIG-0.02  C 
ATOM      8  CD1 LEU G   4      34.565   7.669  25.627  1.00 63.22 LIG 0.01  C 
ATOM      9  CD2 LEU G   4      35.758   6.556  27.561  1.00 64.86 LIG 0.01  C 
ENDBRANCH 6 7
ENDBRANCH 5 6
BRANCH 5 10
ATOM     10  N   LEU G   4      37.798   6.378  23.128  1.00 59.02 LIG-0.35  N 
ATOM     11 H    LEU G   4      37.367   5.663  22.921  1.00 59.02 LIG 0.16  HD
ATOM     12  C   ILE G   3      38.459   7.141  22.258  1.00 70.10 LIG 0.24  C 
ATOM     13 O    ILE G   3      38.882   8.280  22.556  1.00 64.55 LIG-0.27  OA
BRANCH 12 14
ATOM     14  CA  ILE G   3      38.678   6.540  20.844  1.00 67.83 LIG 0.18  C 
BRANCH 14 15
ATOM     15  CB  ILE G   3      39.557   5.252  20.913  1.00 66.94 LIG 0.01  C 
ATOM     16  CG2 ILE G   3      39.218   4.310  19.757  1.00 67.41 LIG 0.01  C 
BRANCH 15 17
ATOM     17  CG1 ILE G   3      41.077   5.576  20.911  1.00 59.79 LIG 0.00  C 
ATOM     18  CD1 ILE G   3      41.580   6.147  22.211  1.00 60.74 LIG 0.01  C 
ENDBRANCH 15 17
ENDBRANCH 14 15
BRANCH 14 19
ATOM     19  N   ILE G   3      39.282   7.535  19.971  1.00 79.60 LIG-0.34  N 
ATOM     20 H    ILE G   3      40.136   7.460  19.902  1.00 79.60 LIG 0.16  HD
ATOM     21  C   ASP G   2      38.580   8.477  19.336  1.00 93.07 LIG 0.26  C 
ATOM     22 O    ASP G   2      37.349   8.533  19.357  1.00 81.24 LIG-0.27  OA
BRANCH 21 23
ATOM     23  CA  ASP G   2      39.373   9.541  18.566  1.00 93.30 LIG 0.41  C 
ATOM     24  N   ASP G   2      39.457   9.124  17.137  1.00 94.60 LIG 0.61  N 
BRANCH 23 25
ATOM     25  CB  ASP G   2      38.734  10.933  18.674  1.00 96.36 LIG 0.16  C 
BRANCH 25 26
ATOM     26  CG  ASP G   2      38.165  11.416  17.358  1.00103.24 LIG 0.17  C 
ATOM     27 OD1  ASP G   2      37.417  10.661  16.707  1.00112.85 LIG-0.65  OA
ATOM     28 OD2  ASP G   2      38.459  12.557  16.970  1.00105.87 LIG-0.65  OA
ENDBRANCH 25 26
ENDBRANCH 23 25
ENDBRANCH 21 23
ENDBRANCH 14 19
ENDBRANCH 12 14
ENDBRANCH 5 10
ENDBRANCH 1 5
BRANCH 3 29
ATOM     29  CA  PHE G   5      39.952   3.930  25.708  1.00 70.05 LIG 0.18  C 
BRANCH 29 30
ATOM     30  CB  PHE G   5      40.105   4.135  27.230  1.00 73.20 LIG 0.07  C 
BRANCH 30 31
ATOM     31  CG  PHE G   5      38.988   3.482  28.029  1.00 79.36 LIG-0.06  A 
ATOM     32  CD1 PHE G   5      39.296   2.588  29.085  1.00 85.64 LIG 0.01  A 
ATOM     33  CE1 PHE G   5      38.295   1.990  29.839  1.00 88.71 LIG 0.00  A 
ATOM     34  CZ  PHE G   5      36.959   2.285  29.553  1.00 96.11 LIG 0.00  A 
ATOM     35  CE2 PHE G   5      36.635   3.181  28.522  1.00 91.53 LIG 0.00  A 
ATOM     36  CD2 PHE G   5      37.642   3.775  27.767  1.00 81.01 LIG 0.01  A 
ENDBRANCH 30 31
ENDBRANCH 29 30
BRANCH 29 37
ATOM     37  C   PHE G   5      39.599   2.503  25.304  1.00 74.26 LIG 0.24  C 
ATOM     38  N   PRO G   6      40.029   2.088  24.091  1.00 79.01 LIG-0.34  N 
ATOM     39  CD  PRO G   6      40.683   2.968  23.085  1.00 76.17 LIG 0.13  C 
ATOM     40  CA  PRO G   6      39.609   0.802  23.513  1.00 78.34 LIG 0.18  C 
ATOM     41  CG  PRO G   6      41.017   2.036  21.973  1.00 78.03 LIG 0.02  C 
ATOM     42  CB  PRO G   6      39.928   0.996  22.020  1.00 82.73 LIG 0.04  C 
ATOM     43 O    PHE G   5      38.869   1.822  26.034  1.00 61.78 LIG-0.27  OA
BRANCH 40 44
ATOM     44  C   PRO G   6      40.325  -0.459  24.047  1.00 77.34 LIG 0.24  C 
ATOM     45 O    PRO G   6      41.531  -0.559  23.905  1.00 92.50 LIG-0.27  OA
ATOM     46  N   ALA G   7      39.584  -1.401  24.649  1.00 74.20 LIG-0.35  N 
ATOM     47 H    ALA G   7      38.812  -1.246  24.996  1.00 74.20 LIG 0.16  HD
BRANCH 46 48
ATOM     48  CA  ALA G   7      40.028  -2.815  24.777  1.00 71.75 LIG 0.16  C 
ATOM     49  CB  ALA G   7      39.161  -3.557  25.794  1.00 70.01 LIG 0.04  C 
BRANCH 48 50
ATOM     50  C   ALA G   7      39.958  -3.518  23.402  1.00 69.94 LIG 0.22  C 
ATOM     51 O    ALA G   7      39.590  -2.882  22.382  1.00 56.97 LIG-0.29  OA
ENDBRANCH 48 50
ENDBRANCH 46 48
ENDBRANCH 40 44
ENDBRANCH 29 37
ENDBRANCH 3 29
TORSDOF 18
ENDMDL
MODEL 5
USER: ADFR SOLUTION from run 115
USER: SCORE 15.326505 LL:  -4.716 LR: -11.258 RR:   0.000 FEB:  -5.889
USER: RMSD 5.381986
USER: SEED 114
USER: STATUS no improvement in best in 5 clusters for 5 generations
USER: GENES 20
USER: genes 0 Translation |==|  0.42422 0.51114 0.61272
USER: genes 1 Rotation |==|  0.31619 0.52096 0.43322 0.95969
USER: genes 2 Torsion [N]-C--CA-[N] |==|  0.42824
USER: genes 3 Torsion [C]-CA--CB-[CG] |==|  0.93376
USER: genes 4 Torsion [CA]-CB--CG-[CD1] |==|  0.34146
USER: genes 5 Torsion [C]-CA--N-[C] |==|  0.78877
USER: genes 6 Torsion [N]-C--CA-[N] |==|  0.33555
USER: genes 7 Torsion [C]-CA--CB-[CG1] |==|  0.46090
USER: genes 8 Torsion [CA]-CB--CG1-[CD1] |==|  0.01893
USER: genes 9 Torsion [C]-CA--N-[C] |==|  0.79382
USER: genes 10 Torsion [N]-C--CA-[N] |==|  0.07750
USER: genes 11 Torsion [C]-CA--CB-[CG] |==|  0.80147
USER: genes 12 Torsion [CA]-CB--CG-[OD1] |==|  0.98353
USER: genes 13 Torsion [C]-N--CA-[CB] |==|  0.81088
USER: genes 14 Torsion [N]-CA--CB-[CG] |==|  0.68925
USER: genes 15 Torsion [CA]-CB--CG-[CD1] |==|  0.50058
USER: genes 16 Torsion [N]-CA--C-[N] |==|  0.51667
USER: genes 17 Torsion [N]-CA--C-[O] |==|  0.82984
USER: genes 18 Torsion [C]-N--CA-[C] |==|  0.22461
USER: genes 19 Torsion [N]-CA--C-[O] |==|  0.37347
ROOT
ATOM      1  C   LEU G   4      38.709   6.490  24.546  1.00 61.38 LIG 0.24  C 
ATOM      2 O    LEU G   4      38.131   5.804  23.696  1.00 52.06 LIG-0.27  OA
ATOM      3  N   PHE G   5      39.458   6.011  25.523  1.00 60.80 LIG-0.35  N 
ATOM      4 H    PHE G   5      39.873   6.513  26.085  1.00 60.80 LIG 0.16  HD
ENDROOT
BRANCH 1 5
ATOM      5  CA  LEU G   4      38.574   7.984  24.566  1.00 58.56 LIG 0.18  C 
BRANCH 5 6
ATOM      6  CB  LEU G   4      37.453   8.335  25.541  1.00 61.47 LIG 0.04  C 
BRANCH 6 7
ATOM      7  CG  LEU G   4      36.451   7.224  25.760  1.00 62.80 LIG-0.02  C 
ATOM      8  CD1 LEU G   4      36.426   6.933  27.246  1.00 63.22 LIG 0.01  C 
ATOM      9  CD2 LEU G   4      35.093   7.681  25.229  1.00 64.86 LIG 0.01  C 
ENDBRANCH 6 7
ENDBRANCH 5 6
BRANCH 5 10
ATOM     10  N   LEU G   4      38.300   8.447  23.219  1.00 59.02 LIG-0.35  N 
ATOM     11 H    LEU G   4      37.483   8.672  23.072  1.00 59.02 LIG 0.16  HD
ATOM     12  C   ILE G   3      39.275   8.503  22.312  1.00 70.10 LIG 0.24  C 
ATOM     13 O    ILE G   3      40.481   8.382  22.620  1.00 64.55 LIG-0.27  OA
BRANCH 12 14
ATOM     14  CA  ILE G   3      38.832   8.731  20.841  1.00 67.83 LIG 0.18  C 
BRANCH 14 15
ATOM     15  CB  ILE G   3      39.200   7.503  19.949  1.00 66.94 LIG 0.01  C 
ATOM     16  CG2 ILE G   3      38.884   6.197  20.680  1.00 67.41 LIG 0.01  C 
BRANCH 15 17
ATOM     17  CG1 ILE G   3      38.476   7.537  18.575  1.00 59.79 LIG 0.00  C 
ATOM     18  CD1 ILE G   3      37.708   8.807  18.321  1.00 60.74 LIG 0.01  C 
ENDBRANCH 15 17
ENDBRANCH 14 15
BRANCH 14 19
ATOM     19  N   ILE G   3      39.440   9.948  20.325  1.00 79.60 LIG-0.34  N 
ATOM     20 H    ILE G   3      40.083   9.804  19.773  1.00 79.60 LIG 0.16  HD
ATOM     21  C   ASP G   2      39.038  11.173  20.674  1.00 93.07 LIG 0.26  C 
ATOM     22 O    ASP G   2      38.058  11.385  21.390  1.00 81.24 LIG-0.27  OA
BRANCH 21 23
ATOM     23  CA  ASP G   2      39.868  12.355  20.156  1.00 93.30 LIG 0.41  C 
ATOM     24  N   ASP G   2      40.512  11.953  18.873  1.00 94.60 LIG 0.61  N 
BRANCH 23 25
ATOM     25  CB  ASP G   2      39.016  13.616  19.948  1.00 96.36 LIG 0.16  C 
BRANCH 25 26
ATOM     26  CG  ASP G   2      38.086  13.500  18.760  1.00103.24 LIG 0.17  C 
ATOM     27 OD1  ASP G   2      38.167  12.498  18.022  1.00112.85 LIG-0.65  OA
ATOM     28 OD2  ASP G   2      37.264  14.407  18.561  1.00105.87 LIG-0.65  OA
ENDBRANCH 25 26
ENDBRANCH 23 25
ENDBRANCH 21 23
ENDBRANCH 14 19
ENDBRANCH 12 14
ENDBRANCH 5 10
ENDBRANCH 1 5
BRANCH 3 29
ATOM     29  CA  PHE G   5      39.658   4.608  25.749  1.00 70.05 LIG 0.18  C 
BRANCH 29 30
ATOM     30  CB  PHE G   5      38.350   3.941  26.221  1.00 73.20 LIG 0.07  C 
BRANCH 30 31
ATOM     31  CG  PHE G   5      38.414   3.469  27.666  1.00 79.36 LIG-0.06  A 
ATOM     32  CD1 PHE G   5      37.296   2.829  28.256  1.00 85.64 LIG 0.01  A 
ATOM     33  CE1 PHE G   5      37.334   2.377  29.568  1.00 88.71 LIG 0.00  A 
ATOM     34  CZ  PHE G   5      38.503   2.550  30.314  1.00 96.11 LIG 0.00  A 
ATOM     35  CE2 PHE G   5      39.627   3.167  29.741  1.00 91.53 LIG 0.00  A 
ATOM     36  CD2 PHE G   5      39.582   3.621  28.426  1.00 81.01 LIG 0.01  A 
ENDBRANCH 30 31
ENDBRANCH 29 30
BRANCH 29 37
ATOM     37  C   PHE G   5      40.206   4.050  24.441  1.00 74.26 LIG 0.24  C 
ATOM     38  N   PRO G   6      40.359   2.709  24.366  1.00 79.01 LIG-0.34  N 
ATOM     39  CD  PRO G   6      40.172   1.776  25.510  1.00 76.17 LIG 0.13  C 
ATOM     40  CA  PRO G   6      41.037   2.063  23.231  1.00 78.34 LIG 0.18  C 
ATOM     41  CG  PRO G   6      40.389   0.434  24.903  1.00 78.03 LIG 0.02  C 
ATOM     42  CB  PRO G   6      41.389   0.679  23.804  1.00 82.73 LIG 0.04  C 
ATOM     43 O    PHE G   5      40.573   4.825  23.549  1.00 61.78 LIG-0.27  OA
BRANCH 40 44
ATOM     44  C   PRO G   6      40.209   1.904  21.935  1.00 77.34 LIG 0.24  C 
ATOM     45 O    PRO G   6      39.191   1.234  21.963  1.00 92.50 LIG-0.27  OA
ATOM     46  N   ALA G   7      40.648   2.513  20.823  1.00 74.20 LIG-0.35  N 
ATOM     47 H    ALA G   7      41.184   3.185  20.833  1.00 74.20 LIG 0.16  HD
BRANCH 46 48
ATOM     48  CA  ALA G   7      40.248   2.080  19.457  1.00 71.75 LIG 0.16  C 
ATOM     49  CB  ALA G   7      40.233   0.555  19.363  1.00 70.01 LIG 0.04  C 
BRANCH 48 50
ATOM     50  C   ALA G   7      38.856   2.651  19.108  1.00 69.94 LIG 0.22  C 
ATOM     51 O    ALA G   7      38.649   3.181  17.986  1.00 56.97 LIG-0.29  OA
ENDBRANCH 48 50
ENDBRANCH 46 48
ENDBRANCH 40 44
ENDBRANCH 29 37
ENDBRANCH 3 29
TORSDOF 18
ENDMDL
MODEL 6
USER: ADFR SOLUTION from run 197
USER: SCORE 15.700848 LL:  -5.433 LR: -11.261 RR:   0.000 FEB:  -5.891
USER: RMSD 6.547655
USER: SEED 196
USER: STATUS no improvement in best in 9 clusters for 5 generations
USER: GENES 20
USER: genes 0 Translation |==|  0.46144 0.60012 0.57934
USER: genes 1 Rotation |==|  0.54166 0.05418 0.29751 0.59222
USER: genes 2 Torsion [N]-C--CA-[N] |==|  0.42154
USER: genes 3 Torsion [C]-CA--CB-[CG] |==|  0.27196
USER: genes 4 Torsion [CA]-CB--CG-[CD1] |==|  0.08681
USER: genes 5 Torsion [C]-CA--N-[C] |==|  0.65269
USER: genes 6 Torsion [N]-C--CA-[N] |==|  0.55550
USER: genes 7 Torsion [C]-CA--CB-[CG1] |==|  0.83570
USER: genes 8 Torsion [CA]-CB--CG1-[CD1] |==|  0.40959
USER: genes 9 Torsion [C]-CA--N-[C] |==|  0.73840
USER: genes 10 Torsion [N]-C--CA-[N] |==|  0.75251
USER: genes 11 Torsion [C]-CA--CB-[CG] |==|  0.78003
USER: genes 12 Torsion [CA]-CB--CG-[OD1] |==|  0.82164
USER: genes 13 Torsion [C]-N--CA-[CB] |==|  0.78889
USER: genes 14 Torsion [N]-CA--CB-[CG] |==|  0.80382
USER: genes 15 Torsion [CA]-CB--CG-[CD1] |==|  0.61979
USER: genes 16 Torsion [N]-CA--C-[N] |==|  0.21603
USER: genes 17 Torsion [N]-CA--C-[O] |==|  0.68997
USER: genes 18 Torsion [C]-N--CA-[C] |==|  0.90192
USER: genes 19 Torsion [N]-CA--C-[O] |==|  0.36549
ROOT
ATOM      1  C   LEU G   4      39.323   8.959  23.995  1.00 61.38 LIG 0.24  C 
ATOM      2 O    LEU G   4      40.140   8.250  24.593  1.00 52.06 LIG-0.27  OA
ATOM      3  N   PHE G   5      38.313   8.506  23.273  1.00 60.80 LIG-0.35  N 
ATOM      4 H    PHE G   5      37.741   9.021  22.891  1.00 60.80 LIG 0.16  HD
ENDROOT
BRANCH 1 5
ATOM      5  CA  LEU G   4      39.431  10.455  24.008  1.00 58.56 LIG 0.18  C 
BRANCH 5 6
ATOM      6  CB  LEU G   4      40.246  10.872  22.786  1.00 61.47 LIG 0.04  C 
BRANCH 6 7
ATOM      7  CG  LEU G   4      39.410  11.312  21.604  1.00 62.80 LIG-0.02  C 
ATOM      8  CD1 LEU G   4      38.150  11.941  22.160  1.00 63.22 LIG 0.01  C 
ATOM      9  CD2 LEU G   4      40.232  12.290  20.765  1.00 64.86 LIG 0.01  C 
ENDBRANCH 6 7
ENDBRANCH 5 6
BRANCH 5 10
ATOM     10  N   LEU G   4      40.051  10.870  25.252  1.00 59.02 LIG-0.35  N 
ATOM     11 H    LEU G   4      40.812  10.506  25.416  1.00 59.02 LIG 0.16  HD
ATOM     12  C   ILE G   3      39.446  11.752  26.048  1.00 70.10 LIG 0.24  C 
ATOM     13 O    ILE G   3      38.457  12.420  25.674  1.00 64.55 LIG-0.27  OA
BRANCH 12 14
ATOM     14  CA  ILE G   3      40.038  11.910  27.474  1.00 67.83 LIG 0.18  C 
BRANCH 14 15
ATOM     15  CB  ILE G   3      40.526  10.536  28.033  1.00 66.94 LIG 0.01  C 
ATOM     16  CG2 ILE G   3      41.164  10.715  29.411  1.00 67.41 LIG 0.01  C 
BRANCH 15 17
ATOM     17  CG1 ILE G   3      39.379   9.490  28.106  1.00 59.79 LIG 0.00  C 
ATOM     18  CD1 ILE G   3      39.830   8.072  27.874  1.00 60.74 LIG 0.01  C 
ENDBRANCH 15 17
ENDBRANCH 14 15
BRANCH 14 19
ATOM     19  N   ILE G   3      39.049  12.508  28.357  1.00 79.60 LIG-0.34  N 
ATOM     20 H    ILE G   3      38.514  11.937  28.712  1.00 79.60 LIG 0.16  HD
ATOM     21  C   ASP G   2      38.977  13.820  28.595  1.00 93.07 LIG 0.26  C 
ATOM     22 O    ASP G   2      39.798  14.632  28.165  1.00 81.24 LIG-0.27  OA
BRANCH 21 23
ATOM     23  CA  ASP G   2      37.793  14.315  29.436  1.00 93.30 LIG 0.41  C 
ATOM     24  N   ASP G   2      36.658  14.618  28.519  1.00 94.60 LIG 0.61  N 
BRANCH 23 25
ATOM     25  CB  ASP G   2      37.360  13.286  30.491  1.00 96.36 LIG 0.16  C 
BRANCH 25 26
ATOM     26  CG  ASP G   2      36.513  12.176  29.908  1.00103.24 LIG 0.17  C 
ATOM     27 OD1  ASP G   2      35.398  12.454  29.425  1.00112.85 LIG-0.65  OA
ATOM     28 OD2  ASP G   2      36.961  11.019  29.924  1.00105.87 LIG-0.65  OA
ENDBRANCH 25 26
ENDBRANCH 23 25
ENDBRANCH 21 23
ENDBRANCH 14 19
ENDBRANCH 12 14
ENDBRANCH 5 10
ENDBRANCH 1 5
BRANCH 3 29
ATOM     29  CA  PHE G   5      38.066   7.110  23.051  1.00 70.05 LIG 0.18  C 
BRANCH 29 30
ATOM     30  CB  PHE G   5      39.055   6.540  22.013  1.00 73.20 LIG 0.07  C 
BRANCH 30 31
ATOM     31  CG  PHE G   5      38.788   7.044  20.603  1.00 79.36 LIG-0.06  A 
ATOM     32  CD1 PHE G   5      38.838   6.148  19.506  1.00 85.64 LIG 0.01  A 
ATOM     33  CE1 PHE G   5      38.583   6.579  18.211  1.00 88.71 LIG 0.00  A 
ATOM     34  CZ  PHE G   5      38.265   7.923  17.991  1.00 96.11 LIG 0.00  A 
ATOM     35  CE2 PHE G   5      38.194   8.821  19.068  1.00 91.53 LIG 0.00  A 
ATOM     36  CD2 PHE G   5      38.452   8.384  20.364  1.00 81.01 LIG 0.01  A 
ENDBRANCH 30 31
ENDBRANCH 29 30
BRANCH 29 37
ATOM     37  C   PHE G   5      38.152   6.449  24.422  1.00 74.26 LIG 0.24  C 
ATOM     38  N   PRO G   6      37.082   6.590  25.236  1.00 79.01 LIG-0.34  N 
ATOM     39  CD  PRO G   6      35.911   7.459  24.942  1.00 76.17 LIG 0.13  C 
ATOM     40  CA  PRO G   6      37.107   6.152  26.641  1.00 78.34 LIG 0.18  C 
ATOM     41  CG  PRO G   6      35.000   7.217  26.094  1.00 78.03 LIG 0.02  C 
ATOM     42  CB  PRO G   6      35.927   6.931  27.247  1.00 82.73 LIG 0.04  C 
ATOM     43 O    PHE G   5      39.204   5.902  24.775  1.00 61.78 LIG-0.27  OA
BRANCH 40 44
ATOM     44  C   PRO G   6      36.928   4.638  26.892  1.00 77.34 LIG 0.24  C 
ATOM     45 O    PRO G   6      35.908   4.245  27.432  1.00 92.50 LIG-0.27  OA
ATOM     46  N   ALA G   7      37.910   3.810  26.506  1.00 74.20 LIG-0.35  N 
ATOM     47 H    ALA G   7      38.489   4.013  25.904  1.00 74.20 LIG 0.16  HD
BRANCH 46 48
ATOM     48  CA  ALA G   7      38.093   2.452  27.085  1.00 71.75 LIG 0.16  C 
ATOM     49  CB  ALA G   7      39.536   1.983  26.900  1.00 70.01 LIG 0.04  C 
BRANCH 48 50
ATOM     50  C   ALA G   7      37.722   2.462  28.586  1.00 69.94 LIG 0.22  C 
ATOM     51 O    ALA G   7      36.959   1.580  29.057  1.00 56.97 LIG-0.29  OA
ENDBRANCH 48 50
ENDBRANCH 46 48
ENDBRANCH 40 44
ENDBRANCH 29 37
ENDBRANCH 3 29
TORSDOF 18
ENDMDL
MODEL 7
USER: ADFR SOLUTION from run 10
USER: SCORE 14.505962 LL:  -4.948 LR: -11.242 RR:   0.000 FEB:  -5.873
USER: RMSD 6.259668
USER: SEED 638308
USER: STATUS no improvement in best in 18 clusters for 5 generations
USER: GENES 20
USER: genes 0 Translation |==|  0.49095 0.47959 0.63212
USER: genes 1 Rotation |==|  0.67220 0.06250 0.48043 0.66900
USER: genes 2 Torsion [N]-C--CA-[N] |==|  0.79692
USER: genes 3 Torsion [C]-CA--CB-[CG] |==|  0.32442
USER: genes 4 Torsion [CA]-CB--CG-[CD1] |==|  0.59773
USER: genes 5 Torsion [C]-CA--N-[C] |==|  0.60948
USER: genes 6 Torsion [N]-C--CA-[N] |==|  0.13144
USER: genes 7 Torsion [C]-CA--CB-[CG1] |==|  0.83871
USER: genes 8 Torsion [CA]-CB--CG1-[CD1] |==|  0.64515
USER: genes 9 Torsion [C]-CA--N-[C] |==|  0.64390
USER: genes 10 Torsion [N]-C--CA-[N] |==|  0.96231
USER: genes 11 Torsion [C]-CA--CB-[CG] |==|  0.75488
USER: genes 12 Torsion [CA]-CB--CG-[OD1] |==|  0.77491
USER: genes 13 Torsion [C]-N--CA-[CB] |==|  0.14959
USER: genes 14 Torsion [N]-CA--CB-[CG] |==|  0.19836
USER: genes 15 Torsion [CA]-CB--CG-[CD1] |==|  0.35826
USER: genes 16 Torsion [N]-CA--C-[N] |==|  0.20556
USER: genes 17 Torsion [N]-CA--C-[O] |==|  0.69122
USER: genes 18 Torsion [C]-N--CA-[C] |==|  0.51097
USER: genes 19 Torsion [N]-CA--C-[O] |==|  0.08985
ROOT
ATOM      1  C   LEU G   4      39.810   5.615  24.866  1.00 61.38 LIG 0.24  C 
ATOM      2 O    LEU G   4      40.750   6.037  25.548  1.00 52.06 LIG-0.27  OA
ATOM      3  N   PHE G   5      39.506   4.339  24.703  1.00 60.80 LIG-0.35  N 
ATOM      4 H    PHE G   5      38.827   4.073  24.246  1.00 60.80 LIG 0.16  HD
ENDROOT
BRANCH 1 5
ATOM      5  CA  LEU G   4      38.918   6.549  24.103  1.00 58.56 LIG 0.18  C 
BRANCH 5 6
ATOM      6  CB  LEU G   4      37.474   6.145  24.385  1.00 61.47 LIG 0.04  C 
BRANCH 6 7
ATOM      7  CG  LEU G   4      36.661   7.204  25.097  1.00 62.80 LIG-0.02  C 
ATOM      8  CD1 LEU G   4      35.712   6.484  26.031  1.00 63.22 LIG 0.01  C 
ATOM      9  CD2 LEU G   4      37.619   8.137  25.838  1.00 64.86 LIG 0.01  C 
ENDBRANCH 6 7
ENDBRANCH 5 6
BRANCH 5 10
ATOM     10  N   LEU G   4      39.250   6.467  22.694  1.00 59.02 LIG-0.35  N 
ATOM     11 H    LEU G   4      39.426   5.675  22.409  1.00 59.02 LIG 0.16  HD
ATOM     12  C   ILE G   3      39.266   7.565  21.937  1.00 70.10 LIG 0.24  C 
ATOM     13 O    ILE G   3      38.793   8.653  22.331  1.00 64.55 LIG-0.27  OA
BRANCH 12 14
ATOM     14  CA  ILE G   3      39.907   7.420  20.531  1.00 67.83 LIG 0.18  C 
BRANCH 14 15
ATOM     15  CB  ILE G   3      39.648   8.693  19.664  1.00 66.94 LIG 0.01  C 
ATOM     16  CG2 ILE G   3      40.314   8.553  18.295  1.00 67.41 LIG 0.01  C 
BRANCH 15 17
ATOM     17  CG1 ILE G   3      38.132   8.990  19.495  1.00 59.79 LIG 0.00  C 
ATOM     18  CD1 ILE G   3      37.702   9.168  18.062  1.00 60.74 LIG 0.01  C 
ENDBRANCH 15 17
ENDBRANCH 14 15
BRANCH 14 19
ATOM     19  N   ILE G   3      39.391   6.230  19.872  1.00 79.60 LIG-0.34  N 
ATOM     20 H    ILE G   3      38.533   6.187  19.862  1.00 79.60 LIG 0.16  HD
ATOM     21  C   ASP G   2      40.175   5.292  19.334  1.00 93.07 LIG 0.26  C 
ATOM     22 O    ASP G   2      41.401   5.393  19.263  1.00 81.24 LIG-0.27  OA
BRANCH 21 23
ATOM     23  CA  ASP G   2      39.488   4.028  18.801  1.00 93.30 LIG 0.41  C 
ATOM     24  N   ASP G   2      38.088   4.001  19.313  1.00 94.60 LIG 0.61  N 
BRANCH 23 25
ATOM     25  CB  ASP G   2      39.491   3.968  17.267  1.00 96.36 LIG 0.16  C 
BRANCH 25 26
ATOM     26  CG  ASP G   2      38.292   4.659  16.655  1.00103.24 LIG 0.17  C 
ATOM     27 OD1  ASP G   2      37.205   4.051  16.600  1.00112.85 LIG-0.65  OA
ATOM     28 OD2  ASP G   2      38.429   5.817  16.231  1.00105.87 LIG-0.65  OA
ENDBRANCH 25 26
ENDBRANCH 23 25
ENDBRANCH 21 23
ENDBRANCH 14 19
ENDBRANCH 12 14
ENDBRANCH 5 10
ENDBRANCH 1 5
BRANCH 3 29
ATOM     29  CA  PHE G   5      40.273   3.266  25.270  1.00 70.05 LIG 0.18  C 
BRANCH 29 30
ATOM     30  CB  PHE G   5      40.437   3.460  26.792  1.00 73.20 LIG 0.07  C 
BRANCH 30 31
ATOM     31  CG  PHE G   5      39.146   3.223  27.560  1.00 79.36 LIG-0.06  A 
ATOM     32  CD1 PHE G   5      39.131   2.347  28.674  1.00 85.64 LIG 0.01  A 
ATOM     33  CE1 PHE G   5      37.969   2.125  29.401  1.00 88.71 LIG 0.00  A 
ATOM     34  CZ  PHE G   5      36.796   2.788  29.029  1.00 96.11 LIG 0.00  A 
ATOM     35  CE2 PHE G   5      36.795   3.672  27.938  1.00 91.53 LIG 0.00  A 
ATOM     36  CD2 PHE G   5      37.962   3.889  27.212  1.00 81.01 LIG 0.01  A 
ENDBRANCH 30 31
ENDBRANCH 29 30
BRANCH 29 37
ATOM     37  C   PHE G   5      39.548   1.984  24.879  1.00 74.26 LIG 0.24  C 
ATOM     38  N   PRO G   6      39.659   1.587  23.592  1.00 79.01 LIG-0.34  N 
ATOM     39  CD  PRO G   6      40.308   2.388  22.519  1.00 76.17 LIG 0.13  C 
ATOM     40  CA  PRO G   6      38.871   0.470  23.048  1.00 78.34 LIG 0.18  C 
ATOM     41  CG  PRO G   6      40.229   1.500  21.327  1.00 78.03 LIG 0.02  C 
ATOM     42  CB  PRO G   6      38.962   0.713  21.532  1.00 82.73 LIG 0.04  C 
ATOM     43 O    PHE G   5      38.823   1.414  25.704  1.00 61.78 LIG-0.27  OA
BRANCH 40 44
ATOM     44  C   PRO G   6      39.371  -0.953  23.388  1.00 77.34 LIG 0.24  C 
ATOM     45 O    PRO G   6      39.832  -1.645  22.497  1.00 92.50 LIG-0.27  OA
ATOM     46  N   ALA G   7      39.274  -1.373  24.658  1.00 74.20 LIG-0.35  N 
ATOM     47 H    ALA G   7      39.213  -0.839  25.329  1.00 74.20 LIG 0.16  HD
BRANCH 46 48
ATOM     48  CA  ALA G   7      39.262  -2.813  25.031  1.00 71.75 LIG 0.16  C 
ATOM     49  CB  ALA G   7      40.573  -3.483  24.619  1.00 70.01 LIG 0.04  C 
BRANCH 48 50
ATOM     50  C   ALA G   7      39.041  -2.963  26.553  1.00 69.94 LIG 0.22  C 
ATOM     51 O    ALA G   7      38.336  -2.130  27.178  1.00 56.97 LIG-0.29  OA
ENDBRANCH 48 50
ENDBRANCH 46 48
ENDBRANCH 40 44
ENDBRANCH 29 37
ENDBRANCH 3 29
TORSDOF 18
ENDMDL
MODEL 8
USER: ADFR SOLUTION from run 170
USER: SCORE 15.820041 LL:  -5.519 LR: -11.157 RR:   0.000 FEB:  -5.788
USER: RMSD 4.785916
USER: SEED 169
USER: STATUS no improvement in best in 20 clusters for 5 generations
USER: GENES 20
USER: genes 0 Translation |==|  0.46132 0.48405 0.58071
USER: genes 1 Rotation |==|  0.20904 0.87515 0.65681 0.50440
USER: genes 2 Torsion [N]-C--CA-[N] |==|  0.93778
USER: genes 3 Torsion [C]-CA--CB-[CG] |==|  0.29637
USER: genes 4 Torsion [CA]-CB--CG-[CD1] |==|  0.30495
USER: genes 5 Torsion [C]-CA--N-[C] |==|  0.82506
USER: genes 6 Torsion [N]-C--CA-[N] |==|  0.83805
USER: genes 7 Torsion [C]-CA--CB-[CG1] |==|  0.55047
USER: genes 8 Torsion [CA]-CB--CG1-[CD1] |==|  0.77432
USER: genes 9 Torsion [C]-CA--N-[C] |==|  0.67244
USER: genes 10 Torsion [N]-C--CA-[N] |==|  0.02470
USER: genes 11 Torsion [C]-CA--CB-[CG] |==|  0.82634
USER: genes 12 Torsion [CA]-CB--CG-[OD1] |==|  0.80087
USER: genes 13 Torsion [C]-N--CA-[CB] |==|  0.86656
USER: genes 14 Torsion [N]-CA--CB-[CG] |==|  0.82372
USER: genes 15 Torsion [CA]-CB--CG-[CD1] |==|  0.86996
USER: genes 16 Torsion [N]-CA--C-[N] |==|  0.32222
USER: genes 17 Torsion [N]-CA--C-[O] |==|  0.94887
USER: genes 18 Torsion [C]-N--CA-[C] |==|  0.77088
USER: genes 19 Torsion [N]-CA--C-[O] |==|  0.03153
ROOT
ATOM      1  C   LEU G   4      39.321   5.738  24.018  1.00 61.38 LIG 0.24  C 
ATOM      2 O    LEU G   4      39.872   5.504  25.099  1.00 52.06 LIG-0.27  OA
ATOM      3  N   PHE G   5      39.596   5.126  22.879  1.00 60.80 LIG-0.35  N 
ATOM      4 H    PHE G   5      39.177   5.288  22.146  1.00 60.80 LIG 0.16  HD
ENDROOT
BRANCH 1 5
ATOM      5  CA  LEU G   4      38.276   6.807  23.890  1.00 58.56 LIG 0.18  C 
BRANCH 5 6
ATOM      6  CB  LEU G   4      36.950   6.218  24.362  1.00 61.47 LIG 0.04  C 
BRANCH 6 7
ATOM      7  CG  LEU G   4      36.492   6.726  25.712  1.00 62.80 LIG-0.02  C 
ATOM      8  CD1 LEU G   4      35.288   7.611  25.469  1.00 63.22 LIG 0.01  C 
ATOM      9  CD2 LEU G   4      36.166   5.525  26.599  1.00 64.86 LIG 0.01  C 
ENDBRANCH 6 7
ENDBRANCH 5 6
BRANCH 5 10
ATOM     10  N   LEU G   4      38.224   7.248  22.510  1.00 59.02 LIG-0.35  N 
ATOM     11 H    LEU G   4      37.476   7.104  22.111  1.00 59.02 LIG 0.16  HD
ATOM     12  C   ILE G   3      39.283   7.829  21.944  1.00 70.10 LIG 0.24  C 
ATOM     13 O    ILE G   3      40.266   8.219  22.612  1.00 64.55 LIG-0.27  OA
BRANCH 12 14
ATOM     14  CA  ILE G   3      39.231   7.999  20.402  1.00 67.83 LIG 0.18  C 
BRANCH 14 15
ATOM     15  CB  ILE G   3      38.084   8.972  19.984  1.00 66.94 LIG 0.01  C 
ATOM     16  CG2 ILE G   3      38.471  10.419  20.291  1.00 67.41 LIG 0.01  C 
BRANCH 15 17
ATOM     17  CG1 ILE G   3      37.706   8.825  18.484  1.00 59.79 LIG 0.00  C 
ATOM     18  CD1 ILE G   3      38.626   9.566  17.548  1.00 60.74 LIG 0.01  C 
ENDBRANCH 15 17
ENDBRANCH 14 15
BRANCH 14 19
ATOM     19  N   ILE G   3      39.068   6.701  19.767  1.00 79.60 LIG-0.34  N 
ATOM     20 H    ILE G   3      38.336   6.303  19.978  1.00 79.60 LIG 0.16  HD
ATOM     21  C   ASP G   2      39.969   6.174  18.933  1.00 93.07 LIG 0.26  C 
ATOM     22 O    ASP G   2      40.973   6.777  18.553  1.00 81.24 LIG-0.27  OA
BRANCH 21 23
ATOM     23  CA  ASP G   2      39.722   4.737  18.454  1.00 93.30 LIG 0.41  C 
ATOM     24  N   ASP G   2      38.360   4.321  18.893  1.00 94.60 LIG 0.61  N 
BRANCH 23 25
ATOM     25  CB  ASP G   2      39.851   4.603  16.930  1.00 96.36 LIG 0.16  C 
BRANCH 25 26
ATOM     26  CG  ASP G   2      38.826   5.429  16.184  1.00103.24 LIG 0.17  C 
ATOM     27 OD1  ASP G   2      37.632   5.071  16.199  1.00112.85 LIG-0.65  OA
ATOM     28 OD2  ASP G   2      39.208   6.446  15.585  1.00105.87 LIG-0.65  OA
ENDBRANCH 25 26
ENDBRANCH 23 25
ENDBRANCH 21 23
ENDBRANCH 14 19
ENDBRANCH 12 14
ENDBRANCH 5 10
ENDBRANCH 1 5
BRANCH 3 29
ATOM     29  CA  PHE G   5      40.620   4.129  22.748  1.00 70.05 LIG 0.18  C 
BRANCH 29 30
ATOM     30  CB  PHE G   5      41.935   4.610  23.396  1.00 73.20 LIG 0.07  C 
BRANCH 30 31
ATOM     31  CG  PHE G   5      42.515   5.839  22.714  1.00 79.36 LIG-0.06  A 
ATOM     32  CD1 PHE G   5      42.611   5.890  21.301  1.00 85.64 LIG 0.01  A 
ATOM     33  CE1 PHE G   5      43.124   7.006  20.653  1.00 88.71 LIG 0.00  A 
ATOM     34  CZ  PHE G   5      43.545   8.101  21.414  1.00 96.11 LIG 0.00  A 
ATOM     35  CE2 PHE G   5      43.442   8.075  22.814  1.00 91.53 LIG 0.00  A 
ATOM     36  CD2 PHE G   5      42.930   6.953  23.458  1.00 81.01 LIG 0.01  A 
ENDBRANCH 30 31
ENDBRANCH 29 30
BRANCH 29 37
ATOM     37  C   PHE G   5      40.047   2.859  23.368  1.00 74.26 LIG 0.24  C 
ATOM     38  N   PRO G   6      39.862   1.806  22.541  1.00 79.01 LIG-0.34  N 
ATOM     39  CD  PRO G   6      40.037   1.856  21.064  1.00 76.17 LIG 0.13  C 
ATOM     40  CA  PRO G   6      39.158   0.589  22.974  1.00 78.34 LIG 0.18  C 
ATOM     41  CG  PRO G   6      39.783   0.452  20.637  1.00 78.03 LIG 0.02  C 
ATOM     42  CB  PRO G   6      38.779  -0.064  21.633  1.00 82.73 LIG 0.04  C 
ATOM     43 O    PHE G   5      39.690   2.862  24.552  1.00 61.78 LIG-0.27  OA
BRANCH 40 44
ATOM     44  C   PRO G   6      39.970  -0.405  23.836  1.00 77.34 LIG 0.24  C 
ATOM     45 O    PRO G   6      41.187  -0.331  23.834  1.00 92.50 LIG-0.27  OA
ATOM     46  N   ALA G   7      39.299  -1.317  24.555  1.00 74.20 LIG-0.35  N 
ATOM     47 H    ALA G   7      38.475  -1.224  24.784  1.00 74.20 LIG 0.16  HD
BRANCH 46 48
ATOM     48  CA  ALA G   7      39.918  -2.584  25.028  1.00 71.75 LIG 0.16  C 
ATOM     49  CB  ALA G   7      39.183  -3.109  26.262  1.00 70.01 LIG 0.04  C 
BRANCH 48 50
ATOM     50  C   ALA G   7      39.891  -3.640  23.900  1.00 69.94 LIG 0.22  C 
ATOM     51 O    ALA G   7      39.593  -3.307  22.725  1.00 56.97 LIG-0.29  OA
ENDBRANCH 48 50
ENDBRANCH 46 48
ENDBRANCH 40 44
ENDBRANCH 29 37
ENDBRANCH 3 29
TORSDOF 18
ENDMDL
MODEL 9
USER: ADFR SOLUTION from run 14
USER: SCORE 15.334270 LL:  -4.614 LR: -11.142 RR:   0.000 FEB:  -5.772
USER: RMSD 11.277730
USER: SEED 253717
USER: STATUS no improvement in best in 33 clusters for 5 generations
USER: GENES 20
USER: genes 0 Translation |==|  0.47957 0.33780 0.67904
USER: genes 1 Rotation |==|  0.31899 0.19220 0.84252 0.57195
USER: genes 2 Torsion [N]-C--CA-[N] |==|  0.36822
USER: genes 3 Torsion [C]-CA--CB-[CG] |==|  0.39369
USER: genes 4 Torsion [CA]-CB--CG-[CD1] |==|  0.34922
USER: genes 5 Torsion [C]-CA--N-[C] |==|  0.55898
USER: genes 6 Torsion [N]-C--CA-[N] |==|  0.38713
USER: genes 7 Torsion [C]-CA--CB-[CG1] |==|  0.27778
USER: genes 8 Torsion [CA]-CB--CG1-[CD1] |==|  0.44471
USER: genes 9 Torsion [C]-CA--N-[C] |==|  0.82921
USER: genes 10 Torsion [N]-C--CA-[N] |==|  0.45349
USER: genes 11 Torsion [C]-CA--CB-[CG] |==|  0.88225
USER: genes 12 Torsion [CA]-CB--CG-[OD1] |==|  0.80609
USER: genes 13 Torsion [C]-N--CA-[CB] |==|  0.84873
USER: genes 14 Torsion [N]-CA--CB-[CG] |==|  0.81384
USER: genes 15 Torsion [CA]-CB--CG-[CD1] |==|  0.31823
USER: genes 16 Torsion [N]-CA--C-[N] |==|  0.35012
USER: genes 17 Torsion [N]-CA--C-[O] |==|  0.29427
USER: genes 18 Torsion [C]-N--CA-[C] |==|  0.21140
USER: genes 19 Torsion [N]-CA--C-[O] |==|  0.32502
ROOT
ATOM      1  C   LEU G   4      39.622   1.680  25.640  1.00 61.38 LIG 0.24  C 
ATOM      2 O    LEU G   4      40.676   2.305  25.801  1.00 52.06 LIG-0.27  OA
ATOM      3  N   PHE G   5      38.452   2.024  26.150  1.00 60.80 LIG-0.35  N 
ATOM      4 H    PHE G   5      37.727   1.587  25.999  1.00 60.80 LIG 0.16  HD
ENDROOT
BRANCH 1 5
ATOM      5  CA  LEU G   4      39.584   0.405  24.851  1.00 58.56 LIG 0.18  C 
BRANCH 5 6
ATOM      6  CB  LEU G   4      40.242  -0.683  25.696  1.00 61.47 LIG 0.04  C 
BRANCH 6 7
ATOM      7  CG  LEU G   4      39.573  -2.036  25.595  1.00 62.80 LIG-0.02  C 
ATOM      8  CD1 LEU G   4      40.642  -3.033  25.200  1.00 63.22 LIG 0.01  C 
ATOM      9  CD2 LEU G   4      38.933  -2.365  26.943  1.00 64.86 LIG 0.01  C 
ENDBRANCH 6 7
ENDBRANCH 5 6
BRANCH 5 10
ATOM     10  N   LEU G   4      40.269   0.614  23.590  1.00 59.02 LIG-0.35  N 
ATOM     11 H    LEU G   4      40.819   1.274  23.582  1.00 59.02 LIG 0.16  HD
ATOM     12  C   ILE G   3      40.029  -0.184  22.549  1.00 70.10 LIG 0.24  C 
ATOM     13 O    ILE G   3      39.396  -1.258  22.664  1.00 64.55 LIG-0.27  OA
BRANCH 12 14
ATOM     14  CA  ILE G   3      40.581   0.289  21.178  1.00 67.83 LIG 0.18  C 
BRANCH 14 15
ATOM     15  CB  ILE G   3      39.472   1.006  20.345  1.00 66.94 LIG 0.01  C 
ATOM     16  CG2 ILE G   3      38.084   0.556  20.802  1.00 67.41 LIG 0.01  C 
BRANCH 15 17
ATOM     17  CG1 ILE G   3      39.586   2.554  20.423  1.00 59.79 LIG 0.00  C 
ATOM     18  CD1 ILE G   3      38.880   3.274  19.305  1.00 60.74 LIG 0.01  C 
ENDBRANCH 15 17
ENDBRANCH 14 15
BRANCH 14 19
ATOM     19  N   ILE G   3      41.128  -0.844  20.448  1.00 79.60 LIG-0.34  N 
ATOM     20 H    ILE G   3      40.730  -0.997  19.702  1.00 79.60 LIG 0.16  HD
ATOM     21  C   ASP G   2      42.152  -1.578  20.893  1.00 93.07 LIG 0.26  C 
ATOM     22 O    ASP G   2      42.786  -1.307  21.914  1.00 81.24 LIG-0.27  OA
BRANCH 21 23
ATOM     23  CA  ASP G   2      42.523  -2.825  20.080  1.00 93.30 LIG 0.41  C 
ATOM     24  N   ASP G   2      43.893  -3.258  20.480  1.00 94.60 LIG 0.61  N 
BRANCH 23 25
ATOM     25  CB  ASP G   2      41.524  -3.973  20.288  1.00 96.36 LIG 0.16  C 
BRANCH 25 26
ATOM     26  CG  ASP G   2      41.116  -4.133  21.737  1.00103.24 LIG 0.17  C 
ATOM     27 OD1  ASP G   2      41.952  -4.559  22.558  1.00112.85 LIG-0.65  OA
ATOM     28 OD2  ASP G   2      39.959  -3.827  22.063  1.00105.87 LIG-0.65  OA
ENDBRANCH 25 26
ENDBRANCH 23 25
ENDBRANCH 21 23
ENDBRANCH 14 19
ENDBRANCH 12 14
ENDBRANCH 5 10
ENDBRANCH 1 5
BRANCH 3 29
ATOM     29  CA  PHE G   5      38.269   3.160  27.007  1.00 70.05 LIG 0.18  C 
BRANCH 29 30
ATOM     30  CB  PHE G   5      39.229   3.093  28.213  1.00 73.20 LIG 0.07  C 
BRANCH 30 31
ATOM     31  CG  PHE G   5      38.911   1.945  29.159  1.00 79.36 LIG-0.06  A 
ATOM     32  CD1 PHE G   5      39.832   0.880  29.321  1.00 85.64 LIG 0.01  A 
ATOM     33  CE1 PHE G   5      39.572  -0.172  30.189  1.00 88.71 LIG 0.00  A 
ATOM     34  CZ  PHE G   5      38.381  -0.172  30.921  1.00 96.11 LIG 0.00  A 
ATOM     35  CE2 PHE G   5      37.465   0.883  30.786  1.00 91.53 LIG 0.00  A 
ATOM     36  CD2 PHE G   5      37.729   1.933  29.913  1.00 81.01 LIG 0.01  A 
ENDBRANCH 30 31
ENDBRANCH 29 30
BRANCH 29 37
ATOM     37  C   PHE G   5      38.465   4.386  26.122  1.00 74.26 LIG 0.24  C 
ATOM     38  N   PRO G   6      37.470   5.301  26.118  1.00 79.01 LIG-0.34  N 
ATOM     39  CD  PRO G   6      36.157   5.119  26.794  1.00 76.17 LIG 0.13  C 
ATOM     40  CA  PRO G   6      37.457   6.435  25.181  1.00 78.34 LIG 0.18  C 
ATOM     41  CG  PRO G   6      35.459   6.411  26.551  1.00 78.03 LIG 0.02  C 
ATOM     42  CB  PRO G   6      35.982   6.872  25.216  1.00 82.73 LIG 0.04  C 
ATOM     43 O    PHE G   5      39.454   4.457  25.383  1.00 61.78 LIG-0.27  OA
BRANCH 40 44
ATOM     44  C   PRO G   6      38.372   7.630  25.535  1.00 77.34 LIG 0.24  C 
ATOM     45 O    PRO G   6      39.398   7.797  24.899  1.00 92.50 LIG-0.27  OA
ATOM     46  N   ALA G   7      37.998   8.440  26.536  1.00 74.20 LIG-0.35  N 
ATOM     47 H    ALA G   7      37.185   8.510  26.809  1.00 74.20 LIG 0.16  HD
BRANCH 46 48
ATOM     48  CA  ALA G   7      38.959   9.301  27.277  1.00 71.75 LIG 0.16  C 
ATOM     49  CB  ALA G   7      40.210   8.507  27.650  1.00 70.01 LIG 0.04  C 
BRANCH 48 50
ATOM     50  C   ALA G   7      39.340  10.528  26.418  1.00 69.94 LIG 0.22  C 
ATOM     51 O    ALA G   7      39.054  11.689  26.807  1.00 56.97 LIG-0.29  OA
ENDBRANCH 48 50
ENDBRANCH 46 48
ENDBRANCH 40 44
ENDBRANCH 29 37
ENDBRANCH 3 29
TORSDOF 18
ENDMDL
MODEL 10
USER: ADFR SOLUTION from run 92
USER: SCORE 14.746398 LL:  -5.401 LR: -11.143 RR:   0.000 FEB:  -5.774
USER: RMSD 2.453540
USER: SEED 91
USER: STATUS no improvement in best in 28 clusters for 5 generations
USER: GENES 20
USER: genes 0 Translation |==|  0.46437 0.48902 0.46490
USER: genes 1 Rotation |==|  0.46241 0.52047 0.50028 0.99816
USER: genes 2 Torsion [N]-C--CA-[N] |==|  0.45287
USER: genes 3 Torsion [C]-CA--CB-[CG] |==|  0.57253
USER: genes 4 Torsion [CA]-CB--CG-[CD1] |==|  0.46019
USER: genes 5 Torsion [C]-CA--N-[C] |==|  0.80176
USER: genes 6 Torsion [N]-C--CA-[N] |==|  0.38742
USER: genes 7 Torsion [C]-CA--CB-[CG1] |==|  0.94701
USER: genes 8 Torsion [CA]-CB--CG1-[CD1] |==|  0.39671
USER: genes 9 Torsion [C]-CA--N-[C] |==|  0.78889
USER: genes 10 Torsion [N]-C--CA-[N] |==|  0.96007
USER: genes 11 Torsion [C]-CA--CB-[CG] |==|  0.82060
USER: genes 12 Torsion [CA]-CB--CG-[OD1] |==|  0.45680
USER: genes 13 Torsion [C]-N--CA-[CB] |==|  0.34188
USER: genes 14 Torsion [N]-CA--CB-[CG] |==|  0.89025
USER: genes 15 Torsion [CA]-CB--CG-[CD1] |==|  0.81868
USER: genes 16 Torsion [N]-CA--C-[N] |==|  0.37447
USER: genes 17 Torsion [N]-CA--C-[O] |==|  0.96179
USER: genes 18 Torsion [C]-N--CA-[C] |==|  0.80940
USER: genes 19 Torsion [N]-CA--C-[O] |==|  0.98484
ROOT
ATOM      1  C   LEU G   4      39.371   5.876  22.107  1.00 61.38 LIG 0.24  C 
ATOM      2 O    LEU G   4      38.894   5.686  20.983  1.00 52.06 LIG-0.27  OA
ATOM      3  N   PHE G   5      40.290   5.117  22.677  1.00 60.80 LIG-0.35  N 
ATOM      4 H    PHE G   5      40.627   5.288  23.449  1.00 60.80 LIG 0.16  HD
ENDROOT
BRANCH 1 5
ATOM      5  CA  LEU G   4      38.904   7.009  22.972  1.00 58.56 LIG 0.18  C 
BRANCH 5 6
ATOM      6  CB  LEU G   4      37.988   6.427  24.044  1.00 61.47 LIG 0.04  C 
BRANCH 6 7
ATOM      7  CG  LEU G   4      36.969   7.405  24.587  1.00 62.80 LIG-0.02  C 
ATOM      8  CD1 LEU G   4      35.938   6.597  25.348  1.00 63.22 LIG 0.01  C 
ATOM      9  CD2 LEU G   4      37.691   8.418  25.475  1.00 64.86 LIG 0.01  C 
ENDBRANCH 6 7
ENDBRANCH 5 6
BRANCH 5 10
ATOM     10  N   LEU G   4      38.228   7.986  22.140  1.00 59.02 LIG-0.35  N 
ATOM     11 H    LEU G   4      37.375   8.022  22.243  1.00 59.02 LIG 0.16  HD
ATOM     12  C   ILE G   3      38.921   8.747  21.292  1.00 70.10 LIG 0.24  C 
ATOM     13 O    ILE G   3      40.169   8.822  21.329  1.00 64.55 LIG-0.27  OA
BRANCH 12 14
ATOM     14  CA  ILE G   3      38.092   9.545  20.250  1.00 67.83 LIG 0.18  C 
BRANCH 14 15
ATOM     15  CB  ILE G   3      38.044   8.797  18.880  1.00 66.94 LIG 0.01  C 
ATOM     16  CG2 ILE G   3      38.114   9.794  17.723  1.00 67.41 LIG 0.01  C 
BRANCH 15 17
ATOM     17  CG1 ILE G   3      39.178   7.742  18.747  1.00 59.79 LIG 0.00  C 
ATOM     18  CD1 ILE G   3      38.761   6.487  18.027  1.00 60.74 LIG 0.01  C 
ENDBRANCH 15 17
ENDBRANCH 14 15
BRANCH 14 19
ATOM     19  N   ILE G   3      38.648  10.880  20.094  1.00 79.60 LIG-0.34  N 
ATOM     20 H    ILE G   3      39.101  10.982  19.370  1.00 79.60 LIG 0.16  HD
ATOM     21  C   ASP G   2      38.474  11.857  20.988  1.00 93.07 LIG 0.26  C 
ATOM     22 O    ASP G   2      37.750  11.746  21.979  1.00 81.24 LIG-0.27  OA
BRANCH 21 23
ATOM     23  CA  ASP G   2      39.239  13.166  20.752  1.00 93.30 LIG 0.41  C 
ATOM     24  N   ASP G   2      40.295  12.917  19.730  1.00 94.60 LIG 0.61  N 
BRANCH 23 25
ATOM     25  CB  ASP G   2      38.316  14.304  20.294  1.00 96.36 LIG 0.16  C 
BRANCH 25 26
ATOM     26  CG  ASP G   2      37.688  14.035  18.943  1.00103.24 LIG 0.17  C 
ATOM     27 OD1  ASP G   2      36.709  14.717  18.583  1.00112.85 LIG-0.65  OA
ATOM     28 OD2  ASP G   2      38.176  13.144  18.231  1.00105.87 LIG-0.65  OA
ENDBRANCH 25 26
ENDBRANCH 23 25
ENDBRANCH 21 23
ENDBRANCH 14 19
ENDBRANCH 12 14
ENDBRANCH 5 10
ENDBRANCH 1 5
BRANCH 3 29
ATOM     29  CA  PHE G   5      40.821   3.930  22.069  1.00 70.05 LIG 0.18  C 
BRANCH 29 30
ATOM     30  CB  PHE G   5      42.356   4.024  21.940  1.00 73.20 LIG 0.07  C 
BRANCH 30 31
ATOM     31  CG  PHE G   5      42.831   5.413  21.542  1.00 79.36 LIG-0.06  A 
ATOM     32  CD1 PHE G   5      42.496   5.943  20.271  1.00 85.64 LIG 0.01  A 
ATOM     33  CE1 PHE G   5      42.906   7.214  19.889  1.00 88.71 LIG 0.00  A 
ATOM     34  CZ  PHE G   5      43.656   7.984  20.782  1.00 96.11 LIG 0.00  A 
ATOM     35  CE2 PHE G   5      43.984   7.482  22.051  1.00 91.53 LIG 0.00  A 
ATOM     36  CD2 PHE G   5      43.573   6.207  22.428  1.00 81.01 LIG 0.01  A 
ENDBRANCH 30 31
ENDBRANCH 29 30
BRANCH 29 37
ATOM     37  C   PHE G   5      40.338   2.769  22.930  1.00 74.26 LIG 0.24  C 
ATOM     38  N   PRO G   6      39.845   1.690  22.280  1.00 79.01 LIG-0.34  N 
ATOM     39  CD  PRO G   6      39.611   1.629  20.812  1.00 76.17 LIG 0.13  C 
ATOM     40  CA  PRO G   6      39.190   0.582  22.991  1.00 78.34 LIG 0.18  C 
ATOM     41  CG  PRO G   6      39.134   0.235  20.594  1.00 78.03 LIG 0.02  C 
ATOM     42  CB  PRO G   6      38.404  -0.111  21.865  1.00 82.73 LIG 0.04  C 
ATOM     43 O    PHE G   5      40.322   2.883  24.161  1.00 61.78 LIG-0.27  OA
BRANCH 40 44
ATOM     44  C   PRO G   6      40.123  -0.434  23.689  1.00 77.34 LIG 0.24  C 
ATOM     45 O    PRO G   6      41.311  -0.430  23.417  1.00 92.50 LIG-0.27  OA
ATOM     46  N   ALA G   7      39.583  -1.289  24.571  1.00 74.20 LIG-0.35  N 
ATOM     47 H    ALA G   7      38.837  -1.144  24.973  1.00 74.20 LIG 0.16  HD
BRANCH 46 48
ATOM     48  CA  ALA G   7      40.228  -2.577  24.942  1.00 71.75 LIG 0.16  C 
ATOM     49  CB  ALA G   7      39.521  -3.201  26.145  1.00 70.01 LIG 0.04  C 
BRANCH 48 50
ATOM     50  C   ALA G   7      40.198  -3.549  23.741  1.00 69.94 LIG 0.22  C 
ATOM     51 O    ALA G   7      39.589  -3.238  22.686  1.00 56.97 LIG-0.29  OA
ENDBRANCH 48 50
ENDBRANCH 46 48
ENDBRANCH 40 44
ENDBRANCH 29 37
ENDBRANCH 3 29
TORSDOF 18
ENDMDL
MODEL 11
USER: ADFR SOLUTION from run 54
USER: SCORE 15.807900 LL:  -4.866 LR: -11.126 RR:   0.000 FEB:  -5.756
USER: RMSD 5.275463
USER: SEED 53
USER: STATUS no improvement in best in 10 clusters for 5 generations
USER: GENES 20
USER: genes 0 Translation |==|  0.38645 0.50062 0.65992
USER: genes 1 Rotation |==|  0.29708 0.53177 0.43351 0.95099
USER: genes 2 Torsion [N]-C--CA-[N] |==|  0.40000
USER: genes 3 Torsion [C]-CA--CB-[CG] |==|  0.92296
USER: genes 4 Torsion [CA]-CB--CG-[CD1] |==|  0.30678
USER: genes 5 Torsion [C]-CA--N-[C] |==|  0.73943
USER: genes 6 Torsion [N]-C--CA-[N] |==|  0.35891
USER: genes 7 Torsion [C]-CA--CB-[CG1] |==|  0.44456
USER: genes 8 Torsion [CA]-CB--CG1-[CD1] |==|  0.02861
USER: genes 9 Torsion [C]-CA--N-[C] |==|  0.81088
USER: genes 10 Torsion [N]-C--CA-[N] |==|  0.05911
USER: genes 11 Torsion [C]-CA--CB-[CG] |==|  0.77925
USER: genes 12 Torsion [CA]-CB--CG-[OD1] |==|  0.01577
USER: genes 13 Torsion [C]-N--CA-[CB] |==|  0.84532
USER: genes 14 Torsion [N]-CA--CB-[CG] |==|  0.58699
USER: genes 15 Torsion [CA]-CB--CG-[CD1] |==|  0.30837
USER: genes 16 Torsion [N]-CA--C-[N] |==|  0.38660
USER: genes 17 Torsion [N]-CA--C-[O] |==|  0.42165
USER: genes 18 Torsion [C]-N--CA-[C] |==|  0.21571
USER: genes 19 Torsion [N]-CA--C-[O] |==|  0.34303
ROOT
ATOM      1  C   LEU G   4      38.085   6.198  25.325  1.00 61.38 LIG 0.24  C 
ATOM      2 O    LEU G   4      37.454   5.459  24.561  1.00 52.06 LIG-0.27  OA
ATOM      3  N   PHE G   5      38.878   5.782  26.297  1.00 60.80 LIG-0.35  N 
ATOM      4 H    PHE G   5      39.329   6.318  26.796  1.00 60.80 LIG 0.16  HD
ENDROOT
BRANCH 1 5
ATOM      5  CA  LEU G   4      37.973   7.691  25.236  1.00 58.56 LIG 0.18  C 
BRANCH 5 6
ATOM      6  CB  LEU G   4      36.746   8.113  26.039  1.00 61.47 LIG 0.04  C 
BRANCH 6 7
ATOM      7  CG  LEU G   4      35.666   7.057  26.121  1.00 62.80 LIG-0.02  C 
ATOM      8  CD1 LEU G   4      35.633   6.563  27.552  1.00 63.22 LIG 0.01  C 
ATOM      9  CD2 LEU G   4      34.341   7.681  25.686  1.00 64.86 LIG 0.01  C 
ENDBRANCH 6 7
ENDBRANCH 5 6
BRANCH 5 10
ATOM     10  N   LEU G   4      37.876   8.071  23.839  1.00 59.02 LIG-0.35  N 
ATOM     11 H    LEU G   4      37.079   8.060  23.515  1.00 59.02 LIG 0.16  HD
ATOM     12  C   ILE G   3      38.968   8.404  23.151  1.00 70.10 LIG 0.24  C 
ATOM     13 O    ILE G   3      40.067   8.621  23.708  1.00 64.55 LIG-0.27  OA
BRANCH 12 14
ATOM     14  CA  ILE G   3      38.804   8.511  21.611  1.00 67.83 LIG 0.18  C 
BRANCH 14 15
ATOM     15  CB  ILE G   3      39.503   7.316  20.889  1.00 66.94 LIG 0.01  C 
ATOM     16  CG2 ILE G   3      39.345   6.032  21.705  1.00 67.41 LIG 0.01  C 
BRANCH 15 17
ATOM     17  CG1 ILE G   3      38.964   7.104  19.447  1.00 59.79 LIG 0.00  C 
ATOM     18  CD1 ILE G   3      38.078   8.220  18.958  1.00 60.74 LIG 0.01  C 
ENDBRANCH 15 17
ENDBRANCH 14 15
BRANCH 14 19
ATOM     19  N   ILE G   3      39.337   9.782  21.145  1.00 79.60 LIG-0.34  N 
ATOM     20 H    ILE G   3      40.047   9.703  20.667  1.00 79.60 LIG 0.16  HD
ATOM     21  C   ASP G   2      38.777  10.961  21.430  1.00 93.07 LIG 0.26  C 
ATOM     22 O    ASP G   2      37.709  11.074  22.035  1.00 81.24 LIG-0.27  OA
BRANCH 21 23
ATOM     23  CA  ASP G   2      39.533  12.220  20.987  1.00 93.30 LIG 0.41  C 
ATOM     24  N   ASP G   2      40.470  11.845  19.890  1.00 94.60 LIG 0.61  N 
BRANCH 23 25
ATOM     25  CB  ASP G   2      38.583  13.331  20.515  1.00 96.36 LIG 0.16  C 
BRANCH 25 26
ATOM     26  CG  ASP G   2      38.086  13.111  19.103  1.00103.24 LIG 0.17  C 
ATOM     27 OD1  ASP G   2      38.381  12.053  18.515  1.00112.85 LIG-0.65  OA
ATOM     28 OD2  ASP G   2      37.393  13.994  18.576  1.00105.87 LIG-0.65  OA
ENDBRANCH 25 26
ENDBRANCH 23 25
ENDBRANCH 21 23
ENDBRANCH 14 19
ENDBRANCH 12 14
ENDBRANCH 5 10
ENDBRANCH 1 5
BRANCH 3 29
ATOM     29  CA  PHE G   5      39.070   4.397  26.620  1.00 70.05 LIG 0.18  C 
BRANCH 29 30
ATOM     30  CB  PHE G   5      37.718   3.714  26.913  1.00 73.20 LIG 0.07  C 
BRANCH 30 31
ATOM     31  CG  PHE G   5      37.831   2.591  27.932  1.00 79.36 LIG-0.06  A 
ATOM     32  CD1 PHE G   5      37.258   2.738  29.220  1.00 85.64 LIG 0.01  A 
ATOM     33  CE1 PHE G   5      37.335   1.722  30.163  1.00 88.71 LIG 0.00  A 
ATOM     34  CZ  PHE G   5      37.983   0.530  29.829  1.00 96.11 LIG 0.00  A 
ATOM     35  CE2 PHE G   5      38.543   0.360  28.552  1.00 91.53 LIG 0.00  A 
ATOM     36  CD2 PHE G   5      38.465   1.382  27.611  1.00 81.01 LIG 0.01  A 
ENDBRANCH 30 31
ENDBRANCH 29 30
BRANCH 29 37
ATOM     37  C   PHE G   5      39.829   3.796  25.443  1.00 74.26 LIG 0.24  C 
ATOM     38  N   PRO G   6      40.815   2.918  25.737  1.00 79.01 LIG-0.34  N 
ATOM     39  CD  PRO G   6      41.294   2.622  27.114  1.00 76.17 LIG 0.13  C 
ATOM     40  CA  PRO G   6      41.733   2.403  24.709  1.00 78.34 LIG 0.18  C 
ATOM     41  CG  PRO G   6      42.320   1.565  26.905  1.00 78.03 LIG 0.02  C 
ATOM     42  CB  PRO G   6      42.907   1.876  25.553  1.00 82.73 LIG 0.04  C 
ATOM     43 O    PHE G   5      39.593   4.190  24.295  1.00 61.78 LIG-0.27  OA
BRANCH 40 44
ATOM     44  C   PRO G   6      41.187   1.278  23.801  1.00 77.34 LIG 0.24  C 
ATOM     45 O    PRO G   6      41.627   1.165  22.670  1.00 92.50 LIG-0.27  OA
ATOM     46  N   ALA G   7      40.242   0.465  24.297  1.00 74.20 LIG-0.35  N 
ATOM     47 H    ALA G   7      40.113   0.348  25.139  1.00 74.20 LIG 0.16  HD
BRANCH 46 48
ATOM     48  CA  ALA G   7      39.317  -0.316  23.432  1.00 71.75 LIG 0.16  C 
ATOM     49  CB  ALA G   7      38.785   0.555  22.294  1.00 70.01 LIG 0.04  C 
BRANCH 48 50
ATOM     50  C   ALA G   7      40.045  -1.554  22.862  1.00 69.94 LIG 0.22  C 
ATOM     51 O    ALA G   7      39.584  -2.708  23.055  1.00 56.97 LIG-0.29  OA
ENDBRANCH 48 50
ENDBRANCH 46 48
ENDBRANCH 40 44
ENDBRANCH 29 37
ENDBRANCH 3 29
TORSDOF 18
ENDMDL
MODEL 12
USER: ADFR SOLUTION from run 51
USER: SCORE 14.881600 LL:  -4.862 LR: -11.087 RR:   0.000 FEB:  -5.717
USER: RMSD 10.762692
USER: SEED 50
USER: STATUS no improvement in best in 10 clusters for 5 generations
USER: GENES 20
USER: genes 0 Translation |==|  0.52572 0.43192 0.54046
USER: genes 1 Rotation |==|  0.50687 0.53129 0.99277 0.57845
USER: genes 2 Torsion [N]-C--CA-[N] |==|  0.44601
USER: genes 3 Torsion [C]-CA--CB-[CG] |==|  0.26891
USER: genes 4 Torsion [CA]-CB--CG-[CD1] |==|  0.70832
USER: genes 5 Torsion [C]-CA--N-[C] |==|  0.69698
USER: genes 6 Torsion [N]-C--CA-[N] |==|  0.42357
USER: genes 7 Torsion [C]-CA--CB-[CG1] |==|  0.15445
USER: genes 8 Torsion [CA]-CB--CG1-[CD1] |==|  0.52157
USER: genes 9 Torsion [C]-CA--N-[C] |==|  0.54009
USER: genes 10 Torsion [N]-C--CA-[N] |==|  0.48797
USER: genes 11 Torsion [C]-CA--CB-[CG] |==|  0.46925
USER: genes 12 Torsion [CA]-CB--CG-[OD1] |==|  0.12694
USER: genes 13 Torsion [C]-N--CA-[CB] |==|  0.18864
USER: genes 14 Torsion [N]-CA--CB-[CG] |==|  0.57211
USER: genes 15 Torsion [CA]-CB--CG-[CD1] |==|  0.82775
USER: genes 16 Torsion [N]-CA--C-[N] |==|  0.84862
USER: genes 17 Torsion [N]-CA--C-[O] |==|  0.86000
USER: genes 18 Torsion [C]-N--CA-[C] |==|  0.87821
USER: genes 19 Torsion [N]-CA--C-[O] |==|  0.71627
ROOT
ATOM      1  C   LEU G   4      40.383   4.292  23.354  1.00 61.38 LIG 0.24  C 
ATOM      2 O    LEU G   4      40.697   4.048  22.183  1.00 52.06 LIG-0.27  OA
ATOM      3  N   PHE G   5      39.837   5.420  23.771  1.00 60.80 LIG-0.35  N 
ATOM      4 H    PHE G   5      39.601   5.554  24.587  1.00 60.80 LIG 0.16  HD
ENDROOT
BRANCH 1 5
ATOM      5  CA  LEU G   4      40.639   3.303  24.452  1.00 58.56 LIG 0.18  C 
BRANCH 5 6
ATOM      6  CB  LEU G   4      41.890   3.754  25.201  1.00 61.47 LIG 0.04  C 
BRANCH 6 7
ATOM      7  CG  LEU G   4      41.608   4.552  26.454  1.00 62.80 LIG-0.02  C 
ATOM      8  CD1 LEU G   4      41.914   6.001  26.138  1.00 63.22 LIG 0.01  C 
ATOM      9  CD2 LEU G   4      40.149   4.335  26.853  1.00 64.86 LIG 0.01  C 
ENDBRANCH 6 7
ENDBRANCH 5 6
BRANCH 5 10
ATOM     10  N   LEU G   4      40.790   1.984  23.869  1.00 59.02 LIG-0.35  N 
ATOM     11 H    LEU G   4      41.516   1.865  23.424  1.00 59.02 LIG 0.16  HD
ATOM     12  C   ILE G   3      39.846   1.057  24.038  1.00 70.10 LIG 0.24  C 
ATOM     13 O    ILE G   3      38.920   1.192  24.868  1.00 64.55 LIG-0.27  OA
BRANCH 12 14
ATOM     14  CA  ILE G   3      39.958  -0.209  23.147  1.00 67.83 LIG 0.18  C 
BRANCH 14 15
ATOM     15  CB  ILE G   3      39.301   0.030  21.750  1.00 66.94 LIG 0.01  C 
ATOM     16  CG2 ILE G   3      37.786   0.181  21.891  1.00 67.41 LIG 0.01  C 
BRANCH 15 17
ATOM     17  CG1 ILE G   3      39.899   1.266  21.023  1.00 59.79 LIG 0.00  C 
ATOM     18  CD1 ILE G   3      39.170   1.641  19.760  1.00 60.74 LIG 0.01  C 
ENDBRANCH 15 17
ENDBRANCH 14 15
BRANCH 14 19
ATOM     19  N   ILE G   3      39.347  -1.344  23.821  1.00 79.60 LIG-0.34  N 
ATOM     20 H    ILE G   3      38.855  -1.123  24.491  1.00 79.60 LIG 0.16  HD
ATOM     21  C   ASP G   2      39.531  -2.610  23.438  1.00 93.07 LIG 0.26  C 
ATOM     22 O    ASP G   2      40.157  -2.926  22.425  1.00 81.24 LIG-0.27  OA
BRANCH 21 23
ATOM     23  CA  ASP G   2      38.936  -3.705  24.333  1.00 93.30 LIG 0.41  C 
ATOM     24  N   ASP G   2      39.160  -5.025  23.676  1.00 94.60 LIG 0.61  N 
BRANCH 23 25
ATOM     25  CB  ASP G   2      39.551  -3.703  25.740  1.00 96.36 LIG 0.16  C 
BRANCH 25 26
ATOM     26  CG  ASP G   2      38.796  -4.589  26.707  1.00103.24 LIG 0.17  C 
ATOM     27 OD1  ASP G   2      38.459  -5.733  26.344  1.00112.85 LIG-0.65  OA
ATOM     28 OD2  ASP G   2      38.541  -4.148  27.838  1.00105.87 LIG-0.65  OA
ENDBRANCH 25 26
ENDBRANCH 23 25
ENDBRANCH 21 23
ENDBRANCH 14 19
ENDBRANCH 12 14
ENDBRANCH 5 10
ENDBRANCH 1 5
BRANCH 3 29
ATOM     29  CA  PHE G   5      39.581   6.539  22.909  1.00 70.05 LIG 0.18  C 
BRANCH 29 30
ATOM     30  CB  PHE G   5      38.473   6.198  21.891  1.00 73.20 LIG 0.07  C 
BRANCH 30 31
ATOM     31  CG  PHE G   5      38.573   7.017  20.612  1.00 79.36 LIG-0.06  A 
ATOM     32  CD1 PHE G   5      38.449   8.428  20.659  1.00 85.64 LIG 0.01  A 
ATOM     33  CE1 PHE G   5      38.551   9.198  19.508  1.00 88.71 LIG 0.00  A 
ATOM     34  CZ  PHE G   5      38.788   8.566  18.284  1.00 96.11 LIG 0.00  A 
ATOM     35  CE2 PHE G   5      38.930   7.171  18.221  1.00 91.53 LIG 0.00  A 
ATOM     36  CD2 PHE G   5      38.825   6.403  19.377  1.00 81.01 LIG 0.01  A 
ENDBRANCH 30 31
ENDBRANCH 29 30
BRANCH 29 37
ATOM     37  C   PHE G   5      39.244   7.706  23.830  1.00 74.26 LIG 0.24  C 
ATOM     38  N   PRO G   6      38.245   7.513  24.720  1.00 79.01 LIG-0.34  N 
ATOM     39  CD  PRO G   6      37.372   6.309  24.755  1.00 76.17 LIG 0.13  C 
ATOM     40  CA  PRO G   6      37.709   8.610  25.541  1.00 78.34 LIG 0.18  C 
ATOM     41  CG  PRO G   6      36.496   6.550  25.934  1.00 78.03 LIG 0.02  C 
ATOM     42  CB  PRO G   6      36.349   8.048  25.990  1.00 82.73 LIG 0.04  C 
ATOM     43 O    PHE G   5      39.813   8.794  23.674  1.00 61.78 LIG-0.27  OA
BRANCH 40 44
ATOM     44  C   PRO G   6      38.547   9.018  26.774  1.00 77.34 LIG 0.24  C 
ATOM     45 O    PRO G   6      38.916   8.154  27.551  1.00 92.50 LIG-0.27  OA
ATOM     46  N   ALA G   7      38.834  10.317  26.944  1.00 74.20 LIG-0.35  N 
ATOM     47 H    ALA G   7      38.827  10.890  26.303  1.00 74.20 LIG 0.16  HD
BRANCH 46 48
ATOM     48  CA  ALA G   7      39.196  10.896  28.266  1.00 71.75 LIG 0.16  C 
ATOM     49  CB  ALA G   7      39.122  12.422  28.219  1.00 70.01 LIG 0.04  C 
BRANCH 48 50
ATOM     50  C   ALA G   7      38.251  10.349  29.360  1.00 69.94 LIG 0.22  C 
ATOM     51 O    ALA G   7      37.306  11.056  29.795  1.00 56.97 LIG-0.29  OA
ENDBRANCH 48 50
ENDBRANCH 46 48
ENDBRANCH 40 44
ENDBRANCH 29 37
ENDBRANCH 3 29
TORSDOF 18
ENDMDL
MODEL 13
USER: ADFR SOLUTION from run 151
USER: SCORE 14.603292 LL:  -5.308 LR: -11.064 RR:   0.000 FEB:  -5.695
USER: RMSD 3.273772
USER: SEED 150
USER: STATUS no improvement in best in 22 clusters for 5 generations
USER: GENES 20
USER: genes 0 Translation |==|  0.46513 0.48652 0.45932
USER: genes 1 Rotation |==|  0.45653 0.53770 0.51567 0.99643
USER: genes 2 Torsion [N]-C--CA-[N] |==|  0.43888
USER: genes 3 Torsion [C]-CA--CB-[CG] |==|  0.47579
USER: genes 4 Torsion [CA]-CB--CG-[CD1] |==|  0.96085
USER: genes 5 Torsion [C]-CA--N-[C] |==|  0.79467
USER: genes 6 Torsion [N]-C--CA-[N] |==|  0.39523
USER: genes 7 Torsion [C]-CA--CB-[CG1] |==|  0.94854
USER: genes 8 Torsion [CA]-CB--CG1-[CD1] |==|  0.39847
USER: genes 9 Torsion [C]-CA--N-[C] |==|  0.79114
USER: genes 10 Torsion [N]-C--CA-[N] |==|  0.96092
USER: genes 11 Torsion [C]-CA--CB-[CG] |==|  0.81434
USER: genes 12 Torsion [CA]-CB--CG-[OD1] |==|  0.97078
USER: genes 13 Torsion [C]-N--CA-[CB] |==|  0.37558
USER: genes 14 Torsion [N]-CA--CB-[CG] |==|  0.39108
USER: genes 15 Torsion [CA]-CB--CG-[CD1] |==|  0.72212
USER: genes 16 Torsion [N]-CA--C-[N] |==|  0.35936
USER: genes 17 Torsion [N]-CA--C-[O] |==|  0.84892
USER: genes 18 Torsion [C]-N--CA-[C] |==|  0.83682
USER: genes 19 Torsion [N]-CA--C-[O] |==|  0.19562
ROOT
ATOM      1  C   LEU G   4      39.384   5.807  22.015  1.00 61.38 LIG 0.24  C 
ATOM      2 O    LEU G   4      38.837   5.564  20.933  1.00 52.06 LIG-0.27  OA
ATOM      3  N   PHE G   5      40.384   5.114  22.530  1.00 60.80 LIG-0.35  N 
ATOM      4 H    PHE G   5      40.766   5.322  23.272  1.00 60.80 LIG 0.16  HD
ENDROOT
BRANCH 1 5
ATOM      5  CA  LEU G   4      38.916   6.932  22.890  1.00 58.56 LIG 0.18  C 
BRANCH 5 6
ATOM      6  CB  LEU G   4      38.012   6.337  23.966  1.00 61.47 LIG 0.04  C 
BRANCH 6 7
ATOM      7  CG  LEU G   4      37.621   7.312  25.055  1.00 62.80 LIG-0.02  C 
ATOM      8  CD1 LEU G   4      38.540   8.509  24.932  1.00 63.22 LIG 0.01  C 
ATOM      9  CD2 LEU G   4      36.149   7.681  24.875  1.00 64.86 LIG 0.01  C 
ENDBRANCH 6 7
ENDBRANCH 5 6
BRANCH 5 10
ATOM     10  N   LEU G   4      38.228   7.909  22.068  1.00 59.02 LIG-0.35  N 
ATOM     11 H    LEU G   4      37.372   7.916  22.153  1.00 59.02 LIG 0.16  HD
ATOM     12  C   ILE G   3      38.915   8.715  21.258  1.00 70.10 LIG 0.24  C 
ATOM     13 O    ILE G   3      40.159   8.827  21.325  1.00 64.55 LIG-0.27  OA
BRANCH 12 14
ATOM     14  CA  ILE G   3      38.084   9.514  20.219  1.00 67.83 LIG 0.18  C 
BRANCH 14 15
ATOM     15  CB  ILE G   3      38.032   8.767  18.848  1.00 66.94 LIG 0.01  C 
ATOM     16  CG2 ILE G   3      38.113   9.764  17.692  1.00 67.41 LIG 0.01  C 
BRANCH 15 17
ATOM     17  CG1 ILE G   3      39.155   7.701  18.717  1.00 59.79 LIG 0.00  C 
ATOM     18  CD1 ILE G   3      38.732   6.457  17.982  1.00 60.74 LIG 0.01  C 
ENDBRANCH 15 17
ENDBRANCH 14 15
BRANCH 14 19
ATOM     19  N   ILE G   3      38.642  10.849  20.061  1.00 79.60 LIG-0.34  N 
ATOM     20 H    ILE G   3      39.083  10.954  19.331  1.00 79.60 LIG 0.16  HD
ATOM     21  C   ASP G   2      38.484  11.821  20.964  1.00 93.07 LIG 0.26  C 
ATOM     22 O    ASP G   2      37.776  11.706  21.965  1.00 81.24 LIG-0.27  OA
BRANCH 21 23
ATOM     23  CA  ASP G   2      39.250  13.129  20.724  1.00 93.30 LIG 0.41  C 
ATOM     24  N   ASP G   2      40.284  12.885  19.679  1.00 94.60 LIG 0.61  N 
BRANCH 23 25
ATOM     25  CB  ASP G   2      38.322  14.274  20.294  1.00 96.36 LIG 0.16  C 
BRANCH 25 26
ATOM     26  CG  ASP G   2      37.709  14.045  18.930  1.00103.24 LIG 0.17  C 
ATOM     27 OD1  ASP G   2      38.137  13.112  18.222  1.00112.85 LIG-0.65  OA
ATOM     28 OD2  ASP G   2      36.789  14.792  18.561  1.00105.87 LIG-0.65  OA
ENDBRANCH 25 26
ENDBRANCH 23 25
ENDBRANCH 21 23
ENDBRANCH 14 19
ENDBRANCH 12 14
ENDBRANCH 5 10
ENDBRANCH 1 5
BRANCH 3 29
ATOM     29  CA  PHE G   5      40.937   3.945  21.907  1.00 70.05 LIG 0.18  C 
BRANCH 29 30
ATOM     30  CB  PHE G   5      42.479   3.991  21.937  1.00 73.20 LIG 0.07  C 
BRANCH 30 31
ATOM     31  CG  PHE G   5      43.105   2.633  22.218  1.00 79.36 LIG-0.06  A 
ATOM     32  CD1 PHE G   5      43.563   2.317  23.522  1.00 85.64 LIG 0.01  A 
ATOM     33  CE1 PHE G   5      44.125   1.080  23.808  1.00 88.71 LIG 0.00  A 
ATOM     34  CZ  PHE G   5      44.232   0.128  22.789  1.00 96.11 LIG 0.00  A 
ATOM     35  CE2 PHE G   5      43.769   0.418  21.495  1.00 91.53 LIG 0.00  A 
ATOM     36  CD2 PHE G   5      43.208   1.660  21.214  1.00 81.01 LIG 0.01  A 
ENDBRANCH 30 31
ENDBRANCH 29 30
BRANCH 29 37
ATOM     37  C   PHE G   5      40.334   2.755  22.645  1.00 74.26 LIG 0.24  C 
ATOM     38  N   PRO G   6      39.775   1.786  21.886  1.00 79.01 LIG-0.34  N 
ATOM     39  CD  PRO G   6      39.581   1.878  20.413  1.00 76.17 LIG 0.13  C 
ATOM     40  CA  PRO G   6      39.009   0.677  22.476  1.00 78.34 LIG 0.18  C 
ATOM     41  CG  PRO G   6      38.998   0.556  20.056  1.00 78.03 LIG 0.02  C 
ATOM     42  CB  PRO G   6      38.204   0.159  21.272  1.00 82.73 LIG 0.04  C 
ATOM     43 O    PHE G   5      40.290   2.758  23.881  1.00 61.78 LIG-0.27  OA
BRANCH 40 44
ATOM     44  C   PRO G   6      39.834  -0.474  23.097  1.00 77.34 LIG 0.24  C 
ATOM     45 O    PRO G   6      40.678  -1.030  22.416  1.00 92.50 LIG-0.27  OA
ATOM     46  N   ALA G   7      39.584  -0.818  24.369  1.00 74.20 LIG-0.35  N 
ATOM     47 H    ALA G   7      39.209  -0.292  24.936  1.00 74.20 LIG 0.16  HD
BRANCH 46 48
ATOM     48  CA  ALA G   7      39.934  -2.153  24.925  1.00 71.75 LIG 0.16  C 
ATOM     49  CB  ALA G   7      39.540  -2.237  26.400  1.00 70.01 LIG 0.04  C 
BRANCH 48 50
ATOM     50  C   ALA G   7      39.225  -3.265  24.119  1.00 69.94 LIG 0.22  C 
ATOM     51 O    ALA G   7      39.584  -3.524  22.942  1.00 56.97 LIG-0.29  OA
ENDBRANCH 48 50
ENDBRANCH 46 48
ENDBRANCH 40 44
ENDBRANCH 29 37
ENDBRANCH 3 29
TORSDOF 18
ENDMDL
MODEL 14
USER: ADFR SOLUTION from run 29
USER: SCORE 14.463032 LL:  -4.388 LR: -11.055 RR:   0.000 FEB:  -5.685
USER: RMSD 9.427735
USER: SEED 28
USER: STATUS no improvement in best in 20 clusters for 5 generations
USER: GENES 20
USER: genes 0 Translation |==|  0.40914 0.54903 0.55738
USER: genes 1 Rotation |==|  0.88060 0.46130 0.20555 0.63016
USER: genes 2 Torsion [N]-C--CA-[N] |==|  0.44878
USER: genes 3 Torsion [C]-CA--CB-[CG] |==|  0.51697
USER: genes 4 Torsion [CA]-CB--CG-[CD1] |==|  0.20767
USER: genes 5 Torsion [C]-CA--N-[C] |==|  0.82267
USER: genes 6 Torsion [N]-C--CA-[N] |==|  0.92657
USER: genes 7 Torsion [C]-CA--CB-[CG1] |==|  0.92839
USER: genes 8 Torsion [CA]-CB--CG1-[CD1] |==|  0.64369
USER: genes 9 Torsion [C]-CA--N-[C] |==|  0.81486
USER: genes 10 Torsion [N]-C--CA-[N] |==|  0.46257
USER: genes 11 Torsion [C]-CA--CB-[CG] |==|  0.57902
USER: genes 12 Torsion [CA]-CB--CG-[OD1] |==|  0.16236
USER: genes 13 Torsion [C]-N--CA-[CB] |==|  0.48333
USER: genes 14 Torsion [N]-CA--CB-[CG] |==|  0.80527
USER: genes 15 Torsion [CA]-CB--CG-[CD1] |==|  0.61337
USER: genes 16 Torsion [N]-CA--C-[N] |==|  0.51087
USER: genes 17 Torsion [N]-CA--C-[O] |==|  0.18158
USER: genes 18 Torsion [C]-N--CA-[C] |==|  0.64034
USER: genes 19 Torsion [N]-CA--C-[O] |==|  0.05528
ROOT
ATOM      1  C   LEU G   4      38.460   7.541  23.633  1.00 61.38 LIG 0.24  C 
ATOM      2 O    LEU G   4      39.445   8.076  24.154  1.00 52.06 LIG-0.27  OA
ATOM      3  N   PHE G   5      38.068   7.730  22.385  1.00 60.80 LIG-0.35  N 
ATOM      4 H    PHE G   5      37.395   7.323  22.038  1.00 60.80 LIG 0.16  HD
ENDROOT
BRANCH 1 5
ATOM      5  CA  LEU G   4      37.566   6.624  24.413  1.00 58.56 LIG 0.18  C 
BRANCH 5 6
ATOM      6  CB  LEU G   4      36.313   7.408  24.791  1.00 61.47 LIG 0.04  C 
BRANCH 6 7
ATOM      7  CG  LEU G   4      35.369   6.664  25.710  1.00 62.80 LIG-0.02  C 
ATOM      8  CD1 LEU G   4      35.991   6.674  27.090  1.00 63.22 LIG 0.01  C 
ATOM      9  CD2 LEU G   4      34.008   7.357  25.676  1.00 64.86 LIG 0.01  C 
ENDBRANCH 6 7
ENDBRANCH 5 6
BRANCH 5 10
ATOM     10  N   LEU G   4      38.288   6.144  25.576  1.00 59.02 LIG-0.35  N 
ATOM     11 H    LEU G   4      37.959   6.386  26.333  1.00 59.02 LIG 0.16  HD
ATOM     12  C   ILE G   3      39.377   5.388  25.432  1.00 70.10 LIG 0.24  C 
ATOM     13 O    ILE G   3      39.694   4.878  24.335  1.00 64.55 LIG-0.27  OA
BRANCH 12 14
ATOM     14  CA  ILE G   3      40.235   5.169  26.706  1.00 67.83 LIG 0.18  C 
BRANCH 14 15
ATOM     15  CB  ILE G   3      39.876   3.817  27.399  1.00 66.94 LIG 0.01  C 
ATOM     16  CG2 ILE G   3      40.080   3.919  28.911  1.00 67.41 LIG 0.01  C 
BRANCH 15 17
ATOM     17  CG1 ILE G   3      38.423   3.364  27.084  1.00 59.79 LIG 0.00  C 
ATOM     18  CD1 ILE G   3      37.610   3.028  28.307  1.00 60.74 LIG 0.01  C 
ENDBRANCH 15 17
ENDBRANCH 14 15
BRANCH 14 19
ATOM     19  N   ILE G   3      40.055   6.286  27.621  1.00 79.60 LIG-0.34  N 
ATOM     20 H    ILE G   3      39.657   6.071  28.353  1.00 79.60 LIG 0.16  HD
ATOM     21  C   ASP G   2      40.467   7.528  27.353  1.00 93.07 LIG 0.26  C 
ATOM     22 O    ASP G   2      41.119   7.823  26.350  1.00 81.24 LIG-0.27  OA
BRANCH 21 23
ATOM     23  CA  ASP G   2      40.078   8.625  28.354  1.00 93.30 LIG 0.41  C 
ATOM     24  N   ASP G   2      40.891   9.839  28.061  1.00 94.60 LIG 0.61  N 
BRANCH 23 25
ATOM     25  CB  ASP G   2      38.581   8.962  28.293  1.00 96.36 LIG 0.16  C 
BRANCH 25 26
ATOM     26  CG  ASP G   2      38.291  10.392  28.694  1.00103.24 LIG 0.17  C 
ATOM     27 OD1  ASP G   2      38.827  11.321  28.058  1.00112.85 LIG-0.65  OA
ATOM     28 OD2  ASP G   2      37.519  10.595  29.644  1.00105.87 LIG-0.65  OA
ENDBRANCH 25 26
ENDBRANCH 23 25
ENDBRANCH 21 23
ENDBRANCH 14 19
ENDBRANCH 12 14
ENDBRANCH 5 10
ENDBRANCH 1 5
BRANCH 3 29
ATOM     29  CA  PHE G   5      38.723   8.631  21.480  1.00 70.05 LIG 0.18  C 
BRANCH 29 30
ATOM     30  CB  PHE G   5      38.121   8.514  20.064  1.00 73.20 LIG 0.07  C 
BRANCH 30 31
ATOM     31  CG  PHE G   5      38.467   7.199  19.382  1.00 79.36 LIG-0.06  A 
ATOM     32  CD1 PHE G   5      38.807   7.179  18.006  1.00 85.64 LIG 0.01  A 
ATOM     33  CE1 PHE G   5      39.141   5.994  17.364  1.00 88.71 LIG 0.00  A 
ATOM     34  CZ  PHE G   5      39.148   4.802  18.094  1.00 96.11 LIG 0.00  A 
ATOM     35  CE2 PHE G   5      38.830   4.805  19.462  1.00 91.53 LIG 0.00  A 
ATOM     36  CD2 PHE G   5      38.494   5.995  20.100  1.00 81.01 LIG 0.01  A 
ENDBRANCH 30 31
ENDBRANCH 29 30
BRANCH 29 37
ATOM     37  C   PHE G   5      38.587  10.017  22.101  1.00 74.26 LIG 0.24  C 
ATOM     38  N   PRO G   6      39.063  11.058  21.382  1.00 79.01 LIG-0.34  N 
ATOM     39  CD  PRO G   6      39.831  10.922  20.114  1.00 76.17 LIG 0.13  C 
ATOM     40  CA  PRO G   6      39.152  12.416  21.940  1.00 78.34 LIG 0.18  C 
ATOM     41  CG  PRO G   6      40.061  12.332  19.695  1.00 78.03 LIG 0.02  C 
ATOM     42  CB  PRO G   6      40.155  13.095  20.991  1.00 82.73 LIG 0.04  C 
ATOM     43 O    PHE G   5      38.147  10.133  23.252  1.00 61.78 LIG-0.27  OA
BRANCH 40 44
ATOM     44  C   PRO G   6      37.836  13.226  21.988  1.00 77.34 LIG 0.24  C 
ATOM     45 O    PRO G   6      36.932  12.843  22.709  1.00 92.50 LIG-0.27  OA
ATOM     46  N   ALA G   7      37.741  14.327  21.226  1.00 74.20 LIG-0.35  N 
ATOM     47 H    ALA G   7      38.424  14.758  20.932  1.00 74.20 LIG 0.16  HD
BRANCH 46 48
ATOM     48  CA  ALA G   7      36.436  14.910  20.814  1.00 71.75 LIG 0.16  C 
ATOM     49  CB  ALA G   7      36.180  16.222  21.555  1.00 70.01 LIG 0.04  C 
BRANCH 48 50
ATOM     50  C   ALA G   7      36.421  15.148  19.287  1.00 69.94 LIG 0.22  C 
ATOM     51 O    ALA G   7      37.228  14.537  18.541  1.00 56.97 LIG-0.29  OA
ENDBRANCH 48 50
ENDBRANCH 46 48
ENDBRANCH 40 44
ENDBRANCH 29 37
ENDBRANCH 3 29
TORSDOF 18
ENDMDL
MODEL 15
USER: ADFR SOLUTION from run 140
USER: SCORE 15.374762 LL:  -5.218 LR: -11.045 RR:   0.000 FEB:  -5.675
USER: RMSD 4.738065
USER: SEED 139
USER: STATUS no improvement in best in 25 clusters for 5 generations
USER: GENES 20
USER: genes 0 Translation |==|  0.45491 0.55790 0.47394
USER: genes 1 Rotation |==|  0.68361 0.24188 0.12541 0.59663
USER: genes 2 Torsion [N]-C--CA-[N] |==|  0.86667
USER: genes 3 Torsion [C]-CA--CB-[CG] |==|  0.55297
USER: genes 4 Torsion [CA]-CB--CG-[CD1] |==|  0.47348
USER: genes 5 Torsion [C]-CA--N-[C] |==|  0.77735
USER: genes 6 Torsion [N]-C--CA-[N] |==|  0.30972
USER: genes 7 Torsion [C]-CA--CB-[CG1] |==|  0.43892
USER: genes 8 Torsion [CA]-CB--CG1-[CD1] |==|  0.62269
USER: genes 9 Torsion [C]-CA--N-[C] |==|  0.62839
USER: genes 10 Torsion [N]-C--CA-[N] |==|  0.63956
USER: genes 11 Torsion [C]-CA--CB-[CG] |==|  0.78648
USER: genes 12 Torsion [CA]-CB--CG-[OD1] |==|  0.74676
USER: genes 13 Torsion [C]-N--CA-[CB] |==|  0.84874
USER: genes 14 Torsion [N]-CA--CB-[CG] |==|  0.69678
USER: genes 15 Torsion [CA]-CB--CG-[CD1] |==|  0.51840
USER: genes 16 Torsion [N]-CA--C-[N] |==|  0.44345
USER: genes 17 Torsion [N]-CA--C-[O] |==|  0.75053
USER: genes 18 Torsion [C]-N--CA-[C] |==|  0.74097
USER: genes 19 Torsion [N]-CA--C-[O] |==|  0.98571
ROOT
ATOM      1  C   LEU G   4      39.215   7.788  22.256  1.00 61.38 LIG 0.24  C 
ATOM      2 O    LEU G   4      40.349   7.308  22.144  1.00 52.06 LIG-0.27  OA
ATOM      3  N   PHE G   5      38.326   7.865  21.281  1.00 60.80 LIG-0.35  N 
ATOM      4 H    PHE G   5      37.533   8.177  21.393  1.00 60.80 LIG 0.16  HD
ENDROOT
BRANCH 1 5
ATOM      5  CA  LEU G   4      38.744   8.382  23.550  1.00 58.56 LIG 0.18  C 
BRANCH 5 6
ATOM      6  CB  LEU G   4      37.727   7.420  24.159  1.00 61.47 LIG 0.04  C 
BRANCH 6 7
ATOM      7  CG  LEU G   4      36.829   8.047  25.202  1.00 62.80 LIG-0.02  C 
ATOM      8  CD1 LEU G   4      35.744   7.039  25.520  1.00 63.22 LIG 0.01  C 
ATOM      9  CD2 LEU G   4      37.675   8.401  26.424  1.00 64.86 LIG 0.01  C 
ENDBRANCH 6 7
ENDBRANCH 5 6
BRANCH 5 10
ATOM     10  N   LEU G   4      38.177   9.690  23.286  1.00 59.02 LIG-0.35  N 
ATOM     11 H    LEU G   4      37.318   9.712  23.245  1.00 59.02 LIG 0.16  HD
ATOM     12  C   ILE G   3      38.968  10.751  23.125  1.00 70.10 LIG 0.24  C 
ATOM     13 O    ILE G   3      40.186  10.723  23.409  1.00 64.55 LIG-0.27  OA
BRANCH 12 14
ATOM     14  CA  ILE G   3      38.295  12.032  22.565  1.00 67.83 LIG 0.18  C 
BRANCH 14 15
ATOM     15  CB  ILE G   3      39.042  12.547  21.294  1.00 66.94 LIG 0.01  C 
ATOM     16  CG2 ILE G   3      39.580  11.372  20.476  1.00 67.41 LIG 0.01  C 
BRANCH 15 17
ATOM     17  CG1 ILE G   3      38.139  13.449  20.406  1.00 59.79 LIG 0.00  C 
ATOM     18  CD1 ILE G   3      38.235  13.147  18.934  1.00 60.74 LIG 0.01  C 
ENDBRANCH 15 17
ENDBRANCH 14 15
BRANCH 14 19
ATOM     19  N   ILE G   3      38.254  13.059  23.594  1.00 79.60 LIG-0.34  N 
ATOM     20 H    ILE G   3      38.998  13.155  24.015  1.00 79.60 LIG 0.16  HD
ATOM     21  C   ASP G   2      37.166  13.786  23.862  1.00 93.07 LIG 0.26  C 
ATOM     22 O    ASP G   2      36.128  13.719  23.201  1.00 81.24 LIG-0.27  OA
BRANCH 21 23
ATOM     23  CA  ASP G   2      37.235  14.730  25.069  1.00 93.30 LIG 0.41  C 
ATOM     24  N   ASP G   2      36.035  14.495  25.921  1.00 94.60 LIG 0.61  N 
BRANCH 23 25
ATOM     25  CB  ASP G   2      38.516  14.528  25.892  1.00 96.36 LIG 0.16  C 
BRANCH 25 26
ATOM     26  CG  ASP G   2      38.458  13.294  26.766  1.00103.24 LIG 0.17  C 
ATOM     27 OD1  ASP G   2      38.029  13.397  27.932  1.00112.85 LIG-0.65  OA
ATOM     28 OD2  ASP G   2      38.834  12.213  26.288  1.00105.87 LIG-0.65  OA
ENDBRANCH 25 26
ENDBRANCH 23 25
ENDBRANCH 21 23
ENDBRANCH 14 19
ENDBRANCH 12 14
ENDBRANCH 5 10
ENDBRANCH 1 5
BRANCH 3 29
ATOM     29  CA  PHE G   5      38.590   7.436  19.937  1.00 70.05 LIG 0.18  C 
BRANCH 29 30
ATOM     30  CB  PHE G   5      39.854   8.126  19.384  1.00 73.20 LIG 0.07  C 
BRANCH 30 31
ATOM     31  CG  PHE G   5      39.543   9.159  18.311  1.00 79.36 LIG-0.06  A 
ATOM     32  CD1 PHE G   5      40.596   9.784  17.599  1.00 85.64 LIG 0.01  A 
ATOM     33  CE1 PHE G   5      40.338  10.719  16.605  1.00 88.71 LIG 0.00  A 
ATOM     34  CZ  PHE G   5      39.012  11.040  16.299  1.00 96.11 LIG 0.00  A 
ATOM     35  CE2 PHE G   5      37.956  10.418  16.983  1.00 91.53 LIG 0.00  A 
ATOM     36  CD2 PHE G   5      38.220   9.484  17.980  1.00 81.01 LIG 0.01  A 
ENDBRANCH 30 31
ENDBRANCH 29 30
BRANCH 29 37
ATOM     37  C   PHE G   5      38.685   5.916  19.996  1.00 74.26 LIG 0.24  C 
ATOM     38  N   PRO G   6      38.507   5.248  18.834  1.00 79.01 LIG-0.34  N 
ATOM     39  CD  PRO G   6      38.084   5.881  17.556  1.00 76.17 LIG 0.13  C 
ATOM     40  CA  PRO G   6      38.402   3.781  18.786  1.00 78.34 LIG 0.18  C 
ATOM     41  CG  PRO G   6      38.098   4.752  16.587  1.00 78.03 LIG 0.02  C 
ATOM     42  CB  PRO G   6      37.743   3.545  17.416  1.00 82.73 LIG 0.04  C 
ATOM     43 O    PHE G   5      38.823   5.352  21.088  1.00 61.78 LIG-0.27  OA
BRANCH 40 44
ATOM     44  C   PRO G   6      39.728   2.993  18.879  1.00 77.34 LIG 0.24  C 
ATOM     45 O    PRO G   6      40.328   2.722  17.853  1.00 92.50 LIG-0.27  OA
ATOM     46  N   ALA G   7      40.168   2.632  20.093  1.00 74.20 LIG-0.35  N 
ATOM     47 H    ALA G   7      39.926   3.025  20.819  1.00 74.20 LIG 0.16  HD
BRANCH 46 48
ATOM     48  CA  ALA G   7      41.122   1.511  20.305  1.00 71.75 LIG 0.16  C 
ATOM     49  CB  ALA G   7      42.071   1.827  21.461  1.00 70.01 LIG 0.04  C 
BRANCH 48 50
ATOM     50  C   ALA G   7      40.348   0.204  20.590  1.00 69.94 LIG 0.22  C 
ATOM     51 O    ALA G   7      39.097   0.220  20.712  1.00 56.97 LIG-0.29  OA
ENDBRANCH 48 50
ENDBRANCH 46 48
ENDBRANCH 40 44
ENDBRANCH 29 37
ENDBRANCH 3 29
TORSDOF 18
ENDMDL
MODEL 16
USER: ADFR SOLUTION from run 23
USER: SCORE 15.407007 LL:  -5.591 LR: -11.043 RR:   0.000 FEB:  -5.674
USER: RMSD 5.162181
USER: SEED 22
USER: STATUS no improvement in best in 16 clusters for 5 generations
USER: GENES 20
USER: genes 0 Translation |==|  0.46098 0.49334 0.61525
USER: genes 1 Rotation |==|  0.20552 0.87375 0.65233 0.51978
USER: genes 2 Torsion [N]-C--CA-[N] |==|  0.91184
USER: genes 3 Torsion [C]-CA--CB-[CG] |==|  0.28067
USER: genes 4 Torsion [CA]-CB--CG-[CD1] |==|  0.34024
USER: genes 5 Torsion [C]-CA--N-[C] |==|  0.83759
USER: genes 6 Torsion [N]-C--CA-[N] |==|  0.79444
USER: genes 7 Torsion [C]-CA--CB-[CG1] |==|  0.50856
USER: genes 8 Torsion [CA]-CB--CG1-[CD1] |==|  0.31497
USER: genes 9 Torsion [C]-CA--N-[C] |==|  0.19310
USER: genes 10 Torsion [N]-C--CA-[N] |==|  0.45925
USER: genes 11 Torsion [C]-CA--CB-[CG] |==|  0.63034
USER: genes 12 Torsion [CA]-CB--CG-[OD1] |==|  0.38363
USER: genes 13 Torsion [C]-N--CA-[CB] |==|  0.87206
USER: genes 14 Torsion [N]-CA--CB-[CG] |==|  0.37903
USER: genes 15 Torsion [CA]-CB--CG-[CD1] |==|  0.72210
USER: genes 16 Torsion [N]-CA--C-[N] |==|  0.32561
USER: genes 17 Torsion [N]-CA--C-[O] |==|  0.98919
USER: genes 18 Torsion [C]-N--CA-[C] |==|  0.72429
USER: genes 19 Torsion [N]-CA--C-[O] |==|  0.02493
ROOT
ATOM      1  C   LEU G   4      39.315   5.996  24.588  1.00 61.38 LIG 0.24  C 
ATOM      2 O    LEU G   4      39.798   5.732  25.694  1.00 52.06 LIG-0.27  OA
ATOM      3  N   PHE G   5      39.656   5.409  23.454  1.00 60.80 LIG-0.35  N 
ATOM      4 H    PHE G   5      39.284   5.591  22.701  1.00 60.80 LIG 0.16  HD
ENDROOT
BRANCH 1 5
ATOM      5  CA  LEU G   4      38.285   7.074  24.422  1.00 58.56 LIG 0.18  C 
BRANCH 5 6
ATOM      6  CB  LEU G   4      36.911   6.429  24.569  1.00 61.47 LIG 0.04  C 
BRANCH 6 7
ATOM      7  CG  LEU G   4      36.269   6.636  25.923  1.00 62.80 LIG-0.02  C 
ATOM      8  CD1 LEU G   4      34.936   7.314  25.686  1.00 63.22 LIG 0.01  C 
ATOM      9  CD2 LEU G   4      36.122   5.277  26.606  1.00 64.86 LIG 0.01  C 
ENDBRANCH 6 7
ENDBRANCH 5 6
BRANCH 5 10
ATOM     10  N   LEU G   4      38.466   7.700  23.127  1.00 59.02 LIG-0.35  N 
ATOM     11 H    LEU G   4      37.781   7.665  22.608  1.00 59.02 LIG 0.16  HD
ATOM     12  C   ILE G   3      39.627   8.272  22.808  1.00 70.10 LIG 0.24  C 
ATOM     13 O    ILE G   3      40.517   8.497  23.659  1.00 64.55 LIG-0.27  OA
BRANCH 12 14
ATOM     14  CA  ILE G   3      39.820   8.652  21.315  1.00 67.83 LIG 0.18  C 
BRANCH 14 15
ATOM     15  CB  ILE G   3      38.584   9.438  20.773  1.00 66.94 LIG 0.01  C 
ATOM     16  CG2 ILE G   3      38.374  10.723  21.575  1.00 67.41 LIG 0.01  C 
BRANCH 15 17
ATOM     17  CG1 ILE G   3      38.713   9.766  19.260  1.00 59.79 LIG 0.00  C 
ATOM     18  CD1 ILE G   3      37.709   9.053  18.394  1.00 60.74 LIG 0.01  C 
ENDBRANCH 15 17
ENDBRANCH 14 15
BRANCH 14 19
ATOM     19  N   ILE G   3      40.058   7.453  20.527  1.00 79.60 LIG-0.34  N 
ATOM     20 H    ILE G   3      40.860   7.394  20.224  1.00 79.60 LIG 0.16  HD
ATOM     21  C   ASP G   2      39.121   6.530  20.294  1.00 93.07 LIG 0.26  C 
ATOM     22 O    ASP G   2      37.999   6.562  20.802  1.00 81.24 LIG-0.27  OA
BRANCH 21 23
ATOM     23  CA  ASP G   2      39.483   5.394  19.329  1.00 93.30 LIG 0.41  C 
ATOM     24  N   ASP G   2      38.473   4.307  19.480  1.00 94.60 LIG 0.61  N 
BRANCH 23 25
ATOM     25  CB  ASP G   2      39.535   5.868  17.869  1.00 96.36 LIG 0.16  C 
BRANCH 25 26
ATOM     26  CG  ASP G   2      38.795   4.941  16.929  1.00103.24 LIG 0.17  C 
ATOM     27 OD1  ASP G   2      38.084   5.431  16.030  1.00112.85 LIG-0.65  OA
ATOM     28 OD2  ASP G   2      38.925   3.717  17.081  1.00105.87 LIG-0.65  OA
ENDBRANCH 25 26
ENDBRANCH 23 25
ENDBRANCH 21 23
ENDBRANCH 14 19
ENDBRANCH 12 14
ENDBRANCH 5 10
ENDBRANCH 1 5
BRANCH 3 29
ATOM     29  CA  PHE G   5      40.681   4.409  23.361  1.00 70.05 LIG 0.18  C 
BRANCH 29 30
ATOM     30  CB  PHE G   5      41.939   4.844  24.141  1.00 73.20 LIG 0.07  C 
BRANCH 30 31
ATOM     31  CG  PHE G   5      42.539   3.719  24.970  1.00 79.36 LIG-0.06  A 
ATOM     32  CD1 PHE G   5      42.282   3.646  26.362  1.00 85.64 LIG 0.01  A 
ATOM     33  CE1 PHE G   5      42.807   2.621  27.138  1.00 88.71 LIG 0.00  A 
ATOM     34  CZ  PHE G   5      43.596   1.641  26.529  1.00 96.11 LIG 0.00  A 
ATOM     35  CE2 PHE G   5      43.847   1.688  25.149  1.00 91.53 LIG 0.00  A 
ATOM     36  CD2 PHE G   5      43.322   2.718  24.376  1.00 81.01 LIG 0.01  A 
ENDBRANCH 30 31
ENDBRANCH 29 30
BRANCH 29 37
ATOM     37  C   PHE G   5      40.050   3.117  23.867  1.00 74.26 LIG 0.24  C 
ATOM     38  N   PRO G   6      39.952   2.098  22.984  1.00 79.01 LIG-0.34  N 
ATOM     39  CD  PRO G   6      40.278   2.207  21.536  1.00 76.17 LIG 0.13  C 
ATOM     40  CA  PRO G   6      39.210   0.866  23.293  1.00 78.34 LIG 0.18  C 
ATOM     41  CG  PRO G   6      40.072   0.822  21.029  1.00 78.03 LIG 0.02  C 
ATOM     42  CB  PRO G   6      38.972   0.269  21.895  1.00 82.73 LIG 0.04  C 
ATOM     43 O    PHE G   5      39.573   3.073  25.007  1.00 61.78 LIG-0.27  OA
BRANCH 40 44
ATOM     44  C   PRO G   6      39.931  -0.163  24.193  1.00 77.34 LIG 0.24  C 
ATOM     45 O    PRO G   6      41.079   0.054  24.537  1.00 92.50 LIG-0.27  OA
ATOM     46  N   ALA G   7      39.259  -1.264  24.561  1.00 74.20 LIG-0.35  N 
ATOM     47 H    ALA G   7      38.400  -1.314  24.566  1.00 74.20 LIG 0.16  HD
BRANCH 46 48
ATOM     48  CA  ALA G   7      39.938  -2.513  25.000  1.00 71.75 LIG 0.16  C 
ATOM     49  CB  ALA G   7      39.209  -3.125  26.196  1.00 70.01 LIG 0.04  C 
BRANCH 48 50
ATOM     50  C   ALA G   7      39.991  -3.524  23.832  1.00 69.94 LIG 0.22  C 
ATOM     51 O    ALA G   7      39.655  -3.174  22.672  1.00 56.97 LIG-0.29  OA
ENDBRANCH 48 50
ENDBRANCH 46 48
ENDBRANCH 40 44
ENDBRANCH 29 37
ENDBRANCH 3 29
TORSDOF 18
ENDMDL
MODEL 17
USER: ADFR SOLUTION from run 163
USER: SCORE 15.930742 LL:  -5.344 LR: -10.999 RR:   0.000 FEB:  -5.630
USER: RMSD 8.608916
USER: SEED 162
USER: STATUS no improvement in best in 21 clusters for 5 generations
USER: GENES 20
USER: genes 0 Translation |==|  0.45262 0.50321 0.43537
USER: genes 1 Rotation |==|  0.07057 0.58669 0.28908 0.61656
USER: genes 2 Torsion [N]-C--CA-[N] |==|  0.30095
USER: genes 3 Torsion [C]-CA--CB-[CG] |==|  0.23180
USER: genes 4 Torsion [CA]-CB--CG-[CD1] |==|  0.41189
USER: genes 5 Torsion [C]-CA--N-[C] |==|  0.76843
USER: genes 6 Torsion [N]-C--CA-[N] |==|  0.33708
USER: genes 7 Torsion [C]-CA--CB-[CG1] |==|  0.35782
USER: genes 8 Torsion [CA]-CB--CG1-[CD1] |==|  0.05505
USER: genes 9 Torsion [C]-CA--N-[C] |==|  0.82130
USER: genes 10 Torsion [N]-C--CA-[N] |==|  0.32759
USER: genes 11 Torsion [C]-CA--CB-[CG] |==|  0.69735
USER: genes 12 Torsion [CA]-CB--CG-[OD1] |==|  0.32345
USER: genes 13 Torsion [C]-N--CA-[CB] |==|  0.85534
USER: genes 14 Torsion [N]-CA--CB-[CG] |==|  0.34361
USER: genes 15 Torsion [CA]-CB--CG-[CD1] |==|  0.74213
USER: genes 16 Torsion [N]-CA--C-[N] |==|  0.40497
USER: genes 17 Torsion [N]-CA--C-[O] |==|  0.97594
USER: genes 18 Torsion [C]-N--CA-[C] |==|  0.48263
USER: genes 19 Torsion [N]-CA--C-[O] |==|  0.88143
ROOT
ATOM      1  C   LEU G   4      39.177   6.270  21.620  1.00 61.38 LIG 0.24  C 
ATOM      2 O    LEU G   4      38.009   6.174  22.011  1.00 52.06 LIG-0.27  OA
ATOM      3  N   PHE G   5      40.193   6.672  22.362  1.00 60.80 LIG-0.35  N 
ATOM      4 H    PHE G   5      41.003   6.702  22.074  1.00 60.80 LIG 0.16  HD
ENDROOT
BRANCH 1 5
ATOM      5  CA  LEU G   4      39.553   5.962  20.200  1.00 58.56 LIG 0.18  C 
BRANCH 5 6
ATOM      6  CB  LEU G   4      38.578   6.705  19.291  1.00 61.47 LIG 0.04  C 
BRANCH 6 7
ATOM      7  CG  LEU G   4      38.948   8.150  19.035  1.00 62.80 LIG-0.02  C 
ATOM      8  CD1 LEU G   4      38.466   8.492  17.641  1.00 63.22 LIG 0.01  C 
ATOM      9  CD2 LEU G   4      38.296   9.017  20.110  1.00 64.86 LIG 0.01  C 
ENDBRANCH 6 7
ENDBRANCH 5 6
BRANCH 5 10
ATOM     10  N   LEU G   4      39.505   4.526  20.005  1.00 59.02 LIG-0.35  N 
ATOM     11 H    LEU G   4      38.774   4.231  19.661  1.00 59.02 LIG 0.16  HD
ATOM     12  C   ILE G   3      40.542   3.761  20.347  1.00 70.10 LIG 0.24  C 
ATOM     13 O    ILE G   3      41.661   4.243  20.633  1.00 64.55 LIG-0.27  OA
BRANCH 12 14
ATOM     14  CA  ILE G   3      40.289   2.230  20.371  1.00 67.83 LIG 0.18  C 
BRANCH 14 15
ATOM     15  CB  ILE G   3      40.437   1.661  21.818  1.00 66.94 LIG 0.01  C 
ATOM     16  CG2 ILE G   3      40.657   2.795  22.819  1.00 67.41 LIG 0.01  C 
BRANCH 15 17
ATOM     17  CG1 ILE G   3      39.212   0.803  22.239  1.00 59.79 LIG 0.00  C 
ATOM     18  CD1 ILE G   3      38.389   0.303  21.081  1.00 60.74 LIG 0.01  C 
ENDBRANCH 15 17
ENDBRANCH 14 15
BRANCH 14 19
ATOM     19  N   ILE G   3      41.202   1.564  19.455  1.00 79.60 LIG-0.34  N 
ATOM     20 H    ILE G   3      41.756   1.035  19.845  1.00 79.60 LIG 0.16  HD
ATOM     21  C   ASP G   2      41.184   1.755  18.133  1.00 93.07 LIG 0.26  C 
ATOM     22 O    ASP G   2      40.334   2.439  17.560  1.00 81.24 LIG-0.27  OA
BRANCH 21 23
ATOM     23  CA  ASP G   2      42.299   1.092  17.315  1.00 93.30 LIG 0.41  C 
ATOM     24  N   ASP G   2      41.678   0.120  16.370  1.00 94.60 LIG 0.61  N 
BRANCH 23 25
ATOM     25  CB  ASP G   2      43.141   2.118  16.542  1.00 96.36 LIG 0.16  C 
BRANCH 25 26
ATOM     26  CG  ASP G   2      42.895   2.065  15.049  1.00103.24 LIG 0.17  C 
ATOM     27 OD1  ASP G   2      42.402   3.059  14.480  1.00112.85 LIG-0.65  OA
ATOM     28 OD2  ASP G   2      43.200   1.030  14.436  1.00105.87 LIG-0.65  OA
ENDBRANCH 25 26
ENDBRANCH 23 25
ENDBRANCH 21 23
ENDBRANCH 14 19
ENDBRANCH 12 14
ENDBRANCH 5 10
ENDBRANCH 1 5
BRANCH 3 29
ATOM     29  CA  PHE G   5      40.054   7.099  23.726  1.00 70.05 LIG 0.18  C 
BRANCH 29 30
ATOM     30  CB  PHE G   5      38.961   8.181  23.848  1.00 73.20 LIG 0.07  C 
BRANCH 30 31
ATOM     31  CG  PHE G   5      37.868   7.809  24.838  1.00 79.36 LIG-0.06  A 
ATOM     32  CD1 PHE G   5      36.696   7.151  24.390  1.00 85.64 LIG 0.01  A 
ATOM     33  CE1 PHE G   5      35.690   6.788  25.275  1.00 88.71 LIG 0.00  A 
ATOM     34  CZ  PHE G   5      35.845   7.072  26.635  1.00 96.11 LIG 0.00  A 
ATOM     35  CE2 PHE G   5      37.007   7.709  27.100  1.00 91.53 LIG 0.00  A 
ATOM     36  CD2 PHE G   5      38.011   8.073  26.208  1.00 81.01 LIG 0.01  A 
ENDBRANCH 30 31
ENDBRANCH 29 30
BRANCH 29 37
ATOM     37  C   PHE G   5      39.772   5.836  24.531  1.00 74.26 LIG 0.24  C 
ATOM     38  N   PRO G   6      40.276   5.785  25.784  1.00 79.01 LIG-0.34  N 
ATOM     39  CD  PRO G   6      41.197   6.802  26.361  1.00 76.17 LIG 0.13  C 
ATOM     40  CA  PRO G   6      40.225   4.560  26.597  1.00 78.34 LIG 0.18  C 
ATOM     41  CG  PRO G   6      41.402   6.331  27.759  1.00 78.03 LIG 0.02  C 
ATOM     42  CB  PRO G   6      41.299   4.832  27.666  1.00 82.73 LIG 0.04  C 
ATOM     43 O    PHE G   5      39.191   4.884  23.996  1.00 61.78 LIG-0.27  OA
BRANCH 40 44
ATOM     44  C   PRO G   6      38.873   4.240  27.275  1.00 77.34 LIG 0.24  C 
ATOM     45 O    PRO G   6      37.984   5.073  27.242  1.00 92.50 LIG-0.27  OA
ATOM     46  N   ALA G   7      38.732   3.051  27.878  1.00 74.20 LIG-0.35  N 
ATOM     47 H    ALA G   7      39.216   2.365  27.691  1.00 74.20 LIG 0.16  HD
BRANCH 46 48
ATOM     48  CA  ALA G   7      37.716   2.800  28.936  1.00 71.75 LIG 0.16  C 
ATOM     49  CB  ALA G   7      36.331   3.237  28.461  1.00 70.01 LIG 0.04  C 
BRANCH 48 50
ATOM     50  C   ALA G   7      37.704   1.301  29.313  1.00 69.94 LIG 0.22  C 
ATOM     51 O    ALA G   7      37.768   0.420  28.418  1.00 56.97 LIG-0.29  OA
ENDBRANCH 48 50
ENDBRANCH 46 48
ENDBRANCH 40 44
ENDBRANCH 29 37
ENDBRANCH 3 29
TORSDOF 18
ENDMDL
MODEL 18
USER: ADFR SOLUTION from run 93
USER: SCORE 13.986441 LL:  -4.912 LR: -10.990 RR:   0.000 FEB:  -5.621
USER: RMSD 6.882620
USER: SEED 92
USER: STATUS searching
USER: GENES 20
USER: genes 0 Translation |==|  0.44079 0.62819 0.44115
USER: genes 1 Rotation |==|  0.62622 0.03501 0.46959 0.63010
USER: genes 2 Torsion [N]-C--CA-[N] |==|  0.44909
USER: genes 3 Torsion [C]-CA--CB-[CG] |==|  0.30843
USER: genes 4 Torsion [CA]-CB--CG-[CD1] |==|  0.40339
USER: genes 5 Torsion [C]-CA--N-[C] |==|  0.54456
USER: genes 6 Torsion [N]-C--CA-[N] |==|  0.44821
USER: genes 7 Torsion [C]-CA--CB-[CG1] |==|  0.23776
USER: genes 8 Torsion [CA]-CB--CG1-[CD1] |==|  0.04320
USER: genes 9 Torsion [C]-CA--N-[C] |==|  0.76759
USER: genes 10 Torsion [N]-C--CA-[N] |==|  0.54282
USER: genes 11 Torsion [C]-CA--CB-[CG] |==|  0.83775
USER: genes 12 Torsion [CA]-CB--CG-[OD1] |==|  0.32029
USER: genes 13 Torsion [C]-N--CA-[CB] |==|  0.35080
USER: genes 14 Torsion [N]-CA--CB-[CG] |==|  0.74969
USER: genes 15 Torsion [CA]-CB--CG-[CD1] |==|  0.51375
USER: genes 16 Torsion [N]-CA--C-[N] |==|  0.50940
USER: genes 17 Torsion [N]-CA--C-[O] |==|  0.55389
USER: genes 18 Torsion [C]-N--CA-[C] |==|  0.67181
USER: genes 19 Torsion [N]-CA--C-[O] |==|  0.37037
ROOT
ATOM      1  C   LEU G   4      38.982   9.738  21.715  1.00 61.38 LIG 0.24  C 
ATOM      2 O    LEU G   4      39.876   9.938  22.545  1.00 52.06 LIG-0.27  OA
ATOM      3  N   PHE G   5      38.438   8.562  21.456  1.00 60.80 LIG-0.35  N 
ATOM      4 H    PHE G   5      37.797   8.455  20.894  1.00 60.80 LIG 0.16  HD
ENDROOT
BRANCH 1 5
ATOM      5  CA  LEU G   4      38.440  10.852  20.869  1.00 58.56 LIG 0.18  C 
BRANCH 5 6
ATOM      6  CB  LEU G   4      39.061  10.724  19.481  1.00 61.47 LIG 0.04  C 
BRANCH 6 7
ATOM      7  CG  LEU G   4      38.084  10.317  18.400  1.00 62.80 LIG-0.02  C 
ATOM      8  CD1 LEU G   4      38.504  11.026  17.130  1.00 63.22 LIG 0.01  C 
ATOM      9  CD2 LEU G   4      38.119   8.795  18.260  1.00 64.86 LIG 0.01  C 
ENDBRANCH 6 7
ENDBRANCH 5 6
BRANCH 5 10
ATOM     10  N   LEU G   4      38.757  12.118  21.502  1.00 59.02 LIG-0.35  N 
ATOM     11 H    LEU G   4      39.365  12.077  22.109  1.00 59.02 LIG 0.16  HD
ATOM     12  C   ILE G   3      38.128  13.234  21.135  1.00 70.10 LIG 0.24  C 
ATOM     13 O    ILE G   3      37.418  13.293  20.106  1.00 64.55 LIG-0.27  OA
BRANCH 12 14
ATOM     14  CA  ILE G   3      38.323  14.468  22.056  1.00 67.83 LIG 0.18  C 
BRANCH 14 15
ATOM     15  CB  ILE G   3      37.480  14.330  23.363  1.00 66.94 LIG 0.01  C 
ATOM     16  CG2 ILE G   3      36.129  13.681  23.062  1.00 67.41 LIG 0.01  C 
BRANCH 15 17
ATOM     17  CG1 ILE G   3      38.228  13.526  24.463  1.00 59.79 LIG 0.00  C 
ATOM     18  CD1 ILE G   3      39.703  13.369  24.207  1.00 60.74 LIG 0.01  C 
ENDBRANCH 15 17
ENDBRANCH 14 15
BRANCH 14 19
ATOM     19  N   ILE G   3      37.971  15.682  21.337  1.00 79.60 LIG-0.34  N 
ATOM     20 H    ILE G   3      37.168  15.950  21.485  1.00 79.60 LIG 0.16  HD
ATOM     21  C   ASP G   2      38.815  16.324  20.524  1.00 93.07 LIG 0.26  C 
ATOM     22 O    ASP G   2      39.995  16.000  20.381  1.00 81.24 LIG-0.27  OA
BRANCH 21 23
ATOM     23  CA  ASP G   2      38.253  17.509  19.728  1.00 93.30 LIG 0.41  C 
ATOM     24  N   ASP G   2      39.210  17.837  18.632  1.00 94.60 LIG 0.61  N 
BRANCH 23 25
ATOM     25  CB  ASP G   2      36.864  17.211  19.145  1.00 96.36 LIG 0.16  C 
BRANCH 25 26
ATOM     26  CG  ASP G   2      36.863  16.004  18.232  1.00103.24 LIG 0.17  C 
ATOM     27 OD1  ASP G   2      36.209  14.995  18.561  1.00112.85 LIG-0.65  OA
ATOM     28 OD2  ASP G   2      37.512  16.061  17.176  1.00105.87 LIG-0.65  OA
ENDBRANCH 25 26
ENDBRANCH 23 25
ENDBRANCH 21 23
ENDBRANCH 14 19
ENDBRANCH 12 14
ENDBRANCH 5 10
ENDBRANCH 1 5
BRANCH 3 29
ATOM     29  CA  PHE G   5      38.861   7.342  22.085  1.00 70.05 LIG 0.18  C 
BRANCH 29 30
ATOM     30  CB  PHE G   5      37.660   6.618  22.728  1.00 73.20 LIG 0.07  C 
BRANCH 30 31
ATOM     31  CG  PHE G   5      37.424   7.032  24.173  1.00 79.36 LIG-0.06  A 
ATOM     32  CD1 PHE G   5      36.426   6.386  24.944  1.00 85.64 LIG 0.01  A 
ATOM     33  CE1 PHE G   5      36.200   6.736  26.269  1.00 88.71 LIG 0.00  A 
ATOM     34  CZ  PHE G   5      36.981   7.740  26.851  1.00 96.11 LIG 0.00  A 
ATOM     35  CE2 PHE G   5      37.985   8.379  26.107  1.00 91.53 LIG 0.00  A 
ATOM     36  CD2 PHE G   5      38.205   8.027  24.778  1.00 81.01 LIG 0.01  A 
ENDBRANCH 30 31
ENDBRANCH 29 30
BRANCH 29 37
ATOM     37  C   PHE G   5      39.566   6.537  21.000  1.00 74.26 LIG 0.24  C 
ATOM     38  N   PRO G   6      39.997   5.301  21.340  1.00 79.01 LIG-0.34  N 
ATOM     39  CD  PRO G   6      39.959   4.748  22.721  1.00 76.17 LIG 0.13  C 
ATOM     40  CA  PRO G   6      40.841   4.495  20.444  1.00 78.34 LIG 0.18  C 
ATOM     41  CG  PRO G   6      40.474   3.362  22.554  1.00 78.03 LIG 0.02  C 
ATOM     42  CB  PRO G   6      41.447   3.461  21.409  1.00 82.73 LIG 0.04  C 
ATOM     43 O    PHE G   5      39.802   7.059  19.904  1.00 61.78 LIG-0.27  OA
BRANCH 40 44
ATOM     44  C   PRO G   6      40.119   3.776  19.282  1.00 77.34 LIG 0.24  C 
ATOM     45 O    PRO G   6      40.669   2.836  18.736  1.00 92.50 LIG-0.27  OA
ATOM     46  N   ALA G   7      38.907   4.221  18.916  1.00 74.20 LIG-0.35  N 
ATOM     47 H    ALA G   7      38.396   4.680  19.433  1.00 74.20 LIG 0.16  HD
BRANCH 46 48
ATOM     48  CA  ALA G   7      38.326   3.960  17.572  1.00 71.75 LIG 0.16  C 
ATOM     49  CB  ALA G   7      37.017   3.181  17.698  1.00 70.01 LIG 0.04  C 
BRANCH 48 50
ATOM     50  C   ALA G   7      38.084   5.295  16.832  1.00 69.94 LIG 0.22  C 
ATOM     51 O    ALA G   7      38.444   5.432  15.635  1.00 56.97 LIG-0.29  OA
ENDBRANCH 48 50
ENDBRANCH 46 48
ENDBRANCH 40 44
ENDBRANCH 29 37
ENDBRANCH 3 29
TORSDOF 18
ENDMDL
MODEL 19
USER: ADFR SOLUTION from run 54
USER: SCORE 15.463213 LL:  -5.037 LR: -10.982 RR:   0.000 FEB:  -5.612
USER: RMSD 6.511400
USER: SEED 53
USER: STATUS no improvement in best in 10 clusters for 5 generations
USER: GENES 20
USER: genes 0 Translation |==|  0.39578 0.51252 0.63270
USER: genes 1 Rotation |==|  0.29830 0.53096 0.43422 0.95170
USER: genes 2 Torsion [N]-C--CA-[N] |==|  0.38282
USER: genes 3 Torsion [C]-CA--CB-[CG] |==|  0.96332
USER: genes 4 Torsion [CA]-CB--CG-[CD1] |==|  0.28529
USER: genes 5 Torsion [C]-CA--N-[C] |==|  0.77346
USER: genes 6 Torsion [N]-C--CA-[N] |==|  0.82258
USER: genes 7 Torsion [C]-CA--CB-[CG1] |==|  0.44970
USER: genes 8 Torsion [CA]-CB--CG1-[CD1] |==|  0.21030
USER: genes 9 Torsion [C]-CA--N-[C] |==|  0.72189
USER: genes 10 Torsion [N]-C--CA-[N] |==|  0.24926
USER: genes 11 Torsion [C]-CA--CB-[CG] |==|  0.60229
USER: genes 12 Torsion [CA]-CB--CG-[OD1] |==|  0.31503
USER: genes 13 Torsion [C]-N--CA-[CB] |==|  0.84004
USER: genes 14 Torsion [N]-CA--CB-[CG] |==|  0.57518
USER: genes 15 Torsion [CA]-CB--CG-[CD1] |==|  0.33860
USER: genes 16 Torsion [N]-CA--C-[N] |==|  0.36613
USER: genes 17 Torsion [N]-CA--C-[O] |==|  0.48218
USER: genes 18 Torsion [C]-N--CA-[C] |==|  0.20999
USER: genes 19 Torsion [N]-CA--C-[O] |==|  0.32705
ROOT
ATOM      1  C   LEU G   4      38.239   6.528  24.876  1.00 61.38 LIG 0.24  C 
ATOM      2 O    LEU G   4      37.613   5.791  24.106  1.00 52.06 LIG-0.27  OA
ATOM      3  N   PHE G   5      39.031   6.110  25.848  1.00 60.80 LIG-0.35  N 
ATOM      4 H    PHE G   5      39.479   6.645  26.351  1.00 60.80 LIG 0.16  HD
ENDROOT
BRANCH 1 5
ATOM      5  CA  LEU G   4      38.121   8.021  24.794  1.00 58.56 LIG 0.18  C 
BRANCH 5 6
ATOM      6  CB  LEU G   4      36.809   8.420  25.463  1.00 61.47 LIG 0.04  C 
BRANCH 6 7
ATOM      7  CG  LEU G   4      35.869   7.264  25.723  1.00 62.80 LIG-0.02  C 
ATOM      8  CD1 LEU G   4      35.970   6.930  27.197  1.00 63.22 LIG 0.01  C 
ATOM      9  CD2 LEU G   4      34.458   7.681  25.312  1.00 64.86 LIG 0.01  C 
ENDBRANCH 6 7
ENDBRANCH 5 6
BRANCH 5 10
ATOM     10  N   LEU G   4      38.174   8.420  23.401  1.00 59.02 LIG-0.35  N 
ATOM     11 H    LEU G   4      37.409   8.566  23.036  1.00 59.02 LIG 0.16  HD
ATOM     12  C   ILE G   3      39.345   8.537  22.774  1.00 70.10 LIG 0.24  C 
ATOM     13 O    ILE G   3      40.434   8.534  23.389  1.00 64.55 LIG-0.27  OA
BRANCH 12 14
ATOM     14  CA  ILE G   3      39.287   8.682  21.230  1.00 67.83 LIG 0.18  C 
BRANCH 14 15
ATOM     15  CB  ILE G   3      38.459   9.940  20.816  1.00 66.94 LIG 0.01  C 
ATOM     16  CG2 ILE G   3      38.734  11.100  21.773  1.00 67.41 LIG 0.01  C 
BRANCH 15 17
ATOM     17  CG1 ILE G   3      38.743  10.375  19.352  1.00 59.79 LIG 0.00  C 
ATOM     18  CD1 ILE G   3      38.087   9.498  18.317  1.00 60.74 LIG 0.01  C 
ENDBRANCH 15 17
ENDBRANCH 14 15
BRANCH 14 19
ATOM     19  N   ILE G   3      38.727   7.476  20.641  1.00 79.60 LIG-0.34  N 
ATOM     20 H    ILE G   3      37.869   7.438  20.683  1.00 79.60 LIG 0.16  HD
ATOM     21  C   ASP G   2      39.472   6.516  20.087  1.00 93.07 LIG 0.26  C 
ATOM     22 O    ASP G   2      40.692   6.606  19.940  1.00 81.24 LIG-0.27  OA
BRANCH 21 23
ATOM     23  CA  ASP G   2      38.748   5.240  19.636  1.00 93.30 LIG 0.41  C 
ATOM     24  N   ASP G   2      38.308   5.422  18.224  1.00 94.60 LIG 0.61  N 
BRANCH 23 25
ATOM     25  CB  ASP G   2      39.639   3.994  19.757  1.00 96.36 LIG 0.16  C 
BRANCH 25 26
ATOM     26  CG  ASP G   2      39.416   3.009  18.630  1.00103.24 LIG 0.17  C 
ATOM     27 OD1  ASP G   2      40.334   2.806  17.812  1.00112.85 LIG-0.65  OA
ATOM     28 OD2  ASP G   2      38.322   2.427  18.561  1.00105.87 LIG-0.65  OA
ENDBRANCH 25 26
ENDBRANCH 23 25
ENDBRANCH 21 23
ENDBRANCH 14 19
ENDBRANCH 12 14
ENDBRANCH 5 10
ENDBRANCH 1 5
BRANCH 3 29
ATOM     29  CA  PHE G   5      39.228   4.724  26.164  1.00 70.05 LIG 0.18  C 
BRANCH 29 30
ATOM     30  CB  PHE G   5      37.882   4.046  26.496  1.00 73.20 LIG 0.07  C 
BRANCH 30 31
ATOM     31  CG  PHE G   5      38.035   2.856  27.431  1.00 79.36 LIG-0.06  A 
ATOM     32  CD1 PHE G   5      37.351   2.833  28.672  1.00 85.64 LIG 0.01  A 
ATOM     33  CE1 PHE G   5      37.462   1.752  29.536  1.00 88.71 LIG 0.00  A 
ATOM     34  CZ  PHE G   5      38.258   0.664  29.167  1.00 96.11 LIG 0.00  A 
ATOM     35  CE2 PHE G   5      38.930   0.662  27.935  1.00 91.53 LIG 0.00  A 
ATOM     36  CD2 PHE G   5      38.817   1.749  27.073  1.00 81.01 LIG 0.01  A 
ENDBRANCH 30 31
ENDBRANCH 29 30
BRANCH 29 37
ATOM     37  C   PHE G   5      39.950   4.121  24.965  1.00 74.26 LIG 0.24  C 
ATOM     38  N   PRO G   6      41.037   3.361  25.226  1.00 79.01 LIG-0.34  N 
ATOM     39  CD  PRO G   6      41.648   3.203  26.573  1.00 76.17 LIG 0.13  C 
ATOM     40  CA  PRO G   6      41.920   2.869  24.157  1.00 78.34 LIG 0.18  C 
ATOM     41  CG  PRO G   6      42.755   2.235  26.341  1.00 78.03 LIG 0.02  C 
ATOM     42  CB  PRO G   6      43.201   2.511  24.930  1.00 82.73 LIG 0.04  C 
ATOM     43 O    PHE G   5      39.588   4.416  23.819  1.00 61.78 LIG-0.27  OA
BRANCH 40 44
ATOM     44  C   PRO G   6      41.420   1.640  23.364  1.00 77.34 LIG 0.24  C 
ATOM     45 O    PRO G   6      42.054   1.265  22.393  1.00 92.50 LIG-0.27  OA
ATOM     46  N   ALA G   7      40.297   1.033  23.777  1.00 74.20 LIG-0.35  N 
ATOM     47 H    ALA G   7      39.992   1.097  24.578  1.00 74.20 LIG 0.16  HD
BRANCH 46 48
ATOM     48  CA  ALA G   7      39.466   0.183  22.883  1.00 71.75 LIG 0.16  C 
ATOM     49  CB  ALA G   7      39.243   0.878  21.539  1.00 70.01 LIG 0.04  C 
BRANCH 48 50
ATOM     50  C   ALA G   7      40.149  -1.187  22.669  1.00 69.94 LIG 0.22  C 
ATOM     51 O    ALA G   7      39.584  -2.245  23.048  1.00 56.97 LIG-0.29  OA
ENDBRANCH 48 50
ENDBRANCH 46 48
ENDBRANCH 40 44
ENDBRANCH 29 37
ENDBRANCH 3 29
TORSDOF 18
ENDMDL
MODEL 20
USER: ADFR SOLUTION from run 195
USER: SCORE 14.506020 LL:  -5.457 LR: -10.972 RR:   0.000 FEB:  -5.602
USER: RMSD 8.851731
USER: SEED 194
USER: STATUS no improvement in best in 30 clusters for 5 generations
USER: GENES 20
USER: genes 0 Translation |==|  0.42418 0.49261 0.58368
USER: genes 1 Rotation |==|  0.32823 0.61977 0.92307 0.66481
USER: genes 2 Torsion [N]-C--CA-[N] |==|  0.56650
USER: genes 3 Torsion [C]-CA--CB-[CG] |==|  0.31299
USER: genes 4 Torsion [CA]-CB--CG-[CD1] |==|  0.87974
USER: genes 5 Torsion [C]-CA--N-[C] |==|  0.55384
USER: genes 6 Torsion [N]-C--CA-[N] |==|  0.87071
USER: genes 7 Torsion [C]-CA--CB-[CG1] |==|  0.31020
USER: genes 8 Torsion [CA]-CB--CG1-[CD1] |==|  0.99160
USER: genes 9 Torsion [C]-CA--N-[C] |==|  0.21094
USER: genes 10 Torsion [N]-C--CA-[N] |==|  0.88908
USER: genes 11 Torsion [C]-CA--CB-[CG] |==|  0.66491
USER: genes 12 Torsion [CA]-CB--CG-[OD1] |==|  0.31925
USER: genes 13 Torsion [C]-N--CA-[CB] |==|  0.88221
USER: genes 14 Torsion [N]-CA--CB-[CG] |==|  0.33748
USER: genes 15 Torsion [CA]-CB--CG-[CD1] |==|  0.25660
USER: genes 16 Torsion [N]-CA--C-[N] |==|  0.41108
USER: genes 17 Torsion [N]-CA--C-[O] |==|  0.67866
USER: genes 18 Torsion [C]-N--CA-[C] |==|  0.84555
USER: genes 19 Torsion [N]-CA--C-[O] |==|  0.22500
ROOT
ATOM      1  C   LEU G   4      38.708   5.976  24.067  1.00 61.38 LIG 0.24  C 
ATOM      2 O    LEU G   4      39.426   5.094  23.584  1.00 52.06 LIG-0.27  OA
ATOM      3  N   PHE G   5      38.618   7.213  23.610  1.00 60.80 LIG-0.35  N 
ATOM      4 H    PHE G   5      38.088   7.800  23.947  1.00 60.80 LIG 0.16  HD
ENDROOT
BRANCH 1 5
ATOM      5  CA  LEU G   4      37.869   5.721  25.284  1.00 58.56 LIG 0.18  C 
BRANCH 5 6
ATOM      6  CB  LEU G   4      37.847   7.004  26.109  1.00 61.47 LIG 0.04  C 
BRANCH 6 7
ATOM      7  CG  LEU G   4      36.493   7.676  26.174  1.00 62.80 LIG-0.02  C 
ATOM      8  CD1 LEU G   4      35.910   7.638  24.778  1.00 63.22 LIG 0.01  C 
ATOM      9  CD2 LEU G   4      35.628   6.931  27.191  1.00 64.86 LIG 0.01  C 
ENDBRANCH 6 7
ENDBRANCH 5 6
BRANCH 5 10
ATOM     10  N   LEU G   4      38.435   4.604  26.016  1.00 59.02 LIG-0.35  N 
ATOM     11 H    LEU G   4      39.256   4.427  25.831  1.00 59.02 LIG 0.16  HD
ATOM     12  C   ILE G   3      37.697   3.931  26.900  1.00 70.10 LIG 0.24  C 
ATOM     13 O    ILE G   3      36.589   4.351  27.302  1.00 64.55 LIG-0.27  OA
BRANCH 12 14
ATOM     14  CA  ILE G   3      38.290   2.591  27.411  1.00 67.83 LIG 0.18  C 
BRANCH 14 15
ATOM     15  CB  ILE G   3      39.420   2.841  28.459  1.00 66.94 LIG 0.01  C 
ATOM     16  CG2 ILE G   3      39.821   4.316  28.470  1.00 67.41 LIG 0.01  C 
BRANCH 15 17
ATOM     17  CG1 ILE G   3      39.010   2.386  29.887  1.00 59.79 LIG 0.00  C 
ATOM     18  CD1 ILE G   3      37.598   1.871  29.980  1.00 60.74 LIG 0.01  C 
ENDBRANCH 15 17
ENDBRANCH 14 15
BRANCH 14 19
ATOM     19  N   ILE G   3      38.786   1.810  26.289  1.00 79.60 LIG-0.34  N 
ATOM     20 H    ILE G   3      38.272   1.156  26.070  1.00 79.60 LIG 0.16  HD
ATOM     21  C   ASP G   2      39.930   2.081  25.655  1.00 93.07 LIG 0.26  C 
ATOM     22 O    ASP G   2      40.622   3.070  25.903  1.00 81.24 LIG-0.27  OA
BRANCH 21 23
ATOM     23  CA  ASP G   2      40.390   1.084  24.584  1.00 93.30 LIG 0.41  C 
ATOM     24  N   ASP G   2      40.113  -0.297  25.075  1.00 94.60 LIG 0.61  N 
BRANCH 23 25
ATOM     25  CB  ASP G   2      39.692   1.317  23.236  1.00 96.36 LIG 0.16  C 
BRANCH 25 26
ATOM     26  CG  ASP G   2      38.912   0.107  22.768  1.00103.24 LIG 0.17  C 
ATOM     27 OD1  ASP G   2      37.671   0.185  22.676  1.00112.85 LIG-0.65  OA
ATOM     28 OD2  ASP G   2      39.537  -0.926  22.484  1.00105.87 LIG-0.65  OA
ENDBRANCH 25 26
ENDBRANCH 23 25
ENDBRANCH 21 23
ENDBRANCH 14 19
ENDBRANCH 12 14
ENDBRANCH 5 10
ENDBRANCH 1 5
BRANCH 3 29
ATOM     29  CA  PHE G   5      39.394   7.704  22.507  1.00 70.05 LIG 0.18  C 
BRANCH 29 30
ATOM     30  CB  PHE G   5      40.853   7.215  22.607  1.00 73.20 LIG 0.07  C 
BRANCH 30 31
ATOM     31  CG  PHE G   5      41.292   6.410  21.393  1.00 79.36 LIG-0.06  A 
ATOM     32  CD1 PHE G   5      41.925   7.055  20.302  1.00 85.64 LIG 0.01  A 
ATOM     33  CE1 PHE G   5      42.347   6.340  19.189  1.00 88.71 LIG 0.00  A 
ATOM     34  CZ  PHE G   5      42.149   4.957  19.153  1.00 96.11 LIG 0.00  A 
ATOM     35  CE2 PHE G   5      41.539   4.298  20.232  1.00 91.53 LIG 0.00  A 
ATOM     36  CD2 PHE G   5      41.115   5.019  21.344  1.00 81.01 LIG 0.01  A 
ENDBRANCH 30 31
ENDBRANCH 29 30
BRANCH 29 37
ATOM     37  C   PHE G   5      38.667   7.244  21.249  1.00 74.26 LIG 0.24  C 
ATOM     38  N   PRO G   6      38.746   8.051  20.167  1.00 79.01 LIG-0.34  N 
ATOM     39  CD  PRO G   6      39.361   9.406  20.174  1.00 76.17 LIG 0.13  C 
ATOM     40  CA  PRO G   6      37.952   7.810  18.953  1.00 78.34 LIG 0.18  C 
ATOM     41  CG  PRO G   6      39.256   9.842  18.754  1.00 78.03 LIG 0.02  C 
ATOM     42  CB  PRO G   6      38.000   9.179  18.253  1.00 82.73 LIG 0.04  C 
ATOM     43 O    PHE G   5      37.968   6.224  21.283  1.00 61.78 LIG-0.27  OA
BRANCH 40 44
ATOM     44  C   PRO G   6      38.469   6.709  18.000  1.00 77.34 LIG 0.24  C 
ATOM     45 O    PRO G   6      38.834   7.021  16.879  1.00 92.50 LIG-0.27  OA
ATOM     46  N   ALA G   7      38.495   5.445  18.446  1.00 74.20 LIG-0.35  N 
ATOM     47 H    ALA G   7      38.506   5.238  19.281  1.00 74.20 LIG 0.16  HD
BRANCH 46 48
ATOM     48  CA  ALA G   7      38.507   4.269  17.535  1.00 71.75 LIG 0.16  C 
ATOM     49  CB  ALA G   7      38.475   2.969  18.339  1.00 70.01 LIG 0.04  C 
BRANCH 48 50
ATOM     50  C   ALA G   7      37.299   4.332  16.573  1.00 69.94 LIG 0.22  C 
ATOM     51 O    ALA G   7      37.343   5.056  15.545  1.00 56.97 LIG-0.29  OA
ENDBRANCH 48 50
ENDBRANCH 46 48
ENDBRANCH 40 44
ENDBRANCH 29 37
ENDBRANCH 3 29
TORSDOF 18
ENDMDL
MODEL 21
USER: ADFR SOLUTION from run 6
USER: SCORE 15.478810 LL:  -5.470 LR: -10.937 RR:   0.000 FEB:  -5.567
USER: RMSD 11.267277
USER: SEED 993636
USER: STATUS no improvement in best in 8 clusters for 5 generations
USER: GENES 20
USER: genes 0 Translation |==|  0.51907 0.33447 0.62445
USER: genes 1 Rotation |==|  0.36972 0.15802 0.82227 0.61054
USER: genes 2 Torsion [N]-C--CA-[N] |==|  0.86960
USER: genes 3 Torsion [C]-CA--CB-[CG] |==|  0.49229
USER: genes 4 Torsion [CA]-CB--CG-[CD1] |==|  0.54754
USER: genes 5 Torsion [C]-CA--N-[C] |==|  0.67222
USER: genes 6 Torsion [N]-C--CA-[N] |==|  0.93489
USER: genes 7 Torsion [C]-CA--CB-[CG1] |==|  0.43876
USER: genes 8 Torsion [CA]-CB--CG1-[CD1] |==|  0.48681
USER: genes 9 Torsion [C]-CA--N-[C] |==|  0.69640
USER: genes 10 Torsion [N]-C--CA-[N] |==|  0.44646
USER: genes 11 Torsion [C]-CA--CB-[CG] |==|  0.49094
USER: genes 12 Torsion [CA]-CB--CG-[OD1] |==|  0.64798
USER: genes 13 Torsion [C]-N--CA-[CB] |==|  0.87133
USER: genes 14 Torsion [N]-CA--CB-[CG] |==|  0.48572
USER: genes 15 Torsion [CA]-CB--CG-[CD1] |==|  0.75196
USER: genes 16 Torsion [N]-CA--C-[N] |==|  0.34157
USER: genes 17 Torsion [N]-CA--C-[O] |==|  0.19845
USER: genes 18 Torsion [C]-N--CA-[C] |==|  0.17295
USER: genes 19 Torsion [N]-CA--C-[O] |==|  0.30669
ROOT
ATOM      1  C   LEU G   4      40.274   1.588  24.739  1.00 61.38 LIG 0.24  C 
ATOM      2 O    LEU G   4      41.316   2.242  24.852  1.00 52.06 LIG-0.27  OA
ATOM      3  N   PHE G   5      39.210   1.719  25.513  1.00 60.80 LIG-0.35  N 
ATOM      4 H    PHE G   5      38.486   1.271  25.395  1.00 60.80 LIG 0.16  HD
ENDROOT
BRANCH 1 5
ATOM      5  CA  LEU G   4      40.132   0.519  23.696  1.00 58.56 LIG 0.18  C 
BRANCH 5 6
ATOM      6  CB  LEU G   4      39.210   1.055  22.605  1.00 61.47 LIG 0.04  C 
BRANCH 6 7
ATOM      7  CG  LEU G   4      39.018   0.113  21.437  1.00 62.80 LIG-0.02  C 
ATOM      8  CD1 LEU G   4      38.459   0.930  20.292  1.00 63.22 LIG 0.01  C 
ATOM      9  CD2 LEU G   4      40.365  -0.526  21.100  1.00 64.86 LIG 0.01  C 
ENDBRANCH 6 7
ENDBRANCH 5 6
BRANCH 5 10
ATOM     10  N   LEU G   4      39.607  -0.679  24.322  1.00 59.02 LIG-0.35  N 
ATOM     11 H    LEU G   4      38.826  -0.594  24.671  1.00 59.02 LIG 0.16  HD
ATOM     12  C   ILE G   3      40.320  -1.806  24.331  1.00 70.10 LIG 0.24  C 
ATOM     13 O    ILE G   3      41.345  -1.953  23.629  1.00 64.55 LIG-0.27  OA
BRANCH 12 14
ATOM     14  CA  ILE G   3      39.809  -2.936  25.265  1.00 67.83 LIG 0.18  C 
BRANCH 14 15
ATOM     15  CB  ILE G   3      39.002  -4.004  24.461  1.00 66.94 LIG 0.01  C 
ATOM     16  CG2 ILE G   3      39.593  -4.179  23.061  1.00 67.41 LIG 0.01  C 
BRANCH 15 17
ATOM     17  CG1 ILE G   3      38.947  -5.373  25.193  1.00 59.79 LIG 0.00  C 
ATOM     18  CD1 ILE G   3      38.084  -6.399  24.506  1.00 60.74 LIG 0.01  C 
ENDBRANCH 15 17
ENDBRANCH 14 15
BRANCH 14 19
ATOM     19  N   ILE G   3      38.998  -2.367  26.330  1.00 79.60 LIG-0.34  N 
ATOM     20 H    ILE G   3      38.238  -2.069  26.063  1.00 79.60 LIG 0.16  HD
ATOM     21  C   ASP G   2      39.395  -2.314  27.605  1.00 93.07 LIG 0.26  C 
ATOM     22 O    ASP G   2      40.441  -2.823  28.009  1.00 81.24 LIG-0.27  OA
BRANCH 21 23
ATOM     23  CA  ASP G   2      38.491  -1.558  28.588  1.00 93.30 LIG 0.41  C 
ATOM     24  N   ASP G   2      38.829  -1.996  29.972  1.00 94.60 LIG 0.61  N 
BRANCH 23 25
ATOM     25  CB  ASP G   2      38.644  -0.034  28.463  1.00 96.36 LIG 0.16  C 
BRANCH 25 26
ATOM     26  CG  ASP G   2      37.700   0.721  29.372  1.00103.24 LIG 0.17  C 
ATOM     27 OD1  ASP G   2      36.959   1.597  28.884  1.00112.85 LIG-0.65  OA
ATOM     28 OD2  ASP G   2      37.689   0.439  30.580  1.00105.87 LIG-0.65  OA
ENDBRANCH 25 26
ENDBRANCH 23 25
ENDBRANCH 21 23
ENDBRANCH 14 19
ENDBRANCH 12 14
ENDBRANCH 5 10
ENDBRANCH 1 5
BRANCH 3 29
ATOM     29  CA  PHE G   5      39.153   2.620  26.629  1.00 70.05 LIG 0.18  C 
BRANCH 29 30
ATOM     30  CB  PHE G   5      40.428   2.504  27.489  1.00 73.20 LIG 0.07  C 
BRANCH 30 31
ATOM     31  CG  PHE G   5      40.478   3.525  28.615  1.00 79.36 LIG-0.06  A 
ATOM     32  CD1 PHE G   5      41.060   4.798  28.396  1.00 85.64 LIG 0.01  A 
ATOM     33  CE1 PHE G   5      41.104   5.753  29.404  1.00 88.71 LIG 0.00  A 
ATOM     34  CZ  PHE G   5      40.555   5.451  30.653  1.00 96.11 LIG 0.00  A 
ATOM     35  CE2 PHE G   5      39.960   4.200  30.883  1.00 91.53 LIG 0.00  A 
ATOM     36  CD2 PHE G   5      39.920   3.246  29.871  1.00 81.01 LIG 0.01  A 
ENDBRANCH 30 31
ENDBRANCH 29 30
BRANCH 29 37
ATOM     37  C   PHE G   5      38.927   4.005  26.034  1.00 74.26 LIG 0.24  C 
ATOM     38  N   PRO G   6      37.836   4.682  26.458  1.00 79.01 LIG-0.34  N 
ATOM     39  CD  PRO G   6      36.782   4.109  27.339  1.00 76.17 LIG 0.13  C 
ATOM     40  CA  PRO G   6      37.411   5.946  25.837  1.00 78.34 LIG 0.18  C 
ATOM     41  CG  PRO G   6      35.856   5.253  27.561  1.00 78.03 LIG 0.02  C 
ATOM     42  CB  PRO G   6      35.945   6.056  26.290  1.00 82.73 LIG 0.04  C 
ATOM     43 O    PHE G   5      39.673   4.417  25.136  1.00 61.78 LIG-0.27  OA
BRANCH 40 44
ATOM     44  C   PRO G   6      38.192   7.213  26.255  1.00 77.34 LIG 0.24  C 
ATOM     45 O    PRO G   6      39.337   7.358  25.864  1.00 92.50 LIG-0.27  OA
ATOM     46  N   ALA G   7      37.574   8.109  27.040  1.00 74.20 LIG-0.35  N 
ATOM     47 H    ALA G   7      36.718   8.170  27.103  1.00 74.20 LIG 0.16  HD
BRANCH 46 48
ATOM     48  CA  ALA G   7      38.313   9.088  27.880  1.00 71.75 LIG 0.16  C 
ATOM     49  CB  ALA G   7      39.217   8.363  28.876  1.00 70.01 LIG 0.04  C 
BRANCH 48 50
ATOM     50  C   ALA G   7      39.150  10.029  26.985  1.00 69.94 LIG 0.22  C 
ATOM     51 O    ALA G   7      38.834  11.240  26.865  1.00 56.97 LIG-0.29  OA
ENDBRANCH 48 50
ENDBRANCH 46 48
ENDBRANCH 40 44
ENDBRANCH 29 37
ENDBRANCH 3 29
TORSDOF 18
ENDMDL
MODEL 22
USER: ADFR SOLUTION from run 200
USER: SCORE 15.217995 LL:  -5.214 LR: -10.919 RR:   0.000 FEB:  -5.549
USER: RMSD 6.568682
USER: SEED 199
USER: STATUS no improvement in best in 8 clusters for 5 generations
USER: GENES 20
USER: genes 0 Translation |==|  0.48247 0.48256 0.63837
USER: genes 1 Rotation |==|  0.69310 0.05146 0.54349 0.59814
USER: genes 2 Torsion [N]-C--CA-[N] |==|  0.86813
USER: genes 3 Torsion [C]-CA--CB-[CG] |==|  0.28929
USER: genes 4 Torsion [CA]-CB--CG-[CD1] |==|  0.59413
USER: genes 5 Torsion [C]-CA--N-[C] |==|  0.83742
USER: genes 6 Torsion [N]-C--CA-[N] |==|  0.13330
USER: genes 7 Torsion [C]-CA--CB-[CG1] |==|  0.54487
USER: genes 8 Torsion [CA]-CB--CG1-[CD1] |==|  0.73377
USER: genes 9 Torsion [C]-CA--N-[C] |==|  0.65391
USER: genes 10 Torsion [N]-C--CA-[N] |==|  0.96566
USER: genes 11 Torsion [C]-CA--CB-[CG] |==|  0.59976
USER: genes 12 Torsion [CA]-CB--CG-[OD1] |==|  0.70877
USER: genes 13 Torsion [C]-N--CA-[CB] |==|  0.13423
USER: genes 14 Torsion [N]-CA--CB-[CG] |==|  0.17949
USER: genes 15 Torsion [CA]-CB--CG-[CD1] |==|  0.31598
USER: genes 16 Torsion [N]-CA--C-[N] |==|  0.17750
USER: genes 17 Torsion [N]-CA--C-[O] |==|  0.80963
USER: genes 18 Torsion [C]-N--CA-[C] |==|  0.79902
USER: genes 19 Torsion [N]-CA--C-[O] |==|  0.12589
ROOT
ATOM      1  C   LEU G   4      39.670   5.697  24.969  1.00 61.38 LIG 0.24  C 
ATOM      2 O    LEU G   4      40.255   6.300  25.875  1.00 52.06 LIG-0.27  OA
ATOM      3  N   PHE G   5      39.588   4.382  24.864  1.00 60.80 LIG-0.35  N 
ATOM      4 H    PHE G   5      39.149   3.988  24.239  1.00 60.80 LIG 0.16  HD
ENDROOT
BRANCH 1 5
ATOM      5  CA  LEU G   4      39.005   6.434  23.844  1.00 58.56 LIG 0.18  C 
BRANCH 5 6
ATOM      6  CB  LEU G   4      37.497   6.342  24.057  1.00 61.47 LIG 0.04  C 
BRANCH 6 7
ATOM      7  CG  LEU G   4      36.866   7.613  24.582  1.00 62.80 LIG-0.02  C 
ATOM      8  CD1 LEU G   4      35.726   7.203  25.489  1.00 63.22 LIG 0.01  C 
ATOM      9  CD2 LEU G   4      37.937   8.421  25.315  1.00 64.86 LIG 0.01  C 
ENDBRANCH 6 7
ENDBRANCH 5 6
BRANCH 5 10
ATOM     10  N   LEU G   4      39.422   5.844  22.587  1.00 59.02 LIG-0.35  N 
ATOM     11 H    LEU G   4      38.783   5.542  22.098  1.00 59.02 LIG 0.16  HD
ATOM     12  C   ILE G   3      40.714   5.795  22.258  1.00 70.10 LIG 0.24  C 
ATOM     13 O    ILE G   3      41.587   6.435  22.884  1.00 64.55 LIG-0.27  OA
BRANCH 12 14
ATOM     14  CA  ILE G   3      41.081   4.897  21.046  1.00 67.83 LIG 0.18  C 
BRANCH 14 15
ATOM     15  CB  ILE G   3      42.571   5.102  20.628  1.00 66.94 LIG 0.01  C 
ATOM     16  CG2 ILE G   3      43.507   4.458  21.651  1.00 67.41 LIG 0.01  C 
BRANCH 15 17
ATOM     17  CG1 ILE G   3      42.865   4.545  19.207  1.00 59.79 LIG 0.00  C 
ATOM     18  CD1 ILE G   3      43.434   3.151  19.204  1.00 60.74 LIG 0.01  C 
ENDBRANCH 15 17
ENDBRANCH 14 15
BRANCH 14 19
ATOM     19  N   ILE G   3      40.186   5.177  19.934  1.00 79.60 LIG-0.34  N 
ATOM     20 H    ILE G   3      40.171   6.005  19.704  1.00 79.60 LIG 0.16  HD
ATOM     21  C   ASP G   2      39.456   4.239  19.325  1.00 93.07 LIG 0.26  C 
ATOM     22 O    ASP G   2      39.542   3.038  19.588  1.00 81.24 LIG-0.27  OA
BRANCH 21 23
ATOM     23  CA  ASP G   2      38.454   4.711  18.263  1.00 93.30 LIG 0.41  C 
ATOM     24  N   ASP G   2      38.320   6.192  18.368  1.00 94.60 LIG 0.61  N 
BRANCH 23 25
ATOM     25  CB  ASP G   2      38.886   4.317  16.843  1.00 96.36 LIG 0.16  C 
BRANCH 25 26
ATOM     26  CG  ASP G   2      38.531   5.369  15.815  1.00103.24 LIG 0.17  C 
ATOM     27 OD1  ASP G   2      37.569   5.167  15.048  1.00112.85 LIG-0.65  OA
ATOM     28 OD2  ASP G   2      39.209   6.407  15.772  1.00105.87 LIG-0.65  OA
ENDBRANCH 25 26
ENDBRANCH 23 25
ENDBRANCH 21 23
ENDBRANCH 14 19
ENDBRANCH 12 14
ENDBRANCH 5 10
ENDBRANCH 1 5
BRANCH 3 29
ATOM     29  CA  PHE G   5      40.222   3.477  25.781  1.00 70.05 LIG 0.18  C 
BRANCH 29 30
ATOM     30  CB  PHE G   5      39.927   3.885  27.239  1.00 73.20 LIG 0.07  C 
BRANCH 30 31
ATOM     31  CG  PHE G   5      38.452   3.776  27.597  1.00 79.36 LIG-0.06  A 
ATOM     32  CD1 PHE G   5      38.020   2.820  28.550  1.00 85.64 LIG 0.01  A 
ATOM     33  CE1 PHE G   5      36.682   2.711  28.905  1.00 88.71 LIG 0.00  A 
ATOM     34  CZ  PHE G   5      35.748   3.567  28.313  1.00 96.11 LIG 0.00  A 
ATOM     35  CE2 PHE G   5      36.160   4.531  27.379  1.00 91.53 LIG 0.00  A 
ATOM     36  CD2 PHE G   5      37.502   4.635  27.026  1.00 81.01 LIG 0.01  A 
ENDBRANCH 30 31
ENDBRANCH 29 30
BRANCH 29 37
ATOM     37  C   PHE G   5      39.719   2.087  25.408  1.00 74.26 LIG 0.24  C 
ATOM     38  N   PRO G   6      40.053   1.625  24.182  1.00 79.01 LIG-0.34  N 
ATOM     39  CD  PRO G   6      40.741   2.433  23.139  1.00 76.17 LIG 0.13  C 
ATOM     40  CA  PRO G   6      39.490   0.381  23.637  1.00 78.34 LIG 0.18  C 
ATOM     41  CG  PRO G   6      40.935   1.466  22.024  1.00 78.03 LIG 0.02  C 
ATOM     42  CB  PRO G   6      39.757   0.533  22.129  1.00 82.73 LIG 0.04  C 
ATOM     43 O    PHE G   5      38.962   1.482  26.177  1.00 61.78 LIG-0.27  OA
BRANCH 40 44
ATOM     44  C   PRO G   6      40.107  -0.938  24.154  1.00 77.34 LIG 0.24  C 
ATOM     45 O    PRO G   6      41.252  -1.218  23.841  1.00 92.50 LIG-0.27  OA
ATOM     46  N   ALA G   7      39.353  -1.731  24.930  1.00 74.20 LIG-0.35  N 
ATOM     47 H    ALA G   7      38.674  -1.448  25.375  1.00 74.20 LIG 0.16  HD
BRANCH 46 48
ATOM     48  CA  ALA G   7      39.620  -3.185  25.097  1.00 71.75 LIG 0.16  C 
ATOM     49  CB  ALA G   7      38.837  -3.738  26.288  1.00 70.01 LIG 0.04  C 
BRANCH 48 50
ATOM     50  C   ALA G   7      39.239  -3.945  23.807  1.00 69.94 LIG 0.22  C 
ATOM     51 O    ALA G   7      39.584  -3.501  22.682  1.00 56.97 LIG-0.29  OA
ENDBRANCH 48 50
ENDBRANCH 46 48
ENDBRANCH 40 44
ENDBRANCH 29 37
ENDBRANCH 3 29
TORSDOF 18
ENDMDL
MODEL 23
USER: ADFR SOLUTION from run 166
USER: SCORE 15.499415 LL:  -5.330 LR: -10.914 RR:   0.000 FEB:  -5.544
USER: RMSD 10.756624
USER: SEED 165
USER: STATUS no improvement in best in 37 clusters for 5 generations
USER: GENES 20
USER: genes 0 Translation |==|  0.43648 0.67316 0.44126
USER: genes 1 Rotation |==|  0.52175 0.28970 0.94274 0.59636
USER: genes 2 Torsion [N]-C--CA-[N] |==|  0.98902
USER: genes 3 Torsion [C]-CA--CB-[CG] |==|  0.31649
USER: genes 4 Torsion [CA]-CB--CG-[CD1] |==|  0.28724
USER: genes 5 Torsion [C]-CA--N-[C] |==|  0.64595
USER: genes 6 Torsion [N]-C--CA-[N] |==|  0.83573
USER: genes 7 Torsion [C]-CA--CB-[CG1] |==|  0.75271
USER: genes 8 Torsion [CA]-CB--CG1-[CD1] |==|  0.67955
USER: genes 9 Torsion [C]-CA--N-[C] |==|  0.68909
USER: genes 10 Torsion [N]-C--CA-[N] |==|  0.94514
USER: genes 11 Torsion [C]-CA--CB-[CG] |==|  0.60146
USER: genes 12 Torsion [CA]-CB--CG-[OD1] |==|  0.92333
USER: genes 13 Torsion [C]-N--CA-[CB] |==|  0.84896
USER: genes 14 Torsion [N]-CA--CB-[CG] |==|  0.82590
USER: genes 15 Torsion [CA]-CB--CG-[CD1] |==|  0.72050
USER: genes 16 Torsion [N]-CA--C-[N] |==|  0.36111
USER: genes 17 Torsion [N]-CA--C-[O] |==|  0.57963
USER: genes 18 Torsion [C]-N--CA-[C] |==|  0.77862
USER: genes 19 Torsion [N]-CA--C-[O] |==|  0.95825
ROOT
ATOM      1  C   LEU G   4      38.911  10.986  21.717  1.00 61.38 LIG 0.24  C 
ATOM      2 O    LEU G   4      39.370  11.774  20.882  1.00 52.06 LIG-0.27  OA
ATOM      3  N   PHE G   5      38.380  11.336  22.875  1.00 60.80 LIG-0.35  N 
ATOM      4 H    PHE G   5      38.041  10.770  23.426  1.00 60.80 LIG 0.16  HD
ENDROOT
BRANCH 1 5
ATOM      5  CA  LEU G   4      38.951   9.503  21.496  1.00 58.56 LIG 0.18  C 
BRANCH 5 6
ATOM      6  CB  LEU G   4      38.097   9.194  20.270  1.00 61.47 LIG 0.04  C 
BRANCH 6 7
ATOM      7  CG  LEU G   4      38.878   8.661  19.088  1.00 62.80 LIG-0.02  C 
ATOM      8  CD1 LEU G   4      38.632   7.168  19.028  1.00 63.22 LIG 0.01  C 
ATOM      9  CD2 LEU G   4      38.407   9.384  17.827  1.00 64.86 LIG 0.01  C 
ENDBRANCH 6 7
ENDBRANCH 5 6
BRANCH 5 10
ATOM     10  N   LEU G   4      38.465   8.839  22.689  1.00 59.02 LIG-0.35  N 
ATOM     11 H    LEU G   4      37.699   9.111  22.970  1.00 59.02 LIG 0.16  HD
ATOM     12  C   ILE G   3      39.187   7.881  23.273  1.00 70.10 LIG 0.24  C 
ATOM     13 O    ILE G   3      40.180   7.362  22.716  1.00 64.55 LIG-0.27  OA
BRANCH 12 14
ATOM     14  CA  ILE G   3      38.727   7.439  24.688  1.00 67.83 LIG 0.18  C 
BRANCH 14 15
ATOM     15  CB  ILE G   3      37.307   6.793  24.639  1.00 66.94 LIG 0.01  C 
ATOM     16  CG2 ILE G   3      37.177   5.705  25.705  1.00 67.41 LIG 0.01  C 
BRANCH 15 17
ATOM     17  CG1 ILE G   3      36.176   7.846  24.806  1.00 59.79 LIG 0.00  C 
ATOM     18  CD1 ILE G   3      35.359   7.669  26.059  1.00 60.74 LIG 0.01  C 
ENDBRANCH 15 17
ENDBRANCH 14 15
BRANCH 14 19
ATOM     19  N   ILE G   3      38.748   8.578  25.592  1.00 79.60 LIG-0.34  N 
ATOM     20 H    ILE G   3      38.155   9.173  25.411  1.00 79.60 LIG 0.16  HD
ATOM     21  C   ASP G   2      39.607   8.691  26.610  1.00 93.07 LIG 0.26  C 
ATOM     22 O    ASP G   2      40.395   7.800  26.932  1.00 81.24 LIG-0.27  OA
BRANCH 21 23
ATOM     23  CA  ASP G   2      39.600  10.013  27.387  1.00 93.30 LIG 0.41  C 
ATOM     24  N   ASP G   2      38.964  11.058  26.535  1.00 94.60 LIG 0.61  N 
BRANCH 23 25
ATOM     25  CB  ASP G   2      38.855   9.896  28.726  1.00 96.36 LIG 0.16  C 
BRANCH 25 26
ATOM     26  CG  ASP G   2      38.081  11.149  29.072  1.00103.24 LIG 0.17  C 
ATOM     27 OD1  ASP G   2      38.476  12.247  28.632  1.00112.85 LIG-0.65  OA
ATOM     28 OD2  ASP G   2      37.069  11.042  29.781  1.00105.87 LIG-0.65  OA
ENDBRANCH 25 26
ENDBRANCH 23 25
ENDBRANCH 21 23
ENDBRANCH 14 19
ENDBRANCH 12 14
ENDBRANCH 5 10
ENDBRANCH 1 5
BRANCH 3 29
ATOM     29  CA  PHE G   5      38.314  12.694  23.334  1.00 70.05 LIG 0.18  C 
BRANCH 29 30
ATOM     30  CB  PHE G   5      39.713  13.343  23.320  1.00 73.20 LIG 0.07  C 
BRANCH 30 31
ATOM     31  CG  PHE G   5      40.693  12.657  24.260  1.00 79.36 LIG-0.06  A 
ATOM     32  CD1 PHE G   5      40.978  13.224  25.528  1.00 85.64 LIG 0.01  A 
ATOM     33  CE1 PHE G   5      41.857  12.611  26.410  1.00 88.71 LIG 0.00  A 
ATOM     34  CZ  PHE G   5      42.463  11.407  26.040  1.00 96.11 LIG 0.00  A 
ATOM     35  CE2 PHE G   5      42.180  10.822  24.795  1.00 91.53 LIG 0.00  A 
ATOM     36  CD2 PHE G   5      41.301  11.442  23.914  1.00 81.01 LIG 0.01  A 
ENDBRANCH 30 31
ENDBRANCH 29 30
BRANCH 29 37
ATOM     37  C   PHE G   5      37.296  13.388  22.437  1.00 74.26 LIG 0.24  C 
ATOM     38  N   PRO G   6      36.322  14.097  23.051  1.00 79.01 LIG-0.34  N 
ATOM     39  CD  PRO G   6      36.100  14.119  24.522  1.00 76.17 LIG 0.13  C 
ATOM     40  CA  PRO G   6      35.185  14.666  22.311  1.00 78.34 LIG 0.18  C 
ATOM     41  CG  PRO G   6      34.975  15.079  24.689  1.00 78.03 LIG 0.02  C 
ATOM     42  CB  PRO G   6      34.162  14.923  23.431  1.00 82.73 LIG 0.04  C 
ATOM     43 O    PHE G   5      37.333  13.208  21.213  1.00 61.78 LIG-0.27  OA
BRANCH 40 44
ATOM     44  C   PRO G   6      35.457  15.973  21.532  1.00 77.34 LIG 0.24  C 
ATOM     45 O    PRO G   6      34.541  16.757  21.354  1.00 92.50 LIG-0.27  OA
ATOM     46  N   ALA G   7      36.699  16.193  21.076  1.00 74.20 LIG-0.35  N 
ATOM     47 H    ALA G   7      37.397  15.813  21.404  1.00 74.20 LIG 0.16  HD
BRANCH 46 48
ATOM     48  CA  ALA G   7      36.992  17.121  19.950  1.00 71.75 LIG 0.16  C 
ATOM     49  CB  ALA G   7      38.450  17.577  19.999  1.00 70.01 LIG 0.04  C 
BRANCH 48 50
ATOM     50  C   ALA G   7      36.693  16.428  18.601  1.00 69.94 LIG 0.22  C 
ATOM     51 O    ALA G   7      36.542  15.181  18.548  1.00 56.97 LIG-0.29  OA
ENDBRANCH 48 50
ENDBRANCH 46 48
ENDBRANCH 40 44
ENDBRANCH 29 37
ENDBRANCH 3 29
TORSDOF 18
ENDMDL
MODEL 24
USER: ADFR SOLUTION from run 158
USER: SCORE 14.387195 LL:  -5.032 LR: -10.901 RR:   0.000 FEB:  -5.532
USER: RMSD 5.318907
USER: SEED 157
USER: STATUS no improvement in best in 22 clusters for 5 generations
USER: GENES 20
USER: genes 0 Translation |==|  0.45630 0.51728 0.52063
USER: genes 1 Rotation |==|  0.61561 0.09828 0.73138 0.64736
USER: genes 2 Torsion [N]-C--CA-[N] |==|  0.38023
USER: genes 3 Torsion [C]-CA--CB-[CG] |==|  0.32148
USER: genes 4 Torsion [CA]-CB--CG-[CD1] |==|  0.23797
USER: genes 5 Torsion [C]-CA--N-[C] |==|  0.22774
USER: genes 6 Torsion [N]-C--CA-[N] |==|  0.37485
USER: genes 7 Torsion [C]-CA--CB-[CG1] |==|  0.07200
USER: genes 8 Torsion [CA]-CB--CG1-[CD1] |==|  0.65997
USER: genes 9 Torsion [C]-CA--N-[C] |==|  0.83770
USER: genes 10 Torsion [N]-C--CA-[N] |==|  0.87290
USER: genes 11 Torsion [C]-CA--CB-[CG] |==|  0.82809
USER: genes 12 Torsion [CA]-CB--CG-[OD1] |==|  0.92501
USER: genes 13 Torsion [C]-N--CA-[CB] |==|  0.15912
USER: genes 14 Torsion [N]-CA--CB-[CG] |==|  0.14226
USER: genes 15 Torsion [CA]-CB--CG-[CD1] |==|  0.26318
USER: genes 16 Torsion [N]-CA--C-[N] |==|  0.18838
USER: genes 17 Torsion [N]-CA--C-[O] |==|  0.66453
USER: genes 18 Torsion [C]-N--CA-[C] |==|  0.81542
USER: genes 19 Torsion [N]-CA--C-[O] |==|  0.98720
ROOT
ATOM      1  C   LEU G   4      39.238   6.660  23.026  1.00 61.38 LIG 0.24  C 
ATOM      2 O    LEU G   4      39.829   7.725  23.240  1.00 52.06 LIG-0.27  OA
ATOM      3  N   PHE G   5      39.017   5.722  23.930  1.00 60.80 LIG-0.35  N 
ATOM      4 H    PHE G   5      38.577   5.003  23.763  1.00 60.80 LIG 0.16  HD
ENDROOT
BRANCH 1 5
ATOM      5  CA  LEU G   4      38.732   6.310  21.658  1.00 58.56 LIG 0.18  C 
BRANCH 5 6
ATOM      6  CB  LEU G   4      39.925   5.850  20.826  1.00 61.47 LIG 0.04  C 
BRANCH 6 7
ATOM      7  CG  LEU G   4      39.855   4.403  20.390  1.00 62.80 LIG-0.02  C 
ATOM      8  CD1 LEU G   4      39.052   4.362  19.108  1.00 63.22 LIG 0.01  C 
ATOM      9  CD2 LEU G   4      41.280   3.880  20.206  1.00 64.86 LIG 0.01  C 
ENDBRANCH 6 7
ENDBRANCH 5 6
BRANCH 5 10
ATOM     10  N   LEU G   4      38.078   7.473  21.089  1.00 59.02 LIG-0.35  N 
ATOM     11 H    LEU G   4      37.221   7.479  21.163  1.00 59.02 LIG 0.16  HD
ATOM     12  C   ILE G   3      38.794   8.434  20.505  1.00 70.10 LIG 0.24  C 
ATOM     13 O    ILE G   3      40.039   8.497  20.612  1.00 64.55 LIG-0.27  OA
BRANCH 12 14
ATOM     14  CA  ILE G   3      37.998   9.480  19.680  1.00 67.83 LIG 0.18  C 
BRANCH 14 15
ATOM     15  CB  ILE G   3      38.108   9.189  18.150  1.00 66.94 LIG 0.01  C 
ATOM     16  CG2 ILE G   3      39.194  10.059  17.517  1.00 67.41 LIG 0.01  C 
BRANCH 15 17
ATOM     17  CG1 ILE G   3      38.385   7.688  17.856  1.00 59.79 LIG 0.00  C 
ATOM     18  CD1 ILE G   3      39.640   7.444  17.060  1.00 60.74 LIG 0.01  C 
ENDBRANCH 15 17
ENDBRANCH 14 15
BRANCH 14 19
ATOM     19  N   ILE G   3      38.473  10.819  19.990  1.00 79.60 LIG-0.34  N 
ATOM     20 H    ILE G   3      38.763  11.249  19.304  1.00 79.60 LIG 0.16  HD
ATOM     21  C   ASP G   2      38.461  11.336  21.222  1.00 93.07 LIG 0.26  C 
ATOM     22 O    ASP G   2      37.962  10.762  22.191  1.00 81.24 LIG-0.27  OA
BRANCH 21 23
ATOM     23  CA  ASP G   2      39.126  12.705  21.412  1.00 93.30 LIG 0.41  C 
ATOM     24  N   ASP G   2      40.442  12.692  20.711  1.00 94.60 LIG 0.61  N 
BRANCH 23 25
ATOM     25  CB  ASP G   2      38.254  13.853  20.882  1.00 96.36 LIG 0.16  C 
BRANCH 25 26
ATOM     26  CG  ASP G   2      37.998  13.748  19.394  1.00103.24 LIG 0.17  C 
ATOM     27 OD1  ASP G   2      38.830  13.160  18.675  1.00112.85 LIG-0.65  OA
ATOM     28 OD2  ASP G   2      36.959  14.248  18.936  1.00105.87 LIG-0.65  OA
ENDBRANCH 25 26
ENDBRANCH 23 25
ENDBRANCH 21 23
ENDBRANCH 14 19
ENDBRANCH 12 14
ENDBRANCH 5 10
ENDBRANCH 1 5
BRANCH 3 29
ATOM     29  CA  PHE G   5      39.487   5.806  25.284  1.00 70.05 LIG 0.18  C 
BRANCH 29 30
ATOM     30  CB  PHE G   5      38.957   7.084  25.966  1.00 73.20 LIG 0.07  C 
BRANCH 30 31
ATOM     31  CG  PHE G   5      37.451   7.247  25.829  1.00 79.36 LIG-0.06  A 
ATOM     32  CD1 PHE G   5      36.589   6.789  26.856  1.00 85.64 LIG 0.01  A 
ATOM     33  CE1 PHE G   5      35.212   6.939  26.761  1.00 88.71 LIG 0.00  A 
ATOM     34  CZ  PHE G   5      34.671   7.562  25.632  1.00 96.11 LIG 0.00  A 
ATOM     35  CE2 PHE G   5      35.511   8.038  24.612  1.00 91.53 LIG 0.00  A 
ATOM     36  CD2 PHE G   5      36.890   7.882  24.711  1.00 81.01 LIG 0.01  A 
ENDBRANCH 30 31
ENDBRANCH 29 30
BRANCH 29 37
ATOM     37  C   PHE G   5      39.046   4.512  25.959  1.00 74.26 LIG 0.24  C 
ATOM     38  N   PRO G   6      39.637   3.371  25.536  1.00 79.01 LIG-0.34  N 
ATOM     39  CD  PRO G   6      40.562   3.284  24.375  1.00 76.17 LIG 0.13  C 
ATOM     40  CA  PRO G   6      39.179   2.045  25.980  1.00 78.34 LIG 0.18  C 
ATOM     41  CG  PRO G   6      40.979   1.855  24.368  1.00 78.03 LIG 0.02  C 
ATOM     42  CB  PRO G   6      39.784   1.117  24.912  1.00 82.73 LIG 0.04  C 
ATOM     43 O    PHE G   5      38.120   4.532  26.779  1.00 61.78 LIG-0.27  OA
BRANCH 40 44
ATOM     44  C   PRO G   6      39.631   1.597  27.388  1.00 77.34 LIG 0.24  C 
ATOM     45 O    PRO G   6      40.286   0.576  27.502  1.00 92.50 LIG-0.27  OA
ATOM     46  N   ALA G   7      39.280   2.355  28.438  1.00 74.20 LIG-0.35  N 
ATOM     47 H    ALA G   7      39.066   3.185  28.371  1.00 74.20 LIG 0.16  HD
BRANCH 46 48
ATOM     48  CA  ALA G   7      39.225   1.829  29.828  1.00 71.75 LIG 0.16  C 
ATOM     49  CB  ALA G   7      38.997   2.969  30.822  1.00 70.01 LIG 0.04  C 
BRANCH 48 50
ATOM     50  C   ALA G   7      38.098   0.778  29.953  1.00 69.94 LIG 0.22  C 
ATOM     51 O    ALA G   7      37.334   0.548  28.981  1.00 56.97 LIG-0.29  OA
ENDBRANCH 48 50
ENDBRANCH 46 48
ENDBRANCH 40 44
ENDBRANCH 29 37
ENDBRANCH 3 29
TORSDOF 18
ENDMDL
MODEL 25
USER: ADFR SOLUTION from run 93
USER: SCORE 15.627830 LL:  -5.184 LR: -10.826 RR:   0.000 FEB:  -5.456
USER: RMSD 7.281752
USER: SEED 92
USER: STATUS searching
USER: GENES 20
USER: genes 0 Translation |==|  0.44931 0.61394 0.41841
USER: genes 1 Rotation |==|  0.52411 0.03261 0.52178 0.67461
USER: genes 2 Torsion [N]-C--CA-[N] |==|  0.36756
USER: genes 3 Torsion [C]-CA--CB-[CG] |==|  0.33219
USER: genes 4 Torsion [CA]-CB--CG-[CD1] |==|  0.83942
USER: genes 5 Torsion [C]-CA--N-[C] |==|  0.84783
USER: genes 6 Torsion [N]-C--CA-[N] |==|  0.29565
USER: genes 7 Torsion [C]-CA--CB-[CG1] |==|  0.08461
USER: genes 8 Torsion [CA]-CB--CG1-[CD1] |==|  0.53228
USER: genes 9 Torsion [C]-CA--N-[C] |==|  0.63370
USER: genes 10 Torsion [N]-C--CA-[N] |==|  0.51433
USER: genes 11 Torsion [C]-CA--CB-[CG] |==|  0.84824
USER: genes 12 Torsion [CA]-CB--CG-[OD1] |==|  0.74927
USER: genes 13 Torsion [C]-N--CA-[CB] |==|  0.85755
USER: genes 14 Torsion [N]-CA--CB-[CG] |==|  0.77369
USER: genes 15 Torsion [CA]-CB--CG-[CD1] |==|  0.57508
USER: genes 16 Torsion [N]-CA--C-[N] |==|  0.37089
USER: genes 17 Torsion [N]-CA--C-[O] |==|  0.84459
USER: genes 18 Torsion [C]-N--CA-[C] |==|  0.60100
USER: genes 19 Torsion [N]-CA--C-[O] |==|  0.13515
ROOT
ATOM      1  C   LEU G   4      39.123   9.343  21.340  1.00 61.38 LIG 0.24  C 
ATOM      2 O    LEU G   4      40.175   9.485  21.973  1.00 52.06 LIG-0.27  OA
ATOM      3  N   PHE G   5      38.229   8.395  21.560  1.00 60.80 LIG-0.35  N 
ATOM      4 H    PHE G   5      37.490   8.335  21.124  1.00 60.80 LIG 0.16  HD
ENDROOT
BRANCH 1 5
ATOM      5  CA  LEU G   4      38.772  10.248  20.196  1.00 58.56 LIG 0.18  C 
BRANCH 5 6
ATOM      6  CB  LEU G   4      39.675   9.882  19.022  1.00 61.47 LIG 0.04  C 
BRANCH 6 7
ATOM      7  CG  LEU G   4      38.931   9.422  17.787  1.00 62.80 LIG-0.02  C 
ATOM      8  CD1 LEU G   4      38.094   8.227  18.191  1.00 63.22 LIG 0.01  C 
ATOM      9  CD2 LEU G   4      38.084  10.583  17.268  1.00 64.86 LIG 0.01  C 
ENDBRANCH 6 7
ENDBRANCH 5 6
BRANCH 5 10
ATOM     10  N   LEU G   4      38.945  11.624  20.618  1.00 59.02 LIG-0.35  N 
ATOM     11 H    LEU G   4      39.464  12.094  20.119  1.00 59.02 LIG 0.16  HD
ATOM     12  C   ILE G   3      38.324  12.081  21.706  1.00 70.10 LIG 0.24  C 
ATOM     13 O    ILE G   3      37.412  11.440  22.273  1.00 64.55 LIG-0.27  OA
BRANCH 12 14
ATOM     14  CA  ILE G   3      38.793  13.463  22.235  1.00 67.83 LIG 0.18  C 
BRANCH 14 15
ATOM     15  CB  ILE G   3      39.082  13.407  23.769  1.00 66.94 LIG 0.01  C 
ATOM     16  CG2 ILE G   3      37.841  13.816  24.563  1.00 67.41 LIG 0.01  C 
BRANCH 15 17
ATOM     17  CG1 ILE G   3      39.571  12.003  24.223  1.00 59.79 LIG 0.00  C 
ATOM     18  CD1 ILE G   3      39.596  11.822  25.718  1.00 60.74 LIG 0.01  C 
ENDBRANCH 15 17
ENDBRANCH 14 15
BRANCH 14 19
ATOM     19  N   ILE G   3      37.792  14.474  21.933  1.00 79.60 LIG-0.34  N 
ATOM     20 H    ILE G   3      36.992  14.241  22.144  1.00 79.60 LIG 0.16  HD
ATOM     21  C   ASP G   2      38.085  15.654  21.379  1.00 93.07 LIG 0.26  C 
ATOM     22 O    ASP G   2      39.237  16.031  21.160  1.00 81.24 LIG-0.27  OA
BRANCH 21 23
ATOM     23  CA  ASP G   2      36.907  16.556  20.990  1.00 93.30 LIG 0.41  C 
ATOM     24  N   ASP G   2      37.443  17.754  20.282  1.00 94.60 LIG 0.61  N 
BRANCH 23 25
ATOM     25  CB  ASP G   2      35.887  15.829  20.102  1.00 96.36 LIG 0.16  C 
BRANCH 25 26
ATOM     26  CG  ASP G   2      36.519  15.223  18.867  1.00103.24 LIG 0.17  C 
ATOM     27 OD1  ASP G   2      36.585  15.903  17.824  1.00112.85 LIG-0.65  OA
ATOM     28 OD2  ASP G   2      36.959  14.065  18.936  1.00105.87 LIG-0.65  OA
ENDBRANCH 25 26
ENDBRANCH 23 25
ENDBRANCH 21 23
ENDBRANCH 14 19
ENDBRANCH 12 14
ENDBRANCH 5 10
ENDBRANCH 1 5
BRANCH 3 29
ATOM     29  CA  PHE G   5      38.397   7.367  22.549  1.00 70.05 LIG 0.18  C 
BRANCH 29 30
ATOM     30  CB  PHE G   5      39.765   6.674  22.387  1.00 73.20 LIG 0.07  C 
BRANCH 30 31
ATOM     31  CG  PHE G   5      39.764   5.609  21.300  1.00 79.36 LIG-0.06  A 
ATOM     32  CD1 PHE G   5      40.666   4.518  21.372  1.00 85.64 LIG 0.01  A 
ATOM     33  CE1 PHE G   5      40.675   3.526  20.401  1.00 88.71 LIG 0.00  A 
ATOM     34  CZ  PHE G   5      39.770   3.604  19.339  1.00 96.11 LIG 0.00  A 
ATOM     35  CE2 PHE G   5      38.858   4.669  19.260  1.00 91.53 LIG 0.00  A 
ATOM     36  CD2 PHE G   5      38.855   5.662  20.234  1.00 81.01 LIG 0.01  A 
ENDBRANCH 30 31
ENDBRANCH 29 30
BRANCH 29 37
ATOM     37  C   PHE G   5      38.199   8.050  23.897  1.00 74.26 LIG 0.24  C 
ATOM     38  N   PRO G   6      37.396   7.425  24.786  1.00 79.01 LIG-0.34  N 
ATOM     39  CD  PRO G   6      36.588   6.213  24.482  1.00 76.17 LIG 0.13  C 
ATOM     40  CA  PRO G   6      36.986   8.060  26.049  1.00 78.34 LIG 0.18  C 
ATOM     41  CG  PRO G   6      35.944   5.889  25.785  1.00 78.03 LIG 0.02  C 
ATOM     42  CB  PRO G   6      35.757   7.227  26.451  1.00 82.73 LIG 0.04  C 
ATOM     43 O    PHE G   5      38.689   9.169  24.095  1.00 61.78 LIG-0.27  OA
BRANCH 40 44
ATOM     44  C   PRO G   6      38.028   8.054  27.191  1.00 77.34 LIG 0.24  C 
ATOM     45 O    PRO G   6      38.493   6.989  27.560  1.00 92.50 LIG-0.27  OA
ATOM     46  N   ALA G   7      38.379   9.228  27.736  1.00 74.20 LIG-0.35  N 
ATOM     47 H    ALA G   7      38.284   9.982  27.334  1.00 74.20 LIG 0.16  HD
BRANCH 46 48
ATOM     48  CA  ALA G   7      38.972   9.340  29.096  1.00 71.75 LIG 0.16  C 
ATOM     49  CB  ALA G   7      40.498   9.357  29.014  1.00 70.01 LIG 0.04  C 
BRANCH 48 50
ATOM     50  C   ALA G   7      38.459  10.620  29.793  1.00 69.94 LIG 0.22  C 
ATOM     51 O    ALA G   7      37.230  10.887  29.808  1.00 56.97 LIG-0.29  OA
ENDBRANCH 48 50
ENDBRANCH 46 48
ENDBRANCH 40 44
ENDBRANCH 29 37
ENDBRANCH 3 29
TORSDOF 18
ENDMDL
MODEL 26
USER: ADFR SOLUTION from run 37
USER: SCORE 15.317459 LL:  -5.279 LR: -10.824 RR:   0.000 FEB:  -5.454
USER: RMSD 5.431455
USER: SEED 36
USER: STATUS no improvement in best in 29 clusters for 5 generations
USER: GENES 20
USER: genes 0 Translation |==|  0.46254 0.50812 0.53677
USER: genes 1 Rotation |==|  0.36437 0.63442 0.52017 0.96166
USER: genes 2 Torsion [N]-C--CA-[N] |==|  0.38697
USER: genes 3 Torsion [C]-CA--CB-[CG] |==|  0.85278
USER: genes 4 Torsion [CA]-CB--CG-[CD1] |==|  0.36607
USER: genes 5 Torsion [C]-CA--N-[C] |==|  0.73706
USER: genes 6 Torsion [N]-C--CA-[N] |==|  0.37893
USER: genes 7 Torsion [C]-CA--CB-[CG1] |==|  0.48504
USER: genes 8 Torsion [CA]-CB--CG1-[CD1] |==|  0.27556
USER: genes 9 Torsion [C]-CA--N-[C] |==|  0.82188
USER: genes 10 Torsion [N]-C--CA-[N] |==|  0.94764
USER: genes 11 Torsion [C]-CA--CB-[CG] |==|  0.80810
USER: genes 12 Torsion [CA]-CB--CG-[OD1] |==|  0.98381
USER: genes 13 Torsion [C]-N--CA-[CB] |==|  0.83189
USER: genes 14 Torsion [N]-CA--CB-[CG] |==|  0.84427
USER: genes 15 Torsion [CA]-CB--CG-[CD1] |==|  0.45907
USER: genes 16 Torsion [N]-CA--C-[N] |==|  0.50455
USER: genes 17 Torsion [N]-CA--C-[O] |==|  0.72065
USER: genes 18 Torsion [C]-N--CA-[C] |==|  0.54573
USER: genes 19 Torsion [N]-CA--C-[O] |==|  0.34349
ROOT
ATOM      1  C   LEU G   4      39.341   6.406  23.293  1.00 61.38 LIG 0.24  C 
ATOM      2 O    LEU G   4      38.460   5.806  22.667  1.00 52.06 LIG-0.27  OA
ATOM      3  N   PHE G   5      40.519   5.901  23.615  1.00 60.80 LIG-0.35  N 
ATOM      4 H    PHE G   5      41.126   6.351  24.026  1.00 60.80 LIG 0.16  HD
ENDROOT
BRANCH 1 5
ATOM      5  CA  LEU G   4      39.127   7.804  23.794  1.00 58.56 LIG 0.18  C 
BRANCH 5 6
ATOM      6  CB  LEU G   4      38.306   7.715  25.077  1.00 61.47 LIG 0.04  C 
BRANCH 6 7
ATOM      7  CG  LEU G   4      37.025   6.921  24.940  1.00 62.80 LIG-0.02  C 
ATOM      8  CD1 LEU G   4      36.974   5.954  26.104  1.00 63.22 LIG 0.01  C 
ATOM      9  CD2 LEU G   4      35.847   7.895  24.934  1.00 64.86 LIG 0.01  C 
ENDBRANCH 6 7
ENDBRANCH 5 6
BRANCH 5 10
ATOM     10  N   LEU G   4      38.459   8.574  22.763  1.00 59.02 LIG-0.35  N 
ATOM     11 H    LEU G   4      37.602   8.506  22.758  1.00 59.02 LIG 0.16  HD
ATOM     12  C   ILE G   3      39.164   9.317  21.910  1.00 70.10 LIG 0.24  C 
ATOM     13 O    ILE G   3      40.378   9.565  22.086  1.00 64.55 LIG-0.27  OA
BRANCH 12 14
ATOM     14  CA  ILE G   3      38.395   9.866  20.678  1.00 67.83 LIG 0.18  C 
BRANCH 14 15
ATOM     15  CB  ILE G   3      38.686   9.006  19.408  1.00 66.94 LIG 0.01  C 
ATOM     16  CG2 ILE G   3      38.459   7.523  19.702  1.00 67.41 LIG 0.01  C 
BRANCH 15 17
ATOM     17  CG1 ILE G   3      37.828   9.448  18.190  1.00 59.79 LIG 0.00  C 
ATOM     18  CD1 ILE G   3      38.560  10.339  17.220  1.00 60.74 LIG 0.01  C 
ENDBRANCH 15 17
ENDBRANCH 14 15
BRANCH 14 19
ATOM     19  N   ILE G   3      38.750  11.259  20.455  1.00 79.60 LIG-0.34  N 
ATOM     20 H    ILE G   3      39.154  11.396  19.708  1.00 79.60 LIG 0.16  HD
ATOM     21  C   ASP G   2      38.475  12.235  21.325  1.00 93.07 LIG 0.26  C 
ATOM     22 O    ASP G   2      37.815  12.061  22.350  1.00 81.24 LIG-0.27  OA
BRANCH 21 23
ATOM     23  CA  ASP G   2      39.038  13.628  21.014  1.00 93.30 LIG 0.41  C 
ATOM     24  N   ASP G   2      40.151  13.479  20.034  1.00 94.60 LIG 0.61  N 
BRANCH 23 25
ATOM     25  CB  ASP G   2      37.965  14.576  20.457  1.00 96.36 LIG 0.16  C 
BRANCH 25 26
ATOM     26  CG  ASP G   2      37.507  14.185  19.069  1.00103.24 LIG 0.17  C 
ATOM     27 OD1  ASP G   2      38.086  13.250  18.480  1.00112.85 LIG-0.65  OA
ATOM     28 OD2  ASP G   2      36.561  14.806  18.561  1.00105.87 LIG-0.65  OA
ENDBRANCH 25 26
ENDBRANCH 23 25
ENDBRANCH 21 23
ENDBRANCH 14 19
ENDBRANCH 12 14
ENDBRANCH 5 10
ENDBRANCH 1 5
BRANCH 3 29
ATOM     29  CA  PHE G   5      40.908   4.553  23.312  1.00 70.05 LIG 0.18  C 
BRANCH 29 30
ATOM     30  CB  PHE G   5      39.960   3.546  23.995  1.00 73.20 LIG 0.07  C 
BRANCH 30 31
ATOM     31  CG  PHE G   5      39.875   3.741  25.501  1.00 79.36 LIG-0.06  A 
ATOM     32  CD1 PHE G   5      38.834   3.126  26.241  1.00 85.64 LIG 0.01  A 
ATOM     33  CE1 PHE G   5      38.743   3.277  27.618  1.00 88.71 LIG 0.00  A 
ATOM     34  CZ  PHE G   5      39.703   4.044  28.284  1.00 96.11 LIG 0.00  A 
ATOM     35  CE2 PHE G   5      40.751   4.647  27.570  1.00 91.53 LIG 0.00  A 
ATOM     36  CD2 PHE G   5      40.836   4.495  26.190  1.00 81.01 LIG 0.01  A 
ENDBRANCH 30 31
ENDBRANCH 29 30
BRANCH 29 37
ATOM     37  C   PHE G   5      40.929   4.457  21.791  1.00 74.26 LIG 0.24  C 
ATOM     38  N   PRO G   6      41.240   3.253  21.259  1.00 79.01 LIG-0.34  N 
ATOM     39  CD  PRO G   6      41.700   2.080  22.049  1.00 76.17 LIG 0.13  C 
ATOM     40  CA  PRO G   6      41.464   3.072  19.817  1.00 78.34 LIG 0.18  C 
ATOM     41  CG  PRO G   6      41.843   1.007  21.027  1.00 78.03 LIG 0.02  C 
ATOM     42  CB  PRO G   6      42.233   1.740  19.770  1.00 82.73 LIG 0.04  C 
ATOM     43 O    PHE G   5      40.761   5.476  21.110  1.00 61.78 LIG-0.27  OA
BRANCH 40 44
ATOM     44  C   PRO G   6      40.201   2.985  18.930  1.00 77.34 LIG 0.24  C 
ATOM     45 O    PRO G   6      39.812   1.891  18.561  1.00 92.50 LIG-0.27  OA
ATOM     46  N   ALA G   7      39.579   4.127  18.598  1.00 74.20 LIG-0.35  N 
ATOM     47 H    ALA G   7      39.661   4.857  19.046  1.00 74.20 LIG 0.16  HD
BRANCH 46 48
ATOM     48  CA  ALA G   7      38.684   4.242  17.416  1.00 71.75 LIG 0.16  C 
ATOM     49  CB  ALA G   7      37.345   3.556  17.691  1.00 70.01 LIG 0.04  C 
BRANCH 48 50
ATOM     50  C   ALA G   7      38.459   5.730  17.065  1.00 69.94 LIG 0.22  C 
ATOM     51 O    ALA G   7      38.732   6.159  15.915  1.00 56.97 LIG-0.29  OA
ENDBRANCH 48 50
ENDBRANCH 46 48
ENDBRANCH 40 44
ENDBRANCH 29 37
ENDBRANCH 3 29
TORSDOF 18
ENDMDL
MODEL 27
USER: ADFR SOLUTION from run 29
USER: SCORE 15.191332 LL:  -5.638 LR: -10.800 RR:   0.000 FEB:  -5.430
USER: RMSD 10.550626
USER: SEED 28
USER: STATUS no improvement in best in 20 clusters for 5 generations
USER: GENES 20
USER: genes 0 Translation |==|  0.44737 0.58120 0.54188
USER: genes 1 Rotation |==|  0.12202 0.44451 0.81792 0.55455
USER: genes 2 Torsion [N]-C--CA-[N] |==|  0.33712
USER: genes 3 Torsion [C]-CA--CB-[CG] |==|  0.43017
USER: genes 4 Torsion [CA]-CB--CG-[CD1] |==|  0.39016
USER: genes 5 Torsion [C]-CA--N-[C] |==|  0.78882
USER: genes 6 Torsion [N]-C--CA-[N] |==|  0.45986
USER: genes 7 Torsion [C]-CA--CB-[CG1] |==|  0.24164
USER: genes 8 Torsion [CA]-CB--CG1-[CD1] |==|  0.06133
USER: genes 9 Torsion [C]-CA--N-[C] |==|  0.65465
USER: genes 10 Torsion [N]-C--CA-[N] |==|  0.76704
USER: genes 11 Torsion [C]-CA--CB-[CG] |==|  0.67745
USER: genes 12 Torsion [CA]-CB--CG-[OD1] |==|  0.76933
USER: genes 13 Torsion [C]-N--CA-[CB] |==|  0.25552
USER: genes 14 Torsion [N]-CA--CB-[CG] |==|  0.16100
USER: genes 15 Torsion [CA]-CB--CG-[CD1] |==|  0.26659
USER: genes 16 Torsion [N]-CA--C-[N] |==|  0.41330
USER: genes 17 Torsion [N]-CA--C-[O] |==|  0.75142
USER: genes 18 Torsion [C]-N--CA-[C] |==|  0.22321
USER: genes 19 Torsion [N]-CA--C-[O] |==|  0.19870
ROOT
ATOM      1  C   LEU G   4      39.091   8.434  23.377  1.00 61.38 LIG 0.24  C 
ATOM      2 O    LEU G   4      40.184   8.304  23.938  1.00 52.06 LIG-0.27  OA
ATOM      3  N   PHE G   5      38.696   9.517  22.729  1.00 60.80 LIG-0.35  N 
ATOM      4 H    PHE G   5      37.941   9.571  22.322  1.00 60.80 LIG 0.16  HD
ENDROOT
BRANCH 1 5
ATOM      5  CA  LEU G   4      38.059   7.346  23.416  1.00 58.56 LIG 0.18  C 
BRANCH 5 6
ATOM      6  CB  LEU G   4      37.673   7.124  24.875  1.00 61.47 LIG 0.04  C 
BRANCH 6 7
ATOM      7  CG  LEU G   4      36.291   6.541  25.070  1.00 62.80 LIG-0.02  C 
ATOM      8  CD1 LEU G   4      36.386   5.535  26.197  1.00 63.22 LIG 0.01  C 
ATOM      9  CD2 LEU G   4      35.321   7.680  25.381  1.00 64.86 LIG 0.01  C 
ENDBRANCH 6 7
ENDBRANCH 5 6
BRANCH 5 10
ATOM     10  N   LEU G   4      38.614   6.153  22.804  1.00 59.02 LIG-0.35  N 
ATOM     11 H    LEU G   4      38.853   5.540  23.357  1.00 59.02 LIG 0.16  HD
ATOM     12  C   ILE G   3      38.725   6.062  21.479  1.00 70.10 LIG 0.24  C 
ATOM     13 O    ILE G   3      38.168   6.872  20.705  1.00 64.55 LIG-0.27  OA
BRANCH 12 14
ATOM     14  CA  ILE G   3      39.586   4.888  20.941  1.00 67.83 LIG 0.18  C 
BRANCH 14 15
ATOM     15  CB  ILE G   3      41.103   5.131  21.221  1.00 66.94 LIG 0.01  C 
ATOM     16  CG2 ILE G   3      41.442   6.615  21.076  1.00 67.41 LIG 0.01  C 
BRANCH 15 17
ATOM     17  CG1 ILE G   3      41.531   4.617  22.623  1.00 59.79 LIG 0.00  C 
ATOM     18  CD1 ILE G   3      40.616   3.566  23.193  1.00 60.74 LIG 0.01  C 
ENDBRANCH 15 17
ENDBRANCH 14 15
BRANCH 14 19
ATOM     19  N   ILE G   3      39.343   4.708  19.518  1.00 79.60 LIG-0.34  N 
ATOM     20 H    ILE G   3      39.479   5.418  19.053  1.00 79.60 LIG 0.16  HD
ATOM     21  C   ASP G   2      38.946   3.551  18.981  1.00 93.07 LIG 0.26  C 
ATOM     22 O    ASP G   2      38.839   2.507  19.628  1.00 81.24 LIG-0.27  OA
BRANCH 21 23
ATOM     23  CA  ASP G   2      38.594   3.556  17.488  1.00 93.30 LIG 0.41  C 
ATOM     24  N   ASP G   2      37.185   4.017  17.337  1.00 94.60 LIG 0.61  N 
BRANCH 23 25
ATOM     25  CB  ASP G   2      39.536   4.456  16.673  1.00 96.36 LIG 0.16  C 
BRANCH 25 26
ATOM     26  CG  ASP G   2      38.816   5.624  16.036  1.00103.24 LIG 0.17  C 
ATOM     27 OD1  ASP G   2      38.223   5.453  14.952  1.00112.85 LIG-0.65  OA
ATOM     28 OD2  ASP G   2      38.834   6.719  16.619  1.00105.87 LIG-0.65  OA
ENDBRANCH 25 26
ENDBRANCH 23 25
ENDBRANCH 21 23
ENDBRANCH 14 19
ENDBRANCH 12 14
ENDBRANCH 5 10
ENDBRANCH 1 5
BRANCH 3 29
ATOM     29  CA  PHE G   5      39.486  10.712  22.636  1.00 70.05 LIG 0.18  C 
BRANCH 29 30
ATOM     30  CB  PHE G   5      40.362  10.688  21.367  1.00 73.20 LIG 0.07  C 
BRANCH 30 31
ATOM     31  CG  PHE G   5      39.550  10.540  20.090  1.00 79.36 LIG-0.06  A 
ATOM     32  CD1 PHE G   5      39.189  11.687  19.340  1.00 85.64 LIG 0.01  A 
ATOM     33  CE1 PHE G   5      38.459  11.579  18.163  1.00 88.71 LIG 0.00  A 
ATOM     34  CZ  PHE G   5      38.084  10.311  17.709  1.00 96.11 LIG 0.00  A 
ATOM     35  CE2 PHE G   5      38.447   9.162  18.430  1.00 91.53 LIG 0.00  A 
ATOM     36  CD2 PHE G   5      39.175   9.277  19.610  1.00 81.01 LIG 0.01  A 
ENDBRANCH 30 31
ENDBRANCH 29 30
BRANCH 29 37
ATOM     37  C   PHE G   5      38.496  11.870  22.688  1.00 74.26 LIG 0.24  C 
ATOM     38  N   PRO G   6      38.930  13.019  23.253  1.00 79.01 LIG-0.34  N 
ATOM     39  CD  PRO G   6      40.237  13.173  23.947  1.00 76.17 LIG 0.13  C 
ATOM     40  CA  PRO G   6      38.025  14.147  23.521  1.00 78.34 LIG 0.18  C 
ATOM     41  CG  PRO G   6      40.263  14.614  24.323  1.00 78.03 LIG 0.02  C 
ATOM     42  CB  PRO G   6      38.817  14.964  24.557  1.00 82.73 LIG 0.04  C 
ATOM     43 O    PHE G   5      37.330  11.698  22.312  1.00 61.78 LIG-0.27  OA
BRANCH 40 44
ATOM     44  C   PRO G   6      37.659  15.038  22.312  1.00 77.34 LIG 0.24  C 
ATOM     45 O    PRO G   6      38.364  15.998  22.050  1.00 92.50 LIG-0.27  OA
ATOM     46  N   ALA G   7      36.572  14.719  21.594  1.00 74.20 LIG-0.35  N 
ATOM     47 H    ALA G   7      36.228  13.931  21.583  1.00 74.20 LIG 0.16  HD
BRANCH 46 48
ATOM     48  CA  ALA G   7      35.851  15.703  20.743  1.00 71.75 LIG 0.16  C 
ATOM     49  CB  ALA G   7      35.737  17.048  21.460  1.00 70.01 LIG 0.04  C 
BRANCH 48 50
ATOM     50  C   ALA G   7      36.588  15.877  19.395  1.00 69.94 LIG 0.22  C 
ATOM     51 O    ALA G   7      36.566  14.959  18.536  1.00 56.97 LIG-0.29  OA
ENDBRANCH 48 50
ENDBRANCH 46 48
ENDBRANCH 40 44
ENDBRANCH 29 37
ENDBRANCH 3 29
TORSDOF 18
ENDMDL
MODEL 28
USER: ADFR SOLUTION from run 162
USER: SCORE 14.077435 LL:  -5.060 LR: -10.794 RR:   0.000 FEB:  -5.424
USER: RMSD 4.171882
USER: SEED 161
USER: STATUS no improvement in best in 13 clusters for 5 generations
USER: GENES 20
USER: genes 0 Translation |==|  0.48857 0.50281 0.50208
USER: genes 1 Rotation |==|  0.63848 0.07996 0.61998 0.69998
USER: genes 2 Torsion [N]-C--CA-[N] |==|  0.39730
USER: genes 3 Torsion [C]-CA--CB-[CG] |==|  0.38879
USER: genes 4 Torsion [CA]-CB--CG-[CD1] |==|  0.30599
USER: genes 5 Torsion [C]-CA--N-[C] |==|  0.21524
USER: genes 6 Torsion [N]-C--CA-[N] |==|  0.31174
USER: genes 7 Torsion [C]-CA--CB-[CG1] |==|  0.50192
USER: genes 8 Torsion [CA]-CB--CG1-[CD1] |==|  0.46484
USER: genes 9 Torsion [C]-CA--N-[C] |==|  0.84247
USER: genes 10 Torsion [N]-C--CA-[N] |==|  0.24132
USER: genes 11 Torsion [C]-CA--CB-[CG] |==|  0.75812
USER: genes 12 Torsion [CA]-CB--CG-[OD1] |==|  0.83720
USER: genes 13 Torsion [C]-N--CA-[CB] |==|  0.17220
USER: genes 14 Torsion [N]-CA--CB-[CG] |==|  0.09033
USER: genes 15 Torsion [CA]-CB--CG-[CD1] |==|  0.18132
USER: genes 16 Torsion [N]-CA--C-[N] |==|  0.15909
USER: genes 17 Torsion [N]-CA--C-[O] |==|  0.89664
USER: genes 18 Torsion [C]-N--CA-[C] |==|  0.79970
USER: genes 19 Torsion [N]-CA--C-[O] |==|  0.94286
ROOT
ATOM      1  C   LEU G   4      39.770   6.259  22.720  1.00 61.38 LIG 0.24  C 
ATOM      2 O    LEU G   4      40.616   7.086  23.079  1.00 52.06 LIG-0.27  OA
ATOM      3  N   PHE G   5      39.583   5.077  23.281  1.00 60.80 LIG-0.35  N 
ATOM      4 H    PHE G   5      38.967   4.531  23.030  1.00 60.80 LIG 0.16  HD
ENDROOT
BRANCH 1 5
ATOM      5  CA  LEU G   4      38.872   6.519  21.548  1.00 58.56 LIG 0.18  C 
BRANCH 5 6
ATOM      6  CB  LEU G   4      39.636   6.134  20.284  1.00 61.47 LIG 0.04  C 
BRANCH 6 7
ATOM      7  CG  LEU G   4      38.795   5.429  19.242  1.00 62.80 LIG-0.02  C 
ATOM      8  CD1 LEU G   4      38.629   6.386  18.081  1.00 63.22 LIG 0.01  C 
ATOM      9  CD2 LEU G   4      39.503   4.136  18.839  1.00 64.86 LIG 0.01  C 
ENDBRANCH 6 7
ENDBRANCH 5 6
BRANCH 5 10
ATOM     10  N   LEU G   4      38.486   7.917  21.555  1.00 59.02 LIG-0.35  N 
ATOM     11 H    LEU G   4      37.691   8.072  21.844  1.00 59.02 LIG 0.16  HD
ATOM     12  C   ILE G   3      39.335   8.856  21.135  1.00 70.10 LIG 0.24  C 
ATOM     13 O    ILE G   3      40.546   8.618  20.934  1.00 64.55 LIG-0.27  OA
BRANCH 12 14
ATOM     14  CA  ILE G   3      38.738  10.271  20.909  1.00 67.83 LIG 0.18  C 
BRANCH 14 15
ATOM     15  CB  ILE G   3      39.024  10.774  19.459  1.00 66.94 LIG 0.01  C 
ATOM     16  CG2 ILE G   3      38.462   9.791  18.431  1.00 67.41 LIG 0.01  C 
BRANCH 15 17
ATOM     17  CG1 ILE G   3      38.453  12.197  19.207  1.00 59.79 LIG 0.00  C 
ATOM     18  CD1 ILE G   3      38.956  12.841  17.942  1.00 60.74 LIG 0.01  C 
ENDBRANCH 15 17
ENDBRANCH 14 15
BRANCH 14 19
ATOM     19  N   ILE G   3      39.274  11.197  21.895  1.00 79.60 LIG-0.34  N 
ATOM     20 H    ILE G   3      39.664  11.880  21.549  1.00 79.60 LIG 0.16  HD
ATOM     21  C   ASP G   2      39.172  11.005  23.213  1.00 93.07 LIG 0.26  C 
ATOM     22 O    ASP G   2      38.534  10.078  23.714  1.00 81.24 LIG-0.27  OA
BRANCH 21 23
ATOM     23  CA  ASP G   2      39.910  11.995  24.123  1.00 93.30 LIG 0.41  C 
ATOM     24  N   ASP G   2      39.017  13.163  24.372  1.00 94.60 LIG 0.61  N 
BRANCH 23 25
ATOM     25  CB  ASP G   2      40.330  11.357  25.455  1.00 96.36 LIG 0.16  C 
BRANCH 25 26
ATOM     26  CG  ASP G   2      39.245  11.438  26.507  1.00103.24 LIG 0.17  C 
ATOM     27 OD1  ASP G   2      38.810  12.557  26.844  1.00112.85 LIG-0.65  OA
ATOM     28 OD2  ASP G   2      38.816  10.383  26.997  1.00105.87 LIG-0.65  OA
ENDBRANCH 25 26
ENDBRANCH 23 25
ENDBRANCH 21 23
ENDBRANCH 14 19
ENDBRANCH 12 14
ENDBRANCH 5 10
ENDBRANCH 1 5
BRANCH 3 29
ATOM     29  CA  PHE G   5      40.384   4.581  24.363  1.00 70.05 LIG 0.18  C 
BRANCH 29 30
ATOM     30  CB  PHE G   5      40.246   5.490  25.603  1.00 73.20 LIG 0.07  C 
BRANCH 30 31
ATOM     31  CG  PHE G   5      38.867   6.121  25.723  1.00 79.36 LIG-0.06  A 
ATOM     32  CD1 PHE G   5      37.729   5.307  25.949  1.00 85.64 LIG 0.01  A 
ATOM     33  CE1 PHE G   5      36.462   5.860  26.077  1.00 88.71 LIG 0.00  A 
ATOM     34  CZ  PHE G   5      36.312   7.247  25.988  1.00 96.11 LIG 0.00  A 
ATOM     35  CE2 PHE G   5      37.430   8.070  25.781  1.00 91.53 LIG 0.00  A 
ATOM     36  CD2 PHE G   5      38.698   7.511  25.651  1.00 81.01 LIG 0.01  A 
ENDBRANCH 30 31
ENDBRANCH 29 30
BRANCH 29 37
ATOM     37  C   PHE G   5      39.933   3.143  24.591  1.00 74.26 LIG 0.24  C 
ATOM     38  N   PRO G   6      40.015   2.303  23.536  1.00 79.01 LIG-0.34  N 
ATOM     39  CD  PRO G   6      40.370   2.723  22.153  1.00 76.17 LIG 0.13  C 
ATOM     40  CA  PRO G   6      39.452   0.944  23.574  1.00 78.34 LIG 0.18  C 
ATOM     41  CG  PRO G   6      40.386   1.442  21.394  1.00 78.03 LIG 0.02  C 
ATOM     42  CB  PRO G   6      39.350   0.590  22.080  1.00 82.73 LIG 0.04  C 
ATOM     43 O    PHE G   5      39.430   2.823  25.675  1.00 61.78 LIG-0.27  OA
BRANCH 40 44
ATOM     44  C   PRO G   6      40.286  -0.125  24.316  1.00 77.34 LIG 0.24  C 
ATOM     45 O    PRO G   6      41.501  -0.092  24.229  1.00 92.50 LIG-0.27  OA
ATOM     46  N   ALA G   7      39.634  -1.054  25.031  1.00 74.20 LIG-0.35  N 
ATOM     47 H    ALA G   7      38.833  -0.948  25.326  1.00 74.20 LIG 0.16  HD
BRANCH 46 48
ATOM     48  CA  ALA G   7      40.237  -2.367  25.386  1.00 71.75 LIG 0.16  C 
ATOM     49  CB  ALA G   7      39.414  -3.057  26.473  1.00 70.01 LIG 0.04  C 
BRANCH 48 50
ATOM     50  C   ALA G   7      40.325  -3.266  24.131  1.00 69.94 LIG 0.22  C 
ATOM     51 O    ALA G   7      39.596  -3.035  23.132  1.00 56.97 LIG-0.29  OA
ENDBRANCH 48 50
ENDBRANCH 46 48
ENDBRANCH 40 44
ENDBRANCH 29 37
ENDBRANCH 3 29
TORSDOF 18
ENDMDL
MODEL 29
USER: ADFR SOLUTION from run 123
USER: SCORE 15.622514 LL:  -5.291 LR: -10.770 RR:   0.000 FEB:  -5.401
USER: RMSD 12.078236
USER: SEED 122
USER: STATUS no improvement in best in 10 clusters for 5 generations
USER: GENES 20
USER: genes 0 Translation |==|  0.50909 0.33418 0.62571
USER: genes 1 Rotation |==|  0.35775 0.15246 0.81258 0.60618
USER: genes 2 Torsion [N]-C--CA-[N] |==|  0.87639
USER: genes 3 Torsion [C]-CA--CB-[CG] |==|  0.37969
USER: genes 4 Torsion [CA]-CB--CG-[CD1] |==|  0.09026
USER: genes 5 Torsion [C]-CA--N-[C] |==|  0.72835
USER: genes 6 Torsion [N]-C--CA-[N] |==|  0.38406
USER: genes 7 Torsion [C]-CA--CB-[CG1] |==|  0.32426
USER: genes 8 Torsion [CA]-CB--CG1-[CD1] |==|  0.67248
USER: genes 9 Torsion [C]-CA--N-[C] |==|  0.85234
USER: genes 10 Torsion [N]-C--CA-[N] |==|  0.87678
USER: genes 11 Torsion [C]-CA--CB-[CG] |==|  0.96762
USER: genes 12 Torsion [CA]-CB--CG-[OD1] |==|  0.76897
USER: genes 13 Torsion [C]-N--CA-[CB] |==|  0.86111
USER: genes 14 Torsion [N]-CA--CB-[CG] |==|  0.37435
USER: genes 15 Torsion [CA]-CB--CG-[CD1] |==|  0.75378
USER: genes 16 Torsion [N]-CA--C-[N] |==|  0.35051
USER: genes 17 Torsion [N]-CA--C-[O] |==|  0.17946
USER: genes 18 Torsion [C]-N--CA-[C] |==|  0.20939
USER: genes 19 Torsion [N]-CA--C-[O] |==|  0.26017
ROOT
ATOM      1  C   LEU G   4      40.109   1.580  24.760  1.00 61.38 LIG 0.24  C 
ATOM      2 O    LEU G   4      41.158   2.205  24.950  1.00 52.06 LIG-0.27  OA
ATOM      3  N   PHE G   5      39.006   1.718  25.475  1.00 60.80 LIG-0.35  N 
ATOM      4 H    PHE G   5      38.279   1.291  25.304  1.00 60.80 LIG 0.16  HD
ENDROOT
BRANCH 1 5
ATOM      5  CA  LEU G   4      40.003   0.541  23.683  1.00 58.56 LIG 0.18  C 
BRANCH 5 6
ATOM      6  CB  LEU G   4      39.211   1.149  22.529  1.00 61.47 LIG 0.04  C 
BRANCH 6 7
ATOM      7  CG  LEU G   4      39.786   0.856  21.160  1.00 62.80 LIG-0.02  C 
ATOM      8  CD1 LEU G   4      40.426  -0.514  21.230  1.00 63.22 LIG 0.01  C 
ATOM      9  CD2 LEU G   4      38.657   0.924  20.133  1.00 64.86 LIG 0.01  C 
ENDBRANCH 6 7
ENDBRANCH 5 6
BRANCH 5 10
ATOM     10  N   LEU G   4      39.362  -0.638  24.231  1.00 59.02 LIG-0.35  N 
ATOM     11 H    LEU G   4      38.503  -0.604  24.259  1.00 59.02 LIG 0.16  HD
ATOM     12  C   ILE G   3      40.092  -1.674  24.648  1.00 70.10 LIG 0.24  C 
ATOM     13 O    ILE G   3      41.311  -1.777  24.389  1.00 64.55 LIG-0.27  OA
BRANCH 12 14
ATOM     14  CA  ILE G   3      39.344  -2.753  25.475  1.00 67.83 LIG 0.18  C 
BRANCH 14 15
ATOM     15  CB  ILE G   3      39.577  -2.547  27.006  1.00 66.94 LIG 0.01  C 
ATOM     16  CG2 ILE G   3      40.607  -1.442  27.246  1.00 67.41 LIG 0.01  C 
BRANCH 15 17
ATOM     17  CG1 ILE G   3      38.259  -2.225  27.763  1.00 59.79 LIG 0.00  C 
ATOM     18  CD1 ILE G   3      38.252  -0.873  28.426  1.00 60.74 LIG 0.01  C 
ENDBRANCH 15 17
ENDBRANCH 14 15
BRANCH 14 19
ATOM     19  N   ILE G   3      39.773  -4.079  25.059  1.00 79.60 LIG-0.34  N 
ATOM     20 H    ILE G   3      40.041  -4.574  25.709  1.00 79.60 LIG 0.16  HD
ATOM     21  C   ASP G   2      39.752  -4.492  23.789  1.00 93.07 LIG 0.26  C 
ATOM     22 O    ASP G   2      39.282  -3.822  22.868  1.00 81.24 LIG-0.27  OA
BRANCH 21 23
ATOM     23  CA  ASP G   2      40.367  -5.865  23.489  1.00 93.30 LIG 0.41  C 
ATOM     24  N   ASP G   2      41.660  -5.973  24.223  1.00 94.60 LIG 0.61  N 
BRANCH 23 25
ATOM     25  CB  ASP G   2      39.434  -7.019  23.887  1.00 96.36 LIG 0.16  C 
BRANCH 25 26
ATOM     26  CG  ASP G   2      38.265  -6.556  24.729  1.00103.24 LIG 0.17  C 
ATOM     27 OD1  ASP G   2      38.423  -6.410  25.958  1.00112.85 LIG-0.65  OA
ATOM     28 OD2  ASP G   2      37.183  -6.331  24.166  1.00105.87 LIG-0.65  OA
ENDBRANCH 25 26
ENDBRANCH 23 25
ENDBRANCH 21 23
ENDBRANCH 14 19
ENDBRANCH 12 14
ENDBRANCH 5 10
ENDBRANCH 1 5
BRANCH 3 29
ATOM     29  CA  PHE G   5      38.905   2.592  26.609  1.00 70.05 LIG 0.18  C 
BRANCH 29 30
ATOM     30  CB  PHE G   5      40.078   2.357  27.583  1.00 73.20 LIG 0.07  C 
BRANCH 30 31
ATOM     31  CG  PHE G   5      40.708   3.652  28.074  1.00 79.36 LIG-0.06  A 
ATOM     32  CD1 PHE G   5      41.764   4.251  27.343  1.00 85.64 LIG 0.01  A 
ATOM     33  CE1 PHE G   5      42.346   5.441  27.762  1.00 88.71 LIG 0.00  A 
ATOM     34  CZ  PHE G   5      41.872   6.059  28.922  1.00 96.11 LIG 0.00  A 
ATOM     35  CE2 PHE G   5      40.815   5.489  29.650  1.00 91.53 LIG 0.00  A 
ATOM     36  CD2 PHE G   5      40.237   4.295  29.227  1.00 81.01 LIG 0.01  A 
ENDBRANCH 30 31
ENDBRANCH 29 30
BRANCH 29 37
ATOM     37  C   PHE G   5      38.840   4.005  26.040  1.00 74.26 LIG 0.24  C 
ATOM     38  N   PRO G   6      37.800   4.774  26.433  1.00 79.01 LIG-0.34  N 
ATOM     39  CD  PRO G   6      36.657   4.287  27.251  1.00 76.17 LIG 0.13  C 
ATOM     40  CA  PRO G   6      37.528   6.087  25.827  1.00 78.34 LIG 0.18  C 
ATOM     41  CG  PRO G   6      35.834   5.510  27.461  1.00 78.03 LIG 0.02  C 
ATOM     42  CB  PRO G   6      36.059   6.329  26.217  1.00 82.73 LIG 0.04  C 
ATOM     43 O    PHE G   5      39.663   4.362  25.188  1.00 61.78 LIG-0.27  OA
BRANCH 40 44
ATOM     44  C   PRO G   6      38.405   7.263  26.312  1.00 77.34 LIG 0.24  C 
ATOM     45 O    PRO G   6      39.602   7.242  26.083  1.00 92.50 LIG-0.27  OA
ATOM     46  N   ALA G   7      37.810   8.268  26.973  1.00 74.20 LIG-0.35  N 
ATOM     47 H    ALA G   7      36.970   8.441  26.912  1.00 74.20 LIG 0.16  HD
BRANCH 46 48
ATOM     48  CA  ALA G   7      38.551   9.186  27.879  1.00 71.75 LIG 0.16  C 
ATOM     49  CB  ALA G   7      39.464   8.392  28.814  1.00 70.01 LIG 0.04  C 
BRANCH 48 50
ATOM     50  C   ALA G   7      39.380  10.193  27.051  1.00 69.94 LIG 0.22  C 
ATOM     51 O    ALA G   7      38.904  11.321  26.761  1.00 56.97 LIG-0.29  OA
ENDBRANCH 48 50
ENDBRANCH 46 48
ENDBRANCH 40 44
ENDBRANCH 29 37
ENDBRANCH 3 29
TORSDOF 18
ENDMDL
MODEL 30
USER: ADFR SOLUTION from run 101
USER: SCORE 14.891188 LL:  -5.468 LR: -10.742 RR:   0.000 FEB:  -5.372
USER: RMSD 4.219806
USER: SEED 100
USER: STATUS no improvement in best in 27 clusters for 5 generations
USER: GENES 20
USER: genes 0 Translation |==|  0.46886 0.49026 0.52748
USER: genes 1 Rotation |==|  0.52957 0.40130 0.47176 0.98845
USER: genes 2 Torsion [N]-C--CA-[N] |==|  0.45823
USER: genes 3 Torsion [C]-CA--CB-[CG] |==|  0.42812
USER: genes 4 Torsion [CA]-CB--CG-[CD1] |==|  0.27877
USER: genes 5 Torsion [C]-CA--N-[C] |==|  0.77224
USER: genes 6 Torsion [N]-C--CA-[N] |==|  0.91295
USER: genes 7 Torsion [C]-CA--CB-[CG1] |==|  0.51219
USER: genes 8 Torsion [CA]-CB--CG1-[CD1] |==|  0.49855
USER: genes 9 Torsion [C]-CA--N-[C] |==|  0.81191
USER: genes 10 Torsion [N]-C--CA-[N] |==|  0.23304
USER: genes 11 Torsion [C]-CA--CB-[CG] |==|  0.67814
USER: genes 12 Torsion [CA]-CB--CG-[OD1] |==|  0.14151
USER: genes 13 Torsion [C]-N--CA-[CB] |==|  0.28740
USER: genes 14 Torsion [N]-CA--CB-[CG] |==|  0.93965
USER: genes 15 Torsion [CA]-CB--CG-[CD1] |==|  0.76533
USER: genes 16 Torsion [N]-CA--C-[N] |==|  0.36593
USER: genes 17 Torsion [N]-CA--C-[O] |==|  0.96538
USER: genes 18 Torsion [C]-N--CA-[C] |==|  0.78697
USER: genes 19 Torsion [N]-CA--C-[O] |==|  0.01048
ROOT
ATOM      1  C   LEU G   4      39.445   5.911  23.139  1.00 61.38 LIG 0.24  C 
ATOM      2 O    LEU G   4      39.554   6.056  21.917  1.00 52.06 LIG-0.27  OA
ATOM      3  N   PHE G   5      39.966   4.913  23.833  1.00 60.80 LIG-0.35  N 
ATOM      4 H    PHE G   5      39.900   4.851  24.688  1.00 60.80 LIG 0.16  HD
ENDROOT
BRANCH 1 5
ATOM      5  CA  LEU G   4      38.649   6.872  23.971  1.00 58.56 LIG 0.18  C 
BRANCH 5 6
ATOM      6  CB  LEU G   4      37.342   6.184  24.352  1.00 61.47 LIG 0.04  C 
BRANCH 6 7
ATOM      7  CG  LEU G   4      36.718   6.701  25.629  1.00 62.80 LIG-0.02  C 
ATOM      8  CD1 LEU G   4      35.610   7.654  25.230  1.00 63.22 LIG 0.01  C 
ATOM      9  CD2 LEU G   4      36.203   5.510  26.437  1.00 64.86 LIG 0.01  C 
ENDBRANCH 6 7
ENDBRANCH 5 6
BRANCH 5 10
ATOM     10  N   LEU G   4      38.433   8.085  23.206  1.00 59.02 LIG-0.35  N 
ATOM     11 H    LEU G   4      37.669   8.135  22.815  1.00 59.02 LIG 0.16  HD
ATOM     12  C   ILE G   3      39.377   9.024  23.145  1.00 70.10 LIG 0.24  C 
ATOM     13 O    ILE G   3      40.374   9.018  23.900  1.00 64.55 LIG-0.27  OA
BRANCH 12 14
ATOM     14  CA  ILE G   3      39.173  10.136  22.082  1.00 67.83 LIG 0.18  C 
BRANCH 14 15
ATOM     15  CB  ILE G   3      38.405  11.355  22.686  1.00 66.94 LIG 0.01  C 
ATOM     16  CG2 ILE G   3      39.198  11.967  23.841  1.00 67.41 LIG 0.01  C 
BRANCH 15 17
ATOM     17  CG1 ILE G   3      38.089  12.438  21.618  1.00 59.79 LIG 0.00  C 
ATOM     18  CD1 ILE G   3      37.337  13.626  22.159  1.00 60.74 LIG 0.01  C 
ENDBRANCH 15 17
ENDBRANCH 14 15
BRANCH 14 19
ATOM     19  N   ILE G   3      38.465   9.596  20.931  1.00 79.60 LIG-0.34  N 
ATOM     20 H    ILE G   3      37.672   9.913  20.835  1.00 79.60 LIG 0.16  HD
ATOM     21  C   ASP G   2      38.995   8.693  20.102  1.00 93.07 LIG 0.26  C 
ATOM     22 O    ASP G   2      40.162   8.305  20.181  1.00 81.24 LIG-0.27  OA
BRANCH 21 23
ATOM     23  CA  ASP G   2      38.076   8.113  19.019  1.00 93.30 LIG 0.41  C 
ATOM     24  N   ASP G   2      38.065   9.051  17.860  1.00 94.60 LIG 0.61  N 
BRANCH 23 25
ATOM     25  CB  ASP G   2      38.523   6.716  18.565  1.00 96.36 LIG 0.16  C 
BRANCH 25 26
ATOM     26  CG  ASP G   2      38.947   6.684  17.113  1.00103.24 LIG 0.17  C 
ATOM     27 OD1  ASP G   2      39.775   7.521  16.704  1.00112.85 LIG-0.65  OA
ATOM     28 OD2  ASP G   2      38.458   5.816  16.373  1.00105.87 LIG-0.65  OA
ENDBRANCH 25 26
ENDBRANCH 23 25
ENDBRANCH 21 23
ENDBRANCH 14 19
ENDBRANCH 12 14
ENDBRANCH 5 10
ENDBRANCH 1 5
BRANCH 3 29
ATOM     29  CA  PHE G   5      40.695   3.832  23.233  1.00 70.05 LIG 0.18  C 
BRANCH 29 30
ATOM     30  CB  PHE G   5      42.212   4.010  23.454  1.00 73.20 LIG 0.07  C 
BRANCH 30 31
ATOM     31  CG  PHE G   5      42.602   5.450  23.748  1.00 79.36 LIG-0.06  A 
ATOM     32  CD1 PHE G   5      42.822   6.359  22.683  1.00 85.64 LIG 0.01  A 
ATOM     33  CE1 PHE G   5      43.165   7.683  22.925  1.00 88.71 LIG 0.00  A 
ATOM     34  CZ  PHE G   5      43.286   8.125  24.245  1.00 96.11 LIG 0.00  A 
ATOM     35  CE2 PHE G   5      43.055   7.243  25.313  1.00 91.53 LIG 0.00  A 
ATOM     36  CD2 PHE G   5      42.715   5.917  25.066  1.00 81.01 LIG 0.01  A 
ENDBRANCH 30 31
ENDBRANCH 29 30
BRANCH 29 37
ATOM     37  C   PHE G   5      40.122   2.556  23.839  1.00 74.26 LIG 0.24  C 
ATOM     38  N   PRO G   6      39.795   1.565  22.979  1.00 79.01 LIG-0.34  N 
ATOM     39  CD  PRO G   6      39.819   1.697  21.498  1.00 76.17 LIG 0.13  C 
ATOM     40  CA  PRO G   6      39.075   0.359  23.417  1.00 78.34 LIG 0.18  C 
ATOM     41  CG  PRO G   6      39.446   0.336  21.023  1.00 78.03 LIG 0.02  C 
ATOM     42  CB  PRO G   6      38.524  -0.192  22.090  1.00 82.73 LIG 0.04  C 
ATOM     43 O    PHE G   5      39.891   2.504  25.053  1.00 61.78 LIG-0.27  OA
BRANCH 40 44
ATOM     44  C   PRO G   6      39.917  -0.723  24.131  1.00 77.34 LIG 0.24  C 
ATOM     45 O    PRO G   6      41.133  -0.645  24.094  1.00 92.50 LIG-0.27  OA
ATOM     46  N   ALA G   7      39.272  -1.713  24.765  1.00 74.20 LIG-0.35  N 
ATOM     47 H    ALA G   7      38.457  -1.651  25.032  1.00 74.20 LIG 0.16  HD
BRANCH 46 48
ATOM     48  CA  ALA G   7      39.907  -3.023  25.069  1.00 71.75 LIG 0.16  C 
ATOM     49  CB  ALA G   7      39.130  -3.753  26.164  1.00 70.01 LIG 0.04  C 
BRANCH 48 50
ATOM     50  C   ALA G   7      39.970  -3.890  23.791  1.00 69.94 LIG 0.22  C 
ATOM     51 O    ALA G   7      39.584  -3.425  22.688  1.00 56.97 LIG-0.29  OA
ENDBRANCH 48 50
ENDBRANCH 46 48
ENDBRANCH 40 44
ENDBRANCH 29 37
ENDBRANCH 3 29
TORSDOF 18
ENDMDL
MODEL 31
USER: ADFR SOLUTION from run 141
USER: SCORE 14.639486 LL:  -5.061 LR: -10.722 RR:   0.000 FEB:  -5.352
USER: RMSD 10.655644
USER: SEED 140
USER: STATUS no improvement in best in 22 clusters for 5 generations
USER: GENES 20
USER: genes 0 Translation |==|  0.44267 0.57232 0.57490
USER: genes 1 Rotation |==|  0.10738 0.46904 0.80752 0.51801
USER: genes 2 Torsion [N]-C--CA-[N] |==|  0.39608
USER: genes 3 Torsion [C]-CA--CB-[CG] |==|  0.48176
USER: genes 4 Torsion [CA]-CB--CG-[CD1] |==|  0.29220
USER: genes 5 Torsion [C]-CA--N-[C] |==|  0.83778
USER: genes 6 Torsion [N]-C--CA-[N] |==|  0.03639
USER: genes 7 Torsion [C]-CA--CB-[CG1] |==|  0.63149
USER: genes 8 Torsion [CA]-CB--CG1-[CD1] |==|  0.37998
USER: genes 9 Torsion [C]-CA--N-[C] |==|  0.71972
USER: genes 10 Torsion [N]-C--CA-[N] |==|  0.72916
USER: genes 11 Torsion [C]-CA--CB-[CG] |==|  0.56189
USER: genes 12 Torsion [CA]-CB--CG-[OD1] |==|  0.15802
USER: genes 13 Torsion [C]-N--CA-[CB] |==|  0.27121
USER: genes 14 Torsion [N]-CA--CB-[CG] |==|  0.16990
USER: genes 15 Torsion [CA]-CB--CG-[CD1] |==|  0.79153
USER: genes 16 Torsion [N]-CA--C-[N] |==|  0.39915
USER: genes 17 Torsion [N]-CA--C-[O] |==|  0.78882
USER: genes 18 Torsion [C]-N--CA-[C] |==|  0.18379
USER: genes 19 Torsion [N]-CA--C-[O] |==|  0.16975
ROOT
ATOM      1  C   LEU G   4      39.013   8.188  23.922  1.00 61.38 LIG 0.24  C 
ATOM      2 O    LEU G   4      40.062   8.172  24.575  1.00 52.06 LIG-0.27  OA
ATOM      3  N   PHE G   5      38.667   9.136  23.068  1.00 60.80 LIG-0.35  N 
ATOM      4 H    PHE G   5      37.944   9.108  22.604  1.00 60.80 LIG 0.16  HD
ENDROOT
BRANCH 1 5
ATOM      5  CA  LEU G   4      37.983   7.108  24.074  1.00 58.56 LIG 0.18  C 
BRANCH 5 6
ATOM      6  CB  LEU G   4      37.124   7.454  25.287  1.00 61.47 LIG 0.04  C 
BRANCH 6 7
ATOM      7  CG  LEU G   4      35.935   6.540  25.485  1.00 62.80 LIG-0.02  C 
ATOM      8  CD1 LEU G   4      36.265   5.624  26.645  1.00 63.22 LIG 0.01  C 
ATOM      9  CD2 LEU G   4      34.699   7.400  25.751  1.00 64.86 LIG 0.01  C 
ENDBRANCH 6 7
ENDBRANCH 5 6
BRANCH 5 10
ATOM     10  N   LEU G   4      38.659   5.834  24.222  1.00 59.02 LIG-0.35  N 
ATOM     11 H    LEU G   4      38.478   5.409  24.947  1.00 59.02 LIG 0.16  HD
ATOM     12  C   ILE G   3      39.491   5.395  23.276  1.00 70.10 LIG 0.24  C 
ATOM     13 O    ILE G   3      39.557   5.929  22.146  1.00 64.55 LIG-0.27  OA
BRANCH 12 14
ATOM     14  CA  ILE G   3      40.378   4.178  23.651  1.00 67.83 LIG 0.18  C 
BRANCH 14 15
ATOM     15  CB  ILE G   3      40.416   3.134  22.490  1.00 66.94 LIG 0.01  C 
ATOM     16  CG2 ILE G   3      41.746   3.217  21.740  1.00 67.41 LIG 0.01  C 
BRANCH 15 17
ATOM     17  CG1 ILE G   3      40.174   1.685  22.995  1.00 59.79 LIG 0.00  C 
ATOM     18  CD1 ILE G   3      39.242   0.883  22.124  1.00 60.74 LIG 0.01  C 
ENDBRANCH 15 17
ENDBRANCH 14 15
BRANCH 14 19
ATOM     19  N   ILE G   3      39.889   3.570  24.879  1.00 79.60 LIG-0.34  N 
ATOM     20 H    ILE G   3      39.204   3.065  24.765  1.00 79.60 LIG 0.16  HD
ATOM     21  C   ASP G   2      40.451   3.777  26.074  1.00 93.07 LIG 0.26  C 
ATOM     22 O    ASP G   2      41.488   4.424  26.231  1.00 81.24 LIG-0.27  OA
BRANCH 21 23
ATOM     23  CA  ASP G   2      39.738   3.181  27.294  1.00 93.30 LIG 0.41  C 
ATOM     24  N   ASP G   2      38.910   4.249  27.924  1.00 94.60 LIG 0.61  N 
BRANCH 23 25
ATOM     25  CB  ASP G   2      38.858   1.978  26.923  1.00 96.36 LIG 0.16  C 
BRANCH 25 26
ATOM     26  CG  ASP G   2      37.768   1.719  27.940  1.00103.24 LIG 0.17  C 
ATOM     27 OD1  ASP G   2      36.961   2.630  28.209  1.00112.85 LIG-0.65  OA
ATOM     28 OD2  ASP G   2      37.709   0.600  28.472  1.00105.87 LIG-0.65  OA
ENDBRANCH 25 26
ENDBRANCH 23 25
ENDBRANCH 21 23
ENDBRANCH 14 19
ENDBRANCH 12 14
ENDBRANCH 5 10
ENDBRANCH 1 5
BRANCH 3 29
ATOM     29  CA  PHE G   5      39.459  10.308  22.827  1.00 70.05 LIG 0.18  C 
BRANCH 29 30
ATOM     30  CB  PHE G   5      40.326  10.127  21.564  1.00 73.20 LIG 0.07  C 
BRANCH 30 31
ATOM     31  CG  PHE G   5      39.500   9.908  20.306  1.00 79.36 LIG-0.06  A 
ATOM     32  CD1 PHE G   5      38.876   8.657  20.074  1.00 85.64 LIG 0.01  A 
ATOM     33  CE1 PHE G   5      38.104   8.436  18.940  1.00 88.71 LIG 0.00  A 
ATOM     34  CZ  PHE G   5      37.937   9.473  18.018  1.00 96.11 LIG 0.00  A 
ATOM     35  CE2 PHE G   5      38.534  10.724  18.239  1.00 91.53 LIG 0.00  A 
ATOM     36  CD2 PHE G   5      39.308  10.939  19.375  1.00 81.01 LIG 0.01  A 
ENDBRANCH 30 31
ENDBRANCH 29 30
BRANCH 29 37
ATOM     37  C   PHE G   5      38.474  11.468  22.746  1.00 74.26 LIG 0.24  C 
ATOM     38  N   PRO G   6      38.879  12.650  23.262  1.00 79.01 LIG-0.34  N 
ATOM     39  CD  PRO G   6      40.142  12.846  24.023  1.00 76.17 LIG 0.13  C 
ATOM     40  CA  PRO G   6      37.964  13.794  23.404  1.00 78.34 LIG 0.18  C 
ATOM     41  CG  PRO G   6      40.153  14.307  24.309  1.00 78.03 LIG 0.02  C 
ATOM     42  CB  PRO G   6      38.697  14.673  24.432  1.00 82.73 LIG 0.04  C 
ATOM     43 O    PHE G   5      37.332  11.274  22.311  1.00 61.78 LIG-0.27  OA
BRANCH 40 44
ATOM     44  C   PRO G   6      37.677  14.607  22.121  1.00 77.34 LIG 0.24  C 
ATOM     45 O    PRO G   6      38.526  15.378  21.708  1.00 92.50 LIG-0.27  OA
ATOM     46  N   ALA G   7      36.496  14.432  21.511  1.00 74.20 LIG-0.35  N 
ATOM     47 H    ALA G   7      36.010  13.729  21.612  1.00 74.20 LIG 0.16  HD
BRANCH 46 48
ATOM     48  CA  ALA G   7      35.906  15.443  20.592  1.00 71.75 LIG 0.16  C 
ATOM     49  CB  ALA G   7      35.784  16.796  21.294  1.00 70.01 LIG 0.04  C 
BRANCH 48 50
ATOM     50  C   ALA G   7      36.777  15.577  19.323  1.00 69.94 LIG 0.22  C 
ATOM     51 O    ALA G   7      36.953  14.588  18.566  1.00 56.97 LIG-0.29  OA
ENDBRANCH 48 50
ENDBRANCH 46 48
ENDBRANCH 40 44
ENDBRANCH 29 37
ENDBRANCH 3 29
TORSDOF 18
ENDMDL
MODEL 32
USER: ADFR SOLUTION from run 50
USER: SCORE 14.942154 LL:  -5.025 LR: -10.713 RR:   0.000 FEB:  -5.344
USER: RMSD 5.195285
USER: SEED 49
USER: STATUS no improvement in best in 25 clusters for 5 generations
USER: GENES 20
USER: genes 0 Translation |==|  0.42932 0.53219 0.50493
USER: genes 1 Rotation |==|  0.31411 0.73466 0.89766 0.54745
USER: genes 2 Torsion [N]-C--CA-[N] |==|  0.83908
USER: genes 3 Torsion [C]-CA--CB-[CG] |==|  0.40366
USER: genes 4 Torsion [CA]-CB--CG-[CD1] |==|  0.00725
USER: genes 5 Torsion [C]-CA--N-[C] |==|  0.76784
USER: genes 6 Torsion [N]-C--CA-[N] |==|  0.97069
USER: genes 7 Torsion [C]-CA--CB-[CG1] |==|  0.94491
USER: genes 8 Torsion [CA]-CB--CG1-[CD1] |==|  0.30273
USER: genes 9 Torsion [C]-CA--N-[C] |==|  0.71953
USER: genes 10 Torsion [N]-C--CA-[N] |==|  0.11380
USER: genes 11 Torsion [C]-CA--CB-[CG] |==|  0.53117
USER: genes 12 Torsion [CA]-CB--CG-[OD1] |==|  0.09417
USER: genes 13 Torsion [C]-N--CA-[CB] |==|  0.82778
USER: genes 14 Torsion [N]-CA--CB-[CG] |==|  0.71015
USER: genes 15 Torsion [CA]-CB--CG-[CD1] |==|  0.44905
USER: genes 16 Torsion [N]-CA--C-[N] |==|  0.47154
USER: genes 17 Torsion [N]-CA--C-[O] |==|  0.74746
USER: genes 18 Torsion [C]-N--CA-[C] |==|  0.53109
USER: genes 19 Torsion [N]-CA--C-[O] |==|  0.22702
ROOT
ATOM      1  C   LEU G   4      38.793   7.074  22.767  1.00 61.38 LIG 0.24  C 
ATOM      2 O    LEU G   4      39.661   6.199  22.685  1.00 52.06 LIG-0.27  OA
ATOM      3  N   PHE G   5      38.336   7.785  21.752  1.00 60.80 LIG-0.35  N 
ATOM      4 H    PHE G   5      37.709   8.369  21.831  1.00 60.80 LIG 0.16  HD
ENDROOT
BRANCH 1 5
ATOM      5  CA  LEU G   4      38.184   7.447  24.087  1.00 58.56 LIG 0.18  C 
BRANCH 5 6
ATOM      6  CB  LEU G   4      36.694   7.124  24.018  1.00 61.47 LIG 0.04  C 
BRANCH 6 7
ATOM      7  CG  LEU G   4      36.103   6.643  25.325  1.00 62.80 LIG-0.02  C 
ATOM      8  CD1 LEU G   4      37.209   6.693  26.359  1.00 63.22 LIG 0.01  C 
ATOM      9  CD2 LEU G   4      34.922   7.543  25.686  1.00 64.86 LIG 0.01  C 
ENDBRANCH 6 7
ENDBRANCH 5 6
BRANCH 5 10
ATOM     10  N   LEU G   4      38.433   8.854  24.336  1.00 59.02 LIG-0.35  N 
ATOM     11 H    LEU G   4      37.789   9.381  24.117  1.00 59.02 LIG 0.16  HD
ATOM     12  C   ILE G   3      39.589   9.253  24.866  1.00 70.10 LIG 0.24  C 
ATOM     13 O    ILE G   3      40.403   8.450  25.373  1.00 64.55 LIG-0.27  OA
BRANCH 12 14
ATOM     14  CA  ILE G   3      39.874  10.778  24.826  1.00 67.83 LIG 0.18  C 
BRANCH 14 15
ATOM     15  CB  ILE G   3      39.866  11.388  26.263  1.00 66.94 LIG 0.01  C 
ATOM     16  CG2 ILE G   3      39.250  12.788  26.247  1.00 67.41 LIG 0.01  C 
BRANCH 15 17
ATOM     17  CG1 ILE G   3      39.116  10.485  27.281  1.00 59.79 LIG 0.00  C 
ATOM     18  CD1 ILE G   3      40.020   9.805  28.275  1.00 60.74 LIG 0.01  C 
ENDBRANCH 15 17
ENDBRANCH 14 15
BRANCH 14 19
ATOM     19  N   ILE G   3      38.897  11.441  23.976  1.00 79.60 LIG-0.34  N 
ATOM     20 H    ILE G   3      38.138  11.569  24.358  1.00 79.60 LIG 0.16  HD
ATOM     21  C   ASP G   2      39.153  11.817  22.719  1.00 93.07 LIG 0.26  C 
ATOM     22 O    ASP G   2      40.265  11.721  22.198  1.00 81.24 LIG-0.27  OA
BRANCH 21 23
ATOM     23  CA  ASP G   2      37.980  12.375  21.903  1.00 93.30 LIG 0.41  C 
ATOM     24  N   ASP G   2      37.172  13.263  22.786  1.00 94.60 LIG 0.61  N 
BRANCH 23 25
ATOM     25  CB  ASP G   2      38.451  13.148  20.663  1.00 96.36 LIG 0.16  C 
BRANCH 25 26
ATOM     26  CG  ASP G   2      37.334  13.927  20.004  1.00103.24 LIG 0.17  C 
ATOM     27 OD1  ASP G   2      36.437  14.420  20.715  1.00112.85 LIG-0.65  OA
ATOM     28 OD2  ASP G   2      37.350  14.056  18.770  1.00105.87 LIG-0.65  OA
ENDBRANCH 25 26
ENDBRANCH 23 25
ENDBRANCH 21 23
ENDBRANCH 14 19
ENDBRANCH 12 14
ENDBRANCH 5 10
ENDBRANCH 1 5
BRANCH 3 29
ATOM     29  CA  PHE G   5      38.834   7.658  20.412  1.00 70.05 LIG 0.18  C 
BRANCH 29 30
ATOM     30  CB  PHE G   5      40.329   8.033  20.350  1.00 73.20 LIG 0.07  C 
BRANCH 30 31
ATOM     31  CG  PHE G   5      40.569   9.405  19.737  1.00 79.36 LIG-0.06  A 
ATOM     32  CD1 PHE G   5      41.802  10.072  19.947  1.00 85.64 LIG 0.01  A 
ATOM     33  CE1 PHE G   5      42.051  11.318  19.386  1.00 88.71 LIG 0.00  A 
ATOM     34  CZ  PHE G   5      41.067  11.918  18.594  1.00 96.11 LIG 0.00  A 
ATOM     35  CE2 PHE G   5      39.847  11.264  18.362  1.00 91.53 LIG 0.00  A 
ATOM     36  CD2 PHE G   5      39.601  10.017  18.928  1.00 81.01 LIG 0.01  A 
ENDBRANCH 30 31
ENDBRANCH 29 30
BRANCH 29 37
ATOM     37  C   PHE G   5      38.534   6.224  19.990  1.00 74.26 LIG 0.24  C 
ATOM     38  N   PRO G   6      38.719   5.920  18.686  1.00 79.01 LIG-0.34  N 
ATOM     39  CD  PRO G   6      39.046   6.914  17.629  1.00 76.17 LIG 0.13  C 
ATOM     40  CA  PRO G   6      38.302   4.627  18.119  1.00 78.34 LIG 0.18  C 
ATOM     41  CG  PRO G   6      39.208   6.081  16.406  1.00 78.03 LIG 0.02  C 
ATOM     42  CB  PRO G   6      38.259   4.930  16.611  1.00 82.73 LIG 0.04  C 
ATOM     43 O    PHE G   5      38.053   5.431  20.809  1.00 61.78 LIG-0.27  OA
BRANCH 40 44
ATOM     44  C   PRO G   6      39.233   3.425  18.392  1.00 77.34 LIG 0.24  C 
ATOM     45 O    PRO G   6      40.120   3.171  17.595  1.00 92.50 LIG-0.27  OA
ATOM     46  N   ALA G   7      39.026   2.700  19.502  1.00 74.20 LIG-0.35  N 
ATOM     47 H    ALA G   7      38.609   3.001  20.191  1.00 74.20 LIG 0.16  HD
BRANCH 46 48
ATOM     48  CA  ALA G   7      39.502   1.299  19.649  1.00 71.75 LIG 0.16  C 
ATOM     49  CB  ALA G   7      41.027   1.259  19.742  1.00 70.01 LIG 0.04  C 
BRANCH 48 50
ATOM     50  C   ALA G   7      38.873   0.656  20.906  1.00 69.94 LIG 0.22  C 
ATOM     51 O    ALA G   7      37.709   0.181  20.862  1.00 56.97 LIG-0.29  OA
ENDBRANCH 48 50
ENDBRANCH 46 48
ENDBRANCH 40 44
ENDBRANCH 29 37
ENDBRANCH 3 29
TORSDOF 18
ENDMDL
MODEL 33
USER: ADFR SOLUTION from run 101
USER: SCORE 14.748784 LL:  -5.332 LR: -10.714 RR:   0.000 FEB:  -5.345
USER: RMSD 4.635102
USER: SEED 100
USER: STATUS no improvement in best in 27 clusters for 5 generations
USER: GENES 20
USER: genes 0 Translation |==|  0.47146 0.49140 0.53414
USER: genes 1 Rotation |==|  0.53356 0.39068 0.46861 0.98573
USER: genes 2 Torsion [N]-C--CA-[N] |==|  0.46440
USER: genes 3 Torsion [C]-CA--CB-[CG] |==|  0.42592
USER: genes 4 Torsion [CA]-CB--CG-[CD1] |==|  0.27984
USER: genes 5 Torsion [C]-CA--N-[C] |==|  0.77522
USER: genes 6 Torsion [N]-C--CA-[N] |==|  0.91493
USER: genes 7 Torsion [C]-CA--CB-[CG1] |==|  0.50094
USER: genes 8 Torsion [CA]-CB--CG1-[CD1] |==|  0.47720
USER: genes 9 Torsion [C]-CA--N-[C] |==|  0.81667
USER: genes 10 Torsion [N]-C--CA-[N] |==|  0.21210
USER: genes 11 Torsion [C]-CA--CB-[CG] |==|  0.67746
USER: genes 12 Torsion [CA]-CB--CG-[OD1] |==|  0.13848
USER: genes 13 Torsion [C]-N--CA-[CB] |==|  0.28657
USER: genes 14 Torsion [N]-CA--CB-[CG] |==|  0.38912
USER: genes 15 Torsion [CA]-CB--CG-[CD1] |==|  0.72997
USER: genes 16 Torsion [N]-CA--C-[N] |==|  0.37231
USER: genes 17 Torsion [N]-CA--C-[O] |==|  0.97224
USER: genes 18 Torsion [C]-N--CA-[C] |==|  0.77896
USER: genes 19 Torsion [N]-CA--C-[O] |==|  0.99678
ROOT
ATOM      1  C   LEU G   4      39.488   5.942  23.249  1.00 61.38 LIG 0.24  C 
ATOM      2 O    LEU G   4      39.652   6.105  22.035  1.00 52.06 LIG-0.27  OA
ATOM      3  N   PHE G   5      39.966   4.928  23.948  1.00 60.80 LIG-0.35  N 
ATOM      4 H    PHE G   5      39.862   4.853  24.798  1.00 60.80 LIG 0.16  HD
ENDROOT
BRANCH 1 5
ATOM      5  CA  LEU G   4      38.668   6.900  24.062  1.00 58.56 LIG 0.18  C 
BRANCH 5 6
ATOM      6  CB  LEU G   4      37.360   6.202  24.420  1.00 61.47 LIG 0.04  C 
BRANCH 6 7
ATOM      7  CG  LEU G   4      36.716   6.707  25.694  1.00 62.80 LIG-0.02  C 
ATOM      8  CD1 LEU G   4      35.602   7.648  25.287  1.00 63.22 LIG 0.01  C 
ATOM      9  CD2 LEU G   4      36.207   5.506  26.491  1.00 64.86 LIG 0.01  C 
ENDBRANCH 6 7
ENDBRANCH 5 6
BRANCH 5 10
ATOM     10  N   LEU G   4      38.455   8.108  23.287  1.00 59.02 LIG-0.35  N 
ATOM     11 H    LEU G   4      37.693   8.155  22.892  1.00 59.02 LIG 0.16  HD
ATOM     12  C   ILE G   3      39.401   9.045  23.222  1.00 70.10 LIG 0.24  C 
ATOM     13 O    ILE G   3      40.395   9.044  23.981  1.00 64.55 LIG-0.27  OA
BRANCH 12 14
ATOM     14  CA  ILE G   3      39.201  10.150  22.150  1.00 67.83 LIG 0.18  C 
BRANCH 14 15
ATOM     15  CB  ILE G   3      38.448  11.381  22.748  1.00 66.94 LIG 0.01  C 
ATOM     16  CG2 ILE G   3      39.204  11.935  23.956  1.00 67.41 LIG 0.01  C 
BRANCH 15 17
ATOM     17  CG1 ILE G   3      38.225  12.501  21.694  1.00 59.79 LIG 0.00  C 
ATOM     18  CD1 ILE G   3      37.336  13.619  22.172  1.00 60.74 LIG 0.01  C 
ENDBRANCH 15 17
ENDBRANCH 14 15
BRANCH 14 19
ATOM     19  N   ILE G   3      38.482   9.606  21.008  1.00 79.60 LIG-0.34  N 
ATOM     20 H    ILE G   3      37.700   9.947  20.899  1.00 79.60 LIG 0.16  HD
ATOM     21  C   ASP G   2      38.986   8.666  20.204  1.00 93.07 LIG 0.26  C 
ATOM     22 O    ASP G   2      40.139   8.242  20.299  1.00 81.24 LIG-0.27  OA
BRANCH 21 23
ATOM     23  CA  ASP G   2      38.054   8.092  19.129  1.00 93.30 LIG 0.41  C 
ATOM     24  N   ASP G   2      37.936   9.089  18.026  1.00 94.60 LIG 0.61  N 
BRANCH 23 25
ATOM     25  CB  ASP G   2      38.561   6.751  18.578  1.00 96.36 LIG 0.16  C 
BRANCH 25 26
ATOM     26  CG  ASP G   2      38.914   6.822  17.108  1.00103.24 LIG 0.17  C 
ATOM     27 OD1  ASP G   2      39.653   7.742  16.706  1.00112.85 LIG-0.65  OA
ATOM     28 OD2  ASP G   2      38.459   5.954  16.347  1.00105.87 LIG-0.65  OA
ENDBRANCH 25 26
ENDBRANCH 23 25
ENDBRANCH 21 23
ENDBRANCH 14 19
ENDBRANCH 12 14
ENDBRANCH 5 10
ENDBRANCH 1 5
BRANCH 3 29
ATOM     29  CA  PHE G   5      40.708   3.847  23.363  1.00 70.05 LIG 0.18  C 
BRANCH 29 30
ATOM     30  CB  PHE G   5      42.216   4.006  23.647  1.00 73.20 LIG 0.07  C 
BRANCH 30 31
ATOM     31  CG  PHE G   5      42.899   2.686  23.971  1.00 79.36 LIG-0.06  A 
ATOM     32  CD1 PHE G   5      43.113   2.308  25.321  1.00 85.64 LIG 0.01  A 
ATOM     33  CE1 PHE G   5      43.721   1.102  25.643  1.00 88.71 LIG 0.00  A 
ATOM     34  CZ  PHE G   5      44.120   0.244  24.614  1.00 96.11 LIG 0.00  A 
ATOM     35  CE2 PHE G   5      43.902   0.594  23.272  1.00 91.53 LIG 0.00  A 
ATOM     36  CD2 PHE G   5      43.294   1.805  22.954  1.00 81.01 LIG 0.01  A 
ENDBRANCH 30 31
ENDBRANCH 29 30
BRANCH 29 37
ATOM     37  C   PHE G   5      40.099   2.569  23.928  1.00 74.26 LIG 0.24  C 
ATOM     38  N   PRO G   6      39.840   1.575  23.049  1.00 79.01 LIG-0.34  N 
ATOM     39  CD  PRO G   6      39.972   1.704  21.573  1.00 76.17 LIG 0.13  C 
ATOM     40  CA  PRO G   6      39.097   0.366  23.435  1.00 78.34 LIG 0.18  C 
ATOM     41  CG  PRO G   6      39.643   0.340  21.074  1.00 78.03 LIG 0.02  C 
ATOM     42  CB  PRO G   6      38.648  -0.191  22.073  1.00 82.73 LIG 0.04  C 
ATOM     43 O    PHE G   5      39.779   2.518  25.122  1.00 61.78 LIG-0.27  OA
BRANCH 40 44
ATOM     44  C   PRO G   6      39.890  -0.711  24.211  1.00 77.34 LIG 0.24  C 
ATOM     45 O    PRO G   6      41.101  -0.602  24.302  1.00 92.50 LIG-0.27  OA
ATOM     46  N   ALA G   7      39.210  -1.730  24.755  1.00 74.20 LIG-0.35  N 
ATOM     47 H    ALA G   7      38.370  -1.694  24.938  1.00 74.20 LIG 0.16  HD
BRANCH 46 48
ATOM     48  CA  ALA G   7      39.846  -3.031  25.097  1.00 71.75 LIG 0.16  C 
ATOM     49  CB  ALA G   7      39.016  -3.772  26.146  1.00 70.01 LIG 0.04  C 
BRANCH 48 50
ATOM     50  C   ALA G   7      39.997  -3.897  23.827  1.00 69.94 LIG 0.22  C 
ATOM     51 O    ALA G   7      39.585  -3.474  22.716  1.00 56.97 LIG-0.29  OA
ENDBRANCH 48 50
ENDBRANCH 46 48
ENDBRANCH 40 44
ENDBRANCH 29 37
ENDBRANCH 3 29
TORSDOF 18
ENDMDL
MODEL 34
USER: ADFR SOLUTION from run 52
USER: SCORE 14.925563 LL:  -5.660 LR: -10.705 RR:   0.000 FEB:  -5.336
USER: RMSD 11.960860
USER: SEED 51
USER: STATUS no improvement in best in 29 clusters for 5 generations
USER: GENES 20
USER: genes 0 Translation |==|  0.46935 0.33565 0.68369
USER: genes 1 Rotation |==|  0.05910 0.29905 0.38606 0.54738
USER: genes 2 Torsion [N]-C--CA-[N] |==|  0.52642
USER: genes 3 Torsion [C]-CA--CB-[CG] |==|  0.62245
USER: genes 4 Torsion [CA]-CB--CG-[CD1] |==|  0.23965
USER: genes 5 Torsion [C]-CA--N-[C] |==|  0.59518
USER: genes 6 Torsion [N]-C--CA-[N] |==|  0.91244
USER: genes 7 Torsion [C]-CA--CB-[CG1] |==|  0.46334
USER: genes 8 Torsion [CA]-CB--CG1-[CD1] |==|  0.29211
USER: genes 9 Torsion [C]-CA--N-[C] |==|  0.84444
USER: genes 10 Torsion [N]-C--CA-[N] |==|  0.88248
USER: genes 11 Torsion [C]-CA--CB-[CG] |==|  0.76282
USER: genes 12 Torsion [CA]-CB--CG-[OD1] |==|  0.19133
USER: genes 13 Torsion [C]-N--CA-[CB] |==|  0.20616
USER: genes 14 Torsion [N]-CA--CB-[CG] |==|  0.76845
USER: genes 15 Torsion [CA]-CB--CG-[CD1] |==|  0.34255
USER: genes 16 Torsion [N]-CA--C-[N] |==|  0.40317
USER: genes 17 Torsion [N]-CA--C-[O] |==|  0.33188
USER: genes 18 Torsion [C]-N--CA-[C] |==|  0.78636
USER: genes 19 Torsion [N]-CA--C-[O] |==|  0.93614
ROOT
ATOM      1  C   LEU G   4      39.453   1.620  25.717  1.00 61.38 LIG 0.24  C 
ATOM      2 O    LEU G   4      38.839   0.964  26.565  1.00 52.06 LIG-0.27  OA
ATOM      3  N   PHE G   5      39.490   2.940  25.661  1.00 60.80 LIG-0.35  N 
ATOM      4 H    PHE G   5      39.949   3.373  25.077  1.00 60.80 LIG 0.16  HD
ENDROOT
BRANCH 1 5
ATOM      5  CA  LEU G   4      40.211   0.949  24.610  1.00 58.56 LIG 0.18  C 
BRANCH 5 6
ATOM      6  CB  LEU G   4      39.790   1.604  23.297  1.00 61.47 LIG 0.04  C 
BRANCH 6 7
ATOM      7  CG  LEU G   4      39.525   0.626  22.173  1.00 62.80 LIG-0.02  C 
ATOM      8  CD1 LEU G   4      38.083   0.181  22.301  1.00 63.22 LIG 0.01  C 
ATOM      9  CD2 LEU G   4      39.807   1.323  20.843  1.00 64.86 LIG 0.01  C 
ENDBRANCH 6 7
ENDBRANCH 5 6
BRANCH 5 10
ATOM     10  N   LEU G   4      39.919  -0.471  24.637  1.00 59.02 LIG-0.35  N 
ATOM     11 H    LEU G   4      39.119  -0.672  24.879  1.00 59.02 LIG 0.16  HD
ATOM     12  C   ILE G   3      40.854  -1.361  24.302  1.00 70.10 LIG 0.24  C 
ATOM     13 O    ILE G   3      41.924  -1.027  23.747  1.00 64.55 LIG-0.27  OA
BRANCH 12 14
ATOM     14  CA  ILE G   3      40.543  -2.844  24.637  1.00 67.83 LIG 0.18  C 
BRANCH 14 15
ATOM     15  CB  ILE G   3      39.841  -3.554  23.437  1.00 66.94 LIG 0.01  C 
ATOM     16  CG2 ILE G   3      40.522  -3.179  22.120  1.00 67.41 LIG 0.01  C 
BRANCH 15 17
ATOM     17  CG1 ILE G   3      39.811  -5.099  23.604  1.00 59.79 LIG 0.00  C 
ATOM     18  CD1 ILE G   3      38.460  -5.645  23.983  1.00 60.74 LIG 0.01  C 
ENDBRANCH 15 17
ENDBRANCH 14 15
BRANCH 14 19
ATOM     19  N   ILE G   3      39.722  -2.918  25.836  1.00 79.60 LIG-0.34  N 
ATOM     20 H    ILE G   3      38.985  -3.345  25.723  1.00 79.60 LIG 0.16  HD
ATOM     21  C   ASP G   2      40.079  -2.375  27.004  1.00 93.07 LIG 0.26  C 
ATOM     22 O    ASP G   2      41.174  -1.844  27.197  1.00 81.24 LIG-0.27  OA
BRANCH 21 23
ATOM     23  CA  ASP G   2      39.046  -2.414  28.137  1.00 93.30 LIG 0.41  C 
ATOM     24  N   ASP G   2      37.709  -2.076  27.569  1.00 94.60 LIG 0.61  N 
BRANCH 23 25
ATOM     25  CB  ASP G   2      38.996  -3.783  28.831  1.00 96.36 LIG 0.16  C 
BRANCH 25 26
ATOM     26  CG  ASP G   2      38.083  -4.761  28.122  1.00103.24 LIG 0.17  C 
ATOM     27 OD1  ASP G   2      38.414  -5.195  27.001  1.00112.85 LIG-0.65  OA
ATOM     28 OD2  ASP G   2      37.033  -5.105  28.686  1.00105.87 LIG-0.65  OA
ENDBRANCH 25 26
ENDBRANCH 23 25
ENDBRANCH 21 23
ENDBRANCH 14 19
ENDBRANCH 12 14
ENDBRANCH 5 10
ENDBRANCH 1 5
BRANCH 3 29
ATOM     29  CA  PHE G   5      38.770   3.788  26.568  1.00 70.05 LIG 0.18  C 
BRANCH 29 30
ATOM     30  CB  PHE G   5      39.444   3.799  27.956  1.00 73.20 LIG 0.07  C 
BRANCH 30 31
ATOM     31  CG  PHE G   5      39.032   2.618  28.822  1.00 79.36 LIG-0.06  A 
ATOM     32  CD1 PHE G   5      40.016   1.744  29.348  1.00 85.64 LIG 0.01  A 
ATOM     33  CE1 PHE G   5      39.667   0.668  30.153  1.00 88.71 LIG 0.00  A 
ATOM     34  CZ  PHE G   5      38.320   0.452  30.455  1.00 96.11 LIG 0.00  A 
ATOM     35  CE2 PHE G   5      37.333   1.317  29.957  1.00 91.53 LIG 0.00  A 
ATOM     36  CD2 PHE G   5      37.687   2.393  29.148  1.00 81.01 LIG 0.01  A 
ENDBRANCH 30 31
ENDBRANCH 29 30
BRANCH 29 37
ATOM     37  C   PHE G   5      38.704   5.155  25.897  1.00 74.26 LIG 0.24  C 
ATOM     38  N   PRO G   6      37.580   5.880  26.098  1.00 79.01 LIG-0.34  N 
ATOM     39  CD  PRO G   6      36.367   5.375  26.795  1.00 76.17 LIG 0.13  C 
ATOM     40  CA  PRO G   6      37.319   7.132  25.370  1.00 78.34 LIG 0.18  C 
ATOM     41  CG  PRO G   6      35.459   6.554  26.811  1.00 78.03 LIG 0.02  C 
ATOM     42  CB  PRO G   6      35.801   7.304  25.551  1.00 82.73 LIG 0.04  C 
ATOM     43 O    PHE G   5      39.611   5.508  25.134  1.00 61.78 LIG-0.27  OA
BRANCH 40 44
ATOM     44  C   PRO G   6      38.059   8.390  25.878  1.00 77.34 LIG 0.24  C 
ATOM     45 O    PRO G   6      38.821   8.972  25.125  1.00 92.50 LIG-0.27  OA
ATOM     46  N   ALA G   7      37.835   8.793  27.137  1.00 74.20 LIG-0.35  N 
ATOM     47 H    ALA G   7      37.131   8.580  27.583  1.00 74.20 LIG 0.16  HD
BRANCH 46 48
ATOM     48  CA  ALA G   7      38.787   9.653  27.890  1.00 71.75 LIG 0.16  C 
ATOM     49  CB  ALA G   7      38.085  10.319  29.073  1.00 70.01 LIG 0.04  C 
BRANCH 48 50
ATOM     50  C   ALA G   7      39.985   8.811  28.384  1.00 69.94 LIG 0.22  C 
ATOM     51 O    ALA G   7      39.871   7.566  28.525  1.00 56.97 LIG-0.29  OA
ENDBRANCH 48 50
ENDBRANCH 46 48
ENDBRANCH 40 44
ENDBRANCH 29 37
ENDBRANCH 3 29
TORSDOF 18
ENDMDL
MODEL 35
USER: ADFR SOLUTION from run 113
USER: SCORE 15.905660 LL:  -5.728 LR: -10.710 RR:   0.000 FEB:  -5.341
USER: RMSD 6.429971
USER: SEED 112
USER: STATUS no improvement in best in 22 clusters for 5 generations
USER: GENES 20
USER: genes 0 Translation |==|  0.40890 0.53083 0.56979
USER: genes 1 Rotation |==|  0.32374 0.71462 0.84448 0.73282
USER: genes 2 Torsion [N]-C--CA-[N] |==|  0.93917
USER: genes 3 Torsion [C]-CA--CB-[CG] |==|  0.37861
USER: genes 4 Torsion [CA]-CB--CG-[CD1] |==|  0.03714
USER: genes 5 Torsion [C]-CA--N-[C] |==|  0.78253
USER: genes 6 Torsion [N]-C--CA-[N] |==|  0.38038
USER: genes 7 Torsion [C]-CA--CB-[CG1] |==|  0.19489
USER: genes 8 Torsion [CA]-CB--CG1-[CD1] |==|  0.13937
USER: genes 9 Torsion [C]-CA--N-[C] |==|  0.65621
USER: genes 10 Torsion [N]-C--CA-[N] |==|  0.47930
USER: genes 11 Torsion [C]-CA--CB-[CG] |==|  0.92852
USER: genes 12 Torsion [CA]-CB--CG-[OD1] |==|  0.77495
USER: genes 13 Torsion [C]-N--CA-[CB] |==|  0.88299
USER: genes 14 Torsion [N]-CA--CB-[CG] |==|  0.34988
USER: genes 15 Torsion [CA]-CB--CG-[CD1] |==|  0.72696
USER: genes 16 Torsion [N]-CA--C-[N] |==|  0.34510
USER: genes 17 Torsion [N]-CA--C-[O] |==|  0.69049
USER: genes 18 Torsion [C]-N--CA-[C] |==|  0.86211
USER: genes 19 Torsion [N]-CA--C-[O] |==|  0.19830
ROOT
ATOM      1  C   LEU G   4      38.456   7.036  23.837  1.00 61.38 LIG 0.24  C 
ATOM      2 O    LEU G   4      38.694   5.829  23.722  1.00 52.06 LIG-0.27  OA
ATOM      3  N   PHE G   5      38.929   7.980  23.043  1.00 60.80 LIG-0.35  N 
ATOM      4 H    PHE G   5      38.725   8.811  23.127  1.00 60.80 LIG 0.16  HD
ENDROOT
BRANCH 1 5
ATOM      5  CA  LEU G   4      37.605   7.561  24.956  1.00 58.56 LIG 0.18  C 
BRANCH 5 6
ATOM      6  CB  LEU G   4      36.145   7.368  24.557  1.00 61.47 LIG 0.04  C 
BRANCH 6 7
ATOM      7  CG  LEU G   4      35.265   6.834  25.666  1.00 62.80 LIG-0.02  C 
ATOM      8  CD1 LEU G   4      36.047   6.961  26.956  1.00 63.22 LIG 0.01  C 
ATOM      9  CD2 LEU G   4      33.965   7.638  25.687  1.00 64.86 LIG 0.01  C 
ENDBRANCH 6 7
ENDBRANCH 5 6
BRANCH 5 10
ATOM     10  N   LEU G   4      37.936   8.955  25.182  1.00 59.02 LIG-0.35  N 
ATOM     11 H    LEU G   4      37.378   9.518  24.850  1.00 59.02 LIG 0.16  HD
ATOM     12  C   ILE G   3      39.035   9.288  25.859  1.00 70.10 LIG 0.24  C 
ATOM     13 O    ILE G   3      39.697   8.450  26.510  1.00 64.55 LIG-0.27  OA
BRANCH 12 14
ATOM     14  CA  ILE G   3      39.453  10.781  25.799  1.00 67.83 LIG 0.18  C 
BRANCH 14 15
ATOM     15  CB  ILE G   3      40.601  11.001  24.763  1.00 66.94 LIG 0.01  C 
ATOM     16  CG2 ILE G   3      41.767  10.054  25.049  1.00 67.41 LIG 0.01  C 
BRANCH 15 17
ATOM     17  CG1 ILE G   3      40.114  10.824  23.299  1.00 59.79 LIG 0.00  C 
ATOM     18  CD1 ILE G   3      38.871  11.609  22.971  1.00 60.74 LIG 0.01  C 
ENDBRANCH 15 17
ENDBRANCH 14 15
BRANCH 14 19
ATOM     19  N   ILE G   3      39.853  11.236  27.121  1.00 79.60 LIG-0.34  N 
ATOM     20 H    ILE G   3      40.484  10.768  27.471  1.00 79.60 LIG 0.16  HD
ATOM     21  C   ASP G   2      39.296  12.283  27.737  1.00 93.07 LIG 0.26  C 
ATOM     22 O    ASP G   2      38.459  13.013  27.205  1.00 81.24 LIG-0.27  OA
BRANCH 21 23
ATOM     23  CA  ASP G   2      39.725  12.553  29.185  1.00 93.30 LIG 0.41  C 
ATOM     24  N   ASP G   2      39.134  13.851  29.618  1.00 94.60 LIG 0.61  N 
BRANCH 23 25
ATOM     25  CB  ASP G   2      39.291  11.429  30.138  1.00 96.36 LIG 0.16  C 
BRANCH 25 26
ATOM     26  CG  ASP G   2      38.078  10.678  29.637  1.00103.24 LIG 0.17  C 
ATOM     27 OD1  ASP G   2      36.945  11.165  29.818  1.00112.85 LIG-0.65  OA
ATOM     28 OD2  ASP G   2      38.251   9.597  29.052  1.00105.87 LIG-0.65  OA
ENDBRANCH 25 26
ENDBRANCH 23 25
ENDBRANCH 21 23
ENDBRANCH 14 19
ENDBRANCH 12 14
ENDBRANCH 5 10
ENDBRANCH 1 5
BRANCH 3 29
ATOM     29  CA  PHE G   5      39.832   7.718  21.958  1.00 70.05 LIG 0.18  C 
BRANCH 29 30
ATOM     30  CB  PHE G   5      40.911   6.700  22.381  1.00 73.20 LIG 0.07  C 
BRANCH 30 31
ATOM     31  CG  PHE G   5      40.994   5.504  21.445  1.00 79.36 LIG-0.06  A 
ATOM     32  CD1 PHE G   5      40.345   4.290  21.781  1.00 85.64 LIG 0.01  A 
ATOM     33  CE1 PHE G   5      40.394   3.188  20.937  1.00 88.71 LIG 0.00  A 
ATOM     34  CZ  PHE G   5      41.092   3.286  19.730  1.00 96.11 LIG 0.00  A 
ATOM     35  CE2 PHE G   5      41.728   4.486  19.372  1.00 91.53 LIG 0.00  A 
ATOM     36  CD2 PHE G   5      41.677   5.586  20.223  1.00 81.01 LIG 0.01  A 
ENDBRANCH 30 31
ENDBRANCH 29 30
BRANCH 29 37
ATOM     37  C   PHE G   5      38.962   7.258  20.794  1.00 74.26 LIG 0.24  C 
ATOM     38  N   PRO G   6      39.075   7.947  19.637  1.00 79.01 LIG-0.34  N 
ATOM     39  CD  PRO G   6      39.868   9.196  19.477  1.00 76.17 LIG 0.13  C 
ATOM     40  CA  PRO G   6      38.171   7.717  18.500  1.00 78.34 LIG 0.18  C 
ATOM     41  CG  PRO G   6      39.724   9.516  18.030  1.00 78.03 LIG 0.02  C 
ATOM     42  CB  PRO G   6      38.357   8.998  17.669  1.00 82.73 LIG 0.04  C 
ATOM     43 O    PHE G   5      38.134   6.355  20.967  1.00 61.78 LIG-0.27  OA
BRANCH 40 44
ATOM     44  C   PRO G   6      38.465   6.474  17.629  1.00 77.34 LIG 0.24  C 
ATOM     45 O    PRO G   6      38.864   6.632  16.489  1.00 92.50 LIG-0.27  OA
ATOM     46  N   ALA G   7      38.265   5.261  18.167  1.00 74.20 LIG-0.35  N 
ATOM     47 H    ALA G   7      38.250   5.117  19.014  1.00 74.20 LIG 0.16  HD
BRANCH 46 48
ATOM     48  CA  ALA G   7      38.048   4.041  17.344  1.00 71.75 LIG 0.16  C 
ATOM     49  CB  ALA G   7      37.645   2.863  18.231  1.00 70.01 LIG 0.04  C 
BRANCH 48 50
ATOM     50  C   ALA G   7      36.959   4.306  16.280  1.00 69.94 LIG 0.22  C 
ATOM     51 O    ALA G   7      37.198   5.056  15.299  1.00 56.97 LIG-0.29  OA
ENDBRANCH 48 50
ENDBRANCH 46 48
ENDBRANCH 40 44
ENDBRANCH 29 37
ENDBRANCH 3 29
TORSDOF 18
ENDMDL
MODEL 36
USER: ADFR SOLUTION from run 28
USER: SCORE 15.717478 LL:  -5.461 LR: -10.710 RR:   0.000 FEB:  -5.340
USER: RMSD 6.402302
USER: SEED 27
USER: STATUS no improvement in best in 8 clusters for 5 generations
USER: GENES 20
USER: genes 0 Translation |==|  0.41187 0.53928 0.58273
USER: genes 1 Rotation |==|  0.33417 0.70754 0.84686 0.74313
USER: genes 2 Torsion [N]-C--CA-[N] |==|  0.93369
USER: genes 3 Torsion [C]-CA--CB-[CG] |==|  0.34175
USER: genes 4 Torsion [CA]-CB--CG-[CD1] |==|  0.07449
USER: genes 5 Torsion [C]-CA--N-[C] |==|  0.75966
USER: genes 6 Torsion [N]-C--CA-[N] |==|  0.97937
USER: genes 7 Torsion [C]-CA--CB-[CG1] |==|  0.97035
USER: genes 8 Torsion [CA]-CB--CG1-[CD1] |==|  0.56698
USER: genes 9 Torsion [C]-CA--N-[C] |==|  0.71372
USER: genes 10 Torsion [N]-C--CA-[N] |==|  0.76154
USER: genes 11 Torsion [C]-CA--CB-[CG] |==|  0.59060
USER: genes 12 Torsion [CA]-CB--CG-[OD1] |==|  0.88419
USER: genes 13 Torsion [C]-N--CA-[CB] |==|  0.86109
USER: genes 14 Torsion [N]-CA--CB-[CG] |==|  0.34544
USER: genes 15 Torsion [CA]-CB--CG-[CD1] |==|  0.22463
USER: genes 16 Torsion [N]-CA--C-[N] |==|  0.33685
USER: genes 17 Torsion [N]-CA--C-[O] |==|  0.69069
USER: genes 18 Torsion [C]-N--CA-[C] |==|  0.86448
USER: genes 19 Torsion [N]-CA--C-[O] |==|  0.20816
ROOT
ATOM      1  C   LEU G   4      38.505   7.271  24.051  1.00 61.38 LIG 0.24  C 
ATOM      2 O    LEU G   4      38.704   6.065  23.866  1.00 52.06 LIG-0.27  OA
ATOM      3  N   PHE G   5      39.008   8.243  23.311  1.00 60.80 LIG-0.35  N 
ATOM      4 H    PHE G   5      38.830   9.074  23.443  1.00 60.80 LIG 0.16  HD
ENDROOT
BRANCH 1 5
ATOM      5  CA  LEU G   4      37.671   7.757  25.200  1.00 58.56 LIG 0.18  C 
BRANCH 5 6
ATOM      6  CB  LEU G   4      36.208   7.681  24.775  1.00 61.47 LIG 0.04  C 
BRANCH 6 7
ATOM      7  CG  LEU G   4      35.342   6.838  25.686  1.00 62.80 LIG-0.02  C 
ATOM      8  CD1 LEU G   4      35.980   6.865  27.058  1.00 63.22 LIG 0.01  C 
ATOM      9  CD2 LEU G   4      33.927   7.418  25.686  1.00 64.86 LIG 0.01  C 
ENDBRANCH 6 7
ENDBRANCH 5 6
BRANCH 5 10
ATOM     10  N   LEU G   4      38.079   9.108  25.535  1.00 59.02 LIG-0.35  N 
ATOM     11 H    LEU G   4      37.624   9.730  25.153  1.00 59.02 LIG 0.16  HD
ATOM     12  C   ILE G   3      39.090   9.320  26.378  1.00 70.10 LIG 0.24  C 
ATOM     13 O    ILE G   3      39.578   8.405  27.078  1.00 64.55 LIG-0.27  OA
BRANCH 12 14
ATOM     14  CA  ILE G   3      39.634  10.772  26.448  1.00 67.83 LIG 0.18  C 
BRANCH 14 15
ATOM     15  CB  ILE G   3      39.397  11.391  27.862  1.00 66.94 LIG 0.01  C 
ATOM     16  CG2 ILE G   3      38.834  12.807  27.738  1.00 67.41 LIG 0.01  C 
BRANCH 15 17
ATOM     17  CG1 ILE G   3      38.459  10.516  28.737  1.00 59.79 LIG 0.00  C 
ATOM     18  CD1 ILE G   3      37.749  11.281  29.823  1.00 60.74 LIG 0.01  C 
ENDBRANCH 15 17
ENDBRANCH 14 15
BRANCH 14 19
ATOM     19  N   ILE G   3      39.010  11.584  25.415  1.00 79.60 LIG-0.34  N 
ATOM     20 H    ILE G   3      38.206  11.822  25.603  1.00 79.60 LIG 0.16  HD
ATOM     21  C   ASP G   2      39.626  11.928  24.280  1.00 93.07 LIG 0.26  C 
ATOM     22 O    ASP G   2      40.807  11.669  24.047  1.00 81.24 LIG-0.27  OA
BRANCH 21 23
ATOM     23  CA  ASP G   2      38.790  12.666  23.226  1.00 93.30 LIG 0.41  C 
ATOM     24  N   ASP G   2      38.084  11.653  22.390  1.00 94.60 LIG 0.61  N 
BRANCH 23 25
ATOM     25  CB  ASP G   2      37.775  13.629  23.861  1.00 96.36 LIG 0.16  C 
BRANCH 25 26
ATOM     26  CG  ASP G   2      36.504  13.752  23.049  1.00103.24 LIG 0.17  C 
ATOM     27 OD1  ASP G   2      36.583  13.826  21.807  1.00112.85 LIG-0.65  OA
ATOM     28 OD2  ASP G   2      35.418  13.768  23.649  1.00105.87 LIG-0.65  OA
ENDBRANCH 25 26
ENDBRANCH 23 25
ENDBRANCH 21 23
ENDBRANCH 14 19
ENDBRANCH 12 14
ENDBRANCH 5 10
ENDBRANCH 1 5
BRANCH 3 29
ATOM     29  CA  PHE G   5      39.902   8.016  22.211  1.00 70.05 LIG 0.18  C 
BRANCH 29 30
ATOM     30  CB  PHE G   5      41.061   7.091  22.634  1.00 73.20 LIG 0.07  C 
BRANCH 30 31
ATOM     31  CG  PHE G   5      41.186   5.857  21.753  1.00 79.36 LIG-0.06  A 
ATOM     32  CD1 PHE G   5      41.841   5.942  20.499  1.00 85.64 LIG 0.01  A 
ATOM     33  CE1 PHE G   5      41.980   4.827  19.682  1.00 88.71 LIG 0.00  A 
ATOM     34  CZ  PHE G   5      41.471   3.599  20.113  1.00 96.11 LIG 0.00  A 
ATOM     35  CE2 PHE G   5      40.834   3.493  21.360  1.00 91.53 LIG 0.00  A 
ATOM     36  CD2 PHE G   5      40.694   4.613  22.173  1.00 81.01 LIG 0.01  A 
ENDBRANCH 30 31
ENDBRANCH 29 30
BRANCH 29 37
ATOM     37  C   PHE G   5      39.040   7.459  21.083  1.00 74.26 LIG 0.24  C 
ATOM     38  N   PRO G   6      39.027   8.156  19.924  1.00 79.01 LIG-0.34  N 
ATOM     39  CD  PRO G   6      39.668   9.485  19.736  1.00 76.17 LIG 0.13  C 
ATOM     40  CA  PRO G   6      38.107   7.824  18.825  1.00 78.34 LIG 0.18  C 
ATOM     41  CG  PRO G   6      39.429   9.785  18.297  1.00 78.03 LIG 0.02  C 
ATOM     42  CB  PRO G   6      38.114   9.117  17.991  1.00 82.73 LIG 0.04  C 
ATOM     43 O    PHE G   5      38.326   6.470  21.287  1.00 61.78 LIG-0.27  OA
BRANCH 40 44
ATOM     44  C   PRO G   6      38.501   6.621  17.939  1.00 77.34 LIG 0.24  C 
ATOM     45 O    PRO G   6      38.833   6.821  16.784  1.00 92.50 LIG-0.27  OA
ATOM     46  N   ALA G   7      38.459   5.394  18.480  1.00 74.20 LIG-0.35  N 
ATOM     47 H    ALA G   7      38.495   5.249  19.327  1.00 74.20 LIG 0.16  HD
BRANCH 46 48
ATOM     48  CA  ALA G   7      38.346   4.156  17.662  1.00 71.75 LIG 0.16  C 
ATOM     49  CB  ALA G   7      38.091   2.945  18.559  1.00 70.01 LIG 0.04  C 
BRANCH 48 50
ATOM     50  C   ALA G   7      37.205   4.306  16.630  1.00 69.94 LIG 0.22  C 
ATOM     51 O    ALA G   7      37.362   5.023  15.609  1.00 56.97 LIG-0.29  OA
ENDBRANCH 48 50
ENDBRANCH 46 48
ENDBRANCH 40 44
ENDBRANCH 29 37
ENDBRANCH 3 29
TORSDOF 18
ENDMDL
MODEL 37
USER: ADFR SOLUTION from run 39
USER: SCORE 15.385331 LL:  -4.971 LR: -10.700 RR:   0.000 FEB:  -5.331
USER: RMSD 5.920208
USER: SEED 38
USER: STATUS no improvement in best in 22 clusters for 5 generations
USER: GENES 20
USER: genes 0 Translation |==|  0.50094 0.64185 0.59275
USER: genes 1 Rotation |==|  0.50293 0.11071 0.26281 0.70538
USER: genes 2 Torsion [N]-C--CA-[N] |==|  0.95815
USER: genes 3 Torsion [C]-CA--CB-[CG] |==|  0.79714
USER: genes 4 Torsion [CA]-CB--CG-[CD1] |==|  0.27577
USER: genes 5 Torsion [C]-CA--N-[C] |==|  0.71233
USER: genes 6 Torsion [N]-C--CA-[N] |==|  0.10917
USER: genes 7 Torsion [C]-CA--CB-[CG1] |==|  0.53810
USER: genes 8 Torsion [CA]-CB--CG1-[CD1] |==|  0.46698
USER: genes 9 Torsion [C]-CA--N-[C] |==|  0.16111
USER: genes 10 Torsion [N]-C--CA-[N] |==|  0.62554
USER: genes 11 Torsion [C]-CA--CB-[CG] |==|  0.82683
USER: genes 12 Torsion [CA]-CB--CG-[OD1] |==|  0.29824
USER: genes 13 Torsion [C]-N--CA-[CB] |==|  0.85898
USER: genes 14 Torsion [N]-CA--CB-[CG] |==|  0.80127
USER: genes 15 Torsion [CA]-CB--CG-[CD1] |==|  0.66076
USER: genes 16 Torsion [N]-CA--C-[N] |==|  0.35080
USER: genes 17 Torsion [N]-CA--C-[O] |==|  0.20064
USER: genes 18 Torsion [C]-N--CA-[C] |==|  0.29510
USER: genes 19 Torsion [N]-CA--C-[O] |==|  0.23919
ROOT
ATOM      1  C   LEU G   4      39.974  10.117  24.216  1.00 61.38 LIG 0.24  C 
ATOM      2 O    LEU G   4      40.980   9.399  24.211  1.00 52.06 LIG-0.27  OA
ATOM      3  N   PHE G   5      38.738   9.689  24.032  1.00 60.80 LIG-0.35  N 
ATOM      4 H    PHE G   5      38.052  10.206  24.069  1.00 60.80 LIG 0.16  HD
ENDROOT
BRANCH 1 5
ATOM      5  CA  LEU G   4      40.077  11.602  24.403  1.00 58.56 LIG 0.18  C 
BRANCH 5 6
ATOM      6  CB  LEU G   4      40.382  11.865  25.874  1.00 61.47 LIG 0.04  C 
BRANCH 6 7
ATOM      7  CG  LEU G   4      39.209  11.632  26.802  1.00 62.80 LIG-0.02  C 
ATOM      8  CD1 LEU G   4      39.394  10.262  27.418  1.00 63.22 LIG 0.01  C 
ATOM      9  CD2 LEU G   4      39.186  12.747  27.847  1.00 64.86 LIG 0.01  C 
ENDBRANCH 6 7
ENDBRANCH 5 6
BRANCH 5 10
ATOM     10  N   LEU G   4      38.832  12.214  23.979  1.00 59.02 LIG-0.35  N 
ATOM     11 H    LEU G   4      38.181  12.133  24.534  1.00 59.02 LIG 0.16  HD
ATOM     12  C   ILE G   3      38.753  12.845  22.807  1.00 70.10 LIG 0.24  C 
ATOM     13 O    ILE G   3      39.768  13.133  22.134  1.00 64.55 LIG-0.27  OA
BRANCH 12 14
ATOM     14  CA  ILE G   3      37.326  13.209  22.317  1.00 67.83 LIG 0.18  C 
BRANCH 14 15
ATOM     15  CB  ILE G   3      37.378  14.301  21.203  1.00 66.94 LIG 0.01  C 
ATOM     16  CG2 ILE G   3      37.954  13.721  19.911  1.00 67.41 LIG 0.01  C 
BRANCH 15 17
ATOM     17  CG1 ILE G   3      35.983  14.931  20.932  1.00 59.79 LIG 0.00  C 
ATOM     18  CD1 ILE G   3      36.030  16.172  20.079  1.00 60.74 LIG 0.01  C 
ENDBRANCH 15 17
ENDBRANCH 14 15
BRANCH 14 19
ATOM     19  N   ILE G   3      36.516  13.652  23.441  1.00 79.60 LIG-0.34  N 
ATOM     20 H    ILE G   3      35.803  13.185  23.557  1.00 79.60 LIG 0.16  HD
ATOM     21  C   ASP G   2      36.846  14.685  24.221  1.00 93.07 LIG 0.26  C 
ATOM     22 O    ASP G   2      37.910  15.297  24.118  1.00 81.24 LIG-0.27  OA
BRANCH 21 23
ATOM     23  CA  ASP G   2      35.821  15.119  25.277  1.00 93.30 LIG 0.41  C 
ATOM     24  N   ASP G   2      35.710  16.606  25.242  1.00 94.60 LIG 0.61  N 
BRANCH 23 25
ATOM     25  CB  ASP G   2      34.443  14.480  25.046  1.00 96.36 LIG 0.16  C 
BRANCH 25 26
ATOM     26  CG  ASP G   2      33.826  14.888  23.726  1.00103.24 LIG 0.17  C 
ATOM     27 OD1  ASP G   2      33.773  14.056  22.799  1.00112.85 LIG-0.65  OA
ATOM     28 OD2  ASP G   2      33.385  16.042  23.611  1.00105.87 LIG-0.65  OA
ENDBRANCH 25 26
ENDBRANCH 23 25
ENDBRANCH 21 23
ENDBRANCH 14 19
ENDBRANCH 12 14
ENDBRANCH 5 10
ENDBRANCH 1 5
BRANCH 3 29
ATOM     29  CA  PHE G   5      38.411   8.320  23.751  1.00 70.05 LIG 0.18  C 
BRANCH 29 30
ATOM     30  CB  PHE G   5      39.266   7.785  22.584  1.00 73.20 LIG 0.07  C 
BRANCH 30 31
ATOM     31  CG  PHE G   5      38.865   8.372  21.240  1.00 79.36 LIG-0.06  A 
ATOM     32  CD1 PHE G   5      38.467   7.519  20.180  1.00 85.64 LIG 0.01  A 
ATOM     33  CE1 PHE G   5      38.084   8.032  18.948  1.00 88.71 LIG 0.00  A 
ATOM     34  CZ  PHE G   5      38.084   9.416  18.756  1.00 96.11 LIG 0.00  A 
ATOM     35  CE2 PHE G   5      38.459  10.278  19.800  1.00 91.53 LIG 0.00  A 
ATOM     36  CD2 PHE G   5      38.845   9.759  21.032  1.00 81.01 LIG 0.01  A 
ENDBRANCH 30 31
ENDBRANCH 29 30
BRANCH 29 37
ATOM     37  C   PHE G   5      38.605   7.568  25.063  1.00 74.26 LIG 0.24  C 
ATOM     38  N   PRO G   6      37.561   6.832  25.505  1.00 79.01 LIG-0.34  N 
ATOM     39  CD  PRO G   6      36.210   6.831  24.882  1.00 76.17 LIG 0.13  C 
ATOM     40  CA  PRO G   6      37.557   6.203  26.835  1.00 78.34 LIG 0.18  C 
ATOM     41  CG  PRO G   6      35.458   5.829  25.686  1.00 78.03 LIG 0.02  C 
ATOM     42  CB  PRO G   6      36.061   5.927  27.062  1.00 82.73 LIG 0.04  C 
ATOM     43 O    PHE G   5      39.646   7.726  25.712  1.00 61.78 LIG-0.27  OA
BRANCH 40 44
ATOM     44  C   PRO G   6      38.366   4.894  26.979  1.00 77.34 LIG 0.24  C 
ATOM     45 O    PRO G   6      39.583   4.948  26.976  1.00 92.50 LIG-0.27  OA
ATOM     46  N   ALA G   7      37.690   3.742  27.099  1.00 74.20 LIG-0.35  N 
ATOM     47 H    ALA G   7      36.875   3.698  27.370  1.00 74.20 LIG 0.16  HD
BRANCH 46 48
ATOM     48  CA  ALA G   7      38.289   2.419  26.775  1.00 71.75 LIG 0.16  C 
ATOM     49  CB  ALA G   7      39.565   2.598  25.952  1.00 70.01 LIG 0.04  C 
BRANCH 48 50
ATOM     50  C   ALA G   7      38.597   1.644  28.076  1.00 69.94 LIG 0.22  C 
ATOM     51 O    ALA G   7      37.709   0.941  28.622  1.00 56.97 LIG-0.29  OA
ENDBRANCH 48 50
ENDBRANCH 46 48
ENDBRANCH 40 44
ENDBRANCH 29 37
ENDBRANCH 3 29
TORSDOF 18
ENDMDL
MODEL 38
USER: ADFR SOLUTION from run 33
USER: SCORE 15.040318 LL:  -5.447 LR: -10.691 RR:   0.000 FEB:  -5.322
USER: RMSD 5.475808
USER: SEED 32
USER: STATUS no improvement in best in 17 clusters for 5 generations
USER: GENES 20
USER: genes 0 Translation |==|  0.42513 0.52775 0.49293
USER: genes 1 Rotation |==|  0.29846 0.70894 0.90709 0.50249
USER: genes 2 Torsion [N]-C--CA-[N] |==|  0.83339
USER: genes 3 Torsion [C]-CA--CB-[CG] |==|  0.44158
USER: genes 4 Torsion [CA]-CB--CG-[CD1] |==|  0.93264
USER: genes 5 Torsion [C]-CA--N-[C] |==|  0.70367
USER: genes 6 Torsion [N]-C--CA-[N] |==|  0.45532
USER: genes 7 Torsion [C]-CA--CB-[CG1] |==|  0.21372
USER: genes 8 Torsion [CA]-CB--CG1-[CD1] |==|  0.22658
USER: genes 9 Torsion [C]-CA--N-[C] |==|  0.61111
USER: genes 10 Torsion [N]-C--CA-[N] |==|  0.43065
USER: genes 11 Torsion [C]-CA--CB-[CG] |==|  0.81879
USER: genes 12 Torsion [CA]-CB--CG-[OD1] |==|  0.34524
USER: genes 13 Torsion [C]-N--CA-[CB] |==|  0.83658
USER: genes 14 Torsion [N]-CA--CB-[CG] |==|  0.72034
USER: genes 15 Torsion [CA]-CB--CG-[CD1] |==|  0.96419
USER: genes 16 Torsion [N]-CA--C-[N] |==|  0.48125
USER: genes 17 Torsion [N]-CA--C-[O] |==|  0.69189
USER: genes 18 Torsion [C]-N--CA-[C] |==|  0.67249
USER: genes 19 Torsion [N]-CA--C-[O] |==|  0.06387
ROOT
ATOM      1  C   LEU G   4      38.724   6.951  22.569  1.00 61.38 LIG 0.24  C 
ATOM      2 O    LEU G   4      39.754   6.283  22.429  1.00 52.06 LIG-0.27  OA
ATOM      3  N   PHE G   5      38.084   7.571  21.593  1.00 60.80 LIG-0.35  N 
ATOM      4 H    PHE G   5      37.352   8.005  21.713  1.00 60.80 LIG 0.16  HD
ENDROOT
BRANCH 1 5
ATOM      5  CA  LEU G   4      38.105   7.156  23.920  1.00 58.56 LIG 0.18  C 
BRANCH 5 6
ATOM      6  CB  LEU G   4      36.697   6.569  23.879  1.00 61.47 LIG 0.04  C 
BRANCH 6 7
ATOM      7  CG  LEU G   4      36.124   6.236  25.239  1.00 62.80 LIG-0.02  C 
ATOM      8  CD1 LEU G   4      37.295   6.016  26.174  1.00 63.22 LIG 0.01  C 
ATOM      9  CD2 LEU G   4      35.226   7.389  25.686  1.00 64.86 LIG 0.01  C 
ENDBRANCH 6 7
ENDBRANCH 5 6
BRANCH 5 10
ATOM     10  N   LEU G   4      38.103   8.574  24.224  1.00 59.02 LIG-0.35  N 
ATOM     11 H    LEU G   4      37.528   9.038  23.785  1.00 59.02 LIG 0.16  HD
ATOM     12  C   ILE G   3      38.950   9.074  25.125  1.00 70.10 LIG 0.24  C 
ATOM     13 O    ILE G   3      39.611   8.343  25.897  1.00 64.55 LIG-0.27  OA
BRANCH 12 14
ATOM     14  CA  ILE G   3      39.072  10.620  25.170  1.00 67.83 LIG 0.18  C 
BRANCH 14 15
ATOM     15  CB  ILE G   3      39.863  11.155  23.934  1.00 66.94 LIG 0.01  C 
ATOM     16  CG2 ILE G   3      41.130  10.329  23.711  1.00 67.41 LIG 0.01  C 
BRANCH 15 17
ATOM     17  CG1 ILE G   3      38.997  11.168  22.643  1.00 59.79 LIG 0.00  C 
ATOM     18  CD1 ILE G   3      38.092  12.366  22.528  1.00 60.74 LIG 0.01  C 
ENDBRANCH 15 17
ENDBRANCH 14 15
BRANCH 14 19
ATOM     19  N   ILE G   3      39.711  11.030  26.411  1.00 79.60 LIG-0.34  N 
ATOM     20 H    ILE G   3      40.360  10.520  26.649  1.00 79.60 LIG 0.16  HD
ATOM     21  C   ASP G   2      39.326  12.098  27.116  1.00 93.07 LIG 0.26  C 
ATOM     22 O    ASP G   2      38.459  12.885  26.733  1.00 81.24 LIG-0.27  OA
BRANCH 21 23
ATOM     23  CA  ASP G   2      40.003  12.319  28.475  1.00 93.30 LIG 0.41  C 
ATOM     24  N   ASP G   2      39.930  13.771  28.807  1.00 94.60 LIG 0.61  N 
BRANCH 23 25
ATOM     25  CB  ASP G   2      39.352  11.488  29.590  1.00 96.36 LIG 0.16  C 
BRANCH 25 26
ATOM     26  CG  ASP G   2      37.924  11.906  29.869  1.00103.24 LIG 0.17  C 
ATOM     27 OD1  ASP G   2      37.019  11.052  29.805  1.00112.85 LIG-0.65  OA
ATOM     28 OD2  ASP G   2      37.701  13.091  30.161  1.00105.87 LIG-0.65  OA
ENDBRANCH 25 26
ENDBRANCH 23 25
ENDBRANCH 21 23
ENDBRANCH 14 19
ENDBRANCH 12 14
ENDBRANCH 5 10
ENDBRANCH 1 5
BRANCH 3 29
ATOM     29  CA  PHE G   5      38.543   7.582  20.233  1.00 70.05 LIG 0.18  C 
BRANCH 29 30
ATOM     30  CB  PHE G   5      39.954   8.199  20.140  1.00 73.20 LIG 0.07  C 
BRANCH 30 31
ATOM     31  CG  PHE G   5      39.937   9.646  19.670  1.00 79.36 LIG-0.06  A 
ATOM     32  CD1 PHE G   5      38.758  10.200  19.114  1.00 85.64 LIG 0.01  A 
ATOM     33  CE1 PHE G   5      38.713  11.522  18.691  1.00 88.71 LIG 0.00  A 
ATOM     34  CZ  PHE G   5      39.853  12.319  18.827  1.00 96.11 LIG 0.00  A 
ATOM     35  CE2 PHE G   5      41.025  11.792  19.391  1.00 91.53 LIG 0.00  A 
ATOM     36  CD2 PHE G   5      41.066  10.466  19.811  1.00 81.01 LIG 0.01  A 
ENDBRANCH 30 31
ENDBRANCH 29 30
BRANCH 29 37
ATOM     37  C   PHE G   5      38.460   6.138  19.753  1.00 74.26 LIG 0.24  C 
ATOM     38  N   PRO G   6      38.711   5.915  18.443  1.00 79.01 LIG-0.34  N 
ATOM     39  CD  PRO G   6      38.910   6.987  17.431  1.00 76.17 LIG 0.13  C 
ATOM     40  CA  PRO G   6      38.495   4.599  17.821  1.00 78.34 LIG 0.18  C 
ATOM     41  CG  PRO G   6      39.212   6.234  16.183  1.00 78.03 LIG 0.02  C 
ATOM     42  CB  PRO G   6      38.436   4.951  16.324  1.00 82.73 LIG 0.04  C 
ATOM     43 O    PHE G   5      38.084   5.253  20.531  1.00 61.78 LIG-0.27  OA
BRANCH 40 44
ATOM     44  C   PRO G   6      39.585   3.533  18.071  1.00 77.34 LIG 0.24  C 
ATOM     45 O    PRO G   6      40.293   3.181  17.143  1.00 92.50 LIG-0.27  OA
ATOM     46  N   ALA G   7      39.710   3.032  19.309  1.00 74.20 LIG-0.35  N 
ATOM     47 H    ALA G   7      39.428   3.437  20.014  1.00 74.20 LIG 0.16  HD
BRANCH 46 48
ATOM     48  CA  ALA G   7      40.352   1.719  19.586  1.00 71.75 LIG 0.16  C 
ATOM     49  CB  ALA G   7      41.559   1.897  20.506  1.00 70.01 LIG 0.04  C 
BRANCH 48 50
ATOM     50  C   ALA G   7      39.329   0.754  20.228  1.00 69.94 LIG 0.22  C 
ATOM     51 O    ALA G   7      38.095   0.933  20.060  1.00 56.97 LIG-0.29  OA
ENDBRANCH 48 50
ENDBRANCH 46 48
ENDBRANCH 40 44
ENDBRANCH 29 37
ENDBRANCH 3 29
TORSDOF 18
ENDMDL
MODEL 39
USER: ADFR SOLUTION from run 22
USER: SCORE 14.263364 LL:  -5.817 LR: -10.672 RR:   0.000 FEB:  -5.302
USER: RMSD 10.203911
USER: SEED 21
USER: STATUS no improvement in best in 39 clusters for 5 generations
USER: GENES 20
USER: genes 0 Translation |==|  0.46187 0.50436 0.44986
USER: genes 1 Rotation |==|  0.81808 0.59040 0.87475 0.51468
USER: genes 2 Torsion [N]-C--CA-[N] |==|  0.53057
USER: genes 3 Torsion [C]-CA--CB-[CG] |==|  0.83417
USER: genes 4 Torsion [CA]-CB--CG-[CD1] |==|  0.38079
USER: genes 5 Torsion [C]-CA--N-[C] |==|  0.71113
USER: genes 6 Torsion [N]-C--CA-[N] |==|  0.01494
USER: genes 7 Torsion [C]-CA--CB-[CG1] |==|  0.23750
USER: genes 8 Torsion [CA]-CB--CG1-[CD1] |==|  0.03438
USER: genes 9 Torsion [C]-CA--N-[C] |==|  0.72675
USER: genes 10 Torsion [N]-C--CA-[N] |==|  0.48435
USER: genes 11 Torsion [C]-CA--CB-[CG] |==|  0.57213
USER: genes 12 Torsion [CA]-CB--CG-[OD1] |==|  0.92885
USER: genes 13 Torsion [C]-N--CA-[CB] |==|  0.34715
USER: genes 14 Torsion [N]-CA--CB-[CG] |==|  0.77837
USER: genes 15 Torsion [CA]-CB--CG-[CD1] |==|  0.24096
USER: genes 16 Torsion [N]-CA--C-[N] |==|  0.24127
USER: genes 17 Torsion [N]-CA--C-[O] |==|  0.62673
USER: genes 18 Torsion [C]-N--CA-[C] |==|  0.19701
USER: genes 19 Torsion [N]-CA--C-[O] |==|  0.76657
ROOT
ATOM      1  C   LEU G   4      39.330   6.302  21.859  1.00 61.38 LIG 0.24  C 
ATOM      2 O    LEU G   4      38.266   5.937  21.345  1.00 52.06 LIG-0.27  OA
ATOM      3  N   PHE G   5      39.512   7.450  22.487  1.00 60.80 LIG-0.35  N 
ATOM      4 H    PHE G   5      40.255   7.667  22.862  1.00 60.80 LIG 0.16  HD
ENDROOT
BRANCH 1 5
ATOM      5  CA  LEU G   4      40.566   5.456  21.777  1.00 58.56 LIG 0.18  C 
BRANCH 5 6
ATOM      6  CB  LEU G   4      41.713   6.354  21.324  1.00 61.47 LIG 0.04  C 
BRANCH 6 7
ATOM      7  CG  LEU G   4      41.495   7.007  19.977  1.00 62.80 LIG-0.02  C 
ATOM      8  CD1 LEU G   4      41.945   8.447  20.101  1.00 63.22 LIG 0.01  C 
ATOM      9  CD2 LEU G   4      42.290   6.232  18.926  1.00 64.86 LIG 0.01  C 
ENDBRANCH 6 7
ENDBRANCH 5 6
BRANCH 5 10
ATOM     10  N   LEU G   4      40.324   4.362  20.857  1.00 59.02 LIG-0.35  N 
ATOM     11 H    LEU G   4      40.343   4.577  20.025  1.00 59.02 LIG 0.16  HD
ATOM     12  C   ILE G   3      40.096   3.130  21.315  1.00 70.10 LIG 0.24  C 
ATOM     13 O    ILE G   3      40.296   2.815  22.508  1.00 64.55 LIG-0.27  OA
BRANCH 12 14
ATOM     14  CA  ILE G   3      39.567   2.100  20.281  1.00 67.83 LIG 0.18  C 
BRANCH 14 15
ATOM     15  CB  ILE G   3      40.429   0.798  20.297  1.00 66.94 LIG 0.01  C 
ATOM     16  CG2 ILE G   3      41.907   1.137  20.500  1.00 67.41 LIG 0.01  C 
BRANCH 15 17
ATOM     17  CG1 ILE G   3      39.956  -0.207  21.383  1.00 59.79 LIG 0.00  C 
ATOM     18  CD1 ILE G   3      38.617   0.130  21.984  1.00 60.74 LIG 0.01  C 
ENDBRANCH 15 17
ENDBRANCH 14 15
BRANCH 14 19
ATOM     19  N   ILE G   3      39.551   2.695  18.954  1.00 79.60 LIG-0.34  N 
ATOM     20 H    ILE G   3      40.315   2.683  18.561  1.00 79.60 LIG 0.16  HD
ATOM     21  C   ASP G   2      38.453   3.213  18.396  1.00 93.07 LIG 0.26  C 
ATOM     22 O    ASP G   2      37.337   3.150  18.914  1.00 81.24 LIG-0.27  OA
BRANCH 21 23
ATOM     23  CA  ASP G   2      38.624   3.931  17.051  1.00 93.30 LIG 0.41  C 
ATOM     24  N   ASP G   2      37.274   4.307  16.542  1.00 94.60 LIG 0.61  N 
BRANCH 23 25
ATOM     25  CB  ASP G   2      39.512   5.179  17.168  1.00 96.36 LIG 0.16  C 
BRANCH 25 26
ATOM     26  CG  ASP G   2      39.209   6.210  16.103  1.00103.24 LIG 0.17  C 
ATOM     27 OD1  ASP G   2      38.709   5.838  15.024  1.00112.85 LIG-0.65  OA
ATOM     28 OD2  ASP G   2      39.464   7.400  16.343  1.00105.87 LIG-0.65  OA
ENDBRANCH 25 26
ENDBRANCH 23 25
ENDBRANCH 21 23
ENDBRANCH 14 19
ENDBRANCH 12 14
ENDBRANCH 5 10
ENDBRANCH 1 5
BRANCH 3 29
ATOM     29  CA  PHE G   5      38.492   8.452  22.612  1.00 70.05 LIG 0.18  C 
BRANCH 29 30
ATOM     30  CB  PHE G   5      38.266   8.816  24.094  1.00 73.20 LIG 0.07  C 
BRANCH 30 31
ATOM     31  CG  PHE G   5      37.396   7.805  24.826  1.00 79.36 LIG-0.06  A 
ATOM     32  CD1 PHE G   5      37.982   6.659  25.418  1.00 85.64 LIG 0.01  A 
ATOM     33  CE1 PHE G   5      37.212   5.729  26.104  1.00 88.71 LIG 0.00  A 
ATOM     34  CZ  PHE G   5      35.834   5.935  26.216  1.00 96.11 LIG 0.00  A 
ATOM     35  CE2 PHE G   5      35.238   7.074  25.649  1.00 91.53 LIG 0.00  A 
ATOM     36  CD2 PHE G   5      36.014   8.001  24.961  1.00 81.01 LIG 0.01  A 
ENDBRANCH 30 31
ENDBRANCH 29 30
BRANCH 29 37
ATOM     37  C   PHE G   5      38.947   9.620  21.746  1.00 74.26 LIG 0.24  C 
ATOM     38  N   PRO G   6      38.604   9.581  20.439  1.00 79.01 LIG-0.34  N 
ATOM     39  CD  PRO G   6      37.952   8.420  19.775  1.00 76.17 LIG 0.13  C 
ATOM     40  CA  PRO G   6      39.127  10.553  19.465  1.00 78.34 LIG 0.18  C 
ATOM     41  CG  PRO G   6      37.730   8.895  18.382  1.00 78.03 LIG 0.02  C 
ATOM     42  CB  PRO G   6      38.873   9.841  18.125  1.00 82.73 LIG 0.04  C 
ATOM     43 O    PHE G   5      39.677  10.494  22.229  1.00 61.78 LIG-0.27  OA
BRANCH 40 44
ATOM     44  C   PRO G   6      38.459  11.947  19.459  1.00 77.34 LIG 0.24  C 
ATOM     45 O    PRO G   6      38.154  12.452  18.393  1.00 92.50 LIG-0.27  OA
ATOM     46  N   ALA G   7      38.242  12.552  20.637  1.00 74.20 LIG-0.35  N 
ATOM     47 H    ALA G   7      38.194  12.128  21.384  1.00 74.20 LIG 0.16  HD
BRANCH 46 48
ATOM     48  CA  ALA G   7      38.064  14.023  20.766  1.00 71.75 LIG 0.16  C 
ATOM     49  CB  ALA G   7      39.200  14.763  20.061  1.00 70.01 LIG 0.04  C 
BRANCH 48 50
ATOM     50  C   ALA G   7      36.701  14.445  20.171  1.00 69.94 LIG 0.22  C 
ATOM     51 O    ALA G   7      36.584  14.652  18.936  1.00 56.97 LIG-0.29  OA
ENDBRANCH 48 50
ENDBRANCH 46 48
ENDBRANCH 40 44
ENDBRANCH 29 37
ENDBRANCH 3 29
TORSDOF 18
ENDMDL
MODEL 40
USER: ADFR SOLUTION from run 186
USER: SCORE 14.855843 LL:  -5.050 LR: -10.646 RR:   0.000 FEB:  -5.277
USER: RMSD 4.070700
USER: SEED 185
USER: STATUS no improvement in best in 20 clusters for 5 generations
USER: GENES 20
USER: genes 0 Translation |==|  0.45510 0.49337 0.54171
USER: genes 1 Rotation |==|  0.42840 0.48507 0.41751 0.98769
USER: genes 2 Torsion [N]-C--CA-[N] |==|  0.49739
USER: genes 3 Torsion [C]-CA--CB-[CG] |==|  0.81131
USER: genes 4 Torsion [CA]-CB--CG-[CD1] |==|  0.39788
USER: genes 5 Torsion [C]-CA--N-[C] |==|  0.78202
USER: genes 6 Torsion [N]-C--CA-[N] |==|  0.41747
USER: genes 7 Torsion [C]-CA--CB-[CG1] |==|  0.88230
USER: genes 8 Torsion [CA]-CB--CG1-[CD1] |==|  0.38603
USER: genes 9 Torsion [C]-CA--N-[C] |==|  0.71452
USER: genes 10 Torsion [N]-C--CA-[N] |==|  0.91578
USER: genes 11 Torsion [C]-CA--CB-[CG] |==|  0.04115
USER: genes 12 Torsion [CA]-CB--CG-[OD1] |==|  0.25970
USER: genes 13 Torsion [C]-N--CA-[CB] |==|  0.16069
USER: genes 14 Torsion [N]-CA--CB-[CG] |==|  0.63362
USER: genes 15 Torsion [CA]-CB--CG-[CD1] |==|  0.85860
USER: genes 16 Torsion [N]-CA--C-[N] |==|  0.18331
USER: genes 17 Torsion [N]-CA--C-[O] |==|  0.41586
USER: genes 18 Torsion [C]-N--CA-[C] |==|  0.67780
USER: genes 19 Torsion [N]-CA--C-[O] |==|  0.95633
ROOT
ATOM      1  C   LEU G   4      39.218   5.997  23.374  1.00 61.38 LIG 0.24  C 
ATOM      2 O    LEU G   4      38.864   5.763  22.213  1.00 52.06 LIG-0.27  OA
ATOM      3  N   PHE G   5      39.758   5.112  24.194  1.00 60.80 LIG-0.35  N 
ATOM      4 H    PHE G   5      40.022   5.308  24.988  1.00 60.80 LIG 0.16  HD
ENDROOT
BRANCH 1 5
ATOM      5  CA  LEU G   4      39.024   7.350  23.991  1.00 58.56 LIG 0.18  C 
BRANCH 5 6
ATOM      6  CB  LEU G   4      38.122   7.180  25.209  1.00 61.47 LIG 0.04  C 
BRANCH 6 7
ATOM      7  CG  LEU G   4      36.699   6.789  24.877  1.00 62.80 LIG-0.02  C 
ATOM      8  CD1 LEU G   4      36.237   5.829  25.954  1.00 63.22 LIG 0.01  C 
ATOM      9  CD2 LEU G   4      35.847   8.056  24.817  1.00 64.86 LIG 0.01  C 
ENDBRANCH 6 7
ENDBRANCH 5 6
BRANCH 5 10
ATOM     10  N   LEU G   4      38.450   8.239  22.999  1.00 59.02 LIG-0.35  N 
ATOM     11 H    LEU G   4      37.605   8.374  23.079  1.00 59.02 LIG 0.16  HD
ATOM     12  C   ILE G   3      39.216   8.781  22.052  1.00 70.10 LIG 0.24  C 
ATOM     13 O    ILE G   3      40.466   8.740  22.100  1.00 64.55 LIG-0.27  OA
BRANCH 12 14
ATOM     14  CA  ILE G   3      38.473   9.475  20.880  1.00 67.83 LIG 0.18  C 
BRANCH 14 15
ATOM     15  CB  ILE G   3      38.114   8.449  19.759  1.00 66.94 LIG 0.01  C 
ATOM     16  CG2 ILE G   3      37.709   9.177  18.477  1.00 67.41 LIG 0.01  C 
BRANCH 15 17
ATOM     17  CG1 ILE G   3      39.279   7.462  19.470  1.00 59.79 LIG 0.00  C 
ATOM     18  CD1 ILE G   3      38.834   6.040  19.254  1.00 60.74 LIG 0.01  C 
ENDBRANCH 15 17
ENDBRANCH 14 15
BRANCH 14 19
ATOM     19  N   ILE G   3      39.286  10.559  20.350  1.00 79.60 LIG-0.34  N 
ATOM     20 H    ILE G   3      39.929  10.292  19.846  1.00 79.60 LIG 0.16  HD
ATOM     21  C   ASP G   2      39.058  11.847  20.620  1.00 93.07 LIG 0.26  C 
ATOM     22 O    ASP G   2      38.084  12.241  21.264  1.00 81.24 LIG-0.27  OA
BRANCH 21 23
ATOM     23  CA  ASP G   2      40.086  12.863  20.105  1.00 93.30 LIG 0.41  C 
ATOM     24  N   ASP G   2      41.422  12.203  20.068  1.00 94.60 LIG 0.61  N 
BRANCH 23 25
ATOM     25  CB  ASP G   2      39.722  13.401  18.713  1.00 96.36 LIG 0.16  C 
BRANCH 25 26
ATOM     26  CG  ASP G   2      38.291  13.096  18.327  1.00103.24 LIG 0.17  C 
ATOM     27 OD1  ASP G   2      37.407  13.944  18.561  1.00112.85 LIG-0.65  OA
ATOM     28 OD2  ASP G   2      38.043  12.010  17.782  1.00105.87 LIG-0.65  OA
ENDBRANCH 25 26
ENDBRANCH 23 25
ENDBRANCH 21 23
ENDBRANCH 14 19
ENDBRANCH 12 14
ENDBRANCH 5 10
ENDBRANCH 1 5
BRANCH 3 29
ATOM     29  CA  PHE G   5      39.959   3.734  23.846  1.00 70.05 LIG 0.18  C 
BRANCH 29 30
ATOM     30  CB  PHE G   5      40.840   3.615  22.585  1.00 73.20 LIG 0.07  C 
BRANCH 30 31
ATOM     31  CG  PHE G   5      40.262   2.663  21.548  1.00 79.36 LIG-0.06  A 
ATOM     32  CD1 PHE G   5      39.863   1.356  21.926  1.00 85.64 LIG 0.01  A 
ATOM     33  CE1 PHE G   5      39.320   0.473  21.002  1.00 88.71 LIG 0.00  A 
ATOM     34  CZ  PHE G   5      39.158   0.888  19.677  1.00 96.11 LIG 0.00  A 
ATOM     35  CE2 PHE G   5      39.533   2.184  19.288  1.00 91.53 LIG 0.00  A 
ATOM     36  CD2 PHE G   5      40.079   3.065  20.218  1.00 81.01 LIG 0.01  A 
ENDBRANCH 30 31
ENDBRANCH 29 30
BRANCH 29 37
ATOM     37  C   PHE G   5      40.552   3.074  25.085  1.00 74.26 LIG 0.24  C 
ATOM     38  N   PRO G   6      39.758   3.000  26.177  1.00 79.01 LIG-0.34  N 
ATOM     39  CD  PRO G   6      38.422   3.644  26.289  1.00 76.17 LIG 0.13  C 
ATOM     40  CA  PRO G   6      40.265   2.547  27.481  1.00 78.34 LIG 0.18  C 
ATOM     41  CG  PRO G   6      37.942   3.216  27.632  1.00 78.03 LIG 0.02  C 
ATOM     42  CB  PRO G   6      39.198   3.083  28.451  1.00 82.73 LIG 0.04  C 
ATOM     43 O    PHE G   5      41.739   2.723  25.085  1.00 61.78 LIG-0.27  OA
BRANCH 40 44
ATOM     44  C   PRO G   6      40.428   1.021  27.664  1.00 77.34 LIG 0.24  C 
ATOM     45 O    PRO G   6      41.300   0.603  28.406  1.00 92.50 LIG-0.27  OA
ATOM     46  N   ALA G   7      39.598   0.210  26.991  1.00 74.20 LIG-0.35  N 
ATOM     47 H    ALA G   7      38.832   0.461  26.690  1.00 74.20 LIG 0.16  HD
BRANCH 46 48
ATOM     48  CA  ALA G   7      39.922  -1.212  26.698  1.00 71.75 LIG 0.16  C 
ATOM     49  CB  ALA G   7      38.852  -2.136  27.280  1.00 70.01 LIG 0.04  C 
BRANCH 48 50
ATOM     50  C   ALA G   7      40.039  -1.425  25.172  1.00 69.94 LIG 0.22  C 
ATOM     51 O    ALA G   7      39.586  -0.565  24.374  1.00 56.97 LIG-0.29  OA
ENDBRANCH 48 50
ENDBRANCH 46 48
ENDBRANCH 40 44
ENDBRANCH 29 37
ENDBRANCH 3 29
TORSDOF 18
ENDMDL
MODEL 41
USER: ADFR SOLUTION from run 133
USER: SCORE 15.092588 LL:  -5.246 LR: -10.613 RR:   0.000 FEB:  -5.244
USER: RMSD 4.971559
USER: SEED 132
USER: STATUS no improvement in best in 20 clusters for 5 generations
USER: GENES 20
USER: genes 0 Translation |==|  0.43268 0.54234 0.53278
USER: genes 1 Rotation |==|  0.30098 0.73759 0.88482 0.57652
USER: genes 2 Torsion [N]-C--CA-[N] |==|  0.84609
USER: genes 3 Torsion [C]-CA--CB-[CG] |==|  0.37572
USER: genes 4 Torsion [CA]-CB--CG-[CD1] |==|  0.03481
USER: genes 5 Torsion [C]-CA--N-[C] |==|  0.83802
USER: genes 6 Torsion [N]-C--CA-[N] |==|  0.92473
USER: genes 7 Torsion [C]-CA--CB-[CG1] |==|  0.94506
USER: genes 8 Torsion [CA]-CB--CG1-[CD1] |==|  0.49485
USER: genes 9 Torsion [C]-CA--N-[C] |==|  0.72796
USER: genes 10 Torsion [N]-C--CA-[N] |==|  0.10194
USER: genes 11 Torsion [C]-CA--CB-[CG] |==|  0.51939
USER: genes 12 Torsion [CA]-CB--CG-[OD1] |==|  0.59296
USER: genes 13 Torsion [C]-N--CA-[CB] |==|  0.83333
USER: genes 14 Torsion [N]-CA--CB-[CG] |==|  0.32092
USER: genes 15 Torsion [CA]-CB--CG-[CD1] |==|  0.25850
USER: genes 16 Torsion [N]-CA--C-[N] |==|  0.45117
USER: genes 17 Torsion [N]-CA--C-[O] |==|  0.65611
USER: genes 18 Torsion [C]-N--CA-[C] |==|  0.84303
USER: genes 19 Torsion [N]-CA--C-[O] |==|  0.66926
ROOT
ATOM      1  C   LEU G   4      38.848   7.356  23.227  1.00 61.38 LIG 0.24  C 
ATOM      2 O    LEU G   4      39.651   6.416  23.235  1.00 52.06 LIG-0.27  OA
ATOM      3  N   PHE G   5      38.566   8.100  22.172  1.00 60.80 LIG-0.35  N 
ATOM      4 H    PHE G   5      37.981   8.731  22.186  1.00 60.80 LIG 0.16  HD
ENDROOT
BRANCH 1 5
ATOM      5  CA  LEU G   4      38.123   7.774  24.472  1.00 58.56 LIG 0.18  C 
BRANCH 5 6
ATOM      6  CB  LEU G   4      36.637   7.508  24.254  1.00 61.47 LIG 0.04  C 
BRANCH 6 7
ATOM      7  CG  LEU G   4      35.947   6.847  25.427  1.00 62.80 LIG-0.02  C 
ATOM      8  CD1 LEU G   4      36.896   6.927  26.605  1.00 63.22 LIG 0.01  C 
ATOM      9  CD2 LEU G   4      34.627   7.571  25.688  1.00 64.86 LIG 0.01  C 
ENDBRANCH 6 7
ENDBRANCH 5 6
BRANCH 5 10
ATOM     10  N   LEU G   4      38.401   9.175  24.727  1.00 59.02 LIG-0.35  N 
ATOM     11 H    LEU G   4      37.708   9.682  24.761  1.00 59.02 LIG 0.16  HD
ATOM     12  C   ILE G   3      39.656   9.596  24.891  1.00 70.10 LIG 0.24  C 
ATOM     13 O    ILE G   3      40.610   8.804  25.055  1.00 64.55 LIG-0.27  OA
BRANCH 12 14
ATOM     14  CA  ILE G   3      39.872  11.133  24.869  1.00 67.83 LIG 0.18  C 
BRANCH 14 15
ATOM     15  CB  ILE G   3      39.895  11.716  26.317  1.00 66.94 LIG 0.01  C 
ATOM     16  CG2 ILE G   3      39.218  13.087  26.353  1.00 67.41 LIG 0.01  C 
BRANCH 15 17
ATOM     17  CG1 ILE G   3      39.226  10.762  27.346  1.00 59.79 LIG 0.00  C 
ATOM     18  CD1 ILE G   3      39.267  11.269  28.763  1.00 60.74 LIG 0.01  C 
ENDBRANCH 15 17
ENDBRANCH 14 15
BRANCH 14 19
ATOM     19  N   ILE G   3      38.835  11.767  24.070  1.00 79.60 LIG-0.34  N 
ATOM     20 H    ILE G   3      38.100  11.892  24.497  1.00 79.60 LIG 0.16  HD
ATOM     21  C   ASP G   2      39.007  12.123  22.794  1.00 93.07 LIG 0.26  C 
ATOM     22 O    ASP G   2      40.085  12.032  22.206  1.00 81.24 LIG-0.27  OA
BRANCH 21 23
ATOM     23  CA  ASP G   2      37.777  12.651  22.043  1.00 93.30 LIG 0.41  C 
ATOM     24  N   ASP G   2      36.958  13.460  22.990  1.00 94.60 LIG 0.61  N 
BRANCH 23 25
ATOM     25  CB  ASP G   2      38.162  13.496  20.820  1.00 96.36 LIG 0.16  C 
BRANCH 25 26
ATOM     26  CG  ASP G   2      36.966  14.159  20.172  1.00103.24 LIG 0.17  C 
ATOM     27 OD1  ASP G   2      36.959  14.322  18.936  1.00112.85 LIG-0.65  OA
ATOM     28 OD2  ASP G   2      36.024  14.516  20.895  1.00105.87 LIG-0.65  OA
ENDBRANCH 25 26
ENDBRANCH 23 25
ENDBRANCH 21 23
ENDBRANCH 14 19
ENDBRANCH 12 14
ENDBRANCH 5 10
ENDBRANCH 1 5
BRANCH 3 29
ATOM     29  CA  PHE G   5      39.203   7.935  20.897  1.00 70.05 LIG 0.18  C 
BRANCH 29 30
ATOM     30  CB  PHE G   5      40.727   8.146  21.018  1.00 73.20 LIG 0.07  C 
BRANCH 30 31
ATOM     31  CG  PHE G   5      41.524   6.888  20.709  1.00 79.36 LIG-0.06  A 
ATOM     32  CD1 PHE G   5      42.003   6.654  19.396  1.00 85.64 LIG 0.01  A 
ATOM     33  CE1 PHE G   5      42.745   5.521  19.090  1.00 88.71 LIG 0.00  A 
ATOM     34  CZ  PHE G   5      43.030   4.600  20.103  1.00 96.11 LIG 0.00  A 
ATOM     35  CE2 PHE G   5      42.579   4.824  21.414  1.00 91.53 LIG 0.00  A 
ATOM     36  CD2 PHE G   5      41.833   5.960  21.714  1.00 81.01 LIG 0.01  A 
ENDBRANCH 30 31
ENDBRANCH 29 30
BRANCH 29 37
ATOM     37  C   PHE G   5      38.803   6.548  20.407  1.00 74.26 LIG 0.24  C 
ATOM     38  N   PRO G   6      38.967   6.295  19.089  1.00 79.01 LIG-0.34  N 
ATOM     39  CD  PRO G   6      39.365   7.314  18.081  1.00 76.17 LIG 0.13  C 
ATOM     40  CA  PRO G   6      38.460   5.064  18.463  1.00 78.34 LIG 0.18  C 
ATOM     41  CG  PRO G   6      39.468   6.531  16.819  1.00 78.03 LIG 0.02  C 
ATOM     42  CB  PRO G   6      38.440   5.441  16.971  1.00 82.73 LIG 0.04  C 
ATOM     43 O    PHE G   5      38.266   5.753  21.189  1.00 61.78 LIG-0.27  OA
BRANCH 40 44
ATOM     44  C   PRO G   6      39.304   3.787  18.674  1.00 77.34 LIG 0.24  C 
ATOM     45 O    PRO G   6      39.700   3.171  17.700  1.00 92.50 LIG-0.27  OA
ATOM     46  N   ALA G   7      39.568   3.402  19.932  1.00 74.20 LIG-0.35  N 
ATOM     47 H    ALA G   7      39.541   3.937  20.605  1.00 74.20 LIG 0.16  HD
BRANCH 46 48
ATOM     48  CA  ALA G   7      39.934   2.005  20.287  1.00 71.75 LIG 0.16  C 
ATOM     49  CB  ALA G   7      40.135   1.872  21.797  1.00 70.01 LIG 0.04  C 
BRANCH 48 50
ATOM     50  C   ALA G   7      38.834   1.031  19.807  1.00 69.94 LIG 0.22  C 
ATOM     51 O    ALA G   7      38.210   0.319  20.635  1.00 56.97 LIG-0.29  OA
ENDBRANCH 48 50
ENDBRANCH 46 48
ENDBRANCH 40 44
ENDBRANCH 29 37
ENDBRANCH 3 29
TORSDOF 18
ENDMDL
MODEL 42
USER: ADFR SOLUTION from run 23
USER: SCORE 14.390723 LL:  -5.308 LR: -10.607 RR:   0.000 FEB:  -5.237
USER: RMSD 10.756604
USER: SEED 22
USER: STATUS no improvement in best in 16 clusters for 5 generations
USER: GENES 20
USER: genes 0 Translation |==|  0.44881 0.57597 0.49477
USER: genes 1 Rotation |==|  0.18637 0.39081 0.84856 0.63497
USER: genes 2 Torsion [N]-C--CA-[N] |==|  0.35883
USER: genes 3 Torsion [C]-CA--CB-[CG] |==|  0.25908
USER: genes 4 Torsion [CA]-CB--CG-[CD1] |==|  0.38520
USER: genes 5 Torsion [C]-CA--N-[C] |==|  0.79942
USER: genes 6 Torsion [N]-C--CA-[N] |==|  0.12938
USER: genes 7 Torsion [C]-CA--CB-[CG1] |==|  0.67183
USER: genes 8 Torsion [CA]-CB--CG1-[CD1] |==|  0.52940
USER: genes 9 Torsion [C]-CA--N-[C] |==|  0.61597
USER: genes 10 Torsion [N]-C--CA-[N] |==|  0.36711
USER: genes 11 Torsion [C]-CA--CB-[CG] |==|  0.45446
USER: genes 12 Torsion [CA]-CB--CG-[OD1] |==|  0.01917
USER: genes 13 Torsion [C]-N--CA-[CB] |==|  0.18949
USER: genes 14 Torsion [N]-CA--CB-[CG] |==|  0.16648
USER: genes 15 Torsion [CA]-CB--CG-[CD1] |==|  0.73668
USER: genes 16 Torsion [N]-CA--C-[N] |==|  0.39731
USER: genes 17 Torsion [N]-CA--C-[O] |==|  0.60880
USER: genes 18 Torsion [C]-N--CA-[C] |==|  0.61177
USER: genes 19 Torsion [N]-CA--C-[O] |==|  0.67397
ROOT
ATOM      1  C   LEU G   4      39.114   8.289  22.600  1.00 61.38 LIG 0.24  C 
ATOM      2 O    LEU G   4      40.308   8.012  22.761  1.00 52.06 LIG-0.27  OA
ATOM      3  N   PHE G   5      38.623   9.515  22.543  1.00 60.80 LIG-0.35  N 
ATOM      4 H    PHE G   5      37.791   9.681  22.400  1.00 60.80 LIG 0.16  HD
ENDROOT
BRANCH 1 5
ATOM      5  CA  LEU G   4      38.072   7.216  22.486  1.00 58.56 LIG 0.18  C 
BRANCH 5 6
ATOM      6  CB  LEU G   4      37.931   6.560  23.857  1.00 61.47 LIG 0.04  C 
BRANCH 6 7
ATOM      7  CG  LEU G   4      36.842   7.158  24.721  1.00 62.80 LIG-0.02  C 
ATOM      8  CD1 LEU G   4      36.134   6.008  25.404  1.00 63.22 LIG 0.01  C 
ATOM      9  CD2 LEU G   4      37.485   8.124  25.715  1.00 64.86 LIG 0.01  C 
ENDBRANCH 6 7
ENDBRANCH 5 6
BRANCH 5 10
ATOM     10  N   LEU G   4      38.481   6.273  21.463  1.00 59.02 LIG-0.35  N 
ATOM     11 H    LEU G   4      38.743   5.509  21.758  1.00 59.02 LIG 0.16  HD
ATOM     12  C   ILE G   3      38.436   6.612  20.174  1.00 70.10 LIG 0.24  C 
ATOM     13 O    ILE G   3      37.846   7.640  19.775  1.00 64.55 LIG-0.27  OA
BRANCH 12 14
ATOM     14  CA  ILE G   3      39.157   5.656  19.187  1.00 67.83 LIG 0.18  C 
BRANCH 14 15
ATOM     15  CB  ILE G   3      38.813   6.016  17.707  1.00 66.94 LIG 0.01  C 
ATOM     16  CG2 ILE G   3      40.078   6.412  16.944  1.00 67.41 LIG 0.01  C 
BRANCH 15 17
ATOM     17  CG1 ILE G   3      38.086   4.854  16.973  1.00 59.79 LIG 0.00  C 
ATOM     18  CD1 ILE G   3      37.961   5.056  15.486  1.00 60.74 LIG 0.01  C 
ENDBRANCH 15 17
ENDBRANCH 14 15
BRANCH 14 19
ATOM     19  N   ILE G   3      38.799   4.278  19.483  1.00 79.60 LIG-0.34  N 
ATOM     20 H    ILE G   3      37.966   4.169  19.663  1.00 79.60 LIG 0.16  HD
ATOM     21  C   ASP G   2      39.680   3.273  19.475  1.00 93.07 LIG 0.26  C 
ATOM     22 O    ASP G   2      40.855   3.406  19.127  1.00 81.24 LIG-0.27  OA
BRANCH 21 23
ATOM     23  CA  ASP G   2      39.181   1.901  19.946  1.00 93.30 LIG 0.41  C 
ATOM     24  N   ASP G   2      39.611   0.876  18.952  1.00 94.60 LIG 0.61  N 
BRANCH 23 25
ATOM     25  CB  ASP G   2      39.708   1.539  21.342  1.00 96.36 LIG 0.16  C 
BRANCH 25 26
ATOM     26  CG  ASP G   2      38.933   0.408  21.982  1.00103.24 LIG 0.17  C 
ATOM     27 OD1  ASP G   2      38.072  -0.193  21.309  1.00112.85 LIG-0.65  OA
ATOM     28 OD2  ASP G   2      39.186   0.108  23.159  1.00105.87 LIG-0.65  OA
ENDBRANCH 25 26
ENDBRANCH 23 25
ENDBRANCH 21 23
ENDBRANCH 14 19
ENDBRANCH 12 14
ENDBRANCH 5 10
ENDBRANCH 1 5
BRANCH 3 29
ATOM     29  CA  PHE G   5      39.423  10.694  22.712  1.00 70.05 LIG 0.18  C 
BRANCH 29 30
ATOM     30  CB  PHE G   5      40.394  10.868  21.526  1.00 73.20 LIG 0.07  C 
BRANCH 30 31
ATOM     31  CG  PHE G   5      39.677  11.000  20.190  1.00 79.36 LIG-0.06  A 
ATOM     32  CD1 PHE G   5      39.476   9.858  19.375  1.00 85.64 LIG 0.01  A 
ATOM     33  CE1 PHE G   5      38.812   9.950  18.159  1.00 88.71 LIG 0.00  A 
ATOM     34  CZ  PHE G   5      38.329  11.192  17.738  1.00 96.11 LIG 0.00  A 
ATOM     35  CE2 PHE G   5      38.505  12.331  18.540  1.00 91.53 LIG 0.00  A 
ATOM     36  CD2 PHE G   5      39.173  12.235  19.757  1.00 81.01 LIG 0.01  A 
ENDBRANCH 30 31
ENDBRANCH 29 30
BRANCH 29 37
ATOM     37  C   PHE G   5      38.438  11.844  22.886  1.00 74.26 LIG 0.24  C 
ATOM     38  N   PRO G   6      38.782  12.817  23.760  1.00 79.01 LIG-0.34  N 
ATOM     39  CD  PRO G   6      39.969  12.759  24.656  1.00 76.17 LIG 0.13  C 
ATOM     40  CA  PRO G   6      37.848  13.885  24.146  1.00 78.34 LIG 0.18  C 
ATOM     41  CG  PRO G   6      39.939  14.072  25.356  1.00 78.03 LIG 0.02  C 
ATOM     42  CB  PRO G   6      38.474  14.412  25.449  1.00 82.73 LIG 0.04  C 
ATOM     43 O    PHE G   5      37.343  11.807  22.311  1.00 61.78 LIG-0.27  OA
BRANCH 40 44
ATOM     44  C   PRO G   6      37.672  15.043  23.138  1.00 77.34 LIG 0.24  C 
ATOM     45 O    PRO G   6      37.570  16.182  23.558  1.00 92.50 LIG-0.27  OA
ATOM     46  N   ALA G   7      37.636  14.745  21.830  1.00 74.20 LIG-0.35  N 
ATOM     47 H    ALA G   7      37.966  14.022  21.501  1.00 74.20 LIG 0.16  HD
BRANCH 46 48
ATOM     48  CA  ALA G   7      37.019  15.642  20.816  1.00 71.75 LIG 0.16  C 
ATOM     49  CB  ALA G   7      38.091  16.480  20.121  1.00 70.01 LIG 0.04  C 
BRANCH 48 50
ATOM     50  C   ALA G   7      36.237  14.807  19.778  1.00 69.94 LIG 0.22  C 
ATOM     51 O    ALA G   7      36.580  14.814  18.568  1.00 56.97 LIG-0.29  OA
ENDBRANCH 48 50
ENDBRANCH 46 48
ENDBRANCH 40 44
ENDBRANCH 29 37
ENDBRANCH 3 29
TORSDOF 18
ENDMDL
MODEL 43
USER: ADFR SOLUTION from run 25
USER: SCORE 15.618102 LL:  -5.604 LR: -10.599 RR:   0.000 FEB:  -5.230
USER: RMSD 4.262162
USER: SEED 24
USER: STATUS no improvement in best in 21 clusters for 5 generations
USER: GENES 20
USER: genes 0 Translation |==|  0.45418 0.55133 0.49046
USER: genes 1 Rotation |==|  0.70084 0.22342 0.13509 0.50217
USER: genes 2 Torsion [N]-C--CA-[N] |==|  0.91186
USER: genes 3 Torsion [C]-CA--CB-[CG] |==|  0.51631
USER: genes 4 Torsion [CA]-CB--CG-[CD1] |==|  0.51489
USER: genes 5 Torsion [C]-CA--N-[C] |==|  0.82034
USER: genes 6 Torsion [N]-C--CA-[N] |==|  0.29752
USER: genes 7 Torsion [C]-CA--CB-[CG1] |==|  0.53004
USER: genes 8 Torsion [CA]-CB--CG1-[CD1] |==|  0.63825
USER: genes 9 Torsion [C]-CA--N-[C] |==|  0.64944
USER: genes 10 Torsion [N]-C--CA-[N] |==|  0.61003
USER: genes 11 Torsion [C]-CA--CB-[CG] |==|  0.73164
USER: genes 12 Torsion [CA]-CB--CG-[OD1] |==|  0.80700
USER: genes 13 Torsion [C]-N--CA-[CB] |==|  0.85379
USER: genes 14 Torsion [N]-CA--CB-[CG] |==|  0.35306
USER: genes 15 Torsion [CA]-CB--CG-[CD1] |==|  0.27196
USER: genes 16 Torsion [N]-CA--C-[N] |==|  0.42222
USER: genes 17 Torsion [N]-CA--C-[O] |==|  0.78560
USER: genes 18 Torsion [C]-N--CA-[C] |==|  0.55579
USER: genes 19 Torsion [N]-CA--C-[O] |==|  0.13076
ROOT
ATOM      1  C   LEU G   4      39.203   7.606  22.529  1.00 61.38 LIG 0.24  C 
ATOM      2 O    LEU G   4      40.164   6.840  22.662  1.00 52.06 LIG-0.27  OA
ATOM      3  N   PHE G   5      38.672   7.960  21.371  1.00 60.80 LIG-0.35  N 
ATOM      4 H    PHE G   5      37.984   8.472  21.308  1.00 60.80 LIG 0.16  HD
ENDROOT
BRANCH 1 5
ATOM      5  CA  LEU G   4      38.553   8.255  23.714  1.00 58.56 LIG 0.18  C 
BRANCH 5 6
ATOM      6  CB  LEU G   4      37.419   7.345  24.178  1.00 61.47 LIG 0.04  C 
BRANCH 6 7
ATOM      7  CG  LEU G   4      36.570   7.929  25.286  1.00 62.80 LIG-0.02  C 
ATOM      8  CD1 LEU G   4      35.592   6.854  25.710  1.00 63.22 LIG 0.01  C 
ATOM      9  CD2 LEU G   4      37.490   8.367  26.425  1.00 64.86 LIG 0.01  C 
ENDBRANCH 6 7
ENDBRANCH 5 6
BRANCH 5 10
ATOM     10  N   LEU G   4      38.082   9.571  23.327  1.00 59.02 LIG-0.35  N 
ATOM     11 H    LEU G   4      37.228   9.672  23.351  1.00 59.02 LIG 0.16  HD
ATOM     12  C   ILE G   3      38.946  10.521  22.968  1.00 70.10 LIG 0.24  C 
ATOM     13 O    ILE G   3      40.177  10.408  23.157  1.00 64.55 LIG-0.27  OA
BRANCH 12 14
ATOM     14  CA  ILE G   3      38.340  11.784  22.300  1.00 67.83 LIG 0.18  C 
BRANCH 14 15
ATOM     15  CB  ILE G   3      39.086  12.128  20.972  1.00 66.94 LIG 0.01  C 
ATOM     16  CG2 ILE G   3      38.825  11.051  19.918  1.00 67.41 LIG 0.01  C 
BRANCH 15 17
ATOM     17  CG1 ILE G   3      38.690  13.525  20.420  1.00 59.79 LIG 0.00  C 
ATOM     18  CD1 ILE G   3      38.306  13.519  18.964  1.00 60.74 LIG 0.01  C 
ENDBRANCH 15 17
ENDBRANCH 14 15
BRANCH 14 19
ATOM     19  N   ILE G   3      38.389  12.904  23.227  1.00 79.60 LIG-0.34  N 
ATOM     20 H    ILE G   3      39.173  13.055  23.545  1.00 79.60 LIG 0.16  HD
ATOM     21  C   ASP G   2      37.317  13.632  23.555  1.00 93.07 LIG 0.26  C 
ATOM     22 O    ASP G   2      36.212  13.481  23.033  1.00 81.24 LIG-0.27  OA
BRANCH 21 23
ATOM     23  CA  ASP G   2      37.499  14.689  24.652  1.00 93.30 LIG 0.41  C 
ATOM     24  N   ASP G   2      36.283  14.686  25.516  1.00 94.60 LIG 0.61  N 
BRANCH 23 25
ATOM     25  CB  ASP G   2      38.752  14.434  25.502  1.00 96.36 LIG 0.16  C 
BRANCH 25 26
ATOM     26  CG  ASP G   2      38.445  13.691  26.784  1.00103.24 LIG 0.17  C 
ATOM     27 OD1  ASP G   2      37.806  14.272  27.684  1.00112.85 LIG-0.65  OA
ATOM     28 OD2  ASP G   2      38.834  12.518  26.896  1.00105.87 LIG-0.65  OA
ENDBRANCH 25 26
ENDBRANCH 23 25
ENDBRANCH 21 23
ENDBRANCH 14 19
ENDBRANCH 12 14
ENDBRANCH 5 10
ENDBRANCH 1 5
BRANCH 3 29
ATOM     29  CA  PHE G   5      39.185   7.527  20.103  1.00 70.05 LIG 0.18  C 
BRANCH 29 30
ATOM     30  CB  PHE G   5      40.695   7.827  19.996  1.00 73.20 LIG 0.07  C 
BRANCH 30 31
ATOM     31  CG  PHE G   5      41.515   6.604  19.613  1.00 79.36 LIG-0.06  A 
ATOM     32  CD1 PHE G   5      41.902   6.399  18.265  1.00 85.64 LIG 0.01  A 
ATOM     33  CE1 PHE G   5      42.662   5.299  17.893  1.00 88.71 LIG 0.00  A 
ATOM     34  CZ  PHE G   5      43.059   4.383  18.871  1.00 96.11 LIG 0.00  A 
ATOM     35  CE2 PHE G   5      42.699   4.577  20.214  1.00 91.53 LIG 0.00  A 
ATOM     36  CD2 PHE G   5      41.934   5.681  20.582  1.00 81.01 LIG 0.01  A 
ENDBRANCH 30 31
ENDBRANCH 29 30
BRANCH 29 37
ATOM     37  C   PHE G   5      38.834   6.048  19.993  1.00 74.26 LIG 0.24  C 
ATOM     38  N   PRO G   6      38.667   5.550  18.747  1.00 79.01 LIG-0.34  N 
ATOM     39  CD  PRO G   6      38.657   6.374  17.508  1.00 76.17 LIG 0.13  C 
ATOM     40  CA  PRO G   6      38.159   4.190  18.512  1.00 78.34 LIG 0.18  C 
ATOM     41  CG  PRO G   6      38.509   5.366  16.423  1.00 78.03 LIG 0.02  C 
ATOM     42  CB  PRO G   6      37.695   4.263  17.047  1.00 82.73 LIG 0.04  C 
ATOM     43 O    PHE G   5      38.624   5.390  21.020  1.00 61.78 LIG-0.27  OA
BRANCH 40 44
ATOM     44  C   PRO G   6      39.173   3.037  18.690  1.00 77.34 LIG 0.24  C 
ATOM     45 O    PRO G   6      39.990   2.828  17.810  1.00 92.50 LIG-0.27  OA
ATOM     46  N   ALA G   7      39.111   2.305  19.812  1.00 74.20 LIG-0.35  N 
ATOM     47 H    ALA G   7      38.746   2.584  20.539  1.00 74.20 LIG 0.16  HD
BRANCH 46 48
ATOM     48  CA  ALA G   7      39.669   0.930  19.908  1.00 71.75 LIG 0.16  C 
ATOM     49  CB  ALA G   7      41.188   0.980  20.076  1.00 70.01 LIG 0.04  C 
BRANCH 48 50
ATOM     50  C   ALA G   7      39.025   0.178  21.096  1.00 69.94 LIG 0.22  C 
ATOM     51 O    ALA G   7      37.779   0.199  21.259  1.00 56.97 LIG-0.29  OA
ENDBRANCH 48 50
ENDBRANCH 46 48
ENDBRANCH 40 44
ENDBRANCH 29 37
ENDBRANCH 3 29
TORSDOF 18
ENDMDL
MODEL 44
USER: ADFR SOLUTION from run 25
USER: SCORE 14.419112 LL:  -4.876 LR: -10.602 RR:   0.000 FEB:  -5.232
USER: RMSD 5.621236
USER: SEED 24
USER: STATUS no improvement in best in 21 clusters for 5 generations
USER: GENES 20
USER: genes 0 Translation |==|  0.42231 0.61131 0.58679
USER: genes 1 Rotation |==|  0.45827 0.93395 0.51313 0.74449
USER: genes 2 Torsion [N]-C--CA-[N] |==|  0.30710
USER: genes 3 Torsion [C]-CA--CB-[CG] |==|  0.34386
USER: genes 4 Torsion [CA]-CB--CG-[CD1] |==|  0.82799
USER: genes 5 Torsion [C]-CA--N-[C] |==|  0.77950
USER: genes 6 Torsion [N]-C--CA-[N] |==|  0.05491
USER: genes 7 Torsion [C]-CA--CB-[CG1] |==|  0.82267
USER: genes 8 Torsion [CA]-CB--CG1-[CD1] |==|  0.48122
USER: genes 9 Torsion [C]-CA--N-[C] |==|  0.65941
USER: genes 10 Torsion [N]-C--CA-[N] |==|  0.58998
USER: genes 11 Torsion [C]-CA--CB-[CG] |==|  0.74942
USER: genes 12 Torsion [CA]-CB--CG-[OD1] |==|  0.80107
USER: genes 13 Torsion [C]-N--CA-[CB] |==|  0.52411
USER: genes 14 Torsion [N]-CA--CB-[CG] |==|  0.83036
USER: genes 15 Torsion [CA]-CB--CG-[CD1] |==|  0.02125
USER: genes 16 Torsion [N]-CA--C-[N] |==|  0.29444
USER: genes 17 Torsion [N]-CA--C-[O] |==|  0.67493
USER: genes 18 Torsion [C]-N--CA-[C] |==|  0.92349
USER: genes 19 Torsion [N]-CA--C-[O] |==|  0.30207
ROOT
ATOM      1  C   LEU G   4      38.677   9.270  24.118  1.00 61.38 LIG 0.24  C 
ATOM      2 O    LEU G   4      37.882   9.150  25.057  1.00 52.06 LIG-0.27  OA
ATOM      3  N   PHE G   5      38.819   8.402  23.131  1.00 60.80 LIG-0.35  N 
ATOM      4 H    PHE G   5      39.360   8.523  22.474  1.00 60.80 LIG 0.16  HD
ENDROOT
BRANCH 1 5
ATOM      5  CA  LEU G   4      39.614  10.438  24.033  1.00 58.56 LIG 0.18  C 
BRANCH 5 6
ATOM      6  CB  LEU G   4      40.339  10.550  25.370  1.00 61.47 LIG 0.04  C 
BRANCH 6 7
ATOM      7  CG  LEU G   4      41.848  10.514  25.263  1.00 62.80 LIG-0.02  C 
ATOM      8  CD1 LEU G   4      42.220   9.170  24.673  1.00 63.22 LIG 0.01  C 
ATOM      9  CD2 LEU G   4      42.302  11.683  24.390  1.00 64.86 LIG 0.01  C 
ENDBRANCH 6 7
ENDBRANCH 5 6
BRANCH 5 10
ATOM     10  N   LEU G   4      38.849  11.629  23.718  1.00 59.02 LIG-0.35  N 
ATOM     11 H    LEU G   4      38.679  12.139  24.389  1.00 59.02 LIG 0.16  HD
ATOM     12  C   ILE G   3      38.460  11.873  22.466  1.00 70.10 LIG 0.24  C 
ATOM     13 O    ILE G   3      38.910  11.231  21.491  1.00 64.55 LIG-0.27  OA
BRANCH 12 14
ATOM     14  CA  ILE G   3      37.413  13.003  22.279  1.00 67.83 LIG 0.18  C 
BRANCH 14 15
ATOM     15  CB  ILE G   3      37.694  13.818  20.977  1.00 66.94 LIG 0.01  C 
ATOM     16  CG2 ILE G   3      36.560  14.808  20.709  1.00 67.41 LIG 0.01  C 
BRANCH 15 17
ATOM     17  CG1 ILE G   3      39.056  14.565  21.034  1.00 59.79 LIG 0.00  C 
ATOM     18  CD1 ILE G   3      39.441  15.230  19.739  1.00 60.74 LIG 0.01  C 
ENDBRANCH 15 17
ENDBRANCH 14 15
BRANCH 14 19
ATOM     19  N   ILE G   3      37.411  13.873  23.445  1.00 79.60 LIG-0.34  N 
ATOM     20 H    ILE G   3      38.177  14.224  23.614  1.00 79.60 LIG 0.16  HD
ATOM     21  C   ASP G   2      36.323  14.107  24.184  1.00 93.07 LIG 0.26  C 
ATOM     22 O    ASP G   2      35.203  13.683  23.893  1.00 81.24 LIG-0.27  OA
BRANCH 21 23
ATOM     23  CA  ASP G   2      36.511  14.933  25.463  1.00 93.30 LIG 0.41  C 
ATOM     24  N   ASP G   2      35.530  14.456  26.480  1.00 94.60 LIG 0.61  N 
BRANCH 23 25
ATOM     25  CB  ASP G   2      37.940  14.829  26.017  1.00 96.36 LIG 0.16  C 
BRANCH 25 26
ATOM     26  CG  ASP G   2      38.102  13.688  26.998  1.00103.24 LIG 0.17  C 
ATOM     27 OD1  ASP G   2      37.581  13.781  28.127  1.00112.85 LIG-0.65  OA
ATOM     28 OD2  ASP G   2      38.746  12.689  26.643  1.00105.87 LIG-0.65  OA
ENDBRANCH 25 26
ENDBRANCH 23 25
ENDBRANCH 21 23
ENDBRANCH 14 19
ENDBRANCH 12 14
ENDBRANCH 5 10
ENDBRANCH 1 5
BRANCH 3 29
ATOM     29  CA  PHE G   5      38.087   7.170  23.053  1.00 70.05 LIG 0.18  C 
BRANCH 29 30
ATOM     30  CB  PHE G   5      38.630   6.286  21.911  1.00 73.20 LIG 0.07  C 
BRANCH 30 31
ATOM     31  CG  PHE G   5      38.504   6.943  20.545  1.00 79.36 LIG-0.06  A 
ATOM     32  CD1 PHE G   5      38.087   8.294  20.440  1.00 85.64 LIG 0.01  A 
ATOM     33  CE1 PHE G   5      37.979   8.921  19.206  1.00 88.71 LIG 0.00  A 
ATOM     34  CZ  PHE G   5      38.296   8.204  18.048  1.00 96.11 LIG 0.00  A 
ATOM     35  CE2 PHE G   5      38.726   6.871  18.133  1.00 91.53 LIG 0.00  A 
ATOM     36  CD2 PHE G   5      38.831   6.246  19.373  1.00 81.01 LIG 0.01  A 
ENDBRANCH 30 31
ENDBRANCH 29 30
BRANCH 29 37
ATOM     37  C   PHE G   5      38.192   6.535  24.435  1.00 74.26 LIG 0.24  C 
ATOM     38  N   PRO G   6      37.085   6.576  25.211  1.00 79.01 LIG-0.34  N 
ATOM     39  CD  PRO G   6      35.844   7.319  24.866  1.00 76.17 LIG 0.13  C 
ATOM     40  CA  PRO G   6      37.105   6.157  26.622  1.00 78.34 LIG 0.18  C 
ATOM     41  CG  PRO G   6      34.923   6.998  25.990  1.00 78.03 LIG 0.02  C 
ATOM     42  CB  PRO G   6      35.832   6.819  27.177  1.00 82.73 LIG 0.04  C 
ATOM     43 O    PHE G   5      39.281   6.101  24.830  1.00 61.78 LIG-0.27  OA
BRANCH 40 44
ATOM     44  C   PRO G   6      37.070   4.635  26.888  1.00 77.34 LIG 0.24  C 
ATOM     45 O    PRO G   6      36.121   4.162  27.487  1.00 92.50 LIG-0.27  OA
ATOM     46  N   ALA G   7      38.095   3.891  26.447  1.00 74.20 LIG-0.35  N 
ATOM     47 H    ALA G   7      38.619   4.137  25.811  1.00 74.20 LIG 0.16  HD
BRANCH 46 48
ATOM     48  CA  ALA G   7      38.427   2.558  27.018  1.00 71.75 LIG 0.16  C 
ATOM     49  CB  ALA G   7      39.929   2.294  26.921  1.00 70.01 LIG 0.04  C 
BRANCH 48 50
ATOM     50  C   ALA G   7      37.965   2.483  28.491  1.00 69.94 LIG 0.22  C 
ATOM     51 O    ALA G   7      36.982   1.768  28.813  1.00 56.97 LIG-0.29  OA
ENDBRANCH 48 50
ENDBRANCH 46 48
ENDBRANCH 40 44
ENDBRANCH 29 37
ENDBRANCH 3 29
TORSDOF 18
ENDMDL
MODEL 45
USER: ADFR SOLUTION from run 155
USER: SCORE 14.455951 LL:  -5.079 LR: -10.586 RR:   0.000 FEB:  -5.216
USER: RMSD 10.519417
USER: SEED 154
USER: STATUS no improvement in best in 12 clusters for 5 generations
USER: GENES 20
USER: genes 0 Translation |==|  0.37606 0.50142 0.60130
USER: genes 1 Rotation |==|  0.75224 0.61994 0.69714 0.86486
USER: genes 2 Torsion [N]-C--CA-[N] |==|  0.88150
USER: genes 3 Torsion [C]-CA--CB-[CG] |==|  0.20280
USER: genes 4 Torsion [CA]-CB--CG-[CD1] |==|  0.72421
USER: genes 5 Torsion [C]-CA--N-[C] |==|  0.58889
USER: genes 6 Torsion [N]-C--CA-[N] |==|  0.49340
USER: genes 7 Torsion [C]-CA--CB-[CG1] |==|  0.62419
USER: genes 8 Torsion [CA]-CB--CG1-[CD1] |==|  0.43995
USER: genes 9 Torsion [C]-CA--N-[C] |==|  0.63117
USER: genes 10 Torsion [N]-C--CA-[N] |==|  0.66507
USER: genes 11 Torsion [C]-CA--CB-[CG] |==|  0.76854
USER: genes 12 Torsion [CA]-CB--CG-[OD1] |==|  0.30132
USER: genes 13 Torsion [C]-N--CA-[CB] |==|  0.86615
USER: genes 14 Torsion [N]-CA--CB-[CG] |==|  0.49846
USER: genes 15 Torsion [CA]-CB--CG-[CD1] |==|  0.28174
USER: genes 16 Torsion [N]-CA--C-[N] |==|  0.39333
USER: genes 17 Torsion [N]-CA--C-[O] |==|  0.85597
USER: genes 18 Torsion [C]-N--CA-[C] |==|  0.80154
USER: genes 19 Torsion [N]-CA--C-[O] |==|  0.97486
ROOT
ATOM      1  C   LEU G   4      37.914   6.220  24.358  1.00 61.38 LIG 0.24  C 
ATOM      2 O    LEU G   4      36.821   6.547  23.883  1.00 52.06 LIG-0.27  OA
ATOM      3  N   PHE G   5      39.087   6.496  23.816  1.00 60.80 LIG-0.35  N 
ATOM      4 H    PHE G   5      39.835   6.282  24.182  1.00 60.80 LIG 0.16  HD
ENDROOT
BRANCH 1 5
ATOM      5  CA  LEU G   4      38.007   5.418  25.621  1.00 58.56 LIG 0.18  C 
BRANCH 5 6
ATOM      6  CB  LEU G   4      38.371   6.375  26.753  1.00 61.47 LIG 0.04  C 
BRANCH 6 7
ATOM      7  CG  LEU G   4      37.241   7.285  27.182  1.00 62.80 LIG-0.02  C 
ATOM      8  CD1 LEU G   4      37.467   8.623  26.510  1.00 63.22 LIG 0.01  C 
ATOM      9  CD2 LEU G   4      35.916   6.642  26.775  1.00 64.86 LIG 0.01  C 
ENDBRANCH 6 7
ENDBRANCH 5 6
BRANCH 5 10
ATOM     10  N   LEU G   4      38.999   4.375  25.441  1.00 59.02 LIG-0.35  N 
ATOM     11 H    LEU G   4      39.651   4.580  24.920  1.00 59.02 LIG 0.16  HD
ATOM     12  C   ILE G   3      38.866   3.201  26.060  1.00 70.10 LIG 0.24  C 
ATOM     13 O    ILE G   3      38.032   3.019  26.975  1.00 64.55 LIG-0.27  OA
BRANCH 12 14
ATOM     14  CA  ILE G   3      39.807   2.063  25.583  1.00 67.83 LIG 0.18  C 
BRANCH 14 15
ATOM     15  CB  ILE G   3      39.599   1.762  24.065  1.00 66.94 LIG 0.01  C 
ATOM     16  CG2 ILE G   3      40.709   2.408  23.235  1.00 67.41 LIG 0.01  C 
BRANCH 15 17
ATOM     17  CG1 ILE G   3      39.528   0.237  23.772  1.00 59.79 LIG 0.00  C 
ATOM     18  CD1 ILE G   3      38.837  -0.103  22.478  1.00 60.74 LIG 0.01  C 
ENDBRANCH 15 17
ENDBRANCH 14 15
BRANCH 14 19
ATOM     19  N   ILE G   3      39.584   0.869  26.384  1.00 79.60 LIG-0.34  N 
ATOM     20 H    ILE G   3      38.753   0.668  26.479  1.00 79.60 LIG 0.16  HD
ATOM     21  C   ASP G   2      40.574   0.150  26.921  1.00 93.07 LIG 0.26  C 
ATOM     22 O    ASP G   2      41.766   0.378  26.711  1.00 81.24 LIG-0.27  OA
BRANCH 21 23
ATOM     23  CA  ASP G   2      40.176  -0.999  27.857  1.00 93.30 LIG 0.41  C 
ATOM     24  N   ASP G   2      40.785  -0.750  29.195  1.00 94.60 LIG 0.61  N 
BRANCH 23 25
ATOM     25  CB  ASP G   2      38.652  -1.140  27.987  1.00 96.36 LIG 0.16  C 
BRANCH 25 26
ATOM     26  CG  ASP G   2      38.065  -0.194  29.013  1.00103.24 LIG 0.17  C 
ATOM     27 OD1  ASP G   2      37.386   0.776  28.624  1.00112.85 LIG-0.65  OA
ATOM     28 OD2  ASP G   2      38.275  -0.420  30.214  1.00105.87 LIG-0.65  OA
ENDBRANCH 25 26
ENDBRANCH 23 25
ENDBRANCH 21 23
ENDBRANCH 14 19
ENDBRANCH 12 14
ENDBRANCH 5 10
ENDBRANCH 1 5
BRANCH 3 29
ATOM     29  CA  PHE G   5      39.236   7.180  22.563  1.00 70.05 LIG 0.18  C 
BRANCH 29 30
ATOM     30  CB  PHE G   5      38.318   6.558  21.490  1.00 73.20 LIG 0.07  C 
BRANCH 30 31
ATOM     31  CG  PHE G   5      38.426   7.255  20.142  1.00 79.36 LIG-0.06  A 
ATOM     32  CD1 PHE G   5      39.194   6.676  19.101  1.00 85.64 LIG 0.01  A 
ATOM     33  CE1 PHE G   5      39.297   7.285  17.858  1.00 88.71 LIG 0.00  A 
ATOM     34  CZ  PHE G   5      38.621   8.487  17.630  1.00 96.11 LIG 0.00  A 
ATOM     35  CE2 PHE G   5      37.842   9.067  18.645  1.00 91.53 LIG 0.00  A 
ATOM     36  CD2 PHE G   5      37.745   8.454  19.890  1.00 81.01 LIG 0.01  A 
ENDBRANCH 30 31
ENDBRANCH 29 30
BRANCH 29 37
ATOM     37  C   PHE G   5      38.948   8.649  22.853  1.00 74.26 LIG 0.24  C 
ATOM     38  N   PRO G   6      39.711   9.560  22.208  1.00 79.01 LIG-0.34  N 
ATOM     39  CD  PRO G   6      40.890   9.223  21.365  1.00 76.17 LIG 0.13  C 
ATOM     40  CA  PRO G   6      39.653  10.994  22.529  1.00 78.34 LIG 0.18  C 
ATOM     41  CG  PRO G   6      41.332  10.544  20.841  1.00 78.03 LIG 0.02  C 
ATOM     42  CB  PRO G   6      40.972  11.517  21.933  1.00 82.73 LIG 0.04  C 
ATOM     43 O    PHE G   5      38.116   8.952  23.716  1.00 61.78 LIG-0.27  OA
BRANCH 40 44
ATOM     44  C   PRO G   6      38.459  11.781  21.945  1.00 77.34 LIG 0.24  C 
ATOM     45 O    PRO G   6      38.228  11.704  20.750  1.00 92.50 LIG-0.27  OA
ATOM     46  N   ALA G   7      37.719  12.526  22.780  1.00 74.20 LIG-0.35  N 
ATOM     47 H    ALA G   7      37.686  12.391  23.629  1.00 74.20 LIG 0.16  HD
BRANCH 46 48
ATOM     48  CA  ALA G   7      36.879  13.663  22.317  1.00 71.75 LIG 0.16  C 
ATOM     49  CB  ALA G   7      35.915  14.099  23.420  1.00 70.01 LIG 0.04  C 
BRANCH 48 50
ATOM     50  C   ALA G   7      37.778  14.847  21.895  1.00 69.94 LIG 0.22  C 
ATOM     51 O    ALA G   7      39.014  14.822  22.128  1.00 56.97 LIG-0.29  OA
ENDBRANCH 48 50
ENDBRANCH 46 48
ENDBRANCH 40 44
ENDBRANCH 29 37
ENDBRANCH 3 29
TORSDOF 18
ENDMDL
MODEL 46
USER: ADFR SOLUTION from run 69
USER: SCORE 14.577200 LL:  -5.472 LR: -10.580 RR:   0.000 FEB:  -5.211
USER: RMSD 2.814904
USER: SEED 68
USER: STATUS no improvement in best in 15 clusters for 5 generations
USER: GENES 20
USER: genes 0 Translation |==|  0.46151 0.49599 0.54844
USER: genes 1 Rotation |==|  0.55738 0.37531 0.46290 0.97936
USER: genes 2 Torsion [N]-C--CA-[N] |==|  0.49758
USER: genes 3 Torsion [C]-CA--CB-[CG] |==|  0.45765
USER: genes 4 Torsion [CA]-CB--CG-[CD1] |==|  0.90696
USER: genes 5 Torsion [C]-CA--N-[C] |==|  0.74058
USER: genes 6 Torsion [N]-C--CA-[N] |==|  0.44239
USER: genes 7 Torsion [C]-CA--CB-[CG1] |==|  0.18629
USER: genes 8 Torsion [CA]-CB--CG1-[CD1] |==|  0.32262
USER: genes 9 Torsion [C]-CA--N-[C] |==|  0.65464
USER: genes 10 Torsion [N]-C--CA-[N] |==|  0.53687
USER: genes 11 Torsion [C]-CA--CB-[CG] |==|  0.80633
USER: genes 12 Torsion [CA]-CB--CG-[OD1] |==|  0.34494
USER: genes 13 Torsion [C]-N--CA-[CB] |==|  0.27079
USER: genes 14 Torsion [N]-CA--CB-[CG] |==|  0.39075
USER: genes 15 Torsion [CA]-CB--CG-[CD1] |==|  0.22431
USER: genes 16 Torsion [N]-CA--C-[N] |==|  0.37902
USER: genes 17 Torsion [N]-CA--C-[O] |==|  0.96708
USER: genes 18 Torsion [C]-N--CA-[C] |==|  0.76061
USER: genes 19 Torsion [N]-CA--C-[O] |==|  0.01582
ROOT
ATOM      1  C   LEU G   4      39.324   6.070  23.485  1.00 61.38 LIG 0.24  C 
ATOM      2 O    LEU G   4      39.573   6.346  22.307  1.00 52.06 LIG-0.27  OA
ATOM      3  N   PHE G   5      39.748   4.988  24.115  1.00 60.80 LIG-0.35  N 
ATOM      4 H    PHE G   5      39.584   4.834  24.945  1.00 60.80 LIG 0.16  HD
ENDROOT
BRANCH 1 5
ATOM      5  CA  LEU G   4      38.453   6.955  24.327  1.00 58.56 LIG 0.18  C 
BRANCH 5 6
ATOM      6  CB  LEU G   4      37.250   6.130  24.776  1.00 61.47 LIG 0.04  C 
BRANCH 6 7
ATOM      7  CG  LEU G   4      36.466   6.745  25.914  1.00 62.80 LIG-0.02  C 
ATOM      8  CD1 LEU G   4      37.457   7.477  26.793  1.00 63.22 LIG 0.01  C 
ATOM      9  CD2 LEU G   4      35.405   7.676  25.327  1.00 64.86 LIG 0.01  C 
ENDBRANCH 6 7
ENDBRANCH 5 6
BRANCH 5 10
ATOM     10  N   LEU G   4      38.066   8.112  23.543  1.00 59.02 LIG-0.35  N 
ATOM     11 H    LEU G   4      37.364   8.005  23.059  1.00 59.02 LIG 0.16  HD
ATOM     12  C   ILE G   3      38.779   9.238  23.602  1.00 70.10 LIG 0.24  C 
ATOM     13 O    ILE G   3      39.654   9.428  24.476  1.00 64.55 LIG-0.27  OA
BRANCH 12 14
ATOM     14  CA  ILE G   3      38.463  10.309  22.524  1.00 67.83 LIG 0.18  C 
BRANCH 14 15
ATOM     15  CB  ILE G   3      39.112   9.933  21.154  1.00 66.94 LIG 0.01  C 
ATOM     16  CG2 ILE G   3      40.621   9.741  21.312  1.00 67.41 LIG 0.01  C 
BRANCH 15 17
ATOM     17  CG1 ILE G   3      38.472   8.663  20.529  1.00 59.79 LIG 0.00  C 
ATOM     18  CD1 ILE G   3      37.767   8.915  19.223  1.00 60.74 LIG 0.01  C 
ENDBRANCH 15 17
ENDBRANCH 14 15
BRANCH 14 19
ATOM     19  N   ILE G   3      38.921  11.614  22.975  1.00 79.60 LIG-0.34  N 
ATOM     20 H    ILE G   3      39.755  11.633  23.183  1.00 79.60 LIG 0.16  HD
ATOM     21  C   ASP G   2      38.123  12.682  23.059  1.00 93.07 LIG 0.26  C 
ATOM     22 O    ASP G   2      36.953  12.684  22.675  1.00 81.24 LIG-0.27  OA
BRANCH 21 23
ATOM     23  CA  ASP G   2      38.717  13.951  23.686  1.00 93.30 LIG 0.41  C 
ATOM     24  N   ASP G   2      37.603  14.896  23.980  1.00 94.60 LIG 0.61  N 
BRANCH 23 25
ATOM     25  CB  ASP G   2      39.508  13.649  24.967  1.00 96.36 LIG 0.16  C 
BRANCH 25 26
ATOM     26  CG  ASP G   2      38.618  13.223  26.114  1.00103.24 LIG 0.17  C 
ATOM     27 OD1  ASP G   2      38.837  12.133  26.679  1.00112.85 LIG-0.65  OA
ATOM     28 OD2  ASP G   2      37.697  13.978  26.461  1.00105.87 LIG-0.65  OA
ENDBRANCH 25 26
ENDBRANCH 23 25
ENDBRANCH 21 23
ENDBRANCH 14 19
ENDBRANCH 12 14
ENDBRANCH 5 10
ENDBRANCH 1 5
BRANCH 3 29
ATOM     29  CA  PHE G   5      40.525   3.960  23.483  1.00 70.05 LIG 0.18  C 
BRANCH 29 30
ATOM     30  CB  PHE G   5      42.028   4.160  23.770  1.00 73.20 LIG 0.07  C 
BRANCH 30 31
ATOM     31  CG  PHE G   5      42.760   2.851  24.021  1.00 79.36 LIG-0.06  A 
ATOM     32  CD1 PHE G   5      43.173   2.045  22.931  1.00 85.64 LIG 0.01  A 
ATOM     33  CE1 PHE G   5      43.856   0.853  23.133  1.00 88.71 LIG 0.00  A 
ATOM     34  CZ  PHE G   5      44.147   0.448  24.440  1.00 96.11 LIG 0.00  A 
ATOM     35  CE2 PHE G   5      43.760   1.242  25.532  1.00 91.53 LIG 0.00  A 
ATOM     36  CD2 PHE G   5      43.074   2.434  25.323  1.00 81.01 LIG 0.01  A 
ENDBRANCH 30 31
ENDBRANCH 29 30
BRANCH 29 37
ATOM     37  C   PHE G   5      39.963   2.639  23.994  1.00 74.26 LIG 0.24  C 
ATOM     38  N   PRO G   6      39.784   1.658  23.081  1.00 79.01 LIG-0.34  N 
ATOM     39  CD  PRO G   6      39.956   1.834  21.614  1.00 76.17 LIG 0.13  C 
ATOM     40  CA  PRO G   6      39.090   0.403  23.410  1.00 78.34 LIG 0.18  C 
ATOM     41  CG  PRO G   6      39.712   0.470  21.069  1.00 78.03 LIG 0.02  C 
ATOM     42  CB  PRO G   6      38.713  -0.137  22.020  1.00 82.73 LIG 0.04  C 
ATOM     43 O    PHE G   5      39.608   2.539  25.175  1.00 61.78 LIG-0.27  OA
BRANCH 40 44
ATOM     44  C   PRO G   6      39.911  -0.653  24.184  1.00 77.34 LIG 0.24  C 
ATOM     45 O    PRO G   6      41.116  -0.505  24.289  1.00 92.50 LIG-0.27  OA
ATOM     46  N   ALA G   7      39.260  -1.701  24.711  1.00 74.20 LIG-0.35  N 
ATOM     47 H    ALA G   7      38.418  -1.695  24.886  1.00 74.20 LIG 0.16  HD
BRANCH 46 48
ATOM     48  CA  ALA G   7      39.935  -2.983  25.048  1.00 71.75 LIG 0.16  C 
ATOM     49  CB  ALA G   7      39.209  -3.684  26.196  1.00 70.01 LIG 0.04  C 
BRANCH 48 50
ATOM     50  C   ALA G   7      39.981  -3.900  23.805  1.00 69.94 LIG 0.22  C 
ATOM     51 O    ALA G   7      39.584  -3.477  22.689  1.00 56.97 LIG-0.29  OA
ENDBRANCH 48 50
ENDBRANCH 46 48
ENDBRANCH 40 44
ENDBRANCH 29 37
ENDBRANCH 3 29
TORSDOF 18
ENDMDL
MODEL 47
USER: ADFR SOLUTION from run 107
USER: SCORE 15.544097 LL:  -5.802 LR: -10.583 RR:   0.000 FEB:  -5.213
USER: RMSD 11.174771
USER: SEED 106
USER: STATUS no improvement in best in 20 clusters for 5 generations
USER: GENES 20
USER: genes 0 Translation |==|  0.44777 0.68477 0.46090
USER: genes 1 Rotation |==|  0.50532 0.28181 0.94413 0.57149
USER: genes 2 Torsion [N]-C--CA-[N] |==|  0.00318
USER: genes 3 Torsion [C]-CA--CB-[CG] |==|  0.54272
USER: genes 4 Torsion [CA]-CB--CG-[CD1] |==|  0.52934
USER: genes 5 Torsion [C]-CA--N-[C] |==|  0.70717
USER: genes 6 Torsion [N]-C--CA-[N] |==|  0.70202
USER: genes 7 Torsion [C]-CA--CB-[CG1] |==|  0.54344
USER: genes 8 Torsion [CA]-CB--CG1-[CD1] |==|  0.70504
USER: genes 9 Torsion [C]-CA--N-[C] |==|  0.65665
USER: genes 10 Torsion [N]-C--CA-[N] |==|  0.80571
USER: genes 11 Torsion [C]-CA--CB-[CG] |==|  0.67793
USER: genes 12 Torsion [CA]-CB--CG-[OD1] |==|  0.71450
USER: genes 13 Torsion [C]-N--CA-[CB] |==|  0.86109
USER: genes 14 Torsion [N]-CA--CB-[CG] |==|  0.43236
USER: genes 15 Torsion [CA]-CB--CG-[CD1] |==|  0.17031
USER: genes 16 Torsion [N]-CA--C-[N] |==|  0.36516
USER: genes 17 Torsion [N]-CA--C-[O] |==|  0.61692
USER: genes 18 Torsion [C]-N--CA-[C] |==|  0.70393
USER: genes 19 Torsion [N]-CA--C-[O] |==|  0.02156
ROOT
ATOM      1  C   LEU G   4      39.097  11.308  22.041  1.00 61.38 LIG 0.24  C 
ATOM      2 O    LEU G   4      39.593  12.138  21.271  1.00 52.06 LIG-0.27  OA
ATOM      3  N   PHE G   5      38.427  11.602  23.141  1.00 60.80 LIG-0.35  N 
ATOM      4 H    PHE G   5      38.066  11.006  23.644  1.00 60.80 LIG 0.16  HD
ENDROOT
BRANCH 1 5
ATOM      5  CA  LEU G   4      39.251   9.835  21.804  1.00 58.56 LIG 0.18  C 
BRANCH 5 6
ATOM      6  CB  LEU G   4      38.665   9.522  20.431  1.00 61.47 LIG 0.04  C 
BRANCH 6 7
ATOM      7  CG  LEU G   4      38.405   8.051  20.188  1.00 62.80 LIG-0.02  C 
ATOM      8  CD1 LEU G   4      38.084   7.893  18.717  1.00 63.22 LIG 0.01  C 
ATOM      9  CD2 LEU G   4      39.646   7.263  20.605  1.00 64.86 LIG 0.01  C 
ENDBRANCH 6 7
ENDBRANCH 5 6
BRANCH 5 10
ATOM     10  N   LEU G   4      38.577   9.117  22.869  1.00 59.02 LIG-0.35  N 
ATOM     11 H    LEU G   4      37.718   9.116  22.819  1.00 59.02 LIG 0.16  HD
ATOM     12  C   ILE G   3      39.279   8.519  23.832  1.00 70.10 LIG 0.24  C 
ATOM     13 O    ILE G   3      40.516   8.354  23.751  1.00 64.55 LIG-0.27  OA
BRANCH 12 14
ATOM     14  CA  ILE G   3      38.475   8.032  25.067  1.00 67.83 LIG 0.18  C 
BRANCH 14 15
ATOM     15  CB  ILE G   3      36.945   7.991  24.759  1.00 66.94 LIG 0.01  C 
ATOM     16  CG2 ILE G   3      36.620   6.830  23.819  1.00 67.41 LIG 0.01  C 
BRANCH 15 17
ATOM     17  CG1 ILE G   3      36.088   7.890  26.051  1.00 59.79 LIG 0.00  C 
ATOM     18  CD1 ILE G   3      35.481   6.530  26.276  1.00 60.74 LIG 0.01  C 
ENDBRANCH 15 17
ENDBRANCH 14 15
BRANCH 14 19
ATOM     19  N   ILE G   3      38.752   8.893  26.207  1.00 79.60 LIG-0.34  N 
ATOM     20 H    ILE G   3      38.587   9.723  26.060  1.00 79.60 LIG 0.16  HD
ATOM     21  C   ASP G   2      39.217   8.437  27.374  1.00 93.07 LIG 0.26  C 
ATOM     22 O    ASP G   2      39.366   7.240  27.622  1.00 81.24 LIG-0.27  OA
BRANCH 21 23
ATOM     23  CA  ASP G   2      39.594   9.482  28.433  1.00 93.30 LIG 0.41  C 
ATOM     24  N   ASP G   2      40.819  10.197  27.975  1.00 94.60 LIG 0.61  N 
BRANCH 23 25
ATOM     25  CB  ASP G   2      38.459  10.486  28.687  1.00 96.36 LIG 0.16  C 
BRANCH 25 26
ATOM     26  CG  ASP G   2      38.835  11.899  28.297  1.00103.24 LIG 0.17  C 
ATOM     27 OD1  ASP G   2      39.139  12.714  29.190  1.00112.85 LIG-0.65  OA
ATOM     28 OD2  ASP G   2      38.834  12.201  27.094  1.00105.87 LIG-0.65  OA
ENDBRANCH 25 26
ENDBRANCH 23 25
ENDBRANCH 21 23
ENDBRANCH 14 19
ENDBRANCH 12 14
ENDBRANCH 5 10
ENDBRANCH 1 5
BRANCH 3 29
ATOM     29  CA  PHE G   5      38.229  12.945  23.609  1.00 70.05 LIG 0.18  C 
BRANCH 29 30
ATOM     30  CB  PHE G   5      39.569  13.709  23.649  1.00 73.20 LIG 0.07  C 
BRANCH 30 31
ATOM     31  CG  PHE G   5      39.392  15.217  23.554  1.00 79.36 LIG-0.06  A 
ATOM     32  CD1 PHE G   5      38.660  15.912  24.549  1.00 85.64 LIG 0.01  A 
ATOM     33  CE1 PHE G   5      38.496  17.290  24.492  1.00 88.71 LIG 0.00  A 
ATOM     34  CZ  PHE G   5      39.073  18.002  23.437  1.00 96.11 LIG 0.00  A 
ATOM     35  CE2 PHE G   5      39.816  17.332  22.451  1.00 91.53 LIG 0.00  A 
ATOM     36  CD2 PHE G   5      39.975  15.951  22.511  1.00 81.01 LIG 0.01  A 
ENDBRANCH 30 31
ENDBRANCH 29 30
BRANCH 29 37
ATOM     37  C   PHE G   5      37.187  13.560  22.683  1.00 74.26 LIG 0.24  C 
ATOM     38  N   PRO G   6      36.153  14.204  23.269  1.00 79.01 LIG-0.34  N 
ATOM     39  CD  PRO G   6      35.894  14.218  24.734  1.00 76.17 LIG 0.13  C 
ATOM     40  CA  PRO G   6      34.997  14.687  22.498  1.00 78.34 LIG 0.18  C 
ATOM     41  CG  PRO G   6      34.701  15.099  24.867  1.00 78.03 LIG 0.02  C 
ATOM     42  CB  PRO G   6      33.932  14.879  23.591  1.00 82.73 LIG 0.04  C 
ATOM     43 O    PHE G   5      37.266  13.376  21.462  1.00 61.78 LIG-0.27  OA
BRANCH 40 44
ATOM     44  C   PRO G   6      35.196  16.005  21.715  1.00 77.34 LIG 0.24  C 
ATOM     45 O    PRO G   6      34.304  16.836  21.719  1.00 92.50 LIG-0.27  OA
ATOM     46  N   ALA G   7      36.349  16.182  21.054  1.00 74.20 LIG-0.35  N 
ATOM     47 H    ALA G   7      37.074  15.760  21.246  1.00 74.20 LIG 0.16  HD
BRANCH 46 48
ATOM     48  CA  ALA G   7      36.489  17.132  19.918  1.00 71.75 LIG 0.16  C 
ATOM     49  CB  ALA G   7      37.725  18.012  20.106  1.00 70.01 LIG 0.04  C 
BRANCH 48 50
ATOM     50  C   ALA G   7      36.584  16.354  18.586  1.00 69.94 LIG 0.22  C 
ATOM     51 O    ALA G   7      36.394  15.112  18.561  1.00 56.97 LIG-0.29  OA
ENDBRANCH 48 50
ENDBRANCH 46 48
ENDBRANCH 40 44
ENDBRANCH 29 37
ENDBRANCH 3 29
TORSDOF 18
ENDMDL
MODEL 48
USER: ADFR SOLUTION from run 7
USER: SCORE 14.893771 LL:  -5.742 LR: -10.573 RR:   0.000 FEB:  -5.204
USER: RMSD 2.185231
USER: SEED 137069
USER: STATUS no improvement in best in 12 clusters for 5 generations
USER: GENES 20
USER: genes 0 Translation |==|  0.44966 0.49649 0.54848
USER: genes 1 Rotation |==|  0.54625 0.39101 0.48394 0.98551
USER: genes 2 Torsion [N]-C--CA-[N] |==|  0.46633
USER: genes 3 Torsion [C]-CA--CB-[CG] |==|  0.42084
USER: genes 4 Torsion [CA]-CB--CG-[CD1] |==|  0.95705
USER: genes 5 Torsion [C]-CA--N-[C] |==|  0.77498
USER: genes 6 Torsion [N]-C--CA-[N] |==|  0.40443
USER: genes 7 Torsion [C]-CA--CB-[CG1] |==|  0.28831
USER: genes 8 Torsion [CA]-CB--CG1-[CD1] |==|  0.72050
USER: genes 9 Torsion [C]-CA--N-[C] |==|  0.65324
USER: genes 10 Torsion [N]-C--CA-[N] |==|  0.56522
USER: genes 11 Torsion [C]-CA--CB-[CG] |==|  0.79939
USER: genes 12 Torsion [CA]-CB--CG-[OD1] |==|  0.83814
USER: genes 13 Torsion [C]-N--CA-[CB] |==|  0.28889
USER: genes 14 Torsion [N]-CA--CB-[CG] |==|  0.93103
USER: genes 15 Torsion [CA]-CB--CG-[CD1] |==|  0.25409
USER: genes 16 Torsion [N]-CA--C-[N] |==|  0.37463
USER: genes 17 Torsion [N]-CA--C-[O] |==|  0.94601
USER: genes 18 Torsion [C]-N--CA-[C] |==|  0.78545
USER: genes 19 Torsion [N]-CA--C-[O] |==|  0.99366
ROOT
ATOM      1  C   LEU G   4      39.128   6.083  23.486  1.00 61.38 LIG 0.24  C 
ATOM      2 O    LEU G   4      39.287   6.302  22.280  1.00 52.06 LIG-0.27  OA
ATOM      3  N   PHE G   5      39.673   5.080  24.151  1.00 60.80 LIG-0.35  N 
ATOM      4 H    PHE G   5      39.571   4.968  24.998  1.00 60.80 LIG 0.16  HD
ENDROOT
BRANCH 1 5
ATOM      5  CA  LEU G   4      38.238   6.951  24.326  1.00 58.56 LIG 0.18  C 
BRANCH 5 6
ATOM      6  CB  LEU G   4      36.989   6.144  24.664  1.00 61.47 LIG 0.04  C 
BRANCH 6 7
ATOM      7  CG  LEU G   4      36.336   6.531  25.973  1.00 62.80 LIG-0.02  C 
ATOM      8  CD1 LEU G   4      37.343   7.355  26.747  1.00 63.22 LIG 0.01  C 
ATOM      9  CD2 LEU G   4      35.055   7.306  25.668  1.00 64.86 LIG 0.01  C 
ENDBRANCH 6 7
ENDBRANCH 5 6
BRANCH 5 10
ATOM     10  N   LEU G   4      37.931   8.160  23.587  1.00 59.02 LIG-0.35  N 
ATOM     11 H    LEU G   4      37.167   8.160  23.193  1.00 59.02 LIG 0.16  HD
ATOM     12  C   ILE G   3      38.800   9.171  23.551  1.00 70.10 LIG 0.24  C 
ATOM     13 O    ILE G   3      39.793   9.224  24.310  1.00 64.55 LIG-0.27  OA
BRANCH 12 14
ATOM     14  CA  ILE G   3      38.514  10.287  22.511  1.00 67.83 LIG 0.18  C 
BRANCH 14 15
ATOM     15  CB  ILE G   3      39.232   9.989  21.157  1.00 66.94 LIG 0.01  C 
ATOM     16  CG2 ILE G   3      40.370   8.990  21.363  1.00 67.41 LIG 0.01  C 
BRANCH 15 17
ATOM     17  CG1 ILE G   3      38.249   9.466  20.073  1.00 59.79 LIG 0.00  C 
ATOM     18  CD1 ILE G   3      38.287   7.973  19.885  1.00 60.74 LIG 0.01  C 
ENDBRANCH 15 17
ENDBRANCH 14 15
BRANCH 14 19
ATOM     19  N   ILE G   3      38.926  11.577  23.045  1.00 79.60 LIG-0.34  N 
ATOM     20 H    ILE G   3      39.747  11.598  23.298  1.00 79.60 LIG 0.16  HD
ATOM     21  C   ASP G   2      38.108  12.629  23.133  1.00 93.07 LIG 0.26  C 
ATOM     22 O    ASP G   2      36.959  12.633  22.686  1.00 81.24 LIG-0.27  OA
BRANCH 21 23
ATOM     23  CA  ASP G   2      38.646  13.875  23.847  1.00 93.30 LIG 0.41  C 
ATOM     24  N   ASP G   2      37.487  14.672  24.344  1.00 94.60 LIG 0.61  N 
BRANCH 23 25
ATOM     25  CB  ASP G   2      39.581  13.518  25.012  1.00 96.36 LIG 0.16  C 
BRANCH 25 26
ATOM     26  CG  ASP G   2      38.838  12.943  26.199  1.00103.24 LIG 0.17  C 
ATOM     27 OD1  ASP G   2      37.939  13.619  26.737  1.00112.85 LIG-0.65  OA
ATOM     28 OD2  ASP G   2      39.145  11.809  26.596  1.00105.87 LIG-0.65  OA
ENDBRANCH 25 26
ENDBRANCH 23 25
ENDBRANCH 21 23
ENDBRANCH 14 19
ENDBRANCH 12 14
ENDBRANCH 5 10
ENDBRANCH 1 5
BRANCH 3 29
ATOM     29  CA  PHE G   5      40.493   4.077  23.534  1.00 70.05 LIG 0.18  C 
BRANCH 29 30
ATOM     30  CB  PHE G   5      41.983   4.319  23.852  1.00 73.20 LIG 0.07  C 
BRANCH 30 31
ATOM     31  CG  PHE G   5      42.289   5.773  24.176  1.00 79.36 LIG-0.06  A 
ATOM     32  CD1 PHE G   5      42.246   6.227  25.518  1.00 85.64 LIG 0.01  A 
ATOM     33  CE1 PHE G   5      42.535   7.546  25.842  1.00 88.71 LIG 0.00  A 
ATOM     34  CZ  PHE G   5      42.884   8.437  24.823  1.00 96.11 LIG 0.00  A 
ATOM     35  CE2 PHE G   5      42.949   8.001  23.490  1.00 91.53 LIG 0.00  A 
ATOM     36  CD2 PHE G   5      42.655   6.679  23.170  1.00 81.01 LIG 0.01  A 
ENDBRANCH 30 31
ENDBRANCH 29 30
BRANCH 29 37
ATOM     37  C   PHE G   5      39.959   2.739  24.031  1.00 74.26 LIG 0.24  C 
ATOM     38  N   PRO G   6      39.796   1.764  23.108  1.00 79.01 LIG-0.34  N 
ATOM     39  CD  PRO G   6      39.960   1.960  21.642  1.00 76.17 LIG 0.13  C 
ATOM     40  CA  PRO G   6      39.129   0.492  23.426  1.00 78.34 LIG 0.18  C 
ATOM     41  CG  PRO G   6      39.741   0.598  21.084  1.00 78.03 LIG 0.02  C 
ATOM     42  CB  PRO G   6      38.758  -0.039  22.030  1.00 82.73 LIG 0.04  C 
ATOM     43 O    PHE G   5      39.610   2.618  25.212  1.00 61.78 LIG-0.27  OA
BRANCH 40 44
ATOM     44  C   PRO G   6      39.973  -0.556  24.185  1.00 77.34 LIG 0.24  C 
ATOM     45 O    PRO G   6      41.188  -0.460  24.169  1.00 92.50 LIG-0.27  OA
ATOM     46  N   ALA G   7      39.331  -1.539  24.833  1.00 74.20 LIG-0.35  N 
ATOM     47 H    ALA G   7      38.510  -1.482  25.084  1.00 74.20 LIG 0.16  HD
BRANCH 46 48
ATOM     48  CA  ALA G   7      39.980  -2.830  25.185  1.00 71.75 LIG 0.16  C 
ATOM     49  CB  ALA G   7      39.200  -3.535  26.295  1.00 70.01 LIG 0.04  C 
BRANCH 48 50
ATOM     50  C   ALA G   7      40.068  -3.736  23.936  1.00 69.94 LIG 0.22  C 
ATOM     51 O    ALA G   7      39.585  -3.355  22.839  1.00 56.97 LIG-0.29  OA
ENDBRANCH 48 50
ENDBRANCH 46 48
ENDBRANCH 40 44
ENDBRANCH 29 37
ENDBRANCH 3 29
TORSDOF 18
ENDMDL
MODEL 49
USER: ADFR SOLUTION from run 19
USER: SCORE 15.514435 LL:  -6.188 LR: -10.537 RR:   0.000 FEB:  -5.168
USER: RMSD 5.526712
USER: SEED 18
USER: STATUS no improvement in best in 32 clusters for 5 generations
USER: GENES 20
USER: genes 0 Translation |==|  0.48183 0.56823 0.57954
USER: genes 1 Rotation |==|  0.72137 0.14357 0.24545 0.59569
USER: genes 2 Torsion [N]-C--CA-[N] |==|  0.91413
USER: genes 3 Torsion [C]-CA--CB-[CG] |==|  0.84191
USER: genes 4 Torsion [CA]-CB--CG-[CD1] |==|  0.29593
USER: genes 5 Torsion [C]-CA--N-[C] |==|  0.80745
USER: genes 6 Torsion [N]-C--CA-[N] |==|  0.35556
USER: genes 7 Torsion [C]-CA--CB-[CG1] |==|  0.62437
USER: genes 8 Torsion [CA]-CB--CG1-[CD1] |==|  0.62780
USER: genes 9 Torsion [C]-CA--N-[C] |==|  0.78369
USER: genes 10 Torsion [N]-C--CA-[N] |==|  0.91343
USER: genes 11 Torsion [C]-CA--CB-[CG] |==|  0.84067
USER: genes 12 Torsion [CA]-CB--CG-[OD1] |==|  0.40255
USER: genes 13 Torsion [C]-N--CA-[CB] |==|  0.18898
USER: genes 14 Torsion [N]-CA--CB-[CG] |==|  0.48901
USER: genes 15 Torsion [CA]-CB--CG-[CD1] |==|  0.55677
USER: genes 16 Torsion [N]-CA--C-[N] |==|  0.32667
USER: genes 17 Torsion [N]-CA--C-[O] |==|  0.51919
USER: genes 18 Torsion [C]-N--CA-[C] |==|  0.88614
USER: genes 19 Torsion [N]-CA--C-[O] |==|  0.23224
ROOT
ATOM      1  C   LEU G   4      39.659   8.074  23.998  1.00 61.38 LIG 0.24  C 
ATOM      2 O    LEU G   4      40.721   7.736  24.532  1.00 52.06 LIG-0.27  OA
ATOM      3  N   PHE G   5      39.182   7.569  22.875  1.00 60.80 LIG-0.35  N 
ATOM      4 H    PHE G   5      38.425   7.801  22.540  1.00 60.80 LIG 0.16  HD
ENDROOT
BRANCH 1 5
ATOM      5  CA  LEU G   4      38.803   9.159  24.583  1.00 58.56 LIG 0.18  C 
BRANCH 5 6
ATOM      6  CB  LEU G   4      37.819   8.503  25.547  1.00 61.47 LIG 0.04  C 
BRANCH 6 7
ATOM      7  CG  LEU G   4      36.957   7.429  24.919  1.00 62.80 LIG-0.02  C 
ATOM      8  CD1 LEU G   4      37.471   6.096  25.420  1.00 63.22 LIG 0.01  C 
ATOM      9  CD2 LEU G   4      35.502   7.682  25.310  1.00 64.86 LIG 0.01  C 
ENDBRANCH 6 7
ENDBRANCH 5 6
BRANCH 5 10
ATOM     10  N   LEU G   4      38.135   9.860  23.504  1.00 59.02 LIG-0.35  N 
ATOM     11 H    LEU G   4      37.285   9.735  23.461  1.00 59.02 LIG 0.16  HD
ATOM     12  C   ILE G   3      38.829  10.631  22.666  1.00 70.10 LIG 0.24  C 
ATOM     13 O    ILE G   3      40.014  10.963  22.891  1.00 64.55 LIG-0.27  OA
BRANCH 12 14
ATOM     14  CA  ILE G   3      38.084  11.101  21.388  1.00 67.83 LIG 0.18  C 
BRANCH 14 15
ATOM     15  CB  ILE G   3      38.642  10.382  20.118  1.00 66.94 LIG 0.01  C 
ATOM     16  CG2 ILE G   3      37.709   9.249  19.692  1.00 67.41 LIG 0.01  C 
BRANCH 15 17
ATOM     17  CG1 ILE G   3      38.866  11.366  18.937  1.00 59.79 LIG 0.00  C 
ATOM     18  CD1 ILE G   3      38.341  10.863  17.617  1.00 60.74 LIG 0.01  C 
ENDBRANCH 15 17
ENDBRANCH 14 15
BRANCH 14 19
ATOM     19  N   ILE G   3      38.192  12.546  21.256  1.00 79.60 LIG-0.34  N 
ATOM     20 H    ILE G   3      38.776  12.796  20.676  1.00 79.60 LIG 0.16  HD
ATOM     21  C   ASP G   2      37.455  13.404  21.966  1.00 93.07 LIG 0.26  C 
ATOM     22 O    ASP G   2      36.553  13.052  22.728  1.00 81.24 LIG-0.27  OA
BRANCH 21 23
ATOM     23  CA  ASP G   2      37.783  14.896  21.819  1.00 93.30 LIG 0.41  C 
ATOM     24  N   ASP G   2      39.242  15.033  21.545  1.00 94.60 LIG 0.61  N 
BRANCH 23 25
ATOM     25  CB  ASP G   2      36.969  15.561  20.699  1.00 96.36 LIG 0.16  C 
BRANCH 25 26
ATOM     26  CG  ASP G   2      37.172  14.892  19.357  1.00103.24 LIG 0.17  C 
ATOM     27 OD1  ASP G   2      36.213  14.821  18.563  1.00112.85 LIG-0.65  OA
ATOM     28 OD2  ASP G   2      38.294  14.439  19.085  1.00105.87 LIG-0.65  OA
ENDBRANCH 25 26
ENDBRANCH 23 25
ENDBRANCH 21 23
ENDBRANCH 14 19
ENDBRANCH 12 14
ENDBRANCH 5 10
ENDBRANCH 1 5
BRANCH 3 29
ATOM     29  CA  PHE G   5      39.874   6.580  22.098  1.00 70.05 LIG 0.18  C 
BRANCH 29 30
ATOM     30  CB  PHE G   5      39.934   5.237  22.856  1.00 73.20 LIG 0.07  C 
BRANCH 30 31
ATOM     31  CG  PHE G   5      40.574   4.125  22.038  1.00 79.36 LIG-0.06  A 
ATOM     32  CD1 PHE G   5      40.334   2.768  22.372  1.00 85.64 LIG 0.01  A 
ATOM     33  CE1 PHE G   5      40.894   1.735  21.633  1.00 88.71 LIG 0.00  A 
ATOM     34  CZ  PHE G   5      41.703   2.043  20.535  1.00 96.11 LIG 0.00  A 
ATOM     35  CE2 PHE G   5      41.938   3.381  20.179  1.00 91.53 LIG 0.00  A 
ATOM     36  CD2 PHE G   5      41.376   4.413  20.925  1.00 81.01 LIG 0.01  A 
ENDBRANCH 30 31
ENDBRANCH 29 30
BRANCH 29 37
ATOM     37  C   PHE G   5      39.141   6.510  20.764  1.00 74.26 LIG 0.24  C 
ATOM     38  N   PRO G   6      39.847   6.847  19.661  1.00 79.01 LIG-0.34  N 
ATOM     39  CD  PRO G   6      41.222   7.415  19.684  1.00 76.17 LIG 0.13  C 
ATOM     40  CA  PRO G   6      39.212   6.989  18.341  1.00 78.34 LIG 0.18  C 
ATOM     41  CG  PRO G   6      41.567   7.547  18.242  1.00 78.03 LIG 0.02  C 
ATOM     42  CB  PRO G   6      40.249   7.820  17.567  1.00 82.73 LIG 0.04  C 
ATOM     43 O    PHE G   5      37.932   6.248  20.741  1.00 61.78 LIG-0.27  OA
BRANCH 40 44
ATOM     44  C   PRO G   6      38.908   5.679  17.580  1.00 77.34 LIG 0.24  C 
ATOM     45 O    PRO G   6      38.501   5.742  16.433  1.00 92.50 LIG-0.27  OA
ATOM     46  N   ALA G   7      39.104   4.515  18.217  1.00 74.20 LIG-0.35  N 
ATOM     47 H    ALA G   7      39.626   4.429  18.895  1.00 74.20 LIG 0.16  HD
BRANCH 46 48
ATOM     48  CA  ALA G   7      38.433   3.251  17.811  1.00 71.75 LIG 0.16  C 
ATOM     49  CB  ALA G   7      38.506   2.221  18.938  1.00 70.01 LIG 0.04  C 
BRANCH 48 50
ATOM     50  C   ALA G   7      36.959   3.530  17.438  1.00 69.94 LIG 0.22  C 
ATOM     51 O    ALA G   7      36.661   3.936  16.286  1.00 56.97 LIG-0.29  OA
ENDBRANCH 48 50
ENDBRANCH 46 48
ENDBRANCH 40 44
ENDBRANCH 29 37
ENDBRANCH 3 29
TORSDOF 18
ENDMDL
MODEL 50
USER: ADFR SOLUTION from run 49
USER: SCORE 14.683431 LL:  -5.263 LR: -10.544 RR:   0.000 FEB:  -5.174
USER: RMSD 10.392347
USER: SEED 48
USER: STATUS no improvement in best in 17 clusters for 5 generations
USER: GENES 20
USER: genes 0 Translation |==|  0.45632 0.51699 0.49449
USER: genes 1 Rotation |==|  0.91822 0.68240 0.70193 0.53232
USER: genes 2 Torsion [N]-C--CA-[N] |==|  0.47435
USER: genes 3 Torsion [C]-CA--CB-[CG] |==|  0.80716
USER: genes 4 Torsion [CA]-CB--CG-[CD1] |==|  0.42686
USER: genes 5 Torsion [C]-CA--N-[C] |==|  0.54772
USER: genes 6 Torsion [N]-C--CA-[N] |==|  0.90076
USER: genes 7 Torsion [C]-CA--CB-[CG1] |==|  0.57761
USER: genes 8 Torsion [CA]-CB--CG1-[CD1] |==|  0.71867
USER: genes 9 Torsion [C]-CA--N-[C] |==|  0.83155
USER: genes 10 Torsion [N]-C--CA-[N] |==|  0.77607
USER: genes 11 Torsion [C]-CA--CB-[CG] |==|  0.50604
USER: genes 12 Torsion [CA]-CB--CG-[OD1] |==|  0.07493
USER: genes 13 Torsion [C]-N--CA-[CB] |==|  0.21667
USER: genes 14 Torsion [N]-CA--CB-[CG] |==|  0.74330
USER: genes 15 Torsion [CA]-CB--CG-[CD1] |==|  0.41682
USER: genes 16 Torsion [N]-CA--C-[N] |==|  0.19419
USER: genes 17 Torsion [N]-CA--C-[O] |==|  0.57517
USER: genes 18 Torsion [C]-N--CA-[C] |==|  0.48711
USER: genes 19 Torsion [N]-CA--C-[O] |==|  0.96821
ROOT
ATOM      1  C   LEU G   4      39.238   6.653  22.595  1.00 61.38 LIG 0.24  C 
ATOM      2 O    LEU G   4      38.224   6.191  23.130  1.00 52.06 LIG-0.27  OA
ATOM      3  N   PHE G   5      39.502   7.940  22.456  1.00 60.80 LIG-0.35  N 
ATOM      4 H    PHE G   5      40.229   8.235  22.106  1.00 60.80 LIG 0.16  HD
ENDROOT
BRANCH 1 5
ATOM      5  CA  LEU G   4      40.283   5.756  22.000  1.00 58.56 LIG 0.18  C 
BRANCH 5 6
ATOM      6  CB  LEU G   4      40.244   5.940  20.486  1.00 61.47 LIG 0.04  C 
BRANCH 6 7
ATOM      7  CG  LEU G   4      39.000   5.386  19.826  1.00 62.80 LIG-0.02  C 
ATOM      8  CD1 LEU G   4      38.784   6.173  18.551  1.00 63.22 LIG 0.01  C 
ATOM      9  CD2 LEU G   4      39.210   3.894  19.565  1.00 64.86 LIG 0.01  C 
ENDBRANCH 6 7
ENDBRANCH 5 6
BRANCH 5 10
ATOM     10  N   LEU G   4      40.008   4.389  22.398  1.00 59.02 LIG-0.35  N 
ATOM     11 H    LEU G   4      39.212   4.250  22.691  1.00 59.02 LIG 0.16  HD
ATOM     12  C   ILE G   3      40.952   3.452  22.297  1.00 70.10 LIG 0.24  C 
ATOM     13 O    ILE G   3      42.014   3.641  21.664  1.00 64.55 LIG-0.27  OA
BRANCH 12 14
ATOM     14  CA  ILE G   3      40.661   2.104  23.008  1.00 67.83 LIG 0.18  C 
BRANCH 14 15
ATOM     15  CB  ILE G   3      39.865   1.137  22.074  1.00 66.94 LIG 0.01  C 
ATOM     16  CG2 ILE G   3      40.821   0.373  21.157  1.00 67.41 LIG 0.01  C 
BRANCH 15 17
ATOM     17  CG1 ILE G   3      38.979   0.143  22.875  1.00 59.79 LIG 0.00  C 
ATOM     18  CD1 ILE G   3      39.570  -1.237  22.997  1.00 60.74 LIG 0.01  C 
ENDBRANCH 15 17
ENDBRANCH 14 15
BRANCH 14 19
ATOM     19  N   ILE G   3      39.934   2.345  24.245  1.00 79.60 LIG-0.34  N 
ATOM     20 H    ILE G   3      39.161   1.971  24.269  1.00 79.60 LIG 0.16  HD
ATOM     21  C   ASP G   2      40.421   3.076  25.251  1.00 93.07 LIG 0.26  C 
ATOM     22 O    ASP G   2      41.565   3.535  25.262  1.00 81.24 LIG-0.27  OA
BRANCH 21 23
ATOM     23  CA  ASP G   2      39.481   3.358  26.431  1.00 93.30 LIG 0.41  C 
ATOM     24  N   ASP G   2      38.582   4.487  26.058  1.00 94.60 LIG 0.61  N 
BRANCH 23 25
ATOM     25  CB  ASP G   2      38.651   2.125  26.818  1.00 96.36 LIG 0.16  C 
BRANCH 25 26
ATOM     26  CG  ASP G   2      37.682   2.407  27.946  1.00103.24 LIG 0.17  C 
ATOM     27 OD1  ASP G   2      37.259   3.569  28.105  1.00112.85 LIG-0.65  OA
ATOM     28 OD2  ASP G   2      37.334   1.467  28.676  1.00105.87 LIG-0.65  OA
ENDBRANCH 25 26
ENDBRANCH 23 25
ENDBRANCH 21 23
ENDBRANCH 14 19
ENDBRANCH 12 14
ENDBRANCH 5 10
ENDBRANCH 1 5
BRANCH 3 29
ATOM     29  CA  PHE G   5      38.604   8.979  22.875  1.00 70.05 LIG 0.18  C 
BRANCH 29 30
ATOM     30  CB  PHE G   5      38.677   9.178  24.403  1.00 73.20 LIG 0.07  C 
BRANCH 30 31
ATOM     31  CG  PHE G   5      37.648   8.349  25.157  1.00 79.36 LIG-0.06  A 
ATOM     32  CD1 PHE G   5      37.926   7.894  26.471  1.00 85.64 LIG 0.01  A 
ATOM     33  CE1 PHE G   5      36.998   7.148  27.186  1.00 88.71 LIG 0.00  A 
ATOM     34  CZ  PHE G   5      35.765   6.850  26.598  1.00 96.11 LIG 0.00  A 
ATOM     35  CE2 PHE G   5      35.467   7.307  25.304  1.00 91.53 LIG 0.00  A 
ATOM     36  CD2 PHE G   5      36.401   8.051  24.591  1.00 81.01 LIG 0.01  A 
ENDBRANCH 30 31
ENDBRANCH 29 30
BRANCH 29 37
ATOM     37  C   PHE G   5      38.987  10.212  22.066  1.00 74.26 LIG 0.24  C 
ATOM     38  N   PRO G   6      38.710  10.186  20.743  1.00 79.01 LIG-0.34  N 
ATOM     39  CD  PRO G   6      38.201   8.992  20.015  1.00 76.17 LIG 0.13  C 
ATOM     40  CA  PRO G   6      39.184  11.234  19.825  1.00 78.34 LIG 0.18  C 
ATOM     41  CG  PRO G   6      38.001   9.492  18.627  1.00 78.03 LIG 0.02  C 
ATOM     42  CB  PRO G   6      39.062  10.547  18.454  1.00 82.73 LIG 0.04  C 
ATOM     43 O    PHE G   5      39.609  11.133  22.610  1.00 61.78 LIG-0.27  OA
BRANCH 40 44
ATOM     44  C   PRO G   6      38.390  12.559  19.827  1.00 77.34 LIG 0.24  C 
ATOM     45 O    PRO G   6      38.380  13.244  18.818  1.00 92.50 LIG-0.27  OA
ATOM     46  N   ALA G   7      37.741  12.909  20.947  1.00 74.20 LIG-0.35  N 
ATOM     47 H    ALA G   7      37.510  12.345  21.555  1.00 74.20 LIG 0.16  HD
BRANCH 46 48
ATOM     48  CA  ALA G   7      37.355  14.313  21.250  1.00 71.75 LIG 0.16  C 
ATOM     49  CB  ALA G   7      36.558  14.910  20.090  1.00 70.01 LIG 0.04  C 
BRANCH 48 50
ATOM     50  C   ALA G   7      36.523  14.364  22.552  1.00 69.94 LIG 0.22  C 
ATOM     51 O    ALA G   7      36.085  13.305  23.068  1.00 56.97 LIG-0.29  OA
ENDBRANCH 48 50
ENDBRANCH 46 48
ENDBRANCH 40 44
ENDBRANCH 29 37
ENDBRANCH 3 29
TORSDOF 18
ENDMDL
MODEL 51
USER: ADFR SOLUTION from run 131
USER: SCORE 14.768235 LL:  -4.529 LR: -10.534 RR:   0.000 FEB:  -5.165
USER: RMSD 5.435349
USER: SEED 130
USER: STATUS no improvement in best in 17 clusters for 5 generations
USER: GENES 20
USER: genes 0 Translation |==|  0.53338 0.42965 0.60627
USER: genes 1 Rotation |==|  0.64183 0.05041 0.52793 0.66423
USER: genes 2 Torsion [N]-C--CA-[N] |==|  0.40831
USER: genes 3 Torsion [C]-CA--CB-[CG] |==|  0.39861
USER: genes 4 Torsion [CA]-CB--CG-[CD1] |==|  0.25166
USER: genes 5 Torsion [C]-CA--N-[C] |==|  0.60089
USER: genes 6 Torsion [N]-C--CA-[N] |==|  0.35617
USER: genes 7 Torsion [C]-CA--CB-[CG1] |==|  0.20633
USER: genes 8 Torsion [CA]-CB--CG1-[CD1] |==|  0.11854
USER: genes 9 Torsion [C]-CA--N-[C] |==|  0.81169
USER: genes 10 Torsion [N]-C--CA-[N] |==|  0.25038
USER: genes 11 Torsion [C]-CA--CB-[CG] |==|  0.17899
USER: genes 12 Torsion [CA]-CB--CG-[OD1] |==|  0.10519
USER: genes 13 Torsion [C]-N--CA-[CB] |==|  0.16111
USER: genes 14 Torsion [N]-CA--CB-[CG] |==|  0.15528
USER: genes 15 Torsion [CA]-CB--CG-[CD1] |==|  0.30446
USER: genes 16 Torsion [N]-CA--C-[N] |==|  0.13662
USER: genes 17 Torsion [N]-CA--C-[O] |==|  0.67728
USER: genes 18 Torsion [C]-N--CA-[C] |==|  0.64404
USER: genes 19 Torsion [N]-CA--C-[O] |==|  0.28523
ROOT
ATOM      1  C   LEU G   4      40.510   4.229  24.439  1.00 61.38 LIG 0.24  C 
ATOM      2 O    LEU G   4      41.414   4.734  25.114  1.00 52.06 LIG-0.27  OA
ATOM      3  N   PHE G   5      40.134   2.963  24.503  1.00 60.80 LIG-0.35  N 
ATOM      4 H    PHE G   5      39.482   2.644  24.044  1.00 60.80 LIG 0.16  HD
ENDROOT
BRANCH 1 5
ATOM      5  CA  LEU G   4      39.754   5.031  23.422  1.00 58.56 LIG 0.18  C 
BRANCH 5 6
ATOM      6  CB  LEU G   4      40.523   4.954  22.106  1.00 61.47 LIG 0.04  C 
BRANCH 6 7
ATOM      7  CG  LEU G   4      39.643   4.894  20.877  1.00 62.80 LIG-0.02  C 
ATOM      8  CD1 LEU G   4      39.408   6.321  20.428  1.00 63.22 LIG 0.01  C 
ATOM      9  CD2 LEU G   4      40.349   4.054  19.813  1.00 64.86 LIG 0.01  C 
ENDBRANCH 6 7
ENDBRANCH 5 6
BRANCH 5 10
ATOM     10  N   LEU G   4      39.621   6.392  23.904  1.00 59.02 LIG-0.35  N 
ATOM     11 H    LEU G   4      40.299   6.691  24.339  1.00 59.02 LIG 0.16  HD
ATOM     12  C   ILE G   3      38.509   7.089  23.665  1.00 70.10 LIG 0.24  C 
ATOM     13 O    ILE G   3      37.644   6.705  22.848  1.00 64.55 LIG-0.27  OA
BRANCH 12 14
ATOM     14  CA  ILE G   3      38.344   8.413  24.459  1.00 67.83 LIG 0.18  C 
BRANCH 14 15
ATOM     15  CB  ILE G   3      37.227   8.280  25.542  1.00 66.94 LIG 0.01  C 
ATOM     16  CG2 ILE G   3      35.957   7.686  24.932  1.00 67.41 LIG 0.01  C 
BRANCH 15 17
ATOM     17  CG1 ILE G   3      37.686   7.429  26.759  1.00 59.79 LIG 0.00  C 
ATOM     18  CD1 ILE G   3      39.087   7.732  27.221  1.00 60.74 LIG 0.01  C 
ENDBRANCH 15 17
ENDBRANCH 14 15
BRANCH 14 19
ATOM     19  N   ILE G   3      38.052   9.505  23.543  1.00 79.60 LIG-0.34  N 
ATOM     20 H    ILE G   3      37.257   9.821  23.627  1.00 79.60 LIG 0.16  HD
ATOM     21  C   ASP G   2      38.934   9.973  22.656  1.00 93.07 LIG 0.26  C 
ATOM     22 O    ASP G   2      40.102   9.588  22.595  1.00 81.24 LIG-0.27  OA
BRANCH 21 23
ATOM     23  CA  ASP G   2      38.433  11.031  21.664  1.00 93.30 LIG 0.41  C 
ATOM     24  N   ASP G   2      38.649  12.379  22.262  1.00 94.60 LIG 0.61  N 
BRANCH 23 25
ATOM     25  CB  ASP G   2      39.143  10.935  20.305  1.00 96.36 LIG 0.16  C 
BRANCH 25 26
ATOM     26  CG  ASP G   2      38.853   9.634  19.588  1.00103.24 LIG 0.17  C 
ATOM     27 OD1  ASP G   2      37.708   9.145  19.659  1.00112.85 LIG-0.65  OA
ATOM     28 OD2  ASP G   2      39.767   9.097  18.944  1.00105.87 LIG-0.65  OA
ENDBRANCH 25 26
ENDBRANCH 23 25
ENDBRANCH 21 23
ENDBRANCH 14 19
ENDBRANCH 12 14
ENDBRANCH 5 10
ENDBRANCH 1 5
BRANCH 3 29
ATOM     29  CA  PHE G   5      40.774   1.993  25.345  1.00 70.05 LIG 0.18  C 
BRANCH 29 30
ATOM     30  CB  PHE G   5      40.726   2.437  26.822  1.00 73.20 LIG 0.07  C 
BRANCH 30 31
ATOM     31  CG  PHE G   5      39.311   2.709  27.312  1.00 79.36 LIG-0.06  A 
ATOM     32  CD1 PHE G   5      38.699   1.831  28.241  1.00 85.64 LIG 0.01  A 
ATOM     33  CE1 PHE G   5      37.415   2.065  28.715  1.00 88.71 LIG 0.00  A 
ATOM     34  CZ  PHE G   5      36.720   3.193  28.270  1.00 96.11 LIG 0.00  A 
ATOM     35  CE2 PHE G   5      37.317   4.083  27.363  1.00 91.53 LIG 0.00  A 
ATOM     36  CD2 PHE G   5      38.603   3.843  26.889  1.00 81.01 LIG 0.01  A 
ENDBRANCH 30 31
ENDBRANCH 29 30
BRANCH 29 37
ATOM     37  C   PHE G   5      40.066   0.671  25.069  1.00 74.26 LIG 0.24  C 
ATOM     38  N   PRO G   6      39.913   0.320  23.772  1.00 79.01 LIG-0.34  N 
ATOM     39  CD  PRO G   6      40.251   1.197  22.619  1.00 76.17 LIG 0.13  C 
ATOM     40  CA  PRO G   6      39.099  -0.837  23.368  1.00 78.34 LIG 0.18  C 
ATOM     41  CG  PRO G   6      39.966   0.340  21.435  1.00 78.03 LIG 0.02  C 
ATOM     42  CB  PRO G   6      38.832  -0.545  21.881  1.00 82.73 LIG 0.04  C 
ATOM     43 O    PHE G   5      39.583   0.026  26.007  1.00 61.78 LIG-0.27  OA
BRANCH 40 44
ATOM     44  C   PRO G   6      39.756  -2.227  23.525  1.00 77.34 LIG 0.24  C 
ATOM     45 O    PRO G   6      39.967  -2.898  22.530  1.00 92.50 LIG-0.27  OA
ATOM     46  N   ALA G   7      40.067  -2.646  24.761  1.00 74.20 LIG-0.35  N 
ATOM     47 H    ALA G   7      40.181  -2.112  25.426  1.00 74.20 LIG 0.16  HD
BRANCH 46 48
ATOM     48  CA  ALA G   7      40.247  -4.082  25.104  1.00 71.75 LIG 0.16  C 
ATOM     49  CB  ALA G   7      41.718  -4.382  25.391  1.00 70.01 LIG 0.04  C 
BRANCH 48 50
ATOM     50  C   ALA G   7      39.378  -4.447  26.329  1.00 69.94 LIG 0.22  C 
ATOM     51 O    ALA G   7      38.300  -5.075  26.178  1.00 56.97 LIG-0.29  OA
ENDBRANCH 48 50
ENDBRANCH 46 48
ENDBRANCH 40 44
ENDBRANCH 29 37
ENDBRANCH 3 29
TORSDOF 18
ENDMDL
MODEL 52
USER: ADFR SOLUTION from run 50
USER: SCORE 14.071135 LL:  -5.140 LR: -10.515 RR:   0.000 FEB:  -5.146
USER: RMSD 11.341884
USER: SEED 49
USER: STATUS no improvement in best in 25 clusters for 5 generations
USER: GENES 20
USER: genes 0 Translation |==|  0.44942 0.61652 0.47925
USER: genes 1 Rotation |==|  0.97019 0.60033 0.39552 0.58909
USER: genes 2 Torsion [N]-C--CA-[N] |==|  0.60310
USER: genes 3 Torsion [C]-CA--CB-[CG] |==|  0.34026
USER: genes 4 Torsion [CA]-CB--CG-[CD1] |==|  0.18876
USER: genes 5 Torsion [C]-CA--N-[C] |==|  0.68511
USER: genes 6 Torsion [N]-C--CA-[N] |==|  0.51536
USER: genes 7 Torsion [C]-CA--CB-[CG1] |==|  0.72851
USER: genes 8 Torsion [CA]-CB--CG1-[CD1] |==|  0.31051
USER: genes 9 Torsion [C]-CA--N-[C] |==|  0.55603
USER: genes 10 Torsion [N]-C--CA-[N] |==|  0.13477
USER: genes 11 Torsion [C]-CA--CB-[CG] |==|  0.48075
USER: genes 12 Torsion [CA]-CB--CG-[OD1] |==|  0.76324
USER: genes 13 Torsion [C]-N--CA-[CB] |==|  0.51826
USER: genes 14 Torsion [N]-CA--CB-[CG] |==|  0.40960
USER: genes 15 Torsion [CA]-CB--CG-[CD1] |==|  0.72166
USER: genes 16 Torsion [N]-CA--C-[N] |==|  0.39488
USER: genes 17 Torsion [N]-CA--C-[O] |==|  0.60660
USER: genes 18 Torsion [C]-N--CA-[C] |==|  0.22320
USER: genes 19 Torsion [N]-CA--C-[O] |==|  0.25877
ROOT
ATOM      1  C   LEU G   4      39.124   9.414  22.344  1.00 61.38 LIG 0.24  C 
ATOM      2 O    LEU G   4      39.176   9.804  23.515  1.00 52.06 LIG-0.27  OA
ATOM      3  N   PHE G   5      39.302  10.181  21.282  1.00 60.80 LIG-0.35  N 
ATOM      4 H    PHE G   5      39.290   9.879  20.477  1.00 60.80 LIG 0.16  HD
ENDROOT
BRANCH 1 5
ATOM      5  CA  LEU G   4      38.806   7.987  22.009  1.00 58.56 LIG 0.18  C 
BRANCH 5 6
ATOM      6  CB  LEU G   4      38.276   7.953  20.579  1.00 61.47 LIG 0.04  C 
BRANCH 6 7
ATOM      7  CG  LEU G   4      39.062   7.055  19.648  1.00 62.80 LIG-0.02  C 
ATOM      8  CD1 LEU G   4      38.829   5.630  20.103  1.00 63.22 LIG 0.01  C 
ATOM      9  CD2 LEU G   4      38.584   7.300  18.217  1.00 64.86 LIG 0.01  C 
ENDBRANCH 6 7
ENDBRANCH 5 6
BRANCH 5 10
ATOM     10  N   LEU G   4      37.840   7.486  22.968  1.00 59.02 LIG-0.35  N 
ATOM     11 H    LEU G   4      37.064   7.854  22.926  1.00 59.02 LIG 0.16  HD
ATOM     12  C   ILE G   3      38.177   6.527  23.830  1.00 70.10 LIG 0.24  C 
ATOM     13 O    ILE G   3      39.235   5.868  23.715  1.00 64.55 LIG-0.27  OA
BRANCH 12 14
ATOM     14  CA  ILE G   3      37.182   6.265  24.992  1.00 67.83 LIG 0.18  C 
BRANCH 14 15
ATOM     15  CB  ILE G   3      36.824   7.592  25.733  1.00 66.94 LIG 0.01  C 
ATOM     16  CG2 ILE G   3      35.332   7.634  26.065  1.00 67.41 LIG 0.01  C 
BRANCH 15 17
ATOM     17  CG1 ILE G   3      37.667   7.791  27.023  1.00 59.79 LIG 0.00  C 
ATOM     18  CD1 ILE G   3      38.649   8.929  26.941  1.00 60.74 LIG 0.01  C 
ENDBRANCH 15 17
ENDBRANCH 14 15
BRANCH 14 19
ATOM     19  N   ILE G   3      37.743   5.291  25.914  1.00 79.60 LIG-0.34  N 
ATOM     20 H    ILE G   3      38.598   5.215  25.857  1.00 79.60 LIG 0.16  HD
ATOM     21  C   ASP G   2      37.004   4.580  26.771  1.00 93.07 LIG 0.26  C 
ATOM     22 O    ASP G   2      35.793   4.752  26.923  1.00 81.24 LIG-0.27  OA
BRANCH 21 23
ATOM     23  CA  ASP G   2      37.722   3.492  27.579  1.00 93.30 LIG 0.41  C 
ATOM     24  N   ASP G   2      38.958   4.080  28.169  1.00 94.60 LIG 0.61  N 
BRANCH 23 25
ATOM     25  CB  ASP G   2      36.832   2.909  28.687  1.00 96.36 LIG 0.16  C 
BRANCH 25 26
ATOM     26  CG  ASP G   2      37.467   1.723  29.380  1.00103.24 LIG 0.17  C 
ATOM     27 OD1  ASP G   2      37.334   0.588  28.882  1.00112.85 LIG-0.65  OA
ATOM     28 OD2  ASP G   2      38.109   1.922  30.423  1.00105.87 LIG-0.65  OA
ENDBRANCH 25 26
ENDBRANCH 23 25
ENDBRANCH 21 23
ENDBRANCH 14 19
ENDBRANCH 12 14
ENDBRANCH 5 10
ENDBRANCH 1 5
BRANCH 3 29
ATOM     29  CA  PHE G   5      39.534  11.596  21.361  1.00 70.05 LIG 0.18  C 
BRANCH 29 30
ATOM     30  CB  PHE G   5      39.537  12.226  19.953  1.00 73.20 LIG 0.07  C 
BRANCH 30 31
ATOM     31  CG  PHE G   5      38.999  13.649  19.940  1.00 79.36 LIG-0.06  A 
ATOM     32  CD1 PHE G   5      37.667  13.902  19.528  1.00 85.64 LIG 0.01  A 
ATOM     33  CE1 PHE G   5      37.147  15.190  19.522  1.00 88.71 LIG 0.00  A 
ATOM     34  CZ  PHE G   5      37.955  16.252  19.938  1.00 96.11 LIG 0.00  A 
ATOM     35  CE2 PHE G   5      39.271  16.018  20.365  1.00 91.53 LIG 0.00  A 
ATOM     36  CD2 PHE G   5      39.788  14.726  20.367  1.00 81.01 LIG 0.01  A 
ENDBRANCH 30 31
ENDBRANCH 29 30
BRANCH 29 37
ATOM     37  C   PHE G   5      38.454  12.144  22.287  1.00 74.26 LIG 0.24  C 
ATOM     38  N   PRO G   6      38.819  13.137  23.129  1.00 79.01 LIG-0.34  N 
ATOM     39  CD  PRO G   6      40.216  13.614  23.310  1.00 76.17 LIG 0.13  C 
ATOM     40  CA  PRO G   6      37.924  13.630  24.187  1.00 78.34 LIG 0.18  C 
ATOM     41  CG  PRO G   6      40.077  14.738  24.276  1.00 78.03 LIG 0.02  C 
ATOM     42  CB  PRO G   6      38.902  14.348  25.134  1.00 82.73 LIG 0.04  C 
ATOM     43 O    PHE G   5      37.336  11.615  22.306  1.00 61.78 LIG-0.27  OA
BRANCH 40 44
ATOM     44  C   PRO G   6      36.806  14.601  23.745  1.00 77.34 LIG 0.24  C 
ATOM     45 O    PRO G   6      36.515  15.538  24.469  1.00 92.50 LIG-0.27  OA
ATOM     46  N   ALA G   7      36.193  14.371  22.574  1.00 74.20 LIG-0.35  N 
ATOM     47 H    ALA G   7      36.542  13.905  21.941  1.00 74.20 LIG 0.16  HD
BRANCH 46 48
ATOM     48  CA  ALA G   7      34.840  14.902  22.255  1.00 71.75 LIG 0.16  C 
ATOM     49  CB  ALA G   7      33.916  14.771  23.466  1.00 70.01 LIG 0.04  C 
BRANCH 48 50
ATOM     50  C   ALA G   7      34.942  16.380  21.817  1.00 69.94 LIG 0.22  C 
ATOM     51 O    ALA G   7      35.044  16.677  20.600  1.00 56.97 LIG-0.29  OA
ENDBRANCH 48 50
ENDBRANCH 46 48
ENDBRANCH 40 44
ENDBRANCH 29 37
ENDBRANCH 3 29
TORSDOF 18
ENDMDL
MODEL 53
USER: ADFR SOLUTION from run 182
USER: SCORE 15.254160 LL:  -5.110 LR: -10.486 RR:   0.000 FEB:  -5.117
USER: RMSD 5.188961
USER: SEED 181
USER: STATUS no improvement in best in 24 clusters for 5 generations
USER: GENES 20
USER: genes 0 Translation |==|  0.51970 0.44892 0.58859
USER: genes 1 Rotation |==|  0.64193 0.04719 0.54824 0.64997
USER: genes 2 Torsion [N]-C--CA-[N] |==|  0.42826
USER: genes 3 Torsion [C]-CA--CB-[CG] |==|  0.38508
USER: genes 4 Torsion [CA]-CB--CG-[CD1] |==|  0.29124
USER: genes 5 Torsion [C]-CA--N-[C] |==|  0.58674
USER: genes 6 Torsion [N]-C--CA-[N] |==|  0.90068
USER: genes 7 Torsion [C]-CA--CB-[CG1] |==|  0.44879
USER: genes 8 Torsion [CA]-CB--CG1-[CD1] |==|  0.23218
USER: genes 9 Torsion [C]-CA--N-[C] |==|  0.81947
USER: genes 10 Torsion [N]-C--CA-[N] |==|  0.89385
USER: genes 11 Torsion [C]-CA--CB-[CG] |==|  0.77334
USER: genes 12 Torsion [CA]-CB--CG-[OD1] |==|  0.31706
USER: genes 13 Torsion [C]-N--CA-[CB] |==|  0.14999
USER: genes 14 Torsion [N]-CA--CB-[CG] |==|  0.16251
USER: genes 15 Torsion [CA]-CB--CG-[CD1] |==|  0.29790
USER: genes 16 Torsion [N]-CA--C-[N] |==|  0.14962
USER: genes 17 Torsion [N]-CA--C-[O] |==|  0.67805
USER: genes 18 Torsion [C]-N--CA-[C] |==|  0.91215
USER: genes 19 Torsion [N]-CA--C-[O] |==|  0.59658
ROOT
ATOM      1  C   LEU G   4      40.284   4.764  24.148  1.00 61.38 LIG 0.24  C 
ATOM      2 O    LEU G   4      41.120   5.331  24.860  1.00 52.06 LIG-0.27  OA
ATOM      3  N   PHE G   5      39.936   3.493  24.254  1.00 60.80 LIG-0.35  N 
ATOM      4 H    PHE G   5      39.330   3.130  23.764  1.00 60.80 LIG 0.16  HD
ENDROOT
BRANCH 1 5
ATOM      5  CA  LEU G   4      39.592   5.487  23.030  1.00 58.56 LIG 0.18  C 
BRANCH 5 6
ATOM      6  CB  LEU G   4      40.369   5.209  21.747  1.00 61.47 LIG 0.04  C 
BRANCH 6 7
ATOM      7  CG  LEU G   4      39.497   4.946  20.539  1.00 62.80 LIG-0.02  C 
ATOM      8  CD1 LEU G   4      39.541   6.190  19.678  1.00 63.22 LIG 0.01  C 
ATOM      9  CD2 LEU G   4      40.030   3.711  19.813  1.00 64.86 LIG 0.01  C 
ENDBRANCH 6 7
ENDBRANCH 5 6
BRANCH 5 10
ATOM     10  N   LEU G   4      39.540   6.901  23.349  1.00 59.02 LIG-0.35  N 
ATOM     11 H    LEU G   4      40.199   7.191  23.819  1.00 59.02 LIG 0.16  HD
ATOM     12  C   ILE G   3      38.525   7.653  22.923  1.00 70.10 LIG 0.24  C 
ATOM     13 O    ILE G   3      37.709   7.250  22.065  1.00 64.55 LIG-0.27  OA
BRANCH 12 14
ATOM     14  CA  ILE G   3      38.408   9.068  23.551  1.00 67.83 LIG 0.18  C 
BRANCH 14 15
ATOM     15  CB  ILE G   3      39.266  10.105  22.758  1.00 66.94 LIG 0.01  C 
ATOM     16  CG2 ILE G   3      39.194   9.822  21.257  1.00 67.41 LIG 0.01  C 
BRANCH 15 17
ATOM     17  CG1 ILE G   3      38.834  11.569  23.048  1.00 59.79 LIG 0.00  C 
ATOM     18  CD1 ILE G   3      39.447  12.149  24.295  1.00 60.74 LIG 0.01  C 
ENDBRANCH 15 17
ENDBRANCH 14 15
BRANCH 14 19
ATOM     19  N   ILE G   3      38.809   9.024  24.948  1.00 79.60 LIG-0.34  N 
ATOM     20 H    ILE G   3      39.518   9.479  25.118  1.00 79.60 LIG 0.16  HD
ATOM     21  C   ASP G   2      38.140   8.341  25.882  1.00 93.07 LIG 0.26  C 
ATOM     22 O    ASP G   2      37.074   7.764  25.664  1.00 81.24 LIG-0.27  OA
BRANCH 21 23
ATOM     23  CA  ASP G   2      38.765   8.274  27.281  1.00 93.30 LIG 0.41  C 
ATOM     24  N   ASP G   2      40.243   8.138  27.132  1.00 94.60 LIG 0.61  N 
BRANCH 23 25
ATOM     25  CB  ASP G   2      38.430   9.512  28.127  1.00 96.36 LIG 0.16  C 
BRANCH 25 26
ATOM     26  CG  ASP G   2      39.329  10.689  27.815  1.00103.24 LIG 0.17  C 
ATOM     27 OD1  ASP G   2      38.834  11.709  27.296  1.00112.85 LIG-0.65  OA
ATOM     28 OD2  ASP G   2      40.535  10.603  28.094  1.00105.87 LIG-0.65  OA
ENDBRANCH 25 26
ENDBRANCH 23 25
ENDBRANCH 21 23
ENDBRANCH 14 19
ENDBRANCH 12 14
ENDBRANCH 5 10
ENDBRANCH 1 5
BRANCH 3 29
ATOM     29  CA  PHE G   5      40.530   2.589  25.197  1.00 70.05 LIG 0.18  C 
BRANCH 29 30
ATOM     30  CB  PHE G   5      40.443   3.160  26.628  1.00 73.20 LIG 0.07  C 
BRANCH 30 31
ATOM     31  CG  PHE G   5      39.013   3.436  27.068  1.00 79.36 LIG-0.06  A 
ATOM     32  CD1 PHE G   5      38.388   2.597  28.024  1.00 85.64 LIG 0.01  A 
ATOM     33  CE1 PHE G   5      37.089   2.836  28.454  1.00 88.71 LIG 0.00  A 
ATOM     34  CZ  PHE G   5      36.392   3.931  27.936  1.00 96.11 LIG 0.00  A 
ATOM     35  CE2 PHE G   5      37.001   4.783  27.001  1.00 91.53 LIG 0.00  A 
ATOM     36  CD2 PHE G   5      38.301   4.537  26.572  1.00 81.01 LIG 0.01  A 
ENDBRANCH 30 31
ENDBRANCH 29 30
BRANCH 29 37
ATOM     37  C   PHE G   5      39.808   1.260  25.012  1.00 74.26 LIG 0.24  C 
ATOM     38  N   PRO G   6      39.775   0.753  23.759  1.00 79.01 LIG-0.34  N 
ATOM     39  CD  PRO G   6      40.259   1.470  22.549  1.00 76.17 LIG 0.13  C 
ATOM     40  CA  PRO G   6      38.966  -0.427  23.416  1.00 78.34 LIG 0.18  C 
ATOM     41  CG  PRO G   6      40.066   0.478  21.456  1.00 78.03 LIG 0.02  C 
ATOM     42  CB  PRO G   6      38.862  -0.319  21.884  1.00 82.73 LIG 0.04  C 
ATOM     43 O    PHE G   5      39.209   0.748  25.966  1.00 61.78 LIG-0.27  OA
BRANCH 40 44
ATOM     44  C   PRO G   6      39.552  -1.802  23.810  1.00 77.34 LIG 0.24  C 
ATOM     45 O    PRO G   6      39.844  -2.594  22.931  1.00 92.50 LIG-0.27  OA
ATOM     46  N   ALA G   7      39.716  -2.071  25.114  1.00 74.20 LIG-0.35  N 
ATOM     47 H    ALA G   7      39.777  -1.462  25.718  1.00 74.20 LIG 0.16  HD
BRANCH 46 48
ATOM     48  CA  ALA G   7      39.808  -3.457  25.645  1.00 71.75 LIG 0.16  C 
ATOM     49  CB  ALA G   7      39.343  -3.504  27.100  1.00 70.01 LIG 0.04  C 
BRANCH 48 50
ATOM     50  C   ALA G   7      38.956  -4.413  24.781  1.00 69.94 LIG 0.22  C 
ATOM     51 O    ALA G   7      38.354  -5.383  25.310  1.00 56.97 LIG-0.29  OA
ENDBRANCH 48 50
ENDBRANCH 46 48
ENDBRANCH 40 44
ENDBRANCH 29 37
ENDBRANCH 3 29
TORSDOF 18
ENDMDL
MODEL 54
USER: ADFR SOLUTION from run 35
USER: SCORE 13.583580 LL:  -4.882 LR: -10.467 RR:   0.000 FEB:  -5.098
USER: RMSD 3.047078
USER: SEED 34
USER: STATUS no improvement in best in 10 clusters for 5 generations
USER: GENES 20
USER: genes 0 Translation |==|  0.46858 0.48738 0.48107
USER: genes 1 Rotation |==|  0.45347 0.49647 0.50550 0.99779
USER: genes 2 Torsion [N]-C--CA-[N] |==|  0.45420
USER: genes 3 Torsion [C]-CA--CB-[CG] |==|  0.24184
USER: genes 4 Torsion [CA]-CB--CG-[CD1] |==|  0.17202
USER: genes 5 Torsion [C]-CA--N-[C] |==|  0.77661
USER: genes 6 Torsion [N]-C--CA-[N] |==|  0.37285
USER: genes 7 Torsion [C]-CA--CB-[CG1] |==|  0.48846
USER: genes 8 Torsion [CA]-CB--CG1-[CD1] |==|  0.25009
USER: genes 9 Torsion [C]-CA--N-[C] |==|  0.84414
USER: genes 10 Torsion [N]-C--CA-[N] |==|  0.76096
USER: genes 11 Torsion [C]-CA--CB-[CG] |==|  0.22402
USER: genes 12 Torsion [CA]-CB--CG-[OD1] |==|  0.05117
USER: genes 13 Torsion [C]-N--CA-[CB] |==|  0.35405
USER: genes 14 Torsion [N]-CA--CB-[CG] |==|  0.17227
USER: genes 15 Torsion [CA]-CB--CG-[CD1] |==|  0.76966
USER: genes 16 Torsion [N]-CA--C-[N] |==|  0.36944
USER: genes 17 Torsion [N]-CA--C-[O] |==|  0.99295
USER: genes 18 Torsion [C]-N--CA-[C] |==|  0.76819
USER: genes 19 Torsion [N]-CA--C-[O] |==|  0.01539
ROOT
ATOM      1  C   LEU G   4      39.441   5.831  22.374  1.00 61.38 LIG 0.24  C 
ATOM      2 O    LEU G   4      39.077   5.589  21.217  1.00 52.06 LIG-0.27  OA
ATOM      3  N   PHE G   5      40.322   5.120  23.054  1.00 60.80 LIG-0.35  N 
ATOM      4 H    PHE G   5      40.580   5.327  23.848  1.00 60.80 LIG 0.16  HD
ENDROOT
BRANCH 1 5
ATOM      5  CA  LEU G   4      38.862   6.977  23.150  1.00 58.56 LIG 0.18  C 
BRANCH 5 6
ATOM      6  CB  LEU G   4      37.875   6.402  24.160  1.00 61.47 LIG 0.04  C 
BRANCH 6 7
ATOM      7  CG  LEU G   4      38.502   5.987  25.473  1.00 62.80 LIG-0.02  C 
ATOM      8  CD1 LEU G   4      39.092   7.234  26.098  1.00 63.22 LIG 0.01  C 
ATOM      9  CD2 LEU G   4      37.423   5.348  26.348  1.00 64.86 LIG 0.01  C 
ENDBRANCH 6 7
ENDBRANCH 5 6
BRANCH 5 10
ATOM     10  N   LEU G   4      38.232   7.898  22.224  1.00 59.02 LIG-0.35  N 
ATOM     11 H    LEU G   4      37.377   7.822  22.163  1.00 59.02 LIG 0.16  HD
ATOM     12  C   ILE G   3      38.964   8.779  21.541  1.00 70.10 LIG 0.24  C 
ATOM     13 O    ILE G   3      40.162   9.007  21.818  1.00 64.55 LIG-0.27  OA
BRANCH 12 14
ATOM     14  CA  ILE G   3      38.247   9.513  20.377  1.00 67.83 LIG 0.18  C 
BRANCH 14 15
ATOM     15  CB  ILE G   3      38.659   8.911  18.996  1.00 66.94 LIG 0.01  C 
ATOM     16  CG2 ILE G   3      38.461   7.395  18.993  1.00 67.41 LIG 0.01  C 
BRANCH 15 17
ATOM     17  CG1 ILE G   3      37.880   9.556  17.817  1.00 59.79 LIG 0.00  C 
ATOM     18  CD1 ILE G   3      38.555  10.767  17.230  1.00 60.74 LIG 0.01  C 
ENDBRANCH 15 17
ENDBRANCH 14 15
BRANCH 14 19
ATOM     19  N   ILE G   3      38.544  10.936  20.432  1.00 79.60 LIG-0.34  N 
ATOM     20 H    ILE G   3      38.888  11.244  19.708  1.00 79.60 LIG 0.16  HD
ATOM     21  C   ASP G   2      38.304  11.694  21.506  1.00 93.07 LIG 0.26  C 
ATOM     22 O    ASP G   2      37.726  11.279  22.512  1.00 81.24 LIG-0.27  OA
BRANCH 21 23
ATOM     23  CA  ASP G   2      38.802  13.144  21.463  1.00 93.30 LIG 0.41  C 
ATOM     24  N   ASP G   2      40.221  13.170  21.921  1.00 94.60 LIG 0.61  N 
BRANCH 23 25
ATOM     25  CB  ASP G   2      38.688  13.756  20.059  1.00 96.36 LIG 0.16  C 
BRANCH 25 26
ATOM     26  CG  ASP G   2      37.288  14.237  19.747  1.00103.24 LIG 0.17  C 
ATOM     27 OD1  ASP G   2      36.490  14.431  20.685  1.00112.85 LIG-0.65  OA
ATOM     28 OD2  ASP G   2      36.979  14.431  18.561  1.00105.87 LIG-0.65  OA
ENDBRANCH 25 26
ENDBRANCH 23 25
ENDBRANCH 21 23
ENDBRANCH 14 19
ENDBRANCH 12 14
ENDBRANCH 5 10
ENDBRANCH 1 5
BRANCH 3 29
ATOM     29  CA  PHE G   5      40.941   3.931  22.542  1.00 70.05 LIG 0.18  C 
BRANCH 29 30
ATOM     30  CB  PHE G   5      42.477   4.024  22.655  1.00 73.20 LIG 0.07  C 
BRANCH 30 31
ATOM     31  CG  PHE G   5      42.957   4.145  24.093  1.00 79.36 LIG-0.06  A 
ATOM     32  CD1 PHE G   5      42.971   5.409  24.735  1.00 85.64 LIG 0.01  A 
ATOM     33  CE1 PHE G   5      43.392   5.543  26.052  1.00 88.71 LIG 0.00  A 
ATOM     34  CZ  PHE G   5      43.800   4.407  26.756  1.00 96.11 LIG 0.00  A 
ATOM     35  CE2 PHE G   5      43.778   3.145  26.141  1.00 91.53 LIG 0.00  A 
ATOM     36  CD2 PHE G   5      43.358   3.015  24.821  1.00 81.01 LIG 0.01  A 
ENDBRANCH 30 31
ENDBRANCH 29 30
BRANCH 29 37
ATOM     37  C   PHE G   5      40.328   2.773  23.321  1.00 74.26 LIG 0.24  C 
ATOM     38  N   PRO G   6      39.908   1.707  22.602  1.00 79.01 LIG-0.34  N 
ATOM     39  CD  PRO G   6      39.870   1.659  21.115  1.00 76.17 LIG 0.13  C 
ATOM     40  CA  PRO G   6      39.145   0.607  23.211  1.00 78.34 LIG 0.18  C 
ATOM     41  CG  PRO G   6      39.403   0.276  20.825  1.00 78.03 LIG 0.02  C 
ATOM     42  CB  PRO G   6      38.504  -0.065  21.984  1.00 82.73 LIG 0.04  C 
ATOM     43 O    PHE G   5      40.151   2.880  24.540  1.00 61.78 LIG-0.27  OA
BRANCH 40 44
ATOM     44  C   PRO G   6      39.959  -0.430  24.018  1.00 77.34 LIG 0.24  C 
ATOM     45 O    PRO G   6      41.172  -0.318  24.071  1.00 92.50 LIG-0.27  OA
ATOM     46  N   ALA G   7      39.295  -1.421  24.630  1.00 74.20 LIG-0.35  N 
ATOM     47 H    ALA G   7      38.460  -1.375  24.834  1.00 74.20 LIG 0.16  HD
BRANCH 46 48
ATOM     48  CA  ALA G   7      39.940  -2.704  25.019  1.00 71.75 LIG 0.16  C 
ATOM     49  CB  ALA G   7      39.193  -3.344  26.190  1.00 70.01 LIG 0.04  C 
BRANCH 48 50
ATOM     50  C   ALA G   7      39.970  -3.669  23.812  1.00 69.94 LIG 0.22  C 
ATOM     51 O    ALA G   7      39.584  -3.282  22.680  1.00 56.97 LIG-0.29  OA
ENDBRANCH 48 50
ENDBRANCH 46 48
ENDBRANCH 40 44
ENDBRANCH 29 37
ENDBRANCH 3 29
TORSDOF 18
ENDMDL
MODEL 55
USER: ADFR SOLUTION from run 23
USER: SCORE 14.333455 LL:  -6.218 LR: -10.469 RR:   0.000 FEB:  -5.099
USER: RMSD 4.251434
USER: SEED 22
USER: STATUS no improvement in best in 16 clusters for 5 generations
USER: GENES 20
USER: genes 0 Translation |==|  0.50043 0.45664 0.40422
USER: genes 1 Rotation |==|  0.41425 0.29908 0.56683 0.94476
USER: genes 2 Torsion [N]-C--CA-[N] |==|  0.12034
USER: genes 3 Torsion [C]-CA--CB-[CG] |==|  0.66771
USER: genes 4 Torsion [CA]-CB--CG-[CD1] |==|  0.32261
USER: genes 5 Torsion [C]-CA--N-[C] |==|  0.69036
USER: genes 6 Torsion [N]-C--CA-[N] |==|  0.18910
USER: genes 7 Torsion [C]-CA--CB-[CG1] |==|  0.16364
USER: genes 8 Torsion [CA]-CB--CG1-[CD1] |==|  0.54528
USER: genes 9 Torsion [C]-CA--N-[C] |==|  0.76564
USER: genes 10 Torsion [N]-C--CA-[N] |==|  0.43760
USER: genes 11 Torsion [C]-CA--CB-[CG] |==|  0.69525
USER: genes 12 Torsion [CA]-CB--CG-[OD1] |==|  0.63649
USER: genes 13 Torsion [C]-N--CA-[CB] |==|  0.31798
USER: genes 14 Torsion [N]-CA--CB-[CG] |==|  0.10990
USER: genes 15 Torsion [CA]-CB--CG-[CD1] |==|  0.71916
USER: genes 16 Torsion [N]-CA--C-[N] |==|  0.23297
USER: genes 17 Torsion [N]-CA--C-[O] |==|  0.02436
USER: genes 18 Torsion [C]-N--CA-[C] |==|  0.75908
USER: genes 19 Torsion [N]-CA--C-[O] |==|  0.05053
ROOT
ATOM      1  C   LEU G   4      39.966   4.978  21.106  1.00 61.38 LIG 0.24  C 
ATOM      2 O    LEU G   4      40.616   4.587  20.130  1.00 52.06 LIG-0.27  OA
ATOM      3  N   PHE G   5      40.212   4.646  22.361  1.00 60.80 LIG-0.35  N 
ATOM      4 H    PHE G   5      39.763   4.955  23.025  1.00 60.80 LIG 0.16  HD
ENDROOT
BRANCH 1 5
ATOM      5  CA  LEU G   4      38.771   5.869  20.941  1.00 58.56 LIG 0.18  C 
BRANCH 5 6
ATOM      6  CB  LEU G   4      38.822   6.458  19.535  1.00 61.47 LIG 0.04  C 
BRANCH 6 7
ATOM      7  CG  LEU G   4      38.900   7.969  19.498  1.00 62.80 LIG-0.02  C 
ATOM      8  CD1 LEU G   4      40.229   8.331  18.869  1.00 63.22 LIG 0.01  C 
ATOM      9  CD2 LEU G   4      37.710   8.499  18.700  1.00 64.86 LIG 0.01  C 
ENDBRANCH 6 7
ENDBRANCH 5 6
BRANCH 5 10
ATOM     10  N   LEU G   4      38.803   6.890  21.970  1.00 59.02 LIG-0.35  N 
ATOM     11 H    LEU G   4      39.436   7.467  21.888  1.00 59.02 LIG 0.16  HD
ATOM     12  C   ILE G   3      37.898   6.894  22.949  1.00 70.10 LIG 0.24  C 
ATOM     13 O    ILE G   3      36.871   6.181  22.911  1.00 64.55 LIG-0.27  OA
BRANCH 12 14
ATOM     14  CA  ILE G   3      38.185   7.839  24.147  1.00 67.83 LIG 0.18  C 
BRANCH 14 15
ATOM     15  CB  ILE G   3      37.215   7.548  25.335  1.00 66.94 LIG 0.01  C 
ATOM     16  CG2 ILE G   3      35.772   7.861  24.936  1.00 67.41 LIG 0.01  C 
BRANCH 15 17
ATOM     17  CG1 ILE G   3      37.326   6.082  25.839  1.00 59.79 LIG 0.00  C 
ATOM     18  CD1 ILE G   3      36.169   5.643  26.697  1.00 60.74 LIG 0.01  C 
ENDBRANCH 15 17
ENDBRANCH 14 15
BRANCH 14 19
ATOM     19  N   ILE G   3      38.081   9.225  23.719  1.00 79.60 LIG-0.34  N 
ATOM     20 H    ILE G   3      37.312   9.576  23.873  1.00 79.60 LIG 0.16  HD
ATOM     21  C   ASP G   2      39.084   9.892  23.142  1.00 93.07 LIG 0.26  C 
ATOM     22 O    ASP G   2      40.216   9.426  23.004  1.00 81.24 LIG-0.27  OA
BRANCH 21 23
ATOM     23  CA  ASP G   2      38.778  11.301  22.618  1.00 93.30 LIG 0.41  C 
ATOM     24  N   ASP G   2      40.057  12.061  22.531  1.00 94.60 LIG 0.61  N 
BRANCH 23 25
ATOM     25  CB  ASP G   2      38.084  11.273  21.248  1.00 96.36 LIG 0.16  C 
BRANCH 25 26
ATOM     26  CG  ASP G   2      38.979  11.768  20.133  1.00103.24 LIG 0.17  C 
ATOM     27 OD1  ASP G   2      38.541  12.623  19.338  1.00112.85 LIG-0.65  OA
ATOM     28 OD2  ASP G   2      40.129  11.309  20.049  1.00105.87 LIG-0.65  OA
ENDBRANCH 25 26
ENDBRANCH 23 25
ENDBRANCH 21 23
ENDBRANCH 14 19
ENDBRANCH 12 14
ENDBRANCH 5 10
ENDBRANCH 1 5
BRANCH 3 29
ATOM     29  CA  PHE G   5      41.255   3.737  22.746  1.00 70.05 LIG 0.18  C 
BRANCH 29 30
ATOM     30  CB  PHE G   5      42.337   4.467  23.568  1.00 73.20 LIG 0.07  C 
BRANCH 30 31
ATOM     31  CG  PHE G   5      41.756   5.482  24.541  1.00 79.36 LIG-0.06  A 
ATOM     32  CD1 PHE G   5      41.771   6.863  24.222  1.00 85.64 LIG 0.01  A 
ATOM     33  CE1 PHE G   5      41.234   7.808  25.087  1.00 88.71 LIG 0.00  A 
ATOM     34  CZ  PHE G   5      40.663   7.383  26.290  1.00 96.11 LIG 0.00  A 
ATOM     35  CE2 PHE G   5      40.624   6.018  26.615  1.00 91.53 LIG 0.00  A 
ATOM     36  CD2 PHE G   5      41.166   5.075  25.746  1.00 81.01 LIG 0.01  A 
ENDBRANCH 30 31
ENDBRANCH 29 30
BRANCH 29 37
ATOM     37  C   PHE G   5      40.563   2.604  23.495  1.00 74.26 LIG 0.24  C 
ATOM     38  N   PRO G   6      40.034   1.610  22.746  1.00 79.01 LIG-0.34  N 
ATOM     39  CD  PRO G   6      39.954   1.630  21.260  1.00 76.17 LIG 0.13  C 
ATOM     40  CA  PRO G   6      39.194   0.554  23.331  1.00 78.34 LIG 0.18  C 
ATOM     41  CG  PRO G   6      39.361   0.306  20.927  1.00 78.03 LIG 0.02  C 
ATOM     42  CB  PRO G   6      38.465  -0.006  22.097  1.00 82.73 LIG 0.04  C 
ATOM     43 O    PHE G   5      40.427   2.672  24.723  1.00 61.78 LIG-0.27  OA
BRANCH 40 44
ATOM     44  C   PRO G   6      39.934  -0.583  24.070  1.00 77.34 LIG 0.24  C 
ATOM     45 O    PRO G   6      41.131  -0.474  24.274  1.00 92.50 LIG-0.27  OA
ATOM     46  N   ALA G   7      39.226  -1.654  24.459  1.00 74.20 LIG-0.35  N 
ATOM     47 H    ALA G   7      38.374  -1.641  24.572  1.00 74.20 LIG 0.16  HD
BRANCH 46 48
ATOM     48  CA  ALA G   7      39.850  -2.976  24.735  1.00 71.75 LIG 0.16  C 
ATOM     49  CB  ALA G   7      39.035  -3.745  25.774  1.00 70.01 LIG 0.04  C 
BRANCH 48 50
ATOM     50  C   ALA G   7      39.957  -3.793  23.427  1.00 69.94 LIG 0.22  C 
ATOM     51 O    ALA G   7      39.873  -3.220  22.311  1.00 56.97 LIG-0.29  OA
ENDBRANCH 48 50
ENDBRANCH 46 48
ENDBRANCH 40 44
ENDBRANCH 29 37
ENDBRANCH 3 29
TORSDOF 18
ENDMDL
MODEL 56
USER: ADFR SOLUTION from run 148
USER: SCORE 14.710279 LL:  -5.466 LR: -10.466 RR:   0.000 FEB:  -5.096
USER: RMSD 4.209690
USER: SEED 147
USER: STATUS no improvement in best in 42 clusters for 5 generations
USER: GENES 20
USER: genes 0 Translation |==|  0.44908 0.47800 0.40852
USER: genes 1 Rotation |==|  0.47403 0.61632 0.45926 0.98387
USER: genes 2 Torsion [N]-C--CA-[N] |==|  0.45452
USER: genes 3 Torsion [C]-CA--CB-[CG] |==|  0.65805
USER: genes 4 Torsion [CA]-CB--CG-[CD1] |==|  0.43357
USER: genes 5 Torsion [C]-CA--N-[C] |==|  0.77430
USER: genes 6 Torsion [N]-C--CA-[N] |==|  0.36674
USER: genes 7 Torsion [C]-CA--CB-[CG1] |==|  0.99439
USER: genes 8 Torsion [CA]-CB--CG1-[CD1] |==|  0.72317
USER: genes 9 Torsion [C]-CA--N-[C] |==|  0.76207
USER: genes 10 Torsion [N]-C--CA-[N] |==|  0.92191
USER: genes 11 Torsion [C]-CA--CB-[CG] |==|  0.83465
USER: genes 12 Torsion [CA]-CB--CG-[OD1] |==|  0.91705
USER: genes 13 Torsion [C]-N--CA-[CB] |==|  0.20001
USER: genes 14 Torsion [N]-CA--CB-[CG] |==|  0.74375
USER: genes 15 Torsion [CA]-CB--CG-[CD1] |==|  0.41240
USER: genes 16 Torsion [N]-CA--C-[N] |==|  0.33785
USER: genes 17 Torsion [N]-CA--C-[O] |==|  0.35496
USER: genes 18 Torsion [C]-N--CA-[C] |==|  0.70463
USER: genes 19 Torsion [N]-CA--C-[O] |==|  0.04744
ROOT
ATOM      1  C   LEU G   4      39.119   5.570  21.177  1.00 61.38 LIG 0.24  C 
ATOM      2 O    LEU G   4      38.241   5.551  20.307  1.00 52.06 LIG-0.27  OA
ATOM      3  N   PHE G   5      40.013   4.617  21.371  1.00 60.80 LIG-0.35  N 
ATOM      4 H    PHE G   5      40.632   4.669  21.965  1.00 60.80 LIG 0.16  HD
ENDROOT
BRANCH 1 5
ATOM      5  CA  LEU G   4      39.227   6.706  22.151  1.00 58.56 LIG 0.18  C 
BRANCH 5 6
ATOM      6  CB  LEU G   4      38.677   6.223  23.489  1.00 61.47 LIG 0.04  C 
BRANCH 6 7
ATOM      7  CG  LEU G   4      37.541   7.062  24.033  1.00 62.80 LIG-0.02  C 
ATOM      8  CD1 LEU G   4      36.745   6.180  24.970  1.00 63.22 LIG 0.01  C 
ATOM      9  CD2 LEU G   4      38.132   8.283  24.737  1.00 64.86 LIG 0.01  C 
ENDBRANCH 6 7
ENDBRANCH 5 6
BRANCH 5 10
ATOM     10  N   LEU G   4      38.491   7.842  21.629  1.00 59.02 LIG-0.35  N 
ATOM     11 H    LEU G   4      37.701   7.941  21.953  1.00 59.02 LIG 0.16  HD
ATOM     12  C   ILE G   3      39.040   8.643  20.716  1.00 70.10 LIG 0.24  C 
ATOM     13 O    ILE G   3      40.259   8.598  20.435  1.00 64.55 LIG-0.27  OA
BRANCH 12 14
ATOM     14  CA  ILE G   3      38.083   9.643  20.014  1.00 67.83 LIG 0.18  C 
BRANCH 14 15
ATOM     15  CB  ILE G   3      37.758   9.181  18.559  1.00 66.94 LIG 0.01  C 
ATOM     16  CG2 ILE G   3      38.084  10.291  17.559  1.00 67.41 LIG 0.01  C 
BRANCH 15 17
ATOM     17  CG1 ILE G   3      38.510   7.876  18.175  1.00 59.79 LIG 0.00  C 
ATOM     18  CD1 ILE G   3      39.747   8.106  17.348  1.00 60.74 LIG 0.01  C 
ENDBRANCH 15 17
ENDBRANCH 14 15
BRANCH 14 19
ATOM     19  N   ILE G   3      38.671  10.974  20.017  1.00 79.60 LIG-0.34  N 
ATOM     20 H    ILE G   3      39.109  11.159  19.300  1.00 79.60 LIG 0.16  HD
ATOM     21  C   ASP G   2      38.545  11.830  21.035  1.00 93.07 LIG 0.26  C 
ATOM     22 O    ASP G   2      37.843  11.607  22.022  1.00 81.24 LIG-0.27  OA
BRANCH 21 23
ATOM     23  CA  ASP G   2      39.340  13.140  20.950  1.00 93.30 LIG 0.41  C 
ATOM     24  N   ASP G   2      40.561  12.898  20.130  1.00 94.60 LIG 0.61  N 
BRANCH 23 25
ATOM     25  CB  ASP G   2      38.512  14.282  20.344  1.00 96.36 LIG 0.16  C 
BRANCH 25 26
ATOM     26  CG  ASP G   2      38.031  13.972  18.943  1.00103.24 LIG 0.17  C 
ATOM     27 OD1  ASP G   2      38.718  13.226  18.218  1.00112.85 LIG-0.65  OA
ATOM     28 OD2  ASP G   2      36.961  14.469  18.561  1.00105.87 LIG-0.65  OA
ENDBRANCH 25 26
ENDBRANCH 23 25
ENDBRANCH 21 23
ENDBRANCH 14 19
ENDBRANCH 12 14
ENDBRANCH 5 10
ENDBRANCH 1 5
BRANCH 3 29
ATOM     29  CA  PHE G   5      40.045   3.399  20.612  1.00 70.05 LIG 0.18  C 
BRANCH 29 30
ATOM     30  CB  PHE G   5      40.535   3.667  19.174  1.00 73.20 LIG 0.07  C 
BRANCH 30 31
ATOM     31  CG  PHE G   5      39.396   3.935  18.202  1.00 79.36 LIG-0.06  A 
ATOM     32  CD1 PHE G   5      39.590   4.807  17.101  1.00 85.64 LIG 0.01  A 
ATOM     33  CE1 PHE G   5      38.571   5.057  16.192  1.00 88.71 LIG 0.00  A 
ATOM     34  CZ  PHE G   5      37.334   4.429  16.365  1.00 96.11 LIG 0.00  A 
ATOM     35  CE2 PHE G   5      37.128   3.550  17.440  1.00 91.53 LIG 0.00  A 
ATOM     36  CD2 PHE G   5      38.152   3.304  18.350  1.00 81.01 LIG 0.01  A 
ENDBRANCH 30 31
ENDBRANCH 29 30
BRANCH 29 37
ATOM     37  C   PHE G   5      40.927   2.439  21.402  1.00 74.26 LIG 0.24  C 
ATOM     38  N   PRO G   6      40.366   1.271  21.788  1.00 79.01 LIG-0.34  N 
ATOM     39  CD  PRO G   6      38.927   0.935  21.622  1.00 76.17 LIG 0.13  C 
ATOM     40  CA  PRO G   6      41.051   0.340  22.698  1.00 78.34 LIG 0.18  C 
ATOM     41  CG  PRO G   6      38.834  -0.460  22.134  1.00 78.03 LIG 0.02  C 
ATOM     42  CB  PRO G   6      39.890  -0.533  23.206  1.00 82.73 LIG 0.04  C 
ATOM     43 O    PHE G   5      42.065   2.789  21.740  1.00 61.78 LIG-0.27  OA
BRANCH 40 44
ATOM     44  C   PRO G   6      42.149  -0.550  22.074  1.00 77.34 LIG 0.24  C 
ATOM     45 O    PRO G   6      43.254  -0.574  22.589  1.00 92.50 LIG-0.27  OA
ATOM     46  N   ALA G   7      41.842  -1.263  20.981  1.00 74.20 LIG-0.35  N 
ATOM     47 H    ALA G   7      41.037  -1.474  20.764  1.00 74.20 LIG 0.16  HD
BRANCH 46 48
ATOM     48  CA  ALA G   7      42.871  -1.764  20.030  1.00 71.75 LIG 0.16  C 
ATOM     49  CB  ALA G   7      42.640  -3.243  19.722  1.00 70.01 LIG 0.04  C 
BRANCH 48 50
ATOM     50  C   ALA G   7      42.835  -0.935  18.726  1.00 69.94 LIG 0.22  C 
ATOM     51 O    ALA G   7      42.261   0.183  18.700  1.00 56.97 LIG-0.29  OA
ENDBRANCH 48 50
ENDBRANCH 46 48
ENDBRANCH 40 44
ENDBRANCH 29 37
ENDBRANCH 3 29
TORSDOF 18
ENDMDL
MODEL 57
USER: ADFR SOLUTION from run 52
USER: SCORE 14.590215 LL:  -5.567 LR: -10.460 RR:   0.000 FEB:  -5.090
USER: RMSD 12.066333
USER: SEED 51
USER: STATUS no improvement in best in 29 clusters for 5 generations
USER: GENES 20
USER: genes 0 Translation |==|  0.45610 0.33710 0.70768
USER: genes 1 Rotation |==|  0.05588 0.31505 0.36767 0.53220
USER: genes 2 Torsion [N]-C--CA-[N] |==|  0.52222
USER: genes 3 Torsion [C]-CA--CB-[CG] |==|  0.60809
USER: genes 4 Torsion [CA]-CB--CG-[CD1] |==|  0.24910
USER: genes 5 Torsion [C]-CA--N-[C] |==|  0.57785
USER: genes 6 Torsion [N]-C--CA-[N] |==|  0.43364
USER: genes 7 Torsion [C]-CA--CB-[CG1] |==|  0.31125
USER: genes 8 Torsion [CA]-CB--CG1-[CD1] |==|  0.78241
USER: genes 9 Torsion [C]-CA--N-[C] |==|  0.81145
USER: genes 10 Torsion [N]-C--CA-[N] |==|  0.67150
USER: genes 11 Torsion [C]-CA--CB-[CG] |==|  0.74115
USER: genes 12 Torsion [CA]-CB--CG-[OD1] |==|  0.76788
USER: genes 13 Torsion [C]-N--CA-[CB] |==|  0.21616
USER: genes 14 Torsion [N]-CA--CB-[CG] |==|  0.79072
USER: genes 15 Torsion [CA]-CB--CG-[CD1] |==|  0.31490
USER: genes 16 Torsion [N]-CA--C-[N] |==|  0.38766
USER: genes 17 Torsion [N]-CA--C-[O] |==|  0.36919
USER: genes 18 Torsion [C]-N--CA-[C] |==|  0.76157
USER: genes 19 Torsion [N]-CA--C-[O] |==|  0.98432
ROOT
ATOM      1  C   LEU G   4      39.235   1.660  26.113  1.00 61.38 LIG 0.24  C 
ATOM      2 O    LEU G   4      38.503   1.069  26.914  1.00 52.06 LIG-0.27  OA
ATOM      3  N   PHE G   5      39.385   2.972  26.051  1.00 60.80 LIG-0.35  N 
ATOM      4 H    PHE G   5      39.923   3.357  25.503  1.00 60.80 LIG 0.16  HD
ENDROOT
BRANCH 1 5
ATOM      5  CA  LEU G   4      40.020   0.914  25.075  1.00 58.56 LIG 0.18  C 
BRANCH 5 6
ATOM      6  CB  LEU G   4      39.731   1.559  23.723  1.00 61.47 LIG 0.04  C 
BRANCH 6 7
ATOM      7  CG  LEU G   4      39.601   0.574  22.581  1.00 62.80 LIG-0.02  C 
ATOM      8  CD1 LEU G   4      38.144   0.172  22.503  1.00 63.22 LIG 0.01  C 
ATOM      9  CD2 LEU G   4      40.093   1.247  21.300  1.00 64.86 LIG 0.01  C 
ENDBRANCH 6 7
ENDBRANCH 5 6
BRANCH 5 10
ATOM     10  N   LEU G   4      39.636  -0.484  25.113  1.00 59.02 LIG-0.35  N 
ATOM     11 H    LEU G   4      38.834  -0.632  25.386  1.00 59.02 LIG 0.16  HD
ATOM     12  C   ILE G   3      40.497  -1.432  24.743  1.00 70.10 LIG 0.24  C 
ATOM     13 O    ILE G   3      41.565  -1.168  24.148  1.00 64.55 LIG-0.27  OA
BRANCH 12 14
ATOM     14  CA  ILE G   3      40.102  -2.892  25.090  1.00 67.83 LIG 0.18  C 
BRANCH 14 15
ATOM     15  CB  ILE G   3      40.437  -3.225  26.579  1.00 66.94 LIG 0.01  C 
ATOM     16  CG2 ILE G   3      41.307  -2.126  27.190  1.00 67.41 LIG 0.01  C 
BRANCH 15 17
ATOM     17  CG1 ILE G   3      39.158  -3.435  27.436  1.00 59.79 LIG 0.00  C 
ATOM     18  CD1 ILE G   3      38.482  -2.153  27.847  1.00 60.74 LIG 0.01  C 
ENDBRANCH 15 17
ENDBRANCH 14 15
BRANCH 14 19
ATOM     19  N   ILE G   3      40.775  -3.814  24.188  1.00 79.60 LIG-0.34  N 
ATOM     20 H    ILE G   3      41.366  -4.304  24.574  1.00 79.60 LIG 0.16  HD
ATOM     21  C   ASP G   2      40.501  -3.895  22.883  1.00 93.07 LIG 0.26  C 
ATOM     22 O    ASP G   2      39.591  -3.264  22.343  1.00 81.24 LIG-0.27  OA
BRANCH 21 23
ATOM     23  CA  ASP G   2      41.392  -4.813  22.037  1.00 93.30 LIG 0.41  C 
ATOM     24  N   ASP G   2      42.085  -3.983  21.010  1.00 94.60 LIG 0.61  N 
BRANCH 23 25
ATOM     25  CB  ASP G   2      42.422  -5.569  22.889  1.00 96.36 LIG 0.16  C 
BRANCH 25 26
ATOM     26  CG  ASP G   2      43.749  -4.846  22.974  1.00103.24 LIG 0.17  C 
ATOM     27 OD1  ASP G   2      44.580  -4.994  22.056  1.00112.85 LIG-0.65  OA
ATOM     28 OD2  ASP G   2      43.966  -4.121  23.957  1.00105.87 LIG-0.65  OA
ENDBRANCH 25 26
ENDBRANCH 23 25
ENDBRANCH 21 23
ENDBRANCH 14 19
ENDBRANCH 12 14
ENDBRANCH 5 10
ENDBRANCH 1 5
BRANCH 3 29
ATOM     29  CA  PHE G   5      38.667   3.888  26.890  1.00 70.05 LIG 0.18  C 
BRANCH 29 30
ATOM     30  CB  PHE G   5      39.284   3.929  28.304  1.00 73.20 LIG 0.07  C 
BRANCH 30 31
ATOM     31  CG  PHE G   5      38.939   2.704  29.136  1.00 79.36 LIG-0.06  A 
ATOM     32  CD1 PHE G   5      39.954   1.788  29.510  1.00 85.64 LIG 0.01  A 
ATOM     33  CE1 PHE G   5      39.667   0.669  30.281  1.00 88.71 LIG 0.00  A 
ATOM     34  CZ  PHE G   5      38.352   0.451  30.701  1.00 96.11 LIG 0.00  A 
ATOM     35  CE2 PHE G   5      37.336   1.356  30.354  1.00 91.53 LIG 0.00  A 
ATOM     36  CD2 PHE G   5      37.628   2.474  29.579  1.00 81.01 LIG 0.01  A 
ENDBRANCH 30 31
ENDBRANCH 29 30
BRANCH 29 37
ATOM     37  C   PHE G   5      38.690   5.227  26.161  1.00 74.26 LIG 0.24  C 
ATOM     38  N   PRO G   6      37.552   5.956  26.187  1.00 79.01 LIG-0.34  N 
ATOM     39  CD  PRO G   6      36.258   5.475  26.744  1.00 76.17 LIG 0.13  C 
ATOM     40  CA  PRO G   6      37.388   7.176  25.381  1.00 78.34 LIG 0.18  C 
ATOM     41  CG  PRO G   6      35.358   6.651  26.595  1.00 78.03 LIG 0.02  C 
ATOM     42  CB  PRO G   6      35.860   7.351  25.359  1.00 82.73 LIG 0.04  C 
ATOM     43 O    PHE G   5      39.688   5.552  25.506  1.00 61.78 LIG-0.27  OA
BRANCH 40 44
ATOM     44  C   PRO G   6      38.060   8.456  25.928  1.00 77.34 LIG 0.24  C 
ATOM     45 O    PRO G   6      38.721   9.146  25.172  1.00 92.50 LIG-0.27  OA
ATOM     46  N   ALA G   7      37.889   8.758  27.224  1.00 74.20 LIG-0.35  N 
ATOM     47 H    ALA G   7      37.236   8.460  27.697  1.00 74.20 LIG 0.16  HD
BRANCH 46 48
ATOM     48  CA  ALA G   7      38.819   9.644  27.974  1.00 71.75 LIG 0.16  C 
ATOM     49  CB  ALA G   7      38.084  10.346  29.116  1.00 70.01 LIG 0.04  C 
BRANCH 48 50
ATOM     50  C   ALA G   7      40.004   8.821  28.527  1.00 69.94 LIG 0.22  C 
ATOM     51 O    ALA G   7      40.020   7.570  28.406  1.00 56.97 LIG-0.29  OA
ENDBRANCH 48 50
ENDBRANCH 46 48
ENDBRANCH 40 44
ENDBRANCH 29 37
ENDBRANCH 3 29
TORSDOF 18
ENDMDL
MODEL 58
USER: ADFR SOLUTION from run 160
USER: SCORE 14.164575 LL:  -5.059 LR: -10.444 RR:   0.000 FEB:  -5.074
USER: RMSD 10.943520
USER: SEED 159
USER: STATUS no improvement in best in 22 clusters for 5 generations
USER: GENES 20
USER: genes 0 Translation |==|  0.51334 0.46096 0.54054
USER: genes 1 Rotation |==|  0.60839 0.68716 0.94906 0.53954
USER: genes 2 Torsion [N]-C--CA-[N] |==|  0.32935
USER: genes 3 Torsion [C]-CA--CB-[CG] |==|  0.73880
USER: genes 4 Torsion [CA]-CB--CG-[CD1] |==|  0.33032
USER: genes 5 Torsion [C]-CA--N-[C] |==|  0.84284
USER: genes 6 Torsion [N]-C--CA-[N] |==|  0.95559
USER: genes 7 Torsion [C]-CA--CB-[CG1] |==|  0.31266
USER: genes 8 Torsion [CA]-CB--CG1-[CD1] |==|  0.84226
USER: genes 9 Torsion [C]-CA--N-[C] |==|  0.79794
USER: genes 10 Torsion [N]-C--CA-[N] |==|  0.88477
USER: genes 11 Torsion [C]-CA--CB-[CG] |==|  0.28676
USER: genes 12 Torsion [CA]-CB--CG-[OD1] |==|  0.55804
USER: genes 13 Torsion [C]-N--CA-[CB] |==|  0.26854
USER: genes 14 Torsion [N]-CA--CB-[CG] |==|  0.10539
USER: genes 15 Torsion [CA]-CB--CG-[CD1] |==|  0.12113
USER: genes 16 Torsion [N]-CA--C-[N] |==|  0.44837
USER: genes 17 Torsion [N]-CA--C-[O] |==|  0.05287
USER: genes 18 Torsion [C]-N--CA-[C] |==|  0.54658
USER: genes 19 Torsion [N]-CA--C-[O] |==|  0.19357
ROOT
ATOM      1  C   LEU G   4      40.179   5.098  23.355  1.00 61.38 LIG 0.24  C 
ATOM      2 O    LEU G   4      39.994   4.243  22.482  1.00 52.06 LIG-0.27  OA
ATOM      3  N   PHE G   5      39.617   6.293  23.375  1.00 60.80 LIG-0.35  N 
ATOM      4 H    PHE G   5      39.740   6.859  24.010  1.00 60.80 LIG 0.16  HD
ENDROOT
BRANCH 1 5
ATOM      5  CA  LEU G   4      41.125   4.858  24.494  1.00 58.56 LIG 0.18  C 
BRANCH 5 6
ATOM      6  CB  LEU G   4      42.505   4.589  23.902  1.00 61.47 LIG 0.04  C 
BRANCH 6 7
ATOM      7  CG  LEU G   4      42.820   3.123  23.702  1.00 62.80 LIG-0.02  C 
ATOM      8  CD1 LEU G   4      43.052   2.916  22.220  1.00 63.22 LIG 0.01  C 
ATOM      9  CD2 LEU G   4      44.047   2.769  24.542  1.00 64.86 LIG 0.01  C 
ENDBRANCH 6 7
ENDBRANCH 5 6
BRANCH 5 10
ATOM     10  N   LEU G   4      40.636   3.742  25.282  1.00 59.02 LIG-0.35  N 
ATOM     11 H    LEU G   4      41.191   3.092  25.373  1.00 59.02 LIG 0.16  HD
ATOM     12  C   ILE G   3      39.409   3.769  25.804  1.00 70.10 LIG 0.24  C 
ATOM     13 O    ILE G   3      38.721   4.813  25.838  1.00 64.55 LIG-0.27  OA
BRANCH 12 14
ATOM     14  CA  ILE G   3      38.876   2.428  26.376  1.00 67.83 LIG 0.18  C 
BRANCH 14 15
ATOM     15  CB  ILE G   3      38.856   2.454  27.937  1.00 66.94 LIG 0.01  C 
ATOM     16  CG2 ILE G   3      39.610   3.676  28.462  1.00 67.41 LIG 0.01  C 
BRANCH 15 17
ATOM     17  CG1 ILE G   3      37.410   2.431  28.507  1.00 59.79 LIG 0.00  C 
ATOM     18  CD1 ILE G   3      36.541   3.556  28.009  1.00 60.74 LIG 0.01  C 
ENDBRANCH 15 17
ENDBRANCH 14 15
BRANCH 14 19
ATOM     19  N   ILE G   3      39.687   1.325  25.885  1.00 79.60 LIG-0.34  N 
ATOM     20 H    ILE G   3      40.203   0.984  26.483  1.00 79.60 LIG 0.16  HD
ATOM     21  C   ASP G   2      39.636   0.880  24.627  1.00 93.07 LIG 0.26  C 
ATOM     22 O    ASP G   2      38.833   1.301  23.792  1.00 81.24 LIG-0.27  OA
BRANCH 21 23
ATOM     23  CA  ASP G   2      40.653  -0.196  24.223  1.00 93.30 LIG 0.41  C 
ATOM     24  N   ASP G   2      41.974   0.156  24.818  1.00 94.60 LIG 0.61  N 
BRANCH 23 25
ATOM     25  CB  ASP G   2      40.224  -1.599  24.678  1.00 96.36 LIG 0.16  C 
BRANCH 25 26
ATOM     26  CG  ASP G   2      39.669  -2.434  23.545  1.00103.24 LIG 0.17  C 
ATOM     27 OD1  ASP G   2      38.938  -3.408  23.811  1.00112.85 LIG-0.65  OA
ATOM     28 OD2  ASP G   2      39.956  -2.116  22.381  1.00105.87 LIG-0.65  OA
ENDBRANCH 25 26
ENDBRANCH 23 25
ENDBRANCH 21 23
ENDBRANCH 14 19
ENDBRANCH 12 14
ENDBRANCH 5 10
ENDBRANCH 1 5
BRANCH 3 29
ATOM     29  CA  PHE G   5      38.743   6.771  22.341  1.00 70.05 LIG 0.18  C 
BRANCH 29 30
ATOM     30  CB  PHE G   5      37.266   6.555  22.734  1.00 73.20 LIG 0.07  C 
BRANCH 30 31
ATOM     31  CG  PHE G   5      37.006   6.799  24.213  1.00 79.36 LIG-0.06  A 
ATOM     32  CD1 PHE G   5      37.581   7.921  24.861  1.00 85.64 LIG 0.01  A 
ATOM     33  CE1 PHE G   5      37.347   8.173  26.207  1.00 88.71 LIG 0.00  A 
ATOM     34  CZ  PHE G   5      36.522   7.305  26.929  1.00 96.11 LIG 0.00  A 
ATOM     35  CE2 PHE G   5      35.932   6.198  26.299  1.00 91.53 LIG 0.00  A 
ATOM     36  CD2 PHE G   5      36.171   5.948  24.952  1.00 81.01 LIG 0.01  A 
ENDBRANCH 30 31
ENDBRANCH 29 30
BRANCH 29 37
ATOM     37  C   PHE G   5      39.121   8.230  22.117  1.00 74.26 LIG 0.24  C 
ATOM     38  N   PRO G   6      38.725   8.792  20.953  1.00 79.01 LIG-0.34  N 
ATOM     39  CD  PRO G   6      38.085   8.047  19.835  1.00 76.17 LIG 0.13  C 
ATOM     40  CA  PRO G   6      39.172  10.132  20.541  1.00 78.34 LIG 0.18  C 
ATOM     41  CG  PRO G   6      37.788   9.109  18.835  1.00 78.03 LIG 0.02  C 
ATOM     42  CB  PRO G   6      38.887  10.121  19.029  1.00 82.73 LIG 0.04  C 
ATOM     43 O    PHE G   5      39.841   8.811  22.939  1.00 61.78 LIG-0.27  OA
BRANCH 40 44
ATOM     44  C   PRO G   6      38.458  11.330  21.206  1.00 77.34 LIG 0.24  C 
ATOM     45 O    PRO G   6      37.848  11.152  22.246  1.00 92.50 LIG-0.27  OA
ATOM     46  N   ALA G   7      38.537  12.528  20.606  1.00 74.20 LIG-0.35  N 
ATOM     47 H    ALA G   7      39.158  12.737  20.049  1.00 74.20 LIG 0.16  HD
BRANCH 46 48
ATOM     48  CA  ALA G   7      37.553  13.617  20.849  1.00 71.75 LIG 0.16  C 
ATOM     49  CB  ALA G   7      37.792  14.257  22.217  1.00 70.01 LIG 0.04  C 
BRANCH 48 50
ATOM     50  C   ALA G   7      37.657  14.682  19.735  1.00 69.94 LIG 0.22  C 
ATOM     51 O    ALA G   7      37.281  14.417  18.565  1.00 56.97 LIG-0.29  OA
ENDBRANCH 48 50
ENDBRANCH 46 48
ENDBRANCH 40 44
ENDBRANCH 29 37
ENDBRANCH 3 29
TORSDOF 18
ENDMDL
MODEL 59
USER: ADFR SOLUTION from run 194
USER: SCORE 14.637268 LL:  -5.213 LR: -10.438 RR:   0.000 FEB:  -5.069
USER: RMSD 10.436907
USER: SEED 193
USER: STATUS no improvement in best in 14 clusters for 5 generations
USER: GENES 20
USER: genes 0 Translation |==|  0.42638 0.52536 0.48638
USER: genes 1 Rotation |==|  0.05096 0.38558 0.33650 0.59239
USER: genes 2 Torsion [N]-C--CA-[N] |==|  0.39167
USER: genes 3 Torsion [C]-CA--CB-[CG] |==|  0.39591
USER: genes 4 Torsion [CA]-CB--CG-[CD1] |==|  0.33805
USER: genes 5 Torsion [C]-CA--N-[C] |==|  0.85134
USER: genes 6 Torsion [N]-C--CA-[N] |==|  0.19307
USER: genes 7 Torsion [C]-CA--CB-[CG1] |==|  0.52304
USER: genes 8 Torsion [CA]-CB--CG1-[CD1] |==|  0.83158
USER: genes 9 Torsion [C]-CA--N-[C] |==|  0.67477
USER: genes 10 Torsion [N]-C--CA-[N] |==|  0.46188
USER: genes 11 Torsion [C]-CA--CB-[CG] |==|  0.93163
USER: genes 12 Torsion [CA]-CB--CG-[OD1] |==|  0.81444
USER: genes 13 Torsion [C]-N--CA-[CB] |==|  0.17222
USER: genes 14 Torsion [N]-CA--CB-[CG] |==|  0.73551
USER: genes 15 Torsion [CA]-CB--CG-[CD1] |==|  0.88828
USER: genes 16 Torsion [N]-CA--C-[N] |==|  0.15883
USER: genes 17 Torsion [N]-CA--C-[O] |==|  0.50561
USER: genes 18 Torsion [C]-N--CA-[C] |==|  0.72119
USER: genes 19 Torsion [N]-CA--C-[O] |==|  0.99472
ROOT
ATOM      1  C   LEU G   4      38.744   6.885  22.461  1.00 61.38 LIG 0.24  C 
ATOM      2 O    LEU G   4      37.884   6.221  23.050  1.00 52.06 LIG-0.27  OA
ATOM      3  N   PHE G   5      39.154   8.087  22.826  1.00 60.80 LIG-0.35  N 
ATOM      4 H    PHE G   5      39.775   8.516  22.415  1.00 60.80 LIG 0.16  HD
ENDROOT
BRANCH 1 5
ATOM      5  CA  LEU G   4      39.398   6.379  21.210  1.00 58.56 LIG 0.18  C 
BRANCH 5 6
ATOM      6  CB  LEU G   4      38.458   6.672  20.044  1.00 61.47 LIG 0.04  C 
BRANCH 6 7
ATOM      7  CG  LEU G   4      39.160   7.083  18.769  1.00 62.80 LIG-0.02  C 
ATOM      8  CD1 LEU G   4      38.757   6.091  17.698  1.00 63.22 LIG 0.01  C 
ATOM      9  CD2 LEU G   4      38.749   8.515  18.426  1.00 64.86 LIG 0.01  C 
ENDBRANCH 6 7
ENDBRANCH 5 6
BRANCH 5 10
ATOM     10  N   LEU G   4      39.666   4.962  21.361  1.00 59.02 LIG-0.35  N 
ATOM     11 H    LEU G   4      39.354   4.465  20.732  1.00 59.02 LIG 0.16  HD
ATOM     12  C   ILE G   3      40.349   4.511  22.413  1.00 70.10 LIG 0.24  C 
ATOM     13 O    ILE G   3      40.972   5.276  23.182  1.00 64.55 LIG-0.27  OA
BRANCH 12 14
ATOM     14  CA  ILE G   3      40.334   2.975  22.636  1.00 67.83 LIG 0.18  C 
BRANCH 14 15
ATOM     15  CB  ILE G   3      40.890   2.608  24.048  1.00 66.94 LIG 0.01  C 
ATOM     16  CG2 ILE G   3      39.973   3.155  25.143  1.00 67.41 LIG 0.01  C 
BRANCH 15 17
ATOM     17  CG1 ILE G   3      41.080   1.076  24.224  1.00 59.79 LIG 0.00  C 
ATOM     18  CD1 ILE G   3      39.808   0.283  24.083  1.00 60.74 LIG 0.01  C 
ENDBRANCH 15 17
ENDBRANCH 14 15
BRANCH 14 19
ATOM     19  N   ILE G   3      41.100   2.316  21.589  1.00 79.60 LIG-0.34  N 
ATOM     20 H    ILE G   3      41.932   2.529  21.585  1.00 79.60 LIG 0.16  HD
ATOM     21  C   ASP G   2      40.562   1.460  20.715  1.00 93.07 LIG 0.26  C 
ATOM     22 O    ASP G   2      39.392   1.079  20.774  1.00 81.24 LIG-0.27  OA
BRANCH 21 23
ATOM     23  CA  ASP G   2      41.467   0.957  19.583  1.00 93.30 LIG 0.41  C 
ATOM     24  N   ASP G   2      40.807  -0.214  18.937  1.00 94.60 LIG 0.61  N 
BRANCH 23 25
ATOM     25  CB  ASP G   2      41.752   2.047  18.539  1.00 96.36 LIG 0.16  C 
BRANCH 25 26
ATOM     26  CG  ASP G   2      40.677   3.112  18.503  1.00103.24 LIG 0.17  C 
ATOM     27 OD1  ASP G   2      39.534   2.806  18.112  1.00112.85 LIG-0.65  OA
ATOM     28 OD2  ASP G   2      40.969   4.260  18.872  1.00105.87 LIG-0.65  OA
ENDBRANCH 25 26
ENDBRANCH 23 25
ENDBRANCH 21 23
ENDBRANCH 14 19
ENDBRANCH 12 14
ENDBRANCH 5 10
ENDBRANCH 1 5
BRANCH 3 29
ATOM     29  CA  PHE G   5      38.606   8.802  23.944  1.00 70.05 LIG 0.18  C 
BRANCH 29 30
ATOM     30  CB  PHE G   5      38.848   8.027  25.256  1.00 73.20 LIG 0.07  C 
BRANCH 30 31
ATOM     31  CG  PHE G   5      37.667   7.156  25.655  1.00 79.36 LIG-0.06  A 
ATOM     32  CD1 PHE G   5      36.342   7.634  25.493  1.00 85.64 LIG 0.01  A 
ATOM     33  CE1 PHE G   5      35.247   6.853  25.836  1.00 88.71 LIG 0.00  A 
ATOM     34  CZ  PHE G   5      35.460   5.567  26.343  1.00 96.11 LIG 0.00  A 
ATOM     35  CE2 PHE G   5      36.764   5.070  26.494  1.00 91.53 LIG 0.00  A 
ATOM     36  CD2 PHE G   5      37.858   5.858  26.151  1.00 81.01 LIG 0.01  A 
ENDBRANCH 30 31
ENDBRANCH 29 30
BRANCH 29 37
ATOM     37  C   PHE G   5      39.246  10.184  23.909  1.00 74.26 LIG 0.24  C 
ATOM     38  N   PRO G   6      39.083  10.904  22.776  1.00 79.01 LIG-0.34  N 
ATOM     39  CD  PRO G   6      38.459  10.382  21.531  1.00 76.17 LIG 0.13  C 
ATOM     40  CA  PRO G   6      39.793  12.173  22.549  1.00 78.34 LIG 0.18  C 
ATOM     41  CG  PRO G   6      38.460  11.560  20.621  1.00 78.03 LIG 0.02  C 
ATOM     42  CB  PRO G   6      39.683  12.341  21.024  1.00 82.73 LIG 0.04  C 
ATOM     43 O    PHE G   5      39.955  10.556  24.852  1.00 61.78 LIG-0.27  OA
BRANCH 40 44
ATOM     44  C   PRO G   6      39.218  13.419  23.262  1.00 77.34 LIG 0.24  C 
ATOM     45 O    PRO G   6      39.747  14.501  23.077  1.00 92.50 LIG-0.27  OA
ATOM     46  N   ALA G   7      38.155  13.257  24.063  1.00 74.20 LIG-0.35  N 
ATOM     47 H    ALA G   7      37.614  12.591  24.002  1.00 74.20 LIG 0.16  HD
BRANCH 46 48
ATOM     48  CA  ALA G   7      37.804  14.221  25.140  1.00 71.75 LIG 0.16  C 
ATOM     49  CB  ALA G   7      36.296  14.471  25.164  1.00 70.01 LIG 0.04  C 
BRANCH 48 50
ATOM     50  C   ALA G   7      38.278  13.680  26.508  1.00 69.94 LIG 0.22  C 
ATOM     51 O    ALA G   7      38.834  12.555  26.589  1.00 56.97 LIG-0.29  OA
ENDBRANCH 48 50
ENDBRANCH 46 48
ENDBRANCH 40 44
ENDBRANCH 29 37
ENDBRANCH 3 29
TORSDOF 18
ENDMDL
MODEL 60
USER: ADFR SOLUTION from run 137
USER: SCORE 14.539732 LL:  -5.034 LR: -10.424 RR:   0.000 FEB:  -5.055
USER: RMSD 4.206780
USER: SEED 136
USER: STATUS no improvement in best in 41 clusters for 5 generations
USER: GENES 20
USER: genes 0 Translation |==|  0.47059 0.50386 0.44279
USER: genes 1 Rotation |==|  0.75089 0.11107 0.37515 0.64212
USER: genes 2 Torsion [N]-C--CA-[N] |==|  0.40556
USER: genes 3 Torsion [C]-CA--CB-[CG] |==|  0.27472
USER: genes 4 Torsion [CA]-CB--CG-[CD1] |==|  0.42569
USER: genes 5 Torsion [C]-CA--N-[C] |==|  0.85235
USER: genes 6 Torsion [N]-C--CA-[N] |==|  0.96917
USER: genes 7 Torsion [C]-CA--CB-[CG1] |==|  0.25850
USER: genes 8 Torsion [CA]-CB--CG1-[CD1] |==|  0.79227
USER: genes 9 Torsion [C]-CA--N-[C] |==|  0.80357
USER: genes 10 Torsion [N]-C--CA-[N] |==|  0.90064
USER: genes 11 Torsion [C]-CA--CB-[CG] |==|  0.78130
USER: genes 12 Torsion [CA]-CB--CG-[OD1] |==|  0.80823
USER: genes 13 Torsion [C]-N--CA-[CB] |==|  0.90872
USER: genes 14 Torsion [N]-CA--CB-[CG] |==|  0.40264
USER: genes 15 Torsion [CA]-CB--CG-[CD1] |==|  0.19565
USER: genes 16 Torsion [N]-CA--C-[N] |==|  0.31021
USER: genes 17 Torsion [N]-CA--C-[O] |==|  0.98669
USER: genes 18 Torsion [C]-N--CA-[C] |==|  0.80831
USER: genes 19 Torsion [N]-CA--C-[O] |==|  0.94617
ROOT
ATOM      1  C   LEU G   4      39.474   6.288  21.742  1.00 61.38 LIG 0.24  C 
ATOM      2 O    LEU G   4      40.426   6.514  22.497  1.00 52.06 LIG-0.27  OA
ATOM      3  N   PHE G   5      39.357   5.223  20.968  1.00 60.80 LIG-0.35  N 
ATOM      4 H    PHE G   5      38.670   5.075  20.474  1.00 60.80 LIG 0.16  HD
ENDROOT
BRANCH 1 5
ATOM      5  CA  LEU G   4      38.339   7.259  21.606  1.00 58.56 LIG 0.18  C 
BRANCH 5 6
ATOM      6  CB  LEU G   4      38.727   8.279  20.539  1.00 61.47 LIG 0.04  C 
BRANCH 6 7
ATOM      7  CG  LEU G   4      38.137   8.003  19.173  1.00 62.80 LIG-0.02  C 
ATOM      8  CD1 LEU G   4      38.028   9.333  18.458  1.00 63.22 LIG 0.01  C 
ATOM      9  CD2 LEU G   4      39.045   7.016  18.441  1.00 64.86 LIG 0.01  C 
ENDBRANCH 6 7
ENDBRANCH 5 6
BRANCH 5 10
ATOM     10  N   LEU G   4      38.092   7.876  22.895  1.00 59.02 LIG-0.35  N 
ATOM     11 H    LEU G   4      38.089   8.735  22.891  1.00 59.02 LIG 0.16  HD
ATOM     12  C   ILE G   3      37.892   7.123  23.977  1.00 70.10 LIG 0.24  C 
ATOM     13 O    ILE G   3      37.684   5.892  23.905  1.00 64.55 LIG-0.27  OA
BRANCH 12 14
ATOM     14  CA  ILE G   3      37.926   7.860  25.343  1.00 67.83 LIG 0.18  C 
BRANCH 14 15
ATOM     15  CB  ILE G   3      36.511   7.883  26.003  1.00 66.94 LIG 0.01  C 
ATOM     16  CG2 ILE G   3      35.421   7.893  24.932  1.00 67.41 LIG 0.01  C 
BRANCH 15 17
ATOM     17  CG1 ILE G   3      36.297   6.689  26.974  1.00 59.79 LIG 0.00  C 
ATOM     18  CD1 ILE G   3      36.067   5.372  26.280  1.00 60.74 LIG 0.01  C 
ENDBRANCH 15 17
ENDBRANCH 14 15
BRANCH 14 19
ATOM     19  N   ILE G   3      38.437   9.210  25.163  1.00 79.60 LIG-0.34  N 
ATOM     20 H    ILE G   3      37.839   9.820  25.260  1.00 79.60 LIG 0.16  HD
ATOM     21  C   ASP G   2      39.713   9.480  24.874  1.00 93.07 LIG 0.26  C 
ATOM     22 O    ASP G   2      40.592   8.618  24.826  1.00 81.24 LIG-0.27  OA
BRANCH 21 23
ATOM     23  CA  ASP G   2      40.069  10.942  24.575  1.00 93.30 LIG 0.41  C 
ATOM     24  N   ASP G   2      38.928  11.565  23.844  1.00 94.60 LIG 0.61  N 
BRANCH 23 25
ATOM     25  CB  ASP G   2      40.377  11.738  25.852  1.00 96.36 LIG 0.16  C 
BRANCH 25 26
ATOM     26  CG  ASP G   2      39.126  12.159  26.591  1.00103.24 LIG 0.17  C 
ATOM     27 OD1  ASP G   2      38.382  13.020  26.082  1.00112.85 LIG-0.65  OA
ATOM     28 OD2  ASP G   2      38.876  11.626  27.683  1.00105.87 LIG-0.65  OA
ENDBRANCH 25 26
ENDBRANCH 23 25
ENDBRANCH 21 23
ENDBRANCH 14 19
ENDBRANCH 12 14
ENDBRANCH 5 10
ENDBRANCH 1 5
BRANCH 3 29
ATOM     29  CA  PHE G   5      40.364   4.204  20.872  1.00 70.05 LIG 0.18  C 
BRANCH 29 30
ATOM     30  CB  PHE G   5      41.771   4.811  21.045  1.00 73.20 LIG 0.07  C 
BRANCH 30 31
ATOM     31  CG  PHE G   5      42.730   3.884  21.776  1.00 79.36 LIG-0.06  A 
ATOM     32  CD1 PHE G   5      43.204   2.708  21.142  1.00 85.64 LIG 0.01  A 
ATOM     33  CE1 PHE G   5      44.091   1.852  21.782  1.00 88.71 LIG 0.00  A 
ATOM     34  CZ  PHE G   5      44.528   2.165  23.072  1.00 96.11 LIG 0.00  A 
ATOM     35  CE2 PHE G   5      44.083   3.334  23.709  1.00 91.53 LIG 0.00  A 
ATOM     36  CD2 PHE G   5      43.192   4.187  23.064  1.00 81.01 LIG 0.01  A 
ENDBRANCH 30 31
ENDBRANCH 29 30
BRANCH 29 37
ATOM     37  C   PHE G   5      40.002   3.161  21.924  1.00 74.26 LIG 0.24  C 
ATOM     38  N   PRO G   6      39.588   1.956  21.471  1.00 79.01 LIG-0.34  N 
ATOM     39  CD  PRO G   6      39.325   1.641  20.041  1.00 76.17 LIG 0.13  C 
ATOM     40  CA  PRO G   6      39.046   0.928  22.373  1.00 78.34 LIG 0.18  C 
ATOM     41  CG  PRO G   6      38.964   0.197  20.065  1.00 78.03 LIG 0.02  C 
ATOM     42  CB  PRO G   6      38.296   0.002  21.401  1.00 82.73 LIG 0.04  C 
ATOM     43 O    PHE G   5      40.005   3.471  23.121  1.00 61.78 LIG-0.27  OA
BRANCH 40 44
ATOM     44  C   PRO G   6      40.078   0.116  23.188  1.00 77.34 LIG 0.24  C 
ATOM     45 O    PRO G   6      41.266   0.297  22.985  1.00 92.50 LIG-0.27  OA
ATOM     46  N   ALA G   7      39.622  -0.764  24.092  1.00 74.20 LIG-0.35  N 
ATOM     47 H    ALA G   7      38.837  -0.720  24.440  1.00 74.20 LIG 0.16  HD
BRANCH 46 48
ATOM     48  CA  ALA G   7      40.435  -1.909  24.583  1.00 71.75 LIG 0.16  C 
ATOM     49  CB  ALA G   7      39.761  -2.565  25.787  1.00 70.01 LIG 0.04  C 
BRANCH 48 50
ATOM     50  C   ALA G   7      40.632  -2.943  23.451  1.00 69.94 LIG 0.22  C 
ATOM     51 O    ALA G   7      39.864  -2.949  22.456  1.00 56.97 LIG-0.29  OA
ENDBRANCH 48 50
ENDBRANCH 46 48
ENDBRANCH 40 44
ENDBRANCH 29 37
ENDBRANCH 3 29
TORSDOF 18
ENDMDL
MODEL 61
USER: ADFR SOLUTION from run 54
USER: SCORE 15.700411 LL:  -5.472 LR: -10.407 RR:   0.000 FEB:  -5.038
USER: RMSD 4.867816
USER: SEED 53
USER: STATUS no improvement in best in 10 clusters for 5 generations
USER: GENES 20
USER: genes 0 Translation |==|  0.42981 0.51170 0.61102
USER: genes 1 Rotation |==|  0.33317 0.58523 0.50064 0.96358
USER: genes 2 Torsion [N]-C--CA-[N] |==|  0.38142
USER: genes 3 Torsion [C]-CA--CB-[CG] |==|  0.88502
USER: genes 4 Torsion [CA]-CB--CG-[CD1] |==|  0.30900
USER: genes 5 Torsion [C]-CA--N-[C] |==|  0.79395
USER: genes 6 Torsion [N]-C--CA-[N] |==|  0.33635
USER: genes 7 Torsion [C]-CA--CB-[CG1] |==|  0.44417
USER: genes 8 Torsion [CA]-CB--CG1-[CD1] |==|  0.18989
USER: genes 9 Torsion [C]-CA--N-[C] |==|  0.80563
USER: genes 10 Torsion [N]-C--CA-[N] |==|  0.99887
USER: genes 11 Torsion [C]-CA--CB-[CG] |==|  0.79415
USER: genes 12 Torsion [CA]-CB--CG-[OD1] |==|  0.00487
USER: genes 13 Torsion [C]-N--CA-[CB] |==|  0.84823
USER: genes 14 Torsion [N]-CA--CB-[CG] |==|  0.49476
USER: genes 15 Torsion [CA]-CB--CG-[CD1] |==|  0.77786
USER: genes 16 Torsion [N]-CA--C-[N] |==|  0.38889
USER: genes 17 Torsion [N]-CA--C-[O] |==|  0.58675
USER: genes 18 Torsion [C]-N--CA-[C] |==|  0.71646
USER: genes 19 Torsion [N]-CA--C-[O] |==|  0.36044
ROOT
ATOM      1  C   LEU G   4      38.801   6.506  24.518  1.00 61.38 LIG 0.24  C 
ATOM      2 O    LEU G   4      38.072   5.808  23.804  1.00 52.06 LIG-0.27  OA
ATOM      3  N   PHE G   5      39.886   6.077  25.139  1.00 60.80 LIG-0.35  N 
ATOM      4 H    PHE G   5      40.393   6.590  25.606  1.00 60.80 LIG 0.16  HD
ENDROOT
BRANCH 1 5
ATOM      5  CA  LEU G   4      38.485   7.948  24.783  1.00 58.56 LIG 0.18  C 
BRANCH 5 6
ATOM      6  CB  LEU G   4      37.378   7.995  25.832  1.00 61.47 LIG 0.04  C 
BRANCH 6 7
ATOM      7  CG  LEU G   4      36.289   6.964  25.631  1.00 62.80 LIG-0.02  C 
ATOM      8  CD1 LEU G   4      36.408   5.965  26.763  1.00 63.22 LIG 0.01  C 
ATOM      9  CD2 LEU G   4      34.938   7.678  25.619  1.00 64.86 LIG 0.01  C 
ENDBRANCH 6 7
ENDBRANCH 5 6
BRANCH 5 10
ATOM     10  N   LEU G   4      38.092   8.578  23.537  1.00 59.02 LIG-0.35  N 
ATOM     11 H    LEU G   4      37.251   8.738  23.461  1.00 59.02 LIG 0.16  HD
ATOM     12  C   ILE G   3      39.004   8.867  22.608  1.00 70.10 LIG 0.24  C 
ATOM     13 O    ILE G   3      40.232   8.823  22.842  1.00 64.55 LIG-0.27  OA
BRANCH 12 14
ATOM     14  CA  ILE G   3      38.459   9.266  21.211  1.00 67.83 LIG 0.18  C 
BRANCH 14 15
ATOM     15  CB  ILE G   3      38.881   8.224  20.126  1.00 66.94 LIG 0.01  C 
ATOM     16  CG2 ILE G   3      38.868   6.810  20.708  1.00 67.41 LIG 0.01  C 
BRANCH 15 17
ATOM     17  CG1 ILE G   3      37.979   8.293  18.863  1.00 59.79 LIG 0.00  C 
ATOM     18  CD1 ILE G   3      38.148   9.556  18.060  1.00 60.74 LIG 0.01  C 
ENDBRANCH 15 17
ENDBRANCH 14 15
BRANCH 14 19
ATOM     19  N   ILE G   3      38.926  10.598  20.860  1.00 79.60 LIG-0.34  N 
ATOM     20 H    ILE G   3      39.504  10.604  20.224  1.00 79.60 LIG 0.16  HD
ATOM     21  C   ASP G   2      38.498  11.709  21.467  1.00 93.07 LIG 0.26  C 
ATOM     22 O    ASP G   2      37.602  11.715  22.313  1.00 81.24 LIG-0.27  OA
BRANCH 21 23
ATOM     23  CA  ASP G   2      39.187  13.025  21.084  1.00 93.30 LIG 0.41  C 
ATOM     24  N   ASP G   2      40.240  12.729  20.072  1.00 94.60 LIG 0.61  N 
BRANCH 23 25
ATOM     25  CB  ASP G   2      38.196  14.059  20.530  1.00 96.36 LIG 0.16  C 
BRANCH 25 26
ATOM     26  CG  ASP G   2      37.739  13.733  19.125  1.00103.24 LIG 0.17  C 
ATOM     27 OD1  ASP G   2      38.155  12.692  18.579  1.00112.85 LIG-0.65  OA
ATOM     28 OD2  ASP G   2      36.956  14.513  18.561  1.00105.87 LIG-0.65  OA
ENDBRANCH 25 26
ENDBRANCH 23 25
ENDBRANCH 21 23
ENDBRANCH 14 19
ENDBRANCH 12 14
ENDBRANCH 5 10
ENDBRANCH 1 5
BRANCH 3 29
ATOM     29  CA  PHE G   5      40.332   4.713  25.097  1.00 70.05 LIG 0.18  C 
BRANCH 29 30
ATOM     30  CB  PHE G   5      39.208   3.759  25.552  1.00 73.20 LIG 0.07  C 
BRANCH 30 31
ATOM     31  CG  PHE G   5      39.612   2.294  25.484  1.00 79.36 LIG-0.06  A 
ATOM     32  CD1 PHE G   5      39.584   1.606  24.245  1.00 85.64 LIG 0.01  A 
ATOM     33  CE1 PHE G   5      39.962   0.272  24.154  1.00 88.71 LIG 0.00  A 
ATOM     34  CZ  PHE G   5      40.385  -0.396  25.306  1.00 96.11 LIG 0.00  A 
ATOM     35  CE2 PHE G   5      40.434   0.274  26.539  1.00 91.53 LIG 0.00  A 
ATOM     36  CD2 PHE G   5      40.052   1.610  26.626  1.00 81.01 LIG 0.01  A 
ENDBRANCH 30 31
ENDBRANCH 29 30
BRANCH 29 37
ATOM     37  C   PHE G   5      40.811   4.475  23.669  1.00 74.26 LIG 0.24  C 
ATOM     38  N   PRO G   6      41.932   3.735  23.517  1.00 79.01 LIG-0.34  N 
ATOM     39  CD  PRO G   6      42.793   3.274  24.639  1.00 76.17 LIG 0.13  C 
ATOM     40  CA  PRO G   6      42.592   3.579  22.212  1.00 78.34 LIG 0.18  C 
ATOM     41  CG  PRO G   6      43.839   2.460  23.962  1.00 78.03 LIG 0.02  C 
ATOM     42  CB  PRO G   6      44.002   3.109  22.613  1.00 82.73 LIG 0.04  C 
ATOM     43 O    PHE G   5      40.231   5.030  22.727  1.00 61.78 LIG-0.27  OA
BRANCH 40 44
ATOM     44  C   PRO G   6      41.954   2.566  21.235  1.00 77.34 LIG 0.24  C 
ATOM     45 O    PRO G   6      42.671   1.966  20.453  1.00 92.50 LIG-0.27  OA
ATOM     46  N   ALA G   7      40.626   2.387  21.284  1.00 74.20 LIG-0.35  N 
ATOM     47 H    ALA G   7      40.149   2.578  21.974  1.00 74.20 LIG 0.16  HD
BRANCH 46 48
ATOM     48  CA  ALA G   7      39.843   1.839  20.144  1.00 71.75 LIG 0.16  C 
ATOM     49  CB  ALA G   7      38.835   0.802  20.638  1.00 70.01 LIG 0.04  C 
BRANCH 48 50
ATOM     50  C   ALA G   7      39.114   2.982  19.403  1.00 69.94 LIG 0.22  C 
ATOM     51 O    ALA G   7      39.206   3.090  18.154  1.00 56.97 LIG-0.29  OA
ENDBRANCH 48 50
ENDBRANCH 46 48
ENDBRANCH 40 44
ENDBRANCH 29 37
ENDBRANCH 3 29
TORSDOF 18
ENDMDL
MODEL 62
USER: ADFR SOLUTION from run 35
USER: SCORE 14.311618 LL:  -4.879 LR: -10.389 RR:   0.000 FEB:  -5.019
USER: RMSD 9.752455
USER: SEED 34
USER: STATUS no improvement in best in 10 clusters for 5 generations
USER: GENES 20
USER: genes 0 Translation |==|  0.52276 0.43583 0.55003
USER: genes 1 Rotation |==|  0.52858 0.53285 0.99357 0.56703
USER: genes 2 Torsion [N]-C--CA-[N] |==|  0.41730
USER: genes 3 Torsion [C]-CA--CB-[CG] |==|  0.71269
USER: genes 4 Torsion [CA]-CB--CG-[CD1] |==|  0.26334
USER: genes 5 Torsion [C]-CA--N-[C] |==|  0.66911
USER: genes 6 Torsion [N]-C--CA-[N] |==|  0.95556
USER: genes 7 Torsion [C]-CA--CB-[CG1] |==|  0.46224
USER: genes 8 Torsion [CA]-CB--CG1-[CD1] |==|  0.20494
USER: genes 9 Torsion [C]-CA--N-[C] |==|  0.73280
USER: genes 10 Torsion [N]-C--CA-[N] |==|  0.39077
USER: genes 11 Torsion [C]-CA--CB-[CG] |==|  0.66601
USER: genes 12 Torsion [CA]-CB--CG-[OD1] |==|  0.68427
USER: genes 13 Torsion [C]-N--CA-[CB] |==|  0.17122
USER: genes 14 Torsion [N]-CA--CB-[CG] |==|  0.60705
USER: genes 15 Torsion [CA]-CB--CG-[CD1] |==|  0.82495
USER: genes 16 Torsion [N]-CA--C-[N] |==|  0.83747
USER: genes 17 Torsion [N]-CA--C-[O] |==|  0.72856
USER: genes 18 Torsion [C]-N--CA-[C] |==|  0.65724
USER: genes 19 Torsion [N]-CA--C-[O] |==|  0.02058
ROOT
ATOM      1  C   LEU G   4      40.335   4.400  23.512  1.00 61.38 LIG 0.24  C 
ATOM      2 O    LEU G   4      40.552   4.177  22.316  1.00 52.06 LIG-0.27  OA
ATOM      3  N   PHE G   5      39.784   5.503  23.987  1.00 60.80 LIG-0.35  N 
ATOM      4 H    PHE G   5      39.616   5.622  24.822  1.00 60.80 LIG 0.16  HD
ENDROOT
BRANCH 1 5
ATOM      5  CA  LEU G   4      40.726   3.416  24.573  1.00 58.56 LIG 0.18  C 
BRANCH 5 6
ATOM      6  CB  LEU G   4      42.139   3.765  25.031  1.00 61.47 LIG 0.04  C 
BRANCH 6 7
ATOM      7  CG  LEU G   4      43.212   2.849  24.483  1.00 62.80 LIG-0.02  C 
ATOM      8  CD1 LEU G   4      43.769   3.509  23.239  1.00 63.22 LIG 0.01  C 
ATOM      9  CD2 LEU G   4      44.275   2.644  25.563  1.00 64.86 LIG 0.01  C 
ENDBRANCH 6 7
ENDBRANCH 5 6
BRANCH 5 10
ATOM     10  N   LEU G   4      40.639   2.076  24.024  1.00 59.02 LIG-0.35  N 
ATOM     11 H    LEU G   4      41.154   1.925  23.352  1.00 59.02 LIG 0.16  HD
ATOM     12  C   ILE G   3      39.807   1.180  24.556  1.00 70.10 LIG 0.24  C 
ATOM     13 O    ILE G   3      39.244   1.364  25.658  1.00 64.55 LIG-0.27  OA
BRANCH 12 14
ATOM     14  CA  ILE G   3      39.573  -0.114  23.732  1.00 67.83 LIG 0.18  C 
BRANCH 14 15
ATOM     15  CB  ILE G   3      40.295  -1.334  24.388  1.00 66.94 LIG 0.01  C 
ATOM     16  CG2 ILE G   3      40.097  -1.321  25.904  1.00 67.41 LIG 0.01  C 
BRANCH 15 17
ATOM     17  CG1 ILE G   3      39.815  -2.689  23.796  1.00 59.79 LIG 0.00  C 
ATOM     18  CD1 ILE G   3      40.334  -2.966  22.410  1.00 60.74 LIG 0.01  C 
ENDBRANCH 15 17
ENDBRANCH 14 15
BRANCH 14 19
ATOM     19  N   ILE G   3      40.025   0.082  22.364  1.00 79.60 LIG-0.34  N 
ATOM     20 H    ILE G   3      40.868  -0.048  22.258  1.00 79.60 LIG 0.16  HD
ATOM     21  C   ASP G   2      39.210   0.431  21.365  1.00 93.07 LIG 0.26  C 
ATOM     22 O    ASP G   2      37.988   0.527  21.491  1.00 81.24 LIG-0.27  OA
BRANCH 21 23
ATOM     23  CA  ASP G   2      39.857   0.739  20.009  1.00 93.30 LIG 0.41  C 
ATOM     24  N   ASP G   2      38.988   0.181  18.933  1.00 94.60 LIG 0.61  N 
BRANCH 23 25
ATOM     25  CB  ASP G   2      40.064   2.246  19.793  1.00 96.36 LIG 0.16  C 
BRANCH 25 26
ATOM     26  CG  ASP G   2      39.331   2.765  18.576  1.00103.24 LIG 0.17  C 
ATOM     27 OD1  ASP G   2      39.990   3.185  17.604  1.00112.85 LIG-0.65  OA
ATOM     28 OD2  ASP G   2      38.091   2.751  18.581  1.00105.87 LIG-0.65  OA
ENDBRANCH 25 26
ENDBRANCH 23 25
ENDBRANCH 21 23
ENDBRANCH 14 19
ENDBRANCH 12 14
ENDBRANCH 5 10
ENDBRANCH 1 5
BRANCH 3 29
ATOM     29  CA  PHE G   5      39.407   6.616  23.163  1.00 70.05 LIG 0.18  C 
BRANCH 29 30
ATOM     30  CB  PHE G   5      38.334   6.195  22.137  1.00 73.20 LIG 0.07  C 
BRANCH 30 31
ATOM     31  CG  PHE G   5      38.531   6.844  20.776  1.00 79.36 LIG-0.06  A 
ATOM     32  CD1 PHE G   5      38.446   8.253  20.640  1.00 85.64 LIG 0.01  A 
ATOM     33  CE1 PHE G   5      38.635   8.871  19.411  1.00 88.71 LIG 0.00  A 
ATOM     34  CZ  PHE G   5      38.923   8.086  18.291  1.00 96.11 LIG 0.00  A 
ATOM     35  CE2 PHE G   5      39.027   6.691  18.409  1.00 91.53 LIG 0.00  A 
ATOM     36  CD2 PHE G   5      38.834   6.076  19.643  1.00 81.01 LIG 0.01  A 
ENDBRANCH 30 31
ENDBRANCH 29 30
BRANCH 29 37
ATOM     37  C   PHE G   5      38.956   7.711  24.122  1.00 74.26 LIG 0.24  C 
ATOM     38  N   PRO G   6      37.931   7.413  24.951  1.00 79.01 LIG-0.34  N 
ATOM     39  CD  PRO G   6      37.134   6.158  24.884  1.00 76.17 LIG 0.13  C 
ATOM     40  CA  PRO G   6      37.290   8.431  25.798  1.00 78.34 LIG 0.18  C 
ATOM     41  CG  PRO G   6      36.191   6.284  26.029  1.00 78.03 LIG 0.02  C 
ATOM     42  CB  PRO G   6      35.948   7.766  26.151  1.00 82.73 LIG 0.04  C 
ATOM     43 O    PHE G   5      39.462   8.838  24.048  1.00 61.78 LIG-0.27  OA
BRANCH 40 44
ATOM     44  C   PRO G   6      38.042   8.824  27.089  1.00 77.34 LIG 0.24  C 
ATOM     45 O    PRO G   6      37.716   8.307  28.144  1.00 92.50 LIG-0.27  OA
ATOM     46  N   ALA G   7      39.030   9.727  26.998  1.00 74.20 LIG-0.35  N 
ATOM     47 H    ALA G   7      39.450   9.896  26.267  1.00 74.20 LIG 0.16  HD
BRANCH 46 48
ATOM     48  CA  ALA G   7      39.499  10.528  28.161  1.00 71.75 LIG 0.16  C 
ATOM     49  CB  ALA G   7      40.941  10.163  28.514  1.00 70.01 LIG 0.04  C 
BRANCH 48 50
ATOM     50  C   ALA G   7      39.393  12.036  27.842  1.00 69.94 LIG 0.22  C 
ATOM     51 O    ALA G   7      38.831  12.424  26.787  1.00 56.97 LIG-0.29  OA
ENDBRANCH 48 50
ENDBRANCH 46 48
ENDBRANCH 40 44
ENDBRANCH 29 37
ENDBRANCH 3 29
TORSDOF 18
ENDMDL
MODEL 63
USER: ADFR SOLUTION from run 89
USER: SCORE 15.261753 LL:  -6.196 LR: -10.383 RR:   0.000 FEB:  -5.014
USER: RMSD 5.750661
USER: SEED 88
USER: STATUS no improvement in best in 5 clusters for 5 generations
USER: GENES 20
USER: genes 0 Translation |==|  0.48420 0.56146 0.60582
USER: genes 1 Rotation |==|  0.73937 0.14478 0.28499 0.64244
USER: genes 2 Torsion [N]-C--CA-[N] |==|  0.87697
USER: genes 3 Torsion [C]-CA--CB-[CG] |==|  0.71598
USER: genes 4 Torsion [CA]-CB--CG-[CD1] |==|  0.22673
USER: genes 5 Torsion [C]-CA--N-[C] |==|  0.77231
USER: genes 6 Torsion [N]-C--CA-[N] |==|  0.40736
USER: genes 7 Torsion [C]-CA--CB-[CG1] |==|  0.27816
USER: genes 8 Torsion [CA]-CB--CG1-[CD1] |==|  0.35590
USER: genes 9 Torsion [C]-CA--N-[C] |==|  0.79563
USER: genes 10 Torsion [N]-C--CA-[N] |==|  0.95102
USER: genes 11 Torsion [C]-CA--CB-[CG] |==|  0.82000
USER: genes 12 Torsion [CA]-CB--CG-[OD1] |==|  0.46979
USER: genes 13 Torsion [C]-N--CA-[CB] |==|  0.25935
USER: genes 14 Torsion [N]-CA--CB-[CG] |==|  0.86586
USER: genes 15 Torsion [CA]-CB--CG-[CD1] |==|  0.28569
USER: genes 16 Torsion [N]-CA--C-[N] |==|  0.36111
USER: genes 17 Torsion [N]-CA--C-[O] |==|  0.68068
USER: genes 18 Torsion [C]-N--CA-[C] |==|  0.78668
USER: genes 19 Torsion [N]-CA--C-[O] |==|  0.11814
ROOT
ATOM      1  C   LEU G   4      39.698   7.887  24.432  1.00 61.38 LIG 0.24  C 
ATOM      2 O    LEU G   4      40.810   7.841  24.970  1.00 52.06 LIG-0.27  OA
ATOM      3  N   PHE G   5      39.307   7.111  23.436  1.00 60.80 LIG-0.35  N 
ATOM      4 H    PHE G   5      38.517   7.143  23.099  1.00 60.80 LIG 0.16  HD
ENDROOT
BRANCH 1 5
ATOM      5  CA  LEU G   4      38.668   8.892  24.854  1.00 58.56 LIG 0.18  C 
BRANCH 5 6
ATOM      6  CB  LEU G   4      37.630   8.163  25.702  1.00 61.47 LIG 0.04  C 
BRANCH 6 7
ATOM      7  CG  LEU G   4      36.343   7.848  24.972  1.00 62.80 LIG-0.02  C 
ATOM      8  CD1 LEU G   4      36.584   6.588  24.168  1.00 63.22 LIG 0.01  C 
ATOM      9  CD2 LEU G   4      35.226   7.681  26.003  1.00 64.86 LIG 0.01  C 
ENDBRANCH 6 7
ENDBRANCH 5 6
BRANCH 5 10
ATOM     10  N   LEU G   4      38.088   9.493  23.669  1.00 59.02 LIG-0.35  N 
ATOM     11 H    LEU G   4      37.337   9.156  23.421  1.00 59.02 LIG 0.16  HD
ATOM     12  C   ILE G   3      38.711  10.493  23.044  1.00 70.10 LIG 0.24  C 
ATOM     13 O    ILE G   3      39.678  11.100  23.555  1.00 64.55 LIG-0.27  OA
BRANCH 12 14
ATOM     14  CA  ILE G   3      38.167  10.871  21.640  1.00 67.83 LIG 0.18  C 
BRANCH 14 15
ATOM     15  CB  ILE G   3      38.894  10.060  20.521  1.00 66.94 LIG 0.01  C 
ATOM     16  CG2 ILE G   3      40.262   9.583  21.009  1.00 67.41 LIG 0.01  C 
BRANCH 15 17
ATOM     17  CG1 ILE G   3      38.050   8.852  20.028  1.00 59.79 LIG 0.00  C 
ATOM     18  CD1 ILE G   3      37.876   8.799  18.533  1.00 60.74 LIG 0.01  C 
ENDBRANCH 15 17
ENDBRANCH 14 15
BRANCH 14 19
ATOM     19  N   ILE G   3      38.314  12.302  21.422  1.00 79.60 LIG-0.34  N 
ATOM     20 H    ILE G   3      38.942  12.504  20.872  1.00 79.60 LIG 0.16  HD
ATOM     21  C   ASP G   2      37.545  13.217  22.019  1.00 93.07 LIG 0.26  C 
ATOM     22 O    ASP G   2      36.584  12.931  22.734  1.00 81.24 LIG-0.27  OA
BRANCH 21 23
ATOM     23  CA  ASP G   2      37.913  14.690  21.798  1.00 93.30 LIG 0.41  C 
ATOM     24  N   ASP G   2      39.316  14.757  21.300  1.00 94.60 LIG 0.61  N 
BRANCH 23 25
ATOM     25  CB  ASP G   2      36.966  15.383  20.807  1.00 96.36 LIG 0.16  C 
BRANCH 25 26
ATOM     26  CG  ASP G   2      37.061  14.806  19.411  1.00103.24 LIG 0.17  C 
ATOM     27 OD1  ASP G   2      36.209  15.131  18.561  1.00112.85 LIG-0.65  OA
ATOM     28 OD2  ASP G   2      37.993  14.028  19.155  1.00105.87 LIG-0.65  OA
ENDBRANCH 25 26
ENDBRANCH 23 25
ENDBRANCH 21 23
ENDBRANCH 14 19
ENDBRANCH 12 14
ENDBRANCH 5 10
ENDBRANCH 1 5
BRANCH 3 29
ATOM     29  CA  PHE G   5      40.157   6.135  22.816  1.00 70.05 LIG 0.18  C 
BRANCH 29 30
ATOM     30  CB  PHE G   5      39.970   4.753  23.475  1.00 73.20 LIG 0.07  C 
BRANCH 30 31
ATOM     31  CG  PHE G   5      40.023   4.810  24.994  1.00 79.36 LIG-0.06  A 
ATOM     32  CD1 PHE G   5      38.827   4.744  25.751  1.00 85.64 LIG 0.01  A 
ATOM     33  CE1 PHE G   5      38.850   4.780  27.139  1.00 88.71 LIG 0.00  A 
ATOM     34  CZ  PHE G   5      40.080   4.874  27.798  1.00 96.11 LIG 0.00  A 
ATOM     35  CE2 PHE G   5      41.276   4.924  27.065  1.00 91.53 LIG 0.00  A 
ATOM     36  CD2 PHE G   5      41.247   4.891  25.674  1.00 81.01 LIG 0.01  A 
ENDBRANCH 30 31
ENDBRANCH 29 30
BRANCH 29 37
ATOM     37  C   PHE G   5      39.815   6.168  21.331  1.00 74.26 LIG 0.24  C 
ATOM     38  N   PRO G   6      40.851   6.276  20.468  1.00 79.01 LIG-0.34  N 
ATOM     39  CD  PRO G   6      42.262   6.511  20.875  1.00 76.17 LIG 0.13  C 
ATOM     40  CA  PRO G   6      40.646   6.494  19.027  1.00 78.34 LIG 0.18  C 
ATOM     41  CG  PRO G   6      43.004   6.485  19.585  1.00 78.03 LIG 0.02  C 
ATOM     42  CB  PRO G   6      42.020   7.021  18.578  1.00 82.73 LIG 0.04  C 
ATOM     43 O    PHE G   5      38.631   6.192  20.974  1.00 61.78 LIG-0.27  OA
BRANCH 40 44
ATOM     44  C   PRO G   6      40.257   5.252  18.193  1.00 77.34 LIG 0.24  C 
ATOM     45 O    PRO G   6      41.030   4.845  17.343  1.00 92.50 LIG-0.27  OA
ATOM     46  N   ALA G   7      39.075   4.668  18.439  1.00 74.20 LIG-0.35  N 
ATOM     47 H    ALA G   7      38.650   4.756  19.181  1.00 74.20 LIG 0.16  HD
BRANCH 46 48
ATOM     48  CA  ALA G   7      38.381   3.806  17.445  1.00 71.75 LIG 0.16  C 
ATOM     49  CB  ALA G   7      37.334   2.931  18.135  1.00 70.01 LIG 0.04  C 
BRANCH 48 50
ATOM     50  C   ALA G   7      37.714   4.681  16.359  1.00 69.94 LIG 0.22  C 
ATOM     51 O    ALA G   7      38.325   5.668  15.875  1.00 56.97 LIG-0.29  OA
ENDBRANCH 48 50
ENDBRANCH 46 48
ENDBRANCH 40 44
ENDBRANCH 29 37
ENDBRANCH 3 29
TORSDOF 18
ENDMDL
MODEL 64
USER: ADFR SOLUTION from run 95
USER: SCORE 14.996935 LL:  -5.816 LR: -10.366 RR:   0.000 FEB:  -4.997
USER: RMSD 7.527781
USER: SEED 94
USER: STATUS no improvement in best in 22 clusters for 5 generations
USER: GENES 20
USER: genes 0 Translation |==|  0.49332 0.62110 0.55583
USER: genes 1 Rotation |==|  0.63622 0.08167 0.30691 0.63841
USER: genes 2 Torsion [N]-C--CA-[N] |==|  0.43112
USER: genes 3 Torsion [C]-CA--CB-[CG] |==|  0.42371
USER: genes 4 Torsion [CA]-CB--CG-[CD1] |==|  0.65417
USER: genes 5 Torsion [C]-CA--N-[C] |==|  0.81137
USER: genes 6 Torsion [N]-C--CA-[N] |==|  0.32778
USER: genes 7 Torsion [C]-CA--CB-[CG1] |==|  0.20641
USER: genes 8 Torsion [CA]-CB--CG1-[CD1] |==|  0.08784
USER: genes 9 Torsion [C]-CA--N-[C] |==|  0.82970
USER: genes 10 Torsion [N]-C--CA-[N] |==|  0.64531
USER: genes 11 Torsion [C]-CA--CB-[CG] |==|  0.79501
USER: genes 12 Torsion [CA]-CB--CG-[OD1] |==|  0.81479
USER: genes 13 Torsion [C]-N--CA-[CB] |==|  0.22195
USER: genes 14 Torsion [N]-CA--CB-[CG] |==|  0.07029
USER: genes 15 Torsion [CA]-CB--CG-[CD1] |==|  0.17300
USER: genes 16 Torsion [N]-CA--C-[N] |==|  0.16368
USER: genes 17 Torsion [N]-CA--C-[O] |==|  0.65378
USER: genes 18 Torsion [C]-N--CA-[C] |==|  0.87404
USER: genes 19 Torsion [N]-CA--C-[O] |==|  0.21327
ROOT
ATOM      1  C   LEU G   4      39.849   9.542  23.607  1.00 61.38 LIG 0.24  C 
ATOM      2 O    LEU G   4      40.912   9.207  24.142  1.00 52.06 LIG-0.27  OA
ATOM      3  N   PHE G   5      39.091   8.750  22.869  1.00 60.80 LIG-0.35  N 
ATOM      4 H    PHE G   5      38.340   8.999  22.532  1.00 60.80 LIG 0.16  HD
ENDROOT
BRANCH 1 5
ATOM      5  CA  LEU G   4      39.324  10.942  23.723  1.00 58.56 LIG 0.18  C 
BRANCH 5 6
ATOM      6  CB  LEU G   4      39.766  11.707  22.479  1.00 61.47 LIG 0.04  C 
BRANCH 6 7
ATOM      7  CG  LEU G   4      38.849  12.847  22.093  1.00 62.80 LIG-0.02  C 
ATOM      8  CD1 LEU G   4      38.427  12.612  20.658  1.00 63.22 LIG 0.01  C 
ATOM      9  CD2 LEU G   4      37.663  12.865  23.057  1.00 64.86 LIG 0.01  C 
ENDBRANCH 6 7
ENDBRANCH 5 6
BRANCH 5 10
ATOM     10  N   LEU G   4      39.833  11.533  24.945  1.00 59.02 LIG-0.35  N 
ATOM     11 H    LEU G   4      40.393  12.175  24.831  1.00 59.02 LIG 0.16  HD
ATOM     12  C   ILE G   3      39.432  11.081  26.134  1.00 70.10 LIG 0.24  C 
ATOM     13 O    ILE G   3      38.459  10.305  26.259  1.00 64.55 LIG-0.27  OA
BRANCH 12 14
ATOM     14  CA  ILE G   3      40.240  11.573  27.364  1.00 67.83 LIG 0.18  C 
BRANCH 14 15
ATOM     15  CB  ILE G   3      40.898  10.373  28.118  1.00 66.94 LIG 0.01  C 
ATOM     16  CG2 ILE G   3      39.869   9.271  28.371  1.00 67.41 LIG 0.01  C 
BRANCH 15 17
ATOM     17  CG1 ILE G   3      42.122   9.798  27.352  1.00 59.79 LIG 0.00  C 
ATOM     18  CD1 ILE G   3      42.880  10.826  26.554  1.00 60.74 LIG 0.01  C 
ENDBRANCH 15 17
ENDBRANCH 14 15
BRANCH 14 19
ATOM     19  N   ILE G   3      39.374  12.332  28.253  1.00 79.60 LIG-0.34  N 
ATOM     20 H    ILE G   3      39.298  11.987  29.037  1.00 79.60 LIG 0.16  HD
ATOM     21  C   ASP G   2      38.755  13.458  27.888  1.00 93.07 LIG 0.26  C 
ATOM     22 O    ASP G   2      38.933  14.006  26.799  1.00 81.24 LIG-0.27  OA
BRANCH 21 23
ATOM     23  CA  ASP G   2      37.764  14.067  28.889  1.00 93.30 LIG 0.41  C 
ATOM     24  N   ASP G   2      36.467  14.295  28.189  1.00 94.60 LIG 0.61  N 
BRANCH 23 25
ATOM     25  CB  ASP G   2      37.552  13.168  30.116  1.00 96.36 LIG 0.16  C 
BRANCH 25 26
ATOM     26  CG  ASP G   2      36.709  11.950  29.806  1.00103.24 LIG 0.17  C 
ATOM     27 OD1  ASP G   2      35.509  12.103  29.504  1.00112.85 LIG-0.65  OA
ATOM     28 OD2  ASP G   2      37.244  10.832  29.856  1.00105.87 LIG-0.65  OA
ENDBRANCH 25 26
ENDBRANCH 23 25
ENDBRANCH 21 23
ENDBRANCH 14 19
ENDBRANCH 12 14
ENDBRANCH 5 10
ENDBRANCH 1 5
BRANCH 3 29
ATOM     29  CA  PHE G   5      39.440   7.393  22.554  1.00 70.05 LIG 0.18  C 
BRANCH 29 30
ATOM     30  CB  PHE G   5      39.112   6.458  23.737  1.00 73.20 LIG 0.07  C 
BRANCH 30 31
ATOM     31  CG  PHE G   5      38.007   7.000  24.631  1.00 79.36 LIG-0.06  A 
ATOM     32  CD1 PHE G   5      36.706   7.206  24.109  1.00 85.64 LIG 0.01  A 
ATOM     33  CE1 PHE G   5      35.677   7.686  24.908  1.00 88.71 LIG 0.00  A 
ATOM     34  CZ  PHE G   5      35.932   7.963  26.254  1.00 96.11 LIG 0.00  A 
ATOM     35  CE2 PHE G   5      37.211   7.749  26.793  1.00 91.53 LIG 0.00  A 
ATOM     36  CD2 PHE G   5      38.240   7.271  25.987  1.00 81.01 LIG 0.01  A 
ENDBRANCH 30 31
ENDBRANCH 29 30
BRANCH 29 37
ATOM     37  C   PHE G   5      38.691   7.058  21.269  1.00 74.26 LIG 0.24  C 
ATOM     38  N   PRO G   6      38.951   7.833  20.192  1.00 79.01 LIG-0.34  N 
ATOM     39  CD  PRO G   6      39.792   9.060  20.222  1.00 76.17 LIG 0.13  C 
ATOM     40  CA  PRO G   6      38.172   7.726  18.948  1.00 78.34 LIG 0.18  C 
ATOM     41  CG  PRO G   6      39.818   9.498  18.799  1.00 78.03 LIG 0.02  C 
ATOM     42  CB  PRO G   6      38.485   9.061  18.251  1.00 82.73 LIG 0.04  C 
ATOM     43 O    PHE G   5      37.824   6.176  21.277  1.00 61.78 LIG-0.27  OA
BRANCH 40 44
ATOM     44  C   PRO G   6      38.525   6.546  18.015  1.00 77.34 LIG 0.24  C 
ATOM     45 O    PRO G   6      38.822   6.777  16.856  1.00 92.50 LIG-0.27  OA
ATOM     46  N   ALA G   7      38.487   5.304  18.521  1.00 74.20 LIG-0.35  N 
ATOM     47 H    ALA G   7      38.549   5.134  19.362  1.00 74.20 LIG 0.16  HD
BRANCH 46 48
ATOM     48  CA  ALA G   7      38.335   4.092  17.672  1.00 71.75 LIG 0.16  C 
ATOM     49  CB  ALA G   7      38.013   2.872  18.534  1.00 70.01 LIG 0.04  C 
BRANCH 48 50
ATOM     50  C   ALA G   7      37.221   4.316  16.624  1.00 69.94 LIG 0.22  C 
ATOM     51 O    ALA G   7      37.438   5.021  15.606  1.00 56.97 LIG-0.29  OA
ENDBRANCH 48 50
ENDBRANCH 46 48
ENDBRANCH 40 44
ENDBRANCH 29 37
ENDBRANCH 3 29
TORSDOF 18
ENDMDL
MODEL 65
USER: ADFR SOLUTION from run 139
USER: SCORE 15.424058 LL:  -5.616 LR: -10.373 RR:   0.000 FEB:  -5.003
USER: RMSD 6.793376
USER: SEED 138
USER: STATUS no improvement in best in 29 clusters for 5 generations
USER: GENES 20
USER: genes 0 Translation |==|  0.39811 0.53664 0.58420
USER: genes 1 Rotation |==|  0.41623 0.67373 0.72801 0.90101
USER: genes 2 Torsion [N]-C--CA-[N] |==|  0.08148
USER: genes 3 Torsion [C]-CA--CB-[CG] |==|  0.32430
USER: genes 4 Torsion [CA]-CB--CG-[CD1] |==|  0.50115
USER: genes 5 Torsion [C]-CA--N-[C] |==|  0.67549
USER: genes 6 Torsion [N]-C--CA-[N] |==|  0.42050
USER: genes 7 Torsion [C]-CA--CB-[CG1] |==|  0.24142
USER: genes 8 Torsion [CA]-CB--CG1-[CD1] |==|  0.06604
USER: genes 9 Torsion [C]-CA--N-[C] |==|  0.72608
USER: genes 10 Torsion [N]-C--CA-[N] |==|  0.46249
USER: genes 11 Torsion [C]-CA--CB-[CG] |==|  0.84418
USER: genes 12 Torsion [CA]-CB--CG-[OD1] |==|  0.83695
USER: genes 13 Torsion [C]-N--CA-[CB] |==|  0.77347
USER: genes 14 Torsion [N]-CA--CB-[CG] |==|  0.01156
USER: genes 15 Torsion [CA]-CB--CG-[CD1] |==|  0.29138
USER: genes 16 Torsion [N]-CA--C-[N] |==|  0.21255
USER: genes 17 Torsion [N]-CA--C-[O] |==|  0.65959
USER: genes 18 Torsion [C]-N--CA-[C] |==|  0.12858
USER: genes 19 Torsion [N]-CA--C-[O] |==|  0.70511
ROOT
ATOM      1  C   LEU G   4      38.278   7.198  24.075  1.00 61.38 LIG 0.24  C 
ATOM      2 O    LEU G   4      37.685   6.266  23.521  1.00 52.06 LIG-0.27  OA
ATOM      3  N   PHE G   5      39.503   7.596  23.782  1.00 60.80 LIG-0.35  N 
ATOM      4 H    PHE G   5      39.883   8.267  24.163  1.00 60.80 LIG 0.16  HD
ENDROOT
BRANCH 1 5
ATOM      5  CA  LEU G   4      37.647   7.965  25.199  1.00 58.56 LIG 0.18  C 
BRANCH 5 6
ATOM      6  CB  LEU G   4      36.138   7.953  24.980  1.00 61.47 LIG 0.04  C 
BRANCH 6 7
ATOM      7  CG  LEU G   4      35.358   7.246  26.067  1.00 62.80 LIG-0.02  C 
ATOM      8  CD1 LEU G   4      33.895   7.320  25.686  1.00 63.22 LIG 0.01  C 
ATOM      9  CD2 LEU G   4      35.865   5.808  26.172  1.00 64.86 LIG 0.01  C 
ENDBRANCH 6 7
ENDBRANCH 5 6
BRANCH 5 10
ATOM     10  N   LEU G   4      38.193   9.309  25.212  1.00 59.02 LIG-0.35  N 
ATOM     11 H    LEU G   4      38.023   9.776  24.510  1.00 59.02 LIG 0.16  HD
ATOM     12  C   ILE G   3      38.898   9.743  26.257  1.00 70.10 LIG 0.24  C 
ATOM     13 O    ILE G   3      38.934   9.122  27.342  1.00 64.55 LIG-0.27  OA
BRANCH 12 14
ATOM     14  CA  ILE G   3      39.675  11.072  26.058  1.00 67.83 LIG 0.18  C 
BRANCH 14 15
ATOM     15  CB  ILE G   3      41.073  10.811  25.411  1.00 66.94 LIG 0.01  C 
ATOM     16  CG2 ILE G   3      41.672   9.508  25.940  1.00 67.41 LIG 0.01  C 
BRANCH 15 17
ATOM     17  CG1 ILE G   3      41.006  10.779  23.859  1.00 59.79 LIG 0.00  C 
ATOM     18  CD1 ILE G   3      39.834  11.530  23.284  1.00 60.74 LIG 0.01  C 
ENDBRANCH 15 17
ENDBRANCH 14 15
BRANCH 14 19
ATOM     19  N   ILE G   3      39.813  11.760  27.332  1.00 79.60 LIG-0.34  N 
ATOM     20 H    ILE G   3      40.458  11.463  27.816  1.00 79.60 LIG 0.16  HD
ATOM     21  C   ASP G   2      39.014  12.760  27.715  1.00 93.07 LIG 0.26  C 
ATOM     22 O    ASP G   2      38.150  13.252  26.988  1.00 81.24 LIG-0.27  OA
BRANCH 21 23
ATOM     23  CA  ASP G   2      39.194  13.290  29.144  1.00 93.30 LIG 0.41  C 
ATOM     24  N   ASP G   2      38.465  14.585  29.261  1.00 94.60 LIG 0.61  N 
BRANCH 23 25
ATOM     25  CB  ASP G   2      38.684  12.298  30.199  1.00 96.36 LIG 0.16  C 
BRANCH 25 26
ATOM     26  CG  ASP G   2      37.236  11.914  29.985  1.00103.24 LIG 0.17  C 
ATOM     27 OD1  ASP G   2      36.366  12.807  29.983  1.00112.85 LIG-0.65  OA
ATOM     28 OD2  ASP G   2      36.961  10.717  29.811  1.00105.87 LIG-0.65  OA
ENDBRANCH 25 26
ENDBRANCH 23 25
ENDBRANCH 21 23
ENDBRANCH 14 19
ENDBRANCH 12 14
ENDBRANCH 5 10
ENDBRANCH 1 5
BRANCH 3 29
ATOM     29  CA  PHE G   5      40.328   6.953  22.799  1.00 70.05 LIG 0.18  C 
BRANCH 29 30
ATOM     30  CB  PHE G   5      41.008   5.702  23.393  1.00 73.20 LIG 0.07  C 
BRANCH 30 31
ATOM     31  CG  PHE G   5      40.563   5.408  24.818  1.00 79.36 LIG-0.06  A 
ATOM     32  CD1 PHE G   5      39.664   4.343  25.078  1.00 85.64 LIG 0.01  A 
ATOM     33  CE1 PHE G   5      39.255   4.045  26.371  1.00 88.71 LIG 0.00  A 
ATOM     34  CZ  PHE G   5      39.748   4.807  27.434  1.00 96.11 LIG 0.00  A 
ATOM     35  CE2 PHE G   5      40.652   5.855  27.197  1.00 91.53 LIG 0.00  A 
ATOM     36  CD2 PHE G   5      41.058   6.151  25.899  1.00 81.01 LIG 0.01  A 
ENDBRANCH 30 31
ENDBRANCH 29 30
BRANCH 29 37
ATOM     37  C   PHE G   5      39.413   6.662  21.615  1.00 74.26 LIG 0.24  C 
ATOM     38  N   PRO G   6      39.097   7.706  20.817  1.00 79.01 LIG-0.34  N 
ATOM     39  CD  PRO G   6      39.456   9.121  21.103  1.00 76.17 LIG 0.13  C 
ATOM     40  CA  PRO G   6      38.090   7.596  19.749  1.00 78.34 LIG 0.18  C 
ATOM     41  CG  PRO G   6      38.946   9.856  19.913  1.00 78.03 LIG 0.02  C 
ATOM     42  CB  PRO G   6      37.738   9.069  19.478  1.00 82.73 LIG 0.04  C 
ATOM     43 O    PHE G   5      38.926   5.533  21.479  1.00 61.78 LIG-0.27  OA
BRANCH 40 44
ATOM     44  C   PRO G   6      38.547   6.911  18.442  1.00 77.34 LIG 0.24  C 
ATOM     45 O    PRO G   6      38.459   7.523  17.391  1.00 92.50 LIG-0.27  OA
ATOM     46  N   ALA G   7      39.025   5.659  18.514  1.00 74.20 LIG-0.35  N 
ATOM     47 H    ALA G   7      39.344   5.316  19.236  1.00 74.20 LIG 0.16  HD
BRANCH 46 48
ATOM     48  CA  ALA G   7      39.050   4.737  17.347  1.00 71.75 LIG 0.16  C 
ATOM     49  CB  ALA G   7      37.648   4.196  17.064  1.00 70.01 LIG 0.04  C 
BRANCH 48 50
ATOM     50  C   ALA G   7      39.600   5.472  16.104  1.00 69.94 LIG 0.22  C 
ATOM     51 O    ALA G   7      38.825   5.817  15.175  1.00 56.97 LIG-0.29  OA
ENDBRANCH 48 50
ENDBRANCH 46 48
ENDBRANCH 40 44
ENDBRANCH 29 37
ENDBRANCH 3 29
TORSDOF 18
ENDMDL
MODEL 66
USER: ADFR SOLUTION from run 88
USER: SCORE 14.366473 LL:  -5.416 LR: -10.362 RR:   0.000 FEB:  -4.993
USER: RMSD 6.087452
USER: SEED 87
USER: STATUS no improvement in best in 11 clusters for 5 generations
USER: GENES 20
USER: genes 0 Translation |==|  0.43942 0.60695 0.58311
USER: genes 1 Rotation |==|  0.58323 0.05362 0.31071 0.58938
USER: genes 2 Torsion [N]-C--CA-[N] |==|  0.37063
USER: genes 3 Torsion [C]-CA--CB-[CG] |==|  0.28476
USER: genes 4 Torsion [CA]-CB--CG-[CD1] |==|  0.04246
USER: genes 5 Torsion [C]-CA--N-[C] |==|  0.21741
USER: genes 6 Torsion [N]-C--CA-[N] |==|  0.90223
USER: genes 7 Torsion [C]-CA--CB-[CG1] |==|  0.04603
USER: genes 8 Torsion [CA]-CB--CG1-[CD1] |==|  0.72018
USER: genes 9 Torsion [C]-CA--N-[C] |==|  0.84043
USER: genes 10 Torsion [N]-C--CA-[N] |==|  0.49786
USER: genes 11 Torsion [C]-CA--CB-[CG] |==|  0.75341
USER: genes 12 Torsion [CA]-CB--CG-[OD1] |==|  0.07737
USER: genes 13 Torsion [C]-N--CA-[CB] |==|  0.78771
USER: genes 14 Torsion [N]-CA--CB-[CG] |==|  0.79922
USER: genes 15 Torsion [CA]-CB--CG-[CD1] |==|  0.64759
USER: genes 16 Torsion [N]-CA--C-[N] |==|  0.19710
USER: genes 17 Torsion [N]-CA--C-[O] |==|  0.68725
USER: genes 18 Torsion [C]-N--CA-[C] |==|  0.91144
USER: genes 19 Torsion [N]-CA--C-[O] |==|  0.35296
ROOT
ATOM      1  C   LEU G   4      38.959   9.149  24.057  1.00 61.38 LIG 0.24  C 
ATOM      2 O    LEU G   4      39.822   8.580  24.735  1.00 52.06 LIG-0.27  OA
ATOM      3  N   PHE G   5      38.094   8.539  23.266  1.00 60.80 LIG-0.35  N 
ATOM      4 H    PHE G   5      37.484   8.957  22.828  1.00 60.80 LIG 0.16  HD
ENDROOT
BRANCH 1 5
ATOM      5  CA  LEU G   4      38.838  10.644  24.045  1.00 58.56 LIG 0.18  C 
BRANCH 5 6
ATOM      6  CB  LEU G   4      39.996  11.197  23.220  1.00 61.47 LIG 0.04  C 
BRANCH 6 7
ATOM      7  CG  LEU G   4      39.612  11.628  21.821  1.00 62.80 LIG-0.02  C 
ATOM      8  CD1 LEU G   4      38.101  11.731  21.787  1.00 63.22 LIG 0.01  C 
ATOM      9  CD2 LEU G   4      40.297  12.960  21.517  1.00 64.86 LIG 0.01  C 
ENDBRANCH 6 7
ENDBRANCH 5 6
BRANCH 5 10
ATOM     10  N   LEU G   4      38.854  11.127  25.412  1.00 59.02 LIG-0.35  N 
ATOM     11 H    LEU G   4      38.084  11.335  25.733  1.00 59.02 LIG 0.16  HD
ATOM     12  C   ILE G   3      40.003  11.223  26.082  1.00 70.10 LIG 0.24  C 
ATOM     13 O    ILE G   3      41.064  10.707  25.665  1.00 64.55 LIG-0.27  OA
BRANCH 12 14
ATOM     14  CA  ILE G   3      39.956  12.013  27.417  1.00 67.83 LIG 0.18  C 
BRANCH 14 15
ATOM     15  CB  ILE G   3      39.572  11.078  28.607  1.00 66.94 LIG 0.01  C 
ATOM     16  CG2 ILE G   3      38.140  11.356  29.065  1.00 67.41 LIG 0.01  C 
BRANCH 15 17
ATOM     17  CG1 ILE G   3      39.738   9.574  28.251  1.00 59.79 LIG 0.00  C 
ATOM     18  CD1 ILE G   3      38.446   8.883  27.905  1.00 60.74 LIG 0.01  C 
ENDBRANCH 15 17
ENDBRANCH 14 15
BRANCH 14 19
ATOM     19  N   ILE G   3      39.020  13.120  27.304  1.00 79.60 LIG-0.34  N 
ATOM     20 H    ILE G   3      38.393  13.103  27.891  1.00 79.60 LIG 0.16  HD
ATOM     21  C   ASP G   2      39.123  14.076  26.375  1.00 93.07 LIG 0.26  C 
ATOM     22 O    ASP G   2      40.070  14.158  25.591  1.00 81.24 LIG-0.27  OA
BRANCH 21 23
ATOM     23  CA  ASP G   2      37.981  15.097  26.293  1.00 93.30 LIG 0.41  C 
ATOM     24  N   ASP G   2      38.301  16.076  25.215  1.00 94.60 LIG 0.61  N 
BRANCH 23 25
ATOM     25  CB  ASP G   2      36.625  14.431  26.019  1.00 96.36 LIG 0.16  C 
BRANCH 25 26
ATOM     26  CG  ASP G   2      36.339  14.281  24.540  1.00103.24 LIG 0.17  C 
ATOM     27 OD1  ASP G   2      37.295  14.177  23.746  1.00112.85 LIG-0.65  OA
ATOM     28 OD2  ASP G   2      35.157  14.260  24.165  1.00105.87 LIG-0.65  OA
ENDBRANCH 25 26
ENDBRANCH 23 25
ENDBRANCH 21 23
ENDBRANCH 14 19
ENDBRANCH 12 14
ENDBRANCH 5 10
ENDBRANCH 1 5
BRANCH 3 29
ATOM     29  CA  PHE G   5      38.082   7.119  23.057  1.00 70.05 LIG 0.18  C 
BRANCH 29 30
ATOM     30  CB  PHE G   5      39.222   6.699  22.107  1.00 73.20 LIG 0.07  C 
BRANCH 30 31
ATOM     31  CG  PHE G   5      38.970   7.106  20.663  1.00 79.36 LIG-0.06  A 
ATOM     32  CD1 PHE G   5      39.042   6.141  19.628  1.00 85.64 LIG 0.01  A 
ATOM     33  CE1 PHE G   5      38.802   6.484  18.305  1.00 88.71 LIG 0.00  A 
ATOM     34  CZ  PHE G   5      38.474   7.807  17.993  1.00 96.11 LIG 0.00  A 
ATOM     35  CE2 PHE G   5      38.381   8.773  19.007  1.00 91.53 LIG 0.00  A 
ATOM     36  CD2 PHE G   5      38.626   8.424  20.332  1.00 81.01 LIG 0.01  A 
ENDBRANCH 30 31
ENDBRANCH 29 30
BRANCH 29 37
ATOM     37  C   PHE G   5      38.163   6.493  24.444  1.00 74.26 LIG 0.24  C 
ATOM     38  N   PRO G   6      37.068   6.601  25.229  1.00 79.01 LIG-0.34  N 
ATOM     39  CD  PRO G   6      35.865   7.407  24.886  1.00 76.17 LIG 0.13  C 
ATOM     40  CA  PRO G   6      37.077   6.196  26.643  1.00 78.34 LIG 0.18  C 
ATOM     41  CG  PRO G   6      34.938   7.148  26.021  1.00 78.03 LIG 0.02  C 
ATOM     42  CB  PRO G   6      35.847   6.931  27.202  1.00 82.73 LIG 0.04  C 
ATOM     43 O    PHE G   5      39.231   6.004  24.835  1.00 61.78 LIG-0.27  OA
BRANCH 40 44
ATOM     44  C   PRO G   6      36.962   4.681  26.925  1.00 77.34 LIG 0.24  C 
ATOM     45 O    PRO G   6      35.956   4.254  27.464  1.00 92.50 LIG-0.27  OA
ATOM     46  N   ALA G   7      37.983   3.889  26.564  1.00 74.20 LIG-0.35  N 
ATOM     47 H    ALA G   7      38.558   4.105  25.962  1.00 74.20 LIG 0.16  HD
BRANCH 46 48
ATOM     48  CA  ALA G   7      38.220   2.553  27.172  1.00 71.75 LIG 0.16  C 
ATOM     49  CB  ALA G   7      39.701   2.180  27.084  1.00 70.01 LIG 0.04  C 
BRANCH 48 50
ATOM     50  C   ALA G   7      37.757   2.552  28.646  1.00 69.94 LIG 0.22  C 
ATOM     51 O    ALA G   7      36.959   1.673  29.061  1.00 56.97 LIG-0.29  OA
ENDBRANCH 48 50
ENDBRANCH 46 48
ENDBRANCH 40 44
ENDBRANCH 29 37
ENDBRANCH 3 29
TORSDOF 18
ENDMDL
MODEL 67
USER: ADFR SOLUTION from run 130
USER: SCORE 14.881305 LL:  -6.113 LR: -10.360 RR:   0.000 FEB:  -4.990
USER: RMSD 8.407982
USER: SEED 129
USER: STATUS no improvement in best in 15 clusters for 5 generations
USER: GENES 20
USER: genes 0 Translation |==|  0.42967 0.52044 0.48611
USER: genes 1 Rotation |==|  0.31443 0.71760 0.90719 0.54908
USER: genes 2 Torsion [N]-C--CA-[N] |==|  0.86553
USER: genes 3 Torsion [C]-CA--CB-[CG] |==|  0.46597
USER: genes 4 Torsion [CA]-CB--CG-[CD1] |==|  0.90749
USER: genes 5 Torsion [C]-CA--N-[C] |==|  0.70198
USER: genes 6 Torsion [N]-C--CA-[N] |==|  0.43092
USER: genes 7 Torsion [C]-CA--CB-[CG1] |==|  0.31285
USER: genes 8 Torsion [CA]-CB--CG1-[CD1] |==|  0.88083
USER: genes 9 Torsion [C]-CA--N-[C] |==|  0.60389
USER: genes 10 Torsion [N]-C--CA-[N] |==|  0.54661
USER: genes 11 Torsion [C]-CA--CB-[CG] |==|  0.84254
USER: genes 12 Torsion [CA]-CB--CG-[OD1] |==|  0.80726
USER: genes 13 Torsion [C]-N--CA-[CB] |==|  0.18889
USER: genes 14 Torsion [N]-CA--CB-[CG] |==|  0.48284
USER: genes 15 Torsion [CA]-CB--CG-[CD1] |==|  0.55459
USER: genes 16 Torsion [N]-CA--C-[N] |==|  0.30077
USER: genes 17 Torsion [N]-CA--C-[O] |==|  0.14446
USER: genes 18 Torsion [C]-N--CA-[C] |==|  0.85851
USER: genes 19 Torsion [N]-CA--C-[O] |==|  0.89511
ROOT
ATOM      1  C   LEU G   4      38.798   6.748  22.457  1.00 61.38 LIG 0.24  C 
ATOM      2 O    LEU G   4      39.686   5.902  22.305  1.00 52.06 LIG-0.27  OA
ATOM      3  N   PHE G   5      38.318   7.522  21.499  1.00 60.80 LIG-0.35  N 
ATOM      4 H    PHE G   5      37.679   8.083  21.625  1.00 60.80 LIG 0.16  HD
ENDROOT
BRANCH 1 5
ATOM      5  CA  LEU G   4      38.190   7.007  23.803  1.00 58.56 LIG 0.18  C 
BRANCH 5 6
ATOM      6  CB  LEU G   4      36.775   6.436  23.790  1.00 61.47 LIG 0.04  C 
BRANCH 6 7
ATOM      7  CG  LEU G   4      36.128   6.352  25.155  1.00 62.80 LIG-0.02  C 
ATOM      8  CD1 LEU G   4      37.229   6.063  26.154  1.00 63.22 LIG 0.01  C 
ATOM      9  CD2 LEU G   4      35.414   7.674  25.437  1.00 64.86 LIG 0.01  C 
ENDBRANCH 6 7
ENDBRANCH 5 6
BRANCH 5 10
ATOM     10  N   LEU G   4      38.206   8.435  24.057  1.00 59.02 LIG-0.35  N 
ATOM     11 H    LEU G   4      37.639   8.891  23.599  1.00 59.02 LIG 0.16  HD
ATOM     12  C   ILE G   3      39.055   8.955  24.944  1.00 70.10 LIG 0.24  C 
ATOM     13 O    ILE G   3      39.703   8.244  25.744  1.00 64.55 LIG-0.27  OA
BRANCH 12 14
ATOM     14  CA  ILE G   3      39.198  10.501  24.934  1.00 67.83 LIG 0.18  C 
BRANCH 14 15
ATOM     15  CB  ILE G   3      40.182  10.965  23.814  1.00 66.94 LIG 0.01  C 
ATOM     16  CG2 ILE G   3      40.925   9.767  23.223  1.00 67.41 LIG 0.01  C 
BRANCH 15 17
ATOM     17  CG1 ILE G   3      39.459  11.756  22.688  1.00 59.79 LIG 0.00  C 
ATOM     18  CD1 ILE G   3      38.146  11.151  22.265  1.00 60.74 LIG 0.01  C 
ENDBRANCH 15 17
ENDBRANCH 14 15
BRANCH 14 19
ATOM     19  N   ILE G   3      39.642  10.964  26.240  1.00 79.60 LIG-0.34  N 
ATOM     20 H    ILE G   3      40.210  10.441  26.616  1.00 79.60 LIG 0.16  HD
ATOM     21  C   ASP G   2      39.209  12.096  26.802  1.00 93.07 LIG 0.26  C 
ATOM     22 O    ASP G   2      38.467  12.896  26.229  1.00 81.24 LIG-0.27  OA
BRANCH 21 23
ATOM     23  CA  ASP G   2      39.660  12.378  28.241  1.00 93.30 LIG 0.41  C 
ATOM     24  N   ASP G   2      38.772  13.430  28.816  1.00 94.60 LIG 0.61  N 
BRANCH 23 25
ATOM     25  CB  ASP G   2      39.623  11.118  29.119  1.00 96.36 LIG 0.16  C 
BRANCH 25 26
ATOM     26  CG  ASP G   2      38.256  10.471  29.151  1.00103.24 LIG 0.17  C 
ATOM     27 OD1  ASP G   2      37.323  11.054  29.738  1.00112.85 LIG-0.65  OA
ATOM     28 OD2  ASP G   2      38.105   9.378  28.584  1.00105.87 LIG-0.65  OA
ENDBRANCH 25 26
ENDBRANCH 23 25
ENDBRANCH 21 23
ENDBRANCH 14 19
ENDBRANCH 12 14
ENDBRANCH 5 10
ENDBRANCH 1 5
BRANCH 3 29
ATOM     29  CA  PHE G   5      38.811   7.506  20.151  1.00 70.05 LIG 0.18  C 
BRANCH 29 30
ATOM     30  CB  PHE G   5      38.462   6.172  19.459  1.00 73.20 LIG 0.07  C 
BRANCH 30 31
ATOM     31  CG  PHE G   5      38.828   6.158  17.983  1.00 79.36 LIG-0.06  A 
ATOM     32  CD1 PHE G   5      38.225   5.219  17.109  1.00 85.64 LIG 0.01  A 
ATOM     33  CE1 PHE G   5      38.531   5.195  15.755  1.00 88.71 LIG 0.00  A 
ATOM     34  CZ  PHE G   5      39.446   6.122  15.247  1.00 96.11 LIG 0.00  A 
ATOM     35  CE2 PHE G   5      40.041   7.070  16.095  1.00 91.53 LIG 0.00  A 
ATOM     36  CD2 PHE G   5      39.733   7.088  17.452  1.00 81.01 LIG 0.01  A 
ENDBRANCH 30 31
ENDBRANCH 29 30
BRANCH 29 37
ATOM     37  C   PHE G   5      38.213   8.735  19.475  1.00 74.26 LIG 0.24  C 
ATOM     38  N   PRO G   6      39.058   9.756  19.206  1.00 79.01 LIG-0.34  N 
ATOM     39  CD  PRO G   6      40.475   9.815  19.657  1.00 76.17 LIG 0.13  C 
ATOM     40  CA  PRO G   6      38.578  11.058  18.718  1.00 78.34 LIG 0.18  C 
ATOM     41  CG  PRO G   6      40.976  11.083  19.060  1.00 78.03 LIG 0.02  C 
ATOM     42  CB  PRO G   6      39.768  11.982  19.027  1.00 82.73 LIG 0.04  C 
ATOM     43 O    PHE G   5      36.993   8.797  19.285  1.00 61.78 LIG-0.27  OA
BRANCH 40 44
ATOM     44  C   PRO G   6      38.219  11.139  17.217  1.00 77.34 LIG 0.24  C 
ATOM     45 O    PRO G   6      37.455  10.314  16.746  1.00 92.50 LIG-0.27  OA
ATOM     46  N   ALA G   7      38.768  12.121  16.486  1.00 74.20 LIG-0.35  N 
ATOM     47 H    ALA G   7      39.076  12.848  16.827  1.00 74.20 LIG 0.16  HD
BRANCH 46 48
ATOM     48  CA  ALA G   7      38.897  12.047  15.006  1.00 71.75 LIG 0.16  C 
ATOM     49  CB  ALA G   7      39.716  13.227  14.482  1.00 70.01 LIG 0.04  C 
BRANCH 48 50
ATOM     50  C   ALA G   7      39.562  10.713  14.599  1.00 69.94 LIG 0.22  C 
ATOM     51 O    ALA G   7      40.489  10.226  15.295  1.00 56.97 LIG-0.29  OA
ENDBRANCH 48 50
ENDBRANCH 46 48
ENDBRANCH 40 44
ENDBRANCH 29 37
ENDBRANCH 3 29
TORSDOF 18
ENDMDL
MODEL 68
USER: ADFR SOLUTION from run 181
USER: SCORE 14.079773 LL:  -5.617 LR: -10.356 RR:   0.000 FEB:  -4.986
USER: RMSD 4.735280
USER: SEED 180
USER: STATUS no improvement in best in 29 clusters for 5 generations
USER: GENES 20
USER: genes 0 Translation |==|  0.48237 0.52419 0.58380
USER: genes 1 Rotation |==|  0.76676 0.16247 0.37442 0.72169
USER: genes 2 Torsion [N]-C--CA-[N] |==|  0.75030
USER: genes 3 Torsion [C]-CA--CB-[CG] |==|  0.38630
USER: genes 4 Torsion [CA]-CB--CG-[CD1] |==|  0.61596
USER: genes 5 Torsion [C]-CA--N-[C] |==|  0.74316
USER: genes 6 Torsion [N]-C--CA-[N] |==|  0.42778
USER: genes 7 Torsion [C]-CA--CB-[CG1] |==|  0.27565
USER: genes 8 Torsion [CA]-CB--CG1-[CD1] |==|  0.12449
USER: genes 9 Torsion [C]-CA--N-[C] |==|  0.52265
USER: genes 10 Torsion [N]-C--CA-[N] |==|  0.34951
USER: genes 11 Torsion [C]-CA--CB-[CG] |==|  0.73125
USER: genes 12 Torsion [CA]-CB--CG-[OD1] |==|  0.67398
USER: genes 13 Torsion [C]-N--CA-[CB] |==|  0.19868
USER: genes 14 Torsion [N]-CA--CB-[CG] |==|  0.10184
USER: genes 15 Torsion [CA]-CB--CG-[CD1] |==|  0.26390
USER: genes 16 Torsion [N]-CA--C-[N] |==|  0.18622
USER: genes 17 Torsion [N]-CA--C-[O] |==|  0.66043
USER: genes 18 Torsion [C]-N--CA-[C] |==|  0.64333
USER: genes 19 Torsion [N]-CA--C-[O] |==|  0.01971
ROOT
ATOM      1  C   LEU G   4      39.668   6.852  24.069  1.00 61.38 LIG 0.24  C 
ATOM      2 O    LEU G   4      40.709   7.366  24.494  1.00 52.06 LIG-0.27  OA
ATOM      3  N   PHE G   5      39.602   5.702  23.421  1.00 60.80 LIG-0.35  N 
ATOM      4 H    PHE G   5      38.861   5.352  23.161  1.00 60.80 LIG 0.16  HD
ENDROOT
BRANCH 1 5
ATOM      5  CA  LEU G   4      38.341   7.534  24.224  1.00 58.56 LIG 0.18  C 
BRANCH 5 6
ATOM      6  CB  LEU G   4      37.273   6.451  24.340  1.00 61.47 LIG 0.04  C 
BRANCH 6 7
ATOM      7  CG  LEU G   4      36.207   6.739  25.373  1.00 62.80 LIG-0.02  C 
ATOM      8  CD1 LEU G   4      35.934   5.442  26.106  1.00 63.22 LIG 0.01  C 
ATOM      9  CD2 LEU G   4      36.714   7.842  26.302  1.00 64.86 LIG 0.01  C 
ENDBRANCH 6 7
ENDBRANCH 5 6
BRANCH 5 10
ATOM     10  N   LEU G   4      38.125   8.403  23.083  1.00 59.02 LIG-0.35  N 
ATOM     11 H    LEU G   4      37.755   8.025  22.405  1.00 59.02 LIG 0.16  HD
ATOM     12  C   ILE G   3      38.489   9.684  23.129  1.00 70.10 LIG 0.24  C 
ATOM     13 O    ILE G   3      38.816  10.247  24.197  1.00 64.55 LIG-0.27  OA
BRANCH 12 14
ATOM     14  CA  ILE G   3      38.485  10.449  21.779  1.00 67.83 LIG 0.18  C 
BRANCH 14 15
ATOM     15  CB  ILE G   3      39.806  10.194  20.986  1.00 66.94 LIG 0.01  C 
ATOM     16  CG2 ILE G   3      40.934   9.797  21.939  1.00 67.41 LIG 0.01  C 
BRANCH 15 17
ATOM     17  CG1 ILE G   3      39.630   9.113  19.884  1.00 59.79 LIG 0.00  C 
ATOM     18  CD1 ILE G   3      38.374   9.272  19.067  1.00 60.74 LIG 0.01  C 
ENDBRANCH 15 17
ENDBRANCH 14 15
BRANCH 14 19
ATOM     19  N   ILE G   3      38.289  11.871  22.017  1.00 79.60 LIG-0.34  N 
ATOM     20 H    ILE G   3      38.318  12.089  22.848  1.00 79.60 LIG 0.16  HD
ATOM     21  C   ASP G   2      38.084  12.757  21.038  1.00 93.07 LIG 0.26  C 
ATOM     22 O    ASP G   2      38.135  12.467  19.841  1.00 81.24 LIG-0.27  OA
BRANCH 21 23
ATOM     23  CA  ASP G   2      37.753  14.196  21.455  1.00 93.30 LIG 0.41  C 
ATOM     24  N   ASP G   2      38.718  15.115  20.786  1.00 94.60 LIG 0.61  N 
BRANCH 23 25
ATOM     25  CB  ASP G   2      36.312  14.588  21.096  1.00 96.36 LIG 0.16  C 
BRANCH 25 26
ATOM     26  CG  ASP G   2      36.224  15.343  19.788  1.00103.24 LIG 0.17  C 
ATOM     27 OD1  ASP G   2      35.800  16.516  19.792  1.00112.85 LIG-0.65  OA
ATOM     28 OD2  ASP G   2      36.584  14.770  18.748  1.00105.87 LIG-0.65  OA
ENDBRANCH 25 26
ENDBRANCH 23 25
ENDBRANCH 21 23
ENDBRANCH 14 19
ENDBRANCH 12 14
ENDBRANCH 5 10
ENDBRANCH 1 5
BRANCH 3 29
ATOM     29  CA  PHE G   5      40.756   4.918  23.086  1.00 70.05 LIG 0.18  C 
BRANCH 29 30
ATOM     30  CB  PHE G   5      41.358   4.268  24.348  1.00 73.20 LIG 0.07  C 
BRANCH 30 31
ATOM     31  CG  PHE G   5      40.300   3.826  25.348  1.00 79.36 LIG-0.06  A 
ATOM     32  CD1 PHE G   5      39.830   2.489  25.342  1.00 85.64 LIG 0.01  A 
ATOM     33  CE1 PHE G   5      38.876   2.057  26.253  1.00 88.71 LIG 0.00  A 
ATOM     34  CZ  PHE G   5      38.378   2.960  27.198  1.00 96.11 LIG 0.00  A 
ATOM     35  CE2 PHE G   5      38.844   4.284  27.229  1.00 91.53 LIG 0.00  A 
ATOM     36  CD2 PHE G   5      39.799   4.712  26.312  1.00 81.01 LIG 0.01  A 
ENDBRANCH 30 31
ENDBRANCH 29 30
BRANCH 29 37
ATOM     37  C   PHE G   5      40.290   3.920  22.033  1.00 74.26 LIG 0.24  C 
ATOM     38  N   PRO G   6      39.927   4.424  20.831  1.00 79.01 LIG-0.34  N 
ATOM     39  CD  PRO G   6      39.815   5.876  20.529  1.00 76.17 LIG 0.13  C 
ATOM     40  CA  PRO G   6      39.298   3.592  19.794  1.00 78.34 LIG 0.18  C 
ATOM     41  CG  PRO G   6      39.456   5.903  19.084  1.00 78.03 LIG 0.02  C 
ATOM     42  CB  PRO G   6      38.653   4.645  18.876  1.00 82.73 LIG 0.04  C 
ATOM     43 O    PHE G   5      40.169   2.725  22.331  1.00 61.78 LIG-0.27  OA
BRANCH 40 44
ATOM     44  C   PRO G   6      40.241   2.682  18.975  1.00 77.34 LIG 0.24  C 
ATOM     45 O    PRO G   6      40.274   2.803  17.763  1.00 92.50 LIG-0.27  OA
ATOM     46  N   ALA G   7      40.991   1.787  19.636  1.00 74.20 LIG-0.35  N 
ATOM     47 H    ALA G   7      41.188   1.860  20.470  1.00 74.20 LIG 0.16  HD
BRANCH 46 48
ATOM     48  CA  ALA G   7      41.557   0.575  18.987  1.00 71.75 LIG 0.16  C 
ATOM     49  CB  ALA G   7      43.075   0.702  18.849  1.00 70.01 LIG 0.04  C 
BRANCH 48 50
ATOM     50  C   ALA G   7      41.200  -0.683  19.811  1.00 69.94 LIG 0.22  C 
ATOM     51 O    ALA G   7      40.413  -0.600  20.788  1.00 56.97 LIG-0.29  OA
ENDBRANCH 48 50
ENDBRANCH 46 48
ENDBRANCH 40 44
ENDBRANCH 29 37
ENDBRANCH 3 29
TORSDOF 18
ENDMDL
MODEL 69
USER: ADFR SOLUTION from run 163
USER: SCORE 15.230337 LL:  -5.766 LR: -10.348 RR:   0.000 FEB:  -4.978
USER: RMSD 4.894848
USER: SEED 162
USER: STATUS no improvement in best in 21 clusters for 5 generations
USER: GENES 20
USER: genes 0 Translation |==|  0.45599 0.51358 0.60533
USER: genes 1 Rotation |==|  0.78380 0.10916 0.37172 0.51561
USER: genes 2 Torsion [N]-C--CA-[N] |==|  0.90300
USER: genes 3 Torsion [C]-CA--CB-[CG] |==|  0.22135
USER: genes 4 Torsion [CA]-CB--CG-[CD1] |==|  0.38167
USER: genes 5 Torsion [C]-CA--N-[C] |==|  0.81997
USER: genes 6 Torsion [N]-C--CA-[N] |==|  0.79520
USER: genes 7 Torsion [C]-CA--CB-[CG1] |==|  0.58302
USER: genes 8 Torsion [CA]-CB--CG1-[CD1] |==|  0.65016
USER: genes 9 Torsion [C]-CA--N-[C] |==|  0.18432
USER: genes 10 Torsion [N]-C--CA-[N] |==|  0.48254
USER: genes 11 Torsion [C]-CA--CB-[CG] |==|  0.67861
USER: genes 12 Torsion [CA]-CB--CG-[OD1] |==|  0.34364
USER: genes 13 Torsion [C]-N--CA-[CB] |==|  0.86096
USER: genes 14 Torsion [N]-CA--CB-[CG] |==|  0.81347
USER: genes 15 Torsion [CA]-CB--CG-[CD1] |==|  0.36073
USER: genes 16 Torsion [N]-CA--C-[N] |==|  0.37114
USER: genes 17 Torsion [N]-CA--C-[O] |==|  0.86027
USER: genes 18 Torsion [C]-N--CA-[C] |==|  0.52338
USER: genes 19 Torsion [N]-CA--C-[O] |==|  0.99734
ROOT
ATOM      1  C   LEU G   4      39.233   6.558  24.424  1.00 61.38 LIG 0.24  C 
ATOM      2 O    LEU G   4      39.782   6.471  25.528  1.00 52.06 LIG-0.27  OA
ATOM      3  N   PHE G   5      39.481   5.772  23.391  1.00 60.80 LIG-0.35  N 
ATOM      4 H    PHE G   5      39.063   5.835  22.642  1.00 60.80 LIG 0.16  HD
ENDROOT
BRANCH 1 5
ATOM      5  CA  LEU G   4      38.224   7.630  24.137  1.00 58.56 LIG 0.18  C 
BRANCH 5 6
ATOM      6  CB  LEU G   4      36.839   7.047  24.402  1.00 61.47 LIG 0.04  C 
BRANCH 6 7
ATOM      7  CG  LEU G   4      36.452   7.009  25.864  1.00 62.80 LIG-0.02  C 
ATOM      8  CD1 LEU G   4      35.009   7.457  25.955  1.00 63.22 LIG 0.01  C 
ATOM      9  CD2 LEU G   4      36.658   5.587  26.386  1.00 64.86 LIG 0.01  C 
ENDBRANCH 6 7
ENDBRANCH 5 6
BRANCH 5 10
ATOM     10  N   LEU G   4      38.384   8.068  22.764  1.00 59.02 LIG-0.35  N 
ATOM     11 H    LEU G   4      37.715   7.903  22.250  1.00 59.02 LIG 0.16  HD
ATOM     12  C   ILE G   3      39.505   8.677  22.374  1.00 70.10 LIG 0.24  C 
ATOM     13 O    ILE G   3      40.356   9.094  23.191  1.00 64.55 LIG-0.27  OA
BRANCH 12 14
ATOM     14  CA  ILE G   3      39.700   8.844  20.843  1.00 67.83 LIG 0.18  C 
BRANCH 14 15
ATOM     15  CB  ILE G   3      38.422   9.448  20.179  1.00 66.94 LIG 0.01  C 
ATOM     16  CG2 ILE G   3      38.459  10.975  20.239  1.00 67.41 LIG 0.01  C 
BRANCH 15 17
ATOM     17  CG1 ILE G   3      38.244   8.973  18.710  1.00 59.79 LIG 0.00  C 
ATOM     18  CD1 ILE G   3      38.094  10.098  17.720  1.00 60.74 LIG 0.01  C 
ENDBRANCH 15 17
ENDBRANCH 14 15
BRANCH 14 19
ATOM     19  N   ILE G   3      40.039   7.562  20.245  1.00 79.60 LIG-0.34  N 
ATOM     20 H    ILE G   3      40.836   7.532  19.924  1.00 79.60 LIG 0.16  HD
ATOM     21  C   ASP G   2      39.195   6.528  20.199  1.00 93.07 LIG 0.26  C 
ATOM     22 O    ASP G   2      38.088   6.533  20.740  1.00 81.24 LIG-0.27  OA
BRANCH 21 23
ATOM     23  CA  ASP G   2      39.647   5.291  19.411  1.00 93.30 LIG 0.41  C 
ATOM     24  N   ASP G   2      38.640   4.210  19.612  1.00 94.60 LIG 0.61  N 
BRANCH 23 25
ATOM     25  CB  ASP G   2      39.814   5.587  17.913  1.00 96.36 LIG 0.16  C 
BRANCH 25 26
ATOM     26  CG  ASP G   2      38.840   4.810  17.054  1.00103.24 LIG 0.17  C 
ATOM     27 OD1  ASP G   2      38.084   5.431  16.281  1.00112.85 LIG-0.65  OA
ATOM     28 OD2  ASP G   2      38.829   3.573  17.143  1.00105.87 LIG-0.65  OA
ENDBRANCH 25 26
ENDBRANCH 23 25
ENDBRANCH 21 23
ENDBRANCH 14 19
ENDBRANCH 12 14
ENDBRANCH 5 10
ENDBRANCH 1 5
BRANCH 3 29
ATOM     29  CA  PHE G   5      40.470   4.731  23.411  1.00 70.05 LIG 0.18  C 
BRANCH 29 30
ATOM     30  CB  PHE G   5      41.818   5.272  23.931  1.00 73.20 LIG 0.07  C 
BRANCH 30 31
ATOM     31  CG  PHE G   5      42.457   6.277  22.985  1.00 79.36 LIG-0.06  A 
ATOM     32  CD1 PHE G   5      42.912   7.527  23.474  1.00 85.64 LIG 0.01  A 
ATOM     33  CE1 PHE G   5      43.512   8.455  22.633  1.00 88.71 LIG 0.00  A 
ATOM     34  CZ  PHE G   5      43.675   8.142  21.281  1.00 96.11 LIG 0.00  A 
ATOM     35  CE2 PHE G   5      43.246   6.902  20.781  1.00 91.53 LIG 0.00  A 
ATOM     36  CD2 PHE G   5      42.643   5.977  21.628  1.00 81.01 LIG 0.01  A 
ENDBRANCH 30 31
ENDBRANCH 29 30
BRANCH 29 37
ATOM     37  C   PHE G   5      39.879   3.611  24.259  1.00 74.26 LIG 0.24  C 
ATOM     38  N   PRO G   6      39.973   2.356  23.764  1.00 79.01 LIG-0.34  N 
ATOM     39  CD  PRO G   6      40.473   2.025  22.403  1.00 76.17 LIG 0.13  C 
ATOM     40  CA  PRO G   6      39.293   1.215  24.397  1.00 78.34 LIG 0.18  C 
ATOM     41  CG  PRO G   6      40.440   0.537  22.373  1.00 78.03 LIG 0.02  C 
ATOM     42  CB  PRO G   6      39.283   0.173  23.265  1.00 82.73 LIG 0.04  C 
ATOM     43 O    PHE G   5      39.264   3.886  25.297  1.00 61.78 LIG-0.27  OA
BRANCH 40 44
ATOM     44  C   PRO G   6      39.968   0.624  25.655  1.00 77.34 LIG 0.24  C 
ATOM     45 O    PRO G   6      41.153   0.342  25.613  1.00 92.50 LIG-0.27  OA
ATOM     46  N   ALA G   7      39.218   0.441  26.751  1.00 74.20 LIG-0.35  N 
ATOM     47 H    ALA G   7      38.483   0.865  26.897  1.00 74.20 LIG 0.16  HD
BRANCH 46 48
ATOM     48  CA  ALA G   7      39.584  -0.517  27.828  1.00 71.75 LIG 0.16  C 
ATOM     49  CB  ALA G   7      40.856  -0.058  28.542  1.00 70.01 LIG 0.04  C 
BRANCH 48 50
ATOM     50  C   ALA G   7      38.422  -0.648  28.839  1.00 69.94 LIG 0.22  C 
ATOM     51 O    ALA G   7      37.369   0.022  28.686  1.00 56.97 LIG-0.29  OA
ENDBRANCH 48 50
ENDBRANCH 46 48
ENDBRANCH 40 44
ENDBRANCH 29 37
ENDBRANCH 3 29
TORSDOF 18
ENDMDL
MODEL 70
USER: ADFR SOLUTION from run 83
USER: SCORE 14.216006 LL:  -5.219 LR: -10.354 RR:   0.000 FEB:  -4.985
USER: RMSD 8.913534
USER: SEED 82
USER: STATUS no improvement in best in 17 clusters for 5 generations
USER: GENES 20
USER: genes 0 Translation |==|  0.42124 0.51965 0.37282
USER: genes 1 Rotation |==|  0.25240 0.76166 0.15760 0.55470
USER: genes 2 Torsion [N]-C--CA-[N] |==|  0.08658
USER: genes 3 Torsion [C]-CA--CB-[CG] |==|  0.55834
USER: genes 4 Torsion [CA]-CB--CG-[CD1] |==|  0.87424
USER: genes 5 Torsion [C]-CA--N-[C] |==|  0.68045
USER: genes 6 Torsion [N]-C--CA-[N] |==|  0.36058
USER: genes 7 Torsion [C]-CA--CB-[CG1] |==|  0.31191
USER: genes 8 Torsion [CA]-CB--CG1-[CD1] |==|  0.31469
USER: genes 9 Torsion [C]-CA--N-[C] |==|  0.73058
USER: genes 10 Torsion [N]-C--CA-[N] |==|  0.30224
USER: genes 11 Torsion [C]-CA--CB-[CG] |==|  0.21189
USER: genes 12 Torsion [CA]-CB--CG-[OD1] |==|  0.99524
USER: genes 13 Torsion [C]-N--CA-[CB] |==|  0.17924
USER: genes 14 Torsion [N]-CA--CB-[CG] |==|  0.43571
USER: genes 15 Torsion [CA]-CB--CG-[CD1] |==|  0.79203
USER: genes 16 Torsion [N]-CA--C-[N] |==|  0.42570
USER: genes 17 Torsion [N]-CA--C-[O] |==|  0.64818
USER: genes 18 Torsion [C]-N--CA-[C] |==|  0.20722
USER: genes 19 Torsion [N]-CA--C-[O] |==|  0.47649
ROOT
ATOM      1  C   LEU G   4      38.660   6.726  20.588  1.00 61.38 LIG 0.24  C 
ATOM      2 O    LEU G   4      37.920   7.704  20.430  1.00 52.06 LIG-0.27  OA
ATOM      3  N   PHE G   5      38.961   6.186  21.755  1.00 60.80 LIG-0.35  N 
ATOM      4 H    PHE G   5      39.455   5.487  21.835  1.00 60.80 LIG 0.16  HD
ENDROOT
BRANCH 1 5
ATOM      5  CA  LEU G   4      39.337   6.064  19.424  1.00 58.56 LIG 0.18  C 
BRANCH 5 6
ATOM      6  CB  LEU G   4      38.460   6.279  18.194  1.00 61.47 LIG 0.04  C 
BRANCH 6 7
ATOM      7  CG  LEU G   4      38.709   5.291  17.075  1.00 62.80 LIG-0.02  C 
ATOM      8  CD1 LEU G   4      40.209   5.172  16.911  1.00 63.22 LIG 0.01  C 
ATOM      9  CD2 LEU G   4      38.053   3.961  17.445  1.00 64.86 LIG 0.01  C 
ENDBRANCH 6 7
ENDBRANCH 5 6
BRANCH 5 10
ATOM     10  N   LEU G   4      39.524   4.659  19.730  1.00 59.02 LIG-0.35  N 
ATOM     11 H    LEU G   4      38.798   4.206  19.817  1.00 59.02 LIG 0.16  HD
ATOM     12  C   ILE G   3      40.751   4.152  19.857  1.00 70.10 LIG 0.24  C 
ATOM     13 O    ILE G   3      41.773   4.783  19.509  1.00 64.55 LIG-0.27  OA
BRANCH 12 14
ATOM     14  CA  ILE G   3      40.846   2.726  20.464  1.00 67.83 LIG 0.18  C 
BRANCH 14 15
ATOM     15  CB  ILE G   3      41.403   2.774  21.922  1.00 66.94 LIG 0.01  C 
ATOM     16  CG2 ILE G   3      41.951   4.165  22.240  1.00 67.41 LIG 0.01  C 
BRANCH 15 17
ATOM     17  CG1 ILE G   3      40.333   2.365  22.973  1.00 59.79 LIG 0.00  C 
ATOM     18  CD1 ILE G   3      40.640   1.074  23.684  1.00 60.74 LIG 0.01  C 
ENDBRANCH 15 17
ENDBRANCH 14 15
BRANCH 14 19
ATOM     19  N   ILE G   3      41.677   1.884  19.618  1.00 79.60 LIG-0.34  N 
ATOM     20 H    ILE G   3      42.519   1.973  19.765  1.00 79.60 LIG 0.16  HD
ATOM     21  C   ASP G   2      41.181   1.050  18.699  1.00 93.07 LIG 0.26  C 
ATOM     22 O    ASP G   2      39.975   0.849  18.549  1.00 81.24 LIG-0.27  OA
BRANCH 21 23
ATOM     23  CA  ASP G   2      42.187   0.334  17.789  1.00 93.30 LIG 0.41  C 
ATOM     24  N   ASP G   2      42.228  -1.106  18.172  1.00 94.60 LIG 0.61  N 
BRANCH 23 25
ATOM     25  CB  ASP G   2      41.828   0.477  16.302  1.00 96.36 LIG 0.16  C 
BRANCH 25 26
ATOM     26  CG  ASP G   2      42.169   1.844  15.750  1.00103.24 LIG 0.17  C 
ATOM     27 OD1  ASP G   2      42.654   2.702  16.514  1.00112.85 LIG-0.65  OA
ATOM     28 OD2  ASP G   2      41.960   2.066  14.548  1.00105.87 LIG-0.65  OA
ENDBRANCH 25 26
ENDBRANCH 23 25
ENDBRANCH 21 23
ENDBRANCH 14 19
ENDBRANCH 12 14
ENDBRANCH 5 10
ENDBRANCH 1 5
BRANCH 3 29
ATOM     29  CA  PHE G   5      38.495   6.707  23.009  1.00 70.05 LIG 0.18  C 
BRANCH 29 30
ATOM     30  CB  PHE G   5      36.959   6.598  23.106  1.00 73.20 LIG 0.07  C 
BRANCH 30 31
ATOM     31  CG  PHE G   5      36.457   6.591  24.542  1.00 79.36 LIG-0.06  A 
ATOM     32  CD1 PHE G   5      36.607   5.431  25.343  1.00 85.64 LIG 0.01  A 
ATOM     33  CE1 PHE G   5      36.170   5.404  26.661  1.00 88.71 LIG 0.00  A 
ATOM     34  CZ  PHE G   5      35.578   6.547  27.206  1.00 96.11 LIG 0.00  A 
ATOM     35  CE2 PHE G   5      35.436   7.710  26.433  1.00 91.53 LIG 0.00  A 
ATOM     36  CD2 PHE G   5      35.873   7.732  25.112  1.00 81.01 LIG 0.01  A 
ENDBRANCH 30 31
ENDBRANCH 29 30
BRANCH 29 37
ATOM     37  C   PHE G   5      39.244   5.931  24.087  1.00 74.26 LIG 0.24  C 
ATOM     38  N   PRO G   6      39.426   6.554  25.273  1.00 79.01 LIG-0.34  N 
ATOM     39  CD  PRO G   6      39.079   7.977  25.536  1.00 76.17 LIG 0.13  C 
ATOM     40  CA  PRO G   6      40.278   5.988  26.329  1.00 78.34 LIG 0.18  C 
ATOM     41  CG  PRO G   6      39.405   8.153  26.978  1.00 78.03 LIG 0.02  C 
ATOM     42  CB  PRO G   6      40.558   7.213  27.216  1.00 82.73 LIG 0.04  C 
ATOM     43 O    PHE G   5      39.732   4.826  23.820  1.00 61.78 LIG-0.27  OA
BRANCH 40 44
ATOM     44  C   PRO G   6      39.660   4.851  27.175  1.00 77.34 LIG 0.24  C 
ATOM     45 O    PRO G   6      39.659   4.952  28.390  1.00 92.50 LIG-0.27  OA
ATOM     46  N   ALA G   7      39.148   3.790  26.535  1.00 74.20 LIG-0.35  N 
ATOM     47 H    ALA G   7      38.895   3.811  25.713  1.00 74.20 LIG 0.16  HD
BRANCH 46 48
ATOM     48  CA  ALA G   7      38.967   2.466  27.187  1.00 71.75 LIG 0.16  C 
ATOM     49  CB  ALA G   7      40.234   2.064  27.942  1.00 70.01 LIG 0.04  C 
BRANCH 48 50
ATOM     50  C   ALA G   7      37.761   2.512  28.153  1.00 69.94 LIG 0.22  C 
ATOM     51 O    ALA G   7      37.334   1.457  28.687  1.00 56.97 LIG-0.29  OA
ENDBRANCH 48 50
ENDBRANCH 46 48
ENDBRANCH 40 44
ENDBRANCH 29 37
ENDBRANCH 3 29
TORSDOF 18
ENDMDL
MODEL 71
USER: ADFR SOLUTION from run 134
USER: SCORE 14.095542 LL:  -5.433 LR: -10.347 RR:   0.000 FEB:  -4.978
USER: RMSD 10.562587
USER: SEED 133
USER: STATUS no improvement in best in 28 clusters for 5 generations
USER: GENES 20
USER: genes 0 Translation |==|  0.40921 0.60883 0.60095
USER: genes 1 Rotation |==|  0.97106 0.60608 0.38394 0.55808
USER: genes 2 Torsion [N]-C--CA-[N] |==|  0.13213
USER: genes 3 Torsion [C]-CA--CB-[CG] |==|  0.23356
USER: genes 4 Torsion [CA]-CB--CG-[CD1] |==|  0.05584
USER: genes 5 Torsion [C]-CA--N-[C] |==|  0.60782
USER: genes 6 Torsion [N]-C--CA-[N] |==|  0.46288
USER: genes 7 Torsion [C]-CA--CB-[CG1] |==|  0.86506
USER: genes 8 Torsion [CA]-CB--CG1-[CD1] |==|  0.63016
USER: genes 9 Torsion [C]-CA--N-[C] |==|  0.63064
USER: genes 10 Torsion [N]-C--CA-[N] |==|  0.76026
USER: genes 11 Torsion [C]-CA--CB-[CG] |==|  0.18538
USER: genes 12 Torsion [CA]-CB--CG-[OD1] |==|  0.35743
USER: genes 13 Torsion [C]-N--CA-[CB] |==|  0.27221
USER: genes 14 Torsion [N]-CA--CB-[CG] |==|  0.06398
USER: genes 15 Torsion [CA]-CB--CG-[CD1] |==|  0.26673
USER: genes 16 Torsion [N]-CA--C-[N] |==|  0.38523
USER: genes 17 Torsion [N]-CA--C-[O] |==|  0.03497
USER: genes 18 Torsion [C]-N--CA-[C] |==|  0.21793
USER: genes 19 Torsion [N]-CA--C-[O] |==|  0.03462
ROOT
ATOM      1  C   LEU G   4      38.461   9.201  24.352  1.00 61.38 LIG 0.24  C 
ATOM      2 O    LEU G   4      38.603   9.456  25.553  1.00 52.06 LIG-0.27  OA
ATOM      3  N   PHE G   5      38.576  10.081  23.373  1.00 60.80 LIG-0.35  N 
ATOM      4 H    PHE G   5      38.501   9.872  22.542  1.00 60.80 LIG 0.16  HD
ENDROOT
BRANCH 1 5
ATOM      5  CA  LEU G   4      38.095   7.824  23.884  1.00 58.56 LIG 0.18  C 
BRANCH 5 6
ATOM      6  CB  LEU G   4      38.253   6.874  25.068  1.00 61.47 LIG 0.04  C 
BRANCH 6 7
ATOM      7  CG  LEU G   4      37.052   6.824  25.986  1.00 62.80 LIG-0.02  C 
ATOM      8  CD1 LEU G   4      35.868   7.345  25.200  1.00 63.22 LIG 0.01  C 
ATOM      9  CD2 LEU G   4      36.856   5.382  26.453  1.00 64.86 LIG 0.01  C 
ENDBRANCH 6 7
ENDBRANCH 5 6
BRANCH 5 10
ATOM     10  N   LEU G   4      38.952   7.465  22.770  1.00 59.02 LIG-0.35  N 
ATOM     11 H    LEU G   4      39.770   7.721  22.845  1.00 59.02 LIG 0.16  HD
ATOM     12  C   ILE G   3      38.464   6.787  21.731  1.00 70.10 LIG 0.24  C 
ATOM     13 O    ILE G   3      37.337   6.243  21.759  1.00 64.55 LIG-0.27  OA
BRANCH 12 14
ATOM     14  CA  ILE G   3      39.373   6.704  20.476  1.00 67.83 LIG 0.18  C 
BRANCH 14 15
ATOM     15  CB  ILE G   3      39.477   8.092  19.768  1.00 66.94 LIG 0.01  C 
ATOM     16  CG2 ILE G   3      40.207   7.957  18.431  1.00 67.41 LIG 0.01  C 
BRANCH 15 17
ATOM     17  CG1 ILE G   3      38.085   8.749  19.555  1.00 59.79 LIG 0.00  C 
ATOM     18  CD1 ILE G   3      37.876   9.298  18.168  1.00 60.74 LIG 0.01  C 
ENDBRANCH 15 17
ENDBRANCH 14 15
BRANCH 14 19
ATOM     19  N   ILE G   3      38.863   5.693  19.563  1.00 79.60 LIG-0.34  N 
ATOM     20 H    ILE G   3      38.017   5.748  19.425  1.00 79.60 LIG 0.16  HD
ATOM     21  C   ASP G   2      39.636   4.766  18.990  1.00 93.07 LIG 0.26  C 
ATOM     22 O    ASP G   2      40.862   4.739  19.109  1.00 81.24 LIG-0.27  OA
BRANCH 21 23
ATOM     23  CA  ASP G   2      38.932   3.681  18.164  1.00 93.30 LIG 0.41  C 
ATOM     24  N   ASP G   2      38.523   2.580  19.082  1.00 94.60 LIG 0.61  N 
BRANCH 23 25
ATOM     25  CB  ASP G   2      37.709   4.227  17.413  1.00 96.36 LIG 0.16  C 
BRANCH 25 26
ATOM     26  CG  ASP G   2      38.084   5.218  16.333  1.00103.24 LIG 0.17  C 
ATOM     27 OD1  ASP G   2      37.638   5.056  15.180  1.00112.85 LIG-0.65  OA
ATOM     28 OD2  ASP G   2      38.822   6.169  16.633  1.00105.87 LIG-0.65  OA
ENDBRANCH 25 26
ENDBRANCH 23 25
ENDBRANCH 21 23
ENDBRANCH 14 19
ENDBRANCH 12 14
ENDBRANCH 5 10
ENDBRANCH 1 5
BRANCH 3 29
ATOM     29  CA  PHE G   5      38.837  11.476  23.592  1.00 70.05 LIG 0.18  C 
BRANCH 29 30
ATOM     30  CB  PHE G   5      40.339  11.782  23.414  1.00 73.20 LIG 0.07  C 
BRANCH 30 31
ATOM     31  CG  PHE G   5      41.053  10.757  22.546  1.00 79.36 LIG-0.06  A 
ATOM     32  CD1 PHE G   5      41.244  11.005  21.164  1.00 85.64 LIG 0.01  A 
ATOM     33  CE1 PHE G   5      41.906  10.092  20.353  1.00 88.71 LIG 0.00  A 
ATOM     34  CZ  PHE G   5      42.397   8.912  20.918  1.00 96.11 LIG 0.00  A 
ATOM     35  CE2 PHE G   5      42.232   8.657  22.288  1.00 91.53 LIG 0.00  A 
ATOM     36  CD2 PHE G   5      41.566   9.574  23.096  1.00 81.01 LIG 0.01  A 
ENDBRANCH 30 31
ENDBRANCH 29 30
BRANCH 29 37
ATOM     37  C   PHE G   5      37.929  12.227  22.626  1.00 74.26 LIG 0.24  C 
ATOM     38  N   PRO G   6      37.318  13.336  23.100  1.00 79.01 LIG-0.34  N 
ATOM     39  CD  PRO G   6      37.358  13.775  24.521  1.00 76.17 LIG 0.13  C 
ATOM     40  CA  PRO G   6      36.287  14.049  22.330  1.00 78.34 LIG 0.18  C 
ATOM     41  CG  PRO G   6      36.602  15.058  24.510  1.00 78.03 LIG 0.02  C 
ATOM     42  CB  PRO G   6      35.582  14.879  23.416  1.00 82.73 LIG 0.04  C 
ATOM     43 O    PHE G   5      37.709  11.760  21.502  1.00 61.78 LIG-0.27  OA
BRANCH 40 44
ATOM     44  C   PRO G   6      36.791  14.974  21.199  1.00 77.34 LIG 0.24  C 
ATOM     45 O    PRO G   6      37.955  14.898  20.847  1.00 92.50 LIG-0.27  OA
ATOM     46  N   ALA G   7      35.920  15.833  20.647  1.00 74.20 LIG-0.35  N 
ATOM     47 H    ALA G   7      35.068  15.726  20.678  1.00 74.20 LIG 0.16  HD
BRANCH 46 48
ATOM     48  CA  ALA G   7      36.349  17.061  19.924  1.00 71.75 LIG 0.16  C 
ATOM     49  CB  ALA G   7      37.464  17.771  20.692  1.00 70.01 LIG 0.04  C 
BRANCH 48 50
ATOM     50  C   ALA G   7      36.827  16.697  18.501  1.00 69.94 LIG 0.22  C 
ATOM     51 O    ALA G   7      36.601  15.554  18.027  1.00 56.97 LIG-0.29  OA
ENDBRANCH 48 50
ENDBRANCH 46 48
ENDBRANCH 40 44
ENDBRANCH 29 37
ENDBRANCH 3 29
TORSDOF 18
ENDMDL
MODEL 72
USER: ADFR SOLUTION from run 28
USER: SCORE 15.533931 LL:  -5.643 LR: -10.344 RR:   0.000 FEB:  -4.975
USER: RMSD 6.545684
USER: SEED 27
USER: STATUS no improvement in best in 8 clusters for 5 generations
USER: GENES 20
USER: genes 0 Translation |==|  0.41098 0.53989 0.58335
USER: genes 1 Rotation |==|  0.33576 0.70657 0.84527 0.74727
USER: genes 2 Torsion [N]-C--CA-[N] |==|  0.93657
USER: genes 3 Torsion [C]-CA--CB-[CG] |==|  0.33938
USER: genes 4 Torsion [CA]-CB--CG-[CD1] |==|  0.07433
USER: genes 5 Torsion [C]-CA--N-[C] |==|  0.75846
USER: genes 6 Torsion [N]-C--CA-[N] |==|  0.97984
USER: genes 7 Torsion [C]-CA--CB-[CG1] |==|  0.96894
USER: genes 8 Torsion [CA]-CB--CG1-[CD1] |==|  0.56587
USER: genes 9 Torsion [C]-CA--N-[C] |==|  0.71542
USER: genes 10 Torsion [N]-C--CA-[N] |==|  0.76085
USER: genes 11 Torsion [C]-CA--CB-[CG] |==|  0.59498
USER: genes 12 Torsion [CA]-CB--CG-[OD1] |==|  0.37233
USER: genes 13 Torsion [C]-N--CA-[CB] |==|  0.85757
USER: genes 14 Torsion [N]-CA--CB-[CG] |==|  0.88282
USER: genes 15 Torsion [CA]-CB--CG-[CD1] |==|  0.35062
USER: genes 16 Torsion [N]-CA--C-[N] |==|  0.33333
USER: genes 17 Torsion [N]-CA--C-[O] |==|  0.69077
USER: genes 18 Torsion [C]-N--CA-[C] |==|  0.86449
USER: genes 19 Torsion [N]-CA--C-[O] |==|  0.20819
ROOT
ATOM      1  C   LEU G   4      38.490   7.288  24.061  1.00 61.38 LIG 0.24  C 
ATOM      2 O    LEU G   4      38.671   6.081  23.867  1.00 52.06 LIG-0.27  OA
ATOM      3  N   PHE G   5      39.014   8.258  23.333  1.00 60.80 LIG-0.35  N 
ATOM      4 H    PHE G   5      38.848   9.091  23.471  1.00 60.80 LIG 0.16  HD
ENDROOT
BRANCH 1 5
ATOM      5  CA  LEU G   4      37.657   7.777  25.209  1.00 58.56 LIG 0.18  C 
BRANCH 5 6
ATOM      6  CB  LEU G   4      36.193   7.703  24.784  1.00 61.47 LIG 0.04  C 
BRANCH 6 7
ATOM      7  CG  LEU G   4      35.329   6.847  25.683  1.00 62.80 LIG-0.02  C 
ATOM      8  CD1 LEU G   4      35.969   6.856  27.056  1.00 63.22 LIG 0.01  C 
ATOM      9  CD2 LEU G   4      33.914   7.425  25.692  1.00 64.86 LIG 0.01  C 
ENDBRANCH 6 7
ENDBRANCH 5 6
BRANCH 5 10
ATOM     10  N   LEU G   4      38.067   9.128  25.542  1.00 59.02 LIG-0.35  N 
ATOM     11 H    LEU G   4      37.618   9.750  25.155  1.00 59.02 LIG 0.16  HD
ATOM     12  C   ILE G   3      39.073   9.339  26.392  1.00 70.10 LIG 0.24  C 
ATOM     13 O    ILE G   3      39.552   8.425  27.100  1.00 64.55 LIG-0.27  OA
BRANCH 12 14
ATOM     14  CA  ILE G   3      39.622  10.789  26.461  1.00 67.83 LIG 0.18  C 
BRANCH 14 15
ATOM     15  CB  ILE G   3      39.381  11.413  27.872  1.00 66.94 LIG 0.01  C 
ATOM     16  CG2 ILE G   3      38.835  12.835  27.742  1.00 67.41 LIG 0.01  C 
BRANCH 15 17
ATOM     17  CG1 ILE G   3      38.424  10.549  28.741  1.00 59.79 LIG 0.00  C 
ATOM     18  CD1 ILE G   3      37.722  11.322  29.826  1.00 60.74 LIG 0.01  C 
ENDBRANCH 15 17
ENDBRANCH 14 15
BRANCH 14 19
ATOM     19  N   ILE G   3      39.006  11.601  25.423  1.00 79.60 LIG-0.34  N 
ATOM     20 H    ILE G   3      38.204  11.849  25.610  1.00 79.60 LIG 0.16  HD
ATOM     21  C   ASP G   2      39.624  11.929  24.285  1.00 93.07 LIG 0.26  C 
ATOM     22 O    ASP G   2      40.802  11.655  24.052  1.00 81.24 LIG-0.27  OA
BRANCH 21 23
ATOM     23  CA  ASP G   2      38.795  12.670  23.227  1.00 93.30 LIG 0.41  C 
ATOM     24  N   ASP G   2      38.082  11.659  22.395  1.00 94.60 LIG 0.61  N 
BRANCH 23 25
ATOM     25  CB  ASP G   2      37.788  13.644  23.856  1.00 96.36 LIG 0.16  C 
BRANCH 25 26
ATOM     26  CG  ASP G   2      36.504  13.745  23.063  1.00103.24 LIG 0.17  C 
ATOM     27 OD1  ASP G   2      35.413  13.698  23.666  1.00112.85 LIG-0.65  OA
ATOM     28 OD2  ASP G   2      36.577  13.878  21.832  1.00105.87 LIG-0.65  OA
ENDBRANCH 25 26
ENDBRANCH 23 25
ENDBRANCH 21 23
ENDBRANCH 14 19
ENDBRANCH 12 14
ENDBRANCH 5 10
ENDBRANCH 1 5
BRANCH 3 29
ATOM     29  CA  PHE G   5      39.910   8.026  22.237  1.00 70.05 LIG 0.18  C 
BRANCH 29 30
ATOM     30  CB  PHE G   5      41.070   7.104  22.668  1.00 73.20 LIG 0.07  C 
BRANCH 30 31
ATOM     31  CG  PHE G   5      41.620   7.450  24.044  1.00 79.36 LIG-0.06  A 
ATOM     32  CD1 PHE G   5      41.709   6.451  25.046  1.00 85.64 LIG 0.01  A 
ATOM     33  CE1 PHE G   5      42.220   6.738  26.305  1.00 88.71 LIG 0.00  A 
ATOM     34  CZ  PHE G   5      42.662   8.035  26.581  1.00 96.11 LIG 0.00  A 
ATOM     35  CE2 PHE G   5      42.596   9.033  25.596  1.00 91.53 LIG 0.00  A 
ATOM     36  CD2 PHE G   5      42.081   8.741  24.337  1.00 81.01 LIG 0.01  A 
ENDBRANCH 30 31
ENDBRANCH 29 30
BRANCH 29 37
ATOM     37  C   PHE G   5      39.053   7.463  21.109  1.00 74.26 LIG 0.24  C 
ATOM     38  N   PRO G   6      39.022   8.167  19.956  1.00 79.01 LIG-0.34  N 
ATOM     39  CD  PRO G   6      39.639   9.509  19.773  1.00 76.17 LIG 0.13  C 
ATOM     40  CA  PRO G   6      38.102   7.828  18.859  1.00 78.34 LIG 0.18  C 
ATOM     41  CG  PRO G   6      39.387   9.815  18.338  1.00 78.03 LIG 0.02  C 
ATOM     42  CB  PRO G   6      38.082   9.127  18.034  1.00 82.73 LIG 0.04  C 
ATOM     43 O    PHE G   5      38.357   6.460  21.310  1.00 61.78 LIG-0.27  OA
BRANCH 40 44
ATOM     44  C   PRO G   6      38.512   6.637  17.962  1.00 77.34 LIG 0.24  C 
ATOM     45 O    PRO G   6      38.835   6.852  16.806  1.00 92.50 LIG-0.27  OA
ATOM     46  N   ALA G   7      38.493   5.406  18.494  1.00 74.20 LIG-0.35  N 
ATOM     47 H    ALA G   7      38.536   5.256  19.340  1.00 74.20 LIG 0.16  HD
BRANCH 46 48
ATOM     48  CA  ALA G   7      38.397   4.173  17.668  1.00 71.75 LIG 0.16  C 
ATOM     49  CB  ALA G   7      38.167   2.951  18.557  1.00 70.01 LIG 0.04  C 
BRANCH 48 50
ATOM     50  C   ALA G   7      37.249   4.311  16.642  1.00 69.94 LIG 0.22  C 
ATOM     51 O    ALA G   7      37.389   5.038  15.626  1.00 56.97 LIG-0.29  OA
ENDBRANCH 48 50
ENDBRANCH 46 48
ENDBRANCH 40 44
ENDBRANCH 29 37
ENDBRANCH 3 29
TORSDOF 18
ENDMDL
MODEL 73
USER: ADFR SOLUTION from run 109
USER: SCORE 15.657680 LL:  -5.791 LR: -10.344 RR:   0.000 FEB:  -4.974
USER: RMSD 4.137905
USER: SEED 108
USER: STATUS no improvement in best in 18 clusters for 5 generations
USER: GENES 20
USER: genes 0 Translation |==|  0.50796 0.55045 0.52163
USER: genes 1 Rotation |==|  0.27596 0.83406 0.78759 0.57417
USER: genes 2 Torsion [N]-C--CA-[N] |==|  0.03585
USER: genes 3 Torsion [C]-CA--CB-[CG] |==|  0.72559
USER: genes 4 Torsion [CA]-CB--CG-[CD1] |==|  0.21087
USER: genes 5 Torsion [C]-CA--N-[C] |==|  0.75546
USER: genes 6 Torsion [N]-C--CA-[N] |==|  0.40160
USER: genes 7 Torsion [C]-CA--CB-[CG1] |==|  0.57972
USER: genes 8 Torsion [CA]-CB--CG1-[CD1] |==|  0.59696
USER: genes 9 Torsion [C]-CA--N-[C] |==|  0.80138
USER: genes 10 Torsion [N]-C--CA-[N] |==|  0.89758
USER: genes 11 Torsion [C]-CA--CB-[CG] |==|  0.83922
USER: genes 12 Torsion [CA]-CB--CG-[OD1] |==|  0.40292
USER: genes 13 Torsion [C]-N--CA-[CB] |==|  0.87659
USER: genes 14 Torsion [N]-CA--CB-[CG] |==|  0.35777
USER: genes 15 Torsion [CA]-CB--CG-[CD1] |==|  0.23721
USER: genes 16 Torsion [N]-CA--C-[N] |==|  0.33391
USER: genes 17 Torsion [N]-CA--C-[O] |==|  0.76598
USER: genes 18 Torsion [C]-N--CA-[C] |==|  0.51771
USER: genes 19 Torsion [N]-CA--C-[O] |==|  0.19023
ROOT
ATOM      1  C   LEU G   4      40.090   7.581  23.043  1.00 61.38 LIG 0.24  C 
ATOM      2 O    LEU G   4      40.688   6.687  23.652  1.00 52.06 LIG-0.27  OA
ATOM      3  N   PHE G   5      40.089   7.732  21.730  1.00 60.80 LIG-0.35  N 
ATOM      4 H    PHE G   5      39.641   8.346  21.329  1.00 60.80 LIG 0.16  HD
ENDROOT
BRANCH 1 5
ATOM      5  CA  LEU G   4      39.314   8.637  23.772  1.00 58.56 LIG 0.18  C 
BRANCH 5 6
ATOM      6  CB  LEU G   4      38.460   7.940  24.827  1.00 61.47 LIG 0.04  C 
BRANCH 6 7
ATOM      7  CG  LEU G   4      37.021   7.720  24.415  1.00 62.80 LIG-0.02  C 
ATOM      8  CD1 LEU G   4      37.010   6.562  23.440  1.00 63.22 LIG 0.01  C 
ATOM      9  CD2 LEU G   4      36.193   7.440  25.668  1.00 64.86 LIG 0.01  C 
ENDBRANCH 6 7
ENDBRANCH 5 6
BRANCH 5 10
ATOM     10  N   LEU G   4      38.513   9.375  22.814  1.00 59.02 LIG-0.35  N 
ATOM     11 H    LEU G   4      37.717   9.072  22.697  1.00 59.02 LIG 0.16  HD
ATOM     12  C   ILE G   3      39.019  10.437  22.185  1.00 70.10 LIG 0.24  C 
ATOM     13 O    ILE G   3      40.091  10.975  22.541  1.00 64.55 LIG-0.27  OA
BRANCH 12 14
ATOM     14  CA  ILE G   3      38.200  10.977  20.982  1.00 67.83 LIG 0.18  C 
BRANCH 14 15
ATOM     15  CB  ILE G   3      38.683  10.335  19.643  1.00 66.94 LIG 0.01  C 
ATOM     16  CG2 ILE G   3      37.985   8.995  19.410  1.00 67.41 LIG 0.01  C 
BRANCH 15 17
ATOM     17  CG1 ILE G   3      38.459  11.275  18.426  1.00 59.79 LIG 0.00  C 
ATOM     18  CD1 ILE G   3      38.099  10.552  17.155  1.00 60.74 LIG 0.01  C 
ENDBRANCH 15 17
ENDBRANCH 14 15
BRANCH 14 19
ATOM     19  N   ILE G   3      38.300  12.428  20.928  1.00 79.60 LIG-0.34  N 
ATOM     20 H    ILE G   3      38.781  12.716  20.276  1.00 79.60 LIG 0.16  HD
ATOM     21  C   ASP G   2      37.702  13.237  21.807  1.00 93.07 LIG 0.26  C 
ATOM     22 O    ASP G   2      36.937  12.836  22.685  1.00 81.24 LIG-0.27  OA
BRANCH 21 23
ATOM     23  CA  ASP G   2      38.016  14.736  21.703  1.00 93.30 LIG 0.41  C 
ATOM     24  N   ASP G   2      39.452  14.892  21.332  1.00 94.60 LIG 0.61  N 
BRANCH 23 25
ATOM     25  CB  ASP G   2      37.123  15.446  20.676  1.00 96.36 LIG 0.16  C 
BRANCH 25 26
ATOM     26  CG  ASP G   2      37.239  14.847  19.291  1.00103.24 LIG 0.17  C 
ATOM     27 OD1  ASP G   2      36.229  14.808  18.561  1.00112.85 LIG-0.65  OA
ATOM     28 OD2  ASP G   2      38.343  14.418  18.923  1.00105.87 LIG-0.65  OA
ENDBRANCH 25 26
ENDBRANCH 23 25
ENDBRANCH 21 23
ENDBRANCH 14 19
ENDBRANCH 12 14
ENDBRANCH 5 10
ENDBRANCH 1 5
BRANCH 3 29
ATOM     29  CA  PHE G   5      40.833   6.889  20.838  1.00 70.05 LIG 0.18  C 
BRANCH 29 30
ATOM     30  CB  PHE G   5      42.260   6.653  21.376  1.00 73.20 LIG 0.07  C 
BRANCH 30 31
ATOM     31  CG  PHE G   5      42.637   5.180  21.426  1.00 79.36 LIG-0.06  A 
ATOM     32  CD1 PHE G   5      43.166   4.542  20.276  1.00 85.64 LIG 0.01  A 
ATOM     33  CE1 PHE G   5      43.532   3.203  20.299  1.00 88.71 LIG 0.00  A 
ATOM     34  CZ  PHE G   5      43.381   2.476  21.485  1.00 96.11 LIG 0.00  A 
ATOM     35  CE2 PHE G   5      42.875   3.096  22.638  1.00 91.53 LIG 0.00  A 
ATOM     36  CD2 PHE G   5      42.507   4.438  22.608  1.00 81.01 LIG 0.01  A 
ENDBRANCH 30 31
ENDBRANCH 29 30
BRANCH 29 37
ATOM     37  C   PHE G   5      40.008   5.617  20.682  1.00 74.26 LIG 0.24  C 
ATOM     38  N   PRO G   6      39.601   5.302  19.432  1.00 79.01 LIG-0.34  N 
ATOM     39  CD  PRO G   6      39.777   6.182  18.245  1.00 76.17 LIG 0.13  C 
ATOM     40  CA  PRO G   6      38.658   4.203  19.172  1.00 78.34 LIG 0.18  C 
ATOM     41  CG  PRO G   6      39.231   5.367  17.125  1.00 78.03 LIG 0.02  C 
ATOM     42  CB  PRO G   6      38.144   4.540  17.761  1.00 82.73 LIG 0.04  C 
ATOM     43 O    PHE G   5      39.664   4.981  21.687  1.00 61.78 LIG-0.27  OA
BRANCH 40 44
ATOM     44  C   PRO G   6      39.246   2.774  19.194  1.00 77.34 LIG 0.24  C 
ATOM     45 O    PRO G   6      39.773   2.336  18.186  1.00 92.50 LIG-0.27  OA
ATOM     46  N   ALA G   7      39.148   2.065  20.328  1.00 74.20 LIG-0.35  N 
ATOM     47 H    ALA G   7      39.036   2.425  21.102  1.00 74.20 LIG 0.16  HD
BRANCH 46 48
ATOM     48  CA  ALA G   7      39.226   0.580  20.360  1.00 71.75 LIG 0.16  C 
ATOM     49  CB  ALA G   7      40.609   0.108  19.912  1.00 70.01 LIG 0.04  C 
BRANCH 48 50
ATOM     50  C   ALA G   7      38.921   0.064  21.785  1.00 69.94 LIG 0.22  C 
ATOM     51 O    ALA G   7      37.764   0.171  22.265  1.00 56.97 LIG-0.29  OA
ENDBRANCH 48 50
ENDBRANCH 46 48
ENDBRANCH 40 44
ENDBRANCH 29 37
ENDBRANCH 3 29
TORSDOF 18
ENDMDL
MODEL 74
USER: ADFR SOLUTION from run 125
USER: SCORE 14.246054 LL:  -5.942 LR: -10.329 RR:   0.000 FEB:  -4.960
USER: RMSD 5.110155
USER: SEED 124
USER: STATUS no improvement in best in 14 clusters for 5 generations
USER: GENES 20
USER: genes 0 Translation |==|  0.51105 0.41716 0.31605
USER: genes 1 Rotation |==|  0.33695 0.29564 0.62021 0.90890
USER: genes 2 Torsion [N]-C--CA-[N] |==|  0.05514
USER: genes 3 Torsion [C]-CA--CB-[CG] |==|  0.41664
USER: genes 4 Torsion [CA]-CB--CG-[CD1] |==|  0.57072
USER: genes 5 Torsion [C]-CA--N-[C] |==|  0.19983
USER: genes 6 Torsion [N]-C--CA-[N] |==|  0.12127
USER: genes 7 Torsion [C]-CA--CB-[CG1] |==|  0.53971
USER: genes 8 Torsion [CA]-CB--CG1-[CD1] |==|  0.70581
USER: genes 9 Torsion [C]-CA--N-[C] |==|  0.16069
USER: genes 10 Torsion [N]-C--CA-[N] |==|  0.56339
USER: genes 11 Torsion [C]-CA--CB-[CG] |==|  0.47938
USER: genes 12 Torsion [CA]-CB--CG-[OD1] |==|  0.08344
USER: genes 13 Torsion [C]-N--CA-[CB] |==|  0.32681
USER: genes 14 Torsion [N]-CA--CB-[CG] |==|  0.87376
USER: genes 15 Torsion [CA]-CB--CG-[CD1] |==|  0.87580
USER: genes 16 Torsion [N]-CA--C-[N] |==|  0.19323
USER: genes 17 Torsion [N]-CA--C-[O] |==|  0.03482
USER: genes 18 Torsion [C]-N--CA-[C] |==|  0.74582
USER: genes 19 Torsion [N]-CA--C-[O] |==|  0.02788
ROOT
ATOM      1  C   LEU G   4      40.141   3.882  19.651  1.00 61.38 LIG 0.24  C 
ATOM      2 O    LEU G   4      40.902   3.223  18.934  1.00 52.06 LIG-0.27  OA
ATOM      3  N   PHE G   5      40.297   4.068  20.950  1.00 60.80 LIG-0.35  N 
ATOM      4 H    PHE G   5      39.768   4.556  21.421  1.00 60.80 LIG 0.16  HD
ENDROOT
BRANCH 1 5
ATOM      5  CA  LEU G   4      38.905   4.524  19.094  1.00 58.56 LIG 0.18  C 
BRANCH 5 6
ATOM      6  CB  LEU G   4      39.252   5.082  17.717  1.00 61.47 LIG 0.04  C 
BRANCH 6 7
ATOM      7  CG  LEU G   4      38.092   5.106  16.747  1.00 62.80 LIG-0.02  C 
ATOM      8  CD1 LEU G   4      38.677   5.056  15.351  1.00 63.22 LIG 0.01  C 
ATOM      9  CD2 LEU G   4      37.183   3.913  17.044  1.00 64.86 LIG 0.01  C 
ENDBRANCH 6 7
ENDBRANCH 5 6
BRANCH 5 10
ATOM     10  N   LEU G   4      38.459   5.555  20.011  1.00 59.02 LIG-0.35  N 
ATOM     11 H    LEU G   4      37.744   5.365  20.449  1.00 59.02 LIG 0.16  HD
ATOM     12  C   ILE G   3      39.140   6.694  20.131  1.00 70.10 LIG 0.24  C 
ATOM     13 O    ILE G   3      40.285   6.841  19.649  1.00 64.55 LIG-0.27  OA
BRANCH 12 14
ATOM     14  CA  ILE G   3      38.435   7.838  20.909  1.00 67.83 LIG 0.18  C 
BRANCH 14 15
ATOM     15  CB  ILE G   3      39.443   8.976  21.267  1.00 66.94 LIG 0.01  C 
ATOM     16  CG2 ILE G   3      39.848   9.747  20.010  1.00 67.41 LIG 0.01  C 
BRANCH 15 17
ATOM     17  CG1 ILE G   3      38.873   9.951  22.334  1.00 59.79 LIG 0.00  C 
ATOM     18  CD1 ILE G   3      38.459  11.289  21.778  1.00 60.74 LIG 0.01  C 
ENDBRANCH 15 17
ENDBRANCH 14 15
BRANCH 14 19
ATOM     19  N   ILE G   3      37.805   7.306  22.107  1.00 79.60 LIG-0.34  N 
ATOM     20 H    ILE G   3      36.959   7.452  22.145  1.00 79.60 LIG 0.16  HD
ATOM     21  C   ASP G   2      38.476   6.652  23.059  1.00 93.07 LIG 0.26  C 
ATOM     22 O    ASP G   2      39.669   6.358  22.967  1.00 81.24 LIG-0.27  OA
BRANCH 21 23
ATOM     23  CA  ASP G   2      37.701   6.276  24.329  1.00 93.30 LIG 0.41  C 
ATOM     24  N   ASP G   2      38.677   6.085  25.439  1.00 94.60 LIG 0.61  N 
BRANCH 23 25
ATOM     25  CB  ASP G   2      36.664   7.343  24.713  1.00 96.36 LIG 0.16  C 
BRANCH 25 26
ATOM     26  CG  ASP G   2      35.773   6.903  25.854  1.00103.24 LIG 0.17  C 
ATOM     27 OD1  ASP G   2      36.227   6.117  26.709  1.00112.85 LIG-0.65  OA
ATOM     28 OD2  ASP G   2      34.616   7.347  25.906  1.00105.87 LIG-0.65  OA
ENDBRANCH 25 26
ENDBRANCH 23 25
ENDBRANCH 21 23
ENDBRANCH 14 19
ENDBRANCH 12 14
ENDBRANCH 5 10
ENDBRANCH 1 5
BRANCH 3 29
ATOM     29  CA  PHE G   5      41.362   3.477  21.709  1.00 70.05 LIG 0.18  C 
BRANCH 29 30
ATOM     30  CB  PHE G   5      42.266   4.569  22.318  1.00 73.20 LIG 0.07  C 
BRANCH 30 31
ATOM     31  CG  PHE G   5      42.623   5.664  21.324  1.00 79.36 LIG-0.06  A 
ATOM     32  CD1 PHE G   5      43.021   5.326  20.007  1.00 85.64 LIG 0.01  A 
ATOM     33  CE1 PHE G   5      43.338   6.307  19.076  1.00 88.71 LIG 0.00  A 
ATOM     34  CZ  PHE G   5      43.254   7.652  19.449  1.00 96.11 LIG 0.00  A 
ATOM     35  CE2 PHE G   5      42.846   8.005  20.745  1.00 91.53 LIG 0.00  A 
ATOM     36  CD2 PHE G   5      42.532   7.018  21.674  1.00 81.01 LIG 0.01  A 
ENDBRANCH 30 31
ENDBRANCH 29 30
BRANCH 29 37
ATOM     37  C   PHE G   5      40.690   2.578  22.740  1.00 74.26 LIG 0.24  C 
ATOM     38  N   PRO G   6      40.083   1.463  22.275  1.00 79.01 LIG-0.34  N 
ATOM     39  CD  PRO G   6      39.904   1.144  20.833  1.00 76.17 LIG 0.13  C 
ATOM     40  CA  PRO G   6      39.253   0.608  23.138  1.00 78.34 LIG 0.18  C 
ATOM     41  CG  PRO G   6      39.251  -0.194  20.852  1.00 78.03 LIG 0.02  C 
ATOM     42  CB  PRO G   6      38.428  -0.189  22.113  1.00 82.73 LIG 0.04  C 
ATOM     43 O    PHE G   5      40.639   2.934  23.924  1.00 61.78 LIG-0.27  OA
BRANCH 40 44
ATOM     44  C   PRO G   6      40.009  -0.360  24.077  1.00 77.34 LIG 0.24  C 
ATOM     45 O    PRO G   6      41.209  -0.216  24.232  1.00 92.50 LIG-0.27  OA
ATOM     46  N   ALA G   7      39.309  -1.328  24.686  1.00 74.20 LIG-0.35  N 
ATOM     47 H    ALA G   7      38.459  -1.291  24.810  1.00 74.20 LIG 0.16  HD
BRANCH 46 48
ATOM     48  CA  ALA G   7      39.940  -2.570  25.209  1.00 71.75 LIG 0.16  C 
ATOM     49  CB  ALA G   7      39.215  -3.048  26.467  1.00 70.01 LIG 0.04  C 
BRANCH 48 50
ATOM     50  C   ALA G   7      39.914  -3.673  24.127  1.00 69.94 LIG 0.22  C 
ATOM     51 O    ALA G   7      39.584  -3.397  22.946  1.00 56.97 LIG-0.29  OA
ENDBRANCH 48 50
ENDBRANCH 46 48
ENDBRANCH 40 44
ENDBRANCH 29 37
ENDBRANCH 3 29
TORSDOF 18
ENDMDL
MODEL 75
USER: ADFR SOLUTION from run 23
USER: SCORE 14.807915 LL:  -6.324 LR: -10.327 RR:   0.000 FEB:  -4.958
USER: RMSD 4.021120
USER: SEED 22
USER: STATUS no improvement in best in 16 clusters for 5 generations
USER: GENES 20
USER: genes 0 Translation |==|  0.48208 0.46377 0.38773
USER: genes 1 Rotation |==|  0.38469 0.39972 0.54991 0.97345
USER: genes 2 Torsion [N]-C--CA-[N] |==|  0.01991
USER: genes 3 Torsion [C]-CA--CB-[CG] |==|  0.51915
USER: genes 4 Torsion [CA]-CB--CG-[CD1] |==|  0.26685
USER: genes 5 Torsion [C]-CA--N-[C] |==|  0.69679
USER: genes 6 Torsion [N]-C--CA-[N] |==|  0.08998
USER: genes 7 Torsion [C]-CA--CB-[CG1] |==|  0.54194
USER: genes 8 Torsion [CA]-CB--CG1-[CD1] |==|  0.88845
USER: genes 9 Torsion [C]-CA--N-[C] |==|  0.16254
USER: genes 10 Torsion [N]-C--CA-[N] |==|  0.53386
USER: genes 11 Torsion [C]-CA--CB-[CG] |==|  0.78437
USER: genes 12 Torsion [CA]-CB--CG-[OD1] |==|  0.34257
USER: genes 13 Torsion [C]-N--CA-[CB] |==|  0.34626
USER: genes 14 Torsion [N]-CA--CB-[CG] |==|  0.05719
USER: genes 15 Torsion [CA]-CB--CG-[CD1] |==|  0.27229
USER: genes 16 Torsion [N]-CA--C-[N] |==|  0.27975
USER: genes 17 Torsion [N]-CA--C-[O] |==|  0.01439
USER: genes 18 Torsion [C]-N--CA-[C] |==|  0.80181
USER: genes 19 Torsion [N]-CA--C-[O] |==|  0.93739
ROOT
ATOM      1  C   LEU G   4      39.663   5.176  20.834  1.00 61.38 LIG 0.24  C 
ATOM      2 O    LEU G   4      39.821   4.588  19.758  1.00 52.06 LIG-0.27  OA
ATOM      3  N   PHE G   5      40.307   4.892  21.952  1.00 60.80 LIG-0.35  N 
ATOM      4 H    PHE G   5      40.201   5.337  22.681  1.00 60.80 LIG 0.16  HD
ENDROOT
BRANCH 1 5
ATOM      5  CA  LEU G   4      38.661   6.282  20.979  1.00 58.56 LIG 0.18  C 
BRANCH 5 6
ATOM      6  CB  LEU G   4      38.924   7.295  19.869  1.00 61.47 LIG 0.04  C 
BRANCH 6 7
ATOM      7  CG  LEU G   4      38.099   8.559  19.975  1.00 62.80 LIG-0.02  C 
ATOM      8  CD1 LEU G   4      38.954   9.592  20.678  1.00 63.22 LIG 0.01  C 
ATOM      9  CD2 LEU G   4      37.693   8.995  18.567  1.00 64.86 LIG 0.01  C 
ENDBRANCH 6 7
ENDBRANCH 5 6
BRANCH 5 10
ATOM     10  N   LEU G   4      38.794   6.864  22.301  1.00 59.02 LIG-0.35  N 
ATOM     11 H    LEU G   4      39.509   7.326  22.423  1.00 59.02 LIG 0.16  HD
ATOM     12  C   ILE G   3      37.852   6.668  23.224  1.00 70.10 LIG 0.24  C 
ATOM     13 O    ILE G   3      36.733   6.183  22.944  1.00 64.55 LIG-0.27  OA
BRANCH 12 14
ATOM     14  CA  ILE G   3      38.216   7.080  24.675  1.00 67.83 LIG 0.18  C 
BRANCH 14 15
ATOM     15  CB  ILE G   3      36.933   7.395  25.507  1.00 66.94 LIG 0.01  C 
ATOM     16  CG2 ILE G   3      36.169   6.108  25.820  1.00 67.41 LIG 0.01  C 
BRANCH 15 17
ATOM     17  CG1 ILE G   3      37.257   8.159  26.821  1.00 59.79 LIG 0.00  C 
ATOM     18  CD1 ILE G   3      38.495   7.668  27.522  1.00 60.74 LIG 0.01  C 
ENDBRANCH 15 17
ENDBRANCH 14 15
BRANCH 14 19
ATOM     19  N   ILE G   3      39.115   8.224  24.654  1.00 79.60 LIG-0.34  N 
ATOM     20 H    ILE G   3      39.866   8.079  25.045  1.00 79.60 LIG 0.16  HD
ATOM     21  C   ASP G   2      38.804   9.390  24.081  1.00 93.07 LIG 0.26  C 
ATOM     22 O    ASP G   2      37.768   9.574  23.439  1.00 81.24 LIG-0.27  OA
BRANCH 21 23
ATOM     23  CA  ASP G   2      39.796  10.546  24.264  1.00 93.30 LIG 0.41  C 
ATOM     24  N   ASP G   2      39.138  11.807  23.819  1.00 94.60 LIG 0.61  N 
BRANCH 23 25
ATOM     25  CB  ASP G   2      40.268  10.680  25.720  1.00 96.36 LIG 0.16  C 
BRANCH 25 26
ATOM     26  CG  ASP G   2      39.239  11.348  26.606  1.00103.24 LIG 0.17  C 
ATOM     27 OD1  ASP G   2      38.834  10.749  27.622  1.00112.85 LIG-0.65  OA
ATOM     28 OD2  ASP G   2      38.834  12.478  26.294  1.00105.87 LIG-0.65  OA
ENDBRANCH 25 26
ENDBRANCH 23 25
ENDBRANCH 21 23
ENDBRANCH 14 19
ENDBRANCH 12 14
ENDBRANCH 5 10
ENDBRANCH 1 5
BRANCH 3 29
ATOM     29  CA  PHE G   5      41.251   3.817  22.068  1.00 70.05 LIG 0.18  C 
BRANCH 29 30
ATOM     30  CB  PHE G   5      42.609   4.338  22.582  1.00 73.20 LIG 0.07  C 
BRANCH 30 31
ATOM     31  CG  PHE G   5      42.498   5.678  23.294  1.00 79.36 LIG-0.06  A 
ATOM     32  CD1 PHE G   5      42.437   5.728  24.709  1.00 85.64 LIG 0.01  A 
ATOM     33  CE1 PHE G   5      42.350   6.939  25.384  1.00 88.71 LIG 0.00  A 
ATOM     34  CZ  PHE G   5      42.330   8.128  24.649  1.00 96.11 LIG 0.00  A 
ATOM     35  CE2 PHE G   5      42.406   8.098  23.247  1.00 91.53 LIG 0.00  A 
ATOM     36  CD2 PHE G   5      42.491   6.882  22.576  1.00 81.01 LIG 0.01  A 
ENDBRANCH 30 31
ENDBRANCH 29 30
BRANCH 29 37
ATOM     37  C   PHE G   5      40.596   2.784  22.978  1.00 74.26 LIG 0.24  C 
ATOM     38  N   PRO G   6      40.031   1.713  22.377  1.00 79.01 LIG-0.34  N 
ATOM     39  CD  PRO G   6      39.880   1.557  20.905  1.00 76.17 LIG 0.13  C 
ATOM     40  CA  PRO G   6      39.219   0.738  23.123  1.00 78.34 LIG 0.18  C 
ATOM     41  CG  PRO G   6      39.271   0.207  20.759  1.00 78.03 LIG 0.02  C 
ATOM     42  CB  PRO G   6      38.433   0.040  22.000  1.00 82.73 LIG 0.04  C 
ATOM     43 O    PHE G   5      40.519   2.999  24.194  1.00 61.78 LIG-0.27  OA
BRANCH 40 44
ATOM     44  C   PRO G   6      39.994  -0.308  23.955  1.00 77.34 LIG 0.24  C 
ATOM     45 O    PRO G   6      41.208  -0.221  24.033  1.00 92.50 LIG-0.27  OA
ATOM     46  N   ALA G   7      39.296  -1.279  24.562  1.00 74.20 LIG-0.35  N 
ATOM     47 H    ALA G   7      38.459  -1.214  24.748  1.00 74.20 LIG 0.16  HD
BRANCH 46 48
ATOM     48  CA  ALA G   7      39.906  -2.572  24.976  1.00 71.75 LIG 0.16  C 
ATOM     49  CB  ALA G   7      38.969  -3.327  25.918  1.00 70.01 LIG 0.04  C 
BRANCH 48 50
ATOM     50  C   ALA G   7      40.220  -3.432  23.731  1.00 69.94 LIG 0.22  C 
ATOM     51 O    ALA G   7      39.607  -3.233  22.651  1.00 56.97 LIG-0.29  OA
ENDBRANCH 48 50
ENDBRANCH 46 48
ENDBRANCH 40 44
ENDBRANCH 29 37
ENDBRANCH 3 29
TORSDOF 18
ENDMDL
MODEL 76
USER: ADFR SOLUTION from run 160
USER: SCORE 14.382758 LL:  -5.179 LR: -10.330 RR:   0.000 FEB:  -4.961
USER: RMSD 10.791134
USER: SEED 159
USER: STATUS no improvement in best in 22 clusters for 5 generations
USER: GENES 20
USER: genes 0 Translation |==|  0.51034 0.46026 0.54313
USER: genes 1 Rotation |==|  0.60853 0.66640 0.95778 0.53108
USER: genes 2 Torsion [N]-C--CA-[N] |==|  0.43291
USER: genes 3 Torsion [C]-CA--CB-[CG] |==|  0.29638
USER: genes 4 Torsion [CA]-CB--CG-[CD1] |==|  0.65645
USER: genes 5 Torsion [C]-CA--N-[C] |==|  0.79829
USER: genes 6 Torsion [N]-C--CA-[N] |==|  0.38089
USER: genes 7 Torsion [C]-CA--CB-[CG1] |==|  0.54602
USER: genes 8 Torsion [CA]-CB--CG1-[CD1] |==|  0.70640
USER: genes 9 Torsion [C]-CA--N-[C] |==|  0.79673
USER: genes 10 Torsion [N]-C--CA-[N] |==|  0.62153
USER: genes 11 Torsion [C]-CA--CB-[CG] |==|  0.76151
USER: genes 12 Torsion [CA]-CB--CG-[OD1] |==|  0.72147
USER: genes 13 Torsion [C]-N--CA-[CB] |==|  0.27222
USER: genes 14 Torsion [N]-CA--CB-[CG] |==|  0.11061
USER: genes 15 Torsion [CA]-CB--CG-[CD1] |==|  0.13190
USER: genes 16 Torsion [N]-CA--C-[N] |==|  0.42817
USER: genes 17 Torsion [N]-CA--C-[O] |==|  0.07126
USER: genes 18 Torsion [C]-N--CA-[C] |==|  0.55232
USER: genes 19 Torsion [N]-CA--C-[O] |==|  0.21501
ROOT
ATOM      1  C   LEU G   4      40.130   5.078  23.398  1.00 61.38 LIG 0.24  C 
ATOM      2 O    LEU G   4      39.957   4.307  22.447  1.00 52.06 LIG-0.27  OA
ATOM      3  N   PHE G   5      39.549   6.258  23.530  1.00 60.80 LIG-0.35  N 
ATOM      4 H    PHE G   5      39.664   6.763  24.216  1.00 60.80 LIG 0.16  HD
ENDROOT
BRANCH 1 5
ATOM      5  CA  LEU G   4      41.079   4.745  24.511  1.00 58.56 LIG 0.18  C 
BRANCH 5 6
ATOM      6  CB  LEU G   4      42.408   5.430  24.207  1.00 61.47 LIG 0.04  C 
BRANCH 6 7
ATOM      7  CG  LEU G   4      42.701   6.630  25.080  1.00 62.80 LIG-0.02  C 
ATOM      8  CD1 LEU G   4      42.934   7.807  24.155  1.00 63.22 LIG 0.01  C 
ATOM      9  CD2 LEU G   4      41.516   6.849  26.020  1.00 64.86 LIG 0.01  C 
ENDBRANCH 6 7
ENDBRANCH 5 6
BRANCH 5 10
ATOM     10  N   LEU G   4      41.208   3.303  24.600  1.00 59.02 LIG-0.35  N 
ATOM     11 H    LEU G   4      41.958   2.989  24.321  1.00 59.02 LIG 0.16  HD
ATOM     12  C   ILE G   3      40.210   2.563  25.085  1.00 70.10 LIG 0.24  C 
ATOM     13 O    ILE G   3      39.233   3.069  25.681  1.00 64.55 LIG-0.27  OA
BRANCH 12 14
ATOM     14  CA  ILE G   3      40.326   1.030  24.873  1.00 67.83 LIG 0.18  C 
BRANCH 14 15
ATOM     15  CB  ILE G   3      39.453   0.564  23.665  1.00 66.94 LIG 0.01  C 
ATOM     16  CG2 ILE G   3      40.095   0.993  22.345  1.00 67.41 LIG 0.01  C 
BRANCH 15 17
ATOM     17  CG1 ILE G   3      39.213  -0.971  23.671  1.00 59.79 LIG 0.00  C 
ATOM     18  CD1 ILE G   3      40.013  -1.717  22.637  1.00 60.74 LIG 0.01  C 
ENDBRANCH 15 17
ENDBRANCH 14 15
BRANCH 14 19
ATOM     19  N   ILE G   3      39.942   0.333  26.091  1.00 79.60 LIG-0.34  N 
ATOM     20 H    ILE G   3      39.176  -0.054  26.039  1.00 79.60 LIG 0.16  HD
ATOM     21  C   ASP G   2      40.705   0.294  27.186  1.00 93.07 LIG 0.26  C 
ATOM     22 O    ASP G   2      41.843   0.765  27.235  1.00 81.24 LIG-0.27  OA
BRANCH 21 23
ATOM     23  CA  ASP G   2      40.102  -0.360  28.436  1.00 93.30 LIG 0.41  C 
ATOM     24  N   ASP G   2      40.420   0.495  29.616  1.00 94.60 LIG 0.61  N 
BRANCH 23 25
ATOM     25  CB  ASP G   2      38.583  -0.552  28.316  1.00 96.36 LIG 0.16  C 
BRANCH 25 26
ATOM     26  CG  ASP G   2      37.807   0.676  28.739  1.00103.24 LIG 0.17  C 
ATOM     27 OD1  ASP G   2      37.296   0.709  29.876  1.00112.85 LIG-0.65  OA
ATOM     28 OD2  ASP G   2      37.709   1.619  27.938  1.00105.87 LIG-0.65  OA
ENDBRANCH 25 26
ENDBRANCH 23 25
ENDBRANCH 21 23
ENDBRANCH 14 19
ENDBRANCH 12 14
ENDBRANCH 5 10
ENDBRANCH 1 5
BRANCH 3 29
ATOM     29  CA  PHE G   5      38.669   6.819  22.545  1.00 70.05 LIG 0.18  C 
BRANCH 29 30
ATOM     30  CB  PHE G   5      37.195   6.574  22.930  1.00 73.20 LIG 0.07  C 
BRANCH 30 31
ATOM     31  CG  PHE G   5      36.937   6.741  24.420  1.00 79.36 LIG-0.06  A 
ATOM     32  CD1 PHE G   5      37.437   7.877  25.105  1.00 85.64 LIG 0.01  A 
ATOM     33  CE1 PHE G   5      37.203   8.061  26.461  1.00 88.71 LIG 0.00  A 
ATOM     34  CZ  PHE G   5      36.453   7.109  27.158  1.00 96.11 LIG 0.00  A 
ATOM     35  CE2 PHE G   5      35.936   5.986  26.493  1.00 91.53 LIG 0.00  A 
ATOM     36  CD2 PHE G   5      36.176   5.805  25.134  1.00 81.01 LIG 0.01  A 
ENDBRANCH 30 31
ENDBRANCH 29 30
BRANCH 29 37
ATOM     37  C   PHE G   5      39.048   8.291  22.437  1.00 74.26 LIG 0.24  C 
ATOM     38  N   PRO G   6      38.778   8.906  21.263  1.00 79.01 LIG-0.34  N 
ATOM     39  CD  PRO G   6      38.282   8.212  20.045  1.00 76.17 LIG 0.13  C 
ATOM     40  CA  PRO G   6      39.249  10.269  20.970  1.00 78.34 LIG 0.18  C 
ATOM     41  CG  PRO G   6      38.085   9.319  19.070  1.00 78.03 LIG 0.02  C 
ATOM     42  CB  PRO G   6      39.139  10.331  19.437  1.00 82.73 LIG 0.04  C 
ATOM     43 O    PHE G   5      39.660   8.836  23.363  1.00 61.78 LIG-0.27  OA
BRANCH 40 44
ATOM     44  C   PRO G   6      38.446  11.426  21.606  1.00 77.34 LIG 0.24  C 
ATOM     45 O    PRO G   6      37.820  11.218  22.631  1.00 92.50 LIG-0.27  OA
ATOM     46  N   ALA G   7      38.468  12.622  20.999  1.00 74.20 LIG-0.35  N 
ATOM     47 H    ALA G   7      39.089  12.865  20.457  1.00 74.20 LIG 0.16  HD
BRANCH 46 48
ATOM     48  CA  ALA G   7      37.413  13.650  21.207  1.00 71.75 LIG 0.16  C 
ATOM     49  CB  ALA G   7      37.605  14.348  22.553  1.00 70.01 LIG 0.04  C 
BRANCH 48 50
ATOM     50  C   ALA G   7      37.448  14.684  20.059  1.00 69.94 LIG 0.22  C 
ATOM     51 O    ALA G   7      36.959  14.402  18.935  1.00 56.97 LIG-0.29  OA
ENDBRANCH 48 50
ENDBRANCH 46 48
ENDBRANCH 40 44
ENDBRANCH 29 37
ENDBRANCH 3 29
TORSDOF 18
ENDMDL
MODEL 77
USER: ADFR SOLUTION from run 168
USER: SCORE 14.786710 LL:  -6.316 LR: -10.330 RR:   0.000 FEB:  -4.961
USER: RMSD 6.261728
USER: SEED 167
USER: STATUS no improvement in best in 18 clusters for 5 generations
USER: GENES 20
USER: genes 0 Translation |==|  0.51138 0.48163 0.42193
USER: genes 1 Rotation |==|  0.49850 0.27286 0.50588 0.94539
USER: genes 2 Torsion [N]-C--CA-[N] |==|  0.07690
USER: genes 3 Torsion [C]-CA--CB-[CG] |==|  0.39817
USER: genes 4 Torsion [CA]-CB--CG-[CD1] |==|  0.40980
USER: genes 5 Torsion [C]-CA--N-[C] |==|  0.67347
USER: genes 6 Torsion [N]-C--CA-[N] |==|  0.83069
USER: genes 7 Torsion [C]-CA--CB-[CG1] |==|  0.82713
USER: genes 8 Torsion [CA]-CB--CG1-[CD1] |==|  0.36712
USER: genes 9 Torsion [C]-CA--N-[C] |==|  0.63680
USER: genes 10 Torsion [N]-C--CA-[N] |==|  0.30320
USER: genes 11 Torsion [C]-CA--CB-[CG] |==|  0.76968
USER: genes 12 Torsion [CA]-CB--CG-[OD1] |==|  0.05287
USER: genes 13 Torsion [C]-N--CA-[CB] |==|  0.24320
USER: genes 14 Torsion [N]-CA--CB-[CG] |==|  0.10113
USER: genes 15 Torsion [CA]-CB--CG-[CD1] |==|  0.72617
USER: genes 16 Torsion [N]-CA--C-[N] |==|  0.28241
USER: genes 17 Torsion [N]-CA--C-[O] |==|  0.99600
USER: genes 18 Torsion [C]-N--CA-[C] |==|  0.77198
USER: genes 19 Torsion [N]-CA--C-[O] |==|  0.03220
ROOT
ATOM      1  C   LEU G   4      40.147   5.671  21.398  1.00 61.38 LIG 0.24  C 
ATOM      2 O    LEU G   4      40.873   5.652  20.398  1.00 52.06 LIG-0.27  OA
ATOM      3  N   PHE G   5      40.251   4.846  22.425  1.00 60.80 LIG-0.35  N 
ATOM      4 H    PHE G   5      39.751   4.899  23.122  1.00 60.80 LIG 0.16  HD
ENDROOT
BRANCH 1 5
ATOM      5  CA  LEU G   4      39.014   6.647  21.521  1.00 58.56 LIG 0.18  C 
BRANCH 5 6
ATOM      6  CB  LEU G   4      39.417   7.921  20.784  1.00 61.47 LIG 0.04  C 
BRANCH 6 7
ATOM      7  CG  LEU G   4      38.279   8.602  20.057  1.00 62.80 LIG-0.02  C 
ATOM      8  CD1 LEU G   4      38.553  10.091  20.096  1.00 63.22 LIG 0.01  C 
ATOM      9  CD2 LEU G   4      38.214   8.055  18.631  1.00 64.86 LIG 0.01  C 
ENDBRANCH 6 7
ENDBRANCH 5 6
BRANCH 5 10
ATOM     10  N   LEU G   4      38.751   6.883  22.928  1.00 59.02 LIG-0.35  N 
ATOM     11 H    LEU G   4      39.401   7.238  23.364  1.00 59.02 LIG 0.16  HD
ATOM     12  C   ILE G   3      37.572   6.557  23.459  1.00 70.10 LIG 0.24  C 
ATOM     13 O    ILE G   3      36.584   6.252  22.755  1.00 64.55 LIG-0.27  OA
BRANCH 12 14
ATOM     14  CA  ILE G   3      37.488   6.577  25.009  1.00 67.83 LIG 0.18  C 
BRANCH 14 15
ATOM     15  CB  ILE G   3      37.754   8.011  25.566  1.00 66.94 LIG 0.01  C 
ATOM     16  CG2 ILE G   3      37.532   8.048  27.078  1.00 67.41 LIG 0.01  C 
BRANCH 15 17
ATOM     17  CG1 ILE G   3      39.181   8.521  25.221  1.00 59.79 LIG 0.00  C 
ATOM     18  CD1 ILE G   3      39.210   9.917  24.657  1.00 60.74 LIG 0.01  C 
ENDBRANCH 15 17
ENDBRANCH 14 15
BRANCH 14 19
ATOM     19  N   ILE G   3      38.431   5.621  25.568  1.00 79.60 LIG-0.34  N 
ATOM     20 H    ILE G   3      39.224   5.689  25.243  1.00 79.60 LIG 0.16  HD
ATOM     21  C   ASP G   2      38.099   4.721  26.498  1.00 93.07 LIG 0.26  C 
ATOM     22 O    ASP G   2      36.991   4.680  27.034  1.00 81.24 LIG-0.27  OA
BRANCH 21 23
ATOM     23  CA  ASP G   2      39.166   3.688  26.884  1.00 93.30 LIG 0.41  C 
ATOM     24  N   ASP G   2      39.648   4.001  28.260  1.00 94.60 LIG 0.61  N 
BRANCH 23 25
ATOM     25  CB  ASP G   2      38.631   2.250  26.824  1.00 96.36 LIG 0.16  C 
BRANCH 25 26
ATOM     26  CG  ASP G   2      37.881   1.856  28.078  1.00103.24 LIG 0.17  C 
ATOM     27 OD1  ASP G   2      37.455   2.749  28.836  1.00112.85 LIG-0.65  OA
ATOM     28 OD2  ASP G   2      37.709   0.649  28.310  1.00105.87 LIG-0.65  OA
ENDBRANCH 25 26
ENDBRANCH 23 25
ENDBRANCH 21 23
ENDBRANCH 14 19
ENDBRANCH 12 14
ENDBRANCH 5 10
ENDBRANCH 1 5
BRANCH 3 29
ATOM     29  CA  PHE G   5      41.209   3.778  22.485  1.00 70.05 LIG 0.18  C 
BRANCH 29 30
ATOM     30  CB  PHE G   5      42.546   4.279  23.069  1.00 73.20 LIG 0.07  C 
BRANCH 30 31
ATOM     31  CG  PHE G   5      42.361   5.313  24.169  1.00 79.36 LIG-0.06  A 
ATOM     32  CD1 PHE G   5      42.486   6.694  23.876  1.00 85.64 LIG 0.01  A 
ATOM     33  CE1 PHE G   5      42.308   7.658  24.859  1.00 88.71 LIG 0.00  A 
ATOM     34  CZ  PHE G   5      41.991   7.254  26.160  1.00 96.11 LIG 0.00  A 
ATOM     35  CE2 PHE G   5      41.847   5.891  26.465  1.00 91.53 LIG 0.00  A 
ATOM     36  CD2 PHE G   5      42.029   4.929  25.476  1.00 81.01 LIG 0.01  A 
ENDBRANCH 30 31
ENDBRANCH 29 30
BRANCH 29 37
ATOM     37  C   PHE G   5      40.548   2.672  23.299  1.00 74.26 LIG 0.24  C 
ATOM     38  N   PRO G   6      40.032   1.631  22.608  1.00 79.01 LIG-0.34  N 
ATOM     39  CD  PRO G   6      39.937   1.571  21.124  1.00 76.17 LIG 0.13  C 
ATOM     40  CA  PRO G   6      39.219   0.590  23.257  1.00 78.34 LIG 0.18  C 
ATOM     41  CG  PRO G   6      39.367   0.220  20.867  1.00 78.03 LIG 0.02  C 
ATOM     42  CB  PRO G   6      38.491  -0.049  22.062  1.00 82.73 LIG 0.04  C 
ATOM     43 O    PHE G   5      40.422   2.802  24.523  1.00 61.78 LIG-0.27  OA
BRANCH 40 44
ATOM     44  C   PRO G   6      39.991  -0.492  24.046  1.00 77.34 LIG 0.24  C 
ATOM     45 O    PRO G   6      41.209  -0.450  24.071  1.00 92.50 LIG-0.27  OA
ATOM     46  N   ALA G   7      39.284  -1.443  24.675  1.00 74.20 LIG-0.35  N 
ATOM     47 H    ALA G   7      38.459  -1.350  24.897  1.00 74.20 LIG 0.16  HD
BRANCH 46 48
ATOM     48  CA  ALA G   7      39.864  -2.761  25.051  1.00 71.75 LIG 0.16  C 
ATOM     49  CB  ALA G   7      39.087  -3.373  26.217  1.00 70.01 LIG 0.04  C 
BRANCH 48 50
ATOM     50  C   ALA G   7      39.842  -3.715  23.835  1.00 69.94 LIG 0.22  C 
ATOM     51 O    ALA G   7      39.585  -3.275  22.686  1.00 56.97 LIG-0.29  OA
ENDBRANCH 48 50
ENDBRANCH 46 48
ENDBRANCH 40 44
ENDBRANCH 29 37
ENDBRANCH 3 29
TORSDOF 18
ENDMDL
MODEL 78
USER: ADFR SOLUTION from run 193
USER: SCORE 15.256674 LL:  -5.580 LR: -10.322 RR:   0.000 FEB:  -4.952
USER: RMSD 3.566315
USER: SEED 192
USER: STATUS no improvement in best in 18 clusters for 5 generations
USER: GENES 20
USER: genes 0 Translation |==|  0.44962 0.49139 0.58689
USER: genes 1 Rotation |==|  0.80341 0.13568 0.34127 0.50455
USER: genes 2 Torsion [N]-C--CA-[N] |==|  0.94531
USER: genes 3 Torsion [C]-CA--CB-[CG] |==|  0.27087
USER: genes 4 Torsion [CA]-CB--CG-[CD1] |==|  0.30610
USER: genes 5 Torsion [C]-CA--N-[C] |==|  0.81372
USER: genes 6 Torsion [N]-C--CA-[N] |==|  0.40269
USER: genes 7 Torsion [C]-CA--CB-[CG1] |==|  0.19662
USER: genes 8 Torsion [CA]-CB--CG1-[CD1] |==|  0.38649
USER: genes 9 Torsion [C]-CA--N-[C] |==|  0.59448
USER: genes 10 Torsion [N]-C--CA-[N] |==|  0.40287
USER: genes 11 Torsion [C]-CA--CB-[CG] |==|  0.60661
USER: genes 12 Torsion [CA]-CB--CG-[OD1] |==|  0.39543
USER: genes 13 Torsion [C]-N--CA-[CB] |==|  0.87209
USER: genes 14 Torsion [N]-CA--CB-[CG] |==|  0.40203
USER: genes 15 Torsion [CA]-CB--CG-[CD1] |==|  0.70879
USER: genes 16 Torsion [N]-CA--C-[N] |==|  0.31847
USER: genes 17 Torsion [N]-CA--C-[O] |==|  0.92506
USER: genes 18 Torsion [C]-N--CA-[C] |==|  0.79929
USER: genes 19 Torsion [N]-CA--C-[O] |==|  0.96105
ROOT
ATOM      1  C   LEU G   4      39.128   5.942  24.120  1.00 61.38 LIG 0.24  C 
ATOM      2 O    LEU G   4      39.711   5.751  25.193  1.00 52.06 LIG-0.27  OA
ATOM      3  N   PHE G   5      39.430   5.349  22.978  1.00 60.80 LIG-0.35  N 
ATOM      4 H    PHE G   5      38.989   5.478  22.251  1.00 60.80 LIG 0.16  HD
ENDROOT
BRANCH 1 5
ATOM      5  CA  LEU G   4      38.005   6.930  24.007  1.00 58.56 LIG 0.18  C 
BRANCH 5 6
ATOM      6  CB  LEU G   4      36.747   6.270  24.563  1.00 61.47 LIG 0.04  C 
BRANCH 6 7
ATOM      7  CG  LEU G   4      36.440   6.632  26.000  1.00 62.80 LIG-0.02  C 
ATOM      8  CD1 LEU G   4      35.202   7.503  25.984  1.00 63.22 LIG 0.01  C 
ATOM      9  CD2 LEU G   4      36.241   5.342  26.795  1.00 64.86 LIG 0.01  C 
ENDBRANCH 6 7
ENDBRANCH 5 6
BRANCH 5 10
ATOM     10  N   LEU G   4      37.858   7.314  22.616  1.00 59.02 LIG-0.35  N 
ATOM     11 H    LEU G   4      37.127   7.056  22.244  1.00 59.02 LIG 0.16  HD
ATOM     12  C   ILE G   3      38.812   8.016  22.003  1.00 70.10 LIG 0.24  C 
ATOM     13 O    ILE G   3      39.748   8.559  22.630  1.00 64.55 LIG-0.27  OA
BRANCH 12 14
ATOM     14  CA  ILE G   3      38.699   8.127  20.459  1.00 67.83 LIG 0.18  C 
BRANCH 14 15
ATOM     15  CB  ILE G   3      39.497   6.984  19.755  1.00 66.94 LIG 0.01  C 
ATOM     16  CG2 ILE G   3      40.936   6.941  20.270  1.00 67.41 LIG 0.01  C 
BRANCH 15 17
ATOM     17  CG1 ILE G   3      38.822   5.596  19.938  1.00 59.79 LIG 0.00  C 
ATOM     18  CD1 ILE G   3      38.842   4.741  18.698  1.00 60.74 LIG 0.01  C 
ENDBRANCH 15 17
ENDBRANCH 14 15
BRANCH 14 19
ATOM     19  N   ILE G   3      39.167   9.432  20.021  1.00 79.60 LIG-0.34  N 
ATOM     20 H    ILE G   3      39.813   9.743  20.496  1.00 79.60 LIG 0.16  HD
ATOM     21  C   ASP G   2      38.645  10.088  18.981  1.00 93.07 LIG 0.26  C 
ATOM     22 O    ASP G   2      37.785   9.608  18.241  1.00 81.24 LIG-0.27  OA
BRANCH 21 23
ATOM     23  CA  ASP G   2      39.149  11.515  18.730  1.00 93.30 LIG 0.41  C 
ATOM     24  N   ASP G   2      39.186  11.750  17.258  1.00 94.60 LIG 0.61  N 
BRANCH 23 25
ATOM     25  CB  ASP G   2      38.265  12.571  19.412  1.00 96.36 LIG 0.16  C 
BRANCH 25 26
ATOM     26  CG  ASP G   2      38.084  13.812  18.565  1.00103.24 LIG 0.17  C 
ATOM     27 OD1  ASP G   2      36.978  14.387  18.561  1.00112.85 LIG-0.65  OA
ATOM     28 OD2  ASP G   2      39.049  14.224  17.904  1.00105.87 LIG-0.65  OA
ENDBRANCH 25 26
ENDBRANCH 23 25
ENDBRANCH 21 23
ENDBRANCH 14 19
ENDBRANCH 12 14
ENDBRANCH 5 10
ENDBRANCH 1 5
BRANCH 3 29
ATOM     29  CA  PHE G   5      40.522   4.429  22.832  1.00 70.05 LIG 0.18  C 
BRANCH 29 30
ATOM     30  CB  PHE G   5      41.795   4.986  23.503  1.00 73.20 LIG 0.07  C 
BRANCH 30 31
ATOM     31  CG  PHE G   5      42.649   3.902  24.143  1.00 79.36 LIG-0.06  A 
ATOM     32  CD1 PHE G   5      42.662   3.744  25.551  1.00 85.64 LIG 0.01  A 
ATOM     33  CE1 PHE G   5      43.421   2.753  26.158  1.00 88.71 LIG 0.00  A 
ATOM     34  CZ  PHE G   5      44.180   1.891  25.361  1.00 96.11 LIG 0.00  A 
ATOM     35  CE2 PHE G   5      44.167   2.022  23.963  1.00 91.53 LIG 0.00  A 
ATOM     36  CD2 PHE G   5      43.406   3.018  23.359  1.00 81.01 LIG 0.01  A 
ENDBRANCH 30 31
ENDBRANCH 29 30
BRANCH 29 37
ATOM     37  C   PHE G   5      40.036   3.109  23.417  1.00 74.26 LIG 0.24  C 
ATOM     38  N   PRO G   6      39.905   2.072  22.559  1.00 79.01 LIG-0.34  N 
ATOM     39  CD  PRO G   6      40.057   2.179  21.083  1.00 76.17 LIG 0.13  C 
ATOM     40  CA  PRO G   6      39.282   0.801  22.960  1.00 78.34 LIG 0.18  C 
ATOM     41  CG  PRO G   6      39.884   0.777  20.613  1.00 78.03 LIG 0.02  C 
ATOM     42  CB  PRO G   6      38.926   0.168  21.604  1.00 82.73 LIG 0.04  C 
ATOM     43 O    PHE G   5      39.695   3.052  24.605  1.00 61.78 LIG-0.27  OA
BRANCH 40 44
ATOM     44  C   PRO G   6      40.165  -0.167  23.781  1.00 77.34 LIG 0.24  C 
ATOM     45 O    PRO G   6      41.375  -0.122  23.646  1.00 92.50 LIG-0.27  OA
ATOM     46  N   ALA G   7      39.558  -1.027  24.612  1.00 74.20 LIG-0.35  N 
ATOM     47 H    ALA G   7      38.766  -0.905  24.923  1.00 74.20 LIG 0.16  HD
BRANCH 46 48
ATOM     48  CA  ALA G   7      40.202  -2.284  25.082  1.00 71.75 LIG 0.16  C 
ATOM     49  CB  ALA G   7      39.434  -2.867  26.268  1.00 70.01 LIG 0.04  C 
BRANCH 48 50
ATOM     50  C   ALA G   7      40.264  -3.310  23.928  1.00 69.94 LIG 0.22  C 
ATOM     51 O    ALA G   7      39.584  -3.135  22.885  1.00 56.97 LIG-0.29  OA
ENDBRANCH 48 50
ENDBRANCH 46 48
ENDBRANCH 40 44
ENDBRANCH 29 37
ENDBRANCH 3 29
TORSDOF 18
ENDMDL
MODEL 79
USER: ADFR SOLUTION from run 137
USER: SCORE 15.043734 LL:  -5.167 LR: -10.320 RR:   0.000 FEB:  -4.951
USER: RMSD 5.475623
USER: SEED 136
USER: STATUS no improvement in best in 41 clusters for 5 generations
USER: GENES 20
USER: genes 0 Translation |==|  0.45802 0.50223 0.35794
USER: genes 1 Rotation |==|  0.64584 0.14611 0.33788 0.77787
USER: genes 2 Torsion [N]-C--CA-[N] |==|  0.30041
USER: genes 3 Torsion [C]-CA--CB-[CG] |==|  0.21286
USER: genes 4 Torsion [CA]-CB--CG-[CD1] |==|  0.36173
USER: genes 5 Torsion [C]-CA--N-[C] |==|  0.78319
USER: genes 6 Torsion [N]-C--CA-[N] |==|  0.07778
USER: genes 7 Torsion [C]-CA--CB-[CG1] |==|  0.85310
USER: genes 8 Torsion [CA]-CB--CG1-[CD1] |==|  0.47656
USER: genes 9 Torsion [C]-CA--N-[C] |==|  0.69735
USER: genes 10 Torsion [N]-C--CA-[N] |==|  0.95284
USER: genes 11 Torsion [C]-CA--CB-[CG] |==|  0.75255
USER: genes 12 Torsion [CA]-CB--CG-[OD1] |==|  0.80544
USER: genes 13 Torsion [C]-N--CA-[CB] |==|  0.85767
USER: genes 14 Torsion [N]-CA--CB-[CG] |==|  0.80952
USER: genes 15 Torsion [CA]-CB--CG-[CD1] |==|  0.98520
USER: genes 16 Torsion [N]-CA--C-[N] |==|  0.37464
USER: genes 17 Torsion [N]-CA--C-[O] |==|  0.44695
USER: genes 18 Torsion [C]-N--CA-[C] |==|  0.74794
USER: genes 19 Torsion [N]-CA--C-[O] |==|  0.95188
ROOT
ATOM      1  C   LEU G   4      39.266   6.243  20.342  1.00 61.38 LIG 0.24  C 
ATOM      2 O    LEU G   4      40.495   6.371  20.303  1.00 52.06 LIG-0.27  OA
ATOM      3  N   PHE G   5      38.615   5.116  20.113  1.00 60.80 LIG-0.35  N 
ATOM      4 H    PHE G   5      37.760   5.047  20.176  1.00 60.80 LIG 0.16  HD
ENDROOT
BRANCH 1 5
ATOM      5  CA  LEU G   4      38.369   7.411  20.627  1.00 58.56 LIG 0.18  C 
BRANCH 5 6
ATOM      6  CB  LEU G   4      38.803   8.561  19.723  1.00 61.47 LIG 0.04  C 
BRANCH 6 7
ATOM      7  CG  LEU G   4      38.356   8.421  18.284  1.00 62.80 LIG-0.02  C 
ATOM      8  CD1 LEU G   4      37.705   9.730  17.891  1.00 63.22 LIG 0.01  C 
ATOM      9  CD2 LEU G   4      39.577   8.091  17.426  1.00 64.86 LIG 0.01  C 
ENDBRANCH 6 7
ENDBRANCH 5 6
BRANCH 5 10
ATOM     10  N   LEU G   4      38.470   7.746  22.035  1.00 59.02 LIG-0.35  N 
ATOM     11 H    LEU G   4      38.963   8.429  22.210  1.00 59.02 LIG 0.16  HD
ATOM     12  C   ILE G   3      37.829   7.021  22.951  1.00 70.10 LIG 0.24  C 
ATOM     13 O    ILE G   3      36.953   6.181  22.645  1.00 64.55 LIG-0.27  OA
BRANCH 12 14
ATOM     14  CA  ILE G   3      38.226   7.274  24.430  1.00 67.83 LIG 0.18  C 
BRANCH 14 15
ATOM     15  CB  ILE G   3      37.028   6.988  25.389  1.00 66.94 LIG 0.01  C 
ATOM     16  CG2 ILE G   3      37.403   7.330  26.831  1.00 67.41 LIG 0.01  C 
BRANCH 15 17
ATOM     17  CG1 ILE G   3      35.745   7.759  24.972  1.00 59.79 LIG 0.00  C 
ATOM     18  CD1 ILE G   3      34.515   7.360  25.746  1.00 60.74 LIG 0.01  C 
ENDBRANCH 15 17
ENDBRANCH 14 15
BRANCH 14 19
ATOM     19  N   ILE G   3      38.702   8.640  24.587  1.00 79.60 LIG-0.34  N 
ATOM     20 H    ILE G   3      38.080   9.231  24.523  1.00 79.60 LIG 0.16  HD
ATOM     21  C   ASP G   2      39.982   8.950  24.809  1.00 93.07 LIG 0.26  C 
ATOM     22 O    ASP G   2      40.860   8.106  24.994  1.00 81.24 LIG-0.27  OA
BRANCH 21 23
ATOM     23  CA  ASP G   2      40.351  10.439  24.810  1.00 93.30 LIG 0.41  C 
ATOM     24  N   ASP G   2      39.250  11.199  24.152  1.00 94.60 LIG 0.61  N 
BRANCH 23 25
ATOM     25  CB  ASP G   2      40.591  10.977  26.229  1.00 96.36 LIG 0.16  C 
BRANCH 25 26
ATOM     26  CG  ASP G   2      39.325  11.495  26.876  1.00103.24 LIG 0.17  C 
ATOM     27 OD1  ASP G   2      38.810  12.546  26.445  1.00112.85 LIG-0.65  OA
ATOM     28 OD2  ASP G   2      38.834  10.850  27.815  1.00105.87 LIG-0.65  OA
ENDBRANCH 25 26
ENDBRANCH 23 25
ENDBRANCH 21 23
ENDBRANCH 14 19
ENDBRANCH 12 14
ENDBRANCH 5 10
ENDBRANCH 1 5
BRANCH 3 29
ATOM     29  CA  PHE G   5      39.264   3.892  19.739  1.00 70.05 LIG 0.18  C 
BRANCH 29 30
ATOM     30  CB  PHE G   5      40.211   4.122  18.543  1.00 73.20 LIG 0.07  C 
BRANCH 30 31
ATOM     31  CG  PHE G   5      39.469   4.440  17.254  1.00 79.36 LIG-0.06  A 
ATOM     32  CD1 PHE G   5      38.053   4.388  17.216  1.00 85.64 LIG 0.01  A 
ATOM     33  CE1 PHE G   5      37.352   4.688  16.056  1.00 88.71 LIG 0.00  A 
ATOM     34  CZ  PHE G   5      38.060   5.056  14.908  1.00 96.11 LIG 0.00  A 
ATOM     35  CE2 PHE G   5      39.462   5.129  14.931  1.00 91.53 LIG 0.00  A 
ATOM     36  CD2 PHE G   5      40.160   4.825  16.096  1.00 81.01 LIG 0.01  A 
ENDBRANCH 30 31
ENDBRANCH 29 30
BRANCH 29 37
ATOM     37  C   PHE G   5      39.961   3.388  20.997  1.00 74.26 LIG 0.24  C 
ATOM     38  N   PRO G   6      39.827   2.073  21.284  1.00 79.01 LIG-0.34  N 
ATOM     39  CD  PRO G   6      38.936   1.138  20.545  1.00 76.17 LIG 0.13  C 
ATOM     40  CA  PRO G   6      40.301   1.500  22.554  1.00 78.34 LIG 0.18  C 
ATOM     41  CG  PRO G   6      39.196  -0.176  21.196  1.00 78.03 LIG 0.02  C 
ATOM     42  CB  PRO G   6      39.523   0.174  22.624  1.00 82.73 LIG 0.04  C 
ATOM     43 O    PHE G   5      40.530   4.190  21.747  1.00 61.78 LIG-0.27  OA
BRANCH 40 44
ATOM     44  C   PRO G   6      41.819   1.230  22.662  1.00 77.34 LIG 0.24  C 
ATOM     45 O    PRO G   6      42.318   1.096  23.766  1.00 92.50 LIG-0.27  OA
ATOM     46  N   ALA G   7      42.532   1.154  21.529  1.00 74.20 LIG-0.35  N 
ATOM     47 H    ALA G   7      42.184   0.976  20.762  1.00 74.20 LIG 0.16  HD
BRANCH 46 48
ATOM     48  CA  ALA G   7      44.003   1.372  21.487  1.00 71.75 LIG 0.16  C 
ATOM     49  CB  ALA G   7      44.641   0.502  20.404  1.00 70.01 LIG 0.04  C 
BRANCH 48 50
ATOM     50  C   ALA G   7      44.310   2.864  21.223  1.00 69.94 LIG 0.22  C 
ATOM     51 O    ALA G   7      43.420   3.624  20.762  1.00 56.97 LIG-0.29  OA
ENDBRANCH 48 50
ENDBRANCH 46 48
ENDBRANCH 40 44
ENDBRANCH 29 37
ENDBRANCH 3 29
TORSDOF 18
ENDMDL
MODEL 80
USER: ADFR SOLUTION from run 75
USER: SCORE 14.580472 LL:  -5.096 LR: -10.317 RR:   0.000 FEB:  -4.947
USER: RMSD 4.849124
USER: SEED 74
USER: STATUS searching
USER: GENES 20
USER: genes 0 Translation |==|  0.45302 0.55543 0.48800
USER: genes 1 Rotation |==|  0.70906 0.21659 0.14573 0.52167
USER: genes 2 Torsion [N]-C--CA-[N] |==|  0.89037
USER: genes 3 Torsion [C]-CA--CB-[CG] |==|  0.47405
USER: genes 4 Torsion [CA]-CB--CG-[CD1] |==|  0.50918
USER: genes 5 Torsion [C]-CA--N-[C] |==|  0.81687
USER: genes 6 Torsion [N]-C--CA-[N] |==|  0.17884
USER: genes 7 Torsion [C]-CA--CB-[CG1] |==|  0.73221
USER: genes 8 Torsion [CA]-CB--CG1-[CD1] |==|  0.71756
USER: genes 9 Torsion [C]-CA--N-[C] |==|  0.55928
USER: genes 10 Torsion [N]-C--CA-[N] |==|  0.25512
USER: genes 11 Torsion [C]-CA--CB-[CG] |==|  0.48326
USER: genes 12 Torsion [CA]-CB--CG-[OD1] |==|  0.55453
USER: genes 13 Torsion [C]-N--CA-[CB] |==|  0.85554
USER: genes 14 Torsion [N]-CA--CB-[CG] |==|  0.35543
USER: genes 15 Torsion [CA]-CB--CG-[CD1] |==|  0.77060
USER: genes 16 Torsion [N]-CA--C-[N] |==|  0.40555
USER: genes 17 Torsion [N]-CA--C-[O] |==|  0.78458
USER: genes 18 Torsion [C]-N--CA-[C] |==|  0.56569
USER: genes 19 Torsion [N]-CA--C-[O] |==|  0.12874
ROOT
ATOM      1  C   LEU G   4      39.184   7.719  22.488  1.00 61.38 LIG 0.24  C 
ATOM      2 O    LEU G   4      40.192   7.029  22.674  1.00 52.06 LIG-0.27  OA
ATOM      3  N   PHE G   5      38.632   7.951  21.310  1.00 60.80 LIG-0.35  N 
ATOM      4 H    PHE G   5      37.912   8.412  21.211  1.00 60.80 LIG 0.16  HD
ENDROOT
BRANCH 1 5
ATOM      5  CA  LEU G   4      38.493   8.413  23.625  1.00 58.56 LIG 0.18  C 
BRANCH 5 6
ATOM      6  CB  LEU G   4      37.298   7.556  24.033  1.00 61.47 LIG 0.04  C 
BRANCH 6 7
ATOM      7  CG  LEU G   4      36.623   8.002  25.312  1.00 62.80 LIG-0.02  C 
ATOM      8  CD1 LEU G   4      35.525   7.003  25.607  1.00 63.22 LIG 0.01  C 
ATOM      9  CD2 LEU G   4      37.673   8.064  26.420  1.00 64.86 LIG 0.01  C 
ENDBRANCH 6 7
ENDBRANCH 5 6
BRANCH 5 10
ATOM     10  N   LEU G   4      38.099   9.740  23.193  1.00 59.02 LIG-0.35  N 
ATOM     11 H    LEU G   4      37.250   9.870  23.149  1.00 59.02 LIG 0.16  HD
ATOM     12  C   ILE G   3      39.020  10.657  22.897  1.00 70.10 LIG 0.24  C 
ATOM     13 O    ILE G   3      40.229  10.504  23.183  1.00 64.55 LIG-0.27  OA
BRANCH 12 14
ATOM     14  CA  ILE G   3      38.513  11.934  22.176  1.00 67.83 LIG 0.18  C 
BRANCH 14 15
ATOM     15  CB  ILE G   3      39.706  12.833  21.723  1.00 66.94 LIG 0.01  C 
ATOM     16  CG2 ILE G   3      39.434  13.426  20.340  1.00 67.41 LIG 0.01  C 
BRANCH 15 17
ATOM     17  CG1 ILE G   3      40.008  13.967  22.742  1.00 59.79 LIG 0.00  C 
ATOM     18  CD1 ILE G   3      39.476  15.314  22.330  1.00 60.74 LIG 0.01  C 
ENDBRANCH 15 17
ENDBRANCH 14 15
BRANCH 14 19
ATOM     19  N   ILE G   3      37.611  12.669  23.049  1.00 79.60 LIG-0.34  N 
ATOM     20 H    ILE G   3      37.711  12.483  23.882  1.00 79.60 LIG 0.16  HD
ATOM     21  C   ASP G   2      36.713  13.551  22.601  1.00 93.07 LIG 0.26  C 
ATOM     22 O    ASP G   2      36.629  13.890  21.420  1.00 81.24 LIG-0.27  OA
BRANCH 21 23
ATOM     23  CA  ASP G   2      35.738  14.140  23.629  1.00 93.30 LIG 0.41  C 
ATOM     24  N   ASP G   2      36.326  15.400  24.168  1.00 94.60 LIG 0.61  N 
BRANCH 23 25
ATOM     25  CB  ASP G   2      34.354  14.418  23.024  1.00 96.36 LIG 0.16  C 
BRANCH 25 26
ATOM     26  CG  ASP G   2      33.345  14.861  24.060  1.00103.24 LIG 0.17  C 
ATOM     27 OD1  ASP G   2      32.128  14.766  23.802  1.00112.85 LIG-0.65  OA
ATOM     28 OD2  ASP G   2      33.762  15.302  25.142  1.00105.87 LIG-0.65  OA
ENDBRANCH 25 26
ENDBRANCH 23 25
ENDBRANCH 21 23
ENDBRANCH 14 19
ENDBRANCH 12 14
ENDBRANCH 5 10
ENDBRANCH 1 5
BRANCH 3 29
ATOM     29  CA  PHE G   5      39.172   7.459  20.075  1.00 70.05 LIG 0.18  C 
BRANCH 29 30
ATOM     30  CB  PHE G   5      40.664   7.832  19.947  1.00 73.20 LIG 0.07  C 
BRANCH 30 31
ATOM     31  CG  PHE G   5      41.548   6.636  19.631  1.00 79.36 LIG-0.06  A 
ATOM     32  CD1 PHE G   5      41.987   5.781  20.672  1.00 85.64 LIG 0.01  A 
ATOM     33  CE1 PHE G   5      42.783   4.674  20.409  1.00 88.71 LIG 0.00  A 
ATOM     34  CZ  PHE G   5      43.148   4.397  19.088  1.00 96.11 LIG 0.00  A 
ATOM     35  CE2 PHE G   5      42.709   5.223  18.042  1.00 91.53 LIG 0.00  A 
ATOM     36  CD2 PHE G   5      41.914   6.333  18.312  1.00 81.01 LIG 0.01  A 
ENDBRANCH 30 31
ENDBRANCH 29 30
BRANCH 29 37
ATOM     37  C   PHE G   5      38.903   5.959  20.070  1.00 74.26 LIG 0.24  C 
ATOM     38  N   PRO G   6      38.644   5.388  18.872  1.00 79.01 LIG-0.34  N 
ATOM     39  CD  PRO G   6      38.460   6.144  17.604  1.00 76.17 LIG 0.13  C 
ATOM     40  CA  PRO G   6      38.198   3.991  18.753  1.00 78.34 LIG 0.18  C 
ATOM     41  CG  PRO G   6      38.267   5.074  16.587  1.00 78.03 LIG 0.02  C 
ATOM     42  CB  PRO G   6      37.588   3.962  17.341  1.00 82.73 LIG 0.04  C 
ATOM     43 O    PHE G   5      38.836   5.344  21.142  1.00 61.78 LIG-0.27  OA
BRANCH 40 44
ATOM     44  C   PRO G   6      39.293   2.908  18.879  1.00 77.34 LIG 0.24  C 
ATOM     45 O    PRO G   6      40.026   2.695  17.929  1.00 92.50 LIG-0.27  OA
ATOM     46  N   ALA G   7      39.392   2.238  20.037  1.00 74.20 LIG-0.35  N 
ATOM     47 H    ALA G   7      39.089   2.538  20.784  1.00 74.20 LIG 0.16  HD
BRANCH 46 48
ATOM     48  CA  ALA G   7      40.040   0.903  20.143  1.00 71.75 LIG 0.16  C 
ATOM     49  CB  ALA G   7      41.559   1.052  20.233  1.00 70.01 LIG 0.04  C 
BRANCH 48 50
ATOM     50  C   ALA G   7      39.503   0.150  21.380  1.00 69.94 LIG 0.22  C 
ATOM     51 O    ALA G   7      38.268   0.110  21.613  1.00 56.97 LIG-0.29  OA
ENDBRANCH 48 50
ENDBRANCH 46 48
ENDBRANCH 40 44
ENDBRANCH 29 37
ENDBRANCH 3 29
TORSDOF 18
ENDMDL
MODEL 81
USER: ADFR SOLUTION from run 110
USER: SCORE 13.541669 LL:  -5.441 LR: -10.323 RR:   0.000 FEB:  -4.953
USER: RMSD 5.898866
USER: SEED 109
USER: STATUS no improvement in best in 25 clusters for 5 generations
USER: GENES 20
USER: genes 0 Translation |==|  0.46608 0.49478 0.58145
USER: genes 1 Rotation |==|  0.37281 0.34528 0.55397 0.95494
USER: genes 2 Torsion [N]-C--CA-[N] |==|  0.43298
USER: genes 3 Torsion [C]-CA--CB-[CG] |==|  0.24263
USER: genes 4 Torsion [CA]-CB--CG-[CD1] |==|  0.19992
USER: genes 5 Torsion [C]-CA--N-[C] |==|  0.87128
USER: genes 6 Torsion [N]-C--CA-[N] |==|  0.75081
USER: genes 7 Torsion [C]-CA--CB-[CG1] |==|  0.55814
USER: genes 8 Torsion [CA]-CB--CG1-[CD1] |==|  0.76039
USER: genes 9 Torsion [C]-CA--N-[C] |==|  0.16438
USER: genes 10 Torsion [N]-C--CA-[N] |==|  0.58061
USER: genes 11 Torsion [C]-CA--CB-[CG] |==|  0.80315
USER: genes 12 Torsion [CA]-CB--CG-[OD1] |==|  0.34762
USER: genes 13 Torsion [C]-N--CA-[CB] |==|  0.53935
USER: genes 14 Torsion [N]-CA--CB-[CG] |==|  0.22344
USER: genes 15 Torsion [CA]-CB--CG-[CD1] |==|  0.81174
USER: genes 16 Torsion [N]-CA--C-[N] |==|  0.29445
USER: genes 17 Torsion [N]-CA--C-[O] |==|  0.63779
USER: genes 18 Torsion [C]-N--CA-[C] |==|  0.83872
USER: genes 19 Torsion [N]-CA--C-[O] |==|  0.97727
ROOT
ATOM      1  C   LEU G   4      39.399   6.036  24.030  1.00 61.38 LIG 0.24  C 
ATOM      2 O    LEU G   4      39.825   5.422  23.046  1.00 52.06 LIG-0.27  OA
ATOM      3  N   PHE G   5      39.794   5.838  25.275  1.00 60.80 LIG-0.35  N 
ATOM      4 H    PHE G   5      39.503   6.300  25.939  1.00 60.80 LIG 0.16  HD
ENDROOT
BRANCH 1 5
ATOM      5  CA  LEU G   4      38.327   7.076  23.896  1.00 58.56 LIG 0.18  C 
BRANCH 5 6
ATOM      6  CB  LEU G   4      36.991   6.409  24.211  1.00 61.47 LIG 0.04  C 
BRANCH 6 7
ATOM      7  CG  LEU G   4      36.629   6.408  25.680  1.00 62.80 LIG-0.02  C 
ATOM      8  CD1 LEU G   4      36.264   7.830  26.049  1.00 63.22 LIG 0.01  C 
ATOM      9  CD2 LEU G   4      35.475   5.431  25.897  1.00 64.86 LIG 0.01  C 
ENDBRANCH 6 7
ENDBRANCH 5 6
BRANCH 5 10
ATOM     10  N   LEU G   4      38.368   7.621  22.553  1.00 59.02 LIG-0.35  N 
ATOM     11 H    LEU G   4      37.604   7.687  22.164  1.00 59.02 LIG 0.16  HD
ATOM     12  C   ILE G   3      39.529   7.980  22.004  1.00 70.10 LIG 0.24  C 
ATOM     13 O    ILE G   3      40.582   8.078  22.673  1.00 64.55 LIG-0.27  OA
BRANCH 12 14
ATOM     14  CA  ILE G   3      39.507   8.275  20.480  1.00 67.83 LIG 0.18  C 
BRANCH 14 15
ATOM     15  CB  ILE G   3      38.141   8.899  20.050  1.00 66.94 LIG 0.01  C 
ATOM     16  CG2 ILE G   3      38.084  10.377  20.435  1.00 67.41 LIG 0.01  C 
BRANCH 15 17
ATOM     17  CG1 ILE G   3      37.871   8.730  18.529  1.00 59.79 LIG 0.00  C 
ATOM     18  CD1 ILE G   3      38.468   9.821  17.679  1.00 60.74 LIG 0.01  C 
ENDBRANCH 15 17
ENDBRANCH 14 15
BRANCH 14 19
ATOM     19  N   ILE G   3      39.777   7.054  19.736  1.00 79.60 LIG-0.34  N 
ATOM     20 H    ILE G   3      40.470   7.105  19.231  1.00 79.60 LIG 0.16  HD
ATOM     21  C   ASP G   2      39.021   5.956  19.829  1.00 93.07 LIG 0.26  C 
ATOM     22 O    ASP G   2      38.083   5.846  20.621  1.00 81.24 LIG-0.27  OA
BRANCH 21 23
ATOM     23  CA  ASP G   2      39.348   4.798  18.878  1.00 93.30 LIG 0.41  C 
ATOM     24  N   ASP G   2      38.094   4.038  18.610  1.00 94.60 LIG 0.61  N 
BRANCH 23 25
ATOM     25  CB  ASP G   2      39.962   5.288  17.558  1.00 96.36 LIG 0.16  C 
BRANCH 25 26
ATOM     26  CG  ASP G   2      38.957   5.998  16.677  1.00103.24 LIG 0.17  C 
ATOM     27 OD1  ASP G   2      39.209   7.152  16.278  1.00112.85 LIG-0.65  OA
ATOM     28 OD2  ASP G   2      37.911   5.403  16.374  1.00105.87 LIG-0.65  OA
ENDBRANCH 25 26
ENDBRANCH 23 25
ENDBRANCH 21 23
ENDBRANCH 14 19
ENDBRANCH 12 14
ENDBRANCH 5 10
ENDBRANCH 1 5
BRANCH 3 29
ATOM     29  CA  PHE G   5      40.750   4.834  25.649  1.00 70.05 LIG 0.18  C 
BRANCH 29 30
ATOM     30  CB  PHE G   5      40.738   4.614  27.176  1.00 73.20 LIG 0.07  C 
BRANCH 30 31
ATOM     31  CG  PHE G   5      39.600   3.715  27.635  1.00 79.36 LIG-0.06  A 
ATOM     32  CD1 PHE G   5      38.258   4.160  27.537  1.00 85.64 LIG 0.01  A 
ATOM     33  CE1 PHE G   5      37.200   3.353  27.936  1.00 88.71 LIG 0.00  A 
ATOM     34  CZ  PHE G   5      37.469   2.075  28.435  1.00 96.11 LIG 0.00  A 
ATOM     35  CE2 PHE G   5      38.791   1.611  28.524  1.00 91.53 LIG 0.00  A 
ATOM     36  CD2 PHE G   5      39.848   2.425  28.126  1.00 81.01 LIG 0.01  A 
ENDBRANCH 30 31
ENDBRANCH 29 30
BRANCH 29 37
ATOM     37  C   PHE G   5      40.391   3.594  24.838  1.00 74.26 LIG 0.24  C 
ATOM     38  N   PRO G   6      41.204   3.286  23.803  1.00 79.01 LIG-0.34  N 
ATOM     39  CD  PRO G   6      42.318   4.148  23.323  1.00 76.17 LIG 0.13  C 
ATOM     40  CA  PRO G   6      40.873   2.223  22.841  1.00 78.34 LIG 0.18  C 
ATOM     41  CG  PRO G   6      42.931   3.346  22.229  1.00 78.03 LIG 0.02  C 
ATOM     42  CB  PRO G   6      41.779   2.569  21.647  1.00 82.73 LIG 0.04  C 
ATOM     43 O    PHE G   5      39.345   2.982  25.084  1.00 61.78 LIG-0.27  OA
BRANCH 40 44
ATOM     44  C   PRO G   6      41.135   0.772  23.303  1.00 77.34 LIG 0.24  C 
ATOM     45 O    PRO G   6      41.756   0.021  22.570  1.00 92.50 LIG-0.27  OA
ATOM     46  N   ALA G   7      40.664   0.392  24.500  1.00 74.20 LIG-0.35  N 
ATOM     47 H    ALA G   7      40.473   0.945  25.130  1.00 74.20 LIG 0.16  HD
BRANCH 46 48
ATOM     48  CA  ALA G   7      40.425  -1.033  24.856  1.00 71.75 LIG 0.16  C 
ATOM     49  CB  ALA G   7      39.889  -1.143  26.284  1.00 70.01 LIG 0.04  C 
BRANCH 48 50
ATOM     50  C   ALA G   7      39.429  -1.668  23.860  1.00 69.94 LIG 0.22  C 
ATOM     51 O    ALA G   7      38.833  -0.953  23.015  1.00 56.97 LIG-0.29  OA
ENDBRANCH 48 50
ENDBRANCH 46 48
ENDBRANCH 40 44
ENDBRANCH 29 37
ENDBRANCH 3 29
TORSDOF 18
ENDMDL
MODEL 82
USER: ADFR SOLUTION from run 192
USER: SCORE 15.250311 LL:  -5.842 LR: -10.314 RR:   0.000 FEB:  -4.945
USER: RMSD 4.441175
USER: SEED 191
USER: STATUS no improvement in best in 23 clusters for 5 generations
USER: GENES 20
USER: genes 0 Translation |==|  0.49009 0.54278 0.60456
USER: genes 1 Rotation |==|  0.44685 0.36452 0.50262 0.97834
USER: genes 2 Torsion [N]-C--CA-[N] |==|  0.52178
USER: genes 3 Torsion [C]-CA--CB-[CG] |==|  0.72565
USER: genes 4 Torsion [CA]-CB--CG-[CD1] |==|  0.18605
USER: genes 5 Torsion [C]-CA--N-[C] |==|  0.76670
USER: genes 6 Torsion [N]-C--CA-[N] |==|  0.41522
USER: genes 7 Torsion [C]-CA--CB-[CG1] |==|  0.26269
USER: genes 8 Torsion [CA]-CB--CG1-[CD1] |==|  0.66748
USER: genes 9 Torsion [C]-CA--N-[C] |==|  0.81746
USER: genes 10 Torsion [N]-C--CA-[N] |==|  0.98798
USER: genes 11 Torsion [C]-CA--CB-[CG] |==|  0.79722
USER: genes 12 Torsion [CA]-CB--CG-[OD1] |==|  0.50022
USER: genes 13 Torsion [C]-N--CA-[CB] |==|  0.52778
USER: genes 14 Torsion [N]-CA--CB-[CG] |==|  0.25291
USER: genes 15 Torsion [CA]-CB--CG-[CD1] |==|  0.26325
USER: genes 16 Torsion [N]-CA--C-[N] |==|  0.35302
USER: genes 17 Torsion [N]-CA--C-[O] |==|  0.64482
USER: genes 18 Torsion [C]-N--CA-[C] |==|  0.20418
USER: genes 19 Torsion [N]-CA--C-[O] |==|  0.60008
ROOT
ATOM      1  C   LEU G   4      39.795   7.368  24.411  1.00 61.38 LIG 0.24  C 
ATOM      2 O    LEU G   4      40.078   7.091  23.240  1.00 52.06 LIG-0.27  OA
ATOM      3  N   PHE G   5      40.228   6.708  25.471  1.00 60.80 LIG-0.35  N 
ATOM      4 H    PHE G   5      40.040   6.940  26.277  1.00 60.80 LIG 0.16  HD
ENDROOT
BRANCH 1 5
ATOM      5  CA  LEU G   4      38.869   8.500  24.743  1.00 58.56 LIG 0.18  C 
BRANCH 5 6
ATOM      6  CB  LEU G   4      37.792   7.959  25.679  1.00 61.47 LIG 0.04  C 
BRANCH 6 7
ATOM      7  CG  LEU G   4      36.490   7.611  24.990  1.00 62.80 LIG-0.02  C 
ATOM      8  CD1 LEU G   4      36.768   6.431  24.083  1.00 63.22 LIG 0.01  C 
ATOM      9  CD2 LEU G   4      35.444   7.296  26.058  1.00 64.86 LIG 0.01  C 
ENDBRANCH 6 7
ENDBRANCH 5 6
BRANCH 5 10
ATOM     10  N   LEU G   4      38.316   9.029  23.511  1.00 59.02 LIG-0.35  N 
ATOM     11 H    LEU G   4      37.543   8.717  23.298  1.00 59.02 LIG 0.16  HD
ATOM     12  C   ILE G   3      38.992   9.930  22.797  1.00 70.10 LIG 0.24  C 
ATOM     13 O    ILE G   3      39.999  10.519  23.248  1.00 64.55 LIG-0.27  OA
BRANCH 12 14
ATOM     14  CA  ILE G   3      38.459  10.214  21.368  1.00 67.83 LIG 0.18  C 
BRANCH 14 15
ATOM     15  CB  ILE G   3      39.071   9.217  20.333  1.00 66.94 LIG 0.01  C 
ATOM     16  CG2 ILE G   3      40.456   8.757  20.789  1.00 67.41 LIG 0.01  C 
BRANCH 15 17
ATOM     17  CG1 ILE G   3      38.153   7.988  20.086  1.00 59.79 LIG 0.00  C 
ATOM     18  CD1 ILE G   3      38.792   6.669  20.434  1.00 60.74 LIG 0.01  C 
ENDBRANCH 15 17
ENDBRANCH 14 15
BRANCH 14 19
ATOM     19  N   ILE G   3      38.749  11.590  20.996  1.00 79.60 LIG-0.34  N 
ATOM     20 H    ILE G   3      39.305  11.661  20.345  1.00 79.60 LIG 0.16  HD
ATOM     21  C   ASP G   2      38.203  12.645  21.608  1.00 93.07 LIG 0.26  C 
ATOM     22 O    ASP G   2      37.336  12.549  22.477  1.00 81.24 LIG-0.27  OA
BRANCH 21 23
ATOM     23  CA  ASP G   2      38.715  14.033  21.198  1.00 93.30 LIG 0.41  C 
ATOM     24  N   ASP G   2      39.835  13.855  20.231  1.00 94.60 LIG 0.61  N 
BRANCH 23 25
ATOM     25  CB  ASP G   2      37.610  14.899  20.576  1.00 96.36 LIG 0.16  C 
BRANCH 25 26
ATOM     26  CG  ASP G   2      37.236  14.450  19.180  1.00103.24 LIG 0.17  C 
ATOM     27 OD1  ASP G   2      36.350  15.071  18.560  1.00112.85 LIG-0.65  OA
ATOM     28 OD2  ASP G   2      37.831  13.476  18.692  1.00105.87 LIG-0.65  OA
ENDBRANCH 25 26
ENDBRANCH 23 25
ENDBRANCH 21 23
ENDBRANCH 14 19
ENDBRANCH 12 14
ENDBRANCH 5 10
ENDBRANCH 1 5
BRANCH 3 29
ATOM     29  CA  PHE G   5      41.057   5.539  25.388  1.00 70.05 LIG 0.18  C 
BRANCH 29 30
ATOM     30  CB  PHE G   5      41.184   4.863  26.769  1.00 73.20 LIG 0.07  C 
BRANCH 30 31
ATOM     31  CG  PHE G   5      40.118   3.805  27.010  1.00 79.36 LIG-0.06  A 
ATOM     32  CD1 PHE G   5      40.392   2.443  26.732  1.00 85.64 LIG 0.01  A 
ATOM     33  CE1 PHE G   5      39.442   1.456  26.956  1.00 88.71 LIG 0.00  A 
ATOM     34  CZ  PHE G   5      38.195   1.817  27.475  1.00 96.11 LIG 0.00  A 
ATOM     35  CE2 PHE G   5      37.911   3.160  27.772  1.00 91.53 LIG 0.00  A 
ATOM     36  CD2 PHE G   5      38.867   4.145  27.542  1.00 81.01 LIG 0.01  A 
ENDBRANCH 30 31
ENDBRANCH 29 30
BRANCH 29 37
ATOM     37  C   PHE G   5      40.426   4.656  24.318  1.00 74.26 LIG 0.24  C 
ATOM     38  N   PRO G   6      41.234   4.236  23.319  1.00 79.01 LIG-0.34  N 
ATOM     39  CD  PRO G   6      42.636   4.695  23.122  1.00 76.17 LIG 0.13  C 
ATOM     40  CA  PRO G   6      40.713   3.528  22.139  1.00 78.34 LIG 0.18  C 
ATOM     41  CG  PRO G   6      43.099   3.904  21.949  1.00 78.03 LIG 0.02  C 
ATOM     42  CB  PRO G   6      41.856   3.699  21.123  1.00 82.73 LIG 0.04  C 
ATOM     43 O    PHE G   5      39.209   4.437  24.343  1.00 61.78 LIG-0.27  OA
BRANCH 40 44
ATOM     44  C   PRO G   6      40.388   2.029  22.324  1.00 77.34 LIG 0.24  C 
ATOM     45 O    PRO G   6      40.859   1.221  21.542  1.00 92.50 LIG-0.27  OA
ATOM     46  N   ALA G   7      39.594   1.673  23.345  1.00 74.20 LIG-0.35  N 
ATOM     47 H    ALA G   7      39.476   2.160  24.044  1.00 74.20 LIG 0.16  HD
BRANCH 46 48
ATOM     48  CA  ALA G   7      38.836   0.393  23.368  1.00 71.75 LIG 0.16  C 
ATOM     49  CB  ALA G   7      38.092   0.189  22.048  1.00 70.01 LIG 0.04  C 
BRANCH 48 50
ATOM     50  C   ALA G   7      39.798  -0.788  23.627  1.00 69.94 LIG 0.22  C 
ATOM     51 O    ALA G   7      39.609  -1.897  23.065  1.00 56.97 LIG-0.29  OA
ENDBRANCH 48 50
ENDBRANCH 46 48
ENDBRANCH 40 44
ENDBRANCH 29 37
ENDBRANCH 3 29
TORSDOF 18
ENDMDL
MODEL 83
USER: ADFR SOLUTION from run 34
USER: SCORE 15.130819 LL:  -6.181 LR: -10.299 RR:   0.000 FEB:  -4.930
USER: RMSD 9.488920
USER: SEED 33
USER: STATUS no improvement in best in 7 clusters for 5 generations
USER: GENES 20
USER: genes 0 Translation |==|  0.43979 0.49761 0.65943
USER: genes 1 Rotation |==|  0.87564 0.39763 0.22150 0.64440
USER: genes 2 Torsion [N]-C--CA-[N] |==|  0.38091
USER: genes 3 Torsion [C]-CA--CB-[CG] |==|  0.29715
USER: genes 4 Torsion [CA]-CB--CG-[CD1] |==|  0.75102
USER: genes 5 Torsion [C]-CA--N-[C] |==|  0.77636
USER: genes 6 Torsion [N]-C--CA-[N] |==|  0.49350
USER: genes 7 Torsion [C]-CA--CB-[CG1] |==|  0.24798
USER: genes 8 Torsion [CA]-CB--CG1-[CD1] |==|  0.11671
USER: genes 9 Torsion [C]-CA--N-[C] |==|  0.80224
USER: genes 10 Torsion [N]-C--CA-[N] |==|  0.47457
USER: genes 11 Torsion [C]-CA--CB-[CG] |==|  0.58432
USER: genes 12 Torsion [CA]-CB--CG-[OD1] |==|  0.39891
USER: genes 13 Torsion [C]-N--CA-[CB] |==|  0.20000
USER: genes 14 Torsion [N]-CA--CB-[CG] |==|  0.14397
USER: genes 15 Torsion [CA]-CB--CG-[CD1] |==|  0.24177
USER: genes 16 Torsion [N]-CA--C-[N] |==|  0.40684
USER: genes 17 Torsion [N]-CA--C-[O] |==|  0.63118
USER: genes 18 Torsion [C]-N--CA-[C] |==|  0.53379
USER: genes 19 Torsion [N]-CA--C-[O] |==|  0.75569
ROOT
ATOM      1  C   LEU G   4      38.966   6.115  25.317  1.00 61.38 LIG 0.24  C 
ATOM      2 O    LEU G   4      39.974   6.610  25.831  1.00 52.06 LIG-0.27  OA
ATOM      3  N   PHE G   5      38.712   6.089  24.020  1.00 60.80 LIG-0.35  N 
ATOM      4 H    PHE G   5      38.016   5.712  23.685  1.00 60.80 LIG 0.16  HD
ENDROOT
BRANCH 1 5
ATOM      5  CA  LEU G   4      37.879   5.508  26.155  1.00 58.56 LIG 0.18  C 
BRANCH 5 6
ATOM      6  CB  LEU G   4      37.052   6.650  26.738  1.00 61.47 LIG 0.04  C 
BRANCH 6 7
ATOM      7  CG  LEU G   4      35.686   6.811  26.109  1.00 62.80 LIG-0.02  C 
ATOM      8  CD1 LEU G   4      35.844   7.757  24.937  1.00 63.22 LIG 0.01  C 
ATOM      9  CD2 LEU G   4      35.180   5.432  25.685  1.00 64.86 LIG 0.01  C 
ENDBRANCH 6 7
ENDBRANCH 5 6
BRANCH 5 10
ATOM     10  N   LEU G   4      38.486   4.685  27.183  1.00 59.02 LIG-0.35  N 
ATOM     11 H    LEU G   4      38.546   5.056  27.956  1.00 59.02 LIG 0.16  HD
ATOM     12  C   ILE G   3      38.904   3.450  26.902  1.00 70.10 LIG 0.24  C 
ATOM     13 O    ILE G   3      38.601   2.870  25.836  1.00 64.55 LIG-0.27  OA
BRANCH 12 14
ATOM     14  CA  ILE G   3      39.791   2.764  27.975  1.00 67.83 LIG 0.18  C 
BRANCH 14 15
ATOM     15  CB  ILE G   3      41.086   3.594  28.245  1.00 66.94 LIG 0.01  C 
ATOM     16  CG2 ILE G   3      41.564   4.273  26.962  1.00 67.41 LIG 0.01  C 
BRANCH 15 17
ATOM     17  CG1 ILE G   3      40.884   4.649  29.368  1.00 59.79 LIG 0.00  C 
ATOM     18  CD1 ILE G   3      40.099   4.141  30.548  1.00 60.74 LIG 0.01  C 
ENDBRANCH 15 17
ENDBRANCH 14 15
BRANCH 14 19
ATOM     19  N   ILE G   3      40.120   1.411  27.553  1.00 79.60 LIG-0.34  N 
ATOM     20 H    ILE G   3      40.943   1.312  27.324  1.00 79.60 LIG 0.16  HD
ATOM     21  C   ASP G   2      39.230   0.415  27.522  1.00 93.07 LIG 0.26  C 
ATOM     22 O    ASP G   2      38.075   0.528  27.936  1.00 81.24 LIG-0.27  OA
BRANCH 21 23
ATOM     23  CA  ASP G   2      39.692  -0.918  26.919  1.00 93.30 LIG 0.41  C 
ATOM     24  N   ASP G   2      38.642  -1.943  27.182  1.00 94.60 LIG 0.61  N 
BRANCH 23 25
ATOM     25  CB  ASP G   2      39.961  -0.810  25.411  1.00 96.36 LIG 0.16  C 
BRANCH 25 26
ATOM     26  CG  ASP G   2      39.698  -2.108  24.679  1.00103.24 LIG 0.17  C 
ATOM     27 OD1  ASP G   2      39.209  -2.070  23.533  1.00112.85 LIG-0.65  OA
ATOM     28 OD2  ASP G   2      39.984  -3.175  25.245  1.00105.87 LIG-0.65  OA
ENDBRANCH 25 26
ENDBRANCH 23 25
ENDBRANCH 21 23
ENDBRANCH 14 19
ENDBRANCH 12 14
ENDBRANCH 5 10
ENDBRANCH 1 5
BRANCH 3 29
ATOM     29  CA  PHE G   5      39.571   6.686  23.037  1.00 70.05 LIG 0.18  C 
BRANCH 29 30
ATOM     30  CB  PHE G   5      40.866   5.864  22.875  1.00 73.20 LIG 0.07  C 
BRANCH 30 31
ATOM     31  CG  PHE G   5      40.602   4.387  22.626  1.00 79.36 LIG-0.06  A 
ATOM     32  CD1 PHE G   5      40.397   3.913  21.306  1.00 85.64 LIG 0.01  A 
ATOM     33  CE1 PHE G   5      40.168   2.567  21.051  1.00 88.71 LIG 0.00  A 
ATOM     34  CZ  PHE G   5      40.149   1.665  22.119  1.00 96.11 LIG 0.00  A 
ATOM     35  CE2 PHE G   5      40.368   2.114  23.432  1.00 91.53 LIG 0.00  A 
ATOM     36  CD2 PHE G   5      40.594   3.464  23.682  1.00 81.01 LIG 0.01  A 
ENDBRANCH 30 31
ENDBRANCH 29 30
BRANCH 29 37
ATOM     37  C   PHE G   5      38.737   6.792  21.765  1.00 74.26 LIG 0.24  C 
ATOM     38  N   PRO G   6      38.978   7.855  20.964  1.00 79.01 LIG-0.34  N 
ATOM     39  CD  PRO G   6      39.882   8.984  21.315  1.00 76.17 LIG 0.13  C 
ATOM     40  CA  PRO G   6      38.128   8.166  19.804  1.00 78.34 LIG 0.18  C 
ATOM     41  CG  PRO G   6      39.853   9.842  20.099  1.00 78.03 LIG 0.02  C 
ATOM     42  CB  PRO G   6      38.471   9.641  19.534  1.00 82.73 LIG 0.04  C 
ATOM     43 O    PHE G   5      37.827   5.980  21.558  1.00 61.78 LIG-0.27  OA
BRANCH 40 44
ATOM     44  C   PRO G   6      38.368   7.324  18.531  1.00 77.34 LIG 0.24  C 
ATOM     45 O    PRO G   6      38.465   7.892  17.456  1.00 92.50 LIG-0.27  OA
ATOM     46  N   ALA G   7      38.459   5.992  18.659  1.00 74.20 LIG-0.35  N 
ATOM     47 H    ALA G   7      38.662   5.601  19.397  1.00 74.20 LIG 0.16  HD
BRANCH 46 48
ATOM     48  CA  ALA G   7      38.216   5.056  17.529  1.00 71.75 LIG 0.16  C 
ATOM     49  CB  ALA G   7      39.344   5.153  16.502  1.00 70.01 LIG 0.04  C 
BRANCH 48 50
ATOM     50  C   ALA G   7      38.097   3.608  18.057  1.00 69.94 LIG 0.22  C 
ATOM     51 O    ALA G   7      39.123   2.894  18.189  1.00 56.97 LIG-0.29  OA
ENDBRANCH 48 50
ENDBRANCH 46 48
ENDBRANCH 40 44
ENDBRANCH 29 37
ENDBRANCH 3 29
TORSDOF 18
ENDMDL
MODEL 84
USER: ADFR SOLUTION from run 195
USER: SCORE 14.825636 LL:  -5.229 LR: -10.299 RR:   0.000 FEB:  -4.930
USER: RMSD 9.273563
USER: SEED 194
USER: STATUS no improvement in best in 30 clusters for 5 generations
USER: GENES 20
USER: genes 0 Translation |==|  0.48091 0.34481 0.65751
USER: genes 1 Rotation |==|  0.33450 0.17668 0.83237 0.58721
USER: genes 2 Torsion [N]-C--CA-[N] |==|  0.33401
USER: genes 3 Torsion [C]-CA--CB-[CG] |==|  0.26457
USER: genes 4 Torsion [CA]-CB--CG-[CD1] |==|  0.26353
USER: genes 5 Torsion [C]-CA--N-[C] |==|  0.62615
USER: genes 6 Torsion [N]-C--CA-[N] |==|  0.94753
USER: genes 7 Torsion [C]-CA--CB-[CG1] |==|  0.90498
USER: genes 8 Torsion [CA]-CB--CG1-[CD1] |==|  0.79572
USER: genes 9 Torsion [C]-CA--N-[C] |==|  0.65055
USER: genes 10 Torsion [N]-C--CA-[N] |==|  0.41448
USER: genes 11 Torsion [C]-CA--CB-[CG] |==|  0.73429
USER: genes 12 Torsion [CA]-CB--CG-[OD1] |==|  0.30154
USER: genes 13 Torsion [C]-N--CA-[CB] |==|  0.84444
USER: genes 14 Torsion [N]-CA--CB-[CG] |==|  0.78175
USER: genes 15 Torsion [CA]-CB--CG-[CD1] |==|  0.33782
USER: genes 16 Torsion [N]-CA--C-[N] |==|  0.34010
USER: genes 17 Torsion [N]-CA--C-[O] |==|  0.28528
USER: genes 18 Torsion [C]-N--CA-[C] |==|  0.20082
USER: genes 19 Torsion [N]-CA--C-[O] |==|  0.29725
ROOT
ATOM      1  C   LEU G   4      39.644   1.874  25.285  1.00 61.38 LIG 0.24  C 
ATOM      2 O    LEU G   4      40.699   2.498  25.448  1.00 52.06 LIG-0.27  OA
ATOM      3  N   PHE G   5      38.502   2.148  25.891  1.00 60.80 LIG-0.35  N 
ATOM      4 H    PHE G   5      37.774   1.716  25.738  1.00 60.80 LIG 0.16  HD
ENDROOT
BRANCH 1 5
ATOM      5  CA  LEU G   4      39.574   0.682  24.377  1.00 58.56 LIG 0.18  C 
BRANCH 5 6
ATOM      6  CB  LEU G   4      40.540  -0.369  24.917  1.00 61.47 LIG 0.04  C 
BRANCH 6 7
ATOM      7  CG  LEU G   4      39.894  -1.402  25.814  1.00 62.80 LIG-0.02  C 
ATOM      8  CD1 LEU G   4      39.550  -2.593  24.945  1.00 63.22 LIG 0.01  C 
ATOM      9  CD2 LEU G   4      40.874  -1.756  26.933  1.00 64.86 LIG 0.01  C 
ENDBRANCH 6 7
ENDBRANCH 5 6
BRANCH 5 10
ATOM     10  N   LEU G   4      39.910   1.099  23.030  1.00 59.02 LIG-0.35  N 
ATOM     11 H    LEU G   4      40.599   1.610  22.969  1.00 59.02 LIG 0.16  HD
ATOM     12  C   ILE G   3      39.174   0.696  21.994  1.00 70.10 LIG 0.24  C 
ATOM     13 O    ILE G   3      38.322  -0.215  22.094  1.00 64.55 LIG-0.27  OA
BRANCH 12 14
ATOM     14  CA  ILE G   3      39.431   1.419  20.644  1.00 67.83 LIG 0.18  C 
BRANCH 14 15
ATOM     15  CB  ILE G   3      40.261   0.518  19.676  1.00 66.94 LIG 0.01  C 
ATOM     16  CG2 ILE G   3      40.973   1.373  18.627  1.00 67.41 LIG 0.01  C 
BRANCH 15 17
ATOM     17  CG1 ILE G   3      41.289  -0.368  20.433  1.00 59.79 LIG 0.00  C 
ATOM     18  CD1 ILE G   3      42.480   0.392  20.956  1.00 60.74 LIG 0.01  C 
ENDBRANCH 15 17
ENDBRANCH 14 15
BRANCH 14 19
ATOM     19  N   ILE G   3      40.108   2.684  20.883  1.00 79.60 LIG-0.34  N 
ATOM     20 H    ILE G   3      40.830   2.608  21.343  1.00 79.60 LIG 0.16  HD
ATOM     21  C   ASP G   2      39.653   3.856  20.430  1.00 93.07 LIG 0.26  C 
ATOM     22 O    ASP G   2      38.672   3.961  19.692  1.00 81.24 LIG-0.27  OA
BRANCH 21 23
ATOM     23  CA  ASP G   2      40.398   5.118  20.883  1.00 93.30 LIG 0.41  C 
ATOM     24  N   ASP G   2      40.297   6.139  19.802  1.00 94.60 LIG 0.61  N 
BRANCH 23 25
ATOM     25  CB  ASP G   2      39.839   5.682  22.198  1.00 96.36 LIG 0.16  C 
BRANCH 25 26
ATOM     26  CG  ASP G   2      38.826   6.784  21.974  1.00103.24 LIG 0.17  C 
ATOM     27 OD1  ASP G   2      37.622   6.556  22.206  1.00112.85 LIG-0.65  OA
ATOM     28 OD2  ASP G   2      39.229   7.885  21.570  1.00105.87 LIG-0.65  OA
ENDBRANCH 25 26
ENDBRANCH 23 25
ENDBRANCH 21 23
ENDBRANCH 14 19
ENDBRANCH 12 14
ENDBRANCH 5 10
ENDBRANCH 1 5
BRANCH 3 29
ATOM     29  CA  PHE G   5      38.356   3.192  26.865  1.00 70.05 LIG 0.18  C 
BRANCH 29 30
ATOM     30  CB  PHE G   5      39.358   3.000  28.022  1.00 73.20 LIG 0.07  C 
BRANCH 30 31
ATOM     31  CG  PHE G   5      38.916   1.939  29.018  1.00 79.36 LIG-0.06  A 
ATOM     32  CD1 PHE G   5      39.742   0.816  29.275  1.00 85.64 LIG 0.01  A 
ATOM     33  CE1 PHE G   5      39.368  -0.159  30.190  1.00 88.71 LIG 0.00  A 
ATOM     34  CZ  PHE G   5      38.156  -0.022  30.874  1.00 96.11 LIG 0.00  A 
ATOM     35  CE2 PHE G   5      37.333   1.092  30.645  1.00 91.53 LIG 0.00  A 
ATOM     36  CD2 PHE G   5      37.712   2.065  29.725  1.00 81.01 LIG 0.01  A 
ENDBRANCH 30 31
ENDBRANCH 29 30
BRANCH 29 37
ATOM     37  C   PHE G   5      38.528   4.501  26.102  1.00 74.26 LIG 0.24  C 
ATOM     38  N   PRO G   6      37.506   5.383  26.166  1.00 79.01 LIG-0.34  N 
ATOM     39  CD  PRO G   6      36.189   5.100  26.798  1.00 76.17 LIG 0.13  C 
ATOM     40  CA  PRO G   6      37.472   6.600  25.339  1.00 78.34 LIG 0.18  C 
ATOM     41  CG  PRO G   6      35.455   6.388  26.665  1.00 78.03 LIG 0.02  C 
ATOM     42  CB  PRO G   6      35.984   6.988  25.389  1.00 82.73 LIG 0.04  C 
ATOM     43 O    PHE G   5      39.525   4.670  25.391  1.00 61.78 LIG-0.27  OA
BRANCH 40 44
ATOM     44  C   PRO G   6      38.344   7.782  25.819  1.00 77.34 LIG 0.24  C 
ATOM     45 O    PRO G   6      39.403   8.001  25.258  1.00 92.50 LIG-0.27  OA
ATOM     46  N   ALA G   7      37.898   8.523  26.844  1.00 74.20 LIG-0.35  N 
ATOM     47 H    ALA G   7      37.070   8.566  27.072  1.00 74.20 LIG 0.16  HD
BRANCH 46 48
ATOM     48  CA  ALA G   7      38.799   9.349  27.693  1.00 71.75 LIG 0.16  C 
ATOM     49  CB  ALA G   7      39.992   8.521  28.169  1.00 70.01 LIG 0.04  C 
BRANCH 48 50
ATOM     50  C   ALA G   7      39.287  10.584  26.901  1.00 69.94 LIG 0.22  C 
ATOM     51 O    ALA G   7      38.838  11.728  27.168  1.00 56.97 LIG-0.29  OA
ENDBRANCH 48 50
ENDBRANCH 46 48
ENDBRANCH 40 44
ENDBRANCH 29 37
ENDBRANCH 3 29
TORSDOF 18
ENDMDL
MODEL 85
USER: ADFR SOLUTION from run 189
USER: SCORE 15.453825 LL:  -5.721 LR: -10.288 RR:   0.000 FEB:  -4.918
USER: RMSD 5.068637
USER: SEED 188
USER: STATUS no improvement in best in 19 clusters for 5 generations
USER: GENES 20
USER: genes 0 Translation |==|  0.42526 0.52732 0.51551
USER: genes 1 Rotation |==|  0.30154 0.73205 0.88544 0.59055
USER: genes 2 Torsion [N]-C--CA-[N] |==|  0.87454
USER: genes 3 Torsion [C]-CA--CB-[CG] |==|  0.40448
USER: genes 4 Torsion [CA]-CB--CG-[CD1] |==|  0.89053
USER: genes 5 Torsion [C]-CA--N-[C] |==|  0.73334
USER: genes 6 Torsion [N]-C--CA-[N] |==|  0.41680
USER: genes 7 Torsion [C]-CA--CB-[CG1] |==|  0.21332
USER: genes 8 Torsion [CA]-CB--CG1-[CD1] |==|  0.10159
USER: genes 9 Torsion [C]-CA--N-[C] |==|  0.63083
USER: genes 10 Torsion [N]-C--CA-[N] |==|  0.48385
USER: genes 11 Torsion [C]-CA--CB-[CG] |==|  0.75779
USER: genes 12 Torsion [CA]-CB--CG-[OD1] |==|  0.32313
USER: genes 13 Torsion [C]-N--CA-[CB] |==|  0.83312
USER: genes 14 Torsion [N]-CA--CB-[CG] |==|  0.33629
USER: genes 15 Torsion [CA]-CB--CG-[CD1] |==|  0.28555
USER: genes 16 Torsion [N]-CA--C-[N] |==|  0.44991
USER: genes 17 Torsion [N]-CA--C-[O] |==|  0.73161
USER: genes 18 Torsion [C]-N--CA-[C] |==|  0.50694
USER: genes 19 Torsion [N]-CA--C-[O] |==|  0.26579
ROOT
ATOM      1  C   LEU G   4      38.726   6.939  22.942  1.00 61.38 LIG 0.24  C 
ATOM      2 O    LEU G   4      39.495   5.972  22.933  1.00 52.06 LIG-0.27  OA
ATOM      3  N   PHE G   5      38.499   7.735  21.912  1.00 60.80 LIG-0.35  N 
ATOM      4 H    PHE G   5      37.936   8.385  21.936  1.00 60.80 LIG 0.16  HD
ENDROOT
BRANCH 1 5
ATOM      5  CA  LEU G   4      37.981   7.332  24.183  1.00 58.56 LIG 0.18  C 
BRANCH 5 6
ATOM      6  CB  LEU G   4      36.530   6.890  24.013  1.00 61.47 LIG 0.04  C 
BRANCH 6 7
ATOM      7  CG  LEU G   4      35.865   6.441  25.295  1.00 62.80 LIG-0.02  C 
ATOM      8  CD1 LEU G   4      36.894   5.653  26.079  1.00 63.22 LIG 0.01  C 
ATOM      9  CD2 LEU G   4      35.374   7.677  26.049  1.00 64.86 LIG 0.01  C 
ENDBRANCH 6 7
ENDBRANCH 5 6
BRANCH 5 10
ATOM     10  N   LEU G   4      38.103   8.765  24.368  1.00 59.02 LIG-0.35  N 
ATOM     11 H    LEU G   4      37.536   9.238  23.927  1.00 59.02 LIG 0.16  HD
ATOM     12  C   ILE G   3      39.041   9.266  25.173  1.00 70.10 LIG 0.24  C 
ATOM     13 O    ILE G   3      39.695   8.549  25.963  1.00 64.55 LIG-0.27  OA
BRANCH 12 14
ATOM     14  CA  ILE G   3      39.279  10.797  25.082  1.00 67.83 LIG 0.18  C 
BRANCH 14 15
ATOM     15  CB  ILE G   3      40.312  11.137  23.962  1.00 66.94 LIG 0.01  C 
ATOM     16  CG2 ILE G   3      41.529  10.217  24.059  1.00 67.41 LIG 0.01  C 
BRANCH 15 17
ATOM     17  CG1 ILE G   3      39.688  11.053  22.541  1.00 59.79 LIG 0.00  C 
ATOM     18  CD1 ILE G   3      38.260  11.526  22.473  1.00 60.74 LIG 0.01  C 
ENDBRANCH 15 17
ENDBRANCH 14 15
BRANCH 14 19
ATOM     19  N   ILE G   3      39.724  11.306  26.370  1.00 79.60 LIG-0.34  N 
ATOM     20 H    ILE G   3      40.350  10.838  26.728  1.00 79.60 LIG 0.16  HD
ATOM     21  C   ASP G   2      39.211  12.397  26.945  1.00 93.07 LIG 0.26  C 
ATOM     22 O    ASP G   2      38.381  13.124  26.396  1.00 81.24 LIG-0.27  OA
BRANCH 21 23
ATOM     23  CA  ASP G   2      39.683  12.727  28.367  1.00 93.30 LIG 0.41  C 
ATOM     24  N   ASP G   2      39.106  14.044  28.762  1.00 94.60 LIG 0.61  N 
BRANCH 23 25
ATOM     25  CB  ASP G   2      39.276  11.645  29.379  1.00 96.36 LIG 0.16  C 
BRANCH 25 26
ATOM     26  CG  ASP G   2      37.895  11.876  29.953  1.00103.24 LIG 0.17  C 
ATOM     27 OD1  ASP G   2      36.998  11.040  29.729  1.00112.85 LIG-0.65  OA
ATOM     28 OD2  ASP G   2      37.701  12.893  30.637  1.00105.87 LIG-0.65  OA
ENDBRANCH 25 26
ENDBRANCH 23 25
ENDBRANCH 21 23
ENDBRANCH 14 19
ENDBRANCH 12 14
ENDBRANCH 5 10
ENDBRANCH 1 5
BRANCH 3 29
ATOM     29  CA  PHE G   5      39.166   7.599  20.648  1.00 70.05 LIG 0.18  C 
BRANCH 29 30
ATOM     30  CB  PHE G   5      40.691   7.752  20.819  1.00 73.20 LIG 0.07  C 
BRANCH 30 31
ATOM     31  CG  PHE G   5      41.464   6.528  20.353  1.00 79.36 LIG-0.06  A 
ATOM     32  CD1 PHE G   5      42.135   6.542  19.104  1.00 85.64 LIG 0.01  A 
ATOM     33  CE1 PHE G   5      42.859   5.442  18.663  1.00 88.71 LIG 0.00  A 
ATOM     34  CZ  PHE G   5      42.932   4.305  19.472  1.00 96.11 LIG 0.00  A 
ATOM     35  CE2 PHE G   5      42.287   4.279  20.720  1.00 91.53 LIG 0.00  A 
ATOM     36  CD2 PHE G   5      41.561   5.382  21.156  1.00 81.01 LIG 0.01  A 
ENDBRANCH 30 31
ENDBRANCH 29 30
BRANCH 29 37
ATOM     37  C   PHE G   5      38.733   6.247  20.092  1.00 74.26 LIG 0.24  C 
ATOM     38  N   PRO G   6      38.917   6.045  18.768  1.00 79.01 LIG-0.34  N 
ATOM     39  CD  PRO G   6      39.366   7.092  17.812  1.00 76.17 LIG 0.13  C 
ATOM     40  CA  PRO G   6      38.385   4.858  18.079  1.00 78.34 LIG 0.18  C 
ATOM     41  CG  PRO G   6      39.472   6.361  16.520  1.00 78.03 LIG 0.02  C 
ATOM     42  CB  PRO G   6      38.408   5.298  16.605  1.00 82.73 LIG 0.04  C 
ATOM     43 O    PHE G   5      38.156   5.438  20.828  1.00 61.78 LIG-0.27  OA
BRANCH 40 44
ATOM     44  C   PRO G   6      39.185   3.547  18.253  1.00 77.34 LIG 0.24  C 
ATOM     45 O    PRO G   6      39.986   3.225  17.392  1.00 92.50 LIG-0.27  OA
ATOM     46  N   ALA G   7      38.962   2.809  19.350  1.00 74.20 LIG-0.35  N 
ATOM     47 H    ALA G   7      38.625   3.128  20.074  1.00 74.20 LIG 0.16  HD
BRANCH 46 48
ATOM     48  CA  ALA G   7      39.279   1.357  19.422  1.00 71.75 LIG 0.16  C 
ATOM     49  CB  ALA G   7      40.774   1.125  19.200  1.00 70.01 LIG 0.04  C 
BRANCH 48 50
ATOM     50  C   ALA G   7      38.848   0.788  20.793  1.00 69.94 LIG 0.22  C 
ATOM     51 O    ALA G   7      37.732   0.225  20.925  1.00 56.97 LIG-0.29  OA
ENDBRANCH 48 50
ENDBRANCH 46 48
ENDBRANCH 40 44
ENDBRANCH 29 37
ENDBRANCH 3 29
TORSDOF 18
ENDMDL
MODEL 86
USER: ADFR SOLUTION from run 180
USER: SCORE 14.837784 LL:  -5.579 LR: -10.285 RR:   0.000 FEB:  -4.915
USER: RMSD 6.464165
USER: SEED 179
USER: STATUS no improvement in best in 17 clusters for 5 generations
USER: GENES 20
USER: genes 0 Translation |==|  0.40253 0.53790 0.56992
USER: genes 1 Rotation |==|  0.41002 0.67869 0.69604 0.91418
USER: genes 2 Torsion [N]-C--CA-[N] |==|  0.12380
USER: genes 3 Torsion [C]-CA--CB-[CG] |==|  0.29606
USER: genes 4 Torsion [CA]-CB--CG-[CD1] |==|  0.72732
USER: genes 5 Torsion [C]-CA--N-[C] |==|  0.74445
USER: genes 6 Torsion [N]-C--CA-[N] |==|  0.04274
USER: genes 7 Torsion [C]-CA--CB-[CG1] |==|  0.61404
USER: genes 8 Torsion [CA]-CB--CG1-[CD1] |==|  0.27776
USER: genes 9 Torsion [C]-CA--N-[C] |==|  0.65002
USER: genes 10 Torsion [N]-C--CA-[N] |==|  0.14181
USER: genes 11 Torsion [C]-CA--CB-[CG] |==|  0.52744
USER: genes 12 Torsion [CA]-CB--CG-[OD1] |==|  0.03934
USER: genes 13 Torsion [C]-N--CA-[CB] |==|  0.78708
USER: genes 14 Torsion [N]-CA--CB-[CG] |==|  0.97993
USER: genes 15 Torsion [CA]-CB--CG-[CD1] |==|  0.80435
USER: genes 16 Torsion [N]-CA--C-[N] |==|  0.18624
USER: genes 17 Torsion [N]-CA--C-[O] |==|  0.64189
USER: genes 18 Torsion [C]-N--CA-[C] |==|  0.85489
USER: genes 19 Torsion [N]-CA--C-[O] |==|  0.29626
ROOT
ATOM      1  C   LEU G   4      38.351   7.233  23.840  1.00 61.38 LIG 0.24  C 
ATOM      2 O    LEU G   4      37.666   6.344  23.322  1.00 52.06 LIG-0.27  OA
ATOM      3  N   PHE G   5      39.624   7.461  23.570  1.00 60.80 LIG-0.35  N 
ATOM      4 H    PHE G   5      40.071   8.105  23.923  1.00 60.80 LIG 0.16  HD
ENDROOT
BRANCH 1 5
ATOM      5  CA  LEU G   4      37.784   8.144  24.888  1.00 58.56 LIG 0.18  C 
BRANCH 5 6
ATOM      6  CB  LEU G   4      36.265   8.001  24.855  1.00 61.47 LIG 0.04  C 
BRANCH 6 7
ATOM      7  CG  LEU G   4      35.689   7.228  26.021  1.00 62.80 LIG-0.02  C 
ATOM      8  CD1 LEU G   4      35.462   5.809  25.546  1.00 63.22 LIG 0.01  C 
ATOM      9  CD2 LEU G   4      36.672   7.305  27.189  1.00 64.86 LIG 0.01  C 
ENDBRANCH 6 7
ENDBRANCH 5 6
BRANCH 5 10
ATOM     10  N   LEU G   4      38.217   9.500  24.614  1.00 59.02 LIG-0.35  N 
ATOM     11 H    LEU G   4      37.706   9.943  24.083  1.00 59.02 LIG 0.16  HD
ATOM     12  C   ILE G   3      39.332   9.979  25.166  1.00 70.10 LIG 0.24  C 
ATOM     13 O    ILE G   3      39.923   9.388  26.097  1.00 64.55 LIG-0.27  OA
BRANCH 12 14
ATOM     14  CA  ILE G   3      39.862  11.321  24.592  1.00 67.83 LIG 0.18  C 
BRANCH 14 15
ATOM     15  CB  ILE G   3      40.356  12.263  25.735  1.00 66.94 LIG 0.01  C 
ATOM     16  CG2 ILE G   3      41.873  12.160  25.895  1.00 67.41 LIG 0.01  C 
BRANCH 15 17
ATOM     17  CG1 ILE G   3      39.941  13.741  25.499  1.00 59.79 LIG 0.00  C 
ATOM     18  CD1 ILE G   3      38.731  14.169  26.287  1.00 60.74 LIG 0.01  C 
ENDBRANCH 15 17
ENDBRANCH 14 15
BRANCH 14 19
ATOM     19  N   ILE G   3      38.824  11.964  23.801  1.00 79.60 LIG-0.34  N 
ATOM     20 H    ILE G   3      38.084  12.070  24.225  1.00 79.60 LIG 0.16  HD
ATOM     21  C   ASP G   2      39.003  12.355  22.536  1.00 93.07 LIG 0.26  C 
ATOM     22 O    ASP G   2      40.087  12.291  21.955  1.00 81.24 LIG-0.27  OA
BRANCH 21 23
ATOM     23  CA  ASP G   2      37.773  12.889  21.789  1.00 93.30 LIG 0.41  C 
ATOM     24  N   ASP G   2      37.129  13.937  22.631  1.00 94.60 LIG 0.61  N 
BRANCH 23 25
ATOM     25  CB  ASP G   2      38.136  13.464  20.412  1.00 96.36 LIG 0.16  C 
BRANCH 25 26
ATOM     26  CG  ASP G   2      36.983  14.204  19.769  1.00103.24 LIG 0.17  C 
ATOM     27 OD1  ASP G   2      35.997  14.513  20.467  1.00112.85 LIG-0.65  OA
ATOM     28 OD2  ASP G   2      37.060  14.487  18.564  1.00105.87 LIG-0.65  OA
ENDBRANCH 25 26
ENDBRANCH 23 25
ENDBRANCH 21 23
ENDBRANCH 14 19
ENDBRANCH 12 14
ENDBRANCH 5 10
ENDBRANCH 1 5
BRANCH 3 29
ATOM     29  CA  PHE G   5      40.394   6.659  22.662  1.00 70.05 LIG 0.18  C 
BRANCH 29 30
ATOM     30  CB  PHE G   5      40.794   5.323  23.320  1.00 73.20 LIG 0.07  C 
BRANCH 30 31
ATOM     31  CG  PHE G   5      40.435   5.260  24.797  1.00 79.36 LIG-0.06  A 
ATOM     32  CD1 PHE G   5      41.142   6.051  25.736  1.00 85.64 LIG 0.01  A 
ATOM     33  CE1 PHE G   5      40.824   6.023  27.087  1.00 88.71 LIG 0.00  A 
ATOM     34  CZ  PHE G   5      39.779   5.203  27.524  1.00 96.11 LIG 0.00  A 
ATOM     35  CE2 PHE G   5      39.056   4.425  26.606  1.00 91.53 LIG 0.00  A 
ATOM     36  CD2 PHE G   5      39.381   4.455  25.253  1.00 81.01 LIG 0.01  A 
ENDBRANCH 30 31
ENDBRANCH 29 30
BRANCH 29 37
ATOM     37  C   PHE G   5      39.536   6.506  21.412  1.00 74.26 LIG 0.24  C 
ATOM     38  N   PRO G   6      39.310   7.623  20.685  1.00 79.01 LIG-0.34  N 
ATOM     39  CD  PRO G   6      39.713   8.993  21.103  1.00 76.17 LIG 0.13  C 
ATOM     40  CA  PRO G   6      38.361   7.645  19.561  1.00 78.34 LIG 0.18  C 
ATOM     41  CG  PRO G   6      39.303   9.842  19.951  1.00 78.03 LIG 0.02  C 
ATOM     42  CB  PRO G   6      38.089   9.149  19.391  1.00 82.73 LIG 0.04  C 
ATOM     43 O    PHE G   5      39.008   5.415  21.160  1.00 61.78 LIG-0.27  OA
BRANCH 40 44
ATOM     44  C   PRO G   6      38.860   7.043  18.228  1.00 77.34 LIG 0.24  C 
ATOM     45 O    PRO G   6      38.749   7.697  17.206  1.00 92.50 LIG-0.27  OA
ATOM     46  N   ALA G   7      39.399   5.815  18.249  1.00 74.20 LIG-0.35  N 
ATOM     47 H    ALA G   7      39.730   5.456  18.957  1.00 74.20 LIG 0.16  HD
BRANCH 46 48
ATOM     48  CA  ALA G   7      39.478   4.949  17.042  1.00 71.75 LIG 0.16  C 
ATOM     49  CB  ALA G   7      40.008   3.563  17.412  1.00 70.01 LIG 0.04  C 
BRANCH 48 50
ATOM     50  C   ALA G   7      38.084   4.829  16.384  1.00 69.94 LIG 0.22  C 
ATOM     51 O    ALA G   7      37.836   5.431  15.308  1.00 56.97 LIG-0.29  OA
ENDBRANCH 48 50
ENDBRANCH 46 48
ENDBRANCH 40 44
ENDBRANCH 29 37
ENDBRANCH 3 29
TORSDOF 18
ENDMDL
MODEL 87
USER: ADFR SOLUTION from run 145
USER: SCORE 14.158413 LL:  -5.318 LR: -10.275 RR:   0.000 FEB:  -4.905
USER: RMSD 5.010675
USER: SEED 144
USER: STATUS no improvement in best in 34 clusters for 5 generations
USER: GENES 20
USER: genes 0 Translation |==|  0.44351 0.51446 0.38800
USER: genes 1 Rotation |==|  0.58184 0.64581 0.49583 0.97119
USER: genes 2 Torsion [N]-C--CA-[N] |==|  0.43680
USER: genes 3 Torsion [C]-CA--CB-[CG] |==|  0.58333
USER: genes 4 Torsion [CA]-CB--CG-[CD1] |==|  0.25946
USER: genes 5 Torsion [C]-CA--N-[C] |==|  0.70283
USER: genes 6 Torsion [N]-C--CA-[N] |==|  0.39588
USER: genes 7 Torsion [C]-CA--CB-[CG1] |==|  0.02419
USER: genes 8 Torsion [CA]-CB--CG1-[CD1] |==|  0.31854
USER: genes 9 Torsion [C]-CA--N-[C] |==|  0.58418
USER: genes 10 Torsion [N]-C--CA-[N] |==|  0.54969
USER: genes 11 Torsion [C]-CA--CB-[CG] |==|  0.79069
USER: genes 12 Torsion [CA]-CB--CG-[OD1] |==|  0.32393
USER: genes 13 Torsion [C]-N--CA-[CB] |==|  0.20006
USER: genes 14 Torsion [N]-CA--CB-[CG] |==|  0.61470
USER: genes 15 Torsion [CA]-CB--CG-[CD1] |==|  0.56287
USER: genes 16 Torsion [N]-CA--C-[N] |==|  0.32434
USER: genes 17 Torsion [N]-CA--C-[O] |==|  0.34078
USER: genes 18 Torsion [C]-N--CA-[C] |==|  0.67907
USER: genes 19 Torsion [N]-CA--C-[O] |==|  0.07220
ROOT
ATOM      1  C   LEU G   4      39.027   6.582  20.838  1.00 61.38 LIG 0.24  C 
ATOM      2 O    LEU G   4      38.065   6.905  20.132  1.00 52.06 LIG-0.27  OA
ATOM      3  N   PHE G   5      39.944   5.690  20.506  1.00 60.80 LIG-0.35  N 
ATOM      4 H    PHE G   5      40.620   5.505  21.003  1.00 60.80 LIG 0.16  HD
ENDROOT
BRANCH 1 5
ATOM      5  CA  LEU G   4      39.226   7.171  22.203  1.00 58.56 LIG 0.18  C 
BRANCH 5 6
ATOM      6  CB  LEU G   4      38.672   6.179  23.221  1.00 61.47 LIG 0.04  C 
BRANCH 6 7
ATOM      7  CG  LEU G   4      38.133   6.820  24.482  1.00 62.80 LIG-0.02  C 
ATOM      8  CD1 LEU G   4      36.649   7.034  24.273  1.00 63.22 LIG 0.01  C 
ATOM      9  CD2 LEU G   4      38.432   5.898  25.663  1.00 64.86 LIG 0.01  C 
ENDBRANCH 6 7
ENDBRANCH 5 6
BRANCH 5 10
ATOM     10  N   LEU G   4      38.554   8.455  22.261  1.00 59.02 LIG-0.35  N 
ATOM     11 H    LEU G   4      37.696   8.414  22.296  1.00 59.02 LIG 0.16  HD
ATOM     12  C   ILE G   3      39.258   9.588  22.259  1.00 70.10 LIG 0.24  C 
ATOM     13 O    ILE G   3      40.497   9.604  22.431  1.00 64.55 LIG-0.27  OA
BRANCH 12 14
ATOM     14  CA  ILE G   3      38.455  10.896  22.032  1.00 67.83 LIG 0.18  C 
BRANCH 14 15
ATOM     15  CB  ILE G   3      38.459  11.302  20.524  1.00 66.94 LIG 0.01  C 
ATOM     16  CG2 ILE G   3      39.210  12.619  20.327  1.00 67.41 LIG 0.01  C 
BRANCH 15 17
ATOM     17  CG1 ILE G   3      39.070  10.196  19.620  1.00 59.79 LIG 0.00  C 
ATOM     18  CD1 ILE G   3      38.085   9.579  18.661  1.00 60.74 LIG 0.01  C 
ENDBRANCH 15 17
ENDBRANCH 14 15
BRANCH 14 19
ATOM     19  N   ILE G   3      39.002  11.962  22.858  1.00 79.60 LIG-0.34  N 
ATOM     20 H    ILE G   3      39.845  11.886  23.004  1.00 79.60 LIG 0.16  HD
ATOM     21  C   ASP G   2      38.265  12.965  23.344  1.00 93.07 LIG 0.26  C 
ATOM     22 O    ASP G   2      37.077  13.130  23.061  1.00 81.24 LIG-0.27  OA
BRANCH 21 23
ATOM     23  CA  ASP G   2      38.954  13.933  24.314  1.00 93.30 LIG 0.41  C 
ATOM     24  N   ASP G   2      37.903  14.681  25.060  1.00 94.60 LIG 0.61  N 
BRANCH 23 25
ATOM     25  CB  ASP G   2      39.885  13.206  25.296  1.00 96.36 LIG 0.16  C 
BRANCH 25 26
ATOM     26  CG  ASP G   2      39.128  12.481  26.387  1.00103.24 LIG 0.17  C 
ATOM     27 OD1  ASP G   2      39.209  11.239  26.460  1.00112.85 LIG-0.65  OA
ATOM     28 OD2  ASP G   2      38.452  13.151  27.183  1.00105.87 LIG-0.65  OA
ENDBRANCH 25 26
ENDBRANCH 23 25
ENDBRANCH 21 23
ENDBRANCH 14 19
ENDBRANCH 12 14
ENDBRANCH 5 10
ENDBRANCH 1 5
BRANCH 3 29
ATOM     29  CA  PHE G   5      39.907   4.939  19.283  1.00 70.05 LIG 0.18  C 
BRANCH 29 30
ATOM     30  CB  PHE G   5      40.244   5.843  18.079  1.00 73.20 LIG 0.07  C 
BRANCH 30 31
ATOM     31  CG  PHE G   5      39.361   5.572  16.870  1.00 79.36 LIG-0.06  A 
ATOM     32  CD1 PHE G   5      39.803   5.929  15.572  1.00 85.64 LIG 0.01  A 
ATOM     33  CE1 PHE G   5      39.022   5.679  14.451  1.00 88.71 LIG 0.00  A 
ATOM     34  CZ  PHE G   5      37.781   5.056  14.611  1.00 96.11 LIG 0.00  A 
ATOM     35  CE2 PHE G   5      37.334   4.681  15.888  1.00 91.53 LIG 0.00  A 
ATOM     36  CD2 PHE G   5      38.119   4.936  17.008  1.00 81.01 LIG 0.01  A 
ENDBRANCH 30 31
ENDBRANCH 29 30
BRANCH 29 37
ATOM     37  C   PHE G   5      40.872   3.776  19.479  1.00 74.26 LIG 0.24  C 
ATOM     38  N   PRO G   6      40.344   2.532  19.450  1.00 79.01 LIG-0.34  N 
ATOM     39  CD  PRO G   6      38.886   2.240  19.389  1.00 76.17 LIG 0.13  C 
ATOM     40  CA  PRO G   6      41.133   1.340  19.798  1.00 78.34 LIG 0.18  C 
ATOM     41  CG  PRO G   6      38.833   0.754  19.313  1.00 78.03 LIG 0.02  C 
ATOM     42  CB  PRO G   6      40.040   0.298  20.089  1.00 82.73 LIG 0.04  C 
ATOM     43 O    PHE G   5      42.059   4.002  19.747  1.00 61.78 LIG-0.27  OA
BRANCH 40 44
ATOM     44  C   PRO G   6      42.094   0.811  18.709  1.00 77.34 LIG 0.24  C 
ATOM     45 O    PRO G   6      43.281   0.711  18.966  1.00 92.50 LIG-0.27  OA
ATOM     46  N   ALA G   7      41.580   0.481  17.515  1.00 74.20 LIG-0.35  N 
ATOM     47 H    ALA G   7      40.751   0.286  17.395  1.00 74.20 LIG 0.16  HD
BRANCH 46 48
ATOM     48  CA  ALA G   7      42.398   0.420  16.274  1.00 71.75 LIG 0.16  C 
ATOM     49  CB  ALA G   7      42.310  -0.969  15.643  1.00 70.01 LIG 0.04  C 
BRANCH 48 50
ATOM     50  C   ALA G   7      41.920   1.494  15.271  1.00 69.94 LIG 0.22  C 
ATOM     51 O    ALA G   7      41.348   2.537  15.680  1.00 56.97 LIG-0.29  OA
ENDBRANCH 48 50
ENDBRANCH 46 48
ENDBRANCH 40 44
ENDBRANCH 29 37
ENDBRANCH 3 29
TORSDOF 18
ENDMDL
MODEL 88
USER: ADFR SOLUTION from run 68
USER: SCORE 15.333535 LL:  -5.636 LR: -10.258 RR:   0.000 FEB:  -4.889
USER: RMSD 4.013295
USER: SEED 67
USER: STATUS no improvement in best in 8 clusters for 5 generations
USER: GENES 20
USER: genes 0 Translation |==|  0.50456 0.55019 0.53583
USER: genes 1 Rotation |==|  0.26942 0.83104 0.78600 0.57381
USER: genes 2 Torsion [N]-C--CA-[N] |==|  0.03310
USER: genes 3 Torsion [C]-CA--CB-[CG] |==|  0.72548
USER: genes 4 Torsion [CA]-CB--CG-[CD1] |==|  0.20257
USER: genes 5 Torsion [C]-CA--N-[C] |==|  0.72867
USER: genes 6 Torsion [N]-C--CA-[N] |==|  0.42788
USER: genes 7 Torsion [C]-CA--CB-[CG1] |==|  0.22303
USER: genes 8 Torsion [CA]-CB--CG1-[CD1] |==|  0.38160
USER: genes 9 Torsion [C]-CA--N-[C] |==|  0.78334
USER: genes 10 Torsion [N]-C--CA-[N] |==|  0.90756
USER: genes 11 Torsion [C]-CA--CB-[CG] |==|  0.85291
USER: genes 12 Torsion [CA]-CB--CG-[OD1] |==|  0.88217
USER: genes 13 Torsion [C]-N--CA-[CB] |==|  0.88559
USER: genes 14 Torsion [N]-CA--CB-[CG] |==|  0.79342
USER: genes 15 Torsion [CA]-CB--CG-[CD1] |==|  0.68911
USER: genes 16 Torsion [N]-CA--C-[N] |==|  0.32959
USER: genes 17 Torsion [N]-CA--C-[O] |==|  0.75282
USER: genes 18 Torsion [C]-N--CA-[C] |==|  0.53399
USER: genes 19 Torsion [N]-CA--C-[O] |==|  0.19719
ROOT
ATOM      1  C   LEU G   4      40.034   7.574  23.277  1.00 61.38 LIG 0.24  C 
ATOM      2 O    LEU G   4      40.640   6.694  23.899  1.00 52.06 LIG-0.27  OA
ATOM      3  N   PHE G   5      40.054   7.723  21.964  1.00 60.80 LIG-0.35  N 
ATOM      4 H    PHE G   5      39.600   8.326  21.553  1.00 60.80 LIG 0.16  HD
ENDROOT
BRANCH 1 5
ATOM      5  CA  LEU G   4      39.221   8.613  23.989  1.00 58.56 LIG 0.18  C 
BRANCH 5 6
ATOM      6  CB  LEU G   4      38.345   7.896  25.013  1.00 61.47 LIG 0.04  C 
BRANCH 6 7
ATOM      7  CG  LEU G   4      36.923   7.659  24.555  1.00 62.80 LIG-0.02  C 
ATOM      8  CD1 LEU G   4      36.967   6.559  23.516  1.00 63.22 LIG 0.01  C 
ATOM      9  CD2 LEU G   4      36.076   7.284  25.770  1.00 64.86 LIG 0.01  C 
ENDBRANCH 6 7
ENDBRANCH 5 6
BRANCH 5 10
ATOM     10  N   LEU G   4      38.439   9.347  23.012  1.00 59.02 LIG-0.35  N 
ATOM     11 H    LEU G   4      37.707   8.964  22.772  1.00 59.02 LIG 0.16  HD
ATOM     12  C   ILE G   3      38.866  10.522  22.549  1.00 70.10 LIG 0.24  C 
ATOM     13 O    ILE G   3      39.812  11.145  23.080  1.00 64.55 LIG-0.27  OA
BRANCH 12 14
ATOM     14  CA  ILE G   3      38.119  11.084  21.310  1.00 67.83 LIG 0.18  C 
BRANCH 14 15
ATOM     15  CB  ILE G   3      38.677  10.462  19.991  1.00 66.94 LIG 0.01  C 
ATOM     16  CG2 ILE G   3      40.204  10.407  20.028  1.00 67.41 LIG 0.01  C 
BRANCH 15 17
ATOM     17  CG1 ILE G   3      38.096   9.046  19.718  1.00 59.79 LIG 0.00  C 
ATOM     18  CD1 ILE G   3      37.709   8.813  18.281  1.00 60.74 LIG 0.01  C 
ENDBRANCH 15 17
ENDBRANCH 14 15
BRANCH 14 19
ATOM     19  N   ILE G   3      38.226  12.535  21.285  1.00 79.60 LIG-0.34  N 
ATOM     20 H    ILE G   3      38.810  12.828  20.726  1.00 79.60 LIG 0.16  HD
ATOM     21  C   ASP G   2      37.487  13.338  22.055  1.00 93.07 LIG 0.26  C 
ATOM     22 O    ASP G   2      36.585  12.930  22.788  1.00 81.24 LIG-0.27  OA
BRANCH 21 23
ATOM     23  CA  ASP G   2      37.814  14.837  22.018  1.00 93.30 LIG 0.41  C 
ATOM     24  N   ASP G   2      39.281  14.995  21.809  1.00 94.60 LIG 0.61  N 
BRANCH 23 25
ATOM     25  CB  ASP G   2      37.039  15.573  20.915  1.00 96.36 LIG 0.16  C 
BRANCH 25 26
ATOM     26  CG  ASP G   2      37.210  14.929  19.556  1.00103.24 LIG 0.17  C 
ATOM     27 OD1  ASP G   2      38.342  14.537  19.209  1.00112.85 LIG-0.65  OA
ATOM     28 OD2  ASP G   2      36.212  14.806  18.829  1.00105.87 LIG-0.65  OA
ENDBRANCH 25 26
ENDBRANCH 23 25
ENDBRANCH 21 23
ENDBRANCH 14 19
ENDBRANCH 12 14
ENDBRANCH 5 10
ENDBRANCH 1 5
BRANCH 3 29
ATOM     29  CA  PHE G   5      40.834   6.895  21.088  1.00 70.05 LIG 0.18  C 
BRANCH 29 30
ATOM     30  CB  PHE G   5      42.228   6.626  21.691  1.00 73.20 LIG 0.07  C 
BRANCH 30 31
ATOM     31  CG  PHE G   5      43.151   7.833  21.609  1.00 79.36 LIG-0.06  A 
ATOM     32  CD1 PHE G   5      44.285   7.805  20.760  1.00 85.64 LIG 0.01  A 
ATOM     33  CE1 PHE G   5      45.135   8.899  20.657  1.00 88.71 LIG 0.00  A 
ATOM     34  CZ  PHE G   5      44.856  10.050  21.400  1.00 96.11 LIG 0.00  A 
ATOM     35  CE2 PHE G   5      43.728  10.101  22.233  1.00 91.53 LIG 0.00  A 
ATOM     36  CD2 PHE G   5      42.881   9.002  22.335  1.00 81.01 LIG 0.01  A 
ENDBRANCH 30 31
ENDBRANCH 29 30
BRANCH 29 37
ATOM     37  C   PHE G   5      40.003   5.638  20.854  1.00 74.26 LIG 0.24  C 
ATOM     38  N   PRO G   6      39.631   5.381  19.580  1.00 79.01 LIG-0.34  N 
ATOM     39  CD  PRO G   6      39.849   6.309  18.437  1.00 76.17 LIG 0.13  C 
ATOM     40  CA  PRO G   6      38.688   4.303  19.245  1.00 78.34 LIG 0.18  C 
ATOM     41  CG  PRO G   6      39.330   5.548  17.268  1.00 78.03 LIG 0.02  C 
ATOM     42  CB  PRO G   6      38.218   4.705  17.836  1.00 82.73 LIG 0.04  C 
ATOM     43 O    PHE G   5      39.625   4.964  21.820  1.00 61.78 LIG-0.27  OA
BRANCH 40 44
ATOM     44  C   PRO G   6      39.263   2.869  19.223  1.00 77.34 LIG 0.24  C 
ATOM     45 O    PRO G   6      39.738   2.439  18.186  1.00 92.50 LIG-0.27  OA
ATOM     46  N   ALA G   7      39.213   2.148  20.353  1.00 74.20 LIG-0.35  N 
ATOM     47 H    ALA G   7      39.141   2.499  21.134  1.00 74.20 LIG 0.16  HD
BRANCH 46 48
ATOM     48  CA  ALA G   7      39.279   0.662  20.363  1.00 71.75 LIG 0.16  C 
ATOM     49  CB  ALA G   7      40.681   0.186  19.983  1.00 70.01 LIG 0.04  C 
BRANCH 48 50
ATOM     50  C   ALA G   7      38.893   0.125  21.760  1.00 69.94 LIG 0.22  C 
ATOM     51 O    ALA G   7      37.702   0.189  22.159  1.00 56.97 LIG-0.29  OA
ENDBRANCH 48 50
ENDBRANCH 46 48
ENDBRANCH 40 44
ENDBRANCH 29 37
ENDBRANCH 3 29
TORSDOF 18
ENDMDL
MODEL 89
USER: ADFR SOLUTION from run 134
USER: SCORE 15.248886 LL:  -5.695 LR: -10.263 RR:   0.000 FEB:  -4.893
USER: RMSD 3.777169
USER: SEED 133
USER: STATUS no improvement in best in 28 clusters for 5 generations
USER: GENES 20
USER: genes 0 Translation |==|  0.45169 0.46555 0.64199
USER: genes 1 Rotation |==|  0.19644 0.86029 0.66223 0.54154
USER: genes 2 Torsion [N]-C--CA-[N] |==|  0.00078
USER: genes 3 Torsion [C]-CA--CB-[CG] |==|  0.38779
USER: genes 4 Torsion [CA]-CB--CG-[CD1] |==|  0.94090
USER: genes 5 Torsion [C]-CA--N-[C] |==|  0.75942
USER: genes 6 Torsion [N]-C--CA-[N] |==|  0.47222
USER: genes 7 Torsion [C]-CA--CB-[CG1] |==|  0.83841
USER: genes 8 Torsion [CA]-CB--CG1-[CD1] |==|  0.58116
USER: genes 9 Torsion [C]-CA--N-[C] |==|  0.62366
USER: genes 10 Torsion [N]-C--CA-[N] |==|  0.17268
USER: genes 11 Torsion [C]-CA--CB-[CG] |==|  0.78064
USER: genes 12 Torsion [CA]-CB--CG-[OD1] |==|  0.01966
USER: genes 13 Torsion [C]-N--CA-[CB] |==|  0.86372
USER: genes 14 Torsion [N]-CA--CB-[CG] |==|  0.85809
USER: genes 15 Torsion [CA]-CB--CG-[CD1] |==|  0.30268
USER: genes 16 Torsion [N]-CA--C-[N] |==|  0.30573
USER: genes 17 Torsion [N]-CA--C-[O] |==|  0.93889
USER: genes 18 Torsion [C]-N--CA-[C] |==|  0.81847
USER: genes 19 Torsion [N]-CA--C-[O] |==|  0.94742
ROOT
ATOM      1  C   LEU G   4      39.162   5.225  25.029  1.00 61.38 LIG 0.24  C 
ATOM      2 O    LEU G   4      39.594   4.871  26.131  1.00 52.06 LIG-0.27  OA
ATOM      3  N   PHE G   5      39.584   4.762  23.866  1.00 60.80 LIG-0.35  N 
ATOM      4 H    PHE G   5      39.246   5.004  23.113  1.00 60.80 LIG 0.16  HD
ENDROOT
BRANCH 1 5
ATOM      5  CA  LEU G   4      38.104   6.281  24.909  1.00 58.56 LIG 0.18  C 
BRANCH 5 6
ATOM      6  CB  LEU G   4      36.877   5.799  25.677  1.00 61.47 LIG 0.04  C 
BRANCH 6 7
ATOM      7  CG  LEU G   4      36.179   6.879  26.473  1.00 62.80 LIG-0.02  C 
ATOM      8  CD1 LEU G   4      37.185   7.988  26.696  1.00 63.22 LIG 0.01  C 
ATOM      9  CD2 LEU G   4      34.954   7.348  25.687  1.00 64.86 LIG 0.01  C 
ENDBRANCH 6 7
ENDBRANCH 5 6
BRANCH 5 10
ATOM     10  N   LEU G   4      37.823   6.505  23.503  1.00 59.02 LIG-0.35  N 
ATOM     11 H    LEU G   4      37.170   6.043  23.186  1.00 59.02 LIG 0.16  HD
ATOM     12  C   ILE G   3      38.550   7.371  22.797  1.00 70.10 LIG 0.24  C 
ATOM     13 O    ILE G   3      39.336   8.179  23.339  1.00 64.55 LIG-0.27  OA
BRANCH 12 14
ATOM     14  CA  ILE G   3      38.367   7.327  21.257  1.00 67.83 LIG 0.18  C 
BRANCH 14 15
ATOM     15  CB  ILE G   3      38.908   5.987  20.666  1.00 66.94 LIG 0.01  C 
ATOM     16  CG2 ILE G   3      38.686   5.940  19.154  1.00 67.41 LIG 0.01  C 
BRANCH 15 17
ATOM     17  CG1 ILE G   3      40.410   5.764  20.995  1.00 59.79 LIG 0.00  C 
ATOM     18  CD1 ILE G   3      41.146   4.951  19.963  1.00 60.74 LIG 0.01  C 
ENDBRANCH 15 17
ENDBRANCH 14 15
BRANCH 14 19
ATOM     19  N   ILE G   3      39.031   8.469  20.647  1.00 79.60 LIG-0.34  N 
ATOM     20 H    ILE G   3      39.816   8.620  20.964  1.00 79.60 LIG 0.16  HD
ATOM     21  C   ASP G   2      38.477   9.213  19.687  1.00 93.07 LIG 0.26  C 
ATOM     22 O    ASP G   2      37.393   8.946  19.164  1.00 81.24 LIG-0.27  OA
BRANCH 21 23
ATOM     23  CA  ASP G   2      39.242  10.467  19.244  1.00 93.30 LIG 0.41  C 
ATOM     24  N   ASP G   2      40.554  10.044  18.677  1.00 94.60 LIG 0.61  N 
BRANCH 23 25
ATOM     25  CB  ASP G   2      38.459  11.290  18.210  1.00 96.36 LIG 0.16  C 
BRANCH 25 26
ATOM     26  CG  ASP G   2      38.549  10.709  16.816  1.00103.24 LIG 0.17  C 
ATOM     27 OD1  ASP G   2      39.099   9.602  16.655  1.00112.85 LIG-0.65  OA
ATOM     28 OD2  ASP G   2      38.064  11.354  15.874  1.00105.87 LIG-0.65  OA
ENDBRANCH 25 26
ENDBRANCH 23 25
ENDBRANCH 21 23
ENDBRANCH 14 19
ENDBRANCH 12 14
ENDBRANCH 5 10
ENDBRANCH 1 5
BRANCH 3 29
ATOM     29  CA  PHE G   5      40.648   3.807  23.736  1.00 70.05 LIG 0.18  C 
BRANCH 29 30
ATOM     30  CB  PHE G   5      41.874   4.243  24.565  1.00 73.20 LIG 0.07  C 
BRANCH 30 31
ATOM     31  CG  PHE G   5      42.297   5.678  24.287  1.00 79.36 LIG-0.06  A 
ATOM     32  CD1 PHE G   5      42.088   6.684  25.263  1.00 85.64 LIG 0.01  A 
ATOM     33  CE1 PHE G   5      42.478   7.997  25.039  1.00 88.71 LIG 0.00  A 
ATOM     34  CZ  PHE G   5      43.095   8.327  23.828  1.00 96.11 LIG 0.00  A 
ATOM     35  CE2 PHE G   5      43.325   7.341  22.856  1.00 91.53 LIG 0.00  A 
ATOM     36  CD2 PHE G   5      42.930   6.026  23.085  1.00 81.01 LIG 0.01  A 
ENDBRANCH 30 31
ENDBRANCH 29 30
BRANCH 29 37
ATOM     37  C   PHE G   5      40.058   2.466  24.155  1.00 74.26 LIG 0.24  C 
ATOM     38  N   PRO G   6      39.878   1.547  23.179  1.00 79.01 LIG-0.34  N 
ATOM     39  CD  PRO G   6      40.075   1.812  21.728  1.00 76.17 LIG 0.13  C 
ATOM     40  CA  PRO G   6      39.160   0.285  23.419  1.00 78.34 LIG 0.18  C 
ATOM     41  CG  PRO G   6      39.819   0.489  21.096  1.00 78.03 LIG 0.02  C 
ATOM     42  CB  PRO G   6      38.796  -0.160  21.991  1.00 82.73 LIG 0.04  C 
ATOM     43 O    PHE G   5      39.684   2.297  25.322  1.00 61.78 LIG-0.27  OA
BRANCH 40 44
ATOM     44  C   PRO G   6      39.953  -0.831  24.136  1.00 77.34 LIG 0.24  C 
ATOM     45 O    PRO G   6      41.171  -0.804  24.105  1.00 92.50 LIG-0.27  OA
ATOM     46  N   ALA G   7      39.263  -1.794  24.766  1.00 74.20 LIG-0.35  N 
ATOM     47 H    ALA G   7      38.451  -1.697  25.030  1.00 74.20 LIG 0.16  HD
BRANCH 46 48
ATOM     48  CA  ALA G   7      39.842  -3.130  25.072  1.00 71.75 LIG 0.16  C 
ATOM     49  CB  ALA G   7      38.884  -3.938  25.948  1.00 70.01 LIG 0.04  C 
BRANCH 48 50
ATOM     50  C   ALA G   7      40.138  -3.891  23.761  1.00 69.94 LIG 0.22  C 
ATOM     51 O    ALA G   7      39.584  -3.546  22.686  1.00 56.97 LIG-0.29  OA
ENDBRANCH 48 50
ENDBRANCH 46 48
ENDBRANCH 40 44
ENDBRANCH 29 37
ENDBRANCH 3 29
TORSDOF 18
ENDMDL
MODEL 90
USER: ADFR SOLUTION from run 17
USER: SCORE 14.043976 LL:  -5.309 LR: -10.251 RR:   0.000 FEB:  -4.881
USER: RMSD 5.777916
USER: SEED 16
USER: STATUS no improvement in best in 24 clusters for 5 generations
USER: GENES 20
USER: genes 0 Translation |==|  0.51656 0.45971 0.64715
USER: genes 1 Rotation |==|  0.63986 0.09676 0.44956 0.75553
USER: genes 2 Torsion [N]-C--CA-[N] |==|  0.81749
USER: genes 3 Torsion [C]-CA--CB-[CG] |==|  0.42111
USER: genes 4 Torsion [CA]-CB--CG-[CD1] |==|  0.98380
USER: genes 5 Torsion [C]-CA--N-[C] |==|  0.71324
USER: genes 6 Torsion [N]-C--CA-[N] |==|  0.48653
USER: genes 7 Torsion [C]-CA--CB-[CG1] |==|  0.78907
USER: genes 8 Torsion [CA]-CB--CG1-[CD1] |==|  0.25989
USER: genes 9 Torsion [C]-CA--N-[C] |==|  0.75827
USER: genes 10 Torsion [N]-C--CA-[N] |==|  0.92204
USER: genes 11 Torsion [C]-CA--CB-[CG] |==|  0.86005
USER: genes 12 Torsion [CA]-CB--CG-[OD1] |==|  0.86144
USER: genes 13 Torsion [C]-N--CA-[CB] |==|  0.19898
USER: genes 14 Torsion [N]-CA--CB-[CG] |==|  0.19104
USER: genes 15 Torsion [CA]-CB--CG-[CD1] |==|  0.36092
USER: genes 16 Torsion [N]-CA--C-[N] |==|  0.21111
USER: genes 17 Torsion [N]-CA--C-[O] |==|  0.73050
USER: genes 18 Torsion [C]-N--CA-[C] |==|  0.50376
USER: genes 19 Torsion [N]-CA--C-[O] |==|  0.42171
ROOT
ATOM      1  C   LEU G   4      40.232   5.063  25.114  1.00 61.38 LIG 0.24  C 
ATOM      2 O    LEU G   4      41.396   5.407  25.350  1.00 52.06 LIG-0.27  OA
ATOM      3  N   PHE G   5      39.785   3.821  25.167  1.00 60.80 LIG-0.35  N 
ATOM      4 H    PHE G   5      38.963   3.612  25.026  1.00 60.80 LIG 0.16  HD
ENDROOT
BRANCH 1 5
ATOM      5  CA  LEU G   4      39.194   6.060  24.694  1.00 58.56 LIG 0.18  C 
BRANCH 5 6
ATOM      6  CB  LEU G   4      38.017   5.939  25.658  1.00 61.47 LIG 0.04  C 
BRANCH 6 7
ATOM      7  CG  LEU G   4      37.230   7.218  25.839  1.00 62.80 LIG-0.02  C 
ATOM      8  CD1 LEU G   4      37.966   8.305  25.084  1.00 63.22 LIG 0.01  C 
ATOM      9  CD2 LEU G   4      35.812   6.996  25.313  1.00 64.86 LIG 0.01  C 
ENDBRANCH 6 7
ENDBRANCH 5 6
BRANCH 5 10
ATOM     10  N   LEU G   4      38.812   5.789  23.321  1.00 59.02 LIG-0.35  N 
ATOM     11 H    LEU G   4      38.285   5.118  23.217  1.00 59.02 LIG 0.16  HD
ATOM     12  C   ILE G   3      39.271   6.551  22.328  1.00 70.10 LIG 0.24  C 
ATOM     13 O    ILE G   3      39.850   7.641  22.536  1.00 64.55 LIG-0.27  OA
BRANCH 12 14
ATOM     14  CA  ILE G   3      39.047   6.015  20.889  1.00 67.83 LIG 0.18  C 
BRANCH 14 15
ATOM     15  CB  ILE G   3      39.780   4.652  20.678  1.00 66.94 LIG 0.01  C 
ATOM     16  CG2 ILE G   3      39.191   3.907  19.481  1.00 67.41 LIG 0.01  C 
BRANCH 15 17
ATOM     17  CG1 ILE G   3      41.313   4.832  20.496  1.00 59.79 LIG 0.00  C 
ATOM     18  CD1 ILE G   3      42.098   4.703  21.775  1.00 60.74 LIG 0.01  C 
ENDBRANCH 15 17
ENDBRANCH 14 15
BRANCH 14 19
ATOM     19  N   ILE G   3      39.494   7.001  19.918  1.00 79.60 LIG-0.34  N 
ATOM     20 H    ILE G   3      40.308   6.890  19.664  1.00 79.60 LIG 0.16  HD
ATOM     21  C   ASP G   2      38.716   7.987  19.462  1.00 93.07 LIG 0.26  C 
ATOM     22 O    ASP G   2      37.523   8.095  19.750  1.00 81.24 LIG-0.27  OA
BRANCH 21 23
ATOM     23  CA  ASP G   2      39.373   9.031  18.550  1.00 93.30 LIG 0.41  C 
ATOM     24  N   ASP G   2      40.820   9.121  18.901  1.00 94.60 LIG 0.61  N 
BRANCH 23 25
ATOM     25  CB  ASP G   2      39.210   8.687  17.062  1.00 96.36 LIG 0.16  C 
BRANCH 25 26
ATOM     26  CG  ASP G   2      39.619   7.265  16.746  1.00103.24 LIG 0.17  C 
ATOM     27 OD1  ASP G   2      40.722   6.847  17.150  1.00112.85 LIG-0.65  OA
ATOM     28 OD2  ASP G   2      38.836   6.555  16.096  1.00105.87 LIG-0.65  OA
ENDBRANCH 25 26
ENDBRANCH 23 25
ENDBRANCH 21 23
ENDBRANCH 14 19
ENDBRANCH 12 14
ENDBRANCH 5 10
ENDBRANCH 1 5
BRANCH 3 29
ATOM     29  CA  PHE G   5      40.621   2.693  25.465  1.00 70.05 LIG 0.18  C 
BRANCH 29 30
ATOM     30  CB  PHE G   5      41.029   2.696  26.952  1.00 73.20 LIG 0.07  C 
BRANCH 30 31
ATOM     31  CG  PHE G   5      39.862   2.415  27.886  1.00 79.36 LIG-0.06  A 
ATOM     32  CD1 PHE G   5      39.979   1.426  28.894  1.00 85.64 LIG 0.01  A 
ATOM     33  CE1 PHE G   5      38.933   1.160  29.769  1.00 88.71 LIG 0.00  A 
ATOM     34  CZ  PHE G   5      37.747   1.892  29.653  1.00 96.11 LIG 0.00  A 
ATOM     35  CE2 PHE G   5      37.619   2.887  28.671  1.00 91.53 LIG 0.00  A 
ATOM     36  CD2 PHE G   5      38.669   3.147  27.796  1.00 81.01 LIG 0.01  A 
ENDBRANCH 30 31
ENDBRANCH 29 30
BRANCH 29 37
ATOM     37  C   PHE G   5      39.829   1.463  25.038  1.00 74.26 LIG 0.24  C 
ATOM     38  N   PRO G   6      39.763   1.208  23.711  1.00 79.01 LIG-0.34  N 
ATOM     39  CD  PRO G   6      40.279   2.120  22.655  1.00 76.17 LIG 0.13  C 
ATOM     40  CA  PRO G   6      38.892   0.159  23.160  1.00 78.34 LIG 0.18  C 
ATOM     41  CG  PRO G   6      40.029   1.368  21.395  1.00 78.03 LIG 0.02  C 
ATOM     42  CB  PRO G   6      38.786   0.566  21.680  1.00 82.73 LIG 0.04  C 
ATOM     43 O    PHE G   5      39.209   0.808  25.885  1.00 61.78 LIG-0.27  OA
BRANCH 40 44
ATOM     44  C   PRO G   6      39.407  -1.293  23.275  1.00 77.34 LIG 0.24  C 
ATOM     45 O    PRO G   6      39.975  -1.796  22.321  1.00 92.50 LIG-0.27  OA
ATOM     46  N   ALA G   7      39.206  -1.949  24.428  1.00 74.20 LIG-0.35  N 
ATOM     47 H    ALA G   7      39.063  -1.553  25.178  1.00 74.20 LIG 0.16  HD
BRANCH 46 48
ATOM     48  CA  ALA G   7      39.210  -3.433  24.522  1.00 71.75 LIG 0.16  C 
ATOM     49  CB  ALA G   7      40.556  -3.994  24.062  1.00 70.01 LIG 0.04  C 
BRANCH 48 50
ATOM     50  C   ALA G   7      38.915  -3.873  25.974  1.00 69.94 LIG 0.22  C 
ATOM     51 O    ALA G   7      38.362  -4.978  26.203  1.00 56.97 LIG-0.29  OA
ENDBRANCH 48 50
ENDBRANCH 46 48
ENDBRANCH 40 44
ENDBRANCH 29 37
ENDBRANCH 3 29
TORSDOF 18
ENDMDL
MODEL 91
USER: ADFR SOLUTION from run 123
USER: SCORE 15.848253 LL:  -5.990 LR: -10.255 RR:   0.000 FEB:  -4.885
USER: RMSD 11.566724
USER: SEED 122
USER: STATUS no improvement in best in 10 clusters for 5 generations
USER: GENES 20
USER: genes 0 Translation |==|  0.52557 0.37429 0.65008
USER: genes 1 Rotation |==|  0.35128 0.24097 0.89764 0.55167
USER: genes 2 Torsion [N]-C--CA-[N] |==|  0.91332
USER: genes 3 Torsion [C]-CA--CB-[CG] |==|  0.61148
USER: genes 4 Torsion [CA]-CB--CG-[CD1] |==|  0.47465
USER: genes 5 Torsion [C]-CA--N-[C] |==|  0.83108
USER: genes 6 Torsion [N]-C--CA-[N] |==|  0.29135
USER: genes 7 Torsion [C]-CA--CB-[CG1] |==|  0.13843
USER: genes 8 Torsion [CA]-CB--CG1-[CD1] |==|  0.27099
USER: genes 9 Torsion [C]-CA--N-[C] |==|  0.77778
USER: genes 10 Torsion [N]-C--CA-[N] |==|  0.24906
USER: genes 11 Torsion [C]-CA--CB-[CG] |==|  0.75833
USER: genes 12 Torsion [CA]-CB--CG-[OD1] |==|  0.80737
USER: genes 13 Torsion [C]-N--CA-[CB] |==|  0.86073
USER: genes 14 Torsion [N]-CA--CB-[CG] |==|  0.40699
USER: genes 15 Torsion [CA]-CB--CG-[CD1] |==|  0.24289
USER: genes 16 Torsion [N]-CA--C-[N] |==|  0.39975
USER: genes 17 Torsion [N]-CA--C-[O] |==|  0.13584
USER: genes 18 Torsion [C]-N--CA-[C] |==|  0.76906
USER: genes 19 Torsion [N]-CA--C-[O] |==|  0.01678
ROOT
ATOM      1  C   LEU G   4      40.381   2.692  25.162  1.00 61.38 LIG 0.24  C 
ATOM      2 O    LEU G   4      41.367   3.414  24.980  1.00 52.06 LIG-0.27  OA
ATOM      3  N   PHE G   5      39.256   3.079  25.739  1.00 60.80 LIG-0.35  N 
ATOM      4 H    PHE G   5      38.573   2.564  25.827  1.00 60.80 LIG 0.16  HD
ENDROOT
BRANCH 1 5
ATOM      5  CA  LEU G   4      40.387   1.247  24.762  1.00 58.56 LIG 0.18  C 
BRANCH 5 6
ATOM      6  CB  LEU G   4      39.866   1.159  23.331  1.00 61.47 LIG 0.04  C 
BRANCH 6 7
ATOM      7  CG  LEU G   4      38.944  -0.013  23.077  1.00 62.80 LIG-0.02  C 
ATOM      8  CD1 LEU G   4      38.348   0.179  21.699  1.00 63.22 LIG 0.01  C 
ATOM      9  CD2 LEU G   4      39.755  -1.304  23.191  1.00 64.86 LIG 0.01  C 
ENDBRANCH 6 7
ENDBRANCH 5 6
BRANCH 5 10
ATOM     10  N   LEU G   4      39.567   0.499  25.695  1.00 59.02 LIG-0.35  N 
ATOM     11 H    LEU G   4      38.892   0.098  25.344  1.00 59.02 LIG 0.16  HD
ATOM     12  C   ILE G   3      39.876   0.465  26.992  1.00 70.10 LIG 0.24  C 
ATOM     13 O    ILE G   3      40.977   0.871  27.426  1.00 64.55 LIG-0.27  OA
BRANCH 12 14
ATOM     14  CA  ILE G   3      38.792  -0.110  27.942  1.00 67.83 LIG 0.18  C 
BRANCH 14 15
ATOM     15  CB  ILE G   3      38.575   0.825  29.174  1.00 66.94 LIG 0.01  C 
ATOM     16  CG2 ILE G   3      39.751   0.714  30.144  1.00 67.41 LIG 0.01  C 
BRANCH 15 17
ATOM     17  CG1 ILE G   3      38.361   2.306  28.758  1.00 59.79 LIG 0.00  C 
ATOM     18  CD1 ILE G   3      36.914   2.719  28.694  1.00 60.74 LIG 0.01  C 
ENDBRANCH 15 17
ENDBRANCH 14 15
BRANCH 14 19
ATOM     19  N   ILE G   3      39.168  -1.450  28.367  1.00 79.60 LIG-0.34  N 
ATOM     20 H    ILE G   3      39.518  -1.477  29.151  1.00 79.60 LIG 0.16  HD
ATOM     21  C   ASP G   2      38.987  -2.536  27.611  1.00 93.07 LIG 0.26  C 
ATOM     22 O    ASP G   2      38.401  -2.517  26.528  1.00 81.24 LIG-0.27  OA
BRANCH 21 23
ATOM     23  CA  ASP G   2      39.563  -3.858  28.137  1.00 93.30 LIG 0.41  C 
ATOM     24  N   ASP G   2      38.526  -4.523  28.976  1.00 94.60 LIG 0.61  N 
BRANCH 23 25
ATOM     25  CB  ASP G   2      40.003  -4.792  27.000  1.00 96.36 LIG 0.16  C 
BRANCH 25 26
ATOM     26  CG  ASP G   2      38.875  -5.662  26.492  1.00103.24 LIG 0.17  C 
ATOM     27 OD1  ASP G   2      38.429  -6.566  27.227  1.00112.85 LIG-0.65  OA
ATOM     28 OD2  ASP G   2      38.423  -5.443  25.358  1.00105.87 LIG-0.65  OA
ENDBRANCH 25 26
ENDBRANCH 23 25
ENDBRANCH 21 23
ENDBRANCH 14 19
ENDBRANCH 12 14
ENDBRANCH 5 10
ENDBRANCH 1 5
BRANCH 3 29
ATOM     29  CA  PHE G   5      39.057   4.395  26.276  1.00 70.05 LIG 0.18  C 
BRANCH 29 30
ATOM     30  CB  PHE G   5      40.225   4.786  27.205  1.00 73.20 LIG 0.07  C 
BRANCH 30 31
ATOM     31  CG  PHE G   5      40.544   6.272  27.161  1.00 79.36 LIG-0.06  A 
ATOM     32  CD1 PHE G   5      39.860   7.172  28.017  1.00 85.64 LIG 0.01  A 
ATOM     33  CE1 PHE G   5      40.143   8.532  28.006  1.00 88.71 LIG 0.00  A 
ATOM     34  CZ  PHE G   5      41.127   9.016  27.139  1.00 96.11 LIG 0.00  A 
ATOM     35  CE2 PHE G   5      41.825   8.137  26.296  1.00 91.53 LIG 0.00  A 
ATOM     36  CD2 PHE G   5      41.537   6.776  26.309  1.00 81.01 LIG 0.01  A 
ENDBRANCH 30 31
ENDBRANCH 29 30
BRANCH 29 37
ATOM     37  C   PHE G   5      38.883   5.314  25.073  1.00 74.26 LIG 0.24  C 
ATOM     38  N   PRO G   6      38.003   6.332  25.204  1.00 79.01 LIG-0.34  N 
ATOM     39  CD  PRO G   6      37.101   6.517  26.373  1.00 76.17 LIG 0.13  C 
ATOM     40  CA  PRO G   6      37.616   7.181  24.067  1.00 78.34 LIG 0.18  C 
ATOM     41  CG  PRO G   6      36.395   7.792  26.068  1.00 78.03 LIG 0.02  C 
ATOM     42  CB  PRO G   6      36.308   7.819  24.565  1.00 82.73 LIG 0.04  C 
ATOM     43 O    PHE G   5      39.463   5.052  24.012  1.00 61.78 LIG-0.27  OA
BRANCH 40 44
ATOM     44  C   PRO G   6      38.621   8.282  23.658  1.00 77.34 LIG 0.24  C 
ATOM     45 O    PRO G   6      39.794   7.986  23.510  1.00 92.50 LIG-0.27  OA
ATOM     46  N   ALA G   7      38.159   9.529  23.482  1.00 74.20 LIG-0.35  N 
ATOM     47 H    ALA G   7      37.334   9.708  23.316  1.00 74.20 LIG 0.16  HD
BRANCH 46 48
ATOM     48  CA  ALA G   7      39.033  10.730  23.559  1.00 71.75 LIG 0.16  C 
ATOM     49  CB  ALA G   7      38.434  11.879  22.747  1.00 70.01 LIG 0.04  C 
BRANCH 48 50
ATOM     50  C   ALA G   7      39.217  11.157  25.033  1.00 69.94 LIG 0.22  C 
ATOM     51 O    ALA G   7      38.757  10.446  25.963  1.00 56.97 LIG-0.29  OA
ENDBRANCH 48 50
ENDBRANCH 46 48
ENDBRANCH 40 44
ENDBRANCH 29 37
ENDBRANCH 3 29
TORSDOF 18
ENDMDL
MODEL 92
USER: ADFR SOLUTION from run 162
USER: SCORE 13.304441 LL:  -4.955 LR: -10.242 RR:   0.000 FEB:  -4.873
USER: RMSD 10.664707
USER: SEED 161
USER: STATUS no improvement in best in 13 clusters for 5 generations
USER: GENES 20
USER: genes 0 Translation |==|  0.47207 0.57963 0.48719
USER: genes 1 Rotation |==|  0.73650 0.42476 0.07032 0.56151
USER: genes 2 Torsion [N]-C--CA-[N] |==|  0.43753
USER: genes 3 Torsion [C]-CA--CB-[CG] |==|  0.51564
USER: genes 4 Torsion [CA]-CB--CG-[CD1] |==|  0.45736
USER: genes 5 Torsion [C]-CA--N-[C] |==|  0.62355
USER: genes 6 Torsion [N]-C--CA-[N] |==|  0.42547
USER: genes 7 Torsion [C]-CA--CB-[CG1] |==|  0.05103
USER: genes 8 Torsion [CA]-CB--CG1-[CD1] |==|  0.26923
USER: genes 9 Torsion [C]-CA--N-[C] |==|  0.65738
USER: genes 10 Torsion [N]-C--CA-[N] |==|  0.75880
USER: genes 11 Torsion [C]-CA--CB-[CG] |==|  0.64392
USER: genes 12 Torsion [CA]-CB--CG-[OD1] |==|  0.67575
USER: genes 13 Torsion [C]-N--CA-[CB] |==|  0.34672
USER: genes 14 Torsion [N]-CA--CB-[CG] |==|  0.80190
USER: genes 15 Torsion [CA]-CB--CG-[CD1] |==|  0.16794
USER: genes 16 Torsion [N]-CA--C-[N] |==|  0.48573
USER: genes 17 Torsion [N]-CA--C-[O] |==|  0.74635
USER: genes 18 Torsion [C]-N--CA-[C] |==|  0.87364
USER: genes 19 Torsion [N]-CA--C-[O] |==|  0.34052
ROOT
ATOM      1  C   LEU G   4      39.498   8.391  22.475  1.00 61.38 LIG 0.24  C 
ATOM      2 O    LEU G   4      40.696   8.374  22.170  1.00 52.06 LIG-0.27  OA
ATOM      3  N   PHE G   5      38.539   8.936  21.746  1.00 60.80 LIG-0.35  N 
ATOM      4 H    PHE G   5      37.709   8.908  21.967  1.00 60.80 LIG 0.16  HD
ENDROOT
BRANCH 1 5
ATOM      5  CA  LEU G   4      39.014   7.804  23.767  1.00 58.56 LIG 0.18  C 
BRANCH 5 6
ATOM      6  CB  LEU G   4      38.856   8.947  24.766  1.00 61.47 LIG 0.04  C 
BRANCH 6 7
ATOM      7  CG  LEU G   4      38.500   8.501  26.167  1.00 62.80 LIG-0.02  C 
ATOM      8  CD1 LEU G   4      38.757   9.676  27.087  1.00 63.22 LIG 0.01  C 
ATOM      9  CD2 LEU G   4      37.038   8.056  26.179  1.00 64.86 LIG 0.01  C 
ENDBRANCH 6 7
ENDBRANCH 5 6
BRANCH 5 10
ATOM     10  N   LEU G   4      39.967   6.807  24.215  1.00 59.02 LIG-0.35  N 
ATOM     11 H    LEU G   4      40.792   7.042  24.156  1.00 59.02 LIG 0.16  HD
ATOM     12  C   ILE G   3      39.547   5.628  24.676  1.00 70.10 LIG 0.24  C 
ATOM     13 O    ILE G   3      38.347   5.409  24.953  1.00 64.55 LIG-0.27  OA
BRANCH 12 14
ATOM     14  CA  ILE G   3      40.633   4.534  24.855  1.00 67.83 LIG 0.18  C 
BRANCH 14 15
ATOM     15  CB  ILE G   3      40.906   3.789  23.510  1.00 66.94 LIG 0.01  C 
ATOM     16  CG2 ILE G   3      40.270   2.399  23.530  1.00 67.41 LIG 0.01  C 
BRANCH 15 17
ATOM     17  CG1 ILE G   3      40.398   4.593  22.280  1.00 59.79 LIG 0.00  C 
ATOM     18  CD1 ILE G   3      41.467   5.407  21.600  1.00 60.74 LIG 0.01  C 
ENDBRANCH 15 17
ENDBRANCH 14 15
BRANCH 14 19
ATOM     19  N   ILE G   3      40.226   3.599  25.893  1.00 79.60 LIG-0.34  N 
ATOM     20 H    ILE G   3      39.464   3.229  25.744  1.00 79.60 LIG 0.16  HD
ATOM     21  C   ASP G   2      40.965   3.336  26.975  1.00 93.07 LIG 0.26  C 
ATOM     22 O    ASP G   2      42.097   3.790  27.147  1.00 81.24 LIG-0.27  OA
BRANCH 21 23
ATOM     23  CA  ASP G   2      40.338   2.436  28.048  1.00 93.30 LIG 0.41  C 
ATOM     24  N   ASP G   2      39.545   3.292  28.976  1.00 94.60 LIG 0.61  N 
BRANCH 23 25
ATOM     25  CB  ASP G   2      39.445   1.344  27.440  1.00 96.36 LIG 0.16  C 
BRANCH 25 26
ATOM     26  CG  ASP G   2      38.066   1.308  28.062  1.00103.24 LIG 0.17  C 
ATOM     27 OD1  ASP G   2      37.709   0.289  28.686  1.00112.85 LIG-0.65  OA
ATOM     28 OD2  ASP G   2      37.334   2.301  27.936  1.00105.87 LIG-0.65  OA
ENDBRANCH 25 26
ENDBRANCH 23 25
ENDBRANCH 21 23
ENDBRANCH 14 19
ENDBRANCH 12 14
ENDBRANCH 5 10
ENDBRANCH 1 5
BRANCH 3 29
ATOM     29  CA  PHE G   5      38.783   9.628  20.513  1.00 70.05 LIG 0.18  C 
BRANCH 29 30
ATOM     30  CB  PHE G   5      37.942   9.019  19.372  1.00 73.20 LIG 0.07  C 
BRANCH 30 31
ATOM     31  CG  PHE G   5      38.434   7.645  18.943  1.00 79.36 LIG-0.06  A 
ATOM     32  CD1 PHE G   5      38.459   6.576  19.874  1.00 85.64 LIG 0.01  A 
ATOM     33  CE1 PHE G   5      38.890   5.309  19.504  1.00 88.71 LIG 0.00  A 
ATOM     34  CZ  PHE G   5      39.298   5.086  18.186  1.00 96.11 LIG 0.00  A 
ATOM     35  CE2 PHE G   5      39.264   6.129  17.246  1.00 91.53 LIG 0.00  A 
ATOM     36  CD2 PHE G   5      38.833   7.397  17.622  1.00 81.01 LIG 0.01  A 
ENDBRANCH 30 31
ENDBRANCH 29 30
BRANCH 29 37
ATOM     37  C   PHE G   5      38.483  11.096  20.793  1.00 74.26 LIG 0.24  C 
ATOM     38  N   PRO G   6      38.744  11.973  19.798  1.00 79.01 LIG-0.34  N 
ATOM     39  CD  PRO G   6      39.433  11.622  18.527  1.00 76.17 LIG 0.13  C 
ATOM     40  CA  PRO G   6      38.664  13.429  20.000  1.00 78.34 LIG 0.18  C 
ATOM     41  CG  PRO G   6      39.417  12.897  17.759  1.00 78.03 LIG 0.02  C 
ATOM     42  CB  PRO G   6      39.484  13.969  18.816  1.00 82.73 LIG 0.04  C 
ATOM     43 O    PHE G   5      38.111  11.442  21.921  1.00 61.78 LIG-0.27  OA
BRANCH 40 44
ATOM     44  C   PRO G   6      37.248  14.047  19.989  1.00 77.34 LIG 0.24  C 
ATOM     45 O    PRO G   6      36.789  14.456  18.937  1.00 92.50 LIG-0.27  OA
ATOM     46  N   ALA G   7      36.575  14.112  21.148  1.00 74.20 LIG-0.35  N 
ATOM     47 H    ALA G   7      36.747  13.608  21.823  1.00 74.20 LIG 0.16  HD
BRANCH 46 48
ATOM     48  CA  ALA G   7      35.459  15.069  21.379  1.00 71.75 LIG 0.16  C 
ATOM     49  CB  ALA G   7      35.104  15.125  22.865  1.00 70.01 LIG 0.04  C 
BRANCH 48 50
ATOM     50  C   ALA G   7      35.852  16.474  20.870  1.00 69.94 LIG 0.22  C 
ATOM     51 O    ALA G   7      35.149  17.055  20.005  1.00 56.97 LIG-0.29  OA
ENDBRANCH 48 50
ENDBRANCH 46 48
ENDBRANCH 40 44
ENDBRANCH 29 37
ENDBRANCH 3 29
TORSDOF 18
ENDMDL
MODEL 93
USER: ADFR SOLUTION from run 62
USER: SCORE 15.125449 LL:  -5.936 LR: -10.236 RR:   0.000 FEB:  -4.866
USER: RMSD 11.155936
USER: SEED 61
USER: STATUS no improvement in best in 17 clusters for 5 generations
USER: GENES 20
USER: genes 0 Translation |==|  0.50463 0.35408 0.57512
USER: genes 1 Rotation |==|  0.08028 0.30949 0.34607 0.61766
USER: genes 2 Torsion [N]-C--CA-[N] |==|  0.41365
USER: genes 3 Torsion [C]-CA--CB-[CG] |==|  0.71302
USER: genes 4 Torsion [CA]-CB--CG-[CD1] |==|  0.21571
USER: genes 5 Torsion [C]-CA--N-[C] |==|  0.64241
USER: genes 6 Torsion [N]-C--CA-[N] |==|  0.96402
USER: genes 7 Torsion [C]-CA--CB-[CG1] |==|  0.89432
USER: genes 8 Torsion [CA]-CB--CG1-[CD1] |==|  0.78655
USER: genes 9 Torsion [C]-CA--N-[C] |==|  0.80496
USER: genes 10 Torsion [N]-C--CA-[N] |==|  0.71435
USER: genes 11 Torsion [C]-CA--CB-[CG] |==|  0.75798
USER: genes 12 Torsion [CA]-CB--CG-[OD1] |==|  0.58619
USER: genes 13 Torsion [C]-N--CA-[CB] |==|  0.21883
USER: genes 14 Torsion [N]-CA--CB-[CG] |==|  0.68302
USER: genes 15 Torsion [CA]-CB--CG-[CD1] |==|  0.27237
USER: genes 16 Torsion [N]-CA--C-[N] |==|  0.42460
USER: genes 17 Torsion [N]-CA--C-[O] |==|  0.26134
USER: genes 18 Torsion [C]-N--CA-[C] |==|  0.13613
USER: genes 19 Torsion [N]-CA--C-[O] |==|  0.25940
ROOT
ATOM      1  C   LEU G   4      40.035   2.132  23.925  1.00 61.38 LIG 0.24  C 
ATOM      2 O    LEU G   4      39.427   1.212  24.483  1.00 52.06 LIG-0.27  OA
ATOM      3  N   PHE G   5      40.005   3.398  24.303  1.00 60.80 LIG-0.35  N 
ATOM      4 H    PHE G   5      40.461   4.015  23.914  1.00 60.80 LIG 0.16  HD
ENDROOT
BRANCH 1 5
ATOM      5  CA  LEU G   4      40.866   1.888  22.700  1.00 58.56 LIG 0.18  C 
BRANCH 5 6
ATOM      6  CB  LEU G   4      39.959   2.057  21.484  1.00 61.47 LIG 0.04  C 
BRANCH 6 7
ATOM      7  CG  LEU G   4      39.525   0.755  20.848  1.00 62.80 LIG-0.02  C 
ATOM      8  CD1 LEU G   4      38.424   0.181  21.715  1.00 63.22 LIG 0.01  C 
ATOM      9  CD2 LEU G   4      39.059   1.041  19.421  1.00 64.86 LIG 0.01  C 
ENDBRANCH 6 7
ENDBRANCH 5 6
BRANCH 5 10
ATOM     10  N   LEU G   4      41.439   0.558  22.780  1.00 59.02 LIG-0.35  N 
ATOM     11 H    LEU G   4      40.876  -0.070  22.946  1.00 59.02 LIG 0.16  HD
ATOM     12  C   ILE G   3      42.748   0.374  22.603  1.00 70.10 LIG 0.24  C 
ATOM     13 O    ILE G   3      43.492   1.271  22.149  1.00 64.55 LIG-0.27  OA
BRANCH 12 14
ATOM     14  CA  ILE G   3      43.304  -1.022  22.991  1.00 67.83 LIG 0.18  C 
BRANCH 14 15
ATOM     15  CB  ILE G   3      43.729  -1.828  21.722  1.00 66.94 LIG 0.01  C 
ATOM     16  CG2 ILE G   3      43.834  -3.319  22.046  1.00 67.41 LIG 0.01  C 
BRANCH 15 17
ATOM     17  CG1 ILE G   3      42.756  -1.605  20.531  1.00 59.79 LIG 0.00  C 
ATOM     18  CD1 ILE G   3      41.460  -2.363  20.652  1.00 60.74 LIG 0.01  C 
ENDBRANCH 15 17
ENDBRANCH 14 15
BRANCH 14 19
ATOM     19  N   ILE G   3      42.310  -1.754  23.761  1.00 79.60 LIG-0.34  N 
ATOM     20 H    ILE G   3      41.966  -2.417  23.337  1.00 79.60 LIG 0.16  HD
ATOM     21  C   ASP G   2      41.963  -1.427  25.009  1.00 93.07 LIG 0.26  C 
ATOM     22 O    ASP G   2      42.519  -0.536  25.655  1.00 81.24 LIG-0.27  OA
BRANCH 21 23
ATOM     23  CA  ASP G   2      40.800  -2.205  25.639  1.00 93.30 LIG 0.41  C 
ATOM     24  N   ASP G   2      39.584  -1.343  25.605  1.00 94.60 LIG 0.61  N 
BRANCH 23 25
ATOM     25  CB  ASP G   2      40.530  -3.532  24.914  1.00 96.36 LIG 0.16  C 
BRANCH 25 26
ATOM     26  CG  ASP G   2      39.585  -3.372  23.742  1.00103.24 LIG 0.17  C 
ATOM     27 OD1  ASP G   2      38.834  -4.319  23.436  1.00112.85 LIG-0.65  OA
ATOM     28 OD2  ASP G   2      39.584  -2.296  23.125  1.00105.87 LIG-0.65  OA
ENDBRANCH 25 26
ENDBRANCH 23 25
ENDBRANCH 21 23
ENDBRANCH 14 19
ENDBRANCH 12 14
ENDBRANCH 5 10
ENDBRANCH 1 5
BRANCH 3 29
ATOM     29  CA  PHE G   5      39.209   3.876  25.398  1.00 70.05 LIG 0.18  C 
BRANCH 29 30
ATOM     30  CB  PHE G   5      39.891   3.558  26.745  1.00 73.20 LIG 0.07  C 
BRANCH 30 31
ATOM     31  CG  PHE G   5      39.106   2.562  27.585  1.00 79.36 LIG-0.06  A 
ATOM     32  CD1 PHE G   5      39.462   1.190  27.579  1.00 85.64 LIG 0.01  A 
ATOM     33  CE1 PHE G   5      38.770   0.263  28.348  1.00 88.71 LIG 0.00  A 
ATOM     34  CZ  PHE G   5      37.709   0.698  29.147  1.00 96.11 LIG 0.00  A 
ATOM     35  CE2 PHE G   5      37.353   2.056  29.178  1.00 91.53 LIG 0.00  A 
ATOM     36  CD2 PHE G   5      38.047   2.980  28.404  1.00 81.01 LIG 0.01  A 
ENDBRANCH 30 31
ENDBRANCH 29 30
BRANCH 29 37
ATOM     37  C   PHE G   5      38.998   5.363  25.141  1.00 74.26 LIG 0.24  C 
ATOM     38  N   PRO G   6      37.879   5.919  25.658  1.00 79.01 LIG-0.34  N 
ATOM     39  CD  PRO G   6      36.789   5.153  26.320  1.00 76.17 LIG 0.13  C 
ATOM     40  CA  PRO G   6      37.472   7.296  25.338  1.00 78.34 LIG 0.18  C 
ATOM     41  CG  PRO G   6      35.839   6.211  26.761  1.00 78.03 LIG 0.02  C 
ATOM     42  CB  PRO G   6      35.984   7.296  25.727  1.00 82.73 LIG 0.04  C 
ATOM     43 O    PHE G   5      39.783   5.977  24.409  1.00 61.78 LIG-0.27  OA
BRANCH 40 44
ATOM     44  C   PRO G   6      38.216   8.425  26.087  1.00 77.34 LIG 0.24  C 
ATOM     45 O    PRO G   6      39.186   8.943  25.563  1.00 92.50 LIG-0.27  OA
ATOM     46  N   ALA G   7      37.761   8.791  27.295  1.00 74.20 LIG-0.35  N 
ATOM     47 H    ALA G   7      36.956   8.646  27.561  1.00 74.20 LIG 0.16  HD
BRANCH 46 48
ATOM     48  CA  ALA G   7      38.611   9.486  28.299  1.00 71.75 LIG 0.16  C 
ATOM     49  CB  ALA G   7      39.627   8.517  28.903  1.00 70.01 LIG 0.04  C 
BRANCH 48 50
ATOM     50  C   ALA G   7      39.338  10.681  27.640  1.00 69.94 LIG 0.22  C 
ATOM     51 O    ALA G   7      38.834  11.832  27.680  1.00 56.97 LIG-0.29  OA
ENDBRANCH 48 50
ENDBRANCH 46 48
ENDBRANCH 40 44
ENDBRANCH 29 37
ENDBRANCH 3 29
TORSDOF 18
ENDMDL
MODEL 94
USER: ADFR SOLUTION from run 23
USER: SCORE 13.738824 LL:  -4.651 LR: -10.236 RR:   0.000 FEB:  -4.866
USER: RMSD 7.208349
USER: SEED 22
USER: STATUS no improvement in best in 16 clusters for 5 generations
USER: GENES 20
USER: genes 0 Translation |==|  0.42702 0.67754 0.51211
USER: genes 1 Rotation |==|  0.67637 0.04337 0.42252 0.56620
USER: genes 2 Torsion [N]-C--CA-[N] |==|  0.34099
USER: genes 3 Torsion [C]-CA--CB-[CG] |==|  0.30010
USER: genes 4 Torsion [CA]-CB--CG-[CD1] |==|  0.66576
USER: genes 5 Torsion [C]-CA--N-[C] |==|  0.58788
USER: genes 6 Torsion [N]-C--CA-[N] |==|  0.14594
USER: genes 7 Torsion [C]-CA--CB-[CG1] |==|  0.77661
USER: genes 8 Torsion [CA]-CB--CG1-[CD1] |==|  0.30321
USER: genes 9 Torsion [C]-CA--N-[C] |==|  0.62222
USER: genes 10 Torsion [N]-C--CA-[N] |==|  0.48726
USER: genes 11 Torsion [C]-CA--CB-[CG] |==|  0.83425
USER: genes 12 Torsion [CA]-CB--CG-[OD1] |==|  0.82891
USER: genes 13 Torsion [C]-N--CA-[CB] |==|  0.16644
USER: genes 14 Torsion [N]-CA--CB-[CG] |==|  0.50016
USER: genes 15 Torsion [CA]-CB--CG-[CD1] |==|  0.55914
USER: genes 16 Torsion [N]-CA--C-[N] |==|  0.16072
USER: genes 17 Torsion [N]-CA--C-[O] |==|  0.71508
USER: genes 18 Torsion [C]-N--CA-[C] |==|  0.16396
USER: genes 19 Torsion [N]-CA--C-[O] |==|  0.66734
ROOT
ATOM      1  C   LEU G   4      38.755  11.108  22.886  1.00 61.38 LIG 0.24  C 
ATOM      2 O    LEU G   4      39.451  11.136  23.906  1.00 52.06 LIG-0.27  OA
ATOM      3  N   PHE G   5      38.455  10.016  22.205  1.00 60.80 LIG-0.35  N 
ATOM      4 H    PHE G   5      37.943  10.020  21.514  1.00 60.80 LIG 0.16  HD
ENDROOT
BRANCH 1 5
ATOM      5  CA  LEU G   4      38.198  12.365  22.286  1.00 58.56 LIG 0.18  C 
BRANCH 5 6
ATOM      6  CB  LEU G   4      39.375  13.228  21.843  1.00 61.47 LIG 0.04  C 
BRANCH 6 7
ATOM      7  CG  LEU G   4      39.558  13.304  20.343  1.00 62.80 LIG-0.02  C 
ATOM      8  CD1 LEU G   4      40.939  12.765  20.035  1.00 63.22 LIG 0.01  C 
ATOM      9  CD2 LEU G   4      38.449  12.493  19.675  1.00 64.86 LIG 0.01  C 
ENDBRANCH 6 7
ENDBRANCH 5 6
BRANCH 5 10
ATOM     10  N   LEU G   4      37.368  13.027  23.274  1.00 59.02 LIG-0.35  N 
ATOM     11 H    LEU G   4      37.617  12.917  24.090  1.00 59.02 LIG 0.16  HD
ATOM     12  C   ILE G   3      36.308  13.743  22.897  1.00 70.10 LIG 0.24  C 
ATOM     13 O    ILE G   3      36.109  14.062  21.704  1.00 64.55 LIG-0.27  OA
BRANCH 12 14
ATOM     14  CA  ILE G   3      35.329  14.166  24.024  1.00 67.83 LIG 0.18  C 
BRANCH 14 15
ATOM     15  CB  ILE G   3      34.198  15.088  23.467  1.00 66.94 LIG 0.01  C 
ATOM     16  CG2 ILE G   3      32.963  15.024  24.366  1.00 67.41 LIG 0.01  C 
BRANCH 15 17
ATOM     17  CG1 ILE G   3      34.667  16.561  23.305  1.00 59.79 LIG 0.00  C 
ATOM     18  CD1 ILE G   3      34.831  16.994  21.872  1.00 60.74 LIG 0.01  C 
ENDBRANCH 15 17
ENDBRANCH 14 15
BRANCH 14 19
ATOM     19  N   ILE G   3      36.061  14.830  25.092  1.00 79.60 LIG-0.34  N 
ATOM     20 H    ILE G   3      36.640  15.398  24.811  1.00 79.60 LIG 0.16  HD
ATOM     21  C   ASP G   2      35.853  14.581  26.388  1.00 93.07 LIG 0.26  C 
ATOM     22 O    ASP G   2      34.960  13.838  26.800  1.00 81.24 LIG-0.27  OA
BRANCH 21 23
ATOM     23  CA  ASP G   2      36.800  15.254  27.390  1.00 93.30 LIG 0.41  C 
ATOM     24  N   ASP G   2      36.329  14.939  28.769  1.00 94.60 LIG 0.61  N 
BRANCH 23 25
ATOM     25  CB  ASP G   2      38.255  14.798  27.210  1.00 96.36 LIG 0.16  C 
BRANCH 25 26
ATOM     26  CG  ASP G   2      38.423  13.305  27.391  1.00103.24 LIG 0.17  C 
ATOM     27 OD1  ASP G   2      38.139  12.792  28.491  1.00112.85 LIG-0.65  OA
ATOM     28 OD2  ASP G   2      38.834  12.635  26.431  1.00105.87 LIG-0.65  OA
ENDBRANCH 25 26
ENDBRANCH 23 25
ENDBRANCH 21 23
ENDBRANCH 14 19
ENDBRANCH 12 14
ENDBRANCH 5 10
ENDBRANCH 1 5
BRANCH 3 29
ATOM     29  CA  PHE G   5      38.949   8.712  22.546  1.00 70.05 LIG 0.18  C 
BRANCH 29 30
ATOM     30  CB  PHE G   5      38.502   8.317  23.969  1.00 73.20 LIG 0.07  C 
BRANCH 30 31
ATOM     31  CG  PHE G   5      39.001   6.941  24.385  1.00 79.36 LIG-0.06  A 
ATOM     32  CD1 PHE G   5      38.348   6.232  25.424  1.00 85.64 LIG 0.01  A 
ATOM     33  CE1 PHE G   5      38.775   4.968  25.812  1.00 88.71 LIG 0.00  A 
ATOM     34  CZ  PHE G   5      39.863   4.386  25.156  1.00 96.11 LIG 0.00  A 
ATOM     35  CE2 PHE G   5      40.512   5.067  24.114  1.00 91.53 LIG 0.00  A 
ATOM     36  CD2 PHE G   5      40.082   6.334  23.730  1.00 81.01 LIG 0.01  A 
ENDBRANCH 30 31
ENDBRANCH 29 30
BRANCH 29 37
ATOM     37  C   PHE G   5      38.446   7.777  21.453  1.00 74.26 LIG 0.24  C 
ATOM     38  N   PRO G   6      38.802   8.074  20.183  1.00 79.01 LIG-0.34  N 
ATOM     39  CD  PRO G   6      39.513   9.317  19.780  1.00 76.17 LIG 0.13  C 
ATOM     40  CA  PRO G   6      38.242   7.357  19.027  1.00 78.34 LIG 0.18  C 
ATOM     41  CG  PRO G   6      39.724   9.137  18.317  1.00 78.03 LIG 0.02  C 
ATOM     42  CB  PRO G   6      38.540   8.323  17.867  1.00 82.73 LIG 0.04  C 
ATOM     43 O    PHE G   5      37.672   6.856  21.742  1.00 61.78 LIG-0.27  OA
BRANCH 40 44
ATOM     44  C   PRO G   6      38.843   5.965  18.725  1.00 77.34 LIG 0.24  C 
ATOM     45 O    PRO G   6      39.641   5.852  17.811  1.00 92.50 LIG-0.27  OA
ATOM     46  N   ALA G   7      38.459   4.929  19.486  1.00 74.20 LIG-0.35  N 
ATOM     47 H    ALA G   7      38.128   5.019  20.275  1.00 74.20 LIG 0.16  HD
BRANCH 46 48
ATOM     48  CA  ALA G   7      38.569   3.516  19.037  1.00 71.75 LIG 0.16  C 
ATOM     49  CB  ALA G   7      37.692   3.275  17.809  1.00 70.01 LIG 0.04  C 
BRANCH 48 50
ATOM     50  C   ALA G   7      40.042   3.175  18.716  1.00 69.94 LIG 0.22  C 
ATOM     51 O    ALA G   7      40.372   2.807  17.560  1.00 56.97 LIG-0.29  OA
ENDBRANCH 48 50
ENDBRANCH 46 48
ENDBRANCH 40 44
ENDBRANCH 29 37
ENDBRANCH 3 29
TORSDOF 18
ENDMDL
MODEL 95
USER: ADFR SOLUTION from run 32
USER: SCORE 13.555904 LL:  -4.908 LR: -10.227 RR:   0.000 FEB:  -4.857
USER: RMSD 4.552408
USER: SEED 31
USER: STATUS no improvement in best in 32 clusters for 5 generations
USER: GENES 20
USER: genes 0 Translation |==|  0.44252 0.48175 0.63133
USER: genes 1 Rotation |==|  0.43105 0.44426 0.38144 0.97758
USER: genes 2 Torsion [N]-C--CA-[N] |==|  0.50917
USER: genes 3 Torsion [C]-CA--CB-[CG] |==|  0.83967
USER: genes 4 Torsion [CA]-CB--CG-[CD1] |==|  0.41763
USER: genes 5 Torsion [C]-CA--N-[C] |==|  0.79906
USER: genes 6 Torsion [N]-C--CA-[N] |==|  0.18333
USER: genes 7 Torsion [C]-CA--CB-[CG1] |==|  0.50073
USER: genes 8 Torsion [CA]-CB--CG1-[CD1] |==|  0.85049
USER: genes 9 Torsion [C]-CA--N-[C] |==|  0.17165
USER: genes 10 Torsion [N]-C--CA-[N] |==|  0.54796
USER: genes 11 Torsion [C]-CA--CB-[CG] |==|  0.41412
USER: genes 12 Torsion [CA]-CB--CG-[OD1] |==|  0.98363
USER: genes 13 Torsion [C]-N--CA-[CB] |==|  0.15622
USER: genes 14 Torsion [N]-CA--CB-[CG] |==|  0.59931
USER: genes 15 Torsion [CA]-CB--CG-[CD1] |==|  0.91347
USER: genes 16 Torsion [N]-CA--C-[N] |==|  0.20435
USER: genes 17 Torsion [N]-CA--C-[O] |==|  0.47104
USER: genes 18 Torsion [C]-N--CA-[C] |==|  0.72366
USER: genes 19 Torsion [N]-CA--C-[O] |==|  0.90241
ROOT
ATOM      1  C   LEU G   4      39.011   5.675  24.853  1.00 61.38 LIG 0.24  C 
ATOM      2 O    LEU G   4      38.846   5.451  23.649  1.00 52.06 LIG-0.27  OA
ATOM      3  N   PHE G   5      39.279   4.755  25.764  1.00 60.80 LIG-0.35  N 
ATOM      4 H    PHE G   5      39.418   4.941  26.591  1.00 60.80 LIG 0.16  HD
ENDROOT
BRANCH 1 5
ATOM      5  CA  LEU G   4      38.879   7.059  25.415  1.00 58.56 LIG 0.18  C 
BRANCH 5 6
ATOM      6  CB  LEU G   4      37.831   7.012  26.523  1.00 61.47 LIG 0.04  C 
BRANCH 6 7
ATOM      7  CG  LEU G   4      36.477   6.508  26.075  1.00 62.80 LIG-0.02  C 
ATOM      8  CD1 LEU G   4      35.834   5.835  27.270  1.00 63.22 LIG 0.01  C 
ATOM      9  CD2 LEU G   4      35.661   7.694  25.562  1.00 64.86 LIG 0.01  C 
ENDBRANCH 6 7
ENDBRANCH 5 6
BRANCH 5 10
ATOM     10  N   LEU G   4      38.509   7.965  24.345  1.00 59.02 LIG-0.35  N 
ATOM     11 H    LEU G   4      37.697   8.246  24.372  1.00 59.02 LIG 0.16  HD
ATOM     12  C   ILE G   3      39.398   8.308  23.411  1.00 70.10 LIG 0.24  C 
ATOM     13 O    ILE G   3      40.618   8.059  23.529  1.00 64.55 LIG-0.27  OA
BRANCH 12 14
ATOM     14  CA  ILE G   3      38.836   9.040  22.163  1.00 67.83 LIG 0.18  C 
BRANCH 14 15
ATOM     15  CB  ILE G   3      39.929   9.180  21.057  1.00 66.94 LIG 0.01  C 
ATOM     16  CG2 ILE G   3      40.481   7.806  20.673  1.00 67.41 LIG 0.01  C 
BRANCH 15 17
ATOM     17  CG1 ILE G   3      39.397   9.915  19.795  1.00 59.79 LIG 0.00  C 
ATOM     18  CD1 ILE G   3      38.145   9.308  19.218  1.00 60.74 LIG 0.01  C 
ENDBRANCH 15 17
ENDBRANCH 14 15
BRANCH 14 19
ATOM     19  N   ILE G   3      38.316  10.343  22.547  1.00 79.60 LIG-0.34  N 
ATOM     20 H    ILE G   3      37.474  10.435  22.399  1.00 79.60 LIG 0.16  HD
ATOM     21  C   ASP G   2      39.072  11.307  23.079  1.00 93.07 LIG 0.26  C 
ATOM     22 O    ASP G   2      40.257  11.149  23.379  1.00 81.24 LIG-0.27  OA
BRANCH 21 23
ATOM     23  CA  ASP G   2      38.411  12.674  23.298  1.00 93.30 LIG 0.41  C 
ATOM     24  N   ASP G   2      39.483  13.692  23.486  1.00 94.60 LIG 0.61  N 
BRANCH 23 25
ATOM     25  CB  ASP G   2      37.501  13.073  22.127  1.00 96.36 LIG 0.16  C 
BRANCH 25 26
ATOM     26  CG  ASP G   2      36.332  13.930  22.565  1.00103.24 LIG 0.17  C 
ATOM     27 OD1  ASP G   2      36.150  14.131  23.782  1.00112.85 LIG-0.65  OA
ATOM     28 OD2  ASP G   2      35.593  14.412  21.693  1.00105.87 LIG-0.65  OA
ENDBRANCH 25 26
ENDBRANCH 23 25
ENDBRANCH 21 23
ENDBRANCH 14 19
ENDBRANCH 12 14
ENDBRANCH 5 10
ENDBRANCH 1 5
BRANCH 3 29
ATOM     29  CA  PHE G   5      39.366   3.353  25.467  1.00 70.05 LIG 0.18  C 
BRANCH 29 30
ATOM     30  CB  PHE G   5      40.410   3.095  24.361  1.00 73.20 LIG 0.07  C 
BRANCH 30 31
ATOM     31  CG  PHE G   5      40.011   1.965  23.424  1.00 79.36 LIG-0.06  A 
ATOM     32  CD1 PHE G   5      39.235   0.882  23.906  1.00 85.64 LIG 0.01  A 
ATOM     33  CE1 PHE G   5      38.846  -0.155  23.068  1.00 88.71 LIG 0.00  A 
ATOM     34  CZ  PHE G   5      39.223  -0.121  21.722  1.00 96.11 LIG 0.00  A 
ATOM     35  CE2 PHE G   5      39.978   0.953  21.223  1.00 91.53 LIG 0.00  A 
ATOM     36  CD2 PHE G   5      40.368   1.988  22.068  1.00 81.01 LIG 0.01  A 
ENDBRANCH 30 31
ENDBRANCH 29 30
BRANCH 29 37
ATOM     37  C   PHE G   5      39.679   2.666  26.791  1.00 74.26 LIG 0.24  C 
ATOM     38  N   PRO G   6      38.671   2.579  27.688  1.00 79.01 LIG-0.34  N 
ATOM     39  CD  PRO G   6      37.343   3.232  27.525  1.00 76.17 LIG 0.13  C 
ATOM     40  CA  PRO G   6      38.887   2.099  29.061  1.00 78.34 LIG 0.18  C 
ATOM     41  CG  PRO G   6      36.587   2.784  28.726  1.00 78.03 LIG 0.02  C 
ATOM     42  CB  PRO G   6      37.639   2.626  29.792  1.00 82.73 LIG 0.04  C 
ATOM     43 O    PHE G   5      40.837   2.306  27.037  1.00 61.78 LIG-0.27  OA
BRANCH 40 44
ATOM     44  C   PRO G   6      39.001   0.569  29.245  1.00 77.34 LIG 0.24  C 
ATOM     45 O    PRO G   6      39.369   0.128  30.320  1.00 92.50 LIG-0.27  OA
ATOM     46  N   ALA G   7      38.690  -0.220  28.205  1.00 74.20 LIG-0.35  N 
ATOM     47 H    ALA G   7      38.188   0.032  27.554  1.00 74.20 LIG 0.16  HD
BRANCH 46 48
ATOM     48  CA  ALA G   7      39.188  -1.616  28.076  1.00 71.75 LIG 0.16  C 
ATOM     49  CB  ALA G   7      38.077  -2.534  27.565  1.00 70.01 LIG 0.04  C 
BRANCH 48 50
ATOM     50  C   ALA G   7      40.400  -1.659  27.118  1.00 69.94 LIG 0.22  C 
ATOM     51 O    ALA G   7      40.451  -0.892  26.122  1.00 56.97 LIG-0.29  OA
ENDBRANCH 48 50
ENDBRANCH 46 48
ENDBRANCH 40 44
ENDBRANCH 29 37
ENDBRANCH 3 29
TORSDOF 18
ENDMDL
MODEL 96
USER: ADFR SOLUTION from run 195
USER: SCORE 14.260700 LL:  -5.217 LR: -10.219 RR:   0.000 FEB:  -4.850
USER: RMSD 8.868773
USER: SEED 194
USER: STATUS no improvement in best in 30 clusters for 5 generations
USER: GENES 20
USER: genes 0 Translation |==|  0.47862 0.34467 0.61832
USER: genes 1 Rotation |==|  0.42303 0.19382 0.85763 0.64976
USER: genes 2 Torsion [N]-C--CA-[N] |==|  0.42380
USER: genes 3 Torsion [C]-CA--CB-[CG] |==|  0.46989
USER: genes 4 Torsion [CA]-CB--CG-[CD1] |==|  0.26917
USER: genes 5 Torsion [C]-CA--N-[C] |==|  0.60916
USER: genes 6 Torsion [N]-C--CA-[N] |==|  0.87974
USER: genes 7 Torsion [C]-CA--CB-[CG1] |==|  0.89032
USER: genes 8 Torsion [CA]-CB--CG1-[CD1] |==|  0.78058
USER: genes 9 Torsion [C]-CA--N-[C] |==|  0.61162
USER: genes 10 Torsion [N]-C--CA-[N] |==|  0.57891
USER: genes 11 Torsion [C]-CA--CB-[CG] |==|  0.64290
USER: genes 12 Torsion [CA]-CB--CG-[OD1] |==|  0.30477
USER: genes 13 Torsion [C]-N--CA-[CB] |==|  0.83889
USER: genes 14 Torsion [N]-CA--CB-[CG] |==|  0.44587
USER: genes 15 Torsion [CA]-CB--CG-[CD1] |==|  0.21849
USER: genes 16 Torsion [N]-CA--C-[N] |==|  0.30295
USER: genes 17 Torsion [N]-CA--C-[O] |==|  0.25334
USER: genes 18 Torsion [C]-N--CA-[C] |==|  0.16322
USER: genes 19 Torsion [N]-CA--C-[O] |==|  0.32513
ROOT
ATOM      1  C   LEU G   4      39.606   1.871  24.638  1.00 61.38 LIG 0.24  C 
ATOM      2 O    LEU G   4      40.596   2.556  24.359  1.00 52.06 LIG-0.27  OA
ATOM      3  N   PHE G   5      38.826   2.059  25.688  1.00 60.80 LIG-0.35  N 
ATOM      4 H    PHE G   5      38.126   1.585  25.844  1.00 60.80 LIG 0.16  HD
ENDROOT
BRANCH 1 5
ATOM      5  CA  LEU G   4      39.209   0.695  23.796  1.00 58.56 LIG 0.18  C 
BRANCH 5 6
ATOM      6  CB  LEU G   4      39.856  -0.548  24.400  1.00 61.47 LIG 0.04  C 
BRANCH 6 7
ATOM      7  CG  LEU G   4      39.350  -1.853  23.824  1.00 62.80 LIG-0.02  C 
ATOM      8  CD1 LEU G   4      40.333  -2.279  22.755  1.00 63.22 LIG 0.01  C 
ATOM      9  CD2 LEU G   4      39.236  -2.873  24.956  1.00 64.86 LIG 0.01  C 
ENDBRANCH 6 7
ENDBRANCH 5 6
BRANCH 5 10
ATOM     10  N   LEU G   4      39.637   0.931  22.430  1.00 59.02 LIG-0.35  N 
ATOM     11 H    LEU G   4      40.406   1.307  22.351  1.00 59.02 LIG 0.16  HD
ATOM     12  C   ILE G   3      38.860   0.575  21.407  1.00 70.10 LIG 0.24  C 
ATOM     13 O    ILE G   3      37.860  -0.163  21.553  1.00 64.55 LIG-0.27  OA
BRANCH 12 14
ATOM     14  CA  ILE G   3      39.265   1.125  20.013  1.00 67.83 LIG 0.18  C 
BRANCH 14 15
ATOM     15  CB  ILE G   3      40.432   0.289  19.399  1.00 66.94 LIG 0.01  C 
ATOM     16  CG2 ILE G   3      41.102   1.060  18.261  1.00 67.41 LIG 0.01  C 
BRANCH 15 17
ATOM     17  CG1 ILE G   3      41.488  -0.118  20.464  1.00 59.79 LIG 0.00  C 
ATOM     18  CD1 ILE G   3      42.449   0.984  20.822  1.00 60.74 LIG 0.01  C 
ENDBRANCH 15 17
ENDBRANCH 14 15
BRANCH 14 19
ATOM     19  N   ILE G   3      39.634   2.528  20.123  1.00 79.60 LIG-0.34  N 
ATOM     20 H    ILE G   3      40.092   2.709  20.827  1.00 79.60 LIG 0.16  HD
ATOM     21  C   ASP G   2      39.294   3.448  19.216  1.00 93.07 LIG 0.26  C 
ATOM     22 O    ASP G   2      38.720   3.178  18.160  1.00 81.24 LIG-0.27  OA
BRANCH 21 23
ATOM     23  CA  ASP G   2      39.633   4.909  19.542  1.00 93.30 LIG 0.41  C 
ATOM     24  N   ASP G   2      38.642   5.787  18.856  1.00 94.60 LIG 0.61  N 
BRANCH 23 25
ATOM     25  CB  ASP G   2      39.627   5.183  21.053  1.00 96.36 LIG 0.16  C 
BRANCH 25 26
ATOM     26  CG  ASP G   2      38.773   6.376  21.425  1.00103.24 LIG 0.17  C 
ATOM     27 OD1  ASP G   2      37.703   6.189  22.036  1.00112.85 LIG-0.65  OA
ATOM     28 OD2  ASP G   2      39.171   7.509  21.112  1.00105.87 LIG-0.65  OA
ENDBRANCH 25 26
ENDBRANCH 23 25
ENDBRANCH 21 23
ENDBRANCH 14 19
ENDBRANCH 12 14
ENDBRANCH 5 10
ENDBRANCH 1 5
BRANCH 3 29
ATOM     29  CA  PHE G   5      39.066   3.072  26.677  1.00 70.05 LIG 0.18  C 
BRANCH 29 30
ATOM     30  CB  PHE G   5      40.458   2.891  27.315  1.00 73.20 LIG 0.07  C 
BRANCH 30 31
ATOM     31  CG  PHE G   5      40.964   4.152  27.998  1.00 79.36 LIG-0.06  A 
ATOM     32  CD1 PHE G   5      40.482   4.509  29.283  1.00 85.64 LIG 0.01  A 
ATOM     33  CE1 PHE G   5      40.939   5.647  29.934  1.00 88.71 LIG 0.00  A 
ATOM     34  CZ  PHE G   5      41.898   6.450  29.309  1.00 96.11 LIG 0.00  A 
ATOM     35  CE2 PHE G   5      42.399   6.104  28.044  1.00 91.53 LIG 0.00  A 
ATOM     36  CD2 PHE G   5      41.937   4.963  27.395  1.00 81.01 LIG 0.01  A 
ENDBRANCH 30 31
ENDBRANCH 29 30
BRANCH 29 37
ATOM     37  C   PHE G   5      38.876   4.404  25.962  1.00 74.26 LIG 0.24  C 
ATOM     38  N   PRO G   6      37.776   5.121  26.287  1.00 79.01 LIG-0.34  N 
ATOM     39  CD  PRO G   6      36.684   4.630  27.170  1.00 76.17 LIG 0.13  C 
ATOM     40  CA  PRO G   6      37.388   6.332  25.548  1.00 78.34 LIG 0.18  C 
ATOM     41  CG  PRO G   6      35.761   5.794  27.262  1.00 78.03 LIG 0.02  C 
ATOM     42  CB  PRO G   6      35.907   6.490  25.934  1.00 82.73 LIG 0.04  C 
ATOM     43 O    PHE G   5      39.659   4.736  25.064  1.00 61.78 LIG-0.27  OA
BRANCH 40 44
ATOM     44  C   PRO G   6      38.164   7.624  25.891  1.00 77.34 LIG 0.24  C 
ATOM     45 O    PRO G   6      39.165   7.900  25.252  1.00 92.50 LIG-0.27  OA
ATOM     46  N   ALA G   7      37.703   8.396  26.886  1.00 74.20 LIG-0.35  N 
ATOM     47 H    ALA G   7      36.888   8.378  27.160  1.00 74.20 LIG 0.16  HD
BRANCH 46 48
ATOM     48  CA  ALA G   7      38.563   9.365  27.618  1.00 71.75 LIG 0.16  C 
ATOM     49  CB  ALA G   7      39.680   8.633  28.361  1.00 70.01 LIG 0.04  C 
BRANCH 48 50
ATOM     50  C   ALA G   7      39.161  10.393  26.631  1.00 69.94 LIG 0.22  C 
ATOM     51 O    ALA G   7      38.876  11.614  26.735  1.00 56.97 LIG-0.29  OA
ENDBRANCH 48 50
ENDBRANCH 46 48
ENDBRANCH 40 44
ENDBRANCH 29 37
ENDBRANCH 3 29
TORSDOF 18
ENDMDL
MODEL 97
USER: ADFR SOLUTION from run 200
USER: SCORE 13.513412 LL:  -5.287 LR: -10.207 RR:   0.000 FEB:  -4.838
USER: RMSD 5.395292
USER: SEED 199
USER: STATUS no improvement in best in 8 clusters for 5 generations
USER: GENES 20
USER: genes 0 Translation |==|  0.45214 0.53084 0.58524
USER: genes 1 Rotation |==|  0.71757 0.15858 0.55963 0.78731
USER: genes 2 Torsion [N]-C--CA-[N] |==|  0.76284
USER: genes 3 Torsion [C]-CA--CB-[CG] |==|  0.24953
USER: genes 4 Torsion [CA]-CB--CG-[CD1] |==|  0.23796
USER: genes 5 Torsion [C]-CA--N-[C] |==|  0.86019
USER: genes 6 Torsion [N]-C--CA-[N] |==|  0.43578
USER: genes 7 Torsion [C]-CA--CB-[CG1] |==|  0.36278
USER: genes 8 Torsion [CA]-CB--CG1-[CD1] |==|  0.18303
USER: genes 9 Torsion [C]-CA--N-[C] |==|  0.76483
USER: genes 10 Torsion [N]-C--CA-[N] |==|  0.19502
USER: genes 11 Torsion [C]-CA--CB-[CG] |==|  0.57250
USER: genes 12 Torsion [CA]-CB--CG-[OD1] |==|  0.17102
USER: genes 13 Torsion [C]-N--CA-[CB] |==|  0.24444
USER: genes 14 Torsion [N]-CA--CB-[CG] |==|  0.87491
USER: genes 15 Torsion [CA]-CB--CG-[CD1] |==|  0.27415
USER: genes 16 Torsion [N]-CA--C-[N] |==|  0.81238
USER: genes 17 Torsion [N]-CA--C-[O] |==|  0.66015
USER: genes 18 Torsion [C]-N--CA-[C] |==|  0.50734
USER: genes 19 Torsion [N]-CA--C-[O] |==|  0.61715
ROOT
ATOM      1  C   LEU G   4      39.169   7.037  24.092  1.00 61.38 LIG 0.24  C 
ATOM      2 O    LEU G   4      39.966   7.981  24.112  1.00 52.06 LIG-0.27  OA
ATOM      3  N   PHE G   5      39.464   5.791  24.421  1.00 60.80 LIG-0.35  N 
ATOM      4 H    PHE G   5      38.883   5.158  24.427  1.00 60.80 LIG 0.16  HD
ENDROOT
BRANCH 1 5
ATOM      5  CA  LEU G   4      37.751   7.222  23.640  1.00 58.56 LIG 0.18  C 
BRANCH 5 6
ATOM      6  CB  LEU G   4      36.872   6.301  24.481  1.00 61.47 LIG 0.04  C 
BRANCH 6 7
ATOM      7  CG  LEU G   4      36.353   6.933  25.754  1.00 62.80 LIG-0.02  C 
ATOM      8  CD1 LEU G   4      35.085   7.679  25.396  1.00 63.22 LIG 0.01  C 
ATOM      9  CD2 LEU G   4      36.113   5.829  26.783  1.00 64.86 LIG 0.01  C 
ENDBRANCH 6 7
ENDBRANCH 5 6
BRANCH 5 10
ATOM     10  N   LEU G   4      37.669   6.921  22.224  1.00 59.02 LIG-0.35  N 
ATOM     11 H    LEU G   4      37.045   6.371  22.005  1.00 59.02 LIG 0.16  HD
ATOM     12  C   ILE G   3      38.520   7.479  21.362  1.00 70.10 LIG 0.24  C 
ATOM     13 O    ILE G   3      39.262   8.434  21.682  1.00 64.55 LIG-0.27  OA
BRANCH 12 14
ATOM     14  CA  ILE G   3      38.541   6.881  19.931  1.00 67.83 LIG 0.18  C 
BRANCH 14 15
ATOM     15  CB  ILE G   3      39.389   5.571  19.883  1.00 66.94 LIG 0.01  C 
ATOM     16  CG2 ILE G   3      39.809   5.154  21.293  1.00 67.41 LIG 0.01  C 
BRANCH 15 17
ATOM     17  CG1 ILE G   3      38.635   4.407  19.183  1.00 59.79 LIG 0.00  C 
ATOM     18  CD1 ILE G   3      38.379   4.640  17.717  1.00 60.74 LIG 0.01  C 
ENDBRANCH 15 17
ENDBRANCH 14 15
BRANCH 14 19
ATOM     19  N   ILE G   3      39.054   7.866  18.991  1.00 79.60 LIG-0.34  N 
ATOM     20 H    ILE G   3      39.895   7.787  18.834  1.00 79.60 LIG 0.16  HD
ATOM     21  C   ASP G   2      38.291   8.805  18.423  1.00 93.07 LIG 0.26  C 
ATOM     22 O    ASP G   2      37.070   8.865  18.571  1.00 81.24 LIG-0.27  OA
BRANCH 21 23
ATOM     23  CA  ASP G   2      39.003   9.858  17.564  1.00 93.30 LIG 0.41  C 
ATOM     24  N   ASP G   2      39.490   9.200  16.319  1.00 94.60 LIG 0.61  N 
BRANCH 23 25
ATOM     25  CB  ASP G   2      38.084  11.039  17.215  1.00 96.36 LIG 0.16  C 
BRANCH 25 26
ATOM     26  CG  ASP G   2      38.489  11.731  15.931  1.00103.24 LIG 0.17  C 
ATOM     27 OD1  ASP G   2      38.477  11.085  14.865  1.00112.85 LIG-0.65  OA
ATOM     28 OD2  ASP G   2      38.817  12.926  15.981  1.00105.87 LIG-0.65  OA
ENDBRANCH 25 26
ENDBRANCH 23 25
ENDBRANCH 21 23
ENDBRANCH 14 19
ENDBRANCH 12 14
ENDBRANCH 5 10
ENDBRANCH 1 5
BRANCH 3 29
ATOM     29  CA  PHE G   5      40.781   5.367  24.803  1.00 70.05 LIG 0.18  C 
BRANCH 29 30
ATOM     30  CB  PHE G   5      40.991   5.544  26.321  1.00 73.20 LIG 0.07  C 
BRANCH 30 31
ATOM     31  CG  PHE G   5      40.492   6.887  26.834  1.00 79.36 LIG-0.06  A 
ATOM     32  CD1 PHE G   5      39.221   6.984  27.453  1.00 85.64 LIG 0.01  A 
ATOM     33  CE1 PHE G   5      38.749   8.195  27.943  1.00 88.71 LIG 0.00  A 
ATOM     34  CZ  PHE G   5      39.550   9.335  27.828  1.00 96.11 LIG 0.00  A 
ATOM     35  CE2 PHE G   5      40.819   9.254  27.232  1.00 91.53 LIG 0.00  A 
ATOM     36  CD2 PHE G   5      41.286   8.038  26.741  1.00 81.01 LIG 0.01  A 
ENDBRANCH 30 31
ENDBRANCH 29 30
BRANCH 29 37
ATOM     37  C   PHE G   5      40.910   3.927  24.320  1.00 74.26 LIG 0.24  C 
ATOM     38  N   PRO G   6      40.134   3.005  24.933  1.00 79.01 LIG-0.34  N 
ATOM     39  CD  PRO G   6      39.288   3.278  26.126  1.00 76.17 LIG 0.13  C 
ATOM     40  CA  PRO G   6      40.289   1.563  24.683  1.00 78.34 LIG 0.18  C 
ATOM     41  CG  PRO G   6      38.598   1.981  26.366  1.00 78.03 LIG 0.02  C 
ATOM     42  CB  PRO G   6      39.584   0.942  25.901  1.00 82.73 LIG 0.04  C 
ATOM     43 O    PHE G   5      41.766   3.638  23.474  1.00 61.78 LIG-0.27  OA
BRANCH 40 44
ATOM     44  C   PRO G   6      39.666   1.022  23.376  1.00 77.34 LIG 0.24  C 
ATOM     45 O    PRO G   6      38.836   0.131  23.442  1.00 92.50 LIG-0.27  OA
ATOM     46  N   ALA G   7      40.067   1.555  22.213  1.00 74.20 LIG-0.35  N 
ATOM     47 H    ALA G   7      40.427   2.334  22.149  1.00 74.20 LIG 0.16  HD
BRANCH 46 48
ATOM     48  CA  ALA G   7      39.929   0.847  20.912  1.00 71.75 LIG 0.16  C 
ATOM     49  CB  ALA G   7      38.458   0.556  20.616  1.00 70.01 LIG 0.04  C 
BRANCH 48 50
ATOM     50  C   ALA G   7      40.544   1.699  19.778  1.00 69.94 LIG 0.22  C 
ATOM     51 O    ALA G   7      39.956   1.802  18.671  1.00 56.97 LIG-0.29  OA
ENDBRANCH 48 50
ENDBRANCH 46 48
ENDBRANCH 40 44
ENDBRANCH 29 37
ENDBRANCH 3 29
TORSDOF 18
ENDMDL
MODEL 98
USER: ADFR SOLUTION from run 24
USER: SCORE 13.895321 LL:  -4.996 LR: -10.210 RR:   0.000 FEB:  -4.841
USER: RMSD 9.372461
USER: SEED 23
USER: STATUS no improvement in best in 17 clusters for 5 generations
USER: GENES 20
USER: genes 0 Translation |==|  0.47088 0.47082 0.33288
USER: genes 1 Rotation |==|  0.91104 0.58501 0.77151 0.51007
USER: genes 2 Torsion [N]-C--CA-[N] |==|  0.35217
USER: genes 3 Torsion [C]-CA--CB-[CG] |==|  0.03781
USER: genes 4 Torsion [CA]-CB--CG-[CD1] |==|  0.30507
USER: genes 5 Torsion [C]-CA--N-[C] |==|  0.22724
USER: genes 6 Torsion [N]-C--CA-[N] |==|  0.88115
USER: genes 7 Torsion [C]-CA--CB-[CG1] |==|  0.83697
USER: genes 8 Torsion [CA]-CB--CG1-[CD1] |==|  0.56315
USER: genes 9 Torsion [C]-CA--N-[C] |==|  0.85867
USER: genes 10 Torsion [N]-C--CA-[N] |==|  0.46168
USER: genes 11 Torsion [C]-CA--CB-[CG] |==|  0.81601
USER: genes 12 Torsion [CA]-CB--CG-[OD1] |==|  0.82442
USER: genes 13 Torsion [C]-N--CA-[CB] |==|  0.86667
USER: genes 14 Torsion [N]-CA--CB-[CG] |==|  0.70375
USER: genes 15 Torsion [CA]-CB--CG-[CD1] |==|  0.84367
USER: genes 16 Torsion [N]-CA--C-[N] |==|  0.38321
USER: genes 17 Torsion [N]-CA--C-[O] |==|  0.65824
USER: genes 18 Torsion [C]-N--CA-[C] |==|  0.14985
USER: genes 19 Torsion [N]-CA--C-[O] |==|  0.24419
ROOT
ATOM      1  C   LEU G   4      39.479   5.371  19.929  1.00 61.38 LIG 0.24  C 
ATOM      2 O    LEU G   4      38.282   5.093  20.067  1.00 52.06 LIG-0.27  OA
ATOM      3  N   PHE G   5      40.040   6.507  20.304  1.00 60.80 LIG-0.35  N 
ATOM      4 H    PHE G   5      40.881   6.664  20.223  1.00 60.80 LIG 0.16  HD
ENDROOT
BRANCH 1 5
ATOM      5  CA  LEU G   4      40.429   4.421  19.262  1.00 58.56 LIG 0.18  C 
BRANCH 5 6
ATOM      6  CB  LEU G   4      40.035   4.327  17.791  1.00 61.47 LIG 0.04  C 
BRANCH 6 7
ATOM      7  CG  LEU G   4      39.071   5.401  17.337  1.00 62.80 LIG-0.02  C 
ATOM      8  CD1 LEU G   4      39.838   6.329  16.418  1.00 63.22 LIG 0.01  C 
ATOM      9  CD2 LEU G   4      37.888   4.731  16.639  1.00 64.86 LIG 0.01  C 
ENDBRANCH 6 7
ENDBRANCH 5 6
BRANCH 5 10
ATOM     10  N   LEU G   4      40.358   3.139  19.936  1.00 59.02 LIG-0.35  N 
ATOM     11 H    LEU G   4      40.977   3.000  20.516  1.00 59.02 LIG 0.16  HD
ATOM     12  C   ILE G   3      39.388   2.273  19.643  1.00 70.10 LIG 0.24  C 
ATOM     13 O    ILE G   3      38.388   2.596  18.963  1.00 64.55 LIG-0.27  OA
BRANCH 12 14
ATOM     14  CA  ILE G   3      39.561   0.833  20.195  1.00 67.83 LIG 0.18  C 
BRANCH 14 15
ATOM     15  CB  ILE G   3      39.142   0.754  21.697  1.00 66.94 LIG 0.01  C 
ATOM     16  CG2 ILE G   3      39.269  -0.679  22.214  1.00 67.41 LIG 0.01  C 
BRANCH 15 17
ATOM     17  CG1 ILE G   3      39.968   1.721  22.590  1.00 59.79 LIG 0.00  C 
ATOM     18  CD1 ILE G   3      40.008   1.326  24.042  1.00 60.74 LIG 0.01  C 
ENDBRANCH 15 17
ENDBRANCH 14 15
BRANCH 14 19
ATOM     19  N   ILE G   3      40.938   0.398  20.018  1.00 79.60 LIG-0.34  N 
ATOM     20 H    ILE G   3      41.296   0.086  20.734  1.00 79.60 LIG 0.16  HD
ATOM     21  C   ASP G   2      41.588   0.476  18.853  1.00 93.07 LIG 0.26  C 
ATOM     22 O    ASP G   2      41.052   0.834  17.802  1.00 81.24 LIG-0.27  OA
BRANCH 21 23
ATOM     23  CA  ASP G   2      43.078   0.111  18.857  1.00 93.30 LIG 0.41  C 
ATOM     24  N   ASP G   2      43.524  -0.066  17.446  1.00 94.60 LIG 0.61  N 
BRANCH 23 25
ATOM     25  CB  ASP G   2      43.935   1.179  19.553  1.00 96.36 LIG 0.16  C 
BRANCH 25 26
ATOM     26  CG  ASP G   2      43.948   2.493  18.803  1.00103.24 LIG 0.17  C 
ATOM     27 OD1  ASP G   2      44.436   2.532  17.657  1.00112.85 LIG-0.65  OA
ATOM     28 OD2  ASP G   2      43.465   3.494  19.355  1.00105.87 LIG-0.65  OA
ENDBRANCH 25 26
ENDBRANCH 23 25
ENDBRANCH 21 23
ENDBRANCH 14 19
ENDBRANCH 12 14
ENDBRANCH 5 10
ENDBRANCH 1 5
BRANCH 3 29
ATOM     29  CA  PHE G   5      39.306   7.595  20.887  1.00 70.05 LIG 0.18  C 
BRANCH 29 30
ATOM     30  CB  PHE G   5      38.040   7.902  20.059  1.00 73.20 LIG 0.07  C 
BRANCH 30 31
ATOM     31  CG  PHE G   5      38.159   9.186  19.252  1.00 79.36 LIG-0.06  A 
ATOM     32  CD1 PHE G   5      38.459  10.410  19.901  1.00 85.64 LIG 0.01  A 
ATOM     33  CE1 PHE G   5      38.587  11.593  19.185  1.00 88.71 LIG 0.00  A 
ATOM     34  CZ  PHE G   5      38.425  11.569  17.797  1.00 96.11 LIG 0.00  A 
ATOM     35  CE2 PHE G   5      38.144  10.364  17.135  1.00 91.53 LIG 0.00  A 
ATOM     36  CD2 PHE G   5      38.014   9.181  17.857  1.00 81.01 LIG 0.01  A 
ENDBRANCH 30 31
ENDBRANCH 29 30
BRANCH 29 37
ATOM     37  C   PHE G   5      39.023   7.183  22.327  1.00 74.26 LIG 0.24  C 
ATOM     38  N   PRO G   6      39.174   8.135  23.275  1.00 79.01 LIG-0.34  N 
ATOM     39  CD  PRO G   6      39.733   9.491  23.023  1.00 76.17 LIG 0.13  C 
ATOM     40  CA  PRO G   6      39.103   7.824  24.711  1.00 78.34 LIG 0.18  C 
ATOM     41  CG  PRO G   6      39.628  10.161  24.348  1.00 78.03 LIG 0.02  C 
ATOM     42  CB  PRO G   6      39.793   9.044  25.345  1.00 82.73 LIG 0.04  C 
ATOM     43 O    PHE G   5      38.766   6.001  22.588  1.00 61.78 LIG-0.27  OA
BRANCH 40 44
ATOM     44  C   PRO G   6      37.688   7.647  25.307  1.00 77.34 LIG 0.24  C 
ATOM     45 O    PRO G   6      37.349   8.349  26.244  1.00 92.50 LIG-0.27  OA
ATOM     46  N   ALA G   7      36.883   6.721  24.766  1.00 74.20 LIG-0.35  N 
ATOM     47 H    ALA G   7      36.983   6.416  23.968  1.00 74.20 LIG 0.16  HD
BRANCH 46 48
ATOM     48  CA  ALA G   7      35.732   6.126  25.498  1.00 71.75 LIG 0.16  C 
ATOM     49  CB  ALA G   7      36.227   5.257  26.655  1.00 70.01 LIG 0.04  C 
BRANCH 48 50
ATOM     50  C   ALA G   7      34.807   7.245  26.028  1.00 69.94 LIG 0.22  C 
ATOM     51 O    ALA G   7      33.881   7.698  25.308  1.00 56.97 LIG-0.29  OA
ENDBRANCH 48 50
ENDBRANCH 46 48
ENDBRANCH 40 44
ENDBRANCH 29 37
ENDBRANCH 3 29
TORSDOF 18
ENDMDL
MODEL 99
USER: ADFR SOLUTION from run 101
USER: SCORE 15.116983 LL:  -5.466 LR: -10.199 RR:   0.000 FEB:  -4.829
USER: RMSD 4.957425
USER: SEED 100
USER: STATUS no improvement in best in 27 clusters for 5 generations
USER: GENES 20
USER: genes 0 Translation |==|  0.41475 0.50467 0.57078
USER: genes 1 Rotation |==|  0.46689 0.46426 0.46448 0.99635
USER: genes 2 Torsion [N]-C--CA-[N] |==|  0.40659
USER: genes 3 Torsion [C]-CA--CB-[CG] |==|  0.35758
USER: genes 4 Torsion [CA]-CB--CG-[CD1] |==|  0.64777
USER: genes 5 Torsion [C]-CA--N-[C] |==|  0.79763
USER: genes 6 Torsion [N]-C--CA-[N] |==|  0.86667
USER: genes 7 Torsion [C]-CA--CB-[CG1] |==|  0.52748
USER: genes 8 Torsion [CA]-CB--CG1-[CD1] |==|  0.45234
USER: genes 9 Torsion [C]-CA--N-[C] |==|  0.79178
USER: genes 10 Torsion [N]-C--CA-[N] |==|  0.21925
USER: genes 11 Torsion [C]-CA--CB-[CG] |==|  0.68567
USER: genes 12 Torsion [CA]-CB--CG-[OD1] |==|  0.64627
USER: genes 13 Torsion [C]-N--CA-[CB] |==|  0.16647
USER: genes 14 Torsion [N]-CA--CB-[CG] |==|  0.65784
USER: genes 15 Torsion [CA]-CB--CG-[CD1] |==|  0.33071
USER: genes 16 Torsion [N]-CA--C-[N] |==|  0.16072
USER: genes 17 Torsion [N]-CA--C-[O] |==|  0.42804
USER: genes 18 Torsion [C]-N--CA-[C] |==|  0.63309
USER: genes 19 Torsion [N]-CA--C-[O] |==|  0.97444
ROOT
ATOM      1  C   LEU G   4      38.552   6.310  23.854  1.00 61.38 LIG 0.24  C 
ATOM      2 O    LEU G   4      38.330   6.179  22.645  1.00 52.06 LIG-0.27  OA
ATOM      3  N   PHE G   5      39.211   5.443  24.601  1.00 60.80 LIG-0.35  N 
ATOM      4 H    PHE G   5      39.378   5.572  25.435  1.00 60.80 LIG 0.16  HD
ENDROOT
BRANCH 1 5
ATOM      5  CA  LEU G   4      38.041   7.496  24.617  1.00 58.56 LIG 0.18  C 
BRANCH 5 6
ATOM      6  CB  LEU G   4      36.627   7.169  25.089  1.00 61.47 LIG 0.04  C 
BRANCH 6 7
ATOM      7  CG  LEU G   4      36.399   7.399  26.567  1.00 62.80 LIG-0.02  C 
ATOM      8  CD1 LEU G   4      35.836   6.113  27.136  1.00 63.22 LIG 0.01  C 
ATOM      9  CD2 LEU G   4      37.729   7.792  27.210  1.00 64.86 LIG 0.01  C 
ENDBRANCH 6 7
ENDBRANCH 5 6
BRANCH 5 10
ATOM     10  N   LEU G   4      38.078   8.660  23.752  1.00 59.02 LIG-0.35  N 
ATOM     11 H    LEU G   4      37.310   8.931  23.475  1.00 59.02 LIG 0.16  HD
ATOM     12  C   ILE G   3      39.240   9.234  23.439  1.00 70.10 LIG 0.24  C 
ATOM     13 O    ILE G   3      40.305   8.952  24.034  1.00 64.55 LIG-0.27  OA
BRANCH 12 14
ATOM     14  CA  ILE G   3      39.204  10.279  22.293  1.00 67.83 LIG 0.18  C 
BRANCH 14 15
ATOM     15  CB  ILE G   3      38.570  11.621  22.778  1.00 66.94 LIG 0.01  C 
ATOM     16  CG2 ILE G   3      39.466  12.290  23.821  1.00 67.41 LIG 0.01  C 
BRANCH 15 17
ATOM     17  CG1 ILE G   3      38.294  12.599  21.602  1.00 59.79 LIG 0.00  C 
ATOM     18  CD1 ILE G   3      37.333  13.707  21.944  1.00 60.74 LIG 0.01  C 
ENDBRANCH 15 17
ENDBRANCH 14 15
BRANCH 14 19
ATOM     19  N   ILE G   3      38.473   9.741  21.156  1.00 79.60 LIG-0.34  N 
ATOM     20 H    ILE G   3      37.686  10.073  21.064  1.00 79.60 LIG 0.16  HD
ATOM     21  C   ASP G   2      38.977   8.818  20.331  1.00 93.07 LIG 0.26  C 
ATOM     22 O    ASP G   2      40.136   8.408  20.401  1.00 81.24 LIG-0.27  OA
BRANCH 21 23
ATOM     23  CA  ASP G   2      38.034   8.246  19.264  1.00 93.30 LIG 0.41  C 
ATOM     24  N   ASP G   2      37.934   9.229  18.147  1.00 94.60 LIG 0.61  N 
BRANCH 23 25
ATOM     25  CB  ASP G   2      38.516   6.888  18.732  1.00 96.36 LIG 0.16  C 
BRANCH 25 26
ATOM     26  CG  ASP G   2      38.938   6.948  17.280  1.00103.24 LIG 0.17  C 
ATOM     27 OD1  ASP G   2      38.446   6.136  16.472  1.00112.85 LIG-0.65  OA
ATOM     28 OD2  ASP G   2      39.759   7.812  16.938  1.00105.87 LIG-0.65  OA
ENDBRANCH 25 26
ENDBRANCH 23 25
ENDBRANCH 21 23
ENDBRANCH 14 19
ENDBRANCH 12 14
ENDBRANCH 5 10
ENDBRANCH 1 5
BRANCH 3 29
ATOM     29  CA  PHE G   5      39.718   4.196  24.101  1.00 70.05 LIG 0.18  C 
BRANCH 29 30
ATOM     30  CB  PHE G   5      40.723   4.437  22.956  1.00 73.20 LIG 0.07  C 
BRANCH 30 31
ATOM     31  CG  PHE G   5      40.333   3.729  21.668  1.00 79.36 LIG-0.06  A 
ATOM     32  CD1 PHE G   5      40.079   4.478  20.492  1.00 85.64 LIG 0.01  A 
ATOM     33  CE1 PHE G   5      39.735   3.854  19.300  1.00 88.71 LIG 0.00  A 
ATOM     34  CZ  PHE G   5      39.647   2.459  19.262  1.00 96.11 LIG 0.00  A 
ATOM     35  CE2 PHE G   5      39.912   1.699  20.413  1.00 91.53 LIG 0.00  A 
ATOM     36  CD2 PHE G   5      40.253   2.330  21.606  1.00 81.01 LIG 0.01  A 
ENDBRANCH 30 31
ENDBRANCH 29 30
BRANCH 29 37
ATOM     37  C   PHE G   5      40.309   3.473  25.306  1.00 74.26 LIG 0.24  C 
ATOM     38  N   PRO G   6      39.477   3.237  26.345  1.00 79.01 LIG-0.34  N 
ATOM     39  CD  PRO G   6      38.088   3.761  26.445  1.00 76.17 LIG 0.13  C 
ATOM     40  CA  PRO G   6      39.962   2.707  27.629  1.00 78.34 LIG 0.18  C 
ATOM     41  CG  PRO G   6      37.586   3.175  27.718  1.00 78.03 LIG 0.02  C 
ATOM     42  CB  PRO G   6      38.812   3.066  28.586  1.00 82.73 LIG 0.04  C 
ATOM     43 O    PHE G   5      41.519   3.218  25.336  1.00 61.78 LIG-0.27  OA
BRANCH 40 44
ATOM     44  C   PRO G   6      40.242   1.188  27.684  1.00 77.34 LIG 0.24  C 
ATOM     45 O    PRO G   6      41.055   0.766  28.488  1.00 92.50 LIG-0.27  OA
ATOM     46  N   ALA G   7      39.576   0.389  26.837  1.00 74.20 LIG-0.35  N 
ATOM     47 H    ALA G   7      38.832   0.609  26.467  1.00 74.20 LIG 0.16  HD
BRANCH 46 48
ATOM     48  CA  ALA G   7      40.064  -0.963  26.454  1.00 71.75 LIG 0.16  C 
ATOM     49  CB  ALA G   7      39.235  -2.046  27.144  1.00 70.01 LIG 0.04  C 
BRANCH 48 50
ATOM     50  C   ALA G   7      39.996  -1.135  24.920  1.00 69.94 LIG 0.22  C 
ATOM     51 O    ALA G   7      39.416  -0.275  24.209  1.00 56.97 LIG-0.29  OA
ENDBRANCH 48 50
ENDBRANCH 46 48
ENDBRANCH 40 44
ENDBRANCH 29 37
ENDBRANCH 3 29
TORSDOF 18
ENDMDL
MODEL 100
USER: ADFR SOLUTION from run 54
USER: SCORE 15.085449 LL:  -5.206 LR: -10.202 RR:   0.000 FEB:  -4.833
USER: RMSD 5.608532
USER: SEED 53
USER: STATUS no improvement in best in 10 clusters for 5 generations
USER: GENES 20
USER: genes 0 Translation |==|  0.42872 0.51212 0.59763
USER: genes 1 Rotation |==|  0.26109 0.57500 0.40515 0.92226
USER: genes 2 Torsion [N]-C--CA-[N] |==|  0.42447
USER: genes 3 Torsion [C]-CA--CB-[CG] |==|  0.00156
USER: genes 4 Torsion [CA]-CB--CG-[CD1] |==|  0.35647
USER: genes 5 Torsion [C]-CA--N-[C] |==|  0.77600
USER: genes 6 Torsion [N]-C--CA-[N] |==|  0.36803
USER: genes 7 Torsion [C]-CA--CB-[CG1] |==|  0.94044
USER: genes 8 Torsion [CA]-CB--CG1-[CD1] |==|  0.52464
USER: genes 9 Torsion [C]-CA--N-[C] |==|  0.63836
USER: genes 10 Torsion [N]-C--CA-[N] |==|  0.19467
USER: genes 11 Torsion [C]-CA--CB-[CG] |==|  0.69263
USER: genes 12 Torsion [CA]-CB--CG-[OD1] |==|  0.32422
USER: genes 13 Torsion [C]-N--CA-[CB] |==|  0.86411
USER: genes 14 Torsion [N]-CA--CB-[CG] |==|  0.54645
USER: genes 15 Torsion [CA]-CB--CG-[CD1] |==|  0.35604
USER: genes 16 Torsion [N]-CA--C-[N] |==|  0.36541
USER: genes 17 Torsion [N]-CA--C-[O] |==|  0.45470
USER: genes 18 Torsion [C]-N--CA-[C] |==|  0.18236
USER: genes 19 Torsion [N]-CA--C-[O] |==|  0.34403
ROOT
ATOM      1  C   LEU G   4      38.783   6.517  24.297  1.00 61.38 LIG 0.24  C 
ATOM      2 O    LEU G   4      37.931   5.806  23.753  1.00 52.06 LIG-0.27  OA
ATOM      3  N   PHE G   5      39.632   6.107  25.223  1.00 60.80 LIG-0.35  N 
ATOM      4 H    PHE G   5      40.235   6.616  25.565  1.00 60.80 LIG 0.16  HD
ENDROOT
BRANCH 1 5
ATOM      5  CA  LEU G   4      38.908   7.975  23.968  1.00 58.56 LIG 0.18  C 
BRANCH 5 6
ATOM      6  CB  LEU G   4      38.068   8.753  24.977  1.00 61.47 LIG 0.04  C 
BRANCH 6 7
ATOM      7  CG  LEU G   4      37.374   7.885  26.005  1.00 62.80 LIG-0.02  C 
ATOM      8  CD1 LEU G   4      37.716   8.450  27.368  1.00 63.22 LIG 0.01  C 
ATOM      9  CD2 LEU G   4      35.873   7.903  25.723  1.00 64.86 LIG 0.01  C 
ENDBRANCH 6 7
ENDBRANCH 5 6
BRANCH 5 10
ATOM     10  N   LEU G   4      38.466   8.187  22.603  1.00 59.02 LIG-0.35  N 
ATOM     11 H    LEU G   4      37.662   8.482  22.524  1.00 59.02 LIG 0.16  HD
ATOM     12  C   ILE G   3      39.281   7.928  21.580  1.00 70.10 LIG 0.24  C 
ATOM     13 O    ILE G   3      40.504   7.716  21.738  1.00 64.55 LIG-0.27  OA
BRANCH 12 14
ATOM     14  CA  ILE G   3      38.630   7.907  20.171  1.00 67.83 LIG 0.18  C 
BRANCH 14 15
ATOM     15  CB  ILE G   3      38.459   6.444  19.655  1.00 66.94 LIG 0.01  C 
ATOM     16  CG2 ILE G   3      38.672   6.381  18.142  1.00 67.41 LIG 0.01  C 
BRANCH 15 17
ATOM     17  CG1 ILE G   3      39.416   5.452  20.372  1.00 59.79 LIG 0.00  C 
ATOM     18  CD1 ILE G   3      39.436   4.075  19.762  1.00 60.74 LIG 0.01  C 
ENDBRANCH 15 17
ENDBRANCH 14 15
BRANCH 14 19
ATOM     19  N   ILE G   3      39.431   8.694  19.245  1.00 79.60 LIG-0.34  N 
ATOM     20 H    ILE G   3      40.267   8.496  19.259  1.00 79.60 LIG 0.16  HD
ATOM     21  C   ASP G   2      38.917   9.634  18.447  1.00 93.07 LIG 0.26  C 
ATOM     22 O    ASP G   2      37.709   9.857  18.355  1.00 81.24 LIG-0.27  OA
BRANCH 21 23
ATOM     23  CA  ASP G   2      39.907  10.475  17.630  1.00 93.30 LIG 0.41  C 
ATOM     24  N   ASP G   2      40.508   9.607  16.578  1.00 94.60 LIG 0.61  N 
BRANCH 23 25
ATOM     25  CB  ASP G   2      39.236  11.699  16.988  1.00 96.36 LIG 0.16  C 
BRANCH 25 26
ATOM     26  CG  ASP G   2      39.139  11.585  15.482  1.00103.24 LIG 0.17  C 
ATOM     27 OD1  ASP G   2      38.012  11.548  14.949  1.00112.85 LIG-0.65  OA
ATOM     28 OD2  ASP G   2      40.189  11.538  14.823  1.00105.87 LIG-0.65  OA
ENDBRANCH 25 26
ENDBRANCH 23 25
ENDBRANCH 21 23
ENDBRANCH 14 19
ENDBRANCH 12 14
ENDBRANCH 5 10
ENDBRANCH 1 5
BRANCH 3 29
ATOM     29  CA  PHE G   5      39.637   4.774  25.753  1.00 70.05 LIG 0.18  C 
BRANCH 29 30
ATOM     30  CB  PHE G   5      38.213   4.346  26.165  1.00 73.20 LIG 0.07  C 
BRANCH 30 31
ATOM     31  CG  PHE G   5      38.202   3.137  27.088  1.00 79.36 LIG-0.06  A 
ATOM     32  CD1 PHE G   5      37.487   3.181  28.311  1.00 85.64 LIG 0.01  A 
ATOM     33  CE1 PHE G   5      37.449   2.086  29.163  1.00 88.71 LIG 0.00  A 
ATOM     34  CZ  PHE G   5      38.125   0.917  28.801  1.00 96.11 LIG 0.00  A 
ATOM     35  CE2 PHE G   5      38.825   0.849  27.586  1.00 91.53 LIG 0.00  A 
ATOM     36  CD2 PHE G   5      38.862   1.950  26.736  1.00 81.01 LIG 0.01  A 
ENDBRANCH 30 31
ENDBRANCH 29 30
BRANCH 29 37
ATOM     37  C   PHE G   5      40.263   3.898  24.673  1.00 74.26 LIG 0.24  C 
ATOM     38  N   PRO G   6      41.240   3.050  25.065  1.00 79.01 LIG-0.34  N 
ATOM     39  CD  PRO G   6      41.834   3.025  26.429  1.00 76.17 LIG 0.13  C 
ATOM     40  CA  PRO G   6      42.040   2.282  24.098  1.00 78.34 LIG 0.18  C 
ATOM     41  CG  PRO G   6      42.799   1.894  26.366  1.00 78.03 LIG 0.02  C 
ATOM     42  CB  PRO G   6      43.268   1.882  24.935  1.00 82.73 LIG 0.04  C 
ATOM     43 O    PHE G   5      39.934   4.054  23.491  1.00 61.78 LIG-0.27  OA
BRANCH 40 44
ATOM     44  C   PRO G   6      41.373   1.022  23.501  1.00 77.34 LIG 0.24  C 
ATOM     45 O    PRO G   6      41.846   0.523  22.495  1.00 92.50 LIG-0.27  OA
ATOM     46  N   ALA G   7      40.289   0.525  24.117  1.00 74.20 LIG-0.35  N 
ATOM     47 H    ALA G   7      40.102   0.680  24.942  1.00 74.20 LIG 0.16  HD
BRANCH 46 48
ATOM     48  CA  ALA G   7      39.300  -0.346  23.429  1.00 71.75 LIG 0.16  C 
ATOM     49  CB  ALA G   7      38.744   0.353  22.188  1.00 70.01 LIG 0.04  C 
BRANCH 48 50
ATOM     50  C   ALA G   7      39.959  -1.687  23.035  1.00 69.94 LIG 0.22  C 
ATOM     51 O    ALA G   7      39.465  -2.776  23.425  1.00 56.97 LIG-0.29  OA
ENDBRANCH 48 50
ENDBRANCH 46 48
ENDBRANCH 40 44
ENDBRANCH 29 37
ENDBRANCH 3 29
TORSDOF 18
ENDMDL
MODEL 101
USER: ADFR SOLUTION from run 102
USER: SCORE 14.963133 LL:  -5.362 LR: -10.191 RR:   0.000 FEB:  -4.822
USER: RMSD 6.522003
USER: SEED 101
USER: STATUS no improvement in best in 25 clusters for 5 generations
USER: GENES 20
USER: genes 0 Translation |==|  0.42279 0.53386 0.57476
USER: genes 1 Rotation |==|  0.33771 0.71144 0.84701 0.74194
USER: genes 2 Torsion [N]-C--CA-[N] |==|  0.96848
USER: genes 3 Torsion [C]-CA--CB-[CG] |==|  0.41817
USER: genes 4 Torsion [CA]-CB--CG-[CD1] |==|  0.43131
USER: genes 5 Torsion [C]-CA--N-[C] |==|  0.75161
USER: genes 6 Torsion [N]-C--CA-[N] |==|  0.37717
USER: genes 7 Torsion [C]-CA--CB-[CG1] |==|  0.18416
USER: genes 8 Torsion [CA]-CB--CG1-[CD1] |==|  0.13380
USER: genes 9 Torsion [C]-CA--N-[C] |==|  0.65419
USER: genes 10 Torsion [N]-C--CA-[N] |==|  0.51343
USER: genes 11 Torsion [C]-CA--CB-[CG] |==|  0.88723
USER: genes 12 Torsion [CA]-CB--CG-[OD1] |==|  0.75841
USER: genes 13 Torsion [C]-N--CA-[CB] |==|  0.86664
USER: genes 14 Torsion [N]-CA--CB-[CG] |==|  0.78242
USER: genes 15 Torsion [CA]-CB--CG-[CD1] |==|  0.32046
USER: genes 16 Torsion [N]-CA--C-[N] |==|  0.32571
USER: genes 17 Torsion [N]-CA--C-[O] |==|  0.73299
USER: genes 18 Torsion [C]-N--CA-[C] |==|  0.88683
USER: genes 19 Torsion [N]-CA--C-[O] |==|  0.23361
ROOT
ATOM      1  C   LEU G   4      38.685   7.121  23.920  1.00 61.38 LIG 0.24  C 
ATOM      2 O    LEU G   4      38.872   5.912  23.737  1.00 52.06 LIG-0.27  OA
ATOM      3  N   PHE G   5      39.181   8.085  23.165  1.00 60.80 LIG-0.35  N 
ATOM      4 H    PHE G   5      39.012   8.918  23.296  1.00 60.80 LIG 0.16  HD
ENDROOT
BRANCH 1 5
ATOM      5  CA  LEU G   4      37.878   7.619  25.081  1.00 58.56 LIG 0.18  C 
BRANCH 5 6
ATOM      6  CB  LEU G   4      36.418   7.263  24.818  1.00 61.47 LIG 0.04  C 
BRANCH 6 7
ATOM      7  CG  LEU G   4      35.600   7.033  26.071  1.00 62.80 LIG-0.02  C 
ATOM      8  CD1 LEU G   4      34.154   7.306  25.715  1.00 63.22 LIG 0.01  C 
ATOM      9  CD2 LEU G   4      35.826   5.597  26.543  1.00 64.86 LIG 0.01  C 
ENDBRANCH 6 7
ENDBRANCH 5 6
BRANCH 5 10
ATOM     10  N   LEU G   4      38.082   9.048  25.215  1.00 59.02 LIG-0.35  N 
ATOM     11 H    LEU G   4      37.525   9.537  24.779  1.00 59.02 LIG 0.16  HD
ATOM     12  C   ILE G   3      39.075   9.523  25.968  1.00 70.10 LIG 0.24  C 
ATOM     13 O    ILE G   3      39.720   8.796  26.756  1.00 64.55 LIG-0.27  OA
BRANCH 12 14
ATOM     14  CA  ILE G   3      39.390  11.035  25.818  1.00 67.83 LIG 0.18  C 
BRANCH 14 15
ATOM     15  CB  ILE G   3      40.643  11.259  24.914  1.00 66.94 LIG 0.01  C 
ATOM     16  CG2 ILE G   3      41.852  10.516  25.482  1.00 67.41 LIG 0.01  C 
BRANCH 15 17
ATOM     17  CG1 ILE G   3      40.391  10.828  23.442  1.00 59.79 LIG 0.00  C 
ATOM     18  CD1 ILE G   3      39.106  11.359  22.863  1.00 60.74 LIG 0.01  C 
ENDBRANCH 15 17
ENDBRANCH 14 15
BRANCH 14 19
ATOM     19  N   ILE G   3      39.583  11.632  27.130  1.00 79.60 LIG-0.34  N 
ATOM     20 H    ILE G   3      40.188  11.243  27.600  1.00 79.60 LIG 0.16  HD
ATOM     21  C   ASP G   2      38.887  12.687  27.566  1.00 93.07 LIG 0.26  C 
ATOM     22 O    ASP G   2      38.086  13.306  26.864  1.00 81.24 LIG-0.27  OA
BRANCH 21 23
ATOM     23  CA  ASP G   2      39.104  13.114  29.024  1.00 93.30 LIG 0.41  C 
ATOM     24  N   ASP G   2      38.156  14.221  29.337  1.00 94.60 LIG 0.61  N 
BRANCH 23 25
ATOM     25  CB  ASP G   2      38.902  11.950  30.006  1.00 96.36 LIG 0.16  C 
BRANCH 25 26
ATOM     26  CG  ASP G   2      37.725  11.074  29.635  1.00103.24 LIG 0.17  C 
ATOM     27 OD1  ASP G   2      36.588  11.380  30.045  1.00112.85 LIG-0.65  OA
ATOM     28 OD2  ASP G   2      37.929  10.077  28.925  1.00105.87 LIG-0.65  OA
ENDBRANCH 25 26
ENDBRANCH 23 25
ENDBRANCH 21 23
ENDBRANCH 14 19
ENDBRANCH 12 14
ENDBRANCH 5 10
ENDBRANCH 1 5
BRANCH 3 29
ATOM     29  CA  PHE G   5      40.051   7.845  22.049  1.00 70.05 LIG 0.18  C 
BRANCH 29 30
ATOM     30  CB  PHE G   5      41.184   6.874  22.441  1.00 73.20 LIG 0.07  C 
BRANCH 30 31
ATOM     31  CG  PHE G   5      42.293   7.549  23.233  1.00 79.36 LIG-0.06  A 
ATOM     32  CD1 PHE G   5      42.539   7.170  24.577  1.00 85.64 LIG 0.01  A 
ATOM     33  CE1 PHE G   5      43.555   7.761  25.317  1.00 88.71 LIG 0.00  A 
ATOM     34  CZ  PHE G   5      44.353   8.740  24.719  1.00 96.11 LIG 0.00  A 
ATOM     35  CE2 PHE G   5      44.134   9.116  23.384  1.00 91.53 LIG 0.00  A 
ATOM     36  CD2 PHE G   5      43.113   8.523  22.647  1.00 81.01 LIG 0.01  A 
ENDBRANCH 30 31
ENDBRANCH 29 30
BRANCH 29 37
ATOM     37  C   PHE G   5      39.156   7.337  20.924  1.00 74.26 LIG 0.24  C 
ATOM     38  N   PRO G   6      39.086   8.097  19.808  1.00 79.01 LIG-0.34  N 
ATOM     39  CD  PRO G   6      39.698   9.446  19.671  1.00 76.17 LIG 0.13  C 
ATOM     40  CA  PRO G   6      38.130   7.811  18.727  1.00 78.34 LIG 0.18  C 
ATOM     41  CG  PRO G   6      39.398   9.822  18.262  1.00 78.03 LIG 0.02  C 
ATOM     42  CB  PRO G   6      38.084   9.148  17.969  1.00 82.73 LIG 0.04  C 
ATOM     43 O    PHE G   5      38.466   6.325  21.099  1.00 61.78 LIG-0.27  OA
BRANCH 40 44
ATOM     44  C   PRO G   6      38.509   6.666  17.760  1.00 77.34 LIG 0.24  C 
ATOM     45 O    PRO G   6      39.057   6.940  16.707  1.00 92.50 LIG-0.27  OA
ATOM     46  N   ALA G   7      38.215   5.408  18.120  1.00 74.20 LIG-0.35  N 
ATOM     47 H    ALA G   7      38.086   5.168  18.936  1.00 74.20 LIG 0.16  HD
BRANCH 46 48
ATOM     48  CA  ALA G   7      38.082   4.299  17.138  1.00 71.75 LIG 0.16  C 
ATOM     49  CB  ALA G   7      37.341   3.117  17.763  1.00 70.01 LIG 0.04  C 
BRANCH 48 50
ATOM     50  C   ALA G   7      37.334   4.793  15.879  1.00 69.94 LIG 0.22  C 
ATOM     51 O    ALA G   7      37.958   5.382  14.960  1.00 56.97 LIG-0.29  OA
ENDBRANCH 48 50
ENDBRANCH 46 48
ENDBRANCH 40 44
ENDBRANCH 29 37
ENDBRANCH 3 29
TORSDOF 18
ENDMDL
MODEL 102
USER: ADFR SOLUTION from run 2
USER: SCORE 13.957537 LL:  -5.345 LR: -10.190 RR:   0.000 FEB:  -4.820
USER: RMSD 10.064068
USER: SEED 930106
USER: STATUS no improvement in best in 33 clusters for 5 generations
USER: GENES 20
USER: genes 0 Translation |==|  0.43737 0.57163 0.60004
USER: genes 1 Rotation |==|  0.90987 0.51828 0.21513 0.52282
USER: genes 2 Torsion [N]-C--CA-[N] |==|  0.50428
USER: genes 3 Torsion [C]-CA--CB-[CG] |==|  0.60884
USER: genes 4 Torsion [CA]-CB--CG-[CD1] |==|  0.51787
USER: genes 5 Torsion [C]-CA--N-[C] |==|  0.74897
USER: genes 6 Torsion [N]-C--CA-[N] |==|  0.92445
USER: genes 7 Torsion [C]-CA--CB-[CG1] |==|  0.85121
USER: genes 8 Torsion [CA]-CB--CG1-[CD1] |==|  0.57952
USER: genes 9 Torsion [C]-CA--N-[C] |==|  0.82171
USER: genes 10 Torsion [N]-C--CA-[N] |==|  0.46094
USER: genes 11 Torsion [C]-CA--CB-[CG] |==|  0.66103
USER: genes 12 Torsion [CA]-CB--CG-[OD1] |==|  0.84918
USER: genes 13 Torsion [C]-N--CA-[CB] |==|  0.30000
USER: genes 14 Torsion [N]-CA--CB-[CG] |==|  0.18916
USER: genes 15 Torsion [CA]-CB--CG-[CD1] |==|  0.79505
USER: genes 16 Torsion [N]-CA--C-[N] |==|  0.37452
USER: genes 17 Torsion [N]-CA--C-[O] |==|  0.83995
USER: genes 18 Torsion [C]-N--CA-[C] |==|  0.17354
USER: genes 19 Torsion [N]-CA--C-[O] |==|  0.26795
ROOT
ATOM      1  C   LEU G   4      38.926   8.169  24.337  1.00 61.38 LIG 0.24  C 
ATOM      2 O    LEU G   4      39.884   8.319  25.102  1.00 52.06 LIG-0.27  OA
ATOM      3  N   PHE G   5      38.648   8.952  23.309  1.00 60.80 LIG-0.35  N 
ATOM      4 H    PHE G   5      37.991   8.809  22.774  1.00 60.80 LIG 0.16  HD
ENDROOT
BRANCH 1 5
ATOM      5  CA  LEU G   4      37.932   7.063  24.537  1.00 58.56 LIG 0.18  C 
BRANCH 5 6
ATOM      6  CB  LEU G   4      36.554   7.699  24.686  1.00 61.47 LIG 0.04  C 
BRANCH 6 7
ATOM      7  CG  LEU G   4      35.675   7.038  25.725  1.00 62.80 LIG-0.02  C 
ATOM      8  CD1 LEU G   4      34.308   7.683  25.628  1.00 63.22 LIG 0.01  C 
ATOM      9  CD2 LEU G   4      35.636   5.536  25.446  1.00 64.86 LIG 0.01  C 
ENDBRANCH 6 7
ENDBRANCH 5 6
BRANCH 5 10
ATOM     10  N   LEU G   4      38.316   6.295  25.706  1.00 59.02 LIG-0.35  N 
ATOM     11 H    LEU G   4      37.984   6.575  26.448  1.00 59.02 LIG 0.16  HD
ATOM     12  C   ILE G   3      39.125   5.242  25.589  1.00 70.10 LIG 0.24  C 
ATOM     13 O    ILE G   3      39.405   4.736  24.479  1.00 64.55 LIG-0.27  OA
BRANCH 12 14
ATOM     14  CA  ILE G   3      39.703   4.669  26.910  1.00 67.83 LIG 0.18  C 
BRANCH 14 15
ATOM     15  CB  ILE G   3      38.845   3.470  27.425  1.00 66.94 LIG 0.01  C 
ATOM     16  CG2 ILE G   3      39.381   2.964  28.764  1.00 67.41 LIG 0.01  C 
BRANCH 15 17
ATOM     17  CG1 ILE G   3      37.340   3.837  27.553  1.00 59.79 LIG 0.00  C 
ATOM     18  CD1 ILE G   3      36.611   3.057  28.615  1.00 60.74 LIG 0.01  C 
ENDBRANCH 15 17
ENDBRANCH 14 15
BRANCH 14 19
ATOM     19  N   ILE G   3      39.780   5.721  27.913  1.00 79.60 LIG-0.34  N 
ATOM     20 H    ILE G   3      39.272   5.585  28.593  1.00 79.60 LIG 0.16  HD
ATOM     21  C   ASP G   2      40.564   6.795  27.790  1.00 93.07 LIG 0.26  C 
ATOM     22 O    ASP G   2      41.362   6.948  26.864  1.00 81.24 LIG-0.27  OA
BRANCH 21 23
ATOM     23  CA  ASP G   2      40.430   7.885  28.862  1.00 93.30 LIG 0.41  C 
ATOM     24  N   ASP G   2      41.598   8.805  28.748  1.00 94.60 LIG 0.61  N 
BRANCH 23 25
ATOM     25  CB  ASP G   2      39.119   8.673  28.727  1.00 96.36 LIG 0.16  C 
BRANCH 25 26
ATOM     26  CG  ASP G   2      39.349  10.157  28.543  1.00103.24 LIG 0.17  C 
ATOM     27 OD1  ASP G   2      40.047  10.770  29.376  1.00112.85 LIG-0.65  OA
ATOM     28 OD2  ASP G   2      38.839  10.718  27.562  1.00105.87 LIG-0.65  OA
ENDBRANCH 25 26
ENDBRANCH 23 25
ENDBRANCH 21 23
ENDBRANCH 14 19
ENDBRANCH 12 14
ENDBRANCH 5 10
ENDBRANCH 1 5
BRANCH 3 29
ATOM     29  CA  PHE G   5      39.414  10.121  22.979  1.00 70.05 LIG 0.18  C 
BRANCH 29 30
ATOM     30  CB  PHE G   5      40.252   9.881  21.706  1.00 73.20 LIG 0.07  C 
BRANCH 30 31
ATOM     31  CG  PHE G   5      39.399   9.741  20.454  1.00 79.36 LIG-0.06  A 
ATOM     32  CD1 PHE G   5      38.651   8.558  20.231  1.00 85.64 LIG 0.01  A 
ATOM     33  CE1 PHE G   5      37.854   8.412  19.104  1.00 88.71 LIG 0.00  A 
ATOM     34  CZ  PHE G   5      37.785   9.457  18.178  1.00 96.11 LIG 0.00  A 
ATOM     35  CE2 PHE G   5      38.506  10.643  18.391  1.00 91.53 LIG 0.00  A 
ATOM     36  CD2 PHE G   5      39.306  10.783  19.521  1.00 81.01 LIG 0.01  A 
ENDBRANCH 30 31
ENDBRANCH 29 30
BRANCH 29 37
ATOM     37  C   PHE G   5      38.406  11.258  22.857  1.00 74.26 LIG 0.24  C 
ATOM     38  N   PRO G   6      38.727  12.426  23.456  1.00 79.01 LIG-0.34  N 
ATOM     39  CD  PRO G   6      39.911  12.621  24.337  1.00 76.17 LIG 0.13  C 
ATOM     40  CA  PRO G   6      37.771  13.539  23.560  1.00 78.34 LIG 0.18  C 
ATOM     41  CG  PRO G   6      39.852  14.068  24.682  1.00 78.03 LIG 0.02  C 
ATOM     42  CB  PRO G   6      38.381  14.390  24.687  1.00 82.73 LIG 0.04  C 
ATOM     43 O    PHE G   5      37.314  11.054  22.311  1.00 61.78 LIG-0.27  OA
BRANCH 40 44
ATOM     44  C   PRO G   6      37.577  14.400  22.292  1.00 77.34 LIG 0.24  C 
ATOM     45 O    PRO G   6      38.545  14.951  21.797  1.00 92.50 LIG-0.27  OA
ATOM     46  N   ALA G   7      36.341  14.510  21.783  1.00 74.20 LIG-0.35  N 
ATOM     47 H    ALA G   7      35.714  13.941  21.936  1.00 74.20 LIG 0.16  HD
BRANCH 46 48
ATOM     48  CA  ALA G   7      35.931  15.633  20.898  1.00 71.75 LIG 0.16  C 
ATOM     49  CB  ALA G   7      36.103  16.971  21.618  1.00 70.01 LIG 0.04  C 
BRANCH 48 50
ATOM     50  C   ALA G   7      36.766  15.615  19.598  1.00 69.94 LIG 0.22  C 
ATOM     51 O    ALA G   7      36.311  15.072  18.559  1.00 56.97 LIG-0.29  OA
ENDBRANCH 48 50
ENDBRANCH 46 48
ENDBRANCH 40 44
ENDBRANCH 29 37
ENDBRANCH 3 29
TORSDOF 18
ENDMDL
MODEL 103
USER: ADFR SOLUTION from run 146
USER: SCORE 14.694235 LL:  -5.461 LR: -10.179 RR:   0.000 FEB:  -4.810
USER: RMSD 4.798495
USER: SEED 145
USER: STATUS no improvement in best in 24 clusters for 5 generations
USER: GENES 20
USER: genes 0 Translation |==|  0.43953 0.54344 0.48751
USER: genes 1 Rotation |==|  0.67565 0.26045 0.09823 0.51842
USER: genes 2 Torsion [N]-C--CA-[N] |==|  0.85618
USER: genes 3 Torsion [C]-CA--CB-[CG] |==|  0.49369
USER: genes 4 Torsion [CA]-CB--CG-[CD1] |==|  0.37155
USER: genes 5 Torsion [C]-CA--N-[C] |==|  0.71548
USER: genes 6 Torsion [N]-C--CA-[N] |==|  0.47222
USER: genes 7 Torsion [C]-CA--CB-[CG1] |==|  0.27037
USER: genes 8 Torsion [CA]-CB--CG1-[CD1] |==|  0.16305
USER: genes 9 Torsion [C]-CA--N-[C] |==|  0.78454
USER: genes 10 Torsion [N]-C--CA-[N] |==|  0.84961
USER: genes 11 Torsion [C]-CA--CB-[CG] |==|  0.73963
USER: genes 12 Torsion [CA]-CB--CG-[OD1] |==|  0.11719
USER: genes 13 Torsion [C]-N--CA-[CB] |==|  0.82628
USER: genes 14 Torsion [N]-CA--CB-[CG] |==|  0.70041
USER: genes 15 Torsion [CA]-CB--CG-[CD1] |==|  0.96466
USER: genes 16 Torsion [N]-CA--C-[N] |==|  0.49436
USER: genes 17 Torsion [N]-CA--C-[O] |==|  0.67739
USER: genes 18 Torsion [C]-N--CA-[C] |==|  0.80660
USER: genes 19 Torsion [N]-CA--C-[O] |==|  0.95105
ROOT
ATOM      1  C   LEU G   4      38.961   7.386  22.480  1.00 61.38 LIG 0.24  C 
ATOM      2 O    LEU G   4      39.958   6.672  22.324  1.00 52.06 LIG-0.27  OA
ATOM      3  N   PHE G   5      38.226   7.884  21.501  1.00 60.80 LIG-0.35  N 
ATOM      4 H    PHE G   5      37.520   8.354  21.637  1.00 60.80 LIG 0.16  HD
ENDROOT
BRANCH 1 5
ATOM      5  CA  LEU G   4      38.502   7.798  23.847  1.00 58.56 LIG 0.18  C 
BRANCH 5 6
ATOM      6  CB  LEU G   4      37.180   7.089  24.125  1.00 61.47 LIG 0.04  C 
BRANCH 6 7
ATOM      7  CG  LEU G   4      36.608   7.361  25.499  1.00 62.80 LIG-0.02  C 
ATOM      8  CD1 LEU G   4      35.137   7.673  25.316  1.00 63.22 LIG 0.01  C 
ATOM      9  CD2 LEU G   4      36.841   6.131  26.376  1.00 64.86 LIG 0.01  C 
ENDBRANCH 6 7
ENDBRANCH 5 6
BRANCH 5 10
ATOM     10  N   LEU G   4      38.372   9.242  23.882  1.00 59.02 LIG-0.35  N 
ATOM     11 H    LEU G   4      37.664   9.552  23.505  1.00 59.02 LIG 0.16  HD
ATOM     12  C   ILE G   3      39.307   9.992  24.467  1.00 70.10 LIG 0.24  C 
ATOM     13 O    ILE G   3      40.200   9.499  25.191  1.00 64.55 LIG-0.27  OA
BRANCH 12 14
ATOM     14  CA  ILE G   3      39.228  11.519  24.202  1.00 67.83 LIG 0.18  C 
BRANCH 14 15
ATOM     15  CB  ILE G   3      39.529  11.844  22.705  1.00 66.94 LIG 0.01  C 
ATOM     16  CG2 ILE G   3      40.408  10.757  22.087  1.00 67.41 LIG 0.01  C 
BRANCH 15 17
ATOM     17  CG1 ILE G   3      38.230  12.021  21.870  1.00 59.79 LIG 0.00  C 
ATOM     18  CD1 ILE G   3      37.324  13.113  22.376  1.00 60.74 LIG 0.01  C 
ENDBRANCH 15 17
ENDBRANCH 14 15
BRANCH 14 19
ATOM     19  N   ILE G   3      40.151  12.221  25.081  1.00 79.60 LIG-0.34  N 
ATOM     20 H    ILE G   3      40.875  12.472  24.691  1.00 79.60 LIG 0.16  HD
ATOM     21  C   ASP G   2      39.900  12.455  26.372  1.00 93.07 LIG 0.26  C 
ATOM     22 O    ASP G   2      38.828  12.181  26.913  1.00 81.24 LIG-0.27  OA
BRANCH 21 23
ATOM     23  CA  ASP G   2      41.029  13.080  27.202  1.00 93.30 LIG 0.41  C 
ATOM     24  N   ASP G   2      42.248  12.236  27.052  1.00 94.60 LIG 0.61  N 
BRANCH 23 25
ATOM     25  CB  ASP G   2      41.330  14.525  26.777  1.00 96.36 LIG 0.16  C 
BRANCH 25 26
ATOM     26  CG  ASP G   2      42.445  14.611  25.757  1.00103.24 LIG 0.17  C 
ATOM     27 OD1  ASP G   2      42.478  13.785  24.824  1.00112.85 LIG-0.65  OA
ATOM     28 OD2  ASP G   2      43.291  15.510  25.880  1.00105.87 LIG-0.65  OA
ENDBRANCH 25 26
ENDBRANCH 23 25
ENDBRANCH 21 23
ENDBRANCH 14 19
ENDBRANCH 12 14
ENDBRANCH 5 10
ENDBRANCH 1 5
BRANCH 3 29
ATOM     29  CA  PHE G   5      38.529   7.691  20.111  1.00 70.05 LIG 0.18  C 
BRANCH 29 30
ATOM     30  CB  PHE G   5      39.890   8.324  19.757  1.00 73.20 LIG 0.07  C 
BRANCH 30 31
ATOM     31  CG  PHE G   5      39.756   9.587  18.922  1.00 79.36 LIG-0.06  A 
ATOM     32  CD1 PHE G   5      38.513   9.918  18.325  1.00 85.64 LIG 0.01  A 
ATOM     33  CE1 PHE G   5      38.361  11.073  17.570  1.00 88.71 LIG 0.00  A 
ATOM     34  CZ  PHE G   5      39.454  11.927  17.405  1.00 96.11 LIG 0.00  A 
ATOM     35  CE2 PHE G   5      40.689  11.625  18.002  1.00 91.53 LIG 0.00  A 
ATOM     36  CD2 PHE G   5      40.837  10.465  18.755  1.00 81.01 LIG 0.01  A 
ENDBRANCH 30 31
ENDBRANCH 29 30
BRANCH 29 37
ATOM     37  C   PHE G   5      38.461   6.186  19.875  1.00 74.26 LIG 0.24  C 
ATOM     38  N   PRO G   6      38.671   5.756  18.611  1.00 79.01 LIG-0.34  N 
ATOM     39  CD  PRO G   6      38.814   6.652  17.431  1.00 76.17 LIG 0.13  C 
ATOM     40  CA  PRO G   6      38.463   4.354  18.218  1.00 78.34 LIG 0.18  C 
ATOM     41  CG  PRO G   6      39.090   5.711  16.311  1.00 78.03 LIG 0.02  C 
ATOM     42  CB  PRO G   6      38.346   4.456  16.688  1.00 82.73 LIG 0.04  C 
ATOM     43 O    PHE G   5      38.130   5.434  20.800  1.00 61.78 LIG-0.27  OA
BRANCH 40 44
ATOM     44  C   PRO G   6      39.583   3.359  18.598  1.00 77.34 LIG 0.24  C 
ATOM     45 O    PRO G   6      40.202   2.798  17.711  1.00 92.50 LIG-0.27  OA
ATOM     46  N   ALA G   7      39.830   3.150  19.900  1.00 74.20 LIG-0.35  N 
ATOM     47 H    ALA G   7      39.613   3.707  20.518  1.00 74.20 LIG 0.16  HD
BRANCH 46 48
ATOM     48  CA  ALA G   7      40.509   1.926  20.404  1.00 71.75 LIG 0.16  C 
ATOM     49  CB  ALA G   7      40.902   2.099  21.871  1.00 70.01 LIG 0.04  C 
BRANCH 48 50
ATOM     50  C   ALA G   7      39.582   0.700  20.240  1.00 69.94 LIG 0.22  C 
ATOM     51 O    ALA G   7      38.347   0.858  20.059  1.00 56.97 LIG-0.29  OA
ENDBRANCH 48 50
ENDBRANCH 46 48
ENDBRANCH 40 44
ENDBRANCH 29 37
ENDBRANCH 3 29
TORSDOF 18
ENDMDL
MODEL 104
USER: ADFR SOLUTION from run 107
USER: SCORE 15.139211 LL:  -5.520 LR: -10.182 RR:   0.000 FEB:  -4.812
USER: RMSD 5.739600
USER: SEED 106
USER: STATUS no improvement in best in 20 clusters for 5 generations
USER: GENES 20
USER: genes 0 Translation |==|  0.41671 0.57499 0.39842
USER: genes 1 Rotation |==|  0.23569 0.54923 0.34283 0.89117
USER: genes 2 Torsion [N]-C--CA-[N] |==|  0.94547
USER: genes 3 Torsion [C]-CA--CB-[CG] |==|  0.22036
USER: genes 4 Torsion [CA]-CB--CG-[CD1] |==|  0.74168
USER: genes 5 Torsion [C]-CA--N-[C] |==|  0.78985
USER: genes 6 Torsion [N]-C--CA-[N] |==|  0.45000
USER: genes 7 Torsion [C]-CA--CB-[CG1] |==|  0.85514
USER: genes 8 Torsion [CA]-CB--CG1-[CD1] |==|  0.66309
USER: genes 9 Torsion [C]-CA--N-[C] |==|  0.64142
USER: genes 10 Torsion [N]-C--CA-[N] |==|  0.95984
USER: genes 11 Torsion [C]-CA--CB-[CG] |==|  0.78435
USER: genes 12 Torsion [CA]-CB--CG-[OD1] |==|  0.68380
USER: genes 13 Torsion [C]-N--CA-[CB] |==|  0.88174
USER: genes 14 Torsion [N]-CA--CB-[CG] |==|  0.67611
USER: genes 15 Torsion [CA]-CB--CG-[CD1] |==|  0.84419
USER: genes 16 Torsion [N]-CA--C-[N] |==|  0.32783
USER: genes 17 Torsion [N]-CA--C-[O] |==|  0.68245
USER: genes 18 Torsion [C]-N--CA-[C] |==|  0.58780
USER: genes 19 Torsion [N]-CA--C-[O] |==|  0.05741
ROOT
ATOM      1  C   LEU G   4      38.585   8.262  21.010  1.00 61.38 LIG 0.24  C 
ATOM      2 O    LEU G   4      37.707   7.587  20.460  1.00 52.06 LIG-0.27  OA
ATOM      3  N   PHE G   5      39.196   7.937  22.136  1.00 60.80 LIG-0.35  N 
ATOM      4 H    PHE G   5      39.825   8.410  22.482  1.00 60.80 LIG 0.16  HD
ENDROOT
BRANCH 1 5
ATOM      5  CA  LEU G   4      39.024   9.580  20.445  1.00 58.56 LIG 0.18  C 
BRANCH 5 6
ATOM      6  CB  LEU G   4      39.978   9.294  19.289  1.00 61.47 LIG 0.04  C 
BRANCH 6 7
ATOM      7  CG  LEU G   4      39.290   8.907  17.998  1.00 62.80 LIG-0.02  C 
ATOM      8  CD1 LEU G   4      39.208   7.396  17.972  1.00 63.22 LIG 0.01  C 
ATOM      9  CD2 LEU G   4      37.913   9.570  17.963  1.00 64.86 LIG 0.01  C 
ENDBRANCH 6 7
ENDBRANCH 5 6
BRANCH 5 10
ATOM     10  N   LEU G   4      39.651  10.356  21.498  1.00 59.02 LIG-0.35  N 
ATOM     11 H    LEU G   4      40.509  10.394  21.459  1.00 59.02 LIG 0.16  HD
ATOM     12  C   ILE G   3      38.909  10.947  22.435  1.00 70.10 LIG 0.24  C 
ATOM     13 O    ILE G   3      37.667  11.054  22.334  1.00 64.55 LIG-0.27  OA
BRANCH 12 14
ATOM     14  CA  ILE G   3      39.672  11.502  23.667  1.00 67.83 LIG 0.18  C 
BRANCH 14 15
ATOM     15  CB  ILE G   3      40.117  10.347  24.618  1.00 66.94 LIG 0.01  C 
ATOM     16  CG2 ILE G   3      40.769  10.913  25.880  1.00 67.41 LIG 0.01  C 
BRANCH 15 17
ATOM     17  CG1 ILE G   3      38.935   9.412  25.000  1.00 59.79 LIG 0.00  C 
ATOM     18  CD1 ILE G   3      38.679   9.327  26.481  1.00 60.74 LIG 0.01  C 
ENDBRANCH 15 17
ENDBRANCH 14 15
BRANCH 14 19
ATOM     19  N   ILE G   3      38.839  12.464  24.372  1.00 79.60 LIG-0.34  N 
ATOM     20 H    ILE G   3      38.052  12.171  24.552  1.00 79.60 LIG 0.16  HD
ATOM     21  C   ASP G   2      39.257  13.687  24.710  1.00 93.07 LIG 0.26  C 
ATOM     22 O    ASP G   2      40.413  14.079  24.539  1.00 81.24 LIG-0.27  OA
BRANCH 21 23
ATOM     23  CA  ASP G   2      38.219  14.636  25.324  1.00 93.30 LIG 0.41  C 
ATOM     24  N   ASP G   2      36.861  14.070  25.081  1.00 94.60 LIG 0.61  N 
BRANCH 23 25
ATOM     25  CB  ASP G   2      38.444  14.847  26.829  1.00 96.36 LIG 0.16  C 
BRANCH 25 26
ATOM     26  CG  ASP G   2      37.953  13.681  27.659  1.00103.24 LIG 0.17  C 
ATOM     27 OD1  ASP G   2      36.989  13.850  28.432  1.00112.85 LIG-0.65  OA
ATOM     28 OD2  ASP G   2      38.525  12.587  27.538  1.00105.87 LIG-0.65  OA
ENDBRANCH 25 26
ENDBRANCH 23 25
ENDBRANCH 21 23
ENDBRANCH 14 19
ENDBRANCH 12 14
ENDBRANCH 5 10
ENDBRANCH 1 5
BRANCH 3 29
ATOM     29  CA  PHE G   5      38.876   6.762  22.896  1.00 70.05 LIG 0.18  C 
BRANCH 29 30
ATOM     30  CB  PHE G   5      37.348   6.566  22.977  1.00 73.20 LIG 0.07  C 
BRANCH 30 31
ATOM     31  CG  PHE G   5      36.814   6.659  24.399  1.00 79.36 LIG-0.06  A 
ATOM     32  CD1 PHE G   5      37.333   5.813  25.410  1.00 85.64 LIG 0.01  A 
ATOM     33  CE1 PHE G   5      36.873   5.888  26.718  1.00 88.71 LIG 0.00  A 
ATOM     34  CZ  PHE G   5      35.886   6.823  27.040  1.00 96.11 LIG 0.00  A 
ATOM     35  CE2 PHE G   5      35.372   7.681  26.055  1.00 91.53 LIG 0.00  A 
ATOM     36  CD2 PHE G   5      35.834   7.600  24.745  1.00 81.01 LIG 0.01  A 
ENDBRANCH 30 31
ENDBRANCH 29 30
BRANCH 29 37
ATOM     37  C   PHE G   5      39.616   5.614  22.220  1.00 74.26 LIG 0.24  C 
ATOM     38  N   PRO G   6      40.547   4.968  22.959  1.00 79.01 LIG-0.34  N 
ATOM     39  CD  PRO G   6      40.990   5.397  24.313  1.00 76.17 LIG 0.13  C 
ATOM     40  CA  PRO G   6      41.448   3.964  22.374  1.00 78.34 LIG 0.18  C 
ATOM     41  CG  PRO G   6      41.958   4.339  24.713  1.00 78.03 LIG 0.02  C 
ATOM     42  CB  PRO G   6      42.579   3.893  23.415  1.00 82.73 LIG 0.04  C 
ATOM     43 O    PHE G   5      39.418   5.377  21.022  1.00 61.78 LIG-0.27  OA
BRANCH 40 44
ATOM     44  C   PRO G   6      40.852   2.557  22.143  1.00 77.34 LIG 0.24  C 
ATOM     45 O    PRO G   6      41.290   1.617  22.783  1.00 92.50 LIG-0.27  OA
ATOM     46  N   ALA G   7      39.870   2.424  21.239  1.00 74.20 LIG-0.35  N 
ATOM     47 H    ALA G   7      39.372   3.077  20.983  1.00 74.20 LIG 0.16  HD
BRANCH 46 48
ATOM     48  CA  ALA G   7      39.545   1.127  20.587  1.00 71.75 LIG 0.16  C 
ATOM     49  CB  ALA G   7      38.506   0.362  21.407  1.00 70.01 LIG 0.04  C 
BRANCH 48 50
ATOM     50  C   ALA G   7      39.019   1.372  19.154  1.00 69.94 LIG 0.22  C 
ATOM     51 O    ALA G   7      39.271   2.452  18.561  1.00 56.97 LIG-0.29  OA
ENDBRANCH 48 50
ENDBRANCH 46 48
ENDBRANCH 40 44
ENDBRANCH 29 37
ENDBRANCH 3 29
TORSDOF 18
ENDMDL
MODEL 105
USER: ADFR SOLUTION from run 200
USER: SCORE 13.543233 LL:  -5.359 LR: -10.175 RR:   0.000 FEB:  -4.806
USER: RMSD 4.728718
USER: SEED 199
USER: STATUS no improvement in best in 8 clusters for 5 generations
USER: GENES 20
USER: genes 0 Translation |==|  0.43949 0.50181 0.63479
USER: genes 1 Rotation |==|  0.63665 0.10073 0.54593 0.76420
USER: genes 2 Torsion [N]-C--CA-[N] |==|  0.74303
USER: genes 3 Torsion [C]-CA--CB-[CG] |==|  0.19631
USER: genes 4 Torsion [CA]-CB--CG-[CD1] |==|  0.32581
USER: genes 5 Torsion [C]-CA--N-[C] |==|  0.74256
USER: genes 6 Torsion [N]-C--CA-[N] |==|  0.47101
USER: genes 7 Torsion [C]-CA--CB-[CG1] |==|  0.29348
USER: genes 8 Torsion [CA]-CB--CG1-[CD1] |==|  0.14846
USER: genes 9 Torsion [C]-CA--N-[C] |==|  0.75021
USER: genes 10 Torsion [N]-C--CA-[N] |==|  0.21133
USER: genes 11 Torsion [C]-CA--CB-[CG] |==|  0.59084
USER: genes 12 Torsion [CA]-CB--CG-[OD1] |==|  0.70094
USER: genes 13 Torsion [C]-N--CA-[CB] |==|  0.22570
USER: genes 14 Torsion [N]-CA--CB-[CG] |==|  0.77165
USER: genes 15 Torsion [CA]-CB--CG-[CD1] |==|  0.84948
USER: genes 16 Torsion [N]-CA--C-[N] |==|  0.22707
USER: genes 17 Torsion [N]-CA--C-[O] |==|  0.92260
USER: genes 18 Torsion [C]-N--CA-[C] |==|  0.72307
USER: genes 19 Torsion [N]-CA--C-[O] |==|  0.01605
ROOT
ATOM      1  C   LEU G   4      38.961   6.231  24.910  1.00 61.38 LIG 0.24  C 
ATOM      2 O    LEU G   4      40.014   6.860  25.064  1.00 52.06 LIG-0.27  OA
ATOM      3  N   PHE G   5      38.740   5.004  25.349  1.00 60.80 LIG-0.35  N 
ATOM      4 H    PHE G   5      37.987   4.600  25.253  1.00 60.80 LIG 0.16  HD
ENDROOT
BRANCH 1 5
ATOM      5  CA  LEU G   4      37.808   6.815  24.149  1.00 58.56 LIG 0.18  C 
BRANCH 5 6
ATOM      6  CB  LEU G   4      36.527   6.196  24.700  1.00 61.47 LIG 0.04  C 
BRANCH 6 7
ATOM      7  CG  LEU G   4      36.163   6.660  26.093  1.00 62.80 LIG-0.02  C 
ATOM      8  CD1 LEU G   4      34.834   7.378  25.991  1.00 63.22 LIG 0.01  C 
ATOM      9  CD2 LEU G   4      36.101   5.441  27.013  1.00 64.86 LIG 0.01  C 
ENDBRANCH 6 7
ENDBRANCH 5 6
BRANCH 5 10
ATOM     10  N   LEU G   4      37.991   6.539  22.737  1.00 59.02 LIG-0.35  N 
ATOM     11 H    LEU G   4      37.677   5.784  22.471  1.00 59.02 LIG 0.16  HD
ATOM     12  C   ILE G   3      38.607   7.422  21.950  1.00 70.10 LIG 0.24  C 
ATOM     13 O    ILE G   3      38.850   8.591  22.320  1.00 64.55 LIG-0.27  OA
BRANCH 12 14
ATOM     14  CA  ILE G   3      39.010   6.919  20.537  1.00 67.83 LIG 0.18  C 
BRANCH 14 15
ATOM     15  CB  ILE G   3      40.128   5.833  20.627  1.00 66.94 LIG 0.01  C 
ATOM     16  CG2 ILE G   3      40.813   5.881  21.993  1.00 67.41 LIG 0.01  C 
BRANCH 15 17
ATOM     17  CG1 ILE G   3      39.584   4.404  20.350  1.00 59.79 LIG 0.00  C 
ATOM     18  CD1 ILE G   3      38.829   4.280  19.053  1.00 60.74 LIG 0.01  C 
ENDBRANCH 15 17
ENDBRANCH 14 15
BRANCH 14 19
ATOM     19  N   ILE G   3      39.440   8.041  19.717  1.00 79.60 LIG-0.34  N 
ATOM     20 H    ILE G   3      40.283   8.203  19.770  1.00 79.60 LIG 0.16  HD
ATOM     21  C   ASP G   2      38.607   8.754  18.954  1.00 93.07 LIG 0.26  C 
ATOM     22 O    ASP G   2      37.418   8.469  18.802  1.00 81.24 LIG-0.27  OA
BRANCH 21 23
ATOM     23  CA  ASP G   2      39.184   9.993  18.258  1.00 93.30 LIG 0.41  C 
ATOM     24  N   ASP G   2      40.004   9.544  17.097  1.00 94.60 LIG 0.61  N 
BRANCH 23 25
ATOM     25  CB  ASP G   2      38.085  10.959  17.788  1.00 96.36 LIG 0.16  C 
BRANCH 25 26
ATOM     26  CG  ASP G   2      38.459  11.691  16.518  1.00103.24 LIG 0.17  C 
ATOM     27 OD1  ASP G   2      38.746  12.903  16.578  1.00112.85 LIG-0.65  OA
ATOM     28 OD2  ASP G   2      38.474  11.056  15.452  1.00105.87 LIG-0.65  OA
ENDBRANCH 25 26
ENDBRANCH 23 25
ENDBRANCH 21 23
ENDBRANCH 14 19
ENDBRANCH 12 14
ENDBRANCH 5 10
ENDBRANCH 1 5
BRANCH 3 29
ATOM     29  CA  PHE G   5      39.731   4.220  26.029  1.00 70.05 LIG 0.18  C 
BRANCH 29 30
ATOM     30  CB  PHE G   5      39.809   4.614  27.519  1.00 73.20 LIG 0.07  C 
BRANCH 30 31
ATOM     31  CG  PHE G   5      40.664   5.848  27.760  1.00 79.36 LIG-0.06  A 
ATOM     32  CD1 PHE G   5      41.997   5.895  27.281  1.00 85.64 LIG 0.01  A 
ATOM     33  CE1 PHE G   5      42.794   7.016  27.476  1.00 88.71 LIG 0.00  A 
ATOM     34  CZ  PHE G   5      42.264   8.119  28.151  1.00 96.11 LIG 0.00  A 
ATOM     35  CE2 PHE G   5      40.940   8.097  28.618  1.00 91.53 LIG 0.00  A 
ATOM     36  CD2 PHE G   5      40.147   6.971  28.423  1.00 81.01 LIG 0.01  A 
ENDBRANCH 30 31
ENDBRANCH 29 30
BRANCH 29 37
ATOM     37  C   PHE G   5      39.348   2.764  25.789  1.00 74.26 LIG 0.24  C 
ATOM     38  N   PRO G   6      39.726   2.220  24.611  1.00 79.01 LIG-0.34  N 
ATOM     39  CD  PRO G   6      40.350   2.981  23.495  1.00 76.17 LIG 0.13  C 
ATOM     40  CA  PRO G   6      39.271   0.887  24.185  1.00 78.34 LIG 0.18  C 
ATOM     41  CG  PRO G   6      40.630   1.934  22.474  1.00 78.03 LIG 0.02  C 
ATOM     42  CB  PRO G   6      39.533   0.921  22.669  1.00 82.73 LIG 0.04  C 
ATOM     43 O    PHE G   5      38.640   2.172  26.613  1.00 61.78 LIG-0.27  OA
BRANCH 40 44
ATOM     44  C   PRO G   6      39.994  -0.322  24.821  1.00 77.34 LIG 0.24  C 
ATOM     45 O    PRO G   6      41.148  -0.193  25.191  1.00 92.50 LIG-0.27  OA
ATOM     46  N   ALA G   7      39.318  -1.474  24.939  1.00 74.20 LIG-0.35  N 
ATOM     47 H    ALA G   7      38.459  -1.521  24.943  1.00 74.20 LIG 0.16  HD
BRANCH 46 48
ATOM     48  CA  ALA G   7      39.992  -2.793  25.076  1.00 71.75 LIG 0.16  C 
ATOM     49  CB  ALA G   7      39.279  -3.652  26.120  1.00 70.01 LIG 0.04  C 
BRANCH 48 50
ATOM     50  C   ALA G   7      40.016  -3.520  23.712  1.00 69.94 LIG 0.22  C 
ATOM     51 O    ALA G   7      39.607  -2.939  22.675  1.00 56.97 LIG-0.29  OA
ENDBRANCH 48 50
ENDBRANCH 46 48
ENDBRANCH 40 44
ENDBRANCH 29 37
ENDBRANCH 3 29
TORSDOF 18
ENDMDL
MODEL 106
USER: ADFR SOLUTION from run 47
USER: SCORE 15.011125 LL:  -5.661 LR: -10.176 RR:   0.000 FEB:  -4.807
USER: RMSD 4.316155
USER: SEED 46
USER: STATUS no improvement in best in 19 clusters for 5 generations
USER: GENES 20
USER: genes 0 Translation |==|  0.45049 0.51694 0.59097
USER: genes 1 Rotation |==|  0.34145 0.60705 0.54675 0.95958
USER: genes 2 Torsion [N]-C--CA-[N] |==|  0.35907
USER: genes 3 Torsion [C]-CA--CB-[CG] |==|  0.85597
USER: genes 4 Torsion [CA]-CB--CG-[CD1] |==|  0.32461
USER: genes 5 Torsion [C]-CA--N-[C] |==|  0.79124
USER: genes 6 Torsion [N]-C--CA-[N] |==|  0.35539
USER: genes 7 Torsion [C]-CA--CB-[CG1] |==|  0.42766
USER: genes 8 Torsion [CA]-CB--CG1-[CD1] |==|  0.23608
USER: genes 9 Torsion [C]-CA--N-[C] |==|  0.79413
USER: genes 10 Torsion [N]-C--CA-[N] |==|  0.99003
USER: genes 11 Torsion [C]-CA--CB-[CG] |==|  0.80069
USER: genes 12 Torsion [CA]-CB--CG-[OD1] |==|  0.98703
USER: genes 13 Torsion [C]-N--CA-[CB] |==|  0.48333
USER: genes 14 Torsion [N]-CA--CB-[CG] |==|  0.26914
USER: genes 15 Torsion [CA]-CB--CG-[CD1] |==|  0.28513
USER: genes 16 Torsion [N]-CA--C-[N] |==|  0.45285
USER: genes 17 Torsion [N]-CA--C-[O] |==|  0.65100
USER: genes 18 Torsion [C]-N--CA-[C] |==|  0.81179
USER: genes 19 Torsion [N]-CA--C-[O] |==|  0.14948
ROOT
ATOM      1  C   LEU G   4      39.142   6.651  24.187  1.00 61.38 LIG 0.24  C 
ATOM      2 O    LEU G   4      38.413   5.893  23.538  1.00 52.06 LIG-0.27  OA
ATOM      3  N   PHE G   5      40.354   6.350  24.619  1.00 60.80 LIG-0.35  N 
ATOM      4 H    PHE G   5      40.853   6.907  25.044  1.00 60.80 LIG 0.16  HD
ENDROOT
BRANCH 1 5
ATOM      5  CA  LEU G   4      38.682   8.021  24.589  1.00 58.56 LIG 0.18  C 
BRANCH 5 6
ATOM      6  CB  LEU G   4      37.596   7.854  25.647  1.00 61.47 LIG 0.04  C 
BRANCH 6 7
ATOM      7  CG  LEU G   4      36.480   6.914  25.246  1.00 62.80 LIG-0.02  C 
ATOM      8  CD1 LEU G   4      36.508   5.751  26.215  1.00 63.22 LIG 0.01  C 
ATOM      9  CD2 LEU G   4      35.158   7.681  25.290  1.00 64.86 LIG 0.01  C 
ENDBRANCH 6 7
ENDBRANCH 5 6
BRANCH 5 10
ATOM     10  N   LEU G   4      38.203   8.718  23.411  1.00 59.02 LIG-0.35  N 
ATOM     11 H    LEU G   4      37.348   8.784  23.351  1.00 59.02 LIG 0.16  HD
ATOM     12  C   ILE G   3      39.064   9.204  22.515  1.00 70.10 LIG 0.24  C 
ATOM     13 O    ILE G   3      40.291   9.284  22.744  1.00 64.55 LIG-0.27  OA
BRANCH 12 14
ATOM     14  CA  ILE G   3      38.459   9.670  21.164  1.00 67.83 LIG 0.18  C 
BRANCH 14 15
ATOM     15  CB  ILE G   3      38.851   8.695  20.009  1.00 66.94 LIG 0.01  C 
ATOM     16  CG2 ILE G   3      39.022   7.272  20.544  1.00 67.41 LIG 0.01  C 
BRANCH 15 17
ATOM     17  CG1 ILE G   3      37.817   8.710  18.849  1.00 59.79 LIG 0.00  C 
ATOM     18  CD1 ILE G   3      38.047   9.806  17.842  1.00 60.74 LIG 0.01  C 
ENDBRANCH 15 17
ENDBRANCH 14 15
BRANCH 14 19
ATOM     19  N   ILE G   3      38.895  11.026  20.868  1.00 79.60 LIG-0.34  N 
ATOM     20 H    ILE G   3      39.490  11.069  20.250  1.00 79.60 LIG 0.16  HD
ATOM     21  C   ASP G   2      38.417  12.103  21.498  1.00 93.07 LIG 0.26  C 
ATOM     22 O    ASP G   2      37.499  12.056  22.318  1.00 81.24 LIG-0.27  OA
BRANCH 21 23
ATOM     23  CA  ASP G   2      39.076  13.451  21.176  1.00 93.30 LIG 0.41  C 
ATOM     24  N   ASP G   2      40.215  13.208  20.245  1.00 94.60 LIG 0.61  N 
BRANCH 23 25
ATOM     25  CB  ASP G   2      38.087  14.447  20.555  1.00 96.36 LIG 0.16  C 
BRANCH 25 26
ATOM     26  CG  ASP G   2      37.708  14.083  19.135  1.00103.24 LIG 0.17  C 
ATOM     27 OD1  ASP G   2      38.270  13.113  18.588  1.00112.85 LIG-0.65  OA
ATOM     28 OD2  ASP G   2      36.843  14.761  18.561  1.00105.87 LIG-0.65  OA
ENDBRANCH 25 26
ENDBRANCH 23 25
ENDBRANCH 21 23
ENDBRANCH 14 19
ENDBRANCH 12 14
ENDBRANCH 5 10
ENDBRANCH 1 5
BRANCH 3 29
ATOM     29  CA  PHE G   5      40.964   5.065  24.425  1.00 70.05 LIG 0.18  C 
BRANCH 29 30
ATOM     30  CB  PHE G   5      42.428   5.079  24.910  1.00 73.20 LIG 0.07  C 
BRANCH 30 31
ATOM     31  CG  PHE G   5      42.589   4.533  26.321  1.00 79.36 LIG-0.06  A 
ATOM     32  CD1 PHE G   5      43.086   3.221  26.524  1.00 85.64 LIG 0.01  A 
ATOM     33  CE1 PHE G   5      43.255   2.704  27.802  1.00 88.71 LIG 0.00  A 
ATOM     34  CZ  PHE G   5      42.936   3.500  28.906  1.00 96.11 LIG 0.00  A 
ATOM     35  CE2 PHE G   5      42.458   4.808  28.724  1.00 91.53 LIG 0.00  A 
ATOM     36  CD2 PHE G   5      42.288   5.320  27.442  1.00 81.01 LIG 0.01  A 
ENDBRANCH 30 31
ENDBRANCH 29 30
BRANCH 29 37
ATOM     37  C   PHE G   5      40.074   4.067  25.156  1.00 74.26 LIG 0.24  C 
ATOM     38  N   PRO G   6      40.229   2.762  24.836  1.00 79.01 LIG-0.34  N 
ATOM     39  CD  PRO G   6      41.090   2.265  23.730  1.00 76.17 LIG 0.13  C 
ATOM     40  CA  PRO G   6      39.318   1.722  25.338  1.00 78.34 LIG 0.18  C 
ATOM     41  CG  PRO G   6      40.969   0.785  23.834  1.00 78.03 LIG 0.02  C 
ATOM     42  CB  PRO G   6      39.577   0.561  24.363  1.00 82.73 LIG 0.04  C 
ATOM     43 O    PHE G   5      39.197   4.476  25.927  1.00 61.78 LIG-0.27  OA
BRANCH 40 44
ATOM     44  C   PRO G   6      39.546   1.252  26.793  1.00 77.34 LIG 0.24  C 
ATOM     45 O    PRO G   6      39.701   0.063  27.013  1.00 92.50 LIG-0.27  OA
ATOM     46  N   ALA G   7      39.562   2.178  27.764  1.00 74.20 LIG-0.35  N 
ATOM     47 H    ALA G   7      39.724   3.010  27.620  1.00 74.20 LIG 0.16  HD
BRANCH 46 48
ATOM     48  CA  ALA G   7      39.299   1.853  29.191  1.00 71.75 LIG 0.16  C 
ATOM     49  CB  ALA G   7      39.620   3.054  30.081  1.00 70.01 LIG 0.04  C 
BRANCH 48 50
ATOM     50  C   ALA G   7      37.823   1.431  29.375  1.00 69.94 LIG 0.22  C 
ATOM     51 O    ALA G   7      37.334   0.509  28.674  1.00 56.97 LIG-0.29  OA
ENDBRANCH 48 50
ENDBRANCH 46 48
ENDBRANCH 40 44
ENDBRANCH 29 37
ENDBRANCH 3 29
TORSDOF 18
ENDMDL
MODEL 107
USER: ADFR SOLUTION from run 193
USER: SCORE 15.139431 LL:  -5.852 LR: -10.177 RR:   0.000 FEB:  -4.807
USER: RMSD 4.088573
USER: SEED 192
USER: STATUS no improvement in best in 18 clusters for 5 generations
USER: GENES 20
USER: genes 0 Translation |==|  0.45853 0.48735 0.51907
USER: genes 1 Rotation |==|  0.18168 0.86730 0.61302 0.53144
USER: genes 2 Torsion [N]-C--CA-[N] |==|  0.01644
USER: genes 3 Torsion [C]-CA--CB-[CG] |==|  0.28352
USER: genes 4 Torsion [CA]-CB--CG-[CD1] |==|  0.66476
USER: genes 5 Torsion [C]-CA--N-[C] |==|  0.73909
USER: genes 6 Torsion [N]-C--CA-[N] |==|  0.47776
USER: genes 7 Torsion [C]-CA--CB-[CG1] |==|  0.19396
USER: genes 8 Torsion [CA]-CB--CG1-[CD1] |==|  0.31606
USER: genes 9 Torsion [C]-CA--N-[C] |==|  0.78270
USER: genes 10 Torsion [N]-C--CA-[N] |==|  0.19509
USER: genes 11 Torsion [C]-CA--CB-[CG] |==|  0.64966
USER: genes 12 Torsion [CA]-CB--CG-[OD1] |==|  0.16926
USER: genes 13 Torsion [C]-N--CA-[CB] |==|  0.83958
USER: genes 14 Torsion [N]-CA--CB-[CG] |==|  0.88699
USER: genes 15 Torsion [CA]-CB--CG-[CD1] |==|  0.28206
USER: genes 16 Torsion [N]-CA--C-[N] |==|  0.27222
USER: genes 17 Torsion [N]-CA--C-[O] |==|  0.97588
USER: genes 18 Torsion [C]-N--CA-[C] |==|  0.82232
USER: genes 19 Torsion [N]-CA--C-[O] |==|  0.86254
ROOT
ATOM      1  C   LEU G   4      39.275   5.830  23.001  1.00 61.38 LIG 0.24  C 
ATOM      2 O    LEU G   4      39.589   5.692  24.188  1.00 52.06 LIG-0.27  OA
ATOM      3  N   PHE G   5      39.827   5.180  21.991  1.00 60.80 LIG-0.35  N 
ATOM      4 H    PHE G   5      39.569   5.274  21.176  1.00 60.80 LIG 0.16  HD
ENDROOT
BRANCH 1 5
ATOM      5  CA  LEU G   4      38.223   6.814  22.582  1.00 58.56 LIG 0.18  C 
BRANCH 5 6
ATOM      6  CB  LEU G   4      36.966   6.524  23.397  1.00 61.47 LIG 0.04  C 
BRANCH 6 7
ATOM      7  CG  LEU G   4      36.740   7.480  24.548  1.00 62.80 LIG-0.02  C 
ATOM      8  CD1 LEU G   4      36.714   6.652  25.816  1.00 63.22 LIG 0.01  C 
ATOM      9  CD2 LEU G   4      37.863   8.516  24.549  1.00 64.86 LIG 0.01  C 
ENDBRANCH 6 7
ENDBRANCH 5 6
BRANCH 5 10
ATOM     10  N   LEU G   4      37.998   6.680  21.155  1.00 59.02 LIG-0.35  N 
ATOM     11 H    LEU G   4      37.427   6.076  20.933  1.00 59.02 LIG 0.16  HD
ATOM     12  C   ILE G   3      38.652   7.457  20.291  1.00 70.10 LIG 0.24  C 
ATOM     13 O    ILE G   3      39.300   8.463  20.657  1.00 64.55 LIG-0.27  OA
BRANCH 12 14
ATOM     14  CA  ILE G   3      38.565   7.048  18.797  1.00 67.83 LIG 0.18  C 
BRANCH 14 15
ATOM     15  CB  ILE G   3      39.258   5.671  18.552  1.00 66.94 LIG 0.01  C 
ATOM     16  CG2 ILE G   3      40.690   5.689  19.089  1.00 67.41 LIG 0.01  C 
BRANCH 15 17
ATOM     17  CG1 ILE G   3      38.465   4.493  19.182  1.00 59.79 LIG 0.00  C 
ATOM     18  CD1 ILE G   3      37.886   3.537  18.172  1.00 60.74 LIG 0.01  C 
ENDBRANCH 15 17
ENDBRANCH 14 15
BRANCH 14 19
ATOM     19  N   ILE G   3      39.160   8.083  17.966  1.00 79.60 LIG-0.34  N 
ATOM     20 H    ILE G   3      39.953   7.893  17.693  1.00 79.60 LIG 0.16  HD
ATOM     21  C   ASP G   2      38.535   9.223  17.654  1.00 93.07 LIG 0.26  C 
ATOM     22 O    ASP G   2      37.367   9.460  17.963  1.00 81.24 LIG-0.27  OA
BRANCH 21 23
ATOM     23  CA  ASP G   2      39.345  10.277  16.888  1.00 93.30 LIG 0.41  C 
ATOM     24  N   ASP G   2      39.577   9.778  15.502  1.00 94.60 LIG 0.61  N 
BRANCH 23 25
ATOM     25  CB  ASP G   2      38.635  11.638  16.848  1.00 96.36 LIG 0.16  C 
BRANCH 25 26
ATOM     26  CG  ASP G   2      38.473  12.169  15.440  1.00103.24 LIG 0.17  C 
ATOM     27 OD1  ASP G   2      37.808  11.509  14.616  1.00112.85 LIG-0.65  OA
ATOM     28 OD2  ASP G   2      39.004  13.252  15.151  1.00105.87 LIG-0.65  OA
ENDBRANCH 25 26
ENDBRANCH 23 25
ENDBRANCH 21 23
ENDBRANCH 14 19
ENDBRANCH 12 14
ENDBRANCH 5 10
ENDBRANCH 1 5
BRANCH 3 29
ATOM     29  CA  PHE G   5      40.910   4.253  22.148  1.00 70.05 LIG 0.18  C 
BRANCH 29 30
ATOM     30  CB  PHE G   5      42.119   4.937  22.819  1.00 73.20 LIG 0.07  C 
BRANCH 30 31
ATOM     31  CG  PHE G   5      42.361   6.348  22.305  1.00 79.36 LIG-0.06  A 
ATOM     32  CD1 PHE G   5      41.945   7.465  23.071  1.00 85.64 LIG 0.01  A 
ATOM     33  CE1 PHE G   5      42.166   8.764  22.631  1.00 88.71 LIG 0.00  A 
ATOM     34  CZ  PHE G   5      42.820   8.967  21.413  1.00 96.11 LIG 0.00  A 
ATOM     35  CE2 PHE G   5      43.255   7.872  20.648  1.00 91.53 LIG 0.00  A 
ATOM     36  CD2 PHE G   5      43.028   6.573  21.093  1.00 81.01 LIG 0.01  A 
ENDBRANCH 30 31
ENDBRANCH 29 30
BRANCH 29 37
ATOM     37  C   PHE G   5      40.343   3.078  22.936  1.00 74.26 LIG 0.24  C 
ATOM     38  N   PRO G   6      39.954   1.996  22.224  1.00 79.01 LIG-0.34  N 
ATOM     39  CD  PRO G   6      39.909   1.940  20.738  1.00 76.17 LIG 0.13  C 
ATOM     40  CA  PRO G   6      39.234   0.872  22.842  1.00 78.34 LIG 0.18  C 
ATOM     41  CG  PRO G   6      39.487   0.540  20.456  1.00 78.03 LIG 0.02  C 
ATOM     42  CB  PRO G   6      38.608   0.174  21.623  1.00 82.73 LIG 0.04  C 
ATOM     43 O    PHE G   5      40.169   3.184  24.156  1.00 61.78 LIG-0.27  OA
BRANCH 40 44
ATOM     44  C   PRO G   6      40.088  -0.133  23.648  1.00 77.34 LIG 0.24  C 
ATOM     45 O    PRO G   6      41.303  -0.047  23.601  1.00 92.50 LIG-0.27  OA
ATOM     46  N   ALA G   7      39.454  -1.068  24.370  1.00 74.20 LIG-0.35  N 
ATOM     47 H    ALA G   7      38.639  -0.990  24.634  1.00 74.20 LIG 0.16  HD
BRANCH 46 48
ATOM     48  CA  ALA G   7      40.103  -2.340  24.788  1.00 71.75 LIG 0.16  C 
ATOM     49  CB  ALA G   7      39.180  -3.130  25.717  1.00 70.01 LIG 0.04  C 
BRANCH 48 50
ATOM     50  C   ALA G   7      40.461  -3.186  23.545  1.00 69.94 LIG 0.22  C 
ATOM     51 O    ALA G   7      39.601  -3.398  22.652  1.00 56.97 LIG-0.29  OA
ENDBRANCH 48 50
ENDBRANCH 46 48
ENDBRANCH 40 44
ENDBRANCH 29 37
ENDBRANCH 3 29
TORSDOF 18
ENDMDL
MODEL 108
USER: ADFR SOLUTION from run 56
USER: SCORE 14.813834 LL:  -5.259 LR: -10.171 RR:   0.000 FEB:  -4.801
USER: RMSD 12.440524
USER: SEED 55
USER: STATUS searching
USER: GENES 20
USER: genes 0 Translation |==|  0.54094 0.24412 0.59393
USER: genes 1 Rotation |==|  0.29583 0.31423 0.91584 0.52967
USER: genes 2 Torsion [N]-C--CA-[N] |==|  0.39995
USER: genes 3 Torsion [C]-CA--CB-[CG] |==|  0.35589
USER: genes 4 Torsion [CA]-CB--CG-[CD1] |==|  0.73702
USER: genes 5 Torsion [C]-CA--N-[C] |==|  0.71700
USER: genes 6 Torsion [N]-C--CA-[N] |==|  0.37697
USER: genes 7 Torsion [C]-CA--CB-[CG1] |==|  0.51419
USER: genes 8 Torsion [CA]-CB--CG1-[CD1] |==|  0.49336
USER: genes 9 Torsion [C]-CA--N-[C] |==|  0.81239
USER: genes 10 Torsion [N]-C--CA-[N] |==|  0.76356
USER: genes 11 Torsion [C]-CA--CB-[CG] |==|  0.72890
USER: genes 12 Torsion [CA]-CB--CG-[OD1] |==|  0.10769
USER: genes 13 Torsion [C]-N--CA-[CB] |==|  0.79977
USER: genes 14 Torsion [N]-CA--CB-[CG] |==|  0.76203
USER: genes 15 Torsion [CA]-CB--CG-[CD1] |==|  0.25152
USER: genes 16 Torsion [N]-CA--C-[N] |==|  0.17222
USER: genes 17 Torsion [N]-CA--C-[O] |==|  0.17259
USER: genes 18 Torsion [C]-N--CA-[C] |==|  0.50526
USER: genes 19 Torsion [N]-CA--C-[O] |==|  0.58536
ROOT
ATOM      1  C   LEU G   4      40.634  -0.920  24.236  1.00 61.38 LIG 0.24  C 
ATOM      2 O    LEU G   4      41.734  -0.393  24.031  1.00 52.06 LIG-0.27  OA
ATOM      3  N   PHE G   5      39.508  -0.262  24.447  1.00 60.80 LIG-0.35  N 
ATOM      4 H    PHE G   5      38.750  -0.653  24.559  1.00 60.80 LIG 0.16  HD
ENDROOT
BRANCH 1 5
ATOM      5  CA  LEU G   4      40.484  -2.411  24.302  1.00 58.56 LIG 0.18  C 
BRANCH 5 6
ATOM      6  CB  LEU G   4      40.821  -2.848  25.724  1.00 61.47 LIG 0.04  C 
BRANCH 6 7
ATOM      7  CG  LEU G   4      39.767  -3.719  26.372  1.00 62.80 LIG-0.02  C 
ATOM      8  CD1 LEU G   4      38.868  -2.806  27.178  1.00 63.22 LIG 0.01  C 
ATOM      9  CD2 LEU G   4      39.011  -4.466  25.273  1.00 64.86 LIG 0.01  C 
ENDBRANCH 6 7
ENDBRANCH 5 6
BRANCH 5 10
ATOM     10  N   LEU G   4      41.360  -3.014  23.316  1.00 59.02 LIG-0.35  N 
ATOM     11 H    LEU G   4      42.188  -3.052  23.542  1.00 59.02 LIG 0.16  HD
ATOM     12  C   ILE G   3      40.870  -3.460  22.159  1.00 70.10 LIG 0.24  C 
ATOM     13 O    ILE G   3      39.642  -3.589  21.959  1.00 64.55 LIG-0.27  OA
BRANCH 12 14
ATOM     14  CA  ILE G   3      41.911  -3.818  21.064  1.00 67.83 LIG 0.18  C 
BRANCH 14 15
ATOM     15  CB  ILE G   3      42.018  -2.680  20.000  1.00 66.94 LIG 0.01  C 
ATOM     16  CG2 ILE G   3      42.491  -1.380  20.652  1.00 67.41 LIG 0.01  C 
BRANCH 15 17
ATOM     17  CG1 ILE G   3      42.958  -3.063  18.823  1.00 59.79 LIG 0.00  C 
ATOM     18  CD1 ILE G   3      43.044  -2.014  17.746  1.00 60.74 LIG 0.01  C 
ENDBRANCH 15 17
ENDBRANCH 14 15
BRANCH 14 19
ATOM     19  N   ILE G   3      41.556  -5.082  20.439  1.00 79.60 LIG-0.34  N 
ATOM     20 H    ILE G   3      41.315  -5.004  19.617  1.00 79.60 LIG 0.16  HD
ATOM     21  C   ASP G   2      41.598  -6.254  21.078  1.00 93.07 LIG 0.26  C 
ATOM     22 O    ASP G   2      42.030  -6.385  22.224  1.00 81.24 LIG-0.27  OA
BRANCH 21 23
ATOM     23  CA  ASP G   2      41.059  -7.480  20.328  1.00 93.30 LIG 0.41  C 
ATOM     24  N   ASP G   2      39.583  -7.545  20.532  1.00 94.60 LIG 0.61  N 
BRANCH 23 25
ATOM     25  CB  ASP G   2      41.385  -7.432  18.828  1.00 96.36 LIG 0.16  C 
BRANCH 25 26
ATOM     26  CG  ASP G   2      40.233  -6.907  17.999  1.00103.24 LIG 0.17  C 
ATOM     27 OD1  ASP G   2      39.545  -5.967  18.444  1.00112.85 LIG-0.65  OA
ATOM     28 OD2  ASP G   2      40.013  -7.428  16.895  1.00105.87 LIG-0.65  OA
ENDBRANCH 25 26
ENDBRANCH 23 25
ENDBRANCH 21 23
ENDBRANCH 14 19
ENDBRANCH 12 14
ENDBRANCH 5 10
ENDBRANCH 1 5
BRANCH 3 29
ATOM     29  CA  PHE G   5      39.431   1.170  24.513  1.00 70.05 LIG 0.18  C 
BRANCH 29 30
ATOM     30  CB  PHE G   5      40.064   1.690  25.820  1.00 73.20 LIG 0.07  C 
BRANCH 30 31
ATOM     31  CG  PHE G   5      39.090   1.693  26.989  1.00 79.36 LIG-0.06  A 
ATOM     32  CD1 PHE G   5      38.984   0.558  27.831  1.00 85.64 LIG 0.01  A 
ATOM     33  CE1 PHE G   5      38.113   0.542  28.912  1.00 88.71 LIG 0.00  A 
ATOM     34  CZ  PHE G   5      37.334   1.672  29.176  1.00 96.11 LIG 0.00  A 
ATOM     35  CE2 PHE G   5      37.438   2.812  28.363  1.00 91.53 LIG 0.00  A 
ATOM     36  CD2 PHE G   5      38.310   2.822  27.279  1.00 81.01 LIG 0.01  A 
ENDBRANCH 30 31
ENDBRANCH 29 30
BRANCH 29 37
ATOM     37  C   PHE G   5      40.107   1.682  23.247  1.00 74.26 LIG 0.24  C 
ATOM     38  N   PRO G   6      39.546   1.327  22.069  1.00 79.01 LIG-0.34  N 
ATOM     39  CD  PRO G   6      38.420   0.363  21.931  1.00 76.17 LIG 0.13  C 
ATOM     40  CA  PRO G   6      40.195   1.608  20.779  1.00 78.34 LIG 0.18  C 
ATOM     41  CG  PRO G   6      38.137   0.368  20.469  1.00 78.03 LIG 0.02  C 
ATOM     42  CB  PRO G   6      39.475   0.634  19.831  1.00 82.73 LIG 0.04  C 
ATOM     43 O    PHE G   5      41.171   2.308  23.329  1.00 61.78 LIG-0.27  OA
BRANCH 40 44
ATOM     44  C   PRO G   6      40.071   3.054  20.247  1.00 77.34 LIG 0.24  C 
ATOM     45 O    PRO G   6      40.551   3.966  20.897  1.00 92.50 LIG-0.27  OA
ATOM     46  N   ALA G   7      39.432   3.249  19.084  1.00 74.20 LIG-0.35  N 
ATOM     47 H    ALA G   7      39.329   2.633  18.492  1.00 74.20 LIG 0.16  HD
BRANCH 46 48
ATOM     48  CA  ALA G   7      38.836   4.557  18.702  1.00 71.75 LIG 0.16  C 
ATOM     49  CB  ALA G   7      39.914   5.641  18.653  1.00 70.01 LIG 0.04  C 
BRANCH 48 50
ATOM     50  C   ALA G   7      38.135   4.439  17.329  1.00 69.94 LIG 0.22  C 
ATOM     51 O    ALA G   7      38.077   5.431  16.559  1.00 56.97 LIG-0.29  OA
ENDBRANCH 48 50
ENDBRANCH 46 48
ENDBRANCH 40 44
ENDBRANCH 29 37
ENDBRANCH 3 29
TORSDOF 18
ENDMDL
MODEL 109
USER: ADFR SOLUTION from run 198
USER: SCORE 14.221549 LL:  -6.001 LR: -10.166 RR:   0.000 FEB:  -4.797
USER: RMSD 10.712257
USER: SEED 197
USER: STATUS no improvement in best in 20 clusters for 5 generations
USER: GENES 20
USER: genes 0 Translation |==|  0.38289 0.38764 0.83307
USER: genes 1 Rotation |==|  0.88470 0.55428 0.72656 0.71847
USER: genes 2 Torsion [N]-C--CA-[N] |==|  0.80630
USER: genes 3 Torsion [C]-CA--CB-[CG] |==|  0.35900
USER: genes 4 Torsion [CA]-CB--CG-[CD1] |==|  0.91889
USER: genes 5 Torsion [C]-CA--N-[C] |==|  0.20953
USER: genes 6 Torsion [N]-C--CA-[N] |==|  0.88137
USER: genes 7 Torsion [C]-CA--CB-[CG1] |==|  0.63939
USER: genes 8 Torsion [CA]-CB--CG1-[CD1] |==|  0.45605
USER: genes 9 Torsion [C]-CA--N-[C] |==|  0.78251
USER: genes 10 Torsion [N]-C--CA-[N] |==|  0.88206
USER: genes 11 Torsion [C]-CA--CB-[CG] |==|  0.70545
USER: genes 12 Torsion [CA]-CB--CG-[OD1] |==|  0.27230
USER: genes 13 Torsion [C]-N--CA-[CB] |==|  0.45000
USER: genes 14 Torsion [N]-CA--CB-[CG] |==|  0.34294
USER: genes 15 Torsion [CA]-CB--CG-[CD1] |==|  0.26388
USER: genes 16 Torsion [N]-CA--C-[N] |==|  0.40908
USER: genes 17 Torsion [N]-CA--C-[O] |==|  0.21409
USER: genes 18 Torsion [C]-N--CA-[C] |==|  0.53517
USER: genes 19 Torsion [N]-CA--C-[O] |==|  0.00230
ROOT
ATOM      1  C   LEU G   4      38.027   3.063  28.182  1.00 61.38 LIG 0.24  C 
ATOM      2 O    LEU G   4      36.883   3.531  28.183  1.00 52.06 LIG-0.27  OA
ATOM      3  N   PHE G   5      39.128   3.756  27.949  1.00 60.80 LIG-0.35  N 
ATOM      4 H    PHE G   5      39.915   3.411  27.984  1.00 60.80 LIG 0.16  HD
ENDROOT
BRANCH 1 5
ATOM      5  CA  LEU G   4      38.272   1.602  28.417  1.00 58.56 LIG 0.18  C 
BRANCH 5 6
ATOM      6  CB  LEU G   4      39.332   1.480  29.508  1.00 61.47 LIG 0.04  C 
BRANCH 6 7
ATOM      7  CG  LEU G   4      38.952   0.551  30.640  1.00 62.80 LIG-0.02  C 
ATOM      8  CD1 LEU G   4      37.442   0.581  30.754  1.00 63.22 LIG 0.01  C 
ATOM      9  CD2 LEU G   4      39.488  -0.846  30.326  1.00 64.86 LIG 0.01  C 
ENDBRANCH 6 7
ENDBRANCH 5 6
BRANCH 5 10
ATOM     10  N   LEU G   4      38.690   0.991  27.170  1.00 59.02 LIG-0.35  N 
ATOM     11 H    LEU G   4      38.089   0.516  26.780  1.00 59.02 LIG 0.16  HD
ATOM     12  C   ILE G   3      39.925   1.180  26.705  1.00 70.10 LIG 0.24  C 
ATOM     13 O    ILE G   3      40.692   2.047  27.180  1.00 64.55 LIG-0.27  OA
BRANCH 12 14
ATOM     14  CA  ILE G   3      40.366   0.263  25.532  1.00 67.83 LIG 0.18  C 
BRANCH 14 15
ATOM     15  CB  ILE G   3      39.804   0.785  24.172  1.00 66.94 LIG 0.01  C 
ATOM     16  CG2 ILE G   3      40.921   1.411  23.337  1.00 67.41 LIG 0.01  C 
BRANCH 15 17
ATOM     17  CG1 ILE G   3      39.092  -0.334  23.362  1.00 59.79 LIG 0.00  C 
ATOM     18  CD1 ILE G   3      38.221   0.181  22.247  1.00 60.74 LIG 0.01  C 
ENDBRANCH 15 17
ENDBRANCH 14 15
BRANCH 14 19
ATOM     19  N   ILE G   3      39.932  -1.103  25.783  1.00 79.60 LIG-0.34  N 
ATOM     20 H    ILE G   3      39.230  -1.328  25.341  1.00 79.60 LIG 0.16  HD
ATOM     21  C   ASP G   2      40.564  -1.931  26.620  1.00 93.07 LIG 0.26  C 
ATOM     22 O    ASP G   2      41.622  -1.646  27.183  1.00 81.24 LIG-0.27  OA
BRANCH 21 23
ATOM     23  CA  ASP G   2      39.906  -3.291  26.887  1.00 93.30 LIG 0.41  C 
ATOM     24  N   ASP G   2      38.441  -3.079  27.063  1.00 94.60 LIG 0.61  N 
BRANCH 23 25
ATOM     25  CB  ASP G   2      40.164  -4.294  25.753  1.00 96.36 LIG 0.16  C 
BRANCH 25 26
ATOM     26  CG  ASP G   2      38.942  -4.523  24.890  1.00103.24 LIG 0.17  C 
ATOM     27 OD1  ASP G   2      38.835  -3.904  23.813  1.00112.85 LIG-0.65  OA
ATOM     28 OD2  ASP G   2      38.084  -5.329  25.282  1.00105.87 LIG-0.65  OA
ENDBRANCH 25 26
ENDBRANCH 23 25
ENDBRANCH 21 23
ENDBRANCH 14 19
ENDBRANCH 12 14
ENDBRANCH 5 10
ENDBRANCH 1 5
BRANCH 3 29
ATOM     29  CA  PHE G   5      39.126   5.152  27.617  1.00 70.05 LIG 0.18  C 
BRANCH 29 30
ATOM     30  CB  PHE G   5      40.523   5.767  27.844  1.00 73.20 LIG 0.07  C 
BRANCH 30 31
ATOM     31  CG  PHE G   5      41.088   6.429  26.597  1.00 79.36 LIG-0.06  A 
ATOM     32  CD1 PHE G   5      40.922   7.821  26.392  1.00 85.64 LIG 0.01  A 
ATOM     33  CE1 PHE G   5      41.440   8.452  25.269  1.00 88.71 LIG 0.00  A 
ATOM     34  CZ  PHE G   5      42.146   7.695  24.328  1.00 96.11 LIG 0.00  A 
ATOM     35  CE2 PHE G   5      42.335   6.317  24.522  1.00 91.53 LIG 0.00  A 
ATOM     36  CD2 PHE G   5      41.811   5.690  25.649  1.00 81.01 LIG 0.01  A 
ENDBRANCH 30 31
ENDBRANCH 29 30
BRANCH 29 37
ATOM     37  C   PHE G   5      38.635   5.237  26.177  1.00 74.26 LIG 0.24  C 
ATOM     38  N   PRO G   6      37.915   6.331  25.841  1.00 79.01 LIG-0.34  N 
ATOM     39  CD  PRO G   6      37.454   7.363  26.808  1.00 76.17 LIG 0.13  C 
ATOM     40  CA  PRO G   6      37.239   6.451  24.539  1.00 78.34 LIG 0.18  C 
ATOM     41  CG  PRO G   6      36.775   8.369  25.945  1.00 78.03 LIG 0.02  C 
ATOM     42  CB  PRO G   6      36.208   7.561  24.807  1.00 82.73 LIG 0.04  C 
ATOM     43 O    PHE G   5      38.821   4.286  25.408  1.00 61.78 LIG-0.27  OA
BRANCH 40 44
ATOM     44  C   PRO G   6      38.128   6.833  23.335  1.00 77.34 LIG 0.24  C 
ATOM     45 O    PRO G   6      38.840   5.981  22.831  1.00 92.50 LIG-0.27  OA
ATOM     46  N   ALA G   7      38.084   8.098  22.890  1.00 74.20 LIG-0.35  N 
ATOM     47 H    ALA G   7      37.423   8.627  23.037  1.00 74.20 LIG 0.16  HD
BRANCH 46 48
ATOM     48  CA  ALA G   7      39.181   8.711  22.094  1.00 71.75 LIG 0.16  C 
ATOM     49  CB  ALA G   7      39.227   8.104  20.692  1.00 70.01 LIG 0.04  C 
BRANCH 48 50
ATOM     50  C   ALA G   7      38.982  10.241  22.008  1.00 69.94 LIG 0.22  C 
ATOM     51 O    ALA G   7      38.006  10.787  22.582  1.00 56.97 LIG-0.29  OA
ENDBRANCH 48 50
ENDBRANCH 46 48
ENDBRANCH 40 44
ENDBRANCH 29 37
ENDBRANCH 3 29
TORSDOF 18
ENDMDL
MODEL 110
USER: ADFR SOLUTION from run 173
USER: SCORE 14.816791 LL:  -5.965 LR: -10.157 RR:   0.000 FEB:  -4.787
USER: RMSD 5.935722
USER: SEED 172
USER: STATUS no improvement in best in 20 clusters for 5 generations
USER: GENES 20
USER: genes 0 Translation |==|  0.49186 0.47509 0.62482
USER: genes 1 Rotation |==|  0.67615 0.05068 0.50461 0.63061
USER: genes 2 Torsion [N]-C--CA-[N] |==|  0.84838
USER: genes 3 Torsion [C]-CA--CB-[CG] |==|  0.21888
USER: genes 4 Torsion [CA]-CB--CG-[CD1] |==|  0.10713
USER: genes 5 Torsion [C]-CA--N-[C] |==|  0.57261
USER: genes 6 Torsion [N]-C--CA-[N] |==|  0.88130
USER: genes 7 Torsion [C]-CA--CB-[CG1] |==|  0.73398
USER: genes 8 Torsion [CA]-CB--CG1-[CD1] |==|  0.54880
USER: genes 9 Torsion [C]-CA--N-[C] |==|  0.83355
USER: genes 10 Torsion [N]-C--CA-[N] |==|  0.56434
USER: genes 11 Torsion [C]-CA--CB-[CG] |==|  0.72711
USER: genes 12 Torsion [CA]-CB--CG-[OD1] |==|  0.61166
USER: genes 13 Torsion [C]-N--CA-[CB] |==|  0.13185
USER: genes 14 Torsion [N]-CA--CB-[CG] |==|  0.19108
USER: genes 15 Torsion [CA]-CB--CG-[CD1] |==|  0.82839
USER: genes 16 Torsion [N]-CA--C-[N] |==|  0.18219
USER: genes 17 Torsion [N]-CA--C-[O] |==|  0.69313
USER: genes 18 Torsion [C]-N--CA-[C] |==|  0.52567
USER: genes 19 Torsion [N]-CA--C-[O] |==|  0.11448
ROOT
ATOM      1  C   LEU G   4      39.825   5.490  24.745  1.00 61.38 LIG 0.24  C 
ATOM      2 O    LEU G   4      40.615   5.954  25.575  1.00 52.06 LIG-0.27  OA
ATOM      3  N   PHE G   5      39.583   4.203  24.568  1.00 60.80 LIG-0.35  N 
ATOM      4 H    PHE G   5      39.006   3.907  24.003  1.00 60.80 LIG 0.16  HD
ENDROOT
BRANCH 1 5
ATOM      5  CA  LEU G   4      39.068   6.380  23.804  1.00 58.56 LIG 0.18  C 
BRANCH 5 6
ATOM      6  CB  LEU G   4      37.588   6.277  24.158  1.00 61.47 LIG 0.04  C 
BRANCH 6 7
ATOM      7  CG  LEU G   4      37.180   7.094  25.365  1.00 62.80 LIG-0.02  C 
ATOM      8  CD1 LEU G   4      37.950   8.396  25.302  1.00 63.22 LIG 0.01  C 
ATOM      9  CD2 LEU G   4      35.667   7.305  25.321  1.00 64.86 LIG 0.01  C 
ENDBRANCH 6 7
ENDBRANCH 5 6
BRANCH 5 10
ATOM     10  N   LEU G   4      39.341   5.962  22.443  1.00 59.02 LIG-0.35  N 
ATOM     11 H    LEU G   4      39.559   5.134  22.355  1.00 59.02 LIG 0.16  HD
ATOM     12  C   ILE G   3      39.248   6.831  21.436  1.00 70.10 LIG 0.24  C 
ATOM     13 O    ILE G   3      38.718   7.956  21.573  1.00 64.55 LIG-0.27  OA
BRANCH 12 14
ATOM     14  CA  ILE G   3      39.833   6.371  20.074  1.00 67.83 LIG 0.18  C 
BRANCH 14 15
ATOM     15  CB  ILE G   3      38.834   5.435  19.322  1.00 66.94 LIG 0.01  C 
ATOM     16  CG2 ILE G   3      38.842   5.738  17.824  1.00 67.41 LIG 0.01  C 
BRANCH 15 17
ATOM     17  CG1 ILE G   3      39.139   3.931  19.568  1.00 59.79 LIG 0.00  C 
ATOM     18  CD1 ILE G   3      38.497   3.008  18.565  1.00 60.74 LIG 0.01  C 
ENDBRANCH 15 17
ENDBRANCH 14 15
BRANCH 14 19
ATOM     19  N   ILE G   3      41.109   5.705  20.284  1.00 79.60 LIG-0.34  N 
ATOM     20 H    ILE G   3      41.123   4.891  20.008  1.00 79.60 LIG 0.16  HD
ATOM     21  C   ASP G   2      42.162   6.300  20.852  1.00 93.07 LIG 0.26  C 
ATOM     22 O    ASP G   2      42.179   7.492  21.163  1.00 81.24 LIG-0.27  OA
BRANCH 21 23
ATOM     23  CA  ASP G   2      43.391   5.426  21.134  1.00 93.30 LIG 0.41  C 
ATOM     24  N   ASP G   2      44.185   6.065  22.222  1.00 94.60 LIG 0.61  N 
BRANCH 23 25
ATOM     25  CB  ASP G   2      43.006   3.993  21.531  1.00 96.36 LIG 0.16  C 
BRANCH 25 26
ATOM     26  CG  ASP G   2      43.018   3.782  23.030  1.00103.24 LIG 0.17  C 
ATOM     27 OD1  ASP G   2      43.470   2.714  23.488  1.00112.85 LIG-0.65  OA
ATOM     28 OD2  ASP G   2      42.581   4.686  23.758  1.00105.87 LIG-0.65  OA
ENDBRANCH 25 26
ENDBRANCH 23 25
ENDBRANCH 21 23
ENDBRANCH 14 19
ENDBRANCH 12 14
ENDBRANCH 5 10
ENDBRANCH 1 5
BRANCH 3 29
ATOM     29  CA  PHE G   5      40.256   3.166  25.299  1.00 70.05 LIG 0.18  C 
BRANCH 29 30
ATOM     30  CB  PHE G   5      40.271   3.486  26.808  1.00 73.20 LIG 0.07  C 
BRANCH 30 31
ATOM     31  CG  PHE G   5      38.891   3.406  27.443  1.00 79.36 LIG-0.06  A 
ATOM     32  CD1 PHE G   5      37.856   4.270  27.007  1.00 85.64 LIG 0.01  A 
ATOM     33  CE1 PHE G   5      36.584   4.208  27.561  1.00 88.71 LIG 0.00  A 
ATOM     34  CZ  PHE G   5      36.322   3.267  28.561  1.00 96.11 LIG 0.00  A 
ATOM     35  CE2 PHE G   5      37.331   2.391  28.994  1.00 91.53 LIG 0.00  A 
ATOM     36  CD2 PHE G   5      38.605   2.460  28.437  1.00 81.01 LIG 0.01  A 
ENDBRANCH 30 31
ENDBRANCH 29 30
BRANCH 29 37
ATOM     37  C   PHE G   5      39.535   1.871  24.943  1.00 74.26 LIG 0.24  C 
ATOM     38  N   PRO G   6      39.623   1.456  23.659  1.00 79.01 LIG-0.34  N 
ATOM     39  CD  PRO G   6      40.240   2.247  22.561  1.00 76.17 LIG 0.13  C 
ATOM     40  CA  PRO G   6      38.834   0.323  23.150  1.00 78.34 LIG 0.18  C 
ATOM     41  CG  PRO G   6      40.144   1.341  21.384  1.00 78.03 LIG 0.02  C 
ATOM     42  CB  PRO G   6      38.890   0.544  21.628  1.00 82.73 LIG 0.04  C 
ATOM     43 O    PHE G   5      38.834   1.307  25.791  1.00 61.78 LIG-0.27  OA
BRANCH 40 44
ATOM     44  C   PRO G   6      39.355  -1.089  23.499  1.00 77.34 LIG 0.24  C 
ATOM     45 O    PRO G   6      39.816  -1.786  22.611  1.00 92.50 LIG-0.27  OA
ATOM     46  N   ALA G   7      39.277  -1.497  24.775  1.00 74.20 LIG-0.35  N 
ATOM     47 H    ALA G   7      39.216  -0.956  25.441  1.00 74.20 LIG 0.16  HD
BRANCH 46 48
ATOM     48  CA  ALA G   7      39.287  -2.932  25.164  1.00 71.75 LIG 0.16  C 
ATOM     49  CB  ALA G   7      40.649  -3.558  24.864  1.00 70.01 LIG 0.04  C 
BRANCH 48 50
ATOM     50  C   ALA G   7      38.952  -3.076  26.666  1.00 69.94 LIG 0.22  C 
ATOM     51 O    ALA G   7      38.049  -2.372  27.186  1.00 56.97 LIG-0.29  OA
ENDBRANCH 48 50
ENDBRANCH 46 48
ENDBRANCH 40 44
ENDBRANCH 29 37
ENDBRANCH 3 29
TORSDOF 18
ENDMDL
MODEL 111
USER: ADFR SOLUTION from run 92
USER: SCORE 15.025638 LL:  -6.028 LR: -10.158 RR:   0.000 FEB:  -4.788
USER: RMSD 8.830830
USER: SEED 91
USER: STATUS no improvement in best in 28 clusters for 5 generations
USER: GENES 20
USER: genes 0 Translation |==|  0.42614 0.53081 0.57821
USER: genes 1 Rotation |==|  0.77270 0.49649 0.54835 0.91627
USER: genes 2 Torsion [N]-C--CA-[N] |==|  0.05741
USER: genes 3 Torsion [C]-CA--CB-[CG] |==|  0.33100
USER: genes 4 Torsion [CA]-CB--CG-[CD1] |==|  0.83847
USER: genes 5 Torsion [C]-CA--N-[C] |==|  0.61815
USER: genes 6 Torsion [N]-C--CA-[N] |==|  0.41075
USER: genes 7 Torsion [C]-CA--CB-[CG1] |==|  0.83432
USER: genes 8 Torsion [CA]-CB--CG1-[CD1] |==|  0.57273
USER: genes 9 Torsion [C]-CA--N-[C] |==|  0.80241
USER: genes 10 Torsion [N]-C--CA-[N] |==|  0.73796
USER: genes 11 Torsion [C]-CA--CB-[CG] |==|  0.76033
USER: genes 12 Torsion [CA]-CB--CG-[OD1] |==|  0.54701
USER: genes 13 Torsion [C]-N--CA-[CB] |==|  0.49444
USER: genes 14 Torsion [N]-CA--CB-[CG] |==|  0.23283
USER: genes 15 Torsion [CA]-CB--CG-[CD1] |==|  0.78115
USER: genes 16 Torsion [N]-CA--C-[N] |==|  0.37060
USER: genes 17 Torsion [N]-CA--C-[O] |==|  0.71489
USER: genes 18 Torsion [C]-N--CA-[C] |==|  0.50577
USER: genes 19 Torsion [N]-CA--C-[O] |==|  0.85744
ROOT
ATOM      1  C   LEU G   4      38.740   7.036  23.976  1.00 61.38 LIG 0.24  C 
ATOM      2 O    LEU G   4      38.257   8.040  23.441  1.00 52.06 LIG-0.27  OA
ATOM      3  N   PHE G   5      39.788   6.368  23.526  1.00 60.80 LIG-0.35  N 
ATOM      4 H    PHE G   5      40.123   5.690  23.934  1.00 60.80 LIG 0.16  HD
ENDROOT
BRANCH 1 5
ATOM      5  CA  LEU G   4      38.133   6.442  25.213  1.00 58.56 LIG 0.18  C 
BRANCH 5 6
ATOM      6  CB  LEU G   4      37.679   7.593  26.105  1.00 61.47 LIG 0.04  C 
BRANCH 6 7
ATOM      7  CG  LEU G   4      36.193   7.609  26.389  1.00 62.80 LIG-0.02  C 
ATOM      8  CD1 LEU G   4      35.485   7.685  25.053  1.00 63.22 LIG 0.01  C 
ATOM      9  CD2 LEU G   4      35.833   6.347  27.172  1.00 64.86 LIG 0.01  C 
ENDBRANCH 6 7
ENDBRANCH 5 6
BRANCH 5 10
ATOM     10  N   LEU G   4      39.119   5.598  25.859  1.00 59.02 LIG-0.35  N 
ATOM     11 H    LEU G   4      39.914   5.926  25.889  1.00 59.02 LIG 0.16  HD
ATOM     12  C   ILE G   3      38.772   4.410  26.355  1.00 70.10 LIG 0.24  C 
ATOM     13 O    ILE G   3      37.577   4.067  26.491  1.00 64.55 LIG-0.27  OA
BRANCH 12 14
ATOM     14  CA  ILE G   3      39.937   3.468  26.761  1.00 67.83 LIG 0.18  C 
BRANCH 14 15
ATOM     15  CB  ILE G   3      40.385   2.579  25.558  1.00 66.94 LIG 0.01  C 
ATOM     16  CG2 ILE G   3      41.580   1.711  25.949  1.00 67.41 LIG 0.01  C 
BRANCH 15 17
ATOM     17  CG1 ILE G   3      39.229   1.690  25.022  1.00 59.79 LIG 0.00  C 
ATOM     18  CD1 ILE G   3      39.694   0.429  24.342  1.00 60.74 LIG 0.01  C 
ENDBRANCH 15 17
ENDBRANCH 14 15
BRANCH 14 19
ATOM     19  N   ILE G   3      39.536   2.645  27.892  1.00 79.60 LIG-0.34  N 
ATOM     20 H    ILE G   3      39.413   1.819  27.691  1.00 79.60 LIG 0.16  HD
ATOM     21  C   ASP G   2      39.374   3.127  29.128  1.00 93.07 LIG 0.26  C 
ATOM     22 O    ASP G   2      39.639   4.288  29.442  1.00 81.24 LIG-0.27  OA
BRANCH 21 23
ATOM     23  CA  ASP G   2      38.812   2.167  30.184  1.00 93.30 LIG 0.41  C 
ATOM     24  N   ASP G   2      37.334   2.354  30.253  1.00 94.60 LIG 0.61  N 
BRANCH 23 25
ATOM     25  CB  ASP G   2      39.146   0.700  29.872  1.00 96.36 LIG 0.16  C 
BRANCH 25 26
ATOM     26  CG  ASP G   2      38.135   0.058  28.948  1.00103.24 LIG 0.17  C 
ATOM     27 OD1  ASP G   2      38.094  -1.186  28.864  1.00112.85 LIG-0.65  OA
ATOM     28 OD2  ASP G   2      37.371   0.793  28.304  1.00105.87 LIG-0.65  OA
ENDBRANCH 25 26
ENDBRANCH 23 25
ENDBRANCH 21 23
ENDBRANCH 14 19
ENDBRANCH 12 14
ENDBRANCH 5 10
ENDBRANCH 1 5
BRANCH 3 29
ATOM     29  CA  PHE G   5      40.477   6.706  22.313  1.00 70.05 LIG 0.18  C 
BRANCH 29 30
ATOM     30  CB  PHE G   5      41.682   5.769  22.092  1.00 73.20 LIG 0.07  C 
BRANCH 30 31
ATOM     31  CG  PHE G   5      41.297   4.456  21.428  1.00 79.36 LIG-0.06  A 
ATOM     32  CD1 PHE G   5      40.704   3.419  22.192  1.00 85.64 LIG 0.01  A 
ATOM     33  CE1 PHE G   5      40.330   2.217  21.607  1.00 88.71 LIG 0.00  A 
ATOM     34  CZ  PHE G   5      40.537   2.033  20.237  1.00 96.11 LIG 0.00  A 
ATOM     35  CE2 PHE G   5      41.108   3.055  19.461  1.00 91.53 LIG 0.00  A 
ATOM     36  CD2 PHE G   5      41.483   4.257  20.053  1.00 81.01 LIG 0.01  A 
ENDBRANCH 30 31
ENDBRANCH 29 30
BRANCH 29 37
ATOM     37  C   PHE G   5      39.428   6.643  21.208  1.00 74.26 LIG 0.24  C 
ATOM     38  N   PRO G   6      39.397   7.677  20.337  1.00 79.01 LIG-0.34  N 
ATOM     39  CD  PRO G   6      40.205   8.918  20.476  1.00 76.17 LIG 0.13  C 
ATOM     40  CA  PRO G   6      38.327   7.822  19.337  1.00 78.34 LIG 0.18  C 
ATOM     41  CG  PRO G   6      39.863   9.694  19.252  1.00 78.03 LIG 0.02  C 
ATOM     42  CB  PRO G   6      38.439   9.308  18.952  1.00 82.73 LIG 0.04  C 
ATOM     43 O    PHE G   5      38.600   5.724  21.199  1.00 61.78 LIG-0.27  OA
BRANCH 40 44
ATOM     44  C   PRO G   6      38.442   6.938  18.074  1.00 77.34 LIG 0.24  C 
ATOM     45 O    PRO G   6      38.833   7.440  17.034  1.00 92.50 LIG-0.27  OA
ATOM     46  N   ALA G   7      38.102   5.644  18.172  1.00 74.20 LIG-0.35  N 
ATOM     47 H    ALA G   7      38.088   5.215  18.917  1.00 74.20 LIG 0.16  HD
BRANCH 46 48
ATOM     48  CA  ALA G   7      37.715   4.822  16.995  1.00 71.75 LIG 0.16  C 
ATOM     49  CB  ALA G   7      38.859   4.765  15.983  1.00 70.01 LIG 0.04  C 
BRANCH 48 50
ATOM     50  C   ALA G   7      37.333   3.395  17.449  1.00 69.94 LIG 0.22  C 
ATOM     51 O    ALA G   7      38.108   2.734  18.186  1.00 56.97 LIG-0.29  OA
ENDBRANCH 48 50
ENDBRANCH 46 48
ENDBRANCH 40 44
ENDBRANCH 29 37
ENDBRANCH 3 29
TORSDOF 18
ENDMDL
MODEL 112
USER: ADFR SOLUTION from run 75
USER: SCORE 14.105665 LL:  -5.537 LR: -10.162 RR:   0.000 FEB:  -4.792
USER: RMSD 5.525827
USER: SEED 74
USER: STATUS searching
USER: GENES 20
USER: genes 0 Translation |==|  0.42481 0.53993 0.65363
USER: genes 1 Rotation |==|  0.70028 0.14839 0.62560 0.76549
USER: genes 2 Torsion [N]-C--CA-[N] |==|  0.70000
USER: genes 3 Torsion [C]-CA--CB-[CG] |==|  0.30590
USER: genes 4 Torsion [CA]-CB--CG-[CD1] |==|  0.72415
USER: genes 5 Torsion [C]-CA--N-[C] |==|  0.16237
USER: genes 6 Torsion [N]-C--CA-[N] |==|  0.07006
USER: genes 7 Torsion [C]-CA--CB-[CG1] |==|  0.53914
USER: genes 8 Torsion [CA]-CB--CG1-[CD1] |==|  0.85931
USER: genes 9 Torsion [C]-CA--N-[C] |==|  0.17931
USER: genes 10 Torsion [N]-C--CA-[N] |==|  0.58113
USER: genes 11 Torsion [C]-CA--CB-[CG] |==|  0.64551
USER: genes 12 Torsion [CA]-CB--CG-[OD1] |==|  0.69551
USER: genes 13 Torsion [C]-N--CA-[CB] |==|  0.23884
USER: genes 14 Torsion [N]-CA--CB-[CG] |==|  0.81849
USER: genes 15 Torsion [CA]-CB--CG-[CD1] |==|  0.28001
USER: genes 16 Torsion [N]-CA--C-[N] |==|  0.84127
USER: genes 17 Torsion [N]-CA--C-[O] |==|  0.51119
USER: genes 18 Torsion [C]-N--CA-[C] |==|  0.17433
USER: genes 19 Torsion [N]-CA--C-[O] |==|  0.26148
ROOT
ATOM      1  C   LEU G   4      38.718   7.289  25.221  1.00 61.38 LIG 0.24  C 
ATOM      2 O    LEU G   4      39.417   8.309  25.221  1.00 52.06 LIG-0.27  OA
ATOM      3  N   PHE G   5      39.032   6.157  25.826  1.00 60.80 LIG-0.35  N 
ATOM      4 H    PHE G   5      38.514   5.471  25.835  1.00 60.80 LIG 0.16  HD
ENDROOT
BRANCH 1 5
ATOM      5  CA  LEU G   4      37.419   7.233  24.474  1.00 58.56 LIG 0.18  C 
BRANCH 5 6
ATOM      6  CB  LEU G   4      36.676   5.981  24.929  1.00 61.47 LIG 0.04  C 
BRANCH 6 7
ATOM      7  CG  LEU G   4      35.444   6.260  25.763  1.00 62.80 LIG-0.02  C 
ATOM      8  CD1 LEU G   4      35.837   6.071  27.213  1.00 63.22 LIG 0.01  C 
ATOM      9  CD2 LEU G   4      34.965   7.680  25.465  1.00 64.86 LIG 0.01  C 
ENDBRANCH 6 7
ENDBRANCH 5 6
BRANCH 5 10
ATOM     10  N   LEU G   4      37.697   7.223  23.051  1.00 59.02 LIG-0.35  N 
ATOM     11 H    LEU G   4      37.344   7.870  22.607  1.00 59.02 LIG 0.16  HD
ATOM     12  C   ILE G   3      38.451   6.262  22.515  1.00 70.10 LIG 0.24  C 
ATOM     13 O    ILE G   3      39.124   5.474  23.216  1.00 64.55 LIG-0.27  OA
BRANCH 12 14
ATOM     14  CA  ILE G   3      38.452   6.172  20.966  1.00 67.83 LIG 0.18  C 
BRANCH 14 15
ATOM     15  CB  ILE G   3      39.829   5.661  20.435  1.00 66.94 LIG 0.01  C 
ATOM     16  CG2 ILE G   3      40.016   4.181  20.772  1.00 67.41 LIG 0.01  C 
BRANCH 15 17
ATOM     17  CG1 ILE G   3      39.990   5.888  18.907  1.00 59.79 LIG 0.00  C 
ATOM     18  CD1 ILE G   3      38.832   5.380  18.089  1.00 60.74 LIG 0.01  C 
ENDBRANCH 15 17
ENDBRANCH 14 15
BRANCH 14 19
ATOM     19  N   ILE G   3      38.125   7.470  20.395  1.00 79.60 LIG-0.34  N 
ATOM     20 H    ILE G   3      37.385   7.478  19.959  1.00 79.60 LIG 0.16  HD
ATOM     21  C   ASP G   2      38.900   8.549  20.536  1.00 93.07 LIG 0.26  C 
ATOM     22 O    ASP G   2      39.913   8.568  21.237  1.00 81.24 LIG-0.27  OA
BRANCH 21 23
ATOM     23  CA  ASP G   2      38.494   9.808  19.758  1.00 93.30 LIG 0.41  C 
ATOM     24  N   ASP G   2      39.725  10.590  19.450  1.00 94.60 LIG 0.61  N 
BRANCH 23 25
ATOM     25  CB  ASP G   2      37.742   9.471  18.461  1.00 96.36 LIG 0.16  C 
BRANCH 25 26
ATOM     26  CG  ASP G   2      38.345  10.146  17.248  1.00103.24 LIG 0.17  C 
ATOM     27 OD1  ASP G   2      37.718  11.072  16.696  1.00112.85 LIG-0.65  OA
ATOM     28 OD2  ASP G   2      39.452   9.759  16.844  1.00105.87 LIG-0.65  OA
ENDBRANCH 25 26
ENDBRANCH 23 25
ENDBRANCH 21 23
ENDBRANCH 14 19
ENDBRANCH 12 14
ENDBRANCH 5 10
ENDBRANCH 1 5
BRANCH 3 29
ATOM     29  CA  PHE G   5      40.267   5.954  26.530  1.00 70.05 LIG 0.18  C 
BRANCH 29 30
ATOM     30  CB  PHE G   5      40.150   6.450  27.986  1.00 73.20 LIG 0.07  C 
BRANCH 30 31
ATOM     31  CG  PHE G   5      39.947   7.954  28.085  1.00 79.36 LIG-0.06  A 
ATOM     32  CD1 PHE G   5      38.654   8.484  28.318  1.00 85.64 LIG 0.01  A 
ATOM     33  CE1 PHE G   5      38.444   9.852  28.427  1.00 88.71 LIG 0.00  A 
ATOM     34  CZ  PHE G   5      39.534  10.719  28.311  1.00 96.11 LIG 0.00  A 
ATOM     35  CE2 PHE G   5      40.826  10.212  28.096  1.00 91.53 LIG 0.00  A 
ATOM     36  CD2 PHE G   5      41.030   8.840  27.985  1.00 81.01 LIG 0.01  A 
ENDBRANCH 30 31
ENDBRANCH 29 30
BRANCH 29 37
ATOM     37  C   PHE G   5      40.582   4.469  26.400  1.00 74.26 LIG 0.24  C 
ATOM     38  N   PRO G   6      39.645   3.604  26.851  1.00 79.01 LIG-0.34  N 
ATOM     39  CD  PRO G   6      38.416   4.006  27.588  1.00 76.17 LIG 0.13  C 
ATOM     40  CA  PRO G   6      39.898   2.158  26.943  1.00 78.34 LIG 0.18  C 
ATOM     41  CG  PRO G   6      37.701   2.718  27.798  1.00 78.03 LIG 0.02  C 
ATOM     42  CB  PRO G   6      38.801   1.696  27.918  1.00 82.73 LIG 0.04  C 
ATOM     43 O    PHE G   5      41.691   4.111  25.987  1.00 61.78 LIG-0.27  OA
BRANCH 40 44
ATOM     44  C   PRO G   6      39.805   1.358  25.624  1.00 77.34 LIG 0.24  C 
ATOM     45 O    PRO G   6      39.932   0.147  25.657  1.00 92.50 LIG-0.27  OA
ATOM     46  N   ALA G   7      39.589   2.035  24.486  1.00 74.20 LIG-0.35  N 
ATOM     47 H    ALA G   7      39.236   2.819  24.462  1.00 74.20 LIG 0.16  HD
BRANCH 46 48
ATOM     48  CA  ALA G   7      39.940   1.491  23.146  1.00 71.75 LIG 0.16  C 
ATOM     49  CB  ALA G   7      41.436   1.188  23.068  1.00 70.01 LIG 0.04  C 
BRANCH 48 50
ATOM     50  C   ALA G   7      39.120   0.212  22.862  1.00 69.94 LIG 0.22  C 
ATOM     51 O    ALA G   7      38.037   0.280  22.227  1.00 56.97 LIG-0.29  OA
ENDBRANCH 48 50
ENDBRANCH 46 48
ENDBRANCH 40 44
ENDBRANCH 29 37
ENDBRANCH 3 29
TORSDOF 18
ENDMDL
MODEL 113
USER: ADFR SOLUTION from run 144
USER: SCORE 14.673181 LL:  -5.359 LR: -10.154 RR:   0.000 FEB:  -4.784
USER: RMSD 6.123674
USER: SEED 143
USER: STATUS searching
USER: GENES 20
USER: genes 0 Translation |==|  0.46168 0.58835 0.41510
USER: genes 1 Rotation |==|  0.54068 0.04085 0.45066 0.68734
USER: genes 2 Torsion [N]-C--CA-[N] |==|  0.39946
USER: genes 3 Torsion [C]-CA--CB-[CG] |==|  0.31017
USER: genes 4 Torsion [CA]-CB--CG-[CD1] |==|  0.92513
USER: genes 5 Torsion [C]-CA--N-[C] |==|  0.56389
USER: genes 6 Torsion [N]-C--CA-[N] |==|  0.43180
USER: genes 7 Torsion [C]-CA--CB-[CG1] |==|  0.17988
USER: genes 8 Torsion [CA]-CB--CG1-[CD1] |==|  0.30169
USER: genes 9 Torsion [C]-CA--N-[C] |==|  0.81961
USER: genes 10 Torsion [N]-C--CA-[N] |==|  0.53432
USER: genes 11 Torsion [C]-CA--CB-[CG] |==|  0.84971
USER: genes 12 Torsion [CA]-CB--CG-[OD1] |==|  0.38605
USER: genes 13 Torsion [C]-N--CA-[CB] |==|  0.80325
USER: genes 14 Torsion [N]-CA--CB-[CG] |==|  0.81530
USER: genes 15 Torsion [CA]-CB--CG-[CD1] |==|  0.18802
USER: genes 16 Torsion [N]-CA--C-[N] |==|  0.23526
USER: genes 17 Torsion [N]-CA--C-[O] |==|  0.35711
USER: genes 18 Torsion [C]-N--CA-[C] |==|  0.76999
USER: genes 19 Torsion [N]-CA--C-[O] |==|  0.01532
ROOT
ATOM      1  C   LEU G   4      39.327   8.633  21.285  1.00 61.38 LIG 0.24  C 
ATOM      2 O    LEU G   4      40.426   8.562  21.846  1.00 52.06 LIG-0.27  OA
ATOM      3  N   PHE G   5      38.406   7.685  21.302  1.00 60.80 LIG-0.35  N 
ATOM      4 H    PHE G   5      37.637   7.772  20.927  1.00 60.80 LIG 0.16  HD
ENDROOT
BRANCH 1 5
ATOM      5  CA  LEU G   4      38.941   9.834  20.473  1.00 58.56 LIG 0.18  C 
BRANCH 5 6
ATOM      6  CB  LEU G   4      39.512   9.648  19.070  1.00 61.47 LIG 0.04  C 
BRANCH 6 7
ATOM      7  CG  LEU G   4      38.467   9.429  17.999  1.00 62.80 LIG-0.02  C 
ATOM      8  CD1 LEU G   4      37.262   8.806  18.673  1.00 63.22 LIG 0.01  C 
ATOM      9  CD2 LEU G   4      38.145  10.775  17.351  1.00 64.86 LIG 0.01  C 
ENDBRANCH 6 7
ENDBRANCH 5 6
BRANCH 5 10
ATOM     10  N   LEU G   4      39.454  11.023  21.125  1.00 59.02 LIG-0.35  N 
ATOM     11 H    LEU G   4      40.123  10.890  21.649  1.00 59.02 LIG 0.16  HD
ATOM     12  C   ILE G   3      38.898  12.213  20.896  1.00 70.10 LIG 0.24  C 
ATOM     13 O    ILE G   3      38.081  12.400  19.968  1.00 64.55 LIG-0.27  OA
BRANCH 12 14
ATOM     14  CA  ILE G   3      39.321  13.364  21.847  1.00 67.83 LIG 0.18  C 
BRANCH 14 15
ATOM     15  CB  ILE G   3      38.520  13.309  23.186  1.00 66.94 LIG 0.01  C 
ATOM     16  CG2 ILE G   3      37.018  13.406  22.914  1.00 67.41 LIG 0.01  C 
BRANCH 15 17
ATOM     17  CG1 ILE G   3      38.834  12.027  24.006  1.00 59.79 LIG 0.00  C 
ATOM     18  CD1 ILE G   3      39.648  12.282  25.248  1.00 60.74 LIG 0.01  C 
ENDBRANCH 15 17
ENDBRANCH 14 15
BRANCH 14 19
ATOM     19  N   ILE G   3      39.137  14.646  21.185  1.00 79.60 LIG-0.34  N 
ATOM     20 H    ILE G   3      38.540  15.142  21.554  1.00 79.60 LIG 0.16  HD
ATOM     21  C   ASP G   2      39.829  15.020  20.105  1.00 93.07 LIG 0.26  C 
ATOM     22 O    ASP G   2      40.750  14.355  19.628  1.00 81.24 LIG-0.27  OA
BRANCH 21 23
ATOM     23  CA  ASP G   2      39.422  16.340  19.436  1.00 93.30 LIG 0.41  C 
ATOM     24  N   ASP G   2      40.094  16.422  18.107  1.00 94.60 LIG 0.61  N 
BRANCH 23 25
ATOM     25  CB  ASP G   2      37.900  16.461  19.268  1.00 96.36 LIG 0.16  C 
BRANCH 25 26
ATOM     26  CG  ASP G   2      37.300  15.279  18.537  1.00103.24 LIG 0.17  C 
ATOM     27 OD1  ASP G   2      36.218  14.806  18.936  1.00112.85 LIG-0.65  OA
ATOM     28 OD2  ASP G   2      37.905  14.821  17.556  1.00105.87 LIG-0.65  OA
ENDBRANCH 25 26
ENDBRANCH 23 25
ENDBRANCH 21 23
ENDBRANCH 14 19
ENDBRANCH 12 14
ENDBRANCH 5 10
ENDBRANCH 1 5
BRANCH 3 29
ATOM     29  CA  PHE G   5      38.592   6.416  21.945  1.00 70.05 LIG 0.18  C 
BRANCH 29 30
ATOM     30  CB  PHE G   5      39.605   5.553  21.165  1.00 73.20 LIG 0.07  C 
BRANCH 30 31
ATOM     31  CG  PHE G   5      39.095   5.138  19.793  1.00 79.36 LIG-0.06  A 
ATOM     32  CD1 PHE G   5      38.910   6.111  18.779  1.00 85.64 LIG 0.01  A 
ATOM     33  CE1 PHE G   5      38.459   5.756  17.514  1.00 88.71 LIG 0.00  A 
ATOM     34  CZ  PHE G   5      38.193   4.412  17.238  1.00 96.11 LIG 0.00  A 
ATOM     35  CE2 PHE G   5      38.386   3.432  18.226  1.00 91.53 LIG 0.00  A 
ATOM     36  CD2 PHE G   5      38.835   3.794  19.492  1.00 81.01 LIG 0.01  A 
ENDBRANCH 30 31
ENDBRANCH 29 30
BRANCH 29 37
ATOM     37  C   PHE G   5      39.014   6.732  23.376  1.00 74.26 LIG 0.24  C 
ATOM     38  N   PRO G   6      38.025   6.971  24.266  1.00 79.01 LIG-0.34  N 
ATOM     39  CD  PRO G   6      36.585   7.090  23.910  1.00 76.17 LIG 0.13  C 
ATOM     40  CA  PRO G   6      38.300   7.456  25.627  1.00 78.34 LIG 0.18  C 
ATOM     41  CG  PRO G   6      35.917   7.285  25.226  1.00 78.03 LIG 0.02  C 
ATOM     42  CB  PRO G   6      36.935   8.022  26.055  1.00 82.73 LIG 0.04  C 
ATOM     43 O    PHE G   5      40.214   6.851  23.649  1.00 61.78 LIG-0.27  OA
BRANCH 40 44
ATOM     44  C   PRO G   6      38.779   6.400  26.649  1.00 77.34 LIG 0.24  C 
ATOM     45 O    PRO G   6      39.790   6.617  27.294  1.00 92.50 LIG-0.27  OA
ATOM     46  N   ALA G   7      38.059   5.276  26.785  1.00 74.20 LIG-0.35  N 
ATOM     47 H    ALA G   7      37.232   5.215  26.559  1.00 74.20 LIG 0.16  HD
BRANCH 46 48
ATOM     48  CA  ALA G   7      38.626   4.019  27.343  1.00 71.75 LIG 0.16  C 
ATOM     49  CB  ALA G   7      37.517   3.150  27.936  1.00 70.01 LIG 0.04  C 
BRANCH 48 50
ATOM     50  C   ALA G   7      39.380   3.242  26.240  1.00 69.94 LIG 0.22  C 
ATOM     51 O    ALA G   7      39.532   3.748  25.098  1.00 56.97 LIG-0.29  OA
ENDBRANCH 48 50
ENDBRANCH 46 48
ENDBRANCH 40 44
ENDBRANCH 29 37
ENDBRANCH 3 29
TORSDOF 18
ENDMDL
MODEL 114
USER: ADFR SOLUTION from run 196
USER: SCORE 14.126231 LL:  -5.951 LR: -10.150 RR:   0.000 FEB:  -4.781
USER: RMSD 8.404445
USER: SEED 195
USER: STATUS no improvement in best in 14 clusters for 5 generations
USER: GENES 20
USER: genes 0 Translation |==|  0.52441 0.50388 0.49756
USER: genes 1 Rotation |==|  0.55503 0.08195 0.68915 0.69085
USER: genes 2 Torsion [N]-C--CA-[N] |==|  0.87878
USER: genes 3 Torsion [C]-CA--CB-[CG] |==|  0.35034
USER: genes 4 Torsion [CA]-CB--CG-[CD1] |==|  0.80823
USER: genes 5 Torsion [C]-CA--N-[C] |==|  0.74861
USER: genes 6 Torsion [N]-C--CA-[N] |==|  0.88338
USER: genes 7 Torsion [C]-CA--CB-[CG1] |==|  0.91197
USER: genes 8 Torsion [CA]-CB--CG1-[CD1] |==|  0.32786
USER: genes 9 Torsion [C]-CA--N-[C] |==|  0.59847
USER: genes 10 Torsion [N]-C--CA-[N] |==|  0.18103
USER: genes 11 Torsion [C]-CA--CB-[CG] |==|  0.68836
USER: genes 12 Torsion [CA]-CB--CG-[OD1] |==|  0.25532
USER: genes 13 Torsion [C]-N--CA-[CB] |==|  0.23269
USER: genes 14 Torsion [N]-CA--CB-[CG] |==|  0.14246
USER: genes 15 Torsion [CA]-CB--CG-[CD1] |==|  0.22830
USER: genes 16 Torsion [N]-CA--C-[N] |==|  0.49749
USER: genes 17 Torsion [N]-CA--C-[O] |==|  0.14131
USER: genes 18 Torsion [C]-N--CA-[C] |==|  0.87739
USER: genes 19 Torsion [N]-CA--C-[O] |==|  0.92613
ROOT
ATOM      1  C   LEU G   4      40.362   6.289  22.646  1.00 61.38 LIG 0.24  C 
ATOM      2 O    LEU G   4      41.284   7.080  22.874  1.00 52.06 LIG-0.27  OA
ATOM      3  N   PHE G   5      39.873   5.424  23.517  1.00 60.80 LIG-0.35  N 
ATOM      4 H    PHE G   5      39.211   4.904  23.342  1.00 60.80 LIG 0.16  HD
ENDROOT
BRANCH 1 5
ATOM      5  CA  LEU G   4      39.717   6.212  21.294  1.00 58.56 LIG 0.18  C 
BRANCH 5 6
ATOM      6  CB  LEU G   4      38.375   6.934  21.379  1.00 61.47 LIG 0.04  C 
BRANCH 6 7
ATOM      7  CG  LEU G   4      38.186   8.016  20.339  1.00 62.80 LIG-0.02  C 
ATOM      8  CD1 LEU G   4      39.141   9.139  20.685  1.00 63.22 LIG 0.01  C 
ATOM      9  CD2 LEU G   4      38.460   7.419  18.959  1.00 64.86 LIG 0.01  C 
ENDBRANCH 6 7
ENDBRANCH 5 6
BRANCH 5 10
ATOM     10  N   LEU G   4      39.571   4.818  20.923  1.00 59.02 LIG-0.35  N 
ATOM     11 H    LEU G   4      38.834   4.451  21.172  1.00 59.02 LIG 0.16  HD
ATOM     12  C   ILE G   3      40.535   4.194  20.245  1.00 70.10 LIG 0.24  C 
ATOM     13 O    ILE G   3      41.483   4.812  19.712  1.00 64.55 LIG-0.27  OA
BRANCH 12 14
ATOM     14  CA  ILE G   3      40.418   2.649  20.150  1.00 67.83 LIG 0.18  C 
BRANCH 14 15
ATOM     15  CB  ILE G   3      39.419   2.231  19.025  1.00 66.94 LIG 0.01  C 
ATOM     16  CG2 ILE G   3      38.839   0.846  19.312  1.00 67.41 LIG 0.01  C 
BRANCH 15 17
ATOM     17  CG1 ILE G   3      38.273   3.265  18.842  1.00 59.79 LIG 0.00  C 
ATOM     18  CD1 ILE G   3      38.242   3.907  17.480  1.00 60.74 LIG 0.01  C 
ENDBRANCH 15 17
ENDBRANCH 14 15
BRANCH 14 19
ATOM     19  N   ILE G   3      40.010   2.104  21.435  1.00 79.60 LIG-0.34  N 
ATOM     20 H    ILE G   3      39.461   2.607  21.864  1.00 79.60 LIG 0.16  HD
ATOM     21  C   ASP G   2      40.446   0.932  21.906  1.00 93.07 LIG 0.26  C 
ATOM     22 O    ASP G   2      41.157   0.164  21.256  1.00 81.24 LIG-0.27  OA
BRANCH 21 23
ATOM     23  CA  ASP G   2      40.038   0.558  23.337  1.00 93.30 LIG 0.41  C 
ATOM     24  N   ASP G   2      38.558   0.381  23.375  1.00 94.60 LIG 0.61  N 
BRANCH 23 25
ATOM     25  CB  ASP G   2      40.736  -0.720  23.825  1.00 96.36 LIG 0.16  C 
BRANCH 25 26
ATOM     26  CG  ASP G   2      39.775  -1.874  24.009  1.00103.24 LIG 0.17  C 
ATOM     27 OD1  ASP G   2      39.584  -2.661  23.061  1.00112.85 LIG-0.65  OA
ATOM     28 OD2  ASP G   2      39.210  -2.004  25.105  1.00105.87 LIG-0.65  OA
ENDBRANCH 25 26
ENDBRANCH 23 25
ENDBRANCH 21 23
ENDBRANCH 14 19
ENDBRANCH 12 14
ENDBRANCH 5 10
ENDBRANCH 1 5
BRANCH 3 29
ATOM     29  CA  PHE G   5      40.393   5.263  24.845  1.00 70.05 LIG 0.18  C 
BRANCH 29 30
ATOM     30  CB  PHE G   5      39.785   6.311  25.799  1.00 73.20 LIG 0.07  C 
BRANCH 30 31
ATOM     31  CG  PHE G   5      38.266   6.355  25.739  1.00 79.36 LIG-0.06  A 
ATOM     32  CD1 PHE G   5      37.497   5.420  26.476  1.00 85.64 LIG 0.01  A 
ATOM     33  CE1 PHE G   5      36.109   5.448  26.450  1.00 88.71 LIG 0.00  A 
ATOM     34  CZ  PHE G   5      35.462   6.424  25.686  1.00 96.11 LIG 0.00  A 
ATOM     35  CE2 PHE G   5      36.207   7.369  24.963  1.00 91.53 LIG 0.00  A 
ATOM     36  CD2 PHE G   5      37.598   7.335  24.991  1.00 81.01 LIG 0.01  A 
ENDBRANCH 30 31
ENDBRANCH 29 30
BRANCH 29 37
ATOM     37  C   PHE G   5      40.098   3.819  25.236  1.00 74.26 LIG 0.24  C 
ATOM     38  N   PRO G   6      40.517   3.419  26.457  1.00 79.01 LIG-0.34  N 
ATOM     39  CD  PRO G   6      41.364   4.239  27.365  1.00 76.17 LIG 0.13  C 
ATOM     40  CA  PRO G   6      40.450   2.012  26.883  1.00 78.34 LIG 0.18  C 
ATOM     41  CG  PRO G   6      41.489   3.391  28.583  1.00 78.03 LIG 0.02  C 
ATOM     42  CB  PRO G   6      41.439   1.980  28.061  1.00 82.73 LIG 0.04  C 
ATOM     43 O    PHE G   5      39.584   3.053  24.411  1.00 61.78 LIG-0.27  OA
BRANCH 40 44
ATOM     44  C   PRO G   6      39.066   1.498  27.340  1.00 77.34 LIG 0.24  C 
ATOM     45 O    PRO G   6      38.100   1.681  26.619  1.00 92.50 LIG-0.27  OA
ATOM     46  N   ALA G   7      38.981   0.867  28.520  1.00 74.20 LIG-0.35  N 
ATOM     47 H    ALA G   7      39.653   0.495  28.907  1.00 74.20 LIG 0.16  HD
BRANCH 46 48
ATOM     48  CA  ALA G   7      37.709   0.750  29.282  1.00 71.75 LIG 0.16  C 
ATOM     49  CB  ALA G   7      37.984   0.297  30.716  1.00 70.01 LIG 0.04  C 
BRANCH 48 50
ATOM     50  C   ALA G   7      36.965   2.105  29.283  1.00 69.94 LIG 0.22  C 
ATOM     51 O    ALA G   7      37.605   3.181  29.162  1.00 56.97 LIG-0.29  OA
ENDBRANCH 48 50
ENDBRANCH 46 48
ENDBRANCH 40 44
ENDBRANCH 29 37
ENDBRANCH 3 29
TORSDOF 18
ENDMDL
MODEL 115
USER: ADFR SOLUTION from run 195
USER: SCORE 15.033634 LL:  -6.032 LR: -10.148 RR:   0.000 FEB:  -4.778
USER: RMSD 8.223036
USER: SEED 194
USER: STATUS no improvement in best in 30 clusters for 5 generations
USER: GENES 20
USER: genes 0 Translation |==|  0.41409 0.50327 0.58605
USER: genes 1 Rotation |==|  0.33501 0.60851 0.92939 0.66318
USER: genes 2 Torsion [N]-C--CA-[N] |==|  0.57478
USER: genes 3 Torsion [C]-CA--CB-[CG] |==|  0.32054
USER: genes 4 Torsion [CA]-CB--CG-[CD1] |==|  0.87020
USER: genes 5 Torsion [C]-CA--N-[C] |==|  0.57009
USER: genes 6 Torsion [N]-C--CA-[N] |==|  0.00298
USER: genes 7 Torsion [C]-CA--CB-[CG1] |==|  0.48750
USER: genes 8 Torsion [CA]-CB--CG1-[CD1] |==|  0.94135
USER: genes 9 Torsion [C]-CA--N-[C] |==|  0.76502
USER: genes 10 Torsion [N]-C--CA-[N] |==|  0.60145
USER: genes 11 Torsion [C]-CA--CB-[CG] |==|  0.78166
USER: genes 12 Torsion [CA]-CB--CG-[OD1] |==|  0.29769
USER: genes 13 Torsion [C]-N--CA-[CB] |==|  0.86515
USER: genes 14 Torsion [N]-CA--CB-[CG] |==|  0.34285
USER: genes 15 Torsion [CA]-CB--CG-[CD1] |==|  0.75902
USER: genes 16 Torsion [N]-CA--C-[N] |==|  0.42027
USER: genes 17 Torsion [N]-CA--C-[O] |==|  0.69490
USER: genes 18 Torsion [C]-N--CA-[C] |==|  0.87698
USER: genes 19 Torsion [N]-CA--C-[O] |==|  0.23109
ROOT
ATOM      1  C   LEU G   4      38.541   6.272  24.106  1.00 61.38 LIG 0.24  C 
ATOM      2 O    LEU G   4      39.270   5.432  23.566  1.00 52.06 LIG-0.27  OA
ATOM      3  N   PHE G   5      38.415   7.528  23.715  1.00 60.80 LIG-0.35  N 
ATOM      4 H    PHE G   5      37.879   8.085  24.090  1.00 60.80 LIG 0.16  HD
ENDROOT
BRANCH 1 5
ATOM      5  CA  LEU G   4      37.732   5.936  25.323  1.00 58.56 LIG 0.18  C 
BRANCH 5 6
ATOM      6  CB  LEU G   4      37.634   7.196  26.177  1.00 61.47 LIG 0.04  C 
BRANCH 6 7
ATOM      7  CG  LEU G   4      36.229   7.740  26.321  1.00 62.80 LIG-0.02  C 
ATOM      8  CD1 LEU G   4      35.614   7.755  24.937  1.00 63.22 LIG 0.01  C 
ATOM      9  CD2 LEU G   4      35.459   6.849  27.295  1.00 64.86 LIG 0.01  C 
ENDBRANCH 6 7
ENDBRANCH 5 6
BRANCH 5 10
ATOM     10  N   LEU G   4      38.375   4.842  26.025  1.00 59.02 LIG-0.35  N 
ATOM     11 H    LEU G   4      39.221   4.772  25.891  1.00 59.02 LIG 0.16  HD
ATOM     12  C   ILE G   3      37.665   4.031  26.811  1.00 70.10 LIG 0.24  C 
ATOM     13 O    ILE G   3      36.491   4.295  27.155  1.00 64.55 LIG-0.27  OA
BRANCH 12 14
ATOM     14  CA  ILE G   3      38.375   2.734  27.282  1.00 67.83 LIG 0.18  C 
BRANCH 14 15
ATOM     15  CB  ILE G   3      38.376   2.630  28.840  1.00 66.94 LIG 0.01  C 
ATOM     16  CG2 ILE G   3      36.959   2.806  29.388  1.00 67.41 LIG 0.01  C 
BRANCH 15 17
ATOM     17  CG1 ILE G   3      38.980   1.288  29.339  1.00 59.79 LIG 0.00  C 
ATOM     18  CD1 ILE G   3      38.972   0.194  28.305  1.00 60.74 LIG 0.01  C 
ENDBRANCH 15 17
ENDBRANCH 14 15
BRANCH 14 19
ATOM     19  N   ILE G   3      39.732   2.696  26.759  1.00 79.60 LIG-0.34  N 
ATOM     20 H    ILE G   3      40.322   2.995  27.309  1.00 79.60 LIG 0.16  HD
ATOM     21  C   ASP G   2      40.037   2.241  25.541  1.00 93.07 LIG 0.26  C 
ATOM     22 O    ASP G   2      39.211   1.726  24.785  1.00 81.24 LIG-0.27  OA
BRANCH 21 23
ATOM     23  CA  ASP G   2      41.491   2.396  25.079  1.00 93.30 LIG 0.41  C 
ATOM     24  N   ASP G   2      41.493   2.702  23.620  1.00 94.60 LIG 0.61  N 
BRANCH 23 25
ATOM     25  CB  ASP G   2      42.231   3.498  25.852  1.00 96.36 LIG 0.16  C 
BRANCH 25 26
ATOM     26  CG  ASP G   2      41.888   4.886  25.357  1.00103.24 LIG 0.17  C 
ATOM     27 OD1  ASP G   2      41.163   5.619  26.059  1.00112.85 LIG-0.65  OA
ATOM     28 OD2  ASP G   2      42.346   5.255  24.265  1.00105.87 LIG-0.65  OA
ENDBRANCH 25 26
ENDBRANCH 23 25
ENDBRANCH 21 23
ENDBRANCH 14 19
ENDBRANCH 12 14
ENDBRANCH 5 10
ENDBRANCH 1 5
BRANCH 3 29
ATOM     29  CA  PHE G   5      39.159   8.092  22.624  1.00 70.05 LIG 0.18  C 
BRANCH 29 30
ATOM     30  CB  PHE G   5      40.659   7.759  22.758  1.00 73.20 LIG 0.07  C 
BRANCH 30 31
ATOM     31  CG  PHE G   5      41.216   7.039  21.539  1.00 79.36 LIG-0.06  A 
ATOM     32  CD1 PHE G   5      41.129   5.628  21.445  1.00 85.64 LIG 0.01  A 
ATOM     33  CE1 PHE G   5      41.617   4.948  20.336  1.00 88.71 LIG 0.00  A 
ATOM     34  CZ  PHE G   5      42.196   5.675  19.292  1.00 96.11 LIG 0.00  A 
ATOM     35  CE2 PHE G   5      42.276   7.075  19.361  1.00 91.53 LIG 0.00  A 
ATOM     36  CD2 PHE G   5      41.788   7.751  20.475  1.00 81.01 LIG 0.01  A 
ENDBRANCH 30 31
ENDBRANCH 29 30
BRANCH 29 37
ATOM     37  C   PHE G   5      38.511   7.552  21.354  1.00 74.26 LIG 0.24  C 
ATOM     38  N   PRO G   6      38.590   8.329  20.251  1.00 79.01 LIG-0.34  N 
ATOM     39  CD  PRO G   6      39.127   9.717  20.237  1.00 76.17 LIG 0.13  C 
ATOM     40  CA  PRO G   6      37.860   8.006  19.015  1.00 78.34 LIG 0.18  C 
ATOM     41  CG  PRO G   6      39.056  10.102  18.800  1.00 78.03 LIG 0.02  C 
ATOM     42  CB  PRO G   6      37.860   9.353  18.272  1.00 82.73 LIG 0.04  C 
ATOM     43 O    PHE G   5      37.869   6.495  21.395  1.00 61.78 LIG-0.27  OA
BRANCH 40 44
ATOM     44  C   PRO G   6      38.477   6.908  18.120  1.00 77.34 LIG 0.24  C 
ATOM     45 O    PRO G   6      38.967   7.223  17.049  1.00 92.50 LIG-0.27  OA
ATOM     46  N   ALA G   7      38.448   5.640  18.559  1.00 74.20 LIG-0.35  N 
ATOM     47 H    ALA G   7      38.364   5.429  19.388  1.00 74.20 LIG 0.16  HD
BRANCH 46 48
ATOM     48  CA  ALA G   7      38.557   4.470  17.648  1.00 71.75 LIG 0.16  C 
ATOM     49  CB  ALA G   7      38.155   3.187  18.375  1.00 70.01 LIG 0.04  C 
BRANCH 48 50
ATOM     50  C   ALA G   7      37.665   4.681  16.404  1.00 69.94 LIG 0.22  C 
ATOM     51 O    ALA G   7      38.084   5.356  15.429  1.00 56.97 LIG-0.29  OA
ENDBRANCH 48 50
ENDBRANCH 46 48
ENDBRANCH 40 44
ENDBRANCH 29 37
ENDBRANCH 3 29
TORSDOF 18
ENDMDL
MODEL 116
USER: ADFR SOLUTION from run 93
USER: SCORE 14.893170 LL:  -5.349 LR: -10.145 RR:   0.000 FEB:  -4.776
USER: RMSD 7.061413
USER: SEED 92
USER: STATUS searching
USER: GENES 20
USER: genes 0 Translation |==|  0.45207 0.60368 0.41248
USER: genes 1 Rotation |==|  0.50538 0.03143 0.52851 0.67205
USER: genes 2 Torsion [N]-C--CA-[N] |==|  0.33924
USER: genes 3 Torsion [C]-CA--CB-[CG] |==|  0.25381
USER: genes 4 Torsion [CA]-CB--CG-[CD1] |==|  0.03634
USER: genes 5 Torsion [C]-CA--N-[C] |==|  0.54218
USER: genes 6 Torsion [N]-C--CA-[N] |==|  0.01175
USER: genes 7 Torsion [C]-CA--CB-[CG1] |==|  0.25686
USER: genes 8 Torsion [CA]-CB--CG1-[CD1] |==|  0.12755
USER: genes 9 Torsion [C]-CA--N-[C] |==|  0.75410
USER: genes 10 Torsion [N]-C--CA-[N] |==|  0.39988
USER: genes 11 Torsion [C]-CA--CB-[CG] |==|  0.53935
USER: genes 12 Torsion [CA]-CB--CG-[OD1] |==|  0.63888
USER: genes 13 Torsion [C]-N--CA-[CB] |==|  0.85866
USER: genes 14 Torsion [N]-CA--CB-[CG] |==|  0.78589
USER: genes 15 Torsion [CA]-CB--CG-[CD1] |==|  0.09291
USER: genes 16 Torsion [N]-CA--C-[N] |==|  0.37778
USER: genes 17 Torsion [N]-CA--C-[O] |==|  0.85867
USER: genes 18 Torsion [C]-N--CA-[C] |==|  0.59050
USER: genes 19 Torsion [N]-CA--C-[O] |==|  0.15163
ROOT
ATOM      1  C   LEU G   4      39.168   9.058  21.242  1.00 61.38 LIG 0.24  C 
ATOM      2 O    LEU G   4      40.218   9.169  21.885  1.00 52.06 LIG-0.27  OA
ATOM      3  N   PHE G   5      38.215   8.178  21.494  1.00 60.80 LIG-0.35  N 
ATOM      4 H    PHE G   5      37.481   8.140  21.049  1.00 60.80 LIG 0.16  HD
ENDROOT
BRANCH 1 5
ATOM      5  CA  LEU G   4      38.889   9.923  20.048  1.00 58.56 LIG 0.18  C 
BRANCH 5 6
ATOM      6  CB  LEU G   4      39.953   9.620  18.998  1.00 61.47 LIG 0.04  C 
BRANCH 6 7
ATOM      7  CG  LEU G   4      39.568   8.530  18.021  1.00 62.80 LIG-0.02  C 
ATOM      8  CD1 LEU G   4      38.084   8.284  18.191  1.00 63.22 LIG 0.01  C 
ATOM      9  CD2 LEU G   4      39.928   8.991  16.610  1.00 64.86 LIG 0.01  C 
ENDBRANCH 6 7
ENDBRANCH 5 6
BRANCH 5 10
ATOM     10  N   LEU G   4      38.903  11.312  20.463  1.00 59.02 LIG-0.35  N 
ATOM     11 H    LEU G   4      39.257  11.457  21.233  1.00 59.02 LIG 0.16  HD
ATOM     12  C   ILE G   3      38.393  12.259  19.675  1.00 70.10 LIG 0.24  C 
ATOM     13 O    ILE G   3      38.093  12.042  18.480  1.00 64.55 LIG-0.27  OA
BRANCH 12 14
ATOM     14  CA  ILE G   3      38.192  13.656  20.320  1.00 67.83 LIG 0.18  C 
BRANCH 14 15
ATOM     15  CB  ILE G   3      38.870  14.772  19.463  1.00 66.94 LIG 0.01  C 
ATOM     16  CG2 ILE G   3      40.102  14.220  18.745  1.00 67.41 LIG 0.01  C 
BRANCH 15 17
ATOM     17  CG1 ILE G   3      37.889  15.403  18.437  1.00 59.79 LIG 0.00  C 
ATOM     18  CD1 ILE G   3      36.541  15.747  19.014  1.00 60.74 LIG 0.01  C 
ENDBRANCH 15 17
ENDBRANCH 14 15
BRANCH 14 19
ATOM     19  N   ILE G   3      38.716  13.654  21.677  1.00 79.60 LIG-0.34  N 
ATOM     20 H    ILE G   3      39.538  13.899  21.730  1.00 79.60 LIG 0.16  HD
ATOM     21  C   ASP G   2      37.990  13.304  22.743  1.00 93.07 LIG 0.26  C 
ATOM     22 O    ASP G   2      36.787  13.042  22.686  1.00 81.24 LIG-0.27  OA
BRANCH 21 23
ATOM     23  CA  ASP G   2      38.721  13.215  24.089  1.00 93.30 LIG 0.41  C 
ATOM     24  N   ASP G   2      37.797  13.686  25.160  1.00 94.60 LIG 0.61  N 
BRANCH 23 25
ATOM     25  CB  ASP G   2      39.203  11.789  24.395  1.00 96.36 LIG 0.16  C 
BRANCH 25 26
ATOM     26  CG  ASP G   2      39.612  11.611  25.840  1.00103.24 LIG 0.17  C 
ATOM     27 OD1  ASP G   2      40.716  11.092  26.098  1.00112.85 LIG-0.65  OA
ATOM     28 OD2  ASP G   2      38.835  11.996  26.727  1.00105.87 LIG-0.65  OA
ENDBRANCH 25 26
ENDBRANCH 23 25
ENDBRANCH 21 23
ENDBRANCH 14 19
ENDBRANCH 12 14
ENDBRANCH 5 10
ENDBRANCH 1 5
BRANCH 3 29
ATOM     29  CA  PHE G   5      38.306   7.194  22.536  1.00 70.05 LIG 0.18  C 
BRANCH 29 30
ATOM     30  CB  PHE G   5      39.637   6.420  22.438  1.00 73.20 LIG 0.07  C 
BRANCH 30 31
ATOM     31  CG  PHE G   5      39.633   5.374  21.334  1.00 79.36 LIG-0.06  A 
ATOM     32  CD1 PHE G   5      38.908   5.604  20.138  1.00 85.64 LIG 0.01  A 
ATOM     33  CE1 PHE G   5      38.900   4.671  19.109  1.00 88.71 LIG 0.00  A 
ATOM     34  CZ  PHE G   5      39.630   3.488  19.257  1.00 96.11 LIG 0.00  A 
ATOM     35  CE2 PHE G   5      40.367   3.250  20.428  1.00 91.53 LIG 0.00  A 
ATOM     36  CD2 PHE G   5      40.370   4.187  21.457  1.00 81.01 LIG 0.01  A 
ENDBRANCH 30 31
ENDBRANCH 29 30
BRANCH 29 37
ATOM     37  C   PHE G   5      38.122   7.954  23.844  1.00 74.26 LIG 0.24  C 
ATOM     38  N   PRO G   6      37.307   7.394  24.766  1.00 79.01 LIG-0.34  N 
ATOM     39  CD  PRO G   6      36.478   6.181  24.529  1.00 76.17 LIG 0.13  C 
ATOM     40  CA  PRO G   6      36.909   8.105  25.991  1.00 78.34 LIG 0.18  C 
ATOM     41  CG  PRO G   6      35.829   5.941  25.847  1.00 78.03 LIG 0.02  C 
ATOM     42  CB  PRO G   6      35.666   7.317  26.438  1.00 82.73 LIG 0.04  C 
ATOM     43 O    PHE G   5      38.631   9.073  23.980  1.00 61.78 LIG-0.27  OA
BRANCH 40 44
ATOM     44  C   PRO G   6      37.951   8.143  27.132  1.00 77.34 LIG 0.24  C 
ATOM     45 O    PRO G   6      38.466   7.100  27.497  1.00 92.50 LIG-0.27  OA
ATOM     46  N   ALA G   7      38.246   9.330  27.682  1.00 74.20 LIG-0.35  N 
ATOM     47 H    ALA G   7      38.115  10.081  27.284  1.00 74.20 LIG 0.16  HD
BRANCH 46 48
ATOM     48  CA  ALA G   7      38.834   9.464  29.042  1.00 71.75 LIG 0.16  C 
ATOM     49  CB  ALA G   7      40.361   9.461  28.967  1.00 70.01 LIG 0.04  C 
BRANCH 48 50
ATOM     50  C   ALA G   7      38.334  10.766  29.709  1.00 69.94 LIG 0.22  C 
ATOM     51 O    ALA G   7      37.102  10.996  29.810  1.00 56.97 LIG-0.29  OA
ENDBRANCH 48 50
ENDBRANCH 46 48
ENDBRANCH 40 44
ENDBRANCH 29 37
ENDBRANCH 3 29
TORSDOF 18
ENDMDL
MODEL 117
USER: ADFR SOLUTION from run 107
USER: SCORE 15.194475 LL:  -5.658 LR: -10.136 RR:   0.000 FEB:  -4.766
USER: RMSD 11.004186
USER: SEED 106
USER: STATUS no improvement in best in 20 clusters for 5 generations
USER: GENES 20
USER: genes 0 Translation |==|  0.44892 0.60233 0.43881
USER: genes 1 Rotation |==|  0.40926 0.27748 0.91734 0.63448
USER: genes 2 Torsion [N]-C--CA-[N] |==|  0.96973
USER: genes 3 Torsion [C]-CA--CB-[CG] |==|  0.18719
USER: genes 4 Torsion [CA]-CB--CG-[CD1] |==|  0.32127
USER: genes 5 Torsion [C]-CA--N-[C] |==|  0.74534
USER: genes 6 Torsion [N]-C--CA-[N] |==|  0.48083
USER: genes 7 Torsion [C]-CA--CB-[CG1] |==|  0.79503
USER: genes 8 Torsion [CA]-CB--CG1-[CD1] |==|  0.75250
USER: genes 9 Torsion [C]-CA--N-[C] |==|  0.57876
USER: genes 10 Torsion [N]-C--CA-[N] |==|  0.47888
USER: genes 11 Torsion [C]-CA--CB-[CG] |==|  0.58934
USER: genes 12 Torsion [CA]-CB--CG-[OD1] |==|  0.66851
USER: genes 13 Torsion [C]-N--CA-[CB] |==|  0.86111
USER: genes 14 Torsion [N]-CA--CB-[CG] |==|  0.82180
USER: genes 15 Torsion [CA]-CB--CG-[CD1] |==|  0.74915
USER: genes 16 Torsion [N]-CA--C-[N] |==|  0.42217
USER: genes 17 Torsion [N]-CA--C-[O] |==|  0.73451
USER: genes 18 Torsion [C]-N--CA-[C] |==|  0.83158
USER: genes 19 Torsion [N]-CA--C-[O] |==|  0.93160
ROOT
ATOM      1  C   LEU G   4      39.116   9.021  21.676  1.00 61.38 LIG 0.24  C 
ATOM      2 O    LEU G   4      40.060   9.552  21.082  1.00 52.06 LIG-0.27  OA
ATOM      3  N   PHE G   5      38.386   9.603  22.611  1.00 60.80 LIG-0.35  N 
ATOM      4 H    PHE G   5      37.715   9.221  22.989  1.00 60.80 LIG 0.16  HD
ENDROOT
BRANCH 1 5
ATOM      5  CA  LEU G   4      38.725   7.598  21.405  1.00 58.56 LIG 0.18  C 
BRANCH 5 6
ATOM      6  CB  LEU G   4      38.106   7.546  20.011  1.00 61.47 LIG 0.04  C 
BRANCH 6 7
ATOM      7  CG  LEU G   4      39.082   7.826  18.889  1.00 62.80 LIG-0.02  C 
ATOM      8  CD1 LEU G   4      39.188   6.560  18.064  1.00 63.22 LIG 0.01  C 
ATOM      9  CD2 LEU G   4      38.563   9.012  18.077  1.00 64.86 LIG 0.01  C 
ENDBRANCH 6 7
ENDBRANCH 5 6
BRANCH 5 10
ATOM     10  N   LEU G   4      37.802   7.162  22.435  1.00 59.02 LIG-0.35  N 
ATOM     11 H    LEU G   4      36.973   7.321  22.270  1.00 59.02 LIG 0.16  HD
ATOM     12  C   ILE G   3      38.253   6.563  23.538  1.00 70.10 LIG 0.24  C 
ATOM     13 O    ILE G   3      39.430   6.153  23.641  1.00 64.55 LIG-0.27  OA
BRANCH 12 14
ATOM     14  CA  ILE G   3      37.233   6.398  24.696  1.00 67.83 LIG 0.18  C 
BRANCH 14 15
ATOM     15  CB  ILE G   3      36.774   7.788  25.241  1.00 66.94 LIG 0.01  C 
ATOM     16  CG2 ILE G   3      35.490   7.644  26.059  1.00 67.41 LIG 0.01  C 
BRANCH 15 17
ATOM     17  CG1 ILE G   3      37.877   8.478  26.091  1.00 59.79 LIG 0.00  C 
ATOM     18  CD1 ILE G   3      37.830   8.125  27.554  1.00 60.74 LIG 0.01  C 
ENDBRANCH 15 17
ENDBRANCH 14 15
BRANCH 14 19
ATOM     19  N   ILE G   3      37.816   5.591  25.756  1.00 79.60 LIG-0.34  N 
ATOM     20 H    ILE G   3      38.672   5.649  25.802  1.00 79.60 LIG 0.16  HD
ATOM     21  C   ASP G   2      37.091   4.831  26.582  1.00 93.07 LIG 0.26  C 
ATOM     22 O    ASP G   2      35.859   4.816  26.582  1.00 81.24 LIG-0.27  OA
BRANCH 21 23
ATOM     23  CA  ASP G   2      37.859   3.928  27.557  1.00 93.30 LIG 0.41  C 
ATOM     24  N   ASP G   2      36.882   3.315  28.501  1.00 94.60 LIG 0.61  N 
BRANCH 23 25
ATOM     25  CB  ASP G   2      38.653   2.832  26.830  1.00 96.36 LIG 0.16  C 
BRANCH 25 26
ATOM     26  CG  ASP G   2      38.756   1.557  27.637  1.00103.24 LIG 0.17  C 
ATOM     27 OD1  ASP G   2      39.882   1.137  27.967  1.00112.85 LIG-0.65  OA
ATOM     28 OD2  ASP G   2      37.709   0.970  27.952  1.00105.87 LIG-0.65  OA
ENDBRANCH 25 26
ENDBRANCH 23 25
ENDBRANCH 21 23
ENDBRANCH 14 19
ENDBRANCH 12 14
ENDBRANCH 5 10
ENDBRANCH 1 5
BRANCH 3 29
ATOM     29  CA  PHE G   5      38.634  10.933  23.092  1.00 70.05 LIG 0.18  C 
BRANCH 29 30
ATOM     30  CB  PHE G   5      40.119  11.105  23.471  1.00 73.20 LIG 0.07  C 
BRANCH 30 31
ATOM     31  CG  PHE G   5      40.540  10.215  24.631  1.00 79.36 LIG-0.06  A 
ATOM     32  CD1 PHE G   5      40.438  10.687  25.964  1.00 85.64 LIG 0.01  A 
ATOM     33  CE1 PHE G   5      40.803   9.889  27.040  1.00 88.71 LIG 0.00  A 
ATOM     34  CZ  PHE G   5      41.270   8.594  26.800  1.00 96.11 LIG 0.00  A 
ATOM     35  CE2 PHE G   5      41.363   8.103  25.488  1.00 91.53 LIG 0.00  A 
ATOM     36  CD2 PHE G   5      40.999   8.908  24.412  1.00 81.01 LIG 0.01  A 
ENDBRANCH 30 31
ENDBRANCH 29 30
BRANCH 29 37
ATOM     37  C   PHE G   5      38.160  11.870  21.987  1.00 74.26 LIG 0.24  C 
ATOM     38  N   PRO G   6      37.739  13.098  22.367  1.00 79.01 LIG-0.34  N 
ATOM     39  CD  PRO G   6      37.572  13.528  23.781  1.00 76.17 LIG 0.13  C 
ATOM     40  CA  PRO G   6      37.098  14.029  21.426  1.00 78.34 LIG 0.18  C 
ATOM     41  CG  PRO G   6      37.160  14.954  23.664  1.00 78.03 LIG 0.02  C 
ATOM     42  CB  PRO G   6      36.389  15.014  22.371  1.00 82.73 LIG 0.04  C 
ATOM     43 O    PHE G   5      38.087  11.459  20.823  1.00 61.78 LIG-0.27  OA
BRANCH 40 44
ATOM     44  C   PRO G   6      38.039  14.796  20.469  1.00 77.34 LIG 0.24  C 
ATOM     45 O    PRO G   6      38.404  15.918  20.774  1.00 92.50 LIG-0.27  OA
ATOM     46  N   ALA G   7      38.417  14.194  19.332  1.00 74.20 LIG-0.35  N 
ATOM     47 H    ALA G   7      38.403  13.341  19.222  1.00 74.20 LIG 0.16  HD
BRANCH 46 48
ATOM     48  CA  ALA G   7      38.901  14.946  18.144  1.00 71.75 LIG 0.16  C 
ATOM     49  CB  ALA G   7      39.314  13.982  17.032  1.00 70.01 LIG 0.04  C 
BRANCH 48 50
ATOM     50  C   ALA G   7      37.797  15.903  17.638  1.00 69.94 LIG 0.22  C 
ATOM     51 O    ALA G   7      36.587  15.662  17.880  1.00 56.97 LIG-0.29  OA
ENDBRANCH 48 50
ENDBRANCH 46 48
ENDBRANCH 40 44
ENDBRANCH 29 37
ENDBRANCH 3 29
TORSDOF 18
ENDMDL
MODEL 118
USER: ADFR SOLUTION from run 119
USER: SCORE 14.682535 LL:  -5.475 LR: -10.135 RR:   0.000 FEB:  -4.765
USER: RMSD 4.463376
USER: SEED 118
USER: STATUS no improvement in best in 39 clusters for 5 generations
USER: GENES 20
USER: genes 0 Translation |==|  0.42330 0.49336 0.63752
USER: genes 1 Rotation |==|  0.44742 0.32945 0.56202 0.96293
USER: genes 2 Torsion [N]-C--CA-[N] |==|  0.41103
USER: genes 3 Torsion [C]-CA--CB-[CG] |==|  0.37779
USER: genes 4 Torsion [CA]-CB--CG-[CD1] |==|  0.85552
USER: genes 5 Torsion [C]-CA--N-[C] |==|  0.80415
USER: genes 6 Torsion [N]-C--CA-[N] |==|  0.43390
USER: genes 7 Torsion [C]-CA--CB-[CG1] |==|  0.25582
USER: genes 8 Torsion [CA]-CB--CG1-[CD1] |==|  0.22197
USER: genes 9 Torsion [C]-CA--N-[C] |==|  0.68621
USER: genes 10 Torsion [N]-C--CA-[N] |==|  0.53879
USER: genes 11 Torsion [C]-CA--CB-[CG] |==|  0.80766
USER: genes 12 Torsion [CA]-CB--CG-[OD1] |==|  0.35621
USER: genes 13 Torsion [C]-N--CA-[CB] |==|  0.51111
USER: genes 14 Torsion [N]-CA--CB-[CG] |==|  0.21048
USER: genes 15 Torsion [CA]-CB--CG-[CD1] |==|  0.34173
USER: genes 16 Torsion [N]-CA--C-[N] |==|  0.30728
USER: genes 17 Torsion [N]-CA--C-[O] |==|  0.61960
USER: genes 18 Torsion [C]-N--CA-[C] |==|  0.85352
USER: genes 19 Torsion [N]-CA--C-[O] |==|  0.44819
ROOT
ATOM      1  C   LEU G   4      38.693   5.997  24.955  1.00 61.38 LIG 0.24  C 
ATOM      2 O    LEU G   4      39.187   5.737  23.852  1.00 52.06 LIG-0.27  OA
ATOM      3  N   PHE G   5      39.126   5.519  26.109  1.00 60.80 LIG-0.35  N 
ATOM      4 H    PHE G   5      38.782   5.739  26.866  1.00 60.80 LIG 0.16  HD
ENDROOT
BRANCH 1 5
ATOM      5  CA  LEU G   4      37.490   6.883  25.082  1.00 58.56 LIG 0.18  C 
BRANCH 5 6
ATOM      6  CB  LEU G   4      36.250   6.001  24.969  1.00 61.47 LIG 0.04  C 
BRANCH 6 7
ATOM      7  CG  LEU G   4      35.173   6.312  25.985  1.00 62.80 LIG-0.02  C 
ATOM      8  CD1 LEU G   4      35.831   6.302  27.349  1.00 63.22 LIG 0.01  C 
ATOM      9  CD2 LEU G   4      34.556   7.668  25.641  1.00 64.86 LIG 0.01  C 
ENDBRANCH 6 7
ENDBRANCH 5 6
BRANCH 5 10
ATOM     10  N   LEU G   4      37.543   7.896  24.046  1.00 59.02 LIG-0.35  N 
ATOM     11 H    LEU G   4      36.959   7.807  23.422  1.00 59.02 LIG 0.16  HD
ATOM     12  C   ILE G   3      38.449   8.873  24.101  1.00 70.10 LIG 0.24  C 
ATOM     13 O    ILE G   3      39.129   9.096  25.127  1.00 64.55 LIG-0.27  OA
BRANCH 12 14
ATOM     14  CA  ILE G   3      38.616   9.729  22.817  1.00 67.83 LIG 0.18  C 
BRANCH 14 15
ATOM     15  CB  ILE G   3      39.520   9.001  21.772  1.00 66.94 LIG 0.01  C 
ATOM     16  CG2 ILE G   3      40.563   8.135  22.479  1.00 67.41 LIG 0.01  C 
BRANCH 15 17
ATOM     17  CG1 ILE G   3      38.694   8.140  20.777  1.00 59.79 LIG 0.00  C 
ATOM     18  CD1 ILE G   3      38.060   8.933  19.665  1.00 60.74 LIG 0.01  C 
ENDBRANCH 15 17
ENDBRANCH 14 15
BRANCH 14 19
ATOM     19  N   ILE G   3      39.163  11.032  23.159  1.00 79.60 LIG-0.34  N 
ATOM     20 H    ILE G   3      39.971  11.001  23.450  1.00 79.60 LIG 0.16  HD
ATOM     21  C   ASP G   2      38.478  12.172  23.032  1.00 93.07 LIG 0.26  C 
ATOM     22 O    ASP G   2      37.355  12.234  22.528  1.00 81.24 LIG-0.27  OA
BRANCH 21 23
ATOM     23  CA  ASP G   2      39.139  13.449  23.567  1.00 93.30 LIG 0.41  C 
ATOM     24  N   ASP G   2      38.104  14.519  23.645  1.00 94.60 LIG 0.61  N 
BRANCH 23 25
ATOM     25  CB  ASP G   2      39.785  13.235  24.944  1.00 96.36 LIG 0.16  C 
BRANCH 25 26
ATOM     26  CG  ASP G   2      38.763  13.020  26.039  1.00103.24 LIG 0.17  C 
ATOM     27 OD1  ASP G   2      38.875  12.028  26.786  1.00112.85 LIG-0.65  OA
ATOM     28 OD2  ASP G   2      37.845  13.845  26.161  1.00105.87 LIG-0.65  OA
ENDBRANCH 25 26
ENDBRANCH 23 25
ENDBRANCH 21 23
ENDBRANCH 14 19
ENDBRANCH 12 14
ENDBRANCH 5 10
ENDBRANCH 1 5
BRANCH 3 29
ATOM     29  CA  PHE G   5      40.211   4.586  26.220  1.00 70.05 LIG 0.18  C 
BRANCH 29 30
ATOM     30  CB  PHE G   5      40.405   4.148  27.686  1.00 73.20 LIG 0.07  C 
BRANCH 30 31
ATOM     31  CG  PHE G   5      39.352   3.154  28.151  1.00 79.36 LIG-0.06  A 
ATOM     32  CD1 PHE G   5      39.742   1.890  28.661  1.00 85.64 LIG 0.01  A 
ATOM     33  CE1 PHE G   5      38.801   0.970  29.104  1.00 88.71 LIG 0.00  A 
ATOM     34  CZ  PHE G   5      37.445   1.305  29.053  1.00 96.11 LIG 0.00  A 
ATOM     35  CE2 PHE G   5      37.040   2.558  28.567  1.00 91.53 LIG 0.00  A 
ATOM     36  CD2 PHE G   5      37.987   3.476  28.121  1.00 81.01 LIG 0.01  A 
ENDBRANCH 30 31
ENDBRANCH 29 30
BRANCH 29 37
ATOM     37  C   PHE G   5      39.877   3.444  25.267  1.00 74.26 LIG 0.24  C 
ATOM     38  N   PRO G   6      40.648   3.324  24.163  1.00 79.01 LIG-0.34  N 
ATOM     39  CD  PRO G   6      41.685   4.308  23.752  1.00 76.17 LIG 0.13  C 
ATOM     40  CA  PRO G   6      40.324   2.378  23.084  1.00 78.34 LIG 0.18  C 
ATOM     41  CG  PRO G   6      42.281   3.695  22.533  1.00 78.03 LIG 0.02  C 
ATOM     42  CB  PRO G   6      41.144   2.932  21.906  1.00 82.73 LIG 0.04  C 
ATOM     43 O    PHE G   5      38.881   2.741  25.478  1.00 61.78 LIG-0.27  OA
BRANCH 40 44
ATOM     44  C   PRO G   6      40.690   0.897  23.335  1.00 77.34 LIG 0.24  C 
ATOM     45 O    PRO G   6      41.202   0.255  22.435  1.00 92.50 LIG-0.27  OA
ATOM     46  N   ALA G   7      40.425   0.374  24.541  1.00 74.20 LIG-0.35  N 
ATOM     47 H    ALA G   7      40.325   0.849  25.251  1.00 74.20 LIG 0.16  HD
BRANCH 46 48
ATOM     48  CA  ALA G   7      40.280  -1.089  24.770  1.00 71.75 LIG 0.16  C 
ATOM     49  CB  ALA G   7      39.852  -1.364  26.212  1.00 70.01 LIG 0.04  C 
BRANCH 48 50
ATOM     50  C   ALA G   7      39.246  -1.679  23.785  1.00 69.94 LIG 0.22  C 
ATOM     51 O    ALA G   7      39.218  -2.915  23.558  1.00 56.97 LIG-0.29  OA
ENDBRANCH 48 50
ENDBRANCH 46 48
ENDBRANCH 40 44
ENDBRANCH 29 37
ENDBRANCH 3 29
TORSDOF 18
ENDMDL
MODEL 119
USER: ADFR SOLUTION from run 79
USER: SCORE 14.187218 LL:  -5.148 LR: -10.112 RR:   0.000 FEB:  -4.742
USER: RMSD 8.570862
USER: SEED 78
USER: STATUS no improvement in best in 23 clusters for 5 generations
USER: GENES 20
USER: genes 0 Translation |==|  0.41089 0.50820 0.58103
USER: genes 1 Rotation |==|  0.33257 0.59921 0.93615 0.64798
USER: genes 2 Torsion [N]-C--CA-[N] |==|  0.56043
USER: genes 3 Torsion [C]-CA--CB-[CG] |==|  0.31460
USER: genes 4 Torsion [CA]-CB--CG-[CD1] |==|  0.88601
USER: genes 5 Torsion [C]-CA--N-[C] |==|  0.55989
USER: genes 6 Torsion [N]-C--CA-[N] |==|  0.01606
USER: genes 7 Torsion [C]-CA--CB-[CG1] |==|  0.51087
USER: genes 8 Torsion [CA]-CB--CG1-[CD1] |==|  0.70423
USER: genes 9 Torsion [C]-CA--N-[C] |==|  0.74490
USER: genes 10 Torsion [N]-C--CA-[N] |==|  0.47844
USER: genes 11 Torsion [C]-CA--CB-[CG] |==|  0.66974
USER: genes 12 Torsion [CA]-CB--CG-[OD1] |==|  0.69438
USER: genes 13 Torsion [C]-N--CA-[CB] |==|  0.86111
USER: genes 14 Torsion [N]-CA--CB-[CG] |==|  0.89291
USER: genes 15 Torsion [CA]-CB--CG-[CD1] |==|  0.87195
USER: genes 16 Torsion [N]-CA--C-[N] |==|  0.43022
USER: genes 17 Torsion [N]-CA--C-[O] |==|  0.70220
USER: genes 18 Torsion [C]-N--CA-[C] |==|  0.86234
USER: genes 19 Torsion [N]-CA--C-[O] |==|  0.22608
ROOT
ATOM      1  C   LEU G   4      38.489   6.409  24.023  1.00 61.38 LIG 0.24  C 
ATOM      2 O    LEU G   4      39.277   5.634  23.470  1.00 52.06 LIG-0.27  OA
ATOM      3  N   PHE G   5      38.268   7.657  23.650  1.00 60.80 LIG-0.35  N 
ATOM      4 H    PHE G   5      37.691   8.166  24.034  1.00 60.80 LIG 0.16  HD
ENDROOT
BRANCH 1 5
ATOM      5  CA  LEU G   4      37.710   5.995  25.236  1.00 58.56 LIG 0.18  C 
BRANCH 5 6
ATOM      6  CB  LEU G   4      37.630   7.199  26.169  1.00 61.47 LIG 0.04  C 
BRANCH 6 7
ATOM      7  CG  LEU G   4      36.235   7.761  26.340  1.00 62.80 LIG-0.02  C 
ATOM      8  CD1 LEU G   4      35.578   7.744  24.976  1.00 63.22 LIG 0.01  C 
ATOM      9  CD2 LEU G   4      35.487   6.904  27.361  1.00 64.86 LIG 0.01  C 
ENDBRANCH 6 7
ENDBRANCH 5 6
BRANCH 5 10
ATOM     10  N   LEU G   4      38.371   4.861  25.853  1.00 59.02 LIG-0.35  N 
ATOM     11 H    LEU G   4      39.203   4.775  25.654  1.00 59.02 LIG 0.16  HD
ATOM     12  C   ILE G   3      37.698   4.043  26.662  1.00 70.10 LIG 0.24  C 
ATOM     13 O    ILE G   3      36.560   4.325  27.100  1.00 64.55 LIG-0.27  OA
BRANCH 12 14
ATOM     14  CA  ILE G   3      38.404   2.713  27.037  1.00 67.83 LIG 0.18  C 
BRANCH 14 15
ATOM     15  CB  ILE G   3      38.409   2.498  28.584  1.00 66.94 LIG 0.01  C 
ATOM     16  CG2 ILE G   3      36.979   2.433  29.120  1.00 67.41 LIG 0.01  C 
BRANCH 15 17
ATOM     17  CG1 ILE G   3      39.195   1.223  28.997  1.00 59.79 LIG 0.00  C 
ATOM     18  CD1 ILE G   3      38.317   0.082  29.440  1.00 60.74 LIG 0.01  C 
ENDBRANCH 15 17
ENDBRANCH 14 15
BRANCH 14 19
ATOM     19  N   ILE G   3      39.759   2.706  26.507  1.00 79.60 LIG-0.34  N 
ATOM     20 H    ILE G   3      40.338   3.054  27.039  1.00 79.60 LIG 0.16  HD
ATOM     21  C   ASP G   2      40.076   2.207  25.310  1.00 93.07 LIG 0.26  C 
ATOM     22 O    ASP G   2      39.268   1.623  24.585  1.00 81.24 LIG-0.27  OA
BRANCH 21 23
ATOM     23  CA  ASP G   2      41.521   2.400  24.831  1.00 93.30 LIG 0.41  C 
ATOM     24  N   ASP G   2      41.712   1.615  23.578  1.00 94.60 LIG 0.61  N 
BRANCH 23 25
ATOM     25  CB  ASP G   2      41.858   3.878  24.586  1.00 96.36 LIG 0.16  C 
BRANCH 25 26
ATOM     26  CG  ASP G   2      42.242   4.157  23.149  1.00103.24 LIG 0.17  C 
ATOM     27 OD1  ASP G   2      43.426   4.443  22.883  1.00112.85 LIG-0.65  OA
ATOM     28 OD2  ASP G   2      41.362   4.086  22.278  1.00105.87 LIG-0.65  OA
ENDBRANCH 25 26
ENDBRANCH 23 25
ENDBRANCH 21 23
ENDBRANCH 14 19
ENDBRANCH 12 14
ENDBRANCH 5 10
ENDBRANCH 1 5
BRANCH 3 29
ATOM     29  CA  PHE G   5      38.964   8.292  22.567  1.00 70.05 LIG 0.18  C 
BRANCH 29 30
ATOM     30  CB  PHE G   5      40.488   8.102  22.714  1.00 73.20 LIG 0.07  C 
BRANCH 30 31
ATOM     31  CG  PHE G   5      40.959   8.198  24.157  1.00 79.36 LIG-0.06  A 
ATOM     32  CD1 PHE G   5      40.498   9.250  24.988  1.00 85.64 LIG 0.01  A 
ATOM     33  CE1 PHE G   5      40.902   9.352  26.313  1.00 88.71 LIG 0.00  A 
ATOM     34  CZ  PHE G   5      41.774   8.392  26.834  1.00 96.11 LIG 0.00  A 
ATOM     35  CE2 PHE G   5      42.229   7.334  26.031  1.00 91.53 LIG 0.00  A 
ATOM     36  CD2 PHE G   5      41.823   7.238  24.704  1.00 81.01 LIG 0.01  A 
ENDBRANCH 30 31
ENDBRANCH 29 30
BRANCH 29 37
ATOM     37  C   PHE G   5      38.382   7.696  21.291  1.00 74.26 LIG 0.24  C 
ATOM     38  N   PRO G   6      38.463   8.450  20.172  1.00 79.01 LIG-0.34  N 
ATOM     39  CD  PRO G   6      38.942   9.859  20.142  1.00 76.17 LIG 0.13  C 
ATOM     40  CA  PRO G   6      37.789   8.068  18.922  1.00 78.34 LIG 0.18  C 
ATOM     41  CG  PRO G   6      38.902  10.208  18.695  1.00 78.03 LIG 0.02  C 
ATOM     42  CB  PRO G   6      37.757   9.397  18.148  1.00 82.73 LIG 0.04  C 
ATOM     43 O    PHE G   5      37.784   6.614  21.337  1.00 61.78 LIG-0.27  OA
BRANCH 40 44
ATOM     44  C   PRO G   6      38.481   6.977  18.074  1.00 77.34 LIG 0.24  C 
ATOM     45 O    PRO G   6      39.034   7.297  17.036  1.00 92.50 LIG-0.27  OA
ATOM     46  N   ALA G   7      38.444   5.711  18.515  1.00 74.20 LIG-0.35  N 
ATOM     47 H    ALA G   7      38.310   5.501  19.339  1.00 74.20 LIG 0.16  HD
BRANCH 46 48
ATOM     48  CA  ALA G   7      38.632   4.539  17.619  1.00 71.75 LIG 0.16  C 
ATOM     49  CB  ALA G   7      38.328   3.240  18.366  1.00 70.01 LIG 0.04  C 
BRANCH 48 50
ATOM     50  C   ALA G   7      37.718   4.669  16.379  1.00 69.94 LIG 0.22  C 
ATOM     51 O    ALA G   7      38.064   5.386  15.406  1.00 56.97 LIG-0.29  OA
ENDBRANCH 48 50
ENDBRANCH 46 48
ENDBRANCH 40 44
ENDBRANCH 29 37
ENDBRANCH 3 29
TORSDOF 18
ENDMDL
MODEL 120
USER: ADFR SOLUTION from run 117
USER: SCORE 14.212611 LL:  -5.602 LR: -10.105 RR:   0.000 FEB:  -4.736
USER: RMSD 8.695712
USER: SEED 116
USER: STATUS no improvement in best in 20 clusters for 5 generations
USER: GENES 20
USER: genes 0 Translation |==|  0.45119 0.51168 0.42668
USER: genes 1 Rotation |==|  0.06214 0.53852 0.30120 0.63142
USER: genes 2 Torsion [N]-C--CA-[N] |==|  0.29522
USER: genes 3 Torsion [C]-CA--CB-[CG] |==|  0.27821
USER: genes 4 Torsion [CA]-CB--CG-[CD1] |==|  0.70563
USER: genes 5 Torsion [C]-CA--N-[C] |==|  0.81827
USER: genes 6 Torsion [N]-C--CA-[N] |==|  0.74446
USER: genes 7 Torsion [C]-CA--CB-[CG1] |==|  0.75129
USER: genes 8 Torsion [CA]-CB--CG1-[CD1] |==|  0.76622
USER: genes 9 Torsion [C]-CA--N-[C] |==|  0.59444
USER: genes 10 Torsion [N]-C--CA-[N] |==|  0.17570
USER: genes 11 Torsion [C]-CA--CB-[CG] |==|  0.69590
USER: genes 12 Torsion [CA]-CB--CG-[OD1] |==|  0.18289
USER: genes 13 Torsion [C]-N--CA-[CB] |==|  0.87132
USER: genes 14 Torsion [N]-CA--CB-[CG] |==|  0.36179
USER: genes 15 Torsion [CA]-CB--CG-[CD1] |==|  0.71785
USER: genes 16 Torsion [N]-CA--C-[N] |==|  0.35163
USER: genes 17 Torsion [N]-CA--C-[O] |==|  0.72652
USER: genes 18 Torsion [C]-N--CA-[C] |==|  0.66554
USER: genes 19 Torsion [N]-CA--C-[O] |==|  0.50798
ROOT
ATOM      1  C   LEU G   4      39.154   6.505  21.476  1.00 61.38 LIG 0.24  C 
ATOM      2 O    LEU G   4      38.029   6.182  21.875  1.00 52.06 LIG-0.27  OA
ATOM      3  N   PHE G   5      40.063   7.130  22.203  1.00 60.80 LIG-0.35  N 
ATOM      4 H    PHE G   5      40.850   7.318  21.911  1.00 60.80 LIG 0.16  HD
ENDROOT
BRANCH 1 5
ATOM      5  CA  LEU G   4      39.588   6.239  20.065  1.00 58.56 LIG 0.18  C 
BRANCH 5 6
ATOM      6  CB  LEU G   4      38.462   6.690  19.140  1.00 61.47 LIG 0.04  C 
BRANCH 6 7
ATOM      7  CG  LEU G   4      38.685   8.046  18.507  1.00 62.80 LIG-0.02  C 
ATOM      8  CD1 LEU G   4      37.762   9.022  19.206  1.00 63.22 LIG 0.01  C 
ATOM      9  CD2 LEU G   4      40.158   8.420  18.662  1.00 64.86 LIG 0.01  C 
ENDBRANCH 6 7
ENDBRANCH 5 6
BRANCH 5 10
ATOM     10  N   LEU G   4      39.885   4.827  19.925  1.00 59.02 LIG-0.35  N 
ATOM     11 H    LEU G   4      39.363   4.397  19.394  1.00 59.02 LIG 0.16  HD
ATOM     12  C   ILE G   3      40.904   4.281  20.590  1.00 70.10 LIG 0.24  C 
ATOM     13 O    ILE G   3      41.768   4.972  21.173  1.00 64.55 LIG-0.27  OA
BRANCH 12 14
ATOM     14  CA  ILE G   3      40.963   2.730  20.604  1.00 67.83 LIG 0.18  C 
BRANCH 14 15
ATOM     15  CB  ILE G   3      40.359   2.135  19.292  1.00 66.94 LIG 0.01  C 
ATOM     16  CG2 ILE G   3      41.083   0.844  18.907  1.00 67.41 LIG 0.01  C 
BRANCH 15 17
ATOM     17  CG1 ILE G   3      38.832   1.877  19.412  1.00 59.79 LIG 0.00  C 
ATOM     18  CD1 ILE G   3      38.484   0.558  20.050  1.00 60.74 LIG 0.01  C 
ENDBRANCH 15 17
ENDBRANCH 14 15
BRANCH 14 19
ATOM     19  N   ILE G   3      40.267   2.218  21.774  1.00 79.60 LIG-0.34  N 
ATOM     20 H    ILE G   3      39.587   2.692  22.005  1.00 79.60 LIG 0.16  HD
ATOM     21  C   ASP G   2      40.645   1.118  22.430  1.00 93.07 LIG 0.26  C 
ATOM     22 O    ASP G   2      41.559   0.384  22.050  1.00 81.24 LIG-0.27  OA
BRANCH 21 23
ATOM     23  CA  ASP G   2      39.897   0.785  23.727  1.00 93.30 LIG 0.41  C 
ATOM     24  N   ASP G   2      38.468   0.522  23.394  1.00 94.60 LIG 0.61  N 
BRANCH 23 25
ATOM     25  CB  ASP G   2      40.503  -0.426  24.452  1.00 96.36 LIG 0.16  C 
BRANCH 25 26
ATOM     26  CG  ASP G   2      39.610  -1.646  24.394  1.00103.24 LIG 0.17  C 
ATOM     27 OD1  ASP G   2      39.394  -2.187  23.292  1.00112.85 LIG-0.65  OA
ATOM     28 OD2  ASP G   2      39.123  -2.074  25.452  1.00105.87 LIG-0.65  OA
ENDBRANCH 25 26
ENDBRANCH 23 25
ENDBRANCH 21 23
ENDBRANCH 14 19
ENDBRANCH 12 14
ENDBRANCH 5 10
ENDBRANCH 1 5
BRANCH 3 29
ATOM     29  CA  PHE G   5      39.835   7.559  23.554  1.00 70.05 LIG 0.18  C 
BRANCH 29 30
ATOM     30  CB  PHE G   5      38.472   8.272  23.676  1.00 73.20 LIG 0.07  C 
BRANCH 30 31
ATOM     31  CG  PHE G   5      37.627   7.741  24.824  1.00 79.36 LIG-0.06  A 
ATOM     32  CD1 PHE G   5      36.564   6.840  24.567  1.00 85.64 LIG 0.01  A 
ATOM     33  CE1 PHE G   5      35.787   6.330  25.599  1.00 88.71 LIG 0.00  A 
ATOM     34  CZ  PHE G   5      36.069   6.708  26.914  1.00 96.11 LIG 0.00  A 
ATOM     35  CE2 PHE G   5      37.129   7.586  27.189  1.00 91.53 LIG 0.00  A 
ATOM     36  CD2 PHE G   5      37.903   8.097  26.152  1.00 81.01 LIG 0.01  A 
ENDBRANCH 30 31
ENDBRANCH 29 30
BRANCH 29 37
ATOM     37  C   PHE G   5      39.963   6.308  24.415  1.00 74.26 LIG 0.24  C 
ATOM     38  N   PRO G   6      40.826   6.368  25.455  1.00 79.01 LIG-0.34  N 
ATOM     39  CD  PRO G   6      41.751   7.505  25.714  1.00 76.17 LIG 0.13  C 
ATOM     40  CA  PRO G   6      41.170   5.181  26.253  1.00 78.34 LIG 0.18  C 
ATOM     41  CG  PRO G   6      42.424   7.120  26.985  1.00 78.03 LIG 0.02  C 
ATOM     42  CB  PRO G   6      42.477   5.616  26.939  1.00 82.73 LIG 0.04  C 
ATOM     43 O    PHE G   5      39.364   5.276  24.091  1.00 61.78 LIG-0.27  OA
BRANCH 40 44
ATOM     44  C   PRO G   6      40.135   4.743  27.314  1.00 77.34 LIG 0.24  C 
ATOM     45 O    PRO G   6      40.303   5.072  28.475  1.00 92.50 LIG-0.27  OA
ATOM     46  N   ALA G   7      39.087   4.009  26.912  1.00 74.20 LIG-0.35  N 
ATOM     47 H    ALA G   7      38.804   3.994  26.099  1.00 74.20 LIG 0.16  HD
BRANCH 46 48
ATOM     48  CA  ALA G   7      38.305   3.145  27.837  1.00 71.75 LIG 0.16  C 
ATOM     49  CB  ALA G   7      36.855   3.623  27.917  1.00 70.01 LIG 0.04  C 
BRANCH 48 50
ATOM     50  C   ALA G   7      38.358   1.676  27.362  1.00 69.94 LIG 0.22  C 
ATOM     51 O    ALA G   7      37.716   0.786  27.976  1.00 56.97 LIG-0.29  OA
ENDBRANCH 48 50
ENDBRANCH 46 48
ENDBRANCH 40 44
ENDBRANCH 29 37
ENDBRANCH 3 29
TORSDOF 18
ENDMDL
MODEL 121
USER: ADFR SOLUTION from run 83
USER: SCORE 14.444133 LL:  -5.492 LR: -10.097 RR:   0.000 FEB:  -4.728
USER: RMSD 8.781079
USER: SEED 82
USER: STATUS no improvement in best in 17 clusters for 5 generations
USER: GENES 20
USER: genes 0 Translation |==|  0.43000 0.52161 0.37888
USER: genes 1 Rotation |==|  0.25609 0.76663 0.15977 0.56047
USER: genes 2 Torsion [N]-C--CA-[N] |==|  0.02938
USER: genes 3 Torsion [C]-CA--CB-[CG] |==|  0.58701
USER: genes 4 Torsion [CA]-CB--CG-[CD1] |==|  0.25434
USER: genes 5 Torsion [C]-CA--N-[C] |==|  0.72946
USER: genes 6 Torsion [N]-C--CA-[N] |==|  0.05449
USER: genes 7 Torsion [C]-CA--CB-[CG1] |==|  0.68414
USER: genes 8 Torsion [CA]-CB--CG1-[CD1] |==|  0.22115
USER: genes 9 Torsion [C]-CA--N-[C] |==|  0.68518
USER: genes 10 Torsion [N]-C--CA-[N] |==|  0.08263
USER: genes 11 Torsion [C]-CA--CB-[CG] |==|  0.77223
USER: genes 12 Torsion [CA]-CB--CG-[OD1] |==|  0.06117
USER: genes 13 Torsion [C]-N--CA-[CB] |==|  0.18179
USER: genes 14 Torsion [N]-CA--CB-[CG] |==|  0.44082
USER: genes 15 Torsion [CA]-CB--CG-[CD1] |==|  0.30129
USER: genes 16 Torsion [N]-CA--C-[N] |==|  0.42914
USER: genes 17 Torsion [N]-CA--C-[O] |==|  0.61332
USER: genes 18 Torsion [C]-N--CA-[C] |==|  0.19763
USER: genes 19 Torsion [N]-CA--C-[O] |==|  0.46555
ROOT
ATOM      1  C   LEU G   4      38.804   6.781  20.688  1.00 61.38 LIG 0.24  C 
ATOM      2 O    LEU G   4      38.068   7.763  20.549  1.00 52.06 LIG-0.27  OA
ATOM      3  N   PHE G   5      39.087   6.204  21.842  1.00 60.80 LIG-0.35  N 
ATOM      4 H    PHE G   5      39.579   5.502  21.909  1.00 60.80 LIG 0.16  HD
ENDROOT
BRANCH 1 5
ATOM      5  CA  LEU G   4      39.499   6.154  19.515  1.00 58.56 LIG 0.18  C 
BRANCH 5 6
ATOM      6  CB  LEU G   4      38.459   5.942  18.419  1.00 61.47 LIG 0.04  C 
BRANCH 6 7
ATOM      7  CG  LEU G   4      38.722   4.740  17.539  1.00 62.80 LIG-0.02  C 
ATOM      8  CD1 LEU G   4      37.989   3.568  18.156  1.00 63.22 LIG 0.01  C 
ATOM      9  CD2 LEU G   4      38.236   5.056  16.124  1.00 64.86 LIG 0.01  C 
ENDBRANCH 6 7
ENDBRANCH 5 6
BRANCH 5 10
ATOM     10  N   LEU G   4      40.111   4.911  19.943  1.00 59.02 LIG-0.35  N 
ATOM     11 H    LEU G   4      39.581   4.234  19.963  1.00 59.02 LIG 0.16  HD
ATOM     12  C   ILE G   3      41.402   4.870  20.272  1.00 70.10 LIG 0.24  C 
ATOM     13 O    ILE G   3      42.185   5.814  20.020  1.00 64.55 LIG-0.27  OA
BRANCH 12 14
ATOM     14  CA  ILE G   3      41.890   3.581  20.985  1.00 67.83 LIG 0.18  C 
BRANCH 14 15
ATOM     15  CB  ILE G   3      43.326   3.189  20.514  1.00 66.94 LIG 0.01  C 
ATOM     16  CG2 ILE G   3      44.277   3.105  21.709  1.00 67.41 LIG 0.01  C 
BRANCH 15 17
ATOM     17  CG1 ILE G   3      43.340   1.852  19.722  1.00 59.79 LIG 0.00  C 
ATOM     18  CD1 ILE G   3      42.907   1.989  18.286  1.00 60.74 LIG 0.01  C 
ENDBRANCH 15 17
ENDBRANCH 14 15
BRANCH 14 19
ATOM     19  N   ILE G   3      40.950   2.497  20.744  1.00 79.60 LIG-0.34  N 
ATOM     20 H    ILE G   3      40.921   2.244  19.923  1.00 79.60 LIG 0.16  HD
ATOM     21  C   ASP G   2      40.204   1.946  21.705  1.00 93.07 LIG 0.26  C 
ATOM     22 O    ASP G   2      40.310   2.241  22.897  1.00 81.24 LIG-0.27  OA
BRANCH 21 23
ATOM     23  CA  ASP G   2      39.158   0.911  21.271  1.00 93.30 LIG 0.41  C 
ATOM     24  N   ASP G   2      39.654   0.226  20.043  1.00 94.60 LIG 0.61  N 
BRANCH 23 25
ATOM     25  CB  ASP G   2      38.870  -0.120  22.373  1.00 96.36 LIG 0.16  C 
BRANCH 25 26
ATOM     26  CG  ASP G   2      39.897  -1.232  22.411  1.00103.24 LIG 0.17  C 
ATOM     27 OD1  ASP G   2      41.023  -1.034  21.915  1.00112.85 LIG-0.65  OA
ATOM     28 OD2  ASP G   2      39.584  -2.307  22.944  1.00105.87 LIG-0.65  OA
ENDBRANCH 25 26
ENDBRANCH 23 25
ENDBRANCH 21 23
ENDBRANCH 14 19
ENDBRANCH 12 14
ENDBRANCH 5 10
ENDBRANCH 1 5
BRANCH 3 29
ATOM     29  CA  PHE G   5      38.601   6.686  23.104  1.00 70.05 LIG 0.18  C 
BRANCH 29 30
ATOM     30  CB  PHE G   5      37.066   6.555  23.183  1.00 73.20 LIG 0.07  C 
BRANCH 30 31
ATOM     31  CG  PHE G   5      36.546   6.548  24.613  1.00 79.36 LIG-0.06  A 
ATOM     32  CD1 PHE G   5      35.839   7.668  25.118  1.00 85.64 LIG 0.01  A 
ATOM     33  CE1 PHE G   5      35.341   7.681  26.414  1.00 88.71 LIG 0.00  A 
ATOM     34  CZ  PHE G   5      35.536   6.563  27.230  1.00 96.11 LIG 0.00  A 
ATOM     35  CE2 PHE G   5      36.220   5.438  26.741  1.00 91.53 LIG 0.00  A 
ATOM     36  CD2 PHE G   5      36.719   5.431  25.442  1.00 81.01 LIG 0.01  A 
ENDBRANCH 30 31
ENDBRANCH 29 30
BRANCH 29 37
ATOM     37  C   PHE G   5      39.350   5.892  24.169  1.00 74.26 LIG 0.24  C 
ATOM     38  N   PRO G   6      39.489   6.476  25.381  1.00 79.01 LIG-0.34  N 
ATOM     39  CD  PRO G   6      39.096   7.878  25.688  1.00 76.17 LIG 0.13  C 
ATOM     40  CA  PRO G   6      40.336   5.895  26.434  1.00 78.34 LIG 0.18  C 
ATOM     41  CG  PRO G   6      39.387   8.009  27.142  1.00 78.03 LIG 0.02  C 
ATOM     42  CB  PRO G   6      40.561   7.095  27.371  1.00 82.73 LIG 0.04  C 
ATOM     43 O    PHE G   5      39.875   4.812  23.873  1.00 61.78 LIG-0.27  OA
BRANCH 40 44
ATOM     44  C   PRO G   6      39.733   4.712  27.225  1.00 77.34 LIG 0.24  C 
ATOM     45 O    PRO G   6      39.908   4.656  28.430  1.00 92.50 LIG-0.27  OA
ATOM     46  N   ALA G   7      39.039   3.785  26.549  1.00 74.20 LIG-0.35  N 
ATOM     47 H    ALA G   7      38.679   3.930  25.781  1.00 74.20 LIG 0.16  HD
BRANCH 46 48
ATOM     48  CA  ALA G   7      38.822   2.406  27.063  1.00 71.75 LIG 0.16  C 
ATOM     49  CB  ALA G   7      40.150   1.781  27.492  1.00 70.01 LIG 0.04  C 
BRANCH 48 50
ATOM     50  C   ALA G   7      37.835   2.433  28.252  1.00 69.94 LIG 0.22  C 
ATOM     51 O    ALA G   7      37.334   1.365  28.686  1.00 56.97 LIG-0.29  OA
ENDBRANCH 48 50
ENDBRANCH 46 48
ENDBRANCH 40 44
ENDBRANCH 29 37
ENDBRANCH 3 29
TORSDOF 18
ENDMDL
MODEL 122
USER: ADFR SOLUTION from run 194
USER: SCORE 14.229699 LL:  -5.672 LR: -10.089 RR:   0.000 FEB:  -4.719
USER: RMSD 5.031851
USER: SEED 193
USER: STATUS no improvement in best in 14 clusters for 5 generations
USER: GENES 20
USER: genes 0 Translation |==|  0.48934 0.52096 0.75035
USER: genes 1 Rotation |==|  0.41615 0.97698 0.51199 0.62377
USER: genes 2 Torsion [N]-C--CA-[N] |==|  0.14157
USER: genes 3 Torsion [C]-CA--CB-[CG] |==|  0.75232
USER: genes 4 Torsion [CA]-CB--CG-[CD1] |==|  0.33214
USER: genes 5 Torsion [C]-CA--N-[C] |==|  0.60896
USER: genes 6 Torsion [N]-C--CA-[N] |==|  0.38987
USER: genes 7 Torsion [C]-CA--CB-[CG1] |==|  0.43847
USER: genes 8 Torsion [CA]-CB--CG1-[CD1] |==|  0.20339
USER: genes 9 Torsion [C]-CA--N-[C] |==|  0.70855
USER: genes 10 Torsion [N]-C--CA-[N] |==|  0.06533
USER: genes 11 Torsion [C]-CA--CB-[CG] |==|  0.71139
USER: genes 12 Torsion [CA]-CB--CG-[OD1] |==|  0.09970
USER: genes 13 Torsion [C]-N--CA-[CB] |==|  0.22778
USER: genes 14 Torsion [N]-CA--CB-[CG] |==|  0.02573
USER: genes 15 Torsion [CA]-CB--CG-[CD1] |==|  0.15219
USER: genes 16 Torsion [N]-CA--C-[N] |==|  0.44458
USER: genes 17 Torsion [N]-CA--C-[O] |==|  0.74645
USER: genes 18 Torsion [C]-N--CA-[C] |==|  0.49378
USER: genes 19 Torsion [N]-CA--C-[O] |==|  0.56150
ROOT
ATOM      1  C   LEU G   4      39.783   6.763  26.817  1.00 61.38 LIG 0.24  C 
ATOM      2 O    LEU G   4      39.558   6.714  28.031  1.00 52.06 LIG-0.27  OA
ATOM      3  N   PHE G   5      39.589   5.766  25.971  1.00 60.80 LIG-0.35  N 
ATOM      4 H    PHE G   5      39.726   5.835  25.125  1.00 60.80 LIG 0.16  HD
ENDROOT
BRANCH 1 5
ATOM      5  CA  LEU G   4      40.355   7.993  26.178  1.00 58.56 LIG 0.18  C 
BRANCH 5 6
ATOM      6  CB  LEU G   4      40.360   9.101  27.227  1.00 61.47 LIG 0.04  C 
BRANCH 6 7
ATOM      7  CG  LEU G   4      39.088   9.920  27.269  1.00 62.80 LIG-0.02  C 
ATOM      8  CD1 LEU G   4      38.500   9.759  28.654  1.00 63.22 LIG 0.01  C 
ATOM      9  CD2 LEU G   4      39.434  11.373  26.944  1.00 64.86 LIG 0.01  C 
ENDBRANCH 6 7
ENDBRANCH 5 6
BRANCH 5 10
ATOM     10  N   LEU G   4      39.554   8.334  25.018  1.00 59.02 LIG-0.35  N 
ATOM     11 H    LEU G   4      38.707   8.226  25.118  1.00 59.02 LIG 0.16  HD
ATOM     12  C   ILE G   3      40.133   8.778  23.902  1.00 70.10 LIG 0.24  C 
ATOM     13 O    ILE G   3      41.333   9.131  23.868  1.00 64.55 LIG-0.27  OA
BRANCH 12 14
ATOM     14  CA  ILE G   3      39.234   8.838  22.638  1.00 67.83 LIG 0.18  C 
BRANCH 14 15
ATOM     15  CB  ILE G   3      39.426   7.565  21.754  1.00 66.94 LIG 0.01  C 
ATOM     16  CG2 ILE G   3      39.684   6.339  22.630  1.00 67.41 LIG 0.01  C 
BRANCH 15 17
ATOM     17  CG1 ILE G   3      38.210   7.310  20.820  1.00 59.79 LIG 0.00  C 
ATOM     18  CD1 ILE G   3      38.119   8.269  19.663  1.00 60.74 LIG 0.01  C 
ENDBRANCH 15 17
ENDBRANCH 14 15
BRANCH 14 19
ATOM     19  N   ILE G   3      39.527  10.045  21.881  1.00 79.60 LIG-0.34  N 
ATOM     20 H    ILE G   3      40.266  10.007  21.443  1.00 79.60 LIG 0.16  HD
ATOM     21  C   ASP G   2      38.725  11.113  21.864  1.00 93.07 LIG 0.26  C 
ATOM     22 O    ASP G   2      37.621  11.139  22.411  1.00 81.24 LIG-0.27  OA
BRANCH 21 23
ATOM     23  CA  ASP G   2      39.237  12.361  21.133  1.00 93.30 LIG 0.41  C 
ATOM     24  N   ASP G   2      40.256  11.936  20.132  1.00 94.60 LIG 0.61  N 
BRANCH 23 25
ATOM     25  CB  ASP G   2      38.104  13.134  20.441  1.00 96.36 LIG 0.16  C 
BRANCH 25 26
ATOM     26  CG  ASP G   2      38.084  12.918  18.943  1.00103.24 LIG 0.17  C 
ATOM     27 OD1  ASP G   2      38.387  11.797  18.488  1.00112.85 LIG-0.65  OA
ATOM     28 OD2  ASP G   2      37.759  13.867  18.213  1.00105.87 LIG-0.65  OA
ENDBRANCH 25 26
ENDBRANCH 23 25
ENDBRANCH 21 23
ENDBRANCH 14 19
ENDBRANCH 12 14
ENDBRANCH 5 10
ENDBRANCH 1 5
BRANCH 3 29
ATOM     29  CA  PHE G   5      39.128   4.468  26.373  1.00 70.05 LIG 0.18  C 
BRANCH 29 30
ATOM     30  CB  PHE G   5      37.593   4.460  26.531  1.00 73.20 LIG 0.07  C 
BRANCH 30 31
ATOM     31  CG  PHE G   5      36.939   5.732  26.013  1.00 79.36 LIG-0.06  A 
ATOM     32  CD1 PHE G   5      37.177   6.164  24.684  1.00 85.64 LIG 0.01  A 
ATOM     33  CE1 PHE G   5      36.580   7.314  24.183  1.00 88.71 LIG 0.00  A 
ATOM     34  CZ  PHE G   5      35.723   8.050  25.006  1.00 96.11 LIG 0.00  A 
ATOM     35  CE2 PHE G   5      35.463   7.628  26.319  1.00 91.53 LIG 0.00  A 
ATOM     36  CD2 PHE G   5      36.065   6.476  26.817  1.00 81.01 LIG 0.01  A 
ENDBRANCH 30 31
ENDBRANCH 29 30
BRANCH 29 37
ATOM     37  C   PHE G   5      39.652   3.496  25.323  1.00 74.26 LIG 0.24  C 
ATOM     38  N   PRO G   6      39.716   2.192  25.675  1.00 79.01 LIG-0.34  N 
ATOM     39  CD  PRO G   6      39.454   1.679  27.047  1.00 76.17 LIG 0.13  C 
ATOM     40  CA  PRO G   6      40.362   1.183  24.821  1.00 78.34 LIG 0.18  C 
ATOM     41  CG  PRO G   6      39.587   0.203  26.897  1.00 78.03 LIG 0.02  C 
ATOM     42  CB  PRO G   6      40.614   0.031  25.809  1.00 82.73 LIG 0.04  C 
ATOM     43 O    PHE G   5      40.080   3.928  24.246  1.00 61.78 LIG-0.27  OA
BRANCH 40 44
ATOM     44  C   PRO G   6      39.540   0.676  23.614  1.00 77.34 LIG 0.24  C 
ATOM     45 O    PRO G   6      38.834  -0.307  23.752  1.00 92.50 LIG-0.27  OA
ATOM     46  N   ALA G   7      39.640   1.342  22.454  1.00 74.20 LIG-0.35  N 
ATOM     47 H    ALA G   7      39.899   2.160  22.400  1.00 74.20 LIG 0.16  HD
BRANCH 46 48
ATOM     48  CA  ALA G   7      39.308   0.727  21.141  1.00 71.75 LIG 0.16  C 
ATOM     49  CB  ALA G   7      37.880   0.181  21.152  1.00 70.01 LIG 0.04  C 
BRANCH 48 50
ATOM     50  C   ALA G   7      39.472   1.769  20.012  1.00 69.94 LIG 0.22  C 
ATOM     51 O    ALA G   7      38.872   1.620  18.917  1.00 56.97 LIG-0.29  OA
ENDBRANCH 48 50
ENDBRANCH 46 48
ENDBRANCH 40 44
ENDBRANCH 29 37
ENDBRANCH 3 29
TORSDOF 18
ENDMDL
MODEL 123
USER: ADFR SOLUTION from run 129
USER: SCORE 14.457097 LL:  -5.209 LR: -10.090 RR:   0.000 FEB:  -4.720
USER: RMSD 4.712811
USER: SEED 128
USER: STATUS no improvement in best in 21 clusters for 5 generations
USER: GENES 20
USER: genes 0 Translation |==|  0.49205 0.59208 0.54648
USER: genes 1 Rotation |==|  0.60122 0.10195 0.26679 0.66409
USER: genes 2 Torsion [N]-C--CA-[N] |==|  0.90934
USER: genes 3 Torsion [C]-CA--CB-[CG] |==|  0.24418
USER: genes 4 Torsion [CA]-CB--CG-[CD1] |==|  0.70989
USER: genes 5 Torsion [C]-CA--N-[C] |==|  0.64037
USER: genes 6 Torsion [N]-C--CA-[N] |==|  0.39141
USER: genes 7 Torsion [C]-CA--CB-[CG1] |==|  0.15235
USER: genes 8 Torsion [CA]-CB--CG1-[CD1] |==|  0.19259
USER: genes 9 Torsion [C]-CA--N-[C] |==|  0.81911
USER: genes 10 Torsion [N]-C--CA-[N] |==|  0.85390
USER: genes 11 Torsion [C]-CA--CB-[CG] |==|  0.83412
USER: genes 12 Torsion [CA]-CB--CG-[OD1] |==|  0.29575
USER: genes 13 Torsion [C]-N--CA-[CB] |==|  0.79254
USER: genes 14 Torsion [N]-CA--CB-[CG] |==|  0.57469
USER: genes 15 Torsion [CA]-CB--CG-[CD1] |==|  0.79265
USER: genes 16 Torsion [N]-CA--C-[N] |==|  0.17778
USER: genes 17 Torsion [N]-CA--C-[O] |==|  0.09742
USER: genes 18 Torsion [C]-N--CA-[C] |==|  0.54153
USER: genes 19 Torsion [N]-CA--C-[O] |==|  0.46086
ROOT
ATOM      1  C   LEU G   4      39.828   8.736  23.453  1.00 61.38 LIG 0.24  C 
ATOM      2 O    LEU G   4      40.933   8.253  23.722  1.00 52.06 LIG-0.27  OA
ATOM      3  N   PHE G   5      38.856   8.099  22.823  1.00 60.80 LIG-0.35  N 
ATOM      4 H    PHE G   5      38.085   8.449  22.674  1.00 60.80 LIG 0.16  HD
ENDROOT
BRANCH 1 5
ATOM      5  CA  LEU G   4      39.493  10.157  23.799  1.00 58.56 LIG 0.18  C 
BRANCH 5 6
ATOM      6  CB  LEU G   4      38.836  10.157  25.176  1.00 61.47 LIG 0.04  C 
BRANCH 6 7
ATOM      7  CG  LEU G   4      39.812  10.255  26.328  1.00 62.80 LIG-0.02  C 
ATOM      8  CD1 LEU G   4      39.914   8.875  26.944  1.00 63.22 LIG 0.01  C 
ATOM      9  CD2 LEU G   4      41.151  10.758  25.791  1.00 64.86 LIG 0.01  C 
ENDBRANCH 6 7
ENDBRANCH 5 6
BRANCH 5 10
ATOM     10  N   LEU G   4      38.621  10.695  22.772  1.00 59.02 LIG-0.35  N 
ATOM     11 H    LEU G   4      37.938  10.208  22.584  1.00 59.02 LIG 0.16  HD
ATOM     12  C   ILE G   3      38.901  11.863  22.191  1.00 70.10 LIG 0.24  C 
ATOM     13 O    ILE G   3      39.771  12.641  22.642  1.00 64.55 LIG-0.27  OA
BRANCH 12 14
ATOM     14  CA  ILE G   3      38.083  12.211  20.919  1.00 67.83 LIG 0.18  C 
BRANCH 14 15
ATOM     15  CB  ILE G   3      38.866  11.821  19.625  1.00 66.94 LIG 0.01  C 
ATOM     16  CG2 ILE G   3      40.089  12.722  19.448  1.00 67.41 LIG 0.01  C 
BRANCH 15 17
ATOM     17  CG1 ILE G   3      39.296  10.328  19.626  1.00 59.79 LIG 0.00  C 
ATOM     18  CD1 ILE G   3      38.149   9.363  19.487  1.00 60.74 LIG 0.01  C 
ENDBRANCH 15 17
ENDBRANCH 14 15
BRANCH 14 19
ATOM     19  N   ILE G   3      37.750  13.627  20.917  1.00 79.60 LIG-0.34  N 
ATOM     20 H    ILE G   3      38.119  14.067  20.277  1.00 79.60 LIG 0.16  HD
ATOM     21  C   ASP G   2      36.947  14.193  21.823  1.00 93.07 LIG 0.26  C 
ATOM     22 O    ASP G   2      36.343  13.553  22.685  1.00 81.24 LIG-0.27  OA
BRANCH 21 23
ATOM     23  CA  ASP G   2      36.805  15.720  21.775  1.00 93.30 LIG 0.41  C 
ATOM     24  N   ASP G   2      38.169  16.321  21.797  1.00 94.60 LIG 0.61  N 
BRANCH 23 25
ATOM     25  CB  ASP G   2      36.038  16.192  20.531  1.00 96.36 LIG 0.16  C 
BRANCH 25 26
ATOM     26  CG  ASP G   2      36.712  15.779  19.240  1.00103.24 LIG 0.17  C 
ATOM     27 OD1  ASP G   2      36.211  14.861  18.561  1.00112.85 LIG-0.65  OA
ATOM     28 OD2  ASP G   2      37.744  16.375  18.895  1.00105.87 LIG-0.65  OA
ENDBRANCH 25 26
ENDBRANCH 23 25
ENDBRANCH 21 23
ENDBRANCH 14 19
ENDBRANCH 12 14
ENDBRANCH 5 10
ENDBRANCH 1 5
BRANCH 3 29
ATOM     29  CA  PHE G   5      38.985   6.760  22.324  1.00 70.05 LIG 0.18  C 
BRANCH 29 30
ATOM     30  CB  PHE G   5      39.853   6.735  21.050  1.00 73.20 LIG 0.07  C 
BRANCH 30 31
ATOM     31  CG  PHE G   5      39.522   5.569  20.131  1.00 79.36 LIG-0.06  A 
ATOM     32  CD1 PHE G   5      39.939   4.257  20.468  1.00 85.64 LIG 0.01  A 
ATOM     33  CE1 PHE G   5      39.637   3.173  19.653  1.00 88.71 LIG 0.00  A 
ATOM     34  CZ  PHE G   5      38.901   3.385  18.484  1.00 96.11 LIG 0.00  A 
ATOM     35  CE2 PHE G   5      38.465   4.675  18.143  1.00 91.53 LIG 0.00  A 
ATOM     36  CD2 PHE G   5      38.772   5.758  18.961  1.00 81.01 LIG 0.01  A 
ENDBRANCH 30 31
ENDBRANCH 29 30
BRANCH 29 37
ATOM     37  C   PHE G   5      39.547   5.938  23.478  1.00 74.26 LIG 0.24  C 
ATOM     38  N   PRO G   6      38.772   5.819  24.579  1.00 79.01 LIG-0.34  N 
ATOM     39  CD  PRO G   6      37.493   6.551  24.788  1.00 76.17 LIG 0.13  C 
ATOM     40  CA  PRO G   6      39.267   5.203  25.820  1.00 78.34 LIG 0.18  C 
ATOM     41  CG  PRO G   6      37.007   6.033  26.097  1.00 78.03 LIG 0.02  C 
ATOM     42  CB  PRO G   6      38.265   5.723  26.865  1.00 82.73 LIG 0.04  C 
ATOM     43 O    PHE G   5      40.702   5.498  23.412  1.00 61.78 LIG-0.27  OA
BRANCH 40 44
ATOM     44  C   PRO G   6      39.310   3.659  25.851  1.00 77.34 LIG 0.24  C 
ATOM     45 O    PRO G   6      39.582   3.054  24.828  1.00 92.50 LIG-0.27  OA
ATOM     46  N   ALA G   7      39.043   3.039  27.010  1.00 74.20 LIG-0.35  N 
ATOM     47 H    ALA G   7      39.116   3.421  27.777  1.00 74.20 LIG 0.16  HD
BRANCH 46 48
ATOM     48  CA  ALA G   7      38.592   1.624  27.082  1.00 71.75 LIG 0.16  C 
ATOM     49  CB  ALA G   7      39.752   0.677  26.772  1.00 70.01 LIG 0.04  C 
BRANCH 48 50
ATOM     50  C   ALA G   7      38.016   1.322  28.484  1.00 69.94 LIG 0.22  C 
ATOM     51 O    ALA G   7      37.343   0.279  28.683  1.00 56.97 LIG-0.29  OA
ENDBRANCH 48 50
ENDBRANCH 46 48
ENDBRANCH 40 44
ENDBRANCH 29 37
ENDBRANCH 3 29
TORSDOF 18
ENDMDL
MODEL 124
USER: ADFR SOLUTION from run 184
USER: SCORE 14.601641 LL:  -5.420 LR: -10.090 RR:   0.000 FEB:  -4.721
USER: RMSD 9.191215
USER: SEED 183
USER: STATUS no improvement in best in 15 clusters for 5 generations
USER: GENES 20
USER: genes 0 Translation |==|  0.51382 0.25821 0.59549
USER: genes 1 Rotation |==|  0.48732 0.16443 0.83380 0.66067
USER: genes 2 Torsion [N]-C--CA-[N] |==|  0.43098
USER: genes 3 Torsion [C]-CA--CB-[CG] |==|  0.42223
USER: genes 4 Torsion [CA]-CB--CG-[CD1] |==|  0.32260
USER: genes 5 Torsion [C]-CA--N-[C] |==|  0.82100
USER: genes 6 Torsion [N]-C--CA-[N] |==|  0.50244
USER: genes 7 Torsion [C]-CA--CB-[CG1] |==|  0.20144
USER: genes 8 Torsion [CA]-CB--CG1-[CD1] |==|  0.10621
USER: genes 9 Torsion [C]-CA--N-[C] |==|  0.51111
USER: genes 10 Torsion [N]-C--CA-[N] |==|  0.26340
USER: genes 11 Torsion [C]-CA--CB-[CG] |==|  0.73298
USER: genes 12 Torsion [CA]-CB--CG-[OD1] |==|  0.83371
USER: genes 13 Torsion [C]-N--CA-[CB] |==|  0.87487
USER: genes 14 Torsion [N]-CA--CB-[CG] |==|  0.35978
USER: genes 15 Torsion [CA]-CB--CG-[CD1] |==|  0.75230
USER: genes 16 Torsion [N]-CA--C-[N] |==|  0.38532
USER: genes 17 Torsion [N]-CA--C-[O] |==|  0.88591
USER: genes 18 Torsion [C]-N--CA-[C] |==|  0.64136
USER: genes 19 Torsion [N]-CA--C-[O] |==|  0.95850
ROOT
ATOM      1  C   LEU G   4      40.187  -0.529  24.262  1.00 61.38 LIG 0.24  C 
ATOM      2 O    LEU G   4      41.043   0.326  24.009  1.00 52.06 LIG-0.27  OA
ATOM      3  N   PHE G   5      39.585  -0.675  25.429  1.00 60.80 LIG-0.35  N 
ATOM      4 H    PHE G   5      38.971  -1.260  25.570  1.00 60.80 LIG 0.16  HD
ENDROOT
BRANCH 1 5
ATOM      5  CA  LEU G   4      39.766  -1.539  23.236  1.00 58.56 LIG 0.18  C 
BRANCH 5 6
ATOM      6  CB  LEU G   4      40.578  -2.808  23.474  1.00 61.47 LIG 0.04  C 
BRANCH 6 7
ATOM      7  CG  LEU G   4      39.884  -4.080  23.038  1.00 62.80 LIG-0.02  C 
ATOM      8  CD1 LEU G   4      40.712  -4.678  21.920  1.00 63.22 LIG 0.01  C 
ATOM      9  CD2 LEU G   4      39.769  -5.010  24.244  1.00 64.86 LIG 0.01  C 
ENDBRANCH 6 7
ENDBRANCH 5 6
BRANCH 5 10
ATOM     10  N   LEU G   4      39.985  -0.983  21.914  1.00 59.02 LIG-0.35  N 
ATOM     11 H    LEU G   4      40.574  -1.394  21.441  1.00 59.02 LIG 0.16  HD
ATOM     12  C   ILE G   3      39.301   0.087  21.508  1.00 70.10 LIG 0.24  C 
ATOM     13 O    ILE G   3      38.306   0.519  22.131  1.00 64.55 LIG-0.27  OA
BRANCH 12 14
ATOM     14  CA  ILE G   3      39.806   0.774  20.211  1.00 67.83 LIG 0.18  C 
BRANCH 14 15
ATOM     15  CB  ILE G   3      41.307   1.184  20.342  1.00 66.94 LIG 0.01  C 
ATOM     16  CG2 ILE G   3      41.535   1.976  21.630  1.00 67.41 LIG 0.01  C 
BRANCH 15 17
ATOM     17  CG1 ILE G   3      42.258  -0.044  20.292  1.00 59.79 LIG 0.00  C 
ATOM     18  CD1 ILE G   3      41.831  -1.106  19.313  1.00 60.74 LIG 0.01  C 
ENDBRANCH 15 17
ENDBRANCH 14 15
BRANCH 14 19
ATOM     19  N   ILE G   3      38.977   1.931  19.910  1.00 79.60 LIG-0.34  N 
ATOM     20 H    ILE G   3      38.380   2.092  20.507  1.00 79.60 LIG 0.16  HD
ATOM     21  C   ASP G   2      39.126   2.673  18.809  1.00 93.07 LIG 0.26  C 
ATOM     22 O    ASP G   2      40.036   2.503  17.997  1.00 81.24 LIG-0.27  OA
BRANCH 21 23
ATOM     23  CA  ASP G   2      38.085   3.773  18.561  1.00 93.30 LIG 0.41  C 
ATOM     24  N   ASP G   2      38.615   5.055  19.108  1.00 94.60 LIG 0.61  N 
BRANCH 23 25
ATOM     25  CB  ASP G   2      37.751   3.931  17.070  1.00 96.36 LIG 0.16  C 
BRANCH 25 26
ATOM     26  CG  ASP G   2      38.548   5.035  16.410  1.00103.24 LIG 0.17  C 
ATOM     27 OD1  ASP G   2      38.439   6.201  16.838  1.00112.85 LIG-0.65  OA
ATOM     28 OD2  ASP G   2      39.293   4.742  15.462  1.00105.87 LIG-0.65  OA
ENDBRANCH 25 26
ENDBRANCH 23 25
ENDBRANCH 21 23
ENDBRANCH 14 19
ENDBRANCH 12 14
ENDBRANCH 5 10
ENDBRANCH 1 5
BRANCH 3 29
ATOM     29  CA  PHE G   5      39.892   0.125  26.580  1.00 70.05 LIG 0.18  C 
BRANCH 29 30
ATOM     30  CB  PHE G   5      41.419   0.260  26.758  1.00 73.20 LIG 0.07  C 
BRANCH 30 31
ATOM     31  CG  PHE G   5      41.868   1.702  26.937  1.00 79.36 LIG-0.06  A 
ATOM     32  CD1 PHE G   5      42.194   2.491  25.805  1.00 85.64 LIG 0.01  A 
ATOM     33  CE1 PHE G   5      42.593   3.814  25.940  1.00 88.71 LIG 0.00  A 
ATOM     34  CZ  PHE G   5      42.666   4.376  27.218  1.00 96.11 LIG 0.00  A 
ATOM     35  CE2 PHE G   5      42.331   3.615  28.349  1.00 91.53 LIG 0.00  A 
ATOM     36  CD2 PHE G   5      41.934   2.288  28.209  1.00 81.01 LIG 0.01  A 
ENDBRANCH 30 31
ENDBRANCH 29 30
BRANCH 29 37
ATOM     37  C   PHE G   5      39.170   1.451  26.371  1.00 74.26 LIG 0.24  C 
ATOM     38  N   PRO G   6      38.563   1.993  27.451  1.00 79.01 LIG-0.34  N 
ATOM     39  CD  PRO G   6      38.432   1.315  28.769  1.00 76.17 LIG 0.13  C 
ATOM     40  CA  PRO G   6      37.691   3.173  27.346  1.00 78.34 LIG 0.18  C 
ATOM     41  CG  PRO G   6      37.759   2.336  29.619  1.00 78.03 LIG 0.02  C 
ATOM     42  CB  PRO G   6      36.891   3.106  28.659  1.00 82.73 LIG 0.04  C 
ATOM     43 O    PHE G   5      39.081   1.928  25.233  1.00 61.78 LIG-0.27  OA
BRANCH 40 44
ATOM     44  C   PRO G   6      38.397   4.542  27.225  1.00 77.34 LIG 0.24  C 
ATOM     45 O    PRO G   6      39.382   4.761  27.909  1.00 92.50 LIG-0.27  OA
ATOM     46  N   ALA G   7      37.894   5.442  26.367  1.00 74.20 LIG-0.35  N 
ATOM     47 H    ALA G   7      37.393   5.231  25.701  1.00 74.20 LIG 0.16  HD
BRANCH 46 48
ATOM     48  CA  ALA G   7      38.156   6.901  26.485  1.00 71.75 LIG 0.16  C 
ATOM     49  CB  ALA G   7      39.087   7.369  25.366  1.00 70.01 LIG 0.04  C 
BRANCH 48 50
ATOM     50  C   ALA G   7      36.824   7.684  26.435  1.00 69.94 LIG 0.22  C 
ATOM     51 O    ALA G   7      35.772   7.123  26.035  1.00 56.97 LIG-0.29  OA
ENDBRANCH 48 50
ENDBRANCH 46 48
ENDBRANCH 40 44
ENDBRANCH 29 37
ENDBRANCH 3 29
TORSDOF 18
ENDMDL
MODEL 125
USER: ADFR SOLUTION from run 107
USER: SCORE 14.897801 LL:  -5.617 LR: -10.085 RR:   0.000 FEB:  -4.716
USER: RMSD 11.132114
USER: SEED 106
USER: STATUS no improvement in best in 20 clusters for 5 generations
USER: GENES 20
USER: genes 0 Translation |==|  0.42792 0.70286 0.45183
USER: genes 1 Rotation |==|  0.54252 0.27894 0.94203 0.56269
USER: genes 2 Torsion [N]-C--CA-[N] |==|  0.00556
USER: genes 3 Torsion [C]-CA--CB-[CG] |==|  0.54651
USER: genes 4 Torsion [CA]-CB--CG-[CD1] |==|  0.52955
USER: genes 5 Torsion [C]-CA--N-[C] |==|  0.71026
USER: genes 6 Torsion [N]-C--CA-[N] |==|  0.70456
USER: genes 7 Torsion [C]-CA--CB-[CG1] |==|  0.55345
USER: genes 8 Torsion [CA]-CB--CG1-[CD1] |==|  0.66387
USER: genes 9 Torsion [C]-CA--N-[C] |==|  0.65033
USER: genes 10 Torsion [N]-C--CA-[N] |==|  0.82178
USER: genes 11 Torsion [C]-CA--CB-[CG] |==|  0.67140
USER: genes 12 Torsion [CA]-CB--CG-[OD1] |==|  0.69372
USER: genes 13 Torsion [C]-N--CA-[CB] |==|  0.84653
USER: genes 14 Torsion [N]-CA--CB-[CG] |==|  0.92491
USER: genes 15 Torsion [CA]-CB--CG-[CD1] |==|  0.36613
USER: genes 16 Torsion [N]-CA--C-[N] |==|  0.36373
USER: genes 17 Torsion [N]-CA--C-[O] |==|  0.24204
USER: genes 18 Torsion [C]-N--CA-[C] |==|  0.82108
USER: genes 19 Torsion [N]-CA--C-[O] |==|  0.94554
ROOT
ATOM      1  C   LEU G   4      38.770  11.810  21.891  1.00 61.38 LIG 0.24  C 
ATOM      2 O    LEU G   4      39.093  12.707  21.105  1.00 52.06 LIG-0.27  OA
ATOM      3  N   PHE G   5      38.208  12.005  23.071  1.00 60.80 LIG-0.35  N 
ATOM      4 H    PHE G   5      37.965  11.362  23.587  1.00 60.80 LIG 0.16  HD
ENDROOT
BRANCH 1 5
ATOM      5  CA  LEU G   4      39.031  10.366  21.579  1.00 58.56 LIG 0.18  C 
BRANCH 5 6
ATOM      6  CB  LEU G   4      38.337  10.045  20.258  1.00 61.47 LIG 0.04  C 
BRANCH 6 7
ATOM      7  CG  LEU G   4      38.159   8.566  19.995  1.00 62.80 LIG-0.02  C 
ATOM      8  CD1 LEU G   4      37.711   8.420  18.556  1.00 63.22 LIG 0.01  C 
ATOM      9  CD2 LEU G   4      39.486   7.859  20.270  1.00 64.86 LIG 0.01  C 
ENDBRANCH 6 7
ENDBRANCH 5 6
BRANCH 5 10
ATOM     10  N   LEU G   4      38.536   9.554  22.674  1.00 59.02 LIG-0.35  N 
ATOM     11 H    LEU G   4      37.682   9.462  22.700  1.00 59.02 LIG 0.16  HD
ATOM     12  C   ILE G   3      39.383   9.011  23.549  1.00 70.10 LIG 0.24  C 
ATOM     13 O    ILE G   3      40.618   8.983  23.354  1.00 64.55 LIG-0.27  OA
BRANCH 12 14
ATOM     14  CA  ILE G   3      38.751   8.410  24.834  1.00 67.83 LIG 0.18  C 
BRANCH 14 15
ATOM     15  CB  ILE G   3      37.216   8.190  24.653  1.00 66.94 LIG 0.01  C 
ATOM     16  CG2 ILE G   3      36.950   6.961  23.784  1.00 67.41 LIG 0.01  C 
BRANCH 15 17
ATOM     17  CG1 ILE G   3      36.477   8.054  26.013  1.00 59.79 LIG 0.00  C 
ATOM     18  CD1 ILE G   3      35.742   6.751  26.180  1.00 60.74 LIG 0.01  C 
ENDBRANCH 15 17
ENDBRANCH 14 15
BRANCH 14 19
ATOM     19  N   ILE G   3      39.021   9.278  25.970  1.00 79.60 LIG-0.34  N 
ATOM     20 H    ILE G   3      38.775  10.092  25.847  1.00 79.60 LIG 0.16  HD
ATOM     21  C   ASP G   2      39.596   8.852  27.098  1.00 93.07 LIG 0.26  C 
ATOM     22 O    ASP G   2      39.864   7.669  27.315  1.00 81.24 LIG-0.27  OA
BRANCH 21 23
ATOM     23  CA  ASP G   2      39.943   9.913  28.150  1.00 93.30 LIG 0.41  C 
ATOM     24  N   ASP G   2      40.972  10.826  27.576  1.00 94.60 LIG 0.61  N 
BRANCH 23 25
ATOM     25  CB  ASP G   2      38.711  10.715  28.594  1.00 96.36 LIG 0.16  C 
BRANCH 25 26
ATOM     26  CG  ASP G   2      38.834  12.190  28.280  1.00103.24 LIG 0.17  C 
ATOM     27 OD1  ASP G   2      38.975  13.000  29.218  1.00112.85 LIG-0.65  OA
ATOM     28 OD2  ASP G   2      38.796  12.548  27.093  1.00105.87 LIG-0.65  OA
ENDBRANCH 25 26
ENDBRANCH 23 25
ENDBRANCH 21 23
ENDBRANCH 14 19
ENDBRANCH 12 14
ENDBRANCH 5 10
ENDBRANCH 1 5
BRANCH 3 29
ATOM     29  CA  PHE G   5      37.943  13.307  23.613  1.00 70.05 LIG 0.18  C 
BRANCH 29 30
ATOM     30  CB  PHE G   5      39.233  14.153  23.653  1.00 73.20 LIG 0.07  C 
BRANCH 30 31
ATOM     31  CG  PHE G   5      40.492  13.306  23.762  1.00 79.36 LIG-0.06  A 
ATOM     32  CD1 PHE G   5      41.590  13.550  22.899  1.00 85.64 LIG 0.01  A 
ATOM     33  CE1 PHE G   5      42.756  12.800  22.988  1.00 88.71 LIG 0.00  A 
ATOM     34  CZ  PHE G   5      42.846  11.793  23.953  1.00 96.11 LIG 0.00  A 
ATOM     35  CE2 PHE G   5      41.775  11.549  24.827  1.00 91.53 LIG 0.00  A 
ATOM     36  CD2 PHE G   5      40.608  12.301  24.732  1.00 81.01 LIG 0.01  A 
ENDBRANCH 30 31
ENDBRANCH 29 30
BRANCH 29 37
ATOM     37  C   PHE G   5      36.835  13.901  22.751  1.00 74.26 LIG 0.24  C 
ATOM     38  N   PRO G   6      35.777  14.438  23.399  1.00 79.01 LIG-0.34  N 
ATOM     39  CD  PRO G   6      35.561  14.353  24.869  1.00 76.17 LIG 0.13  C 
ATOM     40  CA  PRO G   6      34.569  14.883  22.687  1.00 78.34 LIG 0.18  C 
ATOM     41  CG  PRO G   6      34.316  15.141  25.083  1.00 78.03 LIG 0.02  C 
ATOM     42  CB  PRO G   6      33.526  14.940  23.816  1.00 82.73 LIG 0.04  C 
ATOM     43 O    PHE G   5      36.891  13.790  21.520  1.00 61.78 LIG-0.27  OA
BRANCH 40 44
ATOM     44  C   PRO G   6      34.656  16.252  21.976  1.00 77.34 LIG 0.24  C 
ATOM     45 O    PRO G   6      35.084  16.301  20.836  1.00 92.50 LIG-0.27  OA
ATOM     46  N   ALA G   7      34.256  17.342  22.648  1.00 74.20 LIG-0.35  N 
ATOM     47 H    ALA G   7      33.717  17.313  23.318  1.00 74.20 LIG 0.16  HD
BRANCH 46 48
ATOM     48  CA  ALA G   7      34.707  18.716  22.297  1.00 71.75 LIG 0.16  C 
ATOM     49  CB  ALA G   7      33.963  19.753  23.137  1.00 70.01 LIG 0.04  C 
BRANCH 48 50
ATOM     50  C   ALA G   7      36.232  18.844  22.517  1.00 69.94 LIG 0.22  C 
ATOM     51 O    ALA G   7      36.838  18.030  23.260  1.00 56.97 LIG-0.29  OA
ENDBRANCH 48 50
ENDBRANCH 46 48
ENDBRANCH 40 44
ENDBRANCH 29 37
ENDBRANCH 3 29
TORSDOF 18
ENDMDL
MODEL 126
USER: ADFR SOLUTION from run 23
USER: SCORE 14.621986 LL:  -5.951 LR: -10.080 RR:   0.000 FEB:  -4.710
USER: RMSD 10.737634
USER: SEED 22
USER: STATUS no improvement in best in 16 clusters for 5 generations
USER: GENES 20
USER: genes 0 Translation |==|  0.50022 0.45375 0.46096
USER: genes 1 Rotation |==|  0.68874 0.46413 0.95902 0.54887
USER: genes 2 Torsion [N]-C--CA-[N] |==|  0.16709
USER: genes 3 Torsion [C]-CA--CB-[CG] |==|  0.75795
USER: genes 4 Torsion [CA]-CB--CG-[CD1] |==|  0.39398
USER: genes 5 Torsion [C]-CA--N-[C] |==|  0.78497
USER: genes 6 Torsion [N]-C--CA-[N] |==|  0.12778
USER: genes 7 Torsion [C]-CA--CB-[CG1] |==|  0.51420
USER: genes 8 Torsion [CA]-CB--CG1-[CD1] |==|  0.89188
USER: genes 9 Torsion [C]-CA--N-[C] |==|  0.16247
USER: genes 10 Torsion [N]-C--CA-[N] |==|  0.82696
USER: genes 11 Torsion [C]-CA--CB-[CG] |==|  0.50785
USER: genes 12 Torsion [CA]-CB--CG-[OD1] |==|  0.13241
USER: genes 13 Torsion [C]-N--CA-[CB] |==|  0.19103
USER: genes 14 Torsion [N]-CA--CB-[CG] |==|  0.25402
USER: genes 15 Torsion [CA]-CB--CG-[CD1] |==|  0.84001
USER: genes 16 Torsion [N]-CA--C-[N] |==|  0.45716
USER: genes 17 Torsion [N]-CA--C-[O] |==|  0.98063
USER: genes 18 Torsion [C]-N--CA-[C] |==|  0.74769
USER: genes 19 Torsion [N]-CA--C-[O] |==|  0.04989
ROOT
ATOM      1  C   LEU G   4      39.963   4.898  22.042  1.00 61.38 LIG 0.24  C 
ATOM      2 O    LEU G   4      39.435   5.107  20.944  1.00 52.06 LIG-0.27  OA
ATOM      3  N   PHE G   5      39.907   5.718  23.076  1.00 60.80 LIG-0.35  N 
ATOM      4 H    PHE G   5      40.259   5.535  23.840  1.00 60.80 LIG 0.16  HD
ENDROOT
BRANCH 1 5
ATOM      5  CA  LEU G   4      40.776   3.663  22.294  1.00 58.56 LIG 0.18  C 
BRANCH 5 6
ATOM      6  CB  LEU G   4      40.794   2.848  21.005  1.00 61.47 LIG 0.04  C 
BRANCH 6 7
ATOM      7  CG  LEU G   4      39.626   1.898  20.854  1.00 62.80 LIG-0.02  C 
ATOM      8  CD1 LEU G   4      39.224   1.915  19.394  1.00 63.22 LIG 0.01  C 
ATOM      9  CD2 LEU G   4      40.061   0.512  21.327  1.00 64.86 LIG 0.01  C 
ENDBRANCH 6 7
ENDBRANCH 5 6
BRANCH 5 10
ATOM     10  N   LEU G   4      40.187   2.933  23.400  1.00 59.02 LIG-0.35  N 
ATOM     11 H    LEU G   4      39.724   2.244  23.175  1.00 59.02 LIG 0.16  HD
ATOM     12  C   ILE G   3      40.377   3.338  24.656  1.00 70.10 LIG 0.24  C 
ATOM     13 O    ILE G   3      41.230   4.203  24.957  1.00 64.55 LIG-0.27  OA
BRANCH 12 14
ATOM     14  CA  ILE G   3      39.481   2.674  25.736  1.00 67.83 LIG 0.18  C 
BRANCH 14 15
ATOM     15  CB  ILE G   3      39.984   3.022  27.173  1.00 66.94 LIG 0.01  C 
ATOM     16  CG2 ILE G   3      39.918   4.531  27.411  1.00 67.41 LIG 0.01  C 
BRANCH 15 17
ATOM     17  CG1 ILE G   3      39.185   2.270  28.273  1.00 59.79 LIG 0.00  C 
ATOM     18  CD1 ILE G   3      37.711   2.160  27.989  1.00 60.74 LIG 0.01  C 
ENDBRANCH 15 17
ENDBRANCH 14 15
BRANCH 14 19
ATOM     19  N   ILE G   3      39.448   1.233  25.533  1.00 79.60 LIG-0.34  N 
ATOM     20 H    ILE G   3      38.657   0.921  25.409  1.00 79.60 LIG 0.16  HD
ATOM     21  C   ASP G   2      40.542   0.466  25.538  1.00 93.07 LIG 0.26  C 
ATOM     22 O    ASP G   2      41.685   0.919  25.622  1.00 81.24 LIG-0.27  OA
BRANCH 21 23
ATOM     23  CA  ASP G   2      40.333  -1.051  25.452  1.00 93.30 LIG 0.41  C 
ATOM     24  N   ASP G   2      39.567  -1.490  26.654  1.00 94.60 LIG 0.61  N 
BRANCH 23 25
ATOM     25  CB  ASP G   2      39.591  -1.463  24.172  1.00 96.36 LIG 0.16  C 
BRANCH 25 26
ATOM     26  CG  ASP G   2      39.319  -2.951  24.111  1.00103.24 LIG 0.17  C 
ATOM     27 OD1  ASP G   2      38.834  -3.520  25.108  1.00112.85 LIG-0.65  OA
ATOM     28 OD2  ASP G   2      39.583  -3.558  23.062  1.00105.87 LIG-0.65  OA
ENDBRANCH 25 26
ENDBRANCH 23 25
ENDBRANCH 21 23
ENDBRANCH 14 19
ENDBRANCH 12 14
ENDBRANCH 5 10
ENDBRANCH 1 5
BRANCH 3 29
ATOM     29  CA  PHE G   5      39.255   6.996  23.036  1.00 70.05 LIG 0.18  C 
BRANCH 29 30
ATOM     30  CB  PHE G   5      37.727   6.824  22.915  1.00 73.20 LIG 0.07  C 
BRANCH 30 31
ATOM     31  CG  PHE G   5      37.028   6.782  24.265  1.00 79.36 LIG-0.06  A 
ATOM     32  CD1 PHE G   5      37.393   5.805  25.225  1.00 85.64 LIG 0.01  A 
ATOM     33  CE1 PHE G   5      36.780   5.755  26.470  1.00 88.71 LIG 0.00  A 
ATOM     34  CZ  PHE G   5      35.790   6.692  26.780  1.00 96.11 LIG 0.00  A 
ATOM     35  CE2 PHE G   5      35.427   7.676  25.848  1.00 91.53 LIG 0.00  A 
ATOM     36  CD2 PHE G   5      36.042   7.721  24.600  1.00 81.01 LIG 0.01  A 
ENDBRANCH 30 31
ENDBRANCH 29 30
BRANCH 29 37
ATOM     37  C   PHE G   5      39.702   7.732  24.294  1.00 74.26 LIG 0.24  C 
ATOM     38  N   PRO G   6      39.485   9.066  24.331  1.00 79.01 LIG-0.34  N 
ATOM     39  CD  PRO G   6      38.984   9.867  23.182  1.00 76.17 LIG 0.13  C 
ATOM     40  CA  PRO G   6      40.022   9.914  25.406  1.00 78.34 LIG 0.18  C 
ATOM     41  CG  PRO G   6      38.858  11.240  23.745  1.00 78.03 LIG 0.02  C 
ATOM     42  CB  PRO G   6      39.947  11.319  24.782  1.00 82.73 LIG 0.04  C 
ATOM     43 O    PHE G   5      40.318   7.121  25.176  1.00 61.78 LIG-0.27  OA
BRANCH 40 44
ATOM     44  C   PRO G   6      39.257   9.889  26.749  1.00 77.34 LIG 0.24  C 
ATOM     45 O    PRO G   6      38.199   9.288  26.815  1.00 92.50 LIG-0.27  OA
ATOM     46  N   ALA G   7      39.791  10.537  27.795  1.00 74.20 LIG-0.35  N 
ATOM     47 H    ALA G   7      40.628  10.728  27.856  1.00 74.20 LIG 0.16  HD
BRANCH 46 48
ATOM     48  CA  ALA G   7      38.984  10.992  28.959  1.00 71.75 LIG 0.16  C 
ATOM     49  CB  ALA G   7      39.814  10.932  30.241  1.00 70.01 LIG 0.04  C 
BRANCH 48 50
ATOM     50  C   ALA G   7      38.472  12.430  28.719  1.00 69.94 LIG 0.22  C 
ATOM     51 O    ALA G   7      38.458  12.914  27.559  1.00 56.97 LIG-0.29  OA
ENDBRANCH 48 50
ENDBRANCH 46 48
ENDBRANCH 40 44
ENDBRANCH 29 37
ENDBRANCH 3 29
TORSDOF 18
ENDMDL
MODEL 127
USER: ADFR SOLUTION from run 62
USER: SCORE 14.145216 LL:  -5.168 LR: -10.083 RR:   0.000 FEB:  -4.714
USER: RMSD 10.382986
USER: SEED 61
USER: STATUS no improvement in best in 17 clusters for 5 generations
USER: GENES 20
USER: genes 0 Translation |==|  0.52071 0.37878 0.52130
USER: genes 1 Rotation |==|  0.93395 0.71027 0.55632 0.61959
USER: genes 2 Torsion [N]-C--CA-[N] |==|  0.52222
USER: genes 3 Torsion [C]-CA--CB-[CG] |==|  0.86519
USER: genes 4 Torsion [CA]-CB--CG-[CD1] |==|  0.48419
USER: genes 5 Torsion [C]-CA--N-[C] |==|  0.57340
USER: genes 6 Torsion [N]-C--CA-[N] |==|  0.94125
USER: genes 7 Torsion [C]-CA--CB-[CG1] |==|  0.96071
USER: genes 8 Torsion [CA]-CB--CG1-[CD1] |==|  0.40737
USER: genes 9 Torsion [C]-CA--N-[C] |==|  0.78715
USER: genes 10 Torsion [N]-C--CA-[N] |==|  0.82858
USER: genes 11 Torsion [C]-CA--CB-[CG] |==|  0.49441
USER: genes 12 Torsion [CA]-CB--CG-[OD1] |==|  0.60707
USER: genes 13 Torsion [C]-N--CA-[CB] |==|  0.16004
USER: genes 14 Torsion [N]-CA--CB-[CG] |==|  0.66383
USER: genes 15 Torsion [CA]-CB--CG-[CD1] |==|  0.83518
USER: genes 16 Torsion [N]-CA--C-[N] |==|  0.21051
USER: genes 17 Torsion [N]-CA--C-[O] |==|  0.36455
USER: genes 18 Torsion [C]-N--CA-[C] |==|  0.16276
USER: genes 19 Torsion [N]-CA--C-[O] |==|  0.44057
ROOT
ATOM      1  C   LEU G   4      40.301   2.817  23.037  1.00 61.38 LIG 0.24  C 
ATOM      2 O    LEU G   4      39.586   2.902  24.042  1.00 52.06 LIG-0.27  OA
ATOM      3  N   PHE G   5      40.480   3.782  22.153  1.00 60.80 LIG-0.35  N 
ATOM      4 H    PHE G   5      41.007   3.707  21.477  1.00 60.80 LIG 0.16  HD
ENDROOT
BRANCH 1 5
ATOM      5  CA  LEU G   4      41.027   1.548  22.701  1.00 58.56 LIG 0.18  C 
BRANCH 5 6
ATOM      6  CB  LEU G   4      40.702   1.198  21.252  1.00 61.47 LIG 0.04  C 
BRANCH 6 7
ATOM      7  CG  LEU G   4      39.227   1.250  20.917  1.00 62.80 LIG-0.02  C 
ATOM      8  CD1 LEU G   4      39.100   1.020  19.426  1.00 63.22 LIG 0.01  C 
ATOM      9  CD2 LEU G   4      38.503   0.184  21.739  1.00 64.86 LIG 0.01  C 
ENDBRANCH 6 7
ENDBRANCH 5 6
BRANCH 5 10
ATOM     10  N   LEU G   4      40.610   0.512  23.626  1.00 59.02 LIG-0.35  N 
ATOM     11 H    LEU G   4      39.825   0.617  23.958  1.00 59.02 LIG 0.16  HD
ATOM     12  C   ILE G   3      41.421  -0.509  23.907  1.00 70.10 LIG 0.24  C 
ATOM     13 O    ILE G   3      42.454  -0.744  23.242  1.00 64.55 LIG-0.27  OA
BRANCH 12 14
ATOM     14  CA  ILE G   3      41.012  -1.399  25.111  1.00 67.83 LIG 0.18  C 
BRANCH 14 15
ATOM     15  CB  ILE G   3      40.356  -2.730  24.626  1.00 66.94 LIG 0.01  C 
ATOM     16  CG2 ILE G   3      39.134  -3.067  25.481  1.00 67.41 LIG 0.01  C 
BRANCH 15 17
ATOM     17  CG1 ILE G   3      39.961  -2.678  23.124  1.00 59.79 LIG 0.00  C 
ATOM     18  CD1 ILE G   3      40.085  -4.000  22.414  1.00 60.74 LIG 0.01  C 
ENDBRANCH 15 17
ENDBRANCH 14 15
BRANCH 14 19
ATOM     19  N   ILE G   3      40.111  -0.665  25.986  1.00 79.60 LIG-0.34  N 
ATOM     20 H    ILE G   3      39.287  -0.898  25.906  1.00 79.60 LIG 0.16  HD
ATOM     21  C   ASP G   2      40.521   0.282  26.834  1.00 93.07 LIG 0.26  C 
ATOM     22 O    ASP G   2      41.708   0.555  27.020  1.00 81.24 LIG-0.27  OA
BRANCH 21 23
ATOM     23  CA  ASP G   2      39.437   1.065  27.586  1.00 93.30 LIG 0.41  C 
ATOM     24  N   ASP G   2      38.597   1.786  26.587  1.00 94.60 LIG 0.61  N 
BRANCH 23 25
ATOM     25  CB  ASP G   2      38.560   0.153  28.456  1.00 96.36 LIG 0.16  C 
BRANCH 25 26
ATOM     26  CG  ASP G   2      37.519   0.922  29.239  1.00103.24 LIG 0.17  C 
ATOM     27 OD1  ASP G   2      37.256   0.571  30.406  1.00112.85 LIG-0.65  OA
ATOM     28 OD2  ASP G   2      36.961   1.887  28.694  1.00105.87 LIG-0.65  OA
ENDBRANCH 25 26
ENDBRANCH 23 25
ENDBRANCH 21 23
ENDBRANCH 14 19
ENDBRANCH 12 14
ENDBRANCH 5 10
ENDBRANCH 1 5
BRANCH 3 29
ATOM     29  CA  PHE G   5      39.818   5.054  22.227  1.00 70.05 LIG 0.18  C 
BRANCH 29 30
ATOM     30  CB  PHE G   5      40.127   5.751  23.568  1.00 73.20 LIG 0.07  C 
BRANCH 30 31
ATOM     31  CG  PHE G   5      38.877   6.050  24.381  1.00 79.36 LIG-0.06  A 
ATOM     32  CD1 PHE G   5      37.859   6.876  23.842  1.00 85.64 LIG 0.01  A 
ATOM     33  CE1 PHE G   5      36.701   7.153  24.558  1.00 88.71 LIG 0.00  A 
ATOM     34  CZ  PHE G   5      36.538   6.598  25.830  1.00 96.11 LIG 0.00  A 
ATOM     35  CE2 PHE G   5      37.529   5.764  26.373  1.00 91.53 LIG 0.00  A 
ATOM     36  CD2 PHE G   5      38.688   5.491  25.653  1.00 81.01 LIG 0.01  A 
ENDBRANCH 30 31
ENDBRANCH 29 30
BRANCH 29 37
ATOM     37  C   PHE G   5      40.275   5.834  21.000  1.00 74.26 LIG 0.24  C 
ATOM     38  N   PRO G   6      39.726   5.484  19.815  1.00 79.01 LIG-0.34  N 
ATOM     39  CD  PRO G   6      38.835   4.309  19.616  1.00 76.17 LIG 0.13  C 
ATOM     40  CA  PRO G   6      40.207   6.036  18.539  1.00 78.34 LIG 0.18  C 
ATOM     41  CG  PRO G   6      38.456   4.400  18.179  1.00 78.03 LIG 0.02  C 
ATOM     42  CB  PRO G   6      39.655   5.027  17.517  1.00 82.73 LIG 0.04  C 
ATOM     43 O    PHE G   5      41.178   6.673  21.107  1.00 61.78 LIG-0.27  OA
BRANCH 40 44
ATOM     44  C   PRO G   6      39.729   7.463  18.184  1.00 77.34 LIG 0.24  C 
ATOM     45 O    PRO G   6      40.550   8.288  17.822  1.00 92.50 LIG-0.27  OA
ATOM     46  N   ALA G   7      38.421   7.740  18.292  1.00 74.20 LIG-0.35  N 
ATOM     47 H    ALA G   7      37.808   7.137  18.279  1.00 74.20 LIG 0.16  HD
BRANCH 46 48
ATOM     48  CA  ALA G   7      37.901   9.124  18.447  1.00 71.75 LIG 0.16  C 
ATOM     49  CB  ALA G   7      38.396   9.738  19.757  1.00 70.01 LIG 0.04  C 
BRANCH 48 50
ATOM     50  C   ALA G   7      38.344   9.994  17.248  1.00 69.94 LIG 0.22  C 
ATOM     51 O    ALA G   7      37.715  11.043  16.958  1.00 56.97 LIG-0.29  OA
ENDBRANCH 48 50
ENDBRANCH 46 48
ENDBRANCH 40 44
ENDBRANCH 29 37
ENDBRANCH 3 29
TORSDOF 18
ENDMDL
MODEL 128
USER: ADFR SOLUTION from run 107
USER: SCORE 15.144353 LL:  -5.715 LR: -10.075 RR:   0.000 FEB:  -4.705
USER: RMSD 11.059827
USER: SEED 106
USER: STATUS no improvement in best in 20 clusters for 5 generations
USER: GENES 20
USER: genes 0 Translation |==|  0.45139 0.60567 0.42531
USER: genes 1 Rotation |==|  0.43447 0.27793 0.91634 0.65183
USER: genes 2 Torsion [N]-C--CA-[N] |==|  0.98770
USER: genes 3 Torsion [C]-CA--CB-[CG] |==|  0.17901
USER: genes 4 Torsion [CA]-CB--CG-[CD1] |==|  0.33082
USER: genes 5 Torsion [C]-CA--N-[C] |==|  0.73936
USER: genes 6 Torsion [N]-C--CA-[N] |==|  0.49022
USER: genes 7 Torsion [C]-CA--CB-[CG1] |==|  0.79965
USER: genes 8 Torsion [CA]-CB--CG1-[CD1] |==|  0.75117
USER: genes 9 Torsion [C]-CA--N-[C] |==|  0.56967
USER: genes 10 Torsion [N]-C--CA-[N] |==|  0.48639
USER: genes 11 Torsion [C]-CA--CB-[CG] |==|  0.57905
USER: genes 12 Torsion [CA]-CB--CG-[OD1] |==|  0.65680
USER: genes 13 Torsion [C]-N--CA-[CB] |==|  0.86775
USER: genes 14 Torsion [N]-CA--CB-[CG] |==|  0.35512
USER: genes 15 Torsion [CA]-CB--CG-[CD1] |==|  0.74477
USER: genes 16 Torsion [N]-CA--C-[N] |==|  0.40528
USER: genes 17 Torsion [N]-CA--C-[O] |==|  0.70817
USER: genes 18 Torsion [C]-N--CA-[C] |==|  0.82304
USER: genes 19 Torsion [N]-CA--C-[O] |==|  0.94563
ROOT
ATOM      1  C   LEU G   4      39.157   9.113  21.454  1.00 61.38 LIG 0.24  C 
ATOM      2 O    LEU G   4      40.036   9.657  20.776  1.00 52.06 LIG-0.27  OA
ATOM      3  N   PHE G   5      38.548   9.666  22.488  1.00 60.80 LIG-0.35  N 
ATOM      4 H    PHE G   5      37.918   9.277  22.925  1.00 60.80 LIG 0.16  HD
ENDROOT
BRANCH 1 5
ATOM      5  CA  LEU G   4      38.713   7.708  21.173  1.00 58.56 LIG 0.18  C 
BRANCH 5 6
ATOM      6  CB  LEU G   4      38.082   7.689  19.784  1.00 61.47 LIG 0.04  C 
BRANCH 6 7
ATOM      7  CG  LEU G   4      39.043   8.014  18.662  1.00 62.80 LIG-0.02  C 
ATOM      8  CD1 LEU G   4      39.089   6.805  17.751  1.00 63.22 LIG 0.01  C 
ATOM      9  CD2 LEU G   4      38.548   9.270  17.945  1.00 64.86 LIG 0.01  C 
ENDBRANCH 6 7
ENDBRANCH 5 6
BRANCH 5 10
ATOM     10  N   LEU G   4      37.784   7.296  22.208  1.00 59.02 LIG-0.35  N 
ATOM     11 H    LEU G   4      36.964   7.511  22.065  1.00 59.02 LIG 0.16  HD
ATOM     12  C   ILE G   3      38.217   6.634  23.281  1.00 70.10 LIG 0.24  C 
ATOM     13 O    ILE G   3      39.368   6.149  23.347  1.00 64.55 LIG-0.27  OA
BRANCH 12 14
ATOM     14  CA  ILE G   3      37.210   6.494  24.454  1.00 67.83 LIG 0.18  C 
BRANCH 14 15
ATOM     15  CB  ILE G   3      36.784   7.894  24.997  1.00 66.94 LIG 0.01  C 
ATOM     16  CG2 ILE G   3      35.533   7.773  25.867  1.00 67.41 LIG 0.01  C 
BRANCH 15 17
ATOM     17  CG1 ILE G   3      37.925   8.588  25.793  1.00 59.79 LIG 0.00  C 
ATOM     18  CD1 ILE G   3      37.926   8.265  27.264  1.00 60.74 LIG 0.01  C 
ENDBRANCH 15 17
ENDBRANCH 14 15
BRANCH 14 19
ATOM     19  N   ILE G   3      37.793   5.682  25.512  1.00 79.60 LIG-0.34  N 
ATOM     20 H    ILE G   3      38.653   5.690  25.518  1.00 79.60 LIG 0.16  HD
ATOM     21  C   ASP G   2      37.064   4.990  26.392  1.00 93.07 LIG 0.26  C 
ATOM     22 O    ASP G   2      35.835   5.049  26.446  1.00 81.24 LIG-0.27  OA
BRANCH 21 23
ATOM     23  CA  ASP G   2      37.822   4.070  27.358  1.00 93.30 LIG 0.41  C 
ATOM     24  N   ASP G   2      36.844   3.491  28.322  1.00 94.60 LIG 0.61  N 
BRANCH 23 25
ATOM     25  CB  ASP G   2      38.571   2.948  26.623  1.00 96.36 LIG 0.16  C 
BRANCH 25 26
ATOM     26  CG  ASP G   2      38.728   1.703  27.470  1.00103.24 LIG 0.17  C 
ATOM     27 OD1  ASP G   2      39.872   1.251  27.677  1.00112.85 LIG-0.65  OA
ATOM     28 OD2  ASP G   2      37.709   1.174  27.939  1.00105.87 LIG-0.65  OA
ENDBRANCH 25 26
ENDBRANCH 23 25
ENDBRANCH 21 23
ENDBRANCH 14 19
ENDBRANCH 12 14
ENDBRANCH 5 10
ENDBRANCH 1 5
BRANCH 3 29
ATOM     29  CA  PHE G   5      38.872  10.972  22.989  1.00 70.05 LIG 0.18  C 
BRANCH 29 30
ATOM     30  CB  PHE G   5      40.398  11.131  23.145  1.00 73.20 LIG 0.07  C 
BRANCH 30 31
ATOM     31  CG  PHE G   5      40.937  12.376  22.456  1.00 79.36 LIG-0.06  A 
ATOM     32  CD1 PHE G   5      41.399  12.305  21.118  1.00 85.64 LIG 0.01  A 
ATOM     33  CE1 PHE G   5      41.882  13.429  20.462  1.00 88.71 LIG 0.00  A 
ATOM     34  CZ  PHE G   5      41.903  14.654  21.135  1.00 96.11 LIG 0.00  A 
ATOM     35  CE2 PHE G   5      41.434  14.747  22.455  1.00 91.53 LIG 0.00  A 
ATOM     36  CD2 PHE G   5      40.953  13.616  23.109  1.00 81.01 LIG 0.01  A 
ENDBRANCH 30 31
ENDBRANCH 29 30
BRANCH 29 37
ATOM     37  C   PHE G   5      38.239  11.960  22.016  1.00 74.26 LIG 0.24  C 
ATOM     38  N   PRO G   6      37.770  13.116  22.538  1.00 79.01 LIG-0.34  N 
ATOM     39  CD  PRO G   6      37.700  13.412  23.994  1.00 76.17 LIG 0.13  C 
ATOM     40  CA  PRO G   6      36.986  14.071  21.740  1.00 78.34 LIG 0.18  C 
ATOM     41  CG  PRO G   6      37.183  14.808  24.040  1.00 78.03 LIG 0.02  C 
ATOM     42  CB  PRO G   6      36.298  14.917  22.826  1.00 82.73 LIG 0.04  C 
ATOM     43 O    PHE G   5      38.090  11.643  20.829  1.00 61.78 LIG-0.27  OA
BRANCH 40 44
ATOM     44  C   PRO G   6      37.783  14.985  20.782  1.00 77.34 LIG 0.24  C 
ATOM     45 O    PRO G   6      37.946  16.155  21.081  1.00 92.50 LIG-0.27  OA
ATOM     46  N   ALA G   7      38.266  14.451  19.651  1.00 74.20 LIG-0.35  N 
ATOM     47 H    ALA G   7      38.401  13.608  19.546  1.00 74.20 LIG 0.16  HD
BRANCH 46 48
ATOM     48  CA  ALA G   7      38.617  15.269  18.459  1.00 71.75 LIG 0.16  C 
ATOM     49  CB  ALA G   7      39.268  14.397  17.385  1.00 70.01 LIG 0.04  C 
BRANCH 48 50
ATOM     50  C   ALA G   7      37.351  15.955  17.896  1.00 69.94 LIG 0.22  C 
ATOM     51 O    ALA G   7      36.209  15.516  18.186  1.00 56.97 LIG-0.29  OA
ENDBRANCH 48 50
ENDBRANCH 46 48
ENDBRANCH 40 44
ENDBRANCH 29 37
ENDBRANCH 3 29
TORSDOF 18
ENDMDL
MODEL 129
USER: ADFR SOLUTION from run 166
USER: SCORE 14.837333 LL:  -5.753 LR: -10.056 RR:   0.000 FEB:  -4.687
USER: RMSD 4.813121
USER: SEED 165
USER: STATUS no improvement in best in 37 clusters for 5 generations
USER: GENES 20
USER: genes 0 Translation |==|  0.45022 0.44998 0.65989
USER: genes 1 Rotation |==|  0.21371 0.86954 0.65495 0.58641
USER: genes 2 Torsion [N]-C--CA-[N] |==|  0.03333
USER: genes 3 Torsion [C]-CA--CB-[CG] |==|  0.42362
USER: genes 4 Torsion [CA]-CB--CG-[CD1] |==|  0.90407
USER: genes 5 Torsion [C]-CA--N-[C] |==|  0.72592
USER: genes 6 Torsion [N]-C--CA-[N] |==|  0.47984
USER: genes 7 Torsion [C]-CA--CB-[CG1] |==|  0.84636
USER: genes 8 Torsion [CA]-CB--CG1-[CD1] |==|  0.73234
USER: genes 9 Torsion [C]-CA--N-[C] |==|  0.64869
USER: genes 10 Torsion [N]-C--CA-[N] |==|  0.15905
USER: genes 11 Torsion [C]-CA--CB-[CG] |==|  0.80088
USER: genes 12 Torsion [CA]-CB--CG-[OD1] |==|  0.00841
USER: genes 13 Torsion [C]-N--CA-[CB] |==|  0.88329
USER: genes 14 Torsion [N]-CA--CB-[CG] |==|  0.36723
USER: genes 15 Torsion [CA]-CB--CG-[CD1] |==|  0.70929
USER: genes 16 Torsion [N]-CA--C-[N] |==|  0.29583
USER: genes 17 Torsion [N]-CA--C-[O] |==|  0.70898
USER: genes 18 Torsion [C]-N--CA-[C] |==|  0.51776
USER: genes 19 Torsion [N]-CA--C-[O] |==|  0.98201
ROOT
ATOM      1  C   LEU G   4      39.138   4.793  25.324  1.00 61.38 LIG 0.24  C 
ATOM      2 O    LEU G   4      39.379   4.303  26.433  1.00 52.06 LIG-0.27  OA
ATOM      3  N   PHE G   5      39.641   4.362  24.181  1.00 60.80 LIG-0.35  N 
ATOM      4 H    PHE G   5      39.434   4.703  23.419  1.00 60.80 LIG 0.16  HD
ENDROOT
BRANCH 1 5
ATOM      5  CA  LEU G   4      38.246   5.990  25.177  1.00 58.56 LIG 0.18  C 
BRANCH 5 6
ATOM      6  CB  LEU G   4      36.990   5.737  26.005  1.00 61.47 LIG 0.04  C 
BRANCH 6 7
ATOM      7  CG  LEU G   4      36.316   6.994  26.509  1.00 62.80 LIG-0.02  C 
ATOM      8  CD1 LEU G   4      37.410   7.997  26.810  1.00 63.22 LIG 0.01  C 
ATOM      9  CD2 LEU G   4      35.345   7.490  25.438  1.00 64.86 LIG 0.01  C 
ENDBRANCH 6 7
ENDBRANCH 5 6
BRANCH 5 10
ATOM     10  N   LEU G   4      37.951   6.185  23.771  1.00 59.02 LIG-0.35  N 
ATOM     11 H    LEU G   4      37.323   5.686  23.460  1.00 59.02 LIG 0.16  HD
ATOM     12  C   ILE G   3      38.630   7.081  23.055  1.00 70.10 LIG 0.24  C 
ATOM     13 O    ILE G   3      39.375   7.935  23.587  1.00 64.55 LIG-0.27  OA
BRANCH 12 14
ATOM     14  CA  ILE G   3      38.447   7.013  21.515  1.00 67.83 LIG 0.18  C 
BRANCH 14 15
ATOM     15  CB  ILE G   3      38.995   5.666  20.945  1.00 66.94 LIG 0.01  C 
ATOM     16  CG2 ILE G   3      38.837   5.625  19.425  1.00 67.41 LIG 0.01  C 
BRANCH 15 17
ATOM     17  CG1 ILE G   3      40.478   5.422  21.337  1.00 59.79 LIG 0.00  C 
ATOM     18  CD1 ILE G   3      41.465   5.841  20.278  1.00 60.74 LIG 0.01  C 
ENDBRANCH 15 17
ENDBRANCH 14 15
BRANCH 14 19
ATOM     19  N   ILE G   3      39.105   8.148  20.888  1.00 79.60 LIG-0.34  N 
ATOM     20 H    ILE G   3      39.931   8.234  21.111  1.00 79.60 LIG 0.16  HD
ATOM     21  C   ASP G   2      38.488   8.980  20.044  1.00 93.07 LIG 0.26  C 
ATOM     22 O    ASP G   2      37.334   8.808  19.648  1.00 81.24 LIG-0.27  OA
BRANCH 21 23
ATOM     23  CA  ASP G   2      39.274  10.211  19.575  1.00 93.30 LIG 0.41  C 
ATOM     24  N   ASP G   2      40.537   9.748  18.932  1.00 94.60 LIG 0.61  N 
BRANCH 23 25
ATOM     25  CB  ASP G   2      38.467  11.076  18.595  1.00 96.36 LIG 0.16  C 
BRANCH 25 26
ATOM     26  CG  ASP G   2      38.312  10.426  17.237  1.00103.24 LIG 0.17  C 
ATOM     27 OD1  ASP G   2      38.774   9.282  17.057  1.00112.85 LIG-0.65  OA
ATOM     28 OD2  ASP G   2      37.722  11.053  16.345  1.00105.87 LIG-0.65  OA
ENDBRANCH 25 26
ENDBRANCH 23 25
ENDBRANCH 21 23
ENDBRANCH 14 19
ENDBRANCH 12 14
ENDBRANCH 5 10
ENDBRANCH 1 5
BRANCH 3 29
ATOM     29  CA  PHE G   5      40.583   3.283  24.090  1.00 70.05 LIG 0.18  C 
BRANCH 29 30
ATOM     30  CB  PHE G   5      41.643   3.391  25.206  1.00 73.20 LIG 0.07  C 
BRANCH 30 31
ATOM     31  CG  PHE G   5      41.867   2.076  25.938  1.00 79.36 LIG-0.06  A 
ATOM     32  CD1 PHE G   5      41.336   1.886  27.238  1.00 85.64 LIG 0.01  A 
ATOM     33  CE1 PHE G   5      41.514   0.690  27.921  1.00 88.71 LIG 0.00  A 
ATOM     34  CZ  PHE G   5      42.225  -0.346  27.307  1.00 96.11 LIG 0.00  A 
ATOM     35  CE2 PHE G   5      42.744  -0.181  26.013  1.00 91.53 LIG 0.00  A 
ATOM     36  CD2 PHE G   5      42.565   1.020  25.334  1.00 81.01 LIG 0.01  A 
ENDBRANCH 30 31
ENDBRANCH 29 30
BRANCH 29 37
ATOM     37  C   PHE G   5      39.756   2.003  24.137  1.00 74.26 LIG 0.24  C 
ATOM     38  N   PRO G   6      39.620   1.321  22.978  1.00 79.01 LIG-0.34  N 
ATOM     39  CD  PRO G   6      40.091   1.811  21.655  1.00 76.17 LIG 0.13  C 
ATOM     40  CA  PRO G   6      38.709   0.173  22.851  1.00 78.34 LIG 0.18  C 
ATOM     41  CG  PRO G   6      39.769   0.687  20.733  1.00 78.03 LIG 0.02  C 
ATOM     42  CB  PRO G   6      38.533   0.063  21.326  1.00 82.73 LIG 0.04  C 
ATOM     43 O    PHE G   5      39.173   1.688  25.182  1.00 61.78 LIG-0.27  OA
BRANCH 40 44
ATOM     44  C   PRO G   6      39.213  -1.171  23.424  1.00 77.34 LIG 0.24  C 
ATOM     45 O    PRO G   6      39.594  -2.036  22.655  1.00 92.50 LIG-0.27  OA
ATOM     46  N   ALA G   7      39.209  -1.334  24.755  1.00 74.20 LIG-0.35  N 
ATOM     47 H    ALA G   7      39.209  -0.678  25.312  1.00 74.20 LIG 0.16  HD
BRANCH 46 48
ATOM     48  CA  ALA G   7      39.206  -2.673  25.403  1.00 71.75 LIG 0.16  C 
ATOM     49  CB  ALA G   7      40.498  -3.424  25.084  1.00 70.01 LIG 0.04  C 
BRANCH 48 50
ATOM     50  C   ALA G   7      39.040  -2.521  26.932  1.00 69.94 LIG 0.22  C 
ATOM     51 O    ALA G   7      39.054  -1.381  27.463  1.00 56.97 LIG-0.29  OA
ENDBRANCH 48 50
ENDBRANCH 46 48
ENDBRANCH 40 44
ENDBRANCH 29 37
ENDBRANCH 3 29
TORSDOF 18
ENDMDL
MODEL 130
USER: ADFR SOLUTION from run 93
USER: SCORE 15.750606 LL:  -6.028 LR: -10.063 RR:   0.000 FEB:  -4.693
USER: RMSD 9.866662
USER: SEED 92
USER: STATUS searching
USER: GENES 20
USER: genes 0 Translation |==|  0.48122 0.34038 0.70835
USER: genes 1 Rotation |==|  0.28902 0.18683 0.82299 0.55554
USER: genes 2 Torsion [N]-C--CA-[N] |==|  0.30709
USER: genes 3 Torsion [C]-CA--CB-[CG] |==|  0.38962
USER: genes 4 Torsion [CA]-CB--CG-[CD1] |==|  0.75798
USER: genes 5 Torsion [C]-CA--N-[C] |==|  0.69856
USER: genes 6 Torsion [N]-C--CA-[N] |==|  0.96971
USER: genes 7 Torsion [C]-CA--CB-[CG1] |==|  0.80066
USER: genes 8 Torsion [CA]-CB--CG1-[CD1] |==|  0.24879
USER: genes 9 Torsion [C]-CA--N-[C] |==|  0.81094
USER: genes 10 Torsion [N]-C--CA-[N] |==|  0.57681
USER: genes 11 Torsion [C]-CA--CB-[CG] |==|  0.81669
USER: genes 12 Torsion [CA]-CB--CG-[OD1] |==|  0.81251
USER: genes 13 Torsion [C]-N--CA-[CB] |==|  0.85312
USER: genes 14 Torsion [N]-CA--CB-[CG] |==|  0.83062
USER: genes 15 Torsion [CA]-CB--CG-[CD1] |==|  0.29292
USER: genes 16 Torsion [N]-CA--C-[N] |==|  0.34723
USER: genes 17 Torsion [N]-CA--C-[O] |==|  0.30222
USER: genes 18 Torsion [C]-N--CA-[C] |==|  0.20491
USER: genes 19 Torsion [N]-CA--C-[O] |==|  0.28175
ROOT
ATOM      1  C   LEU G   4      39.649   1.752  26.124  1.00 61.38 LIG 0.24  C 
ATOM      2 O    LEU G   4      40.684   2.338  26.459  1.00 52.06 LIG-0.27  OA
ATOM      3  N   PHE G   5      38.426   2.125  26.457  1.00 60.80 LIG-0.35  N 
ATOM      4 H    PHE G   5      37.720   1.716  26.186  1.00 60.80 LIG 0.16  HD
ENDROOT
BRANCH 1 5
ATOM      5  CA  LEU G   4      39.694   0.494  25.308  1.00 58.56 LIG 0.18  C 
BRANCH 5 6
ATOM      6  CB  LEU G   4      40.661  -0.468  25.991  1.00 61.47 LIG 0.04  C 
BRANCH 6 7
ATOM      7  CG  LEU G   4      40.207  -1.912  25.986  1.00 62.80 LIG-0.02  C 
ATOM      8  CD1 LEU G   4      39.333  -2.108  27.207  1.00 63.22 LIG 0.01  C 
ATOM      9  CD2 LEU G   4      39.461  -2.183  24.681  1.00 64.86 LIG 0.01  C 
ENDBRANCH 6 7
ENDBRANCH 5 6
BRANCH 5 10
ATOM     10  N   LEU G   4      40.108   0.826  23.958  1.00 59.02 LIG-0.35  N 
ATOM     11 H    LEU G   4      40.935   1.048  23.877  1.00 59.02 LIG 0.16  HD
ATOM     12  C   ILE G   3      39.235   0.775  22.951  1.00 70.10 LIG 0.24  C 
ATOM     13 O    ILE G   3      38.111   0.239  23.069  1.00 64.55 LIG-0.27  OA
BRANCH 12 14
ATOM     14  CA  ILE G   3      39.690   1.420  21.614  1.00 67.83 LIG 0.18  C 
BRANCH 14 15
ATOM     15  CB  ILE G   3      39.895   0.334  20.511  1.00 66.94 LIG 0.01  C 
ATOM     16  CG2 ILE G   3      39.972   0.984  19.129  1.00 67.41 LIG 0.01  C 
BRANCH 15 17
ATOM     17  CG1 ILE G   3      41.159  -0.533  20.766  1.00 59.79 LIG 0.00  C 
ATOM     18  CD1 ILE G   3      40.901  -1.755  21.607  1.00 60.74 LIG 0.01  C 
ENDBRANCH 15 17
ENDBRANCH 14 15
BRANCH 14 19
ATOM     19  N   ILE G   3      40.911   2.184  21.824  1.00 79.60 LIG-0.34  N 
ATOM     20 H    ILE G   3      41.600   1.845  21.438  1.00 79.60 LIG 0.16  HD
ATOM     21  C   ASP G   2      40.958   3.306  22.547  1.00 93.07 LIG 0.26  C 
ATOM     22 O    ASP G   2      39.959   3.846  23.024  1.00 81.24 LIG-0.27  OA
BRANCH 21 23
ATOM     23  CA  ASP G   2      42.342   3.920  22.795  1.00 93.30 LIG 0.41  C 
ATOM     24  N   ASP G   2      42.299   4.678  24.078  1.00 94.60 LIG 0.61  N 
BRANCH 23 25
ATOM     25  CB  ASP G   2      43.449   2.856  22.846  1.00 96.36 LIG 0.16  C 
BRANCH 25 26
ATOM     26  CG  ASP G   2      43.308   1.927  24.033  1.00103.24 LIG 0.17  C 
ATOM     27 OD1  ASP G   2      43.481   2.381  25.181  1.00112.85 LIG-0.65  OA
ATOM     28 OD2  ASP G   2      43.018   0.739  23.824  1.00105.87 LIG-0.65  OA
ENDBRANCH 25 26
ENDBRANCH 23 25
ENDBRANCH 21 23
ENDBRANCH 14 19
ENDBRANCH 12 14
ENDBRANCH 5 10
ENDBRANCH 1 5
BRANCH 3 29
ATOM     29  CA  PHE G   5      38.148   3.250  27.303  1.00 70.05 LIG 0.18  C 
BRANCH 29 30
ATOM     30  CB  PHE G   5      38.939   3.147  28.624  1.00 73.20 LIG 0.07  C 
BRANCH 30 31
ATOM     31  CG  PHE G   5      38.585   1.907  29.430  1.00 79.36 LIG-0.06  A 
ATOM     32  CD1 PHE G   5      39.482   0.811  29.482  1.00 85.64 LIG 0.01  A 
ATOM     33  CE1 PHE G   5      39.188  -0.326  30.223  1.00 88.71 LIG 0.00  A 
ATOM     34  CZ  PHE G   5      37.987  -0.383  30.936  1.00 96.11 LIG 0.00  A 
ATOM     35  CE2 PHE G   5      37.094   0.700  30.910  1.00 91.53 LIG 0.00  A 
ATOM     36  CD2 PHE G   5      37.392   1.837  30.164  1.00 81.01 LIG 0.01  A 
ENDBRANCH 30 31
ENDBRANCH 29 30
BRANCH 29 37
ATOM     37  C   PHE G   5      38.477   4.486  26.474  1.00 74.26 LIG 0.24  C 
ATOM     38  N   PRO G   6      37.498   5.409  26.338  1.00 79.01 LIG-0.34  N 
ATOM     39  CD  PRO G   6      36.099   5.226  26.812  1.00 76.17 LIG 0.13  C 
ATOM     40  CA  PRO G   6      37.628   6.555  25.426  1.00 78.34 LIG 0.18  C 
ATOM     41  CG  PRO G   6      35.450   6.526  26.488  1.00 78.03 LIG 0.02  C 
ATOM     42  CB  PRO G   6      36.166   7.001  25.251  1.00 82.73 LIG 0.04  C 
ATOM     43 O    PHE G   5      39.565   4.561  25.889  1.00 61.78 LIG-0.27  OA
BRANCH 40 44
ATOM     44  C   PRO G   6      38.486   7.739  25.927  1.00 77.34 LIG 0.24  C 
ATOM     45 O    PRO G   6      39.573   7.940  25.414  1.00 92.50 LIG-0.27  OA
ATOM     46  N   ALA G   7      37.998   8.503  26.916  1.00 74.20 LIG-0.35  N 
ATOM     47 H    ALA G   7      37.160   8.556  27.102  1.00 74.20 LIG 0.16  HD
BRANCH 46 48
ATOM     48  CA  ALA G   7      38.864   9.337  27.792  1.00 71.75 LIG 0.16  C 
ATOM     49  CB  ALA G   7      40.045   8.517  28.311  1.00 70.01 LIG 0.04  C 
BRANCH 48 50
ATOM     50  C   ALA G   7      39.371  10.572  27.014  1.00 69.94 LIG 0.22  C 
ATOM     51 O    ALA G   7      38.834  11.696  27.188  1.00 56.97 LIG-0.29  OA
ENDBRANCH 48 50
ENDBRANCH 46 48
ENDBRANCH 40 44
ENDBRANCH 29 37
ENDBRANCH 3 29
TORSDOF 18
ENDMDL
MODEL 131
USER: ADFR SOLUTION from run 48
USER: SCORE 14.878386 LL:  -5.531 LR: -10.048 RR:   0.000 FEB:  -4.679
USER: RMSD 5.648537
USER: SEED 47
USER: STATUS no improvement in best in 23 clusters for 5 generations
USER: GENES 20
USER: genes 0 Translation |==|  0.45482 0.50150 0.58680
USER: genes 1 Rotation |==|  0.78926 0.11705 0.35974 0.50222
USER: genes 2 Torsion [N]-C--CA-[N] |==|  0.95125
USER: genes 3 Torsion [C]-CA--CB-[CG] |==|  0.32770
USER: genes 4 Torsion [CA]-CB--CG-[CD1] |==|  0.46956
USER: genes 5 Torsion [C]-CA--N-[C] |==|  0.80885
USER: genes 6 Torsion [N]-C--CA-[N] |==|  0.88651
USER: genes 7 Torsion [C]-CA--CB-[CG1] |==|  0.49315
USER: genes 8 Torsion [CA]-CB--CG1-[CD1] |==|  0.65474
USER: genes 9 Torsion [C]-CA--N-[C] |==|  0.60269
USER: genes 10 Torsion [N]-C--CA-[N] |==|  0.47970
USER: genes 11 Torsion [C]-CA--CB-[CG] |==|  0.61460
USER: genes 12 Torsion [CA]-CB--CG-[OD1] |==|  0.67451
USER: genes 13 Torsion [C]-N--CA-[CB] |==|  0.85088
USER: genes 14 Torsion [N]-CA--CB-[CG] |==|  0.35254
USER: genes 15 Torsion [CA]-CB--CG-[CD1] |==|  0.72286
USER: genes 16 Torsion [N]-CA--C-[N] |==|  0.37200
USER: genes 17 Torsion [N]-CA--C-[O] |==|  0.82809
USER: genes 18 Torsion [C]-N--CA-[C] |==|  0.53832
USER: genes 19 Torsion [N]-CA--C-[O] |==|  0.99923
ROOT
ATOM      1  C   LEU G   4      39.214   6.223  24.118  1.00 61.38 LIG 0.24  C 
ATOM      2 O    LEU G   4      39.744   6.061  25.223  1.00 52.06 LIG-0.27  OA
ATOM      3  N   PHE G   5      39.497   5.523  23.034  1.00 60.80 LIG-0.35  N 
ATOM      4 H    PHE G   5      39.092   5.636  22.283  1.00 60.80 LIG 0.16  HD
ENDROOT
BRANCH 1 5
ATOM      5  CA  LEU G   4      38.188   7.294  23.894  1.00 58.56 LIG 0.18  C 
BRANCH 5 6
ATOM      6  CB  LEU G   4      36.872   6.811  24.496  1.00 61.47 LIG 0.04  C 
BRANCH 6 7
ATOM      7  CG  LEU G   4      36.351   7.675  25.623  1.00 62.80 LIG-0.02  C 
ATOM      8  CD1 LEU G   4      34.935   7.224  25.912  1.00 63.22 LIG 0.01  C 
ATOM      9  CD2 LEU G   4      37.276   7.514  26.829  1.00 64.86 LIG 0.01  C 
ENDBRANCH 6 7
ENDBRANCH 5 6
BRANCH 5 10
ATOM     10  N   LEU G   4      38.083   7.550  22.470  1.00 59.02 LIG-0.35  N 
ATOM     11 H    LEU G   4      37.342   7.303  22.111  1.00 59.02 LIG 0.16  HD
ATOM     12  C   ILE G   3      39.087   8.128  21.810  1.00 70.10 LIG 0.24  C 
ATOM     13 O    ILE G   3      40.048   8.670  22.399  1.00 64.55 LIG-0.27  OA
BRANCH 12 14
ATOM     14  CA  ILE G   3      39.000   8.096  20.261  1.00 67.83 LIG 0.18  C 
BRANCH 14 15
ATOM     15  CB  ILE G   3      38.083   9.241  19.727  1.00 66.94 LIG 0.01  C 
ATOM     16  CG2 ILE G   3      38.550  10.595  20.265  1.00 67.41 LIG 0.01  C 
BRANCH 15 17
ATOM     17  CG1 ILE G   3      38.025   9.273  18.174  1.00 59.79 LIG 0.00  C 
ATOM     18  CD1 ILE G   3      38.415  10.599  17.577  1.00 60.74 LIG 0.01  C 
ENDBRANCH 15 17
ENDBRANCH 14 15
BRANCH 14 19
ATOM     19  N   ILE G   3      38.517   6.796  19.820  1.00 79.60 LIG-0.34  N 
ATOM     20 H    ILE G   3      37.919   6.458  20.336  1.00 79.60 LIG 0.16  HD
ATOM     21  C   ASP G   2      38.960   6.185  18.718  1.00 93.07 LIG 0.26  C 
ATOM     22 O    ASP G   2      39.747   6.705  17.925  1.00 81.24 LIG-0.27  OA
BRANCH 21 23
ATOM     23  CA  ASP G   2      38.459   4.757  18.461  1.00 93.30 LIG 0.41  C 
ATOM     24  N   ASP G   2      38.922   4.331  17.110  1.00 94.60 LIG 0.61  N 
BRANCH 23 25
ATOM     25  CB  ASP G   2      38.955   3.768  19.527  1.00 96.36 LIG 0.16  C 
BRANCH 25 26
ATOM     26  CG  ASP G   2      39.383   2.443  18.936  1.00103.24 LIG 0.17  C 
ATOM     27 OD1  ASP G   2      38.768   1.408  19.259  1.00112.85 LIG-0.65  OA
ATOM     28 OD2  ASP G   2      40.334   2.430  18.139  1.00105.87 LIG-0.65  OA
ENDBRANCH 25 26
ENDBRANCH 23 25
ENDBRANCH 21 23
ENDBRANCH 14 19
ENDBRANCH 12 14
ENDBRANCH 5 10
ENDBRANCH 1 5
BRANCH 3 29
ATOM     29  CA  PHE G   5      40.506   4.503  22.994  1.00 70.05 LIG 0.18  C 
BRANCH 29 30
ATOM     30  CB  PHE G   5      41.856   5.055  23.496  1.00 73.20 LIG 0.07  C 
BRANCH 30 31
ATOM     31  CG  PHE G   5      42.464   4.210  24.606  1.00 79.36 LIG-0.06  A 
ATOM     32  CD1 PHE G   5      42.332   4.611  25.959  1.00 85.64 LIG 0.01  A 
ATOM     33  CE1 PHE G   5      42.864   3.851  26.992  1.00 88.71 LIG 0.00  A 
ATOM     34  CZ  PHE G   5      43.536   2.663  26.686  1.00 96.11 LIG 0.00  A 
ATOM     35  CE2 PHE G   5      43.662   2.242  25.353  1.00 91.53 LIG 0.00  A 
ATOM     36  CD2 PHE G   5      43.129   3.009  24.322  1.00 81.01 LIG 0.01  A 
ENDBRANCH 30 31
ENDBRANCH 29 30
BRANCH 29 37
ATOM     37  C   PHE G   5      39.960   3.344  23.819  1.00 74.26 LIG 0.24  C 
ATOM     38  N   PRO G   6      40.072   2.107  23.284  1.00 79.01 LIG-0.34  N 
ATOM     39  CD  PRO G   6      40.549   1.830  21.903  1.00 76.17 LIG 0.13  C 
ATOM     40  CA  PRO G   6      39.433   0.932  23.896  1.00 78.34 LIG 0.18  C 
ATOM     41  CG  PRO G   6      40.549   0.343  21.828  1.00 78.03 LIG 0.02  C 
ATOM     42  CB  PRO G   6      39.420  -0.076  22.734  1.00 82.73 LIG 0.04  C 
ATOM     43 O    PHE G   5      39.363   3.573  24.878  1.00 61.78 LIG-0.27  OA
BRANCH 40 44
ATOM     44  C   PRO G   6      40.150   0.319  25.121  1.00 77.34 LIG 0.24  C 
ATOM     45 O    PRO G   6      41.274  -0.130  24.984  1.00 92.50 LIG-0.27  OA
ATOM     46  N   ALA G   7      39.500   0.303  26.294  1.00 74.20 LIG-0.35  N 
ATOM     47 H    ALA G   7      38.849   0.833  26.481  1.00 74.20 LIG 0.16  HD
BRANCH 46 48
ATOM     48  CA  ALA G   7      39.844  -0.639  27.393  1.00 71.75 LIG 0.16  C 
ATOM     49  CB  ALA G   7      41.173  -0.246  28.037  1.00 70.01 LIG 0.04  C 
BRANCH 48 50
ATOM     50  C   ALA G   7      38.719  -0.649  28.452  1.00 69.94 LIG 0.22  C 
ATOM     51 O    ALA G   7      37.704   0.079  28.309  1.00 56.97 LIG-0.29  OA
ENDBRANCH 48 50
ENDBRANCH 46 48
ENDBRANCH 40 44
ENDBRANCH 29 37
ENDBRANCH 3 29
TORSDOF 18
ENDMDL
MODEL 132
USER: ADFR SOLUTION from run 121
USER: SCORE 15.386222 LL:  -5.753 LR: -10.043 RR:   0.000 FEB:  -4.673
USER: RMSD 6.565308
USER: SEED 120
USER: STATUS no improvement in best in 23 clusters for 5 generations
USER: GENES 20
USER: genes 0 Translation |==|  0.40906 0.59524 0.37396
USER: genes 1 Rotation |==|  0.28913 0.55897 0.39388 0.93680
USER: genes 2 Torsion [N]-C--CA-[N] |==|  0.95593
USER: genes 3 Torsion [C]-CA--CB-[CG] |==|  0.22136
USER: genes 4 Torsion [CA]-CB--CG-[CD1] |==|  0.35248
USER: genes 5 Torsion [C]-CA--N-[C] |==|  0.73992
USER: genes 6 Torsion [N]-C--CA-[N] |==|  0.41417
USER: genes 7 Torsion [C]-CA--CB-[CG1] |==|  0.56593
USER: genes 8 Torsion [CA]-CB--CG1-[CD1] |==|  0.45270
USER: genes 9 Torsion [C]-CA--N-[C] |==|  0.74930
USER: genes 10 Torsion [N]-C--CA-[N] |==|  0.85859
USER: genes 11 Torsion [C]-CA--CB-[CG] |==|  0.76250
USER: genes 12 Torsion [CA]-CB--CG-[OD1] |==|  0.31344
USER: genes 13 Torsion [C]-N--CA-[CB] |==|  0.83333
USER: genes 14 Torsion [N]-CA--CB-[CG] |==|  0.74230
USER: genes 15 Torsion [CA]-CB--CG-[CD1] |==|  0.32755
USER: genes 16 Torsion [N]-CA--C-[N] |==|  0.45172
USER: genes 17 Torsion [N]-CA--C-[O] |==|  0.63399
USER: genes 18 Torsion [C]-N--CA-[C] |==|  0.67246
USER: genes 19 Torsion [N]-CA--C-[O] |==|  0.92795
ROOT
ATOM      1  C   LEU G   4      38.458   8.824  20.606  1.00 61.38 LIG 0.24  C 
ATOM      2 O    LEU G   4      37.664   8.188  19.905  1.00 52.06 LIG-0.27  OA
ATOM      3  N   PHE G   5      39.201   8.305  21.568  1.00 60.80 LIG-0.35  N 
ATOM      4 H    PHE G   5      39.768   8.765  22.023  1.00 60.80 LIG 0.16  HD
ENDROOT
BRANCH 1 5
ATOM      5  CA  LEU G   4      38.629  10.306  20.445  1.00 58.56 LIG 0.18  C 
BRANCH 5 6
ATOM      6  CB  LEU G   4      39.445  10.544  19.178  1.00 61.47 LIG 0.04  C 
BRANCH 6 7
ATOM      7  CG  LEU G   4      38.643  10.449  17.898  1.00 62.80 LIG-0.02  C 
ATOM      8  CD1 LEU G   4      38.890  11.726  17.123  1.00 63.22 LIG 0.01  C 
ATOM      9  CD2 LEU G   4      39.091   9.204  17.134  1.00 64.86 LIG 0.01  C 
ENDBRANCH 6 7
ENDBRANCH 5 6
BRANCH 5 10
ATOM     10  N   LEU G   4      39.281  10.833  21.628  1.00 59.02 LIG-0.35  N 
ATOM     11 H    LEU G   4      40.140  10.804  21.613  1.00 59.02 LIG 0.16  HD
ATOM     12  C   ILE G   3      38.559  11.317  22.640  1.00 70.10 LIG 0.24  C 
ATOM     13 O    ILE G   3      37.334  11.546  22.536  1.00 64.55 LIG-0.27  OA
BRANCH 12 14
ATOM     14  CA  ILE G   3      39.324  11.586  23.963  1.00 67.83 LIG 0.18  C 
BRANCH 14 15
ATOM     15  CB  ILE G   3      39.358  10.308  24.861  1.00 66.94 LIG 0.01  C 
ATOM     16  CG2 ILE G   3      40.450   9.349  24.386  1.00 67.41 LIG 0.01  C 
BRANCH 15 17
ATOM     17  CG1 ILE G   3      39.560  10.650  26.363  1.00 59.79 LIG 0.00  C 
ATOM     18  CD1 ILE G   3      39.200   9.526  27.298  1.00 60.74 LIG 0.01  C 
ENDBRANCH 15 17
ENDBRANCH 14 15
BRANCH 14 19
ATOM     19  N   ILE G   3      38.713  12.700  24.670  1.00 79.60 LIG-0.34  N 
ATOM     20 H    ILE G   3      38.089  12.464  25.212  1.00 79.60 LIG 0.16  HD
ATOM     21  C   ASP G   2      39.084  13.972  24.495  1.00 93.07 LIG 0.26  C 
ATOM     22 O    ASP G   2      40.038  14.307  23.791  1.00 81.24 LIG-0.27  OA
BRANCH 21 23
ATOM     23  CA  ASP G   2      38.251  15.048  25.204  1.00 93.30 LIG 0.41  C 
ATOM     24  N   ASP G   2      36.813  14.815  24.887  1.00 94.60 LIG 0.61  N 
BRANCH 23 25
ATOM     25  CB  ASP G   2      38.466  15.039  26.725  1.00 96.36 LIG 0.16  C 
BRANCH 25 26
ATOM     26  CG  ASP G   2      37.570  14.047  27.433  1.00103.24 LIG 0.17  C 
ATOM     27 OD1  ASP G   2      38.083  13.053  27.985  1.00112.85 LIG-0.65  OA
ATOM     28 OD2  ASP G   2      36.348  14.258  27.448  1.00105.87 LIG-0.65  OA
ENDBRANCH 25 26
ENDBRANCH 23 25
ENDBRANCH 21 23
ENDBRANCH 14 19
ENDBRANCH 12 14
ENDBRANCH 5 10
ENDBRANCH 1 5
BRANCH 3 29
ATOM     29  CA  PHE G   5      39.140   6.924  21.955  1.00 70.05 LIG 0.18  C 
BRANCH 29 30
ATOM     30  CB  PHE G   5      37.721   6.556  22.434  1.00 73.20 LIG 0.07  C 
BRANCH 30 31
ATOM     31  CG  PHE G   5      37.548   6.702  23.939  1.00 79.36 LIG-0.06  A 
ATOM     32  CD1 PHE G   5      36.609   7.626  24.461  1.00 85.64 LIG 0.01  A 
ATOM     33  CE1 PHE G   5      36.423   7.768  25.830  1.00 88.71 LIG 0.00  A 
ATOM     34  CZ  PHE G   5      37.171   6.975  26.705  1.00 96.11 LIG 0.00  A 
ATOM     35  CE2 PHE G   5      38.094   6.043  26.205  1.00 91.53 LIG 0.00  A 
ATOM     36  CD2 PHE G   5      38.279   5.906  24.832  1.00 81.01 LIG 0.01  A 
ENDBRANCH 30 31
ENDBRANCH 29 30
BRANCH 29 37
ATOM     37  C   PHE G   5      39.614   6.131  20.742  1.00 74.26 LIG 0.24  C 
ATOM     38  N   PRO G   6      39.990   4.851  20.959  1.00 79.01 LIG-0.34  N 
ATOM     39  CD  PRO G   6      40.110   4.227  22.305  1.00 76.17 LIG 0.13  C 
ATOM     40  CA  PRO G   6      40.627   4.037  19.913  1.00 78.34 LIG 0.18  C 
ATOM     41  CG  PRO G   6      40.484   2.818  22.002  1.00 78.03 LIG 0.02  C 
ATOM     42  CB  PRO G   6      41.284   2.910  20.729  1.00 82.73 LIG 0.04  C 
ATOM     43 O    PHE G   5      39.728   6.695  19.647  1.00 61.78 LIG-0.27  OA
BRANCH 40 44
ATOM     44  C   PRO G   6      39.689   3.437  18.841  1.00 77.34 LIG 0.24  C 
ATOM     45 O    PRO G   6      39.792   2.255  18.560  1.00 92.50 LIG-0.27  OA
ATOM     46  N   ALA G   7      38.792   4.246  18.258  1.00 74.20 LIG-0.35  N 
ATOM     47 H    ALA G   7      38.518   4.981  18.612  1.00 74.20 LIG 0.16  HD
BRANCH 46 48
ATOM     48  CA  ALA G   7      38.181   3.950  16.935  1.00 71.75 LIG 0.16  C 
ATOM     49  CB  ALA G   7      36.661   3.841  17.061  1.00 70.01 LIG 0.04  C 
BRANCH 48 50
ATOM     50  C   ALA G   7      38.554   5.055  15.920  1.00 69.94 LIG 0.22  C 
ATOM     51 O    ALA G   7      38.834   6.215  16.317  1.00 56.97 LIG-0.29  OA
ENDBRANCH 48 50
ENDBRANCH 46 48
ENDBRANCH 40 44
ENDBRANCH 29 37
ENDBRANCH 3 29
TORSDOF 18
ENDMDL
MODEL 133
USER: ADFR SOLUTION from run 45
USER: SCORE 14.355210 LL:  -5.356 LR: -10.032 RR:   0.000 FEB:  -4.663
USER: RMSD 6.495663
USER: SEED 44
USER: STATUS no improvement in best in 33 clusters for 5 generations
USER: GENES 20
USER: genes 0 Translation |==|  0.51678 0.67610 0.57976
USER: genes 1 Rotation |==|  0.46374 0.17865 0.20873 0.74613
USER: genes 2 Torsion [N]-C--CA-[N] |==|  0.93889
USER: genes 3 Torsion [C]-CA--CB-[CG] |==|  0.84748
USER: genes 4 Torsion [CA]-CB--CG-[CD1] |==|  0.36506
USER: genes 5 Torsion [C]-CA--N-[C] |==|  0.71398
USER: genes 6 Torsion [N]-C--CA-[N] |==|  0.55675
USER: genes 7 Torsion [C]-CA--CB-[CG1] |==|  0.62446
USER: genes 8 Torsion [CA]-CB--CG1-[CD1] |==|  0.71630
USER: genes 9 Torsion [C]-CA--N-[C] |==|  0.60979
USER: genes 10 Torsion [N]-C--CA-[N] |==|  0.62172
USER: genes 11 Torsion [C]-CA--CB-[CG] |==|  0.27641
USER: genes 12 Torsion [CA]-CB--CG-[OD1] |==|  0.46261
USER: genes 13 Torsion [C]-N--CA-[CB] |==|  0.87682
USER: genes 14 Torsion [N]-CA--CB-[CG] |==|  0.87235
USER: genes 15 Torsion [CA]-CB--CG-[CD1] |==|  0.45343
USER: genes 16 Torsion [N]-CA--C-[N] |==|  0.36490
USER: genes 17 Torsion [N]-CA--C-[O] |==|  0.02376
USER: genes 18 Torsion [C]-N--CA-[C] |==|  0.52601
USER: genes 19 Torsion [N]-CA--C-[O] |==|  0.26022
ROOT
ATOM      1  C   LEU G   4      40.236  11.068  24.002  1.00 61.38 LIG 0.24  C 
ATOM      2 O    LEU G   4      41.063  10.283  23.525  1.00 52.06 LIG-0.27  OA
ATOM      3  N   PHE G   5      38.946  10.816  24.143  1.00 60.80 LIG-0.35  N 
ATOM      4 H    PHE G   5      38.397  11.368  24.505  1.00 60.80 LIG 0.16  HD
ENDROOT
BRANCH 1 5
ATOM      5  CA  LEU G   4      40.633  12.444  24.447  1.00 58.56 LIG 0.18  C 
BRANCH 5 6
ATOM      6  CB  LEU G   4      41.238  12.324  25.843  1.00 61.47 LIG 0.04  C 
BRANCH 6 7
ATOM      7  CG  LEU G   4      40.341  11.638  26.850  1.00 62.80 LIG-0.02  C 
ATOM      8  CD1 LEU G   4      41.179  10.589  27.551  1.00 63.22 LIG 0.01  C 
ATOM      9  CD2 LEU G   4      39.796  12.691  27.814  1.00 64.86 LIG 0.01  C 
ENDBRANCH 6 7
ENDBRANCH 5 6
BRANCH 5 10
ATOM     10  N   LEU G   4      39.461  13.299  24.426  1.00 59.02 LIG-0.35  N 
ATOM     11 H    LEU G   4      38.920  13.189  25.084  1.00 59.02 LIG 0.16  HD
ATOM     12  C   ILE G   3      39.281  14.175  23.437  1.00 70.10 LIG 0.24  C 
ATOM     13 O    ILE G   3      40.189  14.460  22.624  1.00 64.55 LIG-0.27  OA
BRANCH 12 14
ATOM     14  CA  ILE G   3      37.877  14.830  23.345  1.00 67.83 LIG 0.18  C 
BRANCH 14 15
ATOM     15  CB  ILE G   3      36.758  13.810  23.727  1.00 66.94 LIG 0.01  C 
ATOM     16  CG2 ILE G   3      36.275  14.056  25.157  1.00 67.41 LIG 0.01  C 
BRANCH 15 17
ATOM     17  CG1 ILE G   3      35.558  13.857  22.741  1.00 59.79 LIG 0.00  C 
ATOM     18  CD1 ILE G   3      34.362  14.604  23.270  1.00 60.74 LIG 0.01  C 
ENDBRANCH 15 17
ENDBRANCH 14 15
BRANCH 14 19
ATOM     19  N   ILE G   3      37.664  15.357  22.006  1.00 79.60 LIG-0.34  N 
ATOM     20 H    ILE G   3      37.970  14.850  21.384  1.00 79.60 LIG 0.16  HD
ATOM     21  C   ASP G   2      37.050  16.519  21.765  1.00 93.07 LIG 0.26  C 
ATOM     22 O    ASP G   2      36.528  17.204  22.646  1.00 81.24 LIG-0.27  OA
BRANCH 21 23
ATOM     23  CA  ASP G   2      37.027  17.009  20.311  1.00 93.30 LIG 0.41  C 
ATOM     24  N   ASP G   2      37.344  18.465  20.299  1.00 94.60 LIG 0.61  N 
BRANCH 23 25
ATOM     25  CB  ASP G   2      38.020  16.243  19.425  1.00 96.36 LIG 0.16  C 
BRANCH 25 26
ATOM     26  CG  ASP G   2      37.354  15.155  18.611  1.00103.24 LIG 0.17  C 
ATOM     27 OD1  ASP G   2      37.983  14.629  17.672  1.00112.85 LIG-0.65  OA
ATOM     28 OD2  ASP G   2      36.199  14.814  18.912  1.00105.87 LIG-0.65  OA
ENDBRANCH 25 26
ENDBRANCH 23 25
ENDBRANCH 21 23
ENDBRANCH 14 19
ENDBRANCH 12 14
ENDBRANCH 5 10
ENDBRANCH 1 5
BRANCH 3 29
ATOM     29  CA  PHE G   5      38.329   9.595  23.707  1.00 70.05 LIG 0.18  C 
BRANCH 29 30
ATOM     30  CB  PHE G   5      38.830   9.204  22.301  1.00 73.20 LIG 0.07  C 
BRANCH 30 31
ATOM     31  CG  PHE G   5      38.838  10.374  21.329  1.00 79.36 LIG-0.06  A 
ATOM     32  CD1 PHE G   5      39.583  10.296  20.126  1.00 85.64 LIG 0.01  A 
ATOM     33  CE1 PHE G   5      39.595  11.345  19.216  1.00 88.71 LIG 0.00  A 
ATOM     34  CZ  PHE G   5      38.849  12.494  19.492  1.00 96.11 LIG 0.00  A 
ATOM     35  CE2 PHE G   5      38.091  12.583  20.671  1.00 91.53 LIG 0.00  A 
ATOM     36  CD2 PHE G   5      38.084  11.530  21.581  1.00 81.01 LIG 0.01  A 
ENDBRANCH 30 31
ENDBRANCH 29 30
BRANCH 29 37
ATOM     37  C   PHE G   5      38.636   8.564  24.787  1.00 74.26 LIG 0.24  C 
ATOM     38  N   PRO G   6      37.597   7.829  25.242  1.00 79.01 LIG-0.34  N 
ATOM     39  CD  PRO G   6      36.176   8.062  24.870  1.00 76.17 LIG 0.13  C 
ATOM     40  CA  PRO G   6      37.726   6.928  26.398  1.00 78.34 LIG 0.18  C 
ATOM     41  CG  PRO G   6      35.449   6.968  25.570  1.00 78.03 LIG 0.02  C 
ATOM     42  CB  PRO G   6      36.260   6.720  26.815  1.00 82.73 LIG 0.04  C 
ATOM     43 O    PHE G   5      39.774   8.500  25.268  1.00 61.78 LIG-0.27  OA
BRANCH 40 44
ATOM     44  C   PRO G   6      38.401   5.563  26.135  1.00 77.34 LIG 0.24  C 
ATOM     45 O    PRO G   6      38.926   5.362  25.053  1.00 92.50 LIG-0.27  OA
ATOM     46  N   ALA G   7      38.380   4.646  27.113  1.00 74.20 LIG-0.35  N 
ATOM     47 H    ALA G   7      38.267   4.842  27.943  1.00 74.20 LIG 0.16  HD
BRANCH 46 48
ATOM     48  CA  ALA G   7      38.549   3.190  26.856  1.00 71.75 LIG 0.16  C 
ATOM     49  CB  ALA G   7      39.969   2.895  26.373  1.00 70.01 LIG 0.04  C 
BRANCH 48 50
ATOM     50  C   ALA G   7      38.244   2.387  28.141  1.00 69.94 LIG 0.22  C 
ATOM     51 O    ALA G   7      37.091   1.927  28.344  1.00 56.97 LIG-0.29  OA
ENDBRANCH 48 50
ENDBRANCH 46 48
ENDBRANCH 40 44
ENDBRANCH 29 37
ENDBRANCH 3 29
TORSDOF 18
ENDMDL
MODEL 134
USER: ADFR SOLUTION from run 10
USER: SCORE 14.336293 LL:  -5.215 LR: -10.030 RR:   0.000 FEB:  -4.660
USER: RMSD 4.933885
USER: SEED 638308
USER: STATUS no improvement in best in 18 clusters for 5 generations
USER: GENES 20
USER: genes 0 Translation |==|  0.50137 0.48847 0.53976
USER: genes 1 Rotation |==|  0.61109 0.06169 0.61625 0.67897
USER: genes 2 Torsion [N]-C--CA-[N] |==|  0.46491
USER: genes 3 Torsion [C]-CA--CB-[CG] |==|  0.43564
USER: genes 4 Torsion [CA]-CB--CG-[CD1] |==|  0.22081
USER: genes 5 Torsion [C]-CA--N-[C] |==|  0.80525
USER: genes 6 Torsion [N]-C--CA-[N] |==|  0.15862
USER: genes 7 Torsion [C]-CA--CB-[CG1] |==|  0.56515
USER: genes 8 Torsion [CA]-CB--CG1-[CD1] |==|  0.32233
USER: genes 9 Torsion [C]-CA--N-[C] |==|  0.76289
USER: genes 10 Torsion [N]-C--CA-[N] |==|  0.84802
USER: genes 11 Torsion [C]-CA--CB-[CG] |==|  0.65973
USER: genes 12 Torsion [CA]-CB--CG-[OD1] |==|  0.32292
USER: genes 13 Torsion [C]-N--CA-[CB] |==|  0.18365
USER: genes 14 Torsion [N]-CA--CB-[CG] |==|  0.11308
USER: genes 15 Torsion [CA]-CB--CG-[CD1] |==|  0.22549
USER: genes 16 Torsion [N]-CA--C-[N] |==|  0.15000
USER: genes 17 Torsion [N]-CA--C-[O] |==|  0.96190
USER: genes 18 Torsion [C]-N--CA-[C] |==|  0.77000
USER: genes 19 Torsion [N]-CA--C-[O] |==|  0.94839
ROOT
ATOM      1  C   LEU G   4      39.982   5.861  23.342  1.00 61.38 LIG 0.24  C 
ATOM      2 O    LEU G   4      40.854   6.600  23.813  1.00 52.06 LIG-0.27  OA
ATOM      3  N   PHE G   5      39.613   4.701  23.857  1.00 60.80 LIG-0.35  N 
ATOM      4 H    PHE G   5      38.983   4.220  23.526  1.00 60.80 LIG 0.16  HD
ENDROOT
BRANCH 1 5
ATOM      5  CA  LEU G   4      39.263   6.213  22.073  1.00 58.56 LIG 0.18  C 
BRANCH 5 6
ATOM      6  CB  LEU G   4      39.766   5.275  20.980  1.00 61.47 LIG 0.04  C 
BRANCH 6 7
ATOM      7  CG  LEU G   4      38.806   5.100  19.823  1.00 62.80 LIG-0.02  C 
ATOM      8  CD1 LEU G   4      38.957   6.315  18.932  1.00 63.22 LIG 0.01  C 
ATOM      9  CD2 LEU G   4      39.147   3.797  19.101  1.00 64.86 LIG 0.01  C 
ENDBRANCH 6 7
ENDBRANCH 5 6
BRANCH 5 10
ATOM     10  N   LEU G   4      39.515   7.607  21.764  1.00 59.02 LIG-0.35  N 
ATOM     11 H    LEU G   4      40.019   7.741  21.080  1.00 59.02 LIG 0.16  HD
ATOM     12  C   ILE G   3      38.982   8.573  22.512  1.00 70.10 LIG 0.24  C 
ATOM     13 O    ILE G   3      38.084   8.347  23.354  1.00 64.55 LIG-0.27  OA
BRANCH 12 14
ATOM     14  CA  ILE G   3      39.537  10.005  22.283  1.00 67.83 LIG 0.18  C 
BRANCH 14 15
ATOM     15  CB  ILE G   3      38.833  11.035  23.222  1.00 66.94 LIG 0.01  C 
ATOM     16  CG2 ILE G   3      39.440  10.983  24.624  1.00 67.41 LIG 0.01  C 
BRANCH 15 17
ATOM     17  CG1 ILE G   3      38.901  12.483  22.662  1.00 59.79 LIG 0.00  C 
ATOM     18  CD1 ILE G   3      37.557  13.070  22.324  1.00 60.74 LIG 0.01  C 
ENDBRANCH 15 17
ENDBRANCH 14 15
BRANCH 14 19
ATOM     19  N   ILE G   3      39.374  10.380  20.887  1.00 79.60 LIG-0.34  N 
ATOM     20 H    ILE G   3      38.656  10.825  20.731  1.00 79.60 LIG 0.16  HD
ATOM     21  C   ASP G   2      40.257  10.064  19.935  1.00 93.07 LIG 0.26  C 
ATOM     22 O    ASP G   2      41.332   9.508  20.167  1.00 81.24 LIG-0.27  OA
BRANCH 21 23
ATOM     23  CA  ASP G   2      39.878  10.405  18.488  1.00 93.30 LIG 0.41  C 
ATOM     24  N   ASP G   2      38.556   9.785  18.188  1.00 94.60 LIG 0.61  N 
BRANCH 23 25
ATOM     25  CB  ASP G   2      39.818  11.921  18.246  1.00 96.36 LIG 0.16  C 
BRANCH 25 26
ATOM     26  CG  ASP G   2      38.467  12.376  17.738  1.00103.24 LIG 0.17  C 
ATOM     27 OD1  ASP G   2      37.784  13.148  18.439  1.00112.85 LIG-0.65  OA
ATOM     28 OD2  ASP G   2      38.084  11.969  16.631  1.00105.87 LIG-0.65  OA
ENDBRANCH 25 26
ENDBRANCH 23 25
ENDBRANCH 21 23
ENDBRANCH 14 19
ENDBRANCH 12 14
ENDBRANCH 5 10
ENDBRANCH 1 5
BRANCH 3 29
ATOM     29  CA  PHE G   5      40.224   4.125  25.021  1.00 70.05 LIG 0.18  C 
BRANCH 29 30
ATOM     30  CB  PHE G   5      39.938   4.986  26.269  1.00 73.20 LIG 0.07  C 
BRANCH 30 31
ATOM     31  CG  PHE G   5      38.511   5.512  26.309  1.00 79.36 LIG-0.06  A 
ATOM     32  CD1 PHE G   5      37.459   4.681  26.769  1.00 85.64 LIG 0.01  A 
ATOM     33  CE1 PHE G   5      36.150   5.141  26.830  1.00 88.71 LIG 0.00  A 
ATOM     34  CZ  PHE G   5      35.871   6.453  26.436  1.00 96.11 LIG 0.00  A 
ATOM     35  CE2 PHE G   5      36.903   7.297  25.993  1.00 91.53 LIG 0.00  A 
ATOM     36  CD2 PHE G   5      38.212   6.829  25.932  1.00 81.01 LIG 0.01  A 
ENDBRANCH 30 31
ENDBRANCH 29 30
BRANCH 29 37
ATOM     37  C   PHE G   5      39.690   2.701  25.111  1.00 74.26 LIG 0.24  C 
ATOM     38  N   PRO G   6      39.836   1.923  24.014  1.00 79.01 LIG-0.34  N 
ATOM     39  CD  PRO G   6      40.341   2.409  22.702  1.00 76.17 LIG 0.13  C 
ATOM     40  CA  PRO G   6      39.212   0.595  23.911  1.00 78.34 LIG 0.18  C 
ATOM     41  CG  PRO G   6      40.373   1.178  21.865  1.00 78.03 LIG 0.02  C 
ATOM     42  CB  PRO G   6      39.239   0.339  22.394  1.00 82.73 LIG 0.04  C 
ATOM     43 O    PHE G   5      39.071   2.340  26.120  1.00 61.78 LIG-0.27  OA
BRANCH 40 44
ATOM     44  C   PRO G   6      39.922  -0.558  24.656  1.00 77.34 LIG 0.24  C 
ATOM     45 O    PRO G   6      41.057  -0.387  25.064  1.00 92.50 LIG-0.27  OA
ATOM     46  N   ALA G   7      39.256  -1.710  24.823  1.00 74.20 LIG-0.35  N 
ATOM     47 H    ALA G   7      38.398  -1.769  24.794  1.00 74.20 LIG 0.16  HD
BRANCH 46 48
ATOM     48  CA  ALA G   7      39.940  -3.007  25.076  1.00 71.75 LIG 0.16  C 
ATOM     49  CB  ALA G   7      39.005  -3.970  25.807  1.00 70.01 LIG 0.04  C 
BRANCH 48 50
ATOM     50  C   ALA G   7      40.409  -3.627  23.741  1.00 69.94 LIG 0.22  C 
ATOM     51 O    ALA G   7      39.910  -3.244  22.652  1.00 56.97 LIG-0.29  OA
ENDBRANCH 48 50
ENDBRANCH 46 48
ENDBRANCH 40 44
ENDBRANCH 29 37
ENDBRANCH 3 29
TORSDOF 18
ENDMDL
MODEL 135
USER: ADFR SOLUTION from run 78
USER: SCORE 13.861473 LL:  -5.636 LR: -10.020 RR:   0.000 FEB:  -4.650
USER: RMSD 10.976032
USER: SEED 77
USER: STATUS no improvement in best in 23 clusters for 5 generations
USER: GENES 20
USER: genes 0 Translation |==|  0.42946 0.63432 0.55905
USER: genes 1 Rotation |==|  0.92210 0.61377 0.25837 0.52235
USER: genes 2 Torsion [N]-C--CA-[N] |==|  0.23418
USER: genes 3 Torsion [C]-CA--CB-[CG] |==|  0.41018
USER: genes 4 Torsion [CA]-CB--CG-[CD1] |==|  0.48451
USER: genes 5 Torsion [C]-CA--N-[C] |==|  0.57222
USER: genes 6 Torsion [N]-C--CA-[N] |==|  0.42048
USER: genes 7 Torsion [C]-CA--CB-[CG1] |==|  0.00683
USER: genes 8 Torsion [CA]-CB--CG1-[CD1] |==|  0.51549
USER: genes 9 Torsion [C]-CA--N-[C] |==|  0.66145
USER: genes 10 Torsion [N]-C--CA-[N] |==|  0.33074
USER: genes 11 Torsion [C]-CA--CB-[CG] |==|  0.43418
USER: genes 12 Torsion [CA]-CB--CG-[OD1] |==|  0.54139
USER: genes 13 Torsion [C]-N--CA-[CB] |==|  0.20294
USER: genes 14 Torsion [N]-CA--CB-[CG] |==|  0.09769
USER: genes 15 Torsion [CA]-CB--CG-[CD1] |==|  0.22699
USER: genes 16 Torsion [N]-CA--C-[N] |==|  0.31800
USER: genes 17 Torsion [N]-CA--C-[O] |==|  0.52793
USER: genes 18 Torsion [C]-N--CA-[C] |==|  0.84764
USER: genes 19 Torsion [N]-CA--C-[O] |==|  0.95377
ROOT
ATOM      1  C   LEU G   4      38.795   9.908  23.660  1.00 61.38 LIG 0.24  C 
ATOM      2 O    LEU G   4      39.559  10.139  24.604  1.00 52.06 LIG-0.27  OA
ATOM      3  N   PHE G   5      38.394  10.804  22.775  1.00 60.80 LIG-0.35  N 
ATOM      4 H    PHE G   5      37.885  10.611  22.110  1.00 60.80 LIG 0.16  HD
ENDROOT
BRANCH 1 5
ATOM      5  CA  LEU G   4      38.204   8.546  23.450  1.00 58.56 LIG 0.18  C 
BRANCH 5 6
ATOM      6  CB  LEU G   4      38.183   7.836  24.800  1.00 61.47 LIG 0.04  C 
BRANCH 6 7
ATOM      7  CG  LEU G   4      37.024   6.880  24.980  1.00 62.80 LIG-0.02  C 
ATOM      8  CD1 LEU G   4      37.234   6.168  26.299  1.00 63.22 LIG 0.01  C 
ATOM      9  CD2 LEU G   4      35.723   7.681  24.946  1.00 64.86 LIG 0.01  C 
ENDBRANCH 6 7
ENDBRANCH 5 6
BRANCH 5 10
ATOM     10  N   LEU G   4      39.001   7.837  22.466  1.00 59.02 LIG-0.35  N 
ATOM     11 H    LEU G   4      39.820   8.092  22.412  1.00 59.02 LIG 0.16  HD
ATOM     12  C   ILE G   3      38.458   6.871  21.725  1.00 70.10 LIG 0.24  C 
ATOM     13 O    ILE G   3      37.336   6.382  21.984  1.00 64.55 LIG-0.27  OA
BRANCH 12 14
ATOM     14  CA  ILE G   3      39.297   6.379  20.516  1.00 67.83 LIG 0.18  C 
BRANCH 14 15
ATOM     15  CB  ILE G   3      39.051   7.275  19.261  1.00 66.94 LIG 0.01  C 
ATOM     16  CG2 ILE G   3      38.514   6.437  18.101  1.00 67.41 LIG 0.01  C 
BRANCH 15 17
ATOM     17  CG1 ILE G   3      38.086   8.455  19.562  1.00 59.79 LIG 0.00  C 
ATOM     18  CD1 ILE G   3      37.718   9.266  18.347  1.00 60.74 LIG 0.01  C 
ENDBRANCH 15 17
ENDBRANCH 14 15
BRANCH 14 19
ATOM     19  N   ILE G   3      38.982   4.988  20.229  1.00 79.60 LIG-0.34  N 
ATOM     20 H    ILE G   3      38.151   4.851  20.059  1.00 79.60 LIG 0.16  HD
ATOM     21  C   ASP G   2      39.896   4.014  20.229  1.00 93.07 LIG 0.26  C 
ATOM     22 O    ASP G   2      41.102   4.218  20.379  1.00 81.24 LIG-0.27  OA
BRANCH 21 23
ATOM     23  CA  ASP G   2      39.388   2.577  20.049  1.00 93.30 LIG 0.41  C 
ATOM     24  N   ASP G   2      39.996   2.014  18.809  1.00 94.60 LIG 0.61  N 
BRANCH 23 25
ATOM     25  CB  ASP G   2      39.724   1.687  21.254  1.00 96.36 LIG 0.16  C 
BRANCH 25 26
ATOM     26  CG  ASP G   2      38.792   0.501  21.379  1.00103.24 LIG 0.17  C 
ATOM     27 OD1  ASP G   2      38.766  -0.139  22.449  1.00112.85 LIG-0.65  OA
ATOM     28 OD2  ASP G   2      38.076   0.207  20.410  1.00105.87 LIG-0.65  OA
ENDBRANCH 25 26
ENDBRANCH 23 25
ENDBRANCH 21 23
ENDBRANCH 14 19
ENDBRANCH 12 14
ENDBRANCH 5 10
ENDBRANCH 1 5
BRANCH 3 29
ATOM     29  CA  PHE G   5      38.765  12.189  22.831  1.00 70.05 LIG 0.18  C 
BRANCH 29 30
ATOM     30  CB  PHE G   5      40.242  12.374  22.426  1.00 73.20 LIG 0.07  C 
BRANCH 30 31
ATOM     31  CG  PHE G   5      40.682  11.405  21.339  1.00 79.36 LIG-0.06  A 
ATOM     32  CD1 PHE G   5      40.394  11.682  19.979  1.00 85.64 LIG 0.01  A 
ATOM     33  CE1 PHE G   5      40.797  10.822  18.967  1.00 88.71 LIG 0.00  A 
ATOM     34  CZ  PHE G   5      41.509   9.665  19.300  1.00 96.11 LIG 0.00  A 
ATOM     35  CE2 PHE G   5      41.818   9.383  20.640  1.00 91.53 LIG 0.00  A 
ATOM     36  CD2 PHE G   5      41.409  10.247  21.651  1.00 81.01 LIG 0.01  A 
ENDBRANCH 30 31
ENDBRANCH 29 30
BRANCH 29 37
ATOM     37  C   PHE G   5      37.776  12.922  21.932  1.00 74.26 LIG 0.24  C 
ATOM     38  N   PRO G   6      36.935  13.794  22.533  1.00 79.01 LIG-0.34  N 
ATOM     39  CD  PRO G   6      36.816  13.968  24.006  1.00 76.17 LIG 0.13  C 
ATOM     40  CA  PRO G   6      35.824  14.431  21.809  1.00 78.34 LIG 0.18  C 
ATOM     41  CG  PRO G   6      35.823  15.069  24.146  1.00 78.03 LIG 0.02  C 
ATOM     42  CB  PRO G   6      34.915  14.906  22.956  1.00 82.73 LIG 0.04  C 
ATOM     43 O    PHE G   5      37.709  12.635  20.731  1.00 61.78 LIG-0.27  OA
BRANCH 40 44
ATOM     44  C   PRO G   6      36.191  15.624  20.897  1.00 77.34 LIG 0.24  C 
ATOM     45 O    PRO G   6      35.297  16.302  20.421  1.00 92.50 LIG-0.27  OA
ATOM     46  N   ALA G   7      37.489  15.865  20.661  1.00 74.20 LIG-0.35  N 
ATOM     47 H    ALA G   7      38.122  15.592  21.175  1.00 74.20 LIG 0.16  HD
BRANCH 46 48
ATOM     48  CA  ALA G   7      37.964  16.634  19.479  1.00 71.75 LIG 0.16  C 
ATOM     49  CB  ALA G   7      39.492  16.672  19.445  1.00 70.01 LIG 0.04  C 
BRANCH 48 50
ATOM     50  C   ALA G   7      37.416  16.001  18.180  1.00 69.94 LIG 0.22  C 
ATOM     51 O    ALA G   7      36.955  14.831  18.189  1.00 56.97 LIG-0.29  OA
ENDBRANCH 48 50
ENDBRANCH 46 48
ENDBRANCH 40 44
ENDBRANCH 29 37
ENDBRANCH 3 29
TORSDOF 18
ENDMDL
MODEL 136
USER: ADFR SOLUTION from run 51
USER: SCORE 14.228607 LL:  -5.288 LR: -10.017 RR:   0.000 FEB:  -4.648
USER: RMSD 10.878202
USER: SEED 50
USER: STATUS no improvement in best in 10 clusters for 5 generations
USER: GENES 20
USER: genes 0 Translation |==|  0.52697 0.42080 0.52173
USER: genes 1 Rotation |==|  0.56006 0.55654 0.99210 0.53212
USER: genes 2 Torsion [N]-C--CA-[N] |==|  0.41440
USER: genes 3 Torsion [C]-CA--CB-[CG] |==|  0.24411
USER: genes 4 Torsion [CA]-CB--CG-[CD1] |==|  0.72501
USER: genes 5 Torsion [C]-CA--N-[C] |==|  0.76372
USER: genes 6 Torsion [N]-C--CA-[N] |==|  0.40581
USER: genes 7 Torsion [C]-CA--CB-[CG1] |==|  0.17272
USER: genes 8 Torsion [CA]-CB--CG1-[CD1] |==|  0.58121
USER: genes 9 Torsion [C]-CA--N-[C] |==|  0.53889
USER: genes 10 Torsion [N]-C--CA-[N] |==|  0.52304
USER: genes 11 Torsion [C]-CA--CB-[CG] |==|  0.56577
USER: genes 12 Torsion [CA]-CB--CG-[OD1] |==|  0.44098
USER: genes 13 Torsion [C]-N--CA-[CB] |==|  0.52353
USER: genes 14 Torsion [N]-CA--CB-[CG] |==|  0.82164
USER: genes 15 Torsion [CA]-CB--CG-[CD1] |==|  0.16282
USER: genes 16 Torsion [N]-CA--C-[N] |==|  0.30286
USER: genes 17 Torsion [N]-CA--C-[O] |==|  0.31812
USER: genes 18 Torsion [C]-N--CA-[C] |==|  0.66961
USER: genes 19 Torsion [N]-CA--C-[O] |==|  0.86324
ROOT
ATOM      1  C   LEU G   4      40.404   3.983  23.045  1.00 61.38 LIG 0.24  C 
ATOM      2 O    LEU G   4      40.480   3.696  21.845  1.00 52.06 LIG-0.27  OA
ATOM      3  N   PHE G   5      39.778   5.040  23.532  1.00 60.80 LIG-0.35  N 
ATOM      4 H    PHE G   5      39.716   5.201  24.374  1.00 60.80 LIG 0.16  HD
ENDROOT
BRANCH 1 5
ATOM      5  CA  LEU G   4      41.074   3.144  24.091  1.00 58.56 LIG 0.18  C 
BRANCH 5 6
ATOM      6  CB  LEU G   4      42.485   3.690  24.291  1.00 61.47 LIG 0.04  C 
BRANCH 6 7
ATOM      7  CG  LEU G   4      42.581   4.797  25.318  1.00 62.80 LIG-0.02  C 
ATOM      8  CD1 LEU G   4      42.602   6.107  24.559  1.00 63.22 LIG 0.01  C 
ATOM      9  CD2 LEU G   4      41.388   4.687  26.266  1.00 64.86 LIG 0.01  C 
ENDBRANCH 6 7
ENDBRANCH 5 6
BRANCH 5 10
ATOM     10  N   LEU G   4      41.075   1.761  23.653  1.00 59.02 LIG-0.35  N 
ATOM     11 H    LEU G   4      41.791   1.509  23.250  1.00 59.02 LIG 0.16  HD
ATOM     12  C   ILE G   3      40.019   0.979  23.880  1.00 70.10 LIG 0.24  C 
ATOM     13 O    ILE G   3      39.096   1.313  24.656  1.00 64.55 LIG-0.27  OA
BRANCH 12 14
ATOM     14  CA  ILE G   3      39.995  -0.379  23.128  1.00 67.83 LIG 0.18  C 
BRANCH 14 15
ATOM     15  CB  ILE G   3      39.263  -0.246  21.755  1.00 66.94 LIG 0.01  C 
ATOM     16  CG2 ILE G   3      37.809   0.181  21.963  1.00 67.41 LIG 0.01  C 
BRANCH 15 17
ATOM     17  CG1 ILE G   3      39.982   0.746  20.799  1.00 59.79 LIG 0.00  C 
ATOM     18  CD1 ILE G   3      39.058   1.437  19.831  1.00 60.74 LIG 0.01  C 
ENDBRANCH 15 17
ENDBRANCH 14 15
BRANCH 14 19
ATOM     19  N   ILE G   3      39.362  -1.392  23.958  1.00 79.60 LIG-0.34  N 
ATOM     20 H    ILE G   3      38.935  -1.069  24.631  1.00 79.60 LIG 0.16  HD
ATOM     21  C   ASP G   2      39.436  -2.701  23.702  1.00 93.07 LIG 0.26  C 
ATOM     22 O    ASP G   2      39.966  -3.163  22.690  1.00 81.24 LIG-0.27  OA
BRANCH 21 23
ATOM     23  CA  ASP G   2      38.837  -3.653  24.745  1.00 93.30 LIG 0.41  C 
ATOM     24  N   ASP G   2      39.200  -5.050  24.372  1.00 94.60 LIG 0.61  N 
BRANCH 23 25
ATOM     25  CB  ASP G   2      39.330  -3.340  26.166  1.00 96.36 LIG 0.16  C 
BRANCH 25 26
ATOM     26  CG  ASP G   2      39.242  -4.536  27.089  1.00103.24 LIG 0.17  C 
ATOM     27 OD1  ASP G   2      39.949  -4.564  28.115  1.00112.85 LIG-0.65  OA
ATOM     28 OD2  ASP G   2      38.459  -5.453  26.796  1.00105.87 LIG-0.65  OA
ENDBRANCH 25 26
ENDBRANCH 23 25
ENDBRANCH 21 23
ENDBRANCH 14 19
ENDBRANCH 12 14
ENDBRANCH 5 10
ENDBRANCH 1 5
BRANCH 3 29
ATOM     29  CA  PHE G   5      39.139   6.027  22.709  1.00 70.05 LIG 0.18  C 
BRANCH 29 30
ATOM     30  CB  PHE G   5      38.687   7.233  23.559  1.00 73.20 LIG 0.07  C 
BRANCH 30 31
ATOM     31  CG  PHE G   5      37.622   6.870  24.582  1.00 79.36 LIG-0.06  A 
ATOM     32  CD1 PHE G   5      37.885   5.881  25.562  1.00 85.64 LIG 0.01  A 
ATOM     33  CE1 PHE G   5      36.935   5.541  26.517  1.00 88.71 LIG 0.00  A 
ATOM     34  CZ  PHE G   5      35.700   6.197  26.512  1.00 96.11 LIG 0.00  A 
ATOM     35  CE2 PHE G   5      35.428   7.192  25.559  1.00 91.53 LIG 0.00  A 
ATOM     36  CD2 PHE G   5      36.383   7.526  24.603  1.00 81.01 LIG 0.01  A 
ENDBRANCH 30 31
ENDBRANCH 29 30
BRANCH 29 37
ATOM     37  C   PHE G   5      40.144   6.375  21.618  1.00 74.26 LIG 0.24  C 
ATOM     38  N   PRO G   6      39.863   5.944  20.368  1.00 79.01 LIG-0.34  N 
ATOM     39  CD  PRO G   6      38.731   5.040  20.026  1.00 76.17 LIG 0.13  C 
ATOM     40  CA  PRO G   6      40.830   6.061  19.266  1.00 78.34 LIG 0.18  C 
ATOM     41  CG  PRO G   6      38.816   4.923  18.545  1.00 78.03 LIG 0.02  C 
ATOM     42  CB  PRO G   6      40.287   5.046  18.245  1.00 82.73 LIG 0.04  C 
ATOM     43 O    PHE G   5      41.203   6.941  21.917  1.00 61.78 LIG-0.27  OA
BRANCH 40 44
ATOM     44  C   PRO G   6      40.958   7.455  18.609  1.00 77.34 LIG 0.24  C 
ATOM     45 O    PRO G   6      42.008   8.064  18.716  1.00 92.50 LIG-0.27  OA
ATOM     46  N   ALA G   7      39.900   7.943  17.946  1.00 74.20 LIG-0.35  N 
ATOM     47 H    ALA G   7      39.270   7.449  17.630  1.00 74.20 LIG 0.16  HD
BRANCH 46 48
ATOM     48  CA  ALA G   7      39.711   9.396  17.688  1.00 71.75 LIG 0.16  C 
ATOM     49  CB  ALA G   7      39.671   9.671  16.185  1.00 70.01 LIG 0.04  C 
BRANCH 48 50
ATOM     50  C   ALA G   7      38.406   9.887  18.356  1.00 69.94 LIG 0.22  C 
ATOM     51 O    ALA G   7      37.330   9.258  18.187  1.00 56.97 LIG-0.29  OA
ENDBRANCH 48 50
ENDBRANCH 46 48
ENDBRANCH 40 44
ENDBRANCH 29 37
ENDBRANCH 3 29
TORSDOF 18
ENDMDL
MODEL 137
USER: ADFR SOLUTION from run 31
USER: SCORE 14.929599 LL:  -5.471 LR: -10.011 RR:   0.000 FEB:  -4.642
USER: RMSD 7.377649
USER: SEED 30
USER: STATUS searching
USER: GENES 20
USER: genes 0 Translation |==|  0.44263 0.59657 0.43697
USER: genes 1 Rotation |==|  0.51196 0.02781 0.53817 0.65949
USER: genes 2 Torsion [N]-C--CA-[N] |==|  0.37084
USER: genes 3 Torsion [C]-CA--CB-[CG] |==|  0.34854
USER: genes 4 Torsion [CA]-CB--CG-[CD1] |==|  0.75527
USER: genes 5 Torsion [C]-CA--N-[C] |==|  0.84760
USER: genes 6 Torsion [N]-C--CA-[N] |==|  0.14456
USER: genes 7 Torsion [C]-CA--CB-[CG1] |==|  0.84704
USER: genes 8 Torsion [CA]-CB--CG1-[CD1] |==|  0.77581
USER: genes 9 Torsion [C]-CA--N-[C] |==|  0.73508
USER: genes 10 Torsion [N]-C--CA-[N] |==|  0.69327
USER: genes 11 Torsion [C]-CA--CB-[CG] |==|  0.79219
USER: genes 12 Torsion [CA]-CB--CG-[OD1] |==|  0.48366
USER: genes 13 Torsion [C]-N--CA-[CB] |==|  0.85000
USER: genes 14 Torsion [N]-CA--CB-[CG] |==|  0.39644
USER: genes 15 Torsion [CA]-CB--CG-[CD1] |==|  0.24832
USER: genes 16 Torsion [N]-CA--C-[N] |==|  0.40991
USER: genes 17 Torsion [N]-CA--C-[O] |==|  0.85544
USER: genes 18 Torsion [C]-N--CA-[C] |==|  0.59690
USER: genes 19 Torsion [N]-CA--C-[O] |==|  0.11606
ROOT
ATOM      1  C   LEU G   4      39.012   8.861  21.646  1.00 61.38 LIG 0.24  C 
ATOM      2 O    LEU G   4      40.022   9.031  22.338  1.00 52.06 LIG-0.27  OA
ATOM      3  N   PHE G   5      38.084   7.948  21.873  1.00 60.80 LIG-0.35  N 
ATOM      4 H    PHE G   5      37.375   7.870  21.393  1.00 60.80 LIG 0.16  HD
ENDROOT
BRANCH 1 5
ATOM      5  CA  LEU G   4      38.761   9.683  20.417  1.00 58.56 LIG 0.18  C 
BRANCH 5 6
ATOM      6  CB  LEU G   4      39.712   9.194  19.329  1.00 61.47 LIG 0.04  C 
BRANCH 6 7
ATOM      7  CG  LEU G   4      39.028   8.795  18.040  1.00 62.80 LIG-0.02  C 
ATOM      8  CD1 LEU G   4      38.650   7.334  18.171  1.00 63.22 LIG 0.01  C 
ATOM      9  CD2 LEU G   4      37.813   9.699  17.833  1.00 64.86 LIG 0.01  C 
ENDBRANCH 6 7
ENDBRANCH 5 6
BRANCH 5 10
ATOM     10  N   LEU G   4      38.964  11.082  20.740  1.00 59.02 LIG-0.35  N 
ATOM     11 H    LEU G   4      39.529  11.492  20.238  1.00 59.02 LIG 0.16  HD
ATOM     12  C   ILE G   3      38.302  11.647  21.751  1.00 70.10 LIG 0.24  C 
ATOM     13 O    ILE G   3      37.335  11.085  22.311  1.00 64.55 LIG-0.27  OA
BRANCH 12 14
ATOM     14  CA  ILE G   3      38.795  13.049  22.198  1.00 67.83 LIG 0.18  C 
BRANCH 14 15
ATOM     15  CB  ILE G   3      37.862  13.646  23.299  1.00 66.94 LIG 0.01  C 
ATOM     16  CG2 ILE G   3      38.337  15.042  23.703  1.00 67.41 LIG 0.01  C 
BRANCH 15 17
ATOM     17  CG1 ILE G   3      36.376  13.695  22.847  1.00 59.79 LIG 0.00  C 
ATOM     18  CD1 ILE G   3      36.046  14.870  21.965  1.00 60.74 LIG 0.01  C 
ENDBRANCH 15 17
ENDBRANCH 14 15
BRANCH 14 19
ATOM     19  N   ILE G   3      38.874  13.935  21.048  1.00 79.60 LIG-0.34  N 
ATOM     20 H    ILE G   3      38.127  14.313  20.852  1.00 79.60 LIG 0.16  HD
ATOM     21  C   ASP G   2      39.999  14.144  20.358  1.00 93.07 LIG 0.26  C 
ATOM     22 O    ASP G   2      41.091  13.680  20.688  1.00 81.24 LIG-0.27  OA
BRANCH 21 23
ATOM     23  CA  ASP G   2      39.891  14.995  19.086  1.00 93.30 LIG 0.41  C 
ATOM     24  N   ASP G   2      40.110  14.109  17.906  1.00 94.60 LIG 0.61  N 
BRANCH 23 25
ATOM     25  CB  ASP G   2      38.532  15.701  18.972  1.00 96.36 LIG 0.16  C 
BRANCH 25 26
ATOM     26  CG  ASP G   2      37.417  14.756  18.579  1.00103.24 LIG 0.17  C 
ATOM     27 OD1  ASP G   2      36.244  15.178  18.560  1.00112.85 LIG-0.65  OA
ATOM     28 OD2  ASP G   2      37.709  13.588  18.280  1.00105.87 LIG-0.65  OA
ENDBRANCH 25 26
ENDBRANCH 23 25
ENDBRANCH 21 23
ENDBRANCH 14 19
ENDBRANCH 12 14
ENDBRANCH 5 10
ENDBRANCH 1 5
BRANCH 3 29
ATOM     29  CA  PHE G   5      38.160   6.995  22.944  1.00 70.05 LIG 0.18  C 
BRANCH 29 30
ATOM     30  CB  PHE G   5      39.493   6.219  22.888  1.00 73.20 LIG 0.07  C 
BRANCH 30 31
ATOM     31  CG  PHE G   5      40.066   5.928  24.267  1.00 79.36 LIG-0.06  A 
ATOM     32  CD1 PHE G   5      39.708   4.739  24.949  1.00 85.64 LIG 0.01  A 
ATOM     33  CE1 PHE G   5      40.229   4.443  26.202  1.00 88.71 LIG 0.00  A 
ATOM     34  CZ  PHE G   5      41.128   5.335  26.794  1.00 96.11 LIG 0.00  A 
ATOM     35  CE2 PHE G   5      41.507   6.510  26.125  1.00 91.53 LIG 0.00  A 
ATOM     36  CD2 PHE G   5      40.980   6.803  24.871  1.00 81.01 LIG 0.01  A 
ENDBRANCH 30 31
ENDBRANCH 29 30
BRANCH 29 37
ATOM     37  C   PHE G   5      37.957   7.793  24.227  1.00 74.26 LIG 0.24  C 
ATOM     38  N   PRO G   6      37.332   7.161  25.246  1.00 79.01 LIG-0.34  N 
ATOM     39  CD  PRO G   6      36.709   5.814  25.144  1.00 76.17 LIG 0.13  C 
ATOM     40  CA  PRO G   6      36.921   7.870  26.468  1.00 78.34 LIG 0.18  C 
ATOM     41  CG  PRO G   6      36.224   5.550  26.526  1.00 78.03 LIG 0.02  C 
ATOM     42  CB  PRO G   6      35.875   6.912  27.065  1.00 82.73 LIG 0.04  C 
ATOM     43 O    PHE G   5      38.273   8.988  24.263  1.00 61.78 LIG-0.27  OA
BRANCH 40 44
ATOM     44  C   PRO G   6      38.032   8.153  27.505  1.00 77.34 LIG 0.24  C 
ATOM     45 O    PRO G   6      38.735   7.233  27.884  1.00 92.50 LIG-0.27  OA
ATOM     46  N   ALA G   7      38.177   9.410  27.951  1.00 74.20 LIG-0.35  N 
ATOM     47 H    ALA G   7      37.896  10.099  27.521  1.00 74.20 LIG 0.16  HD
BRANCH 46 48
ATOM     48  CA  ALA G   7      38.844   9.735  29.240  1.00 71.75 LIG 0.16  C 
ATOM     49  CB  ALA G   7      40.329  10.017  29.018  1.00 70.01 LIG 0.04  C 
BRANCH 48 50
ATOM     50  C   ALA G   7      38.160  10.956  29.897  1.00 69.94 LIG 0.22  C 
ATOM     51 O    ALA G   7      36.907  11.061  29.892  1.00 56.97 LIG-0.29  OA
ENDBRANCH 48 50
ENDBRANCH 46 48
ENDBRANCH 40 44
ENDBRANCH 29 37
ENDBRANCH 3 29
TORSDOF 18
ENDMDL
MODEL 138
USER: ADFR SOLUTION from run 56
USER: SCORE 14.932888 LL:  -5.575 LR: -10.000 RR:   0.000 FEB:  -4.630
USER: RMSD 5.843412
USER: SEED 55
USER: STATUS searching
USER: GENES 20
USER: genes 0 Translation |==|  0.45265 0.57503 0.46011
USER: genes 1 Rotation |==|  0.71281 0.20080 0.16871 0.57375
USER: genes 2 Torsion [N]-C--CA-[N] |==|  0.36215
USER: genes 3 Torsion [C]-CA--CB-[CG] |==|  0.29613
USER: genes 4 Torsion [CA]-CB--CG-[CD1] |==|  0.48034
USER: genes 5 Torsion [C]-CA--N-[C] |==|  0.84747
USER: genes 6 Torsion [N]-C--CA-[N] |==|  0.02635
USER: genes 7 Torsion [C]-CA--CB-[CG1] |==|  0.79835
USER: genes 8 Torsion [CA]-CB--CG1-[CD1] |==|  0.23205
USER: genes 9 Torsion [C]-CA--N-[C] |==|  0.77222
USER: genes 10 Torsion [N]-C--CA-[N] |==|  0.61327
USER: genes 11 Torsion [C]-CA--CB-[CG] |==|  0.76299
USER: genes 12 Torsion [CA]-CB--CG-[OD1] |==|  0.13844
USER: genes 13 Torsion [C]-N--CA-[CB] |==|  0.87595
USER: genes 14 Torsion [N]-CA--CB-[CG] |==|  0.83565
USER: genes 15 Torsion [CA]-CB--CG-[CD1] |==|  0.36535
USER: genes 16 Torsion [N]-CA--C-[N] |==|  0.41099
USER: genes 17 Torsion [N]-CA--C-[O] |==|  0.75903
USER: genes 18 Torsion [C]-N--CA-[C] |==|  0.73208
USER: genes 19 Torsion [N]-CA--C-[O] |==|  0.00876
ROOT
ATOM      1  C   LEU G   4      39.178   8.263  22.028  1.00 61.38 LIG 0.24  C 
ATOM      2 O    LEU G   4      40.280   7.753  22.254  1.00 52.06 LIG-0.27  OA
ATOM      3  N   PHE G   5      38.536   8.199  20.874  1.00 60.80 LIG-0.35  N 
ATOM      4 H    PHE G   5      37.756   8.539  20.752  1.00 60.80 LIG 0.16  HD
ENDROOT
BRANCH 1 5
ATOM      5  CA  LEU G   4      38.459   9.063  23.074  1.00 58.56 LIG 0.18  C 
BRANCH 5 6
ATOM      6  CB  LEU G   4      39.215  10.376  23.254  1.00 61.47 LIG 0.04  C 
BRANCH 6 7
ATOM      7  CG  LEU G   4      38.516  11.580  22.662  1.00 62.80 LIG-0.02  C 
ATOM      8  CD1 LEU G   4      39.305  12.803  23.082  1.00 63.22 LIG 0.01  C 
ATOM      9  CD2 LEU G   4      38.458  11.412  21.144  1.00 64.86 LIG 0.01  C 
ENDBRANCH 6 7
ENDBRANCH 5 6
BRANCH 5 10
ATOM     10  N   LEU G   4      38.400   8.287  24.298  1.00 59.02 LIG-0.35  N 
ATOM     11 H    LEU G   4      38.719   8.681  24.992  1.00 59.02 LIG 0.16  HD
ATOM     12  C   ILE G   3      37.880   7.059  24.296  1.00 70.10 LIG 0.24  C 
ATOM     13 O    ILE G   3      37.230   6.611  23.325  1.00 64.55 LIG-0.27  OA
BRANCH 12 14
ATOM     14  CA  ILE G   3      38.122   6.209  25.571  1.00 67.83 LIG 0.18  C 
BRANCH 14 15
ATOM     15  CB  ILE G   3      36.798   5.540  26.059  1.00 66.94 LIG 0.01  C 
ATOM     16  CG2 ILE G   3      37.099   4.414  27.048  1.00 67.41 LIG 0.01  C 
BRANCH 15 17
ATOM     17  CG1 ILE G   3      35.821   6.567  26.697  1.00 59.79 LIG 0.00  C 
ATOM     18  CD1 ILE G   3      34.976   7.308  25.695  1.00 60.74 LIG 0.01  C 
ENDBRANCH 15 17
ENDBRANCH 14 15
BRANCH 14 19
ATOM     19  N   ILE G   3      38.700   7.039  26.617  1.00 79.60 LIG-0.34  N 
ATOM     20 H    ILE G   3      38.124   7.326  27.186  1.00 79.60 LIG 0.16  HD
ATOM     21  C   ASP G   2      40.002   7.328  26.688  1.00 93.07 LIG 0.26  C 
ATOM     22 O    ASP G   2      40.845   6.844  25.931  1.00 81.24 LIG-0.27  OA
BRANCH 21 23
ATOM     23  CA  ASP G   2      40.438   8.331  27.764  1.00 93.30 LIG 0.41  C 
ATOM     24  N   ASP G   2      41.467   9.235  27.177  1.00 94.60 LIG 0.61  N 
BRANCH 23 25
ATOM     25  CB  ASP G   2      39.258   9.152  28.305  1.00 96.36 LIG 0.16  C 
BRANCH 25 26
ATOM     26  CG  ASP G   2      38.959  10.368  27.456  1.00103.24 LIG 0.17  C 
ATOM     27 OD1  ASP G   2      38.840  10.233  26.223  1.00112.85 LIG-0.65  OA
ATOM     28 OD2  ASP G   2      38.834  11.467  28.020  1.00105.87 LIG-0.65  OA
ENDBRANCH 25 26
ENDBRANCH 23 25
ENDBRANCH 21 23
ENDBRANCH 14 19
ENDBRANCH 12 14
ENDBRANCH 5 10
ENDBRANCH 1 5
BRANCH 3 29
ATOM     29  CA  PHE G   5      39.073   7.558  19.708  1.00 70.05 LIG 0.18  C 
BRANCH 29 30
ATOM     30  CB  PHE G   5      40.552   7.948  19.504  1.00 73.20 LIG 0.07  C 
BRANCH 30 31
ATOM     31  CG  PHE G   5      40.751   9.448  19.342  1.00 79.36 LIG-0.06  A 
ATOM     32  CD1 PHE G   5      41.747  10.119  20.095  1.00 85.64 LIG 0.01  A 
ATOM     33  CE1 PHE G   5      41.959  11.484  19.954  1.00 88.71 LIG 0.00  A 
ATOM     34  CZ  PHE G   5      41.177  12.204  19.047  1.00 96.11 LIG 0.00  A 
ATOM     35  CE2 PHE G   5      40.197  11.554  18.281  1.00 91.53 LIG 0.00  A 
ATOM     36  CD2 PHE G   5      39.987  10.186  18.427  1.00 81.01 LIG 0.01  A 
ENDBRANCH 30 31
ENDBRANCH 29 30
BRANCH 29 37
ATOM     37  C   PHE G   5      38.845   6.065  19.911  1.00 74.26 LIG 0.24  C 
ATOM     38  N   PRO G   6      38.625   5.324  18.801  1.00 79.01 LIG-0.34  N 
ATOM     39  CD  PRO G   6      38.447   5.889  17.436  1.00 76.17 LIG 0.13  C 
ATOM     40  CA  PRO G   6      38.221   3.912  18.873  1.00 78.34 LIG 0.18  C 
ATOM     41  CG  PRO G   6      38.303   4.681  16.577  1.00 78.03 LIG 0.02  C 
ATOM     42  CB  PRO G   6      37.639   3.666  17.470  1.00 82.73 LIG 0.04  C 
ATOM     43 O    PHE G   5      38.774   5.606  21.057  1.00 61.78 LIG-0.27  OA
BRANCH 40 44
ATOM     44  C   PRO G   6      39.342   2.890  19.168  1.00 77.34 LIG 0.24  C 
ATOM     45 O    PRO G   6      39.990   2.439  18.240  1.00 92.50 LIG-0.27  OA
ATOM     46  N   ALA G   7      39.557   2.535  20.444  1.00 74.20 LIG-0.35  N 
ATOM     47 H    ALA G   7      39.317   3.016  21.115  1.00 74.20 LIG 0.16  HD
BRANCH 46 48
ATOM     48  CA  ALA G   7      40.236   1.267  20.824  1.00 71.75 LIG 0.16  C 
ATOM     49  CB  ALA G   7      41.149   1.490  22.029  1.00 70.01 LIG 0.04  C 
BRANCH 48 50
ATOM     50  C   ALA G   7      39.186   0.179  21.144  1.00 69.94 LIG 0.22  C 
ATOM     51 O    ALA G   7      37.959   0.420  21.005  1.00 56.97 LIG-0.29  OA
ENDBRANCH 48 50
ENDBRANCH 46 48
ENDBRANCH 40 44
ENDBRANCH 29 37
ENDBRANCH 3 29
TORSDOF 18
ENDMDL
MODEL 139
USER: ADFR SOLUTION from run 4
USER: SCORE 14.581812 LL:  -5.169 LR:  -9.993 RR:   0.000 FEB:  -4.623
USER: RMSD 7.206508
USER: SEED 192181
USER: STATUS no improvement in best in 31 clusters for 5 generations
USER: GENES 20
USER: genes 0 Translation |==|  0.42966 0.58294 0.36164
USER: genes 1 Rotation |==|  0.49481 0.06340 0.56268 0.73542
USER: genes 2 Torsion [N]-C--CA-[N] |==|  0.42372
USER: genes 3 Torsion [C]-CA--CB-[CG] |==|  0.79615
USER: genes 4 Torsion [CA]-CB--CG-[CD1] |==|  0.39569
USER: genes 5 Torsion [C]-CA--N-[C] |==|  0.83408
USER: genes 6 Torsion [N]-C--CA-[N] |==|  0.41182
USER: genes 7 Torsion [C]-CA--CB-[CG1] |==|  0.21701
USER: genes 8 Torsion [CA]-CB--CG1-[CD1] |==|  0.08856
USER: genes 9 Torsion [C]-CA--N-[C] |==|  0.61598
USER: genes 10 Torsion [N]-C--CA-[N] |==|  0.54034
USER: genes 11 Torsion [C]-CA--CB-[CG] |==|  0.77203
USER: genes 12 Torsion [CA]-CB--CG-[OD1] |==|  0.71548
USER: genes 13 Torsion [C]-N--CA-[CB] |==|  0.88333
USER: genes 14 Torsion [N]-CA--CB-[CG] |==|  0.78847
USER: genes 15 Torsion [CA]-CB--CG-[CD1] |==|  0.61515
USER: genes 16 Torsion [N]-CA--C-[N] |==|  0.33986
USER: genes 17 Torsion [N]-CA--C-[O] |==|  0.90409
USER: genes 18 Torsion [C]-N--CA-[C] |==|  0.59281
USER: genes 19 Torsion [N]-CA--C-[O] |==|  0.16719
ROOT
ATOM      1  C   LEU G   4      38.798   8.483  20.403  1.00 61.38 LIG 0.24  C 
ATOM      2 O    LEU G   4      39.982   8.661  20.710  1.00 52.06 LIG-0.27  OA
ATOM      3  N   PHE G   5      37.965   7.676  21.037  1.00 60.80 LIG-0.35  N 
ATOM      4 H    PHE G   5      37.138   7.592  20.820  1.00 60.80 LIG 0.16  HD
ENDROOT
BRANCH 1 5
ATOM      5  CA  LEU G   4      38.189   9.166  19.215  1.00 58.56 LIG 0.18  C 
BRANCH 5 6
ATOM      6  CB  LEU G   4      38.319   8.224  18.021  1.00 61.47 LIG 0.04  C 
BRANCH 6 7
ATOM      7  CG  LEU G   4      39.724   8.110  17.472  1.00 62.80 LIG-0.02  C 
ATOM      8  CD1 LEU G   4      39.927   6.667  17.061  1.00 63.22 LIG 0.01  C 
ATOM      9  CD2 LEU G   4      39.869   9.079  16.298  1.00 64.86 LIG 0.01  C 
ENDBRANCH 6 7
ENDBRANCH 5 6
BRANCH 5 10
ATOM     10  N   LEU G   4      38.871  10.427  18.999  1.00 59.02 LIG-0.35  N 
ATOM     11 H    LEU G   4      39.252  10.507  18.233  1.00 59.02 LIG 0.16  HD
ATOM     12  C   ILE G   3      38.879  11.363  19.949  1.00 70.10 LIG 0.24  C 
ATOM     13 O    ILE G   3      38.134  11.301  20.953  1.00 64.55 LIG-0.27  OA
BRANCH 12 14
ATOM     14  CA  ILE G   3      39.865  12.544  19.743  1.00 67.83 LIG 0.18  C 
BRANCH 14 15
ATOM     15  CB  ILE G   3      41.263  12.219  20.358  1.00 66.94 LIG 0.01  C 
ATOM     16  CG2 ILE G   3      41.107  11.609  21.751  1.00 67.41 LIG 0.01  C 
BRANCH 15 17
ATOM     17  CG1 ILE G   3      42.100  11.276  19.450  1.00 59.79 LIG 0.00  C 
ATOM     18  CD1 ILE G   3      41.837  11.455  17.978  1.00 60.74 LIG 0.01  C 
ENDBRANCH 15 17
ENDBRANCH 14 15
BRANCH 14 19
ATOM     19  N   ILE G   3      39.311  13.757  20.324  1.00 79.60 LIG-0.34  N 
ATOM     20 H    ILE G   3      38.934  13.633  21.086  1.00 79.60 LIG 0.16  HD
ATOM     21  C   ASP G   2      39.382  14.952  19.731  1.00 93.07 LIG 0.26  C 
ATOM     22 O    ASP G   2      40.002  15.153  18.685  1.00 81.24 LIG-0.27  OA
BRANCH 21 23
ATOM     23  CA  ASP G   2      38.629  16.110  20.399  1.00 93.30 LIG 0.41  C 
ATOM     24  N   ASP G   2      38.534  17.235  19.425  1.00 94.60 LIG 0.61  N 
BRANCH 23 25
ATOM     25  CB  ASP G   2      37.226  15.696  20.867  1.00 96.36 LIG 0.16  C 
BRANCH 25 26
ATOM     26  CG  ASP G   2      36.205  15.731  19.750  1.00103.24 LIG 0.17  C 
ATOM     27 OD1  ASP G   2      35.409  16.689  19.687  1.00112.85 LIG-0.65  OA
ATOM     28 OD2  ASP G   2      36.198  14.804  18.926  1.00105.87 LIG-0.65  OA
ENDBRANCH 25 26
ENDBRANCH 23 25
ENDBRANCH 21 23
ENDBRANCH 14 19
ENDBRANCH 12 14
ENDBRANCH 5 10
ENDBRANCH 1 5
BRANCH 3 29
ATOM     29  CA  PHE G   5      38.354   6.857  22.150  1.00 70.05 LIG 0.18  C 
BRANCH 29 30
ATOM     30  CB  PHE G   5      39.733   6.214  21.897  1.00 73.20 LIG 0.07  C 
BRANCH 30 31
ATOM     31  CG  PHE G   5      39.671   5.046  20.924  1.00 79.36 LIG-0.06  A 
ATOM     32  CD1 PHE G   5      40.425   3.871  21.173  1.00 85.64 LIG 0.01  A 
ATOM     33  CE1 PHE G   5      40.374   2.786  20.308  1.00 88.71 LIG 0.00  A 
ATOM     34  CZ  PHE G   5      39.556   2.855  19.177  1.00 96.11 LIG 0.00  A 
ATOM     35  CE2 PHE G   5      38.790   4.003  18.923  1.00 91.53 LIG 0.00  A 
ATOM     36  CD2 PHE G   5      38.846   5.089  19.791  1.00 81.01 LIG 0.01  A 
ENDBRANCH 30 31
ENDBRANCH 29 30
BRANCH 29 37
ATOM     37  C   PHE G   5      38.305   7.767  23.372  1.00 74.26 LIG 0.24  C 
ATOM     38  N   PRO G   6      37.499   7.383  24.387  1.00 79.01 LIG-0.34  N 
ATOM     39  CD  PRO G   6      36.560   6.230  24.325  1.00 76.17 LIG 0.13  C 
ATOM     40  CA  PRO G   6      37.230   8.254  25.542  1.00 78.34 LIG 0.18  C 
ATOM     41  CG  PRO G   6      35.967   6.191  25.690  1.00 78.03 LIG 0.02  C 
ATOM     42  CB  PRO G   6      35.952   7.631  26.130  1.00 82.73 LIG 0.04  C 
ATOM     43 O    PHE G   5      38.913   8.844  23.360  1.00 61.78 LIG-0.27  OA
BRANCH 40 44
ATOM     44  C   PRO G   6      38.332   8.321  26.624  1.00 77.34 LIG 0.24  C 
ATOM     45 O    PRO G   6      38.987   7.322  26.863  1.00 92.50 LIG-0.27  OA
ATOM     46  N   ALA G   7      38.523   9.485  27.263  1.00 74.20 LIG-0.35  N 
ATOM     47 H    ALA G   7      38.280  10.245  26.943  1.00 74.20 LIG 0.16  HD
BRANCH 46 48
ATOM     48  CA  ALA G   7      39.178   9.574  28.595  1.00 71.75 LIG 0.16  C 
ATOM     49  CB  ALA G   7      40.684   9.783  28.437  1.00 70.01 LIG 0.04  C 
BRANCH 48 50
ATOM     50  C   ALA G   7      38.561  10.731  29.413  1.00 69.94 LIG 0.22  C 
ATOM     51 O    ALA G   7      37.335  10.728  29.693  1.00 56.97 LIG-0.29  OA
ENDBRANCH 48 50
ENDBRANCH 46 48
ENDBRANCH 40 44
ENDBRANCH 29 37
ENDBRANCH 3 29
TORSDOF 18
ENDMDL
MODEL 140
USER: ADFR SOLUTION from run 190
USER: SCORE 14.815229 LL:  -5.875 LR:  -9.990 RR:   0.000 FEB:  -4.621
USER: RMSD 7.792796
USER: SEED 189
USER: STATUS no improvement in best in 14 clusters for 5 generations
USER: GENES 20
USER: genes 0 Translation |==|  0.37932 0.53187 0.59848
USER: genes 1 Rotation |==|  0.91709 0.52774 0.37083 0.74204
USER: genes 2 Torsion [N]-C--CA-[N] |==|  0.36526
USER: genes 3 Torsion [C]-CA--CB-[CG] |==|  0.82830
USER: genes 4 Torsion [CA]-CB--CG-[CD1] |==|  0.40668
USER: genes 5 Torsion [C]-CA--N-[C] |==|  0.72349
USER: genes 6 Torsion [N]-C--CA-[N] |==|  0.93953
USER: genes 7 Torsion [C]-CA--CB-[CG1] |==|  0.91905
USER: genes 8 Torsion [CA]-CB--CG1-[CD1] |==|  0.34805
USER: genes 9 Torsion [C]-CA--N-[C] |==|  0.83297
USER: genes 10 Torsion [N]-C--CA-[N] |==|  0.41978
USER: genes 11 Torsion [C]-CA--CB-[CG] |==|  0.54490
USER: genes 12 Torsion [CA]-CB--CG-[OD1] |==|  0.20161
USER: genes 13 Torsion [C]-N--CA-[CB] |==|  0.20442
USER: genes 14 Torsion [N]-CA--CB-[CG] |==|  0.72407
USER: genes 15 Torsion [CA]-CB--CG-[CD1] |==|  0.92843
USER: genes 16 Torsion [N]-CA--C-[N] |==|  0.46444
USER: genes 17 Torsion [N]-CA--C-[O] |==|  0.68237
USER: genes 18 Torsion [C]-N--CA-[C] |==|  0.85985
USER: genes 19 Torsion [N]-CA--C-[O] |==|  0.91202
ROOT
ATOM      1  C   LEU G   4      37.968   7.066  24.311  1.00 61.38 LIG 0.24  C 
ATOM      2 O    LEU G   4      38.076   8.117  24.952  1.00 52.06 LIG-0.27  OA
ATOM      3  N   PHE G   5      38.233   6.933  23.023  1.00 60.80 LIG-0.35  N 
ATOM      4 H    PHE G   5      38.177   6.183  22.607  1.00 60.80 LIG 0.16  HD
ENDROOT
BRANCH 1 5
ATOM      5  CA  LEU G   4      37.471   5.806  24.956  1.00 58.56 LIG 0.18  C 
BRANCH 5 6
ATOM      6  CB  LEU G   4      35.976   5.973  25.209  1.00 61.47 LIG 0.04  C 
BRANCH 6 7
ATOM      7  CG  LEU G   4      35.629   7.107  26.149  1.00 62.80 LIG-0.02  C 
ATOM      8  CD1 LEU G   4      34.306   7.681  25.686  1.00 63.22 LIG 0.01  C 
ATOM      9  CD2 LEU G   4      35.562   6.556  27.573  1.00 64.86 LIG 0.01  C 
ENDBRANCH 6 7
ENDBRANCH 5 6
BRANCH 5 10
ATOM     10  N   LEU G   4      38.216   5.582  26.180  1.00 59.02 LIG-0.35  N 
ATOM     11 H    LEU G   4      37.949   6.040  26.857  1.00 59.02 LIG 0.16  HD
ATOM     12  C   ILE G   3      39.232   4.719  26.205  1.00 70.10 LIG 0.24  C 
ATOM     13 O    ILE G   3      39.448   3.914  25.271  1.00 64.55 LIG-0.27  OA
BRANCH 12 14
ATOM     14  CA  ILE G   3      40.140   4.762  27.463  1.00 67.83 LIG 0.18  C 
BRANCH 14 15
ATOM     15  CB  ILE G   3      39.790   3.601  28.447  1.00 66.94 LIG 0.01  C 
ATOM     16  CG2 ILE G   3      40.137   3.993  29.883  1.00 67.41 LIG 0.01  C 
BRANCH 15 17
ATOM     17  CG1 ILE G   3      38.297   3.179  28.352  1.00 59.79 LIG 0.00  C 
ATOM     18  CD1 ILE G   3      38.094   1.712  28.082  1.00 60.74 LIG 0.01  C 
ENDBRANCH 15 17
ENDBRANCH 14 15
BRANCH 14 19
ATOM     19  N   ILE G   3      40.013   6.054  28.120  1.00 79.60 LIG-0.34  N 
ATOM     20 H    ILE G   3      39.726   6.003  28.928  1.00 79.60 LIG 0.16  HD
ATOM     21  C   ASP G   2      40.314   7.212  27.525  1.00 93.07 LIG 0.26  C 
ATOM     22 O    ASP G   2      40.814   7.285  26.401  1.00 81.24 LIG-0.27  OA
BRANCH 21 23
ATOM     23  CA  ASP G   2      39.994   8.499  28.297  1.00 93.30 LIG 0.41  C 
ATOM     24  N   ASP G   2      40.963   9.552  27.879  1.00 94.60 LIG 0.61  N 
BRANCH 23 25
ATOM     25  CB  ASP G   2      38.555   8.977  28.056  1.00 96.36 LIG 0.16  C 
BRANCH 25 26
ATOM     26  CG  ASP G   2      38.342  10.415  28.476  1.00103.24 LIG 0.17  C 
ATOM     27 OD1  ASP G   2      38.834  11.328  27.785  1.00112.85 LIG-0.65  OA
ATOM     28 OD2  ASP G   2      37.675  10.640  29.498  1.00105.87 LIG-0.65  OA
ENDBRANCH 25 26
ENDBRANCH 23 25
ENDBRANCH 21 23
ENDBRANCH 14 19
ENDBRANCH 12 14
ENDBRANCH 5 10
ENDBRANCH 1 5
BRANCH 3 29
ATOM     29  CA  PHE G   5      38.641   8.025  22.186  1.00 70.05 LIG 0.18  C 
BRANCH 29 30
ATOM     30  CB  PHE G   5      40.100   8.427  22.487  1.00 73.20 LIG 0.07  C 
BRANCH 30 31
ATOM     31  CG  PHE G   5      40.203   9.641  23.398  1.00 79.36 LIG-0.06  A 
ATOM     32  CD1 PHE G   5      39.150  10.588  23.443  1.00 85.64 LIG 0.01  A 
ATOM     33  CE1 PHE G   5      39.213  11.697  24.277  1.00 88.71 LIG 0.00  A 
ATOM     34  CZ  PHE G   5      40.335  11.873  25.091  1.00 96.11 LIG 0.00  A 
ATOM     35  CE2 PHE G   5      41.381  10.936  25.073  1.00 91.53 LIG 0.00  A 
ATOM     36  CD2 PHE G   5      41.313   9.828  24.234  1.00 81.01 LIG 0.01  A 
ENDBRANCH 30 31
ENDBRANCH 29 30
BRANCH 29 37
ATOM     37  C   PHE G   5      38.406   7.562  20.753  1.00 74.26 LIG 0.24  C 
ATOM     38  N   PRO G   6      38.463   8.508  19.788  1.00 79.01 LIG-0.34  N 
ATOM     39  CD  PRO G   6      38.589   9.967  20.048  1.00 76.17 LIG 0.13  C 
ATOM     40  CA  PRO G   6      38.084   8.225  18.395  1.00 78.34 LIG 0.18  C 
ATOM     41  CG  PRO G   6      38.673  10.557  18.684  1.00 78.03 LIG 0.02  C 
ATOM     42  CB  PRO G   6      37.845   9.635  17.828  1.00 82.73 LIG 0.04  C 
ATOM     43 O    PHE G   5      38.084   6.388  20.533  1.00 61.78 LIG-0.27  OA
BRANCH 40 44
ATOM     44  C   PRO G   6      39.130   7.479  17.536  1.00 77.34 LIG 0.24  C 
ATOM     45 O    PRO G   6      39.636   8.055  16.588  1.00 92.50 LIG-0.27  OA
ATOM     46  N   ALA G   7      39.441   6.217  17.868  1.00 74.20 LIG-0.35  N 
ATOM     47 H    ALA G   7      39.316   5.891  18.655  1.00 74.20 LIG 0.16  HD
BRANCH 46 48
ATOM     48  CA  ALA G   7      40.035   5.253  16.904  1.00 71.75 LIG 0.16  C 
ATOM     49  CB  ALA G   7      40.100   3.855  17.518  1.00 70.01 LIG 0.04  C 
BRANCH 48 50
ATOM     50  C   ALA G   7      39.204   5.226  15.602  1.00 69.94 LIG 0.22  C 
ATOM     51 O    ALA G   7      37.964   5.431  15.635  1.00 56.97 LIG-0.29  OA
ENDBRANCH 48 50
ENDBRANCH 46 48
ENDBRANCH 40 44
ENDBRANCH 29 37
ENDBRANCH 3 29
TORSDOF 18
ENDMDL
MODEL 141
USER: ADFR SOLUTION from run 95
USER: SCORE 14.680040 LL:  -5.151 LR:  -9.986 RR:   0.000 FEB:  -4.617
USER: RMSD 6.169232
USER: SEED 94
USER: STATUS no improvement in best in 22 clusters for 5 generations
USER: GENES 20
USER: genes 0 Translation |==|  0.45527 0.60987 0.59303
USER: genes 1 Rotation |==|  0.55812 0.06107 0.28717 0.59309
USER: genes 2 Torsion [N]-C--CA-[N] |==|  0.43855
USER: genes 3 Torsion [C]-CA--CB-[CG] |==|  0.24326
USER: genes 4 Torsion [CA]-CB--CG-[CD1] |==|  0.18305
USER: genes 5 Torsion [C]-CA--N-[C] |==|  0.63382
USER: genes 6 Torsion [N]-C--CA-[N] |==|  0.38591
USER: genes 7 Torsion [C]-CA--CB-[CG1] |==|  0.09701
USER: genes 8 Torsion [CA]-CB--CG1-[CD1] |==|  0.21410
USER: genes 9 Torsion [C]-CA--N-[C] |==|  0.83525
USER: genes 10 Torsion [N]-C--CA-[N] |==|  0.31261
USER: genes 11 Torsion [C]-CA--CB-[CG] |==|  0.72893
USER: genes 12 Torsion [CA]-CB--CG-[OD1] |==|  0.80442
USER: genes 13 Torsion [C]-N--CA-[CB] |==|  0.79394
USER: genes 14 Torsion [N]-CA--CB-[CG] |==|  0.78369
USER: genes 15 Torsion [CA]-CB--CG-[CD1] |==|  0.64103
USER: genes 16 Torsion [N]-CA--C-[N] |==|  0.21067
USER: genes 17 Torsion [N]-CA--C-[O] |==|  0.70108
USER: genes 18 Torsion [C]-N--CA-[C] |==|  0.88177
USER: genes 19 Torsion [N]-CA--C-[O] |==|  0.37641
ROOT
ATOM      1  C   LEU G   4      39.221   9.230  24.221  1.00 61.38 LIG 0.24  C 
ATOM      2 O    LEU G   4      40.068   8.532  24.789  1.00 52.06 LIG-0.27  OA
ATOM      3  N   PHE G   5      38.248   8.767  23.456  1.00 60.80 LIG-0.35  N 
ATOM      4 H    PHE G   5      37.653   9.272  23.096  1.00 60.80 LIG 0.16  HD
ENDROOT
BRANCH 1 5
ATOM      5  CA  LEU G   4      39.246  10.726  24.324  1.00 58.56 LIG 0.18  C 
BRANCH 5 6
ATOM      6  CB  LEU G   4      39.919  11.266  23.066  1.00 61.47 LIG 0.04  C 
BRANCH 6 7
ATOM      7  CG  LEU G   4      38.974  11.495  21.907  1.00 62.80 LIG-0.02  C 
ATOM      8  CD1 LEU G   4      38.032  12.609  22.314  1.00 63.22 LIG 0.01  C 
ATOM      9  CD2 LEU G   4      39.797  11.847  20.669  1.00 64.86 LIG 0.01  C 
ENDBRANCH 6 7
ENDBRANCH 5 6
BRANCH 5 10
ATOM     10  N   LEU G   4      39.955  11.100  25.533  1.00 59.02 LIG-0.35  N 
ATOM     11 H    LEU G   4      40.709  10.703  25.649  1.00 59.02 LIG 0.16  HD
ATOM     12  C   ILE G   3      39.436  11.997  26.372  1.00 70.10 LIG 0.24  C 
ATOM     13 O    ILE G   3      38.455  12.710  26.063  1.00 64.55 LIG-0.27  OA
BRANCH 12 14
ATOM     14  CA  ILE G   3      40.118  12.114  27.761  1.00 67.83 LIG 0.18  C 
BRANCH 14 15
ATOM     15  CB  ILE G   3      39.338  11.295  28.839  1.00 66.94 LIG 0.01  C 
ATOM     16  CG2 ILE G   3      38.246  12.155  29.477  1.00 67.41 LIG 0.01  C 
BRANCH 15 17
ATOM     17  CG1 ILE G   3      38.723   9.993  28.256  1.00 59.79 LIG 0.00  C 
ATOM     18  CD1 ILE G   3      39.722   8.883  28.056  1.00 60.74 LIG 0.01  C 
ENDBRANCH 15 17
ENDBRANCH 14 15
BRANCH 14 19
ATOM     19  N   ILE G   3      40.219  13.513  28.146  1.00 79.60 LIG-0.34  N 
ATOM     20 H    ILE G   3      39.816  13.699  28.881  1.00 79.60 LIG 0.16  HD
ATOM     21  C   ASP G   2      40.878  14.426  27.425  1.00 93.07 LIG 0.26  C 
ATOM     22 O    ASP G   2      41.536  14.149  26.421  1.00 81.24 LIG-0.27  OA
BRANCH 21 23
ATOM     23  CA  ASP G   2      40.776  15.886  27.885  1.00 93.30 LIG 0.41  C 
ATOM     24  N   ASP G   2      42.117  16.323  28.369  1.00 94.60 LIG 0.61  N 
BRANCH 23 25
ATOM     25  CB  ASP G   2      40.290  16.816  26.763  1.00 96.36 LIG 0.16  C 
BRANCH 25 26
ATOM     26  CG  ASP G   2      41.427  17.526  26.063  1.00103.24 LIG 0.17  C 
ATOM     27 OD1  ASP G   2      42.053  18.416  26.672  1.00112.85 LIG-0.65  OA
ATOM     28 OD2  ASP G   2      41.706  17.193  24.900  1.00105.87 LIG-0.65  OA
ENDBRANCH 25 26
ENDBRANCH 23 25
ENDBRANCH 21 23
ENDBRANCH 14 19
ENDBRANCH 12 14
ENDBRANCH 5 10
ENDBRANCH 1 5
BRANCH 3 29
ATOM     29  CA  PHE G   5      38.081   7.375  23.148  1.00 70.05 LIG 0.18  C 
BRANCH 29 30
ATOM     30  CB  PHE G   5      39.143   6.912  22.129  1.00 73.20 LIG 0.07  C 
BRANCH 30 31
ATOM     31  CG  PHE G   5      38.819   7.336  20.704  1.00 79.36 LIG-0.06  A 
ATOM     32  CD1 PHE G   5      38.837   6.381  19.656  1.00 85.64 LIG 0.01  A 
ATOM     33  CE1 PHE G   5      38.530   6.739  18.350  1.00 88.71 LIG 0.00  A 
ATOM     34  CZ  PHE G   5      38.190   8.066  18.070  1.00 96.11 LIG 0.00  A 
ATOM     35  CE2 PHE G   5      38.151   9.021  19.097  1.00 91.53 LIG 0.00  A 
ATOM     36  CD2 PHE G   5      38.461   8.658  20.404  1.00 81.01 LIG 0.01  A 
ENDBRANCH 30 31
ENDBRANCH 29 30
BRANCH 29 37
ATOM     37  C   PHE G   5      38.139   6.643  24.484  1.00 74.26 LIG 0.24  C 
ATOM     38  N   PRO G   6      37.043   6.720  25.271  1.00 79.01 LIG-0.34  N 
ATOM     39  CD  PRO G   6      35.864   7.582  24.987  1.00 76.17 LIG 0.13  C 
ATOM     40  CA  PRO G   6      37.034   6.208  26.650  1.00 78.34 LIG 0.18  C 
ATOM     41  CG  PRO G   6      34.924   7.262  26.096  1.00 78.03 LIG 0.02  C 
ATOM     42  CB  PRO G   6      35.821   6.931  27.260  1.00 82.73 LIG 0.04  C 
ATOM     43 O    PHE G   5      39.191   6.096  24.839  1.00 61.78 LIG-0.27  OA
BRANCH 40 44
ATOM     44  C   PRO G   6      36.877   4.679  26.814  1.00 77.34 LIG 0.24  C 
ATOM     45 O    PRO G   6      35.822   4.235  27.231  1.00 92.50 LIG-0.27  OA
ATOM     46  N   ALA G   7      37.917   3.896  26.492  1.00 74.20 LIG-0.35  N 
ATOM     47 H    ALA G   7      38.547   4.142  25.960  1.00 74.20 LIG 0.16  HD
BRANCH 46 48
ATOM     48  CA  ALA G   7      38.084   2.518  27.025  1.00 71.75 LIG 0.16  C 
ATOM     49  CB  ALA G   7      39.514   2.027  26.800  1.00 70.01 LIG 0.04  C 
BRANCH 48 50
ATOM     50  C   ALA G   7      37.739   2.487  28.531  1.00 69.94 LIG 0.22  C 
ATOM     51 O    ALA G   7      37.027   1.563  29.001  1.00 56.97 LIG-0.29  OA
ENDBRANCH 48 50
ENDBRANCH 46 48
ENDBRANCH 40 44
ENDBRANCH 29 37
ENDBRANCH 3 29
TORSDOF 18
ENDMDL
MODEL 142
USER: ADFR SOLUTION from run 70
USER: SCORE 13.892045 LL:  -5.332 LR:  -9.982 RR:   0.000 FEB:  -4.612
USER: RMSD 10.323275
USER: SEED 69
USER: STATUS no improvement in best in 24 clusters for 5 generations
USER: GENES 20
USER: genes 0 Translation |==|  0.50099 0.48574 0.39261
USER: genes 1 Rotation |==|  0.28446 0.14514 0.77320 0.55459
USER: genes 2 Torsion [N]-C--CA-[N] |==|  0.64567
USER: genes 3 Torsion [C]-CA--CB-[CG] |==|  0.38313
USER: genes 4 Torsion [CA]-CB--CG-[CD1] |==|  0.46658
USER: genes 5 Torsion [C]-CA--N-[C] |==|  0.14463
USER: genes 6 Torsion [N]-C--CA-[N] |==|  0.97042
USER: genes 7 Torsion [C]-CA--CB-[CG1] |==|  0.28653
USER: genes 8 Torsion [CA]-CB--CG1-[CD1] |==|  0.84671
USER: genes 9 Torsion [C]-CA--N-[C] |==|  0.78062
USER: genes 10 Torsion [N]-C--CA-[N] |==|  0.51078
USER: genes 11 Torsion [C]-CA--CB-[CG] |==|  0.83997
USER: genes 12 Torsion [CA]-CB--CG-[OD1] |==|  0.90753
USER: genes 13 Torsion [C]-N--CA-[CB] |==|  0.81920
USER: genes 14 Torsion [N]-CA--CB-[CG] |==|  0.62051
USER: genes 15 Torsion [CA]-CB--CG-[CD1] |==|  0.92725
USER: genes 16 Torsion [N]-CA--C-[N] |==|  0.16135
USER: genes 17 Torsion [N]-CA--C-[O] |==|  0.52151
USER: genes 18 Torsion [C]-N--CA-[C] |==|  0.17340
USER: genes 19 Torsion [N]-CA--C-[O] |==|  0.28238
ROOT
ATOM      1  C   LEU G   4      39.975   5.785  20.914  1.00 61.38 LIG 0.24  C 
ATOM      2 O    LEU G   4      40.935   6.306  21.494  1.00 52.06 LIG-0.27  OA
ATOM      3  N   PHE G   5      38.705   6.041  21.173  1.00 60.80 LIG-0.35  N 
ATOM      4 H    PHE G   5      38.056   5.687  20.734  1.00 60.80 LIG 0.16  HD
ENDROOT
BRANCH 1 5
ATOM      5  CA  LEU G   4      40.177   4.750  19.848  1.00 58.56 LIG 0.18  C 
BRANCH 5 6
ATOM      6  CB  LEU G   4      38.805   4.197  19.473  1.00 61.47 LIG 0.04  C 
BRANCH 6 7
ATOM      7  CG  LEU G   4      38.600   4.000  17.987  1.00 62.80 LIG-0.02  C 
ATOM      8  CD1 LEU G   4      37.337   3.182  17.816  1.00 63.22 LIG 0.01  C 
ATOM      9  CD2 LEU G   4      38.502   5.373  17.323  1.00 64.86 LIG 0.01  C 
ENDBRANCH 6 7
ENDBRANCH 5 6
BRANCH 5 10
ATOM     10  N   LEU G   4      41.066   3.723  20.355  1.00 59.02 LIG-0.35  N 
ATOM     11 H    LEU G   4      41.740   3.545  19.851  1.00 59.02 LIG 0.16  HD
ATOM     12  C   ILE G   3      40.815   3.126  21.521  1.00 70.10 LIG 0.24  C 
ATOM     13 O    ILE G   3      39.959   3.560  22.322  1.00 64.55 LIG-0.27  OA
BRANCH 12 14
ATOM     14  CA  ILE G   3      41.649   1.855  21.836  1.00 67.83 LIG 0.18  C 
BRANCH 14 15
ATOM     15  CB  ILE G   3      42.626   2.107  23.028  1.00 66.94 LIG 0.01  C 
ATOM     16  CG2 ILE G   3      42.859   3.606  23.220  1.00 67.41 LIG 0.01  C 
BRANCH 15 17
ATOM     17  CG1 ILE G   3      42.116   1.470  24.350  1.00 59.79 LIG 0.00  C 
ATOM     18  CD1 ILE G   3      40.730   1.907  24.743  1.00 60.74 LIG 0.01  C 
ENDBRANCH 15 17
ENDBRANCH 14 15
BRANCH 14 19
ATOM     19  N   ILE G   3      42.377   1.435  20.648  1.00 79.60 LIG-0.34  N 
ATOM     20 H    ILE G   3      43.206   1.664  20.653  1.00 79.60 LIG 0.16  HD
ATOM     21  C   ASP G   2      41.814   0.757  19.644  1.00 93.07 LIG 0.26  C 
ATOM     22 O    ASP G   2      40.653   0.346  19.673  1.00 81.24 LIG-0.27  OA
BRANCH 21 23
ATOM     23  CA  ASP G   2      42.674   0.509  18.398  1.00 93.30 LIG 0.41  C 
ATOM     24  N   ASP G   2      41.834  -0.172  17.373  1.00 94.60 LIG 0.61  N 
BRANCH 23 25
ATOM     25  CB  ASP G   2      43.256   1.811  17.827  1.00 96.36 LIG 0.16  C 
BRANCH 25 26
ATOM     26  CG  ASP G   2      42.186   2.819  17.469  1.00103.24 LIG 0.17  C 
ATOM     27 OD1  ASP G   2      41.084   2.410  17.052  1.00112.85 LIG-0.65  OA
ATOM     28 OD2  ASP G   2      42.438   4.025  17.610  1.00105.87 LIG-0.65  OA
ENDBRANCH 25 26
ENDBRANCH 23 25
ENDBRANCH 21 23
ENDBRANCH 14 19
ENDBRANCH 12 14
ENDBRANCH 5 10
ENDBRANCH 1 5
BRANCH 3 29
ATOM     29  CA  PHE G   5      38.276   6.935  22.211  1.00 70.05 LIG 0.18  C 
BRANCH 29 30
ATOM     30  CB  PHE G   5      38.666   6.385  23.598  1.00 73.20 LIG 0.07  C 
BRANCH 30 31
ATOM     31  CG  PHE G   5      37.551   6.524  24.624  1.00 79.36 LIG-0.06  A 
ATOM     32  CD1 PHE G   5      36.578   7.545  24.483  1.00 85.64 LIG 0.01  A 
ATOM     33  CE1 PHE G   5      35.542   7.684  25.398  1.00 88.71 LIG 0.00  A 
ATOM     34  CZ  PHE G   5      35.458   6.793  26.472  1.00 96.11 LIG 0.00  A 
ATOM     35  CE2 PHE G   5      36.403   5.766  26.618  1.00 91.53 LIG 0.00  A 
ATOM     36  CD2 PHE G   5      37.441   5.632  25.700  1.00 81.01 LIG 0.01  A 
ENDBRANCH 30 31
ENDBRANCH 29 30
BRANCH 29 37
ATOM     37  C   PHE G   5      38.897   8.287  21.879  1.00 74.26 LIG 0.24  C 
ATOM     38  N   PRO G   6      38.592   8.821  20.676  1.00 79.01 LIG-0.34  N 
ATOM     39  CD  PRO G   6      37.823   8.116  19.615  1.00 76.17 LIG 0.13  C 
ATOM     40  CA  PRO G   6      39.259  10.029  20.166  1.00 78.34 LIG 0.18  C 
ATOM     41  CG  PRO G   6      37.703   9.136  18.537  1.00 78.03 LIG 0.02  C 
ATOM     42  CB  PRO G   6      38.961   9.955  18.658  1.00 82.73 LIG 0.04  C 
ATOM     43 O    PHE G   5      39.714   8.794  22.658  1.00 61.78 LIG-0.27  OA
BRANCH 40 44
ATOM     44  C   PRO G   6      38.768  11.378  20.737  1.00 77.34 LIG 0.24  C 
ATOM     45 O    PRO G   6      39.184  12.414  20.248  1.00 92.50 LIG-0.27  OA
ATOM     46  N   ALA G   7      37.898  11.356  21.758  1.00 74.20 LIG-0.35  N 
ATOM     47 H    ALA G   7      37.396  10.681  21.937  1.00 74.20 LIG 0.16  HD
BRANCH 46 48
ATOM     48  CA  ALA G   7      37.716  12.504  22.686  1.00 71.75 LIG 0.16  C 
ATOM     49  CB  ALA G   7      39.031  12.836  23.391  1.00 70.01 LIG 0.04  C 
BRANCH 48 50
ATOM     50  C   ALA G   7      37.201  13.737  21.909  1.00 69.94 LIG 0.22  C 
ATOM     51 O    ALA G   7      35.986  14.055  21.955  1.00 56.97 LIG-0.29  OA
ENDBRANCH 48 50
ENDBRANCH 46 48
ENDBRANCH 40 44
ENDBRANCH 29 37
ENDBRANCH 3 29
TORSDOF 18
ENDMDL
MODEL 143
USER: ADFR SOLUTION from run 175
USER: SCORE 14.853216 LL:  -5.626 LR:  -9.977 RR:   0.000 FEB:  -4.607
USER: RMSD 5.755794
USER: SEED 174
USER: STATUS no improvement in best in 14 clusters for 5 generations
USER: GENES 20
USER: genes 0 Translation |==|  0.40975 0.52430 0.42883
USER: genes 1 Rotation |==|  0.07077 0.52421 0.33117 0.69149
USER: genes 2 Torsion [N]-C--CA-[N] |==|  0.86689
USER: genes 3 Torsion [C]-CA--CB-[CG] |==|  0.33636
USER: genes 4 Torsion [CA]-CB--CG-[CD1] |==|  0.69412
USER: genes 5 Torsion [C]-CA--N-[C] |==|  0.76278
USER: genes 6 Torsion [N]-C--CA-[N] |==|  0.88001
USER: genes 7 Torsion [C]-CA--CB-[CG1] |==|  0.39366
USER: genes 8 Torsion [CA]-CB--CG1-[CD1] |==|  0.03496
USER: genes 9 Torsion [C]-CA--N-[C] |==|  0.79584
USER: genes 10 Torsion [N]-C--CA-[N] |==|  0.22849
USER: genes 11 Torsion [C]-CA--CB-[CG] |==|  0.61393
USER: genes 12 Torsion [CA]-CB--CG-[OD1] |==|  0.36539
USER: genes 13 Torsion [C]-N--CA-[CB] |==|  0.85796
USER: genes 14 Torsion [N]-CA--CB-[CG] |==|  0.37473
USER: genes 15 Torsion [CA]-CB--CG-[CD1] |==|  0.75930
USER: genes 16 Torsion [N]-CA--C-[N] |==|  0.42569
USER: genes 17 Torsion [N]-CA--C-[O] |==|  0.07831
USER: genes 18 Torsion [C]-N--CA-[C] |==|  0.27864
USER: genes 19 Torsion [N]-CA--C-[O] |==|  0.50758
ROOT
ATOM      1  C   LEU G   4      38.470   6.855  21.512  1.00 61.38 LIG 0.24  C 
ATOM      2 O    LEU G   4      37.448   6.263  21.877  1.00 52.06 LIG-0.27  OA
ATOM      3  N   PHE G   5      39.314   7.475  22.317  1.00 60.80 LIG-0.35  N 
ATOM      4 H    PHE G   5      40.034   7.855  22.040  1.00 60.80 LIG 0.16  HD
ENDROOT
BRANCH 1 5
ATOM      5  CA  LEU G   4      38.835   6.958  20.061  1.00 58.56 LIG 0.18  C 
BRANCH 5 6
ATOM      6  CB  LEU G   4      40.025   6.034  19.816  1.00 61.47 LIG 0.04  C 
BRANCH 6 7
ATOM      7  CG  LEU G   4      39.773   4.960  18.780  1.00 62.80 LIG-0.02  C 
ATOM      8  CD1 LEU G   4      39.714   3.638  19.515  1.00 63.22 LIG 0.01  C 
ATOM      9  CD2 LEU G   4      38.470   5.284  18.049  1.00 64.86 LIG 0.01  C 
ENDBRANCH 6 7
ENDBRANCH 5 6
BRANCH 5 10
ATOM     10  N   LEU G   4      39.138   8.342  19.751  1.00 59.02 LIG-0.35  N 
ATOM     11 H    LEU G   4      39.972   8.549  19.793  1.00 59.02 LIG 0.16  HD
ATOM     12  C   ILE G   3      38.163   9.192  19.429  1.00 70.10 LIG 0.24  C 
ATOM     13 O    ILE G   3      37.003   8.807  19.163  1.00 64.55 LIG-0.27  OA
BRANCH 12 14
ATOM     14  CA  ILE G   3      38.545  10.696  19.400  1.00 67.83 LIG 0.18  C 
BRANCH 14 15
ATOM     15  CB  ILE G   3      39.278  11.062  18.070  1.00 66.94 LIG 0.01  C 
ATOM     16  CG2 ILE G   3      39.020   9.995  17.006  1.00 67.41 LIG 0.01  C 
BRANCH 15 17
ATOM     17  CG1 ILE G   3      38.865  12.462  17.537  1.00 59.79 LIG 0.00  C 
ATOM     18  CD1 ILE G   3      38.097  13.291  18.533  1.00 60.74 LIG 0.01  C 
ENDBRANCH 15 17
ENDBRANCH 14 15
BRANCH 14 19
ATOM     19  N   ILE G   3      39.370  11.019  20.553  1.00 79.60 LIG-0.34  N 
ATOM     20 H    ILE G   3      40.199  11.143  20.361  1.00 79.60 LIG 0.16  HD
ATOM     21  C   ASP G   2      38.889  11.115  21.796  1.00 93.07 LIG 0.26  C 
ATOM     22 O    ASP G   2      37.690  11.031  22.065  1.00 81.24 LIG-0.27  OA
BRANCH 21 23
ATOM     23  CA  ASP G   2      39.906  11.323  22.926  1.00 93.30 LIG 0.41  C 
ATOM     24  N   ASP G   2      40.246  12.772  22.995  1.00 94.60 LIG 0.61  N 
BRANCH 23 25
ATOM     25  CB  ASP G   2      39.372  10.839  24.283  1.00 96.36 LIG 0.16  C 
BRANCH 25 26
ATOM     26  CG  ASP G   2      39.727  11.778  25.415  1.00103.24 LIG 0.17  C 
ATOM     27 OD1  ASP G   2      38.834  12.134  26.210  1.00112.85 LIG-0.65  OA
ATOM     28 OD2  ASP G   2      40.902  12.161  25.520  1.00105.87 LIG-0.65  OA
ENDBRANCH 25 26
ENDBRANCH 23 25
ENDBRANCH 21 23
ENDBRANCH 14 19
ENDBRANCH 12 14
ENDBRANCH 5 10
ENDBRANCH 1 5
BRANCH 3 29
ATOM     29  CA  PHE G   5      39.120   7.579  23.735  1.00 70.05 LIG 0.18  C 
BRANCH 29 30
ATOM     30  CB  PHE G   5      37.708   8.113  24.053  1.00 73.20 LIG 0.07  C 
BRANCH 30 31
ATOM     31  CG  PHE G   5      37.018   7.336  25.164  1.00 79.36 LIG-0.06  A 
ATOM     32  CD1 PHE G   5      36.276   6.167  24.859  1.00 85.64 LIG 0.01  A 
ATOM     33  CE1 PHE G   5      35.649   5.431  25.856  1.00 88.71 LIG 0.00  A 
ATOM     34  CZ  PHE G   5      35.761   5.851  27.184  1.00 96.11 LIG 0.00  A 
ATOM     35  CE2 PHE G   5      36.504   6.997  27.507  1.00 91.53 LIG 0.00  A 
ATOM     36  CD2 PHE G   5      37.129   7.732  26.504  1.00 81.01 LIG 0.01  A 
ENDBRANCH 30 31
ENDBRANCH 29 30
BRANCH 29 37
ATOM     37  C   PHE G   5      39.402   6.191  24.297  1.00 74.26 LIG 0.24  C 
ATOM     38  N   PRO G   6      39.830   6.126  25.578  1.00 79.01 LIG-0.34  N 
ATOM     39  CD  PRO G   6      40.179   7.310  26.409  1.00 76.17 LIG 0.13  C 
ATOM     40  CA  PRO G   6      40.301   4.869  26.181  1.00 78.34 LIG 0.18  C 
ATOM     41  CG  PRO G   6      40.521   6.718  27.731  1.00 78.03 LIG 0.02  C 
ATOM     42  CB  PRO G   6      41.101   5.369  27.396  1.00 82.73 LIG 0.04  C 
ATOM     43 O    PHE G   5      39.326   5.202  23.557  1.00 61.78 LIG-0.27  OA
BRANCH 40 44
ATOM     44  C   PRO G   6      39.210   3.874  26.637  1.00 77.34 LIG 0.24  C 
ATOM     45 O    PRO G   6      38.134   3.873  26.065  1.00 92.50 LIG-0.27  OA
ATOM     46  N   ALA G   7      39.492   3.046  27.654  1.00 74.20 LIG-0.35  N 
ATOM     47 H    ALA G   7      40.294   2.839  27.887  1.00 74.20 LIG 0.16  HD
BRANCH 46 48
ATOM     48  CA  ALA G   7      38.439   2.401  28.484  1.00 71.75 LIG 0.16  C 
ATOM     49  CB  ALA G   7      37.130   3.186  28.391  1.00 70.01 LIG 0.04  C 
BRANCH 48 50
ATOM     50  C   ALA G   7      38.221   0.942  28.023  1.00 69.94 LIG 0.22  C 
ATOM     51 O    ALA G   7      37.334   0.232  28.561  1.00 56.97 LIG-0.29  OA
ENDBRANCH 48 50
ENDBRANCH 46 48
ENDBRANCH 40 44
ENDBRANCH 29 37
ENDBRANCH 3 29
TORSDOF 18
ENDMDL
MODEL 144
USER: ADFR SOLUTION from run 129
USER: SCORE 14.657151 LL:  -5.365 LR:  -9.977 RR:   0.000 FEB:  -4.607
USER: RMSD 5.483778
USER: SEED 128
USER: STATUS no improvement in best in 21 clusters for 5 generations
USER: GENES 20
USER: genes 0 Translation |==|  0.45335 0.53973 0.63558
USER: genes 1 Rotation |==|  0.46451 0.25854 0.54328 0.93424
USER: genes 2 Torsion [N]-C--CA-[N] |==|  0.47441
USER: genes 3 Torsion [C]-CA--CB-[CG] |==|  0.29284
USER: genes 4 Torsion [CA]-CB--CG-[CD1] |==|  0.35434
USER: genes 5 Torsion [C]-CA--N-[C] |==|  0.79077
USER: genes 6 Torsion [N]-C--CA-[N] |==|  0.93369
USER: genes 7 Torsion [C]-CA--CB-[CG1] |==|  0.45670
USER: genes 8 Torsion [CA]-CB--CG1-[CD1] |==|  0.40298
USER: genes 9 Torsion [C]-CA--N-[C] |==|  0.79323
USER: genes 10 Torsion [N]-C--CA-[N] |==|  0.82678
USER: genes 11 Torsion [C]-CA--CB-[CG] |==|  0.81161
USER: genes 12 Torsion [CA]-CB--CG-[OD1] |==|  0.92096
USER: genes 13 Torsion [C]-N--CA-[CB] |==|  0.50000
USER: genes 14 Torsion [N]-CA--CB-[CG] |==|  0.29690
USER: genes 15 Torsion [CA]-CB--CG-[CD1] |==|  0.77437
USER: genes 16 Torsion [N]-CA--C-[N] |==|  0.45053
USER: genes 17 Torsion [N]-CA--C-[O] |==|  0.78261
USER: genes 18 Torsion [C]-N--CA-[C] |==|  0.93710
USER: genes 19 Torsion [N]-CA--C-[O] |==|  0.50199
ROOT
ATOM      1  C   LEU G   4      39.189   7.284  24.923  1.00 61.38 LIG 0.24  C 
ATOM      2 O    LEU G   4      39.992   7.137  23.995  1.00 52.06 LIG-0.27  OA
ATOM      3  N   PHE G   5      39.266   6.674  26.093  1.00 60.80 LIG-0.35  N 
ATOM      4 H    PHE G   5      38.710   6.815  26.733  1.00 60.80 LIG 0.16  HD
ENDROOT
BRANCH 1 5
ATOM      5  CA  LEU G   4      37.989   8.173  24.785  1.00 58.56 LIG 0.18  C 
BRANCH 5 6
ATOM      6  CB  LEU G   4      36.750   7.282  24.775  1.00 61.47 LIG 0.04  C 
BRANCH 6 7
ATOM      7  CG  LEU G   4      35.953   7.315  26.060  1.00 62.80 LIG-0.02  C 
ATOM      8  CD1 LEU G   4      34.519   7.623  25.687  1.00 63.22 LIG 0.01  C 
ATOM      9  CD2 LEU G   4      36.100   5.963  26.758  1.00 64.86 LIG 0.01  C 
ENDBRANCH 6 7
ENDBRANCH 5 6
BRANCH 5 10
ATOM     10  N   LEU G   4      38.121   8.950  23.567  1.00 59.02 LIG-0.35  N 
ATOM     11 H    LEU G   4      37.623   8.690  22.916  1.00 59.02 LIG 0.16  HD
ATOM     12  C   ILE G   3      38.963   9.981  23.510  1.00 70.10 LIG 0.24  C 
ATOM     13 O    ILE G   3      39.500  10.462  24.533  1.00 64.55 LIG-0.27  OA
BRANCH 12 14
ATOM     14  CA  ILE G   3      39.246  10.561  22.098  1.00 67.83 LIG 0.18  C 
BRANCH 14 15
ATOM     15  CB  ILE G   3      38.386  11.838  21.835  1.00 66.94 LIG 0.01  C 
ATOM     16  CG2 ILE G   3      38.339  12.718  23.084  1.00 67.41 LIG 0.01  C 
BRANCH 15 17
ATOM     17  CG1 ILE G   3      38.908  12.658  20.622  1.00 59.79 LIG 0.00  C 
ATOM     18  CD1 ILE G   3      37.818  13.319  19.820  1.00 60.74 LIG 0.01  C 
ENDBRANCH 15 17
ENDBRANCH 14 15
BRANCH 14 19
ATOM     19  N   ILE G   3      38.990   9.547  21.087  1.00 79.60 LIG-0.34  N 
ATOM     20 H    ILE G   3      38.263   9.674  20.647  1.00 79.60 LIG 0.16  HD
ATOM     21  C   ASP G   2      39.807   8.514  20.862  1.00 93.07 LIG 0.26  C 
ATOM     22 O    ASP G   2      40.895   8.377  21.424  1.00 81.24 LIG-0.27  OA
BRANCH 21 23
ATOM     23  CA  ASP G   2      39.333   7.451  19.862  1.00 93.30 LIG 0.41  C 
ATOM     24  N   ASP G   2      38.087   6.828  20.393  1.00 94.60 LIG 0.61  N 
BRANCH 23 25
ATOM     25  CB  ASP G   2      39.077   8.041  18.467  1.00 96.36 LIG 0.16  C 
BRANCH 25 26
ATOM     26  CG  ASP G   2      37.893   8.982  18.441  1.00103.24 LIG 0.17  C 
ATOM     27 OD1  ASP G   2      36.964   8.811  19.256  1.00112.85 LIG-0.65  OA
ATOM     28 OD2  ASP G   2      37.886   9.903  17.610  1.00105.87 LIG-0.65  OA
ENDBRANCH 25 26
ENDBRANCH 23 25
ENDBRANCH 21 23
ENDBRANCH 14 19
ENDBRANCH 12 14
ENDBRANCH 5 10
ENDBRANCH 1 5
BRANCH 3 29
ATOM     29  CA  PHE G   5      40.283   5.714  26.417  1.00 70.05 LIG 0.18  C 
BRANCH 29 30
ATOM     30  CB  PHE G   5      40.096   5.187  27.855  1.00 73.20 LIG 0.07  C 
BRANCH 30 31
ATOM     31  CG  PHE G   5      39.568   3.761  27.898  1.00 79.36 LIG-0.06  A 
ATOM     32  CD1 PHE G   5      38.182   3.510  27.738  1.00 85.64 LIG 0.01  A 
ATOM     33  CE1 PHE G   5      37.677   2.217  27.760  1.00 88.71 LIG 0.00  A 
ATOM     34  CZ  PHE G   5      38.557   1.145  27.935  1.00 96.11 LIG 0.00  A 
ATOM     35  CE2 PHE G   5      39.935   1.373  28.078  1.00 91.53 LIG 0.00  A 
ATOM     36  CD2 PHE G   5      40.436   2.671  28.059  1.00 81.01 LIG 0.01  A 
ENDBRANCH 30 31
ENDBRANCH 29 30
BRANCH 29 37
ATOM     37  C   PHE G   5      40.196   4.636  25.342  1.00 74.26 LIG 0.24  C 
ATOM     38  N   PRO G   6      41.267   3.823  25.205  1.00 79.01 LIG-0.34  N 
ATOM     39  CD  PRO G   6      42.559   4.007  25.920  1.00 76.17 LIG 0.13  C 
ATOM     40  CA  PRO G   6      41.381   2.862  24.096  1.00 78.34 LIG 0.18  C 
ATOM     41  CG  PRO G   6      43.369   2.837  25.482  1.00 78.03 LIG 0.02  C 
ATOM     42  CB  PRO G   6      42.888   2.556  24.082  1.00 82.73 LIG 0.04  C 
ATOM     43 O    PHE G   5      39.217   4.600  24.587  1.00 61.78 LIG-0.27  OA
BRANCH 40 44
ATOM     44  C   PRO G   6      40.575   1.551  24.239  1.00 77.34 LIG 0.24  C 
ATOM     45 O    PRO G   6      41.007   0.667  24.958  1.00 92.50 LIG-0.27  OA
ATOM     46  N   ALA G   7      39.425   1.436  23.558  1.00 74.20 LIG-0.35  N 
ATOM     47 H    ALA G   7      38.974   2.111  23.274  1.00 74.20 LIG 0.16  HD
BRANCH 46 48
ATOM     48  CA  ALA G   7      38.814   0.121  23.226  1.00 71.75 LIG 0.16  C 
ATOM     49  CB  ALA G   7      38.137   0.177  21.856  1.00 70.01 LIG 0.04  C 
BRANCH 48 50
ATOM     50  C   ALA G   7      39.894  -0.985  23.243  1.00 69.94 LIG 0.22  C 
ATOM     51 O    ALA G   7      39.589  -2.175  22.974  1.00 56.97 LIG-0.29  OA
ENDBRANCH 48 50
ENDBRANCH 46 48
ENDBRANCH 40 44
ENDBRANCH 29 37
ENDBRANCH 3 29
TORSDOF 18
ENDMDL
