MODEL 1
USER: ADFR SOLUTION from run 151
USER: SCORE 17.133416 LL:  -4.044 LR: -14.142 RR:   0.000 FEB:  -8.176
USER: RMSD 9.001898
USER: SEED 150
USER: STATUS no improvement in best in 5 clusters for 5 generations
USER: GENES 22
USER: genes 0 Translation |==|  0.37854 0.56854 0.51951
USER: genes 1 Rotation |==|  0.62962 0.22854 0.10483 0.55783
USER: genes 2 Torsion [C]-CA--CB-[CG] |==|  0.19926
USER: genes 3 Torsion [CA]-CB--CG-[CD1] |==|  0.36953
USER: genes 4 Torsion [N]-CA--C-[N] |==|  0.42395
USER: genes 5 Torsion [N]-CA--C-[N] |==|  0.30103
USER: genes 6 Torsion [C]-N--CA-[C] |==|  0.80213
USER: genes 7 Torsion [N]-CA--C-[N] |==|  0.35879
USER: genes 8 Torsion [C]-N--CA-[CB] |==|  0.34068
USER: genes 9 Torsion [N]-CA--CB-[CG] |==|  0.84201
USER: genes 10 Torsion [CA]-CB--CG-[CD2] |==|  0.25083
USER: genes 11 Torsion [N]-CA--C-[O] |==|  0.90146
USER: genes 12 Torsion [N]-CA--CB-[CG] |==|  0.57494
USER: genes 13 Torsion [CA]-CB--CG-[CD2] |==|  0.70216
USER: genes 14 Torsion [CB]-CA--N-[C] |==|  0.52235
USER: genes 15 Torsion [N]-C--CA-[N] |==|  0.78693
USER: genes 16 Torsion [C]-CA--CB-[CG] |==|  0.43232
USER: genes 17 Torsion [CA]-CB--CG-[CD] |==|  0.15923
USER: genes 18 Torsion [CB]-CG--CD-[NE] |==|  0.11704
USER: genes 19 Torsion [CG]-CD--NE-[HE] |==|  0.96792
USER: genes 20 Torsion [C]-CA--N-[C] |==|  0.71730
USER: genes 21 Torsion [N]-C--CA-[CB] |==|  0.98966
ROOT
ATOM      1  CA  LEU G   4      37.869   6.624  23.798  1.00 72.45 LIG 0.18  C 
ENDROOT
BRANCH 1 2
ATOM      2  CB  LEU G   4      36.437   6.206  24.219  1.00 74.60 LIG 0.04  C 
BRANCH 2 3
ATOM      3  CG  LEU G   4      36.023   6.657  25.660  1.00 80.94 LIG-0.02  C 
ATOM      4  CD2 LEU G   4      36.128   5.544  26.718  1.00 76.26 LIG 0.01  C 
ATOM      5  CD1 LEU G   4      34.629   7.296  25.676  1.00 74.38 LIG 0.01  C 
ENDBRANCH 2 3
ENDBRANCH 1 2
BRANCH 1 6
ATOM      6  C   LEU G   4      38.990   5.830  24.528  1.00 69.99 LIG 0.24  C 
ATOM      7 O    LEU G   4      39.663   4.933  23.937  1.00 62.75 LIG-0.27  OA
ATOM      8  N   PRO G   5      39.244   6.213  25.806  1.00 68.53 LIG-0.34  N 
ATOM      9  CA  PRO G   5      40.221   5.445  26.554  1.00 66.41 LIG 0.18  C 
ATOM     10  CD  PRO G   5      38.806   7.413  26.559  1.00 67.94 LIG 0.13  C 
ATOM     11  CB  PRO G   5      40.320   6.211  27.899  1.00 68.06 LIG 0.04  C 
ATOM     12  CG  PRO G   5      39.916   7.614  27.564  1.00 67.97 LIG 0.02  C 
BRANCH 9 13
ATOM     13  C   PRO G   5      39.725   4.003  26.707  1.00 65.16 LIG 0.24  C 
ATOM     14  N   LEU G   6      40.354   3.072  26.000  1.00 58.40 LIG-0.35  N 
ATOM     15 H    LEU G   6      41.095   3.196  25.582  1.00 58.40 LIG 0.16  HD
ATOM     16 O    PRO G   5      38.770   3.746  27.460  1.00 57.12 LIG-0.27  OA
BRANCH 14 17
ATOM     17  CA  LEU G   6      39.804   1.723  25.881  1.00 60.31 LIG 0.18  C 
BRANCH 17 18
ATOM     18  C   LEU G   6      39.882   0.887  27.155  1.00 60.34 LIG 0.24  C 
ATOM     19 O    LEU G   6      40.963   0.778  27.707  1.00 72.64 LIG-0.27  OA
ATOM     20  N   LEU G   7      38.780   0.273  27.606  1.00 65.91 LIG-0.35  N 
ATOM     21 H    LEU G   7      38.040   0.237  27.168  1.00 65.91 LIG 0.16  HD
BRANCH 20 22
ATOM     22  CA  LEU G   7      38.741  -0.421  28.941  1.00 66.14 LIG 0.16  C 
BRANCH 22 23
ATOM     23  CB  LEU G   7      37.623   0.169  29.821  1.00 64.61 LIG 0.04  C 
BRANCH 23 24
ATOM     24  CG  LEU G   7      37.633   1.681  30.119  1.00 68.76 LIG-0.02  C 
ATOM     25  CD2 LEU G   7      36.832   2.468  29.059  1.00 64.31 LIG 0.01  C 
ATOM     26  CD1 LEU G   7      39.054   2.223  30.306  1.00 66.72 LIG 0.01  C 
ENDBRANCH 23 24
ENDBRANCH 22 23
BRANCH 22 27
ATOM     27  C   LEU G   7      38.605  -1.946  28.854  1.00 59.22 LIG 0.22  C 
ATOM     28 O    LEU G   7      37.926  -2.436  27.965  1.00 55.72 LIG-0.29  OA
ENDBRANCH 22 27
ENDBRANCH 20 22
ENDBRANCH 17 18
BRANCH 17 29
ATOM     29  CB  LEU G   6      40.423   0.981  24.670  1.00 54.67 LIG 0.04  C 
BRANCH 29 30
ATOM     30  CG  LEU G   6      39.410  -0.074  24.170  1.00 53.09 LIG-0.02  C 
ATOM     31  CD1 LEU G   6      39.162   0.117  22.697  1.00 49.97 LIG 0.01  C 
ATOM     32  CD2 LEU G   6      39.828  -1.506  24.513  1.00 51.63 LIG 0.01  C 
ENDBRANCH 29 30
ENDBRANCH 17 29
ENDBRANCH 14 17
ENDBRANCH 9 13
ENDBRANCH 1 6
BRANCH 1 33
ATOM     33  N   LEU G   4      38.046   6.653  22.338  1.00 70.21 LIG-0.35  N 
ATOM     34  C   ARG G   3      39.260   6.836  21.805  1.00 75.48 LIG 0.24  C 
ATOM     35 O    ARG G   3      40.271   7.063  22.526  1.00 65.52 LIG-0.27  OA
ATOM     36 H    LEU G   4      37.325   6.545  21.883  1.00 70.21 LIG 0.16  HD
BRANCH 34 37
ATOM     37  CA  ARG G   3      39.360   6.796  20.234  1.00 78.48 LIG 0.18  C 
BRANCH 37 38
ATOM     38  CB  ARG G   3      38.281   7.675  19.565  1.00 76.51 LIG 0.04  C 
BRANCH 38 39
ATOM     39  CG  ARG G   3      38.622   8.164  18.167  1.00 78.92 LIG 0.02  C 
BRANCH 39 40
ATOM     40  CD  ARG G   3      38.918   7.011  17.204  1.00 76.70 LIG 0.14  C 
BRANCH 40 41
ATOM     41  NE  ARG G   3      37.998   5.851  17.324  1.00 80.12 LIG-0.23  N 
ATOM     42 HE   ARG G   3      37.478   5.840  18.009  1.00 80.12 LIG 0.18  HD
ATOM     43  CZ  ARG G   3      37.894   4.812  16.469  1.00 82.69 LIG 0.67  C 
ATOM     44  NH1 ARG G   3      38.672   4.672  15.383  1.00 73.81 LIG-0.23  N 
ATOM     45  NH2 ARG G   3      36.998   3.863  16.720  1.00 84.58 LIG-0.23  N 
ATOM     46 1HH1 ARG G   3      39.273   5.261  15.205  1.00 73.81 LIG 0.17  HD
ATOM     47 2HH1 ARG G   3      38.570   3.992  14.865  1.00 73.81 LIG 0.17  HD
ATOM     48 2HH2 ARG G   3      36.919   3.194  16.186  1.00 84.58 LIG 0.17  HD
ATOM     49 1HH2 ARG G   3      36.498   3.918  17.418  1.00 84.58 LIG 0.17  HD
ENDBRANCH 40 41
ENDBRANCH 39 40
ENDBRANCH 38 39
ENDBRANCH 37 38
BRANCH 37 50
ATOM     50  N   ARG G   3      39.306   5.408  19.688  1.00 95.22 LIG-0.35  N 
ATOM     51  C   PRO G   2      40.393   4.732  19.277  1.00105.18 LIG 0.25  C 
ATOM     52 O    PRO G   2      41.518   5.245  19.235  1.00111.30 LIG-0.27  OA
ATOM     53 H    ARG G   3      38.511   5.079  19.662  1.00 95.22 LIG 0.16  HD
BRANCH 51 54
ATOM     54  CA  PRO G   2      40.203   3.248  18.831  1.00104.44 LIG 0.35  C 
ATOM     55  N   PRO G   2      40.968   2.276  19.623  1.00103.34 LIG 0.32  N 
ATOM     56  CD  PRO G   2      40.246   0.991  19.774  1.00102.42 LIG 0.32  C 
ATOM     57  CG  PRO G   2      38.845   1.292  19.274  1.00 98.38 LIG 0.04  C 
ATOM     58  CB  PRO G   2      38.748   2.780  19.038  1.00102.80 LIG 0.05  C 
ENDBRANCH 51 54
ENDBRANCH 37 50
ENDBRANCH 34 37
ENDBRANCH 1 33
TORSDOF 20
ENDMDL
MODEL 2
USER: ADFR SOLUTION from run 151
USER: SCORE 17.308961 LL:  -4.607 LR: -13.774 RR:   0.000 FEB:  -7.808
USER: RMSD 9.363667
USER: SEED 150
USER: STATUS no improvement in best in 5 clusters for 5 generations
USER: GENES 22
USER: genes 0 Translation |==|  0.37623 0.56868 0.51521
USER: genes 1 Rotation |==|  0.61846 0.23257 0.09962 0.56433
USER: genes 2 Torsion [C]-CA--CB-[CG] |==|  0.20111
USER: genes 3 Torsion [CA]-CB--CG-[CD1] |==|  0.36907
USER: genes 4 Torsion [N]-CA--C-[N] |==|  0.41721
USER: genes 5 Torsion [N]-CA--C-[N] |==|  0.30848
USER: genes 6 Torsion [C]-N--CA-[C] |==|  0.81035
USER: genes 7 Torsion [N]-CA--C-[N] |==|  0.35691
USER: genes 8 Torsion [C]-N--CA-[CB] |==|  0.34117
USER: genes 9 Torsion [N]-CA--CB-[CG] |==|  0.84093
USER: genes 10 Torsion [CA]-CB--CG-[CD2] |==|  0.25931
USER: genes 11 Torsion [N]-CA--C-[O] |==|  0.90703
USER: genes 12 Torsion [N]-CA--CB-[CG] |==|  0.58236
USER: genes 13 Torsion [CA]-CB--CG-[CD2] |==|  0.67793
USER: genes 14 Torsion [CB]-CA--N-[C] |==|  0.51667
USER: genes 15 Torsion [N]-C--CA-[N] |==|  0.79202
USER: genes 16 Torsion [C]-CA--CB-[CG] |==|  0.23743
USER: genes 17 Torsion [CA]-CB--CG-[CD] |==|  0.93282
USER: genes 18 Torsion [CB]-CG--CD-[NE] |==|  0.65238
USER: genes 19 Torsion [CG]-CD--NE-[HE] |==|  0.75924
USER: genes 20 Torsion [C]-CA--N-[C] |==|  0.68699
USER: genes 21 Torsion [N]-C--CA-[CB] |==|  0.99291
ROOT
ATOM      1  CA  LEU G   4      37.831   6.628  23.715  1.00 72.45 LIG 0.18  C 
ENDROOT
BRANCH 1 2
ATOM      2  CB  LEU G   4      36.424   6.207  24.211  1.00 74.60 LIG 0.04  C 
BRANCH 2 3
ATOM      3  CG  LEU G   4      36.088   6.655  25.673  1.00 80.94 LIG-0.02  C 
ATOM      4  CD2 LEU G   4      36.246   5.540  26.721  1.00 76.26 LIG 0.01  C 
ATOM      5  CD1 LEU G   4      34.696   7.296  25.763  1.00 74.38 LIG 0.01  C 
ENDBRANCH 2 3
ENDBRANCH 1 2
BRANCH 1 6
ATOM      6  C   LEU G   4      38.990   5.823  24.370  1.00 69.99 LIG 0.24  C 
ATOM      7 O    LEU G   4      39.596   4.902  23.746  1.00 62.75 LIG-0.27  OA
ATOM      8  N   PRO G   5      39.351   6.224  25.616  1.00 68.53 LIG-0.34  N 
ATOM      9  CA  PRO G   5      40.368   5.449  26.300  1.00 66.41 LIG 0.18  C 
ATOM     10  CD  PRO G   5      38.998   7.446  26.377  1.00 67.94 LIG 0.13  C 
ATOM     11  CB  PRO G   5      40.588   6.237  27.618  1.00 68.06 LIG 0.04  C 
ATOM     12  CG  PRO G   5      40.186   7.642  27.288  1.00 67.97 LIG 0.02  C 
BRANCH 9 13
ATOM     13  C   PRO G   5      39.857   4.021  26.520  1.00 65.16 LIG 0.24  C 
ATOM     14  N   LEU G   6      40.447   3.056  25.825  1.00 58.40 LIG-0.35  N 
ATOM     15 H    LEU G   6      41.175   3.155  25.378  1.00 58.40 LIG 0.16  HD
ATOM     16 O    PRO G   5      38.924   3.805  27.314  1.00 57.12 LIG-0.27  OA
BRANCH 14 17
ATOM     17  CA  LEU G   6      39.874   1.713  25.772  1.00 60.31 LIG 0.18  C 
BRANCH 17 18
ATOM     18  C   LEU G   6      39.920   0.946  27.090  1.00 60.34 LIG 0.24  C 
ATOM     19 O    LEU G   6      40.995   0.837  27.655  1.00 72.64 LIG-0.27  OA
ATOM     20  N   LEU G   7      38.798   0.388  27.565  1.00 65.91 LIG-0.35  N 
ATOM     21 H    LEU G   7      38.060   0.350  27.124  1.00 65.91 LIG 0.16  HD
BRANCH 20 22
ATOM     22  CA  LEU G   7      38.732  -0.230  28.936  1.00 66.14 LIG 0.16  C 
BRANCH 22 23
ATOM     23  CB  LEU G   7      37.623   0.435  29.772  1.00 64.61 LIG 0.04  C 
BRANCH 23 24
ATOM     24  CG  LEU G   7      37.674   1.960  29.995  1.00 68.76 LIG-0.02  C 
ATOM     25  CD2 LEU G   7      36.844   2.711  28.931  1.00 64.31 LIG 0.01  C 
ATOM     26  CD1 LEU G   7      39.113   2.480  30.097  1.00 66.72 LIG 0.01  C 
ENDBRANCH 23 24
ENDBRANCH 22 23
BRANCH 22 27
ATOM     27  C   LEU G   7      38.558  -1.754  28.931  1.00 59.22 LIG 0.22  C 
ATOM     28 O    LEU G   7      37.903  -2.278  28.042  1.00 55.72 LIG-0.29  OA
ENDBRANCH 22 27
ENDBRANCH 20 22
ENDBRANCH 17 18
BRANCH 17 29
ATOM     29  CB  LEU G   6      40.494   0.896  24.611  1.00 54.67 LIG 0.04  C 
BRANCH 29 30
ATOM     30  CG  LEU G   6      39.443  -0.122  24.110  1.00 53.09 LIG-0.02  C 
ATOM     31  CD1 LEU G   6      39.101   0.167  22.672  1.00 49.97 LIG 0.01  C 
ATOM     32  CD2 LEU G   6      39.873  -1.575  24.330  1.00 51.63 LIG 0.01  C 
ENDBRANCH 29 30
ENDBRANCH 17 29
ENDBRANCH 14 17
ENDBRANCH 9 13
ENDBRANCH 1 6
BRANCH 1 33
ATOM     33  N   LEU G   4      37.925   6.675  22.247  1.00 70.21 LIG-0.35  N 
ATOM     34  C   ARG G   3      39.100   6.903  21.649  1.00 75.48 LIG 0.24  C 
ATOM     35 O    ARG G   3      40.142   7.158  22.315  1.00 65.52 LIG-0.27  OA
ATOM     36 H    LEU G   4      37.184   6.546  21.832  1.00 70.21 LIG 0.16  HD
BRANCH 34 37
ATOM     37  CA  ARG G   3      39.114   6.878  20.074  1.00 78.48 LIG 0.18  C 
BRANCH 37 38
ATOM     38  CB  ARG G   3      37.998   7.762  19.476  1.00 76.51 LIG 0.04  C 
BRANCH 38 39
ATOM     39  CG  ARG G   3      38.355   9.231  19.316  1.00 78.92 LIG 0.02  C 
BRANCH 39 40
ATOM     40  CD  ARG G   3      39.462   9.668  20.279  1.00 76.70 LIG 0.14  C 
BRANCH 40 41
ATOM     41  NE  ARG G   3      39.118  10.831  21.135  1.00 80.12 LIG-0.23  N 
ATOM     42 HE   ARG G   3      39.266  11.611  20.804  1.00 80.12 LIG 0.18  HD
ATOM     43  CZ  ARG G   3      38.597  10.791  22.380  1.00 82.69 LIG 0.67  C 
ATOM     44  NH1 ARG G   3      38.358   9.646  23.041  1.00 73.81 LIG-0.23  N 
ATOM     45  NH2 ARG G   3      38.330  11.936  22.999  1.00 84.58 LIG-0.23  N 
ATOM     46 1HH1 ARG G   3      38.538   8.891  22.672  1.00 73.81 LIG 0.17  HD
ATOM     47 2HH1 ARG G   3      38.024   9.669  23.834  1.00 73.81 LIG 0.17  HD
ATOM     48 2HH2 ARG G   3      37.998  11.928  23.793  1.00 84.58 LIG 0.17  HD
ATOM     49 1HH2 ARG G   3      38.490  12.684  22.607  1.00 84.58 LIG 0.17  HD
ENDBRANCH 40 41
ENDBRANCH 39 40
ENDBRANCH 38 39
ENDBRANCH 37 38
BRANCH 37 50
ATOM     50  N   ARG G   3      39.031   5.496  19.519  1.00 95.22 LIG-0.35  N 
ATOM     51  C   PRO G   2      40.039   4.906  18.852  1.00105.18 LIG 0.25  C 
ATOM     52 O    PRO G   2      41.086   5.500  18.567  1.00111.30 LIG-0.27  OA
ATOM     53 H    ARG G   3      38.277   5.110  19.666  1.00 95.22 LIG 0.16  HD
BRANCH 51 54
ATOM     54  CA  PRO G   2      39.854   3.416  18.422  1.00104.44 LIG 0.35  C 
ATOM     55  N   PRO G   2      40.830   2.491  19.012  1.00103.34 LIG 0.32  N 
ATOM     56  CD  PRO G   2      40.239   1.159  19.282  1.00102.42 LIG 0.32  C 
ATOM     57  CG  PRO G   2      38.748   1.369  19.094  1.00 98.38 LIG 0.04  C 
ATOM     58  CB  PRO G   2      38.509   2.849  18.918  1.00102.80 LIG 0.05  C 
ENDBRANCH 51 54
ENDBRANCH 37 50
ENDBRANCH 34 37
ENDBRANCH 1 33
TORSDOF 20
ENDMDL
MODEL 3
USER: ADFR SOLUTION from run 194
USER: SCORE 16.039622 LL:  -3.604 LR: -13.675 RR:   0.000 FEB:  -7.709
USER: RMSD 8.763807
USER: SEED 193
USER: STATUS no improvement in best in 11 clusters for 5 generations
USER: GENES 22
USER: genes 0 Translation |==|  0.38556 0.59148 0.54366
USER: genes 1 Rotation |==|  0.69605 0.24219 0.13087 0.59401
USER: genes 2 Torsion [C]-CA--CB-[CG] |==|  0.19315
USER: genes 3 Torsion [CA]-CB--CG-[CD1] |==|  0.33261
USER: genes 4 Torsion [N]-CA--C-[N] |==|  0.43521
USER: genes 5 Torsion [N]-CA--C-[N] |==|  0.97154
USER: genes 6 Torsion [C]-N--CA-[C] |==|  0.19289
USER: genes 7 Torsion [N]-CA--C-[N] |==|  0.84571
USER: genes 8 Torsion [C]-N--CA-[CB] |==|  0.13362
USER: genes 9 Torsion [N]-CA--CB-[CG] |==|  0.63997
USER: genes 10 Torsion [CA]-CB--CG-[CD2] |==|  0.92024
USER: genes 11 Torsion [N]-CA--C-[O] |==|  0.22719
USER: genes 12 Torsion [N]-CA--CB-[CG] |==|  0.57916
USER: genes 13 Torsion [CA]-CB--CG-[CD2] |==|  0.69603
USER: genes 14 Torsion [CB]-CA--N-[C] |==|  0.79457
USER: genes 15 Torsion [N]-C--CA-[N] |==|  0.55491
USER: genes 16 Torsion [C]-CA--CB-[CG] |==|  0.43856
USER: genes 17 Torsion [CA]-CB--CG-[CD] |==|  0.18063
USER: genes 18 Torsion [CB]-CG--CD-[NE] |==|  0.10382
USER: genes 19 Torsion [CG]-CD--NE-[HE] |==|  0.00042
USER: genes 20 Torsion [C]-CA--N-[C] |==|  0.76047
USER: genes 21 Torsion [N]-C--CA-[CB] |==|  0.94084
ROOT
ATOM      1  CA  LEU G   4      37.985   7.278  24.269  1.00 72.45 LIG 0.18  C 
ENDROOT
BRANCH 1 2
ATOM      2  CB  LEU G   4      36.680   6.471  24.492  1.00 74.60 LIG 0.04  C 
BRANCH 2 3
ATOM      3  CG  LEU G   4      35.970   6.745  25.860  1.00 80.94 LIG-0.02  C 
ATOM      4  CD2 LEU G   4      35.961   5.535  26.813  1.00 76.26 LIG 0.01  C 
ATOM      5  CD1 LEU G   4      34.552   7.296  25.663  1.00 74.38 LIG 0.01  C 
ENDBRANCH 2 3
ENDBRANCH 1 2
BRANCH 1 6
ATOM      6  C   LEU G   4      39.158   6.832  25.189  1.00 69.99 LIG 0.24  C 
ATOM      7 O    LEU G   4      40.172   6.229  24.728  1.00 62.75 LIG-0.27  OA
ATOM      8  N   PRO G   5      39.053   7.197  26.492  1.00 68.53 LIG-0.34  N 
ATOM      9  CA  PRO G   5      40.080   6.728  27.403  1.00 66.41 LIG 0.18  C 
ATOM     10  CD  PRO G   5      38.133   8.150  27.157  1.00 67.94 LIG 0.13  C 
ATOM     11  CB  PRO G   5      39.697   7.403  28.746  1.00 68.06 LIG 0.04  C 
ATOM     12  CG  PRO G   5      38.930   8.627  28.348  1.00 67.97 LIG 0.02  C 
BRANCH 9 13
ATOM     13  C   PRO G   5      40.052   5.197  27.459  1.00 65.16 LIG 0.24  C 
ATOM     14  N   LEU G   6      39.023   4.592  26.879  1.00 58.40 LIG-0.35  N 
ATOM     15 H    LEU G   6      38.458   4.982  26.361  1.00 58.40 LIG 0.16  HD
ATOM     16 O    PRO G   5      40.962   4.575  28.035  1.00 57.12 LIG-0.27  OA
BRANCH 14 17
ATOM     17  CA  LEU G   6      38.774   3.168  27.093  1.00 60.31 LIG 0.18  C 
BRANCH 17 18
ATOM     18  C   LEU G   6      38.311   2.803  28.501  1.00 60.34 LIG 0.24  C 
ATOM     19 O    LEU G   6      37.248   2.220  28.624  1.00 72.64 LIG-0.27  OA
ATOM     20  N   LEU G   7      39.060   3.163  29.552  1.00 65.91 LIG-0.35  N 
ATOM     21 H    LEU G   7      39.747   3.678  29.495  1.00 65.91 LIG 0.16  HD
BRANCH 20 22
ATOM     22  CA  LEU G   7      38.757   2.689  30.948  1.00 66.14 LIG 0.16  C 
BRANCH 22 23
ATOM     23  CB  LEU G   7      38.521   1.167  30.959  1.00 64.61 LIG 0.04  C 
BRANCH 23 24
ATOM     24  CG  LEU G   7      37.256   0.617  31.647  1.00 68.76 LIG-0.02  C 
ATOM     25  CD2 LEU G   7      36.792   1.542  32.793  1.00 64.31 LIG 0.01  C 
ATOM     26  CD1 LEU G   7      37.430  -0.838  32.097  1.00 66.72 LIG 0.01  C 
ENDBRANCH 23 24
ENDBRANCH 22 23
BRANCH 22 27
ATOM     27  C   LEU G   7      39.817   3.073  31.987  1.00 59.22 LIG 0.22  C 
ATOM     28 O    LEU G   7      39.796   4.192  32.477  1.00 55.72 LIG-0.29  OA
ENDBRANCH 22 27
ENDBRANCH 20 22
ENDBRANCH 17 18
BRANCH 17 29
ATOM     29  CB  LEU G   6      39.997   2.324  26.655  1.00 54.67 LIG 0.04  C 
BRANCH 29 30
ATOM     30  CG  LEU G   6      39.498   0.930  26.211  1.00 53.09 LIG-0.02  C 
ATOM     31  CD1 LEU G   6      39.964   0.646  24.807  1.00 49.97 LIG 0.01  C 
ATOM     32  CD2 LEU G   6      39.886  -0.180  27.192  1.00 51.63 LIG 0.01  C 
ENDBRANCH 29 30
ENDBRANCH 17 29
ENDBRANCH 14 17
ENDBRANCH 9 13
ENDBRANCH 1 6
BRANCH 1 33
ATOM     33  N   LEU G   4      38.368   7.358  22.852  1.00 70.21 LIG-0.35  N 
ATOM     34  C   ARG G   3      38.882   6.293  22.226  1.00 75.48 LIG 0.24  C 
ATOM     35 O    ARG G   3      39.123   5.217  22.842  1.00 65.52 LIG-0.27  OA
ATOM     36 H    LEU G   4      38.235   8.123  22.482  1.00 70.21 LIG 0.16  HD
BRANCH 34 37
ATOM     37  CA  ARG G   3      39.210   6.457  20.694  1.00 78.48 LIG 0.18  C 
BRANCH 37 38
ATOM     38  CB  ARG G   3      38.185   7.365  19.980  1.00 76.51 LIG 0.04  C 
BRANCH 38 39
ATOM     39  CG  ARG G   3      38.675   8.001  18.689  1.00 78.92 LIG 0.02  C 
BRANCH 39 40
ATOM     40  CD  ARG G   3      38.957   6.961  17.600  1.00 76.70 LIG 0.14  C 
BRANCH 40 41
ATOM     41  NE  ARG G   3      38.005   5.821  17.569  1.00 80.12 LIG-0.23  N 
ATOM     42 HE   ARG G   3      37.374   5.829  18.153  1.00 80.12 LIG 0.18  HD
ATOM     43  CZ  ARG G   3      38.027   4.774  16.718  1.00 82.69 LIG 0.67  C 
ATOM     44  NH1 ARG G   3      38.979   4.605  15.785  1.00 73.81 LIG-0.23  N 
ATOM     45  NH2 ARG G   3      37.081   3.847  16.818  1.00 84.58 LIG-0.23  N 
ATOM     46 1HH1 ARG G   3      39.614   5.180  15.709  1.00 73.81 LIG 0.17  HD
ATOM     47 2HH1 ARG G   3      38.953   3.921  15.263  1.00 73.81 LIG 0.17  HD
ATOM     48 2HH2 ARG G   3      37.081   3.173  16.284  1.00 84.58 LIG 0.17  HD
ATOM     49 1HH2 ARG G   3      36.469   3.921  17.418  1.00 84.58 LIG 0.17  HD
ENDBRANCH 40 41
ENDBRANCH 39 40
ENDBRANCH 38 39
ENDBRANCH 37 38
BRANCH 37 50
ATOM     50  N   ARG G   3      39.321   5.148  19.985  1.00 95.22 LIG-0.35  N 
ATOM     51  C   PRO G   2      40.459   4.433  19.929  1.00105.18 LIG 0.25  C 
ATOM     52 O    PRO G   2      41.530   4.850  20.385  1.00111.30 LIG-0.27  OA
ATOM     53 H    ARG G   3      38.588   4.894  19.615  1.00 95.22 LIG 0.16  HD
BRANCH 51 54
ATOM     54  CA  PRO G   2      40.403   3.030  19.247  1.00104.44 LIG 0.35  C 
ATOM     55  N   PRO G   2      41.137   1.979  19.964  1.00103.34 LIG 0.32  N 
ATOM     56  CD  PRO G   2      40.479   0.657  19.838  1.00102.42 LIG 0.32  C 
ATOM     57  CG  PRO G   2      39.123   0.974  19.234  1.00 98.38 LIG 0.04  C 
ATOM     58  CB  PRO G   2      38.965   2.475  19.215  1.00102.80 LIG 0.05  C 
ENDBRANCH 51 54
ENDBRANCH 37 50
ENDBRANCH 34 37
ENDBRANCH 1 33
TORSDOF 20
ENDMDL
MODEL 4
USER: ADFR SOLUTION from run 181
USER: SCORE 17.178854 LL:  -4.216 LR: -13.500 RR:   0.000 FEB:  -7.534
USER: RMSD 10.320303
USER: SEED 180
USER: STATUS no improvement in best in 3 clusters for 5 generations
USER: GENES 22
USER: genes 0 Translation |==|  0.36913 0.57775 0.55513
USER: genes 1 Rotation |==|  0.71435 0.34377 0.07903 0.54932
USER: genes 2 Torsion [C]-CA--CB-[CG] |==|  0.23873
USER: genes 3 Torsion [CA]-CB--CG-[CD1] |==|  0.82300
USER: genes 4 Torsion [N]-CA--C-[N] |==|  0.33891
USER: genes 5 Torsion [N]-CA--C-[N] |==|  0.26708
USER: genes 6 Torsion [C]-N--CA-[C] |==|  0.84657
USER: genes 7 Torsion [N]-CA--C-[N] |==|  0.36709
USER: genes 8 Torsion [C]-N--CA-[CB] |==|  0.30893
USER: genes 9 Torsion [N]-CA--CB-[CG] |==|  0.88040
USER: genes 10 Torsion [CA]-CB--CG-[CD2] |==|  0.60907
USER: genes 11 Torsion [N]-CA--C-[O] |==|  0.04615
USER: genes 12 Torsion [N]-CA--CB-[CG] |==|  0.55325
USER: genes 13 Torsion [CA]-CB--CG-[CD2] |==|  0.72039
USER: genes 14 Torsion [CB]-CA--N-[C] |==|  0.81650
USER: genes 15 Torsion [N]-C--CA-[N] |==|  0.04832
USER: genes 16 Torsion [C]-CA--CB-[CG] |==|  0.32656
USER: genes 17 Torsion [CA]-CB--CG-[CD] |==|  0.76700
USER: genes 18 Torsion [CB]-CG--CD-[NE] |==|  0.40298
USER: genes 19 Torsion [CG]-CD--NE-[HE] |==|  0.77420
USER: genes 20 Torsion [C]-CA--N-[C] |==|  0.60556
USER: genes 21 Torsion [N]-C--CA-[CB] |==|  0.85678
ROOT
ATOM      1  CA  LEU G   4      37.714   6.887  24.493  1.00 72.45 LIG 0.18  C 
ENDROOT
BRANCH 1 2
ATOM      2  CB  LEU G   4      36.431   6.035  24.311  1.00 74.60 LIG 0.04  C 
BRANCH 2 3
ATOM      3  CG  LEU G   4      35.524   5.943  25.584  1.00 80.94 LIG-0.02  C 
ATOM      4  CD2 LEU G   4      34.951   7.296  26.043  1.00 76.26 LIG 0.01  C 
ATOM      5  CD1 LEU G   4      36.241   5.233  26.740  1.00 74.38 LIG 0.01  C 
ENDBRANCH 2 3
ENDBRANCH 1 2
BRANCH 1 6
ATOM      6  C   LEU G   4      38.913   6.090  25.083  1.00 69.99 LIG 0.24  C 
ATOM      7 O    LEU G   4      39.578   5.272  24.382  1.00 62.75 LIG-0.27  OA
ATOM      8  N   PRO G   5      39.238   6.387  26.368  1.00 68.53 LIG-0.34  N 
ATOM      9  CA  PRO G   5      40.293   5.609  26.988  1.00 66.41 LIG 0.18  C 
ATOM     10  CD  PRO G   5      38.806   7.505  27.240  1.00 67.94 LIG 0.13  C 
ATOM     11  CB  PRO G   5      40.454   6.274  28.380  1.00 68.06 LIG 0.04  C 
ATOM     12  CG  PRO G   5      39.972   7.679  28.183  1.00 67.97 LIG 0.02  C 
BRANCH 9 13
ATOM     13  C   PRO G   5      39.866   4.138  27.059  1.00 65.16 LIG 0.24  C 
ATOM     14  N   LEU G   6      40.289   3.340  26.087  1.00 58.40 LIG-0.35  N 
ATOM     15 H    LEU G   6      40.891   3.553  25.511  1.00 58.40 LIG 0.16  HD
ATOM     16 O    PRO G   5      39.149   3.740  27.994  1.00 57.12 LIG-0.27  OA
BRANCH 14 17
ATOM     17  CA  LEU G   6      39.737   1.997  25.927  1.00 60.31 LIG 0.18  C 
BRANCH 17 18
ATOM     18  C   LEU G   6      39.830   1.115  27.169  1.00 60.34 LIG 0.24  C 
ATOM     19 O    LEU G   6      40.906   1.030  27.735  1.00 72.64 LIG-0.27  OA
ATOM     20  N   LEU G   7      38.748   0.438  27.576  1.00 65.91 LIG-0.35  N 
ATOM     21 H    LEU G   7      38.018   0.389  27.124  1.00 65.91 LIG 0.16  HD
BRANCH 20 22
ATOM     22  CA  LEU G   7      38.718  -0.309  28.882  1.00 66.14 LIG 0.16  C 
BRANCH 22 23
ATOM     23  CB  LEU G   7      37.759   0.379  29.872  1.00 64.61 LIG 0.04  C 
BRANCH 23 24
ATOM     24  CG  LEU G   7      37.783   1.916  29.983  1.00 68.76 LIG-0.02  C 
ATOM     25  CD2 LEU G   7      37.623   2.376  31.449  1.00 64.31 LIG 0.01  C 
ATOM     26  CD1 LEU G   7      36.770   2.579  29.043  1.00 66.72 LIG 0.01  C 
ENDBRANCH 23 24
ENDBRANCH 22 23
BRANCH 22 27
ATOM     27  C   LEU G   7      38.373  -1.797  28.749  1.00 59.22 LIG 0.22  C 
ATOM     28 O    LEU G   7      38.453  -2.333  27.654  1.00 55.72 LIG-0.29  OA
ENDBRANCH 22 27
ENDBRANCH 20 22
ENDBRANCH 17 18
BRANCH 17 29
ATOM     29  CB  LEU G   6      40.340   1.299  24.682  1.00 54.67 LIG 0.04  C 
BRANCH 29 30
ATOM     30  CG  LEU G   6      39.413   0.131  24.276  1.00 53.09 LIG-0.02  C 
ATOM     31  CD1 LEU G   6      39.166   0.171  22.790  1.00 49.97 LIG 0.01  C 
ATOM     32  CD2 LEU G   6      39.931  -1.230  24.747  1.00 51.63 LIG 0.01  C 
ENDBRANCH 29 30
ENDBRANCH 17 29
ENDBRANCH 14 17
ENDBRANCH 9 13
ENDBRANCH 1 6
BRANCH 1 33
ATOM     33  N   LEU G   4      38.070   7.642  23.282  1.00 70.21 LIG-0.35  N 
ATOM     34  C   ARG G   3      38.448   7.003  22.169  1.00 75.48 LIG 0.24  C 
ATOM     35 O    ARG G   3      38.583   5.748  22.142  1.00 65.52 LIG-0.27  OA
ATOM     36 H    LEU G   4      38.014   8.497  23.358  1.00 70.21 LIG 0.16  HD
BRANCH 34 37
ATOM     37  CA  ARG G   3      38.756   7.893  20.907  1.00 78.48 LIG 0.18  C 
BRANCH 37 38
ATOM     38  CB  ARG G   3      39.953   7.348  20.097  1.00 76.51 LIG 0.04  C 
BRANCH 38 39
ATOM     39  CG  ARG G   3      39.628   6.916  18.676  1.00 78.92 LIG 0.02  C 
BRANCH 39 40
ATOM     40  CD  ARG G   3      39.079   5.488  18.615  1.00 76.70 LIG 0.14  C 
BRANCH 40 41
ATOM     41  NE  ARG G   3      38.045   5.264  17.573  1.00 80.12 LIG-0.23  N 
ATOM     42 HE   ARG G   3      37.243   5.505  17.767  1.00 80.12 LIG 0.18  HD
ATOM     43  CZ  ARG G   3      38.235   4.722  16.351  1.00 82.69 LIG 0.67  C 
ATOM     44  NH1 ARG G   3      39.423   4.259  15.928  1.00 73.81 LIG-0.23  N 
ATOM     45  NH2 ARG G   3      37.196   4.613  15.531  1.00 84.58 LIG-0.23  N 
ATOM     46 1HH1 ARG G   3      40.110   4.299  16.445  1.00 73.81 LIG 0.17  HD
ATOM     47 2HH1 ARG G   3      39.498   3.921  15.140  1.00 73.81 LIG 0.17  HD
ATOM     48 2HH2 ARG G   3      37.299   4.270  14.749  1.00 84.58 LIG 0.17  HD
ATOM     49 1HH2 ARG G   3      36.420   4.886  15.781  1.00 84.58 LIG 0.17  HD
ENDBRANCH 40 41
ENDBRANCH 39 40
ENDBRANCH 38 39
ENDBRANCH 37 38
BRANCH 37 50
ATOM     50  N   ARG G   3      38.976   9.327  21.252  1.00 95.22 LIG-0.35  N 
ATOM     51  C   PRO G   2      38.542  10.346  20.490  1.00105.18 LIG 0.25  C 
ATOM     52 O    PRO G   2      38.002  10.172  19.391  1.00111.30 LIG-0.27  OA
ATOM     53 H    ARG G   3      39.408   9.442  21.988  1.00 95.22 LIG 0.16  HD
BRANCH 51 54
ATOM     54  CA  PRO G   2      38.747  11.797  21.029  1.00104.44 LIG 0.35  C 
ATOM     55  N   PRO G   2      37.998  12.826  20.296  1.00103.34 LIG 0.32  N 
ATOM     56  CD  PRO G   2      37.546  13.923  21.184  1.00102.42 LIG 0.32  C 
ATOM     57  CG  PRO G   2      37.803  13.397  22.584  1.00 98.38 LIG 0.04  C 
ATOM     58  CB  PRO G   2      38.206  11.947  22.465  1.00102.80 LIG 0.05  C 
ENDBRANCH 51 54
ENDBRANCH 37 50
ENDBRANCH 34 37
ENDBRANCH 1 33
TORSDOF 20
ENDMDL
MODEL 5
USER: ADFR SOLUTION from run 102
USER: SCORE 16.288991 LL:  -4.195 LR: -13.347 RR:   0.000 FEB:  -7.381
USER: RMSD 9.933476
USER: SEED 101
USER: STATUS no improvement in best in 14 clusters for 5 generations
USER: GENES 22
USER: genes 0 Translation |==|  0.39720 0.59163 0.54901
USER: genes 1 Rotation |==|  0.67924 0.29155 0.08249 0.51025
USER: genes 2 Torsion [C]-CA--CB-[CG] |==|  0.21340
USER: genes 3 Torsion [CA]-CB--CG-[CD1] |==|  0.39460
USER: genes 4 Torsion [N]-CA--C-[N] |==|  0.37979
USER: genes 5 Torsion [N]-CA--C-[N] |==|  0.47615
USER: genes 6 Torsion [C]-N--CA-[C] |==|  0.17608
USER: genes 7 Torsion [N]-CA--C-[N] |==|  0.48552
USER: genes 8 Torsion [C]-N--CA-[CB] |==|  0.10198
USER: genes 9 Torsion [N]-CA--CB-[CG] |==|  0.63817
USER: genes 10 Torsion [CA]-CB--CG-[CD2] |==|  0.32218
USER: genes 11 Torsion [N]-CA--C-[O] |==|  0.52335
USER: genes 12 Torsion [N]-CA--CB-[CG] |==|  0.87987
USER: genes 13 Torsion [CA]-CB--CG-[CD2] |==|  0.81208
USER: genes 14 Torsion [CB]-CA--N-[C] |==|  0.84951
USER: genes 15 Torsion [N]-C--CA-[N] |==|  0.51111
USER: genes 16 Torsion [C]-CA--CB-[CG] |==|  0.28707
USER: genes 17 Torsion [CA]-CB--CG-[CD] |==|  0.63311
USER: genes 18 Torsion [CB]-CG--CD-[NE] |==|  0.20747
USER: genes 19 Torsion [CG]-CD--NE-[HE] |==|  0.67637
USER: genes 20 Torsion [C]-CA--N-[C] |==|  0.76617
USER: genes 21 Torsion [N]-C--CA-[CB] |==|  0.13803
ROOT
ATOM      1  CA  LEU G   4      38.177   7.282  24.374  1.00 72.45 LIG 0.18  C 
ENDROOT
BRANCH 1 2
ATOM      2  CB  LEU G   4      36.710   6.783  24.338  1.00 74.60 LIG 0.04  C 
BRANCH 2 3
ATOM      3  CG  LEU G   4      35.954   6.883  25.706  1.00 80.94 LIG-0.02  C 
ATOM      4  CD2 LEU G   4      36.057   5.614  26.571  1.00 76.26 LIG 0.01  C 
ATOM      5  CD1 LEU G   4      34.489   7.296  25.515  1.00 74.38 LIG 0.01  C 
ENDBRANCH 2 3
ENDBRANCH 1 2
BRANCH 1 6
ATOM      6  C   LEU G   4      39.162   6.275  25.033  1.00 69.99 LIG 0.24  C 
ATOM      7 O    LEU G   4      39.764   5.391  24.353  1.00 62.75 LIG-0.27  OA
ATOM      8  N   PRO G   5      39.386   6.456  26.360  1.00 68.53 LIG-0.34  N 
ATOM      9  CA  PRO G   5      40.230   5.489  27.035  1.00 66.41 LIG 0.18  C 
ATOM     10  CD  PRO G   5      39.041   7.590  27.251  1.00 67.94 LIG 0.13  C 
ATOM     11  CB  PRO G   5      40.338   6.056  28.474  1.00 68.06 LIG 0.04  C 
ATOM     12  CG  PRO G   5      40.109   7.528  28.317  1.00 67.97 LIG 0.02  C 
BRANCH 9 13
ATOM     13  C   PRO G   5      39.572   4.106  26.970  1.00 65.16 LIG 0.24  C 
ATOM     14  N   LEU G   6      40.295   3.074  27.387  1.00 58.40 LIG-0.35  N 
ATOM     15 H    LEU G   6      41.037   3.143  27.817  1.00 58.40 LIG 0.16  HD
ATOM     16 O    PRO G   5      38.413   3.984  26.534  1.00 57.12 LIG-0.27  OA
BRANCH 14 17
ATOM     17  CA  LEU G   6      39.859   1.703  27.134  1.00 60.31 LIG 0.18  C 
BRANCH 17 18
ATOM     18  C   LEU G   6      39.785   1.318  25.659  1.00 60.34 LIG 0.24  C 
ATOM     19 O    LEU G   6      39.958   2.192  24.827  1.00 72.64 LIG-0.27  OA
ATOM     20  N   LEU G   7      39.498   0.053  25.325  1.00 65.91 LIG-0.35  N 
ATOM     21 H    LEU G   7      39.254  -0.548  25.891  1.00 65.91 LIG 0.16  HD
BRANCH 20 22
ATOM     22  CA  LEU G   7      39.579  -0.435  23.903  1.00 66.14 LIG 0.16  C 
BRANCH 22 23
ATOM     23  CB  LEU G   7      40.765   0.226  23.175  1.00 64.61 LIG 0.04  C 
BRANCH 23 24
ATOM     24  CG  LEU G   7      40.523   0.875  21.798  1.00 68.76 LIG-0.02  C 
ATOM     25  CD2 LEU G   7      40.770   2.398  21.843  1.00 64.31 LIG 0.01  C 
ATOM     26  CD1 LEU G   7      39.146   0.518  21.226  1.00 66.72 LIG 0.01  C 
ENDBRANCH 23 24
ENDBRANCH 22 23
BRANCH 22 27
ATOM     27  C   LEU G   7      39.649  -1.961  23.765  1.00 59.22 LIG 0.22  C 
ATOM     28 O    LEU G   7      39.873  -2.452  22.668  1.00 55.72 LIG-0.29  OA
ENDBRANCH 22 27
ENDBRANCH 20 22
ENDBRANCH 17 18
BRANCH 17 29
ATOM     29  CB  LEU G   6      38.531   1.402  27.873  1.00 54.67 LIG 0.04  C 
BRANCH 29 30
ATOM     30  CG  LEU G   6      38.619   1.987  29.301  1.00 53.09 LIG-0.02  C 
ATOM     31  CD1 LEU G   6      37.248   2.017  29.923  1.00 49.97 LIG 0.01  C 
ATOM     32  CD2 LEU G   6      39.644   1.262  30.177  1.00 51.63 LIG 0.01  C 
ENDBRANCH 29 30
ENDBRANCH 17 29
ENDBRANCH 14 17
ENDBRANCH 9 13
ENDBRANCH 1 6
BRANCH 1 33
ATOM     33  N   LEU G   4      38.644   7.766  23.066  1.00 70.21 LIG-0.35  N 
ATOM     34  C   ARG G   3      38.555   6.987  21.981  1.00 75.48 LIG 0.24  C 
ATOM     35 O    ARG G   3      38.141   5.796  22.057  1.00 65.52 LIG-0.27  OA
ATOM     36 H    LEU G   4      38.965   8.564  23.067  1.00 70.21 LIG 0.16  HD
BRANCH 34 37
ATOM     37  CA  ARG G   3      39.028   7.611  20.615  1.00 78.48 LIG 0.18  C 
BRANCH 37 38
ATOM     38  CB  ARG G   3      38.371   8.983  20.352  1.00 76.51 LIG 0.04  C 
BRANCH 38 39
ATOM     39  CG  ARG G   3      39.270  10.186  20.595  1.00 78.92 LIG 0.02  C 
BRANCH 39 40
ATOM     40  CD  ARG G   3      38.582  11.263  21.438  1.00 76.70 LIG 0.14  C 
BRANCH 40 41
ATOM     41  NE  ARG G   3      38.464  10.940  22.883  1.00 80.12 LIG-0.23  N 
ATOM     42 HE   ARG G   3      37.668  10.858  23.196  1.00 80.12 LIG 0.18  HD
ATOM     43  CZ  ARG G   3      39.479  10.760  23.755  1.00 82.69 LIG 0.67  C 
ATOM     44  NH1 ARG G   3      40.772  10.902  23.419  1.00 73.81 LIG-0.23  N 
ATOM     45  NH2 ARG G   3      39.193  10.455  25.016  1.00 84.58 LIG-0.23  N 
ATOM     46 1HH1 ARG G   3      40.986  11.117  22.614  1.00 73.81 LIG 0.17  HD
ATOM     47 2HH1 ARG G   3      41.386  10.777  24.008  1.00 73.81 LIG 0.17  HD
ATOM     48 2HH2 ARG G   3      39.827  10.337  25.585  1.00 84.58 LIG 0.17  HD
ATOM     49 1HH2 ARG G   3      38.373  10.375  25.263  1.00 84.58 LIG 0.17  HD
ENDBRANCH 40 41
ENDBRANCH 39 40
ENDBRANCH 38 39
ENDBRANCH 37 38
BRANCH 37 50
ATOM     50  N   ARG G   3      38.800   6.699  19.456  1.00 95.22 LIG-0.35  N 
ATOM     51  C   PRO G   2      39.659   5.727  19.101  1.00105.18 LIG 0.25  C 
ATOM     52 O    PRO G   2      40.752   5.570  19.656  1.00111.30 LIG-0.27  OA
ATOM     53 H    ARG G   3      38.066   6.854  19.035  1.00 95.22 LIG 0.16  HD
BRANCH 51 54
ATOM     54  CA  PRO G   2      39.241   4.777  17.934  1.00104.44 LIG 0.35  C 
ATOM     55  N   PRO G   2      38.086   3.921  18.234  1.00103.34 LIG 0.32  N 
ATOM     56  CD  PRO G   2      37.248   3.680  17.036  1.00102.42 LIG 0.32  C 
ATOM     57  CG  PRO G   2      37.775   4.665  16.009  1.00 98.38 LIG 0.04  C 
ATOM     58  CB  PRO G   2      38.760   5.574  16.704  1.00102.80 LIG 0.05  C 
ENDBRANCH 51 54
ENDBRANCH 37 50
ENDBRANCH 34 37
ENDBRANCH 1 33
TORSDOF 20
ENDMDL
MODEL 6
USER: ADFR SOLUTION from run 167
USER: SCORE 17.387602 LL:  -4.756 LR: -13.343 RR:   0.000 FEB:  -7.377
USER: RMSD 8.596258
USER: SEED 166
USER: STATUS no improvement in best in 8 clusters for 5 generations
USER: GENES 22
USER: genes 0 Translation |==|  0.37965 0.58696 0.54640
USER: genes 1 Rotation |==|  0.71018 0.25043 0.14115 0.62150
USER: genes 2 Torsion [C]-CA--CB-[CG] |==|  0.19980
USER: genes 3 Torsion [CA]-CB--CG-[CD1] |==|  0.29143
USER: genes 4 Torsion [N]-CA--C-[N] |==|  0.42581
USER: genes 5 Torsion [N]-CA--C-[N] |==|  0.90544
USER: genes 6 Torsion [C]-N--CA-[C] |==|  0.80593
USER: genes 7 Torsion [N]-CA--C-[N] |==|  0.92820
USER: genes 8 Torsion [C]-N--CA-[CB] |==|  0.16843
USER: genes 9 Torsion [N]-CA--CB-[CG] |==|  0.46958
USER: genes 10 Torsion [CA]-CB--CG-[CD2] |==|  0.71860
USER: genes 11 Torsion [N]-CA--C-[O] |==|  0.15665
USER: genes 12 Torsion [N]-CA--CB-[CG] |==|  0.61594
USER: genes 13 Torsion [CA]-CB--CG-[CD2] |==|  0.07923
USER: genes 14 Torsion [CB]-CA--N-[C] |==|  0.80047
USER: genes 15 Torsion [N]-C--CA-[N] |==|  0.57219
USER: genes 16 Torsion [C]-CA--CB-[CG] |==|  0.43317
USER: genes 17 Torsion [CA]-CB--CG-[CD] |==|  0.17840
USER: genes 18 Torsion [CB]-CG--CD-[NE] |==|  0.10393
USER: genes 19 Torsion [CG]-CD--NE-[HE] |==|  0.00365
USER: genes 20 Torsion [C]-CA--N-[C] |==|  0.73493
USER: genes 21 Torsion [N]-C--CA-[CB] |==|  0.95433
ROOT
ATOM      1  CA  LEU G   4      37.887   7.149  24.323  1.00 72.45 LIG 0.18  C 
ENDROOT
BRANCH 1 2
ATOM      2  CB  LEU G   4      36.700   6.186  24.577  1.00 74.60 LIG 0.04  C 
BRANCH 2 3
ATOM      3  CG  LEU G   4      35.928   6.443  25.915  1.00 80.94 LIG-0.02  C 
ATOM      4  CD2 LEU G   4      35.755   5.187  26.789  1.00 76.26 LIG 0.01  C 
ATOM      5  CD1 LEU G   4      34.577   7.127  25.668  1.00 74.38 LIG 0.01  C 
ENDBRANCH 2 3
ENDBRANCH 1 2
BRANCH 1 6
ATOM      6  C   LEU G   4      39.112   6.888  25.246  1.00 69.99 LIG 0.24  C 
ATOM      7 O    LEU G   4      40.172   6.351  24.809  1.00 62.75 LIG-0.27  OA
ATOM      8  N   PRO G   5      38.991   7.338  26.522  1.00 68.53 LIG-0.34  N 
ATOM      9  CA  PRO G   5      40.072   7.040  27.442  1.00 66.41 LIG 0.18  C 
ATOM     10  CD  PRO G   5      37.993   8.248  27.134  1.00 67.94 LIG 0.13  C 
ATOM     11  CB  PRO G   5      39.646   7.776  28.739  1.00 68.06 LIG 0.04  C 
ATOM     12  CG  PRO G   5      38.759   8.887  28.268  1.00 67.97 LIG 0.02  C 
BRANCH 9 13
ATOM     13  C   PRO G   5      40.193   5.522  27.611  1.00 65.16 LIG 0.24  C 
ATOM     14  N   LEU G   6      39.068   4.819  27.563  1.00 58.40 LIG-0.35  N 
ATOM     15 H    LEU G   6      38.310   5.132  27.305  1.00 58.40 LIG 0.16  HD
ATOM     16 O    PRO G   5      41.307   4.999  27.792  1.00 57.12 LIG-0.27  OA
BRANCH 14 17
ATOM     17  CA  LEU G   6      39.046   3.413  27.960  1.00 60.31 LIG 0.18  C 
BRANCH 17 18
ATOM     18  C   LEU G   6      39.774   2.468  27.009  1.00 60.34 LIG 0.24  C 
ATOM     19 O    LEU G   6      40.245   1.441  27.467  1.00 72.64 LIG-0.27  OA
ATOM     20  N   LEU G   7      39.905   2.807  25.719  1.00 65.91 LIG-0.35  N 
ATOM     21 H    LEU G   7      39.688   3.577  25.403  1.00 65.91 LIG 0.16  HD
BRANCH 20 22
ATOM     22  CA  LEU G   7      40.454   1.850  24.694  1.00 66.14 LIG 0.16  C 
BRANCH 22 23
ATOM     23  CB  LEU G   7      39.566   0.595  24.601  1.00 64.61 LIG 0.04  C 
BRANCH 23 24
ATOM     24  CG  LEU G   7      39.798  -0.393  23.441  1.00 68.76 LIG-0.02  C 
ATOM     25  CD2 LEU G   7      38.748  -0.204  22.324  1.00 64.31 LIG 0.01  C 
ATOM     26  CD1 LEU G   7      39.886  -1.844  23.928  1.00 66.72 LIG 0.01  C 
ENDBRANCH 23 24
ENDBRANCH 22 23
BRANCH 22 27
ATOM     27  C   LEU G   7      40.657   2.466  23.305  1.00 59.22 LIG 0.22  C 
ATOM     28 O    LEU G   7      41.362   3.458  23.187  1.00 55.72 LIG-0.29  OA
ENDBRANCH 22 27
ENDBRANCH 20 22
ENDBRANCH 17 18
BRANCH 17 29
ATOM     29  CB  LEU G   6      37.596   2.942  28.238  1.00 54.67 LIG 0.04  C 
BRANCH 29 30
ATOM     30  CG  LEU G   6      37.601   2.056  29.505  1.00 53.09 LIG-0.02  C 
ATOM     31  CD1 LEU G   6      37.631   0.603  29.109  1.00 49.97 LIG 0.01  C 
ATOM     32  CD2 LEU G   6      38.724   2.421  30.479  1.00 51.63 LIG 0.01  C 
ENDBRANCH 29 30
ENDBRANCH 17 29
ENDBRANCH 14 17
ENDBRANCH 9 13
ENDBRANCH 1 6
BRANCH 1 33
ATOM     33  N   LEU G   4      38.252   7.237  22.901  1.00 70.21 LIG-0.35  N 
ATOM     34  C   ARG G   3      38.862   6.213  22.291  1.00 75.48 LIG 0.24  C 
ATOM     35 O    ARG G   3      39.208   5.178  22.927  1.00 65.52 LIG-0.27  OA
ATOM     36 H    LEU G   4      38.044   7.978  22.517  1.00 70.21 LIG 0.16  HD
BRANCH 34 37
ATOM     37  CA  ARG G   3      39.163   6.376  20.754  1.00 78.48 LIG 0.18  C 
BRANCH 37 38
ATOM     38  CB  ARG G   3      38.134   7.296  20.061  1.00 76.51 LIG 0.04  C 
BRANCH 38 39
ATOM     39  CG  ARG G   3      38.623   7.965  18.786  1.00 78.92 LIG 0.02  C 
BRANCH 39 40
ATOM     40  CD  ARG G   3      38.931   6.952  17.680  1.00 76.70 LIG 0.14  C 
BRANCH 40 41
ATOM     41  NE  ARG G   3      37.998   5.798  17.618  1.00 80.12 LIG-0.23  N 
ATOM     42 HE   ARG G   3      37.354   5.792  18.187  1.00 80.12 LIG 0.18  HD
ATOM     43  CZ  ARG G   3      38.057   4.757  16.761  1.00 82.69 LIG 0.67  C 
ATOM     44  NH1 ARG G   3      39.033   4.610  15.849  1.00 73.81 LIG-0.23  N 
ATOM     45  NH2 ARG G   3      37.124   3.815  16.832  1.00 84.58 LIG-0.23  N 
ATOM     46 1HH1 ARG G   3      39.661   5.195  15.793  1.00 73.81 LIG 0.17  HD
ATOM     47 2HH1 ARG G   3      39.031   3.930  15.322  1.00 73.81 LIG 0.17  HD
ATOM     48 2HH2 ARG G   3      37.147   3.145  16.294  1.00 84.58 LIG 0.17  HD
ATOM     49 1HH2 ARG G   3      36.497   3.875  17.418  1.00 84.58 LIG 0.17  HD
ENDBRANCH 40 41
ENDBRANCH 39 40
ENDBRANCH 38 39
ENDBRANCH 37 38
BRANCH 37 50
ATOM     50  N   ARG G   3      39.248   5.068  20.042  1.00 95.22 LIG-0.35  N 
ATOM     51  C   PRO G   2      40.407   4.427  19.808  1.00105.18 LIG 0.25  C 
ATOM     52 O    PRO G   2      41.506   4.919  20.087  1.00111.30 LIG-0.27  OA
ATOM     53 H    ARG G   3      38.483   4.761  19.794  1.00 95.22 LIG 0.16  HD
BRANCH 51 54
ATOM     54  CA  PRO G   2      40.338   3.014  19.148  1.00104.44 LIG 0.35  C 
ATOM     55  N   PRO G   2      41.159   1.995  19.814  1.00103.34 LIG 0.32  N 
ATOM     56  CD  PRO G   2      40.533   0.653  19.758  1.00102.42 LIG 0.32  C 
ATOM     57  CG  PRO G   2      39.123   0.921  19.265  1.00 98.38 LIG 0.04  C 
ATOM     58  CB  PRO G   2      38.919   2.417  19.242  1.00102.80 LIG 0.05  C 
ENDBRANCH 51 54
ENDBRANCH 37 50
ENDBRANCH 34 37
ENDBRANCH 1 33
TORSDOF 20
ENDMDL
MODEL 7
USER: ADFR SOLUTION from run 37
USER: SCORE 17.325227 LL:  -4.291 LR: -13.337 RR:   0.000 FEB:  -7.371
USER: RMSD 4.852411
USER: SEED 36
USER: STATUS searching
USER: GENES 22
USER: genes 0 Translation |==|  0.41891 0.50181 0.68993
USER: genes 1 Rotation |==|  0.43878 0.43589 0.43755 0.98810
USER: genes 2 Torsion [C]-CA--CB-[CG] |==|  0.05493
USER: genes 3 Torsion [CA]-CB--CG-[CD1] |==|  0.24514
USER: genes 4 Torsion [N]-CA--C-[N] |==|  0.33333
USER: genes 5 Torsion [N]-CA--C-[N] |==|  0.42427
USER: genes 6 Torsion [C]-N--CA-[C] |==|  0.83967
USER: genes 7 Torsion [N]-CA--C-[N] |==|  0.89079
USER: genes 8 Torsion [C]-N--CA-[CB] |==|  0.47782
USER: genes 9 Torsion [N]-CA--CB-[CG] |==|  0.86188
USER: genes 10 Torsion [CA]-CB--CG-[CD2] |==|  0.81676
USER: genes 11 Torsion [N]-CA--C-[O] |==|  0.86473
USER: genes 12 Torsion [N]-CA--CB-[CG] |==|  0.13691
USER: genes 13 Torsion [CA]-CB--CG-[CD2] |==|  0.64346
USER: genes 14 Torsion [CB]-CA--N-[C] |==|  0.83322
USER: genes 15 Torsion [N]-C--CA-[N] |==|  0.46079
USER: genes 16 Torsion [C]-CA--CB-[CG] |==|  0.24632
USER: genes 17 Torsion [CA]-CB--CG-[CD] |==|  0.71805
USER: genes 18 Torsion [CB]-CG--CD-[NE] |==|  0.51359
USER: genes 19 Torsion [CG]-CD--NE-[HE] |==|  0.69814
USER: genes 20 Torsion [C]-CA--N-[C] |==|  0.73978
USER: genes 21 Torsion [N]-C--CA-[CB] |==|  0.64954
ROOT
ATOM      1  CA  LEU G   4      38.535   4.723  27.122  1.00 72.45 LIG 0.18  C 
ENDROOT
BRANCH 1 2
ATOM      2  CB  LEU G   4      39.798   5.246  27.852  1.00 74.60 LIG 0.04  C 
BRANCH 2 3
ATOM      3  CG  LEU G   4      40.291   6.653  27.373  1.00 80.94 LIG-0.02  C 
ATOM      4  CD2 LEU G   4      41.821   6.819  27.389  1.00 76.26 LIG 0.01  C 
ATOM      5  CD1 LEU G   4      39.611   7.787  28.152  1.00 74.38 LIG 0.01  C 
ENDBRANCH 2 3
ENDBRANCH 1 2
BRANCH 1 6
ATOM      6  C   LEU G   4      38.271   5.419  25.756  1.00 69.99 LIG 0.24  C 
ATOM      7 O    LEU G   4      38.981   5.175  24.735  1.00 62.75 LIG-0.27  OA
ATOM      8  N   PRO G   5      37.191   6.242  25.716  1.00 68.53 LIG-0.34  N 
ATOM      9  CA  PRO G   5      36.956   6.980  24.490  1.00 66.41 LIG 0.18  C 
ATOM     10  CD  PRO G   5      36.075   6.417  26.677  1.00 67.94 LIG 0.13  C 
ATOM     11  CB  PRO G   5      35.620   7.717  24.770  1.00 68.06 LIG 0.04  C 
ATOM     12  CG  PRO G   5      34.933   6.873  25.800  1.00 67.97 LIG 0.02  C 
BRANCH 9 13
ATOM     13  C   PRO G   5      38.134   7.925  24.231  1.00 65.16 LIG 0.24  C 
ATOM     14  N   LEU G   6      38.382   8.247  22.967  1.00 58.40 LIG-0.35  N 
ATOM     15 H    LEU G   6      37.851   8.081  22.311  1.00 58.40 LIG 0.16  HD
ATOM     16 O    PRO G   5      38.815   8.351  25.180  1.00 57.12 LIG-0.27  OA
BRANCH 14 17
ATOM     17  CA  LEU G   6      39.619   8.929  22.597  1.00 60.31 LIG 0.18  C 
BRANCH 17 18
ATOM     18  C   LEU G   6      39.852  10.261  23.304  1.00 60.34 LIG 0.24  C 
ATOM     19 O    LEU G   6      40.978  10.517  23.692  1.00 72.64 LIG-0.27  OA
ATOM     20  N   LEU G   7      38.816  11.085  23.509  1.00 65.91 LIG-0.35  N 
ATOM     21 H    LEU G   7      37.997  10.871  23.354  1.00 65.91 LIG 0.16  HD
BRANCH 20 22
ATOM     22  CA  LEU G   7      38.999  12.482  24.040  1.00 66.14 LIG 0.16  C 
BRANCH 22 23
ATOM     23  CB  LEU G   7      37.669  13.257  23.985  1.00 64.61 LIG 0.04  C 
BRANCH 23 24
ATOM     24  CG  LEU G   7      36.865  13.259  22.670  1.00 68.76 LIG-0.02  C 
ATOM     25  CD2 LEU G   7      37.625  14.001  21.549  1.00 64.31 LIG 0.01  C 
ATOM     26  CD1 LEU G   7      35.440  13.788  22.866  1.00 66.72 LIG 0.01  C 
ENDBRANCH 23 24
ENDBRANCH 22 23
BRANCH 22 27
ATOM     27  C   LEU G   7      39.597  12.545  25.451  1.00 59.22 LIG 0.22  C 
ATOM     28 O    LEU G   7      39.123  11.844  26.333  1.00 55.72 LIG-0.29  OA
ENDBRANCH 22 27
ENDBRANCH 20 22
ENDBRANCH 17 18
BRANCH 17 29
ATOM     29  CB  LEU G   6      39.731   9.070  21.058  1.00 54.67 LIG 0.04  C 
BRANCH 29 30
ATOM     30  CG  LEU G   6      38.402   9.649  20.520  1.00 53.09 LIG-0.02  C 
ATOM     31  CD1 LEU G   6      38.593  11.095  20.145  1.00 49.97 LIG 0.01  C 
ATOM     32  CD2 LEU G   6      37.814   8.819  19.375  1.00 51.63 LIG 0.01  C 
ENDBRANCH 29 30
ENDBRANCH 17 29
ENDBRANCH 14 17
ENDBRANCH 9 13
ENDBRANCH 1 6
BRANCH 1 33
ATOM     33  N   LEU G   4      38.499   3.255  27.031  1.00 70.21 LIG-0.35  N 
ATOM     34  C   ARG G   3      39.472   2.590  26.397  1.00 75.48 LIG 0.24  C 
ATOM     35 O    ARG G   3      40.404   3.195  25.797  1.00 65.52 LIG-0.27  OA
ATOM     36 H    LEU G   4      37.822   2.884  27.409  1.00 70.21 LIG 0.16  HD
BRANCH 34 37
ATOM     37  CA  ARG G   3      39.378   1.017  26.400  1.00 78.48 LIG 0.18  C 
BRANCH 37 38
ATOM     38  CB  ARG G   3      39.626   0.429  27.806  1.00 76.51 LIG 0.04  C 
BRANCH 38 39
ATOM     39  CG  ARG G   3      38.387   0.294  28.676  1.00 78.92 LIG 0.02  C 
BRANCH 39 40
ATOM     40  CD  ARG G   3      38.282   1.414  29.715  1.00 76.70 LIG 0.14  C 
BRANCH 40 41
ATOM     41  NE  ARG G   3      37.152   1.272  30.669  1.00 80.12 LIG-0.23  N 
ATOM     42 HE   ARG G   3      36.498   1.822  30.577  1.00 80.12 LIG 0.18  HD
ATOM     43  CZ  ARG G   3      37.047   0.369  31.666  1.00 82.69 LIG 0.67  C 
ATOM     44  NH1 ARG G   3      38.010  -0.521  31.958  1.00 73.81 LIG-0.23  N 
ATOM     45  NH2 ARG G   3      35.951   0.370  32.418  1.00 84.58 LIG-0.23  N 
ATOM     46 1HH1 ARG G   3      38.738  -0.533  31.500  1.00 73.81 LIG 0.17  HD
ATOM     47 2HH1 ARG G   3      37.900  -1.079  32.603  1.00 73.81 LIG 0.17  HD
ATOM     48 2HH2 ARG G   3      35.868  -0.199  33.058  1.00 84.58 LIG 0.17  HD
ATOM     49 1HH2 ARG G   3      35.326   0.940  32.265  1.00 84.58 LIG 0.17  HD
ENDBRANCH 40 41
ENDBRANCH 39 40
ENDBRANCH 38 39
ENDBRANCH 37 38
BRANCH 37 50
ATOM     50  N   ARG G   3      40.294   0.384  25.407  1.00 95.22 LIG-0.35  N 
ATOM     51  C   PRO G   2      39.916   0.051  24.160  1.00105.18 LIG 0.25  C 
ATOM     52 O    PRO G   2      38.748   0.163  23.767  1.00111.30 LIG-0.27  OA
ATOM     53 H    ARG G   3      41.089   0.251  25.707  1.00 95.22 LIG 0.16  HD
BRANCH 51 54
ATOM     54  CA  PRO G   2      41.007  -0.505  23.191  1.00104.44 LIG 0.35  C 
ATOM     55  N   PRO G   2      40.762  -1.876  22.726  1.00103.34 LIG 0.32  N 
ATOM     56  CD  PRO G   2      41.234  -2.085  21.338  1.00102.42 LIG 0.32  C 
ATOM     57  CG  PRO G   2      41.540  -0.686  20.835  1.00 98.38 LIG 0.04  C 
ATOM     58  CB  PRO G   2      41.050   0.295  21.873  1.00102.80 LIG 0.05  C 
ENDBRANCH 51 54
ENDBRANCH 37 50
ENDBRANCH 34 37
ENDBRANCH 1 33
TORSDOF 20
ENDMDL
MODEL 8
USER: ADFR SOLUTION from run 200
USER: SCORE 16.373997 LL:  -3.851 LR: -13.245 RR:   0.000 FEB:  -7.279
USER: RMSD 10.444687
USER: SEED 199
USER: STATUS searching
USER: GENES 22
USER: genes 0 Translation |==|  0.39065 0.59355 0.55787
USER: genes 1 Rotation |==|  0.70502 0.28650 0.11168 0.60766
USER: genes 2 Torsion [C]-CA--CB-[CG] |==|  0.23271
USER: genes 3 Torsion [CA]-CB--CG-[CD1] |==|  0.33091
USER: genes 4 Torsion [N]-CA--C-[N] |==|  0.42640
USER: genes 5 Torsion [N]-CA--C-[N] |==|  0.92883
USER: genes 6 Torsion [C]-N--CA-[C] |==|  0.75263
USER: genes 7 Torsion [N]-CA--C-[N] |==|  0.54423
USER: genes 8 Torsion [C]-N--CA-[CB] |==|  0.37854
USER: genes 9 Torsion [N]-CA--CB-[CG] |==|  0.26346
USER: genes 10 Torsion [CA]-CB--CG-[CD2] |==|  0.67048
USER: genes 11 Torsion [N]-CA--C-[O] |==|  0.53269
USER: genes 12 Torsion [N]-CA--CB-[CG] |==|  0.65434
USER: genes 13 Torsion [CA]-CB--CG-[CD2] |==|  0.72933
USER: genes 14 Torsion [CB]-CA--N-[C] |==|  0.81170
USER: genes 15 Torsion [N]-C--CA-[N] |==|  0.08750
USER: genes 16 Torsion [C]-CA--CB-[CG] |==|  0.15049
USER: genes 17 Torsion [CA]-CB--CG-[CD] |==|  0.33677
USER: genes 18 Torsion [CB]-CG--CD-[NE] |==|  0.73341
USER: genes 19 Torsion [CG]-CD--NE-[HE] |==|  0.91218
USER: genes 20 Torsion [C]-CA--N-[C] |==|  0.66712
USER: genes 21 Torsion [N]-C--CA-[CB] |==|  0.74276
ROOT
ATOM      1  CA  LEU G   4      38.069   7.337  24.546  1.00 72.45 LIG 0.18  C 
ENDROOT
BRANCH 1 2
ATOM      2  CB  LEU G   4      36.879   6.357  24.710  1.00 74.60 LIG 0.04  C 
BRANCH 2 3
ATOM      3  CG  LEU G   4      36.028   6.577  26.007  1.00 80.94 LIG-0.02  C 
ATOM      4  CD2 LEU G   4      36.102   5.410  27.008  1.00 76.26 LIG 0.01  C 
ATOM      5  CD1 LEU G   4      34.570   6.921  25.676  1.00 74.38 LIG 0.01  C 
ENDBRANCH 2 3
ENDBRANCH 1 2
BRANCH 1 6
ATOM      6  C   LEU G   4      39.348   6.899  25.316  1.00 69.99 LIG 0.24  C 
ATOM      7 O    LEU G   4      40.364   6.441  24.713  1.00 62.75 LIG-0.27  OA
ATOM      8  N   PRO G   5      39.326   7.110  26.657  1.00 68.53 LIG-0.34  N 
ATOM      9  CA  PRO G   5      40.461   6.638  27.428  1.00 66.41 LIG 0.18  C 
ATOM     10  CD  PRO G   5      38.394   7.901  27.496  1.00 67.94 LIG 0.13  C 
ATOM     11  CB  PRO G   5      40.142   7.127  28.865  1.00 68.06 LIG 0.04  C 
ATOM     12  CG  PRO G   5      39.250   8.314  28.669  1.00 67.97 LIG 0.02  C 
BRANCH 9 13
ATOM     13  C   PRO G   5      40.559   5.113  27.308  1.00 65.16 LIG 0.24  C 
ATOM     14  N   LEU G   6      39.437   4.456  27.042  1.00 58.40 LIG-0.35  N 
ATOM     15 H    LEU G   6      38.702   4.829  26.794  1.00 58.40 LIG 0.16  HD
ATOM     16 O    PRO G   5      41.653   4.542  27.466  1.00 57.12 LIG-0.27  OA
BRANCH 14 17
ATOM     17  CA  LEU G   6      39.376   3.001  27.157  1.00 60.31 LIG 0.18  C 
BRANCH 17 18
ATOM     18  C   LEU G   6      39.756   2.242  25.889  1.00 60.34 LIG 0.24  C 
ATOM     19 O    LEU G   6      40.318   2.856  24.998  1.00 72.64 LIG-0.27  OA
ATOM     20  N   LEU G   7      39.433   0.947  25.776  1.00 65.91 LIG-0.35  N 
ATOM     21 H    LEU G   7      38.933   0.529  26.338  1.00 65.91 LIG 0.16  HD
BRANCH 20 22
ATOM     22  CA  LEU G   7      39.926   0.097  24.636  1.00 66.14 LIG 0.16  C 
BRANCH 22 23
ATOM     23  CB  LEU G   7      40.398  -1.276  25.154  1.00 64.61 LIG 0.04  C 
BRANCH 23 24
ATOM     24  CG  LEU G   7      39.410  -2.459  25.126  1.00 68.76 LIG-0.02  C 
ATOM     25  CD2 LEU G   7      39.138  -2.998  26.547  1.00 64.31 LIG 0.01  C 
ATOM     26  CD1 LEU G   7      39.854  -3.558  24.153  1.00 66.72 LIG 0.01  C 
ENDBRANCH 23 24
ENDBRANCH 22 23
BRANCH 22 27
ATOM     27  C   LEU G   7      38.913  -0.080  23.499  1.00 59.22 LIG 0.22  C 
ATOM     28 O    LEU G   7      39.124  -0.918  22.635  1.00 55.72 LIG-0.29  OA
ENDBRANCH 22 27
ENDBRANCH 20 22
ENDBRANCH 17 18
BRANCH 17 29
ATOM     29  CB  LEU G   6      37.998   2.549  27.703  1.00 54.67 LIG 0.04  C 
BRANCH 29 30
ATOM     30  CG  LEU G   6      38.228   1.686  28.965  1.00 53.09 LIG-0.02  C 
ATOM     31  CD1 LEU G   6      37.249   2.083  30.038  1.00 49.97 LIG 0.01  C 
ATOM     32  CD2 LEU G   6      38.197   0.184  28.670  1.00 51.63 LIG 0.01  C 
ENDBRANCH 29 30
ENDBRANCH 17 29
ENDBRANCH 14 17
ENDBRANCH 9 13
ENDBRANCH 1 6
BRANCH 1 33
ATOM     33  N   LEU G   4      38.336   7.676  23.140  1.00 70.21 LIG-0.35  N 
ATOM     34  C   ARG G   3      38.800   6.748  22.294  1.00 75.48 LIG 0.24  C 
ATOM     35 O    ARG G   3      39.094   5.584  22.687  1.00 65.52 LIG-0.27  OA
ATOM     36 H    LEU G   4      38.171   8.492  22.925  1.00 70.21 LIG 0.16  HD
BRANCH 34 37
ATOM     37  CA  ARG G   3      39.002   7.188  20.796  1.00 78.48 LIG 0.18  C 
BRANCH 37 38
ATOM     38  CB  ARG G   3      40.040   6.303  20.071  1.00 76.51 LIG 0.04  C 
BRANCH 38 39
ATOM     39  CG  ARG G   3      39.765   4.809  20.129  1.00 78.92 LIG 0.02  C 
BRANCH 39 40
ATOM     40  CD  ARG G   3      39.622   4.191  18.735  1.00 76.70 LIG 0.14  C 
BRANCH 40 41
ATOM     41  NE  ARG G   3      38.222   4.058  18.256  1.00 80.12 LIG-0.23  N 
ATOM     42 HE   ARG G   3      37.621   3.920  18.855  1.00 80.12 LIG 0.18  HD
ATOM     43  CZ  ARG G   3      37.797   4.131  16.977  1.00 82.69 LIG 0.67  C 
ATOM     44  NH1 ARG G   3      38.627   4.296  15.934  1.00 73.81 LIG-0.23  N 
ATOM     45  NH2 ARG G   3      36.498   4.008  16.727  1.00 84.58 LIG-0.23  N 
ATOM     46 1HH1 ARG G   3      39.475   4.360  16.064  1.00 73.81 LIG 0.17  HD
ATOM     47 2HH1 ARG G   3      38.311   4.338  15.134  1.00 73.81 LIG 0.17  HD
ATOM     48 2HH2 ARG G   3      36.210   4.052  15.917  1.00 84.58 LIG 0.17  HD
ATOM     49 1HH2 ARG G   3      35.945   3.885  17.374  1.00 84.58 LIG 0.17  HD
ENDBRANCH 40 41
ENDBRANCH 39 40
ENDBRANCH 38 39
ENDBRANCH 37 38
BRANCH 37 50
ATOM     50  N   ARG G   3      39.370   8.628  20.663  1.00 95.22 LIG-0.35  N 
ATOM     51  C   PRO G   2      38.628   9.520  19.983  1.00105.18 LIG 0.25  C 
ATOM     52 O    PRO G   2      37.625   9.196  19.336  1.00111.30 LIG-0.27  OA
ATOM     53 H    ARG G   3      40.103   8.835  21.063  1.00 95.22 LIG 0.16  HD
BRANCH 51 54
ATOM     54  CA  PRO G   2      39.075  11.016  20.018  1.00104.44 LIG 0.35  C 
ATOM     55  N   PRO G   2      38.695  11.789  18.829  1.00103.34 LIG 0.32  N 
ATOM     56  CD  PRO G   2      38.377  13.198  19.159  1.00102.42 LIG 0.32  C 
ATOM     57  CG  PRO G   2      38.299  13.215  20.675  1.00 98.38 LIG 0.04  C 
ATOM     58  CB  PRO G   2      38.376  11.786  21.157  1.00102.80 LIG 0.05  C 
ENDBRANCH 51 54
ENDBRANCH 37 50
ENDBRANCH 34 37
ENDBRANCH 1 33
TORSDOF 20
ENDMDL
MODEL 9
USER: ADFR SOLUTION from run 166
USER: SCORE 17.494726 LL:  -4.411 LR: -13.198 RR:   0.000 FEB:  -7.232
USER: RMSD 2.553744
USER: SEED 165
USER: STATUS no improvement in best in 8 clusters for 5 generations
USER: GENES 22
USER: genes 0 Translation |==|  0.43045 0.49753 0.68260
USER: genes 1 Rotation |==|  0.46145 0.43291 0.45940 0.99231
USER: genes 2 Torsion [C]-CA--CB-[CG] |==|  0.04435
USER: genes 3 Torsion [CA]-CB--CG-[CD1] |==|  0.27635
USER: genes 4 Torsion [N]-CA--C-[N] |==|  0.34843
USER: genes 5 Torsion [N]-CA--C-[N] |==|  0.41340
USER: genes 6 Torsion [C]-N--CA-[C] |==|  0.83781
USER: genes 7 Torsion [N]-CA--C-[N] |==|  0.88961
USER: genes 8 Torsion [C]-N--CA-[CB] |==|  0.47722
USER: genes 9 Torsion [N]-CA--CB-[CG] |==|  0.85428
USER: genes 10 Torsion [CA]-CB--CG-[CD2] |==|  0.84104
USER: genes 11 Torsion [N]-CA--C-[O] |==|  0.89698
USER: genes 12 Torsion [N]-CA--CB-[CG] |==|  0.13388
USER: genes 13 Torsion [CA]-CB--CG-[CD2] |==|  0.64566
USER: genes 14 Torsion [CB]-CA--N-[C] |==|  0.83110
USER: genes 15 Torsion [N]-C--CA-[N] |==|  0.93376
USER: genes 16 Torsion [C]-CA--CB-[CG] |==|  0.18618
USER: genes 17 Torsion [CA]-CB--CG-[CD] |==|  0.50942
USER: genes 18 Torsion [CB]-CG--CD-[NE] |==|  0.57704
USER: genes 19 Torsion [CG]-CD--NE-[HE] |==|  0.04157
USER: genes 20 Torsion [C]-CA--N-[C] |==|  0.82689
USER: genes 21 Torsion [N]-C--CA-[CB] |==|  0.73845
ROOT
ATOM      1  CA  LEU G   4      38.725   4.601  26.979  1.00 72.45 LIG 0.18  C 
ENDROOT
BRANCH 1 2
ATOM      2  CB  LEU G   4      39.925   5.189  27.765  1.00 74.60 LIG 0.04  C 
BRANCH 2 3
ATOM      3  CG  LEU G   4      40.336   6.638  27.338  1.00 80.94 LIG-0.02  C 
ATOM      4  CD2 LEU G   4      41.851   6.828  27.146  1.00 76.26 LIG 0.01  C 
ATOM      5  CD1 LEU G   4      39.770   7.694  28.297  1.00 74.38 LIG 0.01  C 
ENDBRANCH 2 3
ENDBRANCH 1 2
BRANCH 1 6
ATOM      6  C   LEU G   4      38.401   5.372  25.667  1.00 69.99 LIG 0.24  C 
ATOM      7 O    LEU G   4      39.079   5.203  24.610  1.00 62.75 LIG-0.27  OA
ATOM      8  N   PRO G   5      37.306   6.174  25.714  1.00 68.53 LIG-0.34  N 
ATOM      9  CA  PRO G   5      37.015   6.979  24.544  1.00 66.41 LIG 0.18  C 
ATOM     10  CD  PRO G   5      36.221   6.269  26.721  1.00 67.94 LIG 0.13  C 
ATOM     11  CB  PRO G   5      35.677   7.671  24.913  1.00 68.06 LIG 0.04  C 
ATOM     12  CG  PRO G   5      35.042   6.754  25.913  1.00 67.97 LIG 0.02  C 
BRANCH 9 13
ATOM     13  C   PRO G   5      38.165   7.961  24.302  1.00 65.16 LIG 0.24  C 
ATOM     14  N   LEU G   6      38.414   8.301  23.043  1.00 58.40 LIG-0.35  N 
ATOM     15 H    LEU G   6      37.894   8.124  22.380  1.00 58.40 LIG 0.16  HD
ATOM     16 O    PRO G   5      38.826   8.399  25.260  1.00 57.12 LIG-0.27  OA
BRANCH 14 17
ATOM     17  CA  LEU G   6      39.633   9.022  22.688  1.00 60.31 LIG 0.18  C 
BRANCH 17 18
ATOM     18  C   LEU G   6      39.812  10.363  23.396  1.00 60.34 LIG 0.24  C 
ATOM     19 O    LEU G   6      40.922  10.653  23.806  1.00 72.64 LIG-0.27  OA
ATOM     20  N   LEU G   7      38.748  11.156  23.578  1.00 65.91 LIG-0.35  N 
ATOM     21 H    LEU G   7      37.939  10.918  23.406  1.00 65.91 LIG 0.16  HD
BRANCH 20 22
ATOM     22  CA  LEU G   7      38.880  12.559  24.108  1.00 66.14 LIG 0.16  C 
BRANCH 22 23
ATOM     23  CB  LEU G   7      37.530  13.296  24.019  1.00 64.61 LIG 0.04  C 
BRANCH 23 24
ATOM     24  CG  LEU G   7      36.789  13.326  22.668  1.00 68.76 LIG-0.02  C 
ATOM     25  CD2 LEU G   7      37.668  13.942  21.558  1.00 64.31 LIG 0.01  C 
ATOM     26  CD1 LEU G   7      35.417  14.003  22.777  1.00 66.72 LIG 0.01  C 
ENDBRANCH 23 24
ENDBRANCH 22 23
BRANCH 22 27
ATOM     27  C   LEU G   7      39.442  12.643  25.532  1.00 59.22 LIG 0.22  C 
ATOM     28 O    LEU G   7      39.123  11.794  26.352  1.00 55.72 LIG-0.29  OA
ENDBRANCH 22 27
ENDBRANCH 20 22
ENDBRANCH 17 18
BRANCH 17 29
ATOM     29  CB  LEU G   6      39.761   9.165  21.151  1.00 54.67 LIG 0.04  C 
BRANCH 29 30
ATOM     30  CG  LEU G   6      38.413   9.672  20.590  1.00 53.09 LIG-0.02  C 
ATOM     31  CD1 LEU G   6      38.540  11.120  20.194  1.00 49.97 LIG 0.01  C 
ATOM     32  CD2 LEU G   6      37.878   8.799  19.452  1.00 51.63 LIG 0.01  C 
ENDBRANCH 29 30
ENDBRANCH 17 29
ENDBRANCH 14 17
ENDBRANCH 9 13
ENDBRANCH 1 6
BRANCH 1 33
ATOM     33  N   LEU G   4      38.838   3.148  26.775  1.00 70.21 LIG-0.35  N 
ATOM     34  C   ARG G   3      39.869   2.636  26.092  1.00 75.48 LIG 0.24  C 
ATOM     35 O    ARG G   3      40.730   3.378  25.541  1.00 65.52 LIG-0.27  OA
ATOM     36 H    LEU G   4      38.205   2.682  27.122  1.00 70.21 LIG 0.16  HD
BRANCH 34 37
ATOM     37  CA  ARG G   3      39.935   1.067  25.973  1.00 78.48 LIG 0.18  C 
BRANCH 37 38
ATOM     38  CB  ARG G   3      39.435   0.573  24.598  1.00 76.51 LIG 0.04  C 
BRANCH 38 39
ATOM     39  CG  ARG G   3      40.310   0.959  23.416  1.00 78.92 LIG 0.02  C 
BRANCH 39 40
ATOM     40  CD  ARG G   3      39.712   0.509  22.080  1.00 76.70 LIG 0.14  C 
BRANCH 40 41
ATOM     41  NE  ARG G   3      40.709   0.251  21.009  1.00 80.12 LIG-0.23  N 
ATOM     42 HE   ARG G   3      41.529   0.176  21.256  1.00 80.12 LIG 0.18  HD
ATOM     43  CZ  ARG G   3      40.460   0.123  19.689  1.00 82.69 LIG 0.67  C 
ATOM     44  NH1 ARG G   3      39.235   0.262  19.154  1.00 73.81 LIG-0.23  N 
ATOM     45  NH2 ARG G   3      41.474  -0.127  18.868  1.00 84.58 LIG-0.23  N 
ATOM     46 1HH1 ARG G   3      38.563   0.442  19.659  1.00 73.81 LIG 0.17  HD
ATOM     47 2HH1 ARG G   3      39.123   0.171  18.306  1.00 73.81 LIG 0.17  HD
ATOM     48 2HH2 ARG G   3      41.333  -0.212  18.023  1.00 84.58 LIG 0.17  HD
ATOM     49 1HH2 ARG G   3      42.271  -0.204  19.180  1.00 84.58 LIG 0.17  HD
ENDBRANCH 40 41
ENDBRANCH 39 40
ENDBRANCH 38 39
ENDBRANCH 37 38
BRANCH 37 50
ATOM     50  N   ARG G   3      39.199   0.375  27.070  1.00 95.22 LIG-0.35  N 
ATOM     51  C   PRO G   2      39.530   0.487  28.368  1.00105.18 LIG 0.25  C 
ATOM     52 O    PRO G   2      40.532   1.105  28.748  1.00111.30 LIG-0.27  OA
ATOM     53 H    ARG G   3      38.540  -0.105  26.793  1.00 95.22 LIG 0.16  HD
BRANCH 51 54
ATOM     54  CA  PRO G   2      38.605  -0.206  29.418  1.00104.44 LIG 0.35  C 
ATOM     55  N   PRO G   2      39.297  -0.650  30.635  1.00103.34 LIG 0.32  N 
ATOM     56  CD  PRO G   2      38.438  -0.535  31.837  1.00102.42 LIG 0.32  C 
ATOM     57  CG  PRO G   2      37.247   0.279  31.365  1.00 98.38 LIG 0.04  C 
ATOM     58  CB  PRO G   2      37.548   0.773  29.971  1.00102.80 LIG 0.05  C 
ENDBRANCH 51 54
ENDBRANCH 37 50
ENDBRANCH 34 37
ENDBRANCH 1 33
TORSDOF 20
ENDMDL
MODEL 10
USER: ADFR SOLUTION from run 12
USER: SCORE 15.616032 LL:  -4.148 LR: -13.147 RR:   0.000 FEB:  -7.181
USER: RMSD 9.974794
USER: SEED 406624
USER: STATUS no improvement in best in 11 clusters for 5 generations
USER: GENES 22
USER: genes 0 Translation |==|  0.38265 0.59093 0.55181
USER: genes 1 Rotation |==|  0.66193 0.27878 0.08256 0.52411
USER: genes 2 Torsion [C]-CA--CB-[CG] |==|  0.23397
USER: genes 3 Torsion [CA]-CB--CG-[CD1] |==|  0.41716
USER: genes 4 Torsion [N]-CA--C-[N] |==|  0.37410
USER: genes 5 Torsion [N]-CA--C-[N] |==|  0.36611
USER: genes 6 Torsion [C]-N--CA-[C] |==|  0.84107
USER: genes 7 Torsion [N]-CA--C-[N] |==|  0.86667
USER: genes 8 Torsion [C]-N--CA-[CB] |==|  0.76783
USER: genes 9 Torsion [N]-CA--CB-[CG] |==|  0.55450
USER: genes 10 Torsion [CA]-CB--CG-[CD2] |==|  0.77041
USER: genes 11 Torsion [N]-CA--C-[O] |==|  0.33622
USER: genes 12 Torsion [N]-CA--CB-[CG] |==|  0.73766
USER: genes 13 Torsion [CA]-CB--CG-[CD2] |==|  0.82347
USER: genes 14 Torsion [CB]-CA--N-[C] |==|  0.49237
USER: genes 15 Torsion [N]-C--CA-[N] |==|  0.80156
USER: genes 16 Torsion [C]-CA--CB-[CG] |==|  0.29646
USER: genes 17 Torsion [CA]-CB--CG-[CD] |==|  0.70267
USER: genes 18 Torsion [CB]-CG--CD-[NE] |==|  0.10995
USER: genes 19 Torsion [CG]-CD--NE-[HE] |==|  0.73267
USER: genes 20 Torsion [C]-CA--N-[C] |==|  0.17947
USER: genes 21 Torsion [N]-C--CA-[CB] |==|  0.70077
ROOT
ATOM      1  CA  LEU G   4      37.937   7.263  24.428  1.00 72.45 LIG 0.18  C 
ENDROOT
BRANCH 1 2
ATOM      2  CB  LEU G   4      36.472   6.767  24.541  1.00 74.60 LIG 0.04  C 
BRANCH 2 3
ATOM      3  CG  LEU G   4      35.768   7.119  25.895  1.00 80.94 LIG-0.02  C 
ATOM      4  CD2 LEU G   4      36.074   6.132  27.035  1.00 76.26 LIG 0.01  C 
ATOM      5  CD1 LEU G   4      34.255   7.296  25.717  1.00 74.38 LIG 0.01  C 
ENDBRANCH 2 3
ENDBRANCH 1 2
BRANCH 1 6
ATOM      6  C   LEU G   4      38.973   6.296  25.070  1.00 69.99 LIG 0.24  C 
ATOM      7 O    LEU G   4      39.492   5.345  24.413  1.00 62.75 LIG-0.27  OA
ATOM      8  N   PRO G   5      39.335   6.586  26.346  1.00 68.53 LIG-0.34  N 
ATOM      9  CA  PRO G   5      40.232   5.664  27.014  1.00 66.41 LIG 0.18  C 
ATOM     10  CD  PRO G   5      39.096   7.799  27.165  1.00 67.94 LIG 0.13  C 
ATOM     11  CB  PRO G   5      40.495   6.351  28.380  1.00 68.06 LIG 0.04  C 
ATOM     12  CG  PRO G   5      40.267   7.808  28.118  1.00 67.97 LIG 0.02  C 
BRANCH 9 13
ATOM     13  C   PRO G   5      39.555   4.295  27.139  1.00 65.16 LIG 0.24  C 
ATOM     14  N   LEU G   6      40.266   3.235  26.771  1.00 58.40 LIG-0.35  N 
ATOM     15 H    LEU G   6      41.110   3.249  26.608  1.00 58.40 LIG 0.16  HD
ATOM     16 O    PRO G   5      38.388   4.209  27.561  1.00 57.12 LIG-0.27  OA
BRANCH 14 17
ATOM     17  CA  LEU G   6      39.634   1.928  26.613  1.00 60.31 LIG 0.18  C 
BRANCH 17 18
ATOM     18  C   LEU G   6      38.915   1.410  27.856  1.00 60.34 LIG 0.24  C 
ATOM     19 O    LEU G   6      37.773   1.005  27.733  1.00 72.64 LIG-0.27  OA
ATOM     20  N   LEU G   7      39.540   1.450  29.041  1.00 65.91 LIG-0.35  N 
ATOM     21 H    LEU G   7      40.296   1.842  29.169  1.00 65.91 LIG 0.16  HD
BRANCH 20 22
ATOM     22  CA  LEU G   7      38.964   0.801  30.270  1.00 66.14 LIG 0.16  C 
BRANCH 22 23
ATOM     23  CB  LEU G   7      37.944   1.739  30.944  1.00 64.61 LIG 0.04  C 
BRANCH 23 24
ATOM     24  CG  LEU G   7      37.577   1.497  32.422  1.00 68.76 LIG-0.02  C 
ATOM     25  CD2 LEU G   7      36.498   0.402  32.562  1.00 64.31 LIG 0.01  C 
ATOM     26  CD1 LEU G   7      37.196   2.796  33.142  1.00 66.72 LIG 0.01  C 
ENDBRANCH 23 24
ENDBRANCH 22 23
BRANCH 22 27
ATOM     27  C   LEU G   7      38.340  -0.577  30.020  1.00 59.22 LIG 0.22  C 
ATOM     28 O    LEU G   7      38.772  -1.547  30.624  1.00 55.72 LIG-0.29  OA
ENDBRANCH 22 27
ENDBRANCH 20 22
ENDBRANCH 17 18
BRANCH 17 29
ATOM     29  CB  LEU G   6      40.645   0.891  26.062  1.00 54.67 LIG 0.04  C 
BRANCH 29 30
ATOM     30  CG  LEU G   6      40.500   0.832  24.524  1.00 53.09 LIG-0.02  C 
ATOM     31  CD1 LEU G   6      41.624   0.019  23.939  1.00 49.97 LIG 0.01  C 
ATOM     32  CD2 LEU G   6      39.123   0.336  24.076  1.00 51.63 LIG 0.01  C 
ENDBRANCH 29 30
ENDBRANCH 17 29
ENDBRANCH 14 17
ENDBRANCH 9 13
ENDBRANCH 1 6
BRANCH 1 33
ATOM     33  N   LEU G   4      38.297   7.660  23.059  1.00 70.21 LIG-0.35  N 
ATOM     34  C   ARG G   3      39.509   8.164  22.794  1.00 75.48 LIG 0.24  C 
ATOM     35 O    ARG G   3      40.347   8.384  23.712  1.00 65.52 LIG-0.27  OA
ATOM     36 H    LEU G   4      37.680   7.542  22.472  1.00 70.21 LIG 0.16  HD
BRANCH 34 37
ATOM     37  CA  ARG G   3      39.823   8.509  21.290  1.00 78.48 LIG 0.18  C 
BRANCH 37 38
ATOM     38  CB  ARG G   3      38.750   9.434  20.675  1.00 76.51 LIG 0.04  C 
BRANCH 38 39
ATOM     39  CG  ARG G   3      39.187  10.874  20.460  1.00 78.92 LIG 0.02  C 
BRANCH 39 40
ATOM     40  CD  ARG G   3      38.542  11.833  21.464  1.00 76.70 LIG 0.14  C 
BRANCH 40 41
ATOM     41  NE  ARG G   3      38.438  11.304  22.848  1.00 80.12 LIG-0.23  N 
ATOM     42 HE   ARG G   3      37.688  10.946  23.069  1.00 80.12 LIG 0.18  HD
ATOM     43  CZ  ARG G   3      39.399  11.327  23.795  1.00 82.69 LIG 0.67  C 
ATOM     44  NH1 ARG G   3      40.603  11.894  23.608  1.00 73.81 LIG-0.23  N 
ATOM     45  NH2 ARG G   3      39.141  10.788  24.982  1.00 84.58 LIG-0.23  N 
ATOM     46 1HH1 ARG G   3      40.791  12.266  22.856  1.00 73.81 LIG 0.17  HD
ATOM     47 2HH1 ARG G   3      41.186  11.884  24.241  1.00 73.81 LIG 0.17  HD
ATOM     48 2HH2 ARG G   3      39.743  10.794  25.597  1.00 84.58 LIG 0.17  HD
ATOM     49 1HH2 ARG G   3      38.373  10.434  25.136  1.00 84.58 LIG 0.17  HD
ENDBRANCH 40 41
ENDBRANCH 39 40
ENDBRANCH 38 39
ENDBRANCH 37 38
BRANCH 37 50
ATOM     50  N   ARG G   3      40.001   7.292  20.445  1.00 95.22 LIG-0.35  N 
ATOM     51  C   PRO G   2      39.016   6.409  20.203  1.00105.18 LIG 0.25  C 
ATOM     52 O    PRO G   2      37.904   6.491  20.739  1.00111.30 LIG-0.27  OA
ATOM     53 H    ARG G   3      40.796   7.207  20.126  1.00 95.22 LIG 0.16  HD
BRANCH 51 54
ATOM     54  CA  PRO G   2      39.313   5.240  19.213  1.00104.44 LIG 0.35  C 
ATOM     55  N   PRO G   2      38.819   3.930  19.658  1.00103.34 LIG 0.32  N 
ATOM     56  CD  PRO G   2      38.374   3.089  18.522  1.00102.42 LIG 0.32  C 
ATOM     57  CG  PRO G   2      38.344   4.043  17.343  1.00 98.38 LIG 0.04  C 
ATOM     58  CB  PRO G   2      38.579   5.438  17.871  1.00102.80 LIG 0.05  C 
ENDBRANCH 51 54
ENDBRANCH 37 50
ENDBRANCH 34 37
ENDBRANCH 1 33
TORSDOF 20
ENDMDL
MODEL 11
USER: ADFR SOLUTION from run 86
USER: SCORE 15.946688 LL:  -4.175 LR: -13.129 RR:   0.000 FEB:  -7.163
USER: RMSD 8.933002
USER: SEED 85
USER: STATUS no improvement in best in 11 clusters for 5 generations
USER: GENES 22
USER: genes 0 Translation |==|  0.39693 0.58321 0.55578
USER: genes 1 Rotation |==|  0.72588 0.27083 0.17056 0.69475
USER: genes 2 Torsion [C]-CA--CB-[CG] |==|  0.33044
USER: genes 3 Torsion [CA]-CB--CG-[CD1] |==|  0.70715
USER: genes 4 Torsion [N]-CA--C-[N] |==|  0.42391
USER: genes 5 Torsion [N]-CA--C-[N] |==|  0.85797
USER: genes 6 Torsion [C]-N--CA-[C] |==|  0.53341
USER: genes 7 Torsion [N]-CA--C-[N] |==|  0.54676
USER: genes 8 Torsion [C]-N--CA-[CB] |==|  0.80658
USER: genes 9 Torsion [N]-CA--CB-[CG] |==|  0.74702
USER: genes 10 Torsion [CA]-CB--CG-[CD2] |==|  0.67894
USER: genes 11 Torsion [N]-CA--C-[O] |==|  0.75132
USER: genes 12 Torsion [N]-CA--CB-[CG] |==|  0.15863
USER: genes 13 Torsion [CA]-CB--CG-[CD2] |==|  0.66663
USER: genes 14 Torsion [CB]-CA--N-[C] |==|  0.82471
USER: genes 15 Torsion [N]-C--CA-[N] |==|  0.60287
USER: genes 16 Torsion [C]-CA--CB-[CG] |==|  0.41846
USER: genes 17 Torsion [CA]-CB--CG-[CD] |==|  0.17378
USER: genes 18 Torsion [CB]-CG--CD-[NE] |==|  0.12153
USER: genes 19 Torsion [CG]-CD--NE-[HE] |==|  0.99416
USER: genes 20 Torsion [C]-CA--N-[C] |==|  0.68276
USER: genes 21 Torsion [N]-C--CA-[CB] |==|  0.03220
ROOT
ATOM      1  CA  LEU G   4      38.172   7.042  24.506  1.00 72.45 LIG 0.18  C 
ENDROOT
BRANCH 1 2
ATOM      2  CB  LEU G   4      37.350   5.807  24.954  1.00 74.60 LIG 0.04  C 
BRANCH 2 3
ATOM      3  CG  LEU G   4      35.901   6.134  25.449  1.00 80.94 LIG-0.02  C 
ATOM      4  CD2 LEU G   4      35.357   7.484  24.946  1.00 76.26 LIG 0.01  C 
ATOM      5  CD1 LEU G   4      35.788   6.035  26.976  1.00 74.38 LIG 0.01  C 
ENDBRANCH 2 3
ENDBRANCH 1 2
BRANCH 1 6
ATOM      6  C   LEU G   4      39.466   7.266  25.340  1.00 69.99 LIG 0.24  C 
ATOM      7 O    LEU G   4      40.614   7.008  24.870  1.00 62.75 LIG-0.27  OA
ATOM      8  N   PRO G   5      39.286   7.821  26.566  1.00 68.53 LIG-0.34  N 
ATOM      9  CA  PRO G   5      40.453   7.968  27.414  1.00 66.41 LIG 0.18  C 
ATOM     10  CD  PRO G   5      38.096   8.472  27.165  1.00 67.94 LIG 0.13  C 
ATOM     11  CB  PRO G   5      39.897   8.707  28.659  1.00 68.06 LIG 0.04  C 
ATOM     12  CG  PRO G   5      38.695   9.444  28.153  1.00 67.97 LIG 0.02  C 
BRANCH 9 13
ATOM     13  C   PRO G   5      41.029   6.584  27.731  1.00 65.16 LIG 0.24  C 
ATOM     14  N   LEU G   6      40.186   5.671  28.197  1.00 58.40 LIG-0.35  N 
ATOM     15 H    LEU G   6      39.330   5.756  28.197  1.00 58.40 LIG 0.16  HD
ATOM     16 O    PRO G   5      42.240   6.355  27.557  1.00 57.12 LIG-0.27  OA
BRANCH 14 17
ATOM     17  CA  LEU G   6      40.676   4.416  28.761  1.00 60.31 LIG 0.18  C 
BRANCH 17 18
ATOM     18  C   LEU G   6      39.603   3.355  28.988  1.00 60.34 LIG 0.24  C 
ATOM     19 O    LEU G   6      38.521   3.505  28.447  1.00 72.64 LIG-0.27  OA
ATOM     20  N   LEU G   7      39.864   2.319  29.797  1.00 65.91 LIG-0.35  N 
ATOM     21 H    LEU G   7      40.573   2.258  30.281  1.00 65.91 LIG 0.16  HD
BRANCH 20 22
ATOM     22  CA  LEU G   7      38.923   1.152  29.929  1.00 66.14 LIG 0.16  C 
BRANCH 22 23
ATOM     23  CB  LEU G   7      37.636   1.579  30.660  1.00 64.61 LIG 0.04  C 
BRANCH 23 24
ATOM     24  CG  LEU G   7      37.572   1.440  32.193  1.00 68.76 LIG-0.02  C 
ATOM     25  CD2 LEU G   7      36.498   0.416  32.620  1.00 64.31 LIG 0.01  C 
ATOM     26  CD1 LEU G   7      37.403   2.796  32.889  1.00 66.72 LIG 0.01  C 
ENDBRANCH 23 24
ENDBRANCH 22 23
BRANCH 22 27
ATOM     27  C   LEU G   7      38.582   0.465  28.601  1.00 59.22 LIG 0.22  C 
ATOM     28 O    LEU G   7      37.623   0.859  27.954  1.00 55.72 LIG-0.29  OA
ENDBRANCH 22 27
ENDBRANCH 20 22
ENDBRANCH 17 18
BRANCH 17 29
ATOM     29  CB  LEU G   6      41.505   4.676  30.044  1.00 54.67 LIG 0.04  C 
BRANCH 29 30
ATOM     30  CG  LEU G   6      40.623   5.448  31.052  1.00 53.09 LIG-0.02  C 
ATOM     31  CD1 LEU G   6      40.348   4.582  32.253  1.00 49.97 LIG 0.01  C 
ATOM     32  CD2 LEU G   6      41.210   6.809  31.433  1.00 51.63 LIG 0.01  C 
ENDBRANCH 29 30
ENDBRANCH 17 29
ENDBRANCH 14 17
ENDBRANCH 9 13
ENDBRANCH 1 6
BRANCH 1 33
ATOM     33  N   LEU G   4      38.416   7.067  23.055  1.00 70.21 LIG-0.35  N 
ATOM     34  C   ARG G   3      39.135   6.101  22.471  1.00 75.48 LIG 0.24  C 
ATOM     35 O    ARG G   3      39.686   5.187  23.147  1.00 65.52 LIG-0.27  OA
ATOM     36 H    LEU G   4      38.066   7.733  22.639  1.00 70.21 LIG 0.16  HD
BRANCH 34 37
ATOM     37  CA  ARG G   3      39.295   6.180  20.906  1.00 78.48 LIG 0.18  C 
BRANCH 37 38
ATOM     38  CB  ARG G   3      38.235   7.102  20.266  1.00 76.51 LIG 0.04  C 
BRANCH 38 39
ATOM     39  CG  ARG G   3      38.671   7.792  18.982  1.00 78.92 LIG 0.02  C 
BRANCH 39 40
ATOM     40  CD  ARG G   3      38.982   6.793  17.863  1.00 76.70 LIG 0.14  C 
BRANCH 40 41
ATOM     41  NE  ARG G   3      37.998   5.689  17.726  1.00 80.12 LIG-0.23  N 
ATOM     42 HE   ARG G   3      37.352   5.675  18.293  1.00 80.12 LIG 0.18  HD
ATOM     43  CZ  ARG G   3      38.013   4.705  16.802  1.00 82.69 LIG 0.67  C 
ATOM     44  NH1 ARG G   3      38.985   4.573  15.884  1.00 73.81 LIG-0.23  N 
ATOM     45  NH2 ARG G   3      37.038   3.803  16.811  1.00 84.58 LIG-0.23  N 
ATOM     46 1HH1 ARG G   3      39.639   5.132  15.865  1.00 73.81 LIG 0.17  HD
ATOM     47 2HH1 ARG G   3      38.953   3.930  15.313  1.00 73.81 LIG 0.17  HD
ATOM     48 2HH2 ARG G   3      37.033   3.169  16.230  1.00 84.58 LIG 0.17  HD
ATOM     49 1HH2 ARG G   3      36.412   3.853  17.399  1.00 84.58 LIG 0.17  HD
ENDBRANCH 40 41
ENDBRANCH 39 40
ENDBRANCH 38 39
ENDBRANCH 37 38
BRANCH 37 50
ATOM     50  N   ARG G   3      39.272   4.837  20.256  1.00 95.22 LIG-0.35  N 
ATOM     51  C   PRO G   2      40.332   4.305  19.623  1.00105.18 LIG 0.25  C 
ATOM     52 O    PRO G   2      41.387   4.928  19.451  1.00111.30 LIG-0.27  OA
ATOM     53 H    ARG G   3      38.515   4.434  20.325  1.00 95.22 LIG 0.16  HD
BRANCH 51 54
ATOM     54  CA  PRO G   2      40.201   2.846  19.083  1.00104.44 LIG 0.35  C 
ATOM     55  N   PRO G   2      40.901   1.837  19.888  1.00103.34 LIG 0.32  N 
ATOM     56  CD  PRO G   2      40.182   0.541  19.903  1.00102.42 LIG 0.32  C 
ATOM     57  CG  PRO G   2      38.830   0.860  19.293  1.00 98.38 LIG 0.04  C 
ATOM     58  CB  PRO G   2      38.738   2.358  19.129  1.00102.80 LIG 0.05  C 
ENDBRANCH 51 54
ENDBRANCH 37 50
ENDBRANCH 34 37
ENDBRANCH 1 33
TORSDOF 20
ENDMDL
MODEL 12
USER: ADFR SOLUTION from run 102
USER: SCORE 15.504095 LL:  -3.995 LR: -13.118 RR:   0.000 FEB:  -7.152
USER: RMSD 9.752392
USER: SEED 101
USER: STATUS no improvement in best in 14 clusters for 5 generations
USER: GENES 22
USER: genes 0 Translation |==|  0.36856 0.56552 0.53187
USER: genes 1 Rotation |==|  0.61777 0.22602 0.10322 0.56026
USER: genes 2 Torsion [C]-CA--CB-[CG] |==|  0.20924
USER: genes 3 Torsion [CA]-CB--CG-[CD1] |==|  0.37427
USER: genes 4 Torsion [N]-CA--C-[N] |==|  0.42914
USER: genes 5 Torsion [N]-CA--C-[N] |==|  0.56071
USER: genes 6 Torsion [C]-N--CA-[C] |==|  0.17160
USER: genes 7 Torsion [N]-CA--C-[N] |==|  0.65451
USER: genes 8 Torsion [C]-N--CA-[CB] |==|  0.34607
USER: genes 9 Torsion [N]-CA--CB-[CG] |==|  0.94000
USER: genes 10 Torsion [CA]-CB--CG-[CD2] |==|  0.83418
USER: genes 11 Torsion [N]-CA--C-[O] |==|  0.63544
USER: genes 12 Torsion [N]-CA--CB-[CG] |==|  0.89836
USER: genes 13 Torsion [CA]-CB--CG-[CD2] |==|  0.72650
USER: genes 14 Torsion [CB]-CA--N-[C] |==|  0.52078
USER: genes 15 Torsion [N]-C--CA-[N] |==|  0.79602
USER: genes 16 Torsion [C]-CA--CB-[CG] |==|  0.29210
USER: genes 17 Torsion [CA]-CB--CG-[CD] |==|  0.74572
USER: genes 18 Torsion [CB]-CG--CD-[NE] |==|  0.21339
USER: genes 19 Torsion [CG]-CD--NE-[HE] |==|  0.16195
USER: genes 20 Torsion [C]-CA--N-[C] |==|  0.73000
USER: genes 21 Torsion [N]-C--CA-[CB] |==|  0.76333
ROOT
ATOM      1  CA  LEU G   4      37.704   6.538  24.039  1.00 72.45 LIG 0.18  C 
ENDROOT
BRANCH 1 2
ATOM      2  CB  LEU G   4      36.283   6.156  24.527  1.00 74.60 LIG 0.04  C 
BRANCH 2 3
ATOM      3  CG  LEU G   4      35.910   6.709  25.944  1.00 80.94 LIG-0.02  C 
ATOM      4  CD2 LEU G   4      36.081   5.684  27.080  1.00 76.26 LIG 0.01  C 
ATOM      5  CD1 LEU G   4      34.501   7.315  25.962  1.00 74.38 LIG 0.01  C 
ENDBRANCH 2 3
ENDBRANCH 1 2
BRANCH 1 6
ATOM      6  C   LEU G   4      38.839   5.729  24.730  1.00 69.99 LIG 0.24  C 
ATOM      7 O    LEU G   4      39.490   4.834  24.112  1.00 62.75 LIG-0.27  OA
ATOM      8  N   PRO G   5      39.129   6.096  26.005  1.00 68.53 LIG-0.34  N 
ATOM      9  CA  PRO G   5      40.120   5.313  26.718  1.00 66.41 LIG 0.18  C 
ATOM     10  CD  PRO G   5      38.719   7.290  26.783  1.00 67.94 LIG 0.13  C 
ATOM     11  CB  PRO G   5      40.260   6.064  28.069  1.00 68.06 LIG 0.04  C 
ATOM     12  CG  PRO G   5      39.856   7.473  27.760  1.00 67.97 LIG 0.02  C 
BRANCH 9 13
ATOM     13  C   PRO G   5      39.619   3.873  26.868  1.00 65.16 LIG 0.24  C 
ATOM     14  N   LEU G   6      40.152   3.148  27.844  1.00 58.40 LIG-0.35  N 
ATOM     15 H    LEU G   6      40.642   3.467  28.475  1.00 58.40 LIG 0.16  HD
ATOM     16 O    PRO G   5      38.757   3.426  26.091  1.00 57.12 LIG-0.27  OA
BRANCH 14 17
ATOM     17  CA  LEU G   6      39.932   1.705  27.912  1.00 60.31 LIG 0.18  C 
BRANCH 17 18
ATOM     18  C   LEU G   6      40.466   0.920  26.717  1.00 60.34 LIG 0.24  C 
ATOM     19 O    LEU G   6      41.636   1.066  26.410  1.00 72.64 LIG-0.27  OA
ATOM     20  N   LEU G   7      39.634   0.129  26.026  1.00 65.91 LIG-0.35  N 
ATOM     21 H    LEU G   7      38.783   0.106  26.151  1.00 65.91 LIG 0.16  HD
BRANCH 20 22
ATOM     22  CA  LEU G   7      40.126  -0.803  24.951  1.00 66.14 LIG 0.16  C 
BRANCH 22 23
ATOM     23  CB  LEU G   7      39.676  -2.247  25.245  1.00 64.61 LIG 0.04  C 
BRANCH 23 24
ATOM     24  CG  LEU G   7      39.302  -2.628  26.691  1.00 68.76 LIG-0.02  C 
ATOM     25  CD2 LEU G   7      40.489  -2.412  27.654  1.00 64.31 LIG 0.01  C 
ATOM     26  CD1 LEU G   7      38.718  -4.043  26.782  1.00 66.72 LIG 0.01  C 
ENDBRANCH 23 24
ENDBRANCH 22 23
BRANCH 22 27
ATOM     27  C   LEU G   7      39.721  -0.395  23.530  1.00 59.22 LIG 0.22  C 
ATOM     28 O    LEU G   7      39.227  -1.229  22.786  1.00 55.72 LIG-0.29  OA
ENDBRANCH 22 27
ENDBRANCH 20 22
ENDBRANCH 17 18
BRANCH 17 29
ATOM     29  CB  LEU G   6      38.440   1.388  28.185  1.00 54.67 LIG 0.04  C 
BRANCH 29 30
ATOM     30  CG  LEU G   6      37.880   2.456  29.152  1.00 53.09 LIG-0.02  C 
ATOM     31  CD1 LEU G   6      36.532   2.923  28.668  1.00 49.97 LIG 0.01  C 
ATOM     32  CD2 LEU G   6      37.847   1.981  30.607  1.00 51.63 LIG 0.01  C 
ENDBRANCH 29 30
ENDBRANCH 17 29
ENDBRANCH 14 17
ENDBRANCH 9 13
ENDBRANCH 1 6
BRANCH 1 33
ATOM     33  N   LEU G   4      37.818   6.545  22.573  1.00 70.21 LIG-0.35  N 
ATOM     34  C   ARG G   3      39.010   6.707  21.985  1.00 75.48 LIG 0.24  C 
ATOM     35 O    ARG G   3      40.054   6.932  22.659  1.00 65.52 LIG-0.27  OA
ATOM     36 H    LEU G   4      37.077   6.440  22.150  1.00 70.21 LIG 0.16  HD
BRANCH 34 37
ATOM     37  CA  ARG G   3      39.042   6.645  20.412  1.00 78.48 LIG 0.18  C 
BRANCH 37 38
ATOM     38  CB  ARG G   3      37.998   7.589  19.777  1.00 76.51 LIG 0.04  C 
BRANCH 38 39
ATOM     39  CG  ARG G   3      38.566   8.859  19.163  1.00 78.92 LIG 0.02  C 
BRANCH 39 40
ATOM     40  CD  ARG G   3      38.597  10.022  20.160  1.00 76.70 LIG 0.14  C 
BRANCH 40 41
ATOM     41  NE  ARG G   3      39.695   9.955  21.158  1.00 80.12 LIG-0.23  N 
ATOM     42 HE   ARG G   3      40.496   9.927  20.849  1.00 80.12 LIG 0.18  HD
ATOM     43  CZ  ARG G   3      39.564   9.932  22.501  1.00 82.69 LIG 0.67  C 
ATOM     44  NH1 ARG G   3      38.373   9.923  23.124  1.00 73.81 LIG-0.23  N 
ATOM     45  NH2 ARG G   3      40.659   9.890  23.251  1.00 84.58 LIG-0.23  N 
ATOM     46 1HH1 ARG G   3      37.646   9.931  22.664  1.00 73.81 LIG 0.17  HD
ATOM     47 2HH1 ARG G   3      38.337   9.909  23.984  1.00 73.81 LIG 0.17  HD
ATOM     48 2HH2 ARG G   3      40.594   9.875  24.109  1.00 84.58 LIG 0.17  HD
ATOM     49 1HH2 ARG G   3      41.435   9.878  22.879  1.00 84.58 LIG 0.17  HD
ENDBRANCH 40 41
ENDBRANCH 39 40
ENDBRANCH 38 39
ENDBRANCH 37 38
BRANCH 37 50
ATOM     50  N   ARG G   3      38.870   5.259  19.887  1.00 95.22 LIG-0.35  N 
ATOM     51  C   PRO G   2      39.899   4.473  19.523  1.00105.18 LIG 0.25  C 
ATOM     52 O    PRO G   2      41.069   4.874  19.511  1.00111.30 LIG-0.27  OA
ATOM     53 H    ARG G   3      38.048   5.008  19.838  1.00 95.22 LIG 0.16  HD
BRANCH 51 54
ATOM     54  CA  PRO G   2      39.580   3.006  19.094  1.00104.44 LIG 0.35  C 
ATOM     55  N   PRO G   2      40.622   2.376  18.273  1.00103.34 LIG 0.32  N 
ATOM     56  CD  PRO G   2      40.739   0.924  18.543  1.00102.42 LIG 0.32  C 
ATOM     57  CG  PRO G   2      39.906   0.710  19.793  1.00 98.38 LIG 0.04  C 
ATOM     58  CB  PRO G   2      39.499   2.067  20.315  1.00102.80 LIG 0.05  C 
ENDBRANCH 51 54
ENDBRANCH 37 50
ENDBRANCH 34 37
ENDBRANCH 1 33
TORSDOF 20
ENDMDL
MODEL 13
USER: ADFR SOLUTION from run 157
USER: SCORE 16.543591 LL:  -4.300 LR: -13.095 RR:   0.000 FEB:  -7.129
USER: RMSD 6.717705
USER: SEED 156
USER: STATUS no improvement in best in 8 clusters for 5 generations
USER: GENES 22
USER: genes 0 Translation |==|  0.48699 0.35545 0.61419
USER: genes 1 Rotation |==|  0.71374 0.36666 0.38198 0.91546
USER: genes 2 Torsion [C]-CA--CB-[CG] |==|  0.25988
USER: genes 3 Torsion [CA]-CB--CG-[CD1] |==|  0.90908
USER: genes 4 Torsion [N]-CA--C-[N] |==|  0.84387
USER: genes 5 Torsion [N]-CA--C-[N] |==|  0.37742
USER: genes 6 Torsion [C]-N--CA-[C] |==|  0.78622
USER: genes 7 Torsion [N]-CA--C-[N] |==|  0.46615
USER: genes 8 Torsion [C]-N--CA-[CB] |==|  0.30625
USER: genes 9 Torsion [N]-CA--CB-[CG] |==|  0.88250
USER: genes 10 Torsion [CA]-CB--CG-[CD2] |==|  0.85267
USER: genes 11 Torsion [N]-CA--C-[O] |==|  0.67720
USER: genes 12 Torsion [N]-CA--CB-[CG] |==|  0.73438
USER: genes 13 Torsion [CA]-CB--CG-[CD2] |==|  0.56660
USER: genes 14 Torsion [CB]-CA--N-[C] |==|  0.16473
USER: genes 15 Torsion [N]-C--CA-[N] |==|  0.01106
USER: genes 16 Torsion [C]-CA--CB-[CG] |==|  0.55686
USER: genes 17 Torsion [CA]-CB--CG-[CD] |==|  0.62487
USER: genes 18 Torsion [CB]-CG--CD-[NE] |==|  0.38841
USER: genes 19 Torsion [CG]-CD--NE-[HE] |==|  0.09104
USER: genes 20 Torsion [C]-CA--N-[C] |==|  0.76667
USER: genes 21 Torsion [N]-C--CA-[CB] |==|  0.39025
ROOT
ATOM      1  CA  LEU G   4      39.658   0.551  25.645  1.00 72.45 LIG 0.18  C 
ENDROOT
BRANCH 1 2
ATOM      2  CB  LEU G   4      40.369  -0.201  26.798  1.00 74.60 LIG 0.04  C 
BRANCH 2 3
ATOM      3  CG  LEU G   4      39.482  -0.438  28.067  1.00 80.94 LIG-0.02  C 
ATOM      4  CD2 LEU G   4      38.766  -1.800  28.084  1.00 76.26 LIG 0.01  C 
ATOM      5  CD1 LEU G   4      38.483   0.707  28.280  1.00 74.38 LIG 0.01  C 
ENDBRANCH 2 3
ENDBRANCH 1 2
BRANCH 1 6
ATOM      6  C   LEU G   4      39.885   2.090  25.671  1.00 69.99 LIG 0.24  C 
ATOM      7 O    LEU G   4      38.993   2.887  26.088  1.00 62.75 LIG-0.27  OA
ATOM      8  N   PRO G   5      41.120   2.508  25.289  1.00 68.53 LIG-0.34  N 
ATOM      9  CA  PRO G   5      41.350   3.938  25.214  1.00 66.41 LIG 0.18  C 
ATOM     10  CD  PRO G   5      42.373   1.745  25.074  1.00 67.94 LIG 0.13  C 
ATOM     11  CB  PRO G   5      42.855   4.036  24.852  1.00 68.06 LIG 0.04  C 
ATOM     12  CG  PRO G   5      43.450   2.762  25.367  1.00 67.97 LIG 0.02  C 
BRANCH 9 13
ATOM     13  C   PRO G   5      40.425   4.548  24.156  1.00 65.16 LIG 0.24  C 
ATOM     14  N   LEU G   6      39.807   5.679  24.475  1.00 58.40 LIG-0.35  N 
ATOM     15 H    LEU G   6      39.997   6.159  25.163  1.00 58.40 LIG 0.16  HD
ATOM     16 O    PRO G   5      40.271   3.983  23.059  1.00 57.12 LIG-0.27  OA
BRANCH 14 17
ATOM     17  CA  LEU G   6      38.724   6.201  23.645  1.00 60.31 LIG 0.18  C 
BRANCH 17 18
ATOM     18  C   LEU G   6      39.176   6.880  22.356  1.00 60.34 LIG 0.24  C 
ATOM     19 O    LEU G   6      40.354   7.169  22.240  1.00 72.64 LIG-0.27  OA
ATOM     20  N   LEU G   7      38.268   7.171  21.414  1.00 65.91 LIG-0.35  N 
ATOM     21 H    LEU G   7      37.420   7.088  21.527  1.00 65.91 LIG 0.16  HD
BRANCH 20 22
ATOM     22  CA  LEU G   7      38.665   7.680  20.054  1.00 66.14 LIG 0.16  C 
BRANCH 22 23
ATOM     23  CB  LEU G   7      38.390   6.610  18.980  1.00 64.61 LIG 0.04  C 
BRANCH 23 24
ATOM     24  CG  LEU G   7      38.748   5.142  19.285  1.00 68.76 LIG-0.02  C 
ATOM     25  CD2 LEU G   7      40.216   5.006  19.745  1.00 64.31 LIG 0.01  C 
ATOM     26  CD1 LEU G   7      38.407   4.210  18.117  1.00 66.72 LIG 0.01  C 
ENDBRANCH 23 24
ENDBRANCH 22 23
BRANCH 22 27
ATOM     27  C   LEU G   7      38.009   9.010  19.664  1.00 59.22 LIG 0.22  C 
ATOM     28 O    LEU G   7      37.248   9.044  18.709  1.00 55.72 LIG-0.29  OA
ENDBRANCH 22 27
ENDBRANCH 20 22
ENDBRANCH 17 18
BRANCH 17 29
ATOM     29  CB  LEU G   6      37.785   7.112  24.475  1.00 54.67 LIG 0.04  C 
BRANCH 29 30
ATOM     30  CG  LEU G   6      36.587   6.268  24.965  1.00 53.09 LIG-0.02  C 
ATOM     31  CD1 LEU G   6      37.007   5.421  26.138  1.00 49.97 LIG 0.01  C 
ATOM     32  CD2 LEU G   6      35.349   7.115  25.269  1.00 51.63 LIG 0.01  C 
ENDBRANCH 29 30
ENDBRANCH 17 29
ENDBRANCH 14 17
ENDBRANCH 9 13
ENDBRANCH 1 6
BRANCH 1 33
ATOM     33  N   LEU G   4      39.929  -0.044  24.327  1.00 70.21 LIG-0.35  N 
ATOM     34  C   ARG G   3      39.600  -1.317  24.076  1.00 75.48 LIG 0.24  C 
ATOM     35 O    ARG G   3      39.122  -2.065  24.975  1.00 65.52 LIG-0.27  OA
ATOM     36 H    LEU G   4      40.301   0.484  23.760  1.00 70.21 LIG 0.16  HD
BRANCH 34 37
ATOM     37  CA  ARG G   3      39.876  -1.850  22.621  1.00 78.48 LIG 0.18  C 
BRANCH 37 38
ATOM     38  CB  ARG G   3      40.671  -3.174  22.634  1.00 76.51 LIG 0.04  C 
BRANCH 38 39
ATOM     39  CG  ARG G   3      41.393  -3.507  21.337  1.00 78.92 LIG 0.02  C 
BRANCH 39 40
ATOM     40  CD  ARG G   3      41.204  -4.970  20.926  1.00 76.70 LIG 0.14  C 
BRANCH 40 41
ATOM     41  NE  ARG G   3      40.998  -5.185  19.472  1.00 80.12 LIG-0.23  N 
ATOM     42 HE   ARG G   3      41.401  -4.642  18.941  1.00 80.12 LIG 0.18  HD
ATOM     43  CZ  ARG G   3      40.243  -6.144  18.897  1.00 82.69 LIG 0.67  C 
ATOM     44  NH1 ARG G   3      39.520  -7.031  19.600  1.00 73.81 LIG-0.23  N 
ATOM     45  NH2 ARG G   3      40.184  -6.204  17.571  1.00 84.58 LIG-0.23  N 
ATOM     46 1HH1 ARG G   3      39.524  -7.005  20.460  1.00 73.81 LIG 0.17  HD
ATOM     47 2HH1 ARG G   3      39.052  -7.627  19.191  1.00 73.81 LIG 0.17  HD
ATOM     48 2HH2 ARG G   3      39.707  -6.809  17.188  1.00 84.58 LIG 0.17  HD
ATOM     49 1HH2 ARG G   3      40.623  -5.638  17.095  1.00 84.58 LIG 0.17  HD
ENDBRANCH 40 41
ENDBRANCH 39 40
ENDBRANCH 38 39
ENDBRANCH 37 38
BRANCH 37 50
ATOM     50  N   ARG G   3      40.564  -0.844  21.759  1.00 95.22 LIG-0.35  N 
ATOM     51  C   PRO G   2      39.914   0.124  21.090  1.00105.18 LIG 0.25  C 
ATOM     52 O    PRO G   2      38.680   0.201  21.065  1.00111.30 LIG-0.27  OA
ATOM     53 H    ARG G   3      41.419  -0.942  21.731  1.00 95.22 LIG 0.16  HD
BRANCH 51 54
ATOM     54  CA  PRO G   2      40.770   1.174  20.315  1.00104.44 LIG 0.35  C 
ATOM     55  N   PRO G   2      42.104   0.699  19.924  1.00103.34 LIG 0.32  N 
ATOM     56  CD  PRO G   2      42.539   1.269  18.628  1.00102.42 LIG 0.32  C 
ATOM     57  CG  PRO G   2      41.287   1.917  18.068  1.00 98.38 LIG 0.04  C 
ATOM     58  CB  PRO G   2      40.130   1.532  18.958  1.00102.80 LIG 0.05  C 
ENDBRANCH 51 54
ENDBRANCH 37 50
ENDBRANCH 34 37
ENDBRANCH 1 33
TORSDOF 20
ENDMDL
MODEL 14
USER: ADFR SOLUTION from run 122
USER: SCORE 15.512202 LL:  -3.631 LR: -13.102 RR:   0.000 FEB:  -7.136
USER: RMSD 6.085132
USER: SEED 121
USER: STATUS no improvement in best in 17 clusters for 5 generations
USER: GENES 22
USER: genes 0 Translation |==|  0.41723 0.37977 0.76129
USER: genes 1 Rotation |==|  0.68595 0.31274 0.46290 0.92306
USER: genes 2 Torsion [C]-CA--CB-[CG] |==|  0.19269
USER: genes 3 Torsion [CA]-CB--CG-[CD1] |==|  0.32391
USER: genes 4 Torsion [N]-CA--C-[N] |==|  0.84931
USER: genes 5 Torsion [N]-CA--C-[N] |==|  0.41825
USER: genes 6 Torsion [C]-N--CA-[C] |==|  0.78214
USER: genes 7 Torsion [N]-CA--C-[N] |==|  0.48226
USER: genes 8 Torsion [C]-N--CA-[CB] |==|  0.77110
USER: genes 9 Torsion [N]-CA--CB-[CG] |==|  0.69258
USER: genes 10 Torsion [CA]-CB--CG-[CD2] |==|  0.81193
USER: genes 11 Torsion [N]-CA--C-[O] |==|  0.43764
USER: genes 12 Torsion [N]-CA--CB-[CG] |==|  0.79248
USER: genes 13 Torsion [CA]-CB--CG-[CD2] |==|  0.98028
USER: genes 14 Torsion [CB]-CA--N-[C] |==|  0.16679
USER: genes 15 Torsion [N]-C--CA-[N] |==|  0.93862
USER: genes 16 Torsion [C]-CA--CB-[CG] |==|  0.32938
USER: genes 17 Torsion [CA]-CB--CG-[CD] |==|  0.05504
USER: genes 18 Torsion [CB]-CG--CD-[NE] |==|  0.21568
USER: genes 19 Torsion [CG]-CD--NE-[HE] |==|  0.96061
USER: genes 20 Torsion [C]-CA--N-[C] |==|  0.65127
USER: genes 21 Torsion [N]-C--CA-[CB] |==|  0.64391
ROOT
ATOM      1  CA  LEU G   4      38.507   1.245  28.513  1.00 72.45 LIG 0.18  C 
ENDROOT
BRANCH 1 2
ATOM      2  CB  LEU G   4      38.928   0.904  29.966  1.00 74.60 LIG 0.04  C 
BRANCH 2 3
ATOM      3  CG  LEU G   4      37.904   1.353  31.063  1.00 80.94 LIG-0.02  C 
ATOM      4  CD2 LEU G   4      38.458   2.404  32.042  1.00 76.26 LIG 0.01  C 
ATOM      5  CD1 LEU G   4      37.323   0.153  31.821  1.00 74.38 LIG 0.01  C 
ENDBRANCH 2 3
ENDBRANCH 1 2
BRANCH 1 6
ATOM      6  C   LEU G   4      38.535   2.768  28.197  1.00 69.99 LIG 0.24  C 
ATOM      7 O    LEU G   4      37.477   3.464  28.184  1.00 62.75 LIG-0.27  OA
ATOM      8  N   PRO G   5      39.768   3.306  28.012  1.00 68.53 LIG-0.34  N 
ATOM      9  CA  PRO G   5      39.838   4.703  27.629  1.00 66.41 LIG 0.18  C 
ATOM     10  CD  PRO G   5      41.115   2.752  28.289  1.00 67.94 LIG 0.13  C 
ATOM     11  CB  PRO G   5      41.362   4.988  27.605  1.00 68.06 LIG 0.04  C 
ATOM     12  CG  PRO G   5      41.948   3.984  28.549  1.00 67.97 LIG 0.02  C 
BRANCH 9 13
ATOM     13  C   PRO G   5      39.158   4.893  26.269  1.00 65.16 LIG 0.24  C 
ATOM     14  N   LEU G   6      38.598   6.074  26.035  1.00 58.40 LIG-0.35  N 
ATOM     15 H    LEU G   6      38.713   6.771  26.524  1.00 58.40 LIG 0.16  HD
ATOM     16 O    PRO G   5      39.140   3.964  25.443  1.00 57.12 LIG-0.27  OA
BRANCH 14 17
ATOM     17  CA  LEU G   6      37.717   6.270  24.886  1.00 60.31 LIG 0.18  C 
BRANCH 17 18
ATOM     18  C   LEU G   6      38.436   6.447  23.552  1.00 60.34 LIG 0.24  C 
ATOM     19 O    LEU G   6      39.649   6.565  23.563  1.00 72.64 LIG-0.27  OA
ATOM     20  N   LEU G   7      37.719   6.505  22.422  1.00 65.91 LIG-0.35  N 
ATOM     21 H    LEU G   7      36.860   6.546  22.403  1.00 65.91 LIG 0.16  HD
BRANCH 20 22
ATOM     22  CA  LEU G   7      38.367   6.503  21.063  1.00 66.14 LIG 0.16  C 
BRANCH 22 23
ATOM     23  CB  LEU G   7      38.838   7.922  20.690  1.00 64.61 LIG 0.04  C 
BRANCH 23 24
ATOM     24  CG  LEU G   7      38.109   8.673  19.559  1.00 68.76 LIG-0.02  C 
ATOM     25  CD2 LEU G   7      38.358   8.005  18.189  1.00 64.31 LIG 0.01  C 
ATOM     26  CD1 LEU G   7      38.439  10.170  19.554  1.00 66.72 LIG 0.01  C 
ENDBRANCH 23 24
ENDBRANCH 22 23
BRANCH 22 27
ATOM     27  C   LEU G   7      39.519   5.501  20.917  1.00 59.22 LIG 0.22  C 
ATOM     28 O    LEU G   7      39.838   5.115  19.803  1.00 55.72 LIG-0.29  OA
ENDBRANCH 22 27
ENDBRANCH 20 22
ENDBRANCH 17 18
BRANCH 17 29
ATOM     29  CB  LEU G   6      36.713   7.420  25.153  1.00 54.67 LIG 0.04  C 
BRANCH 29 30
ATOM     30  CG  LEU G   6      35.631   6.910  26.132  1.00 53.09 LIG-0.02  C 
ATOM     31  CD1 LEU G   6      34.266   7.296  25.627  1.00 49.97 LIG 0.01  C 
ATOM     32  CD2 LEU G   6      35.748   5.410  26.417  1.00 51.63 LIG 0.01  C 
ENDBRANCH 29 30
ENDBRANCH 17 29
ENDBRANCH 14 17
ENDBRANCH 9 13
ENDBRANCH 1 6
BRANCH 1 33
ATOM     33  N   LEU G   4      39.223   0.440  27.512  1.00 70.21 LIG-0.35  N 
ATOM     34  C   ARG G   3      39.123  -0.895  27.515  1.00 75.48 LIG 0.24  C 
ATOM     35 O    ARG G   3      38.479  -1.507  28.412  1.00 65.52 LIG-0.27  OA
ATOM     36 H    LEU G   4      39.691   0.892  26.949  1.00 70.21 LIG 0.16  HD
BRANCH 34 37
ATOM     37  CA  ARG G   3      39.879  -1.668  26.370  1.00 78.48 LIG 0.18  C 
BRANCH 37 38
ATOM     38  CB  ARG G   3      41.189  -2.310  26.878  1.00 76.51 LIG 0.04  C 
BRANCH 38 39
ATOM     39  CG  ARG G   3      41.249  -3.826  26.770  1.00 78.92 LIG 0.02  C 
BRANCH 39 40
ATOM     40  CD  ARG G   3      40.237  -4.376  25.760  1.00 76.70 LIG 0.14  C 
BRANCH 40 41
ATOM     41  NE  ARG G   3      40.636  -4.227  24.338  1.00 80.12 LIG-0.23  N 
ATOM     42 HE   ARG G   3      41.288  -3.692  24.174  1.00 80.12 LIG 0.18  HD
ATOM     43  CZ  ARG G   3      40.080  -4.846  23.275  1.00 82.69 LIG 0.67  C 
ATOM     44  NH1 ARG G   3      39.025  -5.673  23.373  1.00 73.81 LIG-0.23  N 
ATOM     45  NH2 ARG G   3      40.576  -4.611  22.065  1.00 84.58 LIG-0.23  N 
ATOM     46 1HH1 ARG G   3      38.671  -5.829  24.142  1.00 73.81 LIG 0.17  HD
ATOM     47 2HH1 ARG G   3      38.703  -6.046  22.668  1.00 73.81 LIG 0.17  HD
ATOM     48 2HH2 ARG G   3      40.233  -4.997  21.377  1.00 84.58 LIG 0.17  HD
ATOM     49 1HH2 ARG G   3      41.240  -4.072  21.970  1.00 84.58 LIG 0.17  HD
ENDBRANCH 40 41
ENDBRANCH 39 40
ENDBRANCH 38 39
ENDBRANCH 37 38
BRANCH 37 50
ATOM     50  N   ARG G   3      40.152  -0.812  25.179  1.00 95.22 LIG-0.35  N 
ATOM     51  C   PRO G   2      39.776  -1.141  23.931  1.00105.18 LIG 0.25  C 
ATOM     52 O    PRO G   2      39.250  -2.227  23.659  1.00111.30 LIG-0.27  OA
ATOM     53 H    ARG G   3      40.574  -0.086  25.366  1.00 95.22 LIG 0.16  HD
BRANCH 51 54
ATOM     54  CA  PRO G   2      40.030  -0.100  22.795  1.00104.44 LIG 0.35  C 
ATOM     55  N   PRO G   2      40.975  -0.548  21.764  1.00103.34 LIG 0.32  N 
ATOM     56  CD  PRO G   2      40.623  -0.026  20.423  1.00102.42 LIG 0.32  C 
ATOM     57  CG  PRO G   2      39.232   0.552  20.603  1.00 98.38 LIG 0.04  C 
ATOM     58  CB  PRO G   2      38.748   0.171  21.982  1.00102.80 LIG 0.05  C 
ENDBRANCH 51 54
ENDBRANCH 37 50
ENDBRANCH 34 37
ENDBRANCH 1 33
TORSDOF 20
ENDMDL
MODEL 15
USER: ADFR SOLUTION from run 189
USER: SCORE 16.537801 LL:  -3.812 LR: -13.007 RR:   0.000 FEB:  -7.041
USER: RMSD 10.642464
USER: SEED 188
USER: STATUS no improvement in best in 7 clusters for 5 generations
USER: GENES 22
USER: genes 0 Translation |==|  0.38860 0.59214 0.56462
USER: genes 1 Rotation |==|  0.32175 0.71919 0.91190 0.52279
USER: genes 2 Torsion [C]-CA--CB-[CG] |==|  0.23387
USER: genes 3 Torsion [CA]-CB--CG-[CD1] |==|  0.46762
USER: genes 4 Torsion [N]-CA--C-[N] |==|  0.34444
USER: genes 5 Torsion [N]-CA--C-[N] |==|  0.43574
USER: genes 6 Torsion [C]-N--CA-[C] |==|  0.74561
USER: genes 7 Torsion [N]-CA--C-[N] |==|  0.99310
USER: genes 8 Torsion [C]-N--CA-[CB] |==|  0.17656
USER: genes 9 Torsion [N]-CA--CB-[CG] |==|  0.72144
USER: genes 10 Torsion [CA]-CB--CG-[CD2] |==|  0.67508
USER: genes 11 Torsion [N]-CA--C-[O] |==|  0.28789
USER: genes 12 Torsion [N]-CA--CB-[CG] |==|  0.78736
USER: genes 13 Torsion [CA]-CB--CG-[CD2] |==|  0.57859
USER: genes 14 Torsion [CB]-CA--N-[C] |==|  0.84590
USER: genes 15 Torsion [N]-C--CA-[N] |==|  0.95228
USER: genes 16 Torsion [C]-CA--CB-[CG] |==|  0.26144
USER: genes 17 Torsion [CA]-CB--CG-[CD] |==|  0.15128
USER: genes 18 Torsion [CB]-CG--CD-[NE] |==|  0.65124
USER: genes 19 Torsion [CG]-CD--NE-[HE] |==|  0.14634
USER: genes 20 Torsion [C]-CA--N-[C] |==|  0.70852
USER: genes 21 Torsion [N]-C--CA-[CB] |==|  0.76674
ROOT
ATOM      1  CA  LEU G   4      38.035   7.297  24.678  1.00 72.45 LIG 0.18  C 
ENDROOT
BRANCH 1 2
ATOM      2  CB  LEU G   4      36.521   6.988  24.551  1.00 74.60 LIG 0.04  C 
BRANCH 2 3
ATOM      3  CG  LEU G   4      35.673   7.356  25.814  1.00 80.94 LIG-0.02  C 
ATOM      4  CD2 LEU G   4      36.022   6.529  27.065  1.00 76.26 LIG 0.01  C 
ATOM      5  CD1 LEU G   4      34.168   7.296  25.522  1.00 74.38 LIG 0.01  C 
ENDBRANCH 2 3
ENDBRANCH 1 2
BRANCH 1 6
ATOM      6  C   LEU G   4      38.843   6.174  25.389  1.00 69.99 LIG 0.24  C 
ATOM      7 O    LEU G   4      39.165   5.104  24.791  1.00 62.75 LIG-0.27  OA
ATOM      8  N   PRO G   5      39.239   6.450  26.659  1.00 68.53 LIG-0.34  N 
ATOM      9  CA  PRO G   5      39.920   5.400  27.392  1.00 66.41 LIG 0.18  C 
ATOM     10  CD  PRO G   5      39.243   7.727  27.413  1.00 67.94 LIG 0.13  C 
ATOM     11  CB  PRO G   5      40.299   6.089  28.729  1.00 68.06 LIG 0.04  C 
ATOM     12  CG  PRO G   5      40.378   7.546  28.392  1.00 67.97 LIG 0.02  C 
BRANCH 9 13
ATOM     13  C   PRO G   5      38.976   4.206  27.565  1.00 65.16 LIG 0.24  C 
ATOM     14  N   LEU G   6      39.535   3.020  27.773  1.00 58.40 LIG-0.35  N 
ATOM     15 H    LEU G   6      40.367   2.901  27.957  1.00 58.40 LIG 0.16  HD
ATOM     16 O    PRO G   5      37.744   4.367  27.502  1.00 57.12 LIG-0.27  OA
BRANCH 14 17
ATOM     17  CA  LEU G   6      38.743   1.795  27.699  1.00 60.31 LIG 0.18  C 
BRANCH 17 18
ATOM     18  C   LEU G   6      38.143   1.340  29.026  1.00 60.34 LIG 0.24  C 
ATOM     19 O    LEU G   6      37.406   0.370  29.022  1.00 72.64 LIG-0.27  OA
ATOM     20  N   LEU G   7      38.411   2.034  30.140  1.00 65.91 LIG-0.35  N 
ATOM     21 H    LEU G   7      38.828   2.787  30.145  1.00 65.91 LIG 0.16  HD
BRANCH 20 22
ATOM     22  CA  LEU G   7      37.999   1.547  31.504  1.00 66.14 LIG 0.16  C 
BRANCH 22 23
ATOM     23  CB  LEU G   7      38.717   0.226  31.842  1.00 64.61 LIG 0.04  C 
BRANCH 23 24
ATOM     24  CG  LEU G   7      37.950  -1.100  31.671  1.00 68.76 LIG-0.02  C 
ATOM     25  CD2 LEU G   7      37.780  -1.829  33.022  1.00 64.31 LIG 0.01  C 
ATOM     26  CD1 LEU G   7      38.574  -1.993  30.593  1.00 66.72 LIG 0.01  C 
ENDBRANCH 23 24
ENDBRANCH 22 23
BRANCH 22 27
ATOM     27  C   LEU G   7      38.206   2.570  32.627  1.00 59.22 LIG 0.22  C 
ATOM     28 O    LEU G   7      37.240   3.171  33.073  1.00 55.72 LIG-0.29  OA
ENDBRANCH 22 27
ENDBRANCH 20 22
ENDBRANCH 17 18
BRANCH 17 29
ATOM     29  CB  LEU G   6      39.547   0.660  27.015  1.00 54.67 LIG 0.04  C 
BRANCH 29 30
ATOM     30  CG  LEU G   6      39.558   0.916  25.490  1.00 53.09 LIG-0.02  C 
ATOM     31  CD1 LEU G   6      40.632   1.916  25.151  1.00 49.97 LIG 0.01  C 
ATOM     32  CD2 LEU G   6      39.678  -0.373  24.673  1.00 51.63 LIG 0.01  C 
ENDBRANCH 29 30
ENDBRANCH 17 29
ENDBRANCH 14 17
ENDBRANCH 9 13
ENDBRANCH 1 6
BRANCH 1 33
ATOM     33  N   LEU G   4      38.638   7.715  23.403  1.00 70.21 LIG-0.35  N 
ATOM     34  C   ARG G   3      38.539   6.939  22.318  1.00 75.48 LIG 0.24  C 
ATOM     35 O    ARG G   3      37.997   5.800  22.368  1.00 65.52 LIG-0.27  OA
ATOM     36 H    LEU G   4      39.042   8.474  23.425  1.00 70.21 LIG 0.16  HD
BRANCH 34 37
ATOM     37  CA  ARG G   3      39.167   7.496  20.985  1.00 78.48 LIG 0.18  C 
BRANCH 37 38
ATOM     38  CB  ARG G   3      40.462   6.747  20.603  1.00 76.51 LIG 0.04  C 
BRANCH 38 39
ATOM     39  CG  ARG G   3      40.275   5.586  19.638  1.00 78.92 LIG 0.02  C 
BRANCH 39 40
ATOM     40  CD  ARG G   3      39.545   6.007  18.359  1.00 76.70 LIG 0.14  C 
BRANCH 40 41
ATOM     41  NE  ARG G   3      38.336   5.205  18.042  1.00 80.12 LIG-0.23  N 
ATOM     42 HE   ARG G   3      37.749   5.129  18.666  1.00 80.12 LIG 0.18  HD
ATOM     43  CZ  ARG G   3      38.062   4.583  16.876  1.00 82.69 LIG 0.67  C 
ATOM     44  NH1 ARG G   3      38.906   4.576  15.831  1.00 73.81 LIG-0.23  N 
ATOM     45  NH2 ARG G   3      36.917   3.920  16.757  1.00 84.58 LIG-0.23  N 
ATOM     46 1HH1 ARG G   3      39.663   4.981  15.886  1.00 73.81 LIG 0.17  HD
ATOM     47 2HH1 ARG G   3      38.690   4.166  15.106  1.00 73.81 LIG 0.17  HD
ATOM     48 2HH2 ARG G   3      36.727   3.518  16.021  1.00 84.58 LIG 0.17  HD
ATOM     49 1HH2 ARG G   3      36.365   3.893  17.416  1.00 84.58 LIG 0.17  HD
ENDBRANCH 40 41
ENDBRANCH 39 40
ENDBRANCH 38 39
ENDBRANCH 37 38
BRANCH 37 50
ATOM     50  N   ARG G   3      39.417   8.966  21.036  1.00 95.22 LIG-0.35  N 
ATOM     51  C   PRO G   2      38.650   9.868  20.399  1.00105.18 LIG 0.25  C 
ATOM     52 O    PRO G   2      37.727   9.542  19.644  1.00111.30 LIG-0.27  OA
ATOM     53 H    ARG G   3      40.099   9.183  21.513  1.00 95.22 LIG 0.16  HD
BRANCH 51 54
ATOM     54  CA  PRO G   2      38.962  11.381  20.628  1.00104.44 LIG 0.35  C 
ATOM     55  N   PRO G   2      38.424  12.274  19.594  1.00103.34 LIG 0.32  N 
ATOM     56  CD  PRO G   2      38.007  13.582  20.151  1.00102.42 LIG 0.32  C 
ATOM     57  CG  PRO G   2      38.046  13.375  21.654  1.00 98.38 LIG 0.04  C 
ATOM     58  CB  PRO G   2      38.288  11.907  21.912  1.00102.80 LIG 0.05  C 
ENDBRANCH 51 54
ENDBRANCH 37 50
ENDBRANCH 34 37
ENDBRANCH 1 33
TORSDOF 20
ENDMDL
MODEL 16
USER: ADFR SOLUTION from run 194
USER: SCORE 15.699723 LL:  -3.926 LR: -12.995 RR:   0.000 FEB:  -7.029
USER: RMSD 9.224386
USER: SEED 193
USER: STATUS no improvement in best in 11 clusters for 5 generations
USER: GENES 22
USER: genes 0 Translation |==|  0.38332 0.59649 0.54808
USER: genes 1 Rotation |==|  0.69326 0.25444 0.12064 0.59186
USER: genes 2 Torsion [C]-CA--CB-[CG] |==|  0.21442
USER: genes 3 Torsion [CA]-CB--CG-[CD1] |==|  0.35031
USER: genes 4 Torsion [N]-CA--C-[N] |==|  0.43010
USER: genes 5 Torsion [N]-CA--C-[N] |==|  0.96974
USER: genes 6 Torsion [C]-N--CA-[C] |==|  0.19849
USER: genes 7 Torsion [N]-CA--C-[N] |==|  0.84683
USER: genes 8 Torsion [C]-N--CA-[CB] |==|  0.12702
USER: genes 9 Torsion [N]-CA--CB-[CG] |==|  0.62319
USER: genes 10 Torsion [CA]-CB--CG-[CD2] |==|  0.94926
USER: genes 11 Torsion [N]-CA--C-[O] |==|  0.22109
USER: genes 12 Torsion [N]-CA--CB-[CG] |==|  0.55963
USER: genes 13 Torsion [CA]-CB--CG-[CD2] |==|  0.70273
USER: genes 14 Torsion [CB]-CA--N-[C] |==|  0.80121
USER: genes 15 Torsion [N]-C--CA-[N] |==|  0.55511
USER: genes 16 Torsion [C]-CA--CB-[CG] |==|  0.36245
USER: genes 17 Torsion [CA]-CB--CG-[CD] |==|  0.67844
USER: genes 18 Torsion [CB]-CG--CD-[NE] |==|  0.09427
USER: genes 19 Torsion [CG]-CD--NE-[HE] |==|  0.76296
USER: genes 20 Torsion [C]-CA--N-[C] |==|  0.75383
USER: genes 21 Torsion [N]-C--CA-[CB] |==|  0.93506
ROOT
ATOM      1  CA  LEU G   4      37.948   7.421  24.356  1.00 72.45 LIG 0.18  C 
ENDROOT
BRANCH 1 2
ATOM      2  CB  LEU G   4      36.649   6.602  24.568  1.00 74.60 LIG 0.04  C 
BRANCH 2 3
ATOM      3  CG  LEU G   4      35.878   6.935  25.890  1.00 80.94 LIG-0.02  C 
ATOM      4  CD2 LEU G   4      35.981   5.838  26.966  1.00 76.26 LIG 0.01  C 
ATOM      5  CD1 LEU G   4      34.413   7.296  25.616  1.00 74.38 LIG 0.01  C 
ENDBRANCH 2 3
ENDBRANCH 1 2
BRANCH 1 6
ATOM      6  C   LEU G   4      39.147   6.922  25.212  1.00 69.99 LIG 0.24  C 
ATOM      7 O    LEU G   4      40.130   6.317  24.692  1.00 62.75 LIG-0.27  OA
ATOM      8  N   PRO G   5      39.099   7.244  26.531  1.00 68.53 LIG-0.34  N 
ATOM      9  CA  PRO G   5      40.151   6.726  27.385  1.00 66.41 LIG 0.18  C 
ATOM     10  CD  PRO G   5      38.224   8.190  27.263  1.00 67.94 LIG 0.13  C 
ATOM     11  CB  PRO G   5      39.834   7.361  28.764  1.00 68.06 LIG 0.04  C 
ATOM     12  CG  PRO G   5      39.076   8.611  28.437  1.00 67.97 LIG 0.02  C 
BRANCH 9 13
ATOM     13  C   PRO G   5      40.095   5.194  27.390  1.00 65.16 LIG 0.24  C 
ATOM     14  N   LEU G   6      39.026   4.628  26.843  1.00 58.40 LIG-0.35  N 
ATOM     15 H    LEU G   6      38.444   5.047  26.367  1.00 58.40 LIG 0.16  HD
ATOM     16 O    PRO G   5      41.020   4.536  27.897  1.00 57.12 LIG-0.27  OA
BRANCH 14 17
ATOM     17  CA  LEU G   6      38.760   3.203  27.020  1.00 60.31 LIG 0.18  C 
BRANCH 17 18
ATOM     18  C   LEU G   6      38.314   2.805  28.424  1.00 60.34 LIG 0.24  C 
ATOM     19 O    LEU G   6      37.248   2.227  28.547  1.00 72.64 LIG-0.27  OA
ATOM     20  N   LEU G   7      39.081   3.131  29.474  1.00 65.91 LIG-0.35  N 
ATOM     21 H    LEU G   7      39.771   3.642  29.420  1.00 65.91 LIG 0.16  HD
BRANCH 20 22
ATOM     22  CA  LEU G   7      38.793   2.623  30.861  1.00 66.14 LIG 0.16  C 
BRANCH 22 23
ATOM     23  CB  LEU G   7      38.486   1.114  30.827  1.00 64.61 LIG 0.04  C 
BRANCH 23 24
ATOM     24  CG  LEU G   7      37.296   0.580  31.648  1.00 68.76 LIG-0.02  C 
ATOM     25  CD2 LEU G   7      36.865   1.589  32.735  1.00 64.31 LIG 0.01  C 
ATOM     26  CD1 LEU G   7      37.567  -0.818  32.216  1.00 66.72 LIG 0.01  C 
ENDBRANCH 23 24
ENDBRANCH 22 23
BRANCH 22 27
ATOM     27  C   LEU G   7      39.898   2.922  31.882  1.00 59.22 LIG 0.22  C 
ATOM     28 O    LEU G   7      39.966   4.036  32.380  1.00 55.72 LIG-0.29  OA
ENDBRANCH 22 27
ENDBRANCH 20 22
ENDBRANCH 17 18
BRANCH 17 29
ATOM     29  CB  LEU G   6      39.964   2.354  26.539  1.00 54.67 LIG 0.04  C 
BRANCH 29 30
ATOM     30  CG  LEU G   6      39.465   0.923  26.232  1.00 53.09 LIG-0.02  C 
ATOM     31  CD1 LEU G   6      39.873   0.531  24.836  1.00 49.97 LIG 0.01  C 
ATOM     32  CD2 LEU G   6      39.911  -0.098  27.281  1.00 51.63 LIG 0.01  C 
ENDBRANCH 29 30
ENDBRANCH 17 29
ENDBRANCH 14 17
ENDBRANCH 9 13
ENDBRANCH 1 6
BRANCH 1 33
ATOM     33  N   LEU G   4      38.290   7.584  22.934  1.00 70.21 LIG-0.35  N 
ATOM     34  C   ARG G   3      38.739   6.545  22.220  1.00 75.48 LIG 0.24  C 
ATOM     35 O    ARG G   3      38.954   5.421  22.753  1.00 65.52 LIG-0.27  OA
ATOM     36 H    LEU G   4      38.177   8.377  22.622  1.00 70.21 LIG 0.16  HD
BRANCH 34 37
ATOM     37  CA  ARG G   3      39.025   6.802  20.693  1.00 78.48 LIG 0.18  C 
BRANCH 37 38
ATOM     38  CB  ARG G   3      38.019   7.799  20.078  1.00 76.51 LIG 0.04  C 
BRANCH 38 39
ATOM     39  CG  ARG G   3      38.641   8.936  19.283  1.00 78.92 LIG 0.02  C 
BRANCH 39 40
ATOM     40  CD  ARG G   3      38.373  10.303  19.918  1.00 76.70 LIG 0.14  C 
BRANCH 40 41
ATOM     41  NE  ARG G   3      38.323  10.299  21.403  1.00 80.12 LIG-0.23  N 
ATOM     42 HE   ARG G   3      37.567  10.101  21.762  1.00 80.12 LIG 0.18  HD
ATOM     43  CZ  ARG G   3      39.340  10.573  22.245  1.00 82.69 LIG 0.67  C 
ATOM     44  NH1 ARG G   3      40.563  10.943  21.827  1.00 73.81 LIG-0.23  N 
ATOM     45  NH2 ARG G   3      39.125  10.503  23.554  1.00 84.58 LIG-0.23  N 
ATOM     46 1HH1 ARG G   3      40.726  11.014  20.986  1.00 73.81 LIG 0.17  HD
ATOM     47 2HH1 ARG G   3      41.182  11.108  22.401  1.00 73.81 LIG 0.17  HD
ATOM     48 2HH2 ARG G   3      39.762  10.675  24.105  1.00 84.58 LIG 0.17  HD
ATOM     49 1HH2 ARG G   3      38.347  10.286  23.851  1.00 84.58 LIG 0.17  HD
ENDBRANCH 40 41
ENDBRANCH 39 40
ENDBRANCH 38 39
ENDBRANCH 37 38
BRANCH 37 50
ATOM     50  N   ARG G   3      39.058   5.543  19.893  1.00 95.22 LIG-0.35  N 
ATOM     51  C   PRO G   2      40.173   4.812  19.711  1.00105.18 LIG 0.25  C 
ATOM     52 O    PRO G   2      41.281   5.177  20.119  1.00111.30 LIG-0.27  OA
ATOM     53 H    ARG G   3      38.296   5.327  19.559  1.00 95.22 LIG 0.16  HD
BRANCH 51 54
ATOM     54  CA  PRO G   2      40.039   3.459  18.943  1.00104.44 LIG 0.35  C 
ATOM     55  N   PRO G   2      40.832   2.361  19.509  1.00103.34 LIG 0.32  N 
ATOM     56  CD  PRO G   2      40.155   1.051  19.359  1.00102.42 LIG 0.32  C 
ATOM     57  CG  PRO G   2      38.748   1.409  18.918  1.00 98.38 LIG 0.04  C 
ATOM     58  CB  PRO G   2      38.600   2.908  19.018  1.00102.80 LIG 0.05  C 
ENDBRANCH 51 54
ENDBRANCH 37 50
ENDBRANCH 34 37
ENDBRANCH 1 33
TORSDOF 20
ENDMDL
MODEL 17
USER: ADFR SOLUTION from run 152
USER: SCORE 16.973776 LL:  -4.087 LR: -12.980 RR:   0.000 FEB:  -7.014
USER: RMSD 3.760017
USER: SEED 151
USER: STATUS no improvement in best in 6 clusters for 5 generations
USER: GENES 22
USER: genes 0 Translation |==|  0.43218 0.50208 0.69359
USER: genes 1 Rotation |==|  0.43781 0.43051 0.46461 0.98995
USER: genes 2 Torsion [C]-CA--CB-[CG] |==|  0.07098
USER: genes 3 Torsion [CA]-CB--CG-[CD1] |==|  0.31070
USER: genes 4 Torsion [N]-CA--C-[N] |==|  0.35640
USER: genes 5 Torsion [N]-CA--C-[N] |==|  0.43744
USER: genes 6 Torsion [C]-N--CA-[C] |==|  0.84851
USER: genes 7 Torsion [N]-CA--C-[N] |==|  0.90794
USER: genes 8 Torsion [C]-N--CA-[CB] |==|  0.40923
USER: genes 9 Torsion [N]-CA--CB-[CG] |==|  0.93237
USER: genes 10 Torsion [CA]-CB--CG-[CD2] |==|  0.82159
USER: genes 11 Torsion [N]-CA--C-[O] |==|  0.90115
USER: genes 12 Torsion [N]-CA--CB-[CG] |==|  0.95158
USER: genes 13 Torsion [CA]-CB--CG-[CD2] |==|  0.79063
USER: genes 14 Torsion [CB]-CA--N-[C] |==|  0.83293
USER: genes 15 Torsion [N]-C--CA-[N] |==|  0.96465
USER: genes 16 Torsion [C]-CA--CB-[CG] |==|  0.34408
USER: genes 17 Torsion [CA]-CB--CG-[CD] |==|  0.25080
USER: genes 18 Torsion [CB]-CG--CD-[NE] |==|  0.01052
USER: genes 19 Torsion [CG]-CD--NE-[HE] |==|  0.08103
USER: genes 20 Torsion [C]-CA--N-[C] |==|  0.80867
USER: genes 21 Torsion [N]-C--CA-[CB] |==|  0.68546
ROOT
ATOM      1  CA  LEU G   4      38.754   4.730  27.193  1.00 72.45 LIG 0.18  C 
ENDROOT
BRANCH 1 2
ATOM      2  CB  LEU G   4      39.947   5.402  27.920  1.00 74.60 LIG 0.04  C 
BRANCH 2 3
ATOM      3  CG  LEU G   4      40.199   6.894  27.517  1.00 80.94 LIG-0.02  C 
ATOM      4  CD2 LEU G   4      41.604   7.160  26.947  1.00 76.26 LIG 0.01  C 
ATOM      5  CD1 LEU G   4      39.888   7.853  28.673  1.00 74.38 LIG 0.01  C 
ENDBRANCH 2 3
ENDBRANCH 1 2
BRANCH 1 6
ATOM      6  C   LEU G   4      38.426   5.368  25.812  1.00 69.99 LIG 0.24  C 
ATOM      7 O    LEU G   4      39.073   5.062  24.767  1.00 62.75 LIG-0.27  OA
ATOM      8  N   PRO G   5      37.360   6.210  25.794  1.00 68.53 LIG-0.34  N 
ATOM      9  CA  PRO G   5      37.070   6.894  24.549  1.00 66.41 LIG 0.18  C 
ATOM     10  CD  PRO G   5      36.303   6.452  26.805  1.00 67.94 LIG 0.13  C 
ATOM     11  CB  PRO G   5      35.765   7.671  24.867  1.00 68.06 LIG 0.04  C 
ATOM     12  CG  PRO G   5      35.123   6.891  25.972  1.00 67.97 LIG 0.02  C 
BRANCH 9 13
ATOM     13  C   PRO G   5      38.248   7.803  24.180  1.00 65.16 LIG 0.24  C 
ATOM     14  N   LEU G   6      38.373   8.139  22.902  1.00 58.40 LIG-0.35  N 
ATOM     15 H    LEU G   6      37.771   8.004  22.303  1.00 58.40 LIG 0.16  HD
ATOM     16 O    PRO G   5      39.041   8.187  25.058  1.00 57.12 LIG-0.27  OA
BRANCH 14 17
ATOM     17  CA  LEU G   6      39.589   8.783  22.412  1.00 60.31 LIG 0.18  C 
BRANCH 17 18
ATOM     18  C   LEU G   6      39.986  10.053  23.161  1.00 60.34 LIG 0.24  C 
ATOM     19 O    LEU G   6      41.173  10.285  23.310  1.00 72.64 LIG-0.27  OA
ATOM     20  N   LEU G   7      39.029  10.847  23.659  1.00 65.91 LIG-0.35  N 
ATOM     21 H    LEU G   7      38.194  10.640  23.671  1.00 65.91 LIG 0.16  HD
BRANCH 20 22
ATOM     22  CA  LEU G   7      39.340  12.196  24.253  1.00 66.14 LIG 0.16  C 
BRANCH 22 23
ATOM     23  CB  LEU G   7      38.179  13.175  23.997  1.00 64.61 LIG 0.04  C 
BRANCH 23 24
ATOM     24  CG  LEU G   7      37.240  12.919  22.802  1.00 68.76 LIG-0.02  C 
ATOM     25  CD2 LEU G   7      37.997  13.030  21.460  1.00 64.31 LIG 0.01  C 
ATOM     26  CD1 LEU G   7      35.991  13.806  22.849  1.00 66.72 LIG 0.01  C 
ENDBRANCH 23 24
ENDBRANCH 22 23
BRANCH 22 27
ATOM     27  C   LEU G   7      39.691  12.160  25.745  1.00 59.22 LIG 0.22  C 
ATOM     28 O    LEU G   7      39.123  11.361  26.474  1.00 55.72 LIG-0.29  OA
ENDBRANCH 22 27
ENDBRANCH 20 22
ENDBRANCH 17 18
BRANCH 17 29
ATOM     29  CB  LEU G   6      39.509   9.021  20.883  1.00 54.67 LIG 0.04  C 
BRANCH 29 30
ATOM     30  CG  LEU G   6      38.391   8.124  20.304  1.00 53.09 LIG-0.02  C 
ATOM     31  CD1 LEU G   6      37.924   8.682  18.985  1.00 49.97 LIG 0.01  C 
ATOM     32  CD2 LEU G   6      38.803   6.653  20.205  1.00 51.63 LIG 0.01  C 
ENDBRANCH 29 30
ENDBRANCH 17 29
ENDBRANCH 14 17
ENDBRANCH 9 13
ENDBRANCH 1 6
BRANCH 1 33
ATOM     33  N   LEU G   4      38.878   3.266  27.131  1.00 70.21 LIG-0.35  N 
ATOM     34  C   ARG G   3      39.921   2.698  26.514  1.00 75.48 LIG 0.24  C 
ATOM     35 O    ARG G   3      40.785   3.390  25.905  1.00 65.52 LIG-0.27  OA
ATOM     36 H    LEU G   4      38.243   2.831  27.514  1.00 70.21 LIG 0.16  HD
BRANCH 34 37
ATOM     37  CA  ARG G   3      39.999   1.126  26.548  1.00 78.48 LIG 0.18  C 
BRANCH 37 38
ATOM     38  CB  ARG G   3      39.787   0.509  25.148  1.00 76.51 LIG 0.04  C 
BRANCH 38 39
ATOM     39  CG  ARG G   3      40.907  -0.400  24.667  1.00 78.92 LIG 0.02  C 
BRANCH 39 40
ATOM     40  CD  ARG G   3      40.681  -1.861  25.066  1.00 76.70 LIG 0.14  C 
BRANCH 40 41
ATOM     41  NE  ARG G   3      39.392  -2.124  25.755  1.00 80.12 LIG-0.23  N 
ATOM     42 HE   ARG G   3      38.735  -1.607  25.554  1.00 80.12 LIG 0.18  HD
ATOM     43  CZ  ARG G   3      39.145  -3.090  26.664  1.00 82.69 LIG 0.67  C 
ATOM     44  NH1 ARG G   3      40.086  -3.941  27.108  1.00 73.81 LIG-0.23  N 
ATOM     45  NH2 ARG G   3      37.921  -3.197  27.169  1.00 84.58 LIG-0.23  N 
ATOM     46 1HH1 ARG G   3      40.892  -3.883  26.812  1.00 73.81 LIG 0.17  HD
ATOM     47 2HH1 ARG G   3      39.883  -4.542  27.688  1.00 73.81 LIG 0.17  HD
ATOM     48 2HH2 ARG G   3      37.747  -3.807  27.750  1.00 84.58 LIG 0.17  HD
ATOM     49 1HH2 ARG G   3      37.303  -2.655  26.916  1.00 84.58 LIG 0.17  HD
ENDBRANCH 40 41
ENDBRANCH 39 40
ENDBRANCH 38 39
ENDBRANCH 37 38
BRANCH 37 50
ATOM     50  N   ARG G   3      39.047   0.523  27.526  1.00 95.22 LIG-0.35  N 
ATOM     51  C   PRO G   2      39.181   0.646  28.859  1.00105.18 LIG 0.25  C 
ATOM     52 O    PRO G   2      40.158   1.196  29.381  1.00111.30 LIG-0.27  OA
ATOM     53 H    ARG G   3      38.403   0.088  27.157  1.00 95.22 LIG 0.16  HD
BRANCH 51 54
ATOM     54  CA  PRO G   2      38.051   0.056  29.761  1.00104.44 LIG 0.35  C 
ATOM     55  N   PRO G   2      38.535  -0.790  30.860  1.00103.34 LIG 0.32  N 
ATOM     56  CD  PRO G   2      37.687  -0.669  32.069  1.00102.42 LIG 0.32  C 
ATOM     57  CG  PRO G   2      36.795   0.523  31.779  1.00 98.38 LIG 0.04  C 
ATOM     58  CB  PRO G   2      37.286   1.169  30.506  1.00102.80 LIG 0.05  C 
ENDBRANCH 51 54
ENDBRANCH 37 50
ENDBRANCH 34 37
ENDBRANCH 1 33
TORSDOF 20
ENDMDL
MODEL 18
USER: ADFR SOLUTION from run 129
USER: SCORE 16.646232 LL:  -4.243 LR: -12.952 RR:   0.000 FEB:  -6.986
USER: RMSD 10.115285
USER: SEED 128
USER: STATUS no improvement in best in 12 clusters for 5 generations
USER: GENES 22
USER: genes 0 Translation |==|  0.36680 0.56586 0.52271
USER: genes 1 Rotation |==|  0.60232 0.22994 0.09951 0.57876
USER: genes 2 Torsion [C]-CA--CB-[CG] |==|  0.21186
USER: genes 3 Torsion [CA]-CB--CG-[CD1] |==|  0.36999
USER: genes 4 Torsion [N]-CA--C-[N] |==|  0.42378
USER: genes 5 Torsion [N]-CA--C-[N] |==|  0.29755
USER: genes 6 Torsion [C]-N--CA-[C] |==|  0.83003
USER: genes 7 Torsion [N]-CA--C-[N] |==|  0.36111
USER: genes 8 Torsion [C]-N--CA-[CB] |==|  0.35044
USER: genes 9 Torsion [N]-CA--CB-[CG] |==|  0.81996
USER: genes 10 Torsion [CA]-CB--CG-[CD2] |==|  0.26454
USER: genes 11 Torsion [N]-CA--C-[O] |==|  0.87094
USER: genes 12 Torsion [N]-CA--CB-[CG] |==|  0.59552
USER: genes 13 Torsion [CA]-CB--CG-[CD2] |==|  0.71257
USER: genes 14 Torsion [CB]-CA--N-[C] |==|  0.52520
USER: genes 15 Torsion [N]-C--CA-[N] |==|  0.35052
USER: genes 16 Torsion [C]-CA--CB-[CG] |==|  0.96859
USER: genes 17 Torsion [CA]-CB--CG-[CD] |==|  0.38427
USER: genes 18 Torsion [CB]-CG--CD-[NE] |==|  0.24460
USER: genes 19 Torsion [CG]-CD--NE-[HE] |==|  0.06873
USER: genes 20 Torsion [C]-CA--N-[C] |==|  0.71071
USER: genes 21 Torsion [N]-C--CA-[CB] |==|  0.64868
ROOT
ATOM      1  CA  LEU G   4      37.675   6.548  23.861  1.00 72.45 LIG 0.18  C 
ENDROOT
BRANCH 1 2
ATOM      2  CB  LEU G   4      36.318   6.131  24.482  1.00 74.60 LIG 0.04  C 
BRANCH 2 3
ATOM      3  CG  LEU G   4      36.056   6.700  25.917  1.00 80.94 LIG-0.02  C 
ATOM      4  CD2 LEU G   4      36.327   5.693  27.049  1.00 76.26 LIG 0.01  C 
ATOM      5  CD1 LEU G   4      34.647   7.296  26.042  1.00 74.38 LIG 0.01  C 
ENDBRANCH 2 3
ENDBRANCH 1 2
BRANCH 1 6
ATOM      6  C   LEU G   4      38.892   5.772  24.443  1.00 69.99 LIG 0.24  C 
ATOM      7 O    LEU G   4      39.482   4.867  23.782  1.00 62.75 LIG-0.27  OA
ATOM      8  N   PRO G   5      39.317   6.182  25.666  1.00 68.53 LIG-0.34  N 
ATOM      9  CA  PRO G   5      40.393   5.432  26.286  1.00 66.41 LIG 0.18  C 
ATOM     10  CD  PRO G   5      38.979   7.394  26.450  1.00 67.94 LIG 0.13  C 
ATOM     11  CB  PRO G   5      40.672   6.225  27.590  1.00 68.06 LIG 0.04  C 
ATOM     12  CG  PRO G   5      40.215   7.619  27.288  1.00 67.97 LIG 0.02  C 
BRANCH 9 13
ATOM     13  C   PRO G   5      39.933   3.991  26.533  1.00 65.16 LIG 0.24  C 
ATOM     14  N   LEU G   6      40.445   3.052  25.747  1.00 58.40 LIG-0.35  N 
ATOM     15 H    LEU G   6      41.110   3.173  25.216  1.00 58.40 LIG 0.16  HD
ATOM     16 O    PRO G   5      39.110   3.742  27.432  1.00 57.12 LIG-0.27  OA
BRANCH 14 17
ATOM     17  CA  LEU G   6      39.888   1.702  25.733  1.00 60.31 LIG 0.18  C 
BRANCH 17 18
ATOM     18  C   LEU G   6      39.958   0.968  27.070  1.00 60.34 LIG 0.24  C 
ATOM     19 O    LEU G   6      41.034   0.910  27.639  1.00 72.64 LIG-0.27  OA
ATOM     20  N   LEU G   7      38.855   0.382  27.556  1.00 65.91 LIG-0.35  N 
ATOM     21 H    LEU G   7      38.120   0.307  27.114  1.00 65.91 LIG 0.16  HD
BRANCH 20 22
ATOM     22  CA  LEU G   7      38.807  -0.206  28.941  1.00 66.14 LIG 0.16  C 
BRANCH 22 23
ATOM     23  CB  LEU G   7      37.621   0.379  29.732  1.00 64.61 LIG 0.04  C 
BRANCH 23 24
ATOM     24  CG  LEU G   7      37.622   1.884  30.066  1.00 68.76 LIG-0.02  C 
ATOM     25  CD2 LEU G   7      36.822   2.692  29.021  1.00 64.31 LIG 0.01  C 
ATOM     26  CD1 LEU G   7      39.040   2.428  30.273  1.00 66.72 LIG 0.01  C 
ENDBRANCH 23 24
ENDBRANCH 22 23
BRANCH 22 27
ATOM     27  C   LEU G   7      38.768  -1.738  28.973  1.00 59.22 LIG 0.22  C 
ATOM     28 O    LEU G   7      37.997  -2.332  28.233  1.00 55.72 LIG-0.29  OA
ENDBRANCH 22 27
ENDBRANCH 20 22
ENDBRANCH 17 18
BRANCH 17 29
ATOM     29  CB  LEU G   6      40.506   0.863  24.586  1.00 54.67 LIG 0.04  C 
BRANCH 29 30
ATOM     30  CG  LEU G   6      39.424  -0.097  24.042  1.00 53.09 LIG-0.02  C 
ATOM     31  CD1 LEU G   6      39.361   0.007  22.540  1.00 49.97 LIG 0.01  C 
ATOM     32  CD2 LEU G   6      39.614  -1.538  24.522  1.00 51.63 LIG 0.01  C 
ENDBRANCH 29 30
ENDBRANCH 17 29
ENDBRANCH 14 17
ENDBRANCH 9 13
ENDBRANCH 1 6
BRANCH 1 33
ATOM     33  N   LEU G   4      37.650   6.550  22.390  1.00 70.21 LIG-0.35  N 
ATOM     34  C   ARG G   3      38.780   6.708  21.691  1.00 75.48 LIG 0.24  C 
ATOM     35 O    ARG G   3      39.883   6.934  22.262  1.00 65.52 LIG-0.27  OA
ATOM     36 H    LEU G   4      36.871   6.444  22.040  1.00 70.21 LIG 0.16  HD
BRANCH 34 37
ATOM     37  CA  ARG G   3      38.662   6.640  20.122  1.00 78.48 LIG 0.18  C 
BRANCH 37 38
ATOM     38  CB  ARG G   3      39.290   5.349  19.554  1.00 76.51 LIG 0.04  C 
BRANCH 38 39
ATOM     39  CG  ARG G   3      40.119   4.545  20.543  1.00 78.92 LIG 0.02  C 
BRANCH 39 40
ATOM     40  CD  ARG G   3      39.872   3.039  20.418  1.00 76.70 LIG 0.14  C 
BRANCH 40 41
ATOM     41  NE  ARG G   3      40.737   2.348  19.428  1.00 80.12 LIG-0.23  N 
ATOM     42 HE   ARG G   3      41.491   2.720  19.249  1.00 80.12 LIG 0.18  HD
ATOM     43  CZ  ARG G   3      40.462   1.196  18.780  1.00 82.69 LIG 0.67  C 
ATOM     44  NH1 ARG G   3      39.304   0.530  18.925  1.00 73.81 LIG-0.23  N 
ATOM     45  NH2 ARG G   3      41.362   0.705  17.937  1.00 84.58 LIG-0.23  N 
ATOM     46 1HH1 ARG G   3      38.695   0.834  19.451  1.00 73.81 LIG 0.17  HD
ATOM     47 2HH1 ARG G   3      39.171  -0.202  18.492  1.00 73.81 LIG 0.17  HD
ATOM     48 2HH2 ARG G   3      41.203  -0.028  17.516  1.00 84.58 LIG 0.17  HD
ATOM     49 1HH2 ARG G   3      42.105   1.120  17.811  1.00 84.58 LIG 0.17  HD
ENDBRANCH 40 41
ENDBRANCH 39 40
ENDBRANCH 38 39
ENDBRANCH 37 38
BRANCH 37 50
ATOM     50  N   ARG G   3      39.245   7.838  19.448  1.00 95.22 LIG-0.35  N 
ATOM     51  C   PRO G   2      38.499   8.825  18.921  1.00105.18 LIG 0.25  C 
ATOM     52 O    PRO G   2      37.265   8.773  18.874  1.00111.30 LIG-0.27  OA
ATOM     53 H    ARG G   3      40.105   7.837  19.429  1.00 95.22 LIG 0.16  HD
BRANCH 51 54
ATOM     54  CA  PRO G   2      39.243  10.070  18.343  1.00104.44 LIG 0.35  C 
ATOM     55  N   PRO G   2      39.039  10.283  16.905  1.00103.34 LIG 0.32  N 
ATOM     56  CD  PRO G   2      39.015  11.722  16.554  1.00102.42 LIG 0.32  C 
ATOM     57  CG  PRO G   2      38.929  12.429  17.894  1.00 98.38 LIG 0.04  C 
ATOM     58  CB  PRO G   2      38.708  11.380  18.956  1.00102.80 LIG 0.05  C 
ENDBRANCH 51 54
ENDBRANCH 37 50
ENDBRANCH 34 37
ENDBRANCH 1 33
TORSDOF 20
ENDMDL
MODEL 19
USER: ADFR SOLUTION from run 60
USER: SCORE 15.834297 LL:  -4.016 LR: -12.950 RR:   0.000 FEB:  -6.984
USER: RMSD 10.849656
USER: SEED 59
USER: STATUS no improvement in best in 11 clusters for 5 generations
USER: GENES 22
USER: genes 0 Translation |==|  0.43075 0.49534 0.26877
USER: genes 1 Rotation |==|  0.07510 0.42751 0.64332 0.70896
USER: genes 2 Torsion [C]-CA--CB-[CG] |==|  0.15973
USER: genes 3 Torsion [CA]-CB--CG-[CD1] |==|  0.09111
USER: genes 4 Torsion [N]-CA--C-[N] |==|  0.82619
USER: genes 5 Torsion [N]-CA--C-[N] |==|  0.77646
USER: genes 6 Torsion [C]-N--CA-[C] |==|  0.57055
USER: genes 7 Torsion [N]-CA--C-[N] |==|  0.47774
USER: genes 8 Torsion [C]-N--CA-[CB] |==|  0.19100
USER: genes 9 Torsion [N]-CA--CB-[CG] |==|  0.71889
USER: genes 10 Torsion [CA]-CB--CG-[CD2] |==|  0.94662
USER: genes 11 Torsion [N]-CA--C-[O] |==|  0.79728
USER: genes 12 Torsion [N]-CA--CB-[CG] |==|  0.12335
USER: genes 13 Torsion [CA]-CB--CG-[CD2] |==|  0.64443
USER: genes 14 Torsion [CB]-CA--N-[C] |==|  0.21082
USER: genes 15 Torsion [N]-C--CA-[N] |==|  0.51453
USER: genes 16 Torsion [C]-CA--CB-[CG] |==|  0.65226
USER: genes 17 Torsion [CA]-CB--CG-[CD] |==|  0.27986
USER: genes 18 Torsion [CB]-CG--CD-[NE] |==|  0.39901
USER: genes 19 Torsion [CG]-CD--NE-[HE] |==|  0.65468
USER: genes 20 Torsion [C]-CA--N-[C] |==|  0.75272
USER: genes 21 Torsion [N]-C--CA-[CB] |==|  0.58290
ROOT
ATOM      1  CA  LEU G   4      38.730   4.538  18.909  1.00 72.45 LIG 0.18  C 
ENDROOT
BRANCH 1 2
ATOM      2  CB  LEU G   4      39.414   5.084  17.629  1.00 74.60 LIG 0.04  C 
BRANCH 2 3
ATOM      3  CG  LEU G   4      38.807   4.549  16.288  1.00 80.94 LIG-0.02  C 
ATOM      4  CD2 LEU G   4      39.119   5.430  15.065  1.00 76.26 LIG 0.01  C 
ATOM      5  CD1 LEU G   4      37.299   4.296  16.410  1.00 74.38 LIG 0.01  C 
ENDBRANCH 2 3
ENDBRANCH 1 2
BRANCH 1 6
ATOM      6  C   LEU G   4      38.746   2.986  19.011  1.00 69.99 LIG 0.24  C 
ATOM      7 O    LEU G   4      37.691   2.299  18.870  1.00 62.75 LIG-0.27  OA
ATOM      8  N   PRO G   5      39.970   2.422  19.185  1.00 68.53 LIG-0.34  N 
ATOM      9  CA  PRO G   5      40.024   0.985  19.372  1.00 66.41 LIG 0.18  C 
ATOM     10  CD  PRO G   5      41.328   3.004  19.060  1.00 67.94 LIG 0.13  C 
ATOM     11  CB  PRO G   5      41.546   0.693  19.438  1.00 68.06 LIG 0.04  C 
ATOM     12  CG  PRO G   5      42.178   1.817  18.676  1.00 67.97 LIG 0.02  C 
BRANCH 9 13
ATOM     13  C   PRO G   5      39.274   0.610  20.654  1.00 65.16 LIG 0.24  C 
ATOM     14  N   LEU G   6      39.923   0.768  21.801  1.00 58.40 LIG-0.35  N 
ATOM     15 H    LEU G   6      40.666   1.193  21.884  1.00 58.40 LIG 0.16  HD
ATOM     16 O    PRO G   5      38.111   0.171  20.593  1.00 57.12 LIG-0.27  OA
BRANCH 14 17
ATOM     17  CA  LEU G   6      39.396   0.209  23.044  1.00 60.31 LIG 0.18  C 
BRANCH 17 18
ATOM     18  C   LEU G   6      39.848   0.928  24.312  1.00 60.34 LIG 0.24  C 
ATOM     19 O    LEU G   6      40.730   1.764  24.215  1.00 72.64 LIG-0.27  OA
ATOM     20  N   LEU G   7      39.296   0.597  25.487  1.00 65.91 LIG-0.35  N 
ATOM     21 H    LEU G   7      38.764  -0.070  25.593  1.00 65.91 LIG 0.16  HD
BRANCH 20 22
ATOM     22  CA  LEU G   7      39.566   1.380  26.744  1.00 66.14 LIG 0.16  C 
BRANCH 22 23
ATOM     23  CB  LEU G   7      38.925   2.777  26.655  1.00 64.61 LIG 0.04  C 
BRANCH 23 24
ATOM     24  CG  LEU G   7      39.820   3.985  26.316  1.00 68.76 LIG-0.02  C 
ATOM     25  CD2 LEU G   7      41.309   3.672  26.578  1.00 64.31 LIG 0.01  C 
ATOM     26  CD1 LEU G   7      39.354   5.265  27.019  1.00 66.72 LIG 0.01  C 
ENDBRANCH 23 24
ENDBRANCH 22 23
BRANCH 22 27
ATOM     27  C   LEU G   7      39.130   0.671  28.032  1.00 59.22 LIG 0.22  C 
ATOM     28 O    LEU G   7      37.939   0.586  28.293  1.00 55.72 LIG-0.29  OA
ENDBRANCH 22 27
ENDBRANCH 20 22
ENDBRANCH 17 18
BRANCH 17 29
ATOM     29  CB  LEU G   6      39.667  -1.315  23.121  1.00 54.67 LIG 0.04  C 
BRANCH 29 30
ATOM     30  CG  LEU G   6      41.124  -1.578  22.675  1.00 53.09 LIG-0.02  C 
ATOM     31  CD1 LEU G   6      41.972  -1.900  23.877  1.00 49.97 LIG 0.01  C 
ATOM     32  CD2 LEU G   6      41.226  -2.644  21.582  1.00 51.63 LIG 0.01  C 
ENDBRANCH 29 30
ENDBRANCH 17 29
ENDBRANCH 14 17
ENDBRANCH 9 13
ENDBRANCH 1 6
BRANCH 1 33
ATOM     33  N   LEU G   4      39.211   5.197  20.134  1.00 70.21 LIG-0.35  N 
ATOM     34  C   ARG G   3      38.802   6.432  20.446  1.00 75.48 LIG 0.24  C 
ATOM     35 O    ARG G   3      38.058   7.097  19.672  1.00 65.52 LIG-0.27  OA
ATOM     36 H    LEU G   4      39.755   4.729  20.607  1.00 70.21 LIG 0.16  HD
BRANCH 34 37
ATOM     37  CA  ARG G   3      39.325   7.033  21.804  1.00 78.48 LIG 0.18  C 
BRANCH 37 38
ATOM     38  CB  ARG G   3      39.119   6.056  22.983  1.00 76.51 LIG 0.04  C 
BRANCH 38 39
ATOM     39  CG  ARG G   3      38.345   6.623  24.162  1.00 78.92 LIG 0.02  C 
BRANCH 39 40
ATOM     40  CD  ARG G   3      36.882   6.171  24.168  1.00 76.70 LIG 0.14  C 
BRANCH 40 41
ATOM     41  NE  ARG G   3      36.315   5.918  25.517  1.00 80.12 LIG-0.23  N 
ATOM     42 HE   ARG G   3      35.975   5.140  25.653  1.00 80.12 LIG 0.18  HD
ATOM     43  CZ  ARG G   3      36.278   6.783  26.552  1.00 82.69 LIG 0.67  C 
ATOM     44  NH1 ARG G   3      36.728   8.046  26.472  1.00 73.81 LIG-0.23  N 
ATOM     45  NH2 ARG G   3      35.748   6.382  27.702  1.00 84.58 LIG-0.23  N 
ATOM     46 1HH1 ARG G   3      37.060   8.339  25.734  1.00 73.81 LIG 0.17  HD
ATOM     47 2HH1 ARG G   3      36.685   8.563  27.158  1.00 73.81 LIG 0.17  HD
ATOM     48 2HH2 ARG G   3      35.716   6.921  28.372  1.00 84.58 LIG 0.17  HD
ATOM     49 1HH2 ARG G   3      35.436   5.584  27.777  1.00 84.58 LIG 0.17  HD
ENDBRANCH 40 41
ENDBRANCH 39 40
ENDBRANCH 38 39
ENDBRANCH 37 38
BRANCH 37 50
ATOM     50  N   ARG G   3      38.717   8.359  22.120  1.00 95.22 LIG-0.35  N 
ATOM     51  C   PRO G   2      39.241   9.528  21.712  1.00105.18 LIG 0.25  C 
ATOM     52 O    PRO G   2      40.322   9.600  21.116  1.00111.30 LIG-0.27  OA
ATOM     53 H    ARG G   3      37.998   8.304  22.589  1.00 95.22 LIG 0.16  HD
BRANCH 51 54
ATOM     54  CA  PRO G   2      38.440  10.832  22.022  1.00104.44 LIG 0.35  C 
ATOM     55  N   PRO G   2      38.840  11.508  23.263  1.00103.34 LIG 0.32  N 
ATOM     56  CD  PRO G   2      38.730  12.981  23.154  1.00102.42 LIG 0.32  C 
ATOM     57  CG  PRO G   2      38.506  13.228  21.674  1.00 98.38 LIG 0.04  C 
ATOM     58  CB  PRO G   2      38.692  11.915  20.953  1.00102.80 LIG 0.05  C 
ENDBRANCH 51 54
ENDBRANCH 37 50
ENDBRANCH 34 37
ENDBRANCH 1 33
TORSDOF 20
ENDMDL
MODEL 20
USER: ADFR SOLUTION from run 39
USER: SCORE 14.806844 LL:  -3.974 LR: -12.887 RR:   0.000 FEB:  -6.921
USER: RMSD 5.462539
USER: SEED 38
USER: STATUS no improvement in best in 20 clusters for 5 generations
USER: GENES 22
USER: genes 0 Translation |==|  0.41619 0.37956 0.76526
USER: genes 1 Rotation |==|  0.69062 0.28113 0.49138 0.90704
USER: genes 2 Torsion [C]-CA--CB-[CG] |==|  0.19038
USER: genes 3 Torsion [CA]-CB--CG-[CD1] |==|  0.33848
USER: genes 4 Torsion [N]-CA--C-[N] |==|  0.86234
USER: genes 5 Torsion [N]-CA--C-[N] |==|  0.42108
USER: genes 6 Torsion [C]-N--CA-[C] |==|  0.76272
USER: genes 7 Torsion [N]-CA--C-[N] |==|  0.51579
USER: genes 8 Torsion [C]-N--CA-[CB] |==|  0.31935
USER: genes 9 Torsion [N]-CA--CB-[CG] |==|  0.69726
USER: genes 10 Torsion [CA]-CB--CG-[CD2] |==|  0.45807
USER: genes 11 Torsion [N]-CA--C-[O] |==|  0.69439
USER: genes 12 Torsion [N]-CA--CB-[CG] |==|  0.76867
USER: genes 13 Torsion [CA]-CB--CG-[CD2] |==|  0.53338
USER: genes 14 Torsion [CB]-CA--N-[C] |==|  0.51814
USER: genes 15 Torsion [N]-C--CA-[N] |==|  0.27893
USER: genes 16 Torsion [C]-CA--CB-[CG] |==|  0.80091
USER: genes 17 Torsion [CA]-CB--CG-[CD] |==|  0.70712
USER: genes 18 Torsion [CB]-CG--CD-[NE] |==|  0.44190
USER: genes 19 Torsion [CG]-CD--NE-[HE] |==|  0.96432
USER: genes 20 Torsion [C]-CA--N-[C] |==|  0.54623
USER: genes 21 Torsion [N]-C--CA-[CB] |==|  0.74801
ROOT
ATOM      1  CA  LEU G   4      38.490   1.238  28.590  1.00 72.45 LIG 0.18  C 
ENDROOT
BRANCH 1 2
ATOM      2  CB  LEU G   4      38.668   0.932  30.100  1.00 74.60 LIG 0.04  C 
BRANCH 2 3
ATOM      3  CG  LEU G   4      37.456   1.354  30.997  1.00 80.94 LIG-0.02  C 
ATOM      4  CD2 LEU G   4      37.760   2.525  31.949  1.00 76.26 LIG 0.01  C 
ATOM      5  CD1 LEU G   4      36.878   0.159  31.767  1.00 74.38 LIG 0.01  C 
ENDBRANCH 2 3
ENDBRANCH 1 2
BRANCH 1 6
ATOM      6  C   LEU G   4      38.496   2.758  28.258  1.00 69.99 LIG 0.24  C 
ATOM      7 O    LEU G   4      37.421   3.417  28.136  1.00 62.75 LIG-0.27  OA
ATOM      8  N   PRO G   5      39.722   3.338  28.183  1.00 68.53 LIG-0.34  N 
ATOM      9  CA  PRO G   5      39.780   4.732  27.791  1.00 66.41 LIG 0.18  C 
ATOM     10  CD  PRO G   5      41.054   2.834  28.594  1.00 67.94 LIG 0.13  C 
ATOM     11  CB  PRO G   5      41.289   5.071  27.907  1.00 68.06 LIG 0.04  C 
ATOM     12  CG  PRO G   5      41.817   4.097  28.915  1.00 67.97 LIG 0.02  C 
BRANCH 9 13
ATOM     13  C   PRO G   5      39.227   4.885  26.370  1.00 65.16 LIG 0.24  C 
ATOM     14  N   LEU G   6      38.670   6.050  26.062  1.00 58.40 LIG-0.35  N 
ATOM     15 H    LEU G   6      38.726   6.759  26.546  1.00 58.40 LIG 0.16  HD
ATOM     16 O    PRO G   5      39.302   3.941  25.564  1.00 57.12 LIG-0.27  OA
BRANCH 14 17
ATOM     17  CA  LEU G   6      37.897   6.209  24.833  1.00 60.31 LIG 0.18  C 
BRANCH 17 18
ATOM     18  C   LEU G   6      38.724   6.543  23.595  1.00 60.34 LIG 0.24  C 
ATOM     19 O    LEU G   6      39.938   6.578  23.706  1.00 72.64 LIG-0.27  OA
ATOM     20  N   LEU G   7      38.100   6.821  22.443  1.00 65.91 LIG-0.35  N 
ATOM     21 H    LEU G   7      37.248   6.921  22.373  1.00 65.91 LIG 0.16  HD
BRANCH 20 22
ATOM     22  CA  LEU G   7      38.849   6.987  21.148  1.00 66.14 LIG 0.16  C 
BRANCH 22 23
ATOM     23  CB  LEU G   7      38.462   5.873  20.156  1.00 64.61 LIG 0.04  C 
BRANCH 23 24
ATOM     24  CG  LEU G   7      39.493   4.775  19.834  1.00 68.76 LIG-0.02  C 
ATOM     25  CD2 LEU G   7      38.829   3.566  19.140  1.00 64.31 LIG 0.01  C 
ATOM     26  CD1 LEU G   7      40.311   4.371  21.066  1.00 66.72 LIG 0.01  C 
ENDBRANCH 23 24
ENDBRANCH 22 23
BRANCH 22 27
ATOM     27  C   LEU G   7      38.682   8.365  20.496  1.00 59.22 LIG 0.22  C 
ATOM     28 O    LEU G   7      38.037   8.464  19.463  1.00 55.72 LIG-0.29  OA
ENDBRANCH 22 27
ENDBRANCH 20 22
ENDBRANCH 17 18
BRANCH 17 29
ATOM     29  CB  LEU G   6      36.739   7.219  25.037  1.00 54.67 LIG 0.04  C 
BRANCH 29 30
ATOM     30  CG  LEU G   6      35.545   6.474  25.676  1.00 53.09 LIG-0.02  C 
ATOM     31  CD1 LEU G   6      35.913   6.016  27.063  1.00 49.97 LIG 0.01  C 
ATOM     32  CD2 LEU G   6      34.253   7.296  25.654  1.00 51.63 LIG 0.01  C 
ENDBRANCH 29 30
ENDBRANCH 17 29
ENDBRANCH 14 17
ENDBRANCH 9 13
ENDBRANCH 1 6
BRANCH 1 33
ATOM     33  N   LEU G   4      39.409   0.464  27.742  1.00 70.21 LIG-0.35  N 
ATOM     34  C   ARG G   3      39.481   0.700  26.427  1.00 75.48 LIG 0.24  C 
ATOM     35 O    ARG G   3      38.718   1.533  25.863  1.00 65.52 LIG-0.27  OA
ATOM     36 H    LEU G   4      39.875  -0.128  28.157  1.00 70.21 LIG 0.16  HD
BRANCH 34 37
ATOM     37  CA  ARG G   3      40.534  -0.139  25.610  1.00 78.48 LIG 0.18  C 
BRANCH 37 38
ATOM     38  CB  ARG G   3      41.341   0.745  24.633  1.00 76.51 LIG 0.04  C 
BRANCH 38 39
ATOM     39  CG  ARG G   3      40.564   1.248  23.427  1.00 78.92 LIG 0.02  C 
BRANCH 39 40
ATOM     40  CD  ARG G   3      40.944   0.508  22.141  1.00 76.70 LIG 0.14  C 
BRANCH 40 41
ATOM     41  NE  ARG G   3      39.930   0.582  21.059  1.00 80.12 LIG-0.23  N 
ATOM     42 HE   ARG G   3      39.153   0.876  21.278  1.00 80.12 LIG 0.18  HD
ATOM     43  CZ  ARG G   3      40.103   0.237  19.766  1.00 82.69 LIG 0.67  C 
ATOM     44  NH1 ARG G   3      41.249  -0.280  19.289  1.00 73.81 LIG-0.23  N 
ATOM     45  NH2 ARG G   3      39.089   0.387  18.921  1.00 84.58 LIG-0.23  N 
ATOM     46 1HH1 ARG G   3      41.916  -0.405  19.816  1.00 73.81 LIG 0.17  HD
ATOM     47 2HH1 ARG G   3      41.314  -0.485  18.456  1.00 73.81 LIG 0.17  HD
ATOM     48 2HH2 ARG G   3      39.182   0.171  18.094  1.00 84.58 LIG 0.17  HD
ATOM     49 1HH2 ARG G   3      38.338   0.699  19.202  1.00 84.58 LIG 0.17  HD
ENDBRANCH 40 41
ENDBRANCH 39 40
ENDBRANCH 38 39
ENDBRANCH 37 38
BRANCH 37 50
ATOM     50  N   ARG G   3      39.917  -1.284  24.879  1.00 95.22 LIG-0.35  N 
ATOM     51  C   PRO G   2      40.626  -2.316  24.389  1.00105.18 LIG 0.25  C 
ATOM     52 O    PRO G   2      41.861  -2.352  24.426  1.00111.30 LIG-0.27  OA
ATOM     53 H    ARG G   3      39.062  -1.222  24.802  1.00 95.22 LIG 0.16  HD
BRANCH 51 54
ATOM     54  CA  PRO G   2      39.838  -3.499  23.743  1.00104.44 LIG 0.35  C 
ATOM     55  N   PRO G   2      40.592  -4.247  22.729  1.00103.34 LIG 0.32  N 
ATOM     56  CD  PRO G   2      40.247  -5.688  22.729  1.00102.42 LIG 0.32  C 
ATOM     57  CG  PRO G   2      39.433  -5.874  23.996  1.00 98.38 LIG 0.04  C 
ATOM     58  CB  PRO G   2      39.502  -4.587  24.783  1.00102.80 LIG 0.05  C 
ENDBRANCH 51 54
ENDBRANCH 37 50
ENDBRANCH 34 37
ENDBRANCH 1 33
TORSDOF 20
ENDMDL
MODEL 21
USER: ADFR SOLUTION from run 12
USER: SCORE 16.287861 LL:  -3.992 LR: -12.833 RR:   0.000 FEB:  -6.867
USER: RMSD 10.407301
USER: SEED 406624
USER: STATUS no improvement in best in 11 clusters for 5 generations
USER: GENES 22
USER: genes 0 Translation |==|  0.37048 0.57213 0.52475
USER: genes 1 Rotation |==|  0.62277 0.23091 0.10166 0.56201
USER: genes 2 Torsion [C]-CA--CB-[CG] |==|  0.18553
USER: genes 3 Torsion [CA]-CB--CG-[CD1] |==|  0.37147
USER: genes 4 Torsion [N]-CA--C-[N] |==|  0.41113
USER: genes 5 Torsion [N]-CA--C-[N] |==|  0.31408
USER: genes 6 Torsion [C]-N--CA-[C] |==|  0.84175
USER: genes 7 Torsion [N]-CA--C-[N] |==|  0.37670
USER: genes 8 Torsion [C]-N--CA-[CB] |==|  0.83748
USER: genes 9 Torsion [N]-CA--CB-[CG] |==|  0.83001
USER: genes 10 Torsion [CA]-CB--CG-[CD2] |==|  0.27819
USER: genes 11 Torsion [N]-CA--C-[O] |==|  0.09400
USER: genes 12 Torsion [N]-CA--CB-[CG] |==|  0.62032
USER: genes 13 Torsion [CA]-CB--CG-[CD2] |==|  0.64712
USER: genes 14 Torsion [CB]-CA--N-[C] |==|  0.52779
USER: genes 15 Torsion [N]-C--CA-[N] |==|  0.31785
USER: genes 16 Torsion [C]-CA--CB-[CG] |==|  0.15019
USER: genes 17 Torsion [CA]-CB--CG-[CD] |==|  0.33834
USER: genes 18 Torsion [CB]-CG--CD-[NE] |==|  0.79239
USER: genes 19 Torsion [CG]-CD--NE-[HE] |==|  0.83519
USER: genes 20 Torsion [C]-CA--N-[C] |==|  0.72835
USER: genes 21 Torsion [N]-C--CA-[CB] |==|  0.64936
ROOT
ATOM      1  CA  LEU G   4      37.736   6.727  23.901  1.00 72.45 LIG 0.18  C 
ENDROOT
BRANCH 1 2
ATOM      2  CB  LEU G   4      36.319   6.307  24.368  1.00 74.60 LIG 0.04  C 
BRANCH 2 3
ATOM      3  CG  LEU G   4      36.002   6.640  25.865  1.00 80.94 LIG-0.02  C 
ATOM      4  CD2 LEU G   4      36.152   5.441  26.819  1.00 76.26 LIG 0.01  C 
ATOM      5  CD1 LEU G   4      34.621   7.291  26.020  1.00 74.38 LIG 0.01  C 
ENDBRANCH 2 3
ENDBRANCH 1 2
BRANCH 1 6
ATOM      6  C   LEU G   4      38.881   5.927  24.585  1.00 69.99 LIG 0.24  C 
ATOM      7 O    LEU G   4      39.474   4.976  23.994  1.00 62.75 LIG-0.27  OA
ATOM      8  N   PRO G   5      39.247   6.364  25.817  1.00 68.53 LIG-0.34  N 
ATOM      9  CA  PRO G   5      40.250   5.596  26.530  1.00 66.41 LIG 0.18  C 
ATOM     10  CD  PRO G   5      38.911   7.616  26.537  1.00 67.94 LIG 0.13  C 
ATOM     11  CB  PRO G   5      40.480   6.425  27.821  1.00 68.06 LIG 0.04  C 
ATOM     12  CG  PRO G   5      40.101   7.824  27.443  1.00 67.97 LIG 0.02  C 
BRANCH 9 13
ATOM     13  C   PRO G   5      39.718   4.184  26.796  1.00 65.16 LIG 0.24  C 
ATOM     14  N   LEU G   6      40.321   3.184  26.166  1.00 58.40 LIG-0.35  N 
ATOM     15 H    LEU G   6      41.065   3.256  25.741  1.00 58.40 LIG 0.16  HD
ATOM     16 O    PRO G   5      38.756   4.013  27.566  1.00 57.12 LIG-0.27  OA
BRANCH 14 17
ATOM     17  CA  LEU G   6      39.737   1.845  26.154  1.00 60.31 LIG 0.18  C 
BRANCH 17 18
ATOM     18  C   LEU G   6      39.481   1.247  27.535  1.00 60.34 LIG 0.24  C 
ATOM     19 O    LEU G   6      40.365   1.327  28.369  1.00 72.64 LIG-0.27  OA
ATOM     20  N   LEU G   7      38.319   0.625  27.776  1.00 65.91 LIG-0.35  N 
ATOM     21 H    LEU G   7      37.735   0.451  27.168  1.00 65.91 LIG 0.16  HD
BRANCH 20 22
ATOM     22  CA  LEU G   7      37.929   0.167  29.156  1.00 66.14 LIG 0.16  C 
BRANCH 22 23
ATOM     23  CB  LEU G   7      38.979  -0.814  29.712  1.00 64.61 LIG 0.04  C 
BRANCH 23 24
ATOM     24  CG  LEU G   7      39.230  -2.137  28.962  1.00 68.76 LIG-0.02  C 
ATOM     25  CD2 LEU G   7      40.498  -2.052  28.084  1.00 64.31 LIG 0.01  C 
ATOM     26  CD1 LEU G   7      37.998  -2.597  28.175  1.00 66.72 LIG 0.01  C 
ENDBRANCH 23 24
ENDBRANCH 22 23
BRANCH 22 27
ATOM     27  C   LEU G   7      37.683   1.307  30.150  1.00 59.22 LIG 0.22  C 
ATOM     28 O    LEU G   7      37.201   2.357  29.749  1.00 55.72 LIG-0.29  OA
ENDBRANCH 22 27
ENDBRANCH 20 22
ENDBRANCH 17 18
BRANCH 17 29
ATOM     29  CB  LEU G   6      40.567   0.890  25.260  1.00 54.67 LIG 0.04  C 
BRANCH 29 30
ATOM     30  CG  LEU G   6      39.593   0.044  24.408  1.00 53.09 LIG-0.02  C 
ATOM     31  CD1 LEU G   6      39.624   0.519  22.979  1.00 49.97 LIG 0.01  C 
ATOM     32  CD2 LEU G   6      39.851  -1.460  24.531  1.00 51.63 LIG 0.01  C 
ENDBRANCH 29 30
ENDBRANCH 17 29
ENDBRANCH 14 17
ENDBRANCH 9 13
ENDBRANCH 1 6
BRANCH 1 33
ATOM     33  N   LEU G   4      37.862   6.765  22.435  1.00 70.21 LIG-0.35  N 
ATOM     34  C   ARG G   3      39.061   6.913  21.860  1.00 75.48 LIG 0.24  C 
ATOM     35 O    ARG G   3      40.105   7.096  22.547  1.00 65.52 LIG-0.27  OA
ATOM     36 H    LEU G   4      37.121   6.687  22.005  1.00 70.21 LIG 0.16  HD
BRANCH 34 37
ATOM     37  CA  ARG G   3      39.104   6.886  20.286  1.00 78.48 LIG 0.18  C 
BRANCH 37 38
ATOM     38  CB  ARG G   3      40.006   5.751  19.754  1.00 76.51 LIG 0.04  C 
BRANCH 38 39
ATOM     39  CG  ARG G   3      39.673   4.363  20.279  1.00 78.92 LIG 0.02  C 
BRANCH 39 40
ATOM     40  CD  ARG G   3      39.349   3.379  19.151  1.00 76.70 LIG 0.14  C 
BRANCH 40 41
ATOM     41  NE  ARG G   3      38.014   3.566  18.528  1.00 80.12 LIG-0.23  N 
ATOM     42 HE   ARG G   3      37.333   3.497  19.048  1.00 80.12 LIG 0.18  HD
ATOM     43  CZ  ARG G   3      37.759   3.832  17.230  1.00 82.69 LIG 0.67  C 
ATOM     44  NH1 ARG G   3      38.720   3.921  16.295  1.00 73.81 LIG-0.23  N 
ATOM     45  NH2 ARG G   3      36.498   3.990  16.844  1.00 84.58 LIG-0.23  N 
ATOM     46 1HH1 ARG G   3      39.544   3.805  16.512  1.00 73.81 LIG 0.17  HD
ATOM     47 2HH1 ARG G   3      38.511   4.093  15.478  1.00 73.81 LIG 0.17  HD
ATOM     48 2HH2 ARG G   3      36.318   4.160  16.020  1.00 84.58 LIG 0.17  HD
ATOM     49 1HH2 ARG G   3      35.861   3.921  17.418  1.00 84.58 LIG 0.17  HD
ENDBRANCH 40 41
ENDBRANCH 39 40
ENDBRANCH 38 39
ENDBRANCH 37 38
BRANCH 37 50
ATOM     50  N   ARG G   3      39.519   8.193  19.699  1.00 95.22 LIG-0.35  N 
ATOM     51  C   PRO G   2      38.646   9.105  19.233  1.00105.18 LIG 0.25  C 
ATOM     52 O    PRO G   2      37.430   8.891  19.174  1.00111.30 LIG-0.27  OA
ATOM     53 H    ARG G   3      40.371   8.310  19.686  1.00 95.22 LIG 0.16  HD
BRANCH 51 54
ATOM     54  CA  PRO G   2      39.215  10.475  18.746  1.00104.44 LIG 0.35  C 
ATOM     55  N   PRO G   2      38.977  10.758  17.325  1.00103.34 LIG 0.32  N 
ATOM     56  CD  PRO G   2      38.760  12.202  17.075  1.00102.42 LIG 0.32  C 
ATOM     57  CG  PRO G   2      38.588  12.797  18.460  1.00 98.38 LIG 0.04  C 
ATOM     58  CB  PRO G   2      38.514  11.657  19.447  1.00102.80 LIG 0.05  C 
ENDBRANCH 51 54
ENDBRANCH 37 50
ENDBRANCH 34 37
ENDBRANCH 1 33
TORSDOF 20
ENDMDL
MODEL 22
USER: ADFR SOLUTION from run 137
USER: SCORE 16.459780 LL:  -4.667 LR: -12.825 RR:   0.000 FEB:  -6.859
USER: RMSD 6.010776
USER: SEED 136
USER: STATUS no improvement in best in 8 clusters for 5 generations
USER: GENES 22
USER: genes 0 Translation |==|  0.56619 0.36454 0.58319
USER: genes 1 Rotation |==|  0.46020 0.88495 0.35977 0.78384
USER: genes 2 Torsion [C]-CA--CB-[CG] |==|  0.83431
USER: genes 3 Torsion [CA]-CB--CG-[CD1] |==|  0.46712
USER: genes 4 Torsion [N]-CA--C-[N] |==|  0.40257
USER: genes 5 Torsion [N]-CA--C-[N] |==|  0.43873
USER: genes 6 Torsion [C]-N--CA-[C] |==|  0.81654
USER: genes 7 Torsion [N]-CA--C-[N] |==|  0.44417
USER: genes 8 Torsion [C]-N--CA-[CB] |==|  0.30605
USER: genes 9 Torsion [N]-CA--CB-[CG] |==|  0.91082
USER: genes 10 Torsion [CA]-CB--CG-[CD2] |==|  0.81995
USER: genes 11 Torsion [N]-CA--C-[O] |==|  0.61222
USER: genes 12 Torsion [N]-CA--CB-[CG] |==|  0.75029
USER: genes 13 Torsion [CA]-CB--CG-[CD2] |==|  0.55704
USER: genes 14 Torsion [CB]-CA--N-[C] |==|  0.20277
USER: genes 15 Torsion [N]-C--CA-[N] |==|  0.92820
USER: genes 16 Torsion [C]-CA--CB-[CG] |==|  0.15062
USER: genes 17 Torsion [CA]-CB--CG-[CD] |==|  0.74652
USER: genes 18 Torsion [CB]-CG--CD-[NE] |==|  0.62097
USER: genes 19 Torsion [CG]-CD--NE-[HE] |==|  0.10102
USER: genes 20 Torsion [C]-CA--N-[C] |==|  0.82778
USER: genes 21 Torsion [N]-C--CA-[CB] |==|  0.69897
ROOT
ATOM      1  CA  LEU G   4      40.965   0.810  25.040  1.00 72.45 LIG 0.18  C 
ENDROOT
BRANCH 1 2
ATOM      2  CB  LEU G   4      41.167   0.631  23.514  1.00 74.60 LIG 0.04  C 
BRANCH 2 3
ATOM      3  CG  LEU G   4      39.874   0.843  22.656  1.00 80.94 LIG-0.02  C 
ATOM      4  CD2 LEU G   4      38.775  -0.204  22.913  1.00 76.26 LIG 0.01  C 
ATOM      5  CD1 LEU G   4      40.196   0.940  21.160  1.00 74.38 LIG 0.01  C 
ENDBRANCH 2 3
ENDBRANCH 1 2
BRANCH 1 6
ATOM      6  C   LEU G   4      40.452   2.224  25.440  1.00 69.99 LIG 0.24  C 
ATOM      7 O    LEU G   4      39.226   2.447  25.668  1.00 62.75 LIG-0.27  OA
ATOM      8  N   PRO G   5      41.411   3.173  25.598  1.00 68.53 LIG-0.34  N 
ATOM      9  CA  PRO G   5      40.974   4.525  25.885  1.00 66.41 LIG 0.18  C 
ATOM     10  CD  PRO G   5      42.886   3.049  25.688  1.00 67.94 LIG 0.13  C 
ATOM     11  CB  PRO G   5      42.306   5.292  26.093  1.00 68.06 LIG 0.04  C 
ATOM     12  CG  PRO G   5      43.281   4.241  26.526  1.00 67.97 LIG 0.02  C 
BRANCH 9 13
ATOM     13  C   PRO G   5      40.142   5.052  24.711  1.00 65.16 LIG 0.24  C 
ATOM     14  N   LEU G   6      39.305   6.051  24.965  1.00 58.40 LIG-0.35  N 
ATOM     15 H    LEU G   6      39.302   6.509  25.692  1.00 58.40 LIG 0.16  HD
ATOM     16 O    PRO G   5      40.259   4.542  23.582  1.00 57.12 LIG-0.27  OA
BRANCH 14 17
ATOM     17  CA  LEU G   6      38.297   6.451  23.986  1.00 60.31 LIG 0.18  C 
BRANCH 17 18
ATOM     18  C   LEU G   6      38.858   7.042  22.696  1.00 60.34 LIG 0.24  C 
ATOM     19 O    LEU G   6      39.983   7.509  22.718  1.00 72.64 LIG-0.27  OA
ATOM     20  N   LEU G   7      38.092   7.065  21.597  1.00 65.91 LIG-0.35  N 
ATOM     21 H    LEU G   7      37.258   6.853  21.591  1.00 65.91 LIG 0.16  HD
BRANCH 20 22
ATOM     22  CA  LEU G   7      38.635   7.470  20.253  1.00 66.14 LIG 0.16  C 
BRANCH 22 23
ATOM     23  CB  LEU G   7      38.711   6.252  19.313  1.00 64.61 LIG 0.04  C 
BRANCH 23 24
ATOM     24  CG  LEU G   7      38.994   4.863  19.920  1.00 68.76 LIG-0.02  C 
ATOM     25  CD2 LEU G   7      40.403   4.802  20.549  1.00 64.31 LIG 0.01  C 
ATOM     26  CD1 LEU G   7      38.747   3.733  18.914  1.00 66.72 LIG 0.01  C 
ENDBRANCH 23 24
ENDBRANCH 22 23
BRANCH 22 27
ATOM     27  C   LEU G   7      37.866   8.616  19.583  1.00 59.22 LIG 0.22  C 
ATOM     28 O    LEU G   7      37.655   8.571  18.380  1.00 55.72 LIG-0.29  OA
ENDBRANCH 22 27
ENDBRANCH 20 22
ENDBRANCH 17 18
BRANCH 17 29
ATOM     29  CB  LEU G   6      37.242   7.382  24.632  1.00 54.67 LIG 0.04  C 
BRANCH 29 30
ATOM     30  CG  LEU G   6      36.097   6.511  25.198  1.00 53.09 LIG-0.02  C 
ATOM     31  CD1 LEU G   6      36.557   5.822  26.456  1.00 49.97 LIG 0.01  C 
ATOM     32  CD2 LEU G   6      34.799   7.296  25.401  1.00 51.63 LIG 0.01  C 
ENDBRANCH 29 30
ENDBRANCH 17 29
ENDBRANCH 14 17
ENDBRANCH 9 13
ENDBRANCH 1 6
BRANCH 1 33
ATOM     33  N   LEU G   4      40.174  -0.275  25.639  1.00 70.21 LIG-0.35  N 
ATOM     34  C   ARG G   3      40.705  -1.493  25.803  1.00 75.48 LIG 0.24  C 
ATOM     35 O    ARG G   3      41.864  -1.769  25.385  1.00 65.52 LIG-0.27  OA
ATOM     36 H    LEU G   4      39.373  -0.059  25.864  1.00 70.21 LIG 0.16  HD
BRANCH 34 37
ATOM     37  CA  ARG G   3      39.802  -2.575  26.504  1.00 78.48 LIG 0.18  C 
BRANCH 37 38
ATOM     38  CB  ARG G   3      39.128  -3.514  25.479  1.00 76.51 LIG 0.04  C 
BRANCH 38 39
ATOM     39  CG  ARG G   3      40.078  -4.198  24.509  1.00 78.92 LIG 0.02  C 
BRANCH 39 40
ATOM     40  CD  ARG G   3      40.277  -3.389  23.224  1.00 76.70 LIG 0.14  C 
BRANCH 40 41
ATOM     41  NE  ARG G   3      40.248  -4.191  21.975  1.00 80.12 LIG-0.23  N 
ATOM     42 HE   ARG G   3      39.696  -4.850  21.952  1.00 80.12 LIG 0.18  HD
ATOM     43  CZ  ARG G   3      40.998  -3.993  20.871  1.00 82.69 LIG 0.67  C 
ATOM     44  NH1 ARG G   3      41.933  -3.033  20.779  1.00 73.81 LIG-0.23  N 
ATOM     45  NH2 ARG G   3      40.829  -4.799  19.828  1.00 84.58 LIG-0.23  N 
ATOM     46 1HH1 ARG G   3      42.078  -2.508  21.445  1.00 73.81 LIG 0.17  HD
ATOM     47 2HH1 ARG G   3      42.389  -2.942  20.055  1.00 73.81 LIG 0.17  HD
ATOM     48 2HH2 ARG G   3      41.299  -4.686  19.116  1.00 84.58 LIG 0.17  HD
ATOM     49 1HH2 ARG G   3      40.249  -5.433  19.865  1.00 84.58 LIG 0.17  HD
ENDBRANCH 40 41
ENDBRANCH 39 40
ENDBRANCH 38 39
ENDBRANCH 37 38
BRANCH 37 50
ATOM     50  N   ARG G   3      38.776  -1.973  27.406  1.00 95.22 LIG-0.35  N 
ATOM     51  C   PRO G   2      39.084  -1.237  28.488  1.00105.18 LIG 0.25  C 
ATOM     52 O    PRO G   2      40.248  -1.075  28.873  1.00111.30 LIG-0.27  OA
ATOM     53 H    ARG G   3      37.967  -2.142  27.167  1.00 95.22 LIG 0.16  HD
BRANCH 51 54
ATOM     54  CA  PRO G   2      37.910  -0.578  29.278  1.00104.44 LIG 0.35  C 
ATOM     55  N   PRO G   2      38.018  -0.701  30.737  1.00103.34 LIG 0.32  N 
ATOM     56  CD  PRO G   2      37.472   0.485  31.437  1.00102.42 LIG 0.32  C 
ATOM     57  CG  PRO G   2      37.264   1.505  30.333  1.00 98.38 LIG 0.04  C 
ATOM     58  CB  PRO G   2      37.878   0.950  29.071  1.00102.80 LIG 0.05  C 
ENDBRANCH 51 54
ENDBRANCH 37 50
ENDBRANCH 34 37
ENDBRANCH 1 33
TORSDOF 20
ENDMDL
MODEL 23
USER: ADFR SOLUTION from run 170
USER: SCORE 14.695421 LL:  -3.834 LR: -12.810 RR:   0.000 FEB:  -6.844
USER: RMSD 12.030952
USER: SEED 169
USER: STATUS no improvement in best in 25 clusters for 5 generations
USER: GENES 22
USER: genes 0 Translation |==|  0.42270 0.63842 0.50281
USER: genes 1 Rotation |==|  0.97264 0.58170 0.42146 0.61732
USER: genes 2 Torsion [C]-CA--CB-[CG] |==|  0.23174
USER: genes 3 Torsion [CA]-CB--CG-[CD1] |==|  0.76214
USER: genes 4 Torsion [N]-CA--C-[N] |==|  0.29188
USER: genes 5 Torsion [N]-CA--C-[N] |==|  0.32540
USER: genes 6 Torsion [C]-N--CA-[C] |==|  0.77616
USER: genes 7 Torsion [N]-CA--C-[N] |==|  0.20316
USER: genes 8 Torsion [C]-N--CA-[CB] |==|  0.18990
USER: genes 9 Torsion [N]-CA--CB-[CG] |==|  0.61468
USER: genes 10 Torsion [CA]-CB--CG-[CD2] |==|  0.70474
USER: genes 11 Torsion [N]-CA--C-[O] |==|  0.63478
USER: genes 12 Torsion [N]-CA--CB-[CG] |==|  0.10721
USER: genes 13 Torsion [CA]-CB--CG-[CD2] |==|  0.66918
USER: genes 14 Torsion [CB]-CA--N-[C] |==|  0.16259
USER: genes 15 Torsion [N]-C--CA-[N] |==|  0.92615
USER: genes 16 Torsion [C]-CA--CB-[CG] |==|  0.36216
USER: genes 17 Torsion [CA]-CB--CG-[CD] |==|  0.21662
USER: genes 18 Torsion [CB]-CG--CD-[NE] |==|  0.62685
USER: genes 19 Torsion [CG]-CD--NE-[HE] |==|  0.03792
USER: genes 20 Torsion [C]-CA--N-[C] |==|  0.61667
USER: genes 21 Torsion [N]-C--CA-[CB] |==|  0.57823
ROOT
ATOM      1  CA  LEU G   4      38.597   8.616  23.473  1.00 72.45 LIG 0.18  C 
ENDROOT
BRANCH 1 2
ATOM      2  CB  LEU G   4      39.885   8.069  22.804  1.00 74.60 LIG 0.04  C 
BRANCH 2 3
ATOM      3  CG  LEU G   4      39.775   6.594  22.290  1.00 80.94 LIG-0.02  C 
ATOM      4  CD2 LEU G   4      38.433   6.267  21.610  1.00 76.26 LIG 0.01  C 
ATOM      5  CD1 LEU G   4      40.086   5.582  23.400  1.00 74.38 LIG 0.01  C 
ENDBRANCH 2 3
ENDBRANCH 1 2
BRANCH 1 6
ATOM      6  C   LEU G   4      38.457   8.221  24.971  1.00 69.99 LIG 0.24  C 
ATOM      7 O    LEU G   4      39.335   8.536  25.828  1.00 62.75 LIG-0.27  OA
ATOM      8  N   PRO G   5      37.303   7.588  25.305  1.00 68.53 LIG-0.34  N 
ATOM      9  CA  PRO G   5      37.164   7.124  26.672  1.00 66.41 LIG 0.18  C 
ATOM     10  CD  PRO G   5      36.043   7.412  24.543  1.00 67.94 LIG 0.13  C 
ATOM     11  CB  PRO G   5      35.722   6.555  26.710  1.00 68.06 LIG 0.04  C 
ATOM     12  CG  PRO G   5      34.998   7.294  25.627  1.00 67.97 LIG 0.02  C 
BRANCH 9 13
ATOM     13  C   PRO G   5      38.243   6.076  26.966  1.00 65.16 LIG 0.24  C 
ATOM     14  N   LEU G   6      39.130   6.371  27.908  1.00 58.40 LIG-0.35  N 
ATOM     15 H    LEU G   6      39.058   7.033  28.453  1.00 58.40 LIG 0.16  HD
ATOM     16 O    PRO G   5      38.268   5.008  26.329  1.00 57.12 LIG-0.27  OA
BRANCH 14 17
ATOM     17  CA  LEU G   6      40.333   5.561  28.085  1.00 60.31 LIG 0.18  C 
BRANCH 17 18
ATOM     18  C   LEU G   6      40.124   4.271  28.874  1.00 60.34 LIG 0.24  C 
ATOM     19 O    LEU G   6      40.585   4.205  30.000  1.00 72.64 LIG-0.27  OA
ATOM     20  N   LEU G   7      39.479   3.247  28.299  1.00 65.91 LIG-0.35  N 
ATOM     21 H    LEU G   7      39.254   3.230  27.469  1.00 65.91 LIG 0.16  HD
BRANCH 20 22
ATOM     22  CA  LEU G   7      39.087   2.016  29.072  1.00 66.14 LIG 0.16  C 
BRANCH 22 23
ATOM     23  CB  LEU G   7      37.985   2.353  30.095  1.00 64.61 LIG 0.04  C 
BRANCH 23 24
ATOM     24  CG  LEU G   7      38.065   1.731  31.503  1.00 68.76 LIG-0.02  C 
ATOM     25  CD2 LEU G   7      37.017   0.611  31.683  1.00 64.31 LIG 0.01  C 
ATOM     26  CD1 LEU G   7      37.991   2.791  32.607  1.00 66.72 LIG 0.01  C 
ENDBRANCH 23 24
ENDBRANCH 22 23
BRANCH 22 27
ATOM     27  C   LEU G   7      38.659   0.833  28.195  1.00 59.22 LIG 0.22  C 
ATOM     28 O    LEU G   7      37.623   0.240  28.455  1.00 55.72 LIG-0.29  OA
ENDBRANCH 22 27
ENDBRANCH 20 22
ENDBRANCH 17 18
BRANCH 17 29
ATOM     29  CB  LEU G   6      41.488   6.411  28.672  1.00 54.67 LIG 0.04  C 
BRANCH 29 30
ATOM     30  CG  LEU G   6      40.900   7.383  29.720  1.00 53.09 LIG-0.02  C 
ATOM     31  CD1 LEU G   6      41.428   7.037  31.087  1.00 49.97 LIG 0.01  C 
ATOM     32  CD2 LEU G   6      41.127   8.853  29.359  1.00 51.63 LIG 0.01  C 
ENDBRANCH 29 30
ENDBRANCH 17 29
ENDBRANCH 14 17
ENDBRANCH 9 13
ENDBRANCH 1 6
BRANCH 1 33
ATOM     33  N   LEU G   4      38.405  10.056  23.241  1.00 70.21 LIG-0.35  N 
ATOM     34  C   ARG G   3      38.316  10.537  21.995  1.00 75.48 LIG 0.24  C 
ATOM     35 O    ARG G   3      38.467   9.792  20.987  1.00 65.52 LIG-0.27  OA
ATOM     36 H    LEU G   4      38.358  10.535  23.953  1.00 70.21 LIG 0.16  HD
BRANCH 34 37
ATOM     37  CA  ARG G   3      38.054  12.083  21.846  1.00 78.48 LIG 0.18  C 
BRANCH 37 38
ATOM     38  CB  ARG G   3      39.359  12.864  21.576  1.00 76.51 LIG 0.04  C 
BRANCH 38 39
ATOM     39  CG  ARG G   3      39.302  13.829  20.403  1.00 78.92 LIG 0.02  C 
BRANCH 39 40
ATOM     40  CD  ARG G   3      38.572  15.129  20.755  1.00 76.70 LIG 0.14  C 
BRANCH 40 41
ATOM     41  NE  ARG G   3      37.587  15.582  19.741  1.00 80.12 LIG-0.23  N 
ATOM     42 HE   ARG G   3      37.365  15.012  19.137  1.00 80.12 LIG 0.18  HD
ATOM     43  CZ  ARG G   3      37.004  16.797  19.669  1.00 82.69 LIG 0.67  C 
ATOM     44  NH1 ARG G   3      37.288  17.801  20.516  1.00 73.81 LIG-0.23  N 
ATOM     45  NH2 ARG G   3      36.124  17.029  18.701  1.00 84.58 LIG-0.23  N 
ATOM     46 1HH1 ARG G   3      37.867  17.685  21.141  1.00 73.81 LIG 0.17  HD
ATOM     47 2HH1 ARG G   3      36.890  18.560  20.433  1.00 73.81 LIG 0.17  HD
ATOM     48 2HH2 ARG G   3      35.743  17.798  18.641  1.00 84.58 LIG 0.17  HD
ATOM     49 1HH2 ARG G   3      35.936  16.410  18.134  1.00 84.58 LIG 0.17  HD
ENDBRANCH 40 41
ENDBRANCH 39 40
ENDBRANCH 38 39
ENDBRANCH 37 38
BRANCH 37 50
ATOM     50  N   ARG G   3      37.339  12.662  23.021  1.00 95.22 LIG-0.35  N 
ATOM     51  C   PRO G   2      36.343  13.558  22.911  1.00105.18 LIG 0.25  C 
ATOM     52 O    PRO G   2      36.000  14.042  21.826  1.00111.30 LIG-0.27  OA
ATOM     53 H    ARG G   3      37.625  12.368  23.777  1.00 95.22 LIG 0.16  HD
BRANCH 51 54
ATOM     54  CA  PRO G   2      35.611  13.997  24.218  1.00104.44 LIG 0.35  C 
ATOM     55  N   PRO G   2      36.172  15.196  24.853  1.00103.34 LIG 0.32  N 
ATOM     56  CD  PRO G   2      35.127  16.022  25.503  1.00102.42 LIG 0.32  C 
ATOM     57  CG  PRO G   2      33.822  15.429  25.004  1.00 98.38 LIG 0.04  C 
ATOM     58  CB  PRO G   2      34.154  14.416  23.935  1.00102.80 LIG 0.05  C 
ENDBRANCH 51 54
ENDBRANCH 37 50
ENDBRANCH 34 37
ENDBRANCH 1 33
TORSDOF 20
ENDMDL
MODEL 24
USER: ADFR SOLUTION from run 106
USER: SCORE 15.357884 LL:  -4.263 LR: -12.747 RR:   0.000 FEB:  -6.781
USER: RMSD 11.252891
USER: SEED 105
USER: STATUS no improvement in best in 9 clusters for 5 generations
USER: GENES 22
USER: genes 0 Translation |==|  0.37787 0.59203 0.57457
USER: genes 1 Rotation |==|  0.74556 0.40665 0.08449 0.59131
USER: genes 2 Torsion [C]-CA--CB-[CG] |==|  0.28717
USER: genes 3 Torsion [CA]-CB--CG-[CD1] |==|  0.80146
USER: genes 4 Torsion [N]-CA--C-[N] |==|  0.34183
USER: genes 5 Torsion [N]-CA--C-[N] |==|  0.92143
USER: genes 6 Torsion [C]-N--CA-[C] |==|  0.78085
USER: genes 7 Torsion [N]-CA--C-[N] |==|  0.52778
USER: genes 8 Torsion [C]-N--CA-[CB] |==|  0.39659
USER: genes 9 Torsion [N]-CA--CB-[CG] |==|  0.22451
USER: genes 10 Torsion [CA]-CB--CG-[CD2] |==|  0.68575
USER: genes 11 Torsion [N]-CA--C-[O] |==|  0.52918
USER: genes 12 Torsion [N]-CA--CB-[CG] |==|  0.66094
USER: genes 13 Torsion [CA]-CB--CG-[CD2] |==|  0.74283
USER: genes 14 Torsion [CB]-CA--N-[C] |==|  0.50134
USER: genes 15 Torsion [N]-C--CA-[N] |==|  0.31718
USER: genes 16 Torsion [C]-CA--CB-[CG] |==|  0.26276
USER: genes 17 Torsion [CA]-CB--CG-[CD] |==|  0.07545
USER: genes 18 Torsion [CB]-CG--CD-[NE] |==|  0.79712
USER: genes 19 Torsion [CG]-CD--NE-[HE] |==|  0.23541
USER: genes 20 Torsion [C]-CA--N-[C] |==|  0.56117
USER: genes 21 Torsion [N]-C--CA-[CB] |==|  0.80624
ROOT
ATOM      1  CA  LEU G   4      37.858   7.294  24.872  1.00 72.45 LIG 0.18  C 
ENDROOT
BRANCH 1 2
ATOM      2  CB  LEU G   4      36.880   6.150  24.500  1.00 74.60 LIG 0.04  C 
BRANCH 2 3
ATOM      3  CG  LEU G   4      35.737   5.906  25.542  1.00 80.94 LIG-0.02  C 
ATOM      4  CD2 LEU G   4      34.899   7.159  25.857  1.00 76.26 LIG 0.01  C 
ATOM      5  CD1 LEU G   4      36.272   5.269  26.831  1.00 74.38 LIG 0.01  C 
ENDBRANCH 2 3
ENDBRANCH 1 2
BRANCH 1 6
ATOM      6  C   LEU G   4      39.227   6.792  25.415  1.00 69.99 LIG 0.24  C 
ATOM      7 O    LEU G   4      40.119   6.328  24.645  1.00 62.75 LIG-0.27  OA
ATOM      8  N   PRO G   5      39.423   6.954  26.749  1.00 68.53 LIG-0.34  N 
ATOM      9  CA  PRO G   5      40.648   6.422  27.315  1.00 66.41 LIG 0.18  C 
ATOM     10  CD  PRO G   5      38.661   7.740  27.749  1.00 67.94 LIG 0.13  C 
ATOM     11  CB  PRO G   5      40.576   6.868  28.799  1.00 68.06 LIG 0.04  C 
ATOM     12  CG  PRO G   5      39.705   8.086  28.784  1.00 67.97 LIG 0.02  C 
BRANCH 9 13
ATOM     13  C   PRO G   5      40.675   4.901  27.133  1.00 65.16 LIG 0.24  C 
ATOM     14  N   LEU G   6      39.503   4.279  27.082  1.00 58.40 LIG-0.35  N 
ATOM     15 H    LEU G   6      38.745   4.677  27.000  1.00 58.40 LIG 0.16  HD
ATOM     16 O    PRO G   5      41.760   4.300  27.048  1.00 57.12 LIG-0.27  OA
BRANCH 14 17
ATOM     17  CA  LEU G   6      39.424   2.823  27.165  1.00 60.31 LIG 0.18  C 
BRANCH 17 18
ATOM     18  C   LEU G   6      39.757   2.090  25.869  1.00 60.34 LIG 0.24  C 
ATOM     19 O    LEU G   6      40.201   2.739  24.938  1.00 72.64 LIG-0.27  OA
ATOM     20  N   LEU G   7      39.520   0.774  25.779  1.00 65.91 LIG-0.35  N 
ATOM     21 H    LEU G   7      39.097   0.323  26.377  1.00 65.91 LIG 0.16  HD
BRANCH 20 22
ATOM     22  CA  LEU G   7      39.983  -0.042  24.602  1.00 66.14 LIG 0.16  C 
BRANCH 22 23
ATOM     23  CB  LEU G   7      40.441  -1.439  25.063  1.00 64.61 LIG 0.04  C 
BRANCH 23 24
ATOM     24  CG  LEU G   7      39.375  -2.522  25.322  1.00 68.76 LIG-0.02  C 
ATOM     25  CD2 LEU G   7      39.306  -2.895  26.819  1.00 64.31 LIG 0.01  C 
ATOM     26  CD1 LEU G   7      39.564  -3.745  24.417  1.00 66.72 LIG 0.01  C 
ENDBRANCH 23 24
ENDBRANCH 22 23
BRANCH 22 27
ATOM     27  C   LEU G   7      38.950  -0.163  23.475  1.00 59.22 LIG 0.22  C 
ATOM     28 O    LEU G   7      39.146  -0.956  22.566  1.00 55.72 LIG-0.29  OA
ENDBRANCH 22 27
ENDBRANCH 20 22
ENDBRANCH 17 18
BRANCH 17 29
ATOM     29  CB  LEU G   6      38.055   2.378  27.739  1.00 54.67 LIG 0.04  C 
BRANCH 29 30
ATOM     30  CG  LEU G   6      38.306   1.532  29.008  1.00 53.09 LIG-0.02  C 
ATOM     31  CD1 LEU G   6      37.269   1.859  30.050  1.00 49.97 LIG 0.01  C 
ATOM     32  CD2 LEU G   6      38.388   0.032  28.713  1.00 51.63 LIG 0.01  C 
ENDBRANCH 29 30
ENDBRANCH 17 29
ENDBRANCH 14 17
ENDBRANCH 9 13
ENDBRANCH 1 6
BRANCH 1 33
ATOM     33  N   LEU G   4      37.999   8.291  23.800  1.00 70.21 LIG-0.35  N 
ATOM     34  C   ARG G   3      38.815   9.341  23.952  1.00 75.48 LIG 0.24  C 
ATOM     35 O    ARG G   3      39.425   9.551  25.037  1.00 65.52 LIG-0.27  OA
ATOM     36 H    LEU G   4      37.528   8.138  23.097  1.00 70.21 LIG 0.16  HD
BRANCH 34 37
ATOM     37  CA  ARG G   3      38.944  10.325  22.729  1.00 78.48 LIG 0.18  C 
BRANCH 37 38
ATOM     38  CB  ARG G   3      40.402  10.434  22.231  1.00 76.51 LIG 0.04  C 
BRANCH 38 39
ATOM     39  CG  ARG G   3      40.762   9.506  21.081  1.00 78.92 LIG 0.02  C 
BRANCH 39 40
ATOM     40  CD  ARG G   3      39.547   9.148  20.222  1.00 76.70 LIG 0.14  C 
BRANCH 40 41
ATOM     41  NE  ARG G   3      38.594   8.202  20.857  1.00 80.12 LIG-0.23  N 
ATOM     42 HE   ARG G   3      38.002   8.543  21.379  1.00 80.12 LIG 0.18  HD
ATOM     43  CZ  ARG G   3      38.561   6.862  20.701  1.00 82.69 LIG 0.67  C 
ATOM     44  NH1 ARG G   3      39.452   6.187  19.954  1.00 73.81 LIG-0.23  N 
ATOM     45  NH2 ARG G   3      37.623   6.166  21.333  1.00 84.58 LIG-0.23  N 
ATOM     46 1HH1 ARG G   3      40.081   6.609  19.548  1.00 73.81 LIG 0.17  HD
ATOM     47 2HH1 ARG G   3      39.392   5.331  19.882  1.00 73.81 LIG 0.17  HD
ATOM     48 2HH2 ARG G   3      37.588   5.311  21.244  1.00 84.58 LIG 0.17  HD
ATOM     49 1HH2 ARG G   3      37.050   6.570  21.831  1.00 84.58 LIG 0.17  HD
ENDBRANCH 40 41
ENDBRANCH 39 40
ENDBRANCH 38 39
ENDBRANCH 37 38
BRANCH 37 50
ATOM     50  N   ARG G   3      38.395  11.682  23.019  1.00 95.22 LIG-0.35  N 
ATOM     51  C   PRO G   2      37.999  12.539  22.062  1.00105.18 LIG 0.25  C 
ATOM     52 O    PRO G   2      38.143  12.303  20.857  1.00111.30 LIG-0.27  OA
ATOM     53 H    ARG G   3      38.355  11.864  23.859  1.00 95.22 LIG 0.16  HD
BRANCH 51 54
ATOM     54  CA  PRO G   2      37.342  13.882  22.514  1.00104.44 LIG 0.35  C 
ATOM     55  N   PRO G   2      37.055  14.814  21.416  1.00103.34 LIG 0.32  N 
ATOM     56  CD  PRO G   2      35.825  15.601  21.663  1.00102.42 LIG 0.32  C 
ATOM     57  CG  PRO G   2      35.179  14.917  22.854  1.00 98.38 LIG 0.04  C 
ATOM     58  CB  PRO G   2      35.948  13.648  23.130  1.00102.80 LIG 0.05  C 
ENDBRANCH 51 54
ENDBRANCH 37 50
ENDBRANCH 34 37
ENDBRANCH 1 33
TORSDOF 20
ENDMDL
MODEL 25
USER: ADFR SOLUTION from run 164
USER: SCORE 14.696803 LL:  -4.466 LR: -12.717 RR:   0.000 FEB:  -6.751
USER: RMSD 10.792239
USER: SEED 163
USER: STATUS no improvement in best in 24 clusters for 5 generations
USER: GENES 22
USER: genes 0 Translation |==|  0.50399 0.66401 0.56329
USER: genes 1 Rotation |==|  0.74837 0.62530 0.91529 0.51195
USER: genes 2 Torsion [C]-CA--CB-[CG] |==|  0.05266
USER: genes 3 Torsion [CA]-CB--CG-[CD1] |==|  0.32347
USER: genes 4 Torsion [N]-CA--C-[N] |==|  0.83830
USER: genes 5 Torsion [N]-CA--C-[N] |==|  0.95368
USER: genes 6 Torsion [C]-N--CA-[C] |==|  0.88614
USER: genes 7 Torsion [N]-CA--C-[N] |==|  0.30751
USER: genes 8 Torsion [C]-N--CA-[CB] |==|  0.31768
USER: genes 9 Torsion [N]-CA--CB-[CG] |==|  0.67868
USER: genes 10 Torsion [CA]-CB--CG-[CD2] |==|  0.52109
USER: genes 11 Torsion [N]-CA--C-[O] |==|  0.87616
USER: genes 12 Torsion [N]-CA--CB-[CG] |==|  0.45836
USER: genes 13 Torsion [CA]-CB--CG-[CD2] |==|  0.64800
USER: genes 14 Torsion [CB]-CA--N-[C] |==|  0.44605
USER: genes 15 Torsion [N]-C--CA-[N] |==|  0.09796
USER: genes 16 Torsion [C]-CA--CB-[CG] |==|  0.41368
USER: genes 17 Torsion [CA]-CB--CG-[CD] |==|  0.23582
USER: genes 18 Torsion [CB]-CG--CD-[NE] |==|  0.41022
USER: genes 19 Torsion [CG]-CD--NE-[HE] |==|  0.00782
USER: genes 20 Torsion [C]-CA--N-[C] |==|  0.61898
USER: genes 21 Torsion [N]-C--CA-[CB] |==|  0.91726
ROOT
ATOM      1  CA  LEU G   4      39.939   9.345  24.652  1.00 72.45 LIG 0.18  C 
ENDROOT
BRANCH 1 2
ATOM      2  CB  LEU G   4      39.898   9.328  26.202  1.00 74.60 LIG 0.04  C 
BRANCH 2 3
ATOM      3  CG  LEU G   4      40.042   7.907  26.842  1.00 80.94 LIG-0.02  C 
ATOM      4  CD2 LEU G   4      38.809   7.454  27.644  1.00 76.26 LIG 0.01  C 
ATOM      5  CD1 LEU G   4      41.317   7.793  27.688  1.00 74.38 LIG 0.01  C 
ENDBRANCH 2 3
ENDBRANCH 1 2
BRANCH 1 6
ATOM      6  C   LEU G   4      39.649   7.960  24.005  1.00 69.99 LIG 0.24  C 
ATOM      7 O    LEU G   4      40.572   7.254  23.503  1.00 62.75 LIG-0.27  OA
ATOM      8  N   PRO G   5      38.361   7.535  24.084  1.00 68.53 LIG-0.34  N 
ATOM      9  CA  PRO G   5      38.026   6.290  23.419  1.00 66.41 LIG 0.18  C 
ATOM     10  CD  PRO G   5      37.222   8.046  24.884  1.00 67.94 LIG 0.13  C 
ATOM     11  CB  PRO G   5      36.536   6.077  23.795  1.00 68.06 LIG 0.04  C 
ATOM     12  CG  PRO G   5      36.364   6.820  25.085  1.00 67.97 LIG 0.02  C 
BRANCH 9 13
ATOM     13  C   PRO G   5      38.261   6.438  21.912  1.00 65.16 LIG 0.24  C 
ATOM     14  N   LEU G   6      38.373   7.673  21.438  1.00 58.40 LIG-0.35  N 
ATOM     15 H    LEU G   6      38.465   8.374  21.926  1.00 58.40 LIG 0.16  HD
ATOM     16 O    PRO G   5      38.331   5.429  21.188  1.00 57.12 LIG-0.27  OA
BRANCH 14 17
ATOM     17  CA  LEU G   6      38.345   7.928  20.000  1.00 60.31 LIG 0.18  C 
BRANCH 17 18
ATOM     18  C   LEU G   6      39.122   6.921  19.156  1.00 60.34 LIG 0.24  C 
ATOM     19 O    LEU G   6      40.339   6.941  19.212  1.00 72.64 LIG-0.27  OA
ATOM     20  N   LEU G   7      38.452   6.078  18.359  1.00 65.91 LIG-0.35  N 
ATOM     21 H    LEU G   7      37.606   6.128  18.213  1.00 65.91 LIG 0.16  HD
BRANCH 20 22
ATOM     22  CA  LEU G   7      39.137   4.949  17.636  1.00 66.14 LIG 0.16  C 
BRANCH 22 23
ATOM     23  CB  LEU G   7      38.638   3.591  18.164  1.00 64.61 LIG 0.04  C 
BRANCH 23 24
ATOM     24  CG  LEU G   7      39.637   2.661  18.881  1.00 68.76 LIG-0.02  C 
ATOM     25  CD2 LEU G   7      39.010   1.279  19.170  1.00 64.31 LIG 0.01  C 
ATOM     26  CD1 LEU G   7      40.234   3.311  20.134  1.00 66.72 LIG 0.01  C 
ENDBRANCH 23 24
ENDBRANCH 22 23
BRANCH 22 27
ATOM     27  C   LEU G   7      39.008   5.009  16.109  1.00 59.22 LIG 0.22  C 
ATOM     28 O    LEU G   7      37.922   5.266  15.611  1.00 55.72 LIG-0.29  OA
ENDBRANCH 22 27
ENDBRANCH 20 22
ENDBRANCH 17 18
BRANCH 17 29
ATOM     29  CB  LEU G   6      38.773   9.385  19.691  1.00 54.67 LIG 0.04  C 
BRANCH 29 30
ATOM     30  CG  LEU G   6      39.093   9.494  18.182  1.00 53.09 LIG-0.02  C 
ATOM     31  CD1 LEU G   6      37.998  10.258  17.485  1.00 49.97 LIG 0.01  C 
ATOM     32  CD2 LEU G   6      40.481  10.080  17.911  1.00 51.63 LIG 0.01  C 
ENDBRANCH 29 30
ENDBRANCH 17 29
ENDBRANCH 14 17
ENDBRANCH 9 13
ENDBRANCH 1 6
BRANCH 1 33
ATOM     33  N   LEU G   4      39.127  10.427  24.075  1.00 70.21 LIG-0.35  N 
ATOM     34  C   ARG G   3      39.338  10.839  22.819  1.00 75.48 LIG 0.24  C 
ATOM     35 O    ARG G   3      40.280  10.371  22.120  1.00 65.52 LIG-0.27  OA
ATOM     36 H    LEU G   4      38.530  10.754  24.600  1.00 70.21 LIG 0.16  HD
BRANCH 34 37
ATOM     37  CA  ARG G   3      38.383  11.964  22.268  1.00 78.48 LIG 0.18  C 
BRANCH 37 38
ATOM     38  CB  ARG G   3      38.994  12.692  21.051  1.00 76.51 LIG 0.04  C 
BRANCH 38 39
ATOM     39  CG  ARG G   3      37.986  13.208  20.036  1.00 78.92 LIG 0.02  C 
BRANCH 39 40
ATOM     40  CD  ARG G   3      37.434  14.585  20.415  1.00 76.70 LIG 0.14  C 
BRANCH 40 41
ATOM     41  NE  ARG G   3      37.095  15.458  19.262  1.00 80.12 LIG-0.23  N 
ATOM     42 HE   ARG G   3      37.196  15.118  18.479  1.00 80.12 LIG 0.18  HD
ATOM     43  CZ  ARG G   3      36.645  16.729  19.317  1.00 82.69 LIG 0.67  C 
ATOM     44  NH1 ARG G   3      36.483  17.403  20.467  1.00 73.81 LIG-0.23  N 
ATOM     45  NH2 ARG G   3      36.371  17.360  18.180  1.00 84.58 LIG-0.23  N 
ATOM     46 1HH1 ARG G   3      36.670  17.026  21.217  1.00 73.81 LIG 0.17  HD
ATOM     47 2HH1 ARG G   3      36.192  18.213  20.454  1.00 73.81 LIG 0.17  HD
ATOM     48 2HH2 ARG G   3      36.083  18.171  18.197  1.00 84.58 LIG 0.17  HD
ATOM     49 1HH2 ARG G   3      36.482  16.959  17.428  1.00 84.58 LIG 0.17  HD
ENDBRANCH 40 41
ENDBRANCH 39 40
ENDBRANCH 38 39
ENDBRANCH 37 38
BRANCH 37 50
ATOM     50  N   ARG G   3      37.990  12.950  23.316  1.00 95.22 LIG-0.35  N 
ATOM     51  C   PRO G   2      36.738  13.420  23.457  1.00105.18 LIG 0.25  C 
ATOM     52 O    PRO G   2      35.829  13.137  22.668  1.00111.30 LIG-0.27  OA
ATOM     53 H    ARG G   3      38.642  13.191  23.824  1.00 95.22 LIG 0.16  HD
BRANCH 51 54
ATOM     54  CA  PRO G   2      36.446  14.364  24.666  1.00104.44 LIG 0.35  C 
ATOM     55  N   PRO G   2      35.103  14.214  25.241  1.00103.34 LIG 0.32  N 
ATOM     56  CD  PRO G   2      35.099  14.430  26.706  1.00102.42 LIG 0.32  C 
ATOM     57  CG  PRO G   2      36.569  14.448  27.083  1.00 98.38 LIG 0.04  C 
ATOM     58  CB  PRO G   2      37.363  14.046  25.864  1.00102.80 LIG 0.05  C 
ENDBRANCH 51 54
ENDBRANCH 37 50
ENDBRANCH 34 37
ENDBRANCH 1 33
TORSDOF 20
ENDMDL
MODEL 26
USER: ADFR SOLUTION from run 163
USER: SCORE 14.854740 LL:  -4.190 LR: -12.691 RR:   0.000 FEB:  -6.725
USER: RMSD 11.729588
USER: SEED 162
USER: STATUS no improvement in best in 41 clusters for 5 generations
USER: GENES 22
USER: genes 0 Translation |==|  0.42388 0.63646 0.49602
USER: genes 1 Rotation |==|  0.96949 0.58712 0.40696 0.61545
USER: genes 2 Torsion [C]-CA--CB-[CG] |==|  0.28156
USER: genes 3 Torsion [CA]-CB--CG-[CD1] |==|  0.97478
USER: genes 4 Torsion [N]-CA--C-[N] |==|  0.29968
USER: genes 5 Torsion [N]-CA--C-[N] |==|  0.75514
USER: genes 6 Torsion [C]-N--CA-[C] |==|  0.76672
USER: genes 7 Torsion [N]-CA--C-[N] |==|  0.88717
USER: genes 8 Torsion [C]-N--CA-[CB] |==|  0.35913
USER: genes 9 Torsion [N]-CA--CB-[CG] |==|  0.88557
USER: genes 10 Torsion [CA]-CB--CG-[CD2] |==|  0.81680
USER: genes 11 Torsion [N]-CA--C-[O] |==|  0.02376
USER: genes 12 Torsion [N]-CA--CB-[CG] |==|  0.79996
USER: genes 13 Torsion [CA]-CB--CG-[CD2] |==|  0.59257
USER: genes 14 Torsion [CB]-CA--N-[C] |==|  0.15146
USER: genes 15 Torsion [N]-C--CA-[N] |==|  0.92450
USER: genes 16 Torsion [C]-CA--CB-[CG] |==|  0.35613
USER: genes 17 Torsion [CA]-CB--CG-[CD] |==|  0.23244
USER: genes 18 Torsion [CB]-CG--CD-[NE] |==|  0.62987
USER: genes 19 Torsion [CG]-CD--NE-[HE] |==|  0.02641
USER: genes 20 Torsion [C]-CA--N-[C] |==|  0.60689
USER: genes 21 Torsion [N]-C--CA-[CB] |==|  0.57485
ROOT
ATOM      1  CA  LEU G   4      38.617   8.560  23.340  1.00 72.45 LIG 0.18  C 
ENDROOT
BRANCH 1 2
ATOM      2  CB  LEU G   4      39.864   8.022  22.593  1.00 74.60 LIG 0.04  C 
BRANCH 2 3
ATOM      3  CG  LEU G   4      39.600   6.750  21.718  1.00 80.94 LIG-0.02  C 
ATOM      4  CD2 LEU G   4      39.848   6.963  20.214  1.00 76.26 LIG 0.01  C 
ATOM      5  CD1 LEU G   4      38.199   6.174  21.964  1.00 74.38 LIG 0.01  C 
ENDBRANCH 2 3
ENDBRANCH 1 2
BRANCH 1 6
ATOM      6  C   LEU G   4      38.574   8.168  24.845  1.00 69.99 LIG 0.24  C 
ATOM      7 O    LEU G   4      39.476   8.536  25.655  1.00 62.75 LIG-0.27  OA
ATOM      8  N   PRO G   5      37.475   7.474  25.239  1.00 68.53 LIG-0.34  N 
ATOM      9  CA  PRO G   5      37.432   7.012  26.613  1.00 66.41 LIG 0.18  C 
ATOM     10  CD  PRO G   5      36.190   7.224  24.543  1.00 67.94 LIG 0.13  C 
ATOM     11  CB  PRO G   5      36.027   6.365  26.726  1.00 68.06 LIG 0.04  C 
ATOM     12  CG  PRO G   5      35.209   7.056  25.679  1.00 67.97 LIG 0.02  C 
BRANCH 9 13
ATOM     13  C   PRO G   5      38.580   6.027  26.855  1.00 65.16 LIG 0.24  C 
ATOM     14  N   LEU G   6      38.343   4.748  26.591  1.00 58.40 LIG-0.35  N 
ATOM     15 H    LEU G   6      37.653   4.459  26.166  1.00 58.40 LIG 0.16  HD
ATOM     16 O    PRO G   5      39.673   6.433  27.288  1.00 57.12 LIG-0.27  OA
BRANCH 14 17
ATOM     17  CA  LEU G   6      39.275   3.708  27.022  1.00 60.31 LIG 0.18  C 
BRANCH 17 18
ATOM     18  C   LEU G   6      40.452   3.474  26.079  1.00 60.34 LIG 0.24  C 
ATOM     19 O    LEU G   6      41.558   3.317  26.567  1.00 72.64 LIG-0.27  OA
ATOM     20  N   LEU G   7      40.245   3.485  24.755  1.00 65.91 LIG-0.35  N 
ATOM     21 H    LEU G   7      39.501   3.713  24.390  1.00 65.91 LIG 0.16  HD
BRANCH 20 22
ATOM     22  CA  LEU G   7      41.319   3.090  23.776  1.00 66.14 LIG 0.16  C 
BRANCH 22 23
ATOM     23  CB  LEU G   7      40.780   2.047  22.779  1.00 64.61 LIG 0.04  C 
BRANCH 23 24
ATOM     24  CG  LEU G   7      39.871   0.918  23.304  1.00 68.76 LIG-0.02  C 
ATOM     25  CD2 LEU G   7      40.641  -0.027  24.253  1.00 64.31 LIG 0.01  C 
ATOM     26  CD1 LEU G   7      39.167   0.168  22.168  1.00 66.72 LIG 0.01  C 
ENDBRANCH 23 24
ENDBRANCH 22 23
BRANCH 22 27
ATOM     27  C   LEU G   7      41.951   4.270  23.027  1.00 59.22 LIG 0.22  C 
ATOM     28 O    LEU G   7      41.678   5.411  23.369  1.00 55.72 LIG-0.29  OA
ENDBRANCH 22 27
ENDBRANCH 20 22
ENDBRANCH 17 18
BRANCH 17 29
ATOM     29  CB  LEU G   6      38.523   2.391  27.338  1.00 54.67 LIG 0.04  C 
BRANCH 29 30
ATOM     30  CG  LEU G   6      37.735   2.579  28.654  1.00 53.09 LIG-0.02  C 
ATOM     31  CD1 LEU G   6      36.382   3.171  28.357  1.00 49.97 LIG 0.01  C 
ATOM     32  CD2 LEU G   6      37.643   1.293  29.479  1.00 51.63 LIG 0.01  C 
ENDBRANCH 29 30
ENDBRANCH 17 29
ENDBRANCH 14 17
ENDBRANCH 9 13
ENDBRANCH 1 6
BRANCH 1 33
ATOM     33  N   LEU G   4      38.399   9.998  23.118  1.00 70.21 LIG-0.35  N 
ATOM     34  C   ARG G   3      38.308  10.487  21.876  1.00 75.48 LIG 0.24  C 
ATOM     35 O    ARG G   3      38.478   9.753  20.863  1.00 65.52 LIG-0.27  OA
ATOM     36 H    LEU G   4      38.339  10.471  23.834  1.00 70.21 LIG 0.16  HD
BRANCH 34 37
ATOM     37  CA  ARG G   3      38.018  12.029  21.737  1.00 78.48 LIG 0.18  C 
BRANCH 37 38
ATOM     38  CB  ARG G   3      39.311  12.838  21.496  1.00 76.51 LIG 0.04  C 
BRANCH 38 39
ATOM     39  CG  ARG G   3      39.271  13.776  20.299  1.00 78.92 LIG 0.02  C 
BRANCH 39 40
ATOM     40  CD  ARG G   3      38.619  15.120  20.637  1.00 76.70 LIG 0.14  C 
BRANCH 40 41
ATOM     41  NE  ARG G   3      37.612  15.586  19.650  1.00 80.12 LIG-0.23  N 
ATOM     42 HE   ARG G   3      37.378  15.025  19.043  1.00 80.12 LIG 0.18  HD
ATOM     43  CZ  ARG G   3      37.026  16.801  19.608  1.00 82.69 LIG 0.67  C 
ATOM     44  NH1 ARG G   3      37.326  17.793  20.464  1.00 73.81 LIG-0.23  N 
ATOM     45  NH2 ARG G   3      36.125  17.046  18.663  1.00 84.58 LIG-0.23  N 
ATOM     46 1HH1 ARG G   3      37.919  17.669  21.075  1.00 73.81 LIG 0.17  HD
ATOM     47 2HH1 ARG G   3      36.927  18.552  20.400  1.00 73.81 LIG 0.17  HD
ATOM     48 2HH2 ARG G   3      35.742  17.815  18.622  1.00 84.58 LIG 0.17  HD
ATOM     49 1HH2 ARG G   3      35.926  16.435  18.091  1.00 84.58 LIG 0.17  HD
ENDBRANCH 40 41
ENDBRANCH 39 40
ENDBRANCH 38 39
ENDBRANCH 37 38
BRANCH 37 50
ATOM     50  N   ARG G   3      37.274  12.583  22.906  1.00 95.22 LIG-0.35  N 
ATOM     51  C   PRO G   2      36.308  13.511  22.795  1.00105.18 LIG 0.25  C 
ATOM     52 O    PRO G   2      36.021  14.047  21.718  1.00111.30 LIG-0.27  OA
ATOM     53 H    ARG G   3      37.522  12.251  23.661  1.00 95.22 LIG 0.16  HD
BRANCH 51 54
ATOM     54  CA  PRO G   2      35.537  13.920  24.090  1.00104.44 LIG 0.35  C 
ATOM     55  N   PRO G   2      36.123  15.059  24.808  1.00103.34 LIG 0.32  N 
ATOM     56  CD  PRO G   2      35.088  15.901  25.453  1.00102.42 LIG 0.32  C 
ATOM     57  CG  PRO G   2      33.782  15.396  24.869  1.00 98.38 LIG 0.04  C 
ATOM     58  CB  PRO G   2      34.115  14.421  23.765  1.00102.80 LIG 0.05  C 
ENDBRANCH 51 54
ENDBRANCH 37 50
ENDBRANCH 34 37
ENDBRANCH 1 33
TORSDOF 20
ENDMDL
MODEL 27
USER: ADFR SOLUTION from run 127
USER: SCORE 16.649214 LL:  -4.194 LR: -12.618 RR:   0.000 FEB:  -6.652
USER: RMSD 9.388233
USER: SEED 126
USER: STATUS no improvement in best in 10 clusters for 5 generations
USER: GENES 22
USER: genes 0 Translation |==|  0.37373 0.58151 0.55025
USER: genes 1 Rotation |==|  0.72512 0.33768 0.08620 0.54171
USER: genes 2 Torsion [C]-CA--CB-[CG] |==|  0.22108
USER: genes 3 Torsion [CA]-CB--CG-[CD1] |==|  0.81199
USER: genes 4 Torsion [N]-CA--C-[N] |==|  0.34134
USER: genes 5 Torsion [N]-CA--C-[N] |==|  0.27894
USER: genes 6 Torsion [C]-N--CA-[C] |==|  0.81960
USER: genes 7 Torsion [N]-CA--C-[N] |==|  0.37832
USER: genes 8 Torsion [C]-N--CA-[CB] |==|  0.31723
USER: genes 9 Torsion [N]-CA--CB-[CG] |==|  0.84820
USER: genes 10 Torsion [CA]-CB--CG-[CD2] |==|  0.60694
USER: genes 11 Torsion [N]-CA--C-[O] |==|  0.84893
USER: genes 12 Torsion [N]-CA--CB-[CG] |==|  0.53384
USER: genes 13 Torsion [CA]-CB--CG-[CD2] |==|  0.71547
USER: genes 14 Torsion [CB]-CA--N-[C] |==|  0.81908
USER: genes 15 Torsion [N]-C--CA-[N] |==|  0.35571
USER: genes 16 Torsion [C]-CA--CB-[CG] |==|  0.55986
USER: genes 17 Torsion [CA]-CB--CG-[CD] |==|  0.25351
USER: genes 18 Torsion [CB]-CG--CD-[NE] |==|  0.12510
USER: genes 19 Torsion [CG]-CD--NE-[HE] |==|  0.93701
USER: genes 20 Torsion [C]-CA--N-[C] |==|  0.86096
USER: genes 21 Torsion [N]-C--CA-[CB] |==|  0.88962
ROOT
ATOM      1  CA  LEU G   4      37.790   6.994  24.398  1.00 72.45 LIG 0.18  C 
ENDROOT
BRANCH 1 2
ATOM      2  CB  LEU G   4      36.504   6.165  24.148  1.00 74.60 LIG 0.04  C 
BRANCH 2 3
ATOM      3  CG  LEU G   4      35.595   5.976  25.410  1.00 80.94 LIG-0.02  C 
ATOM      4  CD2 LEU G   4      35.106   7.296  26.032  1.00 76.26 LIG 0.01  C 
ATOM      5  CD1 LEU G   4      36.270   5.091  26.466  1.00 74.38 LIG 0.01  C 
ENDBRANCH 2 3
ENDBRANCH 1 2
BRANCH 1 6
ATOM      6  C   LEU G   4      38.934   6.182  25.069  1.00 69.99 LIG 0.24  C 
ATOM      7 O    LEU G   4      39.635   5.354  24.415  1.00 62.75 LIG-0.27  OA
ATOM      8  N   PRO G   5      39.176   6.476  26.373  1.00 68.53 LIG-0.34  N 
ATOM      9  CA  PRO G   5      40.175   5.684  27.064  1.00 66.41 LIG 0.18  C 
ATOM     10  CD  PRO G   5      38.700   7.601  27.213  1.00 67.94 LIG 0.13  C 
ATOM     11  CB  PRO G   5      40.249   6.349  28.463  1.00 68.06 LIG 0.04  C 
ATOM     12  CG  PRO G   5      39.801   7.760  28.233  1.00 67.97 LIG 0.02  C 
BRANCH 9 13
ATOM     13  C   PRO G   5      39.724   4.220  27.106  1.00 65.16 LIG 0.24  C 
ATOM     14  N   LEU G   6      40.268   3.396  26.219  1.00 58.40 LIG-0.35  N 
ATOM     15 H    LEU G   6      40.947   3.590  25.728  1.00 58.40 LIG 0.16  HD
ATOM     16 O    PRO G   5      38.879   3.849  27.940  1.00 57.12 LIG-0.27  OA
BRANCH 14 17
ATOM     17  CA  LEU G   6      39.728   2.054  26.012  1.00 60.31 LIG 0.18  C 
BRANCH 17 18
ATOM     18  C   LEU G   6      39.850   1.123  27.215  1.00 60.34 LIG 0.24  C 
ATOM     19 O    LEU G   6      40.915   1.083  27.806  1.00 72.64 LIG-0.27  OA
ATOM     20  N   LEU G   7      38.806   0.357  27.561  1.00 65.91 LIG-0.35  N 
ATOM     21 H    LEU G   7      38.092   0.281  27.087  1.00 65.91 LIG 0.16  HD
BRANCH 20 22
ATOM     22  CA  LEU G   7      38.795  -0.451  28.831  1.00 66.14 LIG 0.16  C 
BRANCH 22 23
ATOM     23  CB  LEU G   7      37.715   0.078  29.794  1.00 64.61 LIG 0.04  C 
BRANCH 23 24
ATOM     24  CG  LEU G   7      37.733   1.570  30.182  1.00 68.76 LIG-0.02  C 
ATOM     25  CD2 LEU G   7      37.363   1.769  31.668  1.00 64.31 LIG 0.01  C 
ATOM     26  CD1 LEU G   7      36.873   2.421  29.240  1.00 66.72 LIG 0.01  C 
ENDBRANCH 23 24
ENDBRANCH 22 23
BRANCH 22 27
ATOM     27  C   LEU G   7      38.627  -1.960  28.615  1.00 59.22 LIG 0.22  C 
ATOM     28 O    LEU G   7      37.675  -2.368  27.967  1.00 55.72 LIG-0.29  OA
ENDBRANCH 22 27
ENDBRANCH 20 22
ENDBRANCH 17 18
BRANCH 17 29
ATOM     29  CB  LEU G   6      40.317   1.415  24.730  1.00 54.67 LIG 0.04  C 
BRANCH 29 30
ATOM     30  CG  LEU G   6      39.498   0.149  24.391  1.00 53.09 LIG-0.02  C 
ATOM     31  CD1 LEU G   6      39.111   0.169  22.935  1.00 49.97 LIG 0.01  C 
ATOM     32  CD2 LEU G   6      40.213  -1.145  24.789  1.00 51.63 LIG 0.01  C 
ENDBRANCH 29 30
ENDBRANCH 17 29
ENDBRANCH 14 17
ENDBRANCH 9 13
ENDBRANCH 1 6
BRANCH 1 33
ATOM     33  N   LEU G   4      38.234   7.727  23.202  1.00 70.21 LIG-0.35  N 
ATOM     34  C   ARG G   3      38.648   7.066  22.115  1.00 75.48 LIG 0.24  C 
ATOM     35 O    ARG G   3      38.742   5.807  22.104  1.00 65.52 LIG-0.27  OA
ATOM     36 H    LEU G   4      38.202   8.584  23.269  1.00 70.21 LIG 0.16  HD
BRANCH 34 37
ATOM     37  CA  ARG G   3      39.050   7.934  20.864  1.00 78.48 LIG 0.18  C 
BRANCH 37 38
ATOM     38  CB  ARG G   3      37.998   7.842  19.738  1.00 76.51 LIG 0.04  C 
BRANCH 38 39
ATOM     39  CG  ARG G   3      38.506   8.199  18.350  1.00 78.92 LIG 0.02  C 
BRANCH 39 40
ATOM     40  CD  ARG G   3      39.024   6.975  17.589  1.00 76.70 LIG 0.14  C 
BRANCH 40 41
ATOM     41  NE  ARG G   3      38.149   5.778  17.670  1.00 80.12 LIG-0.23  N 
ATOM     42 HE   ARG G   3      37.610   5.738  18.338  1.00 80.12 LIG 0.18  HD
ATOM     43  CZ  ARG G   3      38.111   4.745  16.801  1.00 82.69 LIG 0.67  C 
ATOM     44  NH1 ARG G   3      38.926   4.649  15.737  1.00 73.81 LIG-0.23  N 
ATOM     45  NH2 ARG G   3      37.248   3.759  17.016  1.00 84.58 LIG-0.23  N 
ATOM     46 1HH1 ARG G   3      39.508   5.264  15.584  1.00 73.81 LIG 0.17  HD
ATOM     47 2HH1 ARG G   3      38.867   3.972  15.209  1.00 73.81 LIG 0.17  HD
ATOM     48 2HH2 ARG G   3      37.211   3.093  16.473  1.00 84.58 LIG 0.17  HD
ATOM     49 1HH2 ARG G   3      36.726   3.786  17.699  1.00 84.58 LIG 0.17  HD
ENDBRANCH 40 41
ENDBRANCH 39 40
ENDBRANCH 38 39
ENDBRANCH 37 38
BRANCH 37 50
ATOM     50  N   ARG G   3      40.403   7.591  20.336  1.00 95.22 LIG-0.35  N 
ATOM     51  C   PRO G   2      41.500   7.508  21.110  1.00105.18 LIG 0.25  C 
ATOM     52 O    PRO G   2      41.489   7.800  22.311  1.00111.30 LIG-0.27  OA
ATOM     53 H    ARG G   3      40.415   7.450  19.487  1.00 95.22 LIG 0.16  HD
BRANCH 51 54
ATOM     54  CA  PRO G   2      42.828   7.033  20.442  1.00104.44 LIG 0.35  C 
ATOM     55  N   PRO G   2      43.793   6.433  21.373  1.00103.34 LIG 0.32  N 
ATOM     56  CD  PRO G   2      44.573   5.344  20.740  1.00102.42 LIG 0.32  C 
ATOM     57  CG  PRO G   2      43.854   5.086  19.429  1.00 98.38 LIG 0.04  C 
ATOM     58  CB  PRO G   2      42.576   5.890  19.436  1.00102.80 LIG 0.05  C 
ENDBRANCH 51 54
ENDBRANCH 37 50
ENDBRANCH 34 37
ENDBRANCH 1 33
TORSDOF 20
ENDMDL
MODEL 28
USER: ADFR SOLUTION from run 179
USER: SCORE 16.271746 LL:  -3.903 LR: -12.613 RR:   0.000 FEB:  -6.647
USER: RMSD 10.748519
USER: SEED 178
USER: STATUS no improvement in best in 9 clusters for 5 generations
USER: GENES 22
USER: genes 0 Translation |==|  0.41308 0.56711 0.57449
USER: genes 1 Rotation |==|  0.34440 0.63001 0.95666 0.51863
USER: genes 2 Torsion [C]-CA--CB-[CG] |==|  0.30608
USER: genes 3 Torsion [CA]-CB--CG-[CD1] |==|  0.39764
USER: genes 4 Torsion [N]-CA--C-[N] |==|  0.38247
USER: genes 5 Torsion [N]-CA--C-[N] |==|  0.36250
USER: genes 6 Torsion [C]-N--CA-[C] |==|  0.65958
USER: genes 7 Torsion [N]-CA--C-[N] |==|  0.36125
USER: genes 8 Torsion [C]-N--CA-[CB] |==|  0.32446
USER: genes 9 Torsion [N]-CA--CB-[CG] |==|  0.10581
USER: genes 10 Torsion [CA]-CB--CG-[CD2] |==|  0.70112
USER: genes 11 Torsion [N]-CA--C-[O] |==|  0.00584
USER: genes 12 Torsion [N]-CA--CB-[CG] |==|  0.46508
USER: genes 13 Torsion [CA]-CB--CG-[CD2] |==|  0.71938
USER: genes 14 Torsion [CB]-CA--N-[C] |==|  0.86045
USER: genes 15 Torsion [N]-C--CA-[N] |==|  0.00159
USER: genes 16 Torsion [C]-CA--CB-[CG] |==|  0.31098
USER: genes 17 Torsion [CA]-CB--CG-[CD] |==|  0.61153
USER: genes 18 Torsion [CB]-CG--CD-[NE] |==|  0.32412
USER: genes 19 Torsion [CG]-CD--NE-[HE] |==|  0.88895
USER: genes 20 Torsion [C]-CA--N-[C] |==|  0.75219
USER: genes 21 Torsion [N]-C--CA-[CB] |==|  0.79351
ROOT
ATOM      1  CA  LEU G   4      38.439   6.584  24.871  1.00 72.45 LIG 0.18  C 
ENDROOT
BRANCH 1 2
ATOM      2  CB  LEU G   4      36.954   6.144  24.800  1.00 74.60 LIG 0.04  C 
BRANCH 2 3
ATOM      3  CG  LEU G   4      36.101   6.526  26.056  1.00 80.94 LIG-0.02  C 
ATOM      4  CD2 LEU G   4      36.089   5.449  27.156  1.00 76.26 LIG 0.01  C 
ATOM      5  CD1 LEU G   4      34.672   6.928  25.670  1.00 74.38 LIG 0.01  C 
ENDBRANCH 2 3
ENDBRANCH 1 2
BRANCH 1 6
ATOM      6  C   LEU G   4      39.433   5.397  25.026  1.00 69.99 LIG 0.24  C 
ATOM      7 O    LEU G   4      39.949   4.825  24.020  1.00 62.75 LIG-0.27  OA
ATOM      8  N   PRO G   5      39.763   5.071  26.302  1.00 68.53 LIG-0.34  N 
ATOM      9  CA  PRO G   5      40.619   3.917  26.499  1.00 66.41 LIG 0.18  C 
ATOM     10  CD  PRO G   5      39.529   5.795  27.575  1.00 67.94 LIG 0.13  C 
ATOM     11  CB  PRO G   5      40.857   3.909  28.031  1.00 68.06 LIG 0.04  C 
ATOM     12  CG  PRO G   5      40.671   5.335  28.449  1.00 67.97 LIG 0.02  C 
BRANCH 9 13
ATOM     13  C   PRO G   5      39.907   2.662  25.983  1.00 65.16 LIG 0.24  C 
ATOM     14  N   LEU G   6      40.595   1.871  25.169  1.00 58.40 LIG-0.35  N 
ATOM     15 H    LEU G   6      41.441   1.935  25.028  1.00 58.40 LIG 0.16  HD
ATOM     16 O    PRO G   5      38.735   2.423  26.323  1.00 57.12 LIG-0.27  OA
BRANCH 14 17
ATOM     17  CA  LEU G   6      39.932   0.798  24.431  1.00 60.31 LIG 0.18  C 
BRANCH 17 18
ATOM     18  C   LEU G   6      40.497  -0.597  24.685  1.00 60.34 LIG 0.24  C 
ATOM     19 O    LEU G   6      41.699  -0.761  24.564  1.00 72.64 LIG-0.27  OA
ATOM     20  N   LEU G   7      39.662  -1.598  24.994  1.00 65.91 LIG-0.35  N 
ATOM     21 H    LEU G   7      38.805  -1.530  24.966  1.00 65.91 LIG 0.16  HD
BRANCH 20 22
ATOM     22  CA  LEU G   7      40.162  -2.950  25.426  1.00 66.14 LIG 0.16  C 
BRANCH 22 23
ATOM     23  CB  LEU G   7      39.716  -3.252  26.869  1.00 64.61 LIG 0.04  C 
BRANCH 23 24
ATOM     24  CG  LEU G   7      38.311  -2.807  27.321  1.00 68.76 LIG-0.02  C 
ATOM     25  CD2 LEU G   7      38.387  -1.607  28.291  1.00 64.31 LIG 0.01  C 
ATOM     26  CD1 LEU G   7      37.490  -3.971  27.886  1.00 66.72 LIG 0.01  C 
ENDBRANCH 23 24
ENDBRANCH 22 23
BRANCH 22 27
ATOM     27  C   LEU G   7      39.760  -4.097  24.491  1.00 59.22 LIG 0.22  C 
ATOM     28 O    LEU G   7      39.123  -3.847  23.478  1.00 55.72 LIG-0.29  OA
ENDBRANCH 22 27
ENDBRANCH 20 22
ENDBRANCH 17 18
BRANCH 17 29
ATOM     29  CB  LEU G   6      39.873   1.125  22.918  1.00 54.67 LIG 0.04  C 
BRANCH 29 30
ATOM     30  CG  LEU G   6      39.462  -0.154  22.154  1.00 53.09 LIG-0.02  C 
ATOM     31  CD1 LEU G   6      38.371   0.171  21.168  1.00 49.97 LIG 0.01  C 
ATOM     32  CD2 LEU G   6      40.651  -0.862  21.499  1.00 51.63 LIG 0.01  C 
ENDBRANCH 29 30
ENDBRANCH 17 29
ENDBRANCH 14 17
ENDBRANCH 9 13
ENDBRANCH 1 6
BRANCH 1 33
ATOM     33  N   LEU G   4      38.811   7.503  23.785  1.00 70.21 LIG-0.35  N 
ATOM     34  C   ARG G   3      38.524   7.204  22.512  1.00 75.48 LIG 0.24  C 
ATOM     35 O    ARG G   3      37.997   6.101  22.196  1.00 65.52 LIG-0.27  OA
ATOM     36 H    LEU G   4      39.213   8.220  24.038  1.00 70.21 LIG 0.16  HD
BRANCH 34 37
ATOM     37  CA  ARG G   3      38.910   8.275  21.424  1.00 78.48 LIG 0.18  C 
BRANCH 37 38
ATOM     38  CB  ARG G   3      39.796   7.671  20.312  1.00 76.51 LIG 0.04  C 
BRANCH 38 39
ATOM     39  CG  ARG G   3      39.139   7.575  18.945  1.00 78.92 LIG 0.02  C 
BRANCH 39 40
ATOM     40  CD  ARG G   3      39.485   6.268  18.225  1.00 76.70 LIG 0.14  C 
BRANCH 40 41
ATOM     41  NE  ARG G   3      38.325   5.379  17.960  1.00 80.12 LIG-0.23  N 
ATOM     42 HE   ARG G   3      37.736   5.318  18.584  1.00 80.12 LIG 0.18  HD
ATOM     43  CZ  ARG G   3      38.100   4.658  16.843  1.00 82.69 LIG 0.67  C 
ATOM     44  NH1 ARG G   3      38.955   4.619  15.807  1.00 73.81 LIG-0.23  N 
ATOM     45  NH2 ARG G   3      36.994   3.926  16.765  1.00 84.58 LIG-0.23  N 
ATOM     46 1HH1 ARG G   3      39.688   5.068  15.837  1.00 73.81 LIG 0.17  HD
ATOM     47 2HH1 ARG G   3      38.770   4.145  15.113  1.00 73.81 LIG 0.17  HD
ATOM     48 2HH2 ARG G   3      36.835   3.460  16.059  1.00 84.58 LIG 0.17  HD
ATOM     49 1HH2 ARG G   3      36.436   3.918  17.420  1.00 84.58 LIG 0.17  HD
ENDBRANCH 40 41
ENDBRANCH 39 40
ENDBRANCH 38 39
ENDBRANCH 37 38
BRANCH 37 50
ATOM     50  N   ARG G   3      39.567   9.480  22.010  1.00 95.22 LIG-0.35  N 
ATOM     51  C   PRO G   2      38.886  10.558  22.436  1.00105.18 LIG 0.25  C 
ATOM     52 O    PRO G   2      37.663  10.672  22.293  1.00111.30 LIG-0.27  OA
ATOM     53 H    ARG G   3      40.424   9.420  22.049  1.00 95.22 LIG 0.16  HD
BRANCH 51 54
ATOM     54  CA  PRO G   2      39.693  11.703  23.128  1.00104.44 LIG 0.35  C 
ATOM     55  N   PRO G   2      38.925  12.934  23.352  1.00103.34 LIG 0.32  N 
ATOM     56  CD  PRO G   2      39.330  13.622  24.600  1.00102.42 LIG 0.32  C 
ATOM     57  CG  PRO G   2      40.207  12.610  25.314  1.00 98.38 LIG 0.04  C 
ATOM     58  CB  PRO G   2      40.120  11.307  24.556  1.00102.80 LIG 0.05  C 
ENDBRANCH 51 54
ENDBRANCH 37 50
ENDBRANCH 34 37
ENDBRANCH 1 33
TORSDOF 20
ENDMDL
MODEL 29
USER: ADFR SOLUTION from run 165
USER: SCORE 15.560705 LL:  -3.989 LR: -12.567 RR:   0.000 FEB:  -6.601
USER: RMSD 11.818320
USER: SEED 164
USER: STATUS no improvement in best in 25 clusters for 5 generations
USER: GENES 22
USER: genes 0 Translation |==|  0.40527 0.60338 0.49634
USER: genes 1 Rotation |==|  0.96338 0.53899 0.33063 0.57118
USER: genes 2 Torsion [C]-CA--CB-[CG] |==|  0.40530
USER: genes 3 Torsion [CA]-CB--CG-[CD1] |==|  0.21761
USER: genes 4 Torsion [N]-CA--C-[N] |==|  0.35028
USER: genes 5 Torsion [N]-CA--C-[N] |==|  0.70030
USER: genes 6 Torsion [C]-N--CA-[C] |==|  0.67697
USER: genes 7 Torsion [N]-CA--C-[N] |==|  0.70210
USER: genes 8 Torsion [C]-N--CA-[CB] |==|  0.47330
USER: genes 9 Torsion [N]-CA--CB-[CG] |==|  0.94499
USER: genes 10 Torsion [CA]-CB--CG-[CD2] |==|  0.76719
USER: genes 11 Torsion [N]-CA--C-[O] |==|  0.48041
USER: genes 12 Torsion [N]-CA--CB-[CG] |==|  0.12619
USER: genes 13 Torsion [CA]-CB--CG-[CD2] |==|  0.73682
USER: genes 14 Torsion [CB]-CA--N-[C] |==|  0.83442
USER: genes 15 Torsion [N]-C--CA-[N] |==|  0.05009
USER: genes 16 Torsion [C]-CA--CB-[CG] |==|  0.79430
USER: genes 17 Torsion [CA]-CB--CG-[CD] |==|  0.20865
USER: genes 18 Torsion [CB]-CG--CD-[NE] |==|  0.69820
USER: genes 19 Torsion [CG]-CD--NE-[HE] |==|  0.08336
USER: genes 20 Torsion [C]-CA--N-[C] |==|  0.64139
USER: genes 21 Torsion [N]-C--CA-[CB] |==|  0.44840
ROOT
ATOM      1  CA  LEU G   4      38.310   7.617  23.347  1.00 72.45 LIG 0.18  C 
ENDROOT
BRANCH 1 2
ATOM      2  CB  LEU G   4      39.111   6.853  22.261  1.00 74.60 LIG 0.04  C 
BRANCH 2 3
ATOM      3  CG  LEU G   4      38.374   6.711  20.887  1.00 80.94 LIG-0.02  C 
ATOM      4  CD2 LEU G   4      38.838   5.506  20.050  1.00 76.26 LIG 0.01  C 
ATOM      5  CD1 LEU G   4      38.449   8.006  20.068  1.00 74.38 LIG 0.01  C 
ENDBRANCH 2 3
ENDBRANCH 1 2
BRANCH 1 6
ATOM      6  C   LEU G   4      38.553   7.089  24.789  1.00 69.99 LIG 0.24  C 
ATOM      7 O    LEU G   4      39.585   7.409  25.450  1.00 62.75 LIG-0.27  OA
ATOM      8  N   PRO G   5      37.556   6.329  25.312  1.00 68.53 LIG-0.34  N 
ATOM      9  CA  PRO G   5      37.775   5.743  26.620  1.00 66.41 LIG 0.18  C 
ATOM     10  CD  PRO G   5      36.167   6.104  24.843  1.00 67.94 LIG 0.13  C 
ATOM     11  CB  PRO G   5      36.425   5.046  26.927  1.00 68.06 LIG 0.04  C 
ATOM     12  CG  PRO G   5      35.417   5.804  26.119  1.00 67.97 LIG 0.02  C 
BRANCH 9 13
ATOM     13  C   PRO G   5      38.962   4.775  26.551  1.00 65.16 LIG 0.24  C 
ATOM     14  N   LEU G   6      38.686   3.478  26.618  1.00 58.40 LIG-0.35  N 
ATOM     15 H    LEU G   6      37.896   3.145  26.553  1.00 58.40 LIG 0.16  HD
ATOM     16 O    PRO G   5      40.121   5.213  26.446  1.00 57.12 LIG-0.27  OA
BRANCH 14 17
ATOM     17  CA  LEU G   6      39.749   2.496  26.814  1.00 60.31 LIG 0.18  C 
BRANCH 17 18
ATOM     18  C   LEU G   6      39.941   1.520  25.656  1.00 60.34 LIG 0.24  C 
ATOM     19 O    LEU G   6      40.419   1.946  24.619  1.00 72.64 LIG-0.27  OA
ATOM     20  N   LEU G   7      39.548   0.247  25.798  1.00 65.91 LIG-0.35  N 
ATOM     21 H    LEU G   7      39.100  -0.042  26.474  1.00 65.91 LIG 0.16  HD
BRANCH 20 22
ATOM     22  CA  LEU G   7      39.863  -0.805  24.769  1.00 66.14 LIG 0.16  C 
BRANCH 22 23
ATOM     23  CB  LEU G   7      39.503  -2.204  25.303  1.00 64.61 LIG 0.04  C 
BRANCH 23 24
ATOM     24  CG  LEU G   7      39.357  -2.403  26.825  1.00 68.76 LIG-0.02  C 
ATOM     25  CD2 LEU G   7      40.727  -2.649  27.493  1.00 64.31 LIG 0.01  C 
ATOM     26  CD1 LEU G   7      38.330  -3.487  27.169  1.00 66.72 LIG 0.01  C 
ENDBRANCH 23 24
ENDBRANCH 22 23
BRANCH 22 27
ATOM     27  C   LEU G   7      39.204  -0.567  23.405  1.00 59.22 LIG 0.22  C 
ATOM     28 O    LEU G   7      39.498  -1.290  22.464  1.00 55.72 LIG-0.29  OA
ENDBRANCH 22 27
ENDBRANCH 20 22
ENDBRANCH 17 18
BRANCH 17 29
ATOM     29  CB  LEU G   6      39.573   1.755  28.164  1.00 54.67 LIG 0.04  C 
BRANCH 29 30
ATOM     30  CG  LEU G   6      38.089   1.348  28.311  1.00 53.09 LIG-0.02  C 
ATOM     31  CD1 LEU G   6      37.997  -0.040  28.887  1.00 49.97 LIG 0.01  C 
ATOM     32  CD2 LEU G   6      37.270   2.368  29.107  1.00 51.63 LIG 0.01  C 
ENDBRANCH 29 30
ENDBRANCH 17 29
ENDBRANCH 14 17
ENDBRANCH 9 13
ENDBRANCH 1 6
BRANCH 1 33
ATOM     33  N   LEU G   4      38.460   9.077  23.240  1.00 70.21 LIG-0.35  N 
ATOM     34  C   ARG G   3      39.668   9.645  23.337  1.00 75.48 LIG 0.24  C 
ATOM     35 O    ARG G   3      40.699   8.964  23.596  1.00 65.52 LIG-0.27  OA
ATOM     36 H    LEU G   4      37.727   9.509  23.114  1.00 70.21 LIG 0.16  HD
BRANCH 34 37
ATOM     37  CA  ARG G   3      39.736  11.208  23.154  1.00 78.48 LIG 0.18  C 
BRANCH 37 38
ATOM     38  CB  ARG G   3      40.775  11.852  24.097  1.00 76.51 LIG 0.04  C 
BRANCH 38 39
ATOM     39  CG  ARG G   3      40.360  11.930  25.558  1.00 78.92 LIG 0.02  C 
BRANCH 39 40
ATOM     40  CD  ARG G   3      40.444  10.570  26.258  1.00 76.70 LIG 0.14  C 
BRANCH 40 41
ATOM     41  NE  ARG G   3      39.131   9.955  26.578  1.00 80.12 LIG-0.23  N 
ATOM     42 HE   ARG G   3      38.478  10.142  26.051  1.00 80.12 LIG 0.18  HD
ATOM     43  CZ  ARG G   3      38.856   9.132  27.612  1.00 82.69 LIG 0.67  C 
ATOM     44  NH1 ARG G   3      39.763   8.789  28.541  1.00 73.81 LIG-0.23  N 
ATOM     45  NH2 ARG G   3      37.623   8.653  27.739  1.00 84.58 LIG-0.23  N 
ATOM     46 1HH1 ARG G   3      40.565   9.098  28.495  1.00 73.81 LIG 0.17  HD
ATOM     47 2HH1 ARG G   3      39.544   8.260  29.183  1.00 73.81 LIG 0.17  HD
ATOM     48 2HH2 ARG G   3      37.431   8.127  28.392  1.00 84.58 LIG 0.17  HD
ATOM     49 1HH2 ARG G   3      37.017   8.870  27.168  1.00 84.58 LIG 0.17  HD
ENDBRANCH 40 41
ENDBRANCH 39 40
ENDBRANCH 38 39
ENDBRANCH 37 38
BRANCH 37 50
ATOM     50  N   ARG G   3      38.408  11.866  23.322  1.00 95.22 LIG-0.35  N 
ATOM     51  C   PRO G   2      37.893  12.731  22.430  1.00105.18 LIG 0.25  C 
ATOM     52 O    PRO G   2      38.524  13.118  21.439  1.00111.30 LIG-0.27  OA
ATOM     53 H    ARG G   3      38.001  11.640  24.046  1.00 95.22 LIG 0.16  HD
BRANCH 51 54
ATOM     54  CA  PRO G   2      36.446  13.260  22.680  1.00104.44 LIG 0.35  C 
ATOM     55  N   PRO G   2      36.187  13.685  24.062  1.00103.34 LIG 0.32  N 
ATOM     56  CD  PRO G   2      35.252  14.832  24.125  1.00102.42 LIG 0.32  C 
ATOM     57  CG  PRO G   2      35.147  15.305  22.686  1.00 98.38 LIG 0.04  C 
ATOM     58  CB  PRO G   2      36.170  14.547  21.875  1.00102.80 LIG 0.05  C 
ENDBRANCH 51 54
ENDBRANCH 37 50
ENDBRANCH 34 37
ENDBRANCH 1 33
TORSDOF 20
ENDMDL
MODEL 30
USER: ADFR SOLUTION from run 19
USER: SCORE 14.390117 LL:  -3.941 LR: -12.558 RR:   0.000 FEB:  -6.592
USER: RMSD 11.883743
USER: SEED 18
USER: STATUS searching
USER: GENES 22
USER: genes 0 Translation |==|  0.42903 0.62923 0.50747
USER: genes 1 Rotation |==|  0.97513 0.58724 0.42882 0.60758
USER: genes 2 Torsion [C]-CA--CB-[CG] |==|  0.23940
USER: genes 3 Torsion [CA]-CB--CG-[CD1] |==|  0.76813
USER: genes 4 Torsion [N]-CA--C-[N] |==|  0.28336
USER: genes 5 Torsion [N]-CA--C-[N] |==|  0.72983
USER: genes 6 Torsion [C]-N--CA-[C] |==|  0.72380
USER: genes 7 Torsion [N]-CA--C-[N] |==|  0.69063
USER: genes 8 Torsion [C]-N--CA-[CB] |==|  0.35714
USER: genes 9 Torsion [N]-CA--CB-[CG] |==|  0.25039
USER: genes 10 Torsion [CA]-CB--CG-[CD2] |==|  0.63068
USER: genes 11 Torsion [N]-CA--C-[O] |==|  0.85353
USER: genes 12 Torsion [N]-CA--CB-[CG] |==|  0.69619
USER: genes 13 Torsion [CA]-CB--CG-[CD2] |==|  0.92129
USER: genes 14 Torsion [CB]-CA--N-[C] |==|  0.16734
USER: genes 15 Torsion [N]-C--CA-[N] |==|  0.06038
USER: genes 16 Torsion [C]-CA--CB-[CG] |==|  0.50383
USER: genes 17 Torsion [CA]-CB--CG-[CD] |==|  0.82306
USER: genes 18 Torsion [CB]-CG--CD-[NE] |==|  0.39152
USER: genes 19 Torsion [CG]-CD--NE-[HE] |==|  0.80213
USER: genes 20 Torsion [C]-CA--N-[C] |==|  0.66667
USER: genes 21 Torsion [N]-C--CA-[CB] |==|  0.88318
ROOT
ATOM      1  CA  LEU G   4      38.702   8.354  23.564  1.00 72.45 LIG 0.18  C 
ENDROOT
BRANCH 1 2
ATOM      2  CB  LEU G   4      40.012   7.865  22.894  1.00 74.60 LIG 0.04  C 
BRANCH 2 3
ATOM      3  CG  LEU G   4      39.921   6.441  22.248  1.00 80.94 LIG-0.02  C 
ATOM      4  CD2 LEU G   4      38.625   6.196  21.453  1.00 76.26 LIG 0.01  C 
ATOM      5  CD1 LEU G   4      40.142   5.333  23.286  1.00 74.38 LIG 0.01  C 
ENDBRANCH 2 3
ENDBRANCH 1 2
BRANCH 1 6
ATOM      6  C   LEU G   4      38.543   7.886  25.039  1.00 69.99 LIG 0.24  C 
ATOM      7 O    LEU G   4      39.428   8.128  25.913  1.00 62.75 LIG-0.27  OA
ATOM      8  N   PRO G   5      37.369   7.272  25.336  1.00 68.53 LIG-0.34  N 
ATOM      9  CA  PRO G   5      37.211   6.742  26.677  1.00 66.41 LIG 0.18  C 
ATOM     10  CD  PRO G   5      36.107   7.176  24.563  1.00 67.94 LIG 0.13  C 
ATOM     11  CB  PRO G   5      35.752   6.217  26.681  1.00 68.06 LIG 0.04  C 
ATOM     12  CG  PRO G   5      35.055   7.034  25.637  1.00 67.97 LIG 0.02  C 
BRANCH 9 13
ATOM     13  C   PRO G   5      38.256   5.647  26.917  1.00 65.16 LIG 0.24  C 
ATOM     14  N   LEU G   6      37.864   4.391  26.743  1.00 58.40 LIG-0.35  N 
ATOM     15 H    LEU G   6      37.122   4.160  26.373  1.00 58.40 LIG 0.16  HD
ATOM     16 O    PRO G   5      39.411   5.949  27.267  1.00 57.12 LIG-0.27  OA
BRANCH 14 17
ATOM     17  CA  LEU G   6      38.699   3.277  27.186  1.00 60.31 LIG 0.18  C 
BRANCH 17 18
ATOM     18  C   LEU G   6      39.525   2.619  26.084  1.00 60.34 LIG 0.24  C 
ATOM     19 O    LEU G   6      40.416   3.270  25.567  1.00 72.64 LIG-0.27  OA
ATOM     20  N   LEU G   7      39.226   1.372  25.695  1.00 65.91 LIG-0.35  N 
ATOM     21 H    LEU G   7      38.529   0.943  25.959  1.00 65.91 LIG 0.16  HD
BRANCH 20 22
ATOM     22  CA  LEU G   7      40.101   0.602  24.743  1.00 66.14 LIG 0.16  C 
BRANCH 22 23
ATOM     23  CB  LEU G   7      40.434  -0.786  25.323  1.00 64.61 LIG 0.04  C 
BRANCH 23 24
ATOM     24  CG  LEU G   7      39.498  -1.968  25.005  1.00 68.76 LIG-0.02  C 
ATOM     25  CD2 LEU G   7      39.156  -2.772  26.278  1.00 64.31 LIG 0.01  C 
ATOM     26  CD1 LEU G   7      40.046  -2.852  23.879  1.00 66.72 LIG 0.01  C 
ENDBRANCH 23 24
ENDBRANCH 22 23
BRANCH 22 27
ATOM     27  C   LEU G   7      39.525   0.466  23.328  1.00 59.22 LIG 0.22  C 
ATOM     28 O    LEU G   7      38.392   0.030  23.183  1.00 55.72 LIG-0.29  OA
ENDBRANCH 22 27
ENDBRANCH 20 22
ENDBRANCH 17 18
BRANCH 17 29
ATOM     29  CB  LEU G   6      37.860   2.238  27.971  1.00 54.67 LIG 0.04  C 
BRANCH 29 30
ATOM     30  CG  LEU G   6      38.261   2.306  29.462  1.00 53.09 LIG-0.02  C 
ATOM     31  CD1 LEU G   6      37.979   0.984  30.126  1.00 49.97 LIG 0.01  C 
ATOM     32  CD2 LEU G   6      39.706   2.768  29.666  1.00 51.63 LIG 0.01  C 
ENDBRANCH 29 30
ENDBRANCH 17 29
ENDBRANCH 14 17
ENDBRANCH 9 13
ENDBRANCH 1 6
BRANCH 1 33
ATOM     33  N   LEU G   4      38.484   9.799  23.396  1.00 70.21 LIG-0.35  N 
ATOM     34  C   ARG G   3      38.373  10.332  22.174  1.00 75.48 LIG 0.24  C 
ATOM     35 O    ARG G   3      38.524   9.634  21.133  1.00 65.52 LIG-0.27  OA
ATOM     36 H    LEU G   4      38.438  10.247  24.129  1.00 70.21 LIG 0.16  HD
BRANCH 34 37
ATOM     37  CA  ARG G   3      38.085  11.879  22.095  1.00 78.48 LIG 0.18  C 
BRANCH 37 38
ATOM     38  CB  ARG G   3      38.754  12.526  20.863  1.00 76.51 LIG 0.04  C 
BRANCH 38 39
ATOM     39  CG  ARG G   3      38.550  14.028  20.733  1.00 78.92 LIG 0.02  C 
BRANCH 39 40
ATOM     40  CD  ARG G   3      37.078  14.398  20.532  1.00 76.70 LIG 0.14  C 
BRANCH 40 41
ATOM     41  NE  ARG G   3      36.642  15.622  21.252  1.00 80.12 LIG-0.23  N 
ATOM     42 HE   ARG G   3      36.576  15.563  22.107  1.00 80.12 LIG 0.18  HD
ATOM     43  CZ  ARG G   3      36.337  16.816  20.703  1.00 82.69 LIG 0.67  C 
ATOM     44  NH1 ARG G   3      36.350  17.041  19.378  1.00 73.81 LIG-0.23  N 
ATOM     45  NH2 ARG G   3      35.982  17.816  21.501  1.00 84.58 LIG-0.23  N 
ATOM     46 1HH1 ARG G   3      36.558  16.407  18.836  1.00 73.81 LIG 0.17  HD
ATOM     47 2HH1 ARG G   3      36.149  17.820  19.072  1.00 73.81 LIG 0.17  HD
ATOM     48 2HH2 ARG G   3      35.784  18.584  21.167  1.00 84.58 LIG 0.17  HD
ATOM     49 1HH2 ARG G   3      35.948  17.696  22.352  1.00 84.58 LIG 0.17  HD
ENDBRANCH 40 41
ENDBRANCH 39 40
ENDBRANCH 38 39
ENDBRANCH 37 38
BRANCH 37 50
ATOM     50  N   ARG G   3      38.482  12.603  23.338  1.00 95.22 LIG-0.35  N 
ATOM     51  C   PRO G   2      37.616  13.298  24.096  1.00105.18 LIG 0.25  C 
ATOM     52 O    PRO G   2      36.435  13.468  23.771  1.00111.30 LIG-0.27  OA
ATOM     53 H    ARG G   3      39.318  12.533  23.525  1.00 95.22 LIG 0.16  HD
BRANCH 51 54
ATOM     54  CA  PRO G   2      38.147  13.915  25.428  1.00104.44 LIG 0.35  C 
ATOM     55  N   PRO G   2      37.104  14.198  26.423  1.00103.34 LIG 0.32  N 
ATOM     56  CD  PRO G   2      37.587  13.994  27.808  1.00102.42 LIG 0.32  C 
ATOM     57  CG  PRO G   2      38.919  13.287  27.637  1.00 98.38 LIG 0.04  C 
ATOM     58  CB  PRO G   2      39.068  12.931  26.177  1.00102.80 LIG 0.05  C 
ENDBRANCH 51 54
ENDBRANCH 37 50
ENDBRANCH 34 37
ENDBRANCH 1 33
TORSDOF 20
ENDMDL
MODEL 31
USER: ADFR SOLUTION from run 14
USER: SCORE 15.028896 LL:  -3.791 LR: -12.557 RR:   0.000 FEB:  -6.591
USER: RMSD 10.738884
USER: SEED 95375
USER: STATUS no improvement in best in 15 clusters for 5 generations
USER: GENES 22
USER: genes 0 Translation |==|  0.37055 0.57752 0.57823
USER: genes 1 Rotation |==|  0.72548 0.37677 0.07163 0.52158
USER: genes 2 Torsion [C]-CA--CB-[CG] |==|  0.27021
USER: genes 3 Torsion [CA]-CB--CG-[CD1] |==|  0.88685
USER: genes 4 Torsion [N]-CA--C-[N] |==|  0.31751
USER: genes 5 Torsion [N]-CA--C-[N] |==|  0.58467
USER: genes 6 Torsion [C]-N--CA-[C] |==|  0.16473
USER: genes 7 Torsion [N]-CA--C-[N] |==|  0.61697
USER: genes 8 Torsion [C]-N--CA-[CB] |==|  0.32112
USER: genes 9 Torsion [N]-CA--CB-[CG] |==|  0.12302
USER: genes 10 Torsion [CA]-CB--CG-[CD2] |==|  0.79473
USER: genes 11 Torsion [N]-CA--C-[O] |==|  0.60646
USER: genes 12 Torsion [N]-CA--CB-[CG] |==|  0.91292
USER: genes 13 Torsion [CA]-CB--CG-[CD2] |==|  0.72086
USER: genes 14 Torsion [CB]-CA--N-[C] |==|  0.84743
USER: genes 15 Torsion [N]-C--CA-[N] |==|  0.07498
USER: genes 16 Torsion [C]-CA--CB-[CG] |==|  0.27931
USER: genes 17 Torsion [CA]-CB--CG-[CD] |==|  0.67675
USER: genes 18 Torsion [CB]-CG--CD-[NE] |==|  0.63132
USER: genes 19 Torsion [CG]-CD--NE-[HE] |==|  0.11742
USER: genes 20 Torsion [C]-CA--N-[C] |==|  0.73333
USER: genes 21 Torsion [N]-C--CA-[CB] |==|  0.80924
ROOT
ATOM      1  CA  LEU G   4      37.737   6.880  24.943  1.00 72.45 LIG 0.18  C 
ENDROOT
BRANCH 1 2
ATOM      2  CB  LEU G   4      36.447   6.111  24.561  1.00 74.60 LIG 0.04  C 
BRANCH 2 3
ATOM      3  CG  LEU G   4      35.355   6.071  25.683  1.00 80.94 LIG-0.02  C 
ATOM      4  CD2 LEU G   4      34.422   7.295  25.691  1.00 76.26 LIG 0.01  C 
ATOM      5  CD1 LEU G   4      35.975   5.848  27.069  1.00 74.38 LIG 0.01  C 
ENDBRANCH 2 3
ENDBRANCH 1 2
BRANCH 1 6
ATOM      6  C   LEU G   4      38.888   5.959  25.440  1.00 69.99 LIG 0.24  C 
ATOM      7 O    LEU G   4      39.474   5.148  24.663  1.00 62.75 LIG-0.27  OA
ATOM      8  N   PRO G   5      39.267   6.139  26.732  1.00 68.53 LIG-0.34  N 
ATOM      9  CA  PRO G   5      40.277   5.244  27.264  1.00 66.41 LIG 0.18  C 
ATOM     10  CD  PRO G   5      38.941   7.220  27.692  1.00 67.94 LIG 0.13  C 
ATOM     11  CB  PRO G   5      40.522   5.795  28.693  1.00 68.06 LIG 0.04  C 
ATOM     12  CG  PRO G   5      40.141   7.241  28.609  1.00 67.97 LIG 0.02  C 
BRANCH 9 13
ATOM     13  C   PRO G   5      39.745   3.807  27.245  1.00 65.16 LIG 0.24  C 
ATOM     14  N   LEU G   6      40.189   2.987  28.190  1.00 58.40 LIG-0.35  N 
ATOM     15 H    LEU G   6      40.633   3.239  28.882  1.00 58.40 LIG 0.16  HD
ATOM     16 O    PRO G   5      38.940   3.449  26.367  1.00 57.12 LIG-0.27  OA
BRANCH 14 17
ATOM     17  CA  LEU G   6      39.943   1.550  28.111  1.00 60.31 LIG 0.18  C 
BRANCH 17 18
ATOM     18  C   LEU G   6      40.507   0.871  26.866  1.00 60.34 LIG 0.24  C 
ATOM     19 O    LEU G   6      41.608   1.216  26.472  1.00 72.64 LIG-0.27  OA
ATOM     20  N   LEU G   7      39.769  -0.046  26.226  1.00 65.91 LIG-0.35  N 
ATOM     21 H    LEU G   7      38.947  -0.214  26.416  1.00 65.91 LIG 0.16  HD
BRANCH 20 22
ATOM     22  CA  LEU G   7      40.326  -0.876  25.101  1.00 66.14 LIG 0.16  C 
BRANCH 22 23
ATOM     23  CB  LEU G   7      40.357  -2.365  25.496  1.00 64.61 LIG 0.04  C 
BRANCH 23 24
ATOM     24  CG  LEU G   7      39.128  -2.972  26.201  1.00 68.76 LIG-0.02  C 
ATOM     25  CD2 LEU G   7      39.033  -2.502  27.669  1.00 64.31 LIG 0.01  C 
ATOM     26  CD1 LEU G   7      39.080  -4.498  26.065  1.00 66.72 LIG 0.01  C 
ENDBRANCH 23 24
ENDBRANCH 22 23
BRANCH 22 27
ATOM     27  C   LEU G   7      39.599  -0.692  23.764  1.00 59.22 LIG 0.22  C 
ATOM     28 O    LEU G   7      39.420  -1.662  23.042  1.00 55.72 LIG-0.29  OA
ENDBRANCH 22 27
ENDBRANCH 20 22
ENDBRANCH 17 18
BRANCH 17 29
ATOM     29  CB  LEU G   6      38.437   1.238  28.301  1.00 54.67 LIG 0.04  C 
BRANCH 29 30
ATOM     30  CG  LEU G   6      37.830   2.301  29.245  1.00 53.09 LIG-0.02  C 
ATOM     31  CD1 LEU G   6      36.537   2.814  28.667  1.00 49.97 LIG 0.01  C 
ATOM     32  CD2 LEU G   6      37.671   1.798  30.681  1.00 51.63 LIG 0.01  C 
ENDBRANCH 29 30
ENDBRANCH 17 29
ENDBRANCH 14 17
ENDBRANCH 9 13
ENDBRANCH 1 6
BRANCH 1 33
ATOM     33  N   LEU G   4      38.168   7.821  23.898  1.00 70.21 LIG-0.35  N 
ATOM     34  C   ARG G   3      38.373   7.397  22.645  1.00 75.48 LIG 0.24  C 
ATOM     35 O    ARG G   3      38.277   6.176  22.337  1.00 65.52 LIG-0.27  OA
ATOM     36 H    LEU G   4      38.271   8.633  24.160  1.00 70.21 LIG 0.16  HD
BRANCH 34 37
ATOM     37  CA  ARG G   3      38.778   8.486  21.582  1.00 78.48 LIG 0.18  C 
BRANCH 37 38
ATOM     38  CB  ARG G   3      39.630   7.888  20.442  1.00 76.51 LIG 0.04  C 
BRANCH 38 39
ATOM     39  CG  ARG G   3      38.874   7.599  19.154  1.00 78.92 LIG 0.02  C 
BRANCH 39 40
ATOM     40  CD  ARG G   3      38.852   6.105  18.817  1.00 76.70 LIG 0.14  C 
BRANCH 40 41
ATOM     41  NE  ARG G   3      39.195   5.782  17.408  1.00 80.12 LIG-0.23  N 
ATOM     42 HE   ARG G   3      39.853   6.215  17.063  1.00 80.12 LIG 0.18  HD
ATOM     43  CZ  ARG G   3      38.582   4.879  16.615  1.00 82.69 LIG 0.67  C 
ATOM     44  NH1 ARG G   3      37.514   4.163  17.004  1.00 73.81 LIG-0.23  N 
ATOM     45  NH2 ARG G   3      39.034   4.701  15.378  1.00 84.58 LIG-0.23  N 
ATOM     46 1HH1 ARG G   3      37.188   4.271  17.793  1.00 73.81 LIG 0.17  HD
ATOM     47 2HH1 ARG G   3      37.155   3.597  16.464  1.00 73.81 LIG 0.17  HD
ATOM     48 2HH2 ARG G   3      38.655   4.130  14.859  1.00 84.58 LIG 0.17  HD
ATOM     49 1HH2 ARG G   3      39.706   5.158  15.097  1.00 84.58 LIG 0.17  HD
ENDBRANCH 40 41
ENDBRANCH 39 40
ENDBRANCH 38 39
ENDBRANCH 37 38
BRANCH 37 50
ATOM     50  N   ARG G   3      39.479   9.654  22.192  1.00 95.22 LIG-0.35  N 
ATOM     51  C   PRO G   2      38.854  10.793  22.537  1.00105.18 LIG 0.25  C 
ATOM     52 O    PRO G   2      37.659  10.996  22.292  1.00111.30 LIG-0.27  OA
ATOM     53 H    ARG G   3      40.323   9.529  22.302  1.00 95.22 LIG 0.16  HD
BRANCH 51 54
ATOM     54  CA  PRO G   2      39.691  11.891  23.266  1.00104.44 LIG 0.35  C 
ATOM     55  N   PRO G   2      38.962  13.141  23.516  1.00103.34 LIG 0.32  N 
ATOM     56  CD  PRO G   2      39.377  13.782  24.786  1.00102.42 LIG 0.32  C 
ATOM     57  CG  PRO G   2      40.213  12.723  25.480  1.00 98.38 LIG 0.04  C 
ATOM     58  CB  PRO G   2      40.091  11.444  24.687  1.00102.80 LIG 0.05  C 
ENDBRANCH 51 54
ENDBRANCH 37 50
ENDBRANCH 34 37
ENDBRANCH 1 33
TORSDOF 20
ENDMDL
MODEL 32
USER: ADFR SOLUTION from run 167
USER: SCORE 16.869218 LL:  -5.001 LR: -12.558 RR:   0.000 FEB:  -6.592
USER: RMSD 8.935997
USER: SEED 166
USER: STATUS no improvement in best in 8 clusters for 5 generations
USER: GENES 22
USER: genes 0 Translation |==|  0.37744 0.58668 0.54633
USER: genes 1 Rotation |==|  0.71175 0.26020 0.13543 0.62143
USER: genes 2 Torsion [C]-CA--CB-[CG] |==|  0.20330
USER: genes 3 Torsion [CA]-CB--CG-[CD1] |==|  0.29070
USER: genes 4 Torsion [N]-CA--C-[N] |==|  0.42045
USER: genes 5 Torsion [N]-CA--C-[N] |==|  0.90029
USER: genes 6 Torsion [C]-N--CA-[C] |==|  0.81369
USER: genes 7 Torsion [N]-CA--C-[N] |==|  0.93946
USER: genes 8 Torsion [C]-N--CA-[CB] |==|  0.18253
USER: genes 9 Torsion [N]-CA--CB-[CG] |==|  0.46396
USER: genes 10 Torsion [CA]-CB--CG-[CD2] |==|  0.69510
USER: genes 11 Torsion [N]-CA--C-[O] |==|  0.08744
USER: genes 12 Torsion [N]-CA--CB-[CG] |==|  0.62196
USER: genes 13 Torsion [CA]-CB--CG-[CD2] |==|  0.08015
USER: genes 14 Torsion [CB]-CA--N-[C] |==|  0.80251
USER: genes 15 Torsion [N]-C--CA-[N] |==|  0.56879
USER: genes 16 Torsion [C]-CA--CB-[CG] |==|  0.25691
USER: genes 17 Torsion [CA]-CB--CG-[CD] |==|  0.00895
USER: genes 18 Torsion [CB]-CG--CD-[NE] |==|  0.75245
USER: genes 19 Torsion [CG]-CD--NE-[HE] |==|  0.39121
USER: genes 20 Torsion [C]-CA--N-[C] |==|  0.73515
USER: genes 21 Torsion [N]-C--CA-[CB] |==|  0.95580
ROOT
ATOM      1  CA  LEU G   4      37.851   7.141  24.321  1.00 72.45 LIG 0.18  C 
ENDROOT
BRANCH 1 2
ATOM      2  CB  LEU G   4      36.680   6.152  24.553  1.00 74.60 LIG 0.04  C 
BRANCH 2 3
ATOM      3  CG  LEU G   4      35.905   6.363  25.897  1.00 80.94 LIG-0.02  C 
ATOM      4  CD2 LEU G   4      35.749   5.082  26.737  1.00 76.26 LIG 0.01  C 
ATOM      5  CD1 LEU G   4      34.545   7.035  25.668  1.00 74.38 LIG 0.01  C 
ENDBRANCH 2 3
ENDBRANCH 1 2
BRANCH 1 6
ATOM      6  C   LEU G   4      39.092   6.859  25.216  1.00 69.99 LIG 0.24  C 
ATOM      7 O    LEU G   4      40.140   6.322  24.749  1.00 62.75 LIG-0.27  OA
ATOM      8  N   PRO G   5      39.001   7.292  26.500  1.00 68.53 LIG-0.34  N 
ATOM      9  CA  PRO G   5      40.098   6.975  27.393  1.00 66.41 LIG 0.18  C 
ATOM     10  CD  PRO G   5      38.021   8.198  27.145  1.00 67.94 LIG 0.13  C 
ATOM     11  CB  PRO G   5      39.703   7.694  28.710  1.00 68.06 LIG 0.04  C 
ATOM     12  CG  PRO G   5      38.813   8.816  28.273  1.00 67.97 LIG 0.02  C 
BRANCH 9 13
ATOM     13  C   PRO G   5      40.213   5.453  27.538  1.00 65.16 LIG 0.24  C 
ATOM     14  N   LEU G   6      39.080   4.761  27.541  1.00 58.40 LIG-0.35  N 
ATOM     15 H    LEU G   6      38.313   5.084  27.327  1.00 58.40 LIG 0.16  HD
ATOM     16 O    PRO G   5      41.330   4.919  27.654  1.00 57.12 LIG-0.27  OA
BRANCH 14 17
ATOM     17  CA  LEU G   6      39.066   3.351  27.922  1.00 60.31 LIG 0.18  C 
BRANCH 17 18
ATOM     18  C   LEU G   6      39.792   2.419  26.956  1.00 60.34 LIG 0.24  C 
ATOM     19 O    LEU G   6      40.204   1.354  27.384  1.00 72.64 LIG-0.27  OA
ATOM     20  N   LEU G   7      39.987   2.809  25.689  1.00 65.91 LIG-0.35  N 
ATOM     21 H    LEU G   7      39.813   3.601  25.401  1.00 65.91 LIG 0.16  HD
BRANCH 20 22
ATOM     22  CA  LEU G   7      40.537   1.877  24.643  1.00 66.14 LIG 0.16  C 
BRANCH 22 23
ATOM     23  CB  LEU G   7      39.544   0.731  24.369  1.00 64.61 LIG 0.04  C 
BRANCH 23 24
ATOM     24  CG  LEU G   7      39.763  -0.160  23.130  1.00 68.76 LIG-0.02  C 
ATOM     25  CD2 LEU G   7      38.683   0.096  22.056  1.00 64.31 LIG 0.01  C 
ATOM     26  CD1 LEU G   7      39.887  -1.643  23.500  1.00 66.72 LIG 0.01  C 
ENDBRANCH 23 24
ENDBRANCH 22 23
BRANCH 22 27
ATOM     27  C   LEU G   7      40.933   2.567  23.332  1.00 59.22 LIG 0.22  C 
ATOM     28 O    LEU G   7      41.342   3.718  23.362  1.00 55.72 LIG-0.29  OA
ENDBRANCH 22 27
ENDBRANCH 20 22
ENDBRANCH 17 18
BRANCH 17 29
ATOM     29  CB  LEU G   6      37.619   2.871  28.203  1.00 54.67 LIG 0.04  C 
BRANCH 29 30
ATOM     30  CG  LEU G   6      37.626   2.016  29.490  1.00 53.09 LIG-0.02  C 
ATOM     31  CD1 LEU G   6      37.681   0.555  29.130  1.00 49.97 LIG 0.01  C 
ATOM     32  CD2 LEU G   6      38.734   2.421  30.466  1.00 51.63 LIG 0.01  C 
ENDBRANCH 29 30
ENDBRANCH 17 29
ENDBRANCH 14 17
ENDBRANCH 9 13
ENDBRANCH 1 6
BRANCH 1 33
ATOM     33  N   LEU G   4      38.194   7.292  22.899  1.00 70.21 LIG-0.35  N 
ATOM     34  C   ARG G   3      38.794   6.297  22.236  1.00 75.48 LIG 0.24  C 
ATOM     35 O    ARG G   3      39.151   5.236  22.819  1.00 65.52 LIG-0.27  OA
ATOM     36 H    LEU G   4      37.979   8.049  22.552  1.00 70.21 LIG 0.16  HD
BRANCH 34 37
ATOM     37  CA  ARG G   3      39.071   6.529  20.703  1.00 78.48 LIG 0.18  C 
BRANCH 37 38
ATOM     38  CB  ARG G   3      38.014   7.452  20.060  1.00 76.51 LIG 0.04  C 
BRANCH 38 39
ATOM     39  CG  ARG G   3      38.372   8.930  20.044  1.00 78.92 LIG 0.02  C 
BRANCH 39 40
ATOM     40  CD  ARG G   3      39.770   9.194  20.610  1.00 76.70 LIG 0.14  C 
BRANCH 40 41
ATOM     41  NE  ARG G   3      39.813   9.422  22.077  1.00 80.12 LIG-0.23  N 
ATOM     42 HE   ARG G   3      40.476   9.076  22.502  1.00 80.12 LIG 0.18  HD
ATOM     43  CZ  ARG G   3      38.920  10.116  22.813  1.00 82.69 LIG 0.67  C 
ATOM     44  NH1 ARG G   3      37.812  10.671  22.293  1.00 73.81 LIG-0.23  N 
ATOM     45  NH2 ARG G   3      39.123  10.238  24.120  1.00 84.58 LIG-0.23  N 
ATOM     46 1HH1 ARG G   3      37.645  10.593  21.453  1.00 73.81 LIG 0.17  HD
ATOM     47 2HH1 ARG G   3      37.269  11.106  22.800  1.00 73.81 LIG 0.17  HD
ATOM     48 2HH2 ARG G   3      38.563  10.677  24.604  1.00 84.58 LIG 0.17  HD
ATOM     49 1HH2 ARG G   3      39.815   9.878  24.483  1.00 84.58 LIG 0.17  HD
ENDBRANCH 40 41
ENDBRANCH 39 40
ENDBRANCH 38 39
ENDBRANCH 37 38
BRANCH 37 50
ATOM     50  N   ARG G   3      39.175   5.252  19.937  1.00 95.22 LIG-0.35  N 
ATOM     51  C   PRO G   2      40.345   4.647  19.664  1.00105.18 LIG 0.25  C 
ATOM     52 O    PRO G   2      41.437   5.151  19.951  1.00111.30 LIG-0.27  OA
ATOM     53 H    ARG G   3      38.415   4.939  19.685  1.00 95.22 LIG 0.16  HD
BRANCH 51 54
ATOM     54  CA  PRO G   2      40.298   3.260  18.949  1.00104.44 LIG 0.35  C 
ATOM     55  N   PRO G   2      41.139   2.230  19.571  1.00103.34 LIG 0.32  N 
ATOM     56  CD  PRO G   2      40.536   0.880  19.463  1.00102.42 LIG 0.32  C 
ATOM     57  CG  PRO G   2      39.120   1.144  18.985  1.00 98.38 LIG 0.04  C 
ATOM     58  CB  PRO G   2      38.890   2.635  19.023  1.00102.80 LIG 0.05  C 
ENDBRANCH 51 54
ENDBRANCH 37 50
ENDBRANCH 34 37
ENDBRANCH 1 33
TORSDOF 20
ENDMDL
MODEL 33
USER: ADFR SOLUTION from run 9
USER: SCORE 15.863091 LL:  -4.342 LR: -12.541 RR:   0.000 FEB:  -6.575
USER: RMSD 8.629045
USER: SEED 504228
USER: STATUS searching
USER: GENES 22
USER: genes 0 Translation |==|  0.39113 0.59487 0.55820
USER: genes 1 Rotation |==|  0.71301 0.25420 0.16839 0.68505
USER: genes 2 Torsion [C]-CA--CB-[CG] |==|  0.23722
USER: genes 3 Torsion [CA]-CB--CG-[CD1] |==|  0.26155
USER: genes 4 Torsion [N]-CA--C-[N] |==|  0.43797
USER: genes 5 Torsion [N]-CA--C-[N] |==|  0.90483
USER: genes 6 Torsion [C]-N--CA-[C] |==|  0.56174
USER: genes 7 Torsion [N]-CA--C-[N] |==|  0.41691
USER: genes 8 Torsion [C]-N--CA-[CB] |==|  0.34949
USER: genes 9 Torsion [N]-CA--CB-[CG] |==|  0.75721
USER: genes 10 Torsion [CA]-CB--CG-[CD2] |==|  0.61626
USER: genes 11 Torsion [N]-CA--C-[O] |==|  0.27008
USER: genes 12 Torsion [N]-CA--CB-[CG] |==|  0.53718
USER: genes 13 Torsion [CA]-CB--CG-[CD2] |==|  0.69348
USER: genes 14 Torsion [CB]-CA--N-[C] |==|  0.81559
USER: genes 15 Torsion [N]-C--CA-[N] |==|  0.58868
USER: genes 16 Torsion [C]-CA--CB-[CG] |==|  0.40981
USER: genes 17 Torsion [CA]-CB--CG-[CD] |==|  0.17731
USER: genes 18 Torsion [CB]-CG--CD-[NE] |==|  0.12388
USER: genes 19 Torsion [CG]-CD--NE-[HE] |==|  0.95939
USER: genes 20 Torsion [C]-CA--N-[C] |==|  0.72877
USER: genes 21 Torsion [N]-C--CA-[CB] |==|  0.08160
ROOT
ATOM      1  CA  LEU G   4      38.077   7.375  24.553  1.00 72.45 LIG 0.18  C 
ENDROOT
BRANCH 1 2
ATOM      2  CB  LEU G   4      37.153   6.232  25.046  1.00 74.60 LIG 0.04  C 
BRANCH 2 3
ATOM      3  CG  LEU G   4      36.179   6.635  26.204  1.00 80.94 LIG-0.02  C 
ATOM      4  CD2 LEU G   4      36.029   5.561  27.297  1.00 76.26 LIG 0.01  C 
ATOM      5  CD1 LEU G   4      34.808   7.065  25.668  1.00 74.38 LIG 0.01  C 
ENDBRANCH 2 3
ENDBRANCH 1 2
BRANCH 1 6
ATOM      6  C   LEU G   4      39.381   7.526  25.387  1.00 69.99 LIG 0.24  C 
ATOM      7 O    LEU G   4      40.517   7.243  24.903  1.00 62.75 LIG-0.27  OA
ATOM      8  N   PRO G   5      39.225   8.048  26.631  1.00 68.53 LIG-0.34  N 
ATOM      9  CA  PRO G   5      40.401   8.127  27.476  1.00 66.41 LIG 0.18  C 
ATOM     10  CD  PRO G   5      38.062   8.722  27.256  1.00 67.94 LIG 0.13  C 
ATOM     11  CB  PRO G   5      39.877   8.846  28.747  1.00 68.06 LIG 0.04  C 
ATOM     12  CG  PRO G   5      38.699   9.640  28.271  1.00 67.97 LIG 0.02  C 
BRANCH 9 13
ATOM     13  C   PRO G   5      40.929   6.714  27.747  1.00 65.16 LIG 0.24  C 
ATOM     14  N   LEU G   6      40.030   5.744  27.850  1.00 58.40 LIG-0.35  N 
ATOM     15 H    LEU G   6      39.201   5.825  27.638  1.00 58.40 LIG 0.16  HD
ATOM     16 O    PRO G   5      42.151   6.516  27.867  1.00 57.12 LIG-0.27  OA
BRANCH 14 17
ATOM     17  CA  LEU G   6      40.406   4.424  28.352  1.00 60.31 LIG 0.18  C 
BRANCH 17 18
ATOM     18  C   LEU G   6      39.471   3.292  27.937  1.00 60.34 LIG 0.24  C 
ATOM     19 O    LEU G   6      38.290   3.548  27.783  1.00 72.64 LIG-0.27  OA
ATOM     20  N   LEU G   7      39.964   2.054  27.791  1.00 65.91 LIG-0.35  N 
ATOM     21 H    LEU G   7      40.764   1.829  28.011  1.00 65.91 LIG 0.16  HD
BRANCH 20 22
ATOM     22  CA  LEU G   7      39.142   0.930  27.218  1.00 66.14 LIG 0.16  C 
BRANCH 22 23
ATOM     23  CB  LEU G   7      39.876   0.279  26.031  1.00 64.61 LIG 0.04  C 
BRANCH 23 24
ATOM     24  CG  LEU G   7      39.680   0.871  24.621  1.00 68.76 LIG-0.02  C 
ATOM     25  CD2 LEU G   7      39.518  -0.242  23.562  1.00 64.31 LIG 0.01  C 
ATOM     26  CD1 LEU G   7      40.780   1.875  24.258  1.00 66.72 LIG 0.01  C 
ENDBRANCH 23 24
ENDBRANCH 22 23
BRANCH 22 27
ATOM     27  C   LEU G   7      38.731  -0.134  28.242  1.00 59.22 LIG 0.22  C 
ATOM     28 O    LEU G   7      37.622  -0.076  28.753  1.00 55.72 LIG-0.29  OA
ENDBRANCH 22 27
ENDBRANCH 20 22
ENDBRANCH 17 18
BRANCH 17 29
ATOM     29  CB  LEU G   6      40.619   4.458  29.886  1.00 54.67 LIG 0.04  C 
BRANCH 29 30
ATOM     30  CG  LEU G   6      41.332   3.155  30.313  1.00 53.09 LIG-0.02  C 
ATOM     31  CD1 LEU G   6      42.609   3.489  31.039  1.00 49.97 LIG 0.01  C 
ATOM     32  CD2 LEU G   6      40.427   2.220  31.119  1.00 51.63 LIG 0.01  C 
ENDBRANCH 29 30
ENDBRANCH 17 29
ENDBRANCH 14 17
ENDBRANCH 9 13
ENDBRANCH 1 6
BRANCH 1 33
ATOM     33  N   LEU G   4      38.327   7.317  23.105  1.00 70.21 LIG-0.35  N 
ATOM     34  C   ARG G   3      39.024   6.304  22.576  1.00 75.48 LIG 0.24  C 
ATOM     35 O    ARG G   3      39.547   5.413  23.301  1.00 65.52 LIG-0.27  OA
ATOM     36 H    LEU G   4      37.997   7.969  22.653  1.00 70.21 LIG 0.16  HD
BRANCH 34 37
ATOM     37  CA  ARG G   3      39.193   6.297  21.010  1.00 78.48 LIG 0.18  C 
BRANCH 37 38
ATOM     38  CB  ARG G   3      38.084   7.110  20.308  1.00 76.51 LIG 0.04  C 
BRANCH 38 39
ATOM     39  CG  ARG G   3      38.508   7.807  19.025  1.00 78.92 LIG 0.02  C 
BRANCH 39 40
ATOM     40  CD  ARG G   3      38.917   6.814  17.933  1.00 76.70 LIG 0.14  C 
BRANCH 40 41
ATOM     41  NE  ARG G   3      38.003   5.654  17.775  1.00 80.12 LIG-0.23  N 
ATOM     42 HE   ARG G   3      37.441   5.516  18.411  1.00 80.12 LIG 0.18  HD
ATOM     43  CZ  ARG G   3      37.963   4.793  16.736  1.00 82.69 LIG 0.67  C 
ATOM     44  NH1 ARG G   3      38.810   4.857  15.695  1.00 73.81 LIG-0.23  N 
ATOM     45  NH2 ARG G   3      37.063   3.816  16.748  1.00 84.58 LIG-0.23  N 
ATOM     46 1HH1 ARG G   3      39.415   5.468  15.670  1.00 73.81 LIG 0.17  HD
ATOM     47 2HH1 ARG G   3      38.748   4.287  15.054  1.00 73.81 LIG 0.17  HD
ATOM     48 2HH2 ARG G   3      37.024   3.259  16.094  1.00 84.58 LIG 0.17  HD
ATOM     49 1HH2 ARG G   3      36.519   3.741  17.410  1.00 84.58 LIG 0.17  HD
ENDBRANCH 40 41
ENDBRANCH 39 40
ENDBRANCH 38 39
ENDBRANCH 37 38
BRANCH 37 50
ATOM     50  N   ARG G   3      39.260   4.918  20.443  1.00 95.22 LIG-0.35  N 
ATOM     51  C   PRO G   2      40.414   4.297  20.145  1.00105.18 LIG 0.25  C 
ATOM     52 O    PRO G   2      41.513   4.857  20.234  1.00111.30 LIG-0.27  OA
ATOM     53 H    ARG G   3      38.488   4.557  20.325  1.00 95.22 LIG 0.16  HD
BRANCH 51 54
ATOM     54  CA  PRO G   2      40.340   2.815  19.661  1.00104.44 LIG 0.35  C 
ATOM     55  N   PRO G   2      40.329   1.824  20.745  1.00103.34 LIG 0.32  N 
ATOM     56  CD  PRO G   2      39.501   0.642  20.409  1.00102.42 LIG 0.32  C 
ATOM     57  CG  PRO G   2      38.748   1.059  19.159  1.00 98.38 LIG 0.04  C 
ATOM     58  CB  PRO G   2      39.013   2.527  18.929  1.00102.80 LIG 0.05  C 
ENDBRANCH 51 54
ENDBRANCH 37 50
ENDBRANCH 34 37
ENDBRANCH 1 33
TORSDOF 20
ENDMDL
MODEL 34
USER: ADFR SOLUTION from run 137
USER: SCORE 16.226815 LL:  -4.747 LR: -12.502 RR:   0.000 FEB:  -6.536
USER: RMSD 6.604066
USER: SEED 136
USER: STATUS no improvement in best in 8 clusters for 5 generations
USER: GENES 22
USER: genes 0 Translation |==|  0.55652 0.35210 0.58233
USER: genes 1 Rotation |==|  0.49450 0.86908 0.35879 0.80628
USER: genes 2 Torsion [C]-CA--CB-[CG] |==|  0.84071
USER: genes 3 Torsion [CA]-CB--CG-[CD1] |==|  0.45600
USER: genes 4 Torsion [N]-CA--C-[N] |==|  0.42720
USER: genes 5 Torsion [N]-CA--C-[N] |==|  0.44211
USER: genes 6 Torsion [C]-N--CA-[C] |==|  0.81616
USER: genes 7 Torsion [N]-CA--C-[N] |==|  0.45232
USER: genes 8 Torsion [C]-N--CA-[CB] |==|  0.29525
USER: genes 9 Torsion [N]-CA--CB-[CG] |==|  0.90414
USER: genes 10 Torsion [CA]-CB--CG-[CD2] |==|  0.82091
USER: genes 11 Torsion [N]-CA--C-[O] |==|  0.61094
USER: genes 12 Torsion [N]-CA--CB-[CG] |==|  0.73884
USER: genes 13 Torsion [CA]-CB--CG-[CD2] |==|  0.54749
USER: genes 14 Torsion [CB]-CA--N-[C] |==|  0.21132
USER: genes 15 Torsion [N]-C--CA-[N] |==|  0.39972
USER: genes 16 Torsion [C]-CA--CB-[CG] |==|  0.27469
USER: genes 17 Torsion [CA]-CB--CG-[CD] |==|  0.69740
USER: genes 18 Torsion [CB]-CG--CD-[NE] |==|  0.30077
USER: genes 19 Torsion [CG]-CD--NE-[HE] |==|  0.85765
USER: genes 20 Torsion [C]-CA--N-[C] |==|  0.83606
USER: genes 21 Torsion [N]-C--CA-[CB] |==|  0.60305
ROOT
ATOM      1  CA  LEU G   4      40.806   0.456  25.023  1.00 72.45 LIG 0.18  C 
ENDROOT
BRANCH 1 2
ATOM      2  CB  LEU G   4      41.214   0.350  23.532  1.00 74.60 LIG 0.04  C 
BRANCH 2 3
ATOM      3  CG  LEU G   4      40.097   0.771  22.519  1.00 80.94 LIG-0.02  C 
ATOM      4  CD2 LEU G   4      38.905  -0.202  22.462  1.00 76.26 LIG 0.01  C 
ATOM      5  CD1 LEU G   4      40.667   1.018  21.116  1.00 74.38 LIG 0.01  C 
ENDBRANCH 2 3
ENDBRANCH 1 2
BRANCH 1 6
ATOM      6  C   LEU G   4      40.344   1.881  25.444  1.00 69.99 LIG 0.24  C 
ATOM      7 O    LEU G   4      39.126   2.146  25.673  1.00 62.75 LIG-0.27  OA
ATOM      8  N   PRO G   5      41.337   2.791  25.620  1.00 68.53 LIG-0.34  N 
ATOM      9  CA  PRO G   5      40.949   4.154  25.927  1.00 66.41 LIG 0.18  C 
ATOM     10  CD  PRO G   5      42.806   2.611  25.712  1.00 67.94 LIG 0.13  C 
ATOM     11  CB  PRO G   5      42.308   4.867  26.151  1.00 68.06 LIG 0.04  C 
ATOM     12  CG  PRO G   5      43.242   3.775  26.570  1.00 67.97 LIG 0.02  C 
BRANCH 9 13
ATOM     13  C   PRO G   5      40.141   4.729  24.760  1.00 65.16 LIG 0.24  C 
ATOM     14  N   LEU G   6      39.360   5.770  25.022  1.00 58.40 LIG-0.35  N 
ATOM     15 H    LEU G   6      39.384   6.224  25.752  1.00 58.40 LIG 0.16  HD
ATOM     16 O    PRO G   5      40.226   4.219  23.628  1.00 57.12 LIG-0.27  OA
BRANCH 14 17
ATOM     17  CA  LEU G   6      38.370   6.228  24.050  1.00 60.31 LIG 0.18  C 
BRANCH 17 18
ATOM     18  C   LEU G   6      38.955   6.797  22.761  1.00 60.34 LIG 0.24  C 
ATOM     19 O    LEU G   6      40.120   7.155  22.767  1.00 72.64 LIG-0.27  OA
ATOM     20  N   LEU G   7      38.170   6.921  21.682  1.00 65.91 LIG-0.35  N 
ATOM     21 H    LEU G   7      37.320   6.789  21.692  1.00 65.91 LIG 0.16  HD
BRANCH 20 22
ATOM     22  CA  LEU G   7      38.720   7.309  20.335  1.00 66.14 LIG 0.16  C 
BRANCH 22 23
ATOM     23  CB  LEU G   7      38.748   6.089  19.394  1.00 64.61 LIG 0.04  C 
BRANCH 23 24
ATOM     24  CG  LEU G   7      39.042   4.699  19.991  1.00 68.76 LIG-0.02  C 
ATOM     25  CD2 LEU G   7      40.471   4.628  20.572  1.00 64.31 LIG 0.01  C 
ATOM     26  CD1 LEU G   7      38.755   3.570  18.994  1.00 66.72 LIG 0.01  C 
ENDBRANCH 23 24
ENDBRANCH 22 23
BRANCH 22 27
ATOM     27  C   LEU G   7      37.987   8.480  19.670  1.00 59.22 LIG 0.22  C 
ATOM     28 O    LEU G   7      37.775   8.448  18.467  1.00 55.72 LIG-0.29  OA
ENDBRANCH 22 27
ENDBRANCH 20 22
ENDBRANCH 17 18
BRANCH 17 29
ATOM     29  CB  LEU G   6      37.366   7.209  24.706  1.00 54.67 LIG 0.04  C 
BRANCH 29 30
ATOM     30  CG  LEU G   6      36.132   6.407  25.179  1.00 53.09 LIG-0.02  C 
ATOM     31  CD1 LEU G   6      36.504   5.553  26.362  1.00 49.97 LIG 0.01  C 
ATOM     32  CD2 LEU G   6      34.917   7.296  25.456  1.00 51.63 LIG 0.01  C 
ENDBRANCH 29 30
ENDBRANCH 17 29
ENDBRANCH 14 17
ENDBRANCH 9 13
ENDBRANCH 1 6
BRANCH 1 33
ATOM     33  N   LEU G   4      39.859  -0.595  25.428  1.00 70.21 LIG-0.35  N 
ATOM     34  C   ARG G   3      40.282  -1.846  25.639  1.00 75.48 LIG 0.24  C 
ATOM     35 O    ARG G   3      41.481  -2.182  25.428  1.00 65.52 LIG-0.27  OA
ATOM     36 H    LEU G   4      39.043  -0.335  25.512  1.00 70.21 LIG 0.16  HD
BRANCH 34 37
ATOM     37  CA  ARG G   3      39.206  -2.889  26.124  1.00 78.48 LIG 0.18  C 
BRANCH 37 38
ATOM     38  CB  ARG G   3      39.130  -2.962  27.665  1.00 76.51 LIG 0.04  C 
BRANCH 38 39
ATOM     39  CG  ARG G   3      37.998  -2.164  28.293  1.00 78.92 LIG 0.02  C 
BRANCH 39 40
ATOM     40  CD  ARG G   3      38.505  -0.928  29.041  1.00 76.70 LIG 0.14  C 
BRANCH 40 41
ATOM     41  NE  ARG G   3      38.207   0.366  28.376  1.00 80.12 LIG-0.23  N 
ATOM     42 HE   ARG G   3      38.428   0.435  27.549  1.00 80.12 LIG 0.18  HD
ATOM     43  CZ  ARG G   3      37.623   1.446  28.937  1.00 82.69 LIG 0.67  C 
ATOM     44  NH1 ARG G   3      37.266   1.500  30.232  1.00 73.81 LIG-0.23  N 
ATOM     45  NH2 ARG G   3      37.412   2.522  28.187  1.00 84.58 LIG-0.23  N 
ATOM     46 1HH1 ARG G   3      37.407   0.825  30.746  1.00 73.81 LIG 0.17  HD
ATOM     47 2HH1 ARG G   3      36.896   2.210  30.547  1.00 73.81 LIG 0.17  HD
ATOM     48 2HH2 ARG G   3      37.041   3.219  28.529  1.00 84.58 LIG 0.17  HD
ATOM     49 1HH2 ARG G   3      37.646   2.521  27.360  1.00 84.58 LIG 0.17  HD
ENDBRANCH 40 41
ENDBRANCH 39 40
ENDBRANCH 38 39
ENDBRANCH 37 38
BRANCH 37 50
ATOM     50  N   ARG G   3      39.425  -4.251  25.554  1.00 95.22 LIG-0.35  N 
ATOM     51  C   PRO G   2      39.439  -4.505  24.233  1.00105.18 LIG 0.25  C 
ATOM     52 O    PRO G   2      39.181  -3.641  23.387  1.00111.30 LIG-0.27  OA
ATOM     53 H    ARG G   3      39.542  -4.859  26.150  1.00 95.22 LIG 0.16  HD
BRANCH 51 54
ATOM     54  CA  PRO G   2      39.788  -5.956  23.775  1.00104.44 LIG 0.35  C 
ATOM     55  N   PRO G   2      38.624  -6.767  23.394  1.00103.34 LIG 0.32  N 
ATOM     56  CD  PRO G   2      38.937  -7.705  22.291  1.00102.42 LIG 0.32  C 
ATOM     57  CG  PRO G   2      40.296  -7.250  21.791  1.00 98.38 LIG 0.04  C 
ATOM     58  CB  PRO G   2      40.632  -5.951  22.483  1.00102.80 LIG 0.05  C 
ENDBRANCH 51 54
ENDBRANCH 37 50
ENDBRANCH 34 37
ENDBRANCH 1 33
TORSDOF 20
ENDMDL
MODEL 35
USER: ADFR SOLUTION from run 47
USER: SCORE 16.142409 LL:  -4.489 LR: -12.483 RR:   0.000 FEB:  -6.517
USER: RMSD 9.907061
USER: SEED 46
USER: STATUS no improvement in best in 8 clusters for 5 generations
USER: GENES 22
USER: genes 0 Translation |==|  0.38599 0.57799 0.54775
USER: genes 1 Rotation |==|  0.71704 0.34962 0.08810 0.60303
USER: genes 2 Torsion [C]-CA--CB-[CG] |==|  0.29261
USER: genes 3 Torsion [CA]-CB--CG-[CD1] |==|  0.72997
USER: genes 4 Torsion [N]-CA--C-[N] |==|  0.40044
USER: genes 5 Torsion [N]-CA--C-[N] |==|  0.87663
USER: genes 6 Torsion [C]-N--CA-[C] |==|  0.77222
USER: genes 7 Torsion [N]-CA--C-[N] |==|  0.54338
USER: genes 8 Torsion [C]-N--CA-[CB] |==|  0.08590
USER: genes 9 Torsion [N]-CA--CB-[CG] |==|  0.63053
USER: genes 10 Torsion [CA]-CB--CG-[CD2] |==|  0.37974
USER: genes 11 Torsion [N]-CA--C-[O] |==|  0.47425
USER: genes 12 Torsion [N]-CA--CB-[CG] |==|  0.93274
USER: genes 13 Torsion [CA]-CB--CG-[CD2] |==|  0.71907
USER: genes 14 Torsion [CB]-CA--N-[C] |==|  0.83225
USER: genes 15 Torsion [N]-C--CA-[N] |==|  0.17418
USER: genes 16 Torsion [C]-CA--CB-[CG] |==|  0.84566
USER: genes 17 Torsion [CA]-CB--CG-[CD] |==|  0.35139
USER: genes 18 Torsion [CB]-CG--CD-[NE] |==|  0.04791
USER: genes 19 Torsion [CG]-CD--NE-[HE] |==|  0.76462
USER: genes 20 Torsion [C]-CA--N-[C] |==|  0.77987
USER: genes 21 Torsion [N]-C--CA-[CB] |==|  0.79363
ROOT
ATOM      1  CA  LEU G   4      37.992   6.894  24.349  1.00 72.45 LIG 0.18  C 
ENDROOT
BRANCH 1 2
ATOM      2  CB  LEU G   4      36.898   5.796  24.301  1.00 74.60 LIG 0.04  C 
BRANCH 2 3
ATOM      3  CG  LEU G   4      35.783   5.941  25.391  1.00 80.94 LIG-0.02  C 
ATOM      4  CD2 LEU G   4      35.516   7.393  25.825  1.00 76.26 LIG 0.01  C 
ATOM      5  CD1 LEU G   4      36.060   5.049  26.608  1.00 74.38 LIG 0.01  C 
ENDBRANCH 2 3
ENDBRANCH 1 2
BRANCH 1 6
ATOM      6  C   LEU G   4      39.346   6.400  24.936  1.00 69.99 LIG 0.24  C 
ATOM      7 O    LEU G   4      40.303   6.040  24.188  1.00 62.75 LIG-0.27  OA
ATOM      8  N   PRO G   5      39.453   6.454  26.288  1.00 68.53 LIG-0.34  N 
ATOM      9  CA  PRO G   5      40.664   5.924  26.885  1.00 66.41 LIG 0.18  C 
ATOM     10  CD  PRO G   5      38.597   7.120  27.299  1.00 67.94 LIG 0.13  C 
ATOM     11  CB  PRO G   5      40.482   6.236  28.394  1.00 68.06 LIG 0.04  C 
ATOM     12  CG  PRO G   5      39.559   7.415  28.425  1.00 67.97 LIG 0.02  C 
BRANCH 9 13
ATOM     13  C   PRO G   5      40.769   4.426  26.579  1.00 65.16 LIG 0.24  C 
ATOM     14  N   LEU G   6      39.666   3.702  26.724  1.00 58.40 LIG-0.35  N 
ATOM     15 H    LEU G   6      38.879   4.032  26.835  1.00 58.40 LIG 0.16  HD
ATOM     16 O    PRO G   5      41.854   3.935  26.220  1.00 57.12 LIG-0.27  OA
BRANCH 14 17
ATOM     17  CA  LEU G   6      39.719   2.242  26.702  1.00 60.31 LIG 0.18  C 
BRANCH 17 18
ATOM     18  C   LEU G   6      39.746   1.624  25.307  1.00 60.34 LIG 0.24  C 
ATOM     19 O    LEU G   6      39.979   2.353  24.359  1.00 72.64 LIG-0.27  OA
ATOM     20  N   LEU G   7      39.480   0.319  25.162  1.00 65.91 LIG-0.35  N 
ATOM     21 H    LEU G   7      39.196  -0.185  25.800  1.00 65.91 LIG 0.16  HD
BRANCH 20 22
ATOM     22  CA  LEU G   7      39.659  -0.392  23.847  1.00 66.14 LIG 0.16  C 
BRANCH 22 23
ATOM     23  CB  LEU G   7      40.805   0.249  23.042  1.00 64.61 LIG 0.04  C 
BRANCH 23 24
ATOM     24  CG  LEU G   7      40.576   0.572  21.552  1.00 68.76 LIG-0.02  C 
ATOM     25  CD2 LEU G   7      41.137   1.963  21.185  1.00 64.31 LIG 0.01  C 
ATOM     26  CD1 LEU G   7      39.108   0.402  21.144  1.00 66.72 LIG 0.01  C 
ENDBRANCH 23 24
ENDBRANCH 22 23
BRANCH 22 27
ATOM     27  C   LEU G   7      39.874  -1.904  23.973  1.00 59.22 LIG 0.22  C 
ATOM     28 O    LEU G   7      39.859  -2.597  22.966  1.00 55.72 LIG-0.29  OA
ENDBRANCH 22 27
ENDBRANCH 20 22
ENDBRANCH 17 18
BRANCH 17 29
ATOM     29  CB  LEU G   6      38.592   1.637  27.576  1.00 54.67 LIG 0.04  C 
BRANCH 29 30
ATOM     30  CG  LEU G   6      38.178   2.682  28.637  1.00 53.09 LIG-0.02  C 
ATOM     31  CD1 LEU G   6      36.676   2.796  28.679  1.00 49.97 LIG 0.01  C 
ATOM     32  CD2 LEU G   6      38.782   2.399  30.015  1.00 51.63 LIG 0.01  C 
ENDBRANCH 29 30
ENDBRANCH 17 29
ENDBRANCH 14 17
ENDBRANCH 9 13
ENDBRANCH 1 6
BRANCH 1 33
ATOM     33  N   LEU G   4      38.147   7.597  23.066  1.00 70.21 LIG-0.35  N 
ATOM     34  C   ARG G   3      38.495   6.926  21.962  1.00 75.48 LIG 0.24  C 
ATOM     35 O    ARG G   3      38.772   5.694  21.997  1.00 65.52 LIG-0.27  OA
ATOM     36 H    LEU G   4      37.998   8.443  23.095  1.00 70.21 LIG 0.16  HD
BRANCH 34 37
ATOM     37  CA  ARG G   3      38.582   7.752  20.624  1.00 78.48 LIG 0.18  C 
BRANCH 37 38
ATOM     38  CB  ARG G   3      38.806   6.841  19.398  1.00 76.51 LIG 0.04  C 
BRANCH 38 39
ATOM     39  CG  ARG G   3      40.022   5.932  19.483  1.00 78.92 LIG 0.02  C 
BRANCH 39 40
ATOM     40  CD  ARG G   3      39.667   4.462  19.239  1.00 76.70 LIG 0.14  C 
BRANCH 40 41
ATOM     41  NE  ARG G   3      38.351   4.241  18.587  1.00 80.12 LIG-0.23  N 
ATOM     42 HE   ARG G   3      37.664   4.221  19.103  1.00 80.12 LIG 0.18  HD
ATOM     43  CZ  ARG G   3      38.123   4.070  17.268  1.00 82.69 LIG 0.67  C 
ATOM     44  NH1 ARG G   3      39.104   4.032  16.351  1.00 73.81 LIG-0.23  N 
ATOM     45  NH2 ARG G   3      36.873   3.903  16.851  1.00 84.58 LIG-0.23  N 
ATOM     46 1HH1 ARG G   3      39.924   4.119  16.594  1.00 73.81 LIG 0.17  HD
ATOM     47 2HH1 ARG G   3      38.912   3.921  15.519  1.00 73.81 LIG 0.17  HD
ATOM     48 2HH2 ARG G   3      36.710   3.792  16.013  1.00 84.58 LIG 0.17  HD
ATOM     49 1HH2 ARG G   3      36.227   3.905  17.418  1.00 84.58 LIG 0.17  HD
ENDBRANCH 40 41
ENDBRANCH 39 40
ENDBRANCH 38 39
ENDBRANCH 37 38
BRANCH 37 50
ATOM     50  N   ARG G   3      39.625   8.818  20.672  1.00 95.22 LIG-0.35  N 
ATOM     51  C   PRO G   2      39.444  10.002  21.284  1.00105.18 LIG 0.25  C 
ATOM     52 O    PRO G   2      38.362  10.336  21.779  1.00111.30 LIG-0.27  OA
ATOM     53 H    ARG G   3      40.355   8.604  20.271  1.00 95.22 LIG 0.16  HD
BRANCH 51 54
ATOM     54  CA  PRO G   2      40.659  10.980  21.350  1.00104.44 LIG 0.35  C 
ATOM     55  N   PRO G   2      40.324  12.331  21.820  1.00103.34 LIG 0.32  N 
ATOM     56  CD  PRO G   2      41.423  12.933  22.611  1.00102.42 LIG 0.32  C 
ATOM     57  CG  PRO G   2      42.375  11.778  22.863  1.00 98.38 LIG 0.04  C 
ATOM     58  CB  PRO G   2      41.703  10.513  22.385  1.00102.80 LIG 0.05  C 
ENDBRANCH 51 54
ENDBRANCH 37 50
ENDBRANCH 34 37
ENDBRANCH 1 33
TORSDOF 20
ENDMDL
MODEL 36
USER: ADFR SOLUTION from run 86
USER: SCORE 15.636502 LL:  -4.536 LR: -12.466 RR:   0.000 FEB:  -6.500
USER: RMSD 9.239423
USER: SEED 85
USER: STATUS no improvement in best in 11 clusters for 5 generations
USER: GENES 22
USER: genes 0 Translation |==|  0.39675 0.58342 0.55377
USER: genes 1 Rotation |==|  0.71867 0.27900 0.16113 0.69622
USER: genes 2 Torsion [C]-CA--CB-[CG] |==|  0.32090
USER: genes 3 Torsion [CA]-CB--CG-[CD1] |==|  0.73256
USER: genes 4 Torsion [N]-CA--C-[N] |==|  0.41471
USER: genes 5 Torsion [N]-CA--C-[N] |==|  0.85453
USER: genes 6 Torsion [C]-N--CA-[C] |==|  0.55025
USER: genes 7 Torsion [N]-CA--C-[N] |==|  0.56579
USER: genes 8 Torsion [C]-N--CA-[CB] |==|  0.78886
USER: genes 9 Torsion [N]-CA--CB-[CG] |==|  0.73620
USER: genes 10 Torsion [CA]-CB--CG-[CD2] |==|  0.67761
USER: genes 11 Torsion [N]-CA--C-[O] |==|  0.75207
USER: genes 12 Torsion [N]-CA--CB-[CG] |==|  0.15622
USER: genes 13 Torsion [CA]-CB--CG-[CD2] |==|  0.67199
USER: genes 14 Torsion [CB]-CA--N-[C] |==|  0.81874
USER: genes 15 Torsion [N]-C--CA-[N] |==|  0.60199
USER: genes 16 Torsion [C]-CA--CB-[CG] |==|  0.35083
USER: genes 17 Torsion [CA]-CB--CG-[CD] |==|  0.73358
USER: genes 18 Torsion [CB]-CG--CD-[NE] |==|  0.18580
USER: genes 19 Torsion [CG]-CD--NE-[HE] |==|  0.17074
USER: genes 20 Torsion [C]-CA--N-[C] |==|  0.67251
USER: genes 21 Torsion [N]-C--CA-[CB] |==|  0.04357
ROOT
ATOM      1  CA  LEU G   4      38.169   7.049  24.466  1.00 72.45 LIG 0.18  C 
ENDROOT
BRANCH 1 2
ATOM      2  CB  LEU G   4      37.359   5.810  24.926  1.00 74.60 LIG 0.04  C 
BRANCH 2 3
ATOM      3  CG  LEU G   4      35.976   6.142  25.580  1.00 80.94 LIG-0.02  C 
ATOM      4  CD2 LEU G   4      35.321   7.427  25.041  1.00 76.26 LIG 0.01  C 
ATOM      5  CD1 LEU G   4      36.068   6.177  27.111  1.00 74.38 LIG 0.01  C 
ENDBRANCH 2 3
ENDBRANCH 1 2
BRANCH 1 6
ATOM      6  C   LEU G   4      39.507   7.240  25.238  1.00 69.99 LIG 0.24  C 
ATOM      7 O    LEU G   4      40.622   6.926  24.725  1.00 62.75 LIG-0.27  OA
ATOM      8  N   PRO G   5      39.402   7.829  26.457  1.00 68.53 LIG-0.34  N 
ATOM      9  CA  PRO G   5      40.610   7.949  27.249  1.00 66.41 LIG 0.18  C 
ATOM     10  CD  PRO G   5      38.266   8.541  27.090  1.00 67.94 LIG 0.13  C 
ATOM     11  CB  PRO G   5      40.139   8.739  28.498  1.00 68.06 LIG 0.04  C 
ATOM     12  CG  PRO G   5      38.945   9.511  28.027  1.00 67.97 LIG 0.02  C 
BRANCH 9 13
ATOM     13  C   PRO G   5      41.146   6.551  27.575  1.00 65.16 LIG 0.24  C 
ATOM     14  N   LEU G   6      40.296   5.692  28.123  1.00 58.40 LIG-0.35  N 
ATOM     15 H    LEU G   6      39.446   5.815  28.174  1.00 58.40 LIG 0.16  HD
ATOM     16 O    PRO G   5      42.332   6.264  27.334  1.00 57.12 LIG-0.27  OA
BRANCH 14 17
ATOM     17  CA  LEU G   6      40.767   4.434  28.697  1.00 60.31 LIG 0.18  C 
BRANCH 17 18
ATOM     18  C   LEU G   6      39.686   3.375  28.891  1.00 60.34 LIG 0.24  C 
ATOM     19 O    LEU G   6      38.670   3.461  28.224  1.00 72.64 LIG-0.27  OA
ATOM     20  N   LEU G   7      39.866   2.413  29.806  1.00 65.91 LIG-0.35  N 
ATOM     21 H    LEU G   7      40.517   2.404  30.369  1.00 65.91 LIG 0.16  HD
BRANCH 20 22
ATOM     22  CA  LEU G   7      38.927   1.242  29.929  1.00 66.14 LIG 0.16  C 
BRANCH 22 23
ATOM     23  CB  LEU G   7      37.621   1.673  30.623  1.00 64.61 LIG 0.04  C 
BRANCH 23 24
ATOM     24  CG  LEU G   7      37.486   1.467  32.145  1.00 68.76 LIG-0.02  C 
ATOM     25  CD2 LEU G   7      36.361   0.463  32.479  1.00 64.31 LIG 0.01  C 
ATOM     26  CD1 LEU G   7      37.334   2.795  32.895  1.00 66.72 LIG 0.01  C 
ENDBRANCH 23 24
ENDBRANCH 22 23
BRANCH 22 27
ATOM     27  C   LEU G   7      38.621   0.539  28.602  1.00 59.22 LIG 0.22  C 
ATOM     28 O    LEU G   7      37.680   0.924  27.924  1.00 55.72 LIG-0.29  OA
ENDBRANCH 22 27
ENDBRANCH 20 22
ENDBRANCH 17 18
BRANCH 17 29
ATOM     29  CB  LEU G   6      41.562   4.688  30.003  1.00 54.67 LIG 0.04  C 
BRANCH 29 30
ATOM     30  CG  LEU G   6      40.662   5.478  30.980  1.00 53.09 LIG-0.02  C 
ATOM     31  CD1 LEU G   6      40.376   4.640  32.199  1.00 49.97 LIG 0.01  C 
ATOM     32  CD2 LEU G   6      41.235   6.853  31.335  1.00 51.63 LIG 0.01  C 
ENDBRANCH 29 30
ENDBRANCH 17 29
ENDBRANCH 14 17
ENDBRANCH 9 13
ENDBRANCH 1 6
BRANCH 1 33
ATOM     33  N   LEU G   4      38.339   7.107  23.006  1.00 70.21 LIG-0.35  N 
ATOM     34  C   ARG G   3      39.053   6.173  22.367  1.00 75.48 LIG 0.24  C 
ATOM     35 O    ARG G   3      39.662   5.263  22.996  1.00 65.52 LIG-0.27  OA
ATOM     36 H    LEU G   4      37.950   7.771  22.622  1.00 70.21 LIG 0.16  HD
BRANCH 34 37
ATOM     37  CA  ARG G   3      39.132   6.287  20.799  1.00 78.48 LIG 0.18  C 
BRANCH 37 38
ATOM     38  CB  ARG G   3      38.011   7.184  20.230  1.00 76.51 LIG 0.04  C 
BRANCH 38 39
ATOM     39  CG  ARG G   3      38.485   8.319  19.335  1.00 78.92 LIG 0.02  C 
BRANCH 39 40
ATOM     40  CD  ARG G   3      38.632   9.638  20.099  1.00 76.70 LIG 0.14  C 
BRANCH 40 41
ATOM     41  NE  ARG G   3      39.713   9.648  21.117  1.00 80.12 LIG-0.23  N 
ATOM     42 HE   ARG G   3      40.514   9.525  20.831  1.00 80.12 LIG 0.18  HD
ATOM     43  CZ  ARG G   3      39.567   9.831  22.446  1.00 82.69 LIG 0.67  C 
ATOM     44  NH1 ARG G   3      38.373   9.989  23.041  1.00 73.81 LIG-0.23  N 
ATOM     45  NH2 ARG G   3      40.651   9.831  23.215  1.00 84.58 LIG-0.23  N 
ATOM     46 1HH1 ARG G   3      37.653   9.976  22.571  1.00 73.81 LIG 0.17  HD
ATOM     47 2HH1 ARG G   3      38.328  10.104  23.893  1.00 73.81 LIG 0.17  HD
ATOM     48 2HH2 ARG G   3      40.576   9.946  24.064  1.00 84.58 LIG 0.17  HD
ATOM     49 1HH2 ARG G   3      41.427   9.715  22.864  1.00 84.58 LIG 0.17  HD
ENDBRANCH 40 41
ENDBRANCH 39 40
ENDBRANCH 38 39
ENDBRANCH 37 38
BRANCH 37 50
ATOM     50  N   ARG G   3      39.120   4.956  20.123  1.00 95.22 LIG-0.35  N 
ATOM     51  C   PRO G   2      40.136   4.502  19.368  1.00105.18 LIG 0.25  C 
ATOM     52 O    PRO G   2      41.126   5.193  19.099  1.00111.30 LIG-0.27  OA
ATOM     53 H    ARG G   3      38.401   4.505  20.263  1.00 95.22 LIG 0.16  HD
BRANCH 51 54
ATOM     54  CA  PRO G   2      40.035   3.047  18.811  1.00104.44 LIG 0.35  C 
ATOM     55  N   PRO G   2      40.805   2.053  19.572  1.00103.34 LIG 0.32  N 
ATOM     56  CD  PRO G   2      40.135   0.732  19.597  1.00102.42 LIG 0.32  C 
ATOM     57  CG  PRO G   2      38.748   1.008  19.047  1.00 98.38 LIG 0.04  C 
ATOM     58  CB  PRO G   2      38.595   2.504  18.910  1.00102.80 LIG 0.05  C 
ENDBRANCH 51 54
ENDBRANCH 37 50
ENDBRANCH 34 37
ENDBRANCH 1 33
TORSDOF 20
ENDMDL
MODEL 37
USER: ADFR SOLUTION from run 86
USER: SCORE 15.939355 LL:  -4.336 LR: -12.408 RR:   0.000 FEB:  -6.442
USER: RMSD 10.149371
USER: SEED 85
USER: STATUS no improvement in best in 11 clusters for 5 generations
USER: GENES 22
USER: genes 0 Translation |==|  0.38083 0.58510 0.57468
USER: genes 1 Rotation |==|  0.71148 0.30827 0.14307 0.70276
USER: genes 2 Torsion [C]-CA--CB-[CG] |==|  0.34338
USER: genes 3 Torsion [CA]-CB--CG-[CD1] |==|  0.72762
USER: genes 4 Torsion [N]-CA--C-[N] |==|  0.39558
USER: genes 5 Torsion [N]-CA--C-[N] |==|  0.87031
USER: genes 6 Torsion [C]-N--CA-[C] |==|  0.55013
USER: genes 7 Torsion [N]-CA--C-[N] |==|  0.56948
USER: genes 8 Torsion [C]-N--CA-[CB] |==|  0.78627
USER: genes 9 Torsion [N]-CA--CB-[CG] |==|  0.72339
USER: genes 10 Torsion [CA]-CB--CG-[CD2] |==|  0.68638
USER: genes 11 Torsion [N]-CA--C-[O] |==|  0.74652
USER: genes 12 Torsion [N]-CA--CB-[CG] |==|  0.17531
USER: genes 13 Torsion [CA]-CB--CG-[CD2] |==|  0.72367
USER: genes 14 Torsion [CB]-CA--N-[C] |==|  0.82787
USER: genes 15 Torsion [N]-C--CA-[N] |==|  0.08647
USER: genes 16 Torsion [C]-CA--CB-[CG] |==|  0.59230
USER: genes 17 Torsion [CA]-CB--CG-[CD] |==|  0.81050
USER: genes 18 Torsion [CB]-CG--CD-[NE] |==|  0.91634
USER: genes 19 Torsion [CG]-CD--NE-[HE] |==|  0.17317
USER: genes 20 Torsion [C]-CA--N-[C] |==|  0.16111
USER: genes 21 Torsion [N]-C--CA-[CB] |==|  0.93050
ROOT
ATOM      1  CA  LEU G   4      37.907   7.096  24.874  1.00 72.45 LIG 0.18  C 
ENDROOT
BRANCH 1 2
ATOM      2  CB  LEU G   4      37.180   5.796  25.304  1.00 74.60 LIG 0.04  C 
BRANCH 2 3
ATOM      3  CG  LEU G   4      35.773   6.021  25.954  1.00 80.94 LIG-0.02  C 
ATOM      4  CD2 LEU G   4      35.054   7.292  25.466  1.00 76.26 LIG 0.01  C 
ATOM      5  CD1 LEU G   4      35.846   5.990  27.487  1.00 74.38 LIG 0.01  C 
ENDBRANCH 2 3
ENDBRANCH 1 2
BRANCH 1 6
ATOM      6  C   LEU G   4      39.316   7.263  25.512  1.00 69.99 LIG 0.24  C 
ATOM      7 O    LEU G   4      40.369   6.910  24.902  1.00 62.75 LIG-0.27  OA
ATOM      8  N   PRO G   5      39.342   7.875  26.724  1.00 68.53 LIG-0.34  N 
ATOM      9  CA  PRO G   5      40.623   7.975  27.396  1.00 66.41 LIG 0.18  C 
ATOM     10  CD  PRO G   5      38.290   8.628  27.448  1.00 67.94 LIG 0.13  C 
ATOM     11  CB  PRO G   5      40.293   8.797  28.669  1.00 68.06 LIG 0.04  C 
ATOM     12  CG  PRO G   5      39.081   9.594  28.299  1.00 67.97 LIG 0.02  C 
BRANCH 9 13
ATOM     13  C   PRO G   5      41.152   6.568  27.696  1.00 65.16 LIG 0.24  C 
ATOM     14  N   LEU G   6      40.298   5.705  28.233  1.00 58.40 LIG-0.35  N 
ATOM     15 H    LEU G   6      39.450   5.833  28.290  1.00 58.40 LIG 0.16  HD
ATOM     16 O    PRO G   5      42.335   6.278  27.445  1.00 57.12 LIG-0.27  OA
BRANCH 14 17
ATOM     17  CA  LEU G   6      40.764   4.435  28.784  1.00 60.31 LIG 0.18  C 
BRANCH 17 18
ATOM     18  C   LEU G   6      39.676   3.380  28.966  1.00 60.34 LIG 0.24  C 
ATOM     19 O    LEU G   6      38.668   3.470  28.287  1.00 72.64 LIG-0.27  OA
ATOM     20  N   LEU G   7      39.843   2.417  29.882  1.00 65.91 LIG-0.35  N 
ATOM     21 H    LEU G   7      40.487   2.406  30.452  1.00 65.91 LIG 0.16  HD
BRANCH 20 22
ATOM     22  CA  LEU G   7      38.898   1.250  29.995  1.00 66.14 LIG 0.16  C 
BRANCH 22 23
ATOM     23  CB  LEU G   7      37.595   1.680  30.695  1.00 64.61 LIG 0.04  C 
BRANCH 23 24
ATOM     24  CG  LEU G   7      37.417   1.362  32.193  1.00 68.76 LIG-0.02  C 
ATOM     25  CD2 LEU G   7      36.296   0.324  32.418  1.00 64.31 LIG 0.01  C 
ATOM     26  CD1 LEU G   7      37.225   2.629  33.033  1.00 66.72 LIG 0.01  C 
ENDBRANCH 23 24
ENDBRANCH 22 23
BRANCH 22 27
ATOM     27  C   LEU G   7      38.587   0.562  28.660  1.00 59.22 LIG 0.22  C 
ATOM     28 O    LEU G   7      37.624   0.934  28.006  1.00 55.72 LIG-0.29  OA
ENDBRANCH 22 27
ENDBRANCH 20 22
ENDBRANCH 17 18
BRANCH 17 29
ATOM     29  CB  LEU G   6      41.566   4.662  30.090  1.00 54.67 LIG 0.04  C 
BRANCH 29 30
ATOM     30  CG  LEU G   6      40.623   5.285  31.144  1.00 53.09 LIG-0.02  C 
ATOM     31  CD1 LEU G   6      40.799   4.580  32.464  1.00 49.97 LIG 0.01  C 
ATOM     32  CD2 LEU G   6      40.788   6.802  31.265  1.00 51.63 LIG 0.01  C 
ENDBRANCH 29 30
ENDBRANCH 17 29
ENDBRANCH 14 17
ENDBRANCH 9 13
ENDBRANCH 1 6
BRANCH 1 33
ATOM     33  N   LEU G   4      37.913   7.287  23.416  1.00 70.21 LIG-0.35  N 
ATOM     34  C   ARG G   3      38.520   6.400  22.618  1.00 75.48 LIG 0.24  C 
ATOM     35 O    ARG G   3      39.164   5.421  23.088  1.00 65.52 LIG-0.27  OA
ATOM     36 H    LEU G   4      37.507   7.993  23.140  1.00 70.21 LIG 0.16  HD
BRANCH 34 37
ATOM     37  CA  ARG G   3      38.426   6.658  21.067  1.00 78.48 LIG 0.18  C 
BRANCH 37 38
ATOM     38  CB  ARG G   3      39.586   5.985  20.301  1.00 76.51 LIG 0.04  C 
BRANCH 38 39
ATOM     39  CG  ARG G   3      40.065   6.734  19.067  1.00 78.92 LIG 0.02  C 
BRANCH 39 40
ATOM     40  CD  ARG G   3      39.020   6.735  17.947  1.00 76.70 LIG 0.14  C 
BRANCH 40 41
ATOM     41  NE  ARG G   3      38.137   5.541  17.921  1.00 80.12 LIG-0.23  N 
ATOM     42 HE   ARG G   3      37.637   5.416  18.610  1.00 80.12 LIG 0.18  HD
ATOM     43  CZ  ARG G   3      38.037   4.633  16.928  1.00 82.69 LIG 0.67  C 
ATOM     44  NH1 ARG G   3      38.788   4.674  15.815  1.00 73.81 LIG-0.23  N 
ATOM     45  NH2 ARG G   3      37.175   3.630  17.062  1.00 84.58 LIG-0.23  N 
ATOM     46 1HH1 ARG G   3      39.367   5.301  15.709  1.00 73.81 LIG 0.17  HD
ATOM     47 2HH1 ARG G   3      38.690   4.073  15.207  1.00 73.81 LIG 0.17  HD
ATOM     48 2HH2 ARG G   3      37.099   3.042  16.439  1.00 84.58 LIG 0.17  HD
ATOM     49 1HH2 ARG G   3      36.694   3.569  17.772  1.00 84.58 LIG 0.17  HD
ENDBRANCH 40 41
ENDBRANCH 39 40
ENDBRANCH 38 39
ENDBRANCH 37 38
BRANCH 37 50
ATOM     50  N   ARG G   3      38.357   8.109  20.727  1.00 95.22 LIG-0.35  N 
ATOM     51  C   PRO G   2      39.300   8.998  21.085  1.00105.18 LIG 0.25  C 
ATOM     52 O    PRO G   2      40.258   8.696  21.806  1.00111.30 LIG-0.27  OA
ATOM     53 H    ARG G   3      37.655   8.324  20.278  1.00 95.22 LIG 0.16  HD
BRANCH 51 54
ATOM     54  CA  PRO G   2      39.153  10.464  20.568  1.00104.44 LIG 0.35  C 
ATOM     55  N   PRO G   2      40.418  11.096  20.172  1.00103.34 LIG 0.32  N 
ATOM     56  CD  PRO G   2      40.243  12.024  19.031  1.00102.42 LIG 0.32  C 
ATOM     57  CG  PRO G   2      38.839  11.736  18.531  1.00 98.38 LIG 0.04  C 
ATOM     58  CB  PRO G   2      38.326  10.522  19.267  1.00102.80 LIG 0.05  C 
ENDBRANCH 51 54
ENDBRANCH 37 50
ENDBRANCH 34 37
ENDBRANCH 1 33
TORSDOF 20
ENDMDL
MODEL 38
USER: ADFR SOLUTION from run 154
USER: SCORE 16.200472 LL:  -4.047 LR: -12.381 RR:   0.000 FEB:  -6.415
USER: RMSD 3.986155
USER: SEED 153
USER: STATUS no improvement in best in 13 clusters for 5 generations
USER: GENES 22
USER: genes 0 Translation |==|  0.44503 0.47944 0.67297
USER: genes 1 Rotation |==|  0.49456 0.46693 0.43828 0.99504
USER: genes 2 Torsion [C]-CA--CB-[CG] |==|  0.05184
USER: genes 3 Torsion [CA]-CB--CG-[CD1] |==|  0.36829
USER: genes 4 Torsion [N]-CA--C-[N] |==|  0.35011
USER: genes 5 Torsion [N]-CA--C-[N] |==|  0.40628
USER: genes 6 Torsion [C]-N--CA-[C] |==|  0.77652
USER: genes 7 Torsion [N]-CA--C-[N] |==|  0.93833
USER: genes 8 Torsion [C]-N--CA-[CB] |==|  0.39271
USER: genes 9 Torsion [N]-CA--CB-[CG] |==|  0.76250
USER: genes 10 Torsion [CA]-CB--CG-[CD2] |==|  0.49158
USER: genes 11 Torsion [N]-CA--C-[O] |==|  0.02633
USER: genes 12 Torsion [N]-CA--CB-[CG] |==|  0.01588
USER: genes 13 Torsion [CA]-CB--CG-[CD2] |==|  0.70919
USER: genes 14 Torsion [CB]-CA--N-[C] |==|  0.84218
USER: genes 15 Torsion [N]-C--CA-[N] |==|  0.38955
USER: genes 16 Torsion [C]-CA--CB-[CG] |==|  0.45056
USER: genes 17 Torsion [CA]-CB--CG-[CD] |==|  0.16303
USER: genes 18 Torsion [CB]-CG--CD-[NE] |==|  0.55874
USER: genes 19 Torsion [CG]-CD--NE-[HE] |==|  0.97676
USER: genes 20 Torsion [C]-CA--N-[C] |==|  0.72565
USER: genes 21 Torsion [N]-C--CA-[CB] |==|  0.88325
ROOT
ATOM      1  CA  LEU G   4      38.966   4.085  26.791  1.00 72.45 LIG 0.18  C 
ENDROOT
BRANCH 1 2
ATOM      2  CB  LEU G   4      40.291   4.463  27.502  1.00 74.60 LIG 0.04  C 
BRANCH 2 3
ATOM      3  CG  LEU G   4      40.737   5.950  27.301  1.00 80.94 LIG-0.02  C 
ATOM      4  CD2 LEU G   4      41.838   6.135  26.242  1.00 76.26 LIG 0.01  C 
ATOM      5  CD1 LEU G   4      41.140   6.605  28.628  1.00 74.38 LIG 0.01  C 
ENDBRANCH 2 3
ENDBRANCH 1 2
BRANCH 1 6
ATOM      6  C   LEU G   4      38.562   5.073  25.659  1.00 69.99 LIG 0.24  C 
ATOM      7 O    LEU G   4      39.093   5.021  24.509  1.00 62.75 LIG-0.27  OA
ATOM      8  N   PRO G   5      37.559   5.936  25.963  1.00 68.53 LIG-0.34  N 
ATOM      9  CA  PRO G   5      37.208   6.932  24.969  1.00 66.41 LIG 0.18  C 
ATOM     10  CD  PRO G   5      36.614   5.953  27.105  1.00 67.94 LIG 0.13  C 
ATOM     11  CB  PRO G   5      35.992   7.655  25.606  1.00 68.06 LIG 0.04  C 
ATOM     12  CG  PRO G   5      35.397   6.643  26.536  1.00 67.97 LIG 0.02  C 
BRANCH 9 13
ATOM     13  C   PRO G   5      38.408   7.853  24.725  1.00 65.16 LIG 0.24  C 
ATOM     14  N   LEU G   6      38.567   8.323  23.494  1.00 58.40 LIG-0.35  N 
ATOM     15 H    LEU G   6      37.977   8.265  22.872  1.00 58.40 LIG 0.16  HD
ATOM     16 O    PRO G   5      39.188   8.125  25.656  1.00 57.12 LIG-0.27  OA
BRANCH 14 17
ATOM     17  CA  LEU G   6      39.804   8.994  23.102  1.00 60.31 LIG 0.18  C 
BRANCH 17 18
ATOM     18  C   LEU G   6      39.902  10.456  23.532  1.00 60.34 LIG 0.24  C 
ATOM     19 O    LEU G   6      41.011  10.947  23.652  1.00 72.64 LIG-0.27  OA
ATOM     20  N   LEU G   7      38.780  11.139  23.796  1.00 65.91 LIG-0.35  N 
ATOM     21 H    LEU G   7      38.000  10.779  23.835  1.00 65.91 LIG 0.16  HD
BRANCH 20 22
ATOM     22  CA  LEU G   7      38.791  12.622  24.054  1.00 66.14 LIG 0.16  C 
BRANCH 22 23
ATOM     23  CB  LEU G   7      37.562  13.288  23.407  1.00 64.61 LIG 0.04  C 
BRANCH 23 24
ATOM     24  CG  LEU G   7      37.637  13.707  21.926  1.00 68.76 LIG-0.02  C 
ATOM     25  CD2 LEU G   7      36.292  14.286  21.436  1.00 64.31 LIG 0.01  C 
ATOM     26  CD1 LEU G   7      38.152  12.574  21.031  1.00 66.72 LIG 0.01  C 
ENDBRANCH 23 24
ENDBRANCH 22 23
BRANCH 22 27
ATOM     27  C   LEU G   7      38.888  13.002  25.536  1.00 59.22 LIG 0.22  C 
ATOM     28 O    LEU G   7      39.123  12.133  26.362  1.00 55.72 LIG-0.29  OA
ENDBRANCH 22 27
ENDBRANCH 20 22
ENDBRANCH 17 18
BRANCH 17 29
ATOM     29  CB  LEU G   6      40.066   8.824  21.585  1.00 54.67 LIG 0.04  C 
BRANCH 29 30
ATOM     30  CG  LEU G   6      38.848   8.114  20.952  1.00 53.09 LIG-0.02  C 
ATOM     31  CD1 LEU G   6      38.372   8.892  19.753  1.00 49.97 LIG 0.01  C 
ATOM     32  CD2 LEU G   6      39.121   6.644  20.625  1.00 51.63 LIG 0.01  C 
ENDBRANCH 29 30
ENDBRANCH 17 29
ENDBRANCH 14 17
ENDBRANCH 9 13
ENDBRANCH 1 6
BRANCH 1 33
ATOM     33  N   LEU G   4      38.933   2.679  26.361  1.00 70.21 LIG-0.35  N 
ATOM     34  C   ARG G   3      39.881   2.194  25.550  1.00 75.48 LIG 0.24  C 
ATOM     35 O    ARG G   3      40.783   2.936  25.071  1.00 65.52 LIG-0.27  OA
ATOM     36 H    LEU G   4      38.274   2.220  26.669  1.00 70.21 LIG 0.16  HD
BRANCH 34 37
ATOM     37  CA  ARG G   3      39.795   0.663  25.189  1.00 78.48 LIG 0.18  C 
BRANCH 37 38
ATOM     38  CB  ARG G   3      40.673  -0.198  26.123  1.00 76.51 LIG 0.04  C 
BRANCH 38 39
ATOM     39  CG  ARG G   3      40.339  -1.682  26.136  1.00 78.92 LIG 0.02  C 
BRANCH 39 40
ATOM     40  CD  ARG G   3      40.455  -2.315  24.746  1.00 76.70 LIG 0.14  C 
BRANCH 40 41
ATOM     41  NE  ARG G   3      39.697  -3.580  24.575  1.00 80.12 LIG-0.23  N 
ATOM     42 HE   ARG G   3      39.348  -3.919  25.283  1.00 80.12 LIG 0.18  HD
ATOM     43  CZ  ARG G   3      39.501  -4.253  23.422  1.00 82.69 LIG 0.67  C 
ATOM     44  NH1 ARG G   3      40.025  -3.868  22.246  1.00 73.81 LIG-0.23  N 
ATOM     45  NH2 ARG G   3      38.776  -5.366  23.446  1.00 84.58 LIG-0.23  N 
ATOM     46 1HH1 ARG G   3      40.514  -3.162  22.204  1.00 73.81 LIG 0.17  HD
ATOM     47 2HH1 ARG G   3      39.873  -4.329  21.535  1.00 73.81 LIG 0.17  HD
ATOM     48 2HH2 ARG G   3      38.641  -5.808  22.720  1.00 84.58 LIG 0.17  HD
ATOM     49 1HH2 ARG G   3      38.442  -5.646  24.188  1.00 84.58 LIG 0.17  HD
ENDBRANCH 40 41
ENDBRANCH 39 40
ENDBRANCH 38 39
ENDBRANCH 37 38
BRANCH 37 50
ATOM     50  N   ARG G   3      40.134   0.388  23.763  1.00 95.22 LIG-0.35  N 
ATOM     51  C   PRO G   2      39.208   0.210  22.804  1.00105.18 LIG 0.25  C 
ATOM     52 O    PRO G   2      37.996   0.171  23.049  1.00111.30 LIG-0.27  OA
ATOM     53 H    ARG G   3      40.980   0.353  23.610  1.00 95.22 LIG 0.16  HD
BRANCH 51 54
ATOM     54  CA  PRO G   2      39.704   0.037  21.334  1.00104.44 LIG 0.35  C 
ATOM     55  N   PRO G   2      38.698   0.358  20.314  1.00103.34 LIG 0.32  N 
ATOM     56  CD  PRO G   2      39.305   0.960  19.104  1.00102.42 LIG 0.32  C 
ATOM     57  CG  PRO G   2      40.731   1.271  19.520  1.00 98.38 LIG 0.04  C 
ATOM     58  CB  PRO G   2      40.843   1.024  21.005  1.00102.80 LIG 0.05  C 
ENDBRANCH 51 54
ENDBRANCH 37 50
ENDBRANCH 34 37
ENDBRANCH 1 33
TORSDOF 20
ENDMDL
MODEL 39
USER: ADFR SOLUTION from run 161
USER: SCORE 16.573170 LL:  -4.362 LR: -12.329 RR:   0.000 FEB:  -6.363
USER: RMSD 3.635287
USER: SEED 160
USER: STATUS no improvement in best in 16 clusters for 5 generations
USER: GENES 22
USER: genes 0 Translation |==|  0.43139 0.50543 0.68995
USER: genes 1 Rotation |==|  0.42566 0.45147 0.46389 0.99073
USER: genes 2 Torsion [C]-CA--CB-[CG] |==|  0.08581
USER: genes 3 Torsion [CA]-CB--CG-[CD1] |==|  0.18350
USER: genes 4 Torsion [N]-CA--C-[N] |==|  0.35015
USER: genes 5 Torsion [N]-CA--C-[N] |==|  0.36803
USER: genes 6 Torsion [C]-N--CA-[C] |==|  0.81584
USER: genes 7 Torsion [N]-CA--C-[N] |==|  0.95235
USER: genes 8 Torsion [C]-N--CA-[CB] |==|  0.84457
USER: genes 9 Torsion [N]-CA--CB-[CG] |==|  0.84889
USER: genes 10 Torsion [CA]-CB--CG-[CD2] |==|  0.65514
USER: genes 11 Torsion [N]-CA--C-[O] |==|  0.04036
USER: genes 12 Torsion [N]-CA--CB-[CG] |==|  0.08974
USER: genes 13 Torsion [CA]-CB--CG-[CD2] |==|  0.60783
USER: genes 14 Torsion [CB]-CA--N-[C] |==|  0.83143
USER: genes 15 Torsion [N]-C--CA-[N] |==|  0.97667
USER: genes 16 Torsion [C]-CA--CB-[CG] |==|  0.37257
USER: genes 17 Torsion [CA]-CB--CG-[CD] |==|  0.41854
USER: genes 18 Torsion [CB]-CG--CD-[NE] |==|  0.36105
USER: genes 19 Torsion [CG]-CD--NE-[HE] |==|  0.92702
USER: genes 20 Torsion [C]-CA--N-[C] |==|  0.81516
USER: genes 21 Torsion [N]-C--CA-[CB] |==|  0.65701
ROOT
ATOM      1  CA  LEU G   4      38.741   4.826  27.122  1.00 72.45 LIG 0.18  C 
ENDROOT
BRANCH 1 2
ATOM      2  CB  LEU G   4      40.004   5.500  27.716  1.00 74.60 LIG 0.04  C 
BRANCH 2 3
ATOM      3  CG  LEU G   4      40.176   7.009  27.336  1.00 80.94 LIG-0.02  C 
ATOM      4  CD2 LEU G   4      41.567   7.583  27.664  1.00 76.26 LIG 0.01  C 
ATOM      5  CD1 LEU G   4      39.069   7.877  27.947  1.00 74.38 LIG 0.01  C 
ENDBRANCH 2 3
ENDBRANCH 1 2
BRANCH 1 6
ATOM      6  C   LEU G   4      38.307   5.414  25.749  1.00 69.99 LIG 0.24  C 
ATOM      7 O    LEU G   4      38.884   5.084  24.671  1.00 62.75 LIG-0.27  OA
ATOM      8  N   PRO G   5      37.229   6.240  25.779  1.00 68.53 LIG-0.34  N 
ATOM      9  CA  PRO G   5      36.841   6.881  24.537  1.00 66.41 LIG 0.18  C 
ATOM     10  CD  PRO G   5      36.242   6.500  26.854  1.00 67.94 LIG 0.13  C 
ATOM     11  CB  PRO G   5      35.550   7.649  24.922  1.00 68.06 LIG 0.04  C 
ATOM     12  CG  PRO G   5      34.999   6.895  26.093  1.00 67.97 LIG 0.02  C 
BRANCH 9 13
ATOM     13  C   PRO G   5      37.976   7.793  24.059  1.00 65.16 LIG 0.24  C 
ATOM     14  N   LEU G   6      38.331   7.695  22.784  1.00 58.40 LIG-0.35  N 
ATOM     15 H    LEU G   6      37.883   7.269  22.186  1.00 58.40 LIG 0.16  HD
ATOM     16 O    PRO G   5      38.527   8.575  24.853  1.00 57.12 LIG-0.27  OA
BRANCH 14 17
ATOM     17  CA  LEU G   6      39.553   8.329  22.295  1.00 60.31 LIG 0.18  C 
BRANCH 17 18
ATOM     18  C   LEU G   6      39.541   9.855  22.331  1.00 60.34 LIG 0.24  C 
ATOM     19 O    LEU G   6      40.609  10.440  22.283  1.00 72.64 LIG-0.27  OA
ATOM     20  N   LEU G   7      38.373  10.499  22.450  1.00 65.91 LIG-0.35  N 
ATOM     21 H    LEU G   7      37.624  10.106  22.607  1.00 65.91 LIG 0.16  HD
BRANCH 20 22
ATOM     22  CA  LEU G   7      38.269  11.995  22.318  1.00 66.14 LIG 0.16  C 
BRANCH 22 23
ATOM     23  CB  LEU G   7      39.213  12.690  23.317  1.00 64.61 LIG 0.04  C 
BRANCH 23 24
ATOM     24  CG  LEU G   7      39.104  12.334  24.812  1.00 68.76 LIG-0.02  C 
ATOM     25  CD2 LEU G   7      38.862  13.593  25.673  1.00 64.31 LIG 0.01  C 
ATOM     26  CD1 LEU G   7      40.300  11.508  25.298  1.00 66.72 LIG 0.01  C 
ENDBRANCH 23 24
ENDBRANCH 22 23
BRANCH 22 27
ATOM     27  C   LEU G   7      38.513  12.519  20.897  1.00 59.22 LIG 0.22  C 
ATOM     28 O    LEU G   7      38.500  11.735  19.960  1.00 55.72 LIG-0.29  OA
ENDBRANCH 22 27
ENDBRANCH 20 22
ENDBRANCH 17 18
BRANCH 17 29
ATOM     29  CB  LEU G   6      39.929   7.792  20.892  1.00 54.67 LIG 0.04  C 
BRANCH 29 30
ATOM     30  CG  LEU G   6      38.628   7.450  20.131  1.00 53.09 LIG-0.02  C 
ATOM     31  CD1 LEU G   6      38.190   8.638  19.315  1.00 49.97 LIG 0.01  C 
ATOM     32  CD2 LEU G   6      38.748   6.175  19.292  1.00 51.63 LIG 0.01  C 
ENDBRANCH 29 30
ENDBRANCH 17 29
ENDBRANCH 14 17
ENDBRANCH 9 13
ENDBRANCH 1 6
BRANCH 1 33
ATOM     33  N   LEU G   4      38.833   3.358  27.111  1.00 70.21 LIG-0.35  N 
ATOM     34  C   ARG G   3      39.802   2.743  26.422  1.00 75.48 LIG 0.24  C 
ATOM     35 O    ARG G   3      40.616   3.391  25.706  1.00 65.52 LIG-0.27  OA
ATOM     36 H    LEU G   4      38.230   2.952  27.570  1.00 70.21 LIG 0.16  HD
BRANCH 34 37
ATOM     37  CA  ARG G   3      39.855   1.172  26.515  1.00 78.48 LIG 0.18  C 
BRANCH 37 38
ATOM     38  CB  ARG G   3      39.606   0.506  25.145  1.00 76.51 LIG 0.04  C 
BRANCH 38 39
ATOM     39  CG  ARG G   3      40.568  -0.616  24.788  1.00 78.92 LIG 0.02  C 
BRANCH 39 40
ATOM     40  CD  ARG G   3      39.925  -1.665  23.877  1.00 76.70 LIG 0.14  C 
BRANCH 40 41
ATOM     41  NE  ARG G   3      40.716  -2.007  22.668  1.00 80.12 LIG-0.23  N 
ATOM     42 HE   ARG G   3      41.252  -1.403  22.374  1.00 80.12 LIG 0.18  HD
ATOM     43  CZ  ARG G   3      40.682  -3.170  21.983  1.00 82.69 LIG 0.67  C 
ATOM     44  NH1 ARG G   3      39.861  -4.186  22.298  1.00 73.81 LIG-0.23  N 
ATOM     45  NH2 ARG G   3      41.476  -3.315  20.928  1.00 84.58 LIG-0.23  N 
ATOM     46 1HH1 ARG G   3      39.322  -4.113  22.965  1.00 73.81 LIG 0.17  HD
ATOM     47 2HH1 ARG G   3      39.873  -4.909  21.833  1.00 73.81 LIG 0.17  HD
ATOM     48 2HH2 ARG G   3      41.466  -4.050  20.480  1.00 84.58 LIG 0.17  HD
ATOM     49 1HH2 ARG G   3      42.000  -2.675  20.693  1.00 84.58 LIG 0.17  HD
ENDBRANCH 40 41
ENDBRANCH 39 40
ENDBRANCH 38 39
ENDBRANCH 37 38
BRANCH 37 50
ATOM     50  N   ARG G   3      38.914   0.623  27.535  1.00 95.22 LIG-0.35  N 
ATOM     51  C   PRO G   2      39.051   0.833  28.856  1.00105.18 LIG 0.25  C 
ATOM     52 O    PRO G   2      40.023   1.426  29.338  1.00111.30 LIG-0.27  OA
ATOM     53 H    ARG G   3      38.273   0.158  27.197  1.00 95.22 LIG 0.16  HD
BRANCH 51 54
ATOM     54  CA  PRO G   2      37.931   0.291  29.800  1.00104.44 LIG 0.35  C 
ATOM     55  N   PRO G   2      38.401  -0.669  30.807  1.00103.34 LIG 0.32  N 
ATOM     56  CD  PRO G   2      37.650  -0.552  32.079  1.00102.42 LIG 0.32  C 
ATOM     57  CG  PRO G   2      36.860   0.735  31.926  1.00 98.38 LIG 0.04  C 
ATOM     58  CB  PRO G   2      37.328   1.417  30.663  1.00102.80 LIG 0.05  C 
ENDBRANCH 51 54
ENDBRANCH 37 50
ENDBRANCH 34 37
ENDBRANCH 1 33
TORSDOF 20
ENDMDL
MODEL 40
USER: ADFR SOLUTION from run 5
USER: SCORE 15.710435 LL:  -3.727 LR: -12.318 RR:   0.000 FEB:  -6.352
USER: RMSD 5.418280
USER: SEED 591768
USER: STATUS no improvement in best in 11 clusters for 5 generations
USER: GENES 22
USER: genes 0 Translation |==|  0.48055 0.48058 0.30282
USER: genes 1 Rotation |==|  0.31191 0.95710 0.48308 0.57345
USER: genes 2 Torsion [C]-CA--CB-[CG] |==|  0.24362
USER: genes 3 Torsion [CA]-CB--CG-[CD1] |==|  0.13236
USER: genes 4 Torsion [N]-CA--C-[N] |==|  0.09757
USER: genes 5 Torsion [N]-CA--C-[N] |==|  0.29188
USER: genes 6 Torsion [C]-N--CA-[C] |==|  0.67850
USER: genes 7 Torsion [N]-CA--C-[N] |==|  0.43247
USER: genes 8 Torsion [C]-N--CA-[CB] |==|  0.79045
USER: genes 9 Torsion [N]-CA--CB-[CG] |==|  0.73153
USER: genes 10 Torsion [CA]-CB--CG-[CD2] |==|  0.07095
USER: genes 11 Torsion [N]-CA--C-[O] |==|  0.72132
USER: genes 12 Torsion [N]-CA--CB-[CG] |==|  0.67131
USER: genes 13 Torsion [CA]-CB--CG-[CD2] |==|  0.65384
USER: genes 14 Torsion [CB]-CA--N-[C] |==|  0.17029
USER: genes 15 Torsion [N]-C--CA-[N] |==|  0.06844
USER: genes 16 Torsion [C]-CA--CB-[CG] |==|  0.37277
USER: genes 17 Torsion [CA]-CB--CG-[CD] |==|  0.30512
USER: genes 18 Torsion [CB]-CG--CD-[NE] |==|  0.21257
USER: genes 19 Torsion [CG]-CD--NE-[HE] |==|  0.12144
USER: genes 20 Torsion [C]-CA--N-[C] |==|  0.17135
USER: genes 21 Torsion [N]-C--CA-[CB] |==|  0.11290
ROOT
ATOM      1  CA  LEU G   4      39.552   4.117  19.573  1.00 72.45 LIG 0.18  C 
ENDROOT
BRANCH 1 2
ATOM      2  CB  LEU G   4      38.387   3.746  18.620  1.00 74.60 LIG 0.04  C 
BRANCH 2 3
ATOM      3  CG  LEU G   4      38.300   4.621  17.325  1.00 80.94 LIG-0.02  C 
ATOM      4  CD2 LEU G   4      37.229   4.153  16.324  1.00 76.26 LIG 0.01  C 
ATOM      5  CD1 LEU G   4      39.666   4.757  16.640  1.00 74.38 LIG 0.01  C 
ENDBRANCH 2 3
ENDBRANCH 1 2
BRANCH 1 6
ATOM      6  C   LEU G   4      39.188   5.228  20.599  1.00 69.99 LIG 0.24  C 
ATOM      7 O    LEU G   4      38.122   5.906  20.496  1.00 62.75 LIG-0.27  OA
ATOM      8  N   PRO G   5      40.045   5.366  21.643  1.00 68.53 LIG-0.34  N 
ATOM      9  CA  PRO G   5      39.793   6.446  22.578  1.00 66.41 LIG 0.18  C 
ATOM     10  CD  PRO G   5      41.146   4.490  22.111  1.00 67.94 LIG 0.13  C 
ATOM     11  CB  PRO G   5      40.885   6.239  23.661  1.00 68.06 LIG 0.04  C 
ATOM     12  CG  PRO G   5      41.213   4.780  23.591  1.00 67.97 LIG 0.02  C 
BRANCH 9 13
ATOM     13  C   PRO G   5      39.902   7.788  21.848  1.00 65.16 LIG 0.24  C 
ATOM     14  N   LEU G   6      38.767   8.420  21.574  1.00 58.40 LIG-0.35  N 
ATOM     15 H    LEU G   6      38.001   8.204  21.898  1.00 58.40 LIG 0.16  HD
ATOM     16 O    PRO G   5      41.017   8.239  21.530  1.00 57.12 LIG-0.27  OA
BRANCH 14 17
ATOM     17  CA  LEU G   6      38.747   9.567  20.670  1.00 60.31 LIG 0.18  C 
BRANCH 17 18
ATOM     18  C   LEU G   6      38.337  10.886  21.318  1.00 60.34 LIG 0.24  C 
ATOM     19 O    LEU G   6      37.624  10.844  22.306  1.00 72.64 LIG-0.27  OA
ATOM     20  N   LEU G   7      38.737  12.040  20.768  1.00 65.91 LIG-0.35  N 
ATOM     21 H    LEU G   7      39.135  12.094  20.007  1.00 65.91 LIG 0.16  HD
BRANCH 20 22
ATOM     22  CA  LEU G   7      38.518  13.366  21.447  1.00 66.14 LIG 0.16  C 
BRANCH 22 23
ATOM     23  CB  LEU G   7      37.043  13.794  21.328  1.00 64.61 LIG 0.04  C 
BRANCH 23 24
ATOM     24  CG  LEU G   7      36.640  14.765  20.200  1.00 68.76 LIG-0.02  C 
ATOM     25  CD2 LEU G   7      37.616  14.675  19.007  1.00 64.31 LIG 0.01  C 
ATOM     26  CD1 LEU G   7      36.461  16.199  20.711  1.00 66.72 LIG 0.01  C 
ENDBRANCH 23 24
ENDBRANCH 22 23
BRANCH 22 27
ATOM     27  C   LEU G   7      38.970  13.405  22.911  1.00 59.22 LIG 0.22  C 
ATOM     28 O    LEU G   7      38.136  13.290  23.797  1.00 55.72 LIG-0.29  OA
ENDBRANCH 22 27
ENDBRANCH 20 22
ENDBRANCH 17 18
BRANCH 17 29
ATOM     29  CB  LEU G   6      37.900   9.260  19.410  1.00 54.67 LIG 0.04  C 
BRANCH 29 30
ATOM     30  CG  LEU G   6      38.816   9.346  18.168  1.00 53.09 LIG-0.02  C 
ATOM     31  CD1 LEU G   6      39.046   7.967  17.609  1.00 49.97 LIG 0.01  C 
ATOM     32  CD2 LEU G   6      38.294  10.326  17.113  1.00 51.63 LIG 0.01  C 
ENDBRANCH 29 30
ENDBRANCH 17 29
ENDBRANCH 14 17
ENDBRANCH 9 13
ENDBRANCH 1 6
BRANCH 1 33
ATOM     33  N   LEU G   4      40.170   2.939  20.201  1.00 70.21 LIG-0.35  N 
ATOM     34  C   ARG G   3      40.754   1.997  19.451  1.00 75.48 LIG 0.24  C 
ATOM     35 O    ARG G   3      40.729   2.049  18.189  1.00 65.52 LIG-0.27  OA
ATOM     36 H    LEU G   4      40.121   2.918  21.059  1.00 70.21 LIG 0.16  HD
BRANCH 34 37
ATOM     37  CA  ARG G   3      41.437   0.802  20.214  1.00 78.48 LIG 0.18  C 
BRANCH 37 38
ATOM     38  CB  ARG G   3      41.394  -0.505  19.392  1.00 76.51 LIG 0.04  C 
BRANCH 38 39
ATOM     39  CG  ARG G   3      42.703  -1.279  19.342  1.00 78.92 LIG 0.02  C 
BRANCH 39 40
ATOM     40  CD  ARG G   3      42.636  -2.584  20.140  1.00 76.70 LIG 0.14  C 
BRANCH 40 41
ATOM     41  NE  ARG G   3      41.895  -3.684  19.471  1.00 80.12 LIG-0.23  N 
ATOM     42 HE   ARG G   3      42.052  -3.801  18.634  1.00 80.12 LIG 0.18  HD
ATOM     43  CZ  ARG G   3      41.001  -4.519  20.041  1.00 82.69 LIG 0.67  C 
ATOM     44  NH1 ARG G   3      40.623  -4.425  21.327  1.00 73.81 LIG-0.23  N 
ATOM     45  NH2 ARG G   3      40.443  -5.466  19.295  1.00 84.58 LIG-0.23  N 
ATOM     46 1HH1 ARG G   3      40.954  -3.810  21.829  1.00 73.81 LIG 0.17  HD
ATOM     47 2HH1 ARG G   3      40.049  -4.980  21.649  1.00 73.81 LIG 0.17  HD
ATOM     48 2HH2 ARG G   3      39.871  -6.006  19.643  1.00 84.58 LIG 0.17  HD
ATOM     49 1HH2 ARG G   3      40.653  -5.538  18.465  1.00 84.58 LIG 0.17  HD
ENDBRANCH 40 41
ENDBRANCH 39 40
ENDBRANCH 38 39
ENDBRANCH 37 38
BRANCH 37 50
ATOM     50  N   ARG G   3      40.858   0.577  21.571  1.00 95.22 LIG-0.35  N 
ATOM     51  C   PRO G   2      39.571   0.246  21.779  1.00105.18 LIG 0.25  C 
ATOM     52 O    PRO G   2      38.742   0.190  20.863  1.00111.30 LIG-0.27  OA
ATOM     53 H    ARG G   3      41.426   0.680  22.209  1.00 95.22 LIG 0.16  HD
BRANCH 51 54
ATOM     54  CA  PRO G   2      39.128  -0.065  23.243  1.00104.44 LIG 0.35  C 
ATOM     55  N   PRO G   2      39.568  -1.373  23.744  1.00103.34 LIG 0.32  N 
ATOM     56  CD  PRO G   2      39.873  -1.340  25.194  1.00102.42 LIG 0.32  C 
ATOM     57  CG  PRO G   2      39.876   0.138  25.538  1.00 98.38 LIG 0.04  C 
ATOM     58  CB  PRO G   2      39.771   0.913  24.247  1.00102.80 LIG 0.05  C 
ENDBRANCH 51 54
ENDBRANCH 37 50
ENDBRANCH 34 37
ENDBRANCH 1 33
TORSDOF 20
ENDMDL
MODEL 41
USER: ADFR SOLUTION from run 119
USER: SCORE 15.515611 LL:  -4.109 LR: -12.310 RR:   0.000 FEB:  -6.344
USER: RMSD 9.950553
USER: SEED 118
USER: STATUS no improvement in best in 13 clusters for 5 generations
USER: GENES 22
USER: genes 0 Translation |==|  0.38343 0.59604 0.54192
USER: genes 1 Rotation |==|  0.67901 0.28666 0.08532 0.52187
USER: genes 2 Torsion [C]-CA--CB-[CG] |==|  0.19096
USER: genes 3 Torsion [CA]-CB--CG-[CD1] |==|  0.38108
USER: genes 4 Torsion [N]-CA--C-[N] |==|  0.39298
USER: genes 5 Torsion [N]-CA--C-[N] |==|  0.52182
USER: genes 6 Torsion [C]-N--CA-[C] |==|  0.17563
USER: genes 7 Torsion [N]-CA--C-[N] |==|  0.57084
USER: genes 8 Torsion [C]-N--CA-[CB] |==|  0.42685
USER: genes 9 Torsion [N]-CA--CB-[CG] |==|  0.82888
USER: genes 10 Torsion [CA]-CB--CG-[CD2] |==|  0.61313
USER: genes 11 Torsion [N]-CA--C-[O] |==|  0.76733
USER: genes 12 Torsion [N]-CA--CB-[CG] |==|  0.89843
USER: genes 13 Torsion [CA]-CB--CG-[CD2] |==|  0.72249
USER: genes 14 Torsion [CB]-CA--N-[C] |==|  0.83965
USER: genes 15 Torsion [N]-C--CA-[N] |==|  0.11280
USER: genes 16 Torsion [C]-CA--CB-[CG] |==|  0.86460
USER: genes 17 Torsion [CA]-CB--CG-[CD] |==|  0.40657
USER: genes 18 Torsion [CB]-CG--CD-[NE] |==|  0.96510
USER: genes 19 Torsion [CG]-CD--NE-[HE] |==|  0.79068
USER: genes 20 Torsion [C]-CA--N-[C] |==|  0.14248
USER: genes 21 Torsion [N]-C--CA-[CB] |==|  0.78794
ROOT
ATOM      1  CA  LEU G   4      37.950   7.408  24.235  1.00 72.45 LIG 0.18  C 
ENDROOT
BRANCH 1 2
ATOM      2  CB  LEU G   4      36.499   6.862  24.242  1.00 74.60 LIG 0.04  C 
BRANCH 2 3
ATOM      3  CG  LEU G   4      35.831   6.806  25.657  1.00 80.94 LIG-0.02  C 
ATOM      4  CD2 LEU G   4      35.925   5.429  26.340  1.00 76.26 LIG 0.01  C 
ATOM      5  CD1 LEU G   4      34.378   7.297  25.617  1.00 74.38 LIG 0.01  C 
ENDBRANCH 2 3
ENDBRANCH 1 2
BRANCH 1 6
ATOM      6  C   LEU G   4      38.977   6.458  24.915  1.00 69.99 LIG 0.24  C 
ATOM      7 O    LEU G   4      39.661   5.628  24.246  1.00 62.75 LIG-0.27  OA
ATOM      8  N   PRO G   5      39.140   6.631  26.252  1.00 68.53 LIG-0.34  N 
ATOM      9  CA  PRO G   5      40.022   5.711  26.944  1.00 66.41 LIG 0.18  C 
ATOM     10  CD  PRO G   5      38.687   7.724  27.147  1.00 67.94 LIG 0.13  C 
ATOM     11  CB  PRO G   5      40.040   6.259  28.395  1.00 68.06 LIG 0.04  C 
ATOM     12  CG  PRO G   5      39.718   7.715  28.251  1.00 67.97 LIG 0.02  C 
BRANCH 9 13
ATOM     13  C   PRO G   5      39.462   4.289  26.835  1.00 65.16 LIG 0.24  C 
ATOM     14  N   LEU G   6      40.064   3.347  27.550  1.00 58.40 LIG-0.35  N 
ATOM     15 H    LEU G   6      40.642   3.501  28.168  1.00 58.40 LIG 0.16  HD
ATOM     16 O    PRO G   5      38.490   4.054  26.095  1.00 57.12 LIG-0.27  OA
BRANCH 14 17
ATOM     17  CA  LEU G   6      39.772   1.933  27.325  1.00 60.31 LIG 0.18  C 
BRANCH 17 18
ATOM     18  C   LEU G   6      40.148   1.415  25.940  1.00 60.34 LIG 0.24  C 
ATOM     19 O    LEU G   6      41.011   2.009  25.318  1.00 72.64 LIG-0.27  OA
ATOM     20  N   LEU G   7      39.500   0.355  25.437  1.00 65.91 LIG-0.35  N 
ATOM     21 H    LEU G   7      38.809  -0.001  25.806  1.00 65.91 LIG 0.16  HD
BRANCH 20 22
ATOM     22  CA  LEU G   7      39.934  -0.314  24.160  1.00 66.14 LIG 0.16  C 
BRANCH 22 23
ATOM     23  CB  LEU G   7      39.498  -1.791  24.153  1.00 64.61 LIG 0.04  C 
BRANCH 23 24
ATOM     24  CG  LEU G   7      40.052  -2.734  25.239  1.00 68.76 LIG-0.02  C 
ATOM     25  CD2 LEU G   7      40.414  -4.116  24.653  1.00 64.31 LIG 0.01  C 
ATOM     26  CD1 LEU G   7      39.116  -2.833  26.449  1.00 66.72 LIG 0.01  C 
ENDBRANCH 23 24
ENDBRANCH 22 23
BRANCH 22 27
ATOM     27  C   LEU G   7      39.454   0.392  22.886  1.00 59.22 LIG 0.22  C 
ATOM     28 O    LEU G   7      38.332   0.161  22.461  1.00 55.72 LIG-0.29  OA
ENDBRANCH 22 27
ENDBRANCH 20 22
ENDBRANCH 17 18
BRANCH 17 29
ATOM     29  CB  LEU G   6      38.297   1.613  27.676  1.00 54.67 LIG 0.04  C 
BRANCH 29 30
ATOM     30  CG  LEU G   6      37.889   2.459  28.904  1.00 53.09 LIG-0.02  C 
ATOM     31  CD1 LEU G   6      36.545   3.095  28.659  1.00 49.97 LIG 0.01  C 
ATOM     32  CD2 LEU G   6      37.932   1.665  30.211  1.00 51.63 LIG 0.01  C 
ENDBRANCH 29 30
ENDBRANCH 17 29
ENDBRANCH 14 17
ENDBRANCH 9 13
ENDBRANCH 1 6
BRANCH 1 33
ATOM     33  N   LEU G   4      38.381   7.857  22.902  1.00 70.21 LIG-0.35  N 
ATOM     34  C   ARG G   3      38.367   7.012  21.864  1.00 75.48 LIG 0.24  C 
ATOM     35 O    ARG G   3      38.058   5.796  22.006  1.00 65.52 LIG-0.27  OA
ATOM     36 H    LEU G   4      38.632   8.678  22.859  1.00 70.21 LIG 0.16  HD
BRANCH 34 37
ATOM     37  CA  ARG G   3      38.793   7.597  20.465  1.00 78.48 LIG 0.18  C 
BRANCH 37 38
ATOM     38  CB  ARG G   3      39.083   6.480  19.439  1.00 76.51 LIG 0.04  C 
BRANCH 38 39
ATOM     39  CG  ARG G   3      40.001   5.373  19.933  1.00 78.92 LIG 0.02  C 
BRANCH 39 40
ATOM     40  CD  ARG G   3      39.639   4.010  19.336  1.00 76.70 LIG 0.14  C 
BRANCH 40 41
ATOM     41  NE  ARG G   3      38.325   3.963  18.646  1.00 80.12 LIG-0.23  N 
ATOM     42 HE   ARG G   3      37.627   3.946  19.147  1.00 80.12 LIG 0.18  HD
ATOM     43  CZ  ARG G   3      38.114   3.945  17.313  1.00 82.69 LIG 0.67  C 
ATOM     44  NH1 ARG G   3      39.109   3.922  16.410  1.00 73.81 LIG-0.23  N 
ATOM     45  NH2 ARG G   3      36.864   3.923  16.863  1.00 84.58 LIG-0.23  N 
ATOM     46 1HH1 ARG G   3      39.928   3.917  16.673  1.00 73.81 LIG 0.17  HD
ATOM     47 2HH1 ARG G   3      38.927   3.911  15.569  1.00 73.81 LIG 0.17  HD
ATOM     48 2HH2 ARG G   3      36.711   3.911  16.016  1.00 84.58 LIG 0.17  HD
ATOM     49 1HH2 ARG G   3      36.207   3.920  17.418  1.00 84.58 LIG 0.17  HD
ENDBRANCH 40 41
ENDBRANCH 39 40
ENDBRANCH 38 39
ENDBRANCH 37 38
BRANCH 37 50
ATOM     50  N   ARG G   3      39.956   8.527  20.559  1.00 95.22 LIG-0.35  N 
ATOM     51  C   PRO G   2      41.104   8.214  21.185  1.00105.18 LIG 0.25  C 
ATOM     52 O    PRO G   2      41.252   7.159  21.813  1.00111.30 LIG-0.27  OA
ATOM     53 H    ARG G   3      39.823   9.284  20.173  1.00 95.22 LIG 0.16  HD
BRANCH 51 54
ATOM     54  CA  PRO G   2      42.277   9.241  21.112  1.00104.44 LIG 0.35  C 
ATOM     55  N   PRO G   2      43.383   8.964  22.039  1.00103.34 LIG 0.32  N 
ATOM     56  CD  PRO G   2      44.695   9.348  21.469  1.00102.42 LIG 0.32  C 
ATOM     57  CG  PRO G   2      44.398   9.625  20.006  1.00 98.38 LIG 0.04  C 
ATOM     58  CB  PRO G   2      42.974   9.203  19.736  1.00102.80 LIG 0.05  C 
ENDBRANCH 51 54
ENDBRANCH 37 50
ENDBRANCH 34 37
ENDBRANCH 1 33
TORSDOF 20
ENDMDL
MODEL 42
USER: ADFR SOLUTION from run 22
USER: SCORE 15.752247 LL:  -4.396 LR: -12.291 RR:   0.000 FEB:  -6.325
USER: RMSD 5.651888
USER: SEED 21
USER: STATUS no improvement in best in 19 clusters for 5 generations
USER: GENES 22
USER: genes 0 Translation |==|  0.51753 0.37882 0.49311
USER: genes 1 Rotation |==|  0.49507 0.25525 0.44101 0.93197
USER: genes 2 Torsion [C]-CA--CB-[CG] |==|  0.45315
USER: genes 3 Torsion [CA]-CB--CG-[CD1] |==|  0.26584
USER: genes 4 Torsion [N]-CA--C-[N] |==|  0.20177
USER: genes 5 Torsion [N]-CA--C-[N] |==|  0.75344
USER: genes 6 Torsion [C]-N--CA-[C] |==|  0.77217
USER: genes 7 Torsion [N]-CA--C-[N] |==|  0.01030
USER: genes 8 Torsion [C]-N--CA-[CB] |==|  0.24721
USER: genes 9 Torsion [N]-CA--CB-[CG] |==|  0.50852
USER: genes 10 Torsion [CA]-CB--CG-[CD2] |==|  0.06367
USER: genes 11 Torsion [N]-CA--C-[O] |==|  0.96806
USER: genes 12 Torsion [N]-CA--CB-[CG] |==|  0.83855
USER: genes 13 Torsion [CA]-CB--CG-[CD2] |==|  0.24744
USER: genes 14 Torsion [CB]-CA--N-[C] |==|  0.77589
USER: genes 15 Torsion [N]-C--CA-[N] |==|  0.82423
USER: genes 16 Torsion [C]-CA--CB-[CG] |==|  0.54004
USER: genes 17 Torsion [CA]-CB--CG-[CD] |==|  0.71866
USER: genes 18 Torsion [CB]-CG--CD-[NE] |==|  0.75006
USER: genes 19 Torsion [CG]-CD--NE-[HE] |==|  0.28717
USER: genes 20 Torsion [C]-CA--N-[C] |==|  0.20826
USER: genes 21 Torsion [N]-C--CA-[CB] |==|  0.68453
ROOT
ATOM      1  CA  LEU G   4      40.162   1.217  23.284  1.00 72.45 LIG 0.18  C 
ENDROOT
BRANCH 1 2
ATOM      2  CB  LEU G   4      40.475   1.711  24.719  1.00 74.60 LIG 0.04  C 
BRANCH 2 3
ATOM      3  CG  LEU G   4      39.512   1.157  25.823  1.00 80.94 LIG-0.02  C 
ATOM      4  CD2 LEU G   4      39.076   2.210  26.859  1.00 76.26 LIG 0.01  C 
ATOM      5  CD1 LEU G   4      40.096  -0.081  26.515  1.00 74.38 LIG 0.01  C 
ENDBRANCH 2 3
ENDBRANCH 1 2
BRANCH 1 6
ATOM      6  C   LEU G   4      40.834   2.072  22.170  1.00 69.99 LIG 0.24  C 
ATOM      7 O    LEU G   4      41.898   2.725  22.384  1.00 62.75 LIG-0.27  OA
ATOM      8  N   PRO G   5      40.247   2.008  20.948  1.00 68.53 LIG-0.34  N 
ATOM      9  CA  PRO G   5      40.786   2.854  19.901  1.00 66.41 LIG 0.18  C 
ATOM     10  CD  PRO G   5      39.214   1.084  20.419  1.00 67.94 LIG 0.13  C 
ATOM     11  CB  PRO G   5      39.953   2.452  18.655  1.00 68.06 LIG 0.04  C 
ATOM     12  CG  PRO G   5      39.505   1.051  18.938  1.00 67.97 LIG 0.02  C 
BRANCH 9 13
ATOM     13  C   PRO G   5      40.621   4.325  20.299  1.00 65.16 LIG 0.24  C 
ATOM     14  N   LEU G   6      39.486   4.919  19.951  1.00 58.40 LIG-0.35  N 
ATOM     15 H    LEU G   6      38.793   4.507  19.652  1.00 58.40 LIG 0.16  HD
ATOM     16 O    PRO G   5      41.528   4.913  20.913  1.00 57.12 LIG-0.27  OA
BRANCH 14 17
ATOM     17  CA  LEU G   6      39.336   6.369  20.058  1.00 60.31 LIG 0.18  C 
BRANCH 17 18
ATOM     18  C   LEU G   6      38.983   6.874  21.454  1.00 60.34 LIG 0.24  C 
ATOM     19 O    LEU G   6      38.809   8.070  21.606  1.00 72.64 LIG-0.27  OA
ATOM     20  N   LEU G   7      38.911   6.002  22.469  1.00 65.91 LIG-0.35  N 
ATOM     21 H    LEU G   7      39.148   5.177  22.408  1.00 65.91 LIG 0.16  HD
BRANCH 20 22
ATOM     22  CA  LEU G   7      38.400   6.400  23.828  1.00 66.14 LIG 0.16  C 
BRANCH 22 23
ATOM     23  CB  LEU G   7      36.873   6.210  23.905  1.00 64.61 LIG 0.04  C 
BRANCH 23 24
ATOM     24  CG  LEU G   7      36.137   6.628  25.193  1.00 68.76 LIG-0.02  C 
ATOM     25  CD2 LEU G   7      36.945   7.678  25.986  1.00 64.31 LIG 0.01  C 
ATOM     26  CD1 LEU G   7      35.740   5.420  26.049  1.00 66.72 LIG 0.01  C 
ENDBRANCH 23 24
ENDBRANCH 22 23
BRANCH 22 27
ATOM     27  C   LEU G   7      39.088   5.679  24.994  1.00 59.22 LIG 0.22  C 
ATOM     28 O    LEU G   7      39.810   4.721  24.762  1.00 55.72 LIG-0.29  OA
ENDBRANCH 22 27
ENDBRANCH 20 22
ENDBRANCH 17 18
BRANCH 17 29
ATOM     29  CB  LEU G   6      38.349   6.901  18.989  1.00 54.67 LIG 0.04  C 
BRANCH 29 30
ATOM     30  CG  LEU G   6      38.878   6.506  17.592  1.00 53.09 LIG-0.02  C 
ATOM     31  CD1 LEU G   6      40.381   6.604  17.570  1.00 49.97 LIG 0.01  C 
ATOM     32  CD2 LEU G   6      38.374   5.135  17.132  1.00 51.63 LIG 0.01  C 
ENDBRANCH 29 30
ENDBRANCH 17 29
ENDBRANCH 14 17
ENDBRANCH 9 13
ENDBRANCH 1 6
BRANCH 1 33
ATOM     33  N   LEU G   4      40.395  -0.225  23.116  1.00 70.21 LIG-0.35  N 
ATOM     34  C   ARG G   3      41.632  -0.694  22.911  1.00 75.48 LIG 0.24  C 
ATOM     35 O    ARG G   3      42.619   0.082  22.781  1.00 65.52 LIG-0.27  OA
ATOM     36 H    LEU G   4      39.690  -0.715  23.162  1.00 70.21 LIG 0.16  HD
BRANCH 34 37
ATOM     37  CA  ARG G   3      41.791  -2.257  22.800  1.00 78.48 LIG 0.18  C 
BRANCH 37 38
ATOM     38  CB  ARG G   3      40.998  -2.832  21.606  1.00 76.51 LIG 0.04  C 
BRANCH 38 39
ATOM     39  CG  ARG G   3      40.814  -4.342  21.621  1.00 78.92 LIG 0.02  C 
BRANCH 39 40
ATOM     40  CD  ARG G   3      41.785  -5.055  20.677  1.00 76.70 LIG 0.14  C 
BRANCH 40 41
ATOM     41  NE  ARG G   3      41.280  -5.244  19.293  1.00 80.12 LIG-0.23  N 
ATOM     42 HE   ARG G   3      41.594  -4.715  18.692  1.00 80.12 LIG 0.18  HD
ATOM     43  CZ  ARG G   3      40.380  -6.161  18.881  1.00 82.69 LIG 0.67  C 
ATOM     44  NH1 ARG G   3      39.772  -7.022  19.714  1.00 73.81 LIG-0.23  N 
ATOM     45  NH2 ARG G   3      40.053  -6.204  17.594  1.00 84.58 LIG-0.23  N 
ATOM     46 1HH1 ARG G   3      39.950  -7.005  20.555  1.00 73.81 LIG 0.17  HD
ATOM     47 2HH1 ARG G   3      39.204  -7.591  19.407  1.00 73.81 LIG 0.17  HD
ATOM     48 2HH2 ARG G   3      39.480  -6.782  17.314  1.00 84.58 LIG 0.17  HD
ATOM     49 1HH2 ARG G   3      40.413  -5.653  17.040  1.00 84.58 LIG 0.17  HD
ENDBRANCH 40 41
ENDBRANCH 39 40
ENDBRANCH 38 39
ENDBRANCH 37 38
BRANCH 37 50
ATOM     50  N   ARG G   3      41.415  -2.966  24.058  1.00 95.22 LIG-0.35  N 
ATOM     51  C   PRO G   2      40.143  -3.141  24.456  1.00105.18 LIG 0.25  C 
ATOM     52 O    PRO G   2      39.183  -2.646  23.852  1.00111.30 LIG-0.27  OA
ATOM     53 H    ARG G   3      42.091  -3.253  24.506  1.00 95.22 LIG 0.16  HD
BRANCH 51 54
ATOM     54  CA  PRO G   2      39.892  -3.996  25.738  1.00104.44 LIG 0.35  C 
ATOM     55  N   PRO G   2      38.999  -3.367  26.720  1.00103.34 LIG 0.32  N 
ATOM     56  CD  PRO G   2      38.167  -4.364  27.434  1.00102.42 LIG 0.32  C 
ATOM     57  CG  PRO G   2      38.373  -5.648  26.651  1.00 98.38 LIG 0.04  C 
ATOM     58  CB  PRO G   2      39.153  -5.308  25.404  1.00102.80 LIG 0.05  C 
ENDBRANCH 51 54
ENDBRANCH 37 50
ENDBRANCH 34 37
ENDBRANCH 1 33
TORSDOF 20
ENDMDL
MODEL 43
USER: ADFR SOLUTION from run 38
USER: SCORE 15.926933 LL:  -4.602 LR: -12.284 RR:   0.000 FEB:  -6.318
USER: RMSD 10.874553
USER: SEED 37
USER: STATUS no improvement in best in 8 clusters for 5 generations
USER: GENES 22
USER: genes 0 Translation |==|  0.40500 0.52250 0.68969
USER: genes 1 Rotation |==|  0.23203 0.49382 0.91435 0.58045
USER: genes 2 Torsion [C]-CA--CB-[CG] |==|  0.57619
USER: genes 3 Torsion [CA]-CB--CG-[CD1] |==|  0.33489
USER: genes 4 Torsion [N]-CA--C-[N] |==|  0.45690
USER: genes 5 Torsion [N]-CA--C-[N] |==|  0.81707
USER: genes 6 Torsion [C]-N--CA-[C] |==|  0.19871
USER: genes 7 Torsion [N]-CA--C-[N] |==|  0.16017
USER: genes 8 Torsion [C]-N--CA-[CB] |==|  0.45685
USER: genes 9 Torsion [N]-CA--CB-[CG] |==|  0.91297
USER: genes 10 Torsion [CA]-CB--CG-[CD2] |==|  0.83187
USER: genes 11 Torsion [N]-CA--C-[O] |==|  0.00641
USER: genes 12 Torsion [N]-CA--CB-[CG] |==|  0.58062
USER: genes 13 Torsion [CA]-CB--CG-[CD2] |==|  0.01945
USER: genes 14 Torsion [CB]-CA--N-[C] |==|  0.82195
USER: genes 15 Torsion [N]-C--CA-[N] |==|  0.02296
USER: genes 16 Torsion [C]-CA--CB-[CG] |==|  0.43282
USER: genes 17 Torsion [CA]-CB--CG-[CD] |==|  0.87140
USER: genes 18 Torsion [CB]-CG--CD-[NE] |==|  0.89284
USER: genes 19 Torsion [CG]-CD--NE-[HE] |==|  0.82872
USER: genes 20 Torsion [C]-CA--N-[C] |==|  0.66304
USER: genes 21 Torsion [N]-C--CA-[CB] |==|  0.78583
ROOT
ATOM      1  CA  LEU G   4      38.305   5.312  27.117  1.00 72.45 LIG 0.18  C 
ENDROOT
BRANCH 1 2
ATOM      2  CB  LEU G   4      37.164   5.101  26.089  1.00 74.60 LIG 0.04  C 
BRANCH 2 3
ATOM      3  CG  LEU G   4      36.580   6.421  25.484  1.00 80.94 LIG-0.02  C 
ATOM      4  CD2 LEU G   4      35.126   6.710  25.897  1.00 76.26 LIG 0.01  C 
ATOM      5  CD1 LEU G   4      36.732   6.460  23.957  1.00 74.38 LIG 0.01  C 
ENDBRANCH 2 3
ENDBRANCH 1 2
BRANCH 1 6
ATOM      6  C   LEU G   4      39.299   4.118  27.200  1.00 69.99 LIG 0.24  C 
ATOM      7 O    LEU G   4      40.526   4.252  26.910  1.00 62.75 LIG-0.27  OA
ATOM      8  N   PRO G   5      38.781   2.955  27.671  1.00 68.53 LIG-0.34  N 
ATOM      9  CA  PRO G   5      39.647   1.792  27.684  1.00 66.41 LIG 0.18  C 
ATOM     10  CD  PRO G   5      37.490   2.676  28.345  1.00 67.94 LIG 0.13  C 
ATOM     11  CB  PRO G   5      38.771   0.705  28.359  1.00 68.06 LIG 0.04  C 
ATOM     12  CG  PRO G   5      37.801   1.473  29.203  1.00 67.97 LIG 0.02  C 
BRANCH 9 13
ATOM     13  C   PRO G   5      40.055   1.445  26.249  1.00 65.16 LIG 0.24  C 
ATOM     14  N   LEU G   6      39.093   1.037  25.430  1.00 58.40 LIG-0.35  N 
ATOM     15 H    LEU G   6      38.252   1.091  25.604  1.00 58.40 LIG 0.16  HD
ATOM     16 O    PRO G   5      41.244   1.541  25.895  1.00 57.12 LIG-0.27  OA
BRANCH 14 17
ATOM     17  CA  LEU G   6      39.413   0.448  24.132  1.00 60.31 LIG 0.18  C 
BRANCH 17 18
ATOM     18  C   LEU G   6      40.017  -0.952  24.197  1.00 60.34 LIG 0.24  C 
ATOM     19 O    LEU G   6      41.095  -1.139  23.660  1.00 72.64 LIG-0.27  OA
ATOM     20  N   LEU G   7      39.337  -1.934  24.804  1.00 65.91 LIG-0.35  N 
ATOM     21 H    LEU G   7      38.527  -1.853  25.081  1.00 65.91 LIG 0.16  HD
BRANCH 20 22
ATOM     22  CA  LEU G   7      39.944  -3.288  25.057  1.00 66.14 LIG 0.16  C 
BRANCH 22 23
ATOM     23  CB  LEU G   7      39.106  -4.068  26.088  1.00 64.61 LIG 0.04  C 
BRANCH 23 24
ATOM     24  CG  LEU G   7      38.359  -3.284  27.184  1.00 68.76 LIG-0.02  C 
ATOM     25  CD2 LEU G   7      39.339  -2.481  28.067  1.00 64.31 LIG 0.01  C 
ATOM     26  CD1 LEU G   7      37.428  -4.183  28.005  1.00 66.72 LIG 0.01  C 
ENDBRANCH 23 24
ENDBRANCH 22 23
BRANCH 22 27
ATOM     27  C   LEU G   7      40.156  -4.129  23.793  1.00 59.22 LIG 0.22  C 
ATOM     28 O    LEU G   7      39.873  -3.652  22.704  1.00 55.72 LIG-0.29  OA
ENDBRANCH 22 27
ENDBRANCH 20 22
ENDBRANCH 17 18
BRANCH 17 29
ATOM     29  CB  LEU G   6      40.287   1.411  23.291  1.00 54.67 LIG 0.04  C 
BRANCH 29 30
ATOM     30  CG  LEU G   6      40.003   1.151  21.793  1.00 53.09 LIG-0.02  C 
ATOM     31  CD1 LEU G   6      41.269   0.716  21.104  1.00 49.97 LIG 0.01  C 
ATOM     32  CD2 LEU G   6      38.848   0.171  21.570  1.00 51.63 LIG 0.01  C 
ENDBRANCH 29 30
ENDBRANCH 17 29
ENDBRANCH 14 17
ENDBRANCH 9 13
ENDBRANCH 1 6
BRANCH 1 33
ATOM     33  N   LEU G   4      38.982   6.609  26.955  1.00 70.21 LIG-0.35  N 
ATOM     34  C   ARG G   3      39.662   6.885  25.837  1.00 75.48 LIG 0.24  C 
ATOM     35 O    ARG G   3      39.810   6.025  24.924  1.00 65.52 LIG-0.27  OA
ATOM     36 H    LEU G   4      38.899   7.147  27.621  1.00 70.21 LIG 0.16  HD
BRANCH 34 37
ATOM     37  CA  ARG G   3      40.305   8.319  25.731  1.00 78.48 LIG 0.18  C 
BRANCH 37 38
ATOM     38  CB  ARG G   3      41.772   8.257  25.251  1.00 76.51 LIG 0.04  C 
BRANCH 38 39
ATOM     39  CG  ARG G   3      42.285   9.522  24.580  1.00 78.92 LIG 0.02  C 
BRANCH 39 40
ATOM     40  CD  ARG G   3      41.296  10.074  23.549  1.00 76.70 LIG 0.14  C 
BRANCH 40 41
ATOM     41  NE  ARG G   3      40.597   9.041  22.744  1.00 80.12 LIG-0.23  N 
ATOM     42 HE   ARG G   3      41.089   8.535  22.254  1.00 80.12 LIG 0.18  HD
ATOM     43  CZ  ARG G   3      39.267   8.813  22.703  1.00 82.69 LIG 0.67  C 
ATOM     44  NH1 ARG G   3      38.373   9.553  23.380  1.00 73.81 LIG-0.23  N 
ATOM     45  NH2 ARG G   3      38.810   7.828  21.938  1.00 84.58 LIG-0.23  N 
ATOM     46 1HH1 ARG G   3      38.639  10.209  23.869  1.00 73.81 LIG 0.17  HD
ATOM     47 2HH1 ARG G   3      37.533   9.371  23.325  1.00 73.81 LIG 0.17  HD
ATOM     48 2HH2 ARG G   3      37.965   7.669  21.900  1.00 84.58 LIG 0.17  HD
ATOM     49 1HH2 ARG G   3      39.358   7.349  21.480  1.00 84.58 LIG 0.17  HD
ENDBRANCH 40 41
ENDBRANCH 39 40
ENDBRANCH 38 39
ENDBRANCH 37 38
BRANCH 37 50
ATOM     50  N   ARG G   3      40.211   9.088  27.006  1.00 95.22 LIG-0.35  N 
ATOM     51  C   PRO G   2      39.593  10.278  27.107  1.00105.18 LIG 0.25  C 
ATOM     52 O    PRO G   2      39.130  10.872  26.126  1.00111.30 LIG-0.27  OA
ATOM     53 H    ARG G   3      40.591   8.698  27.672  1.00 95.22 LIG 0.16  HD
BRANCH 51 54
ATOM     54  CA  PRO G   2      39.475  10.920  28.525  1.00104.44 LIG 0.35  C 
ATOM     55  N   PRO G   2      39.064  12.329  28.520  1.00103.34 LIG 0.32  N 
ATOM     56  CD  PRO G   2      38.221  12.667  29.691  1.00102.42 LIG 0.32  C 
ATOM     57  CG  PRO G   2      37.878  11.321  30.301  1.00 98.38 LIG 0.04  C 
ATOM     58  CB  PRO G   2      38.364  10.248  29.357  1.00102.80 LIG 0.05  C 
ENDBRANCH 51 54
ENDBRANCH 37 50
ENDBRANCH 34 37
ENDBRANCH 1 33
TORSDOF 20
ENDMDL
MODEL 44
USER: ADFR SOLUTION from run 71
USER: SCORE 16.909894 LL:  -4.941 LR: -12.283 RR:   0.000 FEB:  -6.317
USER: RMSD 5.970428
USER: SEED 70
USER: STATUS no improvement in best in 1 clusters for 5 generations
USER: GENES 22
USER: genes 0 Translation |==|  0.60890 0.39970 0.42690
USER: genes 1 Rotation |==|  0.44372 0.98275 0.39457 0.55169
USER: genes 2 Torsion [C]-CA--CB-[CG] |==|  0.49213
USER: genes 3 Torsion [CA]-CB--CG-[CD1] |==|  0.48563
USER: genes 4 Torsion [N]-CA--C-[N] |==|  0.43254
USER: genes 5 Torsion [N]-CA--C-[N] |==|  0.93169
USER: genes 6 Torsion [C]-N--CA-[C] |==|  0.78089
USER: genes 7 Torsion [N]-CA--C-[N] |==|  0.49997
USER: genes 8 Torsion [C]-N--CA-[CB] |==|  0.13776
USER: genes 9 Torsion [N]-CA--CB-[CG] |==|  0.66754
USER: genes 10 Torsion [CA]-CB--CG-[CD2] |==|  0.29874
USER: genes 11 Torsion [N]-CA--C-[O] |==|  0.41936
USER: genes 12 Torsion [N]-CA--CB-[CG] |==|  0.93870
USER: genes 13 Torsion [CA]-CB--CG-[CD2] |==|  0.69701
USER: genes 14 Torsion [CB]-CA--N-[C] |==|  0.82178
USER: genes 15 Torsion [N]-C--CA-[N] |==|  0.41886
USER: genes 16 Torsion [C]-CA--CB-[CG] |==|  0.14172
USER: genes 17 Torsion [CA]-CB--CG-[CD] |==|  0.31204
USER: genes 18 Torsion [CB]-CG--CD-[NE] |==|  0.38155
USER: genes 19 Torsion [CG]-CD--NE-[HE] |==|  0.72778
USER: genes 20 Torsion [C]-CA--N-[C] |==|  0.81892
USER: genes 21 Torsion [N]-C--CA-[CB] |==|  0.06948
ROOT
ATOM      1  CA  LEU G   4      41.670   1.812  21.993  1.00 72.45 LIG 0.18  C 
ENDROOT
BRANCH 1 2
ATOM      2  CB  LEU G   4      40.470   1.878  21.014  1.00 74.60 LIG 0.04  C 
BRANCH 2 3
ATOM      3  CG  LEU G   4      40.155   0.532  20.278  1.00 80.94 LIG-0.02  C 
ATOM      4  CD2 LEU G   4      41.328  -0.016  19.446  1.00 76.26 LIG 0.01  C 
ATOM      5  CD1 LEU G   4      38.883   0.636  19.427  1.00 74.38 LIG 0.01  C 
ENDBRANCH 2 3
ENDBRANCH 1 2
BRANCH 1 6
ATOM      6  C   LEU G   4      42.007   3.177  22.658  1.00 69.99 LIG 0.24  C 
ATOM      7 O    LEU G   4      41.781   3.393  23.886  1.00 62.75 LIG-0.27  OA
ATOM      8  N   PRO G   5      42.623   4.084  21.857  1.00 68.53 LIG-0.34  N 
ATOM      9  CA  PRO G   5      42.879   5.401  22.409  1.00 66.41 LIG 0.18  C 
ATOM     10  CD  PRO G   5      43.248   3.926  20.522  1.00 67.94 LIG 0.13  C 
ATOM     11  CB  PRO G   5      43.661   6.115  21.276  1.00 68.06 LIG 0.04  C 
ATOM     12  CG  PRO G   5      44.305   5.004  20.505  1.00 67.97 LIG 0.02  C 
BRANCH 9 13
ATOM     13  C   PRO G   5      41.547   6.076  22.752  1.00 65.16 LIG 0.24  C 
ATOM     14  N   LEU G   6      40.474   5.667  22.087  1.00 58.40 LIG-0.35  N 
ATOM     15 H    LEU G   6      40.449   4.965  21.590  1.00 58.40 LIG 0.16  HD
ATOM     16 O    PRO G   5      41.503   6.971  23.615  1.00 57.12 LIG-0.27  OA
BRANCH 14 17
ATOM     17  CA  LEU G   6      39.219   6.412  22.157  1.00 60.31 LIG 0.18  C 
BRANCH 17 18
ATOM     18  C   LEU G   6      38.403   6.171  23.424  1.00 60.34 LIG 0.24  C 
ATOM     19 O    LEU G   6      38.830   5.373  24.241  1.00 72.64 LIG-0.27  OA
ATOM     20  N   LEU G   7      37.235   6.809  23.584  1.00 65.91 LIG-0.35  N 
ATOM     21 H    LEU G   7      36.860   7.279  22.970  1.00 65.91 LIG 0.16  HD
BRANCH 20 22
ATOM     22  CA  LEU G   7      36.467   6.754  24.877  1.00 66.14 LIG 0.16  C 
BRANCH 22 23
ATOM     23  CB  LEU G   7      37.391   7.080  26.066  1.00 64.61 LIG 0.04  C 
BRANCH 23 24
ATOM     24  CG  LEU G   7      37.585   6.020  27.168  1.00 68.76 LIG-0.02  C 
ATOM     25  CD2 LEU G   7      38.989   5.383  27.094  1.00 64.31 LIG 0.01  C 
ATOM     26  CD1 LEU G   7      36.463   4.976  27.168  1.00 66.72 LIG 0.01  C 
ENDBRANCH 23 24
ENDBRANCH 22 23
BRANCH 22 27
ATOM     27  C   LEU G   7      35.221   7.649  24.907  1.00 59.22 LIG 0.22  C 
ATOM     28 O    LEU G   7      34.270   7.326  25.602  1.00 55.72 LIG-0.29  OA
ENDBRANCH 22 27
ENDBRANCH 20 22
ENDBRANCH 17 18
BRANCH 17 29
ATOM     29  CB  LEU G   6      38.373   6.187  20.879  1.00 54.67 LIG 0.04  C 
BRANCH 29 30
ATOM     30  CG  LEU G   6      39.314   5.733  19.740  1.00 53.09 LIG-0.02  C 
ATOM     31  CD1 LEU G   6      38.827   4.427  19.169  1.00 49.97 LIG 0.01  C 
ATOM     32  CD2 LEU G   6      39.505   6.807  18.666  1.00 51.63 LIG 0.01  C 
ENDBRANCH 29 30
ENDBRANCH 17 29
ENDBRANCH 14 17
ENDBRANCH 9 13
ENDBRANCH 1 6
BRANCH 1 33
ATOM     33  N   LEU G   4      41.549   0.716  22.966  1.00 70.21 LIG-0.35  N 
ATOM     34  C   ARG G   3      40.557   0.711  23.864  1.00 75.48 LIG 0.24  C 
ATOM     35 O    ARG G   3      39.743   1.672  23.954  1.00 65.52 LIG-0.27  OA
ATOM     36 H    LEU G   4      42.152   0.107  22.903  1.00 70.21 LIG 0.16  HD
BRANCH 34 37
ATOM     37  CA  ARG G   3      40.475  -0.532  24.828  1.00 78.48 LIG 0.18  C 
BRANCH 37 38
ATOM     38  CB  ARG G   3      39.718  -1.712  24.182  1.00 76.51 LIG 0.04  C 
BRANCH 38 39
ATOM     39  CG  ARG G   3      40.199  -2.106  22.794  1.00 78.92 LIG 0.02  C 
BRANCH 39 40
ATOM     40  CD  ARG G   3      40.864  -3.486  22.780  1.00 76.70 LIG 0.14  C 
BRANCH 40 41
ATOM     41  NE  ARG G   3      40.488  -4.345  21.629  1.00 80.12 LIG-0.23  N 
ATOM     42 HE   ARG G   3      39.873  -4.930  21.770  1.00 80.12 LIG 0.18  HD
ATOM     43  CZ  ARG G   3      41.010  -4.303  20.386  1.00 82.69 LIG 0.67  C 
ATOM     44  NH1 ARG G   3      42.008  -3.474  20.035  1.00 73.81 LIG-0.23  N 
ATOM     45  NH2 ARG G   3      40.540  -5.137  19.465  1.00 84.58 LIG-0.23  N 
ATOM     46 1HH1 ARG G   3      42.344  -2.936  20.615  1.00 73.81 LIG 0.17  HD
ATOM     47 2HH1 ARG G   3      42.310  -3.482  19.229  1.00 73.81 LIG 0.17  HD
ATOM     48 2HH2 ARG G   3      40.862  -5.124  18.668  1.00 84.58 LIG 0.17  HD
ATOM     49 1HH2 ARG G   3      39.913  -5.691  19.667  1.00 84.58 LIG 0.17  HD
ENDBRANCH 40 41
ENDBRANCH 39 40
ENDBRANCH 38 39
ENDBRANCH 37 38
BRANCH 37 50
ATOM     50  N   ARG G   3      39.875  -0.196  26.152  1.00 95.22 LIG-0.35  N 
ATOM     51  C   PRO G   2      40.451   0.640  27.034  1.00105.18 LIG 0.25  C 
ATOM     52 O    PRO G   2      41.573   1.128  26.853  1.00111.30 LIG-0.27  OA
ATOM     53 H    ARG G   3      39.123  -0.588  26.298  1.00 95.22 LIG 0.16  HD
BRANCH 51 54
ATOM     54  CA  PRO G   2      39.658   0.987  28.333  1.00104.44 LIG 0.35  C 
ATOM     55  N   PRO G   2      38.802   2.174  28.221  1.00103.34 LIG 0.32  N 
ATOM     56  CD  PRO G   2      37.561   2.042  29.021  1.00102.42 LIG 0.32  C 
ATOM     57  CG  PRO G   2      37.536   0.581  29.428  1.00 98.38 LIG 0.04  C 
ATOM     58  CB  PRO G   2      38.649  -0.124  28.691  1.00102.80 LIG 0.05  C 
ENDBRANCH 51 54
ENDBRANCH 37 50
ENDBRANCH 34 37
ENDBRANCH 1 33
TORSDOF 20
ENDMDL
MODEL 45
USER: ADFR SOLUTION from run 199
USER: SCORE 14.550014 LL:  -4.340 LR: -12.263 RR:   0.000 FEB:  -6.297
USER: RMSD 10.499853
USER: SEED 198
USER: STATUS no improvement in best in 47 clusters for 5 generations
USER: GENES 22
USER: genes 0 Translation |==|  0.44396 0.55317 0.45854
USER: genes 1 Rotation |==|  0.90930 0.62438 0.38837 0.73355
USER: genes 2 Torsion [C]-CA--CB-[CG] |==|  0.31594
USER: genes 3 Torsion [CA]-CB--CG-[CD1] |==|  0.31752
USER: genes 4 Torsion [N]-CA--C-[N] |==|  0.19889
USER: genes 5 Torsion [N]-CA--C-[N] |==|  0.86832
USER: genes 6 Torsion [C]-N--CA-[C] |==|  0.65663
USER: genes 7 Torsion [N]-CA--C-[N] |==|  0.66913
USER: genes 8 Torsion [C]-N--CA-[CB] |==|  0.82583
USER: genes 9 Torsion [N]-CA--CB-[CG] |==|  0.70426
USER: genes 10 Torsion [CA]-CB--CG-[CD2] |==|  0.80946
USER: genes 11 Torsion [N]-CA--C-[O] |==|  0.99802
USER: genes 12 Torsion [N]-CA--CB-[CG] |==|  0.62517
USER: genes 13 Torsion [CA]-CB--CG-[CD2] |==|  0.96645
USER: genes 14 Torsion [CB]-CA--N-[C] |==|  0.85000
USER: genes 15 Torsion [N]-C--CA-[N] |==|  0.42240
USER: genes 16 Torsion [C]-CA--CB-[CG] |==|  0.00366
USER: genes 17 Torsion [CA]-CB--CG-[CD] |==|  0.42450
USER: genes 18 Torsion [CB]-CG--CD-[NE] |==|  0.68411
USER: genes 19 Torsion [CG]-CD--NE-[HE] |==|  0.07642
USER: genes 20 Torsion [C]-CA--N-[C] |==|  0.78494
USER: genes 21 Torsion [N]-C--CA-[CB] |==|  0.79602
ROOT
ATOM      1  CA  LEU G   4      38.948   6.186  22.610  1.00 72.45 LIG 0.18  C 
ENDROOT
BRANCH 1 2
ATOM      2  CB  LEU G   4      40.290   5.656  22.042  1.00 74.60 LIG 0.04  C 
BRANCH 2 3
ATOM      3  CG  LEU G   4      40.262   4.154  21.601  1.00 80.94 LIG-0.02  C 
ATOM      4  CD2 LEU G   4      41.253   3.259  22.367  1.00 76.26 LIG 0.01  C 
ATOM      5  CD1 LEU G   4      40.451   4.005  20.085  1.00 74.38 LIG 0.01  C 
ENDBRANCH 2 3
ENDBRANCH 1 2
BRANCH 1 6
ATOM      6  C   LEU G   4      39.013   6.556  24.119  1.00 69.99 LIG 0.24  C 
ATOM      7 O    LEU G   4      40.103   6.877  24.680  1.00 62.75 LIG-0.27  OA
ATOM      8  N   PRO G   5      37.820   6.583  24.768  1.00 68.53 LIG-0.34  N 
ATOM      9  CA  PRO G   5      37.840   6.838  26.196  1.00 66.41 LIG 0.18  C 
ATOM     10  CD  PRO G   5      36.434   6.553  24.242  1.00 67.94 LIG 0.13  C 
ATOM     11  CB  PRO G   5      36.335   6.892  26.568  1.00 68.06 LIG 0.04  C 
ATOM     12  CG  PRO G   5      35.648   7.292  25.298  1.00 67.97 LIG 0.02  C 
BRANCH 9 13
ATOM     13  C   PRO G   5      38.605   5.714  26.903  1.00 65.16 LIG 0.24  C 
ATOM     14  N   LEU G   6      38.294   4.468  26.566  1.00 58.40 LIG-0.35  N 
ATOM     15 H    LEU G   6      37.807   4.255  25.890  1.00 58.40 LIG 0.16  HD
ATOM     16 O    PRO G   5      39.468   5.985  27.756  1.00 57.12 LIG-0.27  OA
BRANCH 14 17
ATOM     17  CA  LEU G   6      38.778   3.336  27.353  1.00 60.31 LIG 0.18  C 
BRANCH 17 18
ATOM     18  C   LEU G   6      39.572   2.301  26.562  1.00 60.34 LIG 0.24  C 
ATOM     19 O    LEU G   6      40.581   2.667  25.985  1.00 72.64 LIG-0.27  OA
ATOM     20  N   LEU G   7      39.123   1.040  26.494  1.00 65.91 LIG-0.35  N 
ATOM     21 H    LEU G   7      38.355   0.790  26.790  1.00 65.91 LIG 0.16  HD
BRANCH 20 22
ATOM     22  CA  LEU G   7      39.939  -0.067  25.882  1.00 66.14 LIG 0.16  C 
BRANCH 22 23
ATOM     23  CB  LEU G   7      40.195   0.216  24.390  1.00 64.61 LIG 0.04  C 
BRANCH 23 24
ATOM     24  CG  LEU G   7      39.428  -0.607  23.336  1.00 68.76 LIG-0.02  C 
ATOM     25  CD2 LEU G   7      39.889  -2.081  23.331  1.00 64.31 LIG 0.01  C 
ATOM     26  CD1 LEU G   7      39.490   0.035  21.946  1.00 66.72 LIG 0.01  C 
ENDBRANCH 23 24
ENDBRANCH 22 23
BRANCH 22 27
ATOM     27  C   LEU G   7      41.261  -0.348  26.608  1.00 59.22 LIG 0.22  C 
ATOM     28 O    LEU G   7      41.561   0.322  27.584  1.00 55.72 LIG-0.29  OA
ENDBRANCH 22 27
ENDBRANCH 20 22
ENDBRANCH 17 18
BRANCH 17 29
ATOM     29  CB  LEU G   6      37.620   2.684  28.150  1.00 54.67 LIG 0.04  C 
BRANCH 29 30
ATOM     30  CG  LEU G   6      38.104   2.421  29.594  1.00 53.09 LIG-0.02  C 
ATOM     31  CD1 LEU G   6      37.621   1.071  30.054  1.00 49.97 LIG 0.01  C 
ATOM     32  CD2 LEU G   6      39.618   2.586  29.751  1.00 51.63 LIG 0.01  C 
ENDBRANCH 29 30
ENDBRANCH 17 29
ENDBRANCH 14 17
ENDBRANCH 9 13
ENDBRANCH 1 6
BRANCH 1 33
ATOM     33  N   LEU G   4      38.365   7.255  21.784  1.00 70.21 LIG-0.35  N 
ATOM     34  C   ARG G   3      39.082   8.341  21.473  1.00 75.48 LIG 0.24  C 
ATOM     35 O    ARG G   3      40.244   8.520  21.934  1.00 65.52 LIG-0.27  OA
ATOM     36 H    LEU G   4      37.554   7.118  21.532  1.00 70.21 LIG 0.16  HD
BRANCH 34 37
ATOM     37  CA  ARG G   3      38.393   9.405  20.538  1.00 78.48 LIG 0.18  C 
BRANCH 37 38
ATOM     38  CB  ARG G   3      38.517   9.025  19.046  1.00 76.51 LIG 0.04  C 
BRANCH 38 39
ATOM     39  CG  ARG G   3      39.234   7.713  18.771  1.00 78.92 LIG 0.02  C 
BRANCH 39 40
ATOM     40  CD  ARG G   3      38.777   7.064  17.462  1.00 76.70 LIG 0.14  C 
BRANCH 40 41
ATOM     41  NE  ARG G   3      38.052   5.779  17.626  1.00 80.12 LIG-0.23  N 
ATOM     42 HE   ARG G   3      37.627   5.667  18.365  1.00 80.12 LIG 0.18  HD
ATOM     43  CZ  ARG G   3      37.990   4.767  16.735  1.00 82.69 LIG 0.67  C 
ATOM     44  NH1 ARG G   3      38.641   4.782  15.559  1.00 73.81 LIG-0.23  N 
ATOM     45  NH2 ARG G   3      37.275   3.689  17.038  1.00 84.58 LIG-0.23  N 
ATOM     46 1HH1 ARG G   3      39.127   5.458  15.345  1.00 73.81 LIG 0.17  HD
ATOM     47 2HH1 ARG G   3      38.573   4.114  15.021  1.00 73.81 LIG 0.17  HD
ATOM     48 2HH2 ARG G   3      37.226   3.035  16.481  1.00 84.58 LIG 0.17  HD
ATOM     49 1HH2 ARG G   3      36.862   3.645  17.791  1.00 84.58 LIG 0.17  HD
ENDBRANCH 40 41
ENDBRANCH 39 40
ENDBRANCH 38 39
ENDBRANCH 37 38
BRANCH 37 50
ATOM     50  N   ARG G   3      38.906  10.788  20.763  1.00 95.22 LIG-0.35  N 
ATOM     51  C   PRO G   2      38.536  11.553  21.805  1.00105.18 LIG 0.25  C 
ATOM     52 O    PRO G   2      37.669  11.201  22.613  1.00111.30 LIG-0.27  OA
ATOM     53 H    ARG G   3      39.463  11.051  20.162  1.00 95.22 LIG 0.16  HD
BRANCH 51 54
ATOM     54  CA  PRO G   2      39.236  12.938  21.976  1.00104.44 LIG 0.35  C 
ATOM     55  N   PRO G   2      38.633  13.798  23.003  1.00103.34 LIG 0.32  N 
ATOM     56  CD  PRO G   2      39.645  14.629  23.696  1.00102.42 LIG 0.32  C 
ATOM     57  CG  PRO G   2      40.973  14.044  23.251  1.00 98.38 LIG 0.04  C 
ATOM     58  CB  PRO G   2      40.685  12.780  22.478  1.00102.80 LIG 0.05  C 
ENDBRANCH 51 54
ENDBRANCH 37 50
ENDBRANCH 34 37
ENDBRANCH 1 33
TORSDOF 20
ENDMDL
MODEL 46
USER: ADFR SOLUTION from run 122
USER: SCORE 15.070602 LL:  -3.812 LR: -12.264 RR:   0.000 FEB:  -6.298
USER: RMSD 5.545322
USER: SEED 121
USER: STATUS no improvement in best in 17 clusters for 5 generations
USER: GENES 22
USER: genes 0 Translation |==|  0.48395 0.35529 0.62504
USER: genes 1 Rotation |==|  0.77340 0.36956 0.42848 0.89131
USER: genes 2 Torsion [C]-CA--CB-[CG] |==|  0.26325
USER: genes 3 Torsion [CA]-CB--CG-[CD1] |==|  0.49630
USER: genes 4 Torsion [N]-CA--C-[N] |==|  0.83286
USER: genes 5 Torsion [N]-CA--C-[N] |==|  0.40003
USER: genes 6 Torsion [C]-N--CA-[C] |==|  0.84605
USER: genes 7 Torsion [N]-CA--C-[N] |==|  0.41630
USER: genes 8 Torsion [C]-N--CA-[CB] |==|  0.82133
USER: genes 9 Torsion [N]-CA--CB-[CG] |==|  0.70102
USER: genes 10 Torsion [CA]-CB--CG-[CD2] |==|  0.83171
USER: genes 11 Torsion [N]-CA--C-[O] |==|  0.08337
USER: genes 12 Torsion [N]-CA--CB-[CG] |==|  0.75459
USER: genes 13 Torsion [CA]-CB--CG-[CD2] |==|  0.04357
USER: genes 14 Torsion [CB]-CA--N-[C] |==|  0.21417
USER: genes 15 Torsion [N]-C--CA-[N] |==|  0.42601
USER: genes 16 Torsion [C]-CA--CB-[CG] |==|  0.22208
USER: genes 17 Torsion [CA]-CB--CG-[CD] |==|  0.35751
USER: genes 18 Torsion [CB]-CG--CD-[NE] |==|  0.94337
USER: genes 19 Torsion [CG]-CD--NE-[HE] |==|  0.23663
USER: genes 20 Torsion [C]-CA--N-[C] |==|  0.56481
USER: genes 21 Torsion [N]-C--CA-[CB] |==|  0.55966
ROOT
ATOM      1  CA  LEU G   4      39.608   0.547  25.856  1.00 72.45 LIG 0.18  C 
ENDROOT
BRANCH 1 2
ATOM      2  CB  LEU G   4      40.306  -0.283  26.964  1.00 74.60 LIG 0.04  C 
BRANCH 2 3
ATOM      3  CG  LEU G   4      39.329  -0.958  27.985  1.00 80.94 LIG-0.02  C 
ATOM      4  CD2 LEU G   4      38.357   0.023  28.664  1.00 76.26 LIG 0.01  C 
ATOM      5  CD1 LEU G   4      40.087  -1.788  29.030  1.00 74.38 LIG 0.01  C 
ENDBRANCH 2 3
ENDBRANCH 1 2
BRANCH 1 6
ATOM      6  C   LEU G   4      39.497   2.063  26.189  1.00 69.99 LIG 0.24  C 
ATOM      7 O    LEU G   4      38.394   2.594  26.512  1.00 62.75 LIG-0.27  OA
ATOM      8  N   PRO G   5      40.668   2.751  26.183  1.00 68.53 LIG-0.34  N 
ATOM      9  CA  PRO G   5      40.603   4.183  26.403  1.00 66.41 LIG 0.18  C 
ATOM     10  CD  PRO G   5      42.070   2.272  26.146  1.00 67.94 LIG 0.13  C 
ATOM     11  CB  PRO G   5      42.095   4.607  26.426  1.00 68.06 LIG 0.04  C 
ATOM     12  CG  PRO G   5      42.830   3.372  26.848  1.00 67.97 LIG 0.02  C 
BRANCH 9 13
ATOM     13  C   PRO G   5      39.800   4.836  25.272  1.00 65.16 LIG 0.24  C 
ATOM     14  N   LEU G   6      39.031   5.868  25.597  1.00 58.40 LIG-0.35  N 
ATOM     15 H    LEU G   6      39.062   6.279  26.353  1.00 58.40 LIG 0.16  HD
ATOM     16 O    PRO G   5      39.877   4.393  24.113  1.00 57.12 LIG-0.27  OA
BRANCH 14 17
ATOM     17  CA  LEU G   6      38.045   6.394  24.656  1.00 60.31 LIG 0.18  C 
BRANCH 17 18
ATOM     18  C   LEU G   6      38.609   6.796  23.296  1.00 60.34 LIG 0.24  C 
ATOM     19 O    LEU G   6      39.750   7.223  23.250  1.00 72.64 LIG-0.27  OA
ATOM     20  N   LEU G   7      37.832   6.704  22.209  1.00 65.91 LIG-0.35  N 
ATOM     21 H    LEU G   7      36.991   6.522  22.237  1.00 65.91 LIG 0.16  HD
BRANCH 20 22
ATOM     22  CA  LEU G   7      38.372   6.915  20.820  1.00 66.14 LIG 0.16  C 
BRANCH 22 23
ATOM     23  CB  LEU G   7      38.862   8.366  20.650  1.00 64.61 LIG 0.04  C 
BRANCH 23 24
ATOM     24  CG  LEU G   7      38.034   9.331  19.779  1.00 68.76 LIG-0.02  C 
ATOM     25  CD2 LEU G   7      37.930   8.825  18.323  1.00 64.31 LIG 0.01  C 
ATOM     26  CD1 LEU G   7      38.549  10.773  19.866  1.00 66.72 LIG 0.01  C 
ENDBRANCH 23 24
ENDBRANCH 22 23
BRANCH 22 27
ATOM     27  C   LEU G   7      39.474   5.928  20.417  1.00 59.22 LIG 0.22  C 
ATOM     28 O    LEU G   7      39.469   4.801  20.890  1.00 55.72 LIG-0.29  OA
ENDBRANCH 22 27
ENDBRANCH 20 22
ENDBRANCH 17 18
BRANCH 17 29
ATOM     29  CB  LEU G   6      37.227   7.542  25.299  1.00 54.67 LIG 0.04  C 
BRANCH 29 30
ATOM     30  CG  LEU G   6      36.008   6.930  26.026  1.00 53.09 LIG-0.02  C 
ATOM     31  CD1 LEU G   6      34.744   7.296  25.293  1.00 49.97 LIG 0.01  C 
ATOM     32  CD2 LEU G   6      36.143   5.421  26.243  1.00 51.63 LIG 0.01  C 
ENDBRANCH 29 30
ENDBRANCH 17 29
ENDBRANCH 14 17
ENDBRANCH 9 13
ENDBRANCH 1 6
BRANCH 1 33
ATOM     33  N   LEU G   4      40.169   0.295  24.520  1.00 70.21 LIG-0.35  N 
ATOM     34  C   ARG G   3      39.852  -0.819  23.850  1.00 75.48 LIG 0.24  C 
ATOM     35 O    ARG G   3      39.130  -1.718  24.365  1.00 65.52 LIG-0.27  OA
ATOM     36 H    LEU G   4      40.696   0.907  24.226  1.00 70.21 LIG 0.16  HD
BRANCH 34 37
ATOM     37  CA  ARG G   3      40.456  -0.976  22.403  1.00 78.48 LIG 0.18  C 
BRANCH 37 38
ATOM     38  CB  ARG G   3      39.634  -0.201  21.350  1.00 76.51 LIG 0.04  C 
BRANCH 38 39
ATOM     39  CG  ARG G   3      39.913   1.293  21.286  1.00 78.92 LIG 0.02  C 
BRANCH 39 40
ATOM     40  CD  ARG G   3      40.214   1.766  19.861  1.00 76.70 LIG 0.14  C 
BRANCH 40 41
ATOM     41  NE  ARG G   3      40.646   0.694  18.929  1.00 80.12 LIG-0.23  N 
ATOM     42 HE   ARG G   3      40.023   0.249  18.539  1.00 80.12 LIG 0.18  HD
ATOM     43  CZ  ARG G   3      41.915   0.346  18.631  1.00 82.69 LIG 0.67  C 
ATOM     44  NH1 ARG G   3      42.989   0.922  19.198  1.00 73.81 LIG-0.23  N 
ATOM     45  NH2 ARG G   3      42.123  -0.630  17.755  1.00 84.58 LIG-0.23  N 
ATOM     46 1HH1 ARG G   3      42.884   1.545  19.783  1.00 73.81 LIG 0.17  HD
ATOM     47 2HH1 ARG G   3      43.781   0.669  18.978  1.00 73.81 LIG 0.17  HD
ATOM     48 2HH2 ARG G   3      42.926  -0.864  17.553  1.00 84.58 LIG 0.17  HD
ATOM     49 1HH2 ARG G   3      41.454  -1.028  17.389  1.00 84.58 LIG 0.17  HD
ENDBRANCH 40 41
ENDBRANCH 39 40
ENDBRANCH 38 39
ENDBRANCH 37 38
BRANCH 37 50
ATOM     50  N   ARG G   3      40.606  -2.403  21.993  1.00 95.22 LIG-0.35  N 
ATOM     51  C   PRO G   2      41.476  -2.813  21.053  1.00105.18 LIG 0.25  C 
ATOM     52 O    PRO G   2      42.159  -2.025  20.389  1.00111.30 LIG-0.27  OA
ATOM     53 H    ARG G   3      40.083  -2.939  22.415  1.00 95.22 LIG 0.16  HD
BRANCH 51 54
ATOM     54  CA  PRO G   2      41.604  -4.349  20.802  1.00104.44 LIG 0.35  C 
ATOM     55  N   PRO G   2      40.623  -4.891  19.853  1.00103.34 LIG 0.32  N 
ATOM     56  CD  PRO G   2      41.184  -5.999  19.045  1.00102.42 LIG 0.32  C 
ATOM     57  CG  PRO G   2      42.674  -5.949  19.331  1.00 98.38 LIG 0.04  C 
ATOM     58  CB  PRO G   2      42.949  -4.700  20.132  1.00102.80 LIG 0.05  C 
ENDBRANCH 51 54
ENDBRANCH 37 50
ENDBRANCH 34 37
ENDBRANCH 1 33
TORSDOF 20
ENDMDL
MODEL 47
USER: ADFR SOLUTION from run 102
USER: SCORE 15.020779 LL:  -4.110 LR: -12.263 RR:   0.000 FEB:  -6.297
USER: RMSD 10.683737
USER: SEED 101
USER: STATUS no improvement in best in 14 clusters for 5 generations
USER: GENES 22
USER: genes 0 Translation |==|  0.36307 0.56608 0.57829
USER: genes 1 Rotation |==|  0.68521 0.34861 0.06267 0.53902
USER: genes 2 Torsion [C]-CA--CB-[CG] |==|  0.30373
USER: genes 3 Torsion [CA]-CB--CG-[CD1] |==|  0.90684
USER: genes 4 Torsion [N]-CA--C-[N] |==|  0.34457
USER: genes 5 Torsion [N]-CA--C-[N] |==|  0.61493
USER: genes 6 Torsion [C]-N--CA-[C] |==|  0.14827
USER: genes 7 Torsion [N]-CA--C-[N] |==|  0.63994
USER: genes 8 Torsion [C]-N--CA-[CB] |==|  0.29703
USER: genes 9 Torsion [N]-CA--CB-[CG] |==|  0.15138
USER: genes 10 Torsion [CA]-CB--CG-[CD2] |==|  0.78016
USER: genes 11 Torsion [N]-CA--C-[O] |==|  0.59329
USER: genes 12 Torsion [N]-CA--CB-[CG] |==|  0.89473
USER: genes 13 Torsion [CA]-CB--CG-[CD2] |==|  0.67765
USER: genes 14 Torsion [CB]-CA--N-[C] |==|  0.51111
USER: genes 15 Torsion [N]-C--CA-[N] |==|  0.89854
USER: genes 16 Torsion [C]-CA--CB-[CG] |==|  0.27751
USER: genes 17 Torsion [CA]-CB--CG-[CD] |==|  0.68682
USER: genes 18 Torsion [CB]-CG--CD-[NE] |==|  0.27472
USER: genes 19 Torsion [CG]-CD--NE-[HE] |==|  0.22339
USER: genes 20 Torsion [C]-CA--N-[C] |==|  0.80516
USER: genes 21 Torsion [N]-C--CA-[CB] |==|  0.56218
ROOT
ATOM      1  CA  LEU G   4      37.614   6.554  24.945  1.00 72.45 LIG 0.18  C 
ENDROOT
BRANCH 1 2
ATOM      2  CB  LEU G   4      36.261   5.799  24.880  1.00 74.60 LIG 0.04  C 
BRANCH 2 3
ATOM      3  CG  LEU G   4      35.250   6.176  26.015  1.00 80.94 LIG-0.02  C 
ATOM      4  CD2 LEU G   4      34.267   7.296  25.632  1.00 76.26 LIG 0.01  C 
ATOM      5  CD1 LEU G   4      35.971   6.507  27.328  1.00 74.38 LIG 0.01  C 
ENDBRANCH 2 3
ENDBRANCH 1 2
BRANCH 1 6
ATOM      6  C   LEU G   4      38.812   5.653  25.360  1.00 69.99 LIG 0.24  C 
ATOM      7 O    LEU G   4      39.357   4.853  24.543  1.00 62.75 LIG-0.27  OA
ATOM      8  N   PRO G   5      39.274   5.837  26.624  1.00 68.53 LIG-0.34  N 
ATOM      9  CA  PRO G   5      40.332   4.959  27.084  1.00 66.41 LIG 0.18  C 
ATOM     10  CD  PRO G   5      38.993   6.911  27.607  1.00 67.94 LIG 0.13  C 
ATOM     11  CB  PRO G   5      40.663   5.512  28.495  1.00 68.06 LIG 0.04  C 
ATOM     12  CG  PRO G   5      40.252   6.951  28.442  1.00 67.97 LIG 0.02  C 
BRANCH 9 13
ATOM     13  C   PRO G   5      39.825   3.513  27.097  1.00 65.16 LIG 0.24  C 
ATOM     14  N   LEU G   6      40.172   2.762  28.135  1.00 58.40 LIG-0.35  N 
ATOM     15 H    LEU G   6      40.532   3.065  28.855  1.00 58.40 LIG 0.16  HD
ATOM     16 O    PRO G   5      39.128   3.086  26.160  1.00 57.12 LIG-0.27  OA
BRANCH 14 17
ATOM     17  CA  LEU G   6      39.956   1.317  28.120  1.00 60.31 LIG 0.18  C 
BRANCH 17 18
ATOM     18  C   LEU G   6      40.546   0.595  26.913  1.00 60.34 LIG 0.24  C 
ATOM     19 O    LEU G   6      41.701   0.834  26.607  1.00 72.64 LIG-0.27  OA
ATOM     20  N   LEU G   7      39.775  -0.245  26.208  1.00 65.91 LIG-0.35  N 
ATOM     21 H    LEU G   7      38.929  -0.334  26.333  1.00 65.91 LIG 0.16  HD
BRANCH 20 22
ATOM     22  CA  LEU G   7      40.335  -1.119  25.118  1.00 66.14 LIG 0.16  C 
BRANCH 22 23
ATOM     23  CB  LEU G   7      40.394  -2.586  25.583  1.00 64.61 LIG 0.04  C 
BRANCH 23 24
ATOM     24  CG  LEU G   7      39.107  -3.249  26.111  1.00 68.76 LIG-0.02  C 
ATOM     25  CD2 LEU G   7      38.819  -2.834  27.570  1.00 64.31 LIG 0.01  C 
ATOM     26  CD1 LEU G   7      39.123  -4.771  25.923  1.00 66.72 LIG 0.01  C 
ENDBRANCH 23 24
ENDBRANCH 22 23
BRANCH 22 27
ATOM     27  C   LEU G   7      39.593  -1.010  23.781  1.00 59.22 LIG 0.22  C 
ATOM     28 O    LEU G   7      39.498  -1.998  23.068  1.00 55.72 LIG-0.29  OA
ENDBRANCH 22 27
ENDBRANCH 20 22
ENDBRANCH 17 18
BRANCH 17 29
ATOM     29  CB  LEU G   6      38.455   0.983  28.311  1.00 54.67 LIG 0.04  C 
BRANCH 29 30
ATOM     30  CG  LEU G   6      37.855   1.979  29.330  1.00 53.09 LIG-0.02  C 
ATOM     31  CD1 LEU G   6      36.777   2.796  28.668  1.00 49.97 LIG 0.01  C 
ATOM     32  CD2 LEU G   6      37.369   1.296  30.611  1.00 51.63 LIG 0.01  C 
ENDBRANCH 29 30
ENDBRANCH 17 29
ENDBRANCH 14 17
ENDBRANCH 9 13
ENDBRANCH 1 6
BRANCH 1 33
ATOM     33  N   LEU G   4      37.884   7.340  23.731  1.00 70.21 LIG-0.35  N 
ATOM     34  C   ARG G   3      39.045   7.990  23.586  1.00 75.48 LIG 0.24  C 
ATOM     35 O    ARG G   3      39.908   8.012  24.508  1.00 65.52 LIG-0.27  OA
ATOM     36 H    LEU G   4      37.250   7.340  23.150  1.00 70.21 LIG 0.16  HD
BRANCH 34 37
ATOM     37  CA  ARG G   3      39.267   8.758  22.230  1.00 78.48 LIG 0.18  C 
BRANCH 37 38
ATOM     38  CB  ARG G   3      38.724  10.203  22.291  1.00 76.51 LIG 0.04  C 
BRANCH 38 39
ATOM     39  CG  ARG G   3      39.773  11.276  22.537  1.00 78.92 LIG 0.02  C 
BRANCH 39 40
ATOM     40  CD  ARG G   3      39.606  11.949  23.902  1.00 76.70 LIG 0.14  C 
BRANCH 40 41
ATOM     41  NE  ARG G   3      40.508  11.432  24.963  1.00 80.12 LIG-0.23  N 
ATOM     42 HE   ARG G   3      41.314  11.732  24.964  1.00 80.12 LIG 0.18  HD
ATOM     43  CZ  ARG G   3      40.193  10.541  25.926  1.00 82.69 LIG 0.67  C 
ATOM     44  NH1 ARG G   3      38.988   9.954  26.020  1.00 73.81 LIG-0.23  N 
ATOM     45  NH2 ARG G   3      41.122  10.201  26.813  1.00 84.58 LIG-0.23  N 
ATOM     46 1HH1 ARG G   3      38.373  10.140  25.449  1.00 73.81 LIG 0.17  HD
ATOM     47 2HH1 ARG G   3      38.832   9.391  26.651  1.00 73.81 LIG 0.17  HD
ATOM     48 2HH2 ARG G   3      40.939   9.634  27.433  1.00 84.58 LIG 0.17  HD
ATOM     49 1HH2 ARG G   3      41.908  10.548  26.766  1.00 84.58 LIG 0.17  HD
ENDBRANCH 40 41
ENDBRANCH 39 40
ENDBRANCH 38 39
ENDBRANCH 37 38
BRANCH 37 50
ATOM     50  N   ARG G   3      38.687   8.038  21.058  1.00 95.22 LIG-0.35  N 
ATOM     51  C   PRO G   2      39.194   6.893  20.570  1.00105.18 LIG 0.25  C 
ATOM     52 O    PRO G   2      40.239   6.392  21.000  1.00111.30 LIG-0.27  OA
ATOM     53 H    ARG G   3      37.995   8.426  20.724  1.00 95.22 LIG 0.16  HD
BRANCH 51 54
ATOM     54  CA  PRO G   2      38.421   6.191  19.409  1.00104.44 LIG 0.35  C 
ATOM     55  N   PRO G   2      38.777   6.672  18.067  1.00103.34 LIG 0.32  N 
ATOM     56  CD  PRO G   2      38.720   5.590  17.056  1.00102.42 LIG 0.32  C 
ATOM     57  CG  PRO G   2      38.583   4.321  17.877  1.00 98.38 LIG 0.04  C 
ATOM     58  CB  PRO G   2      38.764   4.689  19.330  1.00102.80 LIG 0.05  C 
ENDBRANCH 51 54
ENDBRANCH 37 50
ENDBRANCH 34 37
ENDBRANCH 1 33
TORSDOF 20
ENDMDL
MODEL 48
USER: ADFR SOLUTION from run 35
USER: SCORE 15.070345 LL:  -4.457 LR: -12.250 RR:   0.000 FEB:  -6.284
USER: RMSD 10.504506
USER: SEED 34
USER: STATUS searching
USER: GENES 22
USER: genes 0 Translation |==|  0.44546 0.52084 0.66310
USER: genes 1 Rotation |==|  0.32863 0.61688 0.95117 0.55849
USER: genes 2 Torsion [C]-CA--CB-[CG] |==|  0.54877
USER: genes 3 Torsion [CA]-CB--CG-[CD1] |==|  0.27667
USER: genes 4 Torsion [N]-CA--C-[N] |==|  0.55000
USER: genes 5 Torsion [N]-CA--C-[N] |==|  0.83410
USER: genes 6 Torsion [C]-N--CA-[C] |==|  0.16830
USER: genes 7 Torsion [N]-CA--C-[N] |==|  0.11955
USER: genes 8 Torsion [C]-N--CA-[CB] |==|  0.49537
USER: genes 9 Torsion [N]-CA--CB-[CG] |==|  0.93574
USER: genes 10 Torsion [CA]-CB--CG-[CD2] |==|  0.77604
USER: genes 11 Torsion [N]-CA--C-[O] |==|  0.96527
USER: genes 12 Torsion [N]-CA--CB-[CG] |==|  0.60640
USER: genes 13 Torsion [CA]-CB--CG-[CD2] |==|  0.01824
USER: genes 14 Torsion [CB]-CA--N-[C] |==|  0.79305
USER: genes 15 Torsion [N]-C--CA-[N] |==|  0.52060
USER: genes 16 Torsion [C]-CA--CB-[CG] |==|  0.32190
USER: genes 17 Torsion [CA]-CB--CG-[CD] |==|  0.75437
USER: genes 18 Torsion [CB]-CG--CD-[NE] |==|  0.88258
USER: genes 19 Torsion [CG]-CD--NE-[HE] |==|  0.89585
USER: genes 20 Torsion [C]-CA--N-[C] |==|  0.17736
USER: genes 21 Torsion [N]-C--CA-[CB] |==|  0.64614
ROOT
ATOM      1  CA  LEU G   4      38.973   5.265  26.598  1.00 72.45 LIG 0.18  C 
ENDROOT
BRANCH 1 2
ATOM      2  CB  LEU G   4      37.467   5.011  26.334  1.00 74.60 LIG 0.04  C 
BRANCH 2 3
ATOM      3  CG  LEU G   4      36.688   6.246  25.766  1.00 80.94 LIG-0.02  C 
ATOM      4  CD2 LEU G   4      35.342   6.512  26.464  1.00 76.26 LIG 0.01  C 
ATOM      5  CD1 LEU G   4      36.506   6.149  24.246  1.00 74.38 LIG 0.01  C 
ENDBRANCH 2 3
ENDBRANCH 1 2
BRANCH 1 6
ATOM      6  C   LEU G   4      39.809   3.961  26.741  1.00 69.99 LIG 0.24  C 
ATOM      7 O    LEU G   4      41.037   3.920  26.431  1.00 62.75 LIG-0.27  OA
ATOM      8  N   PRO G   5      39.156   2.901  27.284  1.00 68.53 LIG-0.34  N 
ATOM      9  CA  PRO G   5      39.869   1.640  27.356  1.00 66.41 LIG 0.18  C 
ATOM     10  CD  PRO G   5      37.852   2.828  27.986  1.00 67.94 LIG 0.13  C 
ATOM     11  CB  PRO G   5      38.874   0.713  28.102  1.00 68.06 LIG 0.04  C 
ATOM     12  CG  PRO G   5      38.023   1.645  28.909  1.00 67.97 LIG 0.02  C 
BRANCH 9 13
ATOM     13  C   PRO G   5      40.205   1.163  25.939  1.00 65.16 LIG 0.24  C 
ATOM     14  N   LEU G   6      39.185   0.956  25.115  1.00 58.40 LIG-0.35  N 
ATOM     15 H    LEU G   6      38.376   1.203  25.271  1.00 58.40 LIG 0.16  HD
ATOM     16 O    PRO G   5      41.388   0.979  25.605  1.00 57.12 LIG-0.27  OA
BRANCH 14 17
ATOM     17  CA  LEU G   6      39.379   0.267  23.842  1.00 60.31 LIG 0.18  C 
BRANCH 17 18
ATOM     18  C   LEU G   6      39.907  -1.160  23.960  1.00 60.34 LIG 0.24  C 
ATOM     19 O    LEU G   6      40.759  -1.525  23.169  1.00 72.64 LIG-0.27  OA
ATOM     20  N   LEU G   7      39.398  -1.973  24.895  1.00 65.91 LIG-0.35  N 
ATOM     21 H    LEU G   7      38.715  -1.775  25.380  1.00 65.91 LIG 0.16  HD
BRANCH 20 22
ATOM     22  CA  LEU G   7      39.988  -3.328  25.182  1.00 66.14 LIG 0.16  C 
BRANCH 22 23
ATOM     23  CB  LEU G   7      39.223  -4.015  26.329  1.00 64.61 LIG 0.04  C 
BRANCH 23 24
ATOM     24  CG  LEU G   7      38.437  -3.140  27.326  1.00 68.76 LIG-0.02  C 
ATOM     25  CD2 LEU G   7      39.369  -2.534  28.397  1.00 64.31 LIG 0.01  C 
ATOM     26  CD1 LEU G   7      37.246  -3.888  27.935  1.00 66.72 LIG 0.01  C 
ENDBRANCH 23 24
ENDBRANCH 22 23
BRANCH 22 27
ATOM     27  C   LEU G   7      40.064  -4.252  23.961  1.00 59.22 LIG 0.22  C 
ATOM     28 O    LEU G   7      39.459  -3.949  22.943  1.00 55.72 LIG-0.29  OA
ENDBRANCH 22 27
ENDBRANCH 20 22
ENDBRANCH 17 18
BRANCH 17 29
ATOM     29  CB  LEU G   6      40.244   1.121  22.880  1.00 54.67 LIG 0.04  C 
BRANCH 29 30
ATOM     30  CG  LEU G   6      39.686   0.964  21.447  1.00 53.09 LIG-0.02  C 
ATOM     31  CD1 LEU G   6      40.747   0.381  20.550  1.00 49.97 LIG 0.01  C 
ATOM     32  CD2 LEU G   6      38.380   0.168  21.402  1.00 51.63 LIG 0.01  C 
ENDBRANCH 29 30
ENDBRANCH 17 29
ENDBRANCH 14 17
ENDBRANCH 9 13
ENDBRANCH 1 6
BRANCH 1 33
ATOM     33  N   LEU G   4      39.563   6.221  25.649  1.00 70.21 LIG-0.35  N 
ATOM     34  C   ARG G   3      39.822   5.854  24.388  1.00 75.48 LIG 0.24  C 
ATOM     35 O    ARG G   3      39.643   4.668  23.996  1.00 65.52 LIG-0.27  OA
ATOM     36 H    LEU G   4      39.716   7.004  25.970  1.00 70.21 LIG 0.16  HD
BRANCH 34 37
ATOM     37  CA  ARG G   3      40.401   6.962  23.429  1.00 78.48 LIG 0.18  C 
BRANCH 37 38
ATOM     38  CB  ARG G   3      39.596   8.277  23.518  1.00 76.51 LIG 0.04  C 
BRANCH 38 39
ATOM     39  CG  ARG G   3      40.370   9.472  24.054  1.00 78.92 LIG 0.02  C 
BRANCH 39 40
ATOM     40  CD  ARG G   3      40.299   9.573  25.580  1.00 76.70 LIG 0.14  C 
BRANCH 40 41
ATOM     41  NE  ARG G   3      38.957   9.306  26.158  1.00 80.12 LIG-0.23  N 
ATOM     42 HE   ARG G   3      38.281   9.597  25.713  1.00 80.12 LIG 0.18  HD
ATOM     43  CZ  ARG G   3      38.689   8.655  27.309  1.00 82.69 LIG 0.67  C 
ATOM     44  NH1 ARG G   3      39.645   8.187  28.129  1.00 73.81 LIG-0.23  N 
ATOM     45  NH2 ARG G   3      37.421   8.487  27.670  1.00 84.58 LIG-0.23  N 
ATOM     46 1HH1 ARG G   3      40.474   8.297  27.931  1.00 73.81 LIG 0.17  HD
ATOM     47 2HH1 ARG G   3      39.427   7.777  28.854  1.00 73.81 LIG 0.17  HD
ATOM     48 2HH2 ARG G   3      37.233   8.075  28.401  1.00 84.58 LIG 0.17  HD
ATOM     49 1HH2 ARG G   3      36.789   8.792  27.173  1.00 84.58 LIG 0.17  HD
ENDBRANCH 40 41
ENDBRANCH 39 40
ENDBRANCH 38 39
ENDBRANCH 37 38
BRANCH 37 50
ATOM     50  N   ARG G   3      40.490   6.506  22.011  1.00 95.22 LIG-0.35  N 
ATOM     51  C   PRO G   2      39.416   6.182  21.270  1.00105.18 LIG 0.25  C 
ATOM     52 O    PRO G   2      38.272   6.149  21.737  1.00111.30 LIG-0.27  OA
ATOM     53 H    ARG G   3      41.296   6.471  21.711  1.00 95.22 LIG 0.16  HD
BRANCH 51 54
ATOM     54  CA  PRO G   2      39.649   5.827  19.767  1.00104.44 LIG 0.35  C 
ATOM     55  N   PRO G   2      39.290   4.449  19.408  1.00103.34 LIG 0.32  N 
ATOM     56  CD  PRO G   2      38.751   4.355  18.032  1.00102.42 LIG 0.32  C 
ATOM     57  CG  PRO G   2      38.517   5.799  17.626  1.00 98.38 LIG 0.04  C 
ATOM     58  CB  PRO G   2      38.739   6.663  18.844  1.00102.80 LIG 0.05  C 
ENDBRANCH 51 54
ENDBRANCH 37 50
ENDBRANCH 34 37
ENDBRANCH 1 33
TORSDOF 20
ENDMDL
MODEL 49
USER: ADFR SOLUTION from run 188
USER: SCORE 16.487681 LL:  -4.836 LR: -12.234 RR:   0.000 FEB:  -6.268
USER: RMSD 5.335407
USER: SEED 187
USER: STATUS no improvement in best in 12 clusters for 5 generations
USER: GENES 22
USER: genes 0 Translation |==|  0.50000 0.40439 0.57412
USER: genes 1 Rotation |==|  0.38456 0.24260 0.41659 0.90430
USER: genes 2 Torsion [C]-CA--CB-[CG] |==|  0.36529
USER: genes 3 Torsion [CA]-CB--CG-[CD1] |==|  0.22493
USER: genes 4 Torsion [N]-CA--C-[N] |==|  0.15902
USER: genes 5 Torsion [N]-CA--C-[N] |==|  0.83995
USER: genes 6 Torsion [C]-N--CA-[C] |==|  0.68333
USER: genes 7 Torsion [N]-CA--C-[N] |==|  0.00636
USER: genes 8 Torsion [C]-N--CA-[CB] |==|  0.34955
USER: genes 9 Torsion [N]-CA--CB-[CG] |==|  0.45286
USER: genes 10 Torsion [CA]-CB--CG-[CD2] |==|  0.63049
USER: genes 11 Torsion [N]-CA--C-[O] |==|  0.89041
USER: genes 12 Torsion [N]-CA--CB-[CG] |==|  0.91202
USER: genes 13 Torsion [CA]-CB--CG-[CD2] |==|  0.66202
USER: genes 14 Torsion [CB]-CA--N-[C] |==|  0.77433
USER: genes 15 Torsion [N]-C--CA-[N] |==|  0.88049
USER: genes 16 Torsion [C]-CA--CB-[CG] |==|  0.10334
USER: genes 17 Torsion [CA]-CB--CG-[CD] |==|  0.36355
USER: genes 18 Torsion [CB]-CG--CD-[NE] |==|  0.52832
USER: genes 19 Torsion [CG]-CD--NE-[HE] |==|  0.13597
USER: genes 20 Torsion [C]-CA--N-[C] |==|  0.79482
USER: genes 21 Torsion [N]-C--CA-[CB] |==|  0.73124
ROOT
ATOM      1  CA  LEU G   4      39.873   1.946  24.863  1.00 72.45 LIG 0.18  C 
ENDROOT
BRANCH 1 2
ATOM      2  CB  LEU G   4      40.336   2.781  26.085  1.00 74.60 LIG 0.04  C 
BRANCH 2 3
ATOM      3  CG  LEU G   4      39.198   3.596  26.786  1.00 80.94 LIG-0.02  C 
ATOM      4  CD2 LEU G   4      39.688   4.869  27.500  1.00 76.26 LIG 0.01  C 
ATOM      5  CD1 LEU G   4      38.376   2.717  27.739  1.00 74.38 LIG 0.01  C 
ENDBRANCH 2 3
ENDBRANCH 1 2
BRANCH 1 6
ATOM      6  C   LEU G   4      40.769   2.132  23.605  1.00 69.99 LIG 0.24  C 
ATOM      7 O    LEU G   4      41.880   2.738  23.663  1.00 62.75 LIG-0.27  OA
ATOM      8  N   PRO G   5      40.316   1.540  22.470  1.00 68.53 LIG-0.34  N 
ATOM      9  CA  PRO G   5      41.074   1.759  21.253  1.00 66.41 LIG 0.18  C 
ATOM     10  CD  PRO G   5      39.235   0.546  22.265  1.00 67.94 LIG 0.13  C 
ATOM     11  CB  PRO G   5      40.337   0.875  20.213  1.00 68.06 LIG 0.04  C 
ATOM     12  CG  PRO G   5      39.680  -0.197  21.028  1.00 67.97 LIG 0.02  C 
BRANCH 9 13
ATOM     13  C   PRO G   5      41.060   3.251  20.906  1.00 65.16 LIG 0.24  C 
ATOM     14  N   LEU G   6      39.873   3.822  20.743  1.00 58.40 LIG-0.35  N 
ATOM     15 H    LEU G   6      39.125   3.455  20.955  1.00 58.40 LIG 0.16  HD
ATOM     16 O    PRO G   5      42.130   3.874  20.781  1.00 57.12 LIG-0.27  OA
BRANCH 14 17
ATOM     17  CA  LEU G   6      39.757   5.160  20.169  1.00 60.31 LIG 0.18  C 
BRANCH 17 18
ATOM     18  C   LEU G   6      39.229   6.223  21.128  1.00 60.34 LIG 0.24  C 
ATOM     19 O    LEU G   6      39.099   7.361  20.711  1.00 72.64 LIG-0.27  OA
ATOM     20  N   LEU G   7      38.960   5.888  22.397  1.00 65.91 LIG-0.35  N 
ATOM     21 H    LEU G   7      39.158   5.125  22.742  1.00 65.91 LIG 0.16  HD
BRANCH 20 22
ATOM     22  CA  LEU G   7      38.275   6.835  23.346  1.00 66.14 LIG 0.16  C 
BRANCH 22 23
ATOM     23  CB  LEU G   7      37.030   6.171  23.964  1.00 64.61 LIG 0.04  C 
BRANCH 23 24
ATOM     24  CG  LEU G   7      36.413   6.788  25.234  1.00 68.76 LIG-0.02  C 
ATOM     25  CD2 LEU G   7      36.118   5.708  26.298  1.00 64.31 LIG 0.01  C 
ATOM     26  CD1 LEU G   7      35.188   7.655  24.918  1.00 66.72 LIG 0.01  C 
ENDBRANCH 23 24
ENDBRANCH 22 23
BRANCH 22 27
ATOM     27  C   LEU G   7      39.187   7.391  24.446  1.00 59.22 LIG 0.22  C 
ATOM     28 O    LEU G   7      40.007   6.654  24.973  1.00 55.72 LIG-0.29  OA
ENDBRANCH 22 27
ENDBRANCH 20 22
ENDBRANCH 17 18
BRANCH 17 29
ATOM     29  CB  LEU G   6      38.948   5.126  18.849  1.00 54.67 LIG 0.04  C 
BRANCH 29 30
ATOM     30  CG  LEU G   6      39.198   3.768  18.154  1.00 53.09 LIG-0.02  C 
ATOM     31  CD1 LEU G   6      37.935   2.949  18.168  1.00 49.97 LIG 0.01  C 
ATOM     32  CD2 LEU G   6      39.781   3.921  16.746  1.00 51.63 LIG 0.01  C 
ENDBRANCH 29 30
ENDBRANCH 17 29
ENDBRANCH 14 17
ENDBRANCH 9 13
ENDBRANCH 1 6
BRANCH 1 33
ATOM     33  N   LEU G   4      39.642   0.532  25.197  1.00 70.21 LIG-0.35  N 
ATOM     34  C   ARG G   3      40.667  -0.325  25.267  1.00 75.48 LIG 0.24  C 
ATOM     35 O    ARG G   3      41.845   0.028  24.980  1.00 65.52 LIG-0.27  OA
ATOM     36 H    LEU G   4      38.820   0.322  25.336  1.00 70.21 LIG 0.16  HD
BRANCH 34 37
ATOM     37  CA  ARG G   3      40.329  -1.805  25.686  1.00 78.48 LIG 0.18  C 
BRANCH 37 38
ATOM     38  CB  ARG G   3      39.817  -2.639  24.491  1.00 76.51 LIG 0.04  C 
BRANCH 38 39
ATOM     39  CG  ARG G   3      40.492  -2.342  23.161  1.00 78.92 LIG 0.02  C 
BRANCH 39 40
ATOM     40  CD  ARG G   3      40.955  -3.616  22.448  1.00 76.70 LIG 0.14  C 
BRANCH 40 41
ATOM     41  NE  ARG G   3      41.826  -3.385  21.268  1.00 80.12 LIG-0.23  N 
ATOM     42 HE   ARG G   3      42.489  -2.848  21.377  1.00 80.12 LIG 0.18  HD
ATOM     43  CZ  ARG G   3      41.686  -3.931  20.042  1.00 82.69 LIG 0.67  C 
ATOM     44  NH1 ARG G   3      40.673  -4.750  19.713  1.00 73.81 LIG-0.23  N 
ATOM     45  NH2 ARG G   3      42.573  -3.628  19.101  1.00 84.58 LIG-0.23  N 
ATOM     46 1HH1 ARG G   3      40.073  -4.949  20.297  1.00 73.81 LIG 0.17  HD
ATOM     47 2HH1 ARG G   3      40.623  -5.076  18.918  1.00 73.81 LIG 0.17  HD
ATOM     48 2HH2 ARG G   3      42.498  -3.968  18.313  1.00 84.58 LIG 0.17  HD
ATOM     49 1HH2 ARG G   3      43.222  -3.093  19.278  1.00 84.58 LIG 0.17  HD
ENDBRANCH 40 41
ENDBRANCH 39 40
ENDBRANCH 38 39
ENDBRANCH 37 38
BRANCH 37 50
ATOM     50  N   ARG G   3      39.360  -1.877  26.818  1.00 95.22 LIG-0.35  N 
ATOM     51  C   PRO G   2      39.686  -1.589  28.091  1.00105.18 LIG 0.25  C 
ATOM     52 O    PRO G   2      40.844  -1.328  28.437  1.00111.30 LIG-0.27  OA
ATOM     53 H    ARG G   3      38.570  -2.120  26.580  1.00 95.22 LIG 0.16  HD
BRANCH 51 54
ATOM     54  CA  PRO G   2      38.545  -1.600  29.156  1.00104.44 LIG 0.35  C 
ATOM     55  N   PRO G   2      38.972  -2.024  30.496  1.00103.34 LIG 0.32  N 
ATOM     56  CD  PRO G   2      38.231  -1.315  31.565  1.00102.42 LIG 0.32  C 
ATOM     57  CG  PRO G   2      37.502  -0.201  30.836  1.00 98.38 LIG 0.04  C 
ATOM     58  CB  PRO G   2      37.998  -0.180  29.411  1.00102.80 LIG 0.05  C 
ENDBRANCH 51 54
ENDBRANCH 37 50
ENDBRANCH 34 37
ENDBRANCH 1 33
TORSDOF 20
ENDMDL
MODEL 50
USER: ADFR SOLUTION from run 88
USER: SCORE 15.684997 LL:  -4.142 LR: -12.228 RR:   0.000 FEB:  -6.262
USER: RMSD 9.494742
USER: SEED 87
USER: STATUS no improvement in best in 8 clusters for 5 generations
USER: GENES 22
USER: genes 0 Translation |==|  0.37428 0.58510 0.55715
USER: genes 1 Rotation |==|  0.75140 0.33986 0.10899 0.59093
USER: genes 2 Torsion [C]-CA--CB-[CG] |==|  0.25399
USER: genes 3 Torsion [CA]-CB--CG-[CD1] |==|  0.78890
USER: genes 4 Torsion [N]-CA--C-[N] |==|  0.35927
USER: genes 5 Torsion [N]-CA--C-[N] |==|  0.97194
USER: genes 6 Torsion [C]-N--CA-[C] |==|  0.21609
USER: genes 7 Torsion [N]-CA--C-[N] |==|  0.83792
USER: genes 8 Torsion [C]-N--CA-[CB] |==|  0.20994
USER: genes 9 Torsion [N]-CA--CB-[CG] |==|  0.74071
USER: genes 10 Torsion [CA]-CB--CG-[CD2] |==|  0.78613
USER: genes 11 Torsion [N]-CA--C-[O] |==|  0.38232
USER: genes 12 Torsion [N]-CA--CB-[CG] |==|  0.57894
USER: genes 13 Torsion [CA]-CB--CG-[CD2] |==|  0.68378
USER: genes 14 Torsion [CB]-CA--N-[C] |==|  0.82787
USER: genes 15 Torsion [N]-C--CA-[N] |==|  0.36739
USER: genes 16 Torsion [C]-CA--CB-[CG] |==|  0.55448
USER: genes 17 Torsion [CA]-CB--CG-[CD] |==|  0.26946
USER: genes 18 Torsion [CB]-CG--CD-[NE] |==|  0.13189
USER: genes 19 Torsion [CG]-CD--NE-[HE] |==|  0.90715
USER: genes 20 Torsion [C]-CA--N-[C] |==|  0.84331
USER: genes 21 Torsion [N]-C--CA-[CB] |==|  0.80513
ROOT
ATOM      1  CA  LEU G   4      37.799   7.096  24.532  1.00 72.45 LIG 0.18  C 
ENDROOT
BRANCH 1 2
ATOM      2  CB  LEU G   4      36.731   5.996  24.307  1.00 74.60 LIG 0.04  C 
BRANCH 2 3
ATOM      3  CG  LEU G   4      35.614   5.937  25.403  1.00 80.94 LIG-0.02  C 
ATOM      4  CD2 LEU G   4      34.953   7.296  25.696  1.00 76.26 LIG 0.01  C 
ATOM      5  CD1 LEU G   4      36.123   5.288  26.696  1.00 74.38 LIG 0.01  C 
ENDBRANCH 2 3
ENDBRANCH 1 2
BRANCH 1 6
ATOM      6  C   LEU G   4      39.032   6.611  25.346  1.00 69.99 LIG 0.24  C 
ATOM      7 O    LEU G   4      39.992   5.993  24.796  1.00 62.75 LIG-0.27  OA
ATOM      8  N   PRO G   5      39.043   6.958  26.659  1.00 68.53 LIG-0.34  N 
ATOM      9  CA  PRO G   5      40.129   6.453  27.477  1.00 66.41 LIG 0.18  C 
ATOM     10  CD  PRO G   5      38.201   7.921  27.410  1.00 67.94 LIG 0.13  C 
ATOM     11  CB  PRO G   5      39.873   7.116  28.855  1.00 68.06 LIG 0.04  C 
ATOM     12  CG  PRO G   5      39.104   8.361  28.537  1.00 67.97 LIG 0.02  C 
BRANCH 9 13
ATOM     13  C   PRO G   5      40.071   4.923  27.513  1.00 65.16 LIG 0.24  C 
ATOM     14  N   LEU G   6      38.986   4.348  27.009  1.00 58.40 LIG-0.35  N 
ATOM     15 H    LEU G   6      38.391   4.759  26.543  1.00 58.40 LIG 0.16  HD
ATOM     16 O    PRO G   5      41.009   4.272  28.007  1.00 57.12 LIG-0.27  OA
BRANCH 14 17
ATOM     17  CA  LEU G   6      38.722   2.927  27.222  1.00 60.31 LIG 0.18  C 
BRANCH 17 18
ATOM     18  C   LEU G   6      38.172   2.579  28.603  1.00 60.34 LIG 0.24  C 
ATOM     19 O    LEU G   6      37.078   2.044  28.668  1.00 72.64 LIG-0.27  OA
ATOM     20  N   LEU G   7      38.881   2.900  29.693  1.00 65.91 LIG-0.35  N 
ATOM     21 H    LEU G   7      39.593   3.383  29.674  1.00 65.91 LIG 0.16  HD
BRANCH 20 22
ATOM     22  CA  LEU G   7      38.486   2.434  31.069  1.00 66.14 LIG 0.16  C 
BRANCH 22 23
ATOM     23  CB  LEU G   7      38.837   0.946  31.254  1.00 64.61 LIG 0.04  C 
BRANCH 23 24
ATOM     24  CG  LEU G   7      37.760  -0.114  30.950  1.00 68.76 LIG-0.02  C 
ATOM     25  CD2 LEU G   7      36.722  -0.204  32.089  1.00 64.31 LIG 0.01  C 
ATOM     26  CD1 LEU G   7      38.373  -1.476  30.602  1.00 66.72 LIG 0.01  C 
ENDBRANCH 23 24
ENDBRANCH 22 23
BRANCH 22 27
ATOM     27  C   LEU G   7      39.078   3.270  32.210  1.00 59.22 LIG 0.22  C 
ATOM     28 O    LEU G   7      38.371   3.568  33.162  1.00 55.72 LIG-0.29  OA
ENDBRANCH 22 27
ENDBRANCH 20 22
ENDBRANCH 17 18
BRANCH 17 29
ATOM     29  CB  LEU G   6      39.969   2.077  26.872  1.00 54.67 LIG 0.04  C 
BRANCH 29 30
ATOM     30  CG  LEU G   6      39.498   0.678  26.414  1.00 53.09 LIG-0.02  C 
ATOM     31  CD1 LEU G   6      39.959   0.422  25.004  1.00 49.97 LIG 0.01  C 
ATOM     32  CD2 LEU G   6      39.918  -0.434  27.379  1.00 51.63 LIG 0.01  C 
ENDBRANCH 29 30
ENDBRANCH 17 29
ENDBRANCH 14 17
ENDBRANCH 9 13
ENDBRANCH 1 6
BRANCH 1 33
ATOM     33  N   LEU G   4      38.171   7.789  23.289  1.00 70.21 LIG-0.35  N 
ATOM     34  C   ARG G   3      38.733   7.116  22.278  1.00 75.48 LIG 0.24  C 
ATOM     35 O    ARG G   3      39.028   5.893  22.383  1.00 65.52 LIG-0.27  OA
ATOM     36 H    LEU G   4      37.998   8.632  23.278  1.00 70.21 LIG 0.16  HD
BRANCH 34 37
ATOM     37  CA  ARG G   3      39.044   7.931  20.967  1.00 78.48 LIG 0.18  C 
BRANCH 37 38
ATOM     38  CB  ARG G   3      38.008   7.652  19.856  1.00 76.51 LIG 0.04  C 
BRANCH 38 39
ATOM     39  CG  ARG G   3      38.462   8.003  18.448  1.00 78.92 LIG 0.02  C 
BRANCH 39 40
ATOM     40  CD  ARG G   3      39.001   6.786  17.691  1.00 76.70 LIG 0.14  C 
BRANCH 40 41
ATOM     41  NE  ARG G   3      38.143   5.576  17.770  1.00 80.12 LIG-0.23  N 
ATOM     42 HE   ARG G   3      37.709   5.459  18.502  1.00 80.12 LIG 0.18  HD
ATOM     43  CZ  ARG G   3      37.975   4.643  16.810  1.00 82.69 LIG 0.67  C 
ATOM     44  NH1 ARG G   3      38.623   4.671  15.634  1.00 73.81 LIG-0.23  N 
ATOM     45  NH2 ARG G   3      37.149   3.628  17.042  1.00 84.58 LIG-0.23  N 
ATOM     46 1HH1 ARG G   3      39.178   5.306  15.464  1.00 73.81 LIG 0.17  HD
ATOM     47 2HH1 ARG G   3      38.485   4.054  15.051  1.00 73.81 LIG 0.17  HD
ATOM     48 2HH2 ARG G   3      37.030   3.024  16.441  1.00 84.58 LIG 0.17  HD
ATOM     49 1HH2 ARG G   3      36.733   3.575  17.793  1.00 84.58 LIG 0.17  HD
ENDBRANCH 40 41
ENDBRANCH 39 40
ENDBRANCH 38 39
ENDBRANCH 37 38
BRANCH 37 50
ATOM     50  N   ARG G   3      40.426   7.693  20.456  1.00 95.22 LIG-0.35  N 
ATOM     51  C   PRO G   2      41.532   7.898  21.192  1.00105.18 LIG 0.25  C 
ATOM     52 O    PRO G   2      41.494   8.388  22.327  1.00111.30 LIG-0.27  OA
ATOM     53 H    ARG G   3      40.448   7.411  19.643  1.00 95.22 LIG 0.16  HD
BRANCH 51 54
ATOM     54  CA  PRO G   2      42.907   7.504  20.566  1.00104.44 LIG 0.35  C 
ATOM     55  N   PRO G   2      44.072   7.884  21.376  1.00103.34 LIG 0.32  N 
ATOM     56  CD  PRO G   2      45.175   6.902  21.259  1.00102.42 LIG 0.32  C 
ATOM     57  CG  PRO G   2      44.544   5.718  20.550  1.00 98.38 LIG 0.04  C 
ATOM     58  CB  PRO G   2      43.059   5.973  20.458  1.00102.80 LIG 0.05  C 
ENDBRANCH 51 54
ENDBRANCH 37 50
ENDBRANCH 34 37
ENDBRANCH 1 33
TORSDOF 20
ENDMDL
MODEL 51
USER: ADFR SOLUTION from run 69
USER: SCORE 15.717073 LL:  -4.531 LR: -12.217 RR:   0.000 FEB:  -6.251
USER: RMSD 6.123580
USER: SEED 68
USER: STATUS no improvement in best in 10 clusters for 5 generations
USER: GENES 22
USER: genes 0 Translation |==|  0.48169 0.35725 0.65939
USER: genes 1 Rotation |==|  0.72171 0.34527 0.42950 0.91464
USER: genes 2 Torsion [C]-CA--CB-[CG] |==|  0.26485
USER: genes 3 Torsion [CA]-CB--CG-[CD1] |==|  0.86954
USER: genes 4 Torsion [N]-CA--C-[N] |==|  0.85340
USER: genes 5 Torsion [N]-CA--C-[N] |==|  0.37817
USER: genes 6 Torsion [C]-N--CA-[C] |==|  0.82183
USER: genes 7 Torsion [N]-CA--C-[N] |==|  0.47292
USER: genes 8 Torsion [C]-N--CA-[CB] |==|  0.81719
USER: genes 9 Torsion [N]-CA--CB-[CG] |==|  0.72877
USER: genes 10 Torsion [CA]-CB--CG-[CD2] |==|  0.77309
USER: genes 11 Torsion [N]-CA--C-[O] |==|  0.97432
USER: genes 12 Torsion [N]-CA--CB-[CG] |==|  0.74757
USER: genes 13 Torsion [CA]-CB--CG-[CD2] |==|  0.55896
USER: genes 14 Torsion [CB]-CA--N-[C] |==|  0.16820
USER: genes 15 Torsion [N]-C--CA-[N] |==|  0.94444
USER: genes 16 Torsion [C]-CA--CB-[CG] |==|  0.42584
USER: genes 17 Torsion [CA]-CB--CG-[CD] |==|  0.06899
USER: genes 18 Torsion [CB]-CG--CD-[NE] |==|  0.63208
USER: genes 19 Torsion [CG]-CD--NE-[HE] |==|  0.17238
USER: genes 20 Torsion [C]-CA--N-[C] |==|  0.82664
USER: genes 21 Torsion [N]-C--CA-[CB] |==|  0.11143
ROOT
ATOM      1  CA  LEU G   4      39.571   0.603  26.526  1.00 72.45 LIG 0.18  C 
ENDROOT
BRANCH 1 2
ATOM      2  CB  LEU G   4      40.173  -0.012  27.815  1.00 74.60 LIG 0.04  C 
BRANCH 2 3
ATOM      3  CG  LEU G   4      39.123  -0.363  28.922  1.00 80.94 LIG-0.02  C 
ATOM      4  CD2 LEU G   4      38.374  -1.685  28.678  1.00 76.26 LIG 0.01  C 
ATOM      5  CD1 LEU G   4      38.136   0.789  29.152  1.00 74.38 LIG 0.01  C 
ENDBRANCH 2 3
ENDBRANCH 1 2
BRANCH 1 6
ATOM      6  C   LEU G   4      39.596   2.158  26.506  1.00 69.99 LIG 0.24  C 
ATOM      7 O    LEU G   4      38.572   2.845  26.797  1.00 62.75 LIG-0.27  OA
ATOM      8  N   PRO G   5      40.801   2.721  26.229  1.00 68.53 LIG-0.34  N 
ATOM      9  CA  PRO G   5      40.854   4.166  26.114  1.00 66.41 LIG 0.18  C 
ATOM     10  CD  PRO G   5      42.156   2.123  26.173  1.00 67.94 LIG 0.13  C 
ATOM     11  CB  PRO G   5      42.363   4.450  25.897  1.00 68.06 LIG 0.04  C 
ATOM     12  CG  PRO G   5      43.059   3.281  26.525  1.00 67.97 LIG 0.02  C 
BRANCH 9 13
ATOM     13  C   PRO G   5      39.973   4.616  24.943  1.00 65.16 LIG 0.24  C 
ATOM     14  N   LEU G   6      39.191   5.670  25.147  1.00 58.40 LIG-0.35  N 
ATOM     15 H    LEU G   6      39.250   6.193  25.827  1.00 58.40 LIG 0.16  HD
ATOM     16 O    PRO G   5      40.003   3.999  23.864  1.00 57.12 LIG-0.27  OA
BRANCH 14 17
ATOM     17  CA  LEU G   6      38.142   6.020  24.193  1.00 60.31 LIG 0.18  C 
BRANCH 17 18
ATOM     18  C   LEU G   6      38.643   6.419  22.808  1.00 60.34 LIG 0.24  C 
ATOM     19 O    LEU G   6      39.836   6.625  22.666  1.00 72.64 LIG-0.27  OA
ATOM     20  N   LEU G   7      37.764   6.567  21.809  1.00 65.91 LIG-0.35  N 
ATOM     21 H    LEU G   7      36.910   6.546  21.916  1.00 65.91 LIG 0.16  HD
BRANCH 20 22
ATOM     22  CA  LEU G   7      38.202   6.788  20.385  1.00 66.14 LIG 0.16  C 
BRANCH 22 23
ATOM     23  CB  LEU G   7      38.917   8.146  20.248  1.00 64.61 LIG 0.04  C 
BRANCH 23 24
ATOM     24  CG  LEU G   7      38.115   9.358  19.736  1.00 68.76 LIG-0.02  C 
ATOM     25  CD2 LEU G   7      38.013   9.356  18.196  1.00 64.31 LIG 0.01  C 
ATOM     26  CD1 LEU G   7      38.654  10.682  20.290  1.00 66.72 LIG 0.01  C 
ENDBRANCH 23 24
ENDBRANCH 22 23
BRANCH 22 27
ATOM     27  C   LEU G   7      39.075   5.663  19.815  1.00 59.22 LIG 0.22  C 
ATOM     28 O    LEU G   7      39.488   4.790  20.562  1.00 55.72 LIG-0.29  OA
ENDBRANCH 22 27
ENDBRANCH 20 22
ENDBRANCH 17 18
BRANCH 17 29
ATOM     29  CB  LEU G   6      37.191   7.088  24.788  1.00 54.67 LIG 0.04  C 
BRANCH 29 30
ATOM     30  CG  LEU G   6      36.027   6.366  25.504  1.00 53.09 LIG-0.02  C 
ATOM     31  CD1 LEU G   6      36.510   5.796  26.812  1.00 49.97 LIG 0.01  C 
ATOM     32  CD2 LEU G   6      34.792   7.254  25.674  1.00 51.63 LIG 0.01  C 
ENDBRANCH 29 30
ENDBRANCH 17 29
ENDBRANCH 14 17
ENDBRANCH 9 13
ENDBRANCH 1 6
BRANCH 1 33
ATOM     33  N   LEU G   4      40.124   0.006  25.301  1.00 70.21 LIG-0.35  N 
ATOM     34  C   ARG G   3      39.981  -1.303  25.058  1.00 75.48 LIG 0.24  C 
ATOM     35 O    ARG G   3      39.438  -2.074  25.897  1.00 65.52 LIG-0.27  OA
ATOM     36 H    LEU G   4      40.530   0.556  24.780  1.00 70.21 LIG 0.16  HD
BRANCH 34 37
ATOM     37  CA  ARG G   3      40.557  -1.841  23.694  1.00 78.48 LIG 0.18  C 
BRANCH 37 38
ATOM     38  CB  ARG G   3      41.872  -2.624  23.895  1.00 76.51 LIG 0.04  C 
BRANCH 38 39
ATOM     39  CG  ARG G   3      42.164  -3.677  22.837  1.00 78.92 LIG 0.02  C 
BRANCH 39 40
ATOM     40  CD  ARG G   3      41.471  -3.370  21.506  1.00 76.70 LIG 0.14  C 
BRANCH 40 41
ATOM     41  NE  ARG G   3      40.750  -4.519  20.902  1.00 80.12 LIG-0.23  N 
ATOM     42 HE   ARG G   3      40.099  -4.847  21.356  1.00 80.12 LIG 0.18  HD
ATOM     43  CZ  ARG G   3      41.013  -5.101  19.713  1.00 82.69 LIG 0.67  C 
ATOM     44  NH1 ARG G   3      42.029  -4.725  18.918  1.00 73.81 LIG-0.23  N 
ATOM     45  NH2 ARG G   3      40.251  -6.114  19.314  1.00 84.58 LIG-0.23  N 
ATOM     46 1HH1 ARG G   3      42.550  -4.085  19.159  1.00 73.81 LIG 0.17  HD
ATOM     47 2HH1 ARG G   3      42.158  -5.125  18.167  1.00 73.81 LIG 0.17  HD
ATOM     48 2HH2 ARG G   3      40.405  -6.496  18.558  1.00 84.58 LIG 0.17  HD
ATOM     49 1HH2 ARG G   3      39.604  -6.387  19.810  1.00 84.58 LIG 0.17  HD
ENDBRANCH 40 41
ENDBRANCH 39 40
ENDBRANCH 38 39
ENDBRANCH 37 38
BRANCH 37 50
ATOM     50  N   ARG G   3      40.748  -0.760  22.683  1.00 95.22 LIG-0.35  N 
ATOM     51  C   PRO G   2      39.738  -0.022  22.190  1.00105.18 LIG 0.25  C 
ATOM     52 O    PRO G   2      38.555  -0.243  22.471  1.00111.30 LIG-0.27  OA
ATOM     53 H    ARG G   3      41.568  -0.653  22.445  1.00 95.22 LIG 0.16  HD
BRANCH 51 54
ATOM     54  CA  PRO G   2      40.097   1.148  21.220  1.00104.44 LIG 0.35  C 
ATOM     55  N   PRO G   2      40.655   2.334  21.882  1.00103.34 LIG 0.32  N 
ATOM     56  CD  PRO G   2      41.666   3.016  21.041  1.00102.42 LIG 0.32  C 
ATOM     57  CG  PRO G   2      41.934   2.036  19.914  1.00 98.38 LIG 0.04  C 
ATOM     58  CB  PRO G   2      41.223   0.746  20.245  1.00102.80 LIG 0.05  C 
ENDBRANCH 51 54
ENDBRANCH 37 50
ENDBRANCH 34 37
ENDBRANCH 1 33
TORSDOF 20
ENDMDL
MODEL 52
USER: ADFR SOLUTION from run 125
USER: SCORE 15.468049 LL:  -4.340 LR: -12.189 RR:   0.000 FEB:  -6.223
USER: RMSD 10.555203
USER: SEED 124
USER: STATUS searching
USER: GENES 22
USER: genes 0 Translation |==|  0.37552 0.57921 0.56219
USER: genes 1 Rotation |==|  0.72437 0.33589 0.10027 0.61377
USER: genes 2 Torsion [C]-CA--CB-[CG] |==|  0.26986
USER: genes 3 Torsion [CA]-CB--CG-[CD1] |==|  0.76589
USER: genes 4 Torsion [N]-CA--C-[N] |==|  0.38517
USER: genes 5 Torsion [N]-CA--C-[N] |==|  0.92936
USER: genes 6 Torsion [C]-N--CA-[C] |==|  0.75823
USER: genes 7 Torsion [N]-CA--C-[N] |==|  0.52659
USER: genes 8 Torsion [C]-N--CA-[CB] |==|  0.47015
USER: genes 9 Torsion [N]-CA--CB-[CG] |==|  0.97351
USER: genes 10 Torsion [CA]-CB--CG-[CD2] |==|  0.80017
USER: genes 11 Torsion [N]-CA--C-[O] |==|  0.57805
USER: genes 12 Torsion [N]-CA--CB-[CG] |==|  0.64942
USER: genes 13 Torsion [CA]-CB--CG-[CD2] |==|  0.68861
USER: genes 14 Torsion [CB]-CA--N-[C] |==|  0.50556
USER: genes 15 Torsion [N]-C--CA-[N] |==|  0.95349
USER: genes 16 Torsion [C]-CA--CB-[CG] |==|  0.27679
USER: genes 17 Torsion [CA]-CB--CG-[CD] |==|  0.68843
USER: genes 18 Torsion [CB]-CG--CD-[NE] |==|  0.91693
USER: genes 19 Torsion [CG]-CD--NE-[HE] |==|  0.28463
USER: genes 20 Torsion [C]-CA--N-[C] |==|  0.74603
USER: genes 21 Torsion [N]-C--CA-[CB] |==|  0.63576
ROOT
ATOM      1  CA  LEU G   4      37.819   6.928  24.631  1.00 72.45 LIG 0.18  C 
ENDROOT
BRANCH 1 2
ATOM      2  CB  LEU G   4      36.761   5.796  24.617  1.00 74.60 LIG 0.04  C 
BRANCH 2 3
ATOM      3  CG  LEU G   4      35.708   5.874  25.773  1.00 80.94 LIG-0.02  C 
ATOM      4  CD2 LEU G   4      35.187   7.296  26.050  1.00 76.26 LIG 0.01  C 
ATOM      5  CD1 LEU G   4      36.231   5.224  27.061  1.00 74.38 LIG 0.01  C 
ENDBRANCH 2 3
ENDBRANCH 1 2
BRANCH 1 6
ATOM      6  C   LEU G   4      39.159   6.522  25.309  1.00 69.99 LIG 0.24  C 
ATOM      7 O    LEU G   4      40.124   6.043  24.642  1.00 62.75 LIG-0.27  OA
ATOM      8  N   PRO G   5      39.247   6.784  26.638  1.00 68.53 LIG-0.34  N 
ATOM      9  CA  PRO G   5      40.443   6.343  27.330  1.00 66.41 LIG 0.18  C 
ATOM     10  CD  PRO G   5      38.382   7.605  27.520  1.00 67.94 LIG 0.13  C 
ATOM     11  CB  PRO G   5      40.241   6.887  28.769  1.00 68.06 LIG 0.04  C 
ATOM     12  CG  PRO G   5      39.330   8.064  28.602  1.00 67.97 LIG 0.02  C 
BRANCH 9 13
ATOM     13  C   PRO G   5      40.537   4.815  27.261  1.00 65.16 LIG 0.24  C 
ATOM     14  N   LEU G   6      39.401   4.147  27.109  1.00 58.40 LIG-0.35  N 
ATOM     15 H    LEU G   6      38.648   4.509  26.907  1.00 58.40 LIG 0.16  HD
ATOM     16 O    PRO G   5      41.642   4.252  27.354  1.00 57.12 LIG-0.27  OA
BRANCH 14 17
ATOM     17  CA  LEU G   6      39.355   2.697  27.284  1.00 60.31 LIG 0.18  C 
BRANCH 17 18
ATOM     18  C   LEU G   6      39.685   1.891  26.031  1.00 60.34 LIG 0.24  C 
ATOM     19 O    LEU G   6      40.093   2.492  25.052  1.00 72.64 LIG-0.27  OA
ATOM     20  N   LEU G   7      39.484   0.567  26.031  1.00 65.91 LIG-0.35  N 
ATOM     21 H    LEU G   7      39.086   0.144  26.665  1.00 65.91 LIG 0.16  HD
BRANCH 20 22
ATOM     22  CA  LEU G   7      39.948  -0.311  24.899  1.00 66.14 LIG 0.16  C 
BRANCH 22 23
ATOM     23  CB  LEU G   7      39.826  -1.797  25.286  1.00 64.61 LIG 0.04  C 
BRANCH 23 24
ATOM     24  CG  LEU G   7      39.498  -2.158  26.748  1.00 68.76 LIG-0.02  C 
ATOM     25  CD2 LEU G   7      40.702  -1.891  27.676  1.00 64.31 LIG 0.01  C 
ATOM     26  CD1 LEU G   7      38.956  -3.586  26.882  1.00 66.72 LIG 0.01  C 
ENDBRANCH 23 24
ENDBRANCH 22 23
BRANCH 22 27
ATOM     27  C   LEU G   7      39.238  -0.045  23.565  1.00 59.22 LIG 0.22  C 
ATOM     28 O    LEU G   7      39.124  -0.955  22.757  1.00 55.72 LIG-0.29  OA
ENDBRANCH 22 27
ENDBRANCH 20 22
ENDBRANCH 17 18
BRANCH 17 29
ATOM     29  CB  LEU G   6      38.006   2.260  27.908  1.00 54.67 LIG 0.04  C 
BRANCH 29 30
ATOM     30  CG  LEU G   6      38.298   1.411  29.166  1.00 53.09 LIG-0.02  C 
ATOM     31  CD1 LEU G   6      37.653   2.047  30.369  1.00 49.97 LIG 0.01  C 
ATOM     32  CD2 LEU G   6      37.900  -0.057  28.996  1.00 51.63 LIG 0.01  C 
ENDBRANCH 29 30
ENDBRANCH 17 29
ENDBRANCH 14 17
ENDBRANCH 9 13
ENDBRANCH 1 6
BRANCH 1 33
ATOM     33  N   LEU G   4      38.011   7.542  23.308  1.00 70.21 LIG-0.35  N 
ATOM     34  C   ARG G   3      38.918   8.510  23.133  1.00 75.48 LIG 0.24  C 
ATOM     35 O    ARG G   3      39.580   8.977  24.101  1.00 65.52 LIG-0.27  OA
ATOM     36 H    LEU G   4      37.505   7.230  22.686  1.00 70.21 LIG 0.16  HD
BRANCH 34 37
ATOM     37  CA  ARG G   3      39.093   9.067  21.670  1.00 78.48 LIG 0.18  C 
BRANCH 37 38
ATOM     38  CB  ARG G   3      38.515  10.492  21.524  1.00 76.51 LIG 0.04  C 
BRANCH 38 39
ATOM     39  CG  ARG G   3      39.541  11.613  21.584  1.00 78.92 LIG 0.02  C 
BRANCH 39 40
ATOM     40  CD  ARG G   3      39.390  12.472  22.843  1.00 76.70 LIG 0.14  C 
BRANCH 40 41
ATOM     41  NE  ARG G   3      38.004  12.563  23.369  1.00 80.12 LIG-0.23  N 
ATOM     42 HE   ARG G   3      37.820  12.080  24.056  1.00 80.12 LIG 0.18  HD
ATOM     43  CZ  ARG G   3      37.004  13.326  22.881  1.00 82.69 LIG 0.67  C 
ATOM     44  NH1 ARG G   3      37.132  14.095  21.786  1.00 73.81 LIG-0.23  N 
ATOM     45  NH2 ARG G   3      35.824  13.301  23.490  1.00 84.58 LIG-0.23  N 
ATOM     46 1HH1 ARG G   3      37.879  14.116  21.361  1.00 73.81 LIG 0.17  HD
ATOM     47 2HH1 ARG G   3      36.466  14.566  21.511  1.00 73.81 LIG 0.17  HD
ATOM     48 2HH2 ARG G   3      35.175  13.781  23.192  1.00 84.58 LIG 0.17  HD
ATOM     49 1HH2 ARG G   3      35.708  12.805  24.183  1.00 84.58 LIG 0.17  HD
ENDBRANCH 40 41
ENDBRANCH 39 40
ENDBRANCH 38 39
ENDBRANCH 37 38
BRANCH 37 50
ATOM     50  N   ARG G   3      38.507   8.164  20.636  1.00 95.22 LIG-0.35  N 
ATOM     51  C   PRO G   2      39.207   7.198  20.017  1.00105.18 LIG 0.25  C 
ATOM     52 O    PRO G   2      40.421   7.040  20.191  1.00111.30 LIG-0.27  OA
ATOM     53 H    ARG G   3      37.676   8.321  20.474  1.00 95.22 LIG 0.16  HD
BRANCH 51 54
ATOM     54  CA  PRO G   2      38.438   6.257  19.036  1.00104.44 LIG 0.35  C 
ATOM     55  N   PRO G   2      38.827   6.403  17.627  1.00103.34 LIG 0.32  N 
ATOM     56  CD  PRO G   2      38.764   5.115  16.897  1.00102.42 LIG 0.32  C 
ATOM     57  CG  PRO G   2      38.585   4.077  17.989  1.00 98.38 LIG 0.04  C 
ATOM     58  CB  PRO G   2      38.749   4.773  19.319  1.00102.80 LIG 0.05  C 
ENDBRANCH 51 54
ENDBRANCH 37 50
ENDBRANCH 34 37
ENDBRANCH 1 33
TORSDOF 20
ENDMDL
MODEL 53
USER: ADFR SOLUTION from run 119
USER: SCORE 15.893495 LL:  -4.189 LR: -12.185 RR:   0.000 FEB:  -6.219
USER: RMSD 10.181135
USER: SEED 118
USER: STATUS no improvement in best in 13 clusters for 5 generations
USER: GENES 22
USER: genes 0 Translation |==|  0.38244 0.59581 0.55842
USER: genes 1 Rotation |==|  0.67529 0.27138 0.09142 0.50838
USER: genes 2 Torsion [C]-CA--CB-[CG] |==|  0.21880
USER: genes 3 Torsion [CA]-CB--CG-[CD1] |==|  0.44059
USER: genes 4 Torsion [N]-CA--C-[N] |==|  0.35279
USER: genes 5 Torsion [N]-CA--C-[N] |==|  0.54446
USER: genes 6 Torsion [C]-N--CA-[C] |==|  0.12806
USER: genes 7 Torsion [N]-CA--C-[N] |==|  0.12179
USER: genes 8 Torsion [C]-N--CA-[CB] |==|  0.45376
USER: genes 9 Torsion [N]-CA--CB-[CG] |==|  0.70940
USER: genes 10 Torsion [CA]-CB--CG-[CD2] |==|  0.69770
USER: genes 11 Torsion [N]-CA--C-[O] |==|  0.40487
USER: genes 12 Torsion [N]-CA--CB-[CG] |==|  0.67223
USER: genes 13 Torsion [CA]-CB--CG-[CD2] |==|  0.71181
USER: genes 14 Torsion [CB]-CA--N-[C] |==|  0.86013
USER: genes 15 Torsion [N]-C--CA-[N] |==|  0.97637
USER: genes 16 Torsion [C]-CA--CB-[CG] |==|  0.10278
USER: genes 17 Torsion [CA]-CB--CG-[CD] |==|  0.34102
USER: genes 18 Torsion [CB]-CG--CD-[NE] |==|  0.76466
USER: genes 19 Torsion [CG]-CD--NE-[HE] |==|  0.90477
USER: genes 20 Torsion [C]-CA--N-[C] |==|  0.67013
USER: genes 21 Torsion [N]-C--CA-[CB] |==|  0.79157
ROOT
ATOM      1  CA  LEU G   4      37.933   7.402  24.557  1.00 72.45 LIG 0.18  C 
ENDROOT
BRANCH 1 2
ATOM      2  CB  LEU G   4      36.447   6.961  24.552  1.00 74.60 LIG 0.04  C 
BRANCH 2 3
ATOM      3  CG  LEU G   4      35.679   7.244  25.888  1.00 80.94 LIG-0.02  C 
ATOM      4  CD2 LEU G   4      36.039   6.281  27.033  1.00 76.26 LIG 0.01  C 
ATOM      5  CD1 LEU G   4      34.161   7.291  25.670  1.00 74.38 LIG 0.01  C 
ENDBRANCH 2 3
ENDBRANCH 1 2
BRANCH 1 6
ATOM      6  C   LEU G   4      38.875   6.411  25.300  1.00 69.99 LIG 0.24  C 
ATOM      7 O    LEU G   4      39.297   5.352  24.747  1.00 62.75 LIG-0.27  OA
ATOM      8  N   PRO G   5      39.267   6.794  26.542  1.00 68.53 LIG-0.34  N 
ATOM      9  CA  PRO G   5      40.074   5.863  27.307  1.00 66.41 LIG 0.18  C 
ATOM     10  CD  PRO G   5      39.150   8.102  27.231  1.00 67.94 LIG 0.13  C 
ATOM     11  CB  PRO G   5      40.407   6.658  28.597  1.00 68.06 LIG 0.04  C 
ATOM     12  CG  PRO G   5      40.320   8.096  28.186  1.00 67.97 LIG 0.02  C 
BRANCH 9 13
ATOM     13  C   PRO G   5      39.270   4.585  27.566  1.00 65.16 LIG 0.24  C 
ATOM     14  N   LEU G   6      39.720   3.771  28.513  1.00 58.40 LIG-0.35  N 
ATOM     15 H    LEU G   6      40.336   3.975  29.077  1.00 58.40 LIG 0.16  HD
ATOM     16 O    PRO G   5      38.248   4.342  26.899  1.00 57.12 LIG-0.27  OA
BRANCH 14 17
ATOM     17  CA  LEU G   6      39.177   2.423  28.663  1.00 60.31 LIG 0.18  C 
BRANCH 17 18
ATOM     18  C   LEU G   6      39.038   1.641  27.360  1.00 60.34 LIG 0.24  C 
ATOM     19 O    LEU G   6      38.026   0.983  27.189  1.00 72.64 LIG-0.27  OA
ATOM     20  N   LEU G   7      40.036   1.670  26.467  1.00 65.91 LIG-0.35  N 
ATOM     21 H    LEU G   7      40.804   2.027  26.620  1.00 65.91 LIG 0.16  HD
BRANCH 20 22
ATOM     22  CA  LEU G   7      39.897   1.068  25.094  1.00 66.14 LIG 0.16  C 
BRANCH 22 23
ATOM     23  CB  LEU G   7      41.005   1.596  24.162  1.00 64.61 LIG 0.04  C 
BRANCH 23 24
ATOM     24  CG  LEU G   7      40.640   2.654  23.101  1.00 68.76 LIG-0.02  C 
ATOM     25  CD2 LEU G   7      40.670   2.055  21.678  1.00 64.31 LIG 0.01  C 
ATOM     26  CD1 LEU G   7      41.499   3.917  23.228  1.00 66.72 LIG 0.01  C 
ENDBRANCH 23 24
ENDBRANCH 22 23
BRANCH 22 27
ATOM     27  C   LEU G   7      39.871  -0.465  25.079  1.00 59.22 LIG 0.22  C 
ATOM     28 O    LEU G   7      39.181  -1.042  24.252  1.00 55.72 LIG-0.29  OA
ENDBRANCH 22 27
ENDBRANCH 20 22
ENDBRANCH 17 18
BRANCH 17 29
ATOM     29  CB  LEU G   6      37.848   2.450  29.459  1.00 54.67 LIG 0.04  C 
BRANCH 29 30
ATOM     30  CG  LEU G   6      38.036   1.632  30.757  1.00 53.09 LIG-0.02  C 
ATOM     31  CD1 LEU G   6      37.565   2.439  31.939  1.00 49.97 LIG 0.01  C 
ATOM     32  CD2 LEU G   6      37.376   0.253  30.690  1.00 51.63 LIG 0.01  C 
ENDBRANCH 29 30
ENDBRANCH 17 29
ENDBRANCH 14 17
ENDBRANCH 9 13
ENDBRANCH 1 6
BRANCH 1 33
ATOM     33  N   LEU G   4      38.423   7.760  23.217  1.00 70.21 LIG-0.35  N 
ATOM     34  C   ARG G   3      38.237   6.932  22.182  1.00 75.48 LIG 0.24  C 
ATOM     35 O    ARG G   3      37.708   5.796  22.332  1.00 65.52 LIG-0.27  OA
ATOM     36 H    LEU G   4      38.823   8.520  23.168  1.00 70.21 LIG 0.16  HD
BRANCH 34 37
ATOM     37  CA  ARG G   3      38.746   7.426  20.776  1.00 78.48 LIG 0.18  C 
BRANCH 37 38
ATOM     38  CB  ARG G   3      39.872   6.525  20.223  1.00 76.51 LIG 0.04  C 
BRANCH 38 39
ATOM     39  CG  ARG G   3      39.716   5.042  20.520  1.00 78.92 LIG 0.02  C 
BRANCH 39 40
ATOM     40  CD  ARG G   3      39.701   4.193  19.245  1.00 76.70 LIG 0.14  C 
BRANCH 40 41
ATOM     41  NE  ARG G   3      38.373   4.079  18.590  1.00 80.12 LIG-0.23  N 
ATOM     42 HE   ARG G   3      37.688   4.061  19.109  1.00 80.12 LIG 0.18  HD
ATOM     43  CZ  ARG G   3      38.130   4.000  17.265  1.00 82.69 LIG 0.67  C 
ATOM     44  NH1 ARG G   3      39.104   3.969  16.340  1.00 73.81 LIG-0.23  N 
ATOM     45  NH2 ARG G   3      36.872   3.921  16.848  1.00 84.58 LIG-0.23  N 
ATOM     46 1HH1 ARG G   3      39.929   4.000  16.581  1.00 73.81 LIG 0.17  HD
ATOM     47 2HH1 ARG G   3      38.903   3.919  15.504  1.00 73.81 LIG 0.17  HD
ATOM     48 2HH2 ARG G   3      36.699   3.870  16.007  1.00 84.58 LIG 0.17  HD
ATOM     49 1HH2 ARG G   3      36.229   3.921  17.419  1.00 84.58 LIG 0.17  HD
ENDBRANCH 40 41
ENDBRANCH 39 40
ENDBRANCH 38 39
ENDBRANCH 37 38
BRANCH 37 50
ATOM     50  N   ARG G   3      39.186   8.852  20.790  1.00 95.22 LIG-0.35  N 
ATOM     51  C   PRO G   2      38.613   9.810  20.041  1.00105.18 LIG 0.25  C 
ATOM     52 O    PRO G   2      37.730   9.565  19.210  1.00111.30 LIG-0.27  OA
ATOM     53 H    ARG G   3      39.843   9.004  21.325  1.00 95.22 LIG 0.16  HD
BRANCH 51 54
ATOM     54  CA  PRO G   2      39.103  11.279  20.237  1.00104.44 LIG 0.35  C 
ATOM     55  N   PRO G   2      38.615  12.221  19.221  1.00103.34 LIG 0.32  N 
ATOM     56  CD  PRO G   2      38.376  13.571  19.783  1.00102.42 LIG 0.32  C 
ATOM     57  CG  PRO G   2      38.467  13.369  21.285  1.00 98.38 LIG 0.04  C 
ATOM     58  CB  PRO G   2      38.557  11.885  21.547  1.00102.80 LIG 0.05  C 
ENDBRANCH 51 54
ENDBRANCH 37 50
ENDBRANCH 34 37
ENDBRANCH 1 33
TORSDOF 20
ENDMDL
MODEL 54
USER: ADFR SOLUTION from run 178
USER: SCORE 15.197584 LL:  -4.325 LR: -12.185 RR:   0.000 FEB:  -6.219
USER: RMSD 10.962242
USER: SEED 177
USER: STATUS no improvement in best in 9 clusters for 5 generations
USER: GENES 22
USER: genes 0 Translation |==|  0.42471 0.52478 0.67912
USER: genes 1 Rotation |==|  0.27307 0.56994 0.93463 0.56860
USER: genes 2 Torsion [C]-CA--CB-[CG] |==|  0.57030
USER: genes 3 Torsion [CA]-CB--CG-[CD1] |==|  0.29843
USER: genes 4 Torsion [N]-CA--C-[N] |==|  0.50995
USER: genes 5 Torsion [N]-CA--C-[N] |==|  0.83439
USER: genes 6 Torsion [C]-N--CA-[C] |==|  0.16639
USER: genes 7 Torsion [N]-CA--C-[N] |==|  0.12459
USER: genes 8 Torsion [C]-N--CA-[CB] |==|  0.42386
USER: genes 9 Torsion [N]-CA--CB-[CG] |==|  0.00948
USER: genes 10 Torsion [CA]-CB--CG-[CD2] |==|  0.59886
USER: genes 11 Torsion [N]-CA--C-[O] |==|  0.01252
USER: genes 12 Torsion [N]-CA--CB-[CG] |==|  0.55909
USER: genes 13 Torsion [CA]-CB--CG-[CD2] |==|  0.42638
USER: genes 14 Torsion [CB]-CA--N-[C] |==|  0.25502
USER: genes 15 Torsion [N]-C--CA-[N] |==|  0.10590
USER: genes 16 Torsion [C]-CA--CB-[CG] |==|  0.46814
USER: genes 17 Torsion [CA]-CB--CG-[CD] |==|  0.22621
USER: genes 18 Torsion [CB]-CG--CD-[NE] |==|  0.12713
USER: genes 19 Torsion [CG]-CD--NE-[HE] |==|  0.86624
USER: genes 20 Torsion [C]-CA--N-[C] |==|  0.17218
USER: genes 21 Torsion [N]-C--CA-[CB] |==|  0.65359
ROOT
ATOM      1  CA  LEU G   4      38.631   5.377  26.911  1.00 72.45 LIG 0.18  C 
ENDROOT
BRANCH 1 2
ATOM      2  CB  LEU G   4      37.265   5.086  26.238  1.00 74.60 LIG 0.04  C 
BRANCH 2 3
ATOM      3  CG  LEU G   4      36.634   6.309  25.490  1.00 80.94 LIG-0.02  C 
ATOM      4  CD2 LEU G   4      35.197   6.639  25.933  1.00 76.26 LIG 0.01  C 
ATOM      5  CD1 LEU G   4      36.711   6.142  23.967  1.00 74.38 LIG 0.01  C 
ENDBRANCH 2 3
ENDBRANCH 1 2
BRANCH 1 6
ATOM      6  C   LEU G   4      39.519   4.113  27.091  1.00 69.99 LIG 0.24  C 
ATOM      7 O    LEU G   4      40.761   4.131  26.841  1.00 62.75 LIG-0.27  OA
ATOM      8  N   PRO G   5      38.891   3.022  27.600  1.00 68.53 LIG-0.34  N 
ATOM      9  CA  PRO G   5      39.657   1.795  27.705  1.00 66.41 LIG 0.18  C 
ATOM     10  CD  PRO G   5      37.560   2.885  28.239  1.00 67.94 LIG 0.13  C 
ATOM     11  CB  PRO G   5      38.673   0.820  28.401  1.00 68.06 LIG 0.04  C 
ATOM     12  CG  PRO G   5      37.741   1.708  29.168  1.00 67.97 LIG 0.02  C 
BRANCH 9 13
ATOM     13  C   PRO G   5      40.082   1.340  26.305  1.00 65.16 LIG 0.24  C 
ATOM     14  N   LEU G   6      39.113   1.090  25.432  1.00 58.40 LIG-0.35  N 
ATOM     15 H    LEU G   6      38.288   1.301  25.549  1.00 58.40 LIG 0.16  HD
ATOM     16 O    PRO G   5      41.288   1.210  26.028  1.00 57.12 LIG-0.27  OA
BRANCH 14 17
ATOM     17  CA  LEU G   6      39.399   0.417  24.168  1.00 60.31 LIG 0.18  C 
BRANCH 17 18
ATOM     18  C   LEU G   6      40.000  -0.979  24.308  1.00 60.34 LIG 0.24  C 
ATOM     19 O    LEU G   6      40.927  -1.283  23.577  1.00 72.64 LIG-0.27  OA
ATOM     20  N   LEU G   7      39.474  -1.834  25.196  1.00 65.91 LIG-0.35  N 
ATOM     21 H    LEU G   7      38.748  -1.683  25.632  1.00 65.91 LIG 0.16  HD
BRANCH 20 22
ATOM     22  CA  LEU G   7      40.120  -3.157  25.510  1.00 66.14 LIG 0.16  C 
BRANCH 22 23
ATOM     23  CB  LEU G   7      39.764  -3.602  26.941  1.00 64.61 LIG 0.04  C 
BRANCH 23 24
ATOM     24  CG  LEU G   7      38.795  -2.736  27.768  1.00 68.76 LIG-0.02  C 
ATOM     25  CD2 LEU G   7      39.184  -2.727  29.263  1.00 64.31 LIG 0.01  C 
ATOM     26  CD1 LEU G   7      37.331  -3.132  27.543  1.00 66.72 LIG 0.01  C 
ENDBRANCH 23 24
ENDBRANCH 22 23
BRANCH 22 27
ATOM     27  C   LEU G   7      39.794  -4.270  24.507  1.00 59.22 LIG 0.22  C 
ATOM     28 O    LEU G   7      39.133  -4.006  23.514  1.00 55.72 LIG-0.29  OA
ENDBRANCH 22 27
ENDBRANCH 20 22
ENDBRANCH 17 18
BRANCH 17 29
ATOM     29  CB  LEU G   6      40.256   1.319  23.245  1.00 54.67 LIG 0.04  C 
BRANCH 29 30
ATOM     30  CG  LEU G   6      40.084   0.835  21.787  1.00 53.09 LIG-0.02  C 
ATOM     31  CD1 LEU G   6      38.741   0.171  21.627  1.00 49.97 LIG 0.01  C 
ATOM     32  CD2 LEU G   6      40.313   1.948  20.761  1.00 51.63 LIG 0.01  C 
ENDBRANCH 29 30
ENDBRANCH 17 29
ENDBRANCH 14 17
ENDBRANCH 9 13
ENDBRANCH 1 6
BRANCH 1 33
ATOM     33  N   LEU G   4      39.348   6.495  26.278  1.00 70.21 LIG-0.35  N 
ATOM     34  C   ARG G   3      39.194   7.744  26.732  1.00 75.48 LIG 0.24  C 
ATOM     35 O    ARG G   3      38.380   8.015  27.658  1.00 65.52 LIG-0.27  OA
ATOM     36 H    LEU G   4      39.854   6.275  25.618  1.00 70.21 LIG 0.16  HD
BRANCH 34 37
ATOM     37  CA  ARG G   3      40.046   8.867  26.028  1.00 78.48 LIG 0.18  C 
BRANCH 37 38
ATOM     38  CB  ARG G   3      39.496  10.278  26.327  1.00 76.51 LIG 0.04  C 
BRANCH 38 39
ATOM     39  CG  ARG G   3      40.407  11.426  25.918  1.00 78.92 LIG 0.02  C 
BRANCH 39 40
ATOM     40  CD  ARG G   3      40.291  11.756  24.427  1.00 76.70 LIG 0.14  C 
BRANCH 40 41
ATOM     41  NE  ARG G   3      38.899  11.836  23.915  1.00 80.12 LIG-0.23  N 
ATOM     42 HE   ARG G   3      38.373  11.189  24.125  1.00 80.12 LIG 0.18  HD
ATOM     43  CZ  ARG G   3      38.375  12.819  23.154  1.00 82.69 LIG 0.67  C 
ATOM     44  NH1 ARG G   3      39.089  13.867  22.711  1.00 73.81 LIG-0.23  N 
ATOM     45  NH2 ARG G   3      37.097  12.741  22.798  1.00 84.58 LIG-0.23  N 
ATOM     46 1HH1 ARG G   3      39.923  13.934  22.909  1.00 73.81 LIG 0.17  HD
ATOM     47 2HH1 ARG G   3      38.713  14.472  22.227  1.00 73.81 LIG 0.17  HD
ATOM     48 2HH2 ARG G   3      36.747  13.359  22.313  1.00 84.58 LIG 0.17  HD
ATOM     49 1HH2 ARG G   3      36.620  12.073  23.053  1.00 84.58 LIG 0.17  HD
ENDBRANCH 40 41
ENDBRANCH 39 40
ENDBRANCH 38 39
ENDBRANCH 37 38
BRANCH 37 50
ATOM     50  N   ARG G   3      40.167   8.661  24.555  1.00 95.22 LIG-0.35  N 
ATOM     51  C   PRO G   2      39.112   8.655  23.721  1.00105.18 LIG 0.25  C 
ATOM     52 O    PRO G   2      37.946   8.732  24.123  1.00111.30 LIG-0.27  OA
ATOM     53 H    ARG G   3      40.977   8.545  24.289  1.00 95.22 LIG 0.16  HD
BRANCH 51 54
ATOM     54  CA  PRO G   2      39.396   8.538  22.190  1.00104.44 LIG 0.35  C 
ATOM     55  N   PRO G   2      38.801   7.355  21.554  1.00103.34 LIG 0.32  N 
ATOM     56  CD  PRO G   2      38.373   7.629  20.162  1.00102.42 LIG 0.32  C 
ATOM     57  CG  PRO G   2      38.466   9.139  20.035  1.00 98.38 LIG 0.04  C 
ATOM     58  CB  PRO G   2      38.753   9.700  21.407  1.00102.80 LIG 0.05  C 
ENDBRANCH 51 54
ENDBRANCH 37 50
ENDBRANCH 34 37
ENDBRANCH 1 33
TORSDOF 20
ENDMDL
MODEL 55
USER: ADFR SOLUTION from run 60
USER: SCORE 15.750060 LL:  -5.024 LR: -12.145 RR:   0.000 FEB:  -6.179
USER: RMSD 9.968376
USER: SEED 59
USER: STATUS no improvement in best in 11 clusters for 5 generations
USER: GENES 22
USER: genes 0 Translation |==|  0.43358 0.48939 0.26341
USER: genes 1 Rotation |==|  0.06613 0.43926 0.63625 0.69875
USER: genes 2 Torsion [C]-CA--CB-[CG] |==|  0.19585
USER: genes 3 Torsion [CA]-CB--CG-[CD1] |==|  0.05366
USER: genes 4 Torsion [N]-CA--C-[N] |==|  0.81930
USER: genes 5 Torsion [N]-CA--C-[N] |==|  0.77510
USER: genes 6 Torsion [C]-N--CA-[C] |==|  0.56797
USER: genes 7 Torsion [N]-CA--C-[N] |==|  0.43419
USER: genes 8 Torsion [C]-N--CA-[CB] |==|  0.21052
USER: genes 9 Torsion [N]-CA--CB-[CG] |==|  0.71796
USER: genes 10 Torsion [CA]-CB--CG-[CD2] |==|  0.26689
USER: genes 11 Torsion [N]-CA--C-[O] |==|  0.86862
USER: genes 12 Torsion [N]-CA--CB-[CG] |==|  0.32041
USER: genes 13 Torsion [CA]-CB--CG-[CD2] |==|  0.67974
USER: genes 14 Torsion [CB]-CA--N-[C] |==|  0.20942
USER: genes 15 Torsion [N]-C--CA-[N] |==|  0.81231
USER: genes 16 Torsion [C]-CA--CB-[CG] |==|  0.25922
USER: genes 17 Torsion [CA]-CB--CG-[CD] |==|  0.21336
USER: genes 18 Torsion [CB]-CG--CD-[NE] |==|  0.86276
USER: genes 19 Torsion [CG]-CD--NE-[HE] |==|  0.16473
USER: genes 20 Torsion [C]-CA--N-[C] |==|  0.62692
USER: genes 21 Torsion [N]-C--CA-[CB] |==|  0.73721
ROOT
ATOM      1  CA  LEU G   4      38.777   4.369  18.805  1.00 72.45 LIG 0.18  C 
ENDROOT
BRANCH 1 2
ATOM      2  CB  LEU G   4      39.509   4.806  17.510  1.00 74.60 LIG 0.04  C 
BRANCH 2 3
ATOM      3  CG  LEU G   4      38.734   4.493  16.186  1.00 80.94 LIG-0.02  C 
ATOM      4  CD2 LEU G   4      38.942   5.541  15.077  1.00 76.26 LIG 0.01  C 
ATOM      5  CD1 LEU G   4      37.240   4.261  16.445  1.00 74.38 LIG 0.01  C 
ENDBRANCH 2 3
ENDBRANCH 1 2
BRANCH 1 6
ATOM      6  C   LEU G   4      38.720   2.826  18.998  1.00 69.99 LIG 0.24  C 
ATOM      7 O    LEU G   4      37.630   2.185  18.920  1.00 62.75 LIG-0.27  OA
ATOM      8  N   PRO G   5      39.918   2.213  19.179  1.00 68.53 LIG-0.34  N 
ATOM      9  CA  PRO G   5      39.907   0.788  19.449  1.00 66.41 LIG 0.18  C 
ATOM     10  CD  PRO G   5      41.299   2.718  18.991  1.00 67.94 LIG 0.13  C 
ATOM     11  CB  PRO G   5      41.414   0.425  19.500  1.00 68.06 LIG 0.04  C 
ATOM     12  CG  PRO G   5      42.082   1.470  18.660  1.00 67.97 LIG 0.02  C 
BRANCH 9 13
ATOM     13  C   PRO G   5      39.170   0.525  20.767  1.00 65.16 LIG 0.24  C 
ATOM     14  N   LEU G   6      39.856   0.707  21.888  1.00 58.40 LIG-0.35  N 
ATOM     15 H    LEU G   6      40.624   1.093  21.931  1.00 58.40 LIG 0.16  HD
ATOM     16 O    PRO G   5      37.984   0.151  20.756  1.00 57.12 LIG-0.27  OA
BRANCH 14 17
ATOM     17  CA  LEU G   6      39.331   0.247  23.171  1.00 60.31 LIG 0.18  C 
BRANCH 17 18
ATOM     18  C   LEU G   6      39.873   0.991  24.388  1.00 60.34 LIG 0.24  C 
ATOM     19 O    LEU G   6      40.967   1.521  24.299  1.00 72.64 LIG-0.27  OA
ATOM     20  N   LEU G   7      39.156   1.008  25.520  1.00 65.91 LIG-0.35  N 
ATOM     21 H    LEU G   7      38.444   0.541  25.642  1.00 65.91 LIG 0.16  HD
BRANCH 20 22
ATOM     22  CA  LEU G   7      39.543   1.862  26.698  1.00 66.14 LIG 0.16  C 
BRANCH 22 23
ATOM     23  CB  LEU G   7      39.188   3.338  26.431  1.00 64.61 LIG 0.04  C 
BRANCH 23 24
ATOM     24  CG  LEU G   7      40.310   4.308  26.013  1.00 68.76 LIG-0.02  C 
ATOM     25  CD2 LEU G   7      40.371   4.468  24.478  1.00 64.31 LIG 0.01  C 
ATOM     26  CD1 LEU G   7      41.663   3.921  26.620  1.00 66.72 LIG 0.01  C 
ENDBRANCH 23 24
ENDBRANCH 22 23
BRANCH 22 27
ATOM     27  C   LEU G   7      38.947   1.401  28.033  1.00 59.22 LIG 0.22  C 
ATOM     28 O    LEU G   7      37.757   1.127  28.093  1.00 55.72 LIG-0.29  OA
ENDBRANCH 22 27
ENDBRANCH 20 22
ENDBRANCH 17 18
BRANCH 17 29
ATOM     29  CB  LEU G   6      39.498  -1.287  23.316  1.00 54.67 LIG 0.04  C 
BRANCH 29 30
ATOM     30  CG  LEU G   6      40.474  -1.567  24.481  1.00 53.09 LIG-0.02  C 
ATOM     31  CD1 LEU G   6      39.769  -2.352  25.556  1.00 49.97 LIG 0.01  C 
ATOM     32  CD2 LEU G   6      41.771  -2.238  24.021  1.00 51.63 LIG 0.01  C 
ENDBRANCH 29 30
ENDBRANCH 17 29
ENDBRANCH 14 17
ENDBRANCH 9 13
ENDBRANCH 1 6
BRANCH 1 33
ATOM     33  N   LEU G   4      39.263   5.077  19.999  1.00 70.21 LIG-0.35  N 
ATOM     34  C   ARG G   3      38.914   6.349  20.224  1.00 75.48 LIG 0.24  C 
ATOM     35 O    ARG G   3      38.225   7.001  19.391  1.00 65.52 LIG-0.27  OA
ATOM     36 H    LEU G   4      39.771   4.612  20.514  1.00 70.21 LIG 0.16  HD
BRANCH 34 37
ATOM     37  CA  ARG G   3      39.437   7.005  21.556  1.00 78.48 LIG 0.18  C 
BRANCH 37 38
ATOM     38  CB  ARG G   3      40.977   6.959  21.655  1.00 76.51 LIG 0.04  C 
BRANCH 38 39
ATOM     39  CG  ARG G   3      41.695   8.195  21.135  1.00 78.92 LIG 0.02  C 
BRANCH 39 40
ATOM     40  CD  ARG G   3      41.621   9.366  22.120  1.00 76.70 LIG 0.14  C 
BRANCH 40 41
ATOM     41  NE  ARG G   3      40.258   9.661  22.631  1.00 80.12 LIG-0.23  N 
ATOM     42 HE   ARG G   3      39.858   9.027  23.052  1.00 80.12 LIG 0.18  HD
ATOM     43  CZ  ARG G   3      39.583  10.823  22.504  1.00 82.69 LIG 0.67  C 
ATOM     44  NH1 ARG G   3      40.064  11.884  21.834  1.00 73.81 LIG-0.23  N 
ATOM     45  NH2 ARG G   3      38.373  10.923  23.043  1.00 84.58 LIG-0.23  N 
ATOM     46 1HH1 ARG G   3      40.837  11.842  21.459  1.00 73.81 LIG 0.17  HD
ATOM     47 2HH1 ARG G   3      39.598  12.605  21.778  1.00 73.81 LIG 0.17  HD
ATOM     48 2HH2 ARG G   3      37.929  11.656  22.971  1.00 84.58 LIG 0.17  HD
ATOM     49 1HH2 ARG G   3      38.033  10.254  23.463  1.00 84.58 LIG 0.17  HD
ENDBRANCH 40 41
ENDBRANCH 39 40
ENDBRANCH 38 39
ENDBRANCH 37 38
BRANCH 37 50
ATOM     50  N   ARG G   3      38.823   6.402  22.776  1.00 95.22 LIG-0.35  N 
ATOM     51  C   PRO G   2      38.342   7.131  23.798  1.00105.18 LIG 0.25  C 
ATOM     52 O    PRO G   2      38.453   8.362  23.848  1.00111.30 LIG-0.27  OA
ATOM     53 H    ARG G   3      38.806   5.542  22.763  1.00 95.22 LIG 0.16  HD
BRANCH 51 54
ATOM     54  CA  PRO G   2      37.628   6.372  24.961  1.00104.44 LIG 0.35  C 
ATOM     55  N   PRO G   2      37.754   7.018  26.273  1.00103.34 LIG 0.32  N 
ATOM     56  CD  PRO G   2      36.544   6.827  27.106  1.00102.42 LIG 0.32  C 
ATOM     57  CG  PRO G   2      35.517   6.261  26.143  1.00 98.38 LIG 0.04  C 
ATOM     58  CB  PRO G   2      36.101   6.329  24.752  1.00102.80 LIG 0.05  C 
ENDBRANCH 51 54
ENDBRANCH 37 50
ENDBRANCH 34 37
ENDBRANCH 1 33
TORSDOF 20
ENDMDL
