MODEL 1
USER: ADFR SOLUTION from run 40
USER: SCORE 16.319499 LL:  -3.615 LR: -13.326 RR:   0.000 FEB:  -7.957
USER: RMSD 7.962142
USER: SEED 39
USER: STATUS no improvement in best in 11 clusters for 5 generations
USER: GENES 20
USER: genes 0 Translation |==|  0.41383 0.54167 0.65943
USER: genes 1 Rotation |==|  0.68076 0.53565 0.31187 0.92505
USER: genes 2 Torsion [C]-CA--N-[C] |==|  0.82124
USER: genes 3 Torsion [N]-C--CA-[N] |==|  0.81244
USER: genes 4 Torsion [C]-CA--CB-[CG] |==|  0.11231
USER: genes 5 Torsion [CA]-CB--CG-[CD1] |==|  0.35332
USER: genes 6 Torsion [C]-CA--N-[C] |==|  0.68855
USER: genes 7 Torsion [N]-C--CA-[N] |==|  0.54371
USER: genes 8 Torsion [C]-CA--CB-[CG] |==|  0.74943
USER: genes 9 Torsion [CA]-CB--CG-[CD] |==|  0.12179
USER: genes 10 Torsion [CB]-CG--CD-[OE1] |==|  0.69099
USER: genes 11 Torsion [N]-CA--C-[N] |==|  0.45556
USER: genes 12 Torsion [C]-N--CA-[CB] |==|  0.23317
USER: genes 13 Torsion [N]-CA--CB-[CG] |==|  0.75564
USER: genes 14 Torsion [CA]-CB--CG-[CD2] |==|  0.27592
USER: genes 15 Torsion [N]-CA--C-[O] |==|  0.35202
USER: genes 16 Torsion [N]-CA--CB-[CG] |==|  0.77086
USER: genes 17 Torsion [CA]-CB--CG-[CD] |==|  0.84194
USER: genes 18 Torsion [CB]-CG--CD-[NE] |==|  0.74487
USER: genes 19 Torsion [CG]-CD--NE-[HE] |==|  0.15403
ROOT
ATOM      1  CA  ARG G  10      26.248 -45.371  61.250  1.00109.03 LIG 0.18  C 
ENDROOT
BRANCH 1 2
ATOM      2  N   ARG G  10      26.129 -44.307  60.239  1.00109.38 LIG-0.35  N 
ATOM      3 H    ARG G  10      26.879 -43.937  60.041  1.00109.38 LIG 0.16  HD
ATOM      4  C   LEU G   9      24.949 -43.941  59.672  1.00112.90 LIG 0.24  C 
ATOM      5 O    LEU G   9      23.868 -44.463  59.969  1.00112.50 LIG-0.27  OA
BRANCH 4 6
ATOM      6  CA  LEU G   9      24.990 -42.835  58.603  1.00108.81 LIG 0.18  C 
BRANCH 6 7
ATOM      7  CB  LEU G   9      25.929 -43.223  57.434  1.00108.47 LIG 0.04  C 
BRANCH 7 8
ATOM      8  CG  LEU G   9      25.901 -44.684  56.939  1.00112.27 LIG-0.02  C 
ATOM      9  CD1 LEU G   9      25.678 -44.754  55.450  1.00111.85 LIG 0.01  C 
ATOM     10  CD2 LEU G   9      27.152 -45.437  57.336  1.00114.30 LIG 0.01  C 
ENDBRANCH 7 8
ENDBRANCH 6 7
BRANCH 6 11
ATOM     11  N   LEU G   9      25.360 -41.523  59.155  1.00109.55 LIG-0.35  N 
ATOM     12 H    LEU G   9      26.176 -41.497  59.427  1.00109.55 LIG 0.16  HD
ATOM     13  C   GLU G   8      24.543 -40.451  59.246  1.00113.88 LIG 0.26  C 
ATOM     14 O    GLU G   8      23.360 -40.470  58.891  1.00113.76 LIG-0.27  OA
BRANCH 13 15
ATOM     15  CA  GLU G   8      25.161 -39.158  59.802  1.00110.25 LIG 0.40  C 
ATOM     16  N   GLU G   8      24.159 -38.174  60.209  1.00110.33 LIG 0.61  N 
BRANCH 15 17
ATOM     17  CB  GLU G   8      26.158 -39.443  60.938  1.00111.70 LIG 0.06  C 
BRANCH 17 18
ATOM     18  CG  GLU G   8      25.505 -39.455  62.312  1.00121.64 LIG 0.12  C 
BRANCH 18 19
ATOM     19  CD  GLU G   8      24.178 -40.184  62.447  1.00138.36 LIG 0.17  C 
ATOM     20 OE1  GLU G   8      23.138 -39.518  62.657  1.00130.99 LIG-0.65  OA
ATOM     21 OE2  GLU G   8      24.178 -41.428  62.305  1.00129.20 LIG-0.65  OA
ENDBRANCH 18 19
ENDBRANCH 17 18
ENDBRANCH 15 17
ENDBRANCH 13 15
ENDBRANCH 6 11
ENDBRANCH 4 6
ENDBRANCH 1 2
BRANCH 1 22
ATOM     22  C   ARG G  10      25.525 -45.083  62.584  1.00112.09 LIG 0.24  C 
ATOM     23 O    ARG G  10      25.183 -43.932  62.865  1.00111.78 LIG-0.27  OA
ATOM     24  N   LEU G  11      25.318 -46.140  63.407  1.00107.87 LIG-0.35  N 
ATOM     25 H    LEU G  11      25.554 -46.939  63.192  1.00107.87 LIG 0.16  HD
BRANCH 24 26
ATOM     26  CA  LEU G  11      24.683 -46.074  64.731  1.00123.94 LIG 0.16  C 
BRANCH 26 27
ATOM     27  CB  LEU G  11      23.136 -46.119  64.599  1.00123.74 LIG 0.04  C 
BRANCH 27 28
ATOM     28  CG  LEU G  11      22.347 -44.801  64.405  1.00127.90 LIG-0.02  C 
ATOM     29  CD2 LEU G  11      22.000 -44.595  62.947  1.00129.89 LIG 0.01  C 
ATOM     30  CD1 LEU G  11      23.118 -43.596  64.905  1.00127.81 LIG 0.01  C 
ENDBRANCH 27 28
ENDBRANCH 26 27
BRANCH 26 31
ATOM     31  C   LEU G  11      25.203 -47.218  65.616  1.00152.65 LIG 0.22  C 
ATOM     32 O    LEU G  11      25.674 -46.976  66.728  1.00110.84 LIG-0.29  OA
ENDBRANCH 26 31
ENDBRANCH 24 26
ENDBRANCH 1 22
BRANCH 1 33
ATOM     33  CB  ARG G  10      27.731 -45.697  61.505  1.00110.06 LIG 0.04  C 
BRANCH 33 34
ATOM     34  CG  ARG G  10      28.326 -46.654  60.482  1.00122.67 LIG 0.02  C 
BRANCH 34 35
ATOM     35  CD  ARG G  10      27.555 -47.960  60.407  1.00133.32 LIG 0.14  C 
BRANCH 35 36
ATOM     36  NE  ARG G  10      28.106 -48.975  61.310  1.00140.65 LIG-0.23  N 
ATOM     37 HE   ARG G  10      28.177 -48.773  62.143  1.00140.65 LIG 0.18  HD
ATOM     38  CZ  ARG G  10      28.504 -50.186  60.931  1.00153.40 LIG 0.67  C 
ATOM     39  NH2 ARG G  10      28.994 -51.039  61.820  1.00139.74 LIG-0.23  N 
ATOM     40  NH1 ARG G  10      28.417 -50.554  59.657  1.00139.37 LIG-0.23  N 
ATOM     41 2HH2 ARG G  10      29.250 -51.821  61.571  1.00139.74 LIG 0.17  HD
ATOM     42 1HH2 ARG G  10      29.055 -50.810  62.647  1.00139.74 LIG 0.17  HD
ATOM     43 1HH1 ARG G  10      28.102 -50.007  59.073  1.00139.37 LIG 0.17  HD
ATOM     44 2HH1 ARG G  10      28.675 -51.338  59.417  1.00139.37 LIG 0.17  HD
ENDBRANCH 35 36
ENDBRANCH 34 35
ENDBRANCH 33 34
ENDBRANCH 1 33
TORSDOF 18
ENDMDL
MODEL 2
USER: ADFR SOLUTION from run 91
USER: SCORE 15.203181 LL:  -3.200 LR: -12.795 RR:   0.000 FEB:  -7.426
USER: RMSD 9.106311
USER: SEED 90
USER: STATUS no improvement in best in 9 clusters for 5 generations
USER: GENES 20
USER: genes 0 Translation |==|  0.47006 0.53744 0.44892
USER: genes 1 Rotation |==|  0.97394 0.50598 0.64611 0.56324
USER: genes 2 Torsion [C]-CA--N-[C] |==|  0.76205
USER: genes 3 Torsion [N]-C--CA-[N] |==|  0.06865
USER: genes 4 Torsion [C]-CA--CB-[CG] |==|  0.84236
USER: genes 5 Torsion [CA]-CB--CG-[CD1] |==|  0.34086
USER: genes 6 Torsion [C]-CA--N-[C] |==|  0.60280
USER: genes 7 Torsion [N]-C--CA-[N] |==|  0.10098
USER: genes 8 Torsion [C]-CA--CB-[CG] |==|  0.85098
USER: genes 9 Torsion [CA]-CB--CG-[CD] |==|  0.88384
USER: genes 10 Torsion [CB]-CG--CD-[OE1] |==|  0.22020
USER: genes 11 Torsion [N]-CA--C-[N] |==|  0.16112
USER: genes 12 Torsion [C]-N--CA-[CB] |==|  0.23612
USER: genes 13 Torsion [N]-CA--CB-[CG] |==|  0.63454
USER: genes 14 Torsion [CA]-CB--CG-[CD2] |==|  0.24150
USER: genes 15 Torsion [N]-CA--C-[O] |==|  0.81619
USER: genes 16 Torsion [N]-CA--CB-[CG] |==|  0.89853
USER: genes 17 Torsion [CA]-CB--CG-[CD] |==|  0.31856
USER: genes 18 Torsion [CB]-CG--CD-[NE] |==|  0.11286
USER: genes 19 Torsion [CG]-CD--NE-[HE] |==|  0.93832
ROOT
ATOM      1  CA  ARG G  10      27.344 -45.447  56.671  1.00109.03 LIG 0.18  C 
ENDROOT
BRANCH 1 2
ATOM      2  N   ARG G  10      26.298 -44.986  57.598  1.00109.38 LIG-0.35  N 
ATOM      3 H    ARG G  10      26.115 -45.552  58.218  1.00109.38 LIG 0.16  HD
ATOM      4  C   LEU G   9      25.677 -43.781  57.487  1.00112.90 LIG 0.24  C 
ATOM      5 O    LEU G   9      25.930 -42.973  56.586  1.00112.50 LIG-0.27  OA
BRANCH 4 6
ATOM      6  CA  LEU G   9      24.628 -43.424  58.555  1.00108.81 LIG 0.18  C 
BRANCH 6 7
ATOM      7  CB  LEU G   9      24.566 -41.894  58.787  1.00108.47 LIG 0.04  C 
BRANCH 7 8
ATOM      8  CG  LEU G   9      25.867 -41.171  59.195  1.00112.27 LIG-0.02  C 
ATOM      9  CD1 LEU G   9      26.210 -40.071  58.223  1.00111.85 LIG 0.01  C 
ATOM     10  CD2 LEU G   9      25.796 -40.642  60.610  1.00114.30 LIG 0.01  C 
ENDBRANCH 7 8
ENDBRANCH 6 7
BRANCH 6 11
ATOM     11  N   LEU G   9      24.843 -44.136  59.824  1.00109.55 LIG-0.35  N 
ATOM     12 H    LEU G   9      25.677 -44.227  60.015  1.00109.55 LIG 0.16  HD
ATOM     13  C   GLU G   8      23.869 -44.611  60.631  1.00113.88 LIG 0.26  C 
ATOM     14 O    GLU G   8      22.666 -44.519  60.366  1.00113.76 LIG-0.27  OA
BRANCH 13 15
ATOM     15  CA  GLU G   8      24.322 -45.270  61.943  1.00110.25 LIG 0.40  C 
ATOM     16  N   GLU G   8      25.485 -44.616  62.541  1.00110.33 LIG 0.61  N 
BRANCH 15 17
ATOM     17  CB  GLU G   8      23.167 -45.388  62.953  1.00111.70 LIG 0.06  C 
BRANCH 17 18
ATOM     18  CG  GLU G   8      22.470 -44.061  63.215  1.00121.64 LIG 0.12  C 
BRANCH 18 19
ATOM     19  CD  GLU G   8      23.350 -42.830  63.366  1.00138.36 LIG 0.17  C 
ATOM     20 OE1  GLU G   8      23.803 -42.278  62.337  1.00130.99 LIG-0.65  OA
ATOM     21 OE2  GLU G   8      23.555 -42.397  64.522  1.00129.20 LIG-0.65  OA
ENDBRANCH 18 19
ENDBRANCH 17 18
ENDBRANCH 15 17
ENDBRANCH 13 15
ENDBRANCH 6 11
ENDBRANCH 4 6
ENDBRANCH 1 2
BRANCH 1 22
ATOM     22  C   ARG G  10      26.820 -46.138  55.393  1.00112.09 LIG 0.24  C 
ATOM     23 O    ARG G  10      27.179 -47.285  55.119  1.00111.78 LIG-0.27  OA
ATOM     24  N   LEU G  11      25.985 -45.415  54.607  1.00107.87 LIG-0.35  N 
ATOM     25 H    LEU G  11      25.736 -44.618  54.816  1.00107.87 LIG 0.16  HD
BRANCH 24 26
ATOM     26  CA  LEU G  11      25.406 -45.872  53.335  1.00123.94 LIG 0.16  C 
BRANCH 26 27
ATOM     27  CB  LEU G  11      24.113 -46.695  53.587  1.00123.74 LIG 0.04  C 
BRANCH 27 28
ATOM     28  CG  LEU G  11      23.927 -48.063  52.886  1.00127.90 LIG-0.02  C 
ATOM     29  CD2 LEU G  11      24.553 -49.172  53.702  1.00129.89 LIG 0.01  C 
ATOM     30  CD1 LEU G  11      24.526 -48.076  51.494  1.00127.81 LIG 0.01  C 
ENDBRANCH 27 28
ENDBRANCH 26 27
BRANCH 26 31
ATOM     31  C   LEU G  11      25.134 -44.667  52.422  1.00152.65 LIG 0.22  C 
ATOM     32 O    LEU G  11      24.283 -43.834  52.733  1.00110.84 LIG-0.29  OA
ENDBRANCH 26 31
ENDBRANCH 24 26
ENDBRANCH 1 22
BRANCH 1 33
ATOM     33  CB  ARG G  10      28.336 -46.366  57.407  1.00110.06 LIG 0.04  C 
BRANCH 33 34
ATOM     34  CG  ARG G  10      28.608 -45.939  58.842  1.00122.67 LIG 0.02  C 
BRANCH 34 35
ATOM     35  CD  ARG G  10      28.105 -46.961  59.846  1.00133.32 LIG 0.14  C 
BRANCH 35 36
ATOM     36  NE  ARG G  10      28.370 -48.335  59.410  1.00140.65 LIG-0.23  N 
ATOM     37 HE   ARG G  10      28.491 -48.471  58.570  1.00140.65 LIG 0.18  HD
ATOM     38  CZ  ARG G  10      28.437 -49.385  60.224  1.00153.40 LIG 0.67  C 
ATOM     39  NH2 ARG G  10      28.679 -50.595  59.737  1.00139.74 LIG-0.23  N 
ATOM     40  NH1 ARG G  10      28.259 -49.234  61.532  1.00139.37 LIG-0.23  N 
ATOM     41 2HH2 ARG G  10      28.722 -51.271  60.266  1.00139.74 LIG 0.17  HD
ATOM     42 1HH2 ARG G  10      28.795 -50.703  58.891  1.00139.74 LIG 0.17  HD
ATOM     43 1HH1 ARG G  10      28.100 -48.454  61.856  1.00139.37 LIG 0.17  HD
ATOM     44 2HH1 ARG G  10      28.303 -49.916  62.053  1.00139.37 LIG 0.17  HD
ENDBRANCH 35 36
ENDBRANCH 34 35
ENDBRANCH 33 34
ENDBRANCH 1 33
TORSDOF 18
ENDMDL
MODEL 3
USER: ADFR SOLUTION from run 40
USER: SCORE 15.037759 LL:  -2.645 LR: -12.668 RR:   0.000 FEB:  -7.298
USER: RMSD 5.638249
USER: SEED 39
USER: STATUS no improvement in best in 11 clusters for 5 generations
USER: GENES 20
USER: genes 0 Translation |==|  0.43167 0.53804 0.64500
USER: genes 1 Rotation |==|  0.67588 0.51053 0.32871 0.93545
USER: genes 2 Torsion [C]-CA--N-[C] |==|  0.56664
USER: genes 3 Torsion [N]-C--CA-[N] |==|  0.45784
USER: genes 4 Torsion [C]-CA--CB-[CG] |==|  0.20487
USER: genes 5 Torsion [CA]-CB--CG-[CD1] |==|  0.73432
USER: genes 6 Torsion [C]-CA--N-[C] |==|  0.55154
USER: genes 7 Torsion [N]-C--CA-[N] |==|  0.17515
USER: genes 8 Torsion [C]-CA--CB-[CG] |==|  0.66263
USER: genes 9 Torsion [CA]-CB--CG-[CD] |==|  0.45274
USER: genes 10 Torsion [CB]-CG--CD-[OE1] |==|  0.82188
USER: genes 11 Torsion [N]-CA--C-[N] |==|  0.46455
USER: genes 12 Torsion [C]-N--CA-[CB] |==|  0.20960
USER: genes 13 Torsion [N]-CA--CB-[CG] |==|  0.68937
USER: genes 14 Torsion [CA]-CB--CG-[CD2] |==|  0.35390
USER: genes 15 Torsion [N]-CA--C-[O] |==|  0.37034
USER: genes 16 Torsion [N]-CA--CB-[CG] |==|  0.75318
USER: genes 17 Torsion [CA]-CB--CG-[CD] |==|  0.87128
USER: genes 18 Torsion [CB]-CG--CD-[NE] |==|  0.71194
USER: genes 19 Torsion [CG]-CD--NE-[HE] |==|  0.16232
ROOT
ATOM      1  CA  ARG G  10      26.596 -45.436  60.936  1.00109.03 LIG 0.18  C 
ENDROOT
BRANCH 1 2
ATOM      2  N   ARG G  10      26.549 -44.443  59.850  1.00109.38 LIG-0.35  N 
ATOM      3 H    ARG G  10      26.327 -43.656  60.114  1.00109.38 LIG 0.16  HD
ATOM      4  C   LEU G   9      26.828 -44.739  58.552  1.00112.90 LIG 0.24  C 
ATOM      5 O    LEU G   9      27.133 -45.875  58.171  1.00112.50 LIG-0.27  OA
BRANCH 4 6
ATOM      6  CA  LEU G   9      26.772 -43.585  57.535  1.00108.81 LIG 0.18  C 
BRANCH 6 7
ATOM      7  CB  LEU G   9      25.314 -43.117  57.302  1.00108.47 LIG 0.04  C 
BRANCH 7 8
ATOM      8  CG  LEU G   9      24.632 -42.296  58.416  1.00112.27 LIG-0.02  C 
ATOM      9  CD1 LEU G   9      23.803 -43.176  59.316  1.00111.85 LIG 0.01  C 
ATOM     10  CD2 LEU G   9      25.633 -41.492  59.216  1.00114.30 LIG 0.01  C 
ENDBRANCH 7 8
ENDBRANCH 6 7
BRANCH 6 11
ATOM     11  N   LEU G   9      27.423 -43.920  56.259  1.00109.55 LIG-0.35  N 
ATOM     12 H    LEU G   9      27.520 -44.767  56.149  1.00109.55 LIG 0.16  HD
ATOM     13  C   GLU G   8      27.838 -43.027  55.334  1.00113.88 LIG 0.26  C 
ATOM     14 O    GLU G   8      27.738 -41.805  55.480  1.00113.76 LIG-0.27  OA
BRANCH 13 15
ATOM     15  CA  GLU G   8      28.438 -43.603  54.041  1.00110.25 LIG 0.40  C 
ATOM     16  N   GLU G   8      27.482 -44.395  53.269  1.00110.33 LIG 0.61  N 
BRANCH 15 17
ATOM     17  CB  GLU G   8      29.088 -42.510  53.175  1.00111.70 LIG 0.06  C 
BRANCH 17 18
ATOM     18  CG  GLU G   8      28.481 -42.418  51.782  1.00121.64 LIG 0.12  C 
BRANCH 18 19
ATOM     19  CD  GLU G   8      28.750 -41.150  50.988  1.00138.36 LIG 0.17  C 
ATOM     20 OE1  GLU G   8      28.303 -40.060  51.415  1.00130.99 LIG-0.65  OA
ATOM     21 OE2  GLU G   8      29.443 -41.246  49.950  1.00129.20 LIG-0.65  OA
ENDBRANCH 18 19
ENDBRANCH 17 18
ENDBRANCH 15 17
ENDBRANCH 13 15
ENDBRANCH 6 11
ENDBRANCH 4 6
ENDBRANCH 1 2
BRANCH 1 22
ATOM     22  C   ARG G  10      25.725 -45.095  62.165  1.00112.09 LIG 0.24  C 
ATOM     23 O    ARG G  10      25.266 -43.959  62.302  1.00111.78 LIG-0.27  OA
ATOM     24  N   LEU G  11      25.525 -46.089  63.066  1.00107.87 LIG-0.35  N 
ATOM     25 H    LEU G  11      25.844 -46.880  62.952  1.00107.87 LIG 0.16  HD
BRANCH 24 26
ATOM     26  CA  LEU G  11      24.761 -45.962  64.315  1.00123.94 LIG 0.16  C 
BRANCH 26 27
ATOM     27  CB  LEU G  11      23.235 -45.942  64.024  1.00123.74 LIG 0.04  C 
BRANCH 27 28
ATOM     28  CG  LEU G  11      22.427 -44.644  64.266  1.00127.90 LIG-0.02  C 
ATOM     29  CD2 LEU G  11      21.638 -44.267  63.032  1.00129.89 LIG 0.01  C 
ATOM     30  CD1 LEU G  11      23.319 -43.482  64.656  1.00127.81 LIG 0.01  C 
ENDBRANCH 27 28
ENDBRANCH 26 27
BRANCH 26 31
ATOM     31  C   LEU G  11      25.133 -47.104  65.273  1.00152.65 LIG 0.22  C 
ATOM     32 O    LEU G  11      25.381 -46.865  66.456  1.00110.84 LIG-0.29  OA
ENDBRANCH 26 31
ENDBRANCH 24 26
ENDBRANCH 1 22
BRANCH 1 33
ATOM     33  CB  ARG G  10      28.053 -45.684  61.365  1.00110.06 LIG 0.04  C 
BRANCH 33 34
ATOM     34  CG  ARG G  10      28.739 -46.788  60.573  1.00122.67 LIG 0.02  C 
BRANCH 34 35
ATOM     35  CD  ARG G  10      27.865 -48.023  60.443  1.00133.32 LIG 0.14  C 
BRANCH 35 36
ATOM     36  NE  ARG G  10      28.296 -49.097  61.343  1.00140.65 LIG-0.23  N 
ATOM     37 HE   ARG G  10      28.315 -48.929  62.186  1.00140.65 LIG 0.18  HD
ATOM     38  CZ  ARG G  10      28.659 -50.314  60.947  1.00153.40 LIG 0.67  C 
ATOM     39  NH2 ARG G  10      29.038 -51.222  61.836  1.00139.74 LIG-0.23  N 
ATOM     40  NH1 ARG G  10      28.649 -50.631  59.657  1.00139.37 LIG-0.23  N 
ATOM     41 2HH2 ARG G  10      29.272 -52.008  61.576  1.00139.74 LIG 0.17  HD
ATOM     42 1HH2 ARG G  10      29.049 -51.026  62.673  1.00139.74 LIG 0.17  HD
ATOM     43 1HH1 ARG G  10      28.406 -50.048  59.073  1.00139.37 LIG 0.17  HD
ATOM     44 2HH1 ARG G  10      28.885 -51.419  59.406  1.00139.37 LIG 0.17  HD
ENDBRANCH 35 36
ENDBRANCH 34 35
ENDBRANCH 33 34
ENDBRANCH 1 33
TORSDOF 18
ENDMDL
MODEL 4
USER: ADFR SOLUTION from run 109
USER: SCORE 15.503896 LL:  -3.096 LR: -12.509 RR:   0.000 FEB:  -7.139
USER: RMSD 3.775240
USER: SEED 108
USER: STATUS no improvement in best in 13 clusters for 5 generations
USER: GENES 20
USER: genes 0 Translation |==|  0.39713 0.60417 0.53713
USER: genes 1 Rotation |==|  0.55393 0.51972 0.53321 0.99558
USER: genes 2 Torsion [C]-CA--N-[C] |==|  0.61243
USER: genes 3 Torsion [N]-C--CA-[N] |==|  0.37385
USER: genes 4 Torsion [C]-CA--CB-[CG] |==|  0.60694
USER: genes 5 Torsion [CA]-CB--CG-[CD1] |==|  0.46689
USER: genes 6 Torsion [C]-CA--N-[C] |==|  0.81794
USER: genes 7 Torsion [N]-C--CA-[N] |==|  0.74577
USER: genes 8 Torsion [C]-CA--CB-[CG] |==|  0.31761
USER: genes 9 Torsion [CA]-CB--CG-[CD] |==|  0.08642
USER: genes 10 Torsion [CB]-CG--CD-[OE1] |==|  0.28887
USER: genes 11 Torsion [N]-CA--C-[N] |==|  0.45555
USER: genes 12 Torsion [C]-N--CA-[CB] |==|  0.38571
USER: genes 13 Torsion [N]-CA--CB-[CG] |==|  0.56395
USER: genes 14 Torsion [CA]-CB--CG-[CD2] |==|  0.97543
USER: genes 15 Torsion [N]-CA--C-[O] |==|  0.22218
USER: genes 16 Torsion [N]-CA--CB-[CG] |==|  0.63098
USER: genes 17 Torsion [CA]-CB--CG-[CD] |==|  0.99665
USER: genes 18 Torsion [CB]-CG--CD-[NE] |==|  0.65981
USER: genes 19 Torsion [CG]-CD--NE-[HE] |==|  0.96760
ROOT
ATOM      1  CA  ARG G  10      25.922 -44.246  58.590  1.00109.03 LIG 0.18  C 
ENDROOT
BRANCH 1 2
ATOM      2  N   ARG G  10      25.502 -44.150  57.182  1.00109.38 LIG-0.35  N 
ATOM      3 H    ARG G  10      24.859 -43.594  57.053  1.00109.38 LIG 0.16  HD
ATOM      4  C   LEU G   9      26.072 -44.871  56.179  1.00112.90 LIG 0.24  C 
ATOM      5 O    LEU G   9      26.986 -45.681  56.369  1.00112.50 LIG-0.27  OA
BRANCH 4 6
ATOM      6  CA  LEU G   9      25.548 -44.636  54.752  1.00108.81 LIG 0.18  C 
BRANCH 6 7
ATOM      7  CB  LEU G   9      24.560 -45.750  54.329  1.00108.47 LIG 0.04  C 
BRANCH 7 8
ATOM      8  CG  LEU G   9      24.617 -46.253  52.872  1.00112.27 LIG-0.02  C 
ATOM      9  CD1 LEU G   9      23.812 -47.515  52.695  1.00111.85 LIG 0.01  C 
ATOM     10  CD2 LEU G   9      24.178 -45.188  51.892  1.00114.30 LIG 0.01  C 
ENDBRANCH 7 8
ENDBRANCH 6 7
BRANCH 6 11
ATOM     11  N   LEU G   9      26.630 -44.496  53.764  1.00109.55 LIG-0.35  N 
ATOM     12 H    LEU G   9      26.639 -45.137  53.191  1.00109.55 LIG 0.16  HD
ATOM     13  C   GLU G   8      27.531 -43.490  53.726  1.00113.88 LIG 0.26  C 
ATOM     14 O    GLU G   8      27.558 -42.573  54.554  1.00113.76 LIG-0.27  OA
BRANCH 13 15
ATOM     15  CA  GLU G   8      28.539 -43.512  52.566  1.00110.25 LIG 0.40  C 
ATOM     16  N   GLU G   8      29.775 -44.218  52.895  1.00110.33 LIG 0.61  N 
BRANCH 15 17
ATOM     17  CB  GLU G   8      27.910 -44.057  51.272  1.00111.70 LIG 0.06  C 
BRANCH 17 18
ATOM     18  CG  GLU G   8      27.818 -43.012  50.170  1.00121.64 LIG 0.12  C 
BRANCH 18 19
ATOM     19  CD  GLU G   8      28.893 -41.937  50.138  1.00138.36 LIG 0.17  C 
ATOM     20 OE1  GLU G   8      29.803 -42.013  49.280  1.00130.99 LIG-0.65  OA
ATOM     21 OE2  GLU G   8      28.800 -40.993  50.956  1.00129.20 LIG-0.65  OA
ENDBRANCH 18 19
ENDBRANCH 17 18
ENDBRANCH 15 17
ENDBRANCH 13 15
ENDBRANCH 6 11
ENDBRANCH 4 6
ENDBRANCH 1 2
BRANCH 1 22
ATOM     22  C   ARG G  10      24.767 -44.232  59.614  1.00112.09 LIG 0.24  C 
ATOM     23 O    ARG G  10      23.647 -43.839  59.279  1.00111.78 LIG-0.27  OA
ATOM     24  N   LEU G  11      25.061 -44.648  60.871  1.00107.87 LIG-0.35  N 
ATOM     25 H    LEU G  11      25.845 -44.928  61.088  1.00107.87 LIG 0.16  HD
BRANCH 24 26
ATOM     26  CA  LEU G  11      24.118 -44.677  61.999  1.00123.94 LIG 0.16  C 
BRANCH 26 27
ATOM     27  CB  LEU G  11      24.302 -45.976  62.831  1.00123.74 LIG 0.04  C 
BRANCH 27 28
ATOM     28  CG  LEU G  11      23.134 -46.497  63.704  1.00127.90 LIG-0.02  C 
ATOM     29  CD2 LEU G  11      22.013 -45.483  63.759  1.00129.89 LIG 0.01  C 
ATOM     30  CD1 LEU G  11      23.578 -46.820  65.117  1.00127.81 LIG 0.01  C 
ENDBRANCH 27 28
ENDBRANCH 26 27
BRANCH 26 31
ATOM     31  C   LEU G  11      24.304 -43.424  62.867  1.00152.65 LIG 0.22  C 
ATOM     32 O    LEU G  11      23.803 -42.352  62.524  1.00110.84 LIG-0.29  OA
ENDBRANCH 26 31
ENDBRANCH 24 26
ENDBRANCH 1 22
BRANCH 1 33
ATOM     33  CB  ARG G  10      26.938 -43.137  58.915  1.00110.06 LIG 0.04  C 
BRANCH 33 34
ATOM     34  CG  ARG G  10      28.164 -43.639  59.666  1.00122.67 LIG 0.02  C 
BRANCH 34 35
ATOM     35  CD  ARG G  10      28.088 -45.129  59.949  1.00133.32 LIG 0.14  C 
BRANCH 35 36
ATOM     36  NE  ARG G  10      28.186 -45.421  61.382  1.00140.65 LIG-0.23  N 
ATOM     37 HE   ARG G  10      28.427 -44.782  61.905  1.00140.65 LIG 0.18  HD
ATOM     38  CZ  ARG G  10      27.930 -46.606  61.930  1.00153.40 LIG 0.67  C 
ATOM     39  NH2 ARG G  10      28.049 -46.777  63.239  1.00139.74 LIG-0.23  N 
ATOM     40  NH1 ARG G  10      27.553 -47.629  61.171  1.00139.37 LIG-0.23  N 
ATOM     41 2HH2 ARG G  10      27.882 -47.545  63.590  1.00139.74 LIG 0.17  HD
ATOM     42 1HH2 ARG G  10      28.293 -46.121  63.739  1.00139.74 LIG 0.17  HD
ATOM     43 1HH1 ARG G  10      27.474 -47.528  60.321  1.00139.37 LIG 0.17  HD
ATOM     44 2HH1 ARG G  10      27.388 -48.393  61.530  1.00139.37 LIG 0.17  HD
ENDBRANCH 35 36
ENDBRANCH 34 35
ENDBRANCH 33 34
ENDBRANCH 1 33
TORSDOF 18
ENDMDL
MODEL 5
USER: ADFR SOLUTION from run 40
USER: SCORE 15.622149 LL:  -3.624 LR: -12.440 RR:   0.000 FEB:  -7.071
USER: RMSD 6.906884
USER: SEED 39
USER: STATUS no improvement in best in 11 clusters for 5 generations
USER: GENES 20
USER: genes 0 Translation |==|  0.42180 0.56591 0.63248
USER: genes 1 Rotation |==|  0.67203 0.54493 0.33333 0.93659
USER: genes 2 Torsion [C]-CA--N-[C] |==|  0.81107
USER: genes 3 Torsion [N]-C--CA-[N] |==|  0.84486
USER: genes 4 Torsion [C]-CA--CB-[CG] |==|  0.10313
USER: genes 5 Torsion [CA]-CB--CG-[CD1] |==|  0.36120
USER: genes 6 Torsion [C]-CA--N-[C] |==|  0.73123
USER: genes 7 Torsion [N]-C--CA-[N] |==|  0.92451
USER: genes 8 Torsion [C]-CA--CB-[CG] |==|  0.85786
USER: genes 9 Torsion [CA]-CB--CG-[CD] |==|  0.82595
USER: genes 10 Torsion [CB]-CG--CD-[OE1] |==|  0.68431
USER: genes 11 Torsion [N]-CA--C-[N] |==|  0.45426
USER: genes 12 Torsion [C]-N--CA-[CB] |==|  0.23093
USER: genes 13 Torsion [N]-CA--CB-[CG] |==|  0.70599
USER: genes 14 Torsion [CA]-CB--CG-[CD2] |==|  0.34294
USER: genes 15 Torsion [N]-CA--C-[O] |==|  0.48167
USER: genes 16 Torsion [N]-CA--CB-[CG] |==|  0.57622
USER: genes 17 Torsion [CA]-CB--CG-[CD] |==|  0.60121
USER: genes 18 Torsion [CB]-CG--CD-[NE] |==|  0.27534
USER: genes 19 Torsion [CG]-CD--NE-[HE] |==|  0.77715
ROOT
ATOM      1  CA  ARG G  10      26.403 -44.935  60.663  1.00109.03 LIG 0.18  C 
ENDROOT
BRANCH 1 2
ATOM      2  N   ARG G  10      26.163 -43.917  59.628  1.00109.38 LIG-0.35  N 
ATOM      3 H    ARG G  10      26.856 -43.442  59.446  1.00109.38 LIG 0.16  HD
ATOM      4  C   LEU G   9      24.962 -43.741  59.014  1.00112.90 LIG 0.24  C 
ATOM      5 O    LEU G   9      23.962 -44.415  59.285  1.00112.50 LIG-0.27  OA
BRANCH 4 6
ATOM      6  CA  LEU G   9      24.876 -42.659  57.923  1.00108.81 LIG 0.18  C 
BRANCH 6 7
ATOM      7  CB  LEU G   9      25.684 -43.067  56.666  1.00108.47 LIG 0.04  C 
BRANCH 7 8
ATOM      8  CG  LEU G   9      25.678 -44.553  56.254  1.00112.27 LIG-0.02  C 
ATOM      9  CD1 LEU G   9      25.345 -44.715  54.793  1.00111.85 LIG 0.01  C 
ATOM     10  CD2 LEU G   9      26.985 -45.236  56.591  1.00114.30 LIG 0.01  C 
ENDBRANCH 7 8
ENDBRANCH 6 7
BRANCH 6 11
ATOM     11  N   LEU G   9      25.294 -41.332  58.404  1.00109.55 LIG-0.35  N 
ATOM     12 H    LEU G   9      26.147 -41.227  58.383  1.00109.55 LIG 0.16  HD
ATOM     13  C   GLU G   8      24.464 -40.359  58.839  1.00113.88 LIG 0.26  C 
ATOM     14 O    GLU G   8      23.238 -40.496  58.907  1.00113.76 LIG-0.27  OA
BRANCH 13 15
ATOM     15  CA  GLU G   8      25.115 -39.026  59.238  1.00110.25 LIG 0.40  C 
ATOM     16  N   GLU G   8      26.498 -39.175  59.687  1.00110.33 LIG 0.61  N 
BRANCH 15 17
ATOM     17  CB  GLU G   8      25.001 -37.976  58.118  1.00111.70 LIG 0.06  C 
BRANCH 17 18
ATOM     18  CG  GLU G   8      25.481 -38.493  56.770  1.00121.64 LIG 0.12  C 
BRANCH 18 19
ATOM     19  CD  GLU G   8      26.943 -38.894  56.657  1.00138.36 LIG 0.17  C 
ATOM     20 OE1  GLU G   8      27.700 -38.226  55.915  1.00130.99 LIG-0.65  OA
ATOM     21 OE2  GLU G   8      27.337 -39.863  57.345  1.00129.20 LIG-0.65  OA
ENDBRANCH 18 19
ENDBRANCH 17 18
ENDBRANCH 15 17
ENDBRANCH 13 15
ENDBRANCH 6 11
ENDBRANCH 4 6
ENDBRANCH 1 2
BRANCH 1 22
ATOM     22  C   ARG G  10      25.666 -44.689  61.998  1.00112.09 LIG 0.24  C 
ATOM     23 O    ARG G  10      25.213 -43.572  62.258  1.00111.78 LIG-0.27  OA
ATOM     24  N   LEU G  11      25.571 -45.743  62.846  1.00107.87 LIG-0.35  N 
ATOM     25 H    LEU G  11      25.884 -46.519  62.647  1.00107.87 LIG 0.16  HD
BRANCH 24 26
ATOM     26  CA  LEU G  11      24.944 -45.710  64.175  1.00123.94 LIG 0.16  C 
BRANCH 26 27
ATOM     27  CB  LEU G  11      23.405 -45.890  64.058  1.00123.74 LIG 0.04  C 
BRANCH 27 28
ATOM     28  CG  LEU G  11      22.474 -44.671  64.267  1.00127.90 LIG-0.02  C 
ATOM     29  CD2 LEU G  11      21.590 -44.459  63.058  1.00129.89 LIG 0.01  C 
ATOM     30  CD1 LEU G  11      23.253 -43.399  64.538  1.00127.81 LIG 0.01  C 
ENDBRANCH 27 28
ENDBRANCH 26 27
BRANCH 26 31
ATOM     31  C   LEU G  11      25.567 -46.789  65.073  1.00152.65 LIG 0.22  C 
ATOM     32 O    LEU G  11      25.268 -46.851  66.266  1.00110.84 LIG-0.29  OA
ENDBRANCH 26 31
ENDBRANCH 24 26
ENDBRANCH 1 22
BRANCH 1 33
ATOM     33  CB  ARG G  10      27.914 -45.094  60.910  1.00110.06 LIG 0.04  C 
BRANCH 33 34
ATOM     34  CG  ARG G  10      28.304 -46.479  61.409  1.00122.67 LIG 0.02  C 
BRANCH 34 35
ATOM     35  CD  ARG G  10      29.434 -46.422  62.422  1.00133.32 LIG 0.14  C 
BRANCH 35 36
ATOM     36  NE  ARG G  10      28.942 -46.510  63.799  1.00140.65 LIG-0.23  N 
ATOM     37 HE   ARG G  10      28.626 -45.795  64.157  1.00140.65 LIG 0.18  HD
ATOM     38  CZ  ARG G  10      28.950 -47.618  64.534  1.00153.40 LIG 0.67  C 
ATOM     39  NH2 ARG G  10      28.485 -47.601  65.776  1.00139.74 LIG-0.23  N 
ATOM     40  NH1 ARG G  10      29.425 -48.753  64.033  1.00139.37 LIG-0.23  N 
ATOM     41 2HH2 ARG G  10      28.491 -48.320  66.248  1.00139.74 LIG 0.17  HD
ATOM     42 1HH2 ARG G  10      28.176 -46.871  66.110  1.00139.74 LIG 0.17  HD
ATOM     43 1HH1 ARG G  10      29.730 -48.774  63.230  1.00139.37 LIG 0.17  HD
ATOM     44 2HH1 ARG G  10      29.428 -49.467  64.513  1.00139.37 LIG 0.17  HD
ENDBRANCH 35 36
ENDBRANCH 34 35
ENDBRANCH 33 34
ENDBRANCH 1 33
TORSDOF 18
ENDMDL
MODEL 6
USER: ADFR SOLUTION from run 74
USER: SCORE 16.134739 LL:  -4.197 LR: -12.383 RR:   0.000 FEB:  -7.014
USER: RMSD 8.231232
USER: SEED 73
USER: STATUS no improvement in best in 7 clusters for 5 generations
USER: GENES 20
USER: genes 0 Translation |==|  0.37803 0.58412 0.20402
USER: genes 1 Rotation |==|  0.43109 0.11656 0.18930 0.54110
USER: genes 2 Torsion [C]-CA--N-[C] |==|  0.57246
USER: genes 3 Torsion [N]-C--CA-[N] |==|  0.97406
USER: genes 4 Torsion [C]-CA--CB-[CG] |==|  0.80991
USER: genes 5 Torsion [CA]-CB--CG-[CD1] |==|  0.20933
USER: genes 6 Torsion [C]-CA--N-[C] |==|  0.77242
USER: genes 7 Torsion [N]-C--CA-[N] |==|  0.70295
USER: genes 8 Torsion [C]-CA--CB-[CG] |==|  0.72588
USER: genes 9 Torsion [CA]-CB--CG-[CD] |==|  0.16060
USER: genes 10 Torsion [CB]-CG--CD-[OE1] |==|  0.80560
USER: genes 11 Torsion [N]-CA--C-[N] |==|  0.30002
USER: genes 12 Torsion [C]-N--CA-[CB] |==|  0.83801
USER: genes 13 Torsion [N]-CA--CB-[CG] |==|  0.67560
USER: genes 14 Torsion [CA]-CB--CG-[CD2] |==|  0.97828
USER: genes 15 Torsion [N]-CA--C-[O] |==|  0.48428
USER: genes 16 Torsion [N]-CA--CB-[CG] |==|  0.14205
USER: genes 17 Torsion [CA]-CB--CG-[CD] |==|  0.29199
USER: genes 18 Torsion [CB]-CG--CD-[NE] |==|  0.24454
USER: genes 19 Torsion [CG]-CD--NE-[HE] |==|  0.80967
ROOT
ATOM      1  CA  ARG G  10      25.550 -44.607  51.344  1.00109.03 LIG 0.18  C 
ENDROOT
BRANCH 1 2
ATOM      2  N   ARG G  10      25.730 -46.066  51.405  1.00109.38 LIG-0.35  N 
ATOM      3 H    ARG G  10      26.509 -46.305  51.678  1.00109.38 LIG 0.16  HD
ATOM      4  C   LEU G   9      24.759 -46.956  51.063  1.00112.90 LIG 0.24  C 
ATOM      5 O    LEU G   9      23.643 -46.612  50.657  1.00112.50 LIG-0.27  OA
BRANCH 4 6
ATOM      6  CA  LEU G   9      25.085 -48.452  51.214  1.00108.81 LIG 0.18  C 
BRANCH 6 7
ATOM      7  CB  LEU G   9      24.178 -49.116  52.280  1.00108.47 LIG 0.04  C 
BRANCH 7 8
ATOM      8  CG  LEU G   9      24.380 -48.711  53.755  1.00112.27 LIG-0.02  C 
ATOM      9  CD1 LEU G   9      23.803 -47.347  54.032  1.00111.85 LIG 0.01  C 
ATOM     10  CD2 LEU G   9      23.812 -49.743  54.704  1.00114.30 LIG 0.01  C 
ENDBRANCH 7 8
ENDBRANCH 6 7
BRANCH 6 11
ATOM     11  N   LEU G   9      26.504 -48.699  51.510  1.00109.55 LIG-0.35  N 
ATOM     12 H    LEU G   9      26.651 -48.819  52.349  1.00109.55 LIG 0.16  HD
ATOM     13  C   GLU G   8      27.500 -48.739  50.598  1.00113.88 LIG 0.26  C 
ATOM     14 O    GLU G   8      27.321 -48.541  49.392  1.00113.76 LIG-0.27  OA
BRANCH 13 15
ATOM     15  CA  GLU G   8      28.904 -49.075  51.125  1.00110.25 LIG 0.40  C 
ATOM     16  N   GLU G   8      29.798 -47.918  51.150  1.00110.33 LIG 0.61  N 
BRANCH 15 17
ATOM     17  CB  GLU G   8      28.849 -49.769  52.497  1.00111.70 LIG 0.06  C 
BRANCH 17 18
ATOM     18  CG  GLU G   8      29.099 -48.814  53.656  1.00121.64 LIG 0.12  C 
BRANCH 18 19
ATOM     19  CD  GLU G   8      28.170 -47.617  53.785  1.00138.36 LIG 0.17  C 
ATOM     20 OE1  GLU G   8      28.243 -46.697  52.938  1.00130.99 LIG-0.65  OA
ATOM     21 OE2  GLU G   8      27.339 -47.622  54.721  1.00129.20 LIG-0.65  OA
ENDBRANCH 18 19
ENDBRANCH 17 18
ENDBRANCH 15 17
ENDBRANCH 13 15
ENDBRANCH 6 11
ENDBRANCH 4 6
ENDBRANCH 1 2
BRANCH 1 22
ATOM     22  C   ARG G  10      26.852 -43.800  51.149  1.00112.09 LIG 0.24  C 
ATOM     23 O    ARG G  10      27.654 -43.686  52.079  1.00111.78 LIG-0.27  OA
ATOM     24  N   LEU G  11      27.039 -43.226  49.935  1.00107.87 LIG-0.35  N 
ATOM     25 H    LEU G  11      26.474 -43.322  49.293  1.00107.87 LIG 0.16  HD
BRANCH 24 26
ATOM     26  CA  LEU G  11      28.188 -42.391  49.557  1.00123.94 LIG 0.16  C 
BRANCH 26 27
ATOM     27  CB  LEU G  11      28.303 -41.161  50.499  1.00123.74 LIG 0.04  C 
BRANCH 27 28
ATOM     28  CG  LEU G  11      28.146 -39.735  49.917  1.00127.90 LIG-0.02  C 
ATOM     29  CD2 LEU G  11      28.081 -39.777  48.407  1.00129.89 LIG 0.01  C 
ATOM     30  CD1 LEU G  11      29.279 -38.820  50.338  1.00127.81 LIG 0.01  C 
ENDBRANCH 27 28
ENDBRANCH 26 27
BRANCH 26 31
ATOM     31  C   LEU G  11      29.473 -43.233  49.576  1.00152.65 LIG 0.22  C 
ATOM     32 O    LEU G  11      30.537 -42.748  49.189  1.00110.84 LIG-0.29  OA
ENDBRANCH 26 31
ENDBRANCH 24 26
ENDBRANCH 1 22
BRANCH 1 33
ATOM     33  CB  ARG G  10      24.797 -44.113  52.594  1.00110.06 LIG 0.04  C 
BRANCH 33 34
ATOM     34  CG  ARG G  10      25.405 -44.603  53.900  1.00122.67 LIG 0.02  C 
BRANCH 34 35
ATOM     35  CD  ARG G  10      26.168 -43.506  54.621  1.00133.32 LIG 0.14  C 
BRANCH 35 36
ATOM     36  NE  ARG G  10      25.301 -42.725  55.507  1.00140.65 LIG-0.23  N 
ATOM     37 HE   ARG G  10      24.706 -42.222  55.143  1.00140.65 LIG 0.18  HD
ATOM     38  CZ  ARG G  10      25.370 -42.740  56.835  1.00153.40 LIG 0.67  C 
ATOM     39  NH2 ARG G  10      24.543 -41.996  57.557  1.00139.74 LIG-0.23  N 
ATOM     40  NH1 ARG G  10      26.269 -43.498  57.453  1.00139.37 LIG-0.23  N 
ATOM     41 2HH2 ARG G  10      24.590 -42.008  58.416  1.00139.74 LIG 0.17  HD
ATOM     42 1HH2 ARG G  10      23.958 -41.501  57.166  1.00139.74 LIG 0.17  HD
ATOM     43 1HH1 ARG G  10      26.811 -43.983  56.994  1.00139.37 LIG 0.17  HD
ATOM     44 2HH1 ARG G  10      26.310 -43.504  58.312  1.00139.37 LIG 0.17  HD
ENDBRANCH 35 36
ENDBRANCH 34 35
ENDBRANCH 33 34
ENDBRANCH 1 33
TORSDOF 18
ENDMDL
MODEL 7
USER: ADFR SOLUTION from run 45
USER: SCORE 14.491075 LL:  -3.026 LR: -12.164 RR:   0.000 FEB:  -6.794
USER: RMSD 8.894984
USER: SEED 44
USER: STATUS no improvement in best in 28 clusters for 5 generations
USER: GENES 20
USER: genes 0 Translation |==|  0.48439 0.51026 0.39081
USER: genes 1 Rotation |==|  0.97272 0.53303 0.57772 0.63929
USER: genes 2 Torsion [C]-CA--N-[C] |==|  0.74848
USER: genes 3 Torsion [N]-C--CA-[N] |==|  0.05911
USER: genes 4 Torsion [C]-CA--CB-[CG] |==|  0.51887
USER: genes 5 Torsion [CA]-CB--CG-[CD1] |==|  0.50915
USER: genes 6 Torsion [C]-CA--N-[C] |==|  0.65004
USER: genes 7 Torsion [N]-C--CA-[N] |==|  0.16810
USER: genes 8 Torsion [C]-CA--CB-[CG] |==|  0.68710
USER: genes 9 Torsion [CA]-CB--CG-[CD] |==|  0.18157
USER: genes 10 Torsion [CB]-CG--CD-[OE1] |==|  0.85543
USER: genes 11 Torsion [N]-CA--C-[N] |==|  0.09920
USER: genes 12 Torsion [C]-N--CA-[CB] |==|  0.79482
USER: genes 13 Torsion [N]-CA--CB-[CG] |==|  0.78505
USER: genes 14 Torsion [CA]-CB--CG-[CD2] |==|  0.31640
USER: genes 15 Torsion [N]-CA--C-[O] |==|  0.32782
USER: genes 16 Torsion [N]-CA--CB-[CG] |==|  0.01317
USER: genes 17 Torsion [CA]-CB--CG-[CD] |==|  0.41626
USER: genes 18 Torsion [CB]-CG--CD-[NE] |==|  0.60677
USER: genes 19 Torsion [CG]-CD--NE-[HE] |==|  0.88149
ROOT
ATOM      1  CA  ARG G  10      27.624 -45.936  55.407  1.00109.03 LIG 0.18  C 
ENDROOT
BRANCH 1 2
ATOM      2  N   ARG G  10      26.851 -45.142  56.375  1.00109.38 LIG-0.35  N 
ATOM      3 H    ARG G  10      26.796 -45.505  57.152  1.00109.38 LIG 0.16  HD
ATOM      4  C   LEU G   9      26.275 -43.947  56.074  1.00112.90 LIG 0.24  C 
ATOM      5 O    LEU G   9      26.341 -43.431  54.952  1.00112.50 LIG-0.27  OA
BRANCH 4 6
ATOM      6  CA  LEU G   9      25.528 -43.216  57.203  1.00108.81 LIG 0.18  C 
BRANCH 6 7
ATOM      7  CB  LEU G   9      25.664 -41.679  57.059  1.00108.47 LIG 0.04  C 
BRANCH 7 8
ATOM      8  CG  LEU G   9      25.110 -40.795  58.196  1.00112.27 LIG-0.02  C 
ATOM      9  CD1 LEU G   9      25.248 -39.331  57.867  1.00111.85 LIG 0.01  C 
ATOM     10  CD2 LEU G   9      23.677 -41.143  58.532  1.00114.30 LIG 0.01  C 
ENDBRANCH 7 8
ENDBRANCH 6 7
BRANCH 6 11
ATOM     11  N   LEU G   9      25.952 -43.653  58.542  1.00109.55 LIG-0.35  N 
ATOM     12 H    LEU G   9      26.803 -43.596  58.655  1.00109.55 LIG 0.16  HD
ATOM     13  C   GLU G   8      25.131 -44.104  59.516  1.00113.88 LIG 0.26  C 
ATOM     14 O    GLU G   8      23.910 -44.224  59.370  1.00113.76 LIG-0.27  OA
BRANCH 13 15
ATOM     15  CA  GLU G   8      25.785 -44.450  60.863  1.00110.25 LIG 0.40  C 
ATOM     16  N   GLU G   8      26.450 -43.307  61.487  1.00110.33 LIG 0.61  N 
BRANCH 15 17
ATOM     17  CB  GLU G   8      24.788 -45.113  61.830  1.00111.70 LIG 0.06  C 
BRANCH 17 18
ATOM     18  CG  GLU G   8      24.462 -44.242  63.035  1.00121.64 LIG 0.12  C 
BRANCH 18 19
ATOM     19  CD  GLU G   8      23.724 -42.939  62.774  1.00138.36 LIG 0.17  C 
ATOM     20 OE1  GLU G   8      24.178 -42.145  61.918  1.00130.99 LIG-0.65  OA
ATOM     21 OE2  GLU G   8      22.663 -42.732  63.407  1.00129.20 LIG-0.65  OA
ENDBRANCH 18 19
ENDBRANCH 17 18
ENDBRANCH 15 17
ENDBRANCH 13 15
ENDBRANCH 6 11
ENDBRANCH 4 6
ENDBRANCH 1 2
BRANCH 1 22
ATOM     22  C   ARG G  10      26.796 -46.958  54.598  1.00112.09 LIG 0.24  C 
ATOM     23 O    ARG G  10      27.291 -48.041  54.278  1.00111.78 LIG-0.27  OA
ATOM     24  N   LEU G  11      25.536 -46.590  54.256  1.00107.87 LIG-0.35  N 
ATOM     25 H    LEU G  11      25.201 -45.835  54.495  1.00107.87 LIG 0.16  HD
BRANCH 24 26
ATOM     26  CA  LEU G  11      24.601 -47.398  53.460  1.00123.94 LIG 0.16  C 
BRANCH 26 27
ATOM     27  CB  LEU G  11      25.020 -47.404  51.964  1.00123.74 LIG 0.04  C 
BRANCH 27 28
ATOM     28  CG  LEU G  11      24.716 -46.170  51.080  1.00127.90 LIG-0.02  C 
ATOM     29  CD2 LEU G  11      25.998 -45.495  50.644  1.00129.89 LIG 0.01  C 
ATOM     30  CD1 LEU G  11      23.843 -45.158  51.794  1.00127.81 LIG 0.01  C 
ENDBRANCH 27 28
ENDBRANCH 26 27
BRANCH 26 31
ATOM     31  C   LEU G  11      24.530 -48.824  54.027  1.00152.65 LIG 0.22  C 
ATOM     32 O    LEU G  11      23.467 -49.264  54.466  1.00110.84 LIG-0.29  OA
ENDBRANCH 26 31
ENDBRANCH 24 26
ENDBRANCH 1 22
BRANCH 1 33
ATOM     33  CB  ARG G  10      28.796 -46.639  56.115  1.00110.06 LIG 0.04  C 
BRANCH 33 34
ATOM     34  CG  ARG G  10      28.800 -46.440  57.624  1.00122.67 LIG 0.02  C 
BRANCH 34 35
ATOM     35  CD  ARG G  10      29.416 -47.621  58.354  1.00133.32 LIG 0.14  C 
BRANCH 35 36
ATOM     36  NE  ARG G  10      28.706 -47.927  59.599  1.00140.65 LIG-0.23  N 
ATOM     37 HE   ARG G  10      28.471 -47.268  60.097  1.00140.65 LIG 0.18  HD
ATOM     38  CZ  ARG G  10      28.402 -49.155  60.011  1.00153.40 LIG 0.67  C 
ATOM     39  NH2 ARG G  10      27.758 -49.335  61.157  1.00139.74 LIG-0.23  N 
ATOM     40  NH1 ARG G  10      28.740 -50.212  59.282  1.00139.37 LIG-0.23  N 
ATOM     41 2HH2 ARG G  10      27.563 -50.130  61.420  1.00139.74 LIG 0.17  HD
ATOM     42 1HH2 ARG G  10      27.536 -48.657  61.637  1.00139.74 LIG 0.17  HD
ATOM     43 1HH1 ARG G  10      29.158 -50.105  58.538  1.00139.37 LIG 0.17  HD
ATOM     44 2HH1 ARG G  10      28.541 -51.003  59.553  1.00139.37 LIG 0.17  HD
ENDBRANCH 35 36
ENDBRANCH 34 35
ENDBRANCH 33 34
ENDBRANCH 1 33
TORSDOF 18
ENDMDL
MODEL 8
USER: ADFR SOLUTION from run 98
USER: SCORE 15.571854 LL:  -3.802 LR: -12.086 RR:   0.000 FEB:  -6.717
USER: RMSD 6.289804
USER: SEED 97
USER: STATUS no improvement in best in 13 clusters for 5 generations
USER: GENES 20
USER: genes 0 Translation |==|  0.40870 0.58298 0.61241
USER: genes 1 Rotation |==|  0.65243 0.53247 0.44411 0.97179
USER: genes 2 Torsion [C]-CA--N-[C] |==|  0.59785
USER: genes 3 Torsion [N]-C--CA-[N] |==|  0.07435
USER: genes 4 Torsion [C]-CA--CB-[CG] |==|  0.26304
USER: genes 5 Torsion [CA]-CB--CG-[CD1] |==|  0.85312
USER: genes 6 Torsion [C]-CA--N-[C] |==|  0.17401
USER: genes 7 Torsion [N]-C--CA-[N] |==|  0.99697
USER: genes 8 Torsion [C]-CA--CB-[CG] |==|  0.89251
USER: genes 9 Torsion [CA]-CB--CG-[CD] |==|  0.82324
USER: genes 10 Torsion [CB]-CG--CD-[OE1] |==|  0.63880
USER: genes 11 Torsion [N]-CA--C-[N] |==|  0.48330
USER: genes 12 Torsion [C]-N--CA-[CB] |==|  0.17440
USER: genes 13 Torsion [N]-CA--CB-[CG] |==|  0.63772
USER: genes 14 Torsion [CA]-CB--CG-[CD2] |==|  0.22062
USER: genes 15 Torsion [N]-CA--C-[O] |==|  0.46481
USER: genes 16 Torsion [N]-CA--CB-[CG] |==|  0.78787
USER: genes 17 Torsion [CA]-CB--CG-[CD] |==|  0.68207
USER: genes 18 Torsion [CB]-CG--CD-[NE] |==|  0.99445
USER: genes 19 Torsion [CG]-CD--NE-[HE] |==|  0.79053
ROOT
ATOM      1  CA  ARG G  10      26.148 -44.627  60.227  1.00109.03 LIG 0.18  C 
ENDROOT
BRANCH 1 2
ATOM      2  N   ARG G  10      25.727 -43.860  59.043  1.00109.38 LIG-0.35  N 
ATOM      3 H    ARG G  10      25.266 -43.160  59.233  1.00109.38 LIG 0.16  HD
ATOM      4  C   LEU G   9      26.036 -44.221  57.768  1.00112.90 LIG 0.24  C 
ATOM      5 O    LEU G   9      26.687 -45.236  57.495  1.00112.50 LIG-0.27  OA
BRANCH 4 6
ATOM      6  CA  LEU G   9      25.556 -43.297  56.635  1.00108.81 LIG 0.18  C 
BRANCH 6 7
ATOM      7  CB  LEU G   9      26.496 -43.385  55.407  1.00108.47 LIG 0.04  C 
BRANCH 7 8
ATOM      8  CG  LEU G   9      26.117 -44.363  54.275  1.00112.27 LIG-0.02  C 
ATOM      9  CD1 LEU G   9      25.875 -45.751  54.809  1.00111.85 LIG 0.01  C 
ATOM     10  CD2 LEU G   9      24.927 -43.871  53.482  1.00114.30 LIG 0.01  C 
ENDBRANCH 7 8
ENDBRANCH 6 7
BRANCH 6 11
ATOM     11  N   LEU G   9      25.394 -41.901  57.069  1.00109.55 LIG-0.35  N 
ATOM     12 H    LEU G   9      24.580 -41.627  57.005  1.00109.55 LIG 0.16  HD
ATOM     13  C   GLU G   8      26.383 -41.101  57.523  1.00113.88 LIG 0.26  C 
ATOM     14 O    GLU G   8      27.563 -41.459  57.596  1.00113.76 LIG-0.27  OA
BRANCH 13 15
ATOM     15  CA  GLU G   8      25.975 -39.692  57.982  1.00110.25 LIG 0.40  C 
ATOM     16  N   GLU G   8      24.545 -39.431  57.825  1.00110.33 LIG 0.61  N 
BRANCH 15 17
ATOM     17  CB  GLU G   8      26.442 -39.400  59.418  1.00111.70 LIG 0.06  C 
BRANCH 17 18
ATOM     18  CG  GLU G   8      26.315 -40.605  60.340  1.00121.64 LIG 0.12  C 
BRANCH 18 19
ATOM     19  CD  GLU G   8      24.914 -41.136  60.603  1.00138.36 LIG 0.17  C 
ATOM     20 OE1  GLU G   8      24.553 -41.336  61.786  1.00130.99 LIG-0.65  OA
ATOM     21 OE2  GLU G   8      24.164 -41.318  59.617  1.00129.20 LIG-0.65  OA
ENDBRANCH 18 19
ENDBRANCH 17 18
ENDBRANCH 15 17
ENDBRANCH 13 15
ENDBRANCH 6 11
ENDBRANCH 4 6
ENDBRANCH 1 2
BRANCH 1 22
ATOM     22  C   ARG G  10      25.126 -44.645  61.385  1.00112.09 LIG 0.24  C 
ATOM     23 O    ARG G  10      24.115 -43.942  61.329  1.00111.78 LIG-0.27  OA
ATOM     24  N   LEU G  11      25.417 -45.441  62.444  1.00107.87 LIG-0.35  N 
ATOM     25 H    LEU G  11      26.123 -45.933  62.465  1.00107.87 LIG 0.16  HD
BRANCH 24 26
ATOM     26  CA  LEU G  11      24.599 -45.573  63.658  1.00123.94 LIG 0.16  C 
BRANCH 26 27
ATOM     27  CB  LEU G  11      23.200 -46.155  63.314  1.00123.74 LIG 0.04  C 
BRANCH 27 28
ATOM     28  CG  LEU G  11      21.928 -45.453  63.848  1.00127.90 LIG-0.02  C 
ATOM     29  CD2 LEU G  11      21.589 -44.244  63.004  1.00129.89 LIG 0.01  C 
ATOM     30  CD1 LEU G  11      22.079 -45.020  65.293  1.00127.81 LIG 0.01  C 
ENDBRANCH 27 28
ENDBRANCH 26 27
BRANCH 26 31
ATOM     31  C   LEU G  11      25.331 -46.447  64.688  1.00152.65 LIG 0.22  C 
ATOM     32 O    LEU G  11      24.935 -46.495  65.853  1.00110.84 LIG-0.29  OA
ENDBRANCH 26 31
ENDBRANCH 24 26
ENDBRANCH 1 22
BRANCH 1 33
ATOM     33  CB  ARG G  10      27.514 -44.124  60.727  1.00110.06 LIG 0.04  C 
BRANCH 33 34
ATOM     34  CG  ARG G  10      28.683 -44.601  59.877  1.00122.67 LIG 0.02  C 
BRANCH 34 35
ATOM     35  CD  ARG G  10      29.603 -45.533  60.646  1.00133.32 LIG 0.14  C 
BRANCH 35 36
ATOM     36  NE  ARG G  10      29.170 -45.711  62.034  1.00140.65 LIG-0.23  N 
ATOM     37 HE   ARG G  10      29.316 -45.067  62.585  1.00140.65 LIG 0.18  HD
ATOM     38  CZ  ARG G  10      28.565 -46.799  62.502  1.00153.40 LIG 0.67  C 
ATOM     39  NH2 ARG G  10      28.210 -46.871  63.778  1.00139.74 LIG-0.23  N 
ATOM     40  NH1 ARG G  10      28.312 -47.826  61.698  1.00139.37 LIG-0.23  N 
ATOM     41 2HH2 ARG G  10      27.819 -47.576  64.077  1.00139.74 LIG 0.17  HD
ATOM     42 1HH2 ARG G  10      28.371 -46.212  64.307  1.00139.74 LIG 0.17  HD
ATOM     43 1HH1 ARG G  10      28.539 -47.788  60.870  1.00139.37 LIG 0.17  HD
ATOM     44 2HH1 ARG G  10      27.921 -48.527  62.006  1.00139.37 LIG 0.17  HD
ENDBRANCH 35 36
ENDBRANCH 34 35
ENDBRANCH 33 34
ENDBRANCH 1 33
TORSDOF 18
ENDMDL
MODEL 9
USER: ADFR SOLUTION from run 48
USER: SCORE 15.524120 LL:  -3.710 LR: -12.048 RR:   0.000 FEB:  -6.679
USER: RMSD 6.879237
USER: SEED 47
USER: STATUS no improvement in best in 10 clusters for 5 generations
USER: GENES 20
USER: genes 0 Translation |==|  0.41995 0.57806 0.61709
USER: genes 1 Rotation |==|  0.70363 0.56043 0.40813 0.94322
USER: genes 2 Torsion [C]-CA--N-[C] |==|  0.69869
USER: genes 3 Torsion [N]-C--CA-[N] |==|  0.98996
USER: genes 4 Torsion [C]-CA--CB-[CG] |==|  0.10433
USER: genes 5 Torsion [CA]-CB--CG-[CD1] |==|  0.34848
USER: genes 6 Torsion [C]-CA--N-[C] |==|  0.70485
USER: genes 7 Torsion [N]-C--CA-[N] |==|  0.30319
USER: genes 8 Torsion [C]-CA--CB-[CG] |==|  0.25460
USER: genes 9 Torsion [CA]-CB--CG-[CD] |==|  0.79727
USER: genes 10 Torsion [CB]-CG--CD-[OE1] |==|  0.95512
USER: genes 11 Torsion [N]-CA--C-[N] |==|  0.07222
USER: genes 12 Torsion [C]-N--CA-[CB] |==|  0.87149
USER: genes 13 Torsion [N]-CA--CB-[CG] |==|  0.36086
USER: genes 14 Torsion [CA]-CB--CG-[CD2] |==|  0.70359
USER: genes 15 Torsion [N]-CA--C-[O] |==|  0.21393
USER: genes 16 Torsion [N]-CA--CB-[CG] |==|  0.70218
USER: genes 17 Torsion [CA]-CB--CG-[CD] |==|  0.82280
USER: genes 18 Torsion [CB]-CG--CD-[NE] |==|  0.92345
USER: genes 19 Torsion [CG]-CD--NE-[HE] |==|  0.31184
ROOT
ATOM      1  CA  ARG G  10      26.367 -44.716  60.329  1.00109.03 LIG 0.18  C 
ENDROOT
BRANCH 1 2
ATOM      2  N   ARG G  10      25.923 -43.648  59.418  1.00109.38 LIG-0.35  N 
ATOM      3 H    ARG G  10      26.060 -42.857  59.724  1.00109.38 LIG 0.16  HD
ATOM      4  C   LEU G   9      25.351 -43.886  58.207  1.00112.90 LIG 0.24  C 
ATOM      5 O    LEU G   9      25.142 -45.025  57.773  1.00112.50 LIG-0.27  OA
BRANCH 4 6
ATOM      6  CA  LEU G   9      24.972 -42.665  57.350  1.00108.81 LIG 0.18  C 
BRANCH 6 7
ATOM      7  CB  LEU G   9      25.690 -42.701  55.979  1.00108.47 LIG 0.04  C 
BRANCH 7 8
ATOM      8  CG  LEU G   9      25.867 -44.070  55.290  1.00112.27 LIG-0.02  C 
ATOM      9  CD1 LEU G   9      25.303 -44.058  53.893  1.00111.85 LIG 0.01  C 
ATOM     10  CD2 LEU G   9      27.313 -44.516  55.288  1.00114.30 LIG 0.01  C 
ENDBRANCH 7 8
ENDBRANCH 6 7
BRANCH 6 11
ATOM     11  N   LEU G   9      25.223 -41.389  58.037  1.00109.55 LIG-0.35  N 
ATOM     12 H    LEU G   9      26.060 -41.196  58.081  1.00109.55 LIG 0.16  HD
ATOM     13  C   GLU G   8      24.275 -40.578  58.557  1.00113.88 LIG 0.26  C 
ATOM     14 O    GLU G   8      23.069 -40.846  58.533  1.00113.76 LIG-0.27  OA
BRANCH 13 15
ATOM     15  CA  GLU G   8      24.761 -39.259  59.177  1.00110.25 LIG 0.40  C 
ATOM     16  N   GLU G   8      24.400 -38.086  58.383  1.00110.33 LIG 0.61  N 
BRANCH 15 17
ATOM     17  CB  GLU G   8      24.299 -39.109  60.637  1.00111.70 LIG 0.06  C 
BRANCH 17 18
ATOM     18  CG  GLU G   8      25.310 -39.651  61.638  1.00121.64 LIG 0.12  C 
BRANCH 18 19
ATOM     19  CD  GLU G   8      25.449 -41.162  61.739  1.00138.36 LIG 0.17  C 
ATOM     20 OE1  GLU G   8      24.551 -41.888  61.252  1.00130.99 LIG-0.65  OA
ATOM     21 OE2  GLU G   8      26.482 -41.618  62.278  1.00129.20 LIG-0.65  OA
ENDBRANCH 18 19
ENDBRANCH 17 18
ENDBRANCH 15 17
ENDBRANCH 13 15
ENDBRANCH 6 11
ENDBRANCH 4 6
ENDBRANCH 1 2
BRANCH 1 22
ATOM     22  C   ARG G  10      25.497 -44.894  61.592  1.00112.09 LIG 0.24  C 
ATOM     23 O    ARG G  10      25.981 -45.391  62.611  1.00111.78 LIG-0.27  OA
ATOM     24  N   LEU G  11      24.202 -44.501  61.503  1.00107.87 LIG-0.35  N 
ATOM     25 H    LEU G  11      23.881 -44.148  60.787  1.00107.87 LIG 0.16  HD
BRANCH 24 26
ATOM     26  CA  LEU G  11      23.203 -44.618  62.574  1.00123.94 LIG 0.16  C 
BRANCH 26 27
ATOM     27  CB  LEU G  11      23.258 -46.029  63.221  1.00123.74 LIG 0.04  C 
BRANCH 27 28
ATOM     28  CG  LEU G  11      23.340 -46.161  64.762  1.00127.90 LIG-0.02  C 
ATOM     29  CD2 LEU G  11      24.725 -46.592  65.189  1.00129.89 LIG 0.01  C 
ATOM     30  CD1 LEU G  11      22.326 -47.149  65.304  1.00127.81 LIG 0.01  C 
ENDBRANCH 27 28
ENDBRANCH 26 27
BRANCH 26 31
ATOM     31  C   LEU G  11      23.426 -43.514  63.618  1.00152.65 LIG 0.22  C 
ATOM     32 O    LEU G  11      23.064 -42.360  63.387  1.00110.84 LIG-0.29  OA
ENDBRANCH 26 31
ENDBRANCH 24 26
ENDBRANCH 1 22
BRANCH 1 33
ATOM     33  CB  ARG G  10      27.840 -44.500  60.720  1.00110.06 LIG 0.04  C 
BRANCH 33 34
ATOM     34  CG  ARG G  10      28.793 -45.488  60.062  1.00122.67 LIG 0.02  C 
BRANCH 34 35
ATOM     35  CD  ARG G  10      28.527 -46.917  60.502  1.00133.32 LIG 0.14  C 
BRANCH 35 36
ATOM     36  NE  ARG G  10      27.935 -46.977  61.841  1.00140.65 LIG-0.23  N 
ATOM     37 HE   ARG G  10      27.121 -47.249  61.907  1.00140.65 LIG 0.18  HD
ATOM     38  CZ  ARG G  10      28.568 -46.642  62.962  1.00153.40 LIG 0.67  C 
ATOM     39  NH2 ARG G  10      27.948 -46.727  64.132  1.00139.74 LIG-0.23  N 
ATOM     40  NH1 ARG G  10      29.825 -46.217  62.922  1.00139.37 LIG-0.23  N 
ATOM     41 2HH2 ARG G  10      28.361 -46.510  64.854  1.00139.74 LIG 0.17  HD
ATOM     42 1HH2 ARG G  10      27.133 -47.000  64.168  1.00139.74 LIG 0.17  HD
ATOM     43 1HH1 ARG G  10      30.235 -46.157  62.168  1.00139.37 LIG 0.17  HD
ATOM     44 2HH1 ARG G  10      30.230 -46.001  63.649  1.00139.37 LIG 0.17  HD
ENDBRANCH 35 36
ENDBRANCH 34 35
ENDBRANCH 33 34
ENDBRANCH 1 33
TORSDOF 18
ENDMDL
MODEL 10
USER: ADFR SOLUTION from run 51
USER: SCORE 14.476244 LL:  -2.966 LR: -11.996 RR:   0.000 FEB:  -6.626
USER: RMSD 4.500193
USER: SEED 50
USER: STATUS no improvement in best in 19 clusters for 5 generations
USER: GENES 20
USER: genes 0 Translation |==|  0.41044 0.60323 0.49584
USER: genes 1 Rotation |==|  0.47987 0.53989 0.50794 0.99794
USER: genes 2 Torsion [C]-CA--N-[C] |==|  0.58344
USER: genes 3 Torsion [N]-C--CA-[N] |==|  0.33007
USER: genes 4 Torsion [C]-CA--CB-[CG] |==|  0.49579
USER: genes 5 Torsion [CA]-CB--CG-[CD1] |==|  0.88777
USER: genes 6 Torsion [C]-CA--N-[C] |==|  0.63717
USER: genes 7 Torsion [N]-C--CA-[N] |==|  0.43390
USER: genes 8 Torsion [C]-CA--CB-[CG] |==|  0.71821
USER: genes 9 Torsion [CA]-CB--CG-[CD] |==|  0.75517
USER: genes 10 Torsion [CB]-CG--CD-[OE1] |==|  0.42371
USER: genes 11 Torsion [N]-CA--C-[N] |==|  0.38578
USER: genes 12 Torsion [C]-N--CA-[CB] |==|  0.40301
USER: genes 13 Torsion [N]-CA--CB-[CG] |==|  0.53936
USER: genes 14 Torsion [CA]-CB--CG-[CD2] |==|  0.78059
USER: genes 15 Torsion [N]-CA--C-[O] |==|  0.37597
USER: genes 16 Torsion [N]-CA--CB-[CG] |==|  0.11798
USER: genes 17 Torsion [CA]-CB--CG-[CD] |==|  0.30733
USER: genes 18 Torsion [CB]-CG--CD-[NE] |==|  0.71326
USER: genes 19 Torsion [CG]-CD--NE-[HE] |==|  0.89123
ROOT
ATOM      1  CA  ARG G  10      26.182 -44.263  57.692  1.00109.03 LIG 0.18  C 
ENDROOT
BRANCH 1 2
ATOM      2  N   ARG G  10      25.655 -44.552  56.348  1.00109.38 LIG-0.35  N 
ATOM      3 H    ARG G  10      24.952 -44.099  56.150  1.00109.38 LIG 0.16  HD
ATOM      4  C   LEU G   9      26.222 -45.450  55.498  1.00112.90 LIG 0.24  C 
ATOM      5 O    LEU G   9      27.224 -46.113  55.790  1.00112.50 LIG-0.27  OA
BRANCH 4 6
ATOM      6  CA  LEU G   9      25.577 -45.618  54.111  1.00108.81 LIG 0.18  C 
BRANCH 6 7
ATOM      7  CB  LEU G   9      25.010 -47.048  53.929  1.00108.47 LIG 0.04  C 
BRANCH 7 8
ATOM      8  CG  LEU G   9      24.294 -47.378  52.602  1.00112.27 LIG-0.02  C 
ATOM      9  CD1 LEU G   9      23.428 -46.231  52.148  1.00111.85 LIG 0.01  C 
ATOM     10  CD2 LEU G   9      25.272 -47.781  51.521  1.00114.30 LIG 0.01  C 
ENDBRANCH 7 8
ENDBRANCH 6 7
BRANCH 6 11
ATOM     11  N   LEU G   9      26.493 -45.275  53.012  1.00109.55 LIG-0.35  N 
ATOM     12 H    LEU G   9      27.259 -45.658  53.090  1.00109.55 LIG 0.16  HD
ATOM     13  C   GLU G   8      26.204 -44.455  51.978  1.00113.88 LIG 0.26  C 
ATOM     14 O    GLU G   8      25.123 -43.871  51.859  1.00113.76 LIG-0.27  OA
BRANCH 13 15
ATOM     15  CA  GLU G   8      27.294 -44.288  50.907  1.00110.25 LIG 0.40  C 
ATOM     16  N   GLU G   8      26.763 -43.877  49.609  1.00110.33 LIG 0.61  N 
BRANCH 15 17
ATOM     17  CB  GLU G   8      28.416 -43.345  51.376  1.00111.70 LIG 0.06  C 
BRANCH 17 18
ATOM     18  CG  GLU G   8      28.299 -41.946  50.789  1.00121.64 LIG 0.12  C 
BRANCH 18 19
ATOM     19  CD  GLU G   8      28.967 -41.696  49.445  1.00138.36 LIG 0.17  C 
ATOM     20 OE1  GLU G   8      28.503 -40.807  48.694  1.00130.99 LIG-0.65  OA
ATOM     21 OE2  GLU G   8      29.982 -42.371  49.163  1.00129.20 LIG-0.65  OA
ENDBRANCH 18 19
ENDBRANCH 17 18
ENDBRANCH 15 17
ENDBRANCH 13 15
ENDBRANCH 6 11
ENDBRANCH 4 6
ENDBRANCH 1 2
BRANCH 1 22
ATOM     22  C   ARG G  10      25.118 -43.841  58.729  1.00112.09 LIG 0.24  C 
ATOM     23 O    ARG G  10      24.220 -43.059  58.411  1.00111.78 LIG-0.27  OA
ATOM     24  N   LEU G  11      25.246 -44.355  59.977  1.00107.87 LIG-0.35  N 
ATOM     25 H    LEU G  11      25.873 -44.907  60.182  1.00107.87 LIG 0.16  HD
BRANCH 24 26
ATOM     26  CA  LEU G  11      24.364 -44.053  61.115  1.00123.94 LIG 0.16  C 
BRANCH 26 27
ATOM     27  CB  LEU G  11      24.189 -45.305  62.017  1.00123.74 LIG 0.04  C 
BRANCH 27 28
ATOM     28  CG  LEU G  11      23.060 -45.331  63.077  1.00127.90 LIG-0.02  C 
ATOM     29  CD2 LEU G  11      23.458 -44.540  64.303  1.00129.89 LIG 0.01  C 
ATOM     30  CD1 LEU G  11      22.704 -46.744  63.495  1.00127.81 LIG 0.01  C 
ENDBRANCH 27 28
ENDBRANCH 26 27
BRANCH 26 31
ATOM     31  C   LEU G  11      24.926 -42.864  61.909  1.00152.65 LIG 0.22  C 
ATOM     32 O    LEU G  11      24.178 -41.960  62.282  1.00110.84 LIG-0.29  OA
ENDBRANCH 26 31
ENDBRANCH 24 26
ENDBRANCH 1 22
BRANCH 1 33
ATOM     33  CB  ARG G  10      27.295 -43.203  57.607  1.00110.06 LIG 0.04  C 
BRANCH 33 34
ATOM     34  CG  ARG G  10      26.972 -42.059  56.656  1.00122.67 LIG 0.02  C 
BRANCH 34 35
ATOM     35  CD  ARG G  10      26.729 -40.755  57.395  1.00133.32 LIG 0.14  C 
BRANCH 35 36
ATOM     36  NE  ARG G  10      25.303 -40.429  57.481  1.00140.65 LIG-0.23  N 
ATOM     37 HE   ARG G  10      24.813 -40.593  56.793  1.00140.65 LIG 0.18  HD
ATOM     38  CZ  ARG G  10      24.713 -39.897  58.548  1.00153.40 LIG 0.67  C 
ATOM     39  NH2 ARG G  10      23.413 -39.634  58.532  1.00139.74 LIG-0.23  N 
ATOM     40  NH1 ARG G  10      25.419 -39.623  59.639  1.00139.37 LIG-0.23  N 
ATOM     41 2HH2 ARG G  10      23.035 -39.290  59.224  1.00139.74 LIG 0.17  HD
ATOM     42 1HH2 ARG G  10      22.948 -39.807  57.830  1.00139.74 LIG 0.17  HD
ATOM     43 1HH1 ARG G  10      26.262 -39.790  59.658  1.00139.37 LIG 0.17  HD
ATOM     44 2HH1 ARG G  10      25.033 -39.280  60.326  1.00139.37 LIG 0.17  HD
ENDBRANCH 35 36
ENDBRANCH 34 35
ENDBRANCH 33 34
ENDBRANCH 1 33
TORSDOF 18
ENDMDL
MODEL 11
USER: ADFR SOLUTION from run 149
USER: SCORE 15.124683 LL:  -3.387 LR: -11.921 RR:   0.000 FEB:  -6.552
USER: RMSD 5.825818
USER: SEED 148
USER: STATUS no improvement in best in 20 clusters for 5 generations
USER: GENES 20
USER: genes 0 Translation |==|  0.44183 0.54240 0.62719
USER: genes 1 Rotation |==|  0.68215 0.50804 0.32690 0.93219
USER: genes 2 Torsion [C]-CA--N-[C] |==|  0.81931
USER: genes 3 Torsion [N]-C--CA-[N] |==|  0.34652
USER: genes 4 Torsion [C]-CA--CB-[CG] |==|  0.18779
USER: genes 5 Torsion [CA]-CB--CG-[CD1] |==|  0.74150
USER: genes 6 Torsion [C]-CA--N-[C] |==|  0.84815
USER: genes 7 Torsion [N]-C--CA-[N] |==|  0.25058
USER: genes 8 Torsion [C]-CA--CB-[CG] |==|  0.41411
USER: genes 9 Torsion [CA]-CB--CG-[CD] |==|  0.14609
USER: genes 10 Torsion [CB]-CG--CD-[OE1] |==|  0.84210
USER: genes 11 Torsion [N]-CA--C-[N] |==|  0.45511
USER: genes 12 Torsion [C]-N--CA-[CB] |==|  0.28279
USER: genes 13 Torsion [N]-CA--CB-[CG] |==|  0.66318
USER: genes 14 Torsion [CA]-CB--CG-[CD2] |==|  0.17860
USER: genes 15 Torsion [N]-CA--C-[O] |==|  0.52054
USER: genes 16 Torsion [N]-CA--CB-[CG] |==|  0.73148
USER: genes 17 Torsion [CA]-CB--CG-[CD] |==|  0.87437
USER: genes 18 Torsion [CB]-CG--CD-[NE] |==|  0.70424
USER: genes 19 Torsion [CG]-CD--NE-[HE] |==|  0.17239
ROOT
ATOM      1  CA  ARG G  10      26.794 -45.358  60.548  1.00109.03 LIG 0.18  C 
ENDROOT
BRANCH 1 2
ATOM      2  N   ARG G  10      26.777 -44.340  59.485  1.00109.38 LIG-0.35  N 
ATOM      3 H    ARG G  10      27.536 -43.954  59.368  1.00109.38 LIG 0.16  HD
ATOM      4  C   LEU G   9      25.670 -44.036  58.757  1.00112.90 LIG 0.24  C 
ATOM      5 O    LEU G   9      24.575 -44.581  58.937  1.00112.50 LIG-0.27  OA
BRANCH 4 6
ATOM      6  CA  LEU G   9      25.818 -42.973  57.654  1.00108.81 LIG 0.18  C 
BRANCH 6 7
ATOM      7  CB  LEU G   9      25.069 -41.670  58.030  1.00108.47 LIG 0.04  C 
BRANCH 7 8
ATOM      8  CG  LEU G   9      25.610 -40.841  59.213  1.00112.27 LIG-0.02  C 
ATOM      9  CD1 LEU G   9      24.930 -41.220  60.503  1.00111.85 LIG 0.01  C 
ATOM     10  CD2 LEU G   9      27.113 -40.955  59.339  1.00114.30 LIG 0.01  C 
ENDBRANCH 7 8
ENDBRANCH 6 7
BRANCH 6 11
ATOM     11  N   LEU G   9      25.388 -43.459  56.333  1.00109.55 LIG-0.35  N 
ATOM     12 H    LEU G   9      24.793 -42.953  55.973  1.00109.55 LIG 0.16  HD
ATOM     13  C   GLU G   8      25.849 -44.571  55.720  1.00113.88 LIG 0.26  C 
ATOM     14 O    GLU G   8      26.680 -45.330  56.228  1.00113.76 LIG-0.27  OA
BRANCH 13 15
ATOM     15  CA  GLU G   8      25.303 -44.856  54.311  1.00110.25 LIG 0.40  C 
ATOM     16  N   GLU G   8      26.111 -44.254  53.252  1.00110.33 LIG 0.61  N 
BRANCH 15 17
ATOM     17  CB  GLU G   8      25.099 -46.362  54.071  1.00111.70 LIG 0.06  C 
BRANCH 17 18
ATOM     18  CG  GLU G   8      23.951 -46.660  53.117  1.00121.64 LIG 0.12  C 
BRANCH 18 19
ATOM     19  CD  GLU G   8      23.962 -45.952  51.771  1.00138.36 LIG 0.17  C 
ATOM     20 OE1  GLU G   8      23.997 -44.700  51.745  1.00130.99 LIG-0.65  OA
ATOM     21 OE2  GLU G   8      23.972 -46.660  50.739  1.00129.20 LIG-0.65  OA
ENDBRANCH 18 19
ENDBRANCH 17 18
ENDBRANCH 15 17
ENDBRANCH 13 15
ENDBRANCH 6 11
ENDBRANCH 4 6
ENDBRANCH 1 2
BRANCH 1 22
ATOM     22  C   ARG G  10      25.911 -45.032  61.773  1.00112.09 LIG 0.24  C 
ATOM     23 O    ARG G  10      25.518 -43.879  61.963  1.00111.78 LIG-0.27  OA
ATOM     24  N   LEU G  11      25.624 -46.060  62.610  1.00107.87 LIG-0.35  N 
ATOM     25 H    LEU G  11      25.898 -46.861  62.459  1.00107.87 LIG 0.16  HD
BRANCH 24 26
ATOM     26  CA  LEU G  11      24.834 -45.955  63.845  1.00123.94 LIG 0.16  C 
BRANCH 26 27
ATOM     27  CB  LEU G  11      23.388 -46.475  63.615  1.00123.74 LIG 0.04  C 
BRANCH 27 28
ATOM     28  CG  LEU G  11      22.187 -45.531  63.864  1.00127.90 LIG-0.02  C 
ATOM     29  CD2 LEU G  11      22.210 -44.368  62.898  1.00129.89 LIG 0.01  C 
ATOM     30  CD1 LEU G  11      22.167 -44.996  65.282  1.00127.81 LIG 0.01  C 
ENDBRANCH 27 28
ENDBRANCH 26 27
BRANCH 26 31
ATOM     31  C   LEU G  11      25.531 -46.722  64.978  1.00152.65 LIG 0.22  C 
ATOM     32 O    LEU G  11      24.968 -46.875  66.062  1.00110.84 LIG-0.29  OA
ENDBRANCH 26 31
ENDBRANCH 24 26
ENDBRANCH 1 22
BRANCH 1 33
ATOM     33  CB  ARG G  10      28.241 -45.637  60.993  1.00110.06 LIG 0.04  C 
BRANCH 33 34
ATOM     34  CG  ARG G  10      28.858 -46.854  60.317  1.00122.67 LIG 0.02  C 
BRANCH 34 35
ATOM     35  CD  ARG G  10      27.909 -48.039  60.301  1.00133.32 LIG 0.14  C 
BRANCH 35 36
ATOM     36  NE  ARG G  10      28.306 -49.074  61.259  1.00140.65 LIG-0.23  N 
ATOM     37 HE   ARG G  10      28.318 -48.864  62.093  1.00140.65 LIG 0.18  HD
ATOM     38  CZ  ARG G  10      28.649 -50.316  60.929  1.00153.40 LIG 0.67  C 
ATOM     39  NH2 ARG G  10      28.998 -51.186  61.868  1.00139.74 LIG-0.23  N 
ATOM     40  NH1 ARG G  10      28.648 -50.698  59.657  1.00139.37 LIG-0.23  N 
ATOM     41 2HH2 ARG G  10      29.219 -51.988  61.651  1.00139.74 LIG 0.17  HD
ATOM     42 1HH2 ARG G  10      29.003 -50.947  62.694  1.00139.74 LIG 0.17  HD
ATOM     43 1HH1 ARG G  10      28.425 -50.141  59.041  1.00139.37 LIG 0.17  HD
ATOM     44 2HH1 ARG G  10      28.871 -51.502  59.449  1.00139.37 LIG 0.17  HD
ENDBRANCH 35 36
ENDBRANCH 34 35
ENDBRANCH 33 34
ENDBRANCH 1 33
TORSDOF 18
ENDMDL
MODEL 12
USER: ADFR SOLUTION from run 138
USER: SCORE 13.502514 LL:  -3.786 LR: -11.892 RR:   0.000 FEB:  -6.523
USER: RMSD 9.294304
USER: SEED 137
USER: STATUS no improvement in best in 30 clusters for 5 generations
USER: GENES 20
USER: genes 0 Translation |==|  0.45237 0.52813 0.44425
USER: genes 1 Rotation |==|  0.15081 0.16916 0.53717 0.63126
USER: genes 2 Torsion [C]-CA--N-[C] |==|  0.50182
USER: genes 3 Torsion [N]-C--CA-[N] |==|  0.70556
USER: genes 4 Torsion [C]-CA--CB-[CG] |==|  0.23890
USER: genes 5 Torsion [CA]-CB--CG-[CD1] |==|  0.40750
USER: genes 6 Torsion [C]-CA--N-[C] |==|  0.85434
USER: genes 7 Torsion [N]-C--CA-[N] |==|  0.27708
USER: genes 8 Torsion [C]-CA--CB-[CG] |==|  0.76464
USER: genes 9 Torsion [CA]-CB--CG-[CD] |==|  0.29898
USER: genes 10 Torsion [CB]-CG--CD-[OE1] |==|  0.01671
USER: genes 11 Torsion [N]-CA--C-[N] |==|  0.35941
USER: genes 12 Torsion [C]-N--CA-[CB] |==|  0.80940
USER: genes 13 Torsion [N]-CA--CB-[CG] |==|  0.73121
USER: genes 14 Torsion [CA]-CB--CG-[CD2] |==|  0.26712
USER: genes 15 Torsion [N]-CA--C-[O] |==|  0.51740
USER: genes 16 Torsion [N]-CA--CB-[CG] |==|  0.63711
USER: genes 17 Torsion [CA]-CB--CG-[CD] |==|  0.97456
USER: genes 18 Torsion [CB]-CG--CD-[NE] |==|  0.39050
USER: genes 19 Torsion [CG]-CD--NE-[HE] |==|  0.26340
ROOT
ATOM      1  CA  ARG G  10      26.999 -45.615  56.569  1.00109.03 LIG 0.18  C 
ENDROOT
BRANCH 1 2
ATOM      2  N   ARG G  10      27.464 -46.301  57.786  1.00109.38 LIG-0.35  N 
ATOM      3 H    ARG G  10      27.583 -47.145  57.680  1.00109.38 LIG 0.16  HD
ATOM      4  C   LEU G   9      27.684 -45.664  58.967  1.00112.90 LIG 0.24  C 
ATOM      5 O    LEU G   9      27.499 -44.452  59.123  1.00112.50 LIG-0.27  OA
BRANCH 4 6
ATOM      6  CA  LEU G   9      28.204 -46.511  60.142  1.00108.81 LIG 0.18  C 
BRANCH 6 7
ATOM      7  CB  LEU G   9      28.826 -47.838  59.641  1.00108.47 LIG 0.04  C 
BRANCH 7 8
ATOM      8  CG  LEU G   9      30.309 -47.828  59.218  1.00112.27 LIG-0.02  C 
ATOM      9  CD1 LEU G   9      30.977 -49.142  59.531  1.00111.85 LIG 0.01  C 
ATOM     10  CD2 LEU G   9      30.475 -47.469  57.758  1.00114.30 LIG 0.01  C 
ENDBRANCH 7 8
ENDBRANCH 6 7
BRANCH 6 11
ATOM     11  N   LEU G   9      27.172 -46.769  61.158  1.00109.55 LIG-0.35  N 
ATOM     12 H    LEU G   9      27.091 -47.605  61.342  1.00109.55 LIG 0.16  HD
ATOM     13  C   GLU G   8      26.412 -45.828  61.760  1.00113.88 LIG 0.26  C 
ATOM     14 O    GLU G   8      26.487 -44.625  61.492  1.00113.76 LIG-0.27  OA
BRANCH 13 15
ATOM     15  CA  GLU G   8      25.435 -46.319  62.840  1.00110.25 LIG 0.40  C 
ATOM     16  N   GLU G   8      25.937 -46.121  64.199  1.00110.33 LIG 0.61  N 
BRANCH 15 17
ATOM     17  CB  GLU G   8      24.035 -45.706  62.667  1.00111.70 LIG 0.06  C 
BRANCH 17 18
ATOM     18  CG  GLU G   8      23.903 -44.335  63.315  1.00121.64 LIG 0.12  C 
BRANCH 18 19
ATOM     19  CD  GLU G   8      23.832 -43.131  62.389  1.00138.36 LIG 0.17  C 
ATOM     20 OE1  GLU G   8      23.769 -43.319  61.152  1.00130.99 LIG-0.65  OA
ATOM     21 OE2  GLU G   8      23.803 -41.993  62.911  1.00129.20 LIG-0.65  OA
ENDBRANCH 18 19
ENDBRANCH 17 18
ENDBRANCH 15 17
ENDBRANCH 13 15
ENDBRANCH 6 11
ENDBRANCH 4 6
ENDBRANCH 1 2
BRANCH 1 22
ATOM     22  C   ARG G  10      26.798 -46.532  55.343  1.00112.09 LIG 0.24  C 
ATOM     23 O    ARG G  10      27.701 -47.290  54.984  1.00111.78 LIG-0.27  OA
ATOM     24  N   LEU G  11      25.610 -46.436  54.697  1.00107.87 LIG-0.35  N 
ATOM     25 H    LEU G  11      24.986 -45.909  54.965  1.00107.87 LIG 0.16  HD
BRANCH 24 26
ATOM     26  CA  LEU G  11      25.234 -47.191  53.493  1.00123.94 LIG 0.16  C 
BRANCH 26 27
ATOM     27  CB  LEU G  11      26.070 -46.721  52.271  1.00123.74 LIG 0.04  C 
BRANCH 27 28
ATOM     28  CG  LEU G  11      25.476 -45.679  51.293  1.00127.90 LIG-0.02  C 
ATOM     29  CD2 LEU G  11      25.946 -44.285  51.645  1.00129.89 LIG 0.01  C 
ATOM     30  CD1 LEU G  11      23.960 -45.702  51.286  1.00127.81 LIG 0.01  C 
ENDBRANCH 27 28
ENDBRANCH 26 27
BRANCH 26 31
ATOM     31  C   LEU G  11      25.408 -48.696  53.745  1.00152.65 LIG 0.22  C 
ATOM     32 O    LEU G  11      25.257 -49.500  52.825  1.00110.84 LIG-0.29  OA
ENDBRANCH 26 31
ENDBRANCH 24 26
ENDBRANCH 1 22
BRANCH 1 33
ATOM     33  CB  ARG G  10      27.950 -44.456  56.219  1.00110.06 LIG 0.04  C 
BRANCH 33 34
ATOM     34  CG  ARG G  10      27.230 -43.142  55.950  1.00122.67 LIG 0.02  C 
BRANCH 34 35
ATOM     35  CD  ARG G  10      25.724 -43.323  55.869  1.00133.32 LIG 0.14  C 
BRANCH 35 36
ATOM     36  NE  ARG G  10      25.004 -42.220  56.511  1.00140.65 LIG-0.23  N 
ATOM     37 HE   ARG G  10      24.741 -41.570  56.013  1.00140.65 LIG 0.18  HD
ATOM     38  CZ  ARG G  10      24.727 -42.154  57.811  1.00153.40 LIG 0.67  C 
ATOM     39  NH2 ARG G  10      24.070 -41.113  58.303  1.00139.74 LIG-0.23  N 
ATOM     40  NH1 ARG G  10      25.107 -43.130  58.628  1.00139.37 LIG-0.23  N 
ATOM     41 2HH2 ARG G  10      23.893 -41.074  59.144  1.00139.74 LIG 0.17  HD
ATOM     42 1HH2 ARG G  10      23.822 -40.475  57.782  1.00139.74 LIG 0.17  HD
ATOM     43 1HH1 ARG G  10      25.534 -43.808  58.318  1.00139.37 LIG 0.17  HD
ATOM     44 2HH1 ARG G  10      24.926 -43.083  59.468  1.00139.37 LIG 0.17  HD
ENDBRANCH 35 36
ENDBRANCH 34 35
ENDBRANCH 33 34
ENDBRANCH 1 33
TORSDOF 18
ENDMDL
MODEL 13
USER: ADFR SOLUTION from run 113
USER: SCORE 15.033335 LL:  -3.365 LR: -11.877 RR:   0.000 FEB:  -6.507
USER: RMSD 9.216749
USER: SEED 112
USER: STATUS 1 or 2 clusters left
USER: GENES 20
USER: genes 0 Translation |==|  0.43935 0.55874 0.40596
USER: genes 1 Rotation |==|  0.98797 0.44239 0.55304 0.57586
USER: genes 2 Torsion [C]-CA--N-[C] |==|  0.81294
USER: genes 3 Torsion [N]-C--CA-[N] |==|  0.48224
USER: genes 4 Torsion [C]-CA--CB-[CG] |==|  0.30656
USER: genes 5 Torsion [CA]-CB--CG-[CD1] |==|  0.96783
USER: genes 6 Torsion [C]-CA--N-[C] |==|  0.63210
USER: genes 7 Torsion [N]-C--CA-[N] |==|  0.12480
USER: genes 8 Torsion [C]-CA--CB-[CG] |==|  0.69856
USER: genes 9 Torsion [CA]-CB--CG-[CD] |==|  0.17072
USER: genes 10 Torsion [CB]-CG--CD-[OE1] |==|  0.59160
USER: genes 11 Torsion [N]-CA--C-[N] |==|  0.42585
USER: genes 12 Torsion [C]-N--CA-[CB] |==|  0.86156
USER: genes 13 Torsion [N]-CA--CB-[CG] |==|  0.89503
USER: genes 14 Torsion [CA]-CB--CG-[CD2] |==|  0.79199
USER: genes 15 Torsion [N]-CA--C-[O] |==|  0.99797
USER: genes 16 Torsion [N]-CA--CB-[CG] |==|  0.91132
USER: genes 17 Torsion [CA]-CB--CG-[CD] |==|  0.33625
USER: genes 18 Torsion [CB]-CG--CD-[NE] |==|  0.58998
USER: genes 19 Torsion [CG]-CD--NE-[HE] |==|  0.01882
ROOT
ATOM      1  CA  ARG G  10      26.745 -45.064  55.737  1.00109.03 LIG 0.18  C 
ENDROOT
BRANCH 1 2
ATOM      2  N   ARG G  10      26.245 -44.393  56.948  1.00109.38 LIG-0.35  N 
ATOM      3 H    ARG G  10      26.345 -44.858  57.664  1.00109.38 LIG 0.16  HD
ATOM      4  C   LEU G   9      25.677 -43.157  56.939  1.00112.90 LIG 0.24  C 
ATOM      5 O    LEU G   9      25.521 -42.495  55.907  1.00112.50 LIG-0.27  OA
BRANCH 4 6
ATOM      6  CA  LEU G   9      25.235 -42.572  58.292  1.00108.81 LIG 0.18  C 
BRANCH 6 7
ATOM      7  CB  LEU G   9      24.152 -43.459  58.956  1.00108.47 LIG 0.04  C 
BRANCH 7 8
ATOM      8  CG  LEU G   9      24.541 -44.247  60.224  1.00112.27 LIG-0.02  C 
ATOM      9  CD1 LEU G   9      26.031 -44.227  60.446  1.00111.85 LIG 0.01  C 
ATOM     10  CD2 LEU G   9      23.803 -43.746  61.446  1.00114.30 LIG 0.01  C 
ENDBRANCH 7 8
ENDBRANCH 6 7
BRANCH 6 11
ATOM     11  N   LEU G   9      24.775 -41.179  58.186  1.00109.55 LIG-0.35  N 
ATOM     12 H    LEU G   9      24.223 -41.061  57.537  1.00109.55 LIG 0.16  HD
ATOM     13  C   GLU G   8      25.153 -40.165  58.996  1.00113.88 LIG 0.26  C 
ATOM     14 O    GLU G   8      25.966 -40.301  59.915  1.00113.76 LIG-0.27  OA
BRANCH 13 15
ATOM     15  CA  GLU G   8      24.497 -38.799  58.740  1.00110.25 LIG 0.40  C 
ATOM     16  N   GLU G   8      23.053 -38.886  58.532  1.00110.33 LIG 0.61  N 
BRANCH 15 17
ATOM     17  CB  GLU G   8      24.842 -37.783  59.844  1.00111.70 LIG 0.06  C 
BRANCH 17 18
ATOM     18  CG  GLU G   8      23.661 -37.468  60.750  1.00121.64 LIG 0.12  C 
BRANCH 18 19
ATOM     19  CD  GLU G   8      23.066 -38.619  61.545  1.00138.36 LIG 0.17  C 
ATOM     20 OE1  GLU G   8      21.835 -38.621  61.782  1.00130.99 LIG-0.65  OA
ATOM     21 OE2  GLU G   8      23.833 -39.542  61.901  1.00129.20 LIG-0.65  OA
ENDBRANCH 18 19
ENDBRANCH 17 18
ENDBRANCH 15 17
ENDBRANCH 13 15
ENDBRANCH 6 11
ENDBRANCH 4 6
ENDBRANCH 1 2
BRANCH 1 22
ATOM     22  C   ARG G  10      25.655 -45.469  54.721  1.00112.09 LIG 0.24  C 
ATOM     23 O    ARG G  10      24.509 -45.711  55.107  1.00111.78 LIG-0.27  OA
ATOM     24  N   LEU G  11      26.033 -45.558  53.422  1.00107.87 LIG-0.35  N 
ATOM     25 H    LEU G  11      26.834 -45.377  53.166  1.00107.87 LIG 0.16  HD
BRANCH 24 26
ATOM     26  CA  LEU G  11      25.161 -45.961  52.309  1.00123.94 LIG 0.16  C 
BRANCH 26 27
ATOM     27  CB  LEU G  11      24.412 -47.278  52.650  1.00123.74 LIG 0.04  C 
BRANCH 27 28
ATOM     28  CG  LEU G  11      25.143 -48.391  53.440  1.00127.90 LIG-0.02  C 
ATOM     29  CD2 LEU G  11      26.131 -49.116  52.554  1.00129.89 LIG 0.01  C 
ATOM     30  CD1 LEU G  11      24.178 -49.399  54.032  1.00127.81 LIG 0.01  C 
ENDBRANCH 27 28
ENDBRANCH 26 27
BRANCH 26 31
ATOM     31  C   LEU G  11      24.178 -44.827  51.979  1.00152.65 LIG 0.22  C 
ATOM     32 O    LEU G  11      24.198 -43.781  52.629  1.00110.84 LIG-0.29  OA
ENDBRANCH 26 31
ENDBRANCH 24 26
ENDBRANCH 1 22
BRANCH 1 33
ATOM     33  CB  ARG G  10      27.597 -46.287  56.122  1.00110.06 LIG 0.04  C 
BRANCH 33 34
ATOM     34  CG  ARG G  10      28.347 -46.113  57.435  1.00122.67 LIG 0.02  C 
BRANCH 34 35
ATOM     35  CD  ARG G  10      27.973 -47.178  58.450  1.00133.32 LIG 0.14  C 
BRANCH 35 36
ATOM     36  NE  ARG G  10      28.027 -46.670  59.824  1.00140.65 LIG-0.23  N 
ATOM     37 HE   ARG G  10      28.168 -45.829  59.934  1.00140.65 LIG 0.18  HD
ATOM     38  CZ  ARG G  10      27.873 -47.419  60.912  1.00153.40 LIG 0.67  C 
ATOM     39  NH2 ARG G  10      27.941 -46.871  62.118  1.00139.74 LIG-0.23  N 
ATOM     40  NH1 ARG G  10      27.651 -48.725  60.804  1.00139.37 LIG-0.23  N 
ATOM     41 2HH2 ARG G  10      27.841 -47.358  62.819  1.00139.74 LIG 0.17  HD
ATOM     42 1HH2 ARG G  10      28.085 -46.027  62.198  1.00139.74 LIG 0.17  HD
ATOM     43 1HH1 ARG G  10      27.607 -49.090  60.026  1.00139.37 LIG 0.17  HD
ATOM     44 2HH1 ARG G  10      27.552 -49.205  61.510  1.00139.37 LIG 0.17  HD
ENDBRANCH 35 36
ENDBRANCH 34 35
ENDBRANCH 33 34
ENDBRANCH 1 33
TORSDOF 18
ENDMDL
MODEL 14
USER: ADFR SOLUTION from run 153
USER: SCORE 14.664116 LL:  -3.790 LR: -11.885 RR:   0.000 FEB:  -6.516
USER: RMSD 8.776767
USER: SEED 152
USER: STATUS no improvement in best in 3 clusters for 5 generations
USER: GENES 20
USER: genes 0 Translation |==|  0.44581 0.55779 0.45131
USER: genes 1 Rotation |==|  0.13328 0.18598 0.53295 0.62579
USER: genes 2 Torsion [C]-CA--N-[C] |==|  0.21238
USER: genes 3 Torsion [N]-C--CA-[N] |==|  0.98706
USER: genes 4 Torsion [C]-CA--CB-[CG] |==|  0.51089
USER: genes 5 Torsion [CA]-CB--CG-[CD1] |==|  0.31610
USER: genes 6 Torsion [C]-CA--N-[C] |==|  0.71749
USER: genes 7 Torsion [N]-C--CA-[N] |==|  0.38970
USER: genes 8 Torsion [C]-CA--CB-[CG] |==|  0.85308
USER: genes 9 Torsion [CA]-CB--CG-[CD] |==|  0.54581
USER: genes 10 Torsion [CB]-CG--CD-[OE1] |==|  0.64955
USER: genes 11 Torsion [N]-CA--C-[N] |==|  0.42265
USER: genes 12 Torsion [C]-N--CA-[CB] |==|  0.25109
USER: genes 13 Torsion [N]-CA--CB-[CG] |==|  0.65887
USER: genes 14 Torsion [CA]-CB--CG-[CD2] |==|  0.34904
USER: genes 15 Torsion [N]-CA--C-[O] |==|  0.92498
USER: genes 16 Torsion [N]-CA--CB-[CG] |==|  0.56837
USER: genes 17 Torsion [CA]-CB--CG-[CD] |==|  0.28802
USER: genes 18 Torsion [CB]-CG--CD-[NE] |==|  0.72653
USER: genes 19 Torsion [CG]-CD--NE-[HE] |==|  0.76666
ROOT
ATOM      1  CA  ARG G  10      26.871 -45.081  56.723  1.00109.03 LIG 0.18  C 
ENDROOT
BRANCH 1 2
ATOM      2  N   ARG G  10      27.252 -45.774  57.964  1.00109.38 LIG-0.35  N 
ATOM      3 H    ARG G  10      26.617 -45.817  58.542  1.00109.38 LIG 0.16  HD
ATOM      4  C   LEU G   9      28.489 -46.296  58.181  1.00112.90 LIG 0.24  C 
ATOM      5 O    LEU G   9      29.406 -46.220  57.356  1.00112.50 LIG-0.27  OA
BRANCH 4 6
ATOM      6  CA  LEU G   9      28.726 -47.025  59.516  1.00108.81 LIG 0.18  C 
BRANCH 6 7
ATOM      7  CB  LEU G   9      29.140 -48.498  59.282  1.00108.47 LIG 0.04  C 
BRANCH 7 8
ATOM      8  CG  LEU G   9      29.328 -49.402  60.519  1.00112.27 LIG-0.02  C 
ATOM      9  CD1 LEU G   9      28.292 -50.495  60.560  1.00111.85 LIG 0.01  C 
ATOM     10  CD2 LEU G   9      30.726 -49.976  60.588  1.00114.30 LIG 0.01  C 
ENDBRANCH 7 8
ENDBRANCH 6 7
BRANCH 6 11
ATOM     11  N   LEU G   9      27.569 -46.945  60.421  1.00109.55 LIG-0.35  N 
ATOM     12 H    LEU G   9      26.944 -47.496  60.206  1.00109.55 LIG 0.16  HD
ATOM     13  C   GLU G   8      27.457 -46.115  61.480  1.00113.88 LIG 0.26  C 
ATOM     14 O    GLU G   8      28.327 -45.295  61.791  1.00113.76 LIG-0.27  OA
BRANCH 13 15
ATOM     15  CA  GLU G   8      26.181 -46.246  62.327  1.00110.25 LIG 0.40  C 
ATOM     16  N   GLU G   8      26.431 -46.121  63.762  1.00110.33 LIG 0.61  N 
BRANCH 15 17
ATOM     17  CB  GLU G   8      25.085 -45.271  61.864  1.00111.70 LIG 0.06  C 
BRANCH 17 18
ATOM     18  CG  GLU G   8      25.566 -43.829  61.787  1.00121.64 LIG 0.12  C 
BRANCH 18 19
ATOM     19  CD  GLU G   8      24.504 -42.743  61.721  1.00138.36 LIG 0.17  C 
ATOM     20 OE1  GLU G   8      24.549 -41.907  60.789  1.00130.99 LIG-0.65  OA
ATOM     21 OE2  GLU G   8      23.602 -42.754  62.589  1.00129.20 LIG-0.65  OA
ENDBRANCH 18 19
ENDBRANCH 17 18
ENDBRANCH 15 17
ENDBRANCH 13 15
ENDBRANCH 6 11
ENDBRANCH 4 6
ENDBRANCH 1 2
BRANCH 1 22
ATOM     22  C   ARG G  10      26.598 -46.009  55.519  1.00112.09 LIG 0.24  C 
ATOM     23 O    ARG G  10      27.175 -47.095  55.432  1.00111.78 LIG-0.27  OA
ATOM     24  N   LEU G  11      25.728 -45.555  54.583  1.00107.87 LIG-0.35  N 
ATOM     25 H    LEU G  11      25.327 -44.798  54.662  1.00107.87 LIG 0.16  HD
BRANCH 24 26
ATOM     26  CA  LEU G  11      25.361 -46.265  53.350  1.00123.94 LIG 0.16  C 
BRANCH 26 27
ATOM     27  CB  LEU G  11      24.124 -47.173  53.589  1.00123.74 LIG 0.04  C 
BRANCH 27 28
ATOM     28  CG  LEU G  11      24.222 -48.691  53.299  1.00127.90 LIG-0.02  C 
ATOM     29  CD2 LEU G  11      23.817 -49.496  54.513  1.00129.89 LIG 0.01  C 
ATOM     30  CD1 LEU G  11      25.619 -49.102  52.878  1.00127.81 LIG 0.01  C 
ENDBRANCH 27 28
ENDBRANCH 26 27
BRANCH 26 31
ATOM     31  C   LEU G  11      25.102 -45.253  52.223  1.00152.65 LIG 0.22  C 
ATOM     32 O    LEU G  11      24.726 -44.111  52.490  1.00110.84 LIG-0.29  OA
ENDBRANCH 26 31
ENDBRANCH 24 26
ENDBRANCH 1 22
BRANCH 1 33
ATOM     33  CB  ARG G  10      27.933 -44.028  56.356  1.00110.06 LIG 0.04  C 
BRANCH 33 34
ATOM     34  CG  ARG G  10      27.393 -42.897  55.493  1.00122.67 LIG 0.02  C 
BRANCH 34 35
ATOM     35  CD  ARG G  10      27.178 -41.623  56.292  1.00133.32 LIG 0.14  C 
BRANCH 35 36
ATOM     36  NE  ARG G  10      25.779 -41.458  56.695  1.00140.65 LIG-0.23  N 
ATOM     37 HE   ARG G  10      25.239 -41.103  56.128  1.00140.65 LIG 0.18  HD
ATOM     38  CZ  ARG G  10      25.287 -41.818  57.877  1.00153.40 LIG 0.67  C 
ATOM     39  NH2 ARG G  10      24.004 -41.626  58.155  1.00139.74 LIG-0.23  N 
ATOM     40  NH1 ARG G  10      26.075 -42.372  58.792  1.00139.37 LIG-0.23  N 
ATOM     41 2HH2 ARG G  10      23.690 -41.861  58.920  1.00139.74 LIG 0.17  HD
ATOM     42 1HH2 ARG G  10      23.487 -41.267  57.570  1.00139.74 LIG 0.17  HD
ATOM     43 1HH1 ARG G  10      26.908 -42.500  58.622  1.00139.37 LIG 0.17  HD
ATOM     44 2HH1 ARG G  10      25.752 -42.604  59.555  1.00139.37 LIG 0.17  HD
ENDBRANCH 35 36
ENDBRANCH 34 35
ENDBRANCH 33 34
ENDBRANCH 1 33
TORSDOF 18
ENDMDL
MODEL 15
USER: ADFR SOLUTION from run 149
USER: SCORE 15.086177 LL:  -3.596 LR: -11.846 RR:   0.000 FEB:  -6.477
USER: RMSD 4.925347
USER: SEED 148
USER: STATUS no improvement in best in 20 clusters for 5 generations
USER: GENES 20
USER: genes 0 Translation |==|  0.44058 0.53544 0.63823
USER: genes 1 Rotation |==|  0.65782 0.50964 0.32874 0.94235
USER: genes 2 Torsion [C]-CA--N-[C] |==|  0.57657
USER: genes 3 Torsion [N]-C--CA-[N] |==|  0.47071
USER: genes 4 Torsion [C]-CA--CB-[CG] |==|  0.21494
USER: genes 5 Torsion [CA]-CB--CG-[CD1] |==|  0.72752
USER: genes 6 Torsion [C]-CA--N-[C] |==|  0.53954
USER: genes 7 Torsion [N]-C--CA-[N] |==|  0.83146
USER: genes 8 Torsion [C]-CA--CB-[CG] |==|  0.84181
USER: genes 9 Torsion [CA]-CB--CG-[CD] |==|  0.83842
USER: genes 10 Torsion [CB]-CG--CD-[OE1] |==|  0.72235
USER: genes 11 Torsion [N]-CA--C-[N] |==|  0.45406
USER: genes 12 Torsion [C]-N--CA-[CB] |==|  0.21997
USER: genes 13 Torsion [N]-CA--CB-[CG] |==|  0.67387
USER: genes 14 Torsion [CA]-CB--CG-[CD2] |==|  0.36792
USER: genes 15 Torsion [N]-CA--C-[O] |==|  0.41492
USER: genes 16 Torsion [N]-CA--CB-[CG] |==|  0.74129
USER: genes 17 Torsion [CA]-CB--CG-[CD] |==|  0.89397
USER: genes 18 Torsion [CB]-CG--CD-[NE] |==|  0.69182
USER: genes 19 Torsion [CG]-CD--NE-[HE] |==|  0.17392
ROOT
ATOM      1  CA  ARG G  10      26.769 -45.483  60.788  1.00109.03 LIG 0.18  C 
ENDROOT
BRANCH 1 2
ATOM      2  N   ARG G  10      26.690 -44.574  59.634  1.00109.38 LIG-0.35  N 
ATOM      3 H    ARG G  10      26.513 -43.760  59.849  1.00109.38 LIG 0.16  HD
ATOM      4  C   LEU G   9      26.877 -44.977  58.348  1.00112.90 LIG 0.24  C 
ATOM      5 O    LEU G   9      27.116 -46.150  58.039  1.00112.50 LIG-0.27  OA
BRANCH 4 6
ATOM      6  CA  LEU G   9      26.797 -43.902  57.250  1.00108.81 LIG 0.18  C 
BRANCH 6 7
ATOM      7  CB  LEU G   9      25.369 -43.312  57.149  1.00108.47 LIG 0.04  C 
BRANCH 7 8
ATOM      8  CG  LEU G   9      24.934 -42.282  58.212  1.00112.27 LIG-0.02  C 
ATOM      9  CD1 LEU G   9      24.121 -42.931  59.303  1.00111.85 LIG 0.01  C 
ATOM     10  CD2 LEU G   9      26.117 -41.536  58.789  1.00114.30 LIG 0.01  C 
ENDBRANCH 7 8
ENDBRANCH 6 7
BRANCH 6 11
ATOM     11  N   LEU G   9      27.254 -44.391  55.940  1.00109.55 LIG-0.35  N 
ATOM     12 H    LEU G   9      27.318 -45.249  55.912  1.00109.55 LIG 0.16  HD
ATOM     13  C   GLU G   8      27.551 -43.617  54.874  1.00113.88 LIG 0.26  C 
ATOM     14 O    GLU G   8      27.495 -42.383  54.898  1.00113.76 LIG-0.27  OA
BRANCH 13 15
ATOM     15  CA  GLU G   8      27.950 -44.347  53.582  1.00110.25 LIG 0.40  C 
ATOM     16  N   GLU G   8      29.147 -45.172  53.737  1.00110.33 LIG 0.61  N 
BRANCH 15 17
ATOM     17  CB  GLU G   8      26.782 -45.161  53.000  1.00111.70 LIG 0.06  C 
BRANCH 17 18
ATOM     18  CG  GLU G   8      26.220 -46.178  53.983  1.00121.64 LIG 0.12  C 
BRANCH 18 19
ATOM     19  CD  GLU G   8      27.181 -47.222  54.531  1.00138.36 LIG 0.17  C 
ATOM     20 OE1  GLU G   8      27.178 -48.371  54.032  1.00130.99 LIG-0.65  OA
ATOM     21 OE2  GLU G   8      27.965 -46.873  55.442  1.00129.20 LIG-0.65  OA
ENDBRANCH 18 19
ENDBRANCH 17 18
ENDBRANCH 15 17
ENDBRANCH 13 15
ENDBRANCH 6 11
ENDBRANCH 4 6
ENDBRANCH 1 2
BRANCH 1 22
ATOM     22  C   ARG G  10      25.921 -45.060  62.008  1.00112.09 LIG 0.24  C 
ATOM     23 O    ARG G  10      25.511 -43.901  62.104  1.00111.78 LIG-0.27  OA
ATOM     24  N   LEU G  11      25.683 -46.010  62.946  1.00107.87 LIG-0.35  N 
ATOM     25 H    LEU G  11      25.969 -46.818  62.860  1.00107.87 LIG 0.16  HD
BRANCH 24 26
ATOM     26  CA  LEU G  11      24.933 -45.805  64.193  1.00123.94 LIG 0.16  C 
BRANCH 26 27
ATOM     27  CB  LEU G  11      23.404 -45.824  63.920  1.00123.74 LIG 0.04  C 
BRANCH 27 28
ATOM     28  CG  LEU G  11      22.560 -44.558  64.204  1.00127.90 LIG-0.02  C 
ATOM     29  CD2 LEU G  11      21.652 -44.246  63.035  1.00129.89 LIG 0.01  C 
ATOM     30  CD1 LEU G  11      23.426 -43.348  64.493  1.00127.81 LIG 0.01  C 
ENDBRANCH 27 28
ENDBRANCH 26 27
BRANCH 26 31
ATOM     31  C   LEU G  11      25.331 -46.871  65.224  1.00152.65 LIG 0.22  C 
ATOM     32 O    LEU G  11      25.303 -46.611  66.427  1.00110.84 LIG-0.29  OA
ENDBRANCH 26 31
ENDBRANCH 24 26
ENDBRANCH 1 22
BRANCH 1 33
ATOM     33  CB  ARG G  10      28.238 -45.685  61.204  1.00110.06 LIG 0.04  C 
BRANCH 33 34
ATOM     34  CG  ARG G  10      28.888 -46.901  60.558  1.00122.67 LIG 0.02  C 
BRANCH 34 35
ATOM     35  CD  ARG G  10      27.929 -48.074  60.457  1.00133.32 LIG 0.14  C 
BRANCH 35 36
ATOM     36  NE  ARG G  10      28.306 -49.170  61.354  1.00140.65 LIG-0.23  N 
ATOM     37 HE   ARG G  10      28.303 -49.014  62.200  1.00140.65 LIG 0.18  HD
ATOM     38  CZ  ARG G  10      28.653 -50.389  60.951  1.00153.40 LIG 0.67  C 
ATOM     39  NH2 ARG G  10      28.982 -51.319  61.838  1.00139.74 LIG-0.23  N 
ATOM     40  NH1 ARG G  10      28.674 -50.689  59.657  1.00139.37 LIG-0.23  N 
ATOM     41 2HH2 ARG G  10      29.205 -52.106  61.574  1.00139.74 LIG 0.17  HD
ATOM     42 1HH2 ARG G  10      28.972 -51.135  62.678  1.00139.74 LIG 0.17  HD
ATOM     43 1HH1 ARG G  10      28.464 -50.092  59.075  1.00139.37 LIG 0.17  HD
ATOM     44 2HH1 ARG G  10      28.899 -51.478  59.402  1.00139.37 LIG 0.17  HD
ENDBRANCH 35 36
ENDBRANCH 34 35
ENDBRANCH 33 34
ENDBRANCH 1 33
TORSDOF 18
ENDMDL
MODEL 16
USER: ADFR SOLUTION from run 109
USER: SCORE 14.723372 LL:  -3.986 LR: -11.795 RR:   0.000 FEB:  -6.425
USER: RMSD 5.108202
USER: SEED 108
USER: STATUS no improvement in best in 13 clusters for 5 generations
USER: GENES 20
USER: genes 0 Translation |==|  0.48369 0.51752 0.63024
USER: genes 1 Rotation |==|  0.60613 0.46762 0.40954 0.97907
USER: genes 2 Torsion [C]-CA--N-[C] |==|  0.63394
USER: genes 3 Torsion [N]-C--CA-[N] |==|  0.64496
USER: genes 4 Torsion [C]-CA--CB-[CG] |==|  0.75156
USER: genes 5 Torsion [CA]-CB--CG-[CD1] |==|  0.40303
USER: genes 6 Torsion [C]-CA--N-[C] |==|  0.73833
USER: genes 7 Torsion [N]-C--CA-[N] |==|  0.71301
USER: genes 8 Torsion [C]-CA--CB-[CG] |==|  0.41724
USER: genes 9 Torsion [CA]-CB--CG-[CD] |==|  0.06034
USER: genes 10 Torsion [CB]-CG--CD-[OE1] |==|  0.15280
USER: genes 11 Torsion [N]-CA--C-[N] |==|  0.44460
USER: genes 12 Torsion [C]-N--CA-[CB] |==|  0.22679
USER: genes 13 Torsion [N]-CA--CB-[CG] |==|  0.53713
USER: genes 14 Torsion [CA]-CB--CG-[CD2] |==|  0.10034
USER: genes 15 Torsion [N]-CA--C-[O] |==|  0.39910
USER: genes 16 Torsion [N]-CA--CB-[CG] |==|  0.68113
USER: genes 17 Torsion [CA]-CB--CG-[CD] |==|  0.90949
USER: genes 18 Torsion [CB]-CG--CD-[NE] |==|  0.25327
USER: genes 19 Torsion [CG]-CD--NE-[HE] |==|  0.89841
ROOT
ATOM      1  CA  ARG G  10      27.610 -45.806  60.615  1.00109.03 LIG 0.18  C 
ENDROOT
BRANCH 1 2
ATOM      2  N   ARG G  10      27.556 -45.280  59.241  1.00109.38 LIG-0.35  N 
ATOM      3 H    ARG G  10      27.399 -44.435  59.203  1.00109.38 LIG 0.16  HD
ATOM      4  C   LEU G   9      27.735 -46.052  58.136  1.00112.90 LIG 0.24  C 
ATOM      5 O    LEU G   9      27.946 -47.269  58.191  1.00112.50 LIG-0.27  OA
BRANCH 4 6
ATOM      6  CA  LEU G   9      27.686 -45.351  56.767  1.00108.81 LIG 0.18  C 
BRANCH 6 7
ATOM      7  CB  LEU G   9      27.360 -43.844  56.922  1.00108.47 LIG 0.04  C 
BRANCH 7 8
ATOM      8  CG  LEU G   9      25.877 -43.420  56.914  1.00112.27 LIG-0.02  C 
ATOM      9  CD1 LEU G   9      25.634 -42.259  57.844  1.00111.85 LIG 0.01  C 
ATOM     10  CD2 LEU G   9      25.389 -43.108  55.517  1.00114.30 LIG 0.01  C 
ENDBRANCH 7 8
ENDBRANCH 6 7
BRANCH 6 11
ATOM     11  N   LEU G   9      26.748 -45.993  55.832  1.00109.55 LIG-0.35  N 
ATOM     12 H    LEU G   9      25.942 -45.708  55.925  1.00109.55 LIG 0.16  HD
ATOM     13  C   GLU G   8      27.074 -46.930  54.916  1.00113.88 LIG 0.26  C 
ATOM     14 O    GLU G   8      28.218 -47.378  54.783  1.00113.76 LIG-0.27  OA
BRANCH 13 15
ATOM     15  CA  GLU G   8      25.942 -47.420  53.999  1.00110.25 LIG 0.40  C 
ATOM     16  N   GLU G   8      25.429 -48.736  54.375  1.00110.33 LIG 0.61  N 
BRANCH 15 17
ATOM     17  CB  GLU G   8      24.807 -46.387  53.889  1.00111.70 LIG 0.06  C 
BRANCH 17 18
ATOM     18  CG  GLU G   8      24.081 -46.442  52.553  1.00121.64 LIG 0.12  C 
BRANCH 18 19
ATOM     19  CD  GLU G   8      24.180 -47.736  51.759  1.00138.36 LIG 0.17  C 
ATOM     20 OE1  GLU G   8      23.842 -48.811  52.307  1.00130.99 LIG-0.65  OA
ATOM     21 OE2  GLU G   8      24.564 -47.664  50.570  1.00129.20 LIG-0.65  OA
ENDBRANCH 18 19
ENDBRANCH 17 18
ENDBRANCH 15 17
ENDBRANCH 13 15
ENDBRANCH 6 11
ENDBRANCH 4 6
ENDBRANCH 1 2
BRANCH 1 22
ATOM     22  C   ARG G  10      26.437 -45.374  61.522  1.00112.09 LIG 0.24  C 
ATOM     23 O    ARG G  10      25.774 -44.373  61.241  1.00111.78 LIG-0.27  OA
ATOM     24  N   LEU G  11      26.206 -46.132  62.622  1.00107.87 LIG-0.35  N 
ATOM     25 H    LEU G  11      26.671 -46.833  62.800  1.00107.87 LIG 0.16  HD
BRANCH 24 26
ATOM     26  CA  LEU G  11      25.166 -45.873  63.629  1.00123.94 LIG 0.16  C 
BRANCH 26 27
ATOM     27  CB  LEU G  11      23.791 -46.412  63.146  1.00123.74 LIG 0.04  C 
BRANCH 27 28
ATOM     28  CG  LEU G  11      22.500 -45.985  63.886  1.00127.90 LIG-0.02  C 
ATOM     29  CD2 LEU G  11      22.598 -44.549  64.349  1.00129.89 LIG 0.01  C 
ATOM     30  CD1 LEU G  11      22.208 -46.871  65.081  1.00127.81 LIG 0.01  C 
ENDBRANCH 27 28
ENDBRANCH 26 27
BRANCH 26 31
ATOM     31  C   LEU G  11      25.572 -46.499  64.972  1.00152.65 LIG 0.22  C 
ATOM     32 O    LEU G  11      25.300 -45.929  66.029  1.00110.84 LIG-0.29  OA
ENDBRANCH 26 31
ENDBRANCH 24 26
ENDBRANCH 1 22
BRANCH 1 33
ATOM     33  CB  ARG G  10      28.954 -45.440  61.270  1.00110.06 LIG 0.04  C 
BRANCH 33 34
ATOM     34  CG  ARG G  10      29.824 -46.648  61.585  1.00122.67 LIG 0.02  C 
BRANCH 34 35
ATOM     35  CD  ARG G  10      28.995 -47.869  61.945  1.00133.32 LIG 0.14  C 
BRANCH 35 36
ATOM     36  NE  ARG G  10      28.686 -48.689  60.770  1.00140.65 LIG-0.23  N 
ATOM     37 HE   ARG G  10      28.530 -48.283  60.029  1.00140.65 LIG 0.18  HD
ATOM     38  CZ  ARG G  10      28.631 -50.018  60.771  1.00153.40 LIG 0.67  C 
ATOM     39  NH2 ARG G  10      28.341 -50.677  59.657  1.00139.74 LIG-0.23  N 
ATOM     40  NH1 ARG G  10      28.865 -50.699  61.887  1.00139.37 LIG-0.23  N 
ATOM     41 2HH2 ARG G  10      28.307 -51.536  59.662  1.00139.74 LIG 0.17  HD
ATOM     42 1HH2 ARG G  10      28.187 -50.244  58.930  1.00139.74 LIG 0.17  HD
ATOM     43 1HH1 ARG G  10      29.053 -50.281  62.615  1.00139.37 LIG 0.17  HD
ATOM     44 2HH1 ARG G  10      28.828 -51.558  61.883  1.00139.37 LIG 0.17  HD
ENDBRANCH 35 36
ENDBRANCH 34 35
ENDBRANCH 33 34
ENDBRANCH 1 33
TORSDOF 18
ENDMDL
MODEL 17
USER: ADFR SOLUTION from run 45
USER: SCORE 14.189857 LL:  -2.916 LR: -11.642 RR:   0.000 FEB:  -6.273
USER: RMSD 8.446597
USER: SEED 44
USER: STATUS no improvement in best in 28 clusters for 5 generations
USER: GENES 20
USER: genes 0 Translation |==|  0.47651 0.52622 0.39310
USER: genes 1 Rotation |==|  0.97480 0.56581 0.52221 0.64051
USER: genes 2 Torsion [C]-CA--N-[C] |==|  0.74447
USER: genes 3 Torsion [N]-C--CA-[N] |==|  0.45423
USER: genes 4 Torsion [C]-CA--CB-[CG] |==|  0.41848
USER: genes 5 Torsion [CA]-CB--CG-[CD1] |==|  0.48068
USER: genes 6 Torsion [C]-CA--N-[C] |==|  0.60979
USER: genes 7 Torsion [N]-C--CA-[N] |==|  0.24288
USER: genes 8 Torsion [C]-CA--CB-[CG] |==|  0.13397
USER: genes 9 Torsion [CA]-CB--CG-[CD] |==|  0.13570
USER: genes 10 Torsion [CB]-CG--CD-[OE1] |==|  0.76081
USER: genes 11 Torsion [N]-CA--C-[N] |==|  0.19670
USER: genes 12 Torsion [C]-N--CA-[CB] |==|  0.53993
USER: genes 13 Torsion [N]-CA--CB-[CG] |==|  0.10416
USER: genes 14 Torsion [CA]-CB--CG-[CD2] |==|  0.13604
USER: genes 15 Torsion [N]-CA--C-[O] |==|  0.41297
USER: genes 16 Torsion [N]-CA--CB-[CG] |==|  0.03074
USER: genes 17 Torsion [CA]-CB--CG-[CD] |==|  0.19986
USER: genes 18 Torsion [CB]-CG--CD-[NE] |==|  0.54172
USER: genes 19 Torsion [CG]-CD--NE-[HE] |==|  0.05773
ROOT
ATOM      1  CA  ARG G  10      27.470 -45.649  55.457  1.00109.03 LIG 0.18  C 
ENDROOT
BRANCH 1 2
ATOM      2  N   ARG G  10      26.907 -44.856  56.562  1.00109.38 LIG-0.35  N 
ATOM      3 H    ARG G  10      27.051 -45.198  57.338  1.00109.38 LIG 0.16  HD
ATOM      4  C   LEU G   9      26.223 -43.695  56.378  1.00112.90 LIG 0.24  C 
ATOM      5 O    LEU G   9      26.004 -43.212  55.262  1.00112.50 LIG-0.27  OA
BRANCH 4 6
ATOM      6  CA  LEU G   9      25.726 -42.960  57.635  1.00108.81 LIG 0.18  C 
BRANCH 6 7
ATOM      7  CB  LEU G   9      24.553 -43.722  58.300  1.00108.47 LIG 0.04  C 
BRANCH 7 8
ATOM      8  CG  LEU G   9      24.376 -43.587  59.827  1.00112.27 LIG-0.02  C 
ATOM      9  CD1 LEU G   9      23.103 -44.246  60.291  1.00111.85 LIG 0.01  C 
ATOM     10  CD2 LEU G   9      25.572 -44.126  60.581  1.00114.30 LIG 0.01  C 
ENDBRANCH 7 8
ENDBRANCH 6 7
BRANCH 6 11
ATOM     11  N   LEU G   9      25.354 -41.562  57.367  1.00109.55 LIG-0.35  N 
ATOM     12 H    LEU G   9      24.948 -41.466  56.615  1.00109.55 LIG 0.16  HD
ATOM     13  C   GLU G   8      25.604 -40.514  58.183  1.00113.88 LIG 0.26  C 
ATOM     14 O    GLU G   8      26.211 -40.619  59.253  1.00113.76 LIG-0.27  OA
BRANCH 13 15
ATOM     15  CA  GLU G   8      25.069 -39.146  57.730  1.00110.25 LIG 0.40  C 
ATOM     16  N   GLU G   8      23.696 -38.896  58.165  1.00110.33 LIG 0.61  N 
BRANCH 15 17
ATOM     17  CB  GLU G   8      26.005 -37.999  58.148  1.00111.70 LIG 0.06  C 
BRANCH 17 18
ATOM     18  CG  GLU G   8      27.463 -38.269  57.804  1.00121.64 LIG 0.12  C 
BRANCH 18 19
ATOM     19  CD  GLU G   8      27.770 -38.740  56.391  1.00138.36 LIG 0.17  C 
ATOM     20 OE1  GLU G   8      27.704 -39.964  56.131  1.00130.99 LIG-0.65  OA
ATOM     21 OE2  GLU G   8      28.044 -37.871  55.532  1.00129.20 LIG-0.65  OA
ENDBRANCH 18 19
ENDBRANCH 17 18
ENDBRANCH 15 17
ENDBRANCH 13 15
ENDBRANCH 6 11
ENDBRANCH 4 6
ENDBRANCH 1 2
BRANCH 1 22
ATOM     22  C   ARG G  10      26.538 -46.751  54.908  1.00112.09 LIG 0.24  C 
ATOM     23 O    ARG G  10      26.802 -47.939  55.103  1.00111.78 LIG-0.27  OA
ATOM     24  N   LEU G  11      25.456 -46.339  54.200  1.00107.87 LIG-0.35  N 
ATOM     25 H    LEU G  11      25.280 -45.505  54.080  1.00107.87 LIG 0.16  HD
BRANCH 24 26
ATOM     26  CA  LEU G  11      24.469 -47.223  53.564  1.00123.94 LIG 0.16  C 
BRANCH 26 27
ATOM     27  CB  LEU G  11      23.593 -46.430  52.557  1.00123.74 LIG 0.04  C 
BRANCH 27 28
ATOM     28  CG  LEU G  11      24.236 -45.315  51.696  1.00127.90 LIG-0.02  C 
ATOM     29  CD2 LEU G  11      25.505 -45.810  51.039  1.00129.89 LIG 0.01  C 
ATOM     30  CD1 LEU G  11      24.553 -44.077  52.511  1.00127.81 LIG 0.01  C 
ENDBRANCH 27 28
ENDBRANCH 26 27
BRANCH 26 31
ATOM     31  C   LEU G  11      25.186 -48.397  52.880  1.00152.65 LIG 0.22  C 
ATOM     32 O    LEU G  11      24.636 -49.496  52.799  1.00110.84 LIG-0.29  OA
ENDBRANCH 26 31
ENDBRANCH 24 26
ENDBRANCH 1 22
BRANCH 1 33
ATOM     33  CB  ARG G  10      28.823 -46.253  55.874  1.00110.06 LIG 0.04  C 
BRANCH 33 34
ATOM     34  CG  ARG G  10      29.113 -46.120  57.363  1.00122.67 LIG 0.02  C 
BRANCH 34 35
ATOM     35  CD  ARG G  10      28.245 -47.046  58.197  1.00133.32 LIG 0.14  C 
BRANCH 35 36
ATOM     36  NE  ARG G  10      28.260 -46.680  59.617  1.00140.65 LIG-0.23  N 
ATOM     37 HE   ARG G  10      28.494 -45.878  59.821  1.00140.65 LIG 0.18  HD
ATOM     38  CZ  ARG G  10      27.937 -47.503  60.611  1.00153.40 LIG 0.67  C 
ATOM     39  NH2 ARG G  10      27.982 -47.083  61.868  1.00139.74 LIG-0.23  N 
ATOM     40  NH1 ARG G  10      27.567 -48.753  60.356  1.00139.37 LIG-0.23  N 
ATOM     41 2HH2 ARG G  10      27.773 -47.618  62.508  1.00139.74 LIG 0.17  HD
ATOM     42 1HH2 ARG G  10      28.222 -46.276  62.044  1.00139.74 LIG 0.17  HD
ATOM     43 1HH1 ARG G  10      27.535 -49.034  59.544  1.00139.37 LIG 0.17  HD
ATOM     44 2HH1 ARG G  10      27.359 -49.280  61.002  1.00139.37 LIG 0.17  HD
ENDBRANCH 35 36
ENDBRANCH 34 35
ENDBRANCH 33 34
ENDBRANCH 1 33
TORSDOF 18
ENDMDL
MODEL 18
USER: ADFR SOLUTION from run 120
USER: SCORE 14.263085 LL:  -3.882 LR: -11.500 RR:   0.000 FEB:  -6.130
USER: RMSD 8.318724
USER: SEED 119
USER: STATUS no improvement in best in 3 clusters for 5 generations
USER: GENES 20
USER: genes 0 Translation |==|  0.38417 0.58650 0.20297
USER: genes 1 Rotation |==|  0.40090 0.15070 0.16105 0.55729
USER: genes 2 Torsion [C]-CA--N-[C] |==|  0.55556
USER: genes 3 Torsion [N]-C--CA-[N] |==|  0.96211
USER: genes 4 Torsion [C]-CA--CB-[CG] |==|  0.88949
USER: genes 5 Torsion [CA]-CB--CG-[CD1] |==|  0.20991
USER: genes 6 Torsion [C]-CA--N-[C] |==|  0.19487
USER: genes 7 Torsion [N]-C--CA-[N] |==|  0.92662
USER: genes 8 Torsion [C]-CA--CB-[CG] |==|  0.91091
USER: genes 9 Torsion [CA]-CB--CG-[CD] |==|  0.80832
USER: genes 10 Torsion [CB]-CG--CD-[OE1] |==|  0.57795
USER: genes 11 Torsion [N]-CA--C-[N] |==|  0.29102
USER: genes 12 Torsion [C]-N--CA-[CB] |==|  0.81825
USER: genes 13 Torsion [N]-CA--CB-[CG] |==|  0.60590
USER: genes 14 Torsion [CA]-CB--CG-[CD2] |==|  0.45156
USER: genes 15 Torsion [N]-CA--C-[O] |==|  0.49082
USER: genes 16 Torsion [N]-CA--CB-[CG] |==|  0.18060
USER: genes 17 Torsion [CA]-CB--CG-[CD] |==|  0.53029
USER: genes 18 Torsion [CB]-CG--CD-[NE] |==|  0.63113
USER: genes 19 Torsion [CG]-CD--NE-[HE] |==|  0.80381
ROOT
ATOM      1  CA  ARG G  10      25.669 -44.564  51.322  1.00109.03 LIG 0.18  C 
ENDROOT
BRANCH 1 2
ATOM      2  N   ARG G  10      25.723 -46.021  51.118  1.00109.38 LIG-0.35  N 
ATOM      3 H    ARG G  10      26.517 -46.345  51.165  1.00109.38 LIG 0.16  HD
ATOM      4  C   LEU G   9      24.623 -46.784  50.877  1.00112.90 LIG 0.24  C 
ATOM      5 O    LEU G   9      23.482 -46.315  50.795  1.00112.50 LIG-0.27  OA
BRANCH 4 6
ATOM      6  CA  LEU G   9      24.834 -48.300  50.721  1.00108.81 LIG 0.18  C 
BRANCH 6 7
ATOM      7  CB  LEU G   9      24.215 -49.076  51.911  1.00108.47 LIG 0.04  C 
BRANCH 7 8
ATOM      8  CG  LEU G   9      24.365 -48.473  53.323  1.00112.27 LIG-0.02  C 
ATOM      9  CD1 LEU G   9      23.428 -47.310  53.525  1.00111.85 LIG 0.01  C 
ATOM     10  CD2 LEU G   9      24.176 -49.516  54.402  1.00114.30 LIG 0.01  C 
ENDBRANCH 7 8
ENDBRANCH 6 7
BRANCH 6 11
ATOM     11  N   LEU G   9      26.248 -48.663  50.542  1.00109.55 LIG-0.35  N 
ATOM     12 H    LEU G   9      26.420 -48.940  49.746  1.00109.55 LIG 0.16  HD
ATOM     13  C   GLU G   8      27.204 -48.586  51.494  1.00113.88 LIG 0.26  C 
ATOM     14 O    GLU G   8      26.978 -48.221  52.652  1.00113.76 LIG-0.27  OA
BRANCH 13 15
ATOM     15  CA  GLU G   8      28.633 -48.958  51.067  1.00110.25 LIG 0.40  C 
ATOM     16  N   GLU G   8      28.670 -49.890  49.942  1.00110.33 LIG 0.61  N 
BRANCH 15 17
ATOM     17  CB  GLU G   8      29.490 -47.711  50.790  1.00111.70 LIG 0.06  C 
BRANCH 17 18
ATOM     18  CG  GLU G   8      28.681 -46.545  50.240  1.00121.64 LIG 0.12  C 
BRANCH 18 19
ATOM     19  CD  GLU G   8      28.121 -46.688  48.834  1.00138.36 LIG 0.17  C 
ATOM     20 OE1  GLU G   8      27.933 -45.657  48.148  1.00130.99 LIG-0.65  OA
ATOM     21 OE2  GLU G   8      27.903 -47.844  48.406  1.00129.20 LIG-0.65  OA
ENDBRANCH 18 19
ENDBRANCH 17 18
ENDBRANCH 15 17
ENDBRANCH 13 15
ENDBRANCH 6 11
ENDBRANCH 4 6
ENDBRANCH 1 2
BRANCH 1 22
ATOM     22  C   ARG G  10      27.009 -43.828  51.099  1.00112.09 LIG 0.24  C 
ATOM     23 O    ARG G  10      27.895 -43.885  51.954  1.00111.78 LIG-0.27  OA
ATOM     24  N   LEU G  11      27.133 -43.121  49.949  1.00107.87 LIG-0.35  N 
ATOM     25 H    LEU G  11      26.509 -43.098  49.357  1.00107.87 LIG 0.16  HD
BRANCH 24 26
ATOM     26  CA  LEU G  11      28.307 -42.324  49.564  1.00123.94 LIG 0.16  C 
BRANCH 26 27
ATOM     27  CB  LEU G  11      28.494 -41.123  50.532  1.00123.74 LIG 0.04  C 
BRANCH 27 28
ATOM     28  CG  LEU G  11      28.962 -39.757  49.974  1.00127.90 LIG-0.02  C 
ATOM     29  CD2 LEU G  11      28.675 -38.649  50.962  1.00129.89 LIG 0.01  C 
ATOM     30  CD1 LEU G  11      28.300 -39.424  48.652  1.00127.81 LIG 0.01  C 
ENDBRANCH 27 28
ENDBRANCH 26 27
BRANCH 26 31
ATOM     31  C   LEU G  11      29.556 -43.217  49.532  1.00152.65 LIG 0.22  C 
ATOM     32 O    LEU G  11      30.639 -42.755  49.172  1.00110.84 LIG-0.29  OA
ENDBRANCH 26 31
ENDBRANCH 24 26
ENDBRANCH 1 22
BRANCH 1 33
ATOM     33  CB  ARG G  10      25.110 -44.245  52.720  1.00110.06 LIG 0.04  C 
BRANCH 33 34
ATOM     34  CG  ARG G  10      26.008 -44.719  53.854  1.00122.67 LIG 0.02  C 
BRANCH 34 35
ATOM     35  CD  ARG G  10      25.316 -44.631  55.203  1.00133.32 LIG 0.14  C 
BRANCH 35 36
ATOM     36  NE  ARG G  10      26.168 -44.003  56.217  1.00140.65 LIG-0.23  N 
ATOM     37 HE   ARG G  10      26.848 -44.448  56.499  1.00140.65 LIG 0.18  HD
ATOM     38  CZ  ARG G  10      25.963 -42.793  56.731  1.00153.40 LIG 0.67  C 
ATOM     39  NH2 ARG G  10      26.788 -42.308  57.648  1.00139.74 LIG-0.23  N 
ATOM     40  NH1 ARG G  10      24.930 -42.060  56.331  1.00139.37 LIG-0.23  N 
ATOM     41 2HH2 ARG G  10      26.653 -41.525  57.978  1.00139.74 LIG 0.17  HD
ATOM     42 1HH2 ARG G  10      27.459 -42.775  57.914  1.00139.74 LIG 0.17  HD
ATOM     43 1HH1 ARG G  10      24.389 -42.368  55.738  1.00139.37 LIG 0.17  HD
ATOM     44 2HH1 ARG G  10      24.802 -41.279  56.666  1.00139.37 LIG 0.17  HD
ENDBRANCH 35 36
ENDBRANCH 34 35
ENDBRANCH 33 34
ENDBRANCH 1 33
TORSDOF 18
ENDMDL
MODEL 19
USER: ADFR SOLUTION from run 15
USER: SCORE 14.898224 LL:  -3.941 LR: -11.496 RR:   0.000 FEB:  -6.126
USER: RMSD 9.253365
USER: SEED 460892
USER: STATUS no improvement in best in 24 clusters for 5 generations
USER: GENES 20
USER: genes 0 Translation |==|  0.49666 0.34931 0.21763
USER: genes 1 Rotation |==|  0.70123 0.50043 0.28499 0.90408
USER: genes 2 Torsion [C]-CA--N-[C] |==|  0.76334
USER: genes 3 Torsion [N]-C--CA-[N] |==|  0.85000
USER: genes 4 Torsion [C]-CA--CB-[CG] |==|  0.81311
USER: genes 5 Torsion [CA]-CB--CG-[CD1] |==|  0.41375
USER: genes 6 Torsion [C]-CA--N-[C] |==|  0.76888
USER: genes 7 Torsion [N]-C--CA-[N] |==|  0.82558
USER: genes 8 Torsion [C]-CA--CB-[CG] |==|  0.53509
USER: genes 9 Torsion [CA]-CB--CG-[CD] |==|  0.87525
USER: genes 10 Torsion [CB]-CG--CD-[OE1] |==|  0.75745
USER: genes 11 Torsion [N]-CA--C-[N] |==|  0.19951
USER: genes 12 Torsion [C]-N--CA-[CB] |==|  0.34204
USER: genes 13 Torsion [N]-CA--CB-[CG] |==|  0.98446
USER: genes 14 Torsion [CA]-CB--CG-[CD2] |==|  0.62618
USER: genes 15 Torsion [N]-CA--C-[O] |==|  0.27383
USER: genes 16 Torsion [N]-CA--CB-[CG] |==|  0.90606
USER: genes 17 Torsion [CA]-CB--CG-[CD] |==|  0.77306
USER: genes 18 Torsion [CB]-CG--CD-[NE] |==|  0.87312
USER: genes 19 Torsion [CG]-CD--NE-[HE] |==|  0.24781
ROOT
ATOM      1  CA  ARG G  10      27.863 -48.833  51.640  1.00109.03 LIG 0.18  C 
ENDROOT
BRANCH 1 2
ATOM      2  N   ARG G  10      28.045 -47.736  50.676  1.00109.38 LIG-0.35  N 
ATOM      3 H    ARG G  10      28.787 -47.314  50.772  1.00109.38 LIG 0.16  HD
ATOM      4  C   LEU G   9      27.128 -47.417  49.723  1.00112.90 LIG 0.24  C 
ATOM      5 O    LEU G   9      26.054 -48.015  49.595  1.00112.50 LIG-0.27  OA
BRANCH 4 6
ATOM      6  CA  LEU G   9      27.477 -46.266  48.763  1.00108.81 LIG 0.18  C 
BRANCH 6 7
ATOM      7  CB  LEU G   9      28.596 -46.682  47.776  1.00108.47 LIG 0.04  C 
BRANCH 7 8
ATOM      8  CG  LEU G   9      30.005 -46.940  48.348  1.00112.27 LIG-0.02  C 
ATOM      9  CD1 LEU G   9      30.738 -47.987  47.549  1.00111.85 LIG 0.01  C 
ATOM     10  CD2 LEU G   9      30.815 -45.665  48.443  1.00114.30 LIG 0.01  C 
ENDBRANCH 7 8
ENDBRANCH 6 7
BRANCH 6 11
ATOM     11  N   LEU G   9      27.838 -45.026  49.468  1.00109.55 LIG-0.35  N 
ATOM     12 H    LEU G   9      28.688 -44.929  49.551  1.00109.55 LIG 0.16  HD
ATOM     13  C   GLU G   8      26.963 -44.115  49.949  1.00113.88 LIG 0.26  C 
ATOM     14 O    GLU G   8      25.738 -44.246  49.870  1.00113.76 LIG-0.27  OA
BRANCH 13 15
ATOM     15  CA  GLU G   8      27.565 -42.859  50.599  1.00110.25 LIG 0.40  C 
ATOM     16  N   GLU G   8      28.363 -43.156  51.787  1.00110.33 LIG 0.61  N 
BRANCH 15 17
ATOM     17  CB  GLU G   8      28.361 -42.017  49.587  1.00111.70 LIG 0.06  C 
BRANCH 17 18
ATOM     18  CG  GLU G   8      29.215 -40.945  50.249  1.00121.64 LIG 0.12  C 
BRANCH 18 19
ATOM     19  CD  GLU G   8      28.569 -40.123  51.353  1.00138.36 LIG 0.17  C 
ATOM     20 OE1  GLU G   8      27.928 -39.091  51.045  1.00130.99 LIG-0.65  OA
ATOM     21 OE2  GLU G   8      28.678 -40.537  52.529  1.00129.20 LIG-0.65  OA
ENDBRANCH 18 19
ENDBRANCH 17 18
ENDBRANCH 15 17
ENDBRANCH 13 15
ENDBRANCH 6 11
ENDBRANCH 4 6
ENDBRANCH 1 2
BRANCH 1 22
ATOM     22  C   ARG G  10      27.062 -48.459  52.906  1.00112.09 LIG 0.24  C 
ATOM     23 O    ARG G  10      27.632 -48.371  53.996  1.00111.78 LIG-0.27  OA
ATOM     24  N   LEU G  11      25.729 -48.260  52.749  1.00107.87 LIG-0.35  N 
ATOM     25 H    LEU G  11      25.347 -48.316  51.981  1.00107.87 LIG 0.16  HD
BRANCH 24 26
ATOM     26  CA  LEU G  11      24.786 -47.933  53.828  1.00123.94 LIG 0.16  C 
BRANCH 26 27
ATOM     27  CB  LEU G  11      24.039 -46.607  53.518  1.00123.74 LIG 0.04  C 
BRANCH 27 28
ATOM     28  CG  LEU G  11      24.441 -45.776  52.275  1.00127.90 LIG-0.02  C 
ATOM     29  CD2 LEU G  11      24.553 -44.309  52.626  1.00129.89 LIG 0.01  C 
ATOM     30  CD1 LEU G  11      23.453 -45.937  51.137  1.00127.81 LIG 0.01  C 
ENDBRANCH 27 28
ENDBRANCH 26 27
BRANCH 26 31
ATOM     31  C   LEU G  11      23.803 -49.096  54.032  1.00152.65 LIG 0.22  C 
ATOM     32 O    LEU G  11      23.989 -49.914  54.933  1.00110.84 LIG-0.29  OA
ENDBRANCH 26 31
ENDBRANCH 24 26
ENDBRANCH 1 22
BRANCH 1 33
ATOM     33  CB  ARG G  10      29.228 -49.429  52.029  1.00110.06 LIG 0.04  C 
BRANCH 33 34
ATOM     34  CG  ARG G  10      30.241 -49.414  50.893  1.00122.67 LIG 0.02  C 
BRANCH 34 35
ATOM     35  CD  ARG G  10      30.048 -50.581  49.941  1.00133.32 LIG 0.14  C 
BRANCH 35 36
ATOM     36  NE  ARG G  10      29.856 -51.846  50.656  1.00140.65 LIG-0.23  N 
ATOM     37 HE   ARG G  10      29.053 -52.068  50.867  1.00140.65 LIG 0.18  HD
ATOM     38  CZ  ARG G  10      30.838 -52.675  51.000  1.00153.40 LIG 0.67  C 
ATOM     39  NH2 ARG G  10      30.568 -53.800  51.649  1.00139.74 LIG-0.23  N 
ATOM     40  NH1 ARG G  10      32.099 -52.385  50.698  1.00139.37 LIG-0.23  N 
ATOM     41 2HH2 ARG G  10      31.206 -54.333  51.870  1.00139.74 LIG 0.17  HD
ATOM     42 1HH2 ARG G  10      29.755 -53.996  51.850  1.00139.74 LIG 0.17  HD
ATOM     43 1HH1 ARG G  10      32.284 -51.658  50.279  1.00139.37 LIG 0.17  HD
ATOM     44 2HH1 ARG G  10      32.730 -52.924  50.923  1.00139.37 LIG 0.17  HD
ENDBRANCH 35 36
ENDBRANCH 34 35
ENDBRANCH 33 34
ENDBRANCH 1 33
TORSDOF 18
ENDMDL
MODEL 20
USER: ADFR SOLUTION from run 109
USER: SCORE 14.166713 LL:  -3.141 LR: -11.458 RR:   0.000 FEB:  -6.088
USER: RMSD 4.457822
USER: SEED 108
USER: STATUS no improvement in best in 13 clusters for 5 generations
USER: GENES 20
USER: genes 0 Translation |==|  0.45427 0.54320 0.61138
USER: genes 1 Rotation |==|  0.61625 0.51785 0.40791 0.97717
USER: genes 2 Torsion [C]-CA--N-[C] |==|  0.55922
USER: genes 3 Torsion [N]-C--CA-[N] |==|  0.39481
USER: genes 4 Torsion [C]-CA--CB-[CG] |==|  0.64423
USER: genes 5 Torsion [CA]-CB--CG-[CD1] |==|  0.38806
USER: genes 6 Torsion [C]-CA--N-[C] |==|  0.64194
USER: genes 7 Torsion [N]-C--CA-[N] |==|  0.83446
USER: genes 8 Torsion [C]-CA--CB-[CG] |==|  0.30512
USER: genes 9 Torsion [CA]-CB--CG-[CD] |==|  0.17876
USER: genes 10 Torsion [CB]-CG--CD-[OE1] |==|  0.92108
USER: genes 11 Torsion [N]-CA--C-[N] |==|  0.40790
USER: genes 12 Torsion [C]-N--CA-[CB] |==|  0.27827
USER: genes 13 Torsion [N]-CA--CB-[CG] |==|  0.56451
USER: genes 14 Torsion [CA]-CB--CG-[CD2] |==|  0.10903
USER: genes 15 Torsion [N]-CA--C-[O] |==|  0.45147
USER: genes 16 Torsion [N]-CA--CB-[CG] |==|  0.63829
USER: genes 17 Torsion [CA]-CB--CG-[CD] |==|  0.93457
USER: genes 18 Torsion [CB]-CG--CD-[NE] |==|  0.28359
USER: genes 19 Torsion [CG]-CD--NE-[HE] |==|  0.87818
ROOT
ATOM      1  CA  ARG G  10      27.036 -45.343  60.204  1.00109.03 LIG 0.18  C 
ENDROOT
BRANCH 1 2
ATOM      2  N   ARG G  10      26.711 -44.721  58.911  1.00109.38 LIG-0.35  N 
ATOM      3 H    ARG G  10      26.192 -44.039  58.979  1.00109.38 LIG 0.16  HD
ATOM      4  C   LEU G   9      27.183 -45.178  57.720  1.00112.90 LIG 0.24  C 
ATOM      5 O    LEU G   9      27.917 -46.168  57.622  1.00112.50 LIG-0.27  OA
BRANCH 4 6
ATOM      6  CA  LEU G   9      26.783 -44.400  56.454  1.00108.81 LIG 0.18  C 
BRANCH 6 7
ATOM      7  CB  LEU G   9      25.506 -44.996  55.812  1.00108.47 LIG 0.04  C 
BRANCH 7 8
ATOM      8  CG  LEU G   9      25.550 -45.349  54.311  1.00112.27 LIG-0.02  C 
ATOM      9  CD1 LEU G   9      24.837 -46.648  54.033  1.00111.85 LIG 0.01  C 
ATOM     10  CD2 LEU G   9      24.995 -44.233  53.454  1.00114.30 LIG 0.01  C 
ENDBRANCH 7 8
ENDBRANCH 6 7
BRANCH 6 11
ATOM     11  N   LEU G   9      27.873 -44.317  55.469  1.00109.55 LIG-0.35  N 
ATOM     12 H    LEU G   9      28.217 -45.085  55.292  1.00109.55 LIG 0.16  HD
ATOM     13  C   GLU G   8      28.316 -43.183  54.884  1.00113.88 LIG 0.26  C 
ATOM     14 O    GLU G   8      27.859 -42.065  55.142  1.00113.76 LIG-0.27  OA
BRANCH 13 15
ATOM     15  CA  GLU G   8      29.428 -43.338  53.834  1.00110.25 LIG 0.40  C 
ATOM     16  N   GLU G   8      30.640 -43.954  54.371  1.00110.33 LIG 0.61  N 
BRANCH 15 17
ATOM     17  CB  GLU G   8      28.931 -44.081  52.581  1.00111.70 LIG 0.06  C 
BRANCH 17 18
ATOM     18  CG  GLU G   8      28.822 -43.177  51.361  1.00121.64 LIG 0.12  C 
BRANCH 18 19
ATOM     19  CD  GLU G   8      30.109 -42.575  50.822  1.00138.36 LIG 0.17  C 
ATOM     20 OE1  GLU G   8      31.060 -42.367  51.612  1.00130.99 LIG-0.65  OA
ATOM     21 OE2  GLU G   8      30.176 -42.343  49.593  1.00129.20 LIG-0.65  OA
ENDBRANCH 18 19
ENDBRANCH 17 18
ENDBRANCH 15 17
ENDBRANCH 13 15
ENDBRANCH 6 11
ENDBRANCH 4 6
ENDBRANCH 1 2
BRANCH 1 22
ATOM     22  C   ARG G  10      26.040 -45.032  61.343  1.00112.09 LIG 0.24  C 
ATOM     23 O    ARG G  10      25.486 -43.933  61.396  1.00111.78 LIG-0.27  OA
ATOM     24  N   LEU G  11      25.840 -46.009  62.263  1.00107.87 LIG-0.35  N 
ATOM     25 H    LEU G  11      26.228 -46.775  62.207  1.00107.87 LIG 0.16  HD
BRANCH 24 26
ATOM     26  CA  LEU G  11      24.964 -45.902  63.439  1.00123.94 LIG 0.16  C 
BRANCH 26 27
ATOM     27  CB  LEU G  11      23.604 -46.602  63.173  1.00123.74 LIG 0.04  C 
BRANCH 27 28
ATOM     28  CG  LEU G  11      22.357 -46.186  63.990  1.00127.90 LIG-0.02  C 
ATOM     29  CD2 LEU G  11      22.330 -44.689  64.201  1.00129.89 LIG 0.01  C 
ATOM     30  CD1 LEU G  11      22.303 -46.876  65.339  1.00127.81 LIG 0.01  C 
ENDBRANCH 27 28
ENDBRANCH 26 27
BRANCH 26 31
ATOM     31  C   LEU G  11      25.668 -46.494  64.669  1.00152.65 LIG 0.22  C 
ATOM     32 O    LEU G  11      25.266 -46.227  65.802  1.00110.84 LIG-0.29  OA
ENDBRANCH 26 31
ENDBRANCH 24 26
ENDBRANCH 1 22
BRANCH 1 33
ATOM     33  CB  ARG G  10      28.467 -44.967  60.629  1.00110.06 LIG 0.04  C 
BRANCH 33 34
ATOM     34  CG  ARG G  10      29.312 -46.164  61.041  1.00122.67 LIG 0.02  C 
BRANCH 34 35
ATOM     35  CD  ARG G  10      28.458 -47.337  61.491  1.00133.32 LIG 0.14  C 
BRANCH 35 36
ATOM     36  NE  ARG G  10      28.350 -48.367  60.454  1.00140.65 LIG-0.23  N 
ATOM     37 HE   ARG G  10      28.208 -48.108  59.646  1.00140.65 LIG 0.18  HD
ATOM     38  CZ  ARG G  10      28.457 -49.674  60.675  1.00153.40 LIG 0.67  C 
ATOM     39  NH2 ARG G  10      28.343 -50.534  59.672  1.00139.74 LIG-0.23  N 
ATOM     40  NH1 ARG G  10      28.678 -50.132  61.903  1.00139.37 LIG-0.23  N 
ATOM     41 2HH2 ARG G  10      28.413 -51.379  59.819  1.00139.74 LIG 0.17  HD
ATOM     42 1HH2 ARG G  10      28.199 -50.247  58.874  1.00139.74 LIG 0.17  HD
ATOM     43 1HH1 ARG G  10      28.752 -49.582  62.559  1.00139.37 LIG 0.17  HD
ATOM     44 2HH1 ARG G  10      28.746 -50.978  62.040  1.00139.37 LIG 0.17  HD
ENDBRANCH 35 36
ENDBRANCH 34 35
ENDBRANCH 33 34
ENDBRANCH 1 33
TORSDOF 18
ENDMDL
MODEL 21
USER: ADFR SOLUTION from run 51
USER: SCORE 14.361121 LL:  -3.379 LR: -11.464 RR:   0.000 FEB:  -6.094
USER: RMSD 4.116210
USER: SEED 50
USER: STATUS no improvement in best in 19 clusters for 5 generations
USER: GENES 20
USER: genes 0 Translation |==|  0.44230 0.54438 0.47294
USER: genes 1 Rotation |==|  0.48427 0.53641 0.38258 0.98440
USER: genes 2 Torsion [C]-CA--N-[C] |==|  0.54349
USER: genes 3 Torsion [N]-C--CA-[N] |==|  0.29206
USER: genes 4 Torsion [C]-CA--CB-[CG] |==|  0.44546
USER: genes 5 Torsion [CA]-CB--CG-[CD1] |==|  0.95352
USER: genes 6 Torsion [C]-CA--N-[C] |==|  0.66113
USER: genes 7 Torsion [N]-C--CA-[N] |==|  0.43449
USER: genes 8 Torsion [C]-CA--CB-[CG] |==|  0.82160
USER: genes 9 Torsion [CA]-CB--CG-[CD] |==|  0.77732
USER: genes 10 Torsion [CB]-CG--CD-[OE1] |==|  0.45594
USER: genes 11 Torsion [N]-CA--C-[N] |==|  0.45015
USER: genes 12 Torsion [C]-N--CA-[CB] |==|  0.41116
USER: genes 13 Torsion [N]-CA--CB-[CG] |==|  0.66749
USER: genes 14 Torsion [CA]-CB--CG-[CD2] |==|  0.01308
USER: genes 15 Torsion [N]-CA--C-[O] |==|  0.85116
USER: genes 16 Torsion [N]-CA--CB-[CG] |==|  0.63024
USER: genes 17 Torsion [CA]-CB--CG-[CD] |==|  0.98375
USER: genes 18 Torsion [CB]-CG--CD-[NE] |==|  0.68444
USER: genes 19 Torsion [CG]-CD--NE-[HE] |==|  0.04337
ROOT
ATOM      1  CA  ARG G  10      26.803 -45.322  57.193  1.00109.03 LIG 0.18  C 
ENDROOT
BRANCH 1 2
ATOM      2  N   ARG G  10      26.232 -45.363  55.837  1.00109.38 LIG-0.35  N 
ATOM      3 H    ARG G  10      25.680 -44.723  55.678  1.00109.38 LIG 0.16  HD
ATOM      4  C   LEU G   9      26.544 -46.318  54.921  1.00112.90 LIG 0.24  C 
ATOM      5 O    LEU G   9      27.327 -47.246  55.156  1.00112.50 LIG-0.27  OA
BRANCH 4 6
ATOM      6  CA  LEU G   9      25.893 -46.207  53.532  1.00108.81 LIG 0.18  C 
BRANCH 6 7
ATOM      7  CB  LEU G   9      25.245 -47.549  53.109  1.00108.47 LIG 0.04  C 
BRANCH 7 8
ATOM      8  CG  LEU G   9      24.173 -47.517  52.000  1.00112.27 LIG-0.02  C 
ATOM      9  CD1 LEU G   9      23.647 -46.121  51.787  1.00111.85 LIG 0.01  C 
ATOM     10  CD2 LEU G   9      24.687 -48.106  50.705  1.00114.30 LIG 0.01  C 
ENDBRANCH 7 8
ENDBRANCH 6 7
BRANCH 6 11
ATOM     11  N   LEU G   9      26.829 -45.733  52.500  1.00109.55 LIG-0.35  N 
ATOM     12 H    LEU G   9      27.521 -46.239  52.424  1.00109.55 LIG 0.16  HD
ATOM     13  C   GLU G   8      26.662 -44.631  51.736  1.00113.88 LIG 0.26  C 
ATOM     14 O    GLU G   8      25.694 -43.872  51.846  1.00113.76 LIG-0.27  OA
BRANCH 13 15
ATOM     15  CA  GLU G   8      27.740 -44.359  50.675  1.00110.25 LIG 0.40  C 
ATOM     16  N   GLU G   8      27.259 -43.533  49.569  1.00110.33 LIG 0.61  N 
BRANCH 15 17
ATOM     17  CB  GLU G   8      29.019 -43.771  51.297  1.00111.70 LIG 0.06  C 
BRANCH 17 18
ATOM     18  CG  GLU G   8      28.798 -42.402  51.925  1.00121.64 LIG 0.12  C 
BRANCH 18 19
ATOM     19  CD  GLU G   8      28.772 -41.203  50.990  1.00138.36 LIG 0.17  C 
ATOM     20 OE1  GLU G   8      28.303 -40.118  51.407  1.00130.99 LIG-0.65  OA
ATOM     21 OE2  GLU G   8      29.259 -41.344  49.845  1.00129.20 LIG-0.65  OA
ENDBRANCH 18 19
ENDBRANCH 17 18
ENDBRANCH 15 17
ENDBRANCH 13 15
ENDBRANCH 6 11
ENDBRANCH 4 6
ENDBRANCH 1 2
BRANCH 1 22
ATOM     22  C   ARG G  10      26.053 -44.407  58.186  1.00112.09 LIG 0.24  C 
ATOM     23 O    ARG G  10      25.297 -43.529  57.767  1.00111.78 LIG-0.27  OA
ATOM     24  N   LEU G  11      26.291 -44.613  59.505  1.00107.87 LIG-0.35  N 
ATOM     25 H    LEU G  11      26.815 -45.237  59.783  1.00107.87 LIG 0.16  HD
BRANCH 24 26
ATOM     26  CA  LEU G  11      25.709 -43.831  60.606  1.00123.94 LIG 0.16  C 
BRANCH 26 27
ATOM     27  CB  LEU G  11      25.508 -44.722  61.863  1.00123.74 LIG 0.04  C 
BRANCH 27 28
ATOM     28  CG  LEU G  11      24.086 -44.917  62.442  1.00127.90 LIG-0.02  C 
ATOM     29  CD2 LEU G  11      23.053 -44.248  61.563  1.00129.89 LIG 0.01  C 
ATOM     30  CD1 LEU G  11      23.965 -44.370  63.851  1.00127.81 LIG 0.01  C 
ENDBRANCH 27 28
ENDBRANCH 26 27
BRANCH 26 31
ATOM     31  C   LEU G  11      26.603 -42.621  60.915  1.00152.65 LIG 0.22  C 
ATOM     32 O    LEU G  11      27.802 -42.779  61.149  1.00110.84 LIG-0.29  OA
ENDBRANCH 26 31
ENDBRANCH 24 26
ENDBRANCH 1 22
BRANCH 1 33
ATOM     33  CB  ARG G  10      28.292 -44.935  57.130  1.00110.06 LIG 0.04  C 
BRANCH 33 34
ATOM     34  CG  ARG G  10      29.186 -45.828  57.979  1.00122.67 LIG 0.02  C 
BRANCH 34 35
ATOM     35  CD  ARG G  10      28.384 -46.814  58.810  1.00133.32 LIG 0.14  C 
BRANCH 35 36
ATOM     36  NE  ARG G  10      28.500 -46.543  60.246  1.00140.65 LIG-0.23  N 
ATOM     37 HE   ARG G  10      28.810 -45.777  60.485  1.00140.65 LIG 0.18  HD
ATOM     38  CZ  ARG G  10      28.159 -47.399  61.205  1.00153.40 LIG 0.67  C 
ATOM     39  NH2 ARG G  10      28.302 -47.067  62.481  1.00139.74 LIG-0.23  N 
ATOM     40  NH1 ARG G  10      27.673 -48.596  60.896  1.00139.37 LIG-0.23  N 
ATOM     41 2HH2 ARG G  10      28.080 -47.623  63.098  1.00139.74 LIG 0.17  HD
ATOM     42 1HH2 ARG G  10      28.617 -46.294  62.691  1.00139.74 LIG 0.17  HD
ATOM     43 1HH1 ARG G  10      27.578 -48.821  60.071  1.00139.37 LIG 0.17  HD
ATOM     44 2HH1 ARG G  10      27.455 -49.146  61.519  1.00139.37 LIG 0.17  HD
ENDBRANCH 35 36
ENDBRANCH 34 35
ENDBRANCH 33 34
ENDBRANCH 1 33
TORSDOF 18
ENDMDL
MODEL 22
USER: ADFR SOLUTION from run 90
USER: SCORE 15.104877 LL:  -3.804 LR: -11.423 RR:   0.000 FEB:  -6.054
USER: RMSD 6.767751
USER: SEED 89
USER: STATUS no improvement in best in 4 clusters for 5 generations
USER: GENES 20
USER: genes 0 Translation |==|  0.46503 0.48227 0.67034
USER: genes 1 Rotation |==|  0.62089 0.41376 0.34982 0.95320
USER: genes 2 Torsion [C]-CA--N-[C] |==|  0.60658
USER: genes 3 Torsion [N]-C--CA-[N] |==|  0.94652
USER: genes 4 Torsion [C]-CA--CB-[CG] |==|  0.32970
USER: genes 5 Torsion [CA]-CB--CG-[CD1] |==|  0.04204
USER: genes 6 Torsion [C]-CA--N-[C] |==|  0.79166
USER: genes 7 Torsion [N]-C--CA-[N] |==|  0.49187
USER: genes 8 Torsion [C]-CA--CB-[CG] |==|  0.83379
USER: genes 9 Torsion [CA]-CB--CG-[CD] |==|  0.77568
USER: genes 10 Torsion [CB]-CG--CD-[OE1] |==|  0.53788
USER: genes 11 Torsion [N]-CA--C-[N] |==|  0.43674
USER: genes 12 Torsion [C]-N--CA-[CB] |==|  0.19799
USER: genes 13 Torsion [N]-CA--CB-[CG] |==|  0.68071
USER: genes 14 Torsion [CA]-CB--CG-[CD2] |==|  0.95147
USER: genes 15 Torsion [N]-CA--C-[O] |==|  0.18769
USER: genes 16 Torsion [N]-CA--CB-[CG] |==|  0.89643
USER: genes 17 Torsion [CA]-CB--CG-[CD] |==|  0.72486
USER: genes 18 Torsion [CB]-CG--CD-[NE] |==|  0.27303
USER: genes 19 Torsion [CG]-CD--NE-[HE] |==|  0.12334
ROOT
ATOM      1  CA  ARG G  10      27.246 -46.440  61.487  1.00109.03 LIG 0.18  C 
ENDROOT
BRANCH 1 2
ATOM      2  N   ARG G  10      27.588 -45.881  60.169  1.00109.38 LIG-0.35  N 
ATOM      3 H    ARG G  10      27.552 -45.023  60.140  1.00109.38 LIG 0.16  HD
ATOM      4  C   LEU G   9      27.927 -46.645  59.096  1.00112.90 LIG 0.24  C 
ATOM      5 O    LEU G   9      27.963 -47.881  59.134  1.00112.50 LIG-0.27  OA
BRANCH 4 6
ATOM      6  CA  LEU G   9      28.294 -45.914  57.793  1.00108.81 LIG 0.18  C 
BRANCH 6 7
ATOM      7  CB  LEU G   9      29.821 -45.958  57.539  1.00108.47 LIG 0.04  C 
BRANCH 7 8
ATOM      8  CG  LEU G   9      30.322 -46.658  56.258  1.00112.27 LIG-0.02  C 
ATOM      9  CD1 LEU G   9      29.198 -46.871  55.277  1.00111.85 LIG 0.01  C 
ATOM     10  CD2 LEU G   9      31.467 -45.905  55.617  1.00114.30 LIG 0.01  C 
ENDBRANCH 7 8
ENDBRANCH 6 7
BRANCH 6 11
ATOM     11  N   LEU G   9      27.799 -44.529  57.759  1.00109.55 LIG-0.35  N 
ATOM     12 H    LEU G   9      28.425 -43.951  57.886  1.00109.55 LIG 0.16  HD
ATOM     13  C   GLU G   8      26.516 -44.159  57.557  1.00113.88 LIG 0.26  C 
ATOM     14 O    GLU G   8      25.595 -44.968  57.403  1.00113.76 LIG-0.27  OA
BRANCH 13 15
ATOM     15  CA  GLU G   8      26.234 -42.650  57.500  1.00110.25 LIG 0.40  C 
ATOM     16  N   GLU G   8      24.835 -42.338  57.211  1.00110.33 LIG 0.61  N 
BRANCH 15 17
ATOM     17  CB  GLU G   8      26.716 -41.929  58.771  1.00111.70 LIG 0.06  C 
BRANCH 17 18
ATOM     18  CG  GLU G   8      26.047 -42.446  60.036  1.00121.64 LIG 0.12  C 
BRANCH 18 19
ATOM     19  CD  GLU G   8      24.656 -41.922  60.353  1.00138.36 LIG 0.17  C 
ATOM     20 OE1  GLU G   8      24.180 -42.115  61.496  1.00130.99 LIG-0.65  OA
ATOM     21 OE2  GLU G   8      24.055 -41.282  59.460  1.00129.20 LIG-0.65  OA
ENDBRANCH 18 19
ENDBRANCH 17 18
ENDBRANCH 15 17
ENDBRANCH 13 15
ENDBRANCH 6 11
ENDBRANCH 4 6
ENDBRANCH 1 2
BRANCH 1 22
ATOM     22  C   ARG G  10      26.099 -45.714  62.222  1.00112.09 LIG 0.24  C 
ATOM     23 O    ARG G  10      25.838 -44.539  61.955  1.00111.78 LIG-0.27  OA
ATOM     24  N   LEU G  11      25.433 -46.424  63.167  1.00107.87 LIG-0.35  N 
ATOM     25 H    LEU G  11      25.620 -47.246  63.336  1.00107.87 LIG 0.16  HD
BRANCH 24 26
ATOM     26  CA  LEU G  11      24.338 -45.909  64.002  1.00123.94 LIG 0.16  C 
BRANCH 26 27
ATOM     27  CB  LEU G  11      23.052 -45.707  63.154  1.00123.74 LIG 0.04  C 
BRANCH 27 28
ATOM     28  CG  LEU G  11      22.490 -44.279  62.946  1.00127.90 LIG-0.02  C 
ATOM     29  CD2 LEU G  11      23.064 -43.323  63.968  1.00129.89 LIG 0.01  C 
ATOM     30  CD1 LEU G  11      20.977 -44.244  63.032  1.00127.81 LIG 0.01  C 
ENDBRANCH 27 28
ENDBRANCH 26 27
BRANCH 26 31
ATOM     31  C   LEU G  11      24.087 -46.862  65.179  1.00152.65 LIG 0.22  C 
ATOM     32 O    LEU G  11      24.934 -46.989  66.065  1.00110.84 LIG-0.29  OA
ENDBRANCH 26 31
ENDBRANCH 24 26
ENDBRANCH 1 22
BRANCH 1 33
ATOM     33  CB  ARG G  10      28.500 -46.499  62.379  1.00110.06 LIG 0.04  C 
BRANCH 33 34
ATOM     34  CG  ARG G  10      29.767 -46.866  61.619  1.00122.67 LIG 0.02  C 
BRANCH 34 35
ATOM     35  CD  ARG G  10      30.117 -48.336  61.772  1.00133.32 LIG 0.14  C 
BRANCH 35 36
ATOM     36  NE  ARG G  10      29.666 -49.130  60.626  1.00140.65 LIG-0.23  N 
ATOM     37 HE   ARG G  10      29.806 -48.812  59.839  1.00140.65 LIG 0.18  HD
ATOM     38  CZ  ARG G  10      29.055 -50.308  60.718  1.00153.40 LIG 0.67  C 
ATOM     39  NH2 ARG G  10      28.680 -50.955  59.622  1.00139.74 LIG-0.23  N 
ATOM     40  NH1 ARG G  10      28.814 -50.849  61.907  1.00139.37 LIG-0.23  N 
ATOM     41 2HH2 ARG G  10      28.285 -51.716  59.686  1.00139.74 LIG 0.17  HD
ATOM     42 1HH2 ARG G  10      28.831 -50.612  58.848  1.00139.74 LIG 0.17  HD
ATOM     43 1HH1 ARG G  10      29.053 -50.437  62.623  1.00139.37 LIG 0.17  HD
ATOM     44 2HH1 ARG G  10      28.419 -51.611  61.961  1.00139.37 LIG 0.17  HD
ENDBRANCH 35 36
ENDBRANCH 34 35
ENDBRANCH 33 34
ENDBRANCH 1 33
TORSDOF 18
ENDMDL
MODEL 23
USER: ADFR SOLUTION from run 28
USER: SCORE 14.447932 LL:  -3.227 LR: -11.386 RR:   0.000 FEB:  -6.017
USER: RMSD 4.669769
USER: SEED 27
USER: STATUS no improvement in best in 5 clusters for 5 generations
USER: GENES 20
USER: genes 0 Translation |==|  0.41533 0.57748 0.61117
USER: genes 1 Rotation |==|  0.60615 0.42806 0.35523 0.96108
USER: genes 2 Torsion [C]-CA--N-[C] |==|  0.80483
USER: genes 3 Torsion [N]-C--CA-[N] |==|  0.43889
USER: genes 4 Torsion [C]-CA--CB-[CG] |==|  0.03843
USER: genes 5 Torsion [CA]-CB--CG-[CD1] |==|  0.42541
USER: genes 6 Torsion [C]-CA--N-[C] |==|  0.55973
USER: genes 7 Torsion [N]-C--CA-[N] |==|  0.52324
USER: genes 8 Torsion [C]-CA--CB-[CG] |==|  0.74341
USER: genes 9 Torsion [CA]-CB--CG-[CD] |==|  0.12871
USER: genes 10 Torsion [CB]-CG--CD-[OE1] |==|  0.25702
USER: genes 11 Torsion [N]-CA--C-[N] |==|  0.39130
USER: genes 12 Torsion [C]-N--CA-[CB] |==|  0.50918
USER: genes 13 Torsion [N]-CA--CB-[CG] |==|  0.11831
USER: genes 14 Torsion [CA]-CB--CG-[CD2] |==|  0.42023
USER: genes 15 Torsion [N]-CA--C-[O] |==|  0.30711
USER: genes 16 Torsion [N]-CA--CB-[CG] |==|  0.79264
USER: genes 17 Torsion [CA]-CB--CG-[CD] |==|  0.77409
USER: genes 18 Torsion [CB]-CG--CD-[NE] |==|  0.36945
USER: genes 19 Torsion [CG]-CD--NE-[HE] |==|  0.92957
ROOT
ATOM      1  CA  ARG G  10      26.277 -44.726  60.200  1.00109.03 LIG 0.18  C 
ENDROOT
BRANCH 1 2
ATOM      2  N   ARG G  10      26.507 -44.222  58.837  1.00109.38 LIG-0.35  N 
ATOM      3 H    ARG G  10      27.251 -43.801  58.748  1.00109.38 LIG 0.16  HD
ATOM      4  C   LEU G   9      25.630 -44.403  57.813  1.00112.90 LIG 0.24  C 
ATOM      5 O    LEU G   9      24.554 -44.996  57.945  1.00112.50 LIG-0.27  OA
BRANCH 4 6
ATOM      6  CA  LEU G   9      26.028 -43.848  56.434  1.00108.81 LIG 0.18  C 
BRANCH 6 7
ATOM      7  CB  LEU G   9      25.834 -42.312  56.373  1.00108.47 LIG 0.04  C 
BRANCH 7 8
ATOM      8  CG  LEU G   9      25.618 -41.557  57.701  1.00112.27 LIG-0.02  C 
ATOM      9  CD1 LEU G   9      26.083 -40.127  57.600  1.00111.85 LIG 0.01  C 
ATOM     10  CD2 LEU G   9      24.178 -41.628  58.160  1.00114.30 LIG 0.01  C 
ENDBRANCH 7 8
ENDBRANCH 6 7
BRANCH 6 11
ATOM     11  N   LEU G   9      25.316 -44.508  55.328  1.00109.55 LIG-0.35  N 
ATOM     12 H    LEU G   9      24.588 -44.886  55.583  1.00109.55 LIG 0.16  HD
ATOM     13  C   GLU G   8      25.726 -44.541  54.041  1.00113.88 LIG 0.26  C 
ATOM     14 O    GLU G   8      26.783 -44.031  53.654  1.00113.76 LIG-0.27  OA
BRANCH 13 15
ATOM     15  CA  GLU G   8      24.792 -45.236  53.038  1.00110.25 LIG 0.40  C 
ATOM     16  N   GLU G   8      25.392 -45.400  51.715  1.00110.33 LIG 0.61  N 
BRANCH 15 17
ATOM     17  CB  GLU G   8      24.264 -46.575  53.582  1.00111.70 LIG 0.06  C 
BRANCH 17 18
ATOM     18  CG  GLU G   8      25.128 -47.761  53.180  1.00121.64 LIG 0.12  C 
BRANCH 18 19
ATOM     19  CD  GLU G   8      26.633 -47.614  53.341  1.00138.36 LIG 0.17  C 
ATOM     20 OE1  GLU G   8      27.169 -47.997  54.407  1.00130.99 LIG-0.65  OA
ATOM     21 OE2  GLU G   8      27.280 -47.145  52.378  1.00129.20 LIG-0.65  OA
ENDBRANCH 18 19
ENDBRANCH 17 18
ENDBRANCH 15 17
ENDBRANCH 13 15
ENDBRANCH 6 11
ENDBRANCH 4 6
ENDBRANCH 1 2
BRANCH 1 22
ATOM     22  C   ARG G  10      25.159 -44.001  60.980  1.00112.09 LIG 0.24  C 
ATOM     23 O    ARG G  10      25.039 -42.777  60.895  1.00111.78 LIG-0.27  OA
ATOM     24  N   LEU G  11      24.357 -44.772  61.757  1.00107.87 LIG-0.35  N 
ATOM     25 H    LEU G  11      24.447 -45.626  61.799  1.00107.87 LIG 0.16  HD
BRANCH 24 26
ATOM     26  CA  LEU G  11      23.262 -44.275  62.603  1.00123.94 LIG 0.16  C 
BRANCH 26 27
ATOM     27  CB  LEU G  11      22.623 -45.440  63.408  1.00123.74 LIG 0.04  C 
BRANCH 27 28
ATOM     28  CG  LEU G  11      23.534 -46.505  64.067  1.00127.90 LIG-0.02  C 
ATOM     29  CD2 LEU G  11      22.877 -47.082  65.300  1.00129.89 LIG 0.01  C 
ATOM     30  CD1 LEU G  11      24.888 -45.940  64.447  1.00127.81 LIG 0.01  C 
ENDBRANCH 27 28
ENDBRANCH 26 27
BRANCH 26 31
ATOM     31  C   LEU G  11      23.783 -43.170  63.534  1.00152.65 LIG 0.22  C 
ATOM     32 O    LEU G  11      23.429 -42.002  63.368  1.00110.84 LIG-0.29  OA
ENDBRANCH 26 31
ENDBRANCH 24 26
ENDBRANCH 1 22
BRANCH 1 33
ATOM     33  CB  ARG G  10      27.590 -44.703  61.003  1.00110.06 LIG 0.04  C 
BRANCH 33 34
ATOM     34  CG  ARG G  10      28.561 -45.807  60.609  1.00122.67 LIG 0.02  C 
BRANCH 34 35
ATOM     35  CD  ARG G  10      28.218 -47.130  61.270  1.00133.32 LIG 0.14  C 
BRANCH 35 36
ATOM     36  NE  ARG G  10      28.237 -48.242  60.316  1.00140.65 LIG-0.23  N 
ATOM     37 HE   ARG G  10      28.096 -48.060  59.487  1.00140.65 LIG 0.18  HD
ATOM     38  CZ  ARG G  10      28.455 -49.513  60.642  1.00153.40 LIG 0.67  C 
ATOM     39  NH2 ARG G  10      28.450 -50.454  59.707  1.00139.74 LIG-0.23  N 
ATOM     40  NH1 ARG G  10      28.678 -49.853  61.906  1.00139.37 LIG-0.23  N 
ATOM     41 2HH2 ARG G  10      28.591 -51.274  59.922  1.00139.74 LIG 0.17  HD
ATOM     42 1HH2 ARG G  10      28.305 -50.243  58.886  1.00139.74 LIG 0.17  HD
ATOM     43 1HH1 ARG G  10      28.682 -49.250  62.519  1.00139.37 LIG 0.17  HD
ATOM     44 2HH1 ARG G  10      28.818 -50.676  62.112  1.00139.37 LIG 0.17  HD
ENDBRANCH 35 36
ENDBRANCH 34 35
ENDBRANCH 33 34
ENDBRANCH 1 33
TORSDOF 18
ENDMDL
MODEL 24
USER: ADFR SOLUTION from run 45
USER: SCORE 13.849474 LL:  -2.834 LR: -11.342 RR:   0.000 FEB:  -5.972
USER: RMSD 9.157945
USER: SEED 44
USER: STATUS no improvement in best in 28 clusters for 5 generations
USER: GENES 20
USER: genes 0 Translation |==|  0.47997 0.53497 0.36876
USER: genes 1 Rotation |==|  0.97073 0.60142 0.48141 0.63334
USER: genes 2 Torsion [C]-CA--N-[C] |==|  0.76859
USER: genes 3 Torsion [N]-C--CA-[N] |==|  0.41758
USER: genes 4 Torsion [C]-CA--CB-[CG] |==|  0.46455
USER: genes 5 Torsion [CA]-CB--CG-[CD1] |==|  0.49238
USER: genes 6 Torsion [C]-CA--N-[C] |==|  0.60829
USER: genes 7 Torsion [N]-C--CA-[N] |==|  0.22008
USER: genes 8 Torsion [C]-CA--CB-[CG] |==|  0.12905
USER: genes 9 Torsion [CA]-CB--CG-[CD] |==|  0.14929
USER: genes 10 Torsion [CB]-CG--CD-[OE1] |==|  0.74700
USER: genes 11 Torsion [N]-CA--C-[N] |==|  0.20808
USER: genes 12 Torsion [C]-N--CA-[CB] |==|  0.55691
USER: genes 13 Torsion [N]-CA--CB-[CG] |==|  0.10237
USER: genes 14 Torsion [CA]-CB--CG-[CD2] |==|  0.13327
USER: genes 15 Torsion [N]-CA--C-[O] |==|  0.38836
USER: genes 16 Torsion [N]-CA--CB-[CG] |==|  0.52994
USER: genes 17 Torsion [CA]-CB--CG-[CD] |==|  0.68082
USER: genes 18 Torsion [CB]-CG--CD-[NE] |==|  0.39321
USER: genes 19 Torsion [CG]-CD--NE-[HE] |==|  0.05348
ROOT
ATOM      1  CA  ARG G  10      27.537 -45.492  54.928  1.00109.03 LIG 0.18  C 
ENDROOT
BRANCH 1 2
ATOM      2  N   ARG G  10      27.131 -44.738  56.125  1.00109.38 LIG-0.35  N 
ATOM      3 H    ARG G  10      27.547 -44.978  56.839  1.00109.38 LIG 0.16  HD
ATOM      4  C   LEU G   9      26.190 -43.756  56.109  1.00112.90 LIG 0.24  C 
ATOM      5 O    LEU G   9      25.583 -43.422  55.085  1.00112.50 LIG-0.27  OA
BRANCH 4 6
ATOM      6  CA  LEU G   9      25.899 -43.033  57.436  1.00108.81 LIG 0.18  C 
BRANCH 6 7
ATOM      7  CB  LEU G   9      24.868 -43.818  58.285  1.00108.47 LIG 0.04  C 
BRANCH 7 8
ATOM      8  CG  LEU G   9      24.683 -43.407  59.760  1.00112.27 LIG-0.02  C 
ATOM      9  CD1 LEU G   9      23.602 -44.220  60.424  1.00111.85 LIG 0.01  C 
ATOM     10  CD2 LEU G   9      25.979 -43.492  60.535  1.00114.30 LIG 0.01  C 
ENDBRANCH 7 8
ENDBRANCH 6 7
BRANCH 6 11
ATOM     11  N   LEU G   9      25.463 -41.642  57.242  1.00109.55 LIG-0.35  N 
ATOM     12 H    LEU G   9      24.940 -41.551  56.565  1.00109.55 LIG 0.16  HD
ATOM     13  C   GLU G   8      25.820 -40.593  58.016  1.00113.88 LIG 0.26  C 
ATOM     14 O    GLU G   8      26.592 -40.692  58.975  1.00113.76 LIG-0.27  OA
BRANCH 13 15
ATOM     15  CA  GLU G   8      25.194 -39.234  57.665  1.00110.25 LIG 0.40  C 
ATOM     16  N   GLU G   8      23.825 -39.090  58.157  1.00110.33 LIG 0.61  N 
BRANCH 15 17
ATOM     17  CB  GLU G   8      26.080 -38.062  58.123  1.00111.70 LIG 0.06  C 
BRANCH 17 18
ATOM     18  CG  GLU G   8      27.545 -38.246  57.755  1.00121.64 LIG 0.12  C 
BRANCH 18 19
ATOM     19  CD  GLU G   8      27.867 -38.529  56.296  1.00138.36 LIG 0.17  C 
ATOM     20 OE1  GLU G   8      27.928 -39.719  55.908  1.00130.99 LIG-0.65  OA
ATOM     21 OE2  GLU G   8      28.023 -37.550  55.532  1.00129.20 LIG-0.65  OA
ENDBRANCH 18 19
ENDBRANCH 17 18
ENDBRANCH 15 17
ENDBRANCH 13 15
ENDBRANCH 6 11
ENDBRANCH 4 6
ENDBRANCH 1 2
BRANCH 1 22
ATOM     22  C   ARG G  10      26.621 -46.682  54.568  1.00112.09 LIG 0.24  C 
ATOM     23 O    ARG G  10      26.999 -47.837  54.774  1.00111.78 LIG-0.27  OA
ATOM     24  N   LEU G  11      25.422 -46.383  54.010  1.00107.87 LIG-0.35  N 
ATOM     25 H    LEU G  11      25.168 -45.571  53.881  1.00107.87 LIG 0.16  HD
BRANCH 24 26
ATOM     26  CA  LEU G  11      24.424 -47.365  53.564  1.00123.94 LIG 0.16  C 
BRANCH 26 27
ATOM     27  CB  LEU G  11      23.446 -46.725  52.541  1.00123.74 LIG 0.04  C 
BRANCH 27 28
ATOM     28  CG  LEU G  11      23.978 -45.694  51.516  1.00127.90 LIG-0.02  C 
ATOM     29  CD2 LEU G  11      25.232 -46.206  50.844  1.00129.89 LIG 0.01  C 
ATOM     30  CD1 LEU G  11      24.273 -44.352  52.157  1.00127.81 LIG 0.01  C 
ENDBRANCH 27 28
ENDBRANCH 26 27
BRANCH 26 31
ATOM     31  C   LEU G  11      25.130 -48.593  52.969  1.00152.65 LIG 0.22  C 
ATOM     32 O    LEU G  11      24.704 -49.725  53.201  1.00110.84 LIG-0.29  OA
ENDBRANCH 26 31
ENDBRANCH 24 26
ENDBRANCH 1 22
BRANCH 1 33
ATOM     33  CB  ARG G  10      28.996 -45.963  55.068  1.00110.06 LIG 0.04  C 
BRANCH 33 34
ATOM     34  CG  ARG G  10      29.579 -46.521  53.777  1.00122.67 LIG 0.02  C 
BRANCH 34 35
ATOM     35  CD  ARG G  10      29.903 -48.000  53.890  1.00133.32 LIG 0.14  C 
BRANCH 35 36
ATOM     36  NE  ARG G  10      29.590 -48.727  52.657  1.00140.65 LIG-0.23  N 
ATOM     37 HE   ARG G  10      29.509 -48.270  51.933  1.00140.65 LIG 0.18  HD
ATOM     38  CZ  ARG G  10      29.423 -50.044  52.579  1.00153.40 LIG 0.67  C 
ATOM     39  NH2 ARG G  10      29.138 -50.615  51.416  1.00139.74 LIG-0.23  N 
ATOM     40  NH1 ARG G  10      29.537 -50.802  53.664  1.00139.37 LIG-0.23  N 
ATOM     41 2HH2 ARG G  10      29.031 -51.467  51.369  1.00139.74 LIG 0.17  HD
ATOM     42 1HH2 ARG G  10      29.061 -50.133  50.708  1.00139.74 LIG 0.17  HD
ATOM     43 1HH1 ARG G  10      29.720 -50.440  54.422  1.00139.37 LIG 0.17  HD
ATOM     44 2HH1 ARG G  10      29.428 -51.653  53.608  1.00139.37 LIG 0.17  HD
ENDBRANCH 35 36
ENDBRANCH 34 35
ENDBRANCH 33 34
ENDBRANCH 1 33
TORSDOF 18
ENDMDL
