MODEL 1
USER: ADFR SOLUTION from run 83
USER: SCORE 18.258803 LL:  -4.672 LR: -13.652 RR:   0.000 FEB:  -8.879
USER: RMSD 1.852635
USER: SEED 82
USER: STATUS no improvement in best in 3 clusters for 5 generations
USER: GENES 18
USER: genes 0 Translation |==|  0.52025 0.45516 0.44766
USER: genes 1 Rotation |==|  0.54255 0.48263 0.49356 0.99784
USER: genes 2 Torsion [N]-C--CA-[N] |==|  0.35500
USER: genes 3 Torsion [C]-CA--N-[C] |==|  0.79814
USER: genes 4 Torsion [N]-C--CA-[N] |==|  0.36538
USER: genes 5 Torsion [N]-C--CA-[N] |==|  0.47349
USER: genes 6 Torsion [N]-C--CA-[N] |==|  0.39716
USER: genes 7 Torsion [C]-CA--N-[C] |==|  0.81411
USER: genes 8 Torsion [C]-CA--CB-[CG] |==|  0.35924
USER: genes 9 Torsion [CA]-CB--CG-[CD1] |==|  0.62064
USER: genes 10 Torsion [N]-CA--C-[N] |==|  0.46185
USER: genes 11 Torsion [N]-CA--C-[N] |==|  0.31539
USER: genes 12 Torsion [C]-N--CA-[C] |==|  0.84656
USER: genes 13 Torsion [N]-CA--C-[O] |==|  0.36986
USER: genes 14 Torsion [N]-CA--CB-[CG] |==|  0.60490
USER: genes 15 Torsion [CA]-CB--CG-[CD] |==|  0.77089
USER: genes 16 Torsion [CB]-CG--CD-[NE] |==|  0.50844
USER: genes 17 Torsion [CG]-CD--NE-[HE] |==|  0.95632
ROOT
ATOM      1  C   LEU B   4      78.874 -20.332  48.891  1.00 11.33 LIG 0.24  C 
ATOM      2 O    LEU B   4      79.842 -20.582  48.158  1.00 12.90 LIG-0.27  OA
ATOM      3  N   PRO B   5      77.671 -20.117  48.393  1.00 11.12 LIG-0.34  N 
ATOM      4  CA  PRO B   5      77.449 -20.209  46.972  1.00 12.55 LIG 0.18  C 
ATOM      5  CB  PRO B   5      75.927 -20.373  46.878  1.00 13.89 LIG 0.04  C 
ATOM      6  CG  PRO B   5      75.413 -19.631  48.050  1.00 12.43 LIG 0.02  C 
ATOM      7  CD  PRO B   5      76.442 -19.782  49.126  1.00 11.21 LIG 0.13  C 
ENDROOT
BRANCH 1 8
ATOM      8  CA  LEU B   4      79.036 -20.286  50.405  1.00 11.65 LIG 0.18  C 
BRANCH 8 9
ATOM      9  N   LEU B   4      79.691 -21.496  50.846  1.00 12.22 LIG-0.35  N 
ATOM     10  C   PRO B   3      79.025 -22.639  50.841  1.00 12.52 LIG 0.24  C 
ATOM     11 O    PRO B   3      77.821 -22.712  50.578  1.00 13.02 LIG-0.27  OA
ATOM     12 H    LEU B   4      80.508 -21.403  51.096  1.00 12.22 LIG 0.16  HD
BRANCH 10 13
ATOM     13  CA  PRO B   3      79.835 -23.877  51.192  1.00 15.46 LIG 0.18  C 
ATOM     14  N   PRO B   3      79.129 -24.674  52.197  1.00 15.16 LIG-0.34  N 
ATOM     15  CD  PRO B   3      78.722 -25.987  51.676  1.00 18.06 LIG 0.13  C 
ATOM     16  C   PRO B   2      78.851 -24.137  53.380  1.00 13.99 LIG 0.24  C 
ATOM     17  CG  PRO B   3      78.853 -25.815  50.202  1.00 19.92 LIG 0.02  C 
ATOM     18  CB  PRO B   3      79.951 -24.832  49.999  1.00 18.17 LIG 0.04  C 
ATOM     19 O    PRO B   2      79.253 -23.006  53.680  1.00 12.71 LIG-0.27  OA
BRANCH 16 20
ATOM     20  CA  PRO B   2      77.976 -24.927  54.334  1.00 15.85 LIG 0.18  C 
ATOM     21  CB  PRO B   2      76.505 -24.860  53.889  1.00 19.12 LIG 0.04  C 
ATOM     22  CG  PRO B   2      75.712 -24.509  55.078  1.00 19.63 LIG 0.02  C 
ATOM     23  CD  PRO B   2      76.624 -23.772  55.982  1.00 18.19 LIG 0.13  C 
ATOM     24  N   PRO B   2      77.955 -24.308  55.648  1.00 15.71 LIG-0.34  N 
ATOM     25  C   ALA B   1      79.064 -24.248  56.375  1.00 13.25 LIG 0.24  C 
ATOM     26 O    ALA B   1      80.148 -24.657  55.962  1.00 13.75 LIG-0.27  OA
BRANCH 25 27
ATOM     27  CA  ALA B   1      78.944 -23.608  57.747  1.00 12.47 LIG 0.17  C 
ATOM     28  CB  ALA B   1      79.328 -22.153  57.673  1.00 12.30 LIG 0.04  C 
BRANCH 27 29
ATOM     29  N   ALA B   1      79.789 -24.303  58.701  1.00 12.31 LIG-0.35  N 
ATOM     30 H    ALA B   1      80.450 -23.840  58.998  1.00 12.31 LIG 0.16  HD
ATOM     31  C   ACE B   0      79.531 -25.548  59.060  1.00 14.04 LIG 0.21  C 
ATOM     32  CH3 ACE B   0      80.464 -26.166  60.056  1.00 14.78 LIG 0.12  C 
ATOM     33 O    ACE B   0      78.574 -26.158  58.582  1.00 15.52 LIG-0.27  OA
ENDBRANCH 27 29
ENDBRANCH 25 27
ENDBRANCH 16 20
ENDBRANCH 10 13
ENDBRANCH 8 9
BRANCH 8 34
ATOM     34  CB  LEU B   4      79.829 -19.043  50.802  1.00 12.59 LIG 0.04  C 
BRANCH 34 35
ATOM     35  CG  LEU B   4      79.184 -18.193  51.895  1.00 12.74 LIG-0.02  C 
ATOM     36  CD1 LEU B   4      79.291 -16.724  51.531  1.00 14.33 LIG 0.01  C 
ATOM     37  CD2 LEU B   4      77.728 -18.570  52.139  1.00 11.50 LIG 0.01  C 
ENDBRANCH 34 35
ENDBRANCH 8 34
ENDBRANCH 1 8
BRANCH 4 38
ATOM     38  C   PRO B   5      77.919 -18.945  46.279  1.00 12.26 LIG 0.24  C 
ATOM     39  N   PRO B   6      78.044 -18.977  44.957  1.00 14.33 LIG-0.34  N 
ATOM     40  CD  PRO B   6      77.811 -20.112  44.053  1.00 16.43 LIG 0.13  C 
ATOM     41  CA  PRO B   6      78.436 -17.766  44.232  1.00 15.63 LIG 0.18  C 
ATOM     42  CG  PRO B   6      78.540 -19.711  42.814  1.00 18.90 LIG 0.02  C 
ATOM     43  CB  PRO B   6      78.536 -18.233  42.775  1.00 17.20 LIG 0.04  C 
ATOM     44 O    PRO B   5      78.149 -17.909  46.922  1.00 12.24 LIG-0.27  OA
BRANCH 41 45
ATOM     45  C   PRO B   6      77.392 -16.670  44.369  1.00 14.54 LIG 0.24  C 
ATOM     46 O    PRO B   6      76.271 -16.774  43.864  1.00 15.72 LIG-0.27  OA
ATOM     47  N   ARG B   7      77.781 -15.600  45.047  1.00 15.59 LIG-0.35  N 
ATOM     48 H    ARG B   7      78.554 -15.520  45.416  1.00 15.59 LIG 0.16  HD
BRANCH 47 49
ATOM     49  CA  ARG B   7      76.906 -14.443  45.224  1.00 17.66 LIG 0.16  C 
BRANCH 49 50
ATOM     50  C   ARG B   7      76.397 -13.883  43.899  1.00 19.45 LIG 0.22  C 
ATOM     51 O    ARG B   7      75.210 -13.613  43.751  1.00 22.19 LIG-0.29  OA
ENDBRANCH 49 50
BRANCH 49 52
ATOM     52  CB  ARG B   7      77.632 -13.367  46.025  1.00 18.48 LIG 0.04  C 
BRANCH 52 53
ATOM     53  CG  ARG B   7      76.707 -12.654  46.987  1.00 19.62 LIG 0.02  C 
BRANCH 53 54
ATOM     54  CD  ARG B   7      75.917 -11.556  46.316  1.00 19.05 LIG 0.14  C 
BRANCH 54 55
ATOM     55  NE  ARG B   7      75.095 -10.851  47.291  1.00 16.94 LIG-0.23  N 
ATOM     56  CZ  ARG B   7      74.520  -9.668  47.094  1.00 14.04 LIG 0.67  C 
ATOM     57  NH1 ARG B   7      74.673  -9.012  45.955  1.00 13.87 LIG-0.23  N 
ATOM     58  NH2 ARG B   7      73.794  -9.131  48.058  1.00 14.07 LIG-0.23  N 
ATOM     59 2HH1 ARG B   7      74.295  -8.248  45.844  1.00 13.87 LIG 0.17  HD
ATOM     60 1HH1 ARG B   7      75.152  -9.350  45.325  1.00 13.87 LIG 0.17  HD
ATOM     61 1HH2 ARG B   7      73.696  -9.546  48.805  1.00 14.07 LIG 0.17  HD
ATOM     62 2HH2 ARG B   7      73.418  -8.367  47.939  1.00 14.07 LIG 0.17  HD
ATOM     63 HE   ARG B   7      74.972 -11.230  48.054  1.00 16.94 LIG 0.18  HD
ENDBRANCH 54 55
ENDBRANCH 53 54
ENDBRANCH 52 53
ENDBRANCH 49 52
ENDBRANCH 47 49
ENDBRANCH 41 45
ENDBRANCH 4 38
TORSDOF 16
ENDMDL
MODEL 2
USER: ADFR SOLUTION from run 33
USER: SCORE 18.623518 LL:  -5.535 LR: -13.426 RR:   0.000 FEB:  -8.653
USER: RMSD 7.372209
USER: SEED 32
USER: STATUS no improvement in best in 1 clusters for 5 generations
USER: GENES 18
USER: genes 0 Translation |==|  0.59187 0.31851 0.60927
USER: genes 1 Rotation |==|  0.70695 0.35184 0.81566 0.79254
USER: genes 2 Torsion [N]-C--CA-[N] |==|  0.38030
USER: genes 3 Torsion [C]-CA--N-[C] |==|  0.84903
USER: genes 4 Torsion [N]-C--CA-[N] |==|  0.93814
USER: genes 5 Torsion [N]-C--CA-[N] |==|  0.50173
USER: genes 6 Torsion [N]-C--CA-[N] |==|  0.41674
USER: genes 7 Torsion [C]-CA--N-[C] |==|  0.51410
USER: genes 8 Torsion [C]-CA--CB-[CG] |==|  0.16450
USER: genes 9 Torsion [CA]-CB--CG-[CD1] |==|  0.21391
USER: genes 10 Torsion [N]-CA--C-[N] |==|  0.32199
USER: genes 11 Torsion [N]-CA--C-[N] |==|  0.28459
USER: genes 12 Torsion [C]-N--CA-[C] |==|  0.61025
USER: genes 13 Torsion [N]-CA--C-[O] |==|  0.88059
USER: genes 14 Torsion [N]-CA--CB-[CG] |==|  0.80107
USER: genes 15 Torsion [CA]-CB--CG-[CD] |==|  0.68531
USER: genes 16 Torsion [CB]-CG--CD-[NE] |==|  0.88205
USER: genes 17 Torsion [CG]-CD--NE-[HE] |==|  0.26788
ROOT
ATOM      1  C   LEU B   4      79.948 -23.612  53.254  1.00 11.33 LIG 0.24  C 
ATOM      2 O    LEU B   4      80.188 -22.465  53.659  1.00 12.90 LIG-0.27  OA
ATOM      3  N   PRO B   5      79.735 -23.860  51.976  1.00 11.12 LIG-0.34  N 
ATOM      4  CA  PRO B   5      79.818 -22.796  51.009  1.00 12.55 LIG 0.18  C 
ATOM      5  CB  PRO B   5      79.988 -23.553  49.686  1.00 13.89 LIG 0.04  C 
ATOM      6  CG  PRO B   5      79.258 -24.821  49.902  1.00 12.43 LIG 0.02  C 
ATOM      7  CD  PRO B   5      79.411 -25.152  51.353  1.00 11.21 LIG 0.13  C 
ENDROOT
BRANCH 1 8
ATOM      8  CA  LEU B   4      79.911 -24.786  54.224  1.00 11.65 LIG 0.18  C 
BRANCH 8 9
ATOM      9  N   LEU B   4      81.010 -24.663  55.155  1.00 12.22 LIG-0.35  N 
ATOM     10  C   PRO B   3      82.244 -24.534  54.696  1.00 12.52 LIG 0.24  C 
ATOM     11 O    PRO B   3      82.527 -24.623  53.498  1.00 13.02 LIG-0.27  OA
ATOM     12 H    LEU B   4      80.792 -24.681  55.986  1.00 12.22 LIG 0.16  HD
BRANCH 10 13
ATOM     13  CA  PRO B   3      83.314 -24.276  55.745  1.00 15.46 LIG 0.18  C 
ATOM     14  N   PRO B   3      82.710 -23.710  56.954  1.00 15.16 LIG-0.34  N 
ATOM     15  CD  PRO B   3      82.836 -24.612  58.109  1.00 18.06 LIG 0.13  C 
ATOM     16  C   PRO B   2      82.059 -22.555  56.880  1.00 13.99 LIG 0.24  C 
ATOM     17  CG  PRO B   3      83.186 -25.914  57.477  1.00 19.92 LIG 0.02  C 
ATOM     18  CB  PRO B   3      83.945 -25.581  56.241  1.00 18.17 LIG 0.04  C 
ATOM     19 O    PRO B   2      82.028 -21.904  55.828  1.00 12.71 LIG-0.27  OA
BRANCH 16 20
ATOM     20  CA  PRO B   2      81.304 -22.081  58.108  1.00 15.85 LIG 0.18  C 
ATOM     21  CB  PRO B   2      80.138 -23.034  58.418  1.00 19.12 LIG 0.04  C 
ATOM     22  CG  PRO B   2      78.945 -22.198  58.626  1.00 19.63 LIG 0.02  C 
ATOM     23  CD  PRO B   2      79.175 -20.949  57.864  1.00 18.19 LIG 0.13  C 
ATOM     24  N   PRO B   2      80.642 -20.815  57.850  1.00 15.71 LIG-0.34  N 
ATOM     25  C   ALA B   1      81.358 -19.725  57.605  1.00 13.25 LIG 0.24  C 
ATOM     26 O    ALA B   1      82.586 -19.743  57.536  1.00 13.75 LIG-0.27  OA
BRANCH 25 27
ATOM     27  CA  ALA B   1      80.583 -18.439  57.373  1.00 12.47 LIG 0.17  C 
ATOM     28  CB  ALA B   1      80.232 -18.305  55.914  1.00 12.30 LIG 0.04  C 
BRANCH 27 29
ATOM     29  N   ALA B   1      81.363 -17.296  57.810  1.00 12.31 LIG-0.35  N 
ATOM     30 H    ALA B   1      82.162 -17.485  58.068  1.00 12.31 LIG 0.16  HD
ATOM     31  C   ACE B   0      80.853 -16.077  57.798  1.00 14.04 LIG 0.21  C 
ATOM     32  CH3 ACE B   0      81.750 -14.971  58.263  1.00 14.78 LIG 0.12  C 
ATOM     33 O    ACE B   0      79.695 -15.881  57.429  1.00 15.52 LIG-0.27  OA
ENDBRANCH 27 29
ENDBRANCH 25 27
ENDBRANCH 16 20
ENDBRANCH 10 13
ENDBRANCH 8 9
BRANCH 8 34
ATOM     34  CB  LEU B   4      78.566 -24.821  54.945  1.00 12.59 LIG 0.04  C 
BRANCH 34 35
ATOM     35  CG  LEU B   4      77.351 -24.955  54.030  1.00 12.74 LIG-0.02  C 
ATOM     36  CD1 LEU B   4      77.221 -26.391  53.558  1.00 14.33 LIG 0.01  C 
ATOM     37  CD2 LEU B   4      76.063 -24.506  54.709  1.00 11.50 LIG 0.01  C 
ENDBRANCH 34 35
ENDBRANCH 8 34
ENDBRANCH 1 8
BRANCH 4 38
ATOM     38  C   PRO B   5      78.547 -21.970  51.019  1.00 12.26 LIG 0.24  C 
ATOM     39  N   PRO B   6      78.642 -20.697  51.389  1.00 14.33 LIG-0.34  N 
ATOM     40  CD  PRO B   6      79.840 -19.970  51.831  1.00 16.43 LIG 0.13  C 
ATOM     41  CA  PRO B   6      77.456 -19.839  51.359  1.00 15.63 LIG 0.18  C 
ATOM     42  CG  PRO B   6      79.274 -18.784  52.537  1.00 18.90 LIG 0.02  C 
ATOM     43  CB  PRO B   6      77.962 -18.502  51.916  1.00 17.20 LIG 0.04  C 
ATOM     44 O    PRO B   5      77.462 -22.458  50.666  1.00 12.24 LIG-0.27  OA
BRANCH 41 45
ATOM     45  C   PRO B   6      76.930 -19.660  49.944  1.00 14.54 LIG 0.24  C 
ATOM     46 O    PRO B   6      77.460 -18.881  49.148  1.00 15.72 LIG-0.27  OA
ATOM     47  N   ARG B   7      75.861 -20.383  49.643  1.00 15.59 LIG-0.35  N 
ATOM     48 H    ARG B   7      75.490 -20.941  50.183  1.00 15.59 LIG 0.16  HD
BRANCH 47 49
ATOM     49  CA  ARG B   7      75.212 -20.286  48.337  1.00 17.66 LIG 0.16  C 
BRANCH 49 50
ATOM     50  C   ARG B   7      73.690 -20.331  48.433  1.00 19.45 LIG 0.22  C 
ATOM     51 O    ARG B   7      73.136 -21.131  49.178  1.00 22.19 LIG-0.29  OA
ENDBRANCH 49 50
BRANCH 49 52
ATOM     52  CB  ARG B   7      75.731 -21.391  47.422  1.00 18.48 LIG 0.04  C 
BRANCH 52 53
ATOM     53  CG  ARG B   7      77.157 -21.142  46.984  1.00 19.62 LIG 0.02  C 
BRANCH 53 54
ATOM     54  CD  ARG B   7      77.263 -20.870  45.502  1.00 19.05 LIG 0.14  C 
BRANCH 54 55
ATOM     55  NE  ARG B   7      76.410 -21.784  44.755  1.00 16.94 LIG-0.23  N 
ATOM     56  CZ  ARG B   7      76.744 -23.021  44.395  1.00 14.04 LIG 0.67  C 
ATOM     57  NH1 ARG B   7      77.932 -23.524  44.691  1.00 13.87 LIG-0.23  N 
ATOM     58  NH2 ARG B   7      75.880 -23.756  43.719  1.00 14.07 LIG-0.23  N 
ATOM     59 2HH1 ARG B   7      78.132 -24.326  44.451  1.00 13.87 LIG 0.17  HD
ATOM     60 1HH1 ARG B   7      78.504 -23.049  45.123  1.00 13.87 LIG 0.17  HD
ATOM     61 1HH2 ARG B   7      75.109 -23.434  43.515  1.00 14.07 LIG 0.17  HD
ATOM     62 2HH2 ARG B   7      76.087 -24.556  43.483  1.00 14.07 LIG 0.17  HD
ATOM     63 HE   ARG B   7      75.629 -21.502  44.528  1.00 16.94 LIG 0.18  HD
ENDBRANCH 54 55
ENDBRANCH 53 54
ENDBRANCH 52 53
ENDBRANCH 49 52
ENDBRANCH 47 49
ENDBRANCH 41 45
ENDBRANCH 4 38
TORSDOF 16
ENDMDL
MODEL 3
USER: ADFR SOLUTION from run 165
USER: SCORE 17.569557 LL:  -4.318 LR: -13.413 RR:   0.000 FEB:  -8.640
USER: RMSD 13.057106
USER: SEED 164
USER: STATUS no improvement in best in 9 clusters for 5 generations
USER: GENES 18
USER: genes 0 Translation |==|  0.40583 0.42159 0.40096
USER: genes 1 Rotation |==|  0.87413 0.31787 0.22280 0.50364
USER: genes 2 Torsion [N]-C--CA-[N] |==|  0.41278
USER: genes 3 Torsion [C]-CA--N-[C] |==|  0.83333
USER: genes 4 Torsion [N]-C--CA-[N] |==|  0.41368
USER: genes 5 Torsion [N]-C--CA-[N] |==|  0.49897
USER: genes 6 Torsion [N]-C--CA-[N] |==|  0.37610
USER: genes 7 Torsion [C]-CA--N-[C] |==|  0.78103
USER: genes 8 Torsion [C]-CA--CB-[CG] |==|  0.28803
USER: genes 9 Torsion [CA]-CB--CG-[CD1] |==|  0.06606
USER: genes 10 Torsion [N]-CA--C-[N] |==|  0.49090
USER: genes 11 Torsion [N]-CA--C-[N] |==|  0.34453
USER: genes 12 Torsion [C]-N--CA-[C] |==|  0.48499
USER: genes 13 Torsion [N]-CA--C-[O] |==|  0.81700
USER: genes 14 Torsion [N]-CA--CB-[CG] |==|  0.53210
USER: genes 15 Torsion [CA]-CB--CG-[CD] |==|  0.77729
USER: genes 16 Torsion [CB]-CG--CD-[NE] |==|  0.42745
USER: genes 17 Torsion [CG]-CD--NE-[HE] |==|  0.91377
ROOT
ATOM      1  C   LEU B   4      77.157 -21.138  47.630  1.00 11.33 LIG 0.24  C 
ATOM      2 O    LEU B   4      78.081 -21.684  47.010  1.00 12.90 LIG-0.27  OA
ATOM      3  N   PRO B   5      77.321 -20.700  48.864  1.00 11.12 LIG-0.34  N 
ATOM      4  CA  PRO B   5      78.604 -20.816  49.508  1.00 12.55 LIG 0.18  C 
ATOM      5  CB  PRO B   5      78.497 -19.807  50.658  1.00 13.89 LIG 0.04  C 
ATOM      6  CG  PRO B   5      77.060 -19.811  51.008  1.00 12.43 LIG 0.02  C 
ATOM      7  CD  PRO B   5      76.319 -20.065  49.732  1.00 11.21 LIG 0.13  C 
ENDROOT
BRANCH 1 8
ATOM      8  CA  LEU B   4      75.797 -20.931  46.976  1.00 11.65 LIG 0.18  C 
BRANCH 8 9
ATOM      9  N   LEU B   4      75.981 -20.758  45.552  1.00 12.22 LIG-0.35  N 
ATOM     10  C   PRO B   3      76.719 -19.755  45.105  1.00 12.52 LIG 0.24  C 
ATOM     11 O    PRO B   3      77.180 -18.881  45.844  1.00 13.02 LIG-0.27  OA
ATOM     12 H    LEU B   4      75.585 -21.339  45.057  1.00 12.22 LIG 0.16  HD
BRANCH 10 13
ATOM     13  CA  PRO B   3      76.965 -19.735  43.605  1.00 15.46 LIG 0.18  C 
ATOM     14  N   PRO B   3      77.098 -18.354  43.134  1.00 15.16 LIG-0.34  N 
ATOM     15  CD  PRO B   3      78.446 -18.075  42.617  1.00 18.06 LIG 0.13  C 
ATOM     16  C   PRO B   2      76.088 -17.507  43.297  1.00 13.99 LIG 0.24  C 
ATOM     17  CG  PRO B   3      79.249 -19.211  43.149  1.00 19.92 LIG 0.02  C 
ATOM     18  CB  PRO B   3      78.314 -20.365  43.245  1.00 18.17 LIG 0.04  C 
ATOM     19 O    PRO B   2      75.005 -17.885  43.760  1.00 12.71 LIG-0.27  OA
BRANCH 16 20
ATOM     20  CA  PRO B   2      76.318 -16.048  42.953  1.00 15.85 LIG 0.18  C 
ATOM     21  CB  PRO B   2      77.333 -15.424  43.925  1.00 19.12 LIG 0.04  C 
ATOM     22  CG  PRO B   2      76.750 -14.157  44.398  1.00 19.63 LIG 0.02  C 
ATOM     23  CD  PRO B   2      75.282 -14.307  44.284  1.00 18.19 LIG 0.13  C 
ATOM     24  N   PRO B   2      75.114 -15.268  43.180  1.00 15.71 LIG-0.34  N 
ATOM     25  C   ALA B   1      74.027 -15.491  42.452  1.00 13.25 LIG 0.24  C 
ATOM     26 O    ALA B   1      73.970 -16.381  41.605  1.00 13.75 LIG-0.27  OA
BRANCH 25 27
ATOM     27  CA  ALA B   1      72.823 -14.611  42.739  1.00 12.47 LIG 0.17  C 
ATOM     28  CB  ALA B   1      71.810 -15.373  43.554  1.00 12.30 LIG 0.04  C 
BRANCH 27 29
ATOM     29  N   ALA B   1      72.228 -14.153  41.498  1.00 12.31 LIG-0.35  N 
ATOM     30 H    ALA B   1      71.521 -14.582  41.258  1.00 12.31 LIG 0.16  HD
ATOM     31  C   ACE B   0      72.758 -13.152  40.816  1.00 14.04 LIG 0.21  C 
ATOM     32  CH3 ACE B   0      72.057 -12.757  39.552  1.00 14.78 LIG 0.12  C 
ATOM     33 O    ACE B   0      73.781 -12.592  41.210  1.00 15.52 LIG-0.27  OA
ENDBRANCH 27 29
ENDBRANCH 25 27
ENDBRANCH 16 20
ENDBRANCH 10 13
ENDBRANCH 8 9
BRANCH 8 34
ATOM     34  CB  LEU B   4      74.889 -22.118  47.284  1.00 12.59 LIG 0.04  C 
BRANCH 34 35
ATOM     35  CG  LEU B   4      73.827 -21.855  48.349  1.00 12.74 LIG-0.02  C 
ATOM     36  CD1 LEU B   4      73.541 -20.367  48.429  1.00 14.33 LIG 0.01  C 
ATOM     37  CD2 LEU B   4      72.539 -22.624  48.085  1.00 11.50 LIG 0.01  C 
ENDBRANCH 34 35
ENDBRANCH 8 34
ENDBRANCH 1 8
BRANCH 4 38
ATOM     38  C   PRO B   5      78.814 -22.227  50.023  1.00 12.26 LIG 0.24  C 
ATOM     39  N   PRO B   6      79.984 -22.511  50.585  1.00 14.33 LIG-0.34  N 
ATOM     40  CD  PRO B   6      81.145 -21.625  50.753  1.00 16.43 LIG 0.13  C 
ATOM     41  CA  PRO B   6      80.218 -23.840  51.152  1.00 15.63 LIG 0.18  C 
ATOM     42  CG  PRO B   6      82.266 -22.581  50.994  1.00 18.90 LIG 0.02  C 
ATOM     43  CB  PRO B   6      81.676 -23.782  51.623  1.00 17.20 LIG 0.04  C 
ATOM     44 O    PRO B   5      77.914 -23.078  49.947  1.00 12.24 LIG-0.27  OA
BRANCH 41 45
ATOM     45  C   PRO B   6      79.290 -24.120  52.324  1.00 14.54 LIG 0.24  C 
ATOM     46 O    PRO B   6      79.253 -23.381  53.311  1.00 15.72 LIG-0.27  OA
ATOM     47  N   ARG B   7      78.551 -25.213  52.212  1.00 15.59 LIG-0.35  N 
ATOM     48 H    ARG B   7      78.556 -25.728  51.523  1.00 15.59 LIG 0.16  HD
BRANCH 47 49
ATOM     49  CA  ARG B   7      77.645 -25.639  53.276  1.00 17.66 LIG 0.16  C 
BRANCH 49 50
ATOM     50  C   ARG B   7      76.800 -26.846  52.880  1.00 19.45 LIG 0.22  C 
ATOM     51 O    ARG B   7      75.964 -26.756  51.987  1.00 22.19 LIG-0.29  OA
ENDBRANCH 49 50
BRANCH 49 52
ATOM     52  CB  ARG B   7      76.759 -24.471  53.696  1.00 18.48 LIG 0.04  C 
BRANCH 52 53
ATOM     53  CG  ARG B   7      76.000 -24.763  54.972  1.00 19.62 LIG 0.02  C 
BRANCH 53 54
ATOM     54  CD  ARG B   7      74.775 -25.612  54.730  1.00 19.05 LIG 0.14  C 
BRANCH 54 55
ATOM     55  NE  ARG B   7      74.435 -26.367  55.929  1.00 16.94 LIG-0.23  N 
ATOM     56  CZ  ARG B   7      73.203 -26.720  56.286  1.00 14.04 LIG 0.67  C 
ATOM     57  NH1 ARG B   7      72.153 -26.383  55.553  1.00 13.87 LIG-0.23  N 
ATOM     58  NH2 ARG B   7      73.022 -27.409  57.398  1.00 14.07 LIG-0.23  N 
ATOM     59 2HH1 ARG B   7      71.363 -26.619  55.798  1.00 13.87 LIG 0.17  HD
ATOM     60 1HH1 ARG B   7      72.261 -25.927  54.832  1.00 13.87 LIG 0.17  HD
ATOM     61 1HH2 ARG B   7      73.697 -27.625  57.885  1.00 14.07 LIG 0.17  HD
ATOM     62 2HH2 ARG B   7      72.230 -27.642  57.636  1.00 14.07 LIG 0.17  HD
ATOM     63 HE   ARG B   7      75.081 -26.602  56.446  1.00 16.94 LIG 0.18  HD
ENDBRANCH 54 55
ENDBRANCH 53 54
ENDBRANCH 52 53
ENDBRANCH 49 52
ENDBRANCH 47 49
ENDBRANCH 41 45
ENDBRANCH 4 38
TORSDOF 16
ENDMDL
MODEL 4
USER: ADFR SOLUTION from run 188
USER: SCORE 16.795937 LL:  -4.212 LR: -13.112 RR:   0.000 FEB:  -8.339
USER: RMSD 3.560816
USER: SEED 187
USER: STATUS no improvement in best in 6 clusters for 5 generations
USER: GENES 18
USER: genes 0 Translation |==|  0.47069 0.47990 0.36887
USER: genes 1 Rotation |==|  0.66032 0.34417 0.60382 0.93501
USER: genes 2 Torsion [N]-C--CA-[N] |==|  0.47597
USER: genes 3 Torsion [C]-CA--N-[C] |==|  0.61648
USER: genes 4 Torsion [N]-C--CA-[N] |==|  0.48106
USER: genes 5 Torsion [N]-C--CA-[N] |==|  0.43169
USER: genes 6 Torsion [N]-C--CA-[N] |==|  0.17222
USER: genes 7 Torsion [C]-CA--N-[C] |==|  0.15714
USER: genes 8 Torsion [C]-CA--CB-[CG] |==|  0.36037
USER: genes 9 Torsion [CA]-CB--CG-[CD1] |==|  0.63499
USER: genes 10 Torsion [N]-CA--C-[N] |==|  0.55426
USER: genes 11 Torsion [N]-CA--C-[N] |==|  0.80400
USER: genes 12 Torsion [C]-N--CA-[C] |==|  0.55598
USER: genes 13 Torsion [N]-CA--C-[O] |==|  0.31792
USER: genes 14 Torsion [N]-CA--CB-[CG] |==|  0.69001
USER: genes 15 Torsion [CA]-CB--CG-[CD] |==|  0.30971
USER: genes 16 Torsion [CB]-CG--CD-[NE] |==|  0.46342
USER: genes 17 Torsion [CG]-CD--NE-[HE] |==|  0.25374
ROOT
ATOM      1  C   LEU B   4      78.130 -19.738  46.763  1.00 11.33 LIG 0.24  C 
ATOM      2 O    LEU B   4      79.298 -19.325  46.788  1.00 12.90 LIG-0.27  OA
ATOM      3  N   PRO B   5      77.360 -19.563  45.706  1.00 11.12 LIG-0.34  N 
ATOM      4  CA  PRO B   5      77.883 -18.914  44.531  1.00 12.55 LIG 0.18  C 
ATOM      5  CB  PRO B   5      76.888 -19.336  43.442  1.00 13.89 LIG 0.04  C 
ATOM      6  CG  PRO B   5      75.607 -19.489  44.165  1.00 12.43 LIG 0.02  C 
ATOM      7  CD  PRO B   5      75.957 -19.967  45.540  1.00 11.21 LIG 0.13  C 
ENDROOT
BRANCH 1 8
ATOM      8  CA  LEU B   4      77.546 -20.489  47.953  1.00 11.65 LIG 0.18  C 
BRANCH 8 9
ATOM      9  N   LEU B   4      78.598 -20.749  48.909  1.00 12.22 LIG-0.35  N 
ATOM     10  C   PRO B   3      78.662 -21.928  49.506  1.00 12.52 LIG 0.24  C 
ATOM     11 O    PRO B   3      77.795 -22.797  49.370  1.00 13.02 LIG-0.27  OA
ATOM     12 H    LEU B   4      79.144 -20.099  49.042  1.00 12.22 LIG 0.16  HD
BRANCH 10 13
ATOM     13  CA  PRO B   3      79.877 -22.155  50.390  1.00 15.46 LIG 0.18  C 
ATOM     14  N   PRO B   3      79.747 -23.423  51.113  1.00 15.16 LIG-0.34  N 
ATOM     15  CD  PRO B   3      80.773 -24.396  50.711  1.00 18.06 LIG 0.13  C 
ATOM     16  C   PRO B   2      78.722 -23.602  51.938  1.00 13.99 LIG 0.24  C 
ATOM     17  CG  PRO B   3      81.293 -23.824  49.437  1.00 19.92 LIG 0.02  C 
ATOM     18  CB  PRO B   3      81.151 -22.349  49.561  1.00 18.17 LIG 0.04  C 
ATOM     19 O    PRO B   2      77.924 -22.687  52.175  1.00 12.71 LIG-0.27  OA
BRANCH 16 20
ATOM     20  CA  PRO B   2      78.523 -24.980  52.540  1.00 15.85 LIG 0.18  C 
ATOM     21  CB  PRO B   2      77.602 -25.825  51.645  1.00 19.12 LIG 0.04  C 
ATOM     22  CG  PRO B   2      76.580 -26.421  52.522  1.00 19.63 LIG 0.02  C 
ATOM     23  CD  PRO B   2      76.458 -25.519  53.689  1.00 18.19 LIG 0.13  C 
ATOM     24  N   PRO B   2      77.790 -24.897  53.790  1.00 15.71 LIG-0.34  N 
ATOM     25  C   ALA B   1      78.324 -24.282  54.838  1.00 13.25 LIG 0.24  C 
ATOM     26 O    ALA B   1      79.418 -23.721  54.787  1.00 13.75 LIG-0.27  OA
BRANCH 25 27
ATOM     27  CA  ALA B   1      77.498 -24.265  56.113  1.00 12.47 LIG 0.17  C 
ATOM     28  CB  ALA B   1      78.198 -23.453  57.170  1.00 12.30 LIG 0.04  C 
BRANCH 27 29
ATOM     29  N   ALA B   1      77.274 -25.620  56.583  1.00 12.31 LIG-0.35  N 
ATOM     30 H    ALA B   1      76.447 -25.834  56.679  1.00 12.31 LIG 0.16  HD
ATOM     31  C   ACE B   0      78.287 -26.431  56.834  1.00 14.04 LIG 0.21  C 
ATOM     32  CH3 ACE B   0      77.940 -27.809  57.308  1.00 14.78 LIG 0.12  C 
ATOM     33 O    ACE B   0      79.449 -26.052  56.689  1.00 15.52 LIG-0.27  OA
ENDBRANCH 27 29
ENDBRANCH 25 27
ENDBRANCH 16 20
ENDBRANCH 10 13
ENDBRANCH 8 9
BRANCH 8 34
ATOM     34  CB  LEU B   4      76.414 -19.673  48.574  1.00 12.59 LIG 0.04  C 
BRANCH 34 35
ATOM     35  CG  LEU B   4      75.114 -20.443  48.795  1.00 12.74 LIG-0.02  C 
ATOM     36  CD1 LEU B   4      73.946 -19.643  48.250  1.00 14.33 LIG 0.01  C 
ATOM     37  CD2 LEU B   4      75.146 -21.827  48.157  1.00 11.50 LIG 0.01  C 
ENDBRANCH 34 35
ENDBRANCH 8 34
ENDBRANCH 1 8
BRANCH 4 38
ATOM     38  C   PRO B   5      77.899 -17.410  44.719  1.00 12.26 LIG 0.24  C 
ATOM     39  N   PRO B   6      77.967 -16.653  43.629  1.00 14.33 LIG-0.34  N 
ATOM     40  CD  PRO B   6      78.062 -17.089  42.229  1.00 16.43 LIG 0.13  C 
ATOM     41  CA  PRO B   6      77.926 -15.194  43.751  1.00 15.63 LIG 0.18  C 
ATOM     42  CG  PRO B   6      78.570 -15.872  41.530  1.00 18.90 LIG 0.02  C 
ATOM     43  CB  PRO B   6      78.101 -14.705  42.308  1.00 17.20 LIG 0.04  C 
ATOM     44 O    PRO B   5      77.822 -16.904  45.850  1.00 12.24 LIG-0.27  OA
BRANCH 41 45
ATOM     45  C   PRO B   6      76.598 -14.717  44.317  1.00 14.54 LIG 0.24  C 
ATOM     46 O    PRO B   6      76.505 -14.264  45.460  1.00 15.72 LIG-0.27  OA
ATOM     47  N   ARG B   7      75.559 -14.843  43.503  1.00 15.59 LIG-0.35  N 
ATOM     48 H    ARG B   7      75.612 -15.143  42.699  1.00 15.59 LIG 0.16  HD
BRANCH 47 49
ATOM     49  CA  ARG B   7      74.208 -14.471  43.920  1.00 17.66 LIG 0.16  C 
BRANCH 49 50
ATOM     50  C   ARG B   7      73.129 -15.127  43.065  1.00 19.45 LIG 0.22  C 
ATOM     51 O    ARG B   7      72.358 -15.946  43.554  1.00 22.19 LIG-0.29  OA
ENDBRANCH 49 50
BRANCH 49 52
ATOM     52  CB  ARG B   7      74.065 -12.952  43.904  1.00 18.48 LIG 0.04  C 
BRANCH 52 53
ATOM     53  CG  ARG B   7      73.920 -12.381  45.298  1.00 19.62 LIG 0.02  C 
BRANCH 53 54
ATOM     54  CD  ARG B   7      75.124 -11.571  45.714  1.00 19.05 LIG 0.14  C 
BRANCH 54 55
ATOM     55  NE  ARG B   7      74.824 -10.792  46.909  1.00 16.94 LIG-0.23  N 
ATOM     56  CZ  ARG B   7      74.303  -9.567  46.913  1.00 14.04 LIG 0.67  C 
ATOM     57  NH1 ARG B   7      74.023  -8.937  45.783  1.00 13.87 LIG-0.23  N 
ATOM     58  NH2 ARG B   7      74.075  -8.964  48.066  1.00 14.07 LIG-0.23  N 
ATOM     59 2HH1 ARG B   7      73.687  -8.146  45.804  1.00 13.87 LIG 0.17  HD
ATOM     60 1HH1 ARG B   7      74.178  -9.320  45.029  1.00 13.87 LIG 0.17  HD
ATOM     61 1HH2 ARG B   7      74.262  -9.362  48.805  1.00 14.07 LIG 0.17  HD
ATOM     62 2HH2 ARG B   7      73.738  -8.173  48.077  1.00 14.07 LIG 0.17  HD
ATOM     63 HE   ARG B   7      74.998 -11.152  47.671  1.00 16.94 LIG 0.18  HD
ENDBRANCH 54 55
ENDBRANCH 53 54
ENDBRANCH 52 53
ENDBRANCH 49 52
ENDBRANCH 47 49
ENDBRANCH 41 45
ENDBRANCH 4 38
TORSDOF 16
ENDMDL
MODEL 5
USER: ADFR SOLUTION from run 16
USER: SCORE 16.704998 LL:  -4.026 LR: -13.064 RR:   0.000 FEB:  -8.291
USER: RMSD 3.345556
USER: SEED 382335
USER: STATUS no improvement in best in 15 clusters for 5 generations
USER: GENES 18
USER: genes 0 Translation |==|  0.50693 0.43521 0.47234
USER: genes 1 Rotation |==|  0.55240 0.45581 0.49695 0.99527
USER: genes 2 Torsion [N]-C--CA-[N] |==|  0.37256
USER: genes 3 Torsion [C]-CA--N-[C] |==|  0.81201
USER: genes 4 Torsion [N]-C--CA-[N] |==|  0.28768
USER: genes 5 Torsion [N]-C--CA-[N] |==|  0.91465
USER: genes 6 Torsion [N]-C--CA-[N] |==|  0.34384
USER: genes 7 Torsion [C]-CA--N-[C] |==|  0.67248
USER: genes 8 Torsion [C]-CA--CB-[CG] |==|  0.34313
USER: genes 9 Torsion [CA]-CB--CG-[CD1] |==|  0.41250
USER: genes 10 Torsion [N]-CA--C-[N] |==|  0.43090
USER: genes 11 Torsion [N]-CA--C-[N] |==|  0.36256
USER: genes 12 Torsion [C]-N--CA-[C] |==|  0.80606
USER: genes 13 Torsion [N]-CA--C-[O] |==|  0.47683
USER: genes 14 Torsion [N]-CA--CB-[CG] |==|  0.61684
USER: genes 15 Torsion [CA]-CB--CG-[CD] |==|  0.67756
USER: genes 16 Torsion [CB]-CG--CD-[NE] |==|  0.56004
USER: genes 17 Torsion [CG]-CD--NE-[HE] |==|  0.03464
ROOT
ATOM      1  C   LEU B   4      78.674 -20.811  49.557  1.00 11.33 LIG 0.24  C 
ATOM      2 O    LEU B   4      79.717 -21.029  48.925  1.00 12.90 LIG-0.27  OA
ATOM      3  N   PRO B   5      77.530 -20.581  48.940  1.00 11.12 LIG-0.34  N 
ATOM      4  CA  PRO B   5      77.465 -20.619  47.501  1.00 12.55 LIG 0.18  C 
ATOM      5  CB  PRO B   5      75.964 -20.784  47.235  1.00 13.89 LIG 0.04  C 
ATOM      6  CG  PRO B   5      75.319 -20.090  48.372  1.00 12.43 LIG 0.02  C 
ATOM      7  CD  PRO B   5      76.227 -20.279  49.547  1.00 11.21 LIG 0.13  C 
ENDROOT
BRANCH 1 8
ATOM      8  CA  LEU B   4      78.671 -20.822  51.080  1.00 11.65 LIG 0.18  C 
BRANCH 8 9
ATOM      9  N   LEU B   4      79.414 -21.972  51.545  1.00 12.22 LIG-0.35  N 
ATOM     10  C   PRO B   3      78.936 -23.187  51.335  1.00 12.52 LIG 0.24  C 
ATOM     11 O    PRO B   3      77.820 -23.395  50.851  1.00 13.02 LIG-0.27  OA
ATOM     12 H    LEU B   4      80.153 -21.795  51.946  1.00 12.22 LIG 0.16  HD
BRANCH 10 13
ATOM     13  CA  PRO B   3      79.850 -24.334  51.737  1.00 15.46 LIG 0.18  C 
ATOM     14  N   PRO B   3      79.393 -24.926  52.996  1.00 15.16 LIG-0.34  N 
ATOM     15  CD  PRO B   3      78.944 -26.316  52.822  1.00 18.06 LIG 0.13  C 
ATOM     16  C   PRO B   2      79.335 -24.174  54.090  1.00 13.99 LIG 0.24  C 
ATOM     17  CG  PRO B   3      78.771 -26.427  51.347  1.00 19.92 LIG 0.02  C 
ATOM     18  CB  PRO B   3      79.765 -25.498  50.745  1.00 18.17 LIG 0.04  C 
ATOM     19 O    PRO B   2      79.743 -23.006  54.085  1.00 12.71 LIG-0.27  OA
BRANCH 16 20
ATOM     20  CA  PRO B   2      78.701 -24.769  55.332  1.00 15.85 LIG 0.18  C 
ATOM     21  CB  PRO B   2      79.724 -25.627  56.095  1.00 19.12 LIG 0.04  C 
ATOM     22  CG  PRO B   2      79.069 -26.911  56.395  1.00 19.63 LIG 0.02  C 
ATOM     23  CD  PRO B   2      78.028 -27.097  55.358  1.00 18.19 LIG 0.13  C 
ATOM     24  N   PRO B   2      77.664 -25.722  54.977  1.00 15.71 LIG-0.34  N 
ATOM     25  C   ALA B   1      76.567 -25.312  54.353  1.00 13.25 LIG 0.24  C 
ATOM     26 O    ALA B   1      76.401 -24.144  54.006  1.00 13.75 LIG-0.27  OA
BRANCH 25 27
ATOM     27  CA  ALA B   1      75.524 -26.373  54.044  1.00 12.47 LIG 0.17  C 
ATOM     28  CB  ALA B   1      75.395 -26.551  52.554  1.00 12.30 LIG 0.04  C 
BRANCH 27 29
ATOM     29  N   ALA B   1      74.244 -26.000  54.619  1.00 12.31 LIG-0.35  N 
ATOM     30 H    ALA B   1      73.912 -25.269  54.311  1.00 12.31 LIG 0.16  HD
ATOM     31  C   ACE B   0      73.667 -26.750  55.541  1.00 14.04 LIG 0.21  C 
ATOM     32  CH3 ACE B   0      72.344 -26.275  56.059  1.00 14.78 LIG 0.12  C 
ATOM     33 O    ACE B   0      74.207 -27.779  55.948  1.00 15.52 LIG-0.27  OA
ENDBRANCH 27 29
ENDBRANCH 25 27
ENDBRANCH 16 20
ENDBRANCH 10 13
ENDBRANCH 8 9
BRANCH 8 34
ATOM     34  CB  LEU B   4      79.266 -19.519  51.609  1.00 12.59 LIG 0.04  C 
BRANCH 34 35
ATOM     35  CG  LEU B   4      78.355 -18.734  52.550  1.00 12.74 LIG-0.02  C 
ATOM     36  CD1 LEU B   4      79.196 -17.982  53.565  1.00 14.33 LIG 0.01  C 
ATOM     37  CD2 LEU B   4      77.445 -17.767  51.803  1.00 11.50 LIG 0.01  C 
ENDBRANCH 34 35
ENDBRANCH 8 34
ENDBRANCH 1 8
BRANCH 4 38
ATOM     38  C   PRO B   5      77.997 -19.327  46.912  1.00 12.26 LIG 0.24  C 
ATOM     39  N   PRO B   6      78.477 -19.367  45.674  1.00 14.33 LIG-0.34  N 
ATOM     40  CD  PRO B   6      78.593 -20.531  44.784  1.00 16.43 LIG 0.13  C 
ATOM     41  CA  PRO B   6      78.948 -18.136  45.035  1.00 15.63 LIG 0.18  C 
ATOM     42  CG  PRO B   6      79.593 -20.084  43.771  1.00 18.90 LIG 0.02  C 
ATOM     43  CB  PRO B   6      79.477 -18.613  43.676  1.00 17.20 LIG 0.04  C 
ATOM     44 O    PRO B   5      77.958 -18.266  47.553  1.00 12.24 LIG-0.27  OA
BRANCH 41 45
ATOM     45  C   PRO B   6      77.819 -17.136  44.845  1.00 14.54 LIG 0.24  C 
ATOM     46 O    PRO B   6      76.750 -17.457  44.318  1.00 15.72 LIG-0.27  OA
ATOM     47  N   ARG B   7      78.075 -15.907  45.266  1.00 15.59 LIG-0.35  N 
ATOM     48 H    ARG B   7      78.810 -15.673  45.649  1.00 15.59 LIG 0.16  HD
BRANCH 47 49
ATOM     49  CA  ARG B   7      77.105 -14.824  45.111  1.00 17.66 LIG 0.16  C 
BRANCH 49 50
ATOM     50  C   ARG B   7      76.926 -14.402  43.656  1.00 19.45 LIG 0.22  C 
ATOM     51 O    ARG B   7      76.040 -13.614  43.341  1.00 22.19 LIG-0.29  OA
ENDBRANCH 49 50
BRANCH 49 52
ATOM     52  CB  ARG B   7      77.518 -13.637  45.975  1.00 18.48 LIG 0.04  C 
BRANCH 52 53
ATOM     53  CG  ARG B   7      76.337 -13.012  46.683  1.00 19.62 LIG 0.02  C 
BRANCH 53 54
ATOM     54  CD  ARG B   7      76.085 -11.592  46.236  1.00 19.05 LIG 0.14  C 
BRANCH 54 55
ATOM     55  NE  ARG B   7      75.321 -10.868  47.244  1.00 16.94 LIG-0.23  N 
ATOM     56  CZ  ARG B   7      74.739  -9.686  47.060  1.00 14.04 LIG 0.67  C 
ATOM     57  NH1 ARG B   7      74.829  -9.050  45.903  1.00 13.87 LIG-0.23  N 
ATOM     58  NH2 ARG B   7      74.069  -9.131  48.055  1.00 14.07 LIG-0.23  N 
ATOM     59 2HH1 ARG B   7      74.447  -8.286  45.801  1.00 13.87 LIG 0.17  HD
ATOM     60 1HH1 ARG B   7      75.271  -9.400  45.254  1.00 13.87 LIG 0.17  HD
ATOM     61 1HH2 ARG B   7      74.013  -9.533  48.813  1.00 14.07 LIG 0.17  HD
ATOM     62 2HH2 ARG B   7      73.690  -8.368  47.944  1.00 14.07 LIG 0.17  HD
ATOM     63 HE   ARG B   7      75.241 -11.234  48.019  1.00 16.94 LIG 0.18  HD
ENDBRANCH 54 55
ENDBRANCH 53 54
ENDBRANCH 52 53
ENDBRANCH 49 52
ENDBRANCH 47 49
ENDBRANCH 41 45
ENDBRANCH 4 38
TORSDOF 16
ENDMDL
MODEL 6
USER: ADFR SOLUTION from run 128
USER: SCORE 16.613785 LL:  -4.915 LR: -13.031 RR:   0.000 FEB:  -8.258
USER: RMSD 5.388806
USER: SEED 127
USER: STATUS no improvement in best in 6 clusters for 5 generations
USER: GENES 18
USER: genes 0 Translation |==|  0.51801 0.54507 0.41296
USER: genes 1 Rotation |==|  0.70262 0.24722 0.73129 0.80258
USER: genes 2 Torsion [N]-C--CA-[N] |==|  0.45321
USER: genes 3 Torsion [C]-CA--N-[C] |==|  0.21624
USER: genes 4 Torsion [N]-C--CA-[N] |==|  0.95668
USER: genes 5 Torsion [N]-C--CA-[N] |==|  0.30713
USER: genes 6 Torsion [N]-C--CA-[N] |==|  0.83889
USER: genes 7 Torsion [C]-CA--N-[C] |==|  0.76794
USER: genes 8 Torsion [C]-CA--CB-[CG] |==|  0.37531
USER: genes 9 Torsion [CA]-CB--CG-[CD1] |==|  0.12588
USER: genes 10 Torsion [N]-CA--C-[N] |==|  0.30403
USER: genes 11 Torsion [N]-CA--C-[N] |==|  0.28819
USER: genes 12 Torsion [C]-N--CA-[C] |==|  0.83939
USER: genes 13 Torsion [N]-CA--C-[O] |==|  0.92337
USER: genes 14 Torsion [N]-CA--CB-[CG] |==|  0.21851
USER: genes 15 Torsion [CA]-CB--CG-[CD] |==|  0.80502
USER: genes 16 Torsion [CB]-CG--CD-[NE] |==|  0.32199
USER: genes 17 Torsion [CG]-CD--NE-[HE] |==|  0.63364
ROOT
ATOM      1  C   LEU B   4      78.840 -18.174  47.954  1.00 11.33 LIG 0.24  C 
ATOM      2 O    LEU B   4      79.415 -17.406  48.738  1.00 12.90 LIG-0.27  OA
ATOM      3  N   PRO B   5      78.769 -17.914  46.662  1.00 11.12 LIG-0.34  N 
ATOM      4  CA  PRO B   5      79.400 -16.735  46.127  1.00 12.55 LIG 0.18  C 
ATOM      5  CB  PRO B   5      79.498 -17.054  44.630  1.00 13.89 LIG 0.04  C 
ATOM      6  CG  PRO B   5      78.326 -17.919  44.370  1.00 12.43 LIG 0.02  C 
ATOM      7  CD  PRO B   5      78.101 -18.707  45.621  1.00 11.21 LIG 0.13  C 
ENDROOT
BRANCH 1 8
ATOM      8  CA  LEU B   4      78.210 -19.468  48.455  1.00 11.65 LIG 0.18  C 
BRANCH 8 9
ATOM      9  N   LEU B   4      78.724 -19.762  49.774  1.00 12.22 LIG-0.35  N 
ATOM     10  C   PRO B   3      78.251 -19.107  50.821  1.00 12.52 LIG 0.24  C 
ATOM     11 O    PRO B   3      77.458 -18.167  50.722  1.00 13.02 LIG-0.27  OA
ATOM     12 H    LEU B   4      79.332 -20.369  49.805  1.00 12.22 LIG 0.16  HD
BRANCH 10 13
ATOM     13  CA  PRO B   3      78.753 -19.578  52.176  1.00 15.46 LIG 0.18  C 
ATOM     14  N   PRO B   3      79.375 -20.899  52.053  1.00 15.16 LIG-0.34  N 
ATOM     15  CD  PRO B   3      80.814 -20.862  52.354  1.00 18.06 LIG 0.13  C 
ATOM     16  C   PRO B   2      78.652 -21.923  51.614  1.00 13.99 LIG 0.24  C 
ATOM     17  CG  PRO B   3      81.132 -19.409  52.281  1.00 19.92 LIG 0.02  C 
ATOM     18  CB  PRO B   3      79.893 -18.696  52.694  1.00 18.17 LIG 0.04  C 
ATOM     19 O    PRO B   2      77.441 -21.803  51.390  1.00 12.71 LIG-0.27  OA
BRANCH 16 20
ATOM     20  CA  PRO B   2      79.365 -23.233  51.339  1.00 15.85 LIG 0.18  C 
ATOM     21  CB  PRO B   2      78.888 -23.830  50.004  1.00 19.12 LIG 0.04  C 
ATOM     22  CG  PRO B   2      78.565 -25.244  50.257  1.00 19.63 LIG 0.02  C 
ATOM     23  CD  PRO B   2      78.219 -25.339  51.694  1.00 18.19 LIG 0.13  C 
ATOM     24  N   PRO B   2      78.985 -24.243  52.311  1.00 15.71 LIG-0.34  N 
ATOM     25  C   ALA B   1      79.303 -24.090  53.590  1.00 13.25 LIG 0.24  C 
ATOM     26 O    ALA B   1      79.877 -23.088  54.013  1.00 13.75 LIG-0.27  OA
BRANCH 25 27
ATOM     27  CA  ALA B   1      78.889 -25.208  54.533  1.00 12.47 LIG 0.17  C 
ATOM     28  CB  ALA B   1      79.604 -26.482  54.167  1.00 12.30 LIG 0.04  C 
BRANCH 27 29
ATOM     29  N   ALA B   1      77.452 -25.403  54.478  1.00 12.31 LIG-0.35  N 
ATOM     30 H    ALA B   1      77.195 -26.033  53.951  1.00 12.31 LIG 0.16  HD
ATOM     31  C   ACE B   0      76.634 -24.653  55.195  1.00 14.04 LIG 0.21  C 
ATOM     32  CH3 ACE B   0      75.170 -24.947  55.068  1.00 14.78 LIG 0.12  C 
ATOM     33 O    ACE B   0      77.070 -23.757  55.918  1.00 15.52 LIG-0.27  OA
ENDBRANCH 27 29
ENDBRANCH 25 27
ENDBRANCH 16 20
ENDBRANCH 10 13
ENDBRANCH 8 9
BRANCH 8 34
ATOM     34  CB  LEU B   4      76.690 -19.334  48.463  1.00 12.59 LIG 0.04  C 
BRANCH 34 35
ATOM     35  CG  LEU B   4      75.937 -20.533  47.891  1.00 12.74 LIG-0.02  C 
ATOM     36  CD1 LEU B   4      76.525 -21.817  48.443  1.00 14.33 LIG 0.01  C 
ATOM     37  CD2 LEU B   4      74.443 -20.471  48.183  1.00 11.50 LIG 0.01  C 
ENDBRANCH 34 35
ENDBRANCH 8 34
ENDBRANCH 1 8
BRANCH 4 38
ATOM     38  C   PRO B   5      78.541 -15.511  46.381  1.00 12.26 LIG 0.24  C 
ATOM     39  N   PRO B   6      78.976 -14.627  47.272  1.00 14.33 LIG-0.34  N 
ATOM     40  CD  PRO B   6      80.195 -14.691  48.090  1.00 16.43 LIG 0.13  C 
ATOM     41  CA  PRO B   6      78.215 -13.399  47.512  1.00 15.63 LIG 0.18  C 
ATOM     42  CG  PRO B   6      79.917 -13.718  49.187  1.00 18.90 LIG 0.02  C 
ATOM     43  CB  PRO B   6      78.994 -12.704  48.635  1.00 17.20 LIG 0.04  C 
ATOM     44 O    PRO B   5      77.484 -15.328  45.756  1.00 12.24 LIG-0.27  OA
BRANCH 41 45
ATOM     45  C   PRO B   6      78.169 -12.519  46.273  1.00 14.54 LIG 0.24  C 
ATOM     46 O    PRO B   6      79.133 -11.829  45.931  1.00 15.72 LIG-0.27  OA
ATOM     47  N   ARG B   7      77.022 -12.536  45.610  1.00 15.59 LIG-0.35  N 
ATOM     48 H    ARG B   7      76.347 -13.023  45.829  1.00 15.59 LIG 0.16  HD
BRANCH 47 49
ATOM     49  CA  ARG B   7      76.808 -11.708  44.424  1.00 17.66 LIG 0.16  C 
BRANCH 49 50
ATOM     50  C   ARG B   7      77.005 -10.221  44.704  1.00 19.45 LIG 0.22  C 
ATOM     51 O    ARG B   7      76.811  -9.767  45.826  1.00 22.19 LIG-0.29  OA
ENDBRANCH 49 50
BRANCH 49 52
ATOM     52  CB  ARG B   7      75.418 -11.974  43.856  1.00 18.48 LIG 0.04  C 
BRANCH 52 53
ATOM     53  CG  ARG B   7      74.338 -11.256  44.636  1.00 19.62 LIG 0.02  C 
BRANCH 53 54
ATOM     54  CD  ARG B   7      74.134 -11.847  46.010  1.00 19.05 LIG 0.14  C 
BRANCH 54 55
ATOM     55  NE  ARG B   7      74.479 -10.875  47.039  1.00 16.94 LIG-0.23  N 
ATOM     56  CZ  ARG B   7      74.065  -9.611  47.067  1.00 14.04 LIG 0.67  C 
ATOM     57  NH1 ARG B   7      73.290  -9.122  46.112  1.00 13.87 LIG-0.23  N 
ATOM     58  NH2 ARG B   7      74.446  -8.825  48.058  1.00 14.07 LIG-0.23  N 
ATOM     59 2HH1 ARG B   7      73.031  -8.302  46.145  1.00 13.87 LIG 0.17  HD
ATOM     60 1HH1 ARG B   7      73.045  -9.625  45.458  1.00 13.87 LIG 0.17  HD
ATOM     61 1HH2 ARG B   7      74.957  -9.132  48.678  1.00 14.07 LIG 0.17  HD
ATOM     62 2HH2 ARG B   7      74.183  -8.007  48.083  1.00 14.07 LIG 0.17  HD
ATOM     63 HE   ARG B   7      74.991 -11.139  47.679  1.00 16.94 LIG 0.18  HD
ENDBRANCH 54 55
ENDBRANCH 53 54
ENDBRANCH 52 53
ENDBRANCH 49 52
ENDBRANCH 47 49
ENDBRANCH 41 45
ENDBRANCH 4 38
TORSDOF 16
ENDMDL
MODEL 7
USER: ADFR SOLUTION from run 184
USER: SCORE 16.297114 LL:  -4.374 LR: -12.923 RR:   0.000 FEB:  -8.150
USER: RMSD 5.272252
USER: SEED 183
USER: STATUS no improvement in best in 15 clusters for 5 generations
USER: GENES 18
USER: genes 0 Translation |==|  0.52542 0.37455 0.55057
USER: genes 1 Rotation |==|  0.42321 0.67310 0.17721 0.83158
USER: genes 2 Torsion [N]-C--CA-[N] |==|  0.32437
USER: genes 3 Torsion [C]-CA--N-[C] |==|  0.60073
USER: genes 4 Torsion [N]-C--CA-[N] |==|  0.63122
USER: genes 5 Torsion [N]-C--CA-[N] |==|  0.82192
USER: genes 6 Torsion [N]-C--CA-[N] |==|  0.26302
USER: genes 7 Torsion [C]-CA--N-[C] |==|  0.52299
USER: genes 8 Torsion [C]-CA--CB-[CG] |==|  0.29017
USER: genes 9 Torsion [CA]-CB--CG-[CD1] |==|  0.79240
USER: genes 10 Torsion [N]-CA--C-[N] |==|  0.44907
USER: genes 11 Torsion [N]-CA--C-[N] |==|  0.50215
USER: genes 12 Torsion [C]-N--CA-[C] |==|  0.15435
USER: genes 13 Torsion [N]-CA--C-[O] |==|  0.06688
USER: genes 14 Torsion [N]-CA--CB-[CG] |==|  0.35686
USER: genes 15 Torsion [CA]-CB--CG-[CD] |==|  0.54264
USER: genes 16 Torsion [CB]-CG--CD-[NE] |==|  0.39745
USER: genes 17 Torsion [CG]-CD--NE-[HE] |==|  0.01236
ROOT
ATOM      1  C   LEU B   4      78.951 -22.267  51.669  1.00 11.33 LIG 0.24  C 
ATOM      2 O    LEU B   4      78.129 -23.017  51.125  1.00 12.90 LIG-0.27  OA
ATOM      3  N   PRO B   5      78.830 -20.954  51.612  1.00 11.12 LIG-0.34  N 
ATOM      4  CA  PRO B   5      77.703 -20.361  50.940  1.00 12.55 LIG 0.18  C 
ATOM      5  CB  PRO B   5      77.687 -18.934  51.501  1.00 13.89 LIG 0.04  C 
ATOM      6  CG  PRO B   5      79.110 -18.642  51.781  1.00 12.43 LIG 0.02  C 
ATOM      7  CD  PRO B   5      79.735 -19.943  52.178  1.00 11.21 LIG 0.13  C 
ENDROOT
BRANCH 1 8
ATOM      8  CA  LEU B   4      80.128 -22.840  52.449  1.00 11.65 LIG 0.18  C 
BRANCH 8 9
ATOM      9  N   LEU B   4      79.625 -23.606  53.567  1.00 12.22 LIG-0.35  N 
ATOM     10  C   PRO B   3      80.281 -23.594  54.716  1.00 12.52 LIG 0.24  C 
ATOM     11 O    PRO B   3      81.375 -23.041  54.857  1.00 13.02 LIG-0.27  OA
ATOM     12 H    LEU B   4      78.900 -24.043  53.417  1.00 12.22 LIG 0.16  HD
BRANCH 10 13
ATOM     13  CA  PRO B   3      79.604 -24.318  55.869  1.00 15.46 LIG 0.18  C 
ATOM     14  N   PRO B   3      79.622 -23.481  57.070  1.00 15.16 LIG-0.34  N 
ATOM     15  CD  PRO B   3      78.269 -23.086  57.489  1.00 18.06 LIG 0.13  C 
ATOM     16  C   PRO B   2      80.786 -23.096  57.583  1.00 13.99 LIG 0.24  C 
ATOM     17  CG  PRO B   3      77.448 -23.381  56.282  1.00 19.92 LIG 0.02  C 
ATOM     18  CB  PRO B   3      78.110 -24.528  55.604  1.00 18.17 LIG 0.04  C 
ATOM     19 O    PRO B   2      81.856 -23.503  57.114  1.00 12.71 LIG-0.27  OA
BRANCH 16 20
ATOM     20  CA  PRO B   2      80.768 -22.096  58.723  1.00 15.85 LIG 0.18  C 
ATOM     21  CB  PRO B   2      79.784 -22.549  59.814  1.00 19.12 LIG 0.04  C 
ATOM     22  CG  PRO B   2      78.944 -21.386  60.143  1.00 19.63 LIG 0.02  C 
ATOM     23  CD  PRO B   2      78.933 -20.527  58.936  1.00 18.19 LIG 0.13  C 
ATOM     24  N   PRO B   2      80.221 -20.824  58.286  1.00 15.71 LIG-0.34  N 
ATOM     25  C   ALA B   1      80.860 -20.100  57.376  1.00 13.25 LIG 0.24  C 
ATOM     26 O    ALA B   1      81.895 -20.484  56.833  1.00 13.75 LIG-0.27  OA
BRANCH 25 27
ATOM     27  CA  ALA B   1      80.229 -18.771  56.997  1.00 12.47 LIG 0.17  C 
ATOM     28  CB  ALA B   1      80.426 -18.506  55.528  1.00 12.30 LIG 0.04  C 
BRANCH 27 29
ATOM     29  N   ALA B   1      80.807 -17.698  57.785  1.00 12.31 LIG-0.35  N 
ATOM     30 H    ALA B   1      81.486 -17.928  58.261  1.00 12.31 LIG 0.16  HD
ATOM     31  C   ACE B   0      80.304 -16.476  57.747  1.00 14.04 LIG 0.21  C 
ATOM     32  CH3 ACE B   0      80.985 -15.445  58.595  1.00 14.78 LIG 0.12  C 
ATOM     33 O    ACE B   0      79.320 -16.220  57.054  1.00 15.52 LIG-0.27  OA
ENDBRANCH 27 29
ENDBRANCH 25 27
ENDBRANCH 16 20
ENDBRANCH 10 13
ENDBRANCH 8 9
BRANCH 8 34
ATOM     34  CB  LEU B   4      80.992 -23.696  51.526  1.00 12.59 LIG 0.04  C 
BRANCH 34 35
ATOM     35  CG  LEU B   4      82.302 -23.045  51.088  1.00 12.74 LIG-0.02  C 
ATOM     36  CD1 LEU B   4      82.021 -21.980  50.045  1.00 14.33 LIG 0.01  C 
ATOM     37  CD2 LEU B   4      83.070 -22.444  52.259  1.00 11.50 LIG 0.01  C 
ENDBRANCH 34 35
ENDBRANCH 8 34
ENDBRANCH 1 8
BRANCH 4 38
ATOM     38  C   PRO B   5      77.917 -20.367  49.438  1.00 12.26 LIG 0.24  C 
ATOM     39  N   PRO B   6      76.850 -20.209  48.663  1.00 14.33 LIG-0.34  N 
ATOM     40  CD  PRO B   6      75.447 -20.055  49.074  1.00 16.43 LIG 0.13  C 
ATOM     41  CA  PRO B   6      77.009 -20.147  47.208  1.00 15.63 LIG 0.18  C 
ATOM     42  CG  PRO B   6      74.693 -20.388  47.829  1.00 18.90 LIG 0.02  C 
ATOM     43  CB  PRO B   6      75.569 -20.036  46.691  1.00 17.20 LIG 0.04  C 
ATOM     44 O    PRO B   5      79.053 -20.486  48.953  1.00 12.24 LIG-0.27  OA
BRANCH 41 45
ATOM     45  C   PRO B   6      77.821 -18.933  46.785  1.00 14.54 LIG 0.24  C 
ATOM     46 O    PRO B   6      78.265 -18.131  47.610  1.00 15.72 LIG-0.27  OA
ATOM     47  N   ARG B   7      77.995 -18.798  45.479  1.00 15.59 LIG-0.35  N 
ATOM     48 H    ARG B   7      77.704 -19.358  44.894  1.00 15.59 LIG 0.16  HD
BRANCH 47 49
ATOM     49  CA  ARG B   7      78.715 -17.657  44.915  1.00 17.66 LIG 0.16  C 
BRANCH 49 50
ATOM     50  C   ARG B   7      80.118 -17.505  45.493  1.00 19.45 LIG 0.22  C 
ATOM     51 O    ARG B   7      80.703 -18.470  45.972  1.00 22.19 LIG-0.29  OA
ENDBRANCH 49 50
BRANCH 49 52
ATOM     52  CB  ARG B   7      77.902 -16.383  45.121  1.00 18.48 LIG 0.04  C 
BRANCH 52 53
ATOM     53  CG  ARG B   7      78.720 -15.285  45.763  1.00 19.62 LIG 0.02  C 
BRANCH 53 54
ATOM     54  CD  ARG B   7      77.858 -14.170  46.306  1.00 19.05 LIG 0.14  C 
BRANCH 54 55
ATOM     55  NE  ARG B   7      78.416 -13.655  47.550  1.00 16.94 LIG-0.23  N 
ATOM     56  CZ  ARG B   7      77.847 -12.729  48.318  1.00 14.04 LIG 0.67  C 
ATOM     57  NH1 ARG B   7      76.693 -12.175  47.983  1.00 13.87 LIG-0.23  N 
ATOM     58  NH2 ARG B   7      78.452 -12.346  49.427  1.00 14.07 LIG-0.23  N 
ATOM     59 2HH1 ARG B   7      76.339 -11.578  48.490  1.00 13.87 LIG 0.17  HD
ATOM     60 1HH1 ARG B   7      76.297 -12.413  47.257  1.00 13.87 LIG 0.17  HD
ATOM     61 1HH2 ARG B   7      79.207 -12.694  49.648  1.00 14.07 LIG 0.17  HD
ATOM     62 2HH2 ARG B   7      78.092 -11.748  49.929  1.00 14.07 LIG 0.17  HD
ATOM     63 HE   ARG B   7      79.172 -13.975  47.808  1.00 16.94 LIG 0.18  HD
ENDBRANCH 54 55
ENDBRANCH 53 54
ENDBRANCH 52 53
ENDBRANCH 49 52
ENDBRANCH 47 49
ENDBRANCH 41 45
ENDBRANCH 4 38
TORSDOF 16
ENDMDL
MODEL 8
USER: ADFR SOLUTION from run 190
USER: SCORE 17.342429 LL:  -4.503 LR: -12.895 RR:   0.000 FEB:  -8.123
USER: RMSD 3.130475
USER: SEED 189
USER: STATUS no improvement in best in 4 clusters for 5 generations
USER: GENES 18
USER: genes 0 Translation |==|  0.46455 0.46444 0.47206
USER: genes 1 Rotation |==|  0.50903 0.40496 0.54232 0.98897
USER: genes 2 Torsion [N]-C--CA-[N] |==|  0.39644
USER: genes 3 Torsion [C]-CA--N-[C] |==|  0.83332
USER: genes 4 Torsion [N]-C--CA-[N] |==|  0.48333
USER: genes 5 Torsion [N]-C--CA-[N] |==|  0.49279
USER: genes 6 Torsion [N]-C--CA-[N] |==|  0.39390
USER: genes 7 Torsion [C]-CA--N-[C] |==|  0.79115
USER: genes 8 Torsion [C]-CA--CB-[CG] |==|  0.75865
USER: genes 9 Torsion [CA]-CB--CG-[CD1] |==|  0.38352
USER: genes 10 Torsion [N]-CA--C-[N] |==|  0.49682
USER: genes 11 Torsion [N]-CA--C-[N] |==|  0.34924
USER: genes 12 Torsion [C]-N--CA-[C] |==|  0.77535
USER: genes 13 Torsion [N]-CA--C-[O] |==|  0.81999
USER: genes 14 Torsion [N]-CA--CB-[CG] |==|  0.58327
USER: genes 15 Torsion [CA]-CB--CG-[CD] |==|  0.65403
USER: genes 16 Torsion [CB]-CG--CD-[NE] |==|  0.58324
USER: genes 17 Torsion [CG]-CD--NE-[HE] |==|  0.09794
ROOT
ATOM      1  C   LEU B   4      78.038 -20.109  49.550  1.00 11.33 LIG 0.24  C 
ATOM      2 O    LEU B   4      79.218 -20.259  49.202  1.00 12.90 LIG-0.27  OA
ATOM      3  N   PRO B   5      77.050 -20.175  48.677  1.00 11.12 LIG-0.34  N 
ATOM      4  CA  PRO B   5      77.326 -20.464  47.293  1.00 12.55 LIG 0.18  C 
ATOM      5  CB  PRO B   5      75.958 -20.912  46.763  1.00 13.89 LIG 0.04  C 
ATOM      6  CG  PRO B   5      74.989 -20.151  47.581  1.00 12.43 LIG 0.02  C 
ATOM      7  CD  PRO B   5      75.614 -19.990  48.931  1.00 11.21 LIG 0.13  C 
ENDROOT
BRANCH 1 8
ATOM      8  CA  LEU B   4      77.683 -19.865  51.011  1.00 11.65 LIG 0.18  C 
BRANCH 8 9
ATOM      9  N   LEU B   4      78.573 -20.637  51.848  1.00 12.22 LIG-0.35  N 
ATOM     10  C   PRO B   3      78.602 -21.954  51.731  1.00 12.52 LIG 0.24  C 
ATOM     11 O    PRO B   3      77.820 -22.581  51.010  1.00 13.02 LIG-0.27  OA
ATOM     12 H    LEU B   4      79.052 -20.180  52.396  1.00 12.22 LIG 0.16  HD
BRANCH 10 13
ATOM     13  CA  PRO B   3      79.663 -22.667  52.554  1.00 15.46 LIG 0.18  C 
ATOM     14  N   PRO B   3      79.496 -24.118  52.446  1.00 15.16 LIG-0.34  N 
ATOM     15  CD  PRO B   3      80.637 -24.757  51.774  1.00 18.06 LIG 0.13  C 
ATOM     16  C   PRO B   2      78.360 -24.677  52.849  1.00 13.99 LIG 0.24  C 
ATOM     17  CG  PRO B   3      81.325 -23.608  51.123  1.00 19.92 LIG 0.02  C 
ATOM     18  CB  PRO B   3      81.068 -22.428  51.992  1.00 18.17 LIG 0.04  C 
ATOM     19 O    PRO B   2      77.474 -24.006  53.393  1.00 12.71 LIG-0.27  OA
BRANCH 16 20
ATOM     20  CA  PRO B   2      78.153 -26.154  52.569  1.00 15.85 LIG 0.18  C 
ATOM     21  CB  PRO B   2      77.980 -26.392  51.060  1.00 19.12 LIG 0.04  C 
ATOM     22  CG  PRO B   2      76.792 -27.245  50.894  1.00 19.63 LIG 0.02  C 
ATOM     23  CD  PRO B   2      75.936 -26.999  52.077  1.00 18.19 LIG 0.13  C 
ATOM     24  N   PRO B   2      76.894 -26.613  53.127  1.00 15.71 LIG-0.34  N 
ATOM     25  C   ALA B   1      76.707 -26.616  54.441  1.00 13.25 LIG 0.24  C 
ATOM     26 O    ALA B   1      77.551 -26.192  55.229  1.00 13.75 LIG-0.27  OA
BRANCH 25 27
ATOM     27  CA  ALA B   1      75.369 -27.138  54.937  1.00 12.47 LIG 0.17  C 
ATOM     28  CB  ALA B   1      74.426 -25.990  55.180  1.00 12.30 LIG 0.04  C 
BRANCH 27 29
ATOM     29  N   ALA B   1      75.551 -27.906  56.155  1.00 12.31 LIG-0.35  N 
ATOM     30 H    ALA B   1      75.306 -27.502  56.874  1.00 12.31 LIG 0.16  HD
ATOM     31  C   ACE B   0      76.056 -29.127  56.122  1.00 14.04 LIG 0.21  C 
ATOM     32  CH3 ACE B   0      76.192 -29.831  57.437  1.00 14.78 LIG 0.12  C 
ATOM     33 O    ACE B   0      76.400 -29.640  55.057  1.00 15.52 LIG-0.27  OA
ENDBRANCH 27 29
ENDBRANCH 25 27
ENDBRANCH 16 20
ENDBRANCH 10 13
ENDBRANCH 8 9
BRANCH 8 34
ATOM     34  CB  LEU B   4      77.774 -18.373  51.322  1.00 12.59 LIG 0.04  C 
BRANCH 34 35
ATOM     35  CG  LEU B   4      79.162 -17.886  51.731  1.00 12.74 LIG-0.02  C 
ATOM     36  CD1 LEU B   4      79.456 -16.557  51.061  1.00 14.33 LIG 0.01  C 
ATOM     37  CD2 LEU B   4      79.308 -17.756  53.242  1.00 11.50 LIG 0.01  C 
ENDBRANCH 34 35
ENDBRANCH 8 34
ENDBRANCH 1 8
BRANCH 4 38
ATOM     38  C   PRO B   5      77.821 -19.221  46.580  1.00 12.26 LIG 0.24  C 
ATOM     39  N   PRO B   6      78.141 -19.334  45.295  1.00 14.33 LIG-0.34  N 
ATOM     40  CD  PRO B   6      78.108 -20.541  44.457  1.00 16.43 LIG 0.13  C 
ATOM     41  CA  PRO B   6      78.567 -18.152  44.543  1.00 15.63 LIG 0.18  C 
ATOM     42  CG  PRO B   6      78.987 -20.177  43.308  1.00 18.90 LIG 0.02  C 
ATOM     43  CB  PRO B   6      78.907 -18.709  43.155  1.00 17.20 LIG 0.04  C 
ATOM     44 O    PRO B   5      77.895 -18.131  47.168  1.00 12.24 LIG-0.27  OA
BRANCH 41 45
ATOM     45  C   PRO B   6      77.454 -17.121  44.445  1.00 14.54 LIG 0.24  C 
ATOM     46 O    PRO B   6      76.344 -17.405  43.988  1.00 15.72 LIG-0.27  OA
ATOM     47  N   ARG B   7      77.772 -15.905  44.864  1.00 15.59 LIG-0.35  N 
ATOM     48 H    ARG B   7      78.537 -15.696  45.199  1.00 15.59 LIG 0.16  HD
BRANCH 47 49
ATOM     49  CA  ARG B   7      76.824 -14.795  44.791  1.00 17.66 LIG 0.16  C 
BRANCH 49 50
ATOM     50  C   ARG B   7      76.759 -14.170  43.401  1.00 19.45 LIG 0.22  C 
ATOM     51 O    ARG B   7      77.735 -13.598  42.928  1.00 22.19 LIG-0.29  OA
ENDBRANCH 49 50
BRANCH 49 52
ATOM     52  CB  ARG B   7      77.176 -13.747  45.841  1.00 18.48 LIG 0.04  C 
BRANCH 52 53
ATOM     53  CG  ARG B   7      75.955 -13.000  46.330  1.00 19.62 LIG 0.02  C 
BRANCH 53 54
ATOM     54  CD  ARG B   7      76.094 -11.505  46.171  1.00 19.05 LIG 0.14  C 
BRANCH 54 55
ATOM     55  NE  ARG B   7      75.339 -10.810  47.204  1.00 16.94 LIG-0.23  N 
ATOM     56  CZ  ARG B   7      74.697  -9.656  47.037  1.00 14.04 LIG 0.67  C 
ATOM     57  NH1 ARG B   7      74.714  -9.024  45.874  1.00 13.87 LIG-0.23  N 
ATOM     58  NH2 ARG B   7      74.042  -9.125  48.054  1.00 14.07 LIG-0.23  N 
ATOM     59 2HH1 ARG B   7      74.293  -8.279  45.783  1.00 13.87 LIG 0.17  HD
ATOM     60 1HH1 ARG B   7      75.145  -9.358  45.210  1.00 13.87 LIG 0.17  HD
ATOM     61 1HH2 ARG B   7      74.033  -9.525  48.816  1.00 14.07 LIG 0.17  HD
ATOM     62 2HH2 ARG B   7      73.625  -8.381  47.955  1.00 14.07 LIG 0.17  HD
ATOM     63 HE   ARG B   7      75.305 -11.174  47.983  1.00 16.94 LIG 0.18  HD
ENDBRANCH 54 55
ENDBRANCH 53 54
ENDBRANCH 52 53
ENDBRANCH 49 52
ENDBRANCH 47 49
ENDBRANCH 41 45
ENDBRANCH 4 38
TORSDOF 16
ENDMDL
MODEL 9
USER: ADFR SOLUTION from run 146
USER: SCORE 17.327735 LL:  -4.592 LR: -12.887 RR:   0.000 FEB:  -8.114
USER: RMSD 3.319669
USER: SEED 145
USER: STATUS no improvement in best in 4 clusters for 5 generations
USER: GENES 18
USER: genes 0 Translation |==|  0.59078 0.47577 0.48280
USER: genes 1 Rotation |==|  0.62316 0.37392 0.54737 0.96550
USER: genes 2 Torsion [N]-C--CA-[N] |==|  0.30556
USER: genes 3 Torsion [C]-CA--N-[C] |==|  0.74910
USER: genes 4 Torsion [N]-C--CA-[N] |==|  0.31624
USER: genes 5 Torsion [N]-C--CA-[N] |==|  0.50638
USER: genes 6 Torsion [N]-C--CA-[N] |==|  0.39176
USER: genes 7 Torsion [C]-CA--N-[C] |==|  0.82620
USER: genes 8 Torsion [C]-CA--CB-[CG] |==|  0.23826
USER: genes 9 Torsion [CA]-CB--CG-[CD1] |==|  0.06306
USER: genes 10 Torsion [N]-CA--C-[N] |==|  0.50228
USER: genes 11 Torsion [N]-CA--C-[N] |==|  0.45965
USER: genes 12 Torsion [C]-N--CA-[C] |==|  0.21472
USER: genes 13 Torsion [N]-CA--C-[O] |==|  0.06375
USER: genes 14 Torsion [N]-CA--CB-[CG] |==|  0.55724
USER: genes 15 Torsion [CA]-CB--CG-[CD] |==|  0.67191
USER: genes 16 Torsion [CB]-CG--CD-[NE] |==|  0.33521
USER: genes 17 Torsion [CG]-CD--NE-[HE] |==|  0.73718
ROOT
ATOM      1  C   LEU B   4      79.932 -19.838  49.840  1.00 11.33 LIG 0.24  C 
ATOM      2 O    LEU B   4      81.143 -19.714  49.611  1.00 12.90 LIG-0.27  OA
ATOM      3  N   PRO B   5      79.027 -19.591  48.911  1.00 11.12 LIG-0.34  N 
ATOM      4  CA  PRO B   5      79.438 -19.206  47.585  1.00 12.55 LIG 0.18  C 
ATOM      5  CB  PRO B   5      78.183 -19.485  46.749  1.00 13.89 LIG 0.04  C 
ATOM      6  CG  PRO B   5      77.065 -19.256  47.690  1.00 12.43 LIG 0.02  C 
ATOM      7  CD  PRO B   5      77.564 -19.663  49.041  1.00 11.21 LIG 0.13  C 
ENDROOT
BRANCH 1 8
ATOM      8  CA  LEU B   4      79.442 -20.304  51.205  1.00 11.65 LIG 0.18  C 
BRANCH 8 9
ATOM      9  N   LEU B   4      79.802 -21.692  51.386  1.00 12.22 LIG-0.35  N 
ATOM     10  C   PRO B   3      78.961 -22.640  51.005  1.00 12.52 LIG 0.24  C 
ATOM     11 O    PRO B   3      77.821 -22.401  50.596  1.00 13.02 LIG-0.27  OA
ATOM     12 H    LEU B   4      80.571 -21.830  51.744  1.00 12.22 LIG 0.16  HD
BRANCH 10 13
ATOM     13  CA  PRO B   3      79.481 -24.064  51.110  1.00 15.46 LIG 0.18  C 
ATOM     14  N   PRO B   3      78.725 -24.805  52.123  1.00 15.16 LIG-0.34  N 
ATOM     15  CD  PRO B   3      77.954 -25.911  51.537  1.00 18.06 LIG 0.13  C 
ATOM     16  C   PRO B   2      78.726 -24.379  53.381  1.00 13.99 LIG 0.24  C 
ATOM     17  CG  PRO B   3      77.950 -25.581  50.085  1.00 19.92 LIG 0.02  C 
ATOM     18  CB  PRO B   3      79.223 -24.856  49.825  1.00 18.17 LIG 0.04  C 
ATOM     19 O    PRO B   2      79.423 -23.418  53.731  1.00 12.71 LIG-0.27  OA
BRANCH 16 20
ATOM     20  CA  PRO B   2      77.802 -25.066  54.368  1.00 15.85 LIG 0.18  C 
ATOM     21  CB  PRO B   2      76.334 -24.845  53.968  1.00 19.12 LIG 0.04  C 
ATOM     22  CG  PRO B   2      75.621 -24.406  55.179  1.00 19.63 LIG 0.02  C 
ATOM     23  CD  PRO B   2      76.634 -23.767  56.049  1.00 18.19 LIG 0.13  C 
ATOM     24  N   PRO B   2      77.889 -24.443  55.677  1.00 15.71 LIG-0.34  N 
ATOM     25  C   ALA B   1      79.020 -24.499  56.368  1.00 13.25 LIG 0.24  C 
ATOM     26 O    ALA B   1      80.041 -25.023  55.925  1.00 13.75 LIG-0.27  OA
BRANCH 25 27
ATOM     27  CA  ALA B   1      79.013 -23.844  57.739  1.00 12.47 LIG 0.17  C 
ATOM     28  CB  ALA B   1      79.590 -22.455  57.649  1.00 12.30 LIG 0.04  C 
BRANCH 27 29
ATOM     29  N   ALA B   1      79.771 -24.644  58.682  1.00 12.31 LIG-0.35  N 
ATOM     30 H    ALA B   1      80.463 -24.253  59.011  1.00 12.31 LIG 0.16  HD
ATOM     31  C   ACE B   0      79.397 -25.874  58.988  1.00 14.04 LIG 0.21  C 
ATOM     32  CH3 ACE B   0      80.250 -26.607  59.979  1.00 14.78 LIG 0.12  C 
ATOM     33 O    ACE B   0      78.403 -26.380  58.467  1.00 15.52 LIG-0.27  OA
ENDBRANCH 27 29
ENDBRANCH 25 27
ENDBRANCH 16 20
ENDBRANCH 10 13
ENDBRANCH 8 9
BRANCH 8 34
ATOM     34  CB  LEU B   4      80.041 -19.422  52.298  1.00 12.59 LIG 0.04  C 
BRANCH 34 35
ATOM     35  CG  LEU B   4      79.261 -18.143  52.590  1.00 12.74 LIG-0.02  C 
ATOM     36  CD1 LEU B   4      77.820 -18.309  52.145  1.00 14.33 LIG 0.01  C 
ATOM     37  CD2 LEU B   4      79.314 -17.756  54.063  1.00 11.50 LIG 0.01  C 
ENDBRANCH 34 35
ENDBRANCH 8 34
ENDBRANCH 1 8
BRANCH 4 38
ATOM     38  C   PRO B   5      79.815 -17.737  47.552  1.00 12.26 LIG 0.24  C 
ATOM     39  N   PRO B   6      80.201 -17.227  46.389  1.00 14.33 LIG-0.34  N 
ATOM     40  CD  PRO B   6      80.346 -17.918  45.100  1.00 16.43 LIG 0.13  C 
ATOM     41  CA  PRO B   6      80.519 -15.801  46.288  1.00 15.63 LIG 0.18  C 
ATOM     42  CG  PRO B   6      81.226 -16.999  44.320  1.00 18.90 LIG 0.02  C 
ATOM     43  CB  PRO B   6      80.981 -15.634  44.835  1.00 17.20 LIG 0.04  C 
ATOM     44 O    PRO B   5      79.736 -17.032  48.570  1.00 12.24 LIG-0.27  OA
BRANCH 41 45
ATOM     45  C   PRO B   6      79.299 -14.935  46.560  1.00 14.54 LIG 0.24  C 
ATOM     46 O    PRO B   6      78.157 -15.402  46.552  1.00 15.72 LIG-0.27  OA
ATOM     47  N   ARG B   7      79.553 -13.654  46.786  1.00 15.59 LIG-0.35  N 
ATOM     48 H    ARG B   7      80.345 -13.319  46.809  1.00 15.59 LIG 0.16  HD
BRANCH 47 49
ATOM     49  CA  ARG B   7      78.481 -12.688  47.018  1.00 17.66 LIG 0.16  C 
BRANCH 49 50
ATOM     50  C   ARG B   7      77.908 -12.777  48.429  1.00 19.45 LIG 0.22  C 
ATOM     51 O    ARG B   7      78.570 -13.257  49.342  1.00 22.19 LIG-0.29  OA
ENDBRANCH 49 50
BRANCH 49 52
ATOM     52  CB  ARG B   7      77.386 -12.875  45.974  1.00 18.48 LIG 0.04  C 
BRANCH 52 53
ATOM     53  CG  ARG B   7      76.520 -11.642  45.832  1.00 19.62 LIG 0.02  C 
BRANCH 53 54
ATOM     54  CD  ARG B   7      75.077 -11.911  46.188  1.00 19.05 LIG 0.14  C 
BRANCH 54 55
ATOM     55  NE  ARG B   7      74.656 -11.052  47.287  1.00 16.94 LIG-0.23  N 
ATOM     56  CZ  ARG B   7      74.199  -9.809  47.155  1.00 14.04 LIG 0.67  C 
ATOM     57  NH1 ARG B   7      74.106  -9.236  45.966  1.00 13.87 LIG-0.23  N 
ATOM     58  NH2 ARG B   7      73.845  -9.131  48.232  1.00 14.07 LIG-0.23  N 
ATOM     59 2HH1 ARG B   7      73.808  -8.431  45.898  1.00 13.87 LIG 0.17  HD
ATOM     60 1HH1 ARG B   7      74.343  -9.667  45.261  1.00 13.87 LIG 0.17  HD
ATOM     61 1HH2 ARG B   7      73.911  -9.492  49.009  1.00 14.07 LIG 0.17  HD
ATOM     62 2HH2 ARG B   7      73.548  -8.328  48.155  1.00 14.07 LIG 0.17  HD
ATOM     63 HE   ARG B   7      74.707 -11.373  48.084  1.00 16.94 LIG 0.18  HD
ENDBRANCH 54 55
ENDBRANCH 53 54
ENDBRANCH 52 53
ENDBRANCH 49 52
ENDBRANCH 47 49
ENDBRANCH 41 45
ENDBRANCH 4 38
TORSDOF 16
ENDMDL
MODEL 10
USER: ADFR SOLUTION from run 45
USER: SCORE 17.813031 LL:  -5.171 LR: -12.895 RR:   0.000 FEB:  -8.122
USER: RMSD 5.187424
USER: SEED 44
USER: STATUS no improvement in best in 6 clusters for 5 generations
USER: GENES 18
USER: genes 0 Translation |==|  0.60570 0.54467 0.52192
USER: genes 1 Rotation |==|  0.66983 0.18953 0.74209 0.75721
USER: genes 2 Torsion [N]-C--CA-[N] |==|  0.37896
USER: genes 3 Torsion [C]-CA--N-[C] |==|  0.74444
USER: genes 4 Torsion [N]-C--CA-[N] |==|  0.32857
USER: genes 5 Torsion [N]-C--CA-[N] |==|  0.46549
USER: genes 6 Torsion [N]-C--CA-[N] |==|  0.34528
USER: genes 7 Torsion [C]-CA--N-[C] |==|  0.80137
USER: genes 8 Torsion [C]-CA--CB-[CG] |==|  0.39155
USER: genes 9 Torsion [CA]-CB--CG-[CD1] |==|  0.76431
USER: genes 10 Torsion [N]-CA--C-[N] |==|  0.54847
USER: genes 11 Torsion [N]-CA--C-[N] |==|  0.92699
USER: genes 12 Torsion [C]-N--CA-[C] |==|  0.52192
USER: genes 13 Torsion [N]-CA--C-[O] |==|  0.19350
USER: genes 14 Torsion [N]-CA--CB-[CG] |==|  0.68079
USER: genes 15 Torsion [CA]-CB--CG-[CD] |==|  0.40531
USER: genes 16 Torsion [CB]-CG--CD-[NE] |==|  0.62187
USER: genes 17 Torsion [CG]-CD--NE-[HE] |==|  0.08944
ROOT
ATOM      1  C   LEU B   4      80.156 -18.184  50.896  1.00 11.33 LIG 0.24  C 
ATOM      2 O    LEU B   4      80.489 -17.509  51.880  1.00 12.90 LIG-0.27  OA
ATOM      3  N   PRO B   5      80.495 -17.829  49.671  1.00 11.12 LIG-0.34  N 
ATOM      4  CA  PRO B   5      81.303 -16.657  49.455  1.00 12.55 LIG 0.18  C 
ATOM      5  CB  PRO B   5      81.845 -16.876  48.037  1.00 13.89 LIG 0.04  C 
ATOM      6  CG  PRO B   5      80.778 -17.646  47.360  1.00 12.43 LIG 0.02  C 
ATOM      7  CD  PRO B   5      80.150 -18.505  48.412  1.00 11.21 LIG 0.13  C 
ENDROOT
BRANCH 1 8
ATOM      8  CA  LEU B   4      79.355 -19.468  51.069  1.00 11.65 LIG 0.18  C 
BRANCH 8 9
ATOM      9  N   LEU B   4      79.896 -20.214  52.183  1.00 12.22 LIG-0.35  N 
ATOM     10  C   PRO B   3      80.832 -21.124  51.968  1.00 12.52 LIG 0.24  C 
ATOM     11 O    PRO B   3      81.199 -21.454  50.837  1.00 13.02 LIG-0.27  OA
ATOM     12 H    LEU B   4      79.567 -20.017  52.953  1.00 12.22 LIG 0.16  HD
BRANCH 10 13
ATOM     13  CA  PRO B   3      81.433 -21.758  53.212  1.00 15.46 LIG 0.18  C 
ATOM     14  N   PRO B   3      81.173 -23.199  53.220  1.00 15.16 LIG-0.34  N 
ATOM     15  CD  PRO B   3      82.412 -23.985  53.115  1.00 18.06 LIG 0.13  C 
ATOM     16  C   PRO B   2      79.919 -23.638  53.222  1.00 13.99 LIG 0.24  C 
ATOM     17  CG  PRO B   3      83.405 -22.979  52.645  1.00 19.92 LIG 0.02  C 
ATOM     18  CB  PRO B   3      82.963 -21.674  53.205  1.00 18.17 LIG 0.04  C 
ATOM     19 O    PRO B   2      78.967 -22.852  53.304  1.00 12.71 LIG-0.27  OA
BRANCH 16 20
ATOM     20  CA  PRO B   2      79.683 -25.127  53.061  1.00 15.85 LIG 0.18  C 
ATOM     21  CB  PRO B   2      79.823 -25.533  51.584  1.00 19.12 LIG 0.04  C 
ATOM     22  CG  PRO B   2      78.646 -26.353  51.252  1.00 19.63 LIG 0.02  C 
ATOM     23  CD  PRO B   2      77.574 -25.936  52.184  1.00 18.19 LIG 0.13  C 
ATOM     24  N   PRO B   2      78.307 -25.469  53.372  1.00 15.71 LIG-0.34  N 
ATOM     25  C   ALA B   1      77.843 -25.311  54.606  1.00 13.25 LIG 0.24  C 
ATOM     26 O    ALA B   1      78.523 -24.831  55.511  1.00 13.75 LIG-0.27  OA
BRANCH 25 27
ATOM     27  CA  ALA B   1      76.400 -25.718  54.848  1.00 12.47 LIG 0.17  C 
ATOM     28  CB  ALA B   1      75.570 -24.505  55.179  1.00 12.30 LIG 0.04  C 
BRANCH 27 29
ATOM     29  N   ALA B   1      76.326 -26.688  55.924  1.00 12.31 LIG-0.35  N 
ATOM     30 H    ALA B   1      75.988 -26.388  56.656  1.00 12.31 LIG 0.16  HD
ATOM     31  C   ACE B   0      76.753 -27.927  55.756  1.00 14.04 LIG 0.21  C 
ATOM     32  CH3 ACE B   0      76.622 -28.847  56.932  1.00 14.78 LIG 0.12  C 
ATOM     33 O    ACE B   0      77.241 -28.287  54.685  1.00 15.52 LIG-0.27  OA
ENDBRANCH 27 29
ENDBRANCH 25 27
ENDBRANCH 16 20
ENDBRANCH 10 13
ENDBRANCH 8 9
BRANCH 8 34
ATOM     34  CB  LEU B   4      77.880 -19.134  51.281  1.00 12.59 LIG 0.04  C 
BRANCH 34 35
ATOM     35  CG  LEU B   4      76.902 -20.078  50.584  1.00 12.74 LIG-0.02  C 
ATOM     36  CD1 LEU B   4      76.695 -19.631  49.150  1.00 14.33 LIG 0.01  C 
ATOM     37  CD2 LEU B   4      77.370 -21.527  50.622  1.00 11.50 LIG 0.01  C 
ENDBRANCH 34 35
ENDBRANCH 8 34
ENDBRANCH 1 8
BRANCH 4 38
ATOM     38  C   PRO B   5      80.453 -15.404  49.540  1.00 12.26 LIG 0.24  C 
ATOM     39  N   PRO B   6      80.951 -14.285  49.025  1.00 14.33 LIG-0.34  N 
ATOM     40  CD  PRO B   6      82.264 -14.085  48.394  1.00 16.43 LIG 0.13  C 
ATOM     41  CA  PRO B   6      80.148 -13.060  49.027  1.00 15.63 LIG 0.18  C 
ATOM     42  CG  PRO B   6      82.442 -12.604  48.450  1.00 18.90 LIG 0.02  C 
ATOM     43  CB  PRO B   6      81.089 -12.009  48.427  1.00 17.20 LIG 0.04  C 
ATOM     44 O    PRO B   5      79.320 -15.430  50.046  1.00 12.24 LIG-0.27  OA
BRANCH 41 45
ATOM     45  C   PRO B   6      78.900 -13.209  48.170  1.00 14.54 LIG 0.24  C 
ATOM     46 O    PRO B   6      77.878 -12.556  48.396  1.00 15.72 LIG-0.27  OA
ATOM     47  N   ARG B   7      78.990 -14.094  47.189  1.00 15.59 LIG-0.35  N 
ATOM     48 H    ARG B   7      79.702 -14.545  47.012  1.00 15.59 LIG 0.16  HD
BRANCH 47 49
ATOM     49  CA  ARG B   7      77.860 -14.382  46.309  1.00 17.66 LIG 0.16  C 
BRANCH 49 50
ATOM     50  C   ARG B   7      78.124 -15.563  45.381  1.00 19.45 LIG 0.22  C 
ATOM     51 O    ARG B   7      78.195 -16.703  45.827  1.00 22.19 LIG-0.29  OA
ENDBRANCH 49 50
BRANCH 49 52
ATOM     52  CB  ARG B   7      77.500 -13.134  45.510  1.00 18.48 LIG 0.04  C 
BRANCH 52 53
ATOM     53  CG  ARG B   7      76.125 -12.610  45.863  1.00 19.62 LIG 0.02  C 
BRANCH 53 54
ATOM     54  CD  ARG B   7      76.049 -11.104  45.793  1.00 19.05 LIG 0.14  C 
BRANCH 54 55
ATOM     55  NE  ARG B   7      75.332 -10.576  46.946  1.00 16.94 LIG-0.23  N 
ATOM     56  CZ  ARG B   7      74.576  -9.481  46.941  1.00 14.04 LIG 0.67  C 
ATOM     57  NH1 ARG B   7      74.429  -8.754  45.845  1.00 13.87 LIG-0.23  N 
ATOM     58  NH2 ARG B   7      73.972  -9.104  48.054  1.00 14.07 LIG-0.23  N 
ATOM     59 2HH1 ARG B   7      73.937  -8.049  45.859  1.00 13.87 LIG 0.17  HD
ATOM     60 1HH1 ARG B   7      74.826  -8.987  45.118  1.00 13.87 LIG 0.17  HD
ATOM     61 1HH2 ARG B   7      74.070  -9.565  48.774  1.00 14.07 LIG 0.17  HD
ATOM     62 2HH2 ARG B   7      73.482  -8.398  48.060  1.00 14.07 LIG 0.17  HD
ATOM     63 HE   ARG B   7      75.403 -11.006  47.688  1.00 16.94 LIG 0.18  HD
ENDBRANCH 54 55
ENDBRANCH 53 54
ENDBRANCH 52 53
ENDBRANCH 49 52
ENDBRANCH 47 49
ENDBRANCH 41 45
ENDBRANCH 4 38
TORSDOF 16
ENDMDL
MODEL 11
USER: ADFR SOLUTION from run 16
USER: SCORE 17.710197 LL:  -4.856 LR: -12.890 RR:   0.000 FEB:  -8.117
USER: RMSD 4.287980
USER: SEED 382335
USER: STATUS no improvement in best in 15 clusters for 5 generations
USER: GENES 18
USER: genes 0 Translation |==|  0.46904 0.42946 0.44212
USER: genes 1 Rotation |==|  0.45860 0.52361 0.42982 0.99275
USER: genes 2 Torsion [N]-C--CA-[N] |==|  0.41091
USER: genes 3 Torsion [C]-CA--N-[C] |==|  0.83142
USER: genes 4 Torsion [N]-C--CA-[N] |==|  0.39422
USER: genes 5 Torsion [N]-C--CA-[N] |==|  0.46831
USER: genes 6 Torsion [N]-C--CA-[N] |==|  0.39683
USER: genes 7 Torsion [C]-CA--N-[C] |==|  0.80590
USER: genes 8 Torsion [C]-CA--CB-[CG] |==|  0.31608
USER: genes 9 Torsion [CA]-CB--CG-[CD1] |==|  0.07340
USER: genes 10 Torsion [N]-CA--C-[N] |==|  0.39186
USER: genes 11 Torsion [N]-CA--C-[N] |==|  0.81040
USER: genes 12 Torsion [C]-N--CA-[C] |==|  0.85836
USER: genes 13 Torsion [N]-CA--C-[O] |==|  0.55491
USER: genes 14 Torsion [N]-CA--CB-[CG] |==|  0.76280
USER: genes 15 Torsion [CA]-CB--CG-[CD] |==|  0.21813
USER: genes 16 Torsion [CB]-CG--CD-[NE] |==|  0.09631
USER: genes 17 Torsion [CG]-CD--NE-[HE] |==|  0.84554
ROOT
ATOM      1  C   LEU B   4      78.106 -20.949  48.741  1.00 11.33 LIG 0.24  C 
ATOM      2 O    LEU B   4      78.808 -21.657  48.005  1.00 12.90 LIG-0.27  OA
ATOM      3  N   PRO B   5      76.897 -20.565  48.378  1.00 11.12 LIG-0.34  N 
ATOM      4  CA  PRO B   5      76.348 -20.999  47.119  1.00 12.55 LIG 0.18  C 
ATOM      5  CB  PRO B   5      74.845 -20.757  47.304  1.00 13.89 LIG 0.04  C 
ATOM      6  CG  PRO B   5      74.778 -19.596  48.218  1.00 12.43 LIG 0.02  C 
ATOM      7  CD  PRO B   5      75.965 -19.706  49.123  1.00 11.21 LIG 0.13  C 
ENDROOT
BRANCH 1 8
ATOM      8  CA  LEU B   4      78.610 -20.512  50.111  1.00 11.65 LIG 0.18  C 
BRANCH 8 9
ATOM      9  N   LEU B   4      79.483 -21.536  50.640  1.00 12.22 LIG-0.35  N 
ATOM     10  C   PRO B   3      79.012 -22.755  50.846  1.00 12.52 LIG 0.24  C 
ATOM     11 O    PRO B   3      77.820 -23.045  50.712  1.00 13.02 LIG-0.27  OA
ATOM     12 H    LEU B   4      80.291 -21.286  50.796  1.00 12.22 LIG 0.16  HD
BRANCH 10 13
ATOM     13  CA  PRO B   3      80.036 -23.794  51.274  1.00 15.46 LIG 0.18  C 
ATOM     14  N   PRO B   3      79.454 -24.696  52.270  1.00 15.16 LIG-0.34  N 
ATOM     15  CD  PRO B   3      79.349 -26.076  51.772  1.00 18.06 LIG 0.13  C 
ATOM     16  C   PRO B   2      79.010 -24.202  53.421  1.00 13.99 LIG 0.24  C 
ATOM     17  CG  PRO B   3      79.520 -25.912  50.302  1.00 19.92 LIG 0.02  C 
ATOM     18  CB  PRO B   3      80.406 -24.731  50.120  1.00 18.17 LIG 0.04  C 
ATOM     19 O    PRO B   2      79.159 -23.006  53.703  1.00 12.71 LIG-0.27  OA
BRANCH 16 20
ATOM     20  CA  PRO B   2      78.263 -25.132  54.357  1.00 15.85 LIG 0.18  C 
ATOM     21  CB  PRO B   2      76.821 -25.339  53.865  1.00 19.12 LIG 0.04  C 
ATOM     22  CG  PRO B   2      75.939 -25.131  55.025  1.00 19.63 LIG 0.02  C 
ATOM     23  CD  PRO B   2      76.671 -24.234  55.948  1.00 18.19 LIG 0.13  C 
ATOM     24  N   PRO B   2      78.087 -24.519  55.662  1.00 15.71 LIG-0.34  N 
ATOM     25  C   ALA B   1      79.142 -24.253  56.422  1.00 13.25 LIG 0.24  C 
ATOM     26 O    ALA B   1      80.295 -24.459  56.047  1.00 13.75 LIG-0.27  OA
BRANCH 25 27
ATOM     27  CA  ALA B   1      78.862 -23.636  57.782  1.00 12.47 LIG 0.17  C 
ATOM     28  CB  ALA B   1      78.978 -22.137  57.702  1.00 12.30 LIG 0.04  C 
BRANCH 27 29
ATOM     29  N   ALA B   1      79.786 -24.161  58.770  1.00 12.31 LIG-0.35  N 
ATOM     30 H    ALA B   1      80.368 -23.594  59.054  1.00 12.31 LIG 0.16  HD
ATOM     31  C   ACE B   0      79.709 -25.415  59.178  1.00 14.04 LIG 0.21  C 
ATOM     32  CH3 ACE B   0      80.709 -25.848  60.207  1.00 14.78 LIG 0.12  C 
ATOM     33 O    ACE B   0      78.859 -26.177  58.718  1.00 15.52 LIG-0.27  OA
ENDBRANCH 27 29
ENDBRANCH 25 27
ENDBRANCH 16 20
ENDBRANCH 10 13
ENDBRANCH 8 9
BRANCH 8 34
ATOM     34  CB  LEU B   4      79.325 -19.169  49.995  1.00 12.59 LIG 0.04  C 
BRANCH 34 35
ATOM     35  CG  LEU B   4      78.633 -18.009  50.707  1.00 12.74 LIG-0.02  C 
ATOM     36  CD1 LEU B   4      77.799 -18.540  51.858  1.00 14.33 LIG 0.01  C 
ATOM     37  CD2 LEU B   4      79.622 -16.966  51.212  1.00 11.50 LIG 0.01  C 
ENDBRANCH 34 35
ENDBRANCH 8 34
ENDBRANCH 1 8
BRANCH 4 38
ATOM     38  C   PRO B   5      76.911 -20.171  45.980  1.00 12.26 LIG 0.24  C 
ATOM     39  N   PRO B   6      77.196 -20.797  44.844  1.00 14.33 LIG-0.34  N 
ATOM     40  CD  PRO B   6      77.065 -22.230  44.544  1.00 16.43 LIG 0.13  C 
ATOM     41  CA  PRO B   6      77.686 -20.035  43.694  1.00 15.63 LIG 0.18  C 
ATOM     42  CG  PRO B   6      77.944 -22.406  43.350  1.00 18.90 LIG 0.02  C 
ATOM     43  CB  PRO B   6      77.959 -21.111  42.636  1.00 17.20 LIG 0.04  C 
ATOM     44 O    PRO B   5      77.071 -18.945  46.097  1.00 12.24 LIG-0.27  OA
BRANCH 41 45
ATOM     45  C   PRO B   6      76.643 -19.048  43.192  1.00 14.54 LIG 0.24  C 
ATOM     46 O    PRO B   6      76.791 -17.830  43.317  1.00 15.72 LIG-0.27  OA
ATOM     47  N   ARG B   7      75.571 -19.593  42.636  1.00 15.59 LIG-0.35  N 
ATOM     48 H    ARG B   7      75.463 -20.440  42.530  1.00 15.59 LIG 0.16  HD
BRANCH 47 49
ATOM     49  CA  ARG B   7      74.462 -18.776  42.147  1.00 17.66 LIG 0.16  C 
BRANCH 49 50
ATOM     50  C   ARG B   7      73.966 -17.777  43.188  1.00 19.45 LIG 0.22  C 
ATOM     51 O    ARG B   7      72.848 -17.281  43.093  1.00 22.19 LIG-0.29  OA
ENDBRANCH 49 50
BRANCH 49 52
ATOM     52  CB  ARG B   7      73.326 -19.680  41.678  1.00 18.48 LIG 0.04  C 
BRANCH 52 53
ATOM     53  CG  ARG B   7      73.513 -20.130  40.246  1.00 19.62 LIG 0.02  C 
BRANCH 53 54
ATOM     54  CD  ARG B   7      74.514 -21.254  40.124  1.00 19.05 LIG 0.14  C 
BRANCH 54 55
ATOM     55  NE  ARG B   7      74.436 -22.134  41.283  1.00 16.94 LIG-0.23  N 
ATOM     56  CZ  ARG B   7      74.229 -23.447  41.234  1.00 14.04 LIG 0.67  C 
ATOM     57  NH1 ARG B   7      74.055 -24.071  40.079  1.00 13.87 LIG-0.23  N 
ATOM     58  NH2 ARG B   7      74.181 -24.139  42.358  1.00 14.07 LIG-0.23  N 
ATOM     59 2HH1 ARG B   7      73.921 -24.921  40.065  1.00 13.87 LIG 0.17  HD
ATOM     60 1HH1 ARG B   7      74.075 -23.627  39.343  1.00 13.87 LIG 0.17  HD
ATOM     61 1HH2 ARG B   7      74.284 -23.740  43.113  1.00 14.07 LIG 0.17  HD
ATOM     62 2HH2 ARG B   7      74.047 -24.987  42.335  1.00 14.07 LIG 0.17  HD
ATOM     63 HE   ARG B   7      74.532 -21.776  42.059  1.00 16.94 LIG 0.18  HD
ENDBRANCH 54 55
ENDBRANCH 53 54
ENDBRANCH 52 53
ENDBRANCH 49 52
ENDBRANCH 47 49
ENDBRANCH 41 45
ENDBRANCH 4 38
TORSDOF 16
ENDMDL
MODEL 12
USER: ADFR SOLUTION from run 182
USER: SCORE 16.716170 LL:  -4.435 LR: -12.880 RR:   0.000 FEB:  -8.107
USER: RMSD 12.682550
USER: SEED 181
USER: STATUS no improvement in best in 10 clusters for 5 generations
USER: GENES 18
USER: genes 0 Translation |==|  0.49296 0.46970 0.44213
USER: genes 1 Rotation |==|  0.12962 0.72307 0.73441 0.59005
USER: genes 2 Torsion [N]-C--CA-[N] |==|  0.33954
USER: genes 3 Torsion [C]-CA--N-[C] |==|  0.84706
USER: genes 4 Torsion [N]-C--CA-[N] |==|  0.37719
USER: genes 5 Torsion [N]-C--CA-[N] |==|  0.52253
USER: genes 6 Torsion [N]-C--CA-[N] |==|  0.30649
USER: genes 7 Torsion [C]-CA--N-[C] |==|  0.57709
USER: genes 8 Torsion [C]-CA--CB-[CG] |==|  0.21700
USER: genes 9 Torsion [CA]-CB--CG-[CD1] |==|  0.19532
USER: genes 10 Torsion [N]-CA--C-[N] |==|  0.45021
USER: genes 11 Torsion [N]-CA--C-[N] |==|  0.77752
USER: genes 12 Torsion [C]-N--CA-[C] |==|  0.51454
USER: genes 13 Torsion [N]-CA--C-[O] |==|  0.30470
USER: genes 14 Torsion [N]-CA--CB-[CG] |==|  0.68976
USER: genes 15 Torsion [CA]-CB--CG-[CD] |==|  0.36733
USER: genes 16 Torsion [CB]-CG--CD-[NE] |==|  0.48002
USER: genes 17 Torsion [CG]-CD--NE-[HE] |==|  0.28413
ROOT
ATOM      1  C   LEU B   4      78.464 -19.983  48.741  1.00 11.33 LIG 0.24  C 
ATOM      2 O    LEU B   4      79.305 -20.761  48.268  1.00 12.90 LIG-0.27  OA
ATOM      3  N   PRO B   5      78.412 -19.730  50.036  1.00 11.12 LIG-0.34  N 
ATOM      4  CA  PRO B   5      79.370 -20.330  50.929  1.00 12.55 LIG 0.18  C 
ATOM      5  CB  PRO B   5      79.272 -19.442  52.175  1.00 13.89 LIG 0.04  C 
ATOM      6  CG  PRO B   5      77.866 -18.982  52.179  1.00 12.43 LIG 0.02  C 
ATOM      7  CD  PRO B   5      77.461 -18.862  50.743  1.00 11.21 LIG 0.13  C 
ENDROOT
BRANCH 1 8
ATOM      8  CA  LEU B   4      77.468 -19.271  47.836  1.00 11.65 LIG 0.18  C 
BRANCH 8 9
ATOM      9  N   LEU B   4      78.193 -18.520  46.836  1.00 12.22 LIG-0.35  N 
ATOM     10  C   PRO B   3      79.106 -17.639  47.214  1.00 12.52 LIG 0.24  C 
ATOM     11 O    PRO B   3      79.300 -17.341  48.396  1.00 13.02 LIG-0.27  OA
ATOM     12 H    LEU B   4      77.983 -18.693  46.021  1.00 12.22 LIG 0.16  HD
BRANCH 10 13
ATOM     13  CA  PRO B   3      79.909 -16.999  46.094  1.00 15.46 LIG 0.18  C 
ATOM     14  N   PRO B   3      80.029 -15.557  46.319  1.00 15.16 LIG-0.34  N 
ATOM     15  CD  PRO B   3      81.422 -15.149  46.557  1.00 18.06 LIG 0.13  C 
ATOM     16  C   PRO B   2      78.932 -14.811  46.383  1.00 13.99 LIG 0.24  C 
ATOM     17  CG  PRO B   3      82.099 -16.440  46.861  1.00 19.92 LIG 0.02  C 
ATOM     18  CB  PRO B   3      81.363 -17.481  46.094  1.00 18.17 LIG 0.04  C 
ATOM     19 O    PRO B   2      77.814 -15.297  46.169  1.00 12.71 LIG-0.27  OA
BRANCH 16 20
ATOM     20  CA  PRO B   2      79.080 -13.355  46.783  1.00 15.85 LIG 0.18  C 
ATOM     21  CB  PRO B   2      79.743 -13.247  48.166  1.00 19.12 LIG 0.04  C 
ATOM     22  CG  PRO B   2      78.927 -12.317  48.962  1.00 19.63 LIG 0.02  C 
ATOM     23  CD  PRO B   2      77.559 -12.378  48.397  1.00 18.19 LIG 0.13  C 
ATOM     24  N   PRO B   2      77.780 -12.741  46.987  1.00 15.71 LIG-0.34  N 
ATOM     25  C   ALA B   1      76.942 -12.598  45.968  1.00 13.25 LIG 0.24  C 
ATOM     26 O    ALA B   1      77.197 -13.015  44.839  1.00 13.75 LIG-0.27  OA
BRANCH 25 27
ATOM     27  CA  ALA B   1      75.615 -11.921  46.267  1.00 12.47 LIG 0.17  C 
ATOM     28  CB  ALA B   1      74.477 -12.775  45.773  1.00 12.30 LIG 0.04  C 
BRANCH 27 29
ATOM     29  N   ALA B   1      75.569 -10.611  45.646  1.00 12.31 LIG-0.35  N 
ATOM     30 H    ALA B   1      76.050 -10.533  44.937  1.00 12.31 LIG 0.16  HD
ATOM     31  C   ACE B   0      74.834  -9.639  46.157  1.00 14.04 LIG 0.21  C 
ATOM     32  CH3 ACE B   0      74.854  -8.330  45.429  1.00 14.78 LIG 0.12  C 
ATOM     33 O    ACE B   0      74.180  -9.816  47.185  1.00 15.52 LIG-0.27  OA
ENDBRANCH 27 29
ENDBRANCH 25 27
ENDBRANCH 16 20
ENDBRANCH 10 13
ENDBRANCH 8 9
BRANCH 8 34
ATOM     34  CB  LEU B   4      76.527 -20.290  47.198  1.00 12.59 LIG 0.04  C 
BRANCH 34 35
ATOM     35  CG  LEU B   4      75.413 -20.795  48.113  1.00 12.74 LIG-0.02  C 
ATOM     36  CD1 LEU B   4      74.407 -19.685  48.354  1.00 14.33 LIG 0.01  C 
ATOM     37  CD2 LEU B   4      74.714 -22.025  47.548  1.00 11.50 LIG 0.01  C 
ENDBRANCH 34 35
ENDBRANCH 8 34
ENDBRANCH 1 8
BRANCH 4 38
ATOM     38  C   PRO B   5      78.984 -21.764  51.234  1.00 12.26 LIG 0.24  C 
ATOM     39  N   PRO B   6      79.923 -22.563  51.731  1.00 14.33 LIG-0.34  N 
ATOM     40  CD  PRO B   6      81.331 -22.243  52.004  1.00 16.43 LIG 0.13  C 
ATOM     41  CA  PRO B   6      79.588 -23.940  52.100  1.00 15.63 LIG 0.18  C 
ATOM     42  CG  PRO B   6      81.972 -23.589  52.088  1.00 18.90 LIG 0.02  C 
ATOM     43  CB  PRO B   6      80.930 -24.530  52.550  1.00 17.20 LIG 0.04  C 
ATOM     44 O    PRO B   5      77.825 -22.169  51.054  1.00 12.24 LIG-0.27  OA
BRANCH 41 45
ATOM     45  C   PRO B   6      78.579 -23.985  53.236  1.00 14.54 LIG 0.24  C 
ATOM     46 O    PRO B   6      77.376 -24.165  53.028  1.00 15.72 LIG-0.27  OA
ATOM     47  N   ARG B   7      79.083 -23.801  54.447  1.00 15.59 LIG-0.35  N 
ATOM     48 H    ARG B   7      79.921 -23.689  54.607  1.00 15.59 LIG 0.16  HD
BRANCH 47 49
ATOM     49  CA  ARG B   7      78.233 -23.772  55.636  1.00 17.66 LIG 0.16  C 
BRANCH 49 50
ATOM     50  C   ARG B   7      79.007 -23.420  56.902  1.00 19.45 LIG 0.22  C 
ATOM     51 O    ARG B   7      78.840 -22.339  57.455  1.00 22.19 LIG-0.29  OA
ENDBRANCH 49 50
BRANCH 49 52
ATOM     52  CB  ARG B   7      77.518 -25.110  55.790  1.00 18.48 LIG 0.04  C 
BRANCH 52 53
ATOM     53  CG  ARG B   7      76.028 -24.989  55.556  1.00 19.62 LIG 0.02  C 
BRANCH 53 54
ATOM     54  CD  ARG B   7      75.505 -26.054  54.623  1.00 19.05 LIG 0.14  C 
BRANCH 54 55
ATOM     55  NE  ARG B   7      74.050 -26.006  54.560  1.00 16.94 LIG-0.23  N 
ATOM     56  CZ  ARG B   7      73.228 -26.488  55.489  1.00 14.04 LIG 0.67  C 
ATOM     57  NH1 ARG B   7      73.694 -27.084  56.575  1.00 13.87 LIG-0.23  N 
ATOM     58  NH2 ARG B   7      71.923 -26.381  55.318  1.00 14.07 LIG-0.23  N 
ATOM     59 2HH1 ARG B   7      73.149 -27.390  57.165  1.00 13.87 LIG 0.17  HD
ATOM     60 1HH1 ARG B   7      74.543 -27.166  56.689  1.00 13.87 LIG 0.17  HD
ATOM     61 1HH2 ARG B   7      71.611 -26.003  54.611  1.00 14.07 LIG 0.17  HD
ATOM     62 2HH2 ARG B   7      71.385 -26.689  55.913  1.00 14.07 LIG 0.17  HD
ATOM     63 HE   ARG B   7      73.695 -25.638  53.868  1.00 16.94 LIG 0.18  HD
ENDBRANCH 54 55
ENDBRANCH 53 54
ENDBRANCH 52 53
ENDBRANCH 49 52
ENDBRANCH 47 49
ENDBRANCH 41 45
ENDBRANCH 4 38
TORSDOF 16
ENDMDL
MODEL 13
USER: ADFR SOLUTION from run 116
USER: SCORE 17.455271 LL:  -4.867 LR: -12.848 RR:   0.000 FEB:  -8.075
USER: RMSD 1.854098
USER: SEED 115
USER: STATUS no improvement in best in 11 clusters for 5 generations
USER: GENES 18
USER: genes 0 Translation |==|  0.49688 0.44917 0.43065
USER: genes 1 Rotation |==|  0.52304 0.49513 0.47850 0.99898
USER: genes 2 Torsion [N]-C--CA-[N] |==|  0.37665
USER: genes 3 Torsion [C]-CA--N-[C] |==|  0.75150
USER: genes 4 Torsion [N]-C--CA-[N] |==|  0.43316
USER: genes 5 Torsion [N]-C--CA-[N] |==|  0.40935
USER: genes 6 Torsion [N]-C--CA-[N] |==|  0.86329
USER: genes 7 Torsion [C]-CA--N-[C] |==|  0.81366
USER: genes 8 Torsion [C]-CA--CB-[CG] |==|  0.40757
USER: genes 9 Torsion [CA]-CB--CG-[CD1] |==|  0.58716
USER: genes 10 Torsion [N]-CA--C-[N] |==|  0.49582
USER: genes 11 Torsion [N]-CA--C-[N] |==|  0.74177
USER: genes 12 Torsion [C]-N--CA-[C] |==|  0.57557
USER: genes 13 Torsion [N]-CA--C-[O] |==|  0.16905
USER: genes 14 Torsion [N]-CA--CB-[CG] |==|  0.68272
USER: genes 15 Torsion [CA]-CB--CG-[CD] |==|  0.91685
USER: genes 16 Torsion [CB]-CG--CD-[NE] |==|  0.36816
USER: genes 17 Torsion [CG]-CD--NE-[HE] |==|  0.84400
ROOT
ATOM      1  C   LEU B   4      78.523 -20.476  48.431  1.00 11.33 LIG 0.24  C 
ATOM      2 O    LEU B   4      79.431 -20.837  47.669  1.00 12.90 LIG-0.27  OA
ATOM      3  N   PRO B   5      77.307 -20.226  47.984  1.00 11.12 LIG-0.34  N 
ATOM      4  CA  PRO B   5      76.999 -20.409  46.589  1.00 12.55 LIG 0.18  C 
ATOM      5  CB  PRO B   5      75.467 -20.486  46.589  1.00 13.89 LIG 0.04  C 
ATOM      6  CG  PRO B   5      75.064 -19.631  47.726  1.00 12.43 LIG 0.02  C 
ATOM      7  CD  PRO B   5      76.144 -19.764  48.754  1.00 11.21 LIG 0.13  C 
ENDROOT
BRANCH 1 8
ATOM      8  CA  LEU B   4      78.776 -20.328  49.926  1.00 11.65 LIG 0.18  C 
BRANCH 8 9
ATOM      9  N   LEU B   4      79.549 -21.459  50.388  1.00 12.22 LIG-0.35  N 
ATOM     10  C   PRO B   3      78.928 -22.548  50.807  1.00 12.52 LIG 0.24  C 
ATOM     11 O    PRO B   3      77.702 -22.616  50.930  1.00 13.02 LIG-0.27  OA
ATOM     12 H    LEU B   4      80.402 -21.356  50.363  1.00 12.22 LIG 0.16  HD
BRANCH 10 13
ATOM     13  CA  PRO B   3      79.823 -23.730  51.144  1.00 15.46 LIG 0.18  C 
ATOM     14  N   PRO B   3      79.149 -24.620  52.093  1.00 15.16 LIG-0.34  N 
ATOM     15  CD  PRO B   3      78.869 -25.940  51.509  1.00 18.06 LIG 0.13  C 
ATOM     16  C   PRO B   2      78.787 -24.153  53.283  1.00 13.99 LIG 0.24  C 
ATOM     17  CG  PRO B   3      79.037 -25.700  50.049  1.00 19.92 LIG 0.02  C 
ATOM     18  CB  PRO B   3      80.058 -24.626  49.924  1.00 18.17 LIG 0.04  C 
ATOM     19 O    PRO B   2      79.086 -23.006  53.638  1.00 12.71 LIG-0.27  OA
BRANCH 16 20
ATOM     20  CA  PRO B   2      77.946 -25.046  54.174  1.00 15.85 LIG 0.18  C 
ATOM     21  CB  PRO B   2      76.461 -24.659  54.069  1.00 19.12 LIG 0.04  C 
ATOM     22  CG  PRO B   2      75.950 -24.543  55.444  1.00 19.63 LIG 0.02  C 
ATOM     23  CD  PRO B   2      77.118 -24.215  56.295  1.00 18.19 LIG 0.13  C 
ATOM     24  N   PRO B   2      78.253 -24.816  55.574  1.00 15.71 LIG-0.34  N 
ATOM     25  C   ALA B   1      79.456 -25.111  56.051  1.00 13.25 LIG 0.24  C 
ATOM     26 O    ALA B   1      80.364 -25.535  55.337  1.00 13.75 LIG-0.27  OA
BRANCH 25 27
ATOM     27  CA  ALA B   1      79.681 -24.862  57.532  1.00 12.47 LIG 0.17  C 
ATOM     28  CB  ALA B   1      78.945 -25.893  58.346  1.00 12.30 LIG 0.04  C 
BRANCH 27 29
ATOM     29  N   ALA B   1      79.238 -23.527  57.890  1.00 12.31 LIG-0.35  N 
ATOM     30 H    ALA B   1      78.553 -23.504  58.411  1.00 12.31 LIG 0.16  HD
ATOM     31  C   ACE B   0      79.862 -22.456  57.433  1.00 14.04 LIG 0.21  C 
ATOM     32  CH3 ACE B   0      79.323 -21.129  57.873  1.00 14.78 LIG 0.12  C 
ATOM     33 O    ACE B   0      80.828 -22.562  56.678  1.00 15.52 LIG-0.27  OA
ENDBRANCH 27 29
ENDBRANCH 25 27
ENDBRANCH 16 20
ENDBRANCH 10 13
ENDBRANCH 8 9
BRANCH 8 34
ATOM     34  CB  LEU B   4      79.492 -19.009  50.202  1.00 12.59 LIG 0.04  C 
BRANCH 34 35
ATOM     35  CG  LEU B   4      79.131 -18.347  51.530  1.00 12.74 LIG-0.02  C 
ATOM     36  CD1 LEU B   4      79.222 -16.839  51.392  1.00 14.33 LIG 0.01  C 
ATOM     37  CD2 LEU B   4      77.743 -18.747  52.017  1.00 11.50 LIG 0.01  C 
ENDBRANCH 34 35
ENDBRANCH 8 34
ENDBRANCH 1 8
BRANCH 4 38
ATOM     38  C   PRO B   5      77.497 -19.229  45.776  1.00 12.26 LIG 0.24  C 
ATOM     39  N   PRO B   6      77.314 -19.266  44.461  1.00 14.33 LIG-0.34  N 
ATOM     40  CD  PRO B   6      76.703 -20.337  43.661  1.00 16.43 LIG 0.13  C 
ATOM     41  CA  PRO B   6      77.722 -18.126  43.636  1.00 15.63 LIG 0.18  C 
ATOM     42  CG  PRO B   6      77.188 -20.045  42.280  1.00 18.90 LIG 0.02  C 
ATOM     43  CB  PRO B   6      77.414 -18.586  42.206  1.00 17.20 LIG 0.04  C 
ATOM     44 O    PRO B   5      78.031 -18.252  46.325  1.00 12.24 LIG-0.27  OA
BRANCH 41 45
ATOM     45  C   PRO B   6      76.927 -16.876  43.976  1.00 14.54 LIG 0.24  C 
ATOM     46 O    PRO B   6      77.269 -16.117  44.887  1.00 15.72 LIG-0.27  OA
ATOM     47  N   ARG B   7      75.843 -16.678  43.241  1.00 15.59 LIG-0.35  N 
ATOM     48 H    ARG B   7      75.601 -17.191  42.594  1.00 15.59 LIG 0.16  HD
BRANCH 47 49
ATOM     49  CA  ARG B   7      74.951 -15.545  43.478  1.00 17.66 LIG 0.16  C 
BRANCH 49 50
ATOM     50  C   ARG B   7      73.516 -15.826  43.043  1.00 19.45 LIG 0.22  C 
ATOM     51 O    ARG B   7      72.877 -16.739  43.554  1.00 22.19 LIG-0.29  OA
ENDBRANCH 49 50
BRANCH 49 52
ATOM     52  CB  ARG B   7      75.498 -14.305  42.778  1.00 18.48 LIG 0.04  C 
BRANCH 52 53
ATOM     53  CG  ARG B   7      75.917 -13.235  43.762  1.00 19.62 LIG 0.02  C 
BRANCH 53 54
ATOM     54  CD  ARG B   7      75.103 -13.273  45.032  1.00 19.05 LIG 0.14  C 
BRANCH 54 55
ATOM     55  NE  ARG B   7      75.974 -13.206  46.198  1.00 16.94 LIG-0.23  N 
ATOM     56  CZ  ARG B   7      75.891 -12.295  47.164  1.00 14.04 LIG 0.67  C 
ATOM     57  NH1 ARG B   7      74.981 -11.335  47.125  1.00 13.87 LIG-0.23  N 
ATOM     58  NH2 ARG B   7      76.740 -12.342  48.175  1.00 14.07 LIG-0.23  N 
ATOM     59 2HH1 ARG B   7      74.941 -10.753  47.758  1.00 13.87 LIG 0.17  HD
ATOM     60 1HH1 ARG B   7      74.430 -11.292  46.466  1.00 13.87 LIG 0.17  HD
ATOM     61 1HH2 ARG B   7      77.341 -12.957  48.204  1.00 14.07 LIG 0.17  HD
ATOM     62 2HH2 ARG B   7      76.694 -11.757  48.803  1.00 14.07 LIG 0.17  HD
ATOM     63 HE   ARG B   7      76.591 -13.803  46.267  1.00 16.94 LIG 0.18  HD
ENDBRANCH 54 55
ENDBRANCH 53 54
ENDBRANCH 52 53
ENDBRANCH 49 52
ENDBRANCH 47 49
ENDBRANCH 41 45
ENDBRANCH 4 38
TORSDOF 16
ENDMDL
MODEL 14
USER: ADFR SOLUTION from run 64
USER: SCORE 18.264624 LL:  -6.231 LR: -12.756 RR:   0.000 FEB:  -7.983
USER: RMSD 7.295659
USER: SEED 63
USER: STATUS 1 or 2 clusters left
USER: GENES 18
USER: genes 0 Translation |==|  0.60216 0.45939 0.51867
USER: genes 1 Rotation |==|  0.64137 0.66184 0.25386 0.87846
USER: genes 2 Torsion [N]-C--CA-[N] |==|  0.36496
USER: genes 3 Torsion [C]-CA--N-[C] |==|  0.67965
USER: genes 4 Torsion [N]-C--CA-[N] |==|  0.96019
USER: genes 5 Torsion [N]-C--CA-[N] |==|  0.52753
USER: genes 6 Torsion [N]-C--CA-[N] |==|  0.20228
USER: genes 7 Torsion [C]-CA--N-[C] |==|  0.66626
USER: genes 8 Torsion [C]-CA--CB-[CG] |==|  0.82434
USER: genes 9 Torsion [CA]-CB--CG-[CD1] |==|  0.39373
USER: genes 10 Torsion [N]-CA--C-[N] |==|  0.30060
USER: genes 11 Torsion [N]-CA--C-[N] |==|  0.82753
USER: genes 12 Torsion [C]-N--CA-[C] |==|  0.81010
USER: genes 13 Torsion [N]-CA--C-[O] |==|  0.02310
USER: genes 14 Torsion [N]-CA--CB-[CG] |==|  0.57395
USER: genes 15 Torsion [CA]-CB--CG-[CD] |==|  0.53875
USER: genes 16 Torsion [CB]-CG--CD-[NE] |==|  0.27989
USER: genes 17 Torsion [CG]-CD--NE-[HE] |==|  0.84313
ROOT
ATOM      1  C   LEU B   4      80.102 -20.231  50.808  1.00 11.33 LIG 0.24  C 
ATOM      2 O    LEU B   4      79.900 -20.317  49.589  1.00 12.90 LIG-0.27  OA
ATOM      3  N   PRO B   5      79.726 -19.168  51.495  1.00 11.12 LIG-0.34  N 
ATOM      4  CA  PRO B   5      79.028 -18.093  50.838  1.00 12.55 LIG 0.18  C 
ATOM      5  CB  PRO B   5      78.381 -17.345  52.009  1.00 13.89 LIG 0.04  C 
ATOM      6  CG  PRO B   5      79.320 -17.555  53.133  1.00 12.43 LIG 0.02  C 
ATOM      7  CD  PRO B   5      79.922 -18.909  52.928  1.00 11.21 LIG 0.13  C 
ENDROOT
BRANCH 1 8
ATOM      8  CA  LEU B   4      80.778 -21.366  51.567  1.00 11.65 LIG 0.18  C 
BRANCH 8 9
ATOM      9  N   LEU B   4      80.153 -22.616  51.199  1.00 12.22 LIG-0.35  N 
ATOM     10  C   PRO B   3      79.493 -23.310  52.112  1.00 12.52 LIG 0.24  C 
ATOM     11 O    PRO B   3      79.471 -22.997  53.306  1.00 13.02 LIG-0.27  OA
ATOM     12 H    LEU B   4      80.248 -22.848  50.377  1.00 12.22 LIG 0.16  HD
BRANCH 10 13
ATOM     13  CA  PRO B   3      78.757 -24.538  51.603  1.00 15.46 LIG 0.18  C 
ATOM     14  N   PRO B   3      78.663 -24.501  50.141  1.00 15.16 LIG-0.34  N 
ATOM     15  CD  PRO B   3      79.415 -25.595  49.511  1.00 18.06 LIG 0.13  C 
ATOM     16  C   PRO B   2      78.031 -23.492  49.552  1.00 13.99 LIG 0.24  C 
ATOM     17  CG  PRO B   3      80.296 -26.072  50.614  1.00 19.92 LIG 0.02  C 
ATOM     18  CB  PRO B   3      79.547 -25.823  51.875  1.00 18.17 LIG 0.04  C 
ATOM     19 O    PRO B   2      77.445 -22.628  50.218  1.00 12.71 LIG-0.27  OA
BRANCH 16 20
ATOM     20  CA  PRO B   2      78.096 -23.394  48.040  1.00 15.85 LIG 0.18  C 
ATOM     21  CB  PRO B   2      79.560 -23.350  47.571  1.00 19.12 LIG 0.04  C 
ATOM     22  CG  PRO B   2      79.672 -22.230  46.622  1.00 19.63 LIG 0.02  C 
ATOM     23  CD  PRO B   2      78.600 -21.273  46.980  1.00 18.19 LIG 0.13  C 
ATOM     24  N   PRO B   2      77.560 -22.125  47.582  1.00 15.71 LIG-0.34  N 
ATOM     25  C   ALA B   1      76.276 -21.840  47.759  1.00 13.25 LIG 0.24  C 
ATOM     26 O    ALA B   1      75.507 -22.595  48.352  1.00 13.75 LIG-0.27  OA
BRANCH 25 27
ATOM     27  CA  ALA B   1      75.795 -20.501  47.224  1.00 12.47 LIG 0.17  C 
ATOM     28  CB  ALA B   1      74.446 -20.168  47.804  1.00 12.30 LIG 0.04  C 
BRANCH 27 29
ATOM     29  N   ALA B   1      75.726 -20.535  45.775  1.00 12.31 LIG-0.35  N 
ATOM     30 H    ALA B   1      75.195 -21.131  45.455  1.00 12.31 LIG 0.16  HD
ATOM     31  C   ACE B   0      76.439 -19.700  45.039  1.00 14.04 LIG 0.21  C 
ATOM     32  CH3 ACE B   0      76.285 -19.819  43.553  1.00 14.78 LIG 0.12  C 
ATOM     33 O    ACE B   0      77.193 -18.881  45.564  1.00 15.52 LIG-0.27  OA
ENDBRANCH 27 29
ENDBRANCH 25 27
ENDBRANCH 16 20
ENDBRANCH 10 13
ENDBRANCH 8 9
BRANCH 8 34
ATOM     34  CB  LEU B   4      82.274 -21.375  51.259  1.00 12.59 LIG 0.04  C 
BRANCH 34 35
ATOM     35  CG  LEU B   4      82.626 -21.646  49.798  1.00 12.74 LIG-0.02  C 
ATOM     36  CD1 LEU B   4      83.806 -20.784  49.389  1.00 14.33 LIG 0.01  C 
ATOM     37  CD2 LEU B   4      82.934 -23.116  49.539  1.00 11.50 LIG 0.01  C 
ENDBRANCH 34 35
ENDBRANCH 8 34
ENDBRANCH 1 8
BRANCH 4 38
ATOM     38  C   PRO B   5      80.004 -17.211  50.083  1.00 12.26 LIG 0.24  C 
ATOM     39  N   PRO B   6      79.996 -17.276  48.757  1.00 14.33 LIG-0.34  N 
ATOM     40  CD  PRO B   6      79.167 -18.135  47.898  1.00 16.43 LIG 0.13  C 
ATOM     41  CA  PRO B   6      80.875 -16.403  47.977  1.00 15.63 LIG 0.18  C 
ATOM     42  CG  PRO B   6      79.901 -18.122  46.599  1.00 18.90 LIG 0.02  C 
ATOM     43  CB  PRO B   6      80.621 -16.832  46.527  1.00 17.20 LIG 0.04  C 
ATOM     44 O    PRO B   5      80.762 -16.433  50.684  1.00 12.24 LIG-0.27  OA
BRANCH 41 45
ATOM     45  C   PRO B   6      80.519 -14.937  48.168  1.00 14.54 LIG 0.24  C 
ATOM     46 O    PRO B   6      81.310 -14.138  48.676  1.00 15.72 LIG-0.27  OA
ATOM     47  N   ARG B   7      79.303 -14.594  47.769  1.00 15.59 LIG-0.35  N 
ATOM     48 H    ARG B   7      78.747 -15.138  47.400  1.00 15.59 LIG 0.16  HD
BRANCH 47 49
ATOM     49  CA  ARG B   7      78.798 -13.232  47.928  1.00 17.66 LIG 0.16  C 
BRANCH 49 50
ATOM     50  C   ARG B   7      78.570 -12.858  49.390  1.00 19.45 LIG 0.22  C 
ATOM     51 O    ARG B   7      78.946 -13.601  50.289  1.00 22.19 LIG-0.29  OA
ENDBRANCH 49 50
BRANCH 49 52
ATOM     52  CB  ARG B   7      77.518 -13.059  47.117  1.00 18.48 LIG 0.04  C 
BRANCH 52 53
ATOM     53  CG  ARG B   7      77.297 -11.621  46.703  1.00 19.62 LIG 0.02  C 
BRANCH 53 54
ATOM     54  CD  ARG B   7      75.894 -11.377  46.203  1.00 19.05 LIG 0.14  C 
BRANCH 54 55
ATOM     55  NE  ARG B   7      75.085 -10.751  47.240  1.00 16.94 LIG-0.23  N 
ATOM     56  CZ  ARG B   7      74.438  -9.595  47.112  1.00 14.04 LIG 0.67  C 
ATOM     57  NH1 ARG B   7      74.499  -8.896  45.990  1.00 13.87 LIG-0.23  N 
ATOM     58  NH2 ARG B   7      73.733  -9.131  48.128  1.00 14.07 LIG-0.23  N 
ATOM     59 2HH1 ARG B   7      74.074  -8.150  45.924  1.00 13.87 LIG 0.17  HD
ATOM     60 1HH1 ARG B   7      74.963  -9.187  45.327  1.00 13.87 LIG 0.17  HD
ATOM     61 1HH2 ARG B   7      73.695  -9.574  48.864  1.00 14.07 LIG 0.17  HD
ATOM     62 2HH2 ARG B   7      73.312  -8.385  48.054  1.00 14.07 LIG 0.17  HD
ATOM     63 HE   ARG B   7      75.021 -11.160  47.995  1.00 16.94 LIG 0.18  HD
ENDBRANCH 54 55
ENDBRANCH 53 54
ENDBRANCH 52 53
ENDBRANCH 49 52
ENDBRANCH 47 49
ENDBRANCH 41 45
ENDBRANCH 4 38
TORSDOF 16
ENDMDL
MODEL 15
USER: ADFR SOLUTION from run 184
USER: SCORE 16.293368 LL:  -4.561 LR: -12.679 RR:   0.000 FEB:  -7.906
USER: RMSD 6.147522
USER: SEED 183
USER: STATUS no improvement in best in 15 clusters for 5 generations
USER: GENES 18
USER: genes 0 Translation |==|  0.50713 0.37964 0.53780
USER: genes 1 Rotation |==|  0.39082 0.65611 0.16434 0.81786
USER: genes 2 Torsion [N]-C--CA-[N] |==|  0.35899
USER: genes 3 Torsion [C]-CA--N-[C] |==|  0.57435
USER: genes 4 Torsion [N]-C--CA-[N] |==|  0.64171
USER: genes 5 Torsion [N]-C--CA-[N] |==|  0.81477
USER: genes 6 Torsion [N]-C--CA-[N] |==|  0.26840
USER: genes 7 Torsion [C]-CA--N-[C] |==|  0.53333
USER: genes 8 Torsion [C]-CA--CB-[CG] |==|  0.03965
USER: genes 9 Torsion [CA]-CB--CG-[CD1] |==|  0.29695
USER: genes 10 Torsion [N]-CA--C-[N] |==|  0.37187
USER: genes 11 Torsion [N]-CA--C-[N] |==|  0.61758
USER: genes 12 Torsion [C]-N--CA-[C] |==|  0.58262
USER: genes 13 Torsion [N]-CA--C-[O] |==|  0.86235
USER: genes 14 Torsion [N]-CA--CB-[CG] |==|  0.05655
USER: genes 15 Torsion [CA]-CB--CG-[CD] |==|  0.24571
USER: genes 16 Torsion [CB]-CG--CD-[NE] |==|  0.70222
USER: genes 17 Torsion [CG]-CD--NE-[HE] |==|  0.20774
ROOT
ATOM      1  C   LEU B   4      78.677 -22.145  51.324  1.00 11.33 LIG 0.24  C 
ATOM      2 O    LEU B   4      77.820 -22.955  50.944  1.00 12.90 LIG-0.27  OA
ATOM      3  N   PRO B   5      78.567 -20.855  51.069  1.00 11.12 LIG-0.34  N 
ATOM      4  CA  PRO B   5      77.413 -20.353  50.368  1.00 12.55 LIG 0.18  C 
ATOM      5  CB  PRO B   5      77.441 -18.856  50.700  1.00 13.89 LIG 0.04  C 
ATOM      6  CG  PRO B   5      78.879 -18.550  50.862  1.00 12.43 LIG 0.02  C 
ATOM      7  CD  PRO B   5      79.509 -19.785  51.426  1.00 11.21 LIG 0.13  C 
ENDROOT
BRANCH 1 8
ATOM      8  CA  LEU B   4      79.886 -22.611  52.126  1.00 11.65 LIG 0.18  C 
BRANCH 8 9
ATOM      9  N   LEU B   4      79.434 -23.440  53.220  1.00 12.22 LIG-0.35  N 
ATOM     10  C   PRO B   3      80.164 -23.525  54.321  1.00 12.52 LIG 0.24  C 
ATOM     11 O    PRO B   3      81.282 -23.012  54.425  1.00 13.02 LIG-0.27  OA
ATOM     12 H    LEU B   4      78.688 -23.847  53.091  1.00 12.22 LIG 0.16  HD
BRANCH 10 13
ATOM     13  CA  PRO B   3      79.544 -24.310  55.465  1.00 15.46 LIG 0.18  C 
ATOM     14  N   PRO B   3      79.585 -23.522  56.699  1.00 15.16 LIG-0.34  N 
ATOM     15  CD  PRO B   3      78.239 -23.176  57.179  1.00 18.06 LIG 0.13  C 
ATOM     16  C   PRO B   2      80.758 -23.133  57.187  1.00 13.99 LIG 0.24  C 
ATOM     17  CG  PRO B   3      77.384 -23.439  55.989  1.00 19.92 LIG 0.02  C 
ATOM     18  CB  PRO B   3      78.046 -24.543  55.243  1.00 18.17 LIG 0.04  C 
ATOM     19 O    PRO B   2      81.820 -23.497  56.667  1.00 12.71 LIG-0.27  OA
BRANCH 16 20
ATOM     20  CA  PRO B   2      80.759 -22.181  58.367  1.00 15.85 LIG 0.18  C 
ATOM     21  CB  PRO B   2      79.775 -22.665  59.445  1.00 19.12 LIG 0.04  C 
ATOM     22  CG  PRO B   2      78.951 -21.506  59.826  1.00 19.63 LIG 0.02  C 
ATOM     23  CD  PRO B   2      78.945 -20.599  58.656  1.00 18.19 LIG 0.13  C 
ATOM     24  N   PRO B   2      80.226 -20.885  57.986  1.00 15.71 LIG-0.34  N 
ATOM     25  C   ALA B   1      80.870 -20.132  57.103  1.00 13.25 LIG 0.24  C 
ATOM     26 O    ALA B   1      81.897 -20.506  56.540  1.00 13.75 LIG-0.27  OA
BRANCH 25 27
ATOM     27  CA  ALA B   1      80.253 -18.780  56.783  1.00 12.47 LIG 0.17  C 
ATOM     28  CB  ALA B   1      80.405 -18.479  55.315  1.00 12.30 LIG 0.04  C 
BRANCH 27 29
ATOM     29  N   ALA B   1      80.881 -17.742  57.578  1.00 12.31 LIG-0.35  N 
ATOM     30 H    ALA B   1      81.600 -17.985  57.984  1.00 12.31 LIG 0.16  HD
ATOM     31  C   ACE B   0      80.361 -16.529  57.649  1.00 14.04 LIG 0.21  C 
ATOM     32  CH3 ACE B   0      81.097 -15.533  58.493  1.00 14.78 LIG 0.12  C 
ATOM     33 O    ACE B   0      79.320 -16.253  57.054  1.00 15.52 LIG-0.27  OA
ENDBRANCH 27 29
ENDBRANCH 25 27
ENDBRANCH 16 20
ENDBRANCH 10 13
ENDBRANCH 8 9
BRANCH 8 34
ATOM     34  CB  LEU B   4      80.852 -23.364  51.214  1.00 12.59 LIG 0.04  C 
BRANCH 34 35
ATOM     35  CG  LEU B   4      80.592 -23.188  49.720  1.00 12.74 LIG-0.02  C 
ATOM     36  CD1 LEU B   4      81.657 -22.292  49.117  1.00 14.33 LIG 0.01  C 
ATOM     37  CD2 LEU B   4      80.546 -24.520  48.980  1.00 11.50 LIG 0.01  C 
ENDBRANCH 34 35
ENDBRANCH 8 34
ENDBRANCH 1 8
BRANCH 4 38
ATOM     38  C   PRO B   5      77.551 -20.596  48.877  1.00 12.26 LIG 0.24  C 
ATOM     39  N   PRO B   6      76.501 -21.095  48.234  1.00 14.33 LIG-0.34  N 
ATOM     40  CD  PRO B   6      75.198 -21.483  48.793  1.00 16.43 LIG 0.13  C 
ATOM     41  CA  PRO B   6      76.561 -21.293  46.785  1.00 15.63 LIG 0.18  C 
ATOM     42  CG  PRO B   6      74.633 -22.378  47.741  1.00 18.90 LIG 0.02  C 
ATOM     43  CB  PRO B   6      75.210 -21.939  46.452  1.00 17.20 LIG 0.04  C 
ATOM     44 O    PRO B   5      78.598 -20.310  48.275  1.00 12.24 LIG-0.27  OA
BRANCH 41 45
ATOM     45  C   PRO B   6      76.715 -19.973  46.046  1.00 14.54 LIG 0.24  C 
ATOM     46 O    PRO B   6      77.469 -19.086  46.453  1.00 15.72 LIG-0.27  OA
ATOM     47  N   ARG B   7      75.972 -19.846  44.956  1.00 15.59 LIG-0.35  N 
ATOM     48 H    ARG B   7      75.454 -20.462  44.653  1.00 15.59 LIG 0.16  HD
BRANCH 47 49
ATOM     49  CA  ARG B   7      75.977 -18.617  44.164  1.00 17.66 LIG 0.16  C 
BRANCH 49 50
ATOM     50  C   ARG B   7      74.646 -18.368  43.460  1.00 19.45 LIG 0.22  C 
ATOM     51 O    ARG B   7      74.112 -19.256  42.804  1.00 22.19 LIG-0.29  OA
ENDBRANCH 49 50
BRANCH 49 52
ATOM     52  CB  ARG B   7      77.123 -18.657  43.159  1.00 18.48 LIG 0.04  C 
BRANCH 52 53
ATOM     53  CG  ARG B   7      77.606 -20.068  42.904  1.00 19.62 LIG 0.02  C 
BRANCH 53 54
ATOM     54  CD  ARG B   7      76.845 -20.742  41.788  1.00 19.05 LIG 0.14  C 
BRANCH 54 55
ATOM     55  NE  ARG B   7      75.945 -21.754  42.324  1.00 16.94 LIG-0.23  N 
ATOM     56  CZ  ARG B   7      76.145 -23.068  42.257  1.00 14.04 LIG 0.67  C 
ATOM     57  NH1 ARG B   7      77.214 -23.569  41.659  1.00 13.87 LIG-0.23  N 
ATOM     58  NH2 ARG B   7      75.254 -23.888  42.785  1.00 14.07 LIG-0.23  N 
ATOM     59 2HH1 ARG B   7      77.329 -24.421  41.624  1.00 13.87 LIG 0.17  HD
ATOM     60 1HH1 ARG B   7      77.795 -23.043  41.304  1.00 13.87 LIG 0.17  HD
ATOM     61 1HH2 ARG B   7      74.552 -23.571  43.168  1.00 14.07 LIG 0.17  HD
ATOM     62 2HH2 ARG B   7      75.376 -24.738  42.747  1.00 14.07 LIG 0.17  HD
ATOM     63 HE   ARG B   7      75.229 -21.482  42.715  1.00 16.94 LIG 0.18  HD
ENDBRANCH 54 55
ENDBRANCH 53 54
ENDBRANCH 52 53
ENDBRANCH 49 52
ENDBRANCH 47 49
ENDBRANCH 41 45
ENDBRANCH 4 38
TORSDOF 16
ENDMDL
MODEL 16
USER: ADFR SOLUTION from run 16
USER: SCORE 16.680012 LL:  -4.416 LR: -12.651 RR:   0.000 FEB:  -7.878
USER: RMSD 5.152841
USER: SEED 382335
USER: STATUS no improvement in best in 15 clusters for 5 generations
USER: GENES 18
USER: genes 0 Translation |==|  0.45195 0.41221 0.45231
USER: genes 1 Rotation |==|  0.45464 0.52644 0.38860 0.98460
USER: genes 2 Torsion [N]-C--CA-[N] |==|  0.43958
USER: genes 3 Torsion [C]-CA--N-[C] |==|  0.75559
USER: genes 4 Torsion [N]-C--CA-[N] |==|  0.42394
USER: genes 5 Torsion [N]-C--CA-[N] |==|  0.90359
USER: genes 6 Torsion [N]-C--CA-[N] |==|  0.36028
USER: genes 7 Torsion [C]-CA--N-[C] |==|  0.69235
USER: genes 8 Torsion [C]-CA--CB-[CG] |==|  0.29196
USER: genes 9 Torsion [CA]-CB--CG-[CD1] |==|  0.11748
USER: genes 10 Torsion [N]-CA--C-[N] |==|  0.38028
USER: genes 11 Torsion [N]-CA--C-[N] |==|  0.82037
USER: genes 12 Torsion [C]-N--CA-[C] |==|  0.82572
USER: genes 13 Torsion [N]-CA--C-[O] |==|  0.52939
USER: genes 14 Torsion [N]-CA--CB-[CG] |==|  0.75605
USER: genes 15 Torsion [CA]-CB--CG-[CD] |==|  0.23877
USER: genes 16 Torsion [CB]-CG--CD-[NE] |==|  0.06088
USER: genes 17 Torsion [CG]-CD--NE-[HE] |==|  0.82781
ROOT
ATOM      1  C   LEU B   4      77.849 -21.363  49.016  1.00 11.33 LIG 0.24  C 
ATOM      2 O    LEU B   4      78.421 -22.196  48.299  1.00 12.90 LIG-0.27  OA
ATOM      3  N   PRO B   5      76.720 -20.792  48.642  1.00 11.12 LIG-0.34  N 
ATOM      4  CA  PRO B   5      76.102 -21.159  47.394  1.00 12.55 LIG 0.18  C 
ATOM      5  CB  PRO B   5      74.661 -20.665  47.572  1.00 13.89 LIG 0.04  C 
ATOM      6  CG  PRO B   5      74.792 -19.487  48.457  1.00 12.43 LIG 0.02  C 
ATOM      7  CD  PRO B   5      75.947 -19.772  49.366  1.00 11.21 LIG 0.13  C 
ENDROOT
BRANCH 1 8
ATOM      8  CA  LEU B   4      78.423 -20.984  50.375  1.00 11.65 LIG 0.18  C 
BRANCH 8 9
ATOM      9  N   LEU B   4      79.315 -22.031  50.819  1.00 12.22 LIG-0.35  N 
ATOM     10  C   PRO B   3      78.831 -23.054  51.505  1.00 12.52 LIG 0.24  C 
ATOM     11 O    PRO B   3      77.659 -23.112  51.886  1.00 13.02 LIG-0.27  OA
ATOM     12 H    LEU B   4      80.141 -21.927  50.605  1.00 12.22 LIG 0.16  HD
BRANCH 10 13
ATOM     13  CA  PRO B   3      79.818 -24.169  51.811  1.00 15.46 LIG 0.18  C 
ATOM     14  N   PRO B   3      79.427 -24.868  53.037  1.00 15.16 LIG-0.34  N 
ATOM     15  CD  PRO B   3      79.053 -26.267  52.781  1.00 18.06 LIG 0.13  C 
ATOM     16  C   PRO B   2      79.354 -24.194  54.179  1.00 13.99 LIG 0.24  C 
ATOM     17  CG  PRO B   3      78.850 -26.291  51.305  1.00 19.92 LIG 0.02  C 
ATOM     18  CB  PRO B   3      79.774 -25.269  50.746  1.00 18.17 LIG 0.04  C 
ATOM     19 O    PRO B   2      79.695 -23.006  54.243  1.00 12.71 LIG-0.27  OA
BRANCH 16 20
ATOM     20  CA  PRO B   2      78.786 -24.905  55.393  1.00 15.85 LIG 0.18  C 
ATOM     21  CB  PRO B   2      79.847 -25.826  56.016  1.00 19.12 LIG 0.04  C 
ATOM     22  CG  PRO B   2      79.207 -27.134  56.229  1.00 19.63 LIG 0.02  C 
ATOM     23  CD  PRO B   2      78.112 -27.227  55.237  1.00 18.19 LIG 0.13  C 
ATOM     24  N   PRO B   2      77.731 -25.824  55.006  1.00 15.71 LIG-0.34  N 
ATOM     25  C   ALA B   1      76.603 -25.362  54.481  1.00 13.25 LIG 0.24  C 
ATOM     26 O    ALA B   1      76.420 -24.167  54.254  1.00 13.75 LIG-0.27  OA
BRANCH 25 27
ATOM     27  CA  ALA B   1      75.543 -26.392  54.130  1.00 12.47 LIG 0.17  C 
ATOM     28  CB  ALA B   1      75.438 -26.535  52.635  1.00 12.30 LIG 0.04  C 
BRANCH 27 29
ATOM     29  N   ALA B   1      74.262 -26.005  54.690  1.00 12.31 LIG-0.35  N 
ATOM     30 H    ALA B   1      73.904 -25.313  54.325  1.00 12.31 LIG 0.16  HD
ATOM     31  C   ACE B   0      73.717 -26.686  55.684  1.00 14.04 LIG 0.21  C 
ATOM     32  CH3 ACE B   0      72.389 -26.203  56.179  1.00 14.78 LIG 0.12  C 
ATOM     33 O    ACE B   0      74.292 -27.660  56.170  1.00 15.52 LIG-0.27  OA
ENDBRANCH 27 29
ENDBRANCH 25 27
ENDBRANCH 16 20
ENDBRANCH 10 13
ENDBRANCH 8 9
BRANCH 8 34
ATOM     34  CB  LEU B   4      79.142 -19.640  50.277  1.00 12.59 LIG 0.04  C 
BRANCH 34 35
ATOM     35  CG  LEU B   4      78.388 -18.463  50.891  1.00 12.74 LIG-0.02  C 
ATOM     36  CD1 LEU B   4      77.774 -18.882  52.213  1.00 14.33 LIG 0.01  C 
ATOM     37  CD2 LEU B   4      79.281 -17.244  51.089  1.00 11.50 LIG 0.01  C 
ENDBRANCH 34 35
ENDBRANCH 8 34
ENDBRANCH 1 8
BRANCH 4 38
ATOM     38  C   PRO B   5      76.792 -20.464  46.236  1.00 12.26 LIG 0.24  C 
ATOM     39  N   PRO B   6      77.041 -21.182  45.147  1.00 14.33 LIG-0.34  N 
ATOM     40  CD  PRO B   6      76.759 -22.606  44.917  1.00 16.43 LIG 0.13  C 
ATOM     41  CA  PRO B   6      77.650 -20.545  43.977  1.00 15.63 LIG 0.18  C 
ATOM     42  CG  PRO B   6      77.650 -22.945  43.768  1.00 18.90 LIG 0.02  C 
ATOM     43  CB  PRO B   6      77.834 -21.702  42.988  1.00 17.20 LIG 0.04  C 
ATOM     44 O    PRO B   5      77.085 -19.259  46.294  1.00 12.24 LIG-0.27  OA
BRANCH 41 45
ATOM     45  C   PRO B   6      76.743 -19.478  43.385  1.00 14.54 LIG 0.24  C 
ATOM     46 O    PRO B   6      77.054 -18.285  43.393  1.00 15.72 LIG-0.27  OA
ATOM     47  N   ARG B   7      75.600 -19.923  42.883  1.00 15.59 LIG-0.35  N 
ATOM     48 H    ARG B   7      75.378 -20.754  42.858  1.00 15.59 LIG 0.16  HD
BRANCH 47 49
ATOM     49  CA  ARG B   7      74.603 -19.015  42.320  1.00 17.66 LIG 0.16  C 
BRANCH 49 50
ATOM     50  C   ARG B   7      74.049 -18.039  43.353  1.00 19.45 LIG 0.22  C 
ATOM     51 O    ARG B   7      73.073 -17.344  43.093  1.00 22.19 LIG-0.29  OA
ENDBRANCH 49 50
BRANCH 49 52
ATOM     52  CB  ARG B   7      73.479 -19.820  41.676  1.00 18.48 LIG 0.04  C 
BRANCH 52 53
ATOM     53  CG  ARG B   7      73.779 -20.159  40.232  1.00 19.62 LIG 0.02  C 
BRANCH 53 54
ATOM     54  CD  ARG B   7      74.593 -21.423  40.097  1.00 19.05 LIG 0.14  C 
BRANCH 54 55
ATOM     55  NE  ARG B   7      74.449 -22.252  41.287  1.00 16.94 LIG-0.23  N 
ATOM     56  CZ  ARG B   7      73.933 -23.478  41.307  1.00 14.04 LIG 0.67  C 
ATOM     57  NH1 ARG B   7      73.480 -24.050  40.202  1.00 13.87 LIG-0.23  N 
ATOM     58  NH2 ARG B   7      73.857 -24.132  42.452  1.00 14.07 LIG-0.23  N 
ATOM     59 2HH1 ARG B   7      73.149 -24.844  40.232  1.00 13.87 LIG 0.17  HD
ATOM     60 1HH1 ARG B   7      73.517 -23.628  39.454  1.00 13.87 LIG 0.17  HD
ATOM     61 1HH2 ARG B   7      74.141 -23.765  43.176  1.00 14.07 LIG 0.17  HD
ATOM     62 2HH2 ARG B   7      73.526 -24.924  42.474  1.00 14.07 LIG 0.17  HD
ATOM     63 HE   ARG B   7      74.718 -21.923  42.035  1.00 16.94 LIG 0.18  HD
ENDBRANCH 54 55
ENDBRANCH 53 54
ENDBRANCH 52 53
ENDBRANCH 49 52
ENDBRANCH 47 49
ENDBRANCH 41 45
ENDBRANCH 4 38
TORSDOF 16
ENDMDL
MODEL 17
USER: ADFR SOLUTION from run 66
USER: SCORE 17.224605 LL:  -4.656 LR: -12.642 RR:   0.000 FEB:  -7.869
USER: RMSD 12.798267
USER: SEED 65
USER: STATUS no improvement in best in 3 clusters for 5 generations
USER: GENES 18
USER: genes 0 Translation |==|  0.43900 0.43479 0.41959
USER: genes 1 Rotation |==|  0.15536 0.76282 0.74635 0.53822
USER: genes 2 Torsion [N]-C--CA-[N] |==|  0.37602
USER: genes 3 Torsion [C]-CA--N-[C] |==|  0.79641
USER: genes 4 Torsion [N]-C--CA-[N] |==|  0.35745
USER: genes 5 Torsion [N]-C--CA-[N] |==|  0.50745
USER: genes 6 Torsion [N]-C--CA-[N] |==|  0.37529
USER: genes 7 Torsion [C]-CA--N-[C] |==|  0.80579
USER: genes 8 Torsion [C]-CA--CB-[CG] |==|  0.26616
USER: genes 9 Torsion [CA]-CB--CG-[CD1] |==|  0.12302
USER: genes 10 Torsion [N]-CA--C-[N] |==|  0.41638
USER: genes 11 Torsion [N]-CA--C-[N] |==|  0.45270
USER: genes 12 Torsion [C]-N--CA-[C] |==|  0.19974
USER: genes 13 Torsion [N]-CA--C-[O] |==|  0.15193
USER: genes 14 Torsion [N]-CA--CB-[CG] |==|  0.38455
USER: genes 15 Torsion [CA]-CB--CG-[CD] |==|  0.57034
USER: genes 16 Torsion [CB]-CG--CD-[NE] |==|  0.39557
USER: genes 17 Torsion [CG]-CD--NE-[HE] |==|  0.79353
ROOT
ATOM      1  C   LEU B   4      77.655 -20.821  48.133  1.00 11.33 LIG 0.24  C 
ATOM      2 O    LEU B   4      78.349 -21.733  47.662  1.00 12.90 LIG-0.27  OA
ATOM      3  N   PRO B   5      77.883 -20.335  49.339  1.00 11.12 LIG-0.34  N 
ATOM      4  CA  PRO B   5      78.982 -20.836  50.124  1.00 12.55 LIG 0.18  C 
ATOM      5  CB  PRO B   5      79.180 -19.733  51.170  1.00 13.89 LIG 0.04  C 
ATOM      6  CG  PRO B   5      77.824 -19.173  51.363  1.00 12.43 LIG 0.02  C 
ATOM      7  CD  PRO B   5      77.133 -19.283  50.040  1.00 11.21 LIG 0.13  C 
ENDROOT
BRANCH 1 8
ATOM      8  CA  LEU B   4      76.520 -20.209  47.322  1.00 11.65 LIG 0.18  C 
BRANCH 8 9
ATOM      9  N   LEU B   4      76.973 -19.992  45.967  1.00 12.22 LIG-0.35  N 
ATOM     10  C   PRO B   3      77.820 -19.009  45.710  1.00 12.52 LIG 0.24  C 
ATOM     11 O    PRO B   3      78.168 -18.185  46.560  1.00 13.02 LIG-0.27  OA
ATOM     12 H    LEU B   4      76.655 -20.535  45.381  1.00 12.22 LIG 0.16  HD
BRANCH 10 13
ATOM     13  CA  PRO B   3      78.342 -18.944  44.284  1.00 15.46 LIG 0.18  C 
ATOM     14  N   PRO B   3      78.163 -17.595  43.741  1.00 15.16 LIG-0.34  N 
ATOM     15  CD  PRO B   3      79.448 -16.937  43.462  1.00 18.06 LIG 0.13  C 
ATOM     16  C   PRO B   2      76.941 -17.084  43.650  1.00 13.99 LIG 0.24  C 
ATOM     17  CG  PRO B   3      80.422 -17.773  44.218  1.00 19.92 LIG 0.02  C 
ATOM     18  CB  PRO B   3      79.859 -19.150  44.229  1.00 18.17 LIG 0.04  C 
ATOM     19 O    PRO B   2      75.943 -17.758  43.933  1.00 12.71 LIG-0.27  OA
BRANCH 16 20
ATOM     20  CA  PRO B   2      76.804 -15.629  43.244  1.00 15.85 LIG 0.18  C 
ATOM     21  CB  PRO B   2      77.450 -14.717  44.300  1.00 19.12 LIG 0.04  C 
ATOM     22  CG  PRO B   2      76.475 -13.657  44.605  1.00 19.63 LIG 0.02  C 
ATOM     23  CD  PRO B   2      75.139 -14.222  44.304  1.00 18.19 LIG 0.13  C 
ATOM     24  N   PRO B   2      75.411 -15.219  43.254  1.00 15.71 LIG-0.34  N 
ATOM     25  C   ALA B   1      74.550 -15.761  42.402  1.00 13.25 LIG 0.24  C 
ATOM     26 O    ALA B   1      74.869 -16.651  41.617  1.00 13.75 LIG-0.27  OA
BRANCH 25 27
ATOM     27  CA  ALA B   1      73.119 -15.253  42.466  1.00 12.47 LIG 0.17  C 
ATOM     28  CB  ALA B   1      72.248 -16.253  43.179  1.00 12.30 LIG 0.04  C 
BRANCH 27 29
ATOM     29  N   ALA B   1      72.613 -15.008  41.128  1.00 12.31 LIG-0.35  N 
ATOM     30 H    ALA B   1      72.007 -15.560  40.867  1.00 12.31 LIG 0.16  HD
ATOM     31  C   ACE B   0      73.073 -14.008  40.397  1.00 14.04 LIG 0.21  C 
ATOM     32  CH3 ACE B   0      72.475 -13.843  39.034  1.00 14.78 LIG 0.12  C 
ATOM     33 O    ACE B   0      73.955 -13.264  40.828  1.00 15.52 LIG-0.27  OA
ENDBRANCH 27 29
ENDBRANCH 25 27
ENDBRANCH 16 20
ENDBRANCH 10 13
ENDBRANCH 8 9
BRANCH 8 34
ATOM     34  CB  LEU B   4      75.300 -21.126  47.365  1.00 12.59 LIG 0.04  C 
BRANCH 34 35
ATOM     35  CG  LEU B   4      74.265 -20.767  48.429  1.00 12.74 LIG-0.02  C 
ATOM     36  CD1 LEU B   4      74.030 -19.269  48.429  1.00 14.33 LIG 0.01  C 
ATOM     37  CD2 LEU B   4      72.947 -21.506  48.227  1.00 11.50 LIG 0.01  C 
ENDBRANCH 34 35
ENDBRANCH 8 34
ENDBRANCH 1 8
BRANCH 4 38
ATOM     38  C   PRO B   5      78.614 -22.158  50.769  1.00 12.26 LIG 0.24  C 
ATOM     39  N   PRO B   6      79.592 -23.029  50.990  1.00 14.33 LIG-0.34  N 
ATOM     40  CD  PRO B   6      81.017 -22.895  50.656  1.00 16.43 LIG 0.13  C 
ATOM     41  CA  PRO B   6      79.301 -24.296  51.665  1.00 15.63 LIG 0.18  C 
ATOM     42  CG  PRO B   6      81.508 -24.303  50.697  1.00 18.90 LIG 0.02  C 
ATOM     43  CB  PRO B   6      80.649 -25.028  51.658  1.00 17.20 LIG 0.04  C 
ATOM     44 O    PRO B   5      77.445 -22.403  51.106  1.00 12.24 LIG-0.27  OA
BRANCH 41 45
ATOM     45  C   PRO B   6      78.824 -24.073  53.091  1.00 14.54 LIG 0.24  C 
ATOM     46 O    PRO B   6      79.015 -23.006  53.680  1.00 15.72 LIG-0.27  OA
ATOM     47  N   ARG B   7      78.213 -25.107  53.651  1.00 15.59 LIG-0.35  N 
ATOM     48 H    ARG B   7      78.060 -25.851  53.247  1.00 15.59 LIG 0.16  HD
BRANCH 47 49
ATOM     49  CA  ARG B   7      77.738 -25.062  55.032  1.00 17.66 LIG 0.16  C 
BRANCH 49 50
ATOM     50  C   ARG B   7      76.516 -24.164  55.204  1.00 19.45 LIG 0.22  C 
ATOM     51 O    ARG B   7      75.512 -24.341  54.522  1.00 22.19 LIG-0.29  OA
ENDBRANCH 49 50
BRANCH 49 52
ATOM     52  CB  ARG B   7      78.871 -24.618  55.951  1.00 18.48 LIG 0.04  C 
BRANCH 52 53
ATOM     53  CG  ARG B   7      78.399 -23.640  57.004  1.00 19.62 LIG 0.02  C 
BRANCH 53 54
ATOM     54  CD  ARG B   7      79.512 -22.749  57.500  1.00 19.05 LIG 0.14  C 
BRANCH 54 55
ATOM     55  NE  ARG B   7      79.015 -21.400  57.741  1.00 16.94 LIG-0.23  N 
ATOM     56  CZ  ARG B   7      78.792 -20.870  58.941  1.00 14.04 LIG 0.67  C 
ATOM     57  NH1 ARG B   7      78.999 -21.566  60.047  1.00 13.87 LIG-0.23  N 
ATOM     58  NH2 ARG B   7      78.342 -19.631  59.029  1.00 14.07 LIG-0.23  N 
ATOM     59 2HH1 ARG B   7      78.850 -21.207  60.815  1.00 13.87 LIG 0.17  HD
ATOM     60 1HH1 ARG B   7      79.283 -22.375  59.999  1.00 13.87 LIG 0.17  HD
ATOM     61 1HH2 ARG B   7      78.195 -19.175  58.314  1.00 14.07 LIG 0.17  HD
ATOM     62 2HH2 ARG B   7      78.195 -19.281  59.800  1.00 14.07 LIG 0.17  HD
ATOM     63 HE   ARG B   7      78.853 -20.908  57.053  1.00 16.94 LIG 0.18  HD
ENDBRANCH 54 55
ENDBRANCH 53 54
ENDBRANCH 52 53
ENDBRANCH 49 52
ENDBRANCH 47 49
ENDBRANCH 41 45
ENDBRANCH 4 38
TORSDOF 16
ENDMDL
MODEL 18
USER: ADFR SOLUTION from run 200
USER: SCORE 16.323286 LL:  -4.492 LR: -12.609 RR:   0.000 FEB:  -7.837
USER: RMSD 12.231782
USER: SEED 199
USER: STATUS no improvement in best in 8 clusters for 5 generations
USER: GENES 18
USER: genes 0 Translation |==|  0.48589 0.46330 0.44242
USER: genes 1 Rotation |==|  0.15239 0.75368 0.73820 0.58986
USER: genes 2 Torsion [N]-C--CA-[N] |==|  0.32228
USER: genes 3 Torsion [C]-CA--N-[C] |==|  0.84239
USER: genes 4 Torsion [N]-C--CA-[N] |==|  0.36647
USER: genes 5 Torsion [N]-C--CA-[N] |==|  0.52216
USER: genes 6 Torsion [N]-C--CA-[N] |==|  0.28955
USER: genes 7 Torsion [C]-CA--N-[C] |==|  0.59624
USER: genes 8 Torsion [C]-CA--CB-[CG] |==|  0.21456
USER: genes 9 Torsion [CA]-CB--CG-[CD1] |==|  0.21276
USER: genes 10 Torsion [N]-CA--C-[N] |==|  0.40974
USER: genes 11 Torsion [N]-CA--C-[N] |==|  0.45961
USER: genes 12 Torsion [C]-N--CA-[C] |==|  0.21527
USER: genes 13 Torsion [N]-CA--C-[O] |==|  0.06194
USER: genes 14 Torsion [N]-CA--CB-[CG] |==|  0.33088
USER: genes 15 Torsion [CA]-CB--CG-[CD] |==|  0.57909
USER: genes 16 Torsion [CB]-CG--CD-[NE] |==|  0.51774
USER: genes 17 Torsion [CG]-CD--NE-[HE] |==|  0.14225
ROOT
ATOM      1  C   LEU B   4      78.358 -20.137  48.749  1.00 11.33 LIG 0.24  C 
ATOM      2 O    LEU B   4      79.054 -21.030  48.246  1.00 12.90 LIG-0.27  OA
ATOM      3  N   PRO B   5      78.440 -19.840  50.033  1.00 11.12 LIG-0.34  N 
ATOM      4  CA  PRO B   5      79.381 -20.532  50.876  1.00 12.55 LIG 0.18  C 
ATOM      5  CB  PRO B   5      79.495 -19.602  52.090  1.00 13.89 LIG 0.04  C 
ATOM      6  CG  PRO B   5      78.163 -18.964  52.179  1.00 12.43 LIG 0.02  C 
ATOM      7  CD  PRO B   5      77.664 -18.836  50.774  1.00 11.21 LIG 0.13  C 
ENDROOT
BRANCH 1 8
ATOM      8  CA  LEU B   4      77.392 -19.329  47.892  1.00 11.65 LIG 0.18  C 
BRANCH 8 9
ATOM      9  N   LEU B   4      78.144 -18.591  46.902  1.00 12.22 LIG-0.35  N 
ATOM     10  C   PRO B   3      79.098 -17.761  47.291  1.00 12.52 LIG 0.24  C 
ATOM     11 O    PRO B   3      79.314 -17.496  48.477  1.00 13.02 LIG-0.27  OA
ATOM     12 H    LEU B   4      77.921 -18.739  46.085  1.00 12.22 LIG 0.16  HD
BRANCH 10 13
ATOM     13  CA  PRO B   3      79.922 -17.135  46.177  1.00 15.46 LIG 0.18  C 
ATOM     14  N   PRO B   3      80.032 -15.689  46.382  1.00 15.16 LIG-0.34  N 
ATOM     15  CD  PRO B   3      81.418 -15.271  46.643  1.00 18.06 LIG 0.13  C 
ATOM     16  C   PRO B   2      78.931 -14.947  46.411  1.00 13.99 LIG 0.24  C 
ATOM     17  CG  PRO B   3      82.093 -16.555  46.982  1.00 19.92 LIG 0.02  C 
ATOM     18  CB  PRO B   3      81.378 -17.611  46.216  1.00 18.17 LIG 0.04  C 
ATOM     19 O    PRO B   2      77.820 -15.442  46.182  1.00 12.71 LIG-0.27  OA
BRANCH 16 20
ATOM     20  CA  PRO B   2      79.065 -13.485  46.791  1.00 15.85 LIG 0.18  C 
ATOM     21  CB  PRO B   2      79.696 -13.352  48.187  1.00 19.12 LIG 0.04  C 
ATOM     22  CG  PRO B   2      78.858 -12.412  48.949  1.00 19.63 LIG 0.02  C 
ATOM     23  CD  PRO B   2      77.504 -12.487  48.354  1.00 18.19 LIG 0.13  C 
ATOM     24  N   PRO B   2      77.759 -12.872  46.955  1.00 15.71 LIG-0.34  N 
ATOM     25  C   ALA B   1      76.944 -12.749  45.915  1.00 13.25 LIG 0.24  C 
ATOM     26 O    ALA B   1      77.227 -13.182  44.799  1.00 13.75 LIG-0.27  OA
BRANCH 25 27
ATOM     27  CA  ALA B   1      75.608 -12.072  46.173  1.00 12.47 LIG 0.17  C 
ATOM     28  CB  ALA B   1      74.497 -12.864  45.535  1.00 12.30 LIG 0.04  C 
BRANCH 27 29
ATOM     29  N   ALA B   1      75.624 -10.717  45.653  1.00 12.31 LIG-0.35  N 
ATOM     30 H    ALA B   1      76.082 -10.615  44.932  1.00 12.31 LIG 0.16  HD
ATOM     31  C   ACE B   0      74.973  -9.744  46.265  1.00 14.04 LIG 0.21  C 
ATOM     32  CH3 ACE B   0      75.051  -8.386  45.637  1.00 14.78 LIG 0.12  C 
ATOM     33 O    ACE B   0      74.348  -9.958  47.304  1.00 15.52 LIG-0.27  OA
ENDBRANCH 27 29
ENDBRANCH 25 27
ENDBRANCH 16 20
ENDBRANCH 10 13
ENDBRANCH 8 9
BRANCH 8 34
ATOM     34  CB  LEU B   4      76.373 -20.261  47.242  1.00 12.59 LIG 0.04  C 
BRANCH 34 35
ATOM     35  CG  LEU B   4      75.259 -20.742  48.170  1.00 12.74 LIG-0.02  C 
ATOM     36  CD1 LEU B   4      74.245 -19.631  48.369  1.00 14.33 LIG 0.01  C 
ATOM     37  CD2 LEU B   4      74.570 -21.996  47.646  1.00 11.50 LIG 0.01  C 
ENDBRANCH 34 35
ENDBRANCH 8 34
ENDBRANCH 1 8
BRANCH 4 38
ATOM     38  C   PRO B   5      78.842 -21.895  51.265  1.00 12.26 LIG 0.24  C 
ATOM     39  N   PRO B   6      79.719 -22.879  51.437  1.00 14.33 LIG-0.34  N 
ATOM     40  CD  PRO B   6      81.178 -22.831  51.266  1.00 16.43 LIG 0.13  C 
ATOM     41  CA  PRO B   6      79.257 -24.199  51.872  1.00 15.63 LIG 0.18  C 
ATOM     42  CG  PRO B   6      81.548 -24.270  51.130  1.00 18.90 LIG 0.02  C 
ATOM     43  CB  PRO B   6      80.536 -25.045  51.878  1.00 17.20 LIG 0.04  C 
ATOM     44 O    PRO B   5      77.628 -22.077  51.446  1.00 12.24 LIG-0.27  OA
BRANCH 41 45
ATOM     45  C   PRO B   6      78.647 -24.148  53.263  1.00 14.54 LIG 0.24  C 
ATOM     46 O    PRO B   6      78.819 -23.183  54.012  1.00 15.72 LIG-0.27  OA
ATOM     47  N   ARG B   7      77.941 -25.214  53.610  1.00 15.59 LIG-0.35  N 
ATOM     48 H    ARG B   7      77.801 -25.887  53.093  1.00 15.59 LIG 0.16  HD
BRANCH 47 49
ATOM     49  CA  ARG B   7      77.330 -25.333  54.933  1.00 17.66 LIG 0.16  C 
BRANCH 49 50
ATOM     50  C   ARG B   7      76.055 -24.506  55.067  1.00 19.45 LIG 0.22  C 
ATOM     51 O    ARG B   7      75.420 -24.173  54.072  1.00 22.19 LIG-0.29  OA
ENDBRANCH 49 50
BRANCH 49 52
ATOM     52  CB  ARG B   7      78.344 -24.945  56.004  1.00 18.48 LIG 0.04  C 
BRANCH 52 53
ATOM     53  CG  ARG B   7      77.883 -23.757  56.820  1.00 19.62 LIG 0.02  C 
BRANCH 53 54
ATOM     54  CD  ARG B   7      79.038 -22.949  57.360  1.00 19.05 LIG 0.14  C 
BRANCH 54 55
ATOM     55  NE  ARG B   7      78.555 -21.909  58.259  1.00 16.94 LIG-0.23  N 
ATOM     56  CZ  ARG B   7      78.875 -20.620  58.179  1.00 14.04 LIG 0.67  C 
ATOM     57  NH1 ARG B   7      79.703 -20.175  57.247  1.00 13.87 LIG-0.23  N 
ATOM     58  NH2 ARG B   7      78.368 -19.770  59.054  1.00 14.07 LIG-0.23  N 
ATOM     59 2HH1 ARG B   7      79.900 -19.338  57.209  1.00 13.87 LIG 0.17  HD
ATOM     60 1HH1 ARG B   7      80.045 -20.723  56.679  1.00 13.87 LIG 0.17  HD
ATOM     61 1HH2 ARG B   7      77.837 -20.051  59.669  1.00 14.07 LIG 0.17  HD
ATOM     62 2HH2 ARG B   7      78.570 -18.936  59.010  1.00 14.07 LIG 0.17  HD
ATOM     63 HE   ARG B   7      78.021 -22.146  58.890  1.00 16.94 LIG 0.18  HD
ENDBRANCH 54 55
ENDBRANCH 53 54
ENDBRANCH 52 53
ENDBRANCH 49 52
ENDBRANCH 47 49
ENDBRANCH 41 45
ENDBRANCH 4 38
TORSDOF 16
ENDMDL
MODEL 19
USER: ADFR SOLUTION from run 56
USER: SCORE 16.322881 LL:  -4.428 LR: -12.589 RR:   0.000 FEB:  -7.816
USER: RMSD 12.855796
USER: SEED 55
USER: STATUS no improvement in best in 7 clusters for 5 generations
USER: GENES 18
USER: genes 0 Translation |==|  0.46135 0.45132 0.42856
USER: genes 1 Rotation |==|  0.17133 0.78711 0.73505 0.56555
USER: genes 2 Torsion [N]-C--CA-[N] |==|  0.32393
USER: genes 3 Torsion [C]-CA--N-[C] |==|  0.82222
USER: genes 4 Torsion [N]-C--CA-[N] |==|  0.31783
USER: genes 5 Torsion [N]-C--CA-[N] |==|  0.53480
USER: genes 6 Torsion [N]-C--CA-[N] |==|  0.17327
USER: genes 7 Torsion [C]-CA--N-[C] |==|  0.59065
USER: genes 8 Torsion [C]-CA--CB-[CG] |==|  0.17918
USER: genes 9 Torsion [CA]-CB--CG-[CD1] |==|  0.26269
USER: genes 10 Torsion [N]-CA--C-[N] |==|  0.39041
USER: genes 11 Torsion [N]-CA--C-[N] |==|  0.37827
USER: genes 12 Torsion [C]-N--CA-[C] |==|  0.77896
USER: genes 13 Torsion [N]-CA--C-[O] |==|  0.36611
USER: genes 14 Torsion [N]-CA--CB-[CG] |==|  0.09305
USER: genes 15 Torsion [CA]-CB--CG-[CD] |==|  0.24574
USER: genes 16 Torsion [CB]-CG--CD-[NE] |==|  0.12624
USER: genes 17 Torsion [CG]-CD--NE-[HE] |==|  0.69437
ROOT
ATOM      1  C   LEU B   4      77.990 -20.424  48.375  1.00 11.33 LIG 0.24  C 
ATOM      2 O    LEU B   4      78.555 -21.432  47.927  1.00 12.90 LIG-0.27  OA
ATOM      3  N   PRO B   5      78.231 -19.986  49.596  1.00 11.12 LIG-0.34  N 
ATOM      4  CA  PRO B   5      79.197 -20.657  50.428  1.00 12.55 LIG 0.18  C 
ATOM      5  CB  PRO B   5      79.513 -19.604  51.497  1.00 13.89 LIG 0.04  C 
ATOM      6  CG  PRO B   5      78.254 -18.838  51.630  1.00 12.43 LIG 0.02  C 
ATOM      7  CD  PRO B   5      77.622 -18.833  50.273  1.00 11.21 LIG 0.13  C 
ENDROOT
BRANCH 1 8
ATOM      8  CA  LEU B   4      77.007 -19.637  47.517  1.00 11.65 LIG 0.18  C 
BRANCH 8 9
ATOM      9  N   LEU B   4      77.705 -19.108  46.367  1.00 12.22 LIG-0.35  N 
ATOM     10  C   PRO B   3      78.672 -18.222  46.540  1.00 12.52 LIG 0.24  C 
ATOM     11 O    PRO B   3      78.945 -17.733  47.639  1.00 13.02 LIG-0.27  OA
ATOM     12 H    LEU B   4      77.442 -19.410  45.606  1.00 12.22 LIG 0.16  HD
BRANCH 10 13
ATOM     13  CA  PRO B   3      79.435 -17.827  45.286  1.00 15.46 LIG 0.18  C 
ATOM     14  N   PRO B   3      79.198 -16.415  44.975  1.00 15.16 LIG-0.34  N 
ATOM     15  CD  PRO B   3      80.424 -15.611  45.087  1.00 18.06 LIG 0.13  C 
ATOM     16  C   PRO B   2      77.961 -15.998  44.732  1.00 13.99 LIG 0.24  C 
ATOM     17  CG  PRO B   3      81.335 -16.500  45.860  1.00 19.92 LIG 0.02  C 
ATOM     18  CB  PRO B   3      80.951 -17.892  45.503  1.00 18.17 LIG 0.04  C 
ATOM     19 O    PRO B   2      77.016 -16.795  44.678  1.00 12.71 LIG-0.27  OA
BRANCH 16 20
ATOM     20  CA  PRO B   2      77.727 -14.507  44.579  1.00 15.85 LIG 0.18  C 
ATOM     21  CB  PRO B   2      78.281 -13.753  45.799  1.00 19.12 LIG 0.04  C 
ATOM     22  CG  PRO B   2      77.225 -12.831  46.249  1.00 19.63 LIG 0.02  C 
ATOM     23  CD  PRO B   2      75.941 -13.424  45.810  1.00 18.19 LIG 0.13  C 
ATOM     24  N   PRO B   2      76.308 -14.201  44.613  1.00 15.71 LIG-0.34  N 
ATOM     25  C   ALA B   1      75.507 -14.643  43.651  1.00 13.25 LIG 0.24  C 
ATOM     26 O    ALA B   1      75.907 -15.358  42.735  1.00 13.75 LIG-0.27  OA
BRANCH 25 27
ATOM     27  CA  ALA B   1      74.042 -14.252  43.753  1.00 12.47 LIG 0.17  C 
ATOM     28  CB  ALA B   1      73.255 -14.913  42.652  1.00 12.30 LIG 0.04  C 
BRANCH 27 29
ATOM     29  N   ALA B   1      73.900 -12.810  43.677  1.00 12.31 LIG-0.35  N 
ATOM     30 H    ALA B   1      74.482 -12.418  43.180  1.00 12.31 LIG 0.16  HD
ATOM     31  C   ACE B   0      72.940 -12.184  44.335  1.00 14.04 LIG 0.21  C 
ATOM     32  CH3 ACE B   0      72.883 -10.695  44.179  1.00 14.78 LIG 0.12  C 
ATOM     33 O    ACE B   0      72.149 -12.807  45.043  1.00 15.52 LIG-0.27  OA
ENDBRANCH 27 29
ENDBRANCH 25 27
ENDBRANCH 16 20
ENDBRANCH 10 13
ENDBRANCH 8 9
BRANCH 8 34
ATOM     34  CB  LEU B   4      75.846 -20.538  47.104  1.00 12.59 LIG 0.04  C 
BRANCH 34 35
ATOM     35  CG  LEU B   4      74.976 -21.033  48.257  1.00 12.74 LIG-0.02  C 
ATOM     36  CD1 LEU B   4      73.783 -20.112  48.429  1.00 14.33 LIG 0.01  C 
ATOM     37  CD2 LEU B   4      74.507 -22.468  48.053  1.00 11.50 LIG 0.01  C 
ENDBRANCH 34 35
ENDBRANCH 8 34
ENDBRANCH 1 8
BRANCH 4 38
ATOM     38  C   PRO B   5      78.594 -21.908  51.038  1.00 12.26 LIG 0.24  C 
ATOM     39  N   PRO B   6      79.364 -22.987  51.120  1.00 14.33 LIG-0.34  N 
ATOM     40  CD  PRO B   6      80.751 -23.146  50.659  1.00 16.43 LIG 0.13  C 
ATOM     41  CA  PRO B   6      78.851 -24.203  51.755  1.00 15.63 LIG 0.18  C 
ATOM     42  CG  PRO B   6      80.912 -24.628  50.582  1.00 18.90 LIG 0.02  C 
ATOM     43  CB  PRO B   6      79.994 -25.211  51.583  1.00 17.20 LIG 0.04  C 
ATOM     44 O    PRO B   5      77.431 -21.913  51.472  1.00 12.24 LIG-0.27  OA
BRANCH 41 45
ATOM     45  C   PRO B   6      78.555 -23.981  53.230  1.00 14.54 LIG 0.24  C 
ATOM     46 O    PRO B   6      79.341 -23.381  53.966  1.00 15.72 LIG-0.27  OA
ATOM     47  N   ARG B   7      77.410 -24.493  53.659  1.00 15.59 LIG-0.35  N 
ATOM     48 H    ARG B   7      76.846 -24.900  53.153  1.00 15.59 LIG 0.16  HD
BRANCH 47 49
ATOM     49  CA  ARG B   7      77.007 -24.402  55.061  1.00 17.66 LIG 0.16  C 
BRANCH 49 50
ATOM     50  C   ARG B   7      77.696 -25.442  55.939  1.00 19.45 LIG 0.22  C 
ATOM     51 O    ARG B   7      78.224 -25.115  56.996  1.00 22.19 LIG-0.29  OA
ENDBRANCH 49 50
BRANCH 49 52
ATOM     52  CB  ARG B   7      75.490 -24.520  55.169  1.00 18.48 LIG 0.04  C 
BRANCH 52 53
ATOM     53  CG  ARG B   7      74.916 -25.441  54.115  1.00 19.62 LIG 0.02  C 
BRANCH 53 54
ATOM     54  CD  ARG B   7      74.878 -26.880  54.571  1.00 19.05 LIG 0.14  C 
BRANCH 54 55
ATOM     55  NE  ARG B   7      74.358 -26.971  55.929  1.00 16.94 LIG-0.23  N 
ATOM     56  CZ  ARG B   7      73.095 -26.740  56.281  1.00 14.04 LIG 0.67  C 
ATOM     57  NH1 ARG B   7      72.188 -26.381  55.386  1.00 13.87 LIG-0.23  N 
ATOM     58  NH2 ARG B   7      72.743 -26.858  57.548  1.00 14.07 LIG-0.23  N 
ATOM     59 2HH1 ARG B   7      71.376 -26.236  55.630  1.00 13.87 LIG 0.17  HD
ATOM     60 1HH1 ARG B   7      72.411 -26.293  54.560  1.00 13.87 LIG 0.17  HD
ATOM     61 1HH2 ARG B   7      73.328 -27.082  58.138  1.00 14.07 LIG 0.17  HD
ATOM     62 2HH2 ARG B   7      71.930 -26.711  57.784  1.00 14.07 LIG 0.17  HD
ATOM     63 HE   ARG B   7      74.909 -27.191  56.551  1.00 16.94 LIG 0.18  HD
ENDBRANCH 54 55
ENDBRANCH 53 54
ENDBRANCH 52 53
ENDBRANCH 49 52
ENDBRANCH 47 49
ENDBRANCH 41 45
ENDBRANCH 4 38
TORSDOF 16
ENDMDL
MODEL 20
USER: ADFR SOLUTION from run 108
USER: SCORE 17.175777 LL:  -4.674 LR: -12.527 RR:   0.000 FEB:  -7.754
USER: RMSD 2.716343
USER: SEED 107
USER: STATUS no improvement in best in 12 clusters for 5 generations
USER: GENES 18
USER: genes 0 Translation |==|  0.46860 0.42739 0.43919
USER: genes 1 Rotation |==|  0.44986 0.52975 0.41702 0.98961
USER: genes 2 Torsion [N]-C--CA-[N] |==|  0.41658
USER: genes 3 Torsion [C]-CA--N-[C] |==|  0.82162
USER: genes 4 Torsion [N]-C--CA-[N] |==|  0.40979
USER: genes 5 Torsion [N]-C--CA-[N] |==|  0.47164
USER: genes 6 Torsion [N]-C--CA-[N] |==|  0.37788
USER: genes 7 Torsion [C]-CA--N-[C] |==|  0.81703
USER: genes 8 Torsion [C]-CA--CB-[CG] |==|  0.37236
USER: genes 9 Torsion [CA]-CB--CG-[CD1] |==|  0.95821
USER: genes 10 Torsion [N]-CA--C-[N] |==|  0.38682
USER: genes 11 Torsion [N]-CA--C-[N] |==|  0.94139
USER: genes 12 Torsion [C]-N--CA-[C] |==|  0.22583
USER: genes 13 Torsion [N]-CA--C-[O] |==|  0.37836
USER: genes 14 Torsion [N]-CA--CB-[CG] |==|  0.44790
USER: genes 15 Torsion [CA]-CB--CG-[CD] |==|  0.21571
USER: genes 16 Torsion [CB]-CG--CD-[NE] |==|  0.30314
USER: genes 17 Torsion [CG]-CD--NE-[HE] |==|  0.76077
ROOT
ATOM      1  C   LEU B   4      78.099 -20.999  48.662  1.00 11.33 LIG 0.24  C 
ATOM      2 O    LEU B   4      78.743 -21.767  47.935  1.00 12.90 LIG-0.27  OA
ATOM      3  N   PRO B   5      76.902 -20.563  48.315  1.00 11.12 LIG-0.34  N 
ATOM      4  CA  PRO B   5      76.299 -21.011  47.086  1.00 12.55 LIG 0.18  C 
ATOM      5  CB  PRO B   5      74.816 -20.683  47.299  1.00 13.89 LIG 0.04  C 
ATOM      6  CG  PRO B   5      74.834 -19.490  48.173  1.00 12.43 LIG 0.02  C 
ATOM      7  CD  PRO B   5      76.037 -19.632  49.052  1.00 11.21 LIG 0.13  C 
ENDROOT
BRANCH 1 8
ATOM      8  CA  LEU B   4      78.661 -20.544  50.003  1.00 11.65 LIG 0.18  C 
BRANCH 8 9
ATOM      9  N   LEU B   4      79.532 -21.573  50.523  1.00 12.22 LIG-0.35  N 
ATOM     10  C   PRO B   3      79.030 -22.756  50.839  1.00 12.52 LIG 0.24  C 
ATOM     11 O    PRO B   3      77.820 -22.999  50.816  1.00 13.02 LIG-0.27  OA
ATOM     12 H    LEU B   4      80.359 -21.352  50.600  1.00 12.22 LIG 0.16  HD
BRANCH 10 13
ATOM     13  CA  PRO B   3      80.042 -23.814  51.248  1.00 15.46 LIG 0.18  C 
ATOM     14  N   PRO B   3      79.457 -24.713  52.245  1.00 15.16 LIG-0.34  N 
ATOM     15  CD  PRO B   3      79.324 -26.088  51.740  1.00 18.06 LIG 0.13  C 
ATOM     16  C   PRO B   2      79.036 -24.219  53.404  1.00 13.99 LIG 0.24  C 
ATOM     17  CG  PRO B   3      79.480 -25.917  50.269  1.00 19.92 LIG 0.02  C 
ATOM     18  CB  PRO B   3      80.383 -24.749  50.084  1.00 18.17 LIG 0.04  C 
ATOM     19 O    PRO B   2      79.207 -23.028  53.692  1.00 12.71 LIG-0.27  OA
BRANCH 16 20
ATOM     20  CA  PRO B   2      78.285 -25.143  54.344  1.00 15.85 LIG 0.18  C 
ATOM     21  CB  PRO B   2      76.842 -25.347  53.851  1.00 19.12 LIG 0.04  C 
ATOM     22  CG  PRO B   2      75.960 -25.132  55.010  1.00 19.63 LIG 0.02  C 
ATOM     23  CD  PRO B   2      76.694 -24.234  55.930  1.00 18.19 LIG 0.13  C 
ATOM     24  N   PRO B   2      78.109 -24.525  55.646  1.00 15.71 LIG-0.34  N 
ATOM     25  C   ALA B   1      79.164 -24.259  56.406  1.00 13.25 LIG 0.24  C 
ATOM     26 O    ALA B   1      80.317 -24.470  56.033  1.00 13.75 LIG-0.27  OA
BRANCH 25 27
ATOM     27  CA  ALA B   1      78.886 -23.636  57.763  1.00 12.47 LIG 0.17  C 
ATOM     28  CB  ALA B   1      79.168 -22.158  57.720  1.00 12.30 LIG 0.04  C 
BRANCH 27 29
ATOM     29  N   ALA B   1      79.697 -24.274  58.784  1.00 12.31 LIG-0.35  N 
ATOM     30 H    ALA B   1      80.287 -23.763  59.145  1.00 12.31 LIG 0.16  HD
ATOM     31  C   ACE B   0      79.514 -25.543  59.106  1.00 14.04 LIG 0.21  C 
ATOM     32  CH3 ACE B   0      80.402 -26.096  60.178  1.00 14.78 LIG 0.12  C 
ATOM     33 O    ACE B   0      78.659 -26.222  58.537  1.00 15.52 LIG-0.27  OA
ENDBRANCH 27 29
ENDBRANCH 25 27
ENDBRANCH 16 20
ENDBRANCH 10 13
ENDBRANCH 8 9
BRANCH 8 34
ATOM     34  CB  LEU B   4      79.399 -19.218  49.832  1.00 12.59 LIG 0.04  C 
BRANCH 34 35
ATOM     35  CG  LEU B   4      79.075 -18.162  50.886  1.00 12.74 LIG-0.02  C 
ATOM     36  CD1 LEU B   4      77.819 -18.559  51.639  1.00 14.33 LIG 0.01  C 
ATOM     37  CD2 LEU B   4      80.226 -17.945  51.861  1.00 11.50 LIG 0.01  C 
ENDBRANCH 34 35
ENDBRANCH 8 34
ENDBRANCH 1 8
BRANCH 4 38
ATOM     38  C   PRO B   5      76.874 -20.252  45.906  1.00 12.26 LIG 0.24  C 
ATOM     39  N   PRO B   6      77.131 -20.938  44.798  1.00 14.33 LIG-0.34  N 
ATOM     40  CD  PRO B   6      76.957 -22.379  44.565  1.00 16.43 LIG 0.13  C 
ATOM     41  CA  PRO B   6      77.631 -20.244  43.609  1.00 15.63 LIG 0.18  C 
ATOM     42  CG  PRO B   6      77.818 -22.635  43.373  1.00 18.90 LIG 0.02  C 
ATOM     43  CB  PRO B   6      77.863 -21.375  42.600  1.00 17.20 LIG 0.04  C 
ATOM     44 O    PRO B   5      77.069 -19.028  45.964  1.00 12.24 LIG-0.27  OA
BRANCH 41 45
ATOM     45  C   PRO B   6      76.612 -19.252  43.071  1.00 14.54 LIG 0.24  C 
ATOM     46 O    PRO B   6      76.945 -18.303  42.357  1.00 15.72 LIG-0.27  OA
ATOM     47  N   ARG B   7      75.359 -19.473  43.439  1.00 15.59 LIG-0.35  N 
ATOM     48 H    ARG B   7      75.111 -20.139  43.924  1.00 15.59 LIG 0.16  HD
BRANCH 47 49
ATOM     49  CA  ARG B   7      74.272 -18.581  43.040  1.00 17.66 LIG 0.16  C 
BRANCH 49 50
ATOM     50  C   ARG B   7      73.772 -18.861  41.626  1.00 19.45 LIG 0.22  C 
ATOM     51 O    ARG B   7      72.570 -18.887  41.384  1.00 22.19 LIG-0.29  OA
ENDBRANCH 49 50
BRANCH 49 52
ATOM     52  CB  ARG B   7      74.722 -17.130  43.179  1.00 18.48 LIG 0.04  C 
BRANCH 52 53
ATOM     53  CG  ARG B   7      73.852 -16.186  42.377  1.00 19.62 LIG 0.02  C 
BRANCH 53 54
ATOM     54  CD  ARG B   7      72.532 -15.907  43.055  1.00 19.05 LIG 0.14  C 
BRANCH 54 55
ATOM     55  NE  ARG B   7      72.497 -14.539  43.557  1.00 16.94 LIG-0.23  N 
ATOM     56  CZ  ARG B   7      71.996 -13.496  42.900  1.00 14.04 LIG 0.67  C 
ATOM     57  NH1 ARG B   7      71.487 -13.631  41.685  1.00 13.87 LIG-0.23  N 
ATOM     58  NH2 ARG B   7      72.020 -12.302  43.463  1.00 14.07 LIG-0.23  N 
ATOM     59 2HH1 ARG B   7      71.167 -12.946  41.274  1.00 13.87 LIG 0.17  HD
ATOM     60 1HH1 ARG B   7      71.476 -14.403  41.307  1.00 13.87 LIG 0.17  HD
ATOM     61 1HH2 ARG B   7      72.358 -12.203  44.248  1.00 14.07 LIG 0.17  HD
ATOM     62 2HH2 ARG B   7      71.699 -11.623  43.046  1.00 14.07 LIG 0.17  HD
ATOM     63 HE   ARG B   7      72.826 -14.395  44.339  1.00 16.94 LIG 0.18  HD
ENDBRANCH 54 55
ENDBRANCH 53 54
ENDBRANCH 52 53
ENDBRANCH 49 52
ENDBRANCH 47 49
ENDBRANCH 41 45
ENDBRANCH 4 38
TORSDOF 16
ENDMDL
MODEL 21
USER: ADFR SOLUTION from run 30
USER: SCORE 17.044259 LL:  -5.713 LR: -12.490 RR:   0.000 FEB:  -7.717
USER: RMSD 7.132294
USER: SEED 29
USER: STATUS no improvement in best in 11 clusters for 5 generations
USER: GENES 18
USER: genes 0 Translation |==|  0.43988 0.56587 0.29149
USER: genes 1 Rotation |==|  0.77259 0.14205 0.65075 0.65761
USER: genes 2 Torsion [N]-C--CA-[N] |==|  0.44714
USER: genes 3 Torsion [C]-CA--N-[C] |==|  0.21374
USER: genes 4 Torsion [N]-C--CA-[N] |==|  0.40128
USER: genes 5 Torsion [N]-C--CA-[N] |==|  0.31225
USER: genes 6 Torsion [N]-C--CA-[N] |==|  0.42219
USER: genes 7 Torsion [C]-CA--N-[C] |==|  0.67227
USER: genes 8 Torsion [C]-CA--CB-[CG] |==|  0.41493
USER: genes 9 Torsion [CA]-CB--CG-[CD1] |==|  0.55108
USER: genes 10 Torsion [N]-CA--C-[N] |==|  0.43508
USER: genes 11 Torsion [N]-CA--C-[N] |==|  0.51698
USER: genes 12 Torsion [C]-N--CA-[C] |==|  0.49928
USER: genes 13 Torsion [N]-CA--C-[O] |==|  0.01232
USER: genes 14 Torsion [N]-CA--CB-[CG] |==|  0.14450
USER: genes 15 Torsion [CA]-CB--CG-[CD] |==|  0.55690
USER: genes 16 Torsion [CB]-CG--CD-[NE] |==|  0.23309
USER: genes 17 Torsion [CG]-CD--NE-[HE] |==|  0.98117
ROOT
ATOM      1  C   LEU B   4      77.668 -17.675  44.674  1.00 11.33 LIG 0.24  C 
ATOM      2 O    LEU B   4      77.910 -17.720  45.889  1.00 12.90 LIG-0.27  OA
ATOM      3  N   PRO B   5      77.879 -16.579  43.971  1.00 11.12 LIG-0.34  N 
ATOM      4  CA  PRO B   5      78.438 -15.411  44.602  1.00 12.55 LIG 0.18  C 
ATOM      5  CB  PRO B   5      78.948 -14.593  43.408  1.00 13.89 LIG 0.04  C 
ATOM      6  CG  PRO B   5      78.019 -14.942  42.311  1.00 12.43 LIG 0.02  C 
ATOM      7  CD  PRO B   5      77.614 -16.364  42.541  1.00 11.21 LIG 0.13  C 
ENDROOT
BRANCH 1 8
ATOM      8  CA  LEU B   4      77.136 -18.900  43.942  1.00 11.65 LIG 0.18  C 
BRANCH 8 9
ATOM      9  N   LEU B   4      77.395 -20.076  44.741  1.00 12.22 LIG-0.35  N 
ATOM     10  C   PRO B   3      76.632 -20.333  45.792  1.00 12.52 LIG 0.24  C 
ATOM     11 O    PRO B   3      75.765 -19.554  46.198  1.00 13.02 LIG-0.27  OA
ATOM     12 H    LEU B   4      78.054 -20.562  44.480  1.00 12.22 LIG 0.16  HD
BRANCH 10 13
ATOM     13  CA  PRO B   3      76.894 -21.659  46.488  1.00 15.46 LIG 0.18  C 
ATOM     14  N   PRO B   3      76.708 -21.515  47.934  1.00 15.16 LIG-0.34  N 
ATOM     15  CD  PRO B   3      75.580 -22.317  48.429  1.00 18.06 LIG 0.13  C 
ATOM     16  C   PRO B   2      77.463 -20.654  48.608  1.00 13.99 LIG 0.24  C 
ATOM     17  CG  PRO B   3      74.836 -22.649  47.182  1.00 19.92 LIG 0.02  C 
ATOM     18  CB  PRO B   3      75.855 -22.715  46.100  1.00 18.17 LIG 0.04  C 
ATOM     19 O    PRO B   2      78.378 -20.034  48.052  1.00 12.71 LIG-0.27  OA
BRANCH 16 20
ATOM     20  CA  PRO B   2      77.133 -20.406  50.068  1.00 15.85 LIG 0.18  C 
ATOM     21  CB  PRO B   2      77.137 -18.898  50.367  1.00 19.12 LIG 0.04  C 
ATOM     22  CG  PRO B   2      77.947 -18.704  51.580  1.00 19.63 LIG 0.02  C 
ATOM     23  CD  PRO B   2      78.895 -19.840  51.633  1.00 18.19 LIG 0.13  C 
ATOM     24  N   PRO B   2      78.184 -20.920  50.928  1.00 15.71 LIG-0.34  N 
ATOM     25  C   ALA B   1      78.424 -22.224  50.981  1.00 13.25 LIG 0.24  C 
ATOM     26 O    ALA B   1      77.820 -23.037  50.284  1.00 13.75 LIG-0.27  OA
BRANCH 25 27
ATOM     27  CA  ALA B   1      79.523 -22.676  51.929  1.00 12.47 LIG 0.17  C 
ATOM     28  CB  ALA B   1      80.860 -22.606  51.238  1.00 12.30 LIG 0.04  C 
BRANCH 27 29
ATOM     29  N   ALA B   1      79.265 -24.027  52.390  1.00 12.31 LIG-0.35  N 
ATOM     30 H    ALA B   1      79.252 -24.622  51.768  1.00 12.31 LIG 0.16  HD
ATOM     31  C   ACE B   0      79.070 -24.285  53.671  1.00 14.04 LIG 0.21  C 
ATOM     32  CH3 ACE B   0      78.819 -25.716  54.036  1.00 14.78 LIG 0.12  C 
ATOM     33 O    ACE B   0      79.087 -23.381  54.507  1.00 15.52 LIG-0.27  OA
ENDBRANCH 27 29
ENDBRANCH 25 27
ENDBRANCH 16 20
ENDBRANCH 10 13
ENDBRANCH 8 9
BRANCH 8 34
ATOM     34  CB  LEU B   4      75.645 -18.729  43.662  1.00 12.59 LIG 0.04  C 
BRANCH 34 35
ATOM     35  CG  LEU B   4      75.146 -19.420  42.395  1.00 12.74 LIG-0.02  C 
ATOM     36  CD1 LEU B   4      73.813 -18.827  41.981  1.00 14.33 LIG 0.01  C 
ATOM     37  CD2 LEU B   4      76.145 -19.319  41.249  1.00 11.50 LIG 0.01  C 
ENDBRANCH 34 35
ENDBRANCH 8 34
ENDBRANCH 1 8
BRANCH 4 38
ATOM     38  C   PRO B   5      77.369 -14.662  45.374  1.00 12.26 LIG 0.24  C 
ATOM     39  N   PRO B   6      77.765 -13.875  46.368  1.00 14.33 LIG-0.34  N 
ATOM     40  CD  PRO B   6      79.134 -13.648  46.853  1.00 16.43 LIG 0.13  C 
ATOM     41  CA  PRO B   6      76.779 -13.083  47.108  1.00 15.63 LIG 0.18  C 
ATOM     42  CG  PRO B   6      78.919 -13.081  48.217  1.00 18.90 LIG 0.02  C 
ATOM     43  CB  PRO B   6      77.613 -12.387  48.191  1.00 17.20 LIG 0.04  C 
ATOM     44 O    PRO B   5      76.170 -14.760  45.069  1.00 12.24 LIG-0.27  OA
BRANCH 41 45
ATOM     45  C   PRO B   6      76.103 -12.056  46.215  1.00 14.54 LIG 0.24  C 
ATOM     46 O    PRO B   6      76.319 -12.009  45.001  1.00 15.72 LIG-0.27  OA
ATOM     47  N   ARG B   7      75.290 -11.215  46.836  1.00 15.59 LIG-0.35  N 
ATOM     48 H    ARG B   7      75.119 -11.246  47.679  1.00 15.59 LIG 0.16  HD
BRANCH 47 49
ATOM     49  CA  ARG B   7      74.602 -10.142  46.121  1.00 17.66 LIG 0.16  C 
BRANCH 49 50
ATOM     50  C   ARG B   7      73.714  -9.302  47.034  1.00 19.45 LIG 0.22  C 
ATOM     51 O    ARG B   7      73.695  -9.505  48.243  1.00 22.19 LIG-0.29  OA
ENDBRANCH 49 50
BRANCH 49 52
ATOM     52  CB  ARG B   7      73.794 -10.729  44.968  1.00 18.48 LIG 0.04  C 
BRANCH 52 53
ATOM     53  CG  ARG B   7      72.888 -11.852  45.423  1.00 19.62 LIG 0.02  C 
BRANCH 53 54
ATOM     54  CD  ARG B   7      72.471 -12.750  44.283  1.00 19.05 LIG 0.14  C 
BRANCH 54 55
ATOM     55  NE  ARG B   7      73.493 -13.758  44.029  1.00 16.94 LIG-0.23  N 
ATOM     56  CZ  ARG B   7      73.370 -14.773  43.178  1.00 14.04 LIG 0.67  C 
ATOM     57  NH1 ARG B   7      72.258 -14.957  42.485  1.00 13.87 LIG-0.23  N 
ATOM     58  NH2 ARG B   7      74.372 -15.622  43.033  1.00 14.07 LIG-0.23  N 
ATOM     59 2HH1 ARG B   7      72.195 -15.620  41.939  1.00 13.87 LIG 0.17  HD
ATOM     60 1HH1 ARG B   7      71.597 -14.415  42.581  1.00 13.87 LIG 0.17  HD
ATOM     61 1HH2 ARG B   7      75.095 -15.515  43.486  1.00 14.07 LIG 0.17  HD
ATOM     62 2HH2 ARG B   7      74.301 -16.281  42.485  1.00 14.07 LIG 0.17  HD
ATOM     63 HE   ARG B   7      74.233 -13.690  44.463  1.00 16.94 LIG 0.18  HD
ENDBRANCH 54 55
ENDBRANCH 53 54
ENDBRANCH 52 53
ENDBRANCH 49 52
ENDBRANCH 47 49
ENDBRANCH 41 45
ENDBRANCH 4 38
TORSDOF 16
ENDMDL
MODEL 22
USER: ADFR SOLUTION from run 134
USER: SCORE 16.971040 LL:  -5.080 LR: -12.473 RR:   0.000 FEB:  -7.700
USER: RMSD 5.819548
USER: SEED 133
USER: STATUS no improvement in best in 8 clusters for 5 generations
USER: GENES 18
USER: genes 0 Translation |==|  0.66656 0.55981 0.53047
USER: genes 1 Rotation |==|  0.70124 0.29707 0.71144 0.85159
USER: genes 2 Torsion [N]-C--CA-[N] |==|  0.38534
USER: genes 3 Torsion [C]-CA--N-[C] |==|  0.60014
USER: genes 4 Torsion [N]-C--CA-[N] |==|  0.31978
USER: genes 5 Torsion [N]-C--CA-[N] |==|  0.49377
USER: genes 6 Torsion [N]-C--CA-[N] |==|  0.82778
USER: genes 7 Torsion [C]-CA--N-[C] |==|  0.83677
USER: genes 8 Torsion [C]-CA--CB-[CG] |==|  0.28154
USER: genes 9 Torsion [CA]-CB--CG-[CD1] |==|  0.74127
USER: genes 10 Torsion [N]-CA--C-[N] |==|  0.49706
USER: genes 11 Torsion [N]-CA--C-[N] |==|  0.86537
USER: genes 12 Torsion [C]-N--CA-[C] |==|  0.49787
USER: genes 13 Torsion [N]-CA--C-[O] |==|  0.02988
USER: genes 14 Torsion [N]-CA--CB-[CG] |==|  0.20882
USER: genes 15 Torsion [CA]-CB--CG-[CD] |==|  0.58044
USER: genes 16 Torsion [CB]-CG--CD-[NE] |==|  0.94697
USER: genes 17 Torsion [CG]-CD--NE-[HE] |==|  0.15467
ROOT
ATOM      1  C   LEU B   4      81.068 -17.821  51.127  1.00 11.33 LIG 0.24  C 
ATOM      2 O    LEU B   4      81.854 -17.006  51.631  1.00 12.90 LIG-0.27  OA
ATOM      3  N   PRO B   5      80.687 -17.720  49.867  1.00 11.12 LIG-0.34  N 
ATOM      4  CA  PRO B   5      81.214 -16.670  49.034  1.00 12.55 LIG 0.18  C 
ATOM      5  CB  PRO B   5      80.919 -17.182  47.619  1.00 13.89 LIG 0.04  C 
ATOM      6  CG  PRO B   5      79.683 -17.979  47.775  1.00 12.43 LIG 0.02  C 
ATOM      7  CD  PRO B   5      79.745 -18.585  49.142  1.00 11.21 LIG 0.13  C 
ENDROOT
BRANCH 1 8
ATOM      8  CA  LEU B   4      80.529 -18.988  51.943  1.00 11.65 LIG 0.18  C 
BRANCH 8 9
ATOM      9  N   LEU B   4      81.595 -19.524  52.760  1.00 12.22 LIG-0.35  N 
ATOM     10  C   PRO B   3      81.660 -20.828  52.976  1.00 12.52 LIG 0.24  C 
ATOM     11 O    PRO B   3      80.785 -21.614  52.602  1.00 13.02 LIG-0.27  OA
ATOM     12 H    LEU B   4      82.147 -18.944  53.071  1.00 12.22 LIG 0.16  HD
BRANCH 10 13
ATOM     13  CA  PRO B   3      82.887 -21.310  53.732  1.00 15.46 LIG 0.18  C 
ATOM     14  N   PRO B   3      82.495 -21.871  55.027  1.00 15.16 LIG-0.34  N 
ATOM     15  CD  PRO B   3      82.781 -23.311  55.116  1.00 18.06 LIG 0.13  C 
ATOM     16  C   PRO B   2      81.868 -21.102  55.910  1.00 13.99 LIG 0.24  C 
ATOM     17  CG  PRO B   3      82.997 -23.695  53.693  1.00 19.92 LIG 0.02  C 
ATOM     18  CB  PRO B   3      83.559 -22.491  53.023  1.00 18.17 LIG 0.04  C 
ATOM     19 O    PRO B   2      81.686 -19.897  55.693  1.00 12.71 LIG-0.27  OA
BRANCH 16 20
ATOM     20  CA  PRO B   2      81.328 -21.753  57.168  1.00 15.85 LIG 0.18  C 
ATOM     21  CB  PRO B   2      80.156 -22.688  56.824  1.00 19.12 LIG 0.04  C 
ATOM     22  CG  PRO B   2      79.063 -22.365  57.756  1.00 19.63 LIG 0.02  C 
ATOM     23  CD  PRO B   2      79.266 -20.956  58.162  1.00 18.19 LIG 0.13  C 
ATOM     24  N   PRO B   2      80.722 -20.765  58.042  1.00 15.71 LIG-0.34  N 
ATOM     25  C   ALA B   1      81.467 -19.816  58.595  1.00 13.25 LIG 0.24  C 
ATOM     26 O    ALA B   1      82.669 -19.699  58.360  1.00 13.75 LIG-0.27  OA
BRANCH 25 27
ATOM     27  CA  ALA B   1      80.755 -18.841  59.517  1.00 12.47 LIG 0.17  C 
ATOM     28  CB  ALA B   1      80.126 -19.583  60.667  1.00 12.30 LIG 0.04  C 
BRANCH 27 29
ATOM     29  N   ALA B   1      79.745 -18.103  58.781  1.00 12.31 LIG-0.35  N 
ATOM     30 H    ALA B   1      78.945 -18.189  59.086  1.00 12.31 LIG 0.16  HD
ATOM     31  C   ACE B   0      80.066 -17.367  57.732  1.00 14.04 LIG 0.21  C 
ATOM     32  CH3 ACE B   0      78.945 -16.642  57.053  1.00 14.78 LIG 0.12  C 
ATOM     33 O    ACE B   0      81.231 -17.301  57.341  1.00 15.52 LIG-0.27  OA
ENDBRANCH 27 29
ENDBRANCH 25 27
ENDBRANCH 16 20
ENDBRANCH 10 13
ENDBRANCH 8 9
BRANCH 8 34
ATOM     34  CB  LEU B   4      79.350 -18.524  52.794  1.00 12.59 LIG 0.04  C 
BRANCH 34 35
ATOM     35  CG  LEU B   4      77.975 -18.893  52.242  1.00 12.74 LIG-0.02  C 
ATOM     36  CD1 LEU B   4      77.441 -17.754  51.394  1.00 14.33 LIG 0.01  C 
ATOM     37  CD2 LEU B   4      78.004 -20.183  51.431  1.00 11.50 LIG 0.01  C 
ENDBRANCH 34 35
ENDBRANCH 8 34
ENDBRANCH 1 8
BRANCH 4 38
ATOM     38  C   PRO B   5      80.500 -15.362  49.314  1.00 12.26 LIG 0.24  C 
ATOM     39  N   PRO B   6      80.891 -14.289  48.635  1.00 14.33 LIG-0.34  N 
ATOM     40  CD  PRO B   6      81.972 -14.189  47.644  1.00 16.43 LIG 0.13  C 
ATOM     41  CA  PRO B   6      80.195 -13.014  48.822  1.00 15.63 LIG 0.18  C 
ATOM     42  CG  PRO B   6      82.245 -12.723  47.590  1.00 18.90 LIG 0.02  C 
ATOM     43  CB  PRO B   6      80.980 -12.039  47.936  1.00 17.20 LIG 0.04  C 
ATOM     44 O    PRO B   5      79.563 -15.303  50.126  1.00 12.24 LIG-0.27  OA
BRANCH 41 45
ATOM     45  C   PRO B   6      78.746 -13.095  48.369  1.00 14.54 LIG 0.24  C 
ATOM     46 O    PRO B   6      77.820 -12.701  49.083  1.00 15.72 LIG-0.27  OA
ATOM     47  N   ARG B   7      78.557 -13.632  47.173  1.00 15.59 LIG-0.35  N 
ATOM     48 H    ARG B   7      79.194 -13.897  46.659  1.00 15.59 LIG 0.16  HD
BRANCH 47 49
ATOM     49  CA  ARG B   7      77.218 -13.820  46.619  1.00 17.66 LIG 0.16  C 
BRANCH 49 50
ATOM     50  C   ARG B   7      77.241 -14.437  45.224  1.00 19.45 LIG 0.22  C 
ATOM     51 O    ARG B   7      78.280 -14.899  44.764  1.00 22.19 LIG-0.29  OA
ENDBRANCH 49 50
BRANCH 49 52
ATOM     52  CB  ARG B   7      76.473 -12.490  46.612  1.00 18.48 LIG 0.04  C 
BRANCH 52 53
ATOM     53  CG  ARG B   7      76.959 -11.572  45.511  1.00 19.62 LIG 0.02  C 
BRANCH 53 54
ATOM     54  CD  ARG B   7      76.801 -10.114  45.868  1.00 19.05 LIG 0.14  C 
BRANCH 54 55
ATOM     55  NE  ARG B   7      75.836  -9.956  46.948  1.00 16.94 LIG-0.23  N 
ATOM     56  CZ  ARG B   7      74.750  -9.188  46.897  1.00 14.04 LIG 0.67  C 
ATOM     57  NH1 ARG B   7      74.466  -8.472  45.821  1.00 13.87 LIG-0.23  N 
ATOM     58  NH2 ARG B   7      73.947  -9.130  47.944  1.00 14.07 LIG-0.23  N 
ATOM     59 2HH1 ARG B   7      73.760  -7.981  45.804  1.00 13.87 LIG 0.17  HD
ATOM     60 1HH1 ARG B   7      74.988  -8.497  45.138  1.00 13.87 LIG 0.17  HD
ATOM     61 1HH2 ARG B   7      74.129  -9.585  48.651  1.00 14.07 LIG 0.17  HD
ATOM     62 2HH2 ARG B   7      73.244  -8.637  47.920  1.00 14.07 LIG 0.17  HD
ATOM     63 HE   ARG B   7      75.979 -10.392  47.675  1.00 16.94 LIG 0.18  HD
ENDBRANCH 54 55
ENDBRANCH 53 54
ENDBRANCH 52 53
ENDBRANCH 49 52
ENDBRANCH 47 49
ENDBRANCH 41 45
ENDBRANCH 4 38
TORSDOF 16
ENDMDL
MODEL 23
USER: ADFR SOLUTION from run 144
USER: SCORE 17.391586 LL:  -5.192 LR: -12.451 RR:   0.000 FEB:  -7.678
USER: RMSD 12.974624
USER: SEED 143
USER: STATUS no improvement in best in 4 clusters for 5 generations
USER: GENES 18
USER: genes 0 Translation |==|  0.40874 0.41708 0.40892
USER: genes 1 Rotation |==|  0.15515 0.77788 0.73195 0.50751
USER: genes 2 Torsion [N]-C--CA-[N] |==|  0.36598
USER: genes 3 Torsion [C]-CA--N-[C] |==|  0.78689
USER: genes 4 Torsion [N]-C--CA-[N] |==|  0.31098
USER: genes 5 Torsion [N]-C--CA-[N] |==|  0.38028
USER: genes 6 Torsion [N]-C--CA-[N] |==|  0.85012
USER: genes 7 Torsion [C]-CA--N-[C] |==|  0.82725
USER: genes 8 Torsion [C]-CA--CB-[CG] |==|  0.23381
USER: genes 9 Torsion [CA]-CB--CG-[CD1] |==|  0.12145
USER: genes 10 Torsion [N]-CA--C-[N] |==|  0.37103
USER: genes 11 Torsion [N]-CA--C-[N] |==|  0.41963
USER: genes 12 Torsion [C]-N--CA-[C] |==|  0.66368
USER: genes 13 Torsion [N]-CA--C-[O] |==|  0.72378
USER: genes 14 Torsion [N]-CA--CB-[CG] |==|  0.05539
USER: genes 15 Torsion [CA]-CB--CG-[CD] |==|  0.20395
USER: genes 16 Torsion [CB]-CG--CD-[NE] |==|  0.16679
USER: genes 17 Torsion [CG]-CD--NE-[HE] |==|  0.76970
ROOT
ATOM      1  C   LEU B   4      77.201 -21.246  47.845  1.00 11.33 LIG 0.24  C 
ATOM      2 O    LEU B   4      77.897 -22.208  47.489  1.00 12.90 LIG-0.27  OA
ATOM      3  N   PRO B   5      77.455 -20.588  48.960  1.00 11.12 LIG-0.34  N 
ATOM      4  CA  PRO B   5      78.583 -20.956  49.776  1.00 12.55 LIG 0.18  C 
ATOM      5  CB  PRO B   5      78.791 -19.710  50.646  1.00 13.89 LIG 0.04  C 
ATOM      6  CG  PRO B   5      77.432 -19.146  50.797  1.00 12.43 LIG 0.02  C 
ATOM      7  CD  PRO B   5      76.707 -19.456  49.525  1.00 11.21 LIG 0.13  C 
ENDROOT
BRANCH 1 8
ATOM      8  CA  LEU B   4      76.033 -20.773  46.989  1.00 11.65 LIG 0.18  C 
BRANCH 8 9
ATOM      9  N   LEU B   4      76.469 -20.666  45.615  1.00 12.22 LIG-0.35  N 
ATOM     10  C   PRO B   3      77.209 -19.635  45.242  1.00 12.52 LIG 0.24  C 
ATOM     11 O    PRO B   3      77.463 -18.686  45.989  1.00 13.02 LIG-0.27  OA
ATOM     12 H    LEU B   4      76.214 -21.303  45.097  1.00 12.22 LIG 0.16  HD
BRANCH 10 13
ATOM     13  CA  PRO B   3      77.731 -19.679  43.814  1.00 15.46 LIG 0.18  C 
ATOM     14  N   PRO B   3      77.090 -18.636  43.010  1.00 15.16 LIG-0.34  N 
ATOM     15  CD  PRO B   3      78.053 -17.623  42.550  1.00 18.06 LIG 0.13  C 
ATOM     16  C   PRO B   2      75.770 -18.643  42.860  1.00 13.99 LIG 0.24  C 
ATOM     17  CG  PRO B   3      79.233 -17.865  43.427  1.00 19.92 LIG 0.02  C 
ATOM     18  CB  PRO B   3      79.218 -19.317  43.745  1.00 18.17 LIG 0.04  C 
ATOM     19 O    PRO B   2      75.080 -19.563  43.315  1.00 12.71 LIG-0.27  OA
BRANCH 16 20
ATOM     20  CA  PRO B   2      75.124 -17.460  42.165  1.00 15.85 LIG 0.18  C 
ATOM     21  CB  PRO B   2      74.329 -16.616  43.176  1.00 19.12 LIG 0.04  C 
ATOM     22  CG  PRO B   2      73.003 -16.377  42.584  1.00 19.63 LIG 0.02  C 
ATOM     23  CD  PRO B   2      72.757 -17.498  41.649  1.00 18.19 LIG 0.13  C 
ATOM     24  N   PRO B   2      74.108 -17.904  41.227  1.00 15.71 LIG-0.34  N 
ATOM     25  C   ALA B   1      74.450 -18.617  40.162  1.00 13.25 LIG 0.24  C 
ATOM     26 O    ALA B   1      75.608 -18.973  39.948  1.00 13.75 LIG-0.27  OA
BRANCH 25 27
ATOM     27  CA  ALA B   1      73.326 -19.016  39.221  1.00 12.47 LIG 0.17  C 
ATOM     28  CB  ALA B   1      72.773 -17.796  38.532  1.00 12.30 LIG 0.04  C 
BRANCH 27 29
ATOM     29  N   ALA B   1      72.276 -19.699  39.954  1.00 12.31 LIG-0.35  N 
ATOM     30 H    ALA B   1      71.514 -19.301  39.943  1.00 12.31 LIG 0.16  HD
ATOM     31  C   ACE B   0      72.511 -20.841  40.576  1.00 14.04 LIG 0.21  C 
ATOM     32  CH3 ACE B   0      71.353 -21.462  41.295  1.00 14.78 LIG 0.12  C 
ATOM     33 O    ACE B   0      73.633 -21.348  40.563  1.00 15.52 LIG-0.27  OA
ENDBRANCH 27 29
ENDBRANCH 25 27
ENDBRANCH 16 20
ENDBRANCH 10 13
ENDBRANCH 8 9
BRANCH 8 34
ATOM     34  CB  LEU B   4      74.861 -21.740  47.132  1.00 12.59 LIG 0.04  C 
BRANCH 34 35
ATOM     35  CG  LEU B   4      73.965 -21.488  48.342  1.00 12.74 LIG-0.02  C 
ATOM     36  CD1 LEU B   4      73.694 -20.001  48.477  1.00 14.33 LIG 0.01  C 
ATOM     37  CD2 LEU B   4      72.652 -22.256  48.260  1.00 11.50 LIG 0.01  C 
ENDBRANCH 34 35
ENDBRANCH 8 34
ENDBRANCH 1 8
BRANCH 4 38
ATOM     38  C   PRO B   5      78.256 -22.175  50.616  1.00 12.26 LIG 0.24  C 
ATOM     39  N   PRO B   6      79.152 -23.155  50.656  1.00 14.33 LIG-0.34  N 
ATOM     40  CD  PRO B   6      80.441 -23.232  49.953  1.00 16.43 LIG 0.13  C 
ATOM     41  CA  PRO B   6      78.913 -24.328  51.499  1.00 15.63 LIG 0.18  C 
ATOM     42  CG  PRO B   6      80.762 -24.688  49.997  1.00 18.90 LIG 0.02  C 
ATOM     43  CB  PRO B   6      80.118 -25.232  51.212  1.00 17.20 LIG 0.04  C 
ATOM     44 O    PRO B   5      77.201 -22.242  51.266  1.00 12.24 LIG-0.27  OA
BRANCH 41 45
ATOM     45  C   PRO B   6      78.866 -23.957  52.973  1.00 14.54 LIG 0.24  C 
ATOM     46 O    PRO B   6      79.509 -23.006  53.424  1.00 15.72 LIG-0.27  OA
ATOM     47  N   ARG B   7      78.105 -24.737  53.728  1.00 15.59 LIG-0.35  N 
ATOM     48 H    ARG B   7      77.640 -25.394  53.424  1.00 15.59 LIG 0.16  HD
BRANCH 47 49
ATOM     49  CA  ARG B   7      77.994 -24.536  55.171  1.00 17.66 LIG 0.16  C 
BRANCH 49 50
ATOM     50  C   ARG B   7      78.428 -25.761  55.969  1.00 19.45 LIG 0.22  C 
ATOM     51 O    ARG B   7      77.594 -26.540  56.418  1.00 22.19 LIG-0.29  OA
ENDBRANCH 49 50
BRANCH 49 52
ATOM     52  CB  ARG B   7      76.566 -24.135  55.526  1.00 18.48 LIG 0.04  C 
BRANCH 52 53
ATOM     53  CG  ARG B   7      75.583 -24.514  54.440  1.00 19.62 LIG 0.02  C 
BRANCH 53 54
ATOM     54  CD  ARG B   7      75.320 -26.000  54.399  1.00 19.05 LIG 0.14  C 
BRANCH 54 55
ATOM     55  NE  ARG B   7      74.766 -26.455  55.668  1.00 16.94 LIG-0.23  N 
ATOM     56  CZ  ARG B   7      73.472 -26.632  55.918  1.00 14.04 LIG 0.67  C 
ATOM     57  NH1 ARG B   7      72.554 -26.381  54.997  1.00 13.87 LIG-0.23  N 
ATOM     58  NH2 ARG B   7      73.093 -27.051  57.112  1.00 14.07 LIG-0.23  N 
ATOM     59 2HH1 ARG B   7      71.721 -26.501  55.176  1.00 13.87 LIG 0.17  HD
ATOM     60 1HH1 ARG B   7      72.792 -26.099  54.221  1.00 13.87 LIG 0.17  HD
ATOM     61 1HH2 ARG B   7      73.682 -27.208  57.720  1.00 14.07 LIG 0.17  HD
ATOM     62 2HH2 ARG B   7      72.259 -27.168  57.282  1.00 14.07 LIG 0.17  HD
ATOM     63 HE   ARG B   7      75.320 -26.622  56.305  1.00 16.94 LIG 0.18  HD
ENDBRANCH 54 55
ENDBRANCH 53 54
ENDBRANCH 52 53
ENDBRANCH 49 52
ENDBRANCH 47 49
ENDBRANCH 41 45
ENDBRANCH 4 38
TORSDOF 16
ENDMDL
MODEL 24
USER: ADFR SOLUTION from run 143
USER: SCORE 17.108402 LL:  -4.707 LR: -12.420 RR:   0.000 FEB:  -7.647
USER: RMSD 12.945313
USER: SEED 142
USER: STATUS no improvement in best in 6 clusters for 5 generations
USER: GENES 18
USER: genes 0 Translation |==|  0.41936 0.41966 0.41367
USER: genes 1 Rotation |==|  0.85930 0.26660 0.24295 0.51888
USER: genes 2 Torsion [N]-C--CA-[N] |==|  0.38188
USER: genes 3 Torsion [C]-CA--N-[C] |==|  0.82248
USER: genes 4 Torsion [N]-C--CA-[N] |==|  0.41306
USER: genes 5 Torsion [N]-C--CA-[N] |==|  0.49265
USER: genes 6 Torsion [N]-C--CA-[N] |==|  0.40000
USER: genes 7 Torsion [C]-CA--N-[C] |==|  0.79646
USER: genes 8 Torsion [C]-CA--CB-[CG] |==|  0.31010
USER: genes 9 Torsion [CA]-CB--CG-[CD1] |==|  0.04987
USER: genes 10 Torsion [N]-CA--C-[N] |==|  0.42351
USER: genes 11 Torsion [N]-CA--C-[N] |==|  0.69870
USER: genes 12 Torsion [C]-N--CA-[C] |==|  0.58086
USER: genes 13 Torsion [N]-CA--C-[O] |==|  0.02404
USER: genes 14 Torsion [N]-CA--CB-[CG] |==|  0.70227
USER: genes 15 Torsion [CA]-CB--CG-[CD] |==|  0.28192
USER: genes 16 Torsion [CB]-CG--CD-[NE] |==|  0.45652
USER: genes 17 Torsion [CG]-CD--NE-[HE] |==|  0.85677
ROOT
ATOM      1  C   LEU B   4      77.360 -21.184  47.973  1.00 11.33 LIG 0.24  C 
ATOM      2 O    LEU B   4      78.194 -21.960  47.485  1.00 12.90 LIG-0.27  OA
ATOM      3  N   PRO B   5      77.592 -20.549  49.107  1.00 11.12 LIG-0.34  N 
ATOM      4  CA  PRO B   5      78.850 -20.719  49.787  1.00 12.55 LIG 0.18  C 
ATOM      5  CB  PRO B   5      78.894 -19.506  50.725  1.00 13.89 LIG 0.04  C 
ATOM      6  CG  PRO B   5      77.472 -19.245  51.040  1.00 12.43 LIG 0.02  C 
ATOM      7  CD  PRO B   5      76.695 -19.629  49.820  1.00 11.21 LIG 0.13  C 
ENDROOT
BRANCH 1 8
ATOM      8  CA  LEU B   4      76.039 -20.917  47.265  1.00 11.65 LIG 0.18  C 
BRANCH 8 9
ATOM      9  N   LEU B   4      76.283 -20.782  45.846  1.00 12.22 LIG-0.35  N 
ATOM     10  C   PRO B   3      77.028 -19.783  45.404  1.00 12.52 LIG 0.24  C 
ATOM     11 O    PRO B   3      77.445 -18.881  46.136  1.00 13.02 LIG-0.27  OA
ATOM     12 H    LEU B   4      75.917 -21.382  45.351  1.00 12.22 LIG 0.16  HD
BRANCH 10 13
ATOM     13  CA  PRO B   3      77.340 -19.801  43.916  1.00 15.46 LIG 0.18  C 
ATOM     14  N   PRO B   3      77.473 -18.433  43.410  1.00 15.16 LIG-0.34  N 
ATOM     15  CD  PRO B   3      78.838 -18.145  42.945  1.00 18.06 LIG 0.13  C 
ATOM     16  C   PRO B   2      76.443 -17.599  43.503  1.00 13.99 LIG 0.24  C 
ATOM     17  CG  PRO B   3      79.634 -19.252  43.546  1.00 19.92 LIG 0.02  C 
ATOM     18  CB  PRO B   3      78.714 -20.418  43.635  1.00 18.17 LIG 0.04  C 
ATOM     19 O    PRO B   2      75.346 -17.982  43.929  1.00 12.71 LIG-0.27  OA
BRANCH 16 20
ATOM     20  CA  PRO B   2      76.664 -16.147  43.126  1.00 15.85 LIG 0.18  C 
ATOM     21  CB  PRO B   2      77.580 -15.462  44.155  1.00 19.12 LIG 0.04  C 
ATOM     22  CG  PRO B   2      76.929 -14.197  44.532  1.00 19.63 LIG 0.02  C 
ATOM     23  CD  PRO B   2      75.479 -14.391  44.304  1.00 18.19 LIG 0.13  C 
ATOM     24  N   PRO B   2      75.427 -15.393  43.226  1.00 15.71 LIG-0.34  N 
ATOM     25  C   ALA B   1      74.410 -15.670  42.419  1.00 13.25 LIG 0.24  C 
ATOM     26 O    ALA B   1      74.446 -16.590  41.604  1.00 13.75 LIG-0.27  OA
BRANCH 25 27
ATOM     27  CA  ALA B   1      73.165 -14.814  42.575  1.00 12.47 LIG 0.17  C 
ATOM     28  CB  ALA B   1      72.190 -15.487  43.506  1.00 12.30 LIG 0.04  C 
BRANCH 27 29
ATOM     29  N   ALA B   1      72.549 -14.584  41.282  1.00 12.31 LIG-0.35  N 
ATOM     30 H    ALA B   1      71.821 -15.023  41.147  1.00 12.31 LIG 0.16  HD
ATOM     31  C   ACE B   0      73.092 -13.757  40.405  1.00 14.04 LIG 0.21  C 
ATOM     32  CH3 ACE B   0      72.368 -13.589  39.105  1.00 14.78 LIG 0.12  C 
ATOM     33 O    ACE B   0      74.145 -13.172  40.658  1.00 15.52 LIG-0.27  OA
ENDBRANCH 27 29
ENDBRANCH 25 27
ENDBRANCH 16 20
ENDBRANCH 10 13
ENDBRANCH 8 9
BRANCH 8 34
ATOM     34  CB  LEU B   4      75.056 -22.048  47.559  1.00 12.59 LIG 0.04  C 
BRANCH 34 35
ATOM     35  CG  LEU B   4      73.865 -21.652  48.429  1.00 12.74 LIG-0.02  C 
ATOM     36  CD1 LEU B   4      73.710 -20.143  48.429  1.00 14.33 LIG 0.01  C 
ATOM     37  CD2 LEU B   4      72.570 -22.313  47.973  1.00 11.50 LIG 0.01  C 
ENDBRANCH 34 35
ENDBRANCH 8 34
ENDBRANCH 1 8
BRANCH 4 38
ATOM     38  C   PRO B   5      78.864 -22.023  50.560  1.00 12.26 LIG 0.24  C 
ATOM     39  N   PRO B   6      80.040 -22.606  50.766  1.00 14.33 LIG-0.34  N 
ATOM     40  CD  PRO B   6      81.363 -22.161  50.306  1.00 16.43 LIG 0.13  C 
ATOM     41  CA  PRO B   6      80.116 -23.835  51.558  1.00 15.63 LIG 0.18  C 
ATOM     42  CG  PRO B   6      82.191 -23.397  50.414  1.00 18.90 LIG 0.02  C 
ATOM     43  CB  PRO B   6      81.601 -24.214  51.496  1.00 17.20 LIG 0.04  C 
ATOM     44 O    PRO B   5      77.816 -22.513  51.010  1.00 12.24 LIG-0.27  OA
BRANCH 41 45
ATOM     45  C   PRO B   6      79.686 -23.601  52.997  1.00 14.54 LIG 0.24  C 
ATOM     46 O    PRO B   6      78.510 -23.381  53.295  1.00 15.72 LIG-0.27  OA
ATOM     47  N   ARG B   7      80.664 -23.632  53.891  1.00 15.59 LIG-0.35  N 
ATOM     48 H    ARG B   7      81.485 -23.799  53.699  1.00 15.59 LIG 0.16  HD
BRANCH 47 49
ATOM     49  CA  ARG B   7      80.415 -23.380  55.309  1.00 17.66 LIG 0.16  C 
BRANCH 49 50
ATOM     50  C   ARG B   7      81.623 -22.776  56.018  1.00 19.45 LIG 0.22  C 
ATOM     51 O    ARG B   7      82.601 -22.406  55.378  1.00 22.19 LIG-0.29  OA
ENDBRANCH 49 50
BRANCH 49 52
ATOM     52  CB  ARG B   7      79.975 -24.671  55.992  1.00 18.48 LIG 0.04  C 
BRANCH 52 53
ATOM     53  CG  ARG B   7      78.500 -24.660  56.331  1.00 19.62 LIG 0.02  C 
BRANCH 53 54
ATOM     54  CD  ARG B   7      77.680 -25.459  55.347  1.00 19.05 LIG 0.14  C 
BRANCH 54 55
ATOM     55  NE  ARG B   7      76.357 -25.734  55.893  1.00 16.94 LIG-0.23  N 
ATOM     56  CZ  ARG B   7      75.206 -25.489  55.270  1.00 14.04 LIG 0.67  C 
ATOM     57  NH1 ARG B   7      75.182 -24.940  54.065  1.00 13.87 LIG-0.23  N 
ATOM     58  NH2 ARG B   7      74.068 -25.786  55.870  1.00 14.07 LIG-0.23  N 
ATOM     59 2HH1 ARG B   7      74.429 -24.789  53.677  1.00 13.87 LIG 0.17  HD
ATOM     60 1HH1 ARG B   7      75.918 -24.736  53.672  1.00 13.87 LIG 0.17  HD
ATOM     61 1HH2 ARG B   7      74.074 -26.134  56.657  1.00 14.07 LIG 0.17  HD
ATOM     62 2HH2 ARG B   7      73.321 -25.631  55.475  1.00 14.07 LIG 0.17  HD
ATOM     63 HE   ARG B   7      76.316 -26.081  56.679  1.00 16.94 LIG 0.18  HD
ENDBRANCH 54 55
ENDBRANCH 53 54
ENDBRANCH 52 53
ENDBRANCH 49 52
ENDBRANCH 47 49
ENDBRANCH 41 45
ENDBRANCH 4 38
TORSDOF 16
ENDMDL
MODEL 25
USER: ADFR SOLUTION from run 121
USER: SCORE 15.846129 LL:  -4.347 LR: -12.407 RR:   0.000 FEB:  -7.635
USER: RMSD 5.808688
USER: SEED 120
USER: STATUS no improvement in best in 9 clusters for 5 generations
USER: GENES 18
USER: genes 0 Translation |==|  0.51759 0.38293 0.55624
USER: genes 1 Rotation |==|  0.38795 0.65817 0.14620 0.79539
USER: genes 2 Torsion [N]-C--CA-[N] |==|  0.36395
USER: genes 3 Torsion [C]-CA--N-[C] |==|  0.56726
USER: genes 4 Torsion [N]-C--CA-[N] |==|  0.67003
USER: genes 5 Torsion [N]-C--CA-[N] |==|  0.81073
USER: genes 6 Torsion [N]-C--CA-[N] |==|  0.28566
USER: genes 7 Torsion [C]-CA--N-[C] |==|  0.54930
USER: genes 8 Torsion [C]-CA--CB-[CG] |==|  0.27225
USER: genes 9 Torsion [CA]-CB--CG-[CD1] |==|  0.74991
USER: genes 10 Torsion [N]-CA--C-[N] |==|  0.42229
USER: genes 11 Torsion [N]-CA--C-[N] |==|  0.48215
USER: genes 12 Torsion [C]-N--CA-[C] |==|  0.13983
USER: genes 13 Torsion [N]-CA--C-[O] |==|  0.19363
USER: genes 14 Torsion [N]-CA--CB-[CG] |==|  0.87949
USER: genes 15 Torsion [CA]-CB--CG-[CD] |==|  0.62131
USER: genes 16 Torsion [CB]-CG--CD-[NE] |==|  0.71545
USER: genes 17 Torsion [CG]-CD--NE-[HE] |==|  0.11034
ROOT
ATOM      1  C   LEU B   4      78.834 -22.066  51.823  1.00 11.33 LIG 0.24  C 
ATOM      2 O    LEU B   4      77.887 -22.797  51.499  1.00 12.90 LIG-0.27  OA
ATOM      3  N   PRO B   5      78.851 -20.783  51.512  1.00 11.12 LIG-0.34  N 
ATOM      4  CA  PRO B   5      77.737 -20.193  50.815  1.00 12.55 LIG 0.18  C 
ATOM      5  CB  PRO B   5      77.929 -18.694  51.078  1.00 13.89 LIG 0.04  C 
ATOM      6  CG  PRO B   5      79.395 -18.535  51.193  1.00 12.43 LIG 0.02  C 
ATOM      7  CD  PRO B   5      79.909 -19.804  51.798  1.00 11.21 LIG 0.13  C 
ENDROOT
BRANCH 1 8
ATOM      8  CA  LEU B   4      80.009 -22.622  52.616  1.00 11.65 LIG 0.18  C 
BRANCH 8 9
ATOM      9  N   LEU B   4      79.503 -23.387  53.734  1.00 12.22 LIG-0.35  N 
ATOM     10  C   PRO B   3      80.260 -23.557  54.805  1.00 12.52 LIG 0.24  C 
ATOM     11 O    PRO B   3      81.435 -23.185  54.863  1.00 13.02 LIG-0.27  OA
ATOM     12 H    LEU B   4      78.709 -23.700  53.636  1.00 12.22 LIG 0.16  HD
BRANCH 10 13
ATOM     13  CA  PRO B   3      79.594 -24.258  55.979  1.00 15.46 LIG 0.18  C 
ATOM     14  N   PRO B   3      79.568 -23.374  57.146  1.00 15.16 LIG-0.34  N 
ATOM     15  CD  PRO B   3      78.196 -23.010  57.533  1.00 18.06 LIG 0.13  C 
ATOM     16  C   PRO B   2      80.711 -22.929  57.656  1.00 13.99 LIG 0.24  C 
ATOM     17  CG  PRO B   3      77.402 -23.381  56.328  1.00 19.92 LIG 0.02  C 
ATOM     18  CB  PRO B   3      78.112 -24.530  55.706  1.00 18.17 LIG 0.04  C 
ATOM     19 O    PRO B   2      81.801 -23.317  57.217  1.00 12.71 LIG-0.27  OA
BRANCH 16 20
ATOM     20  CA  PRO B   2      80.644 -21.885  58.754  1.00 15.85 LIG 0.18  C 
ATOM     21  CB  PRO B   2      79.589 -22.280  59.801  1.00 19.12 LIG 0.04  C 
ATOM     22  CG  PRO B   2      78.752 -21.091  60.035  1.00 19.63 LIG 0.02  C 
ATOM     23  CD  PRO B   2      78.829 -20.280  58.798  1.00 18.19 LIG 0.13  C 
ATOM     24  N   PRO B   2      80.147 -20.623  58.238  1.00 15.71 LIG-0.34  N 
ATOM     25  C   ALA B   1      80.853 -19.944  57.341  1.00 13.25 LIG 0.24  C 
ATOM     26 O    ALA B   1      81.911 -20.366  56.877  1.00 13.75 LIG-0.27  OA
BRANCH 25 27
ATOM     27  CA  ALA B   1      80.270 -18.621  56.876  1.00 12.47 LIG 0.17  C 
ATOM     28  CB  ALA B   1      80.382 -18.506  55.379  1.00 12.30 LIG 0.04  C 
BRANCH 27 29
ATOM     29  N   ALA B   1      80.957 -17.516  57.519  1.00 12.31 LIG-0.35  N 
ATOM     30 H    ALA B   1      81.719 -17.719  57.864  1.00 12.31 LIG 0.16  HD
ATOM     31  C   ACE B   0      80.423 -16.308  57.552  1.00 14.04 LIG 0.21  C 
ATOM     32  CH3 ACE B   0      81.223 -15.241  58.235  1.00 14.78 LIG 0.12  C 
ATOM     33 O    ACE B   0      79.320 -16.091  57.051  1.00 15.52 LIG-0.27  OA
ENDBRANCH 27 29
ENDBRANCH 25 27
ENDBRANCH 16 20
ENDBRANCH 10 13
ENDBRANCH 8 9
BRANCH 8 34
ATOM     34  CB  LEU B   4      80.891 -23.474  51.707  1.00 12.59 LIG 0.04  C 
BRANCH 34 35
ATOM     35  CG  LEU B   4      82.121 -22.759  51.153  1.00 12.74 LIG-0.02  C 
ATOM     36  CD1 LEU B   4      81.775 -22.095  49.833  1.00 14.33 LIG 0.01  C 
ATOM     37  CD2 LEU B   4      82.682 -21.731  52.128  1.00 11.50 LIG 0.01  C 
ENDBRANCH 34 35
ENDBRANCH 8 34
ENDBRANCH 1 8
BRANCH 4 38
ATOM     38  C   PRO B   5      77.809 -20.513  49.334  1.00 12.26 LIG 0.24  C 
ATOM     39  N   PRO B   6      76.665 -20.565  48.659  1.00 14.33 LIG-0.34  N 
ATOM     40  CD  PRO B   6      75.301 -20.379  49.174  1.00 16.43 LIG 0.13  C 
ATOM     41  CA  PRO B   6      76.681 -20.810  47.216  1.00 15.63 LIG 0.18  C 
ATOM     42  CG  PRO B   6      74.454 -20.999  48.113  1.00 18.90 LIG 0.02  C 
ATOM     43  CB  PRO B   6      75.195 -20.867  46.841  1.00 17.20 LIG 0.04  C 
ATOM     44 O    PRO B   5      78.899 -20.689  48.768  1.00 12.24 LIG-0.27  OA
BRANCH 41 45
ATOM     45  C   PRO B   6      77.376 -19.685  46.465  1.00 14.54 LIG 0.24  C 
ATOM     46 O    PRO B   6      77.732 -18.649  47.032  1.00 15.72 LIG-0.27  OA
ATOM     47  N   ARG B   7      77.550 -19.895  45.168  1.00 15.59 LIG-0.35  N 
ATOM     48 H    ARG B   7      77.321 -20.618  44.763  1.00 15.59 LIG 0.16  HD
BRANCH 47 49
ATOM     49  CA  ARG B   7      78.162 -18.887  44.303  1.00 17.66 LIG 0.16  C 
BRANCH 49 50
ATOM     50  C   ARG B   7      79.479 -18.356  44.861  1.00 19.45 LIG 0.22  C 
ATOM     51 O    ARG B   7      80.474 -19.072  44.897  1.00 22.19 LIG-0.29  OA
ENDBRANCH 49 50
BRANCH 49 52
ATOM     52  CB  ARG B   7      77.176 -17.748  44.063  1.00 18.48 LIG 0.04  C 
BRANCH 52 53
ATOM     53  CG  ARG B   7      75.779 -18.257  43.782  1.00 19.62 LIG 0.02  C 
BRANCH 53 54
ATOM     54  CD  ARG B   7      75.122 -17.524  42.637  1.00 19.05 LIG 0.14  C 
BRANCH 54 55
ATOM     55  NE  ARG B   7      74.162 -16.550  43.139  1.00 16.94 LIG-0.23  N 
ATOM     56  CZ  ARG B   7      72.974 -16.297  42.596  1.00 14.04 LIG 0.67  C 
ATOM     57  NH1 ARG B   7      72.570 -16.927  41.505  1.00 13.87 LIG-0.23  N 
ATOM     58  NH2 ARG B   7      72.189 -15.389  43.148  1.00 14.07 LIG-0.23  N 
ATOM     59 2HH1 ARG B   7      71.799 -16.751  41.166  1.00 13.87 LIG 0.17  HD
ATOM     60 1HH1 ARG B   7      73.079 -17.513  41.134  1.00 13.87 LIG 0.17  HD
ATOM     61 1HH2 ARG B   7      72.447 -14.968  43.852  1.00 14.07 LIG 0.17  HD
ATOM     62 2HH2 ARG B   7      71.420 -15.219  42.804  1.00 14.07 LIG 0.17  HD
ATOM     63 HE   ARG B   7      74.380 -16.104  43.842  1.00 16.94 LIG 0.18  HD
ENDBRANCH 54 55
ENDBRANCH 53 54
ENDBRANCH 52 53
ENDBRANCH 49 52
ENDBRANCH 47 49
ENDBRANCH 41 45
ENDBRANCH 4 38
TORSDOF 16
ENDMDL
MODEL 26
USER: ADFR SOLUTION from run 39
USER: SCORE 17.742828 LL:  -5.746 LR: -12.372 RR:   0.000 FEB:  -7.599
USER: RMSD 6.568283
USER: SEED 38
USER: STATUS no improvement in best in 3 clusters for 5 generations
USER: GENES 18
USER: genes 0 Translation |==|  0.53085 0.29061 0.59922
USER: genes 1 Rotation |==|  0.69575 0.21398 0.81089 0.68228
USER: genes 2 Torsion [N]-C--CA-[N] |==|  0.39334
USER: genes 3 Torsion [C]-CA--N-[C] |==|  0.74952
USER: genes 4 Torsion [N]-C--CA-[N] |==|  0.94231
USER: genes 5 Torsion [N]-C--CA-[N] |==|  0.31212
USER: genes 6 Torsion [N]-C--CA-[N] |==|  0.28643
USER: genes 7 Torsion [C]-CA--N-[C] |==|  0.75491
USER: genes 8 Torsion [C]-CA--CB-[CG] |==|  0.75042
USER: genes 9 Torsion [CA]-CB--CG-[CD1] |==|  0.23251
USER: genes 10 Torsion [N]-CA--C-[N] |==|  0.45487
USER: genes 11 Torsion [N]-CA--C-[N] |==|  0.27880
USER: genes 12 Torsion [C]-N--CA-[C] |==|  0.62248
USER: genes 13 Torsion [N]-CA--C-[O] |==|  0.85260
USER: genes 14 Torsion [N]-CA--CB-[CG] |==|  0.72259
USER: genes 15 Torsion [CA]-CB--CG-[CD] |==|  0.90795
USER: genes 16 Torsion [CB]-CG--CD-[NE] |==|  0.74940
USER: genes 17 Torsion [CG]-CD--NE-[HE] |==|  0.03666
ROOT
ATOM      1  C   LEU B   4      79.033 -24.281  52.983  1.00 11.33 LIG 0.24  C 
ATOM      2 O    LEU B   4      78.903 -23.504  53.939  1.00 12.90 LIG-0.27  OA
ATOM      3  N   PRO B   5      79.440 -23.858  51.801  1.00 11.12 LIG-0.34  N 
ATOM      4  CA  PRO B   5      79.782 -22.472  51.608  1.00 12.55 LIG 0.18  C 
ATOM      5  CB  PRO B   5      80.621 -22.507  50.325  1.00 13.89 LIG 0.04  C 
ATOM      6  CG  PRO B   5      80.062 -23.643  49.561  1.00 12.43 LIG 0.02  C 
ATOM      7  CD  PRO B   5      79.611 -24.648  50.574  1.00 11.21 LIG 0.13  C 
ENDROOT
BRANCH 1 8
ATOM      8  CA  LEU B   4      78.747 -25.769  53.146  1.00 11.65 LIG 0.18  C 
BRANCH 8 9
ATOM      9  N   LEU B   4      79.197 -26.195  54.452  1.00 12.22 LIG-0.35  N 
ATOM     10  C   PRO B   3      80.435 -26.638  54.604  1.00 12.52 LIG 0.24  C 
ATOM     11 O    PRO B   3      81.206 -26.812  53.656  1.00 13.02 LIG-0.27  OA
ATOM     12 H    LEU B   4      78.614 -26.134  55.081  1.00 12.22 LIG 0.16  HD
BRANCH 10 13
ATOM     13  CA  PRO B   3      80.858 -26.934  56.033  1.00 15.46 LIG 0.18  C 
ATOM     14  N   PRO B   3      79.996 -26.217  56.975  1.00 15.16 LIG-0.34  N 
ATOM     15  CD  PRO B   3      79.196 -27.134  57.800  1.00 18.06 LIG 0.13  C 
ATOM     16  C   PRO B   2      79.943 -24.890  56.933  1.00 13.99 LIG 0.24  C 
ATOM     17  CG  PRO B   3      79.304 -28.424  57.064  1.00 19.92 LIG 0.02  C 
ATOM     18  CB  PRO B   3      80.633 -28.405  56.396  1.00 18.17 LIG 0.04  C 
ATOM     19 O    PRO B   2      80.675 -24.245  56.172  1.00 12.71 LIG-0.27  OA
BRANCH 16 20
ATOM     20  CA  PRO B   2      78.918 -24.189  57.804  1.00 15.85 LIG 0.18  C 
ATOM     21  CB  PRO B   2      78.180 -23.109  56.994  1.00 19.12 LIG 0.04  C 
ATOM     22  CG  PRO B   2      78.195 -21.881  57.805  1.00 19.63 LIG 0.02  C 
ATOM     23  CD  PRO B   2      79.381 -21.979  58.687  1.00 18.19 LIG 0.13  C 
ATOM     24  N   PRO B   2      79.568 -23.430  58.858  1.00 15.71 LIG-0.34  N 
ATOM     25  C   ALA B   1      80.258 -24.057  59.802  1.00 13.25 LIG 0.24  C 
ATOM     26 O    ALA B   1      80.420 -25.276  59.803  1.00 13.75 LIG-0.27  OA
BRANCH 25 27
ATOM     27  CA  ALA B   1      80.882 -23.186  60.880  1.00 12.47 LIG 0.17  C 
ATOM     28  CB  ALA B   1      82.301 -23.622  61.136  1.00 12.30 LIG 0.04  C 
BRANCH 27 29
ATOM     29  N   ALA B   1      80.103 -23.264  62.102  1.00 12.31 LIG-0.35  N 
ATOM     30 H    ALA B   1      80.359 -23.873  62.652  1.00 12.31 LIG 0.16  HD
ATOM     31  C   ACE B   0      79.088 -22.446  62.316  1.00 14.04 LIG 0.21  C 
ATOM     32  CH3 ACE B   0      78.358 -22.610  63.614  1.00 14.78 LIG 0.12  C 
ATOM     33 O    ACE B   0      78.766 -21.606  61.476  1.00 15.52 LIG-0.27  OA
ENDBRANCH 27 29
ENDBRANCH 25 27
ENDBRANCH 16 20
ENDBRANCH 10 13
ENDBRANCH 8 9
BRANCH 8 34
ATOM     34  CB  LEU B   4      77.255 -26.033  52.954  1.00 12.59 LIG 0.04  C 
BRANCH 34 35
ATOM     35  CG  LEU B   4      76.420 -25.951  54.230  1.00 12.74 LIG-0.02  C 
ATOM     36  CD1 LEU B   4      76.053 -24.506  54.510  1.00 14.33 LIG 0.01  C 
ATOM     37  CD2 LEU B   4      75.162 -26.807  54.154  1.00 11.50 LIG 0.01  C 
ENDBRANCH 34 35
ENDBRANCH 8 34
ENDBRANCH 1 8
BRANCH 4 38
ATOM     38  C   PRO B   5      78.529 -21.636  51.433  1.00 12.26 LIG 0.24  C 
ATOM     39  N   PRO B   6      78.642 -20.320  51.575  1.00 14.33 LIG-0.34  N 
ATOM     40  CD  PRO B   6      79.844 -19.546  51.918  1.00 16.43 LIG 0.13  C 
ATOM     41  CA  PRO B   6      77.477 -19.460  51.357  1.00 15.63 LIG 0.18  C 
ATOM     42  CG  PRO B   6      79.285 -18.244  52.385  1.00 18.90 LIG 0.02  C 
ATOM     43  CB  PRO B   6      77.997 -18.055  51.684  1.00 17.20 LIG 0.04  C 
ATOM     44 O    PRO B   5      77.444 -22.160  51.138  1.00 12.24 LIG-0.27  OA
BRANCH 41 45
ATOM     45  C   PRO B   6      76.993 -19.527  49.917  1.00 14.54 LIG 0.24  C 
ATOM     46 O    PRO B   6      77.539 -18.881  49.019  1.00 15.72 LIG-0.27  OA
ATOM     47  N   ARG B   7      75.943 -20.307  49.709  1.00 15.59 LIG-0.35  N 
ATOM     48 H    ARG B   7      75.562 -20.774  50.323  1.00 15.59 LIG 0.16  HD
BRANCH 47 49
ATOM     49  CA  ARG B   7      75.335 -20.439  48.386  1.00 17.66 LIG 0.16  C 
BRANCH 49 50
ATOM     50  C   ARG B   7      73.811 -20.385  48.433  1.00 19.45 LIG 0.22  C 
ATOM     51 O    ARG B   7      73.184 -21.131  49.178  1.00 22.19 LIG-0.29  OA
ENDBRANCH 49 50
BRANCH 49 52
ATOM     52  CB  ARG B   7      75.813 -21.728  47.727  1.00 18.48 LIG 0.04  C 
BRANCH 52 53
ATOM     53  CG  ARG B   7      76.923 -21.479  46.730  1.00 19.62 LIG 0.02  C 
BRANCH 53 54
ATOM     54  CD  ARG B   7      76.778 -20.148  46.031  1.00 19.05 LIG 0.14  C 
BRANCH 54 55
ATOM     55  NE  ARG B   7      75.989 -20.294  44.815  1.00 16.94 LIG-0.23  N 
ATOM     56  CZ  ARG B   7      75.888 -19.379  43.854  1.00 14.04 LIG 0.67  C 
ATOM     57  NH1 ARG B   7      76.512 -18.216  43.947  1.00 13.87 LIG-0.23  N 
ATOM     58  NH2 ARG B   7      75.141 -19.631  42.795  1.00 14.07 LIG-0.23  N 
ATOM     59 2HH1 ARG B   7      76.436 -17.635  43.317  1.00 13.87 LIG 0.17  HD
ATOM     60 1HH1 ARG B   7      76.994 -18.040  44.638  1.00 13.87 LIG 0.17  HD
ATOM     61 1HH2 ARG B   7      74.725 -20.381  42.730  1.00 14.07 LIG 0.17  HD
ATOM     62 2HH2 ARG B   7      75.071 -19.046  42.169  1.00 14.07 LIG 0.17  HD
ATOM     63 HE   ARG B   7      75.555 -21.029  44.710  1.00 16.94 LIG 0.18  HD
ENDBRANCH 54 55
ENDBRANCH 53 54
ENDBRANCH 52 53
ENDBRANCH 49 52
ENDBRANCH 47 49
ENDBRANCH 41 45
ENDBRANCH 4 38
TORSDOF 16
ENDMDL
MODEL 27
USER: ADFR SOLUTION from run 121
USER: SCORE 16.161125 LL:  -4.822 LR: -12.324 RR:   0.000 FEB:  -7.552
USER: RMSD 6.254570
USER: SEED 120
USER: STATUS no improvement in best in 9 clusters for 5 generations
USER: GENES 18
USER: genes 0 Translation |==|  0.52413 0.37769 0.55802
USER: genes 1 Rotation |==|  0.39920 0.65047 0.16773 0.82679
USER: genes 2 Torsion [N]-C--CA-[N] |==|  0.34408
USER: genes 3 Torsion [C]-CA--N-[C] |==|  0.55585
USER: genes 4 Torsion [N]-C--CA-[N] |==|  0.67012
USER: genes 5 Torsion [N]-C--CA-[N] |==|  0.81387
USER: genes 6 Torsion [N]-C--CA-[N] |==|  0.28756
USER: genes 7 Torsion [C]-CA--N-[C] |==|  0.54631
USER: genes 8 Torsion [C]-CA--CB-[CG] |==|  0.26010
USER: genes 9 Torsion [CA]-CB--CG-[CD1] |==|  0.74386
USER: genes 10 Torsion [N]-CA--C-[N] |==|  0.46779
USER: genes 11 Torsion [N]-CA--C-[N] |==|  0.22538
USER: genes 12 Torsion [C]-N--CA-[C] |==|  0.17237
USER: genes 13 Torsion [N]-CA--C-[O] |==|  0.05470
USER: genes 14 Torsion [N]-CA--CB-[CG] |==|  0.88296
USER: genes 15 Torsion [CA]-CB--CG-[CD] |==|  0.39152
USER: genes 16 Torsion [CB]-CG--CD-[NE] |==|  0.57569
USER: genes 17 Torsion [CG]-CD--NE-[HE] |==|  0.80737
ROOT
ATOM      1  C   LEU B   4      78.932 -22.192  51.871  1.00 11.33 LIG 0.24  C 
ATOM      2 O    LEU B   4      78.115 -23.017  51.437  1.00 12.90 LIG-0.27  OA
ATOM      3  N   PRO B   5      78.798 -20.900  51.633  1.00 11.12 LIG-0.34  N 
ATOM      4  CA  PRO B   5      77.663 -20.416  50.889  1.00 12.55 LIG 0.18  C 
ATOM      5  CB  PRO B   5      77.635 -18.925  51.249  1.00 13.89 LIG 0.04  C 
ATOM      6  CG  PRO B   5      79.056 -18.585  51.481  1.00 12.43 LIG 0.02  C 
ATOM      7  CD  PRO B   5      79.694 -19.812  52.051  1.00 11.21 LIG 0.13  C 
ENDROOT
BRANCH 1 8
ATOM      8  CA  LEU B   4      80.116 -22.640  52.717  1.00 11.65 LIG 0.18  C 
BRANCH 8 9
ATOM      9  N   LEU B   4      79.627 -23.397  53.848  1.00 12.22 LIG-0.35  N 
ATOM     10  C   PRO B   3      80.394 -23.548  54.915  1.00 12.52 LIG 0.24  C 
ATOM     11 O    PRO B   3      81.566 -23.163  54.958  1.00 13.02 LIG-0.27  OA
ATOM     12 H    LEU B   4      78.834 -23.718  53.761  1.00 12.22 LIG 0.16  HD
BRANCH 10 13
ATOM     13  CA  PRO B   3      79.745 -24.240  56.102  1.00 15.46 LIG 0.18  C 
ATOM     14  N   PRO B   3      79.719 -23.342  57.259  1.00 15.16 LIG-0.34  N 
ATOM     15  CD  PRO B   3      78.347 -22.988  57.653  1.00 18.06 LIG 0.13  C 
ATOM     16  C   PRO B   2      80.861 -22.880  57.754  1.00 13.99 LIG 0.24  C 
ATOM     17  CG  PRO B   3      77.547 -23.381  56.459  1.00 19.92 LIG 0.02  C 
ATOM     18  CB  PRO B   3      78.263 -24.531  55.845  1.00 18.17 LIG 0.04  C 
ATOM     19 O    PRO B   2      81.952 -23.262  57.311  1.00 12.71 LIG-0.27  OA
BRANCH 16 20
ATOM     20  CA  PRO B   2      80.793 -21.824  58.840  1.00 15.85 LIG 0.18  C 
ATOM     21  CB  PRO B   2      79.771 -22.229  59.915  1.00 19.12 LIG 0.04  C 
ATOM     22  CG  PRO B   2      78.911 -21.058  60.151  1.00 19.63 LIG 0.02  C 
ATOM     23  CD  PRO B   2      78.941 -20.262  58.904  1.00 18.19 LIG 0.13  C 
ATOM     24  N   PRO B   2      80.255 -20.580  58.319  1.00 15.71 LIG-0.34  N 
ATOM     25  C   ALA B   1      80.924 -19.897  57.398  1.00 13.25 LIG 0.24  C 
ATOM     26 O    ALA B   1      81.982 -20.299  56.916  1.00 13.75 LIG-0.27  OA
BRANCH 25 27
ATOM     27  CA  ALA B   1      80.299 -18.594  56.929  1.00 12.47 LIG 0.17  C 
ATOM     28  CB  ALA B   1      80.361 -18.504  55.427  1.00 12.30 LIG 0.04  C 
BRANCH 27 29
ATOM     29  N   ALA B   1      80.983 -17.464  57.530  1.00 12.31 LIG-0.35  N 
ATOM     30 H    ALA B   1      81.753 -17.649  57.866  1.00 12.31 LIG 0.16  HD
ATOM     31  C   ACE B   0      80.435 -16.262  57.541  1.00 14.04 LIG 0.21  C 
ATOM     32  CH3 ACE B   0      81.232 -15.167  58.181  1.00 14.78 LIG 0.12  C 
ATOM     33 O    ACE B   0      79.320 -16.072  57.054  1.00 15.52 LIG-0.27  OA
ENDBRANCH 27 29
ENDBRANCH 25 27
ENDBRANCH 16 20
ENDBRANCH 10 13
ENDBRANCH 8 9
BRANCH 8 34
ATOM     34  CB  LEU B   4      81.078 -23.465  51.866  1.00 12.59 LIG 0.04  C 
BRANCH 34 35
ATOM     35  CG  LEU B   4      82.218 -22.669  51.234  1.00 12.74 LIG-0.02  C 
ATOM     36  CD1 LEU B   4      81.811 -22.204  49.849  1.00 14.33 LIG 0.01  C 
ATOM     37  CD2 LEU B   4      82.635 -21.477  52.087  1.00 11.50 LIG 0.01  C 
ENDBRANCH 34 35
ENDBRANCH 8 34
ENDBRANCH 1 8
BRANCH 4 38
ATOM     38  C   PRO B   5      77.875 -20.627  49.402  1.00 12.26 LIG 0.24  C 
ATOM     39  N   PRO B   6      76.830 -20.453  48.601  1.00 14.33 LIG-0.34  N 
ATOM     40  CD  PRO B   6      75.452 -20.102  48.973  1.00 16.43 LIG 0.13  C 
ATOM     41  CA  PRO B   6      76.993 -20.585  47.151  1.00 15.63 LIG 0.18  C 
ATOM     42  CG  PRO B   6      74.666 -20.502  47.769  1.00 18.90 LIG 0.02  C 
ATOM     43  CB  PRO B   6      75.573 -20.386  46.607  1.00 17.20 LIG 0.04  C 
ATOM     44 O    PRO B   5      78.991 -20.923  48.949  1.00 12.24 LIG-0.27  OA
BRANCH 41 45
ATOM     45  C   PRO B   6      77.930 -19.524  46.594  1.00 14.54 LIG 0.24  C 
ATOM     46 O    PRO B   6      77.502 -18.506  46.045  1.00 15.72 LIG-0.27  OA
ATOM     47  N   ARG B   7      79.222 -19.785  46.727  1.00 15.59 LIG-0.35  N 
ATOM     48 H    ARG B   7      79.533 -20.484  47.121  1.00 15.59 LIG 0.16  HD
BRANCH 47 49
ATOM     49  CA  ARG B   7      80.245 -18.883  46.201  1.00 17.66 LIG 0.16  C 
BRANCH 49 50
ATOM     50  C   ARG B   7      80.197 -17.502  46.847  1.00 19.45 LIG 0.22  C 
ATOM     51 O    ARG B   7      79.638 -17.337  47.926  1.00 22.19 LIG-0.29  OA
ENDBRANCH 49 50
BRANCH 49 52
ATOM     52  CB  ARG B   7      80.108 -18.779  44.686  1.00 18.48 LIG 0.04  C 
BRANCH 52 53
ATOM     53  CG  ARG B   7      79.839 -20.123  44.046  1.00 19.62 LIG 0.02  C 
BRANCH 53 54
ATOM     54  CD  ARG B   7      78.844 -20.031  42.913  1.00 19.05 LIG 0.14  C 
BRANCH 54 55
ATOM     55  NE  ARG B   7      78.136 -21.294  42.753  1.00 16.94 LIG-0.23  N 
ATOM     56  CZ  ARG B   7      76.850 -21.490  43.031  1.00 14.04 LIG 0.67  C 
ATOM     57  NH1 ARG B   7      76.094 -20.513  43.507  1.00 13.87 LIG-0.23  N 
ATOM     58  NH2 ARG B   7      76.320 -22.685  42.840  1.00 14.07 LIG-0.23  N 
ATOM     59 2HH1 ARG B   7      75.264 -20.657  43.682  1.00 13.87 LIG 0.17  HD
ATOM     60 1HH1 ARG B   7      76.434 -19.735  43.643  1.00 13.87 LIG 0.17  HD
ATOM     61 1HH2 ARG B   7      76.806 -23.328  42.540  1.00 14.07 LIG 0.17  HD
ATOM     62 2HH2 ARG B   7      75.490 -22.820  43.017  1.00 14.07 LIG 0.17  HD
ATOM     63 HE   ARG B   7      78.585 -21.965  42.456  1.00 16.94 LIG 0.18  HD
ENDBRANCH 54 55
ENDBRANCH 53 54
ENDBRANCH 52 53
ENDBRANCH 49 52
ENDBRANCH 47 49
ENDBRANCH 41 45
ENDBRANCH 4 38
TORSDOF 16
ENDMDL
MODEL 28
USER: ADFR SOLUTION from run 179
USER: SCORE 16.971327 LL:  -4.749 LR: -12.288 RR:   0.000 FEB:  -7.515
USER: RMSD 11.977197
USER: SEED 178
USER: STATUS no improvement in best in 10 clusters for 5 generations
USER: GENES 18
USER: genes 0 Translation |==|  0.41944 0.42510 0.41150
USER: genes 1 Rotation |==|  0.15247 0.77827 0.72734 0.51000
USER: genes 2 Torsion [N]-C--CA-[N] |==|  0.35629
USER: genes 3 Torsion [C]-CA--N-[C] |==|  0.80556
USER: genes 4 Torsion [N]-C--CA-[N] |==|  0.44118
USER: genes 5 Torsion [N]-C--CA-[N] |==|  0.84647
USER: genes 6 Torsion [N]-C--CA-[N] |==|  0.42441
USER: genes 7 Torsion [C]-CA--N-[C] |==|  0.80392
USER: genes 8 Torsion [C]-CA--CB-[CG] |==|  0.23041
USER: genes 9 Torsion [CA]-CB--CG-[CD1] |==|  0.13302
USER: genes 10 Torsion [N]-CA--C-[N] |==|  0.36296
USER: genes 11 Torsion [N]-CA--C-[N] |==|  0.38743
USER: genes 12 Torsion [C]-N--CA-[C] |==|  0.79530
USER: genes 13 Torsion [N]-CA--C-[O] |==|  0.61267
USER: genes 14 Torsion [N]-CA--CB-[CG] |==|  0.93458
USER: genes 15 Torsion [CA]-CB--CG-[CD] |==|  0.35469
USER: genes 16 Torsion [CB]-CG--CD-[NE] |==|  0.11882
USER: genes 17 Torsion [CG]-CD--NE-[HE] |==|  0.82901
ROOT
ATOM      1  C   LEU B   4      77.362 -21.054  47.914  1.00 11.33 LIG 0.24  C 
ATOM      2 O    LEU B   4      78.065 -22.017  47.579  1.00 12.90 LIG-0.27  OA
ATOM      3  N   PRO B   5      77.589 -20.391  49.033  1.00 11.12 LIG-0.34  N 
ATOM      4  CA  PRO B   5      78.699 -20.755  49.876  1.00 12.55 LIG 0.18  C 
ATOM      5  CB  PRO B   5      78.887 -19.506  50.746  1.00 13.89 LIG 0.04  C 
ATOM      6  CG  PRO B   5      77.524 -18.941  50.862  1.00 12.43 LIG 0.02  C 
ATOM      7  CD  PRO B   5      76.828 -19.256  49.575  1.00 11.21 LIG 0.13  C 
ENDROOT
BRANCH 1 8
ATOM      8  CA  LEU B   4      76.214 -20.584  47.029  1.00 11.65 LIG 0.18  C 
BRANCH 8 9
ATOM      9  N   LEU B   4      76.702 -20.404  45.681  1.00 12.22 LIG-0.35  N 
ATOM     10  C   PRO B   3      77.529 -19.406  45.412  1.00 12.52 LIG 0.24  C 
ATOM     11 O    PRO B   3      77.827 -18.541  46.240  1.00 13.02 LIG-0.27  OA
ATOM     12 H    LEU B   4      76.418 -20.977  45.107  1.00 12.22 LIG 0.16  HD
BRANCH 10 13
ATOM     13  CA  PRO B   3      78.093 -19.379  44.001  1.00 15.46 LIG 0.18  C 
ATOM     14  N   PRO B   3      78.556 -18.030  43.668  1.00 15.16 LIG-0.34  N 
ATOM     15  CD  PRO B   3      80.011 -17.980  43.463  1.00 18.06 LIG 0.13  C 
ATOM     16  C   PRO B   2      77.693 -17.021  43.679  1.00 13.99 LIG 0.24  C 
ATOM     17  CG  PRO B   3      80.476 -19.260  44.066  1.00 19.92 LIG 0.02  C 
ATOM     18  CB  PRO B   3      79.362 -20.229  43.884  1.00 18.17 LIG 0.04  C 
ATOM     19 O    PRO B   2      76.487 -17.213  43.880  1.00 12.71 LIG-0.27  OA
BRANCH 16 20
ATOM     20  CA  PRO B   2      78.234 -15.616  43.496  1.00 15.85 LIG 0.18  C 
ATOM     21  CB  PRO B   2      78.984 -15.503  42.158  1.00 19.12 LIG 0.04  C 
ATOM     22  CG  PRO B   2      80.277 -14.859  42.445  1.00 19.63 LIG 0.02  C 
ATOM     23  CD  PRO B   2      80.587 -15.162  43.861  1.00 18.19 LIG 0.13  C 
ATOM     24  N   PRO B   2      79.261 -15.326  44.481  1.00 15.71 LIG-0.34  N 
ATOM     25  C   ALA B   1      78.952 -15.270  45.770  1.00 13.25 LIG 0.24  C 
ATOM     26 O    ALA B   1      77.820 -15.505  46.189  1.00 13.75 LIG-0.27  OA
BRANCH 25 27
ATOM     27  CA  ALA B   1      80.083 -14.934  46.727  1.00 12.47 LIG 0.17  C 
ATOM     28  CB  ALA B   1      80.836 -16.186  47.094  1.00 12.30 LIG 0.04  C 
BRANCH 27 29
ATOM     29  N   ALA B   1      79.559 -14.294  47.919  1.00 12.31 LIG-0.35  N 
ATOM     30 H    ALA B   1      79.594 -14.776  48.631  1.00 12.31 LIG 0.16  HD
ATOM     31  C   ACE B   0      79.074 -13.065  47.876  1.00 14.04 LIG 0.21  C 
ATOM     32  CH3 ACE B   0      78.566 -12.500  49.168  1.00 14.78 LIG 0.12  C 
ATOM     33 O    ACE B   0      79.040 -12.437  46.819  1.00 15.52 LIG-0.27  OA
ENDBRANCH 27 29
ENDBRANCH 25 27
ENDBRANCH 16 20
ENDBRANCH 10 13
ENDBRANCH 8 9
BRANCH 8 34
ATOM     34  CB  LEU B   4      75.072 -21.596  47.082  1.00 12.59 LIG 0.04  C 
BRANCH 34 35
ATOM     35  CG  LEU B   4      74.135 -21.444  48.279  1.00 12.74 LIG-0.02  C 
ATOM     36  CD1 LEU B   4      73.729 -19.991  48.429  1.00 14.33 LIG 0.01  C 
ATOM     37  CD2 LEU B   4      72.899 -22.327  48.161  1.00 11.50 LIG 0.01  C 
ENDBRANCH 34 35
ENDBRANCH 8 34
ENDBRANCH 1 8
BRANCH 4 38
ATOM     38  C   PRO B   5      78.352 -21.971  50.713  1.00 12.26 LIG 0.24  C 
ATOM     39  N   PRO B   6      79.221 -22.975  50.731  1.00 14.33 LIG-0.34  N 
ATOM     40  CD  PRO B   6      80.494 -23.084  50.005  1.00 16.43 LIG 0.13  C 
ATOM     41  CA  PRO B   6      78.964 -24.148  51.570  1.00 15.63 LIG 0.18  C 
ATOM     42  CG  PRO B   6      80.776 -24.549  50.034  1.00 18.90 LIG 0.02  C 
ATOM     43  CB  PRO B   6      80.138 -25.083  51.256  1.00 17.20 LIG 0.04  C 
ATOM     44 O    PRO B   5      77.307 -22.013  51.382  1.00 12.24 LIG-0.27  OA
BRANCH 41 45
ATOM     45  C   PRO B   6      78.952 -23.787  53.047  1.00 14.54 LIG 0.24  C 
ATOM     46 O    PRO B   6      79.776 -23.006  53.530  1.00 15.72 LIG-0.27  OA
ATOM     47  N   ARG B   7      78.014 -24.383  53.767  1.00 15.59 LIG-0.35  N 
ATOM     48 H    ARG B   7      77.424 -24.918  53.441  1.00 15.59 LIG 0.16  HD
BRANCH 47 49
ATOM     49  CA  ARG B   7      77.904 -24.173  55.210  1.00 17.66 LIG 0.16  C 
BRANCH 49 50
ATOM     50  C   ARG B   7      79.000 -24.889  55.993  1.00 19.45 LIG 0.22  C 
ATOM     51 O    ARG B   7      78.742 -25.456  57.049  1.00 22.19 LIG-0.29  OA
ENDBRANCH 49 50
BRANCH 49 52
ATOM     52  CB  ARG B   7      76.522 -24.607  55.689  1.00 18.48 LIG 0.04  C 
BRANCH 52 53
ATOM     53  CG  ARG B   7      75.500 -24.578  54.574  1.00 19.62 LIG 0.02  C 
BRANCH 53 54
ATOM     54  CD  ARG B   7      74.754 -25.885  54.445  1.00 19.05 LIG 0.14  C 
BRANCH 54 55
ATOM     55  NE  ARG B   7      74.391 -26.395  55.761  1.00 16.94 LIG-0.23  N 
ATOM     56  CZ  ARG B   7      73.146 -26.597  56.186  1.00 14.04 LIG 0.67  C 
ATOM     57  NH1 ARG B   7      72.105 -26.321  55.416  1.00 13.87 LIG-0.23  N 
ATOM     58  NH2 ARG B   7      72.945 -27.068  57.403  1.00 14.07 LIG-0.23  N 
ATOM     59 2HH1 ARG B   7      71.307 -26.458  55.706  1.00 13.87 LIG 0.17  HD
ATOM     60 1HH1 ARG B   7      72.227 -26.006  54.625  1.00 13.87 LIG 0.17  HD
ATOM     61 1HH2 ARG B   7      73.615 -27.241  57.914  1.00 14.07 LIG 0.17  HD
ATOM     62 2HH2 ARG B   7      72.144 -27.202  57.686  1.00 14.07 LIG 0.17  HD
ATOM     63 HE   ARG B   7      75.031 -26.580  56.305  1.00 16.94 LIG 0.18  HD
ENDBRANCH 54 55
ENDBRANCH 53 54
ENDBRANCH 52 53
ENDBRANCH 49 52
ENDBRANCH 47 49
ENDBRANCH 41 45
ENDBRANCH 4 38
TORSDOF 16
ENDMDL
MODEL 29
USER: ADFR SOLUTION from run 185
USER: SCORE 16.993967 LL:  -5.462 LR: -12.246 RR:   0.000 FEB:  -7.473
USER: RMSD 6.704861
USER: SEED 184
USER: STATUS no improvement in best in 10 clusters for 5 generations
USER: GENES 18
USER: genes 0 Translation |==|  0.52302 0.29271 0.60439
USER: genes 1 Rotation |==|  0.68176 0.19275 0.82139 0.63882
USER: genes 2 Torsion [N]-C--CA-[N] |==|  0.29914
USER: genes 3 Torsion [C]-CA--N-[C] |==|  0.78619
USER: genes 4 Torsion [N]-C--CA-[N] |==|  0.77475
USER: genes 5 Torsion [N]-C--CA-[N] |==|  0.89015
USER: genes 6 Torsion [N]-C--CA-[N] |==|  0.29737
USER: genes 7 Torsion [C]-CA--N-[C] |==|  0.62184
USER: genes 8 Torsion [C]-CA--CB-[CG] |==|  0.83730
USER: genes 9 Torsion [CA]-CB--CG-[CD1] |==|  0.38639
USER: genes 10 Torsion [N]-CA--C-[N] |==|  0.48498
USER: genes 11 Torsion [N]-CA--C-[N] |==|  0.28150
USER: genes 12 Torsion [C]-N--CA-[C] |==|  0.56139
USER: genes 13 Torsion [N]-CA--C-[O] |==|  0.08474
USER: genes 14 Torsion [N]-CA--CB-[CG] |==|  0.69934
USER: genes 15 Torsion [CA]-CB--CG-[CD] |==|  0.91342
USER: genes 16 Torsion [CB]-CG--CD-[NE] |==|  0.72863
USER: genes 17 Torsion [CG]-CD--NE-[HE] |==|  0.13886
ROOT
ATOM      1  C   LEU B   4      78.915 -24.231  53.123  1.00 11.33 LIG 0.24  C 
ATOM      2 O    LEU B   4      78.567 -23.541  54.091  1.00 12.90 LIG-0.27  OA
ATOM      3  N   PRO B   5      79.498 -23.693  52.068  1.00 11.12 LIG-0.34  N 
ATOM      4  CA  PRO B   5      79.779 -22.280  52.040  1.00 12.55 LIG 0.18  C 
ATOM      5  CB  PRO B   5      80.834 -22.168  50.932  1.00 13.89 LIG 0.04  C 
ATOM      6  CG  PRO B   5      80.495 -23.265  50.000  1.00 12.43 LIG 0.02  C 
ATOM      7  CD  PRO B   5      79.937 -24.371  50.840  1.00 11.21 LIG 0.13  C 
ENDROOT
BRANCH 1 8
ATOM      8  CA  LEU B   4      78.701 -25.739  53.125  1.00 11.65 LIG 0.18  C 
BRANCH 8 9
ATOM      9  N   LEU B   4      79.623 -26.344  54.061  1.00 12.22 LIG-0.35  N 
ATOM     10  C   PRO B   3      80.893 -26.492  53.723  1.00 12.52 LIG 0.24  C 
ATOM     11 O    PRO B   3      81.322 -26.237  52.594  1.00 13.02 LIG-0.27  OA
ATOM     12 H    LEU B   4      79.281 -26.583  54.812  1.00 12.22 LIG 0.16  HD
BRANCH 10 13
ATOM     13  CA  PRO B   3      81.810 -27.012  54.819  1.00 15.46 LIG 0.18  C 
ATOM     14  N   PRO B   3      82.203 -25.918  55.710  1.00 15.16 LIG-0.34  N 
ATOM     15  CD  PRO B   3      81.684 -26.102  57.073  1.00 18.06 LIG 0.13  C 
ATOM     16  C   PRO B   2      82.865 -24.878  55.216  1.00 13.99 LIG 0.24  C 
ATOM     17  CG  PRO B   3      80.632 -27.141  56.891  1.00 19.92 LIG 0.02  C 
ATOM     18  CB  PRO B   3      81.081 -27.985  55.751  1.00 18.17 LIG 0.04  C 
ATOM     19 O    PRO B   2      83.232 -24.856  54.035  1.00 12.71 LIG-0.27  OA
BRANCH 16 20
ATOM     20  CA  PRO B   2      83.109 -23.689  56.126  1.00 15.85 LIG 0.18  C 
ATOM     21  CB  PRO B   2      84.205 -24.020  57.153  1.00 19.12 LIG 0.04  C 
ATOM     22  CG  PRO B   2      83.690 -23.619  58.473  1.00 19.63 LIG 0.02  C 
ATOM     23  CD  PRO B   2      82.214 -23.679  58.378  1.00 18.19 LIG 0.13  C 
ATOM     24  N   PRO B   2      81.945 -23.425  56.953  1.00 15.71 LIG-0.34  N 
ATOM     25  C   ALA B   1      80.804 -23.037  56.395  1.00 13.25 LIG 0.24  C 
ATOM     26 O    ALA B   1      80.666 -22.935  55.177  1.00 13.75 LIG-0.27  OA
BRANCH 25 27
ATOM     27  CA  ALA B   1      79.646 -22.757  57.338  1.00 12.47 LIG 0.17  C 
ATOM     28  CB  ALA B   1      78.406 -23.462  56.855  1.00 12.30 LIG 0.04  C 
BRANCH 27 29
ATOM     29  N   ALA B   1      79.409 -21.329  57.431  1.00 12.31 LIG-0.35  N 
ATOM     30 H    ALA B   1      79.429 -20.912  56.679  1.00 12.31 LIG 0.16  HD
ATOM     31  C   ACE B   0      79.185 -20.749  58.597  1.00 14.04 LIG 0.21  C 
ATOM     32  CH3 ACE B   0      78.945 -19.270  58.576  1.00 14.78 LIG 0.12  C 
ATOM     33 O    ACE B   0      79.186 -21.405  59.639  1.00 15.52 LIG-0.27  OA
ENDBRANCH 27 29
ENDBRANCH 25 27
ENDBRANCH 16 20
ENDBRANCH 10 13
ENDBRANCH 8 9
BRANCH 8 34
ATOM     34  CB  LEU B   4      77.251 -26.056  53.483  1.00 12.59 LIG 0.04  C 
BRANCH 34 35
ATOM     35  CG  LEU B   4      76.793 -25.521  54.838  1.00 12.74 LIG-0.02  C 
ATOM     36  CD1 LEU B   4      75.386 -24.968  54.720  1.00 14.33 LIG 0.01  C 
ATOM     37  CD2 LEU B   4      76.850 -26.584  55.928  1.00 11.50 LIG 0.01  C 
ENDBRANCH 34 35
ENDBRANCH 8 34
ENDBRANCH 1 8
BRANCH 4 38
ATOM     38  C   PRO B   5      78.526 -21.497  51.698  1.00 12.26 LIG 0.24  C 
ATOM     39  N   PRO B   6      78.597 -20.171  51.741  1.00 14.33 LIG-0.34  N 
ATOM     40  CD  PRO B   6      79.749 -19.338  52.115  1.00 16.43 LIG 0.13  C 
ATOM     41  CA  PRO B   6      77.434 -19.366  51.362  1.00 15.63 LIG 0.18  C 
ATOM     42  CG  PRO B   6      79.124 -18.020  52.429  1.00 18.90 LIG 0.02  C 
ATOM     43  CB  PRO B   6      77.894 -17.925  51.614  1.00 17.20 LIG 0.04  C 
ATOM     44 O    PRO B   5      77.480 -22.075  51.361  1.00 12.24 LIG-0.27  OA
BRANCH 41 45
ATOM     45  C   PRO B   6      77.072 -19.560  49.898  1.00 14.54 LIG 0.24  C 
ATOM     46 O    PRO B   6      77.686 -18.985  48.996  1.00 15.72 LIG-0.27  OA
ATOM     47  N   ARG B   7      76.047 -20.369  49.672  1.00 15.59 LIG-0.35  N 
ATOM     48 H    ARG B   7      75.620 -20.788  50.291  1.00 15.59 LIG 0.16  HD
BRANCH 47 49
ATOM     49  CA  ARG B   7      75.551 -20.620  48.321  1.00 17.66 LIG 0.16  C 
BRANCH 49 50
ATOM     50  C   ARG B   7      74.106 -21.110  48.307  1.00 19.45 LIG 0.22  C 
ATOM     51 O    ARG B   7      73.320 -20.756  49.179  1.00 22.19 LIG-0.29  OA
ENDBRANCH 49 50
BRANCH 49 52
ATOM     52  CB  ARG B   7      76.467 -21.613  47.612  1.00 18.48 LIG 0.04  C 
BRANCH 52 53
ATOM     53  CG  ARG B   7      77.295 -20.951  46.532  1.00 19.62 LIG 0.02  C 
BRANCH 53 54
ATOM     54  CD  ARG B   7      76.578 -19.786  45.893  1.00 19.05 LIG 0.14  C 
BRANCH 54 55
ATOM     55  NE  ARG B   7      75.945 -20.199  44.647  1.00 16.94 LIG-0.23  N 
ATOM     56  CZ  ARG B   7      76.065 -19.568  43.482  1.00 14.04 LIG 0.67  C 
ATOM     57  NH1 ARG B   7      76.787 -18.464  43.372  1.00 13.87 LIG-0.23  N 
ATOM     58  NH2 ARG B   7      75.442 -20.044  42.419  1.00 14.07 LIG-0.23  N 
ATOM     59 2HH1 ARG B   7      76.855 -18.068  42.611  1.00 13.87 LIG 0.17  HD
ATOM     60 1HH1 ARG B   7      77.189 -18.143  44.061  1.00 13.87 LIG 0.17  HD
ATOM     61 1HH2 ARG B   7      74.964 -20.756  42.484  1.00 14.07 LIG 0.17  HD
ATOM     62 2HH2 ARG B   7      75.515 -19.643  41.663  1.00 14.07 LIG 0.17  HD
ATOM     63 HE   ARG B   7      75.455 -20.907  44.667  1.00 16.94 LIG 0.18  HD
ENDBRANCH 54 55
ENDBRANCH 53 54
ENDBRANCH 52 53
ENDBRANCH 49 52
ENDBRANCH 47 49
ENDBRANCH 41 45
ENDBRANCH 4 38
TORSDOF 16
ENDMDL
MODEL 30
USER: ADFR SOLUTION from run 48
USER: SCORE 16.155086 LL:  -4.927 LR: -12.232 RR:   0.000 FEB:  -7.459
USER: RMSD 6.417676
USER: SEED 47
USER: STATUS no improvement in best in 5 clusters for 5 generations
USER: GENES 18
USER: genes 0 Translation |==|  0.68363 0.49633 0.61858
USER: genes 1 Rotation |==|  0.44480 0.50771 0.39049 0.98467
USER: genes 2 Torsion [N]-C--CA-[N] |==|  0.12859
USER: genes 3 Torsion [C]-CA--N-[C] |==|  0.57288
USER: genes 4 Torsion [N]-C--CA-[N] |==|  0.23793
USER: genes 5 Torsion [N]-C--CA-[N] |==|  0.51618
USER: genes 6 Torsion [N]-C--CA-[N] |==|  0.82944
USER: genes 7 Torsion [C]-CA--N-[C] |==|  0.81120
USER: genes 8 Torsion [C]-CA--CB-[CG] |==|  0.67068
USER: genes 9 Torsion [CA]-CB--CG-[CD1] |==|  0.37722
USER: genes 10 Torsion [N]-CA--C-[N] |==|  0.54595
USER: genes 11 Torsion [N]-CA--C-[N] |==|  0.71823
USER: genes 12 Torsion [C]-N--CA-[C] |==|  0.82726
USER: genes 13 Torsion [N]-CA--C-[O] |==|  0.02533
USER: genes 14 Torsion [N]-CA--CB-[CG] |==|  0.36762
USER: genes 15 Torsion [CA]-CB--CG-[CD] |==|  0.48186
USER: genes 16 Torsion [CB]-CG--CD-[NE] |==|  0.50264
USER: genes 17 Torsion [CG]-CD--NE-[HE] |==|  0.89407
ROOT
ATOM      1  C   LEU B   4      81.324 -19.344  53.506  1.00 11.33 LIG 0.24  C 
ATOM      2 O    LEU B   4      81.953 -20.204  52.872  1.00 12.90 LIG-0.27  OA
ATOM      3  N   PRO B   5      80.213 -18.814  53.031  1.00 11.12 LIG-0.34  N 
ATOM      4  CA  PRO B   5      79.681 -19.259  51.768  1.00 12.55 LIG 0.18  C 
ATOM      5  CB  PRO B   5      78.225 -18.783  51.828  1.00 13.89 LIG 0.04  C 
ATOM      6  CG  PRO B   5      78.282 -17.557  52.654  1.00 12.43 LIG 0.02  C 
ATOM      7  CD  PRO B   5      79.381 -17.771  53.647  1.00 11.21 LIG 0.13  C 
ENDROOT
BRANCH 1 8
ATOM      8  CA  LEU B   4      81.805 -18.882  54.875  1.00 11.65 LIG 0.18  C 
BRANCH 8 9
ATOM      9  N   LEU B   4      80.687 -18.877  55.791  1.00 12.22 LIG-0.35  N 
ATOM     10  C   PRO B   3      80.699 -18.063  56.834  1.00 12.52 LIG 0.24  C 
ATOM     11 O    PRO B   3      81.676 -17.372  57.134  1.00 13.02 LIG-0.27  OA
ATOM     12 H    LEU B   4      80.052 -19.424  55.599  1.00 12.22 LIG 0.16  HD
BRANCH 10 13
ATOM     13  CA  PRO B   3      79.424 -18.032  57.661  1.00 15.46 LIG 0.18  C 
ATOM     14  N   PRO B   3      79.442 -19.106  58.657  1.00 15.16 LIG-0.34  N 
ATOM     15  CD  PRO B   3      79.474 -18.584  60.032  1.00 18.06 LIG 0.13  C 
ATOM     16  C   PRO B   2      79.524 -20.369  58.256  1.00 13.99 LIG 0.24  C 
ATOM     17  CG  PRO B   3      79.872 -17.161  59.838  1.00 19.92 LIG 0.02  C 
ATOM     18  CB  PRO B   3      79.333 -16.761  58.511  1.00 18.17 LIG 0.04  C 
ATOM     19 O    PRO B   2      79.496 -20.662  57.054  1.00 12.71 LIG-0.27  OA
BRANCH 16 20
ATOM     20  CA  PRO B   2      79.710 -21.443  59.311  1.00 15.85 LIG 0.18  C 
ATOM     21  CB  PRO B   2      81.017 -21.208  60.087  1.00 19.12 LIG 0.04  C 
ATOM     22  CG  PRO B   2      81.731 -22.495  60.122  1.00 19.63 LIG 0.02  C 
ATOM     23  CD  PRO B   2      81.274 -23.256  58.938  1.00 18.19 LIG 0.13  C 
ATOM     24  N   PRO B   2      79.915 -22.742  58.695  1.00 15.71 LIG-0.34  N 
ATOM     25  C   ALA B   1      78.945 -23.305  57.986  1.00 13.25 LIG 0.24  C 
ATOM     26 O    ALA B   1      77.869 -22.746  57.777  1.00 13.75 LIG-0.27  OA
BRANCH 25 27
ATOM     27  CA  ALA B   1      79.238 -24.676  57.401  1.00 12.47 LIG 0.17  C 
ATOM     28  CB  ALA B   1      79.536 -25.655  58.505  1.00 12.30 LIG 0.04  C 
BRANCH 27 29
ATOM     29  N   ALA B   1      80.356 -24.600  56.480  1.00 12.31 LIG-0.35  N 
ATOM     30 H    ALA B   1      81.068 -25.004  56.745  1.00 12.31 LIG 0.16  HD
ATOM     31  C   ACE B   0      80.253 -23.952  55.332  1.00 14.04 LIG 0.21  C 
ATOM     32  CH3 ACE B   0      81.467 -23.944  54.455  1.00 14.78 LIG 0.12  C 
ATOM     33 O    ACE B   0      79.207 -23.382  55.022  1.00 15.52 LIG-0.27  OA
ENDBRANCH 27 29
ENDBRANCH 25 27
ENDBRANCH 16 20
ENDBRANCH 10 13
ENDBRANCH 8 9
BRANCH 8 34
ATOM     34  CB  LEU B   4      82.927 -19.794  55.365  1.00 12.59 LIG 0.04  C 
BRANCH 34 35
ATOM     35  CG  LEU B   4      82.624 -20.545  56.660  1.00 12.74 LIG-0.02  C 
ATOM     36  CD1 LEU B   4      83.063 -21.991  56.527  1.00 14.33 LIG 0.01  C 
ATOM     37  CD2 LEU B   4      83.290 -19.903  57.871  1.00 11.50 LIG 0.01  C 
ENDBRANCH 34 35
ENDBRANCH 8 34
ENDBRANCH 1 8
BRANCH 4 38
ATOM     38  C   PRO B   5      80.433 -18.615  50.620  1.00 12.26 LIG 0.24  C 
ATOM     39  N   PRO B   6      79.868 -18.649  49.418  1.00 14.33 LIG-0.34  N 
ATOM     40  CD  PRO B   6      78.592 -19.271  49.034  1.00 16.43 LIG 0.13  C 
ATOM     41  CA  PRO B   6      80.522 -17.990  48.285  1.00 15.63 LIG 0.18  C 
ATOM     42  CG  PRO B   6      78.714 -19.403  47.553  1.00 18.90 LIG 0.02  C 
ATOM     43  CB  PRO B   6      79.609 -18.318  47.098  1.00 17.20 LIG 0.04  C 
ATOM     44 O    PRO B   5      81.522 -18.050  50.802  1.00 12.24 LIG-0.27  OA
BRANCH 41 45
ATOM     45  C   PRO B   6      80.611 -16.486  48.489  1.00 14.54 LIG 0.24  C 
ATOM     46 O    PRO B   6      81.456 -15.981  49.232  1.00 15.72 LIG-0.27  OA
ATOM     47  N   ARG B   7      79.711 -15.772  47.830  1.00 15.59 LIG-0.35  N 
ATOM     48 H    ARG B   7      79.126 -16.110  47.297  1.00 15.59 LIG 0.16  HD
BRANCH 47 49
ATOM     49  CA  ARG B   7      79.639 -14.318  47.959  1.00 17.66 LIG 0.16  C 
BRANCH 49 50
ATOM     50  C   ARG B   7      79.321 -13.871  49.382  1.00 19.45 LIG 0.22  C 
ATOM     51 O    ARG B   7      79.319 -14.679  50.304  1.00 22.19 LIG-0.29  OA
ENDBRANCH 49 50
BRANCH 49 52
ATOM     52  CB  ARG B   7      78.615 -13.764  46.974  1.00 18.48 LIG 0.04  C 
BRANCH 52 53
ATOM     53  CG  ARG B   7      77.669 -12.783  47.630  1.00 19.62 LIG 0.02  C 
BRANCH 53 54
ATOM     54  CD  ARG B   7      76.755 -12.112  46.633  1.00 19.05 LIG 0.14  C 
BRANCH 54 55
ATOM     55  NE  ARG B   7      75.879 -11.161  47.304  1.00 16.94 LIG-0.23  N 
ATOM     56  CZ  ARG B   7      75.514  -9.979  46.814  1.00 14.04 LIG 0.67  C 
ATOM     57  NH1 ARG B   7      75.953  -9.559  45.638  1.00 13.87 LIG-0.23  N 
ATOM     58  NH2 ARG B   7      74.710  -9.205  47.519  1.00 14.07 LIG-0.23  N 
ATOM     59 2HH1 ARG B   7      75.708  -8.792  45.336  1.00 13.87 LIG 0.17  HD
ATOM     60 1HH1 ARG B   7      76.484 -10.053  45.176  1.00 13.87 LIG 0.17  HD
ATOM     61 1HH2 ARG B   7      74.426  -9.466  48.289  1.00 14.07 LIG 0.17  HD
ATOM     62 2HH2 ARG B   7      74.469  -8.440  47.210  1.00 14.07 LIG 0.17  HD
ATOM     63 HE   ARG B   7      75.573 -11.381  48.078  1.00 16.94 LIG 0.18  HD
ENDBRANCH 54 55
ENDBRANCH 53 54
ENDBRANCH 52 53
ENDBRANCH 49 52
ENDBRANCH 47 49
ENDBRANCH 41 45
ENDBRANCH 4 38
TORSDOF 16
ENDMDL
MODEL 31
USER: ADFR SOLUTION from run 122
USER: SCORE 16.313379 LL:  -4.402 LR: -12.166 RR:   0.000 FEB:  -7.393
USER: RMSD 4.111324
USER: SEED 121
USER: STATUS no improvement in best in 8 clusters for 5 generations
USER: GENES 18
USER: genes 0 Translation |==|  0.44185 0.39425 0.47340
USER: genes 1 Rotation |==|  0.44467 0.49551 0.38391 0.98316
USER: genes 2 Torsion [N]-C--CA-[N] |==|  0.45776
USER: genes 3 Torsion [C]-CA--N-[C] |==|  0.75231
USER: genes 4 Torsion [N]-C--CA-[N] |==|  0.45152
USER: genes 5 Torsion [N]-C--CA-[N] |==|  0.87609
USER: genes 6 Torsion [N]-C--CA-[N] |==|  0.37412
USER: genes 7 Torsion [C]-CA--N-[C] |==|  0.74493
USER: genes 8 Torsion [C]-CA--CB-[CG] |==|  0.41702
USER: genes 9 Torsion [CA]-CB--CG-[CD1] |==|  0.32503
USER: genes 10 Torsion [N]-CA--C-[N] |==|  0.42930
USER: genes 11 Torsion [N]-CA--C-[N] |==|  0.80664
USER: genes 12 Torsion [C]-N--CA-[C] |==|  0.48198
USER: genes 13 Torsion [N]-CA--C-[O] |==|  0.41480
USER: genes 14 Torsion [N]-CA--CB-[CG] |==|  0.69052
USER: genes 15 Torsion [CA]-CB--CG-[CD] |==|  0.74103
USER: genes 16 Torsion [CB]-CG--CD-[NE] |==|  0.22752
USER: genes 17 Torsion [CG]-CD--NE-[HE] |==|  0.15233
ROOT
ATOM      1  C   LEU B   4      77.698 -21.794  49.586  1.00 11.33 LIG 0.24  C 
ATOM      2 O    LEU B   4      78.338 -22.675  48.995  1.00 12.90 LIG-0.27  OA
ATOM      3  N   PRO B   5      76.623 -21.247  49.050  1.00 11.12 LIG-0.34  N 
ATOM      4  CA  PRO B   5      76.146 -21.697  47.768  1.00 12.55 LIG 0.18  C 
ATOM      5  CB  PRO B   5      74.699 -21.188  47.748  1.00 13.89 LIG 0.04  C 
ATOM      6  CG  PRO B   5      74.741 -19.954  48.562  1.00 12.43 LIG 0.02  C 
ATOM      7  CD  PRO B   5      75.784 -20.178  49.611  1.00 11.21 LIG 0.13  C 
ENDROOT
BRANCH 1 8
ATOM      8  CA  LEU B   4      78.120 -21.324  50.972  1.00 11.65 LIG 0.18  C 
BRANCH 8 9
ATOM      9  N   LEU B   4      79.068 -22.267  51.521  1.00 12.22 LIG-0.35  N 
ATOM     10  C   PRO B   3      78.631 -23.301  52.221  1.00 12.52 LIG 0.24  C 
ATOM     11 O    PRO B   3      77.445 -23.450  52.528  1.00 13.02 LIG-0.27  OA
ATOM     12 H    LEU B   4      79.894 -22.098  51.355  1.00 12.22 LIG 0.16  HD
BRANCH 10 13
ATOM     13  CA  PRO B   3      79.689 -24.309  52.640  1.00 15.46 LIG 0.18  C 
ATOM     14  N   PRO B   3      79.182 -25.152  53.725  1.00 15.16 LIG-0.34  N 
ATOM     15  CD  PRO B   3      79.056 -26.560  53.318  1.00 18.06 LIG 0.13  C 
ATOM     16  C   PRO B   2      78.812 -24.592  54.871  1.00 13.99 LIG 0.24  C 
ATOM     17  CG  PRO B   3      79.128 -26.483  51.832  1.00 19.92 LIG 0.02  C 
ATOM     18  CB  PRO B   3      79.990 -25.311  51.522  1.00 18.17 LIG 0.04  C 
ATOM     19 O    PRO B   2      78.970 -23.381  55.071  1.00 12.71 LIG-0.27  OA
BRANCH 16 20
ATOM     20  CA  PRO B   2      78.137 -25.468  55.909  1.00 15.85 LIG 0.18  C 
ATOM     21  CB  PRO B   2      79.142 -26.475  56.493  1.00 19.12 LIG 0.04  C 
ATOM     22  CG  PRO B   2      78.496 -27.797  56.452  1.00 19.63 LIG 0.02  C 
ATOM     23  CD  PRO B   2      77.502 -27.740  55.355  1.00 18.19 LIG 0.13  C 
ATOM     24  N   PRO B   2      77.132 -26.316  55.293  1.00 15.71 LIG-0.34  N 
ATOM     25  C   ALA B   1      76.056 -25.778  54.734  1.00 13.25 LIG 0.24  C 
ATOM     26 O    ALA B   1      75.885 -24.562  54.666  1.00 13.75 LIG-0.27  OA
BRANCH 25 27
ATOM     27  CA  ALA B   1      75.044 -26.742  54.138  1.00 12.47 LIG 0.17  C 
ATOM     28  CB  ALA B   1      75.169 -26.756  52.637  1.00 12.30 LIG 0.04  C 
BRANCH 27 29
ATOM     29  N   ALA B   1      73.699 -26.362  54.528  1.00 12.31 LIG-0.35  N 
ATOM     30 H    ALA B   1      73.319 -25.797  54.002  1.00 12.31 LIG 0.16  HD
ATOM     31  C   ACE B   0      73.135 -26.866  55.612  1.00 14.04 LIG 0.21  C 
ATOM     32  CH3 ACE B   0      71.740 -26.411  55.915  1.00 14.78 LIG 0.12  C 
ATOM     33 O    ACE B   0      73.744 -27.661  56.328  1.00 15.52 LIG-0.27  OA
ENDBRANCH 27 29
ENDBRANCH 25 27
ENDBRANCH 16 20
ENDBRANCH 10 13
ENDBRANCH 8 9
BRANCH 8 34
ATOM     34  CB  LEU B   4      78.713 -19.920  50.885  1.00 12.59 LIG 0.04  C 
BRANCH 34 35
ATOM     35  CG  LEU B   4      78.520 -19.064  52.134  1.00 12.74 LIG-0.02  C 
ATOM     36  CD1 LEU B   4      79.872 -18.723  52.734  1.00 14.33 LIG 0.01  C 
ATOM     37  CD2 LEU B   4      77.736 -17.789  51.847  1.00 11.50 LIG 0.01  C 
ENDBRANCH 34 35
ENDBRANCH 8 34
ENDBRANCH 1 8
BRANCH 4 38
ATOM     38  C   PRO B   5      76.967 -21.083  46.650  1.00 12.26 LIG 0.24  C 
ATOM     39  N   PRO B   6      77.029 -21.741  45.498  1.00 14.33 LIG-0.34  N 
ATOM     40  CD  PRO B   6      76.416 -23.034  45.160  1.00 16.43 LIG 0.13  C 
ATOM     41  CA  PRO B   6      77.759 -21.164  44.367  1.00 15.63 LIG 0.18  C 
ATOM     42  CG  PRO B   6      77.190 -23.470  43.960  1.00 18.90 LIG 0.02  C 
ATOM     43  CB  PRO B   6      77.654 -22.242  43.281  1.00 17.20 LIG 0.04  C 
ATOM     44 O    PRO B   5      77.537 -19.991  46.798  1.00 12.24 LIG-0.27  OA
BRANCH 41 45
ATOM     45  C   PRO B   6      77.122 -19.867  43.893  1.00 14.54 LIG 0.24  C 
ATOM     46 O    PRO B   6      77.666 -18.775  44.071  1.00 15.72 LIG-0.27  OA
ATOM     47  N   ARG B   7      75.945 -20.000  43.299  1.00 15.59 LIG-0.35  N 
ATOM     48 H    ARG B   7      75.561 -20.756  43.156  1.00 15.59 LIG 0.16  HD
BRANCH 47 49
ATOM     49  CA  ARG B   7      75.187 -18.841  42.830  1.00 17.66 LIG 0.16  C 
BRANCH 49 50
ATOM     50  C   ARG B   7      73.942 -19.234  42.041  1.00 19.45 LIG 0.22  C 
ATOM     51 O    ARG B   7      72.945 -18.521  42.054  1.00 22.19 LIG-0.29  OA
ENDBRANCH 49 50
BRANCH 49 52
ATOM     52  CB  ARG B   7      76.093 -17.936  42.001  1.00 18.48 LIG 0.04  C 
BRANCH 52 53
ATOM     53  CG  ARG B   7      76.373 -16.622  42.696  1.00 19.62 LIG 0.02  C 
BRANCH 53 54
ATOM     54  CD  ARG B   7      75.404 -15.539  42.288  1.00 19.05 LIG 0.14  C 
BRANCH 54 55
ATOM     55  NE  ARG B   7      74.163 -15.656  43.044  1.00 16.94 LIG-0.23  N 
ATOM     56  CZ  ARG B   7      72.948 -15.753  42.509  1.00 14.04 LIG 0.67  C 
ATOM     57  NH1 ARG B   7      72.773 -15.734  41.197  1.00 13.87 LIG-0.23  N 
ATOM     58  NH2 ARG B   7      71.897 -15.856  43.302  1.00 14.07 LIG-0.23  N 
ATOM     59 2HH1 ARG B   7      71.980 -15.797  40.868  1.00 13.87 LIG 0.17  HD
ATOM     60 1HH1 ARG B   7      73.451 -15.657  40.674  1.00 13.87 LIG 0.17  HD
ATOM     61 1HH2 ARG B   7      72.001 -15.861  44.156  1.00 14.07 LIG 0.17  HD
ATOM     62 2HH2 ARG B   7      71.109 -15.920  42.966  1.00 14.07 LIG 0.17  HD
ATOM     63 HE   ARG B   7      74.221 -15.662  43.902  1.00 16.94 LIG 0.18  HD
ENDBRANCH 54 55
ENDBRANCH 53 54
ENDBRANCH 52 53
ENDBRANCH 49 52
ENDBRANCH 47 49
ENDBRANCH 41 45
ENDBRANCH 4 38
TORSDOF 16
ENDMDL
MODEL 32
USER: ADFR SOLUTION from run 41
USER: SCORE 16.876542 LL:  -5.412 LR: -12.080 RR:   0.000 FEB:  -7.307
USER: RMSD 9.028956
USER: SEED 40
USER: STATUS no improvement in best in 5 clusters for 5 generations
USER: GENES 18
USER: genes 0 Translation |==|  0.38836 0.75099 0.30832
USER: genes 1 Rotation |==|  0.53419 0.60502 0.94545 0.69844
USER: genes 2 Torsion [N]-C--CA-[N] |==|  0.15250
USER: genes 3 Torsion [C]-CA--N-[C] |==|  0.57539
USER: genes 4 Torsion [N]-C--CA-[N] |==|  0.75895
USER: genes 5 Torsion [N]-C--CA-[N] |==|  0.52630
USER: genes 6 Torsion [N]-C--CA-[N] |==|  0.40146
USER: genes 7 Torsion [C]-CA--N-[C] |==|  0.84444
USER: genes 8 Torsion [C]-CA--CB-[CG] |==|  0.26430
USER: genes 9 Torsion [CA]-CB--CG-[CD1] |==|  0.49325
USER: genes 10 Torsion [N]-CA--C-[N] |==|  0.50134
USER: genes 11 Torsion [N]-CA--C-[N] |==|  0.92682
USER: genes 12 Torsion [C]-N--CA-[C] |==|  0.70167
USER: genes 13 Torsion [N]-CA--C-[O] |==|  0.87151
USER: genes 14 Torsion [N]-CA--CB-[CG] |==|  0.92121
USER: genes 15 Torsion [CA]-CB--CG-[CD] |==|  0.70488
USER: genes 16 Torsion [CB]-CG--CD-[NE] |==|  0.05554
USER: genes 17 Torsion [CG]-CD--NE-[HE] |==|  0.97788
ROOT
ATOM      1  C   LEU B   4      76.895 -13.232  45.129  1.00 11.33 LIG 0.24  C 
ATOM      2 O    LEU B   4      76.294 -12.581  44.262  1.00 12.90 LIG-0.27  OA
ATOM      3  N   PRO B   5      77.536 -14.347  44.831  1.00 11.12 LIG-0.34  N 
ATOM      4  CA  PRO B   5      77.583 -14.813  43.469  1.00 12.55 LIG 0.18  C 
ATOM      5  CB  PRO B   5      78.762 -15.793  43.488  1.00 13.89 LIG 0.04  C 
ATOM      6  CG  PRO B   5      78.754 -16.339  44.863  1.00 12.43 LIG 0.02  C 
ATOM      7  CD  PRO B   5      78.263 -15.237  45.748  1.00 11.21 LIG 0.13  C 
ENDROOT
BRANCH 1 8
ATOM      8  CA  LEU B   4      76.934 -12.753  46.574  1.00 11.65 LIG 0.18  C 
BRANCH 8 9
ATOM      9  N   LEU B   4      78.312 -12.634  46.995  1.00 12.22 LIG-0.35  N 
ATOM     10  C   PRO B   3      78.618 -12.767  48.275  1.00 12.52 LIG 0.24  C 
ATOM     11 O    PRO B   3      77.766 -12.881  49.160  1.00 13.02 LIG-0.27  OA
ATOM     12 H    LEU B   4      78.877 -12.479  46.366  1.00 12.22 LIG 0.16  HD
BRANCH 10 13
ATOM     13  CA  PRO B   3      80.103 -12.761  48.602  1.00 15.46 LIG 0.18  C 
ATOM     14  N   PRO B   3      80.651 -14.115  48.485  1.00 15.16 LIG-0.34  N 
ATOM     15  CD  PRO B   3      81.639 -14.219  47.402  1.00 18.06 LIG 0.13  C 
ATOM     16  C   PRO B   2      80.166 -15.085  49.252  1.00 13.99 LIG 0.24  C 
ATOM     17  CG  PRO B   3      81.390 -12.987  46.604  1.00 19.92 LIG 0.02  C 
ATOM     18  CB  PRO B   3      80.905 -11.963  47.569  1.00 18.17 LIG 0.04  C 
ATOM     19 O    PRO B   2      79.320 -14.848  50.124  1.00 12.71 LIG-0.27  OA
BRANCH 16 20
ATOM     20  CA  PRO B   2      80.634 -16.503  48.991  1.00 15.85 LIG 0.18  C 
ATOM     21  CB  PRO B   2      80.347 -16.900  47.533  1.00 19.12 LIG 0.04  C 
ATOM     22  CG  PRO B   2      79.691 -18.217  47.569  1.00 19.63 LIG 0.02  C 
ATOM     23  CD  PRO B   2      79.027 -18.315  48.889  1.00 18.19 LIG 0.13  C 
ATOM     24  N   PRO B   2      79.850 -17.456  49.757  1.00 15.71 LIG-0.34  N 
ATOM     25  C   ALA B   1      79.907 -17.453  51.083  1.00 13.25 LIG 0.24  C 
ATOM     26 O    ALA B   1      80.569 -16.631  51.714  1.00 13.75 LIG-0.27  OA
BRANCH 25 27
ATOM     27  CA  ALA B   1      79.075 -18.501  51.802  1.00 12.47 LIG 0.17  C 
ATOM     28  CB  ALA B   1      77.731 -17.929  52.169  1.00 12.30 LIG 0.04  C 
BRANCH 27 29
ATOM     29  N   ALA B   1      79.767 -18.963  52.991  1.00 12.31 LIG-0.35  N 
ATOM     30 H    ALA B   1      79.320 -18.881  53.721  1.00 12.31 LIG 0.16  HD
ATOM     31  C   ACE B   0      80.988 -19.463  52.918  1.00 14.04 LIG 0.21  C 
ATOM     32  CH3 ACE B   0      81.605 -19.916  54.206  1.00 14.78 LIG 0.12  C 
ATOM     33 O    ACE B   0      81.577 -19.537  51.839  1.00 15.52 LIG-0.27  OA
ENDBRANCH 27 29
ENDBRANCH 25 27
ENDBRANCH 16 20
ENDBRANCH 10 13
ENDBRANCH 8 9
BRANCH 8 34
ATOM     34  CB  LEU B   4      76.194 -11.423  46.698  1.00 12.59 LIG 0.04  C 
BRANCH 34 35
ATOM     35  CG  LEU B   4      74.733 -11.539  47.128  1.00 12.74 LIG-0.02  C 
ATOM     36  CD1 LEU B   4      74.130 -10.155  47.272  1.00 14.33 LIG 0.01  C 
ATOM     37  CD2 LEU B   4      73.908 -12.374  46.156  1.00 11.50 LIG 0.01  C 
ENDBRANCH 34 35
ENDBRANCH 8 34
ENDBRANCH 1 8
BRANCH 4 38
ATOM     38  C   PRO B   5      76.285 -15.507  43.102  1.00 12.26 LIG 0.24  C 
ATOM     39  N   PRO B   6      76.178 -16.003  41.874  1.00 14.33 LIG-0.34  N 
ATOM     40  CD  PRO B   6      77.162 -15.942  40.784  1.00 16.43 LIG 0.13  C 
ATOM     41  CA  PRO B   6      74.971 -16.736  41.486  1.00 15.63 LIG 0.18  C 
ATOM     42  CG  PRO B   6      76.339 -16.223  39.571  1.00 18.90 LIG 0.02  C 
ATOM     43  CB  PRO B   6      75.208 -17.068  40.008  1.00 17.20 LIG 0.04  C 
ATOM     44 O    PRO B   5      75.369 -15.633  43.929  1.00 12.24 LIG-0.27  OA
BRANCH 41 45
ATOM     45  C   PRO B   6      74.805 -18.011  42.298  1.00 14.54 LIG 0.24  C 
ATOM     46 O    PRO B   6      73.695 -18.504  42.511  1.00 15.72 LIG-0.27  OA
ATOM     47  N   ARG B   7      75.929 -18.531  42.768  1.00 15.59 LIG-0.35  N 
ATOM     48 H    ARG B   7      76.710 -18.206  42.615  1.00 15.59 LIG 0.16  HD
BRANCH 47 49
ATOM     49  CA  ARG B   7      75.929 -19.730  43.604  1.00 17.66 LIG 0.16  C 
BRANCH 49 50
ATOM     50  C   ARG B   7      76.244 -19.427  45.066  1.00 19.45 LIG 0.22  C 
ATOM     51 O    ARG B   7      77.179 -18.691  45.362  1.00 22.19 LIG-0.29  OA
ENDBRANCH 49 50
BRANCH 49 52
ATOM     52  CB  ARG B   7      76.909 -20.752  43.038  1.00 18.48 LIG 0.04  C 
BRANCH 52 53
ATOM     53  CG  ARG B   7      77.073 -20.614  41.541  1.00 19.62 LIG 0.02  C 
BRANCH 53 54
ATOM     54  CD  ARG B   7      76.380 -21.721  40.783  1.00 19.05 LIG 0.14  C 
BRANCH 54 55
ATOM     55  NE  ARG B   7      75.365 -22.352  41.618  1.00 16.94 LIG-0.23  N 
ATOM     56  CZ  ARG B   7      74.482 -23.254  41.198  1.00 14.04 LIG 0.67  C 
ATOM     57  NH1 ARG B   7      74.452 -23.648  39.934  1.00 13.87 LIG-0.23  N 
ATOM     58  NH2 ARG B   7      73.611 -23.756  42.054  1.00 14.07 LIG-0.23  N 
ATOM     59 2HH1 ARG B   7      73.874 -24.232  39.679  1.00 13.87 LIG 0.17  HD
ATOM     60 1HH1 ARG B   7      75.010 -23.319  39.368  1.00 13.87 LIG 0.17  HD
ATOM     61 1HH2 ARG B   7      73.618 -23.499  42.875  1.00 14.07 LIG 0.17  HD
ATOM     62 2HH2 ARG B   7      73.037 -24.339  41.791  1.00 14.07 LIG 0.17  HD
ATOM     63 HE   ARG B   7      75.335 -22.122  42.447  1.00 16.94 LIG 0.18  HD
ENDBRANCH 54 55
ENDBRANCH 53 54
ENDBRANCH 52 53
ENDBRANCH 49 52
ENDBRANCH 47 49
ENDBRANCH 41 45
ENDBRANCH 4 38
TORSDOF 16
ENDMDL
MODEL 33
USER: ADFR SOLUTION from run 60
USER: SCORE 14.723193 LL:  -4.802 LR: -12.074 RR:   0.000 FEB:  -7.302
USER: RMSD 5.729219
USER: SEED 59
USER: STATUS no improvement in best in 20 clusters for 5 generations
USER: GENES 18
USER: genes 0 Translation |==|  0.52666 0.56016 0.40160
USER: genes 1 Rotation |==|  0.74501 0.25231 0.73619 0.76988
USER: genes 2 Torsion [N]-C--CA-[N] |==|  0.48853
USER: genes 3 Torsion [C]-CA--N-[C] |==|  0.23122
USER: genes 4 Torsion [N]-C--CA-[N] |==|  0.89933
USER: genes 5 Torsion [N]-C--CA-[N] |==|  0.31088
USER: genes 6 Torsion [N]-C--CA-[N] |==|  0.45863
USER: genes 7 Torsion [C]-CA--N-[C] |==|  0.20397
USER: genes 8 Torsion [C]-CA--CB-[CG] |==|  0.51339
USER: genes 9 Torsion [CA]-CB--CG-[CD1] |==|  0.41662
USER: genes 10 Torsion [N]-CA--C-[N] |==|  0.30894
USER: genes 11 Torsion [N]-CA--C-[N] |==|  0.47795
USER: genes 12 Torsion [C]-N--CA-[C] |==|  0.54081
USER: genes 13 Torsion [N]-CA--C-[O] |==|  0.87788
USER: genes 14 Torsion [N]-CA--CB-[CG] |==|  0.14832
USER: genes 15 Torsion [CA]-CB--CG-[CD] |==|  0.67272
USER: genes 16 Torsion [CB]-CG--CD-[NE] |==|  0.65663
USER: genes 17 Torsion [CG]-CD--NE-[HE] |==|  0.96120
ROOT
ATOM      1  C   LEU B   4      78.970 -17.812  47.647  1.00 11.33 LIG 0.24  C 
ATOM      2 O    LEU B   4      79.432 -17.071  48.526  1.00 12.90 LIG-0.27  OA
ATOM      3  N   PRO B   5      78.821 -17.396  46.404  1.00 11.12 LIG-0.34  N 
ATOM      4  CA  PRO B   5      79.235 -16.068  46.031  1.00 12.55 LIG 0.18  C 
ATOM      5  CB  PRO B   5      79.342 -16.163  44.504  1.00 13.89 LIG 0.04  C 
ATOM      6  CG  PRO B   5      78.321 -17.167  44.134  1.00 12.43 LIG 0.02  C 
ATOM      7  CD  PRO B   5      78.263 -18.143  45.267  1.00 11.21 LIG 0.13  C 
ENDROOT
BRANCH 1 8
ATOM      8  CA  LEU B   4      78.575 -19.248  47.970  1.00 11.65 LIG 0.18  C 
BRANCH 8 9
ATOM      9  N   LEU B   4      78.905 -19.529  49.349  1.00 12.22 LIG-0.35  N 
ATOM     10  C   PRO B   3      78.065 -19.172  50.307  1.00 12.52 LIG 0.24  C 
ATOM     11 O    PRO B   3      77.048 -18.507  50.095  1.00 13.02 LIG-0.27  OA
ATOM     12 H    LEU B   4      79.657 -19.926  49.474  1.00 12.22 LIG 0.16  HD
BRANCH 10 13
ATOM     13  CA  PRO B   3      78.434 -19.629  51.710  1.00 15.46 LIG 0.18  C 
ATOM     14  N   PRO B   3      79.046 -20.959  51.664  1.00 15.16 LIG-0.34  N 
ATOM     15  CD  PRO B   3      80.452 -20.935  52.096  1.00 18.06 LIG 0.13  C 
ATOM     16  C   PRO B   2      78.354 -21.981  51.175  1.00 13.99 LIG 0.24  C 
ATOM     17  CG  PRO B   3      80.795 -19.487  52.032  1.00 19.92 LIG 0.02  C 
ATOM     18  CB  PRO B   3      79.533 -18.752  52.319  1.00 18.17 LIG 0.04  C 
ATOM     19 O    PRO B   2      77.171 -21.849  50.837  1.00 12.71 LIG-0.27  OA
BRANCH 16 20
ATOM     20  CA  PRO B   2      79.071 -23.304  50.985  1.00 15.85 LIG 0.18  C 
ATOM     21  CB  PRO B   2      78.738 -23.899  49.607  1.00 19.12 LIG 0.04  C 
ATOM     22  CG  PRO B   2      78.365 -25.306  49.827  1.00 19.63 LIG 0.02  C 
ATOM     23  CD  PRO B   2      77.858 -25.389  51.215  1.00 18.19 LIG 0.13  C 
ATOM     24  N   PRO B   2      78.567 -24.302  51.911  1.00 15.71 LIG-0.34  N 
ATOM     25  C   ALA B   1      78.742 -24.149  53.218  1.00 13.25 LIG 0.24  C 
ATOM     26 O    ALA B   1      79.280 -23.154  53.700  1.00 13.75 LIG-0.27  OA
BRANCH 25 27
ATOM     27  CA  ALA B   1      78.205 -25.255  54.111  1.00 12.47 LIG 0.17  C 
ATOM     28  CB  ALA B   1      76.701 -25.190  54.164  1.00 12.30 LIG 0.04  C 
BRANCH 27 29
ATOM     29  N   ALA B   1      78.761 -25.137  55.446  1.00 12.31 LIG-0.35  N 
ATOM     30 H    ALA B   1      79.356 -25.727  55.640  1.00 12.31 LIG 0.16  HD
ATOM     31  C   ACE B   0      78.361 -24.185  56.270  1.00 14.04 LIG 0.21  C 
ATOM     32  CH3 ACE B   0      79.008 -24.152  57.621  1.00 14.78 LIG 0.12  C 
ATOM     33 O    ACE B   0      77.492 -23.381  55.932  1.00 15.52 LIG-0.27  OA
ENDBRANCH 27 29
ENDBRANCH 25 27
ENDBRANCH 16 20
ENDBRANCH 10 13
ENDBRANCH 8 9
BRANCH 8 34
ATOM     34  CB  LEU B   4      77.087 -19.449  47.698  1.00 12.59 LIG 0.04  C 
BRANCH 34 35
ATOM     35  CG  LEU B   4      76.542 -20.820  48.092  1.00 12.74 LIG-0.02  C 
ATOM     36  CD1 LEU B   4      75.082 -20.696  48.485  1.00 14.33 LIG 0.01  C 
ATOM     37  CD2 LEU B   4      76.701 -21.848  46.979  1.00 11.50 LIG 0.01  C 
ENDBRANCH 34 35
ENDBRANCH 8 34
ENDBRANCH 1 8
BRANCH 4 38
ATOM     38  C   PRO B   5      78.194 -15.050  46.455  1.00 12.26 LIG 0.24  C 
ATOM     39  N   PRO B   6      78.515 -14.210  47.432  1.00 14.33 LIG-0.34  N 
ATOM     40  CD  PRO B   6      79.767 -14.151  48.201  1.00 16.43 LIG 0.13  C 
ATOM     41  CA  PRO B   6      77.570 -13.168  47.839  1.00 15.63 LIG 0.18  C 
ATOM     42  CG  PRO B   6      79.382 -13.372  49.414  1.00 18.90 LIG 0.02  C 
ATOM     43  CB  PRO B   6      78.274 -12.478  49.014  1.00 17.20 LIG 0.04  C 
ATOM     44 O    PRO B   5      77.092 -14.985  45.888  1.00 12.24 LIG-0.27  OA
BRANCH 41 45
ATOM     45  C   PRO B   6      77.313 -12.176  46.716  1.00 14.54 LIG 0.24  C 
ATOM     46 O    PRO B   6      77.977 -12.187  45.677  1.00 15.72 LIG-0.27  OA
ATOM     47  N   ARG B   7      76.347 -11.299  46.947  1.00 15.59 LIG-0.35  N 
ATOM     48 H    ARG B   7      75.867 -11.289  47.661  1.00 15.59 LIG 0.16  HD
BRANCH 47 49
ATOM     49  CA  ARG B   7      76.014 -10.253  45.982  1.00 17.66 LIG 0.16  C 
BRANCH 49 50
ATOM     50  C   ARG B   7      75.140  -9.156  46.583  1.00 19.45 LIG 0.22  C 
ATOM     51 O    ARG B   7      74.189  -9.441  47.303  1.00 22.19 LIG-0.29  OA
ENDBRANCH 49 50
BRANCH 49 52
ATOM     52  CB  ARG B   7      75.341 -10.874  44.762  1.00 18.48 LIG 0.04  C 
BRANCH 52 53
ATOM     53  CG  ARG B   7      74.156 -11.734  45.143  1.00 19.62 LIG 0.02  C 
BRANCH 53 54
ATOM     54  CD  ARG B   7      74.345 -13.179  44.751  1.00 19.05 LIG 0.14  C 
BRANCH 54 55
ATOM     55  NE  ARG B   7      73.252 -13.622  43.895  1.00 16.94 LIG-0.23  N 
ATOM     56  CZ  ARG B   7      73.251 -14.739  43.172  1.00 14.04 LIG 0.67  C 
ATOM     57  NH1 ARG B   7      74.294 -15.554  43.167  1.00 13.87 LIG-0.23  N 
ATOM     58  NH2 ARG B   7      72.195 -15.033  42.435  1.00 14.07 LIG-0.23  N 
ATOM     59 2HH1 ARG B   7      74.277 -16.272  42.694  1.00 13.87 LIG 0.17  HD
ATOM     60 1HH1 ARG B   7      74.989 -15.365  43.637  1.00 13.87 LIG 0.17  HD
ATOM     61 1HH2 ARG B   7      71.516 -14.505  42.425  1.00 14.07 LIG 0.17  HD
ATOM     62 2HH2 ARG B   7      72.186 -15.753  41.965  1.00 14.07 LIG 0.17  HD
ATOM     63 HE   ARG B   7      72.553 -13.122  43.854  1.00 16.94 LIG 0.18  HD
ENDBRANCH 54 55
ENDBRANCH 53 54
ENDBRANCH 52 53
ENDBRANCH 49 52
ENDBRANCH 47 49
ENDBRANCH 41 45
ENDBRANCH 4 38
TORSDOF 16
ENDMDL
MODEL 34
USER: ADFR SOLUTION from run 30
USER: SCORE 17.302949 LL:  -5.772 LR: -12.059 RR:   0.000 FEB:  -7.286
USER: RMSD 6.512442
USER: SEED 29
USER: STATUS no improvement in best in 11 clusters for 5 generations
USER: GENES 18
USER: genes 0 Translation |==|  0.52547 0.56890 0.36584
USER: genes 1 Rotation |==|  0.78445 0.24285 0.71161 0.74121
USER: genes 2 Torsion [N]-C--CA-[N] |==|  0.42390
USER: genes 3 Torsion [C]-CA--N-[C] |==|  0.81869
USER: genes 4 Torsion [N]-C--CA-[N] |==|  0.95818
USER: genes 5 Torsion [N]-C--CA-[N] |==|  0.30854
USER: genes 6 Torsion [N]-C--CA-[N] |==|  0.22595
USER: genes 7 Torsion [C]-CA--N-[C] |==|  0.61111
USER: genes 8 Torsion [C]-CA--CB-[CG] |==|  0.68827
USER: genes 9 Torsion [CA]-CB--CG-[CD1] |==|  0.45025
USER: genes 10 Torsion [N]-CA--C-[N] |==|  0.33487
USER: genes 11 Torsion [N]-CA--C-[N] |==|  0.46721
USER: genes 12 Torsion [C]-N--CA-[C] |==|  0.59681
USER: genes 13 Torsion [N]-CA--C-[O] |==|  0.82583
USER: genes 14 Torsion [N]-CA--CB-[CG] |==|  0.01766
USER: genes 15 Torsion [CA]-CB--CG-[CD] |==|  0.69979
USER: genes 16 Torsion [CB]-CG--CD-[NE] |==|  0.71289
USER: genes 17 Torsion [CG]-CD--NE-[HE] |==|  0.07225
ROOT
ATOM      1  C   LEU B   4      78.952 -17.602  46.682  1.00 11.33 LIG 0.24  C 
ATOM      2 O    LEU B   4      79.417 -17.029  47.677  1.00 12.90 LIG-0.27  OA
ATOM      3  N   PRO B   5      78.716 -16.951  45.559  1.00 11.12 LIG-0.34  N 
ATOM      4  CA  PRO B   5      79.036 -15.550  45.455  1.00 12.55 LIG 0.18  C 
ATOM      5  CB  PRO B   5      79.070 -15.322  43.939  1.00 13.89 LIG 0.04  C 
ATOM      6  CG  PRO B   5      78.088 -16.294  43.408  1.00 12.43 LIG 0.02  C 
ATOM      7  CD  PRO B   5      78.143 -17.483  44.314  1.00 11.21 LIG 0.13  C 
ENDROOT
BRANCH 1 8
ATOM      8  CA  LEU B   4      78.655 -19.096  46.714  1.00 11.65 LIG 0.18  C 
BRANCH 8 9
ATOM      9  N   LEU B   4      79.519 -19.728  47.685  1.00 12.22 LIG-0.35  N 
ATOM     10  C   PRO B   3      80.827 -19.745  47.483  1.00 12.52 LIG 0.24  C 
ATOM     11 O    PRO B   3      81.350 -19.340  46.441  1.00 13.02 LIG-0.27  OA
ATOM     12 H    LEU B   4      79.121 -20.069  48.366  1.00 12.22 LIG 0.16  HD
BRANCH 10 13
ATOM     13  CA  PRO B   3      81.663 -20.310  48.620  1.00 15.46 LIG 0.18  C 
ATOM     14  N   PRO B   3      80.862 -20.389  49.844  1.00 15.16 LIG-0.34  N 
ATOM     15  CD  PRO B   3      80.659 -21.778  50.283  1.00 18.06 LIG 0.13  C 
ATOM     16  C   PRO B   2      80.343 -19.280  50.359  1.00 13.99 LIG 0.24  C 
ATOM     17  CG  PRO B   3      81.026 -22.565  49.073  1.00 19.92 LIG 0.02  C 
ATOM     18  CB  PRO B   3      82.059 -21.767  48.361  1.00 18.17 LIG 0.04  C 
ATOM     19 O    PRO B   2      80.595 -18.170  49.873  1.00 12.71 LIG-0.27  OA
BRANCH 16 20
ATOM     20  CA  PRO B   2      79.384 -19.415  51.526  1.00 15.85 LIG 0.18  C 
ATOM     21  CB  PRO B   2      78.158 -18.511  51.317  1.00 19.12 LIG 0.04  C 
ATOM     22  CG  PRO B   2      77.958 -17.763  52.569  1.00 19.63 LIG 0.02  C 
ATOM     23  CD  PRO B   2      79.283 -17.688  53.224  1.00 18.19 LIG 0.13  C 
ATOM     24  N   PRO B   2      79.978 -18.896  52.745  1.00 15.71 LIG-0.34  N 
ATOM     25  C   ALA B   1      81.042 -19.487  53.273  1.00 13.25 LIG 0.24  C 
ATOM     26 O    ALA B   1      81.595 -20.449  52.742  1.00 13.75 LIG-0.27  OA
BRANCH 25 27
ATOM     27  CA  ALA B   1      81.581 -18.893  54.564  1.00 12.47 LIG 0.17  C 
ATOM     28  CB  ALA B   1      83.032 -19.257  54.732  1.00 12.30 LIG 0.04  C 
BRANCH 27 29
ATOM     29  N   ALA B   1      80.808 -19.367  55.696  1.00 12.31 LIG-0.35  N 
ATOM     30 H    ALA B   1      80.584 -20.197  55.656  1.00 12.31 LIG 0.16  HD
ATOM     31  C   ACE B   0      80.490 -18.558  56.692  1.00 14.04 LIG 0.21  C 
ATOM     32  CH3 ACE B   0      79.696 -19.156  57.813  1.00 14.78 LIG 0.12  C 
ATOM     33 O    ACE B   0      80.830 -17.375  56.677  1.00 15.52 LIG-0.27  OA
ENDBRANCH 27 29
ENDBRANCH 25 27
ENDBRANCH 16 20
ENDBRANCH 10 13
ENDBRANCH 8 9
BRANCH 8 34
ATOM     34  CB  LEU B   4      77.182 -19.324  47.043  1.00 12.59 LIG 0.04  C 
BRANCH 34 35
ATOM     35  CG  LEU B   4      76.920 -19.967  48.403  1.00 12.74 LIG-0.02  C 
ATOM     36  CD1 LEU B   4      75.474 -19.743  48.805  1.00 14.33 LIG 0.01  C 
ATOM     37  CD2 LEU B   4      77.242 -21.456  48.410  1.00 11.50 LIG 0.01  C 
ENDBRANCH 34 35
ENDBRANCH 8 34
ENDBRANCH 1 8
BRANCH 4 38
ATOM     38  C   PRO B   5      77.963 -14.710  46.121  1.00 12.26 LIG 0.24  C 
ATOM     39  N   PRO B   6      78.332 -13.922  47.125  1.00 14.33 LIG-0.34  N 
ATOM     40  CD  PRO B   6      79.671 -13.773  47.713  1.00 16.43 LIG 0.13  C 
ATOM     41  CA  PRO B   6      77.348 -13.046  47.764  1.00 15.63 LIG 0.18  C 
ATOM     42  CG  PRO B   6      79.388 -13.153  49.041  1.00 18.90 LIG 0.02  C 
ATOM     43  CB  PRO B   6      78.139 -12.375  48.893  1.00 17.20 LIG 0.04  C 
ATOM     44 O    PRO B   5      76.788 -14.737  45.723  1.00 12.24 LIG-0.27  OA
BRANCH 41 45
ATOM     45  C   PRO B   6      76.816 -12.002  46.795  1.00 14.54 LIG 0.24  C 
ATOM     46 O    PRO B   6      77.356 -11.793  45.706  1.00 15.72 LIG-0.27  OA
ATOM     47  N   ARG B   7      75.753 -11.331  47.215  1.00 15.59 LIG-0.35  N 
ATOM     48 H    ARG B   7      75.358 -11.477  47.965  1.00 15.59 LIG 0.16  HD
BRANCH 47 49
ATOM     49  CA  ARG B   7      75.154 -10.265  46.415  1.00 17.66 LIG 0.16  C 
BRANCH 49 50
ATOM     50  C   ARG B   7      74.597  -9.132  47.271  1.00 19.45 LIG 0.22  C 
ATOM     51 O    ARG B   7      73.681  -9.338  48.060  1.00 22.19 LIG-0.29  OA
ENDBRANCH 49 50
BRANCH 49 52
ATOM     52  CB  ARG B   7      74.071 -10.845  45.512  1.00 18.48 LIG 0.04  C 
BRANCH 52 53
ATOM     53  CG  ARG B   7      73.814 -12.308  45.801  1.00 19.62 LIG 0.02  C 
BRANCH 53 54
ATOM     54  CD  ARG B   7      74.338 -13.210  44.710  1.00 19.05 LIG 0.14  C 
BRANCH 54 55
ATOM     55  NE  ARG B   7      73.244 -13.685  43.873  1.00 16.94 LIG-0.23  N 
ATOM     56  CZ  ARG B   7      73.253 -14.818  43.174  1.00 14.04 LIG 0.67  C 
ATOM     57  NH1 ARG B   7      74.307 -15.619  43.178  1.00 13.87 LIG-0.23  N 
ATOM     58  NH2 ARG B   7      72.195 -15.142  42.453  1.00 14.07 LIG-0.23  N 
ATOM     59 2HH1 ARG B   7      74.295 -16.347  42.721  1.00 13.87 LIG 0.17  HD
ATOM     60 1HH1 ARG B   7      75.003 -15.410  43.638  1.00 13.87 LIG 0.17  HD
ATOM     61 1HH2 ARG B   7      71.509 -14.623  42.437  1.00 14.07 LIG 0.17  HD
ATOM     62 2HH2 ARG B   7      72.192 -15.872  41.999  1.00 14.07 LIG 0.17  HD
ATOM     63 HE   ARG B   7      72.538 -13.196  43.827  1.00 16.94 LIG 0.18  HD
ENDBRANCH 54 55
ENDBRANCH 53 54
ENDBRANCH 52 53
ENDBRANCH 49 52
ENDBRANCH 47 49
ENDBRANCH 41 45
ENDBRANCH 4 38
TORSDOF 16
ENDMDL
MODEL 35
USER: ADFR SOLUTION from run 123
USER: SCORE 16.799256 LL:  -4.909 LR: -12.005 RR:   0.000 FEB:  -7.232
USER: RMSD 12.524398
USER: SEED 122
USER: STATUS no improvement in best in 8 clusters for 5 generations
USER: GENES 18
USER: genes 0 Translation |==|  0.50350 0.48136 0.44383
USER: genes 1 Rotation |==|  0.12668 0.72782 0.70963 0.62159
USER: genes 2 Torsion [N]-C--CA-[N] |==|  0.37835
USER: genes 3 Torsion [C]-CA--N-[C] |==|  0.76799
USER: genes 4 Torsion [N]-C--CA-[N] |==|  0.32763
USER: genes 5 Torsion [N]-C--CA-[N] |==|  0.83977
USER: genes 6 Torsion [N]-C--CA-[N] |==|  0.36116
USER: genes 7 Torsion [C]-CA--N-[C] |==|  0.83804
USER: genes 8 Torsion [C]-CA--CB-[CG] |==|  0.15993
USER: genes 9 Torsion [CA]-CB--CG-[CD1] |==|  0.32263
USER: genes 10 Torsion [N]-CA--C-[N] |==|  0.37139
USER: genes 11 Torsion [N]-CA--C-[N] |==|  0.42523
USER: genes 12 Torsion [C]-N--CA-[C] |==|  0.13526
USER: genes 13 Torsion [N]-CA--C-[O] |==|  0.32161
USER: genes 14 Torsion [N]-CA--CB-[CG] |==|  0.65867
USER: genes 15 Torsion [CA]-CB--CG-[CD] |==|  0.00674
USER: genes 16 Torsion [CB]-CG--CD-[NE] |==|  0.76386
USER: genes 17 Torsion [CG]-CD--NE-[HE] |==|  0.88727
ROOT
ATOM      1  C   LEU B   4      78.623 -19.703  48.787  1.00 11.33 LIG 0.24  C 
ATOM      2 O    LEU B   4      79.451 -20.536  48.394  1.00 12.90 LIG-0.27  OA
ATOM      3  N   PRO B   5      78.420 -19.488  50.074  1.00 11.12 LIG-0.34  N 
ATOM      4  CA  PRO B   5      79.197 -20.199  51.056  1.00 12.55 LIG 0.18  C 
ATOM      5  CB  PRO B   5      79.009 -19.347  52.317  1.00 13.89 LIG 0.04  C 
ATOM      6  CG  PRO B   5      77.658 -18.765  52.159  1.00 12.43 LIG 0.02  C 
ATOM      7  CD  PRO B   5      77.458 -18.563  50.689  1.00 11.21 LIG 0.13  C 
ENDROOT
BRANCH 1 8
ATOM      8  CA  LEU B   4      77.818 -18.877  47.792  1.00 11.65 LIG 0.18  C 
BRANCH 8 9
ATOM      9  N   LEU B   4      78.695 -18.428  46.735  1.00 12.22 LIG-0.35  N 
ATOM     10  C   PRO B   3      79.426 -17.339  46.910  1.00 12.52 LIG 0.24  C 
ATOM     11 O    PRO B   3      79.320 -16.612  47.901  1.00 13.02 LIG-0.27  OA
ATOM     12 H    LEU B   4      78.693 -18.912  46.024  1.00 12.22 LIG 0.16  HD
BRANCH 10 13
ATOM     13  CA  PRO B   3      80.415 -17.023  45.799  1.00 15.46 LIG 0.18  C 
ATOM     14  N   PRO B   3      80.090 -15.734  45.185  1.00 15.16 LIG-0.34  N 
ATOM     15  CD  PRO B   3      81.145 -14.734  45.406  1.00 18.06 LIG 0.13  C 
ATOM     16  C   PRO B   2      78.906 -15.566  44.606  1.00 13.99 LIG 0.24  C 
ATOM     17  CG  PRO B   3      81.945 -15.334  46.510  1.00 19.92 LIG 0.02  C 
ATOM     18  CB  PRO B   3      81.830 -16.808  46.347  1.00 18.17 LIG 0.04  C 
ATOM     19 O    PRO B   2      78.106 -16.504  44.500  1.00 12.71 LIG-0.27  OA
BRANCH 16 20
ATOM     20  CA  PRO B   2      78.535 -14.174  44.130  1.00 15.85 LIG 0.18  C 
ATOM     21  CB  PRO B   2      79.601 -13.642  43.157  1.00 19.12 LIG 0.04  C 
ATOM     22  CG  PRO B   2      79.947 -12.282  43.602  1.00 19.63 LIG 0.02  C 
ATOM     23  CD  PRO B   2      79.657 -12.234  45.053  1.00 18.19 LIG 0.13  C 
ATOM     24  N   PRO B   2      78.580 -13.224  45.227  1.00 15.71 LIG-0.34  N 
ATOM     25  C   ALA B   1      77.732 -13.336  46.241  1.00 13.25 LIG 0.24  C 
ATOM     26 O    ALA B   1      76.920 -14.256  46.326  1.00 13.75 LIG-0.27  OA
BRANCH 25 27
ATOM     27  CA  ALA B   1      77.832 -12.283  47.332  1.00 12.47 LIG 0.17  C 
ATOM     28  CB  ALA B   1      78.425 -12.886  48.578  1.00 12.30 LIG 0.04  C 
BRANCH 27 29
ATOM     29  N   ALA B   1      76.522 -11.727  47.616  1.00 12.31 LIG-0.35  N 
ATOM     30 H    ALA B   1      76.265 -11.813  48.432  1.00 12.31 LIG 0.16  HD
ATOM     31  C   ACE B   0      75.809 -11.143  46.669  1.00 14.04 LIG 0.21  C 
ATOM     32  CH3 ACE B   0      74.474 -10.598  47.075  1.00 14.78 LIG 0.12  C 
ATOM     33 O    ACE B   0      76.233 -11.068  45.515  1.00 15.52 LIG-0.27  OA
ENDBRANCH 27 29
ENDBRANCH 25 27
ENDBRANCH 16 20
ENDBRANCH 10 13
ENDBRANCH 8 9
BRANCH 8 34
ATOM     34  CB  LEU B   4      76.660 -19.708  47.246  1.00 12.59 LIG 0.04  C 
BRANCH 34 35
ATOM     35  CG  LEU B   4      75.704 -20.251  48.305  1.00 12.74 LIG-0.02  C 
ATOM     36  CD1 LEU B   4      74.326 -19.647  48.109  1.00 14.33 LIG 0.01  C 
ATOM     37  CD2 LEU B   4      75.619 -21.772  48.283  1.00 11.50 LIG 0.01  C 
ENDBRANCH 34 35
ENDBRANCH 8 34
ENDBRANCH 1 8
BRANCH 4 38
ATOM     38  C   PRO B   5      78.656 -21.603  51.246  1.00 12.26 LIG 0.24  C 
ATOM     39  N   PRO B   6      79.531 -22.603  51.264  1.00 14.33 LIG-0.34  N 
ATOM     40  CD  PRO B   6      80.988 -22.534  51.089  1.00 16.43 LIG 0.13  C 
ATOM     41  CA  PRO B   6      79.068 -23.972  51.504  1.00 15.63 LIG 0.18  C 
ATOM     42  CG  PRO B   6      81.353 -23.939  50.739  1.00 18.90 LIG 0.02  C 
ATOM     43  CB  PRO B   6      80.344 -24.813  51.374  1.00 17.20 LIG 0.04  C 
ATOM     44 O    PRO B   5      77.443 -21.807  51.409  1.00 12.24 LIG-0.27  OA
BRANCH 41 45
ATOM     45  C   PRO B   6      78.469 -24.125  52.893  1.00 14.54 LIG 0.24  C 
ATOM     46 O    PRO B   6      78.825 -23.412  53.834  1.00 15.72 LIG-0.27  OA
ATOM     47  N   ARG B   7      77.562 -25.082  53.015  1.00 15.59 LIG-0.35  N 
ATOM     48 H    ARG B   7      77.294 -25.576  52.364  1.00 15.59 LIG 0.16  HD
BRANCH 47 49
ATOM     49  CA  ARG B   7      76.929 -25.381  54.298  1.00 17.66 LIG 0.16  C 
BRANCH 49 50
ATOM     50  C   ARG B   7      76.410 -24.131  55.002  1.00 19.45 LIG 0.22  C 
ATOM     51 O    ARG B   7      75.209 -23.981  55.201  1.00 22.19 LIG-0.29  OA
ENDBRANCH 49 50
BRANCH 49 52
ATOM     52  CB  ARG B   7      77.908 -26.139  55.190  1.00 18.48 LIG 0.04  C 
BRANCH 52 53
ATOM     53  CG  ARG B   7      77.352 -27.472  55.640  1.00 19.62 LIG 0.02  C 
BRANCH 53 54
ATOM     54  CD  ARG B   7      75.991 -27.754  55.051  1.00 19.05 LIG 0.14  C 
BRANCH 54 55
ATOM     55  NE  ARG B   7      74.948 -27.140  55.862  1.00 16.94 LIG-0.23  N 
ATOM     56  CZ  ARG B   7      73.871 -26.521  55.384  1.00 14.04 LIG 0.67  C 
ATOM     57  NH1 ARG B   7      73.671 -26.402  54.081  1.00 13.87 LIG-0.23  N 
ATOM     58  NH2 ARG B   7      72.992 -26.005  56.224  1.00 14.07 LIG-0.23  N 
ATOM     59 2HH1 ARG B   7      72.969 -25.999  53.788  1.00 13.87 LIG 0.17  HD
ATOM     60 1HH1 ARG B   7      74.242 -26.727  53.527  1.00 13.87 LIG 0.17  HD
ATOM     61 1HH2 ARG B   7      73.119 -26.070  57.073  1.00 14.07 LIG 0.17  HD
ATOM     62 2HH2 ARG B   7      72.294 -25.604  55.924  1.00 14.07 LIG 0.17  HD
ATOM     63 HE   ARG B   7      75.035 -27.180  56.717  1.00 16.94 LIG 0.18  HD
ENDBRANCH 54 55
ENDBRANCH 53 54
ENDBRANCH 52 53
ENDBRANCH 49 52
ENDBRANCH 47 49
ENDBRANCH 41 45
ENDBRANCH 4 38
TORSDOF 16
ENDMDL
MODEL 36
USER: ADFR SOLUTION from run 12
USER: SCORE 16.672204 LL:  -5.127 LR: -11.986 RR:   0.000 FEB:  -7.213
USER: RMSD 5.199648
USER: SEED 668936
USER: STATUS no improvement in best in 10 clusters for 5 generations
USER: GENES 18
USER: genes 0 Translation |==|  0.52686 0.37640 0.55697
USER: genes 1 Rotation |==|  0.38841 0.66232 0.16451 0.81408
USER: genes 2 Torsion [N]-C--CA-[N] |==|  0.33572
USER: genes 3 Torsion [C]-CA--N-[C] |==|  0.57866
USER: genes 4 Torsion [N]-C--CA-[N] |==|  0.74544
USER: genes 5 Torsion [N]-C--CA-[N] |==|  0.32811
USER: genes 6 Torsion [N]-C--CA-[N] |==|  0.37161
USER: genes 7 Torsion [C]-CA--N-[C] |==|  0.80816
USER: genes 8 Torsion [C]-CA--CB-[CG] |==|  0.26184
USER: genes 9 Torsion [CA]-CB--CG-[CD1] |==|  0.75422
USER: genes 10 Torsion [N]-CA--C-[N] |==|  0.48224
USER: genes 11 Torsion [N]-CA--C-[N] |==|  0.94562
USER: genes 12 Torsion [C]-N--CA-[C] |==|  0.56902
USER: genes 13 Torsion [N]-CA--C-[O] |==|  0.07922
USER: genes 14 Torsion [N]-CA--CB-[CG] |==|  0.41126
USER: genes 15 Torsion [CA]-CB--CG-[CD] |==|  0.66133
USER: genes 16 Torsion [CB]-CG--CD-[NE] |==|  0.36069
USER: genes 17 Torsion [CG]-CD--NE-[HE] |==|  0.03117
ROOT
ATOM      1  C   LEU B   4      78.973 -22.223  51.842  1.00 11.33 LIG 0.24  C 
ATOM      2 O    LEU B   4      78.096 -23.019  51.479  1.00 12.90 LIG-0.27  OA
ATOM      3  N   PRO B   5      78.872 -20.929  51.599  1.00 11.12 LIG-0.34  N 
ATOM      4  CA  PRO B   5      77.706 -20.408  50.933  1.00 12.55 LIG 0.18  C 
ATOM      5  CB  PRO B   5      77.760 -18.914  51.276  1.00 13.89 LIG 0.04  C 
ATOM      6  CG  PRO B   5      79.206 -18.627  51.400  1.00 12.43 LIG 0.02  C 
ATOM      7  CD  PRO B   5      79.836 -19.873  51.938  1.00 11.21 LIG 0.13  C 
ENDROOT
BRANCH 1 8
ATOM      8  CA  LEU B   4      80.197 -22.709  52.607  1.00 11.65 LIG 0.18  C 
BRANCH 8 9
ATOM      9  N   LEU B   4      79.764 -23.374  53.816  1.00 12.22 LIG-0.35  N 
ATOM     10  C   PRO B   3      80.555 -23.381  54.876  1.00 12.52 LIG 0.24  C 
ATOM     11 O    PRO B   3      81.707 -22.938  54.858  1.00 13.02 LIG-0.27  OA
ATOM     12 H    LEU B   4      78.988 -23.740  53.777  1.00 12.22 LIG 0.16  HD
BRANCH 10 13
ATOM     13  CA  PRO B   3      79.960 -23.984  56.139  1.00 15.46 LIG 0.18  C 
ATOM     14  N   PRO B   3      79.318 -22.942  56.942  1.00 15.16 LIG-0.34  N 
ATOM     15  CD  PRO B   3      77.864 -23.139  57.044  1.00 18.06 LIG 0.13  C 
ATOM     16  C   PRO B   2      80.043 -21.925  57.394  1.00 13.99 LIG 0.24  C 
ATOM     17  CG  PRO B   3      77.583 -24.112  55.952  1.00 19.92 LIG 0.02  C 
ATOM     18  CB  PRO B   3      78.809 -24.944  55.817  1.00 18.17 LIG 0.04  C 
ATOM     19 O    PRO B   2      81.267 -21.886  57.223  1.00 12.71 LIG-0.27  OA
BRANCH 16 20
ATOM     20  CA  PRO B   2      79.319 -20.780  58.078  1.00 15.85 LIG 0.18  C 
ATOM     21  CB  PRO B   2      79.728 -19.439  57.447  1.00 19.12 LIG 0.04  C 
ATOM     22  CG  PRO B   2      80.066 -18.530  58.555  1.00 19.63 LIG 0.02  C 
ATOM     23  CD  PRO B   2      80.486 -19.391  59.684  1.00 18.19 LIG 0.13  C 
ATOM     24  N   PRO B   2      79.751 -20.647  59.457  1.00 15.71 LIG-0.34  N 
ATOM     25  C   ALA B   1      79.498 -21.612  60.332  1.00 13.25 LIG 0.24  C 
ATOM     26 O    ALA B   1      78.945 -22.663  60.014  1.00 13.75 LIG-0.27  OA
BRANCH 25 27
ATOM     27  CA  ALA B   1      79.963 -21.376  61.759  1.00 12.47 LIG 0.17  C 
ATOM     28  CB  ALA B   1      81.197 -22.193  62.041  1.00 12.30 LIG 0.04  C 
BRANCH 27 29
ATOM     29  N   ALA B   1      78.907 -21.720  62.694  1.00 12.31 LIG-0.35  N 
ATOM     30 H    ALA B   1      79.063 -22.419  63.170  1.00 12.31 LIG 0.16  HD
ATOM     31  C   ACE B   0      77.808 -20.991  62.779  1.00 14.04 LIG 0.21  C 
ATOM     32  CH3 ACE B   0      76.787 -21.433  63.783  1.00 14.78 LIG 0.12  C 
ATOM     33 O    ACE B   0      77.644 -20.010  62.055  1.00 15.52 LIG-0.27  OA
ENDBRANCH 27 29
ENDBRANCH 25 27
ENDBRANCH 16 20
ENDBRANCH 10 13
ENDBRANCH 8 9
BRANCH 8 34
ATOM     34  CB  LEU B   4      81.024 -23.639  51.722  1.00 12.59 LIG 0.04  C 
BRANCH 34 35
ATOM     35  CG  LEU B   4      82.161 -22.958  50.963  1.00 12.74 LIG-0.02  C 
ATOM     36  CD1 LEU B   4      81.649 -22.442  49.631  1.00 14.33 LIG 0.01  C 
ATOM     37  CD2 LEU B   4      82.791 -21.822  51.759  1.00 11.50 LIG 0.01  C 
ENDBRANCH 34 35
ENDBRANCH 8 34
ENDBRANCH 1 8
BRANCH 4 38
ATOM     38  C   PRO B   5      77.800 -20.641  49.438  1.00 12.26 LIG 0.24  C 
ATOM     39  N   PRO B   6      76.741 -20.333  48.698  1.00 14.33 LIG-0.34  N 
ATOM     40  CD  PRO B   6      75.443 -19.811  49.148  1.00 16.43 LIG 0.13  C 
ATOM     41  CA  PRO B   6      76.800 -20.482  47.242  1.00 15.63 LIG 0.18  C 
ATOM     42  CG  PRO B   6      74.543 -20.104  47.995  1.00 18.90 LIG 0.02  C 
ATOM     43  CB  PRO B   6      75.388 -20.102  46.781  1.00 17.20 LIG 0.04  C 
ATOM     44 O    PRO B   5      78.841 -21.077  48.921  1.00 12.24 LIG-0.27  OA
BRANCH 41 45
ATOM     45  C   PRO B   6      77.830 -19.549  46.625  1.00 14.54 LIG 0.24  C 
ATOM     46 O    PRO B   6      78.306 -19.756  45.506  1.00 15.72 LIG-0.27  OA
ATOM     47  N   ARG B   7      78.185 -18.520  47.382  1.00 15.59 LIG-0.35  N 
ATOM     48 H    ARG B   7      77.850 -18.356  48.157  1.00 15.59 LIG 0.16  HD
BRANCH 47 49
ATOM     49  CA  ARG B   7      79.198 -17.561  46.946  1.00 17.66 LIG 0.16  C 
BRANCH 49 50
ATOM     50  C   ARG B   7      79.881 -16.858  48.114  1.00 19.45 LIG 0.22  C 
ATOM     51 O    ARG B   7      79.987 -17.415  49.201  1.00 22.19 LIG-0.29  OA
ENDBRANCH 49 50
BRANCH 49 52
ATOM     52  CB  ARG B   7      78.570 -16.547  45.995  1.00 18.48 LIG 0.04  C 
BRANCH 52 53
ATOM     53  CG  ARG B   7      79.221 -15.186  46.105  1.00 19.62 LIG 0.02  C 
BRANCH 53 54
ATOM     54  CD  ARG B   7      78.231 -14.104  46.468  1.00 19.05 LIG 0.14  C 
BRANCH 54 55
ATOM     55  NE  ARG B   7      78.726 -13.317  47.590  1.00 16.94 LIG-0.23  N 
ATOM     56  CZ  ARG B   7      78.008 -12.436  48.281  1.00 14.04 LIG 0.67  C 
ATOM     57  NH1 ARG B   7      76.744 -12.189  47.974  1.00 13.87 LIG-0.23  N 
ATOM     58  NH2 ARG B   7      78.570 -11.784  49.283  1.00 14.07 LIG-0.23  N 
ATOM     59 2HH1 ARG B   7      76.294 -11.616  48.431  1.00 13.87 LIG 0.17  HD
ATOM     60 1HH1 ARG B   7      76.373 -12.602  47.317  1.00 13.87 LIG 0.17  HD
ATOM     61 1HH2 ARG B   7      79.393 -11.931  49.483  1.00 14.07 LIG 0.17  HD
ATOM     62 2HH2 ARG B   7      78.114 -11.213  49.734  1.00 14.07 LIG 0.17  HD
ATOM     63 HE   ARG B   7      79.546 -13.432  47.824  1.00 16.94 LIG 0.18  HD
ENDBRANCH 54 55
ENDBRANCH 53 54
ENDBRANCH 52 53
ENDBRANCH 49 52
ENDBRANCH 47 49
ENDBRANCH 41 45
ENDBRANCH 4 38
TORSDOF 16
ENDMDL
MODEL 37
USER: ADFR SOLUTION from run 50
USER: SCORE 15.974880 LL:  -4.346 LR: -11.978 RR:   0.000 FEB:  -7.205
USER: RMSD 6.612569
USER: SEED 49
USER: STATUS no improvement in best in 2 clusters for 5 generations
USER: GENES 18
USER: genes 0 Translation |==|  0.55406 0.44237 0.50233
USER: genes 1 Rotation |==|  0.33847 0.64432 0.06773 0.62736
USER: genes 2 Torsion [N]-C--CA-[N] |==|  0.13290
USER: genes 3 Torsion [C]-CA--N-[C] |==|  0.14960
USER: genes 4 Torsion [N]-C--CA-[N] |==|  0.72562
USER: genes 5 Torsion [N]-C--CA-[N] |==|  0.45302
USER: genes 6 Torsion [N]-C--CA-[N] |==|  0.13911
USER: genes 7 Torsion [C]-CA--N-[C] |==|  0.17222
USER: genes 8 Torsion [C]-CA--CB-[CG] |==|  0.27169
USER: genes 9 Torsion [CA]-CB--CG-[CD1] |==|  0.53261
USER: genes 10 Torsion [N]-CA--C-[N] |==|  0.30301
USER: genes 11 Torsion [N]-CA--C-[N] |==|  0.50340
USER: genes 12 Torsion [C]-N--CA-[C] |==|  0.65444
USER: genes 13 Torsion [N]-CA--C-[O] |==|  0.22130
USER: genes 14 Torsion [N]-CA--CB-[CG] |==|  0.00319
USER: genes 15 Torsion [CA]-CB--CG-[CD] |==|  0.32232
USER: genes 16 Torsion [CB]-CG--CD-[NE] |==|  0.78738
USER: genes 17 Torsion [CG]-CD--NE-[HE] |==|  0.93935
ROOT
ATOM      1  C   LEU B   4      79.381 -20.639  50.367  1.00 11.33 LIG 0.24  C 
ATOM      2 O    LEU B   4      78.153 -20.721  50.514  1.00 12.90 LIG-0.27  OA
ATOM      3  N   PRO B   5      79.917 -19.787  49.513  1.00 11.12 LIG-0.34  N 
ATOM      4  CA  PRO B   5      79.075 -18.897  48.756  1.00 12.55 LIG 0.18  C 
ATOM      5  CB  PRO B   5      80.058 -17.814  48.295  1.00 13.89 LIG 0.04  C 
ATOM      6  CG  PRO B   5      81.345 -18.530  48.160  1.00 12.43 LIG 0.02  C 
ATOM      7  CD  PRO B   5      81.342 -19.598  49.209  1.00 11.21 LIG 0.13  C 
ENDROOT
BRANCH 1 8
ATOM      8  CA  LEU B   4      80.322 -21.511  51.189  1.00 11.65 LIG 0.18  C 
BRANCH 8 9
ATOM      9  N   LEU B   4      81.359 -20.679  51.757  1.00 12.22 LIG-0.35  N 
ATOM     10  C   PRO B   3      81.026 -19.616  52.471  1.00 12.52 LIG 0.24  C 
ATOM     11 O    PRO B   3      79.861 -19.227  52.592  1.00 13.02 LIG-0.27  OA
ATOM     12 H    LEU B   4      82.164 -20.931  51.593  1.00 12.22 LIG 0.16  HD
BRANCH 10 13
ATOM     13  CA  PRO B   3      82.179 -18.883  53.138  1.00 15.46 LIG 0.18  C 
ATOM     14  N   PRO B   3      82.288 -19.285  54.542  1.00 15.16 LIG-0.34  N 
ATOM     15  CD  PRO B   3      83.545 -19.995  54.818  1.00 18.06 LIG 0.13  C 
ATOM     16  C   PRO B   2      81.265 -19.073  55.364  1.00 13.99 LIG 0.24  C 
ATOM     17  CG  PRO B   3      84.025 -20.362  53.457  1.00 19.92 LIG 0.02  C 
ATOM     18  CB  PRO B   3      83.530 -19.296  52.545  1.00 18.17 LIG 0.04  C 
ATOM     19 O    PRO B   2      80.256 -18.465  54.986  1.00 12.71 LIG-0.27  OA
BRANCH 16 20
ATOM     20  CA  PRO B   2      81.344 -19.650  56.765  1.00 15.85 LIG 0.18  C 
ATOM     21  CB  PRO B   2      80.908 -21.125  56.760  1.00 19.12 LIG 0.04  C 
ATOM     22  CG  PRO B   2      79.938 -21.288  57.855  1.00 19.63 LIG 0.02  C 
ATOM     23  CD  PRO B   2      79.324 -19.957  58.069  1.00 18.19 LIG 0.13  C 
ATOM     24  N   PRO B   2      80.374 -19.017  57.639  1.00 15.71 LIG-0.34  N 
ATOM     25  C   ALA B   1      80.481 -17.727  57.933  1.00 13.25 LIG 0.24  C 
ATOM     26 O    ALA B   1      81.357 -17.010  57.450  1.00 13.75 LIG-0.27  OA
BRANCH 25 27
ATOM     27  CA  ALA B   1      79.438 -17.154  58.876  1.00 12.47 LIG 0.17  C 
ATOM     28  CB  ALA B   1      79.809 -15.746  59.262  1.00 12.30 LIG 0.04  C 
BRANCH 27 29
ATOM     29  N   ALA B   1      79.320 -17.986  60.060  1.00 12.31 LIG-0.35  N 
ATOM     30 H    ALA B   1      78.545 -18.341  60.173  1.00 12.31 LIG 0.16  HD
ATOM     31  C   ACE B   0      80.345 -18.159  60.876  1.00 14.04 LIG 0.21  C 
ATOM     32  CH3 ACE B   0      80.114 -19.044  62.063  1.00 14.78 LIG 0.12  C 
ATOM     33 O    ACE B   0      81.423 -17.606  60.661  1.00 15.52 LIG-0.27  OA
ENDBRANCH 27 29
ENDBRANCH 25 27
ENDBRANCH 16 20
ENDBRANCH 10 13
ENDBRANCH 8 9
BRANCH 8 34
ATOM     34  CB  LEU B   4      79.535 -22.244  52.272  1.00 12.59 LIG 0.04  C 
BRANCH 34 35
ATOM     35  CG  LEU B   4      79.148 -23.680  51.924  1.00 12.74 LIG-0.02  C 
ATOM     36  CD1 LEU B   4      78.139 -24.196  52.932  1.00 14.33 LIG 0.01  C 
ATOM     37  CD2 LEU B   4      78.590 -23.802  50.511  1.00 11.50 LIG 0.01  C 
ENDBRANCH 34 35
ENDBRANCH 8 34
ENDBRANCH 1 8
BRANCH 4 38
ATOM     38  C   PRO B   5      78.456 -19.626  47.579  1.00 12.26 LIG 0.24  C 
ATOM     39  N   PRO B   6      77.154 -19.883  47.629  1.00 14.33 LIG-0.34  N 
ATOM     40  CD  PRO B   6      76.211 -19.575  48.714  1.00 16.43 LIG 0.13  C 
ATOM     41  CA  PRO B   6      76.494 -20.531  46.493  1.00 15.63 LIG 0.18  C 
ATOM     42  CG  PRO B   6      75.061 -20.483  48.429  1.00 18.90 LIG 0.02  C 
ATOM     43  CB  PRO B   6      75.048 -20.711  46.968  1.00 17.20 LIG 0.04  C 
ATOM     44 O    PRO B   5      79.137 -19.944  46.591  1.00 12.24 LIG-0.27  OA
BRANCH 41 45
ATOM     45  C   PRO B   6      76.541 -19.660  45.248  1.00 14.54 LIG 0.24  C 
ATOM     46 O    PRO B   6      77.086 -18.554  45.250  1.00 15.72 LIG-0.27  OA
ATOM     47  N   ARG B   7      75.941 -20.167  44.181  1.00 15.59 LIG-0.35  N 
ATOM     48 H    ARG B   7      75.570 -20.943  44.161  1.00 15.59 LIG 0.16  HD
BRANCH 47 49
ATOM     49  CA  ARG B   7      75.862 -19.429  42.921  1.00 17.66 LIG 0.16  C 
BRANCH 49 50
ATOM     50  C   ARG B   7      74.428 -19.266  42.426  1.00 19.45 LIG 0.22  C 
ATOM     51 O    ARG B   7      73.698 -18.403  42.903  1.00 22.19 LIG-0.29  OA
ENDBRANCH 49 50
BRANCH 49 52
ATOM     52  CB  ARG B   7      76.725 -20.115  41.868  1.00 18.48 LIG 0.04  C 
BRANCH 52 53
ATOM     53  CG  ARG B   7      77.389 -21.364  42.404  1.00 19.62 LIG 0.02  C 
BRANCH 53 54
ATOM     54  CD  ARG B   7      76.919 -22.613  41.697  1.00 19.05 LIG 0.14  C 
BRANCH 54 55
ATOM     55  NE  ARG B   7      75.593 -22.995  42.167  1.00 16.94 LIG-0.23  N 
ATOM     56  CZ  ARG B   7      74.736 -23.761  41.497  1.00 14.04 LIG 0.67  C 
ATOM     57  NH1 ARG B   7      75.034 -24.237  40.298  1.00 13.87 LIG-0.23  N 
ATOM     58  NH2 ARG B   7      73.561 -24.040  42.031  1.00 14.07 LIG-0.23  N 
ATOM     59 2HH1 ARG B   7      74.468 -24.731  39.879  1.00 13.87 LIG 0.17  HD
ATOM     60 1HH1 ARG B   7      75.793 -24.053  39.939  1.00 13.87 LIG 0.17  HD
ATOM     61 1HH2 ARG B   7      73.356 -23.727  42.806  1.00 14.07 LIG 0.17  HD
ATOM     62 2HH2 ARG B   7      73.002 -24.534  41.606  1.00 14.07 LIG 0.17  HD
ATOM     63 HE   ARG B   7      75.346 -22.702  42.937  1.00 16.94 LIG 0.18  HD
ENDBRANCH 54 55
ENDBRANCH 53 54
ENDBRANCH 52 53
ENDBRANCH 49 52
ENDBRANCH 47 49
ENDBRANCH 41 45
ENDBRANCH 4 38
TORSDOF 16
ENDMDL
MODEL 38
USER: ADFR SOLUTION from run 70
USER: SCORE 17.179322 LL:  -5.573 LR: -11.966 RR:   0.000 FEB:  -7.193
USER: RMSD 7.253628
USER: SEED 69
USER: STATUS no improvement in best in 7 clusters for 5 generations
USER: GENES 18
USER: genes 0 Translation |==|  0.40921 0.53357 0.27388
USER: genes 1 Rotation |==|  0.67289 0.07780 0.65616 0.63216
USER: genes 2 Torsion [N]-C--CA-[N] |==|  0.36855
USER: genes 3 Torsion [C]-CA--N-[C] |==|  0.81531
USER: genes 4 Torsion [N]-C--CA-[N] |==|  0.90013
USER: genes 5 Torsion [N]-C--CA-[N] |==|  0.46267
USER: genes 6 Torsion [N]-C--CA-[N] |==|  0.48496
USER: genes 7 Torsion [C]-CA--N-[C] |==|  0.82644
USER: genes 8 Torsion [C]-CA--CB-[CG] |==|  0.16473
USER: genes 9 Torsion [CA]-CB--CG-[CD1] |==|  0.24457
USER: genes 10 Torsion [N]-CA--C-[N] |==|  0.44996
USER: genes 11 Torsion [N]-CA--C-[N] |==|  0.28955
USER: genes 12 Torsion [C]-N--CA-[C] |==|  0.83369
USER: genes 13 Torsion [N]-CA--C-[O] |==|  0.99236
USER: genes 14 Torsion [N]-CA--CB-[CG] |==|  0.28642
USER: genes 15 Torsion [CA]-CB--CG-[CD] |==|  0.77291
USER: genes 16 Torsion [CB]-CG--CD-[NE] |==|  0.34415
USER: genes 17 Torsion [CG]-CD--NE-[HE] |==|  0.18087
ROOT
ATOM      1  C   LEU B   4      77.208 -18.450  44.199  1.00 11.33 LIG 0.24  C 
ATOM      2 O    LEU B   4      77.070 -18.506  45.429  1.00 12.90 LIG-0.27  OA
ATOM      3  N   PRO B   5      78.003 -17.560  43.635  1.00 11.12 LIG-0.34  N 
ATOM      4  CA  PRO B   5      78.764 -16.650  44.451  1.00 12.55 LIG 0.18  C 
ATOM      5  CB  PRO B   5      79.853 -16.162  43.488  1.00 13.89 LIG 0.04  C 
ATOM      6  CG  PRO B   5      79.203 -16.205  42.160  1.00 12.43 LIG 0.02  C 
ATOM      7  CD  PRO B   5      78.244 -17.353  42.200  1.00 11.21 LIG 0.13  C 
ENDROOT
BRANCH 1 8
ATOM      8  CA  LEU B   4      76.477 -19.430  43.289  1.00 11.65 LIG 0.18  C 
BRANCH 8 9
ATOM      9  N   LEU B   4      76.625 -20.766  43.820  1.00 12.22 LIG-0.35  N 
ATOM     10  C   PRO B   3      77.820 -21.333  43.840  1.00 12.52 LIG 0.24  C 
ATOM     11 O    PRO B   3      78.815 -20.818  43.323  1.00 13.02 LIG-0.27  OA
ATOM     12 H    LEU B   4      75.901 -21.132  44.104  1.00 12.22 LIG 0.16  HD
BRANCH 10 13
ATOM     13  CA  PRO B   3      77.900 -22.681  44.538  1.00 15.46 LIG 0.18  C 
ATOM     14  N   PRO B   3      77.003 -22.704  45.696  1.00 15.16 LIG-0.34  N 
ATOM     15  CD  PRO B   3      75.914 -23.678  45.532  1.00 18.06 LIG 0.13  C 
ATOM     16  C   PRO B   2      77.184 -21.831  46.680  1.00 13.99 LIG 0.24  C 
ATOM     17  CG  PRO B   3      75.945 -23.969  44.072  1.00 19.92 LIG 0.02  C 
ATOM     18  CB  PRO B   3      77.363 -23.809  43.651  1.00 18.17 LIG 0.04  C 
ATOM     19 O    PRO B   2      78.149 -21.056  46.679  1.00 12.71 LIG-0.27  OA
BRANCH 16 20
ATOM     20  CA  PRO B   2      76.142 -21.769  47.780  1.00 15.85 LIG 0.18  C 
ATOM     21  CB  PRO B   2      74.922 -20.957  47.315  1.00 19.12 LIG 0.04  C 
ATOM     22  CG  PRO B   2      74.617 -19.991  48.383  1.00 19.63 LIG 0.02  C 
ATOM     23  CD  PRO B   2      75.888 -19.754  49.104  1.00 18.19 LIG 0.13  C 
ATOM     24  N   PRO B   2      76.634 -21.011  48.917  1.00 15.71 LIG-0.34  N 
ATOM     25  C   ALA B   1      77.664 -21.460  49.623  1.00 13.25 LIG 0.24  C 
ATOM     26 O    ALA B   1      78.270 -22.489  49.327  1.00 13.75 LIG-0.27  OA
BRANCH 25 27
ATOM     27  CA  ALA B   1      78.095 -20.616  50.810  1.00 12.47 LIG 0.17  C 
ATOM     28  CB  ALA B   1      78.578 -19.270  50.337  1.00 12.30 LIG 0.04  C 
BRANCH 27 29
ATOM     29  N   ALA B   1      79.141 -21.293  51.554  1.00 12.31 LIG-0.35  N 
ATOM     30 H    ALA B   1      79.893 -20.876  51.577  1.00 12.31 LIG 0.16  HD
ATOM     31  C   ACE B   0      78.918 -22.458  52.137  1.00 14.04 LIG 0.21  C 
ATOM     32  CH3 ACE B   0      80.067 -23.064  52.885  1.00 14.78 LIG 0.12  C 
ATOM     33 O    ACE B   0      77.820 -23.007  52.051  1.00 15.52 LIG-0.27  OA
ENDBRANCH 27 29
ENDBRANCH 25 27
ENDBRANCH 16 20
ENDBRANCH 10 13
ENDBRANCH 8 9
BRANCH 8 34
ATOM     34  CB  LEU B   4      75.008 -19.032  43.175  1.00 12.59 LIG 0.04  C 
BRANCH 34 35
ATOM     35  CG  LEU B   4      74.764 -17.632  42.614  1.00 12.74 LIG-0.02  C 
ATOM     36  CD1 LEU B   4      74.688 -17.693  41.101  1.00 14.33 LIG 0.01  C 
ATOM     37  CD2 LEU B   4      73.500 -16.994  43.179  1.00 11.50 LIG 0.01  C 
ENDBRANCH 34 35
ENDBRANCH 8 34
ENDBRANCH 1 8
BRANCH 4 38
ATOM     38  C   PRO B   5      77.889 -15.508  44.930  1.00 12.26 LIG 0.24  C 
ATOM     39  N   PRO B   6      78.317 -14.796  45.966  1.00 14.33 LIG-0.34  N 
ATOM     40  CD  PRO B   6      79.544 -14.990  46.753  1.00 16.43 LIG 0.13  C 
ATOM     41  CA  PRO B   6      77.541 -13.645  46.431  1.00 15.63 LIG 0.18  C 
ATOM     42  CG  PRO B   6      79.260 -14.239  48.011  1.00 18.90 LIG 0.02  C 
ATOM     43  CB  PRO B   6      78.318 -13.155  47.659  1.00 17.20 LIG 0.04  C 
ATOM     44 O    PRO B   5      76.825 -15.230  44.354  1.00 12.24 LIG-0.27  OA
BRANCH 41 45
ATOM     45  C   PRO B   6      77.472 -12.553  45.375  1.00 14.54 LIG 0.24  C 
ATOM     46 O    PRO B   6      78.426 -11.803  45.155  1.00 15.72 LIG-0.27  OA
ATOM     47  N   ARG B   7      76.317 -12.460  44.733  1.00 15.59 LIG-0.35  N 
ATOM     48 H    ARG B   7      75.649 -12.985  44.866  1.00 15.59 LIG 0.16  HD
BRANCH 47 49
ATOM     49  CA  ARG B   7      76.082 -11.430  43.722  1.00 17.66 LIG 0.16  C 
BRANCH 49 50
ATOM     50  C   ARG B   7      76.222 -10.017  44.279  1.00 19.45 LIG 0.22  C 
ATOM     51 O    ARG B   7      76.455  -9.837  45.469  1.00 22.19 LIG-0.29  OA
ENDBRANCH 49 50
BRANCH 49 52
ATOM     52  CB  ARG B   7      74.707 -11.632  43.093  1.00 18.48 LIG 0.04  C 
BRANCH 52 53
ATOM     53  CG  ARG B   7      73.690 -10.646  43.624  1.00 19.62 LIG 0.02  C 
BRANCH 53 54
ATOM     54  CD  ARG B   7      73.113 -11.075  44.951  1.00 19.05 LIG 0.14  C 
BRANCH 54 55
ATOM     55  NE  ARG B   7      73.309 -10.034  45.952  1.00 16.94 LIG-0.23  N 
ATOM     56  CZ  ARG B   7      74.070 -10.150  47.037  1.00 14.04 LIG 0.67  C 
ATOM     57  NH1 ARG B   7      74.718 -11.274  47.304  1.00 13.87 LIG-0.23  N 
ATOM     58  NH2 ARG B   7      74.170  -9.131  47.871  1.00 14.07 LIG-0.23  N 
ATOM     59 2HH1 ARG B   7      75.206 -11.332  48.010  1.00 13.87 LIG 0.17  HD
ATOM     60 1HH1 ARG B   7      74.651 -11.945  46.771  1.00 13.87 LIG 0.17  HD
ATOM     61 1HH2 ARG B   7      73.745  -8.400  47.711  1.00 14.07 LIG 0.17  HD
ATOM     62 2HH2 ARG B   7      74.660  -9.197  48.575  1.00 14.07 LIG 0.17  HD
ATOM     63 HE   ARG B   7      72.901  -9.286  45.832  1.00 16.94 LIG 0.18  HD
ENDBRANCH 54 55
ENDBRANCH 53 54
ENDBRANCH 52 53
ENDBRANCH 49 52
ENDBRANCH 47 49
ENDBRANCH 41 45
ENDBRANCH 4 38
TORSDOF 16
ENDMDL
MODEL 39
USER: ADFR SOLUTION from run 68
USER: SCORE 16.952944 LL:  -5.560 LR: -11.958 RR:   0.000 FEB:  -7.185
USER: RMSD 6.152417
USER: SEED 67
USER: STATUS no improvement in best in 6 clusters for 5 generations
USER: GENES 18
USER: genes 0 Translation |==|  0.53393 0.56178 0.37999
USER: genes 1 Rotation |==|  0.72868 0.20321 0.74562 0.72201
USER: genes 2 Torsion [N]-C--CA-[N] |==|  0.37278
USER: genes 3 Torsion [C]-CA--N-[C] |==|  0.84129
USER: genes 4 Torsion [N]-C--CA-[N] |==|  0.93575
USER: genes 5 Torsion [N]-C--CA-[N] |==|  0.32777
USER: genes 6 Torsion [N]-C--CA-[N] |==|  0.17982
USER: genes 7 Torsion [C]-CA--N-[C] |==|  0.56673
USER: genes 8 Torsion [C]-CA--CB-[CG] |==|  0.57551
USER: genes 9 Torsion [CA]-CB--CG-[CD1] |==|  0.26958
USER: genes 10 Torsion [N]-CA--C-[N] |==|  0.32594
USER: genes 11 Torsion [N]-CA--C-[N] |==|  0.29426
USER: genes 12 Torsion [C]-N--CA-[C] |==|  0.86579
USER: genes 13 Torsion [N]-CA--C-[O] |==|  0.68512
USER: genes 14 Torsion [N]-CA--CB-[CG] |==|  0.04475
USER: genes 15 Torsion [CA]-CB--CG-[CD] |==|  0.31804
USER: genes 16 Torsion [CB]-CG--CD-[NE] |==|  0.84272
USER: genes 17 Torsion [CG]-CD--NE-[HE] |==|  0.32141
ROOT
ATOM      1  C   LEU B   4      79.079 -17.773  47.064  1.00 11.33 LIG 0.24  C 
ATOM      2 O    LEU B   4      79.309 -17.168  48.120  1.00 12.90 LIG-0.27  OA
ATOM      3  N   PRO B   5      79.245 -17.195  45.889  1.00 11.12 LIG-0.34  N 
ATOM      4  CA  PRO B   5      79.739 -15.845  45.811  1.00 12.55 LIG 0.18  C 
ATOM      5  CB  PRO B   5      80.223 -15.746  44.359  1.00 13.89 LIG 0.04  C 
ATOM      6  CG  PRO B   5      79.326 -16.659  43.618  1.00 12.43 LIG 0.02  C 
ATOM      7  CD  PRO B   5      78.986 -17.770  44.561  1.00 11.21 LIG 0.13  C 
ENDROOT
BRANCH 1 8
ATOM      8  CA  LEU B   4      78.615 -19.224  47.084  1.00 11.65 LIG 0.18  C 
BRANCH 8 9
ATOM      9  N   LEU B   4      79.423 -19.964  48.028  1.00 12.22 LIG-0.35  N 
ATOM     10  C   PRO B   3      80.737 -19.990  47.883  1.00 12.52 LIG 0.24  C 
ATOM     11 O    PRO B   3      81.315 -19.499  46.909  1.00 13.02 LIG-0.27  OA
ATOM     12 H    LEU B   4      78.987 -20.360  48.654  1.00 12.22 LIG 0.16  HD
BRANCH 10 13
ATOM     13  CA  PRO B   3      81.510 -20.678  48.997  1.00 15.46 LIG 0.18  C 
ATOM     14  N   PRO B   3      80.720 -20.684  50.231  1.00 15.16 LIG-0.34  N 
ATOM     15  CD  PRO B   3      80.351 -22.046  50.644  1.00 18.06 LIG 0.13  C 
ATOM     16  C   PRO B   2      80.348 -19.531  50.775  1.00 13.99 LIG 0.24  C 
ATOM     17  CG  PRO B   3      80.604 -22.847  49.414  1.00 19.92 LIG 0.02  C 
ATOM     18  CB  PRO B   3      81.720 -22.167  48.703  1.00 18.17 LIG 0.04  C 
ATOM     19 O    PRO B   2      80.730 -18.451  50.307  1.00 12.71 LIG-0.27  OA
BRANCH 16 20
ATOM     20  CA  PRO B   2      79.393 -19.572  51.952  1.00 15.85 LIG 0.18  C 
ATOM     21  CB  PRO B   2      78.193 -18.644  51.699  1.00 19.12 LIG 0.04  C 
ATOM     22  CG  PRO B   2      78.024 -17.822  52.909  1.00 19.63 LIG 0.02  C 
ATOM     23  CD  PRO B   2      79.356 -17.752  53.552  1.00 18.19 LIG 0.13  C 
ATOM     24  N   PRO B   2      80.010 -19.005  53.138  1.00 15.71 LIG-0.34  N 
ATOM     25  C   ALA B   1      81.059 -19.598  53.693  1.00 13.25 LIG 0.24  C 
ATOM     26 O    ALA B   1      81.580 -20.604  53.213  1.00 13.75 LIG-0.27  OA
BRANCH 25 27
ATOM     27  CA  ALA B   1      81.625 -18.950  54.945  1.00 12.47 LIG 0.17  C 
ATOM     28  CB  ALA B   1      82.897 -19.644  55.355  1.00 12.30 LIG 0.04  C 
BRANCH 27 29
ATOM     29  N   ALA B   1      80.652 -19.005  56.021  1.00 12.31 LIG-0.35  N 
ATOM     30 H    ALA B   1      80.070 -19.634  55.947  1.00 12.31 LIG 0.16  HD
ATOM     31  C   ACE B   0      80.690 -18.140  57.019  1.00 14.04 LIG 0.21  C 
ATOM     32  CH3 ACE B   0      79.642 -18.293  58.079  1.00 14.78 LIG 0.12  C 
ATOM     33 O    ACE B   0      81.543 -17.253  57.054  1.00 15.52 LIG-0.27  OA
ENDBRANCH 27 29
ENDBRANCH 25 27
ENDBRANCH 16 20
ENDBRANCH 10 13
ENDBRANCH 8 9
BRANCH 8 34
ATOM     34  CB  LEU B   4      77.133 -19.288  47.444  1.00 12.59 LIG 0.04  C 
BRANCH 34 35
ATOM     35  CG  LEU B   4      76.692 -20.584  48.122  1.00 12.74 LIG-0.02  C 
ATOM     36  CD1 LEU B   4      76.664 -20.390  49.626  1.00 14.33 LIG 0.01  C 
ATOM     37  CD2 LEU B   4      75.333 -21.063  47.628  1.00 11.50 LIG 0.01  C 
ENDBRANCH 34 35
ENDBRANCH 8 34
ENDBRANCH 1 8
BRANCH 4 38
ATOM     38  C   PRO B   5      78.627 -14.855  46.097  1.00 12.26 LIG 0.24  C 
ATOM     39  N   PRO B   6      78.758 -14.072  47.162  1.00 14.33 LIG-0.34  N 
ATOM     40  CD  PRO B   6      79.850 -14.055  48.144  1.00 16.43 LIG 0.13  C 
ATOM     41  CA  PRO B   6      77.741 -13.057  47.450  1.00 15.63 LIG 0.18  C 
ATOM     42  CG  PRO B   6      79.245 -13.347  49.310  1.00 18.90 LIG 0.02  C 
ATOM     43  CB  PRO B   6      78.215 -12.434  48.769  1.00 17.20 LIG 0.04  C 
ATOM     44 O    PRO B   5      77.644 -14.760  45.345  1.00 12.24 LIG-0.27  OA
BRANCH 41 45
ATOM     45  C   PRO B   6      77.678 -12.002  46.356  1.00 14.54 LIG 0.24  C 
ATOM     46 O    PRO B   6      78.541 -11.128  46.248  1.00 15.72 LIG-0.27  OA
ATOM     47  N   ARG B   7      76.628 -12.084  45.552  1.00 15.59 LIG-0.35  N 
ATOM     48 H    ARG B   7      76.027 -12.697  45.608  1.00 15.59 LIG 0.16  HD
BRANCH 47 49
ATOM     49  CA  ARG B   7      76.403 -11.114  44.482  1.00 17.66 LIG 0.16  C 
BRANCH 49 50
ATOM     50  C   ARG B   7      76.544  -9.672  44.958  1.00 19.45 LIG 0.22  C 
ATOM     51 O    ARG B   7      75.570  -8.926  44.983  1.00 22.19 LIG-0.29  OA
ENDBRANCH 49 50
BRANCH 49 52
ATOM     52  CB  ARG B   7      75.033 -11.349  43.856  1.00 18.48 LIG 0.04  C 
BRANCH 52 53
ATOM     53  CG  ARG B   7      74.149 -12.213  44.728  1.00 19.62 LIG 0.02  C 
BRANCH 53 54
ATOM     54  CD  ARG B   7      72.947 -11.463  45.248  1.00 19.05 LIG 0.14  C 
BRANCH 54 55
ATOM     55  NE  ARG B   7      73.365 -10.275  45.980  1.00 16.94 LIG-0.23  N 
ATOM     56  CZ  ARG B   7      74.070 -10.280  47.109  1.00 14.04 LIG 0.67  C 
ATOM     57  NH1 ARG B   7      74.443 -11.416  47.679  1.00 13.87 LIG-0.23  N 
ATOM     58  NH2 ARG B   7      74.392  -9.133  47.678  1.00 14.07 LIG-0.23  N 
ATOM     59 2HH1 ARG B   7      74.899 -11.401  48.409  1.00 13.87 LIG 0.17  HD
ATOM     60 1HH1 ARG B   7      74.230 -12.167  47.320  1.00 13.87 LIG 0.17  HD
ATOM     61 1HH2 ARG B   7      74.146  -8.391  47.320  1.00 14.07 LIG 0.17  HD
ATOM     62 2HH2 ARG B   7      74.847  -9.127  48.407  1.00 14.07 LIG 0.17  HD
ATOM     63 HE   ARG B   7      73.139  -9.510  45.658  1.00 16.94 LIG 0.18  HD
ENDBRANCH 54 55
ENDBRANCH 53 54
ENDBRANCH 52 53
ENDBRANCH 49 52
ENDBRANCH 47 49
ENDBRANCH 41 45
ENDBRANCH 4 38
TORSDOF 16
ENDMDL
MODEL 40
USER: ADFR SOLUTION from run 98
USER: SCORE 16.986511 LL:  -5.303 LR: -11.953 RR:   0.000 FEB:  -7.181
USER: RMSD 12.661387
USER: SEED 97
USER: STATUS no improvement in best in 5 clusters for 5 generations
USER: GENES 18
USER: genes 0 Translation |==|  0.44528 0.42708 0.41304
USER: genes 1 Rotation |==|  0.13910 0.77592 0.70626 0.53281
USER: genes 2 Torsion [N]-C--CA-[N] |==|  0.38009
USER: genes 3 Torsion [C]-CA--N-[C] |==|  0.71709
USER: genes 4 Torsion [N]-C--CA-[N] |==|  0.27587
USER: genes 5 Torsion [N]-C--CA-[N] |==|  0.85542
USER: genes 6 Torsion [N]-C--CA-[N] |==|  0.87346
USER: genes 7 Torsion [C]-CA--N-[C] |==|  0.80899
USER: genes 8 Torsion [C]-CA--CB-[CG] |==|  0.22134
USER: genes 9 Torsion [CA]-CB--CG-[CD1] |==|  0.15446
USER: genes 10 Torsion [N]-CA--C-[N] |==|  0.35206
USER: genes 11 Torsion [N]-CA--C-[N] |==|  0.42450
USER: genes 12 Torsion [C]-N--CA-[C] |==|  0.66901
USER: genes 13 Torsion [N]-CA--C-[O] |==|  0.74857
USER: genes 14 Torsion [N]-CA--CB-[CG] |==|  0.06053
USER: genes 15 Torsion [CA]-CB--CG-[CD] |==|  0.21072
USER: genes 16 Torsion [CB]-CG--CD-[NE] |==|  0.14605
USER: genes 17 Torsion [CG]-CD--NE-[HE] |==|  0.77561
ROOT
ATOM      1  C   LEU B   4      77.749 -21.006  47.956  1.00 11.33 LIG 0.24  C 
ATOM      2 O    LEU B   4      78.486 -21.968  47.698  1.00 12.90 LIG-0.27  OA
ATOM      3  N   PRO B   5      77.829 -20.367  49.108  1.00 11.12 LIG-0.34  N 
ATOM      4  CA  PRO B   5      78.814 -20.756  50.084  1.00 12.55 LIG 0.18  C 
ATOM      5  CB  PRO B   5      78.891 -19.526  50.996  1.00 13.89 LIG 0.04  C 
ATOM      6  CG  PRO B   5      77.528 -18.952  50.941  1.00 12.43 LIG 0.02  C 
ATOM      7  CD  PRO B   5      77.009 -19.237  49.567  1.00 11.21 LIG 0.13  C 
ENDROOT
BRANCH 1 8
ATOM      8  CA  LEU B   4      76.733 -20.510  46.935  1.00 11.65 LIG 0.18  C 
BRANCH 8 9
ATOM      9  N   LEU B   4      77.346 -20.501  45.626  1.00 12.22 LIG-0.35  N 
ATOM     10  C   PRO B   3      77.768 -19.359  45.110  1.00 12.52 LIG 0.24  C 
ATOM     11 O    PRO B   3      77.568 -18.266  45.646  1.00 13.02 LIG-0.27  OA
ATOM     12 H    LEU B   4      77.404 -21.268  45.242  1.00 12.22 LIG 0.16  HD
BRANCH 10 13
ATOM     13  CA  PRO B   3      78.518 -19.468  43.792  1.00 15.46 LIG 0.18  C 
ATOM     14  N   PRO B   3      77.624 -19.157  42.674  1.00 15.16 LIG-0.34  N 
ATOM     15  CD  PRO B   3      78.034 -17.937  41.962  1.00 18.06 LIG 0.13  C 
ATOM     16  C   PRO B   2      76.539 -19.898  42.479  1.00 13.99 LIG 0.24  C 
ATOM     17  CG  PRO B   3      78.976 -17.294  42.919  1.00 19.92 LIG 0.02  C 
ATOM     18  CB  PRO B   3      79.614 -18.404  43.677  1.00 18.17 LIG 0.04  C 
ATOM     19 O    PRO B   2      76.316 -20.900  43.170  1.00 12.71 LIG-0.27  OA
BRANCH 16 20
ATOM     20  CA  PRO B   2      75.550 -19.450  41.421  1.00 15.85 LIG 0.18  C 
ATOM     21  CB  PRO B   2      76.219 -19.435  40.036  1.00 19.12 LIG 0.04  C 
ATOM     22  CG  PRO B   2      75.898 -18.137  39.420  1.00 19.63 LIG 0.02  C 
ATOM     23  CD  PRO B   2      75.653 -17.196  40.536  1.00 18.19 LIG 0.13  C 
ATOM     24  N   PRO B   2      75.169 -18.064  41.624  1.00 15.71 LIG-0.34  N 
ATOM     25  C   ALA B   1      74.496 -17.709  42.711  1.00 13.25 LIG 0.24  C 
ATOM     26 O    ALA B   1      74.212 -18.507  43.602  1.00 13.75 LIG-0.27  OA
BRANCH 25 27
ATOM     27  CA  ALA B   1      74.117 -16.242  42.828  1.00 12.47 LIG 0.17  C 
ATOM     28  CB  ALA B   1      72.952 -15.937  41.923  1.00 12.30 LIG 0.04  C 
BRANCH 27 29
ATOM     29  N   ALA B   1      75.250 -15.402  42.491  1.00 12.31 LIG-0.35  N 
ATOM     30 H    ALA B   1      75.165 -14.961  41.757  1.00 12.31 LIG 0.16  HD
ATOM     31  C   ACE B   0      76.313 -15.344  43.274  1.00 14.04 LIG 0.21  C 
ATOM     32  CH3 ACE B   0      77.422 -14.438  42.832  1.00 14.78 LIG 0.12  C 
ATOM     33 O    ACE B   0      76.376 -16.014  44.304  1.00 15.52 LIG-0.27  OA
ENDBRANCH 27 29
ENDBRANCH 25 27
ENDBRANCH 16 20
ENDBRANCH 10 13
ENDBRANCH 8 9
BRANCH 8 34
ATOM     34  CB  LEU B   4      75.492 -21.398  46.968  1.00 12.59 LIG 0.04  C 
BRANCH 34 35
ATOM     35  CG  LEU B   4      74.518 -21.099  48.106  1.00 12.74 LIG-0.02  C 
ATOM     36  CD1 LEU B   4      74.108 -19.640  48.059  1.00 14.33 LIG 0.01  C 
ATOM     37  CD2 LEU B   4      73.285 -21.993  48.062  1.00 11.50 LIG 0.01  C 
ENDBRANCH 34 35
ENDBRANCH 8 34
ENDBRANCH 1 8
BRANCH 4 38
ATOM     38  C   PRO B   5      78.351 -21.985  50.843  1.00 12.26 LIG 0.24  C 
ATOM     39  N   PRO B   6      79.174 -23.027  50.889  1.00 14.33 LIG-0.34  N 
ATOM     40  CD  PRO B   6      80.495 -23.165  50.260  1.00 16.43 LIG 0.13  C 
ATOM     41  CA  PRO B   6      78.802 -24.216  51.658  1.00 15.63 LIG 0.18  C 
ATOM     42  CG  PRO B   6      80.712 -24.642  50.252  1.00 18.90 LIG 0.02  C 
ATOM     43  CB  PRO B   6      79.958 -25.191  51.399  1.00 17.20 LIG 0.04  C 
ATOM     44 O    PRO B   5      77.256 -22.004  51.426  1.00 12.24 LIG-0.27  OA
BRANCH 41 45
ATOM     45  C   PRO B   6      78.689 -23.909  53.143  1.00 14.54 LIG 0.24  C 
ATOM     46 O    PRO B   6      79.343 -23.006  53.670  1.00 15.72 LIG-0.27  OA
ATOM     47  N   ARG B   7      77.858 -24.689  53.819  1.00 15.59 LIG-0.35  N 
ATOM     48 H    ARG B   7      77.385 -25.312  53.461  1.00 15.59 LIG 0.16  HD
BRANCH 47 49
ATOM     49  CA  ARG B   7      77.676 -24.546  55.262  1.00 17.66 LIG 0.16  C 
BRANCH 49 50
ATOM     50  C   ARG B   7      78.061 -25.807  56.030  1.00 19.45 LIG 0.22  C 
ATOM     51 O    ARG B   7      77.226 -26.675  56.261  1.00 22.19 LIG-0.29  OA
ENDBRANCH 49 50
BRANCH 49 52
ATOM     52  CB  ARG B   7      76.234 -24.148  55.562  1.00 18.48 LIG 0.04  C 
BRANCH 52 53
ATOM     53  CG  ARG B   7      75.297 -24.514  54.432  1.00 19.62 LIG 0.02  C 
BRANCH 53 54
ATOM     54  CD  ARG B   7      74.988 -25.992  54.399  1.00 19.05 LIG 0.14  C 
BRANCH 54 55
ATOM     55  NE  ARG B   7      74.520 -26.443  55.703  1.00 16.94 LIG-0.23  N 
ATOM     56  CZ  ARG B   7      73.244 -26.624  56.037  1.00 14.04 LIG 0.67  C 
ATOM     57  NH1 ARG B   7      72.269 -26.381  55.176  1.00 13.87 LIG-0.23  N 
ATOM     58  NH2 ARG B   7      72.945 -27.040  57.254  1.00 14.07 LIG-0.23  N 
ATOM     59 2HH1 ARG B   7      71.449 -26.503  55.408  1.00 13.87 LIG 0.17  HD
ATOM     60 1HH1 ARG B   7      72.454 -26.101  54.384  1.00 13.87 LIG 0.17  HD
ATOM     61 1HH2 ARG B   7      73.572 -27.192  57.823  1.00 14.07 LIG 0.17  HD
ATOM     62 2HH2 ARG B   7      72.124 -27.160  57.478  1.00 14.07 LIG 0.17  HD
ATOM     63 HE   ARG B   7      75.114 -26.605  56.304  1.00 16.94 LIG 0.18  HD
ENDBRANCH 54 55
ENDBRANCH 53 54
ENDBRANCH 52 53
ENDBRANCH 49 52
ENDBRANCH 47 49
ENDBRANCH 41 45
ENDBRANCH 4 38
TORSDOF 16
ENDMDL
MODEL 41
USER: ADFR SOLUTION from run 88
USER: SCORE 15.876381 LL:  -4.633 LR: -11.946 RR:   0.000 FEB:  -7.173
USER: RMSD 7.787159
USER: SEED 87
USER: STATUS no improvement in best in 18 clusters for 5 generations
USER: GENES 18
USER: genes 0 Translation |==|  0.58824 0.78272 0.41194
USER: genes 1 Rotation |==|  0.74979 0.48485 0.93079 0.54235
USER: genes 2 Torsion [N]-C--CA-[N] |==|  0.85591
USER: genes 3 Torsion [C]-CA--N-[C] |==|  0.80927
USER: genes 4 Torsion [N]-C--CA-[N] |==|  0.41238
USER: genes 5 Torsion [N]-C--CA-[N] |==|  0.48806
USER: genes 6 Torsion [N]-C--CA-[N] |==|  0.12202
USER: genes 7 Torsion [C]-CA--N-[C] |==|  0.61065
USER: genes 8 Torsion [C]-CA--CB-[CG] |==|  0.62418
USER: genes 9 Torsion [CA]-CB--CG-[CD1] |==|  0.43309
USER: genes 10 Torsion [N]-CA--C-[N] |==|  0.34523
USER: genes 11 Torsion [N]-CA--C-[N] |==|  0.50473
USER: genes 12 Torsion [C]-N--CA-[C] |==|  0.54860
USER: genes 13 Torsion [N]-CA--C-[O] |==|  0.93699
USER: genes 14 Torsion [N]-CA--CB-[CG] |==|  0.23485
USER: genes 15 Torsion [CA]-CB--CG-[CD] |==|  0.63038
USER: genes 16 Torsion [CB]-CG--CD-[NE] |==|  0.60757
USER: genes 17 Torsion [CG]-CD--NE-[HE] |==|  0.73916
ROOT
ATOM      1  C   LEU B   4      79.894 -12.471  47.926  1.00 11.33 LIG 0.24  C 
ATOM      2 O    LEU B   4      78.867 -11.915  48.342  1.00 12.90 LIG-0.27  OA
ATOM      3  N   PRO B   5      80.102 -12.655  46.636  1.00 11.12 LIG-0.34  N 
ATOM      4  CA  PRO B   5      79.146 -12.173  45.673  1.00 12.55 LIG 0.18  C 
ATOM      5  CB  PRO B   5      79.958 -12.151  44.372  1.00 13.89 LIG 0.04  C 
ATOM      6  CG  PRO B   5      80.929 -13.255  44.537  1.00 12.43 LIG 0.02  C 
ATOM      7  CD  PRO B   5      81.247 -13.319  45.998  1.00 11.21 LIG 0.13  C 
ENDROOT
BRANCH 1 8
ATOM      8  CA  LEU B   4      80.969 -12.943  48.896  1.00 11.65 LIG 0.18  C 
BRANCH 8 9
ATOM      9  N   LEU B   4      81.290 -14.323  48.608  1.00 12.22 LIG-0.35  N 
ATOM     10  C   PRO B   3      80.396 -15.267  48.852  1.00 12.52 LIG 0.24  C 
ATOM     11 O    PRO B   3      79.325 -15.045  49.422  1.00 13.02 LIG-0.27  OA
ATOM     12 H    LEU B   4      82.074 -14.458  48.281  1.00 12.22 LIG 0.16  HD
BRANCH 10 13
ATOM     13  CA  PRO B   3      80.772 -16.666  48.391  1.00 15.46 LIG 0.18  C 
ATOM     14  N   PRO B   3      80.187 -17.667  49.287  1.00 15.16 LIG-0.34  N 
ATOM     15  CD  PRO B   3      79.191 -18.505  48.603  1.00 18.06 LIG 0.13  C 
ATOM     16  C   PRO B   2      80.514 -17.663  50.574  1.00 13.99 LIG 0.24  C 
ATOM     17  CG  PRO B   3      78.898 -17.730  47.365  1.00 19.92 LIG 0.02  C 
ATOM     18  CB  PRO B   3      80.150 -16.999  47.032  1.00 18.17 LIG 0.04  C 
ATOM     19 O    PRO B   2      81.370 -16.886  51.015  1.00 12.71 LIG-0.27  OA
BRANCH 16 20
ATOM     20  CA  PRO B   2      79.766 -18.600  51.503  1.00 15.85 LIG 0.18  C 
ATOM     21  CB  PRO B   2      78.317 -18.122  51.691  1.00 19.12 LIG 0.04  C 
ATOM     22  CG  PRO B   2      78.048 -18.128  53.138  1.00 19.63 LIG 0.02  C 
ATOM     23  CD  PRO B   2      79.359 -17.961  53.805  1.00 18.19 LIG 0.13  C 
ATOM     24  N   PRO B   2      80.315 -18.542  52.847  1.00 15.71 LIG-0.34  N 
ATOM     25  C   ALA B   1      81.554 -18.954  53.080  1.00 13.25 LIG 0.24  C 
ATOM     26 O    ALA B   1      82.299 -19.347  52.184  1.00 13.75 LIG-0.27  OA
BRANCH 25 27
ATOM     27  CA  ALA B   1      82.036 -18.881  54.519  1.00 12.47 LIG 0.17  C 
ATOM     28  CB  ALA B   1      83.298 -19.687  54.681  1.00 12.30 LIG 0.04  C 
BRANCH 27 29
ATOM     29  N   ALA B   1      81.007 -19.369  55.418  1.00 12.31 LIG-0.35  N 
ATOM     30 H    ALA B   1      80.579 -20.058  55.133  1.00 12.31 LIG 0.16  HD
ATOM     31  C   ACE B   0      80.775 -18.776  56.576  1.00 14.04 LIG 0.21  C 
ATOM     32  CH3 ACE B   0      79.695 -19.368  57.428  1.00 14.78 LIG 0.12  C 
ATOM     33 O    ACE B   0      81.417 -17.782  56.916  1.00 15.52 LIG-0.27  OA
ENDBRANCH 27 29
ENDBRANCH 25 27
ENDBRANCH 16 20
ENDBRANCH 10 13
ENDBRANCH 8 9
BRANCH 8 34
ATOM     34  CB  LEU B   4      82.199 -12.046  48.783  1.00 12.59 LIG 0.04  C 
BRANCH 34 35
ATOM     35  CG  LEU B   4      83.533 -12.788  48.739  1.00 12.74 LIG-0.02  C 
ATOM     36  CD1 LEU B   4      84.576 -11.925  48.053  1.00 14.33 LIG 0.01  C 
ATOM     37  CD2 LEU B   4      84.016 -13.194  50.126  1.00 11.50 LIG 0.01  C 
ENDBRANCH 34 35
ENDBRANCH 8 34
ENDBRANCH 1 8
BRANCH 4 38
ATOM     38  C   PRO B   5      77.965 -13.120  45.578  1.00 12.26 LIG 0.24  C 
ATOM     39  N   PRO B   6      76.753 -12.617  45.782  1.00 14.33 LIG-0.34  N 
ATOM     40  CD  PRO B   6      76.394 -11.234  46.128  1.00 16.43 LIG 0.13  C 
ATOM     41  CA  PRO B   6      75.574 -13.475  45.643  1.00 15.63 LIG 0.18  C 
ATOM     42  CG  PRO B   6      75.013 -11.372  46.678  1.00 18.90 LIG 0.02  C 
ATOM     43  CB  PRO B   6      74.409 -12.554  46.025  1.00 17.20 LIG 0.04  C 
ATOM     44 O    PRO B   5      78.125 -14.317  45.289  1.00 12.24 LIG-0.27  OA
BRANCH 41 45
ATOM     45  C   PRO B   6      75.412 -13.975  44.217  1.00 14.54 LIG 0.24  C 
ATOM     46 O    PRO B   6      76.214 -13.675  43.329  1.00 15.72 LIG-0.27  OA
ATOM     47  N   ARG B   7      74.345 -14.731  44.001  1.00 15.59 LIG-0.35  N 
ATOM     48 H    ARG B   7      73.786 -14.959  44.614  1.00 15.59 LIG 0.16  HD
BRANCH 47 49
ATOM     49  CA  ARG B   7      74.028 -15.249  42.671  1.00 17.66 LIG 0.16  C 
BRANCH 49 50
ATOM     50  C   ARG B   7      72.581 -15.717  42.554  1.00 19.45 LIG 0.22  C 
ATOM     51 O    ARG B   7      71.944 -16.032  43.554  1.00 22.19 LIG-0.29  OA
ENDBRANCH 49 50
BRANCH 49 52
ATOM     52  CB  ARG B   7      74.993 -16.374  42.315  1.00 18.48 LIG 0.04  C 
BRANCH 52 53
ATOM     53  CG  ARG B   7      74.541 -17.707  42.869  1.00 19.62 LIG 0.02  C 
BRANCH 53 54
ATOM     54  CD  ARG B   7      75.661 -18.453  43.554  1.00 19.05 LIG 0.14  C 
BRANCH 54 55
ATOM     55  NE  ARG B   7      75.572 -19.880  43.268  1.00 16.94 LIG-0.23  N 
ATOM     56  CZ  ARG B   7      76.091 -20.480  42.201  1.00 14.04 LIG 0.67  C 
ATOM     57  NH1 ARG B   7      76.740 -19.792  41.274  1.00 13.87 LIG-0.23  N 
ATOM     58  NH2 ARG B   7      75.945 -21.784  42.055  1.00 14.07 LIG-0.23  N 
ATOM     59 2HH1 ARG B   7      77.069 -20.196  40.590  1.00 13.87 LIG 0.17  HD
ATOM     60 1HH1 ARG B   7      76.831 -18.941  41.357  1.00 13.87 LIG 0.17  HD
ATOM     61 1HH2 ARG B   7      75.517 -22.238  42.647  1.00 14.07 LIG 0.17  HD
ATOM     62 2HH2 ARG B   7      76.277 -22.180  41.368  1.00 14.07 LIG 0.17  HD
ATOM     63 HE   ARG B   7      75.151 -20.372  43.835  1.00 16.94 LIG 0.18  HD
ENDBRANCH 54 55
ENDBRANCH 53 54
ENDBRANCH 52 53
ENDBRANCH 49 52
ENDBRANCH 47 49
ENDBRANCH 41 45
ENDBRANCH 4 38
TORSDOF 16
ENDMDL
MODEL 42
USER: ADFR SOLUTION from run 67
USER: SCORE 16.674905 LL:  -5.085 LR: -11.942 RR:   0.000 FEB:  -7.169
USER: RMSD 5.160861
USER: SEED 66
USER: STATUS no improvement in best in 2 clusters for 5 generations
USER: GENES 18
USER: genes 0 Translation |==|  0.54930 0.56039 0.42340
USER: genes 1 Rotation |==|  0.70378 0.22963 0.80242 0.70956
USER: genes 2 Torsion [N]-C--CA-[N] |==|  0.46667
USER: genes 3 Torsion [C]-CA--N-[C] |==|  0.61267
USER: genes 4 Torsion [N]-C--CA-[N] |==|  0.44695
USER: genes 5 Torsion [N]-C--CA-[N] |==|  0.37303
USER: genes 6 Torsion [N]-C--CA-[N] |==|  0.31788
USER: genes 7 Torsion [C]-CA--N-[C] |==|  0.82473
USER: genes 8 Torsion [C]-CA--CB-[CG] |==|  0.67363
USER: genes 9 Torsion [CA]-CB--CG-[CD1] |==|  0.40196
USER: genes 10 Torsion [N]-CA--C-[N] |==|  0.34430
USER: genes 11 Torsion [N]-CA--C-[N] |==|  0.75906
USER: genes 12 Torsion [C]-N--CA-[C] |==|  0.77824
USER: genes 13 Torsion [N]-CA--C-[O] |==|  0.93595
USER: genes 14 Torsion [N]-CA--CB-[CG] |==|  0.76250
USER: genes 15 Torsion [CA]-CB--CG-[CD] |==|  0.99043
USER: genes 16 Torsion [CB]-CG--CD-[NE] |==|  0.39509
USER: genes 17 Torsion [CG]-CD--NE-[HE] |==|  0.18910
ROOT
ATOM      1  C   LEU B   4      79.310 -17.807  48.236  1.00 11.33 LIG 0.24  C 
ATOM      2 O    LEU B   4      79.321 -16.979  49.158  1.00 12.90 LIG-0.27  OA
ATOM      3  N   PRO B   5      79.587 -17.457  46.994  1.00 11.12 LIG-0.34  N 
ATOM      4  CA  PRO B   5      79.951 -16.097  46.690  1.00 12.55 LIG 0.18  C 
ATOM      5  CB  PRO B   5      80.630 -16.227  45.320  1.00 13.89 LIG 0.04  C 
ATOM      6  CG  PRO B   5      79.945 -17.376  44.688  1.00 12.43 LIG 0.02  C 
ATOM      7  CD  PRO B   5      79.584 -18.312  45.798  1.00 11.21 LIG 0.13  C 
ENDROOT
BRANCH 1 8
ATOM      8  CA  LEU B   4      78.994 -19.272  48.510  1.00 11.65 LIG 0.18  C 
BRANCH 8 9
ATOM      9  N   LEU B   4      79.001 -19.496  49.938  1.00 12.22 LIG-0.35  N 
ATOM     10  C   PRO B   3      79.540 -20.602  50.423  1.00 12.52 LIG 0.24  C 
ATOM     11 O    PRO B   3      79.950 -21.519  49.706  1.00 13.02 LIG-0.27  OA
ATOM     12 H    LEU B   4      78.640 -18.875  50.410  1.00 12.22 LIG 0.16  HD
BRANCH 10 13
ATOM     13  CA  PRO B   3      79.622 -20.686  51.939  1.00 15.46 LIG 0.18  C 
ATOM     14  N   PRO B   3      79.797 -22.078  52.359  1.00 15.16 LIG-0.34  N 
ATOM     15  CD  PRO B   3      81.097 -22.299  53.011  1.00 18.06 LIG 0.13  C 
ATOM     16  C   PRO B   2      78.872 -22.978  52.045  1.00 13.99 LIG 0.24  C 
ATOM     17  CG  PRO B   3      81.872 -21.088  52.625  1.00 19.92 LIG 0.02  C 
ATOM     18  CB  PRO B   3      80.877 -19.992  52.476  1.00 18.17 LIG 0.04  C 
ATOM     19 O    PRO B   2      77.822 -22.645  51.480  1.00 12.71 LIG-0.27  OA
BRANCH 16 20
ATOM     20  CA  PRO B   2      79.162 -24.436  52.346  1.00 15.85 LIG 0.18  C 
ATOM     21  CB  PRO B   2      79.332 -25.227  51.038  1.00 19.12 LIG 0.04  C 
ATOM     22  CG  PRO B   2      78.497 -26.434  51.156  1.00 19.63 LIG 0.02  C 
ATOM     23  CD  PRO B   2      77.414 -26.098  52.108  1.00 18.19 LIG 0.13  C 
ATOM     24  N   PRO B   2      78.017 -25.071  52.975  1.00 15.71 LIG-0.34  N 
ATOM     25  C   ALA B   1      77.615 -24.681  54.177  1.00 13.25 LIG 0.24  C 
ATOM     26 O    ALA B   1      78.145 -23.750  54.782  1.00 13.75 LIG-0.27  OA
BRANCH 25 27
ATOM     27  CA  ALA B   1      76.426 -25.418  54.770  1.00 12.47 LIG 0.17  C 
ATOM     28  CB  ALA B   1      75.334 -24.441  55.116  1.00 12.30 LIG 0.04  C 
BRANCH 27 29
ATOM     29  N   ALA B   1      76.832 -26.158  55.950  1.00 12.31 LIG-0.35  N 
ATOM     30 H    ALA B   1      76.456 -25.904  56.681  1.00 12.31 LIG 0.16  HD
ATOM     31  C   ACE B   0      77.714 -27.140  55.870  1.00 14.04 LIG 0.21  C 
ATOM     32  CH3 ACE B   0      78.055 -27.841  57.149  1.00 14.78 LIG 0.12  C 
ATOM     33 O    ACE B   0      78.226 -27.442  54.792  1.00 15.52 LIG-0.27  OA
ENDBRANCH 27 29
ENDBRANCH 25 27
ENDBRANCH 16 20
ENDBRANCH 10 13
ENDBRANCH 8 9
BRANCH 8 34
ATOM     34  CB  LEU B   4      77.646 -19.635  47.892  1.00 12.59 LIG 0.04  C 
BRANCH 34 35
ATOM     35  CG  LEU B   4      76.578 -20.070  48.892  1.00 12.74 LIG-0.02  C 
ATOM     36  CD1 LEU B   4      75.217 -19.584  48.430  1.00 14.33 LIG 0.01  C 
ATOM     37  CD2 LEU B   4      76.556 -21.580  49.096  1.00 11.50 LIG 0.01  C 
ENDBRANCH 34 35
ENDBRANCH 8 34
ENDBRANCH 1 8
BRANCH 4 38
ATOM     38  C   PRO B   5      78.716 -15.220  46.619  1.00 12.26 LIG 0.24  C 
ATOM     39  N   PRO B   6      78.672 -14.152  47.407  1.00 14.33 LIG-0.34  N 
ATOM     40  CD  PRO B   6      79.674 -13.709  48.388  1.00 16.43 LIG 0.13  C 
ATOM     41  CA  PRO B   6      77.530 -13.239  47.335  1.00 15.63 LIG 0.18  C 
ATOM     42  CG  PRO B   6      78.901 -12.779  49.262  1.00 18.90 LIG 0.02  C 
ATOM     43  CB  PRO B   6      77.823 -12.205  48.429  1.00 17.20 LIG 0.04  C 
ATOM     44 O    PRO B   5      77.792 -15.476  45.830  1.00 12.24 LIG-0.27  OA
BRANCH 41 45
ATOM     45  C   PRO B   6      77.438 -12.564  45.976  1.00 14.54 LIG 0.24  C 
ATOM     46 O    PRO B   6      76.759 -13.037  45.061  1.00 15.72 LIG-0.27  OA
ATOM     47  N   ARG B   7      78.148 -11.453  45.848  1.00 15.59 LIG-0.35  N 
ATOM     48 H    ARG B   7      78.614 -11.104  46.481  1.00 15.59 LIG 0.16  HD
BRANCH 47 49
ATOM     49  CA  ARG B   7      78.198 -10.715  44.587  1.00 17.66 LIG 0.16  C 
BRANCH 49 50
ATOM     50  C   ARG B   7      79.164 -11.335  43.582  1.00 19.45 LIG 0.22  C 
ATOM     51 O    ARG B   7      80.086 -12.049  43.962  1.00 22.19 LIG-0.29  OA
ENDBRANCH 49 50
BRANCH 49 52
ATOM     52  CB  ARG B   7      78.557  -9.258  44.857  1.00 18.48 LIG 0.04  C 
BRANCH 52 53
ATOM     53  CG  ARG B   7      77.339  -8.426  45.194  1.00 19.62 LIG 0.02  C 
BRANCH 53 54
ATOM     54  CD  ARG B   7      76.058  -9.220  45.099  1.00 19.05 LIG 0.14  C 
BRANCH 54 55
ATOM     55  NE  ARG B   7      75.137  -8.829  46.159  1.00 16.94 LIG-0.23  N 
ATOM     56  CZ  ARG B   7      74.776  -9.601  47.181  1.00 14.04 LIG 0.67  C 
ATOM     57  NH1 ARG B   7      75.234 -10.837  47.303  1.00 13.87 LIG-0.23  N 
ATOM     58  NH2 ARG B   7      73.933  -9.131  48.082  1.00 14.07 LIG-0.23  N 
ATOM     59 2HH1 ARG B   7      74.990 -11.322  47.970  1.00 13.87 LIG 0.17  HD
ATOM     60 1HH1 ARG B   7      75.776 -11.154  46.715  1.00 13.87 LIG 0.17  HD
ATOM     61 1HH2 ARG B   7      73.623  -8.332  48.006  1.00 14.07 LIG 0.17  HD
ATOM     62 2HH2 ARG B   7      73.694  -9.622  48.746  1.00 14.07 LIG 0.17  HD
ATOM     63 HE   ARG B   7      74.801  -8.038  46.121  1.00 16.94 LIG 0.18  HD
ENDBRANCH 54 55
ENDBRANCH 53 54
ENDBRANCH 52 53
ENDBRANCH 49 52
ENDBRANCH 47 49
ENDBRANCH 41 45
ENDBRANCH 4 38
TORSDOF 16
ENDMDL
MODEL 43
USER: ADFR SOLUTION from run 70
USER: SCORE 15.798923 LL:  -5.137 LR: -11.932 RR:   0.000 FEB:  -7.159
USER: RMSD 9.453439
USER: SEED 69
USER: STATUS no improvement in best in 7 clusters for 5 generations
USER: GENES 18
USER: genes 0 Translation |==|  0.58030 0.56081 0.51816
USER: genes 1 Rotation |==|  0.62419 0.16415 0.76129 0.73132
USER: genes 2 Torsion [N]-C--CA-[N] |==|  0.83210
USER: genes 3 Torsion [C]-CA--N-[C] |==|  0.50012
USER: genes 4 Torsion [N]-C--CA-[N] |==|  0.24715
USER: genes 5 Torsion [N]-C--CA-[N] |==|  0.31293
USER: genes 6 Torsion [N]-C--CA-[N] |==|  0.42350
USER: genes 7 Torsion [C]-CA--N-[C] |==|  0.81200
USER: genes 8 Torsion [C]-CA--CB-[CG] |==|  0.30471
USER: genes 9 Torsion [CA]-CB--CG-[CD1] |==|  0.35738
USER: genes 10 Torsion [N]-CA--C-[N] |==|  0.53978
USER: genes 11 Torsion [N]-CA--C-[N] |==|  0.25210
USER: genes 12 Torsion [C]-N--CA-[C] |==|  0.17004
USER: genes 13 Torsion [N]-CA--C-[O] |==|  0.08567
USER: genes 14 Torsion [N]-CA--CB-[CG] |==|  0.51293
USER: genes 15 Torsion [CA]-CB--CG-[CD] |==|  0.23343
USER: genes 16 Torsion [CB]-CG--CD-[NE] |==|  0.10986
USER: genes 17 Torsion [CG]-CD--NE-[HE] |==|  0.78064
ROOT
ATOM      1  C   LEU B   4      79.775 -17.797  50.794  1.00 11.33 LIG 0.24  C 
ATOM      2 O    LEU B   4      79.918 -17.078  51.794  1.00 12.90 LIG-0.27  OA
ATOM      3  N   PRO B   5      80.406 -17.538  49.664  1.00 11.12 LIG-0.34  N 
ATOM      4  CA  PRO B   5      81.316 -16.425  49.583  1.00 12.55 LIG 0.18  C 
ATOM      5  CB  PRO B   5      82.150 -16.761  48.341  1.00 13.89 LIG 0.04  C 
ATOM      6  CG  PRO B   5      81.219 -17.517  47.476  1.00 12.43 LIG 0.02  C 
ATOM      7  CD  PRO B   5      80.314 -18.275  48.396  1.00 11.21 LIG 0.13  C 
ENDROOT
BRANCH 1 8
ATOM      8  CA  LEU B   4      78.874 -19.025  50.842  1.00 11.65 LIG 0.18  C 
BRANCH 8 9
ATOM      9  N   LEU B   4      77.831 -18.883  49.853  1.00 12.22 LIG-0.35  N 
ATOM     10  C   PRO B   3      76.926 -19.838  49.716  1.00 12.52 LIG 0.24  C 
ATOM     11 O    PRO B   3      76.986 -20.911  50.322  1.00 13.02 LIG-0.27  OA
ATOM     12 H    LEU B   4      77.857 -18.158  49.391  1.00 12.22 LIG 0.16  HD
BRANCH 10 13
ATOM     13  CA  PRO B   3      75.793 -19.540  48.747  1.00 15.46 LIG 0.18  C 
ATOM     14  N   PRO B   3      76.159 -19.966  47.394  1.00 15.16 LIG-0.34  N 
ATOM     15  CD  PRO B   3      75.304 -21.059  46.908  1.00 18.06 LIG 0.13  C 
ATOM     16  C   PRO B   2      77.223 -19.430  46.806  1.00 13.99 LIG 0.24  C 
ATOM     17  CG  PRO B   3      74.658 -21.555  48.155  1.00 19.92 LIG 0.02  C 
ATOM     18  CB  PRO B   3      74.548 -20.377  49.058  1.00 18.17 LIG 0.04  C 
ATOM     19 O    PRO B   2      77.859 -18.516  47.344  1.00 12.71 LIG-0.27  OA
BRANCH 16 20
ATOM     20  CA  PRO B   2      77.673 -20.011  45.479  1.00 15.85 LIG 0.18  C 
ATOM     21  CB  PRO B   2      79.195 -20.233  45.482  1.00 19.12 LIG 0.04  C 
ATOM     22  CG  PRO B   2      79.715 -19.651  44.234  1.00 19.63 LIG 0.02  C 
ATOM     23  CD  PRO B   2      78.756 -18.596  43.836  1.00 18.19 LIG 0.13  C 
ATOM     24  N   PRO B   2      77.476 -19.055  44.404  1.00 15.71 LIG-0.34  N 
ATOM     25  C   ALA B   1      76.251 -18.674  44.066  1.00 13.25 LIG 0.24  C 
ATOM     26 O    ALA B   1      75.249 -19.062  44.665  1.00 13.75 LIG-0.27  OA
BRANCH 25 27
ATOM     27  CA  ALA B   1      76.138 -17.692  42.912  1.00 12.47 LIG 0.17  C 
ATOM     28  CB  ALA B   1      76.290 -16.282  43.419  1.00 12.30 LIG 0.04  C 
BRANCH 27 29
ATOM     29  N   ALA B   1      74.861 -17.850  42.241  1.00 12.31 LIG-0.35  N 
ATOM     30 H    ALA B   1      74.324 -17.184  42.330  1.00 12.31 LIG 0.16  HD
ATOM     31  C   ACE B   0      74.582 -18.945  41.556  1.00 14.04 LIG 0.21  C 
ATOM     32  CH3 ACE B   0      73.237 -18.999  40.898  1.00 14.78 LIG 0.12  C 
ATOM     33 O    ACE B   0      75.394 -19.868  41.482  1.00 15.52 LIG-0.27  OA
ENDBRANCH 27 29
ENDBRANCH 25 27
ENDBRANCH 16 20
ENDBRANCH 10 13
ENDBRANCH 8 9
BRANCH 8 34
ATOM     34  CB  LEU B   4      79.704 -20.284  50.605  1.00 12.59 LIG 0.04  C 
BRANCH 34 35
ATOM     35  CG  LEU B   4      79.878 -21.178  51.831  1.00 12.74 LIG-0.02  C 
ATOM     36  CD1 LEU B   4      79.498 -22.605  51.482  1.00 14.33 LIG 0.01  C 
ATOM     37  CD2 LEU B   4      81.297 -21.132  52.384  1.00 11.50 LIG 0.01  C 
ENDBRANCH 34 35
ENDBRANCH 8 34
ENDBRANCH 1 8
BRANCH 4 38
ATOM     38  C   PRO B   5      80.551 -15.127  49.407  1.00 12.26 LIG 0.24  C 
ATOM     39  N   PRO B   6      81.237 -14.054  49.026  1.00 14.33 LIG-0.34  N 
ATOM     40  CD  PRO B   6      82.681 -13.945  48.776  1.00 16.43 LIG 0.13  C 
ATOM     41  CA  PRO B   6      80.538 -12.791  48.783  1.00 15.63 LIG 0.18  C 
ATOM     42  CG  PRO B   6      82.926 -12.475  48.849  1.00 18.90 LIG 0.02  C 
ATOM     43  CB  PRO B   6      81.668 -11.811  48.444  1.00 17.20 LIG 0.04  C 
ATOM     44 O    PRO B   5      79.323 -15.077  49.582  1.00 12.24 LIG-0.27  OA
BRANCH 41 45
ATOM     45  C   PRO B   6      79.565 -12.904  47.620  1.00 14.54 LIG 0.24  C 
ATOM     46 O    PRO B   6      79.909 -12.658  46.461  1.00 15.72 LIG-0.27  OA
ATOM     47  N   ARG B   7      78.333 -13.264  47.947  1.00 15.59 LIG-0.35  N 
ATOM     48 H    ARG B   7      78.084 -13.453  48.749  1.00 15.59 LIG 0.16  HD
BRANCH 47 49
ATOM     49  CA  ARG B   7      77.274 -13.372  46.946  1.00 17.66 LIG 0.16  C 
BRANCH 49 50
ATOM     50  C   ARG B   7      77.583 -14.413  45.874  1.00 19.45 LIG 0.22  C 
ATOM     51 O    ARG B   7      78.254 -15.403  46.142  1.00 22.19 LIG-0.29  OA
ENDBRANCH 49 50
BRANCH 49 52
ATOM     52  CB  ARG B   7      77.019 -12.005  46.318  1.00 18.48 LIG 0.04  C 
BRANCH 52 53
ATOM     53  CG  ARG B   7      75.854 -12.032  45.353  1.00 19.62 LIG 0.02  C 
BRANCH 53 54
ATOM     54  CD  ARG B   7      74.526 -11.868  46.052  1.00 19.05 LIG 0.14  C 
BRANCH 54 55
ATOM     55  NE  ARG B   7      74.631 -10.884  47.121  1.00 16.94 LIG-0.23  N 
ATOM     56  CZ  ARG B   7      74.219  -9.621  47.041  1.00 14.04 LIG 0.67  C 
ATOM     57  NH1 ARG B   7      73.676  -9.145  45.932  1.00 13.87 LIG-0.23  N 
ATOM     58  NH2 ARG B   7      74.368  -8.823  48.083  1.00 14.07 LIG-0.23  N 
ATOM     59 2HH1 ARG B   7      73.415  -8.326  45.897  1.00 13.87 LIG 0.17  HD
ATOM     60 1HH1 ARG B   7      73.584  -9.656  45.246  1.00 13.87 LIG 0.17  HD
ATOM     61 1HH2 ARG B   7      74.729  -9.121  48.805  1.00 14.07 LIG 0.17  HD
ATOM     62 2HH2 ARG B   7      74.105  -8.006  48.040  1.00 14.07 LIG 0.17  HD
ATOM     63 HE   ARG B   7      74.988 -11.139  47.861  1.00 16.94 LIG 0.18  HD
ENDBRANCH 54 55
ENDBRANCH 53 54
ENDBRANCH 52 53
ENDBRANCH 49 52
ENDBRANCH 47 49
ENDBRANCH 41 45
ENDBRANCH 4 38
TORSDOF 16
ENDMDL
MODEL 44
USER: ADFR SOLUTION from run 169
USER: SCORE 15.511001 LL:  -4.718 LR: -11.921 RR:   0.000 FEB:  -7.149
USER: RMSD 5.394343
USER: SEED 168
USER: STATUS no improvement in best in 15 clusters for 5 generations
USER: GENES 18
USER: genes 0 Translation |==|  0.48632 0.40826 0.54511
USER: genes 1 Rotation |==|  0.38401 0.65123 0.09358 0.72022
USER: genes 2 Torsion [N]-C--CA-[N] |==|  0.46722
USER: genes 3 Torsion [C]-CA--N-[C] |==|  0.19181
USER: genes 4 Torsion [N]-C--CA-[N] |==|  0.90304
USER: genes 5 Torsion [N]-C--CA-[N] |==|  0.90887
USER: genes 6 Torsion [N]-C--CA-[N] |==|  0.45681
USER: genes 7 Torsion [C]-CA--N-[C] |==|  0.52778
USER: genes 8 Torsion [C]-CA--CB-[CG] |==|  0.39452
USER: genes 9 Torsion [CA]-CB--CG-[CD1] |==|  0.91922
USER: genes 10 Torsion [N]-CA--C-[N] |==|  0.33666
USER: genes 11 Torsion [N]-CA--C-[N] |==|  0.58652
USER: genes 12 Torsion [C]-N--CA-[C] |==|  0.64888
USER: genes 13 Torsion [N]-CA--C-[O] |==|  0.80079
USER: genes 14 Torsion [N]-CA--CB-[CG] |==|  0.90796
USER: genes 15 Torsion [CA]-CB--CG-[CD] |==|  0.34901
USER: genes 16 Torsion [CB]-CG--CD-[NE] |==|  0.79564
USER: genes 17 Torsion [CG]-CD--NE-[HE] |==|  0.16080
ROOT
ATOM      1  C   LEU B   4      78.365 -21.458  51.522  1.00 11.33 LIG 0.24  C 
ATOM      2 O    LEU B   4      77.215 -21.883  51.339  1.00 12.90 LIG-0.27  OA
ATOM      3  N   PRO B   5      78.766 -20.314  51.001  1.00 11.12 LIG-0.34  N 
ATOM      4  CA  PRO B   5      77.852 -19.509  50.233  1.00 12.55 LIG 0.18  C 
ATOM      5  CB  PRO B   5      78.527 -18.131  50.239  1.00 13.89 LIG 0.04  C 
ATOM      6  CG  PRO B   5      79.972 -18.440  50.303  1.00 12.43 LIG 0.02  C 
ATOM      7  CD  PRO B   5      80.097 -19.698  51.103  1.00 11.21 LIG 0.13  C 
ENDROOT
BRANCH 1 8
ATOM      8  CA  LEU B   4      79.355 -22.236  52.380  1.00 11.65 LIG 0.18  C 
BRANCH 8 9
ATOM      9  N   LEU B   4      78.651 -23.292  53.071  1.00 12.22 LIG-0.35  N 
ATOM     10  C   PRO B   3      78.170 -24.316  52.385  1.00 12.52 LIG 0.24  C 
ATOM     11 O    PRO B   3      78.195 -24.368  51.152  1.00 13.02 LIG-0.27  OA
ATOM     12 H    LEU B   4      78.581 -23.192  53.922  1.00 12.22 LIG 0.16  HD
BRANCH 10 13
ATOM     13  CA  PRO B   3      77.565 -25.439  53.212  1.00 15.46 LIG 0.18  C 
ATOM     14  N   PRO B   3      78.306 -25.598  54.466  1.00 15.16 LIG-0.34  N 
ATOM     15  CD  PRO B   3      77.480 -25.279  55.640  1.00 18.06 LIG 0.13  C 
ATOM     16  C   PRO B   2      79.599 -25.899  54.428  1.00 13.99 LIG 0.24  C 
ATOM     17  CG  PRO B   3      76.330 -24.541  55.047  1.00 19.92 LIG 0.02  C 
ATOM     18  CB  PRO B   3      76.147 -25.096  53.679  1.00 18.17 LIG 0.04  C 
ATOM     19 O    PRO B   2      80.170 -26.133  53.355  1.00 12.71 LIG-0.27  OA
BRANCH 16 20
ATOM     20  CA  PRO B   2      80.373 -25.890  55.732  1.00 15.85 LIG 0.18  C 
ATOM     21  CB  PRO B   2      80.143 -27.204  56.497  1.00 19.12 LIG 0.04  C 
ATOM     22  CG  PRO B   2      79.808 -26.840  57.884  1.00 19.63 LIG 0.02  C 
ATOM     23  CD  PRO B   2      79.222 -25.481  57.826  1.00 18.19 LIG 0.13  C 
ATOM     24  N   PRO B   2      79.850 -24.881  56.636  1.00 15.71 LIG-0.34  N 
ATOM     25  C   ALA B   1      79.942 -23.594  56.325  1.00 13.25 LIG 0.24  C 
ATOM     26 O    ALA B   1      80.416 -23.205  55.259  1.00 13.75 LIG-0.27  OA
BRANCH 25 27
ATOM     27  CA  ALA B   1      79.393 -22.607  57.341  1.00 12.47 LIG 0.17  C 
ATOM     28  CB  ALA B   1      77.887 -22.632  57.322  1.00 12.30 LIG 0.04  C 
BRANCH 27 29
ATOM     29  N   ALA B   1      79.878 -21.270  57.054  1.00 12.31 LIG-0.35  N 
ATOM     30 H    ALA B   1      80.282 -21.189  56.299  1.00 12.31 LIG 0.16  HD
ATOM     31  C   ACE B   0      79.695 -20.280  57.910  1.00 14.04 LIG 0.21  C 
ATOM     32  CH3 ACE B   0      80.230 -18.939  57.509  1.00 14.78 LIG 0.12  C 
ATOM     33 O    ACE B   0      79.121 -20.470  58.982  1.00 15.52 LIG-0.27  OA
ENDBRANCH 27 29
ENDBRANCH 25 27
ENDBRANCH 16 20
ENDBRANCH 10 13
ENDBRANCH 8 9
BRANCH 8 34
ATOM     34  CB  LEU B   4      80.475 -22.790  51.503  1.00 12.59 LIG 0.04  C 
BRANCH 34 35
ATOM     35  CG  LEU B   4      81.863 -22.761  52.140  1.00 12.74 LIG-0.02  C 
ATOM     36  CD1 LEU B   4      81.951 -21.607  53.121  1.00 14.33 LIG 0.01  C 
ATOM     37  CD2 LEU B   4      82.207 -24.071  52.836  1.00 11.50 LIG 0.01  C 
ENDBRANCH 34 35
ENDBRANCH 8 34
ENDBRANCH 1 8
BRANCH 4 38
ATOM     38  C   PRO B   5      77.717 -20.057  48.825  1.00 12.26 LIG 0.24  C 
ATOM     39  N   PRO B   6      76.504 -20.416  48.418  1.00 14.33 LIG-0.34  N 
ATOM     40  CD  PRO B   6      75.246 -20.381  49.178  1.00 16.43 LIG 0.13  C 
ATOM     41  CA  PRO B   6      76.307 -20.895  47.048  1.00 15.63 LIG 0.18  C 
ATOM     42  CG  PRO B   6      74.362 -21.306  48.409  1.00 18.90 LIG 0.02  C 
ATOM     43  CB  PRO B   6      74.820 -21.266  47.004  1.00 17.20 LIG 0.04  C 
ATOM     44 O    PRO B   5      78.699 -20.139  48.071  1.00 12.24 LIG-0.27  OA
BRANCH 41 45
ATOM     45  C   PRO B   6      76.616 -19.812  46.026  1.00 14.54 LIG 0.24  C 
ATOM     46 O    PRO B   6      77.455 -18.934  46.245  1.00 15.72 LIG-0.27  OA
ATOM     47  N   ARG B   7      75.909 -19.873  44.907  1.00 15.59 LIG-0.35  N 
ATOM     48 H    ARG B   7      75.332 -20.487  44.736  1.00 15.59 LIG 0.16  HD
BRANCH 47 49
ATOM     49  CA  ARG B   7      76.059 -18.875  43.850  1.00 17.66 LIG 0.16  C 
BRANCH 49 50
ATOM     50  C   ARG B   7      74.731 -18.242  43.447  1.00 19.45 LIG 0.22  C 
ATOM     51 O    ARG B   7      73.900 -18.885  42.814  1.00 22.19 LIG-0.29  OA
ENDBRANCH 49 50
BRANCH 49 52
ATOM     52  CB  ARG B   7      76.748 -19.505  42.643  1.00 18.48 LIG 0.04  C 
BRANCH 52 53
ATOM     53  CG  ARG B   7      77.749 -20.564  43.049  1.00 19.62 LIG 0.02  C 
BRANCH 53 54
ATOM     54  CD  ARG B   7      77.494 -21.886  42.368  1.00 19.05 LIG 0.14  C 
BRANCH 54 55
ATOM     55  NE  ARG B   7      76.324 -22.538  42.942  1.00 16.94 LIG-0.23  N 
ATOM     56  CZ  ARG B   7      76.317 -23.747  43.498  1.00 14.04 LIG 0.67  C 
ATOM     57  NH1 ARG B   7      77.417 -24.481  43.555  1.00 13.87 LIG-0.23  N 
ATOM     58  NH2 ARG B   7      75.190 -24.229  43.988  1.00 14.07 LIG-0.23  N 
ATOM     59 2HH1 ARG B   7      77.395 -25.261  43.918  1.00 13.87 LIG 0.17  HD
ATOM     60 1HH1 ARG B   7      78.153 -24.178  43.230  1.00 13.87 LIG 0.17  HD
ATOM     61 1HH2 ARG B   7      74.468 -23.763  43.947  1.00 14.07 LIG 0.17  HD
ATOM     62 2HH2 ARG B   7      75.176 -25.009  44.348  1.00 14.07 LIG 0.17  HD
ATOM     63 HE   ARG B   7      75.579 -22.107  42.921  1.00 16.94 LIG 0.18  HD
ENDBRANCH 54 55
ENDBRANCH 53 54
ENDBRANCH 52 53
ENDBRANCH 49 52
ENDBRANCH 47 49
ENDBRANCH 41 45
ENDBRANCH 4 38
TORSDOF 16
ENDMDL
MODEL 45
USER: ADFR SOLUTION from run 40
USER: SCORE 15.747303 LL:  -4.983 LR: -11.908 RR:   0.000 FEB:  -7.135
USER: RMSD 5.362830
USER: SEED 39
USER: STATUS no improvement in best in 21 clusters for 5 generations
USER: GENES 18
USER: genes 0 Translation |==|  0.41739 0.43019 0.50425
USER: genes 1 Rotation |==|  0.27331 0.44798 0.32196 0.90523
USER: genes 2 Torsion [N]-C--CA-[N] |==|  0.50560
USER: genes 3 Torsion [C]-CA--N-[C] |==|  0.17412
USER: genes 4 Torsion [N]-C--CA-[N] |==|  0.32878
USER: genes 5 Torsion [N]-C--CA-[N] |==|  0.43529
USER: genes 6 Torsion [N]-C--CA-[N] |==|  0.84871
USER: genes 7 Torsion [C]-CA--N-[C] |==|  0.83294
USER: genes 8 Torsion [C]-CA--CB-[CG] |==|  0.54561
USER: genes 9 Torsion [CA]-CB--CG-[CD1] |==|  0.50826
USER: genes 10 Torsion [N]-CA--C-[N] |==|  0.54212
USER: genes 11 Torsion [N]-CA--C-[N] |==|  0.87731
USER: genes 12 Torsion [C]-N--CA-[C] |==|  0.67595
USER: genes 13 Torsion [N]-CA--C-[O] |==|  0.11882
USER: genes 14 Torsion [N]-CA--CB-[CG] |==|  0.74171
USER: genes 15 Torsion [CA]-CB--CG-[CD] |==|  0.20593
USER: genes 16 Torsion [CB]-CG--CD-[NE] |==|  0.09057
USER: genes 17 Torsion [CG]-CD--NE-[HE] |==|  0.85482
ROOT
ATOM      1  C   LEU B   4      77.331 -20.931  50.419  1.00 11.33 LIG 0.24  C 
ATOM      2 O    LEU B   4      77.649 -22.100  50.682  1.00 12.90 LIG-0.27  OA
ATOM      3  N   PRO B   5      76.433 -20.654  49.492  1.00 11.12 LIG-0.34  N 
ATOM      4  CA  PRO B   5      75.770 -21.720  48.786  1.00 12.55 LIG 0.18  C 
ATOM      5  CB  PRO B   5      74.536 -21.021  48.201  1.00 13.89 LIG 0.04  C 
ATOM      6  CG  PRO B   5      74.986 -19.631  47.971  1.00 12.43 LIG 0.02  C 
ATOM      7  CD  PRO B   5      75.979 -19.328  49.050  1.00 11.21 LIG 0.13  C 
ENDROOT
BRANCH 1 8
ATOM      8  CA  LEU B   4      77.954 -19.767  51.178  1.00 11.65 LIG 0.18  C 
BRANCH 8 9
ATOM      9  N   LEU B   4      78.936 -20.280  52.105  1.00 12.22 LIG-0.35  N 
ATOM     10  C   PRO B   3      79.998 -20.921  51.644  1.00 12.52 LIG 0.24  C 
ATOM     11 O    PRO B   3      80.145 -21.204  50.452  1.00 13.02 LIG-0.27  OA
ATOM     12 H    LEU B   4      78.770 -20.135  52.936  1.00 12.22 LIG 0.16  HD
BRANCH 10 13
ATOM     13  CA  PRO B   3      81.040 -21.304  52.683  1.00 15.46 LIG 0.18  C 
ATOM     14  N   PRO B   3      81.190 -22.760  52.734  1.00 15.16 LIG-0.34  N 
ATOM     15  CD  PRO B   3      82.527 -23.194  52.304  1.00 18.06 LIG 0.13  C 
ATOM     16  C   PRO B   2      80.143 -23.515  53.049  1.00 13.99 LIG 0.24  C 
ATOM     17  CG  PRO B   3      83.061 -21.988  51.612  1.00 19.92 LIG 0.02  C 
ATOM     18  CB  PRO B   3      82.438 -20.817  52.286  1.00 18.17 LIG 0.04  C 
ATOM     19 O    PRO B   2      79.066 -23.006  53.384  1.00 12.71 LIG-0.27  OA
BRANCH 16 20
ATOM     20  CA  PRO B   2      80.286 -25.020  52.931  1.00 15.85 LIG 0.18  C 
ATOM     21  CB  PRO B   2      79.891 -25.483  51.519  1.00 19.12 LIG 0.04  C 
ATOM     22  CG  PRO B   2      78.965 -26.616  51.683  1.00 19.63 LIG 0.02  C 
ATOM     23  CD  PRO B   2      78.322 -26.438  53.005  1.00 18.19 LIG 0.13  C 
ATOM     24  N   PRO B   2      79.328 -25.699  53.786  1.00 15.71 LIG-0.34  N 
ATOM     25  C   ALA B   1      79.410 -25.579  55.105  1.00 13.25 LIG 0.24  C 
ATOM     26 O    ALA B   1      80.248 -24.865  55.653  1.00 13.75 LIG-0.27  OA
BRANCH 25 27
ATOM     27  CA  ALA B   1      78.383 -26.345  55.922  1.00 12.47 LIG 0.17  C 
ATOM     28  CB  ALA B   1      78.617 -27.827  55.785  1.00 12.30 LIG 0.04  C 
BRANCH 27 29
ATOM     29  N   ALA B   1      77.041 -26.004  55.489  1.00 12.31 LIG-0.35  N 
ATOM     30 H    ALA B   1      76.579 -26.668  55.196  1.00 12.31 LIG 0.16  HD
ATOM     31  C   ACE B   0      76.599 -24.761  55.554  1.00 14.04 LIG 0.21  C 
ATOM     32  CH3 ACE B   0      75.195 -24.524  55.087  1.00 14.78 LIG 0.12  C 
ATOM     33 O    ACE B   0      77.321 -23.855  55.970  1.00 15.52 LIG-0.27  OA
ENDBRANCH 27 29
ENDBRANCH 25 27
ENDBRANCH 16 20
ENDBRANCH 10 13
ENDBRANCH 8 9
BRANCH 8 34
ATOM     34  CB  LEU B   4      78.574 -18.779  50.193  1.00 12.59 LIG 0.04  C 
BRANCH 34 35
ATOM     35  CG  LEU B   4      79.558 -17.788  50.811  1.00 12.74 LIG-0.02  C 
ATOM     36  CD1 LEU B   4      80.045 -16.821  49.749  1.00 14.33 LIG 0.01  C 
ATOM     37  CD2 LEU B   4      78.950 -17.022  51.980  1.00 11.50 LIG 0.01  C 
ENDBRANCH 34 35
ENDBRANCH 8 34
ENDBRANCH 1 8
BRANCH 4 38
ATOM     38  C   PRO B   5      76.667 -22.274  47.696  1.00 12.26 LIG 0.24  C 
ATOM     39  N   PRO B   6      76.106 -23.038  46.765  1.00 14.33 LIG-0.34  N 
ATOM     40  CD  PRO B   6      74.700 -23.455  46.663  1.00 16.43 LIG 0.13  C 
ATOM     41  CA  PRO B   6      76.915 -23.549  45.657  1.00 15.63 LIG 0.18  C 
ATOM     42  CG  PRO B   6      74.763 -24.629  45.744  1.00 18.90 LIG 0.02  C 
ATOM     43  CB  PRO B   6      75.934 -24.423  44.866  1.00 17.20 LIG 0.04  C 
ATOM     44 O    PRO B   5      77.877 -21.999  47.659  1.00 12.24 LIG-0.27  OA
BRANCH 41 45
ATOM     45  C   PRO B   6      77.445 -22.422  44.785  1.00 14.54 LIG 0.24  C 
ATOM     46 O    PRO B   6      78.618 -22.395  44.402  1.00 15.72 LIG-0.27  OA
ATOM     47  N   ARG B   7      76.567 -21.476  44.488  1.00 15.59 LIG-0.35  N 
ATOM     48 H    ARG B   7      75.743 -21.490  44.736  1.00 15.59 LIG 0.16  HD
BRANCH 47 49
ATOM     49  CA  ARG B   7      76.939 -20.304  43.697  1.00 17.66 LIG 0.16  C 
BRANCH 49 50
ATOM     50  C   ARG B   7      76.803 -19.001  44.479  1.00 19.45 LIG 0.22  C 
ATOM     51 O    ARG B   7      77.184 -18.929  45.642  1.00 22.19 LIG-0.29  OA
ENDBRANCH 49 50
BRANCH 49 52
ATOM     52  CB  ARG B   7      76.105 -20.261  42.420  1.00 18.48 LIG 0.04  C 
BRANCH 52 53
ATOM     53  CG  ARG B   7      76.803 -20.939  41.263  1.00 19.62 LIG 0.02  C 
BRANCH 53 54
ATOM     54  CD  ARG B   7      76.789 -22.444  41.386  1.00 19.05 LIG 0.14  C 
BRANCH 54 55
ATOM     55  NE  ARG B   7      75.569 -22.889  42.049  1.00 16.94 LIG-0.23  N 
ATOM     56  CZ  ARG B   7      74.737 -23.814  41.578  1.00 14.04 LIG 0.67  C 
ATOM     57  NH1 ARG B   7      74.959 -24.410  40.417  1.00 13.87 LIG-0.23  N 
ATOM     58  NH2 ARG B   7      73.662 -24.134  42.275  1.00 14.07 LIG-0.23  N 
ATOM     59 2HH1 ARG B   7      74.411 -25.006  40.127  1.00 13.87 LIG 0.17  HD
ATOM     60 1HH1 ARG B   7      75.652 -24.201  39.953  1.00 13.87 LIG 0.17  HD
ATOM     61 1HH2 ARG B   7      73.504 -23.745  43.026  1.00 14.07 LIG 0.17  HD
ATOM     62 2HH2 ARG B   7      73.119 -24.730  41.979  1.00 14.07 LIG 0.17  HD
ATOM     63 HE   ARG B   7      75.372 -22.524  42.803  1.00 16.94 LIG 0.18  HD
ENDBRANCH 54 55
ENDBRANCH 53 54
ENDBRANCH 52 53
ENDBRANCH 49 52
ENDBRANCH 47 49
ENDBRANCH 41 45
ENDBRANCH 4 38
TORSDOF 16
ENDMDL
MODEL 46
USER: ADFR SOLUTION from run 149
USER: SCORE 15.919508 LL:  -4.475 LR: -11.913 RR:   0.000 FEB:  -7.140
USER: RMSD 4.399137
USER: SEED 148
USER: STATUS no improvement in best in 25 clusters for 5 generations
USER: GENES 18
USER: genes 0 Translation |==|  0.48111 0.37578 0.51020
USER: genes 1 Rotation |==|  0.44205 0.65247 0.17156 0.83989
USER: genes 2 Torsion [N]-C--CA-[N] |==|  0.37539
USER: genes 3 Torsion [C]-CA--N-[C] |==|  0.60950
USER: genes 4 Torsion [N]-C--CA-[N] |==|  0.61479
USER: genes 5 Torsion [N]-C--CA-[N] |==|  0.38702
USER: genes 6 Torsion [N]-C--CA-[N] |==|  0.32555
USER: genes 7 Torsion [C]-CA--N-[C] |==|  0.80158
USER: genes 8 Torsion [C]-CA--CB-[CG] |==|  0.11309
USER: genes 9 Torsion [CA]-CB--CG-[CD1] |==|  0.36684
USER: genes 10 Torsion [N]-CA--C-[N] |==|  0.29847
USER: genes 11 Torsion [N]-CA--C-[N] |==|  0.66920
USER: genes 12 Torsion [C]-N--CA-[C] |==|  0.48353
USER: genes 13 Torsion [N]-CA--C-[O] |==|  0.35950
USER: genes 14 Torsion [N]-CA--CB-[CG] |==|  0.62931
USER: genes 15 Torsion [CA]-CB--CG-[CD] |==|  0.78796
USER: genes 16 Torsion [CB]-CG--CD-[NE] |==|  0.29842
USER: genes 17 Torsion [CG]-CD--NE-[HE] |==|  0.11106
ROOT
ATOM      1  C   LEU B   4      78.287 -22.237  50.579  1.00 11.33 LIG 0.24  C 
ATOM      2 O    LEU B   4      77.529 -22.985  49.945  1.00 12.90 LIG-0.27  OA
ATOM      3  N   PRO B   5      78.183 -20.924  50.501  1.00 11.12 LIG-0.34  N 
ATOM      4  CA  PRO B   5      77.147 -20.328  49.697  1.00 12.55 LIG 0.18  C 
ATOM      5  CB  PRO B   5      77.076 -18.897  50.244  1.00 13.89 LIG 0.04  C 
ATOM      6  CG  PRO B   5      78.458 -18.613  50.689  1.00 12.43 LIG 0.02  C 
ATOM      7  CD  PRO B   5      79.021 -19.915  51.164  1.00 11.21 LIG 0.13  C 
ENDROOT
BRANCH 1 8
ATOM      8  CA  LEU B   4      79.359 -22.813  51.496  1.00 11.65 LIG 0.18  C 
BRANCH 8 9
ATOM      9  N   LEU B   4      78.789 -23.894  52.267  1.00 12.22 LIG-0.35  N 
ATOM     10  C   PRO B   3      79.122 -24.035  53.540  1.00 12.52 LIG 0.24  C 
ATOM     11 O    PRO B   3      79.989 -23.348  54.087  1.00 13.02 LIG-0.27  OA
ATOM     12 H    LEU B   4      78.244 -24.404  51.841  1.00 12.22 LIG 0.16  HD
BRANCH 10 13
ATOM     13  CA  PRO B   3      78.370 -25.114  54.303  1.00 15.46 LIG 0.18  C 
ATOM     14  N   PRO B   3      78.020 -24.635  55.642  1.00 15.16 LIG-0.34  N 
ATOM     15  CD  PRO B   3      76.566 -24.523  55.827  1.00 18.06 LIG 0.13  C 
ATOM     16  C   PRO B   2      78.986 -24.275  56.481  1.00 13.99 LIG 0.24  C 
ATOM     17  CG  PRO B   3      76.049 -24.571  54.431  1.00 19.92 LIG 0.02  C 
ATOM     18  CB  PRO B   3      77.009 -25.411  53.666  1.00 18.17 LIG 0.04  C 
ATOM     19 O    PRO B   2      80.178 -24.418  56.183  1.00 12.71 LIG-0.27  OA
BRANCH 16 20
ATOM     20  CA  PRO B   2      78.587 -23.628  57.793  1.00 15.85 LIG 0.18  C 
ATOM     21  CB  PRO B   2      78.904 -22.123  57.764  1.00 19.12 LIG 0.04  C 
ATOM     22  CG  PRO B   2      79.622 -21.813  59.012  1.00 19.63 LIG 0.02  C 
ATOM     23  CD  PRO B   2      80.278 -23.070  59.437  1.00 18.19 LIG 0.13  C 
ATOM     24  N   PRO B   2      79.409 -24.122  58.883  1.00 15.71 LIG-0.34  N 
ATOM     25  C   ALA B   1      79.341 -25.397  59.245  1.00 13.25 LIG 0.24  C 
ATOM     26 O    ALA B   1      78.636 -26.215  58.656  1.00 13.75 LIG-0.27  OA
BRANCH 25 27
ATOM     27  CA  ALA B   1      80.216 -25.821  60.412  1.00 12.47 LIG 0.17  C 
ATOM     28  CB  ALA B   1      81.162 -26.911  59.979  1.00 12.30 LIG 0.04  C 
BRANCH 27 29
ATOM     29  N   ALA B   1      79.393 -26.278  61.516  1.00 12.31 LIG-0.35  N 
ATOM     30 H    ALA B   1      79.418 -27.127  61.655  1.00 12.31 LIG 0.16  HD
ATOM     31  C   ACE B   0      78.676 -25.428  62.230  1.00 14.04 LIG 0.21  C 
ATOM     32  CH3 ACE B   0      77.869 -26.007  63.351  1.00 14.78 LIG 0.12  C 
ATOM     33 O    ACE B   0      78.676 -24.225  61.966  1.00 15.52 LIG-0.27  OA
ENDBRANCH 27 29
ENDBRANCH 25 27
ENDBRANCH 16 20
ENDBRANCH 10 13
ENDBRANCH 8 9
BRANCH 8 34
ATOM     34  CB  LEU B   4      80.550 -23.285  50.665  1.00 12.59 LIG 0.04  C 
BRANCH 34 35
ATOM     35  CG  LEU B   4      80.936 -22.359  49.514  1.00 12.74 LIG-0.02  C 
ATOM     36  CD1 LEU B   4      82.434 -22.117  49.532  1.00 14.33 LIG 0.01  C 
ATOM     37  CD2 LEU B   4      80.510 -22.912  48.159  1.00 11.50 LIG 0.01  C 
ENDBRANCH 34 35
ENDBRANCH 8 34
ENDBRANCH 1 8
BRANCH 4 38
ATOM     38  C   PRO B   5      77.537 -20.345  48.231  1.00 12.26 LIG 0.24  C 
ATOM     39  N   PRO B   6      76.904 -21.199  47.435  1.00 14.33 LIG-0.34  N 
ATOM     40  CD  PRO B   6      75.870 -22.178  47.798  1.00 16.43 LIG 0.13  C 
ATOM     41  CA  PRO B   6      77.200 -21.216  46.001  1.00 15.63 LIG 0.18  C 
ATOM     42  CG  PRO B   6      75.888 -23.130  46.648  1.00 18.90 LIG 0.02  C 
ATOM     43  CB  PRO B   6      76.335 -22.363  45.466  1.00 17.20 LIG 0.04  C 
ATOM     44 O    PRO B   5      78.397 -19.567  47.787  1.00 12.24 LIG-0.27  OA
BRANCH 41 45
ATOM     45  C   PRO B   6      76.814 -19.904  45.335  1.00 14.54 LIG 0.24  C 
ATOM     46 O    PRO B   6      77.313 -18.830  45.680  1.00 15.72 LIG-0.27  OA
ATOM     47  N   ARG B   7      75.899 -20.002  44.382  1.00 15.59 LIG-0.35  N 
ATOM     48 H    ARG B   7      75.554 -20.745  44.122  1.00 15.59 LIG 0.16  HD
BRANCH 47 49
ATOM     49  CA  ARG B   7      75.392 -18.823  43.681  1.00 17.66 LIG 0.16  C 
BRANCH 49 50
ATOM     50  C   ARG B   7      74.456 -19.182  42.531  1.00 19.45 LIG 0.22  C 
ATOM     51 O    ARG B   7      73.357 -18.648  42.433  1.00 22.19 LIG-0.29  OA
ENDBRANCH 49 50
BRANCH 49 52
ATOM     52  CB  ARG B   7      76.561 -17.977  43.187  1.00 18.48 LIG 0.04  C 
BRANCH 52 53
ATOM     53  CG  ARG B   7      76.371 -16.509  43.499  1.00 19.62 LIG 0.02  C 
BRANCH 53 54
ATOM     54  CD  ARG B   7      75.381 -15.848  42.571  1.00 19.05 LIG 0.14  C 
BRANCH 54 55
ATOM     55  NE  ARG B   7      74.134 -15.568  43.271  1.00 16.94 LIG-0.23  N 
ATOM     56  CZ  ARG B   7      72.917 -15.720  42.755  1.00 14.04 LIG 0.67  C 
ATOM     57  NH1 ARG B   7      72.747 -16.137  41.510  1.00 13.87 LIG-0.23  N 
ATOM     58  NH2 ARG B   7      71.860 -15.435  43.493  1.00 14.07 LIG-0.23  N 
ATOM     59 2HH1 ARG B   7      71.953 -16.230  41.192  1.00 13.87 LIG 0.17  HD
ATOM     60 1HH1 ARG B   7      73.430 -16.317  41.020  1.00 13.87 LIG 0.17  HD
ATOM     61 1HH2 ARG B   7      71.961 -15.154  44.300  1.00 14.07 LIG 0.17  HD
ATOM     62 2HH2 ARG B   7      71.070 -15.530  43.168  1.00 14.07 LIG 0.17  HD
ATOM     63 HE   ARG B   7      74.190 -15.283  44.081  1.00 16.94 LIG 0.18  HD
ENDBRANCH 54 55
ENDBRANCH 53 54
ENDBRANCH 52 53
ENDBRANCH 49 52
ENDBRANCH 47 49
ENDBRANCH 41 45
ENDBRANCH 4 38
TORSDOF 16
ENDMDL
MODEL 47
USER: ADFR SOLUTION from run 20
USER: SCORE 16.043231 LL:  -4.783 LR: -11.898 RR:   0.000 FEB:  -7.125
USER: RMSD 4.523490
USER: SEED 19
USER: STATUS no improvement in best in 3 clusters for 5 generations
USER: GENES 18
USER: genes 0 Translation |==|  0.63585 0.53648 0.51479
USER: genes 1 Rotation |==|  0.67156 0.30802 0.63050 0.90827
USER: genes 2 Torsion [N]-C--CA-[N] |==|  0.24463
USER: genes 3 Torsion [C]-CA--N-[C] |==|  0.63066
USER: genes 4 Torsion [N]-C--CA-[N] |==|  0.40078
USER: genes 5 Torsion [N]-C--CA-[N] |==|  0.49828
USER: genes 6 Torsion [N]-C--CA-[N] |==|  0.86112
USER: genes 7 Torsion [C]-CA--N-[C] |==|  0.81111
USER: genes 8 Torsion [C]-CA--CB-[CG] |==|  0.25750
USER: genes 9 Torsion [CA]-CB--CG-[CD1] |==|  0.10183
USER: genes 10 Torsion [N]-CA--C-[N] |==|  0.44908
USER: genes 11 Torsion [N]-CA--C-[N] |==|  0.96788
USER: genes 12 Torsion [C]-N--CA-[C] |==|  0.21551
USER: genes 13 Torsion [N]-CA--C-[O] |==|  0.01759
USER: genes 14 Torsion [N]-CA--CB-[CG] |==|  0.36666
USER: genes 15 Torsion [CA]-CB--CG-[CD] |==|  0.33940
USER: genes 16 Torsion [CB]-CG--CD-[NE] |==|  0.55309
USER: genes 17 Torsion [CG]-CD--NE-[HE] |==|  0.26101
ROOT
ATOM      1  C   LEU B   4      80.608 -18.380  50.703  1.00 11.33 LIG 0.24  C 
ATOM      2 O    LEU B   4      81.711 -17.883  50.971  1.00 12.90 LIG-0.27  OA
ATOM      3  N   PRO B   5      80.028 -18.183  49.534  1.00 11.12 LIG-0.34  N 
ATOM      4  CA  PRO B   5      80.694 -17.407  48.519  1.00 12.55 LIG 0.18  C 
ATOM      5  CB  PRO B   5      79.954 -17.817  47.241  1.00 13.89 LIG 0.04  C 
ATOM      6  CG  PRO B   5      78.582 -18.123  47.702  1.00 12.43 LIG 0.02  C 
ATOM      7  CD  PRO B   5      78.719 -18.677  49.086  1.00 11.21 LIG 0.13  C 
ENDROOT
BRANCH 1 8
ATOM      8  CA  LEU B   4      79.887 -19.262  51.715  1.00 11.65 LIG 0.18  C 
BRANCH 8 9
ATOM      9  N   LEU B   4      80.269 -20.639  51.496  1.00 12.22 LIG-0.35  N 
ATOM     10  C   PRO B   3      79.336 -21.577  51.451  1.00 12.52 LIG 0.24  C 
ATOM     11 O    PRO B   3      78.148 -21.353  51.697  1.00 13.02 LIG-0.27  OA
ATOM     12 H    LEU B   4      81.112 -20.778  51.403  1.00 12.22 LIG 0.16  HD
BRANCH 10 13
ATOM     13  CA  PRO B   3      79.819 -22.970  51.082  1.00 15.46 LIG 0.18  C 
ATOM     14  N   PRO B   3      79.061 -23.980  51.824  1.00 15.16 LIG-0.34  N 
ATOM     15  CD  PRO B   3      78.249 -24.825  50.936  1.00 18.06 LIG 0.13  C 
ATOM     16  C   PRO B   2      79.095 -23.979  53.152  1.00 13.99 LIG 0.24  C 
ATOM     17  CG  PRO B   3      78.228 -24.048  49.665  1.00 19.92 LIG 0.02  C 
ATOM     18  CB  PRO B   3      79.515 -23.304  49.618  1.00 18.17 LIG 0.04  C 
ATOM     19 O    PRO B   2      79.825 -23.195  53.772  1.00 12.71 LIG-0.27  OA
BRANCH 16 20
ATOM     20  CA  PRO B   2      78.170 -24.927  53.891  1.00 15.85 LIG 0.18  C 
ATOM     21  CB  PRO B   2      76.704 -24.516  53.679  1.00 19.12 LIG 0.04  C 
ATOM     22  CG  PRO B   2      76.068 -24.498  55.006  1.00 19.63 LIG 0.02  C 
ATOM     23  CD  PRO B   2      77.152 -24.249  55.983  1.00 18.19 LIG 0.13  C 
ATOM     24  N   PRO B   2      78.347 -24.806  55.327  1.00 15.71 LIG-0.34  N 
ATOM     25  C   ALA B   1      79.499 -25.150  55.889  1.00 13.25 LIG 0.24  C 
ATOM     26 O    ALA B   1      80.467 -25.530  55.232  1.00 13.75 LIG-0.27  OA
BRANCH 25 27
ATOM     27  CA  ALA B   1      79.587 -25.016  57.400  1.00 12.47 LIG 0.17  C 
ATOM     28  CB  ALA B   1      78.758 -26.086  58.061  1.00 12.30 LIG 0.04  C 
BRANCH 27 29
ATOM     29  N   ALA B   1      79.135 -23.701  57.814  1.00 12.31 LIG-0.35  N 
ATOM     30 H    ALA B   1      78.398 -23.698  58.258  1.00 12.31 LIG 0.16  HD
ATOM     31  C   ACE B   0      79.828 -22.616  57.515  1.00 14.04 LIG 0.21  C 
ATOM     32  CH3 ACE B   0      79.273 -21.311  57.999  1.00 14.78 LIG 0.12  C 
ATOM     33 O    ACE B   0      80.869 -22.692  56.863  1.00 15.52 LIG-0.27  OA
ENDBRANCH 27 29
ENDBRANCH 25 27
ENDBRANCH 16 20
ENDBRANCH 10 13
ENDBRANCH 8 9
BRANCH 8 34
ATOM     34  CB  LEU B   4      80.224 -18.806  53.132  1.00 12.59 LIG 0.04  C 
BRANCH 34 35
ATOM     35  CG  LEU B   4      79.245 -17.800  53.732  1.00 12.74 LIG-0.02  C 
ATOM     36  CD1 LEU B   4      77.834 -18.131  53.287  1.00 14.33 LIG 0.01  C 
ATOM     37  CD2 LEU B   4      79.320 -17.756  55.254  1.00 11.50 LIG 0.01  C 
ENDBRANCH 34 35
ENDBRANCH 8 34
ENDBRANCH 1 8
BRANCH 4 38
ATOM     38  C   PRO B   5      80.543 -15.924  48.801  1.00 12.26 LIG 0.24  C 
ATOM     39  N   PRO B   6      81.386 -15.094  48.197  1.00 14.33 LIG-0.34  N 
ATOM     40  CD  PRO B   6      82.495 -15.429  47.293  1.00 16.43 LIG 0.13  C 
ATOM     41  CA  PRO B   6      81.246 -13.648  48.387  1.00 15.63 LIG 0.18  C 
ATOM     42  CG  PRO B   6      83.336 -14.196  47.319  1.00 18.90 LIG 0.02  C 
ATOM     43  CB  PRO B   6      82.427 -13.064  47.601  1.00 17.20 LIG 0.04  C 
ATOM     44 O    PRO B   5      79.645 -15.501  49.545  1.00 12.24 LIG-0.27  OA
BRANCH 41 45
ATOM     45  C   PRO B   6      79.929 -13.135  47.827  1.00 14.54 LIG 0.24  C 
ATOM     46 O    PRO B   6      79.514 -12.002  48.080  1.00 15.72 LIG-0.27  OA
ATOM     47  N   ARG B   7      79.262 -13.996  47.072  1.00 15.59 LIG-0.35  N 
ATOM     48 H    ARG B   7      79.547 -14.784  46.875  1.00 15.59 LIG 0.16  HD
BRANCH 47 49
ATOM     49  CA  ARG B   7      77.959 -13.666  46.499  1.00 17.66 LIG 0.16  C 
BRANCH 49 50
ATOM     50  C   ARG B   7      78.067 -12.757  45.279  1.00 19.45 LIG 0.22  C 
ATOM     51 O    ARG B   7      79.163 -12.475  44.807  1.00 22.19 LIG-0.29  OA
ENDBRANCH 49 50
BRANCH 49 52
ATOM     52  CB  ARG B   7      77.072 -13.036  47.569  1.00 18.48 LIG 0.04  C 
BRANCH 52 53
ATOM     53  CG  ARG B   7      76.403 -11.771  47.079  1.00 19.62 LIG 0.02  C 
BRANCH 53 54
ATOM     54  CD  ARG B   7      74.898 -11.847  47.167  1.00 19.05 LIG 0.14  C 
BRANCH 54 55
ATOM     55  NE  ARG B   7      74.286 -10.848  46.300  1.00 16.94 LIG-0.23  N 
ATOM     56  CZ  ARG B   7      74.045  -9.584  46.641  1.00 14.04 LIG 0.67  C 
ATOM     57  NH1 ARG B   7      74.342  -9.131  47.849  1.00 13.87 LIG-0.23  N 
ATOM     58  NH2 ARG B   7      73.486  -8.771  45.763  1.00 14.07 LIG-0.23  N 
ATOM     59 2HH1 ARG B   7      74.179  -8.311  48.053  1.00 13.87 LIG 0.17  HD
ATOM     60 1HH1 ARG B   7      74.698  -9.656  48.429  1.00 13.87 LIG 0.17  HD
ATOM     61 1HH2 ARG B   7      73.281  -9.060  44.979  1.00 14.07 LIG 0.17  HD
ATOM     62 2HH2 ARG B   7      73.327  -7.954  45.975  1.00 14.07 LIG 0.17  HD
ATOM     63 HE   ARG B   7      74.064 -11.094  45.506  1.00 16.94 LIG 0.18  HD
ENDBRANCH 54 55
ENDBRANCH 53 54
ENDBRANCH 52 53
ENDBRANCH 49 52
ENDBRANCH 47 49
ENDBRANCH 41 45
ENDBRANCH 4 38
TORSDOF 16
ENDMDL
MODEL 48
USER: ADFR SOLUTION from run 86
USER: SCORE 15.554964 LL:  -4.253 LR: -11.848 RR:   0.000 FEB:  -7.075
USER: RMSD 12.917888
USER: SEED 85
USER: STATUS no improvement in best in 5 clusters for 5 generations
USER: GENES 18
USER: genes 0 Translation |==|  0.53423 0.48074 0.46217
USER: genes 1 Rotation |==|  0.11601 0.69873 0.74463 0.55663
USER: genes 2 Torsion [N]-C--CA-[N] |==|  0.43592
USER: genes 3 Torsion [C]-CA--N-[C] |==|  0.78668
USER: genes 4 Torsion [N]-C--CA-[N] |==|  0.32137
USER: genes 5 Torsion [N]-C--CA-[N] |==|  0.50578
USER: genes 6 Torsion [N]-C--CA-[N] |==|  0.13685
USER: genes 7 Torsion [C]-CA--N-[C] |==|  0.58341
USER: genes 8 Torsion [C]-CA--CB-[CG] |==|  0.48554
USER: genes 9 Torsion [CA]-CB--CG-[CD1] |==|  0.22833
USER: genes 10 Torsion [N]-CA--C-[N] |==|  0.49999
USER: genes 11 Torsion [N]-CA--C-[N] |==|  0.70536
USER: genes 12 Torsion [C]-N--CA-[C] |==|  0.51127
USER: genes 13 Torsion [N]-CA--C-[O] |==|  0.31969
USER: genes 14 Torsion [N]-CA--CB-[CG] |==|  0.67957
USER: genes 15 Torsion [CA]-CB--CG-[CD] |==|  0.40336
USER: genes 16 Torsion [CB]-CG--CD-[NE] |==|  0.42432
USER: genes 17 Torsion [CG]-CD--NE-[HE] |==|  0.28957
ROOT
ATOM      1  C   LEU B   4      79.083 -19.718  49.283  1.00 11.33 LIG 0.24  C 
ATOM      2 O    LEU B   4      80.021 -20.369  48.800  1.00 12.90 LIG-0.27  OA
ATOM      3  N   PRO B   5      79.046 -19.414  50.566  1.00 11.12 LIG-0.34  N 
ATOM      4  CA  PRO B   5      80.127 -19.804  51.434  1.00 12.55 LIG 0.18  C 
ATOM      5  CB  PRO B   5      79.936 -18.885  52.646  1.00 13.89 LIG 0.04  C 
ATOM      6  CG  PRO B   5      78.475 -18.663  52.702  1.00 12.43 LIG 0.02  C 
ATOM      7  CD  PRO B   5      77.994 -18.681  51.285  1.00 11.21 LIG 0.13  C 
ENDROOT
BRANCH 1 8
ATOM      8  CA  LEU B   4      77.944 -19.224  48.400  1.00 11.65 LIG 0.18  C 
BRANCH 8 9
ATOM      9  N   LEU B   4      78.401 -19.164  47.030  1.00 12.22 LIG-0.35  N 
ATOM     10  C   PRO B   3      79.180 -18.166  46.644  1.00 12.52 LIG 0.24  C 
ATOM     11 O    PRO B   3      79.455 -17.210  47.374  1.00 13.02 LIG-0.27  OA
ATOM     12 H    LEU B   4      78.132 -19.804  46.523  1.00 12.22 LIG 0.16  HD
BRANCH 10 13
ATOM     13  CA  PRO B   3      79.719 -18.261  45.226  1.00 15.46 LIG 0.18  C 
ATOM     14  N   PRO B   3      79.193 -17.163  44.412  1.00 15.16 LIG-0.34  N 
ATOM     15  CD  PRO B   3      80.254 -16.246  43.969  1.00 18.06 LIG 0.13  C 
ATOM     16  C   PRO B   2      77.881 -17.045  44.241  1.00 13.99 LIG 0.24  C 
ATOM     17  CG  PRO B   3      81.391 -16.597  44.865  1.00 19.92 LIG 0.02  C 
ATOM     18  CB  PRO B   3      81.234 -18.041  45.182  1.00 18.17 LIG 0.04  C 
ATOM     19 O    PRO B   2      77.099 -17.896  44.684  1.00 12.71 LIG-0.27  OA
BRANCH 16 20
ATOM     20  CA  PRO B   2      77.361 -15.807  43.536  1.00 15.85 LIG 0.18  C 
ATOM     21  CB  PRO B   2      77.673 -14.551  44.366  1.00 19.12 LIG 0.04  C 
ATOM     22  CG  PRO B   2      76.426 -13.773  44.450  1.00 19.63 LIG 0.02  C 
ATOM     23  CD  PRO B   2      75.319 -14.744  44.295  1.00 18.19 LIG 0.13  C 
ATOM     24  N   PRO B   2      75.910 -15.818  43.477  1.00 15.71 LIG-0.34  N 
ATOM     25  C   ALA B   1      75.277 -16.747  42.772  1.00 13.25 LIG 0.24  C 
ATOM     26 O    ALA B   1      75.871 -17.653  42.190  1.00 13.75 LIG-0.27  OA
BRANCH 25 27
ATOM     27  CA  ALA B   1      73.760 -16.665  42.745  1.00 12.47 LIG 0.17  C 
ATOM     28  CB  ALA B   1      73.209 -17.643  41.741  1.00 12.30 LIG 0.04  C 
BRANCH 27 29
ATOM     29  N   ALA B   1      73.335 -15.317  42.420  1.00 12.31 LIG-0.35  N 
ATOM     30 H    ALA B   1      73.879 -14.880  41.917  1.00 12.31 LIG 0.16  HD
ATOM     31  C   ACE B   0      72.196 -14.831  42.881  1.00 14.04 LIG 0.21  C 
ATOM     32  CH3 ACE B   0      71.853 -13.429  42.477  1.00 14.78 LIG 0.12  C 
ATOM     33 O    ACE B   0      71.471 -15.506  43.612  1.00 15.52 LIG-0.27  OA
ENDBRANCH 27 29
ENDBRANCH 25 27
ENDBRANCH 16 20
ENDBRANCH 10 13
ENDBRANCH 8 9
BRANCH 8 34
ATOM     34  CB  LEU B   4      76.737 -20.147  48.548  1.00 12.59 LIG 0.04  C 
BRANCH 34 35
ATOM     35  CG  LEU B   4      75.483 -19.688  47.807  1.00 12.74 LIG-0.02  C 
ATOM     36  CD1 LEU B   4      75.571 -20.101  46.350  1.00 14.33 LIG 0.01  C 
ATOM     37  CD2 LEU B   4      74.207 -20.237  48.434  1.00 11.50 LIG 0.01  C 
ENDBRANCH 34 35
ENDBRANCH 8 34
ENDBRANCH 1 8
BRANCH 4 38
ATOM     38  C   PRO B   5      79.999 -21.266  51.817  1.00 12.26 LIG 0.24  C 
ATOM     39  N   PRO B   6      80.928 -21.777  52.618  1.00 14.33 LIG-0.34  N 
ATOM     40  CD  PRO B   6      82.112 -21.106  53.174  1.00 16.43 LIG 0.13  C 
ATOM     41  CA  PRO B   6      80.820 -23.166  53.067  1.00 15.63 LIG 0.18  C 
ATOM     42  CG  PRO B   6      82.987 -22.246  53.576  1.00 18.90 LIG 0.02  C 
ATOM     43  CB  PRO B   6      82.094 -23.381  53.893  1.00 17.20 LIG 0.04  C 
ATOM     44 O    PRO B   5      79.045 -21.952  51.420  1.00 12.24 LIG-0.27  OA
BRANCH 41 45
ATOM     45  C   PRO B   6      79.585 -23.381  53.928  1.00 14.54 LIG 0.24  C 
ATOM     46 O    PRO B   6      78.451 -23.401  53.443  1.00 15.72 LIG-0.27  OA
ATOM     47  N   ARG B   7      79.819 -23.525  55.224  1.00 15.59 LIG-0.35  N 
ATOM     48 H    ARG B   7      80.605 -23.528  55.574  1.00 15.59 LIG 0.16  HD
BRANCH 47 49
ATOM     49  CA  ARG B   7      78.731 -23.694  56.186  1.00 17.66 LIG 0.16  C 
BRANCH 49 50
ATOM     50  C   ARG B   7      79.225 -23.741  57.628  1.00 19.45 LIG 0.22  C 
ATOM     51 O    ARG B   7      78.914 -22.861  58.424  1.00 22.19 LIG-0.29  OA
ENDBRANCH 49 50
BRANCH 49 52
ATOM     52  CB  ARG B   7      77.932 -24.947  55.844  1.00 18.48 LIG 0.04  C 
BRANCH 52 53
ATOM     53  CG  ARG B   7      76.510 -24.623  55.442  1.00 19.62 LIG 0.02  C 
BRANCH 53 54
ATOM     54  CD  ARG B   7      75.989 -25.555  54.375  1.00 19.05 LIG 0.14  C 
BRANCH 54 55
ATOM     55  NE  ARG B   7      74.538 -25.667  54.462  1.00 16.94 LIG-0.23  N 
ATOM     56  CZ  ARG B   7      73.879 -26.372  55.377  1.00 14.04 LIG 0.67  C 
ATOM     57  NH1 ARG B   7      74.522 -27.065  56.304  1.00 13.87 LIG-0.23  N 
ATOM     58  NH2 ARG B   7      72.559 -26.393  55.353  1.00 14.07 LIG-0.23  N 
ATOM     59 2HH1 ARG B   7      74.081 -27.516  56.889  1.00 13.87 LIG 0.17  HD
ATOM     60 1HH1 ARG B   7      75.382 -27.063  56.322  1.00 13.87 LIG 0.17  HD
ATOM     61 1HH2 ARG B   7      72.132 -25.954  54.748  1.00 14.07 LIG 0.17  HD
ATOM     62 2HH2 ARG B   7      72.125 -26.846  55.940  1.00 14.07 LIG 0.17  HD
ATOM     63 HE   ARG B   7      74.072 -25.244  53.875  1.00 16.94 LIG 0.18  HD
ENDBRANCH 54 55
ENDBRANCH 53 54
ENDBRANCH 52 53
ENDBRANCH 49 52
ENDBRANCH 47 49
ENDBRANCH 41 45
ENDBRANCH 4 38
TORSDOF 16
ENDMDL
MODEL 49
USER: ADFR SOLUTION from run 134
USER: SCORE 16.035329 LL:  -4.926 LR: -11.846 RR:   0.000 FEB:  -7.074
USER: RMSD 5.819071
USER: SEED 133
USER: STATUS no improvement in best in 8 clusters for 5 generations
USER: GENES 18
USER: genes 0 Translation |==|  0.45653 0.47111 0.49967
USER: genes 1 Rotation |==|  0.26419 0.43149 0.06481 0.51754
USER: genes 2 Torsion [N]-C--CA-[N] |==|  0.83520
USER: genes 3 Torsion [C]-CA--N-[C] |==|  0.88555
USER: genes 4 Torsion [N]-C--CA-[N] |==|  0.39647
USER: genes 5 Torsion [N]-C--CA-[N] |==|  0.50521
USER: genes 6 Torsion [N]-C--CA-[N] |==|  0.37365
USER: genes 7 Torsion [C]-CA--N-[C] |==|  0.78333
USER: genes 8 Torsion [C]-CA--CB-[CG] |==|  0.31310
USER: genes 9 Torsion [CA]-CB--CG-[CD1] |==|  0.69857
USER: genes 10 Torsion [N]-CA--C-[N] |==|  0.36618
USER: genes 11 Torsion [N]-CA--C-[N] |==|  0.00209
USER: genes 12 Torsion [C]-N--CA-[C] |==|  0.80294
USER: genes 13 Torsion [N]-CA--C-[O] |==|  0.91426
USER: genes 14 Torsion [N]-CA--CB-[CG] |==|  0.60376
USER: genes 15 Torsion [CA]-CB--CG-[CD] |==|  0.98201
USER: genes 16 Torsion [CB]-CG--CD-[NE] |==|  0.22394
USER: genes 17 Torsion [CG]-CD--NE-[HE] |==|  0.85930
ROOT
ATOM      1  C   LEU B   4      77.918 -19.949  50.295  1.00 11.33 LIG 0.24  C 
ATOM      2 O    LEU B   4      76.734 -19.751  50.604  1.00 12.90 LIG-0.27  OA
ATOM      3  N   PRO B   5      78.266 -20.252  49.058  1.00 11.12 LIG-0.34  N 
ATOM      4  CA  PRO B   5      77.267 -20.321  48.023  1.00 12.55 LIG 0.18  C 
ATOM      5  CB  PRO B   5      78.102 -20.214  46.741  1.00 13.89 LIG 0.04  C 
ATOM      6  CG  PRO B   5      79.394 -20.839  47.100  1.00 12.43 LIG 0.02  C 
ATOM      7  CD  PRO B   5      79.614 -20.543  48.550  1.00 11.21 LIG 0.13  C 
ENDROOT
BRANCH 1 8
ATOM      8  CA  LEU B   4      79.023 -19.827  51.336  1.00 11.65 LIG 0.18  C 
BRANCH 8 9
ATOM      9  N   LEU B   4      79.732 -21.084  51.421  1.00 12.22 LIG-0.35  N 
ATOM     10  C   PRO B   3      79.054 -22.220  51.388  1.00 12.52 LIG 0.24  C 
ATOM     11 O    PRO B   3      77.821 -22.266  51.398  1.00 13.02 LIG-0.27  OA
ATOM     12 H    LEU B   4      80.586 -21.022  51.490  1.00 12.22 LIG 0.16  HD
BRANCH 10 13
ATOM     13  CA  PRO B   3      79.893 -23.488  51.346  1.00 15.46 LIG 0.18  C 
ATOM     14  N   PRO B   3      79.261 -24.537  52.149  1.00 15.16 LIG-0.34  N 
ATOM     15  CD  PRO B   3      78.826 -25.676  51.327  1.00 18.06 LIG 0.13  C 
ATOM     16  C   PRO B   2      79.062 -24.337  53.447  1.00 13.99 LIG 0.24  C 
ATOM     17  CG  PRO B   3      78.856 -25.119  49.946  1.00 19.92 LIG 0.02  C 
ATOM     18  CB  PRO B   3      79.932 -24.092  49.939  1.00 18.17 LIG 0.04  C 
ATOM     19 O    PRO B   2      79.478 -23.316  54.008  1.00 12.71 LIG-0.27  OA
BRANCH 16 20
ATOM     20  CA  PRO B   2      78.258 -25.370  54.213  1.00 15.85 LIG 0.18  C 
ATOM     21  CB  PRO B   2      76.812 -25.415  53.691  1.00 19.12 LIG 0.04  C 
ATOM     22  CG  PRO B   2      75.929 -25.357  54.868  1.00 19.63 LIG 0.02  C 
ATOM     23  CD  PRO B   2      76.697 -24.667  55.929  1.00 18.19 LIG 0.13  C 
ATOM     24  N   PRO B   2      78.100 -24.975  55.602  1.00 15.71 LIG-0.34  N 
ATOM     25  C   ALA B   1      79.159 -24.895  56.398  1.00 13.25 LIG 0.24  C 
ATOM     26 O    ALA B   1      80.303 -25.096  55.996  1.00 13.75 LIG-0.27  OA
BRANCH 25 27
ATOM     27  CA  ALA B   1      78.897 -24.500  57.841  1.00 12.47 LIG 0.17  C 
ATOM     28  CB  ALA B   1      79.286 -23.062  58.061  1.00 12.30 LIG 0.04  C 
BRANCH 27 29
ATOM     29  N   ALA B   1      79.637 -25.365  58.740  1.00 12.31 LIG-0.35  N 
ATOM     30 H    ALA B   1      80.353 -25.016  59.066  1.00 12.31 LIG 0.16  HD
ATOM     31  C   ACE B   0      79.215 -26.587  59.014  1.00 14.04 LIG 0.21  C 
ATOM     32  CH3 ACE B   0      80.053 -27.390  59.961  1.00 14.78 LIG 0.12  C 
ATOM     33 O    ACE B   0      78.187 -27.029  58.500  1.00 15.52 LIG-0.27  OA
ENDBRANCH 27 29
ENDBRANCH 25 27
ENDBRANCH 16 20
ENDBRANCH 10 13
ENDBRANCH 8 9
BRANCH 8 34
ATOM     34  CB  LEU B   4      79.960 -18.680  50.964  1.00 12.59 LIG 0.04  C 
BRANCH 34 35
ATOM     35  CG  LEU B   4      79.923 -17.488  51.918  1.00 12.74 LIG-0.02  C 
ATOM     36  CD1 LEU B   4      79.239 -16.314  51.244  1.00 14.33 LIG 0.01  C 
ATOM     37  CD2 LEU B   4      79.227 -17.819  53.232  1.00 11.50 LIG 0.01  C 
ENDBRANCH 34 35
ENDBRANCH 8 34
ENDBRANCH 1 8
BRANCH 4 38
ATOM     38  C   PRO B   5      76.519 -21.638  48.093  1.00 12.26 LIG 0.24  C 
ATOM     39  N   PRO B   6      75.192 -21.597  48.048  1.00 14.33 LIG-0.34  N 
ATOM     40  CD  PRO B   6      74.326 -20.412  47.967  1.00 16.43 LIG 0.13  C 
ATOM     41  CA  PRO B   6      74.423 -22.843  48.052  1.00 15.63 LIG 0.18  C 
ATOM     42  CG  PRO B   6      73.001 -20.933  48.414  1.00 18.90 LIG 0.02  C 
ATOM     43  CB  PRO B   6      72.965 -22.369  48.065  1.00 17.20 LIG 0.04  C 
ATOM     44 O    PRO B   5      77.127 -22.718  48.161  1.00 12.24 LIG-0.27  OA
BRANCH 41 45
ATOM     45  C   PRO B   6      74.701 -23.676  46.810  1.00 14.54 LIG 0.24  C 
ATOM     46 O    PRO B   6      74.153 -24.765  46.624  1.00 15.72 LIG-0.27  OA
ATOM     47  N   ARG B   7      75.579 -23.156  45.966  1.00 15.59 LIG-0.35  N 
ATOM     48 H    ARG B   7      75.957 -22.391  46.076  1.00 15.59 LIG 0.16  HD
BRANCH 47 49
ATOM     49  CA  ARG B   7      75.984 -23.859  44.750  1.00 17.66 LIG 0.16  C 
BRANCH 49 50
ATOM     50  C   ARG B   7      76.857 -25.076  45.039  1.00 19.45 LIG 0.22  C 
ATOM     51 O    ARG B   7      77.601 -25.091  46.013  1.00 22.19 LIG-0.29  OA
ENDBRANCH 49 50
BRANCH 49 52
ATOM     52  CB  ARG B   7      76.695 -22.891  43.809  1.00 18.48 LIG 0.04  C 
BRANCH 52 53
ATOM     53  CG  ARG B   7      76.357 -23.157  42.359  1.00 19.62 LIG 0.02  C 
BRANCH 53 54
ATOM     54  CD  ARG B   7      75.527 -24.406  42.183  1.00 19.05 LIG 0.14  C 
BRANCH 54 55
ATOM     55  NE  ARG B   7      74.125 -24.131  42.472  1.00 16.94 LIG-0.23  N 
ATOM     56  CZ  ARG B   7      73.105 -24.446  41.679  1.00 14.04 LIG 0.67  C 
ATOM     57  NH1 ARG B   7      73.300 -25.043  40.513  1.00 13.87 LIG-0.23  N 
ATOM     58  NH2 ARG B   7      71.875 -24.145  42.054  1.00 14.07 LIG-0.23  N 
ATOM     59 2HH1 ARG B   7      72.629 -25.239  40.012  1.00 13.87 LIG 0.17  HD
ATOM     60 1HH1 ARG B   7      74.099 -25.234  40.257  1.00 13.87 LIG 0.17  HD
ATOM     61 1HH2 ARG B   7      71.739 -23.749  42.805  1.00 14.07 LIG 0.17  HD
ATOM     62 2HH2 ARG B   7      71.210 -24.345  41.548  1.00 14.07 LIG 0.17  HD
ATOM     63 HE   ARG B   7      73.944 -23.734  43.213  1.00 16.94 LIG 0.18  HD
ENDBRANCH 54 55
ENDBRANCH 53 54
ENDBRANCH 52 53
ENDBRANCH 49 52
ENDBRANCH 47 49
ENDBRANCH 41 45
ENDBRANCH 4 38
TORSDOF 16
ENDMDL
MODEL 50
USER: ADFR SOLUTION from run 93
USER: SCORE 17.761528 LL:  -6.213 LR: -11.836 RR:   0.000 FEB:  -7.064
USER: RMSD 6.618966
USER: SEED 92
USER: STATUS no improvement in best in 11 clusters for 5 generations
USER: GENES 18
USER: genes 0 Translation |==|  0.54726 0.29777 0.59923
USER: genes 1 Rotation |==|  0.70505 0.23673 0.81461 0.69915
USER: genes 2 Torsion [N]-C--CA-[N] |==|  0.36116
USER: genes 3 Torsion [C]-CA--N-[C] |==|  0.78741
USER: genes 4 Torsion [N]-C--CA-[N] |==|  0.91852
USER: genes 5 Torsion [N]-C--CA-[N] |==|  0.46146
USER: genes 6 Torsion [N]-C--CA-[N] |==|  0.84623
USER: genes 7 Torsion [C]-CA--N-[C] |==|  0.81762
USER: genes 8 Torsion [C]-CA--CB-[CG] |==|  0.79742
USER: genes 9 Torsion [CA]-CB--CG-[CD1] |==|  0.38574
USER: genes 10 Torsion [N]-CA--C-[N] |==|  0.44027
USER: genes 11 Torsion [N]-CA--C-[N] |==|  0.28284
USER: genes 12 Torsion [C]-N--CA-[C] |==|  0.63057
USER: genes 13 Torsion [N]-CA--C-[O] |==|  0.83626
USER: genes 14 Torsion [N]-CA--CB-[CG] |==|  0.73469
USER: genes 15 Torsion [CA]-CB--CG-[CD] |==|  0.90995
USER: genes 16 Torsion [CB]-CG--CD-[NE] |==|  0.74934
USER: genes 17 Torsion [CG]-CD--NE-[HE] |==|  0.02405
ROOT
ATOM      1  C   LEU B   4      79.279 -24.110  52.983  1.00 11.33 LIG 0.24  C 
ATOM      2 O    LEU B   4      79.215 -23.261  53.884  1.00 12.90 LIG-0.27  OA
ATOM      3  N   PRO B   5      79.570 -23.774  51.741  1.00 11.12 LIG-0.34  N 
ATOM      4  CA  PRO B   5      79.861 -22.402  51.412  1.00 12.55 LIG 0.18  C 
ATOM      5  CB  PRO B   5      80.584 -22.523  50.065  1.00 13.89 LIG 0.04  C 
ATOM      6  CG  PRO B   5      79.987 -23.725  49.444  1.00 12.43 LIG 0.02  C 
ATOM      7  CD  PRO B   5      79.651 -24.655  50.567  1.00 11.21 LIG 0.13  C 
ENDROOT
BRANCH 1 8
ATOM      8  CA  LEU B   4      79.044 -25.584  53.286  1.00 11.65 LIG 0.18  C 
BRANCH 8 9
ATOM      9  N   LEU B   4      79.843 -25.964  54.429  1.00 12.22 LIG-0.35  N 
ATOM     10  C   PRO B   3      81.143 -26.160  54.281  1.00 12.52 LIG 0.24  C 
ATOM     11 O    PRO B   3      81.704 -26.141  53.182  1.00 13.02 LIG-0.27  OA
ATOM     12 H    LEU B   4      79.412 -26.044  55.169  1.00 12.22 LIG 0.16  HD
BRANCH 10 13
ATOM     13  CA  PRO B   3      81.919 -26.423  55.561  1.00 15.46 LIG 0.18  C 
ATOM     14  N   PRO B   3      81.273 -25.752  56.692  1.00 15.16 LIG-0.34  N 
ATOM     15  CD  PRO B   3      80.753 -26.710  57.679  1.00 18.06 LIG 0.13  C 
ATOM     16  C   PRO B   2      81.135 -24.431  56.676  1.00 13.99 LIG 0.24  C 
ATOM     17  CG  PRO B   3      80.753 -27.996  56.927  1.00 19.92 LIG 0.02  C 
ATOM     18  CB  PRO B   3      81.875 -27.903  55.955  1.00 18.17 LIG 0.04  C 
ATOM     19 O    PRO B   2      81.620 -23.748  55.765  1.00 12.71 LIG-0.27  OA
BRANCH 16 20
ATOM     20  CA  PRO B   2      80.315 -23.786  57.777  1.00 15.85 LIG 0.18  C 
ATOM     21  CB  PRO B   2      78.814 -23.915  57.469  1.00 19.12 LIG 0.04  C 
ATOM     22  CG  PRO B   2      78.222 -22.580  57.656  1.00 19.63 LIG 0.02  C 
ATOM     23  CD  PRO B   2      79.314 -21.606  57.429  1.00 18.19 LIG 0.13  C 
ATOM     24  N   PRO B   2      80.528 -22.350  57.806  1.00 15.71 LIG-0.34  N 
ATOM     25  C   ALA B   1      81.722 -21.859  58.113  1.00 13.25 LIG 0.24  C 
ATOM     26 O    ALA B   1      82.696 -22.578  58.332  1.00 13.75 LIG-0.27  OA
BRANCH 25 27
ATOM     27  CA  ALA B   1      81.848 -20.345  58.145  1.00 12.47 LIG 0.17  C 
ATOM     28  CB  ALA B   1      81.023 -19.784  59.273  1.00 12.30 LIG 0.04  C 
BRANCH 27 29
ATOM     29  N   ALA B   1      81.422 -19.779  56.879  1.00 12.31 LIG-0.35  N 
ATOM     30 H    ALA B   1      80.714 -19.293  56.923  1.00 12.31 LIG 0.16  HD
ATOM     31  C   ACE B   0      82.095 -20.014  55.766  1.00 14.04 LIG 0.21  C 
ATOM     32  CH3 ACE B   0      81.570 -19.373  54.518  1.00 14.78 LIG 0.12  C 
ATOM     33 O    ACE B   0      83.094 -20.734  55.772  1.00 15.52 LIG-0.27  OA
ENDBRANCH 27 29
ENDBRANCH 25 27
ENDBRANCH 16 20
ENDBRANCH 10 13
ENDBRANCH 8 9
BRANCH 8 34
ATOM     34  CB  LEU B   4      77.558 -25.831  53.533  1.00 12.59 LIG 0.04  C 
BRANCH 34 35
ATOM     35  CG  LEU B   4      77.033 -25.303  54.867  1.00 12.74 LIG-0.02  C 
ATOM     36  CD1 LEU B   4      75.670 -24.668  54.665  1.00 14.33 LIG 0.01  C 
ATOM     37  CD2 LEU B   4      76.953 -26.392  55.930  1.00 11.50 LIG 0.01  C 
ENDBRANCH 34 35
ENDBRANCH 8 34
ENDBRANCH 1 8
BRANCH 4 38
ATOM     38  C   PRO B   5      78.578 -21.603  51.286  1.00 12.26 LIG 0.24  C 
ATOM     39  N   PRO B   6      78.657 -20.284  51.422  1.00 14.33 LIG-0.34  N 
ATOM     40  CD  PRO B   6      79.848 -19.474  51.717  1.00 16.43 LIG 0.13  C 
ATOM     41  CA  PRO B   6      77.459 -19.459  51.251  1.00 15.63 LIG 0.18  C 
ATOM     42  CG  PRO B   6      79.270 -18.188  52.205  1.00 18.90 LIG 0.02  C 
ATOM     43  CB  PRO B   6      77.950 -18.039  51.556  1.00 17.20 LIG 0.04  C 
ATOM     44 O    PRO B   5      77.497 -22.160  51.035  1.00 12.24 LIG-0.27  OA
BRANCH 41 45
ATOM     45  C   PRO B   6      76.921 -19.543  49.831  1.00 14.54 LIG 0.24  C 
ATOM     46 O    PRO B   6      77.428 -18.903  48.907  1.00 15.72 LIG-0.27  OA
ATOM     47  N   ARG B   7      75.869 -20.331  49.671  1.00 15.59 LIG-0.35  N 
ATOM     48 H    ARG B   7      75.515 -20.794  50.304  1.00 15.59 LIG 0.16  HD
BRANCH 47 49
ATOM     49  CA  ARG B   7      75.211 -20.479  48.374  1.00 17.66 LIG 0.16  C 
BRANCH 49 50
ATOM     50  C   ARG B   7      73.693 -20.363  48.470  1.00 19.45 LIG 0.22  C 
ATOM     51 O    ARG B   7      73.052 -21.131  49.179  1.00 22.19 LIG-0.29  OA
ENDBRANCH 49 50
BRANCH 49 52
ATOM     52  CB  ARG B   7      75.615 -21.807  47.741  1.00 18.48 LIG 0.04  C 
BRANCH 52 53
ATOM     53  CG  ARG B   7      76.770 -21.649  46.778  1.00 19.62 LIG 0.02  C 
BRANCH 53 54
ATOM     54  CD  ARG B   7      76.754 -20.312  46.077  1.00 19.05 LIG 0.14  C 
BRANCH 54 55
ATOM     55  NE  ARG B   7      75.993 -20.396  44.837  1.00 16.94 LIG-0.23  N 
ATOM     56  CZ  ARG B   7      75.927 -19.441  43.914  1.00 14.04 LIG 0.67  C 
ATOM     57  NH1 ARG B   7      76.563 -18.291  44.070  1.00 13.87 LIG-0.23  N 
ATOM     58  NH2 ARG B   7      75.203 -19.638  42.827  1.00 14.07 LIG-0.23  N 
ATOM     59 2HH1 ARG B   7      76.510 -17.683  43.463  1.00 13.87 LIG 0.17  HD
ATOM     60 1HH1 ARG B   7      77.030 -18.151  44.779  1.00 13.87 LIG 0.17  HD
ATOM     61 1HH2 ARG B   7      74.779 -20.379  42.721  1.00 14.07 LIG 0.17  HD
ATOM     62 2HH2 ARG B   7      75.155 -19.026  42.225  1.00 14.07 LIG 0.17  HD
ATOM     63 HE   ARG B   7      75.552 -21.120  44.691  1.00 16.94 LIG 0.18  HD
ENDBRANCH 54 55
ENDBRANCH 53 54
ENDBRANCH 52 53
ENDBRANCH 49 52
ENDBRANCH 47 49
ENDBRANCH 41 45
ENDBRANCH 4 38
TORSDOF 16
ENDMDL
MODEL 51
USER: ADFR SOLUTION from run 18
USER: SCORE 15.361773 LL:  -4.164 LR: -11.838 RR:   0.000 FEB:  -7.065
USER: RMSD 12.740495
USER: SEED 17
USER: STATUS no improvement in best in 8 clusters for 5 generations
USER: GENES 18
USER: genes 0 Translation |==|  0.54652 0.49126 0.47629
USER: genes 1 Rotation |==|  0.79169 0.14224 0.32740 0.58444
USER: genes 2 Torsion [N]-C--CA-[N] |==|  0.30761
USER: genes 3 Torsion [C]-CA--N-[C] |==|  0.76640
USER: genes 4 Torsion [N]-C--CA-[N] |==|  0.37605
USER: genes 5 Torsion [N]-C--CA-[N] |==|  0.49949
USER: genes 6 Torsion [N]-C--CA-[N] |==|  0.11782
USER: genes 7 Torsion [C]-CA--N-[C] |==|  0.59445
USER: genes 8 Torsion [C]-CA--CB-[CG] |==|  0.56610
USER: genes 9 Torsion [CA]-CB--CG-[CD1] |==|  0.36581
USER: genes 10 Torsion [N]-CA--C-[N] |==|  0.50846
USER: genes 11 Torsion [N]-CA--C-[N] |==|  0.52579
USER: genes 12 Torsion [C]-N--CA-[C] |==|  0.81120
USER: genes 13 Torsion [N]-CA--C-[O] |==|  0.33027
USER: genes 14 Torsion [N]-CA--CB-[CG] |==|  0.81857
USER: genes 15 Torsion [CA]-CB--CG-[CD] |==|  0.25978
USER: genes 16 Torsion [CB]-CG--CD-[NE] |==|  0.65922
USER: genes 17 Torsion [CG]-CD--NE-[HE] |==|  0.12629
ROOT
ATOM      1  C   LEU B   4      79.268 -19.466  49.664  1.00 11.33 LIG 0.24  C 
ATOM      2 O    LEU B   4      79.760 -20.595  49.798  1.00 12.90 LIG-0.27  OA
ATOM      3  N   PRO B   5      79.803 -18.408  50.245  1.00 11.12 LIG-0.34  N 
ATOM      4  CA  PRO B   5      81.006 -18.543  51.024  1.00 12.55 LIG 0.18  C 
ATOM      5  CB  PRO B   5      81.526 -17.102  51.096  1.00 13.89 LIG 0.04  C 
ATOM      6  CG  PRO B   5      80.299 -16.276  51.056  1.00 12.43 LIG 0.02  C 
ATOM      7  CD  PRO B   5      79.320 -17.021  50.204  1.00 11.21 LIG 0.13  C 
ENDROOT
BRANCH 1 8
ATOM      8  CA  LEU B   4      78.032 -19.254  48.799  1.00 11.65 LIG 0.18  C 
BRANCH 8 9
ATOM      9  N   LEU B   4      78.382 -19.479  47.414  1.00 12.22 LIG-0.35  N 
ATOM     10  C   PRO B   3      78.919 -18.498  46.708  1.00 12.52 LIG 0.24  C 
ATOM     11 O    PRO B   3      79.043 -17.349  47.142  1.00 13.02 LIG-0.27  OA
ATOM     12 H    LEU B   4      78.215 -20.268  47.116  1.00 12.22 LIG 0.16  HD
BRANCH 10 13
ATOM     13  CA  PRO B   3      79.377 -18.868  45.307  1.00 15.46 LIG 0.18  C 
ATOM     14  N   PRO B   3      78.956 -17.841  44.350  1.00 15.16 LIG-0.34  N 
ATOM     15  CD  PRO B   3      80.102 -17.145  43.747  1.00 18.06 LIG 0.13  C 
ATOM     16  C   PRO B   2      77.663 -17.580  44.198  1.00 13.99 LIG 0.24  C 
ATOM     17  CG  PRO B   3      81.226 -17.507  44.654  1.00 19.92 LIG 0.02  C 
ATOM     18  CB  PRO B   3      80.904 -18.857  45.190  1.00 18.17 LIG 0.04  C 
ATOM     19 O    PRO B   2      76.802 -18.248  44.785  1.00 12.71 LIG-0.27  OA
BRANCH 16 20
ATOM     20  CA  PRO B   2      77.270 -16.401  43.329  1.00 15.85 LIG 0.18  C 
ATOM     21  CB  PRO B   2      77.725 -15.084  43.979  1.00 19.12 LIG 0.04  C 
ATOM     22  CG  PRO B   2      76.570 -14.171  43.953  1.00 19.63 LIG 0.02  C 
ATOM     23  CD  PRO B   2      75.364 -15.029  43.929  1.00 18.19 LIG 0.13  C 
ATOM     24  N   PRO B   2      75.826 -16.262  43.268  1.00 15.71 LIG-0.34  N 
ATOM     25  C   ALA B   1      75.089 -17.205  42.695  1.00 13.25 LIG 0.24  C 
ATOM     26 O    ALA B   1      75.574 -18.241  42.244  1.00 13.75 LIG-0.27  OA
BRANCH 25 27
ATOM     27  CA  ALA B   1      73.589 -16.965  42.653  1.00 12.47 LIG 0.17  C 
ATOM     28  CB  ALA B   1      72.945 -17.898  41.662  1.00 12.30 LIG 0.04  C 
BRANCH 27 29
ATOM     29  N   ALA B   1      73.311 -15.585  42.300  1.00 12.31 LIG-0.35  N 
ATOM     30 H    ALA B   1      73.873 -15.235  41.751  1.00 12.31 LIG 0.16  HD
ATOM     31  C   ACE B   0      72.268 -14.949  42.804  1.00 14.04 LIG 0.21  C 
ATOM     32  CH3 ACE B   0      72.073 -13.529  42.365  1.00 14.78 LIG 0.12  C 
ATOM     33 O    ACE B   0      71.512 -15.506  43.599  1.00 15.52 LIG-0.27  OA
ENDBRANCH 27 29
ENDBRANCH 25 27
ENDBRANCH 16 20
ENDBRANCH 10 13
ENDBRANCH 8 9
BRANCH 8 34
ATOM     34  CB  LEU B   4      76.915 -20.190  49.254  1.00 12.59 LIG 0.04  C 
BRANCH 34 35
ATOM     35  CG  LEU B   4      75.869 -20.506  48.188  1.00 12.74 LIG-0.02  C 
ATOM     36  CD1 LEU B   4      75.629 -22.003  48.135  1.00 14.33 LIG 0.01  C 
ATOM     37  CD2 LEU B   4      74.555 -19.772  48.430  1.00 11.50 LIG 0.01  C 
ENDBRANCH 34 35
ENDBRANCH 8 34
ENDBRANCH 1 8
BRANCH 4 38
ATOM     38  C   PRO B   5      80.688 -19.090  52.402  1.00 12.26 LIG 0.24  C 
ATOM     39  N   PRO B   6      81.691 -19.213  53.264  1.00 14.33 LIG-0.34  N 
ATOM     40  CD  PRO B   6      83.113 -18.911  53.046  1.00 16.43 LIG 0.13  C 
ATOM     41  CA  PRO B   6      81.429 -19.680  54.627  1.00 15.63 LIG 0.18  C 
ATOM     42  CG  PRO B   6      83.790 -19.663  54.143  1.00 18.90 LIG 0.02  C 
ATOM     43  CB  PRO B   6      82.824 -19.751  55.260  1.00 17.20 LIG 0.04  C 
ATOM     44 O    PRO B   5      79.525 -19.384  52.723  1.00 12.24 LIG-0.27  OA
BRANCH 41 45
ATOM     45  C   PRO B   6      80.548 -18.705  55.392  1.00 14.54 LIG 0.24  C 
ATOM     46 O    PRO B   6      80.009 -17.745  54.836  1.00 15.72 LIG-0.27  OA
ATOM     47  N   ARG B   7      80.421 -18.954  56.687  1.00 15.59 LIG-0.35  N 
ATOM     48 H    ARG B   7      80.779 -19.628  57.084  1.00 15.59 LIG 0.16  HD
BRANCH 47 49
ATOM     49  CA  ARG B   7      79.643 -18.081  57.564  1.00 17.66 LIG 0.16  C 
BRANCH 49 50
ATOM     50  C   ARG B   7      80.285 -16.709  57.746  1.00 19.45 LIG 0.22  C 
ATOM     51 O    ARG B   7      79.695 -15.693  57.395  1.00 22.19 LIG-0.29  OA
ENDBRANCH 49 50
BRANCH 49 52
ATOM     52  CB  ARG B   7      79.430 -18.764  58.911  1.00 18.48 LIG 0.04  C 
BRANCH 52 53
ATOM     53  CG  ARG B   7      78.575 -20.006  58.789  1.00 19.62 LIG 0.02  C 
BRANCH 53 54
ATOM     54  CD  ARG B   7      79.402 -21.258  58.620  1.00 19.05 LIG 0.14  C 
BRANCH 54 55
ATOM     55  NE  ARG B   7      79.033 -21.949  57.392  1.00 16.94 LIG-0.23  N 
ATOM     56  CZ  ARG B   7      78.823 -23.259  57.285  1.00 14.04 LIG 0.67  C 
ATOM     57  NH1 ARG B   7      78.957 -24.062  58.329  1.00 13.87 LIG-0.23  N 
ATOM     58  NH2 ARG B   7      78.490 -23.769  56.114  1.00 14.07 LIG-0.23  N 
ATOM     59 2HH1 ARG B   7      78.817 -24.907  58.243  1.00 13.87 LIG 0.17  HD
ATOM     60 1HH1 ARG B   7      79.182 -23.739  59.094  1.00 13.87 LIG 0.17  HD
ATOM     61 1HH2 ARG B   7      78.410 -23.256  55.428  1.00 14.07 LIG 0.17  HD
ATOM     62 2HH2 ARG B   7      78.352 -24.614  56.036  1.00 14.07 LIG 0.17  HD
ATOM     63 HE   ARG B   7      78.944 -21.474  56.680  1.00 16.94 LIG 0.18  HD
ENDBRANCH 54 55
ENDBRANCH 53 54
ENDBRANCH 52 53
ENDBRANCH 49 52
ENDBRANCH 47 49
ENDBRANCH 41 45
ENDBRANCH 4 38
TORSDOF 16
ENDMDL
MODEL 52
USER: ADFR SOLUTION from run 132
USER: SCORE 14.836495 LL:  -4.172 LR: -11.823 RR:   0.000 FEB:  -7.050
USER: RMSD 13.060389
USER: SEED 131
USER: STATUS no improvement in best in 25 clusters for 5 generations
USER: GENES 18
USER: genes 0 Translation |==|  0.39662 0.48440 0.33611
USER: genes 1 Rotation |==|  0.97355 0.61289 0.39104 0.53361
USER: genes 2 Torsion [N]-C--CA-[N] |==|  0.19776
USER: genes 3 Torsion [C]-CA--N-[C] |==|  0.20534
USER: genes 4 Torsion [N]-C--CA-[N] |==|  0.56604
USER: genes 5 Torsion [N]-C--CA-[N] |==|  0.39459
USER: genes 6 Torsion [N]-C--CA-[N] |==|  0.85096
USER: genes 7 Torsion [C]-CA--N-[C] |==|  0.77351
USER: genes 8 Torsion [C]-CA--CB-[CG] |==|  0.21902
USER: genes 9 Torsion [CA]-CB--CG-[CD1] |==|  0.72021
USER: genes 10 Torsion [N]-CA--C-[N] |==|  0.46347
USER: genes 11 Torsion [N]-CA--C-[N] |==|  0.49041
USER: genes 12 Torsion [C]-N--CA-[C] |==|  0.19300
USER: genes 13 Torsion [N]-CA--C-[O] |==|  0.82364
USER: genes 14 Torsion [N]-CA--CB-[CG] |==|  0.55000
USER: genes 15 Torsion [CA]-CB--CG-[CD] |==|  0.40138
USER: genes 16 Torsion [CB]-CG--CD-[NE] |==|  0.34686
USER: genes 17 Torsion [CG]-CD--NE-[HE] |==|  0.32888
ROOT
ATOM      1  C   LEU B   4      77.019 -19.630  45.879  1.00 11.33 LIG 0.24  C 
ATOM      2 O    LEU B   4      77.886 -18.781  46.129  1.00 12.90 LIG-0.27  OA
ATOM      3  N   PRO B   5      76.239 -20.117  46.826  1.00 11.12 LIG-0.34  N 
ATOM      4  CA  PRO B   5      76.356 -19.634  48.178  1.00 12.55 LIG 0.18  C 
ATOM      5  CB  PRO B   5      75.025 -20.064  48.806  1.00 13.89 LIG 0.04  C 
ATOM      6  CG  PRO B   5      74.670 -21.305  48.083  1.00 12.43 LIG 0.02  C 
ATOM      7  CD  PRO B   5      75.195 -21.142  46.690  1.00 11.21 LIG 0.13  C 
ENDROOT
BRANCH 1 8
ATOM      8  CA  LEU B   4      76.808 -20.131  44.456  1.00 11.65 LIG 0.18  C 
BRANCH 8 9
ATOM      9  N   LEU B   4      75.568 -19.591  43.946  1.00 12.22 LIG-0.35  N 
ATOM     10  C   PRO B   3      75.502 -18.316  43.602  1.00 12.52 LIG 0.24  C 
ATOM     11 O    PRO B   3      76.426 -17.520  43.795  1.00 13.02 LIG-0.27  OA
ATOM     12 H    LEU B   4      74.917 -20.151  43.893  1.00 12.22 LIG 0.16  HD
BRANCH 10 13
ATOM     13  CA  PRO B   3      74.201 -17.874  42.952  1.00 15.46 LIG 0.18  C 
ATOM     14  N   PRO B   3      74.425 -16.681  42.132  1.00 15.16 LIG-0.34  N 
ATOM     15  CD  PRO B   3      74.195 -16.940  40.703  1.00 18.06 LIG 0.13  C 
ATOM     16  C   PRO B   2      74.881 -15.571  42.704  1.00 13.99 LIG 0.24  C 
ATOM     17  CG  PRO B   3      74.207 -18.428  40.630  1.00 19.92 LIG 0.02  C 
ATOM     18  CB  PRO B   3      73.695 -18.909  41.941  1.00 18.17 LIG 0.04  C 
ATOM     19 O    PRO B   2      75.037 -15.501  43.929  1.00 12.71 LIG-0.27  OA
BRANCH 16 20
ATOM     20  CA  PRO B   2      75.261 -14.410  41.805  1.00 15.85 LIG 0.18  C 
ATOM     21  CB  PRO B   2      76.790 -14.305  41.687  1.00 19.12 LIG 0.04  C 
ATOM     22  CG  PRO B   2      77.143 -12.897  41.930  1.00 19.63 LIG 0.02  C 
ATOM     23  CD  PRO B   2      76.061 -12.337  42.772  1.00 18.19 LIG 0.13  C 
ATOM     24  N   PRO B   2      74.884 -13.145  42.410  1.00 15.71 LIG-0.34  N 
ATOM     25  C   ALA B   1      73.604 -12.854  42.606  1.00 13.25 LIG 0.24  C 
ATOM     26 O    ALA B   1      72.699 -13.642  42.340  1.00 13.75 LIG-0.27  OA
BRANCH 25 27
ATOM     27  CA  ALA B   1      73.301 -11.497  43.220  1.00 12.47 LIG 0.17  C 
ATOM     28  CB  ALA B   1      73.649 -10.402  42.246  1.00 12.30 LIG 0.04  C 
BRANCH 27 29
ATOM     29  N   ALA B   1      74.044 -11.328  44.455  1.00 12.31 LIG-0.35  N 
ATOM     30 H    ALA B   1      74.769 -10.871  44.378  1.00 12.31 LIG 0.16  HD
ATOM     31  C   ACE B   0      73.609 -11.849  45.589  1.00 14.04 LIG 0.21  C 
ATOM     32  CH3 ACE B   0      74.451 -11.606  46.804  1.00 14.78 LIG 0.12  C 
ATOM     33 O    ACE B   0      72.569 -12.506  45.624  1.00 15.52 LIG-0.27  OA
ENDBRANCH 27 29
ENDBRANCH 25 27
ENDBRANCH 16 20
ENDBRANCH 10 13
ENDBRANCH 8 9
BRANCH 8 34
ATOM     34  CB  LEU B   4      77.995 -19.727  43.584  1.00 12.59 LIG 0.04  C 
BRANCH 34 35
ATOM     35  CG  LEU B   4      79.236 -20.602  43.745  1.00 12.74 LIG-0.02  C 
ATOM     36  CD1 LEU B   4      80.242 -19.904  44.639  1.00 14.33 LIG 0.01  C 
ATOM     37  CD2 LEU B   4      78.904 -21.981  44.303  1.00 11.50 LIG 0.01  C 
ENDBRANCH 34 35
ENDBRANCH 8 34
ENDBRANCH 1 8
BRANCH 4 38
ATOM     38  C   PRO B   5      77.537 -20.283  48.873  1.00 12.26 LIG 0.24  C 
ATOM     39  N   PRO B   6      77.941 -19.755  50.023  1.00 14.33 LIG-0.34  N 
ATOM     40  CD  PRO B   6      77.403 -18.576  50.716  1.00 16.43 LIG 0.13  C 
ATOM     41  CA  PRO B   6      79.039 -20.378  50.765  1.00 15.63 LIG 0.18  C 
ATOM     42  CG  PRO B   6      78.506 -18.201  51.649  1.00 18.90 LIG 0.02  C 
ATOM     43  CB  PRO B   6      79.240 -19.445  51.965  1.00 17.20 LIG 0.04  C 
ATOM     44 O    PRO B   5      78.086 -21.289  48.399  1.00 12.24 LIG-0.27  OA
BRANCH 41 45
ATOM     45  C   PRO B   6      78.672 -21.777  51.235  1.00 14.54 LIG 0.24  C 
ATOM     46 O    PRO B   6      77.545 -22.245  51.061  1.00 15.72 LIG-0.27  OA
ATOM     47  N   ARG B   7      79.640 -22.437  51.855  1.00 15.59 LIG-0.35  N 
ATOM     48 H    ARG B   7      80.435 -22.128  51.970  1.00 15.59 LIG 0.16  HD
BRANCH 47 49
ATOM     49  CA  ARG B   7      79.427 -23.775  52.404  1.00 17.66 LIG 0.16  C 
BRANCH 49 50
ATOM     50  C   ARG B   7      79.247 -24.832  51.320  1.00 19.45 LIG 0.22  C 
ATOM     51 O    ARG B   7      78.291 -24.782  50.553  1.00 22.19 LIG-0.29  OA
ENDBRANCH 49 50
BRANCH 49 52
ATOM     52  CB  ARG B   7      78.231 -23.757  53.350  1.00 18.48 LIG 0.04  C 
BRANCH 52 53
ATOM     53  CG  ARG B   7      78.217 -24.958  54.270  1.00 19.62 LIG 0.02  C 
BRANCH 53 54
ATOM     54  CD  ARG B   7      77.691 -24.622  55.645  1.00 19.05 LIG 0.14  C 
BRANCH 54 55
ATOM     55  NE  ARG B   7      76.579 -25.496  55.992  1.00 16.94 LIG-0.23  N 
ATOM     56  CZ  ARG B   7      75.427 -25.568  55.330  1.00 14.04 LIG 0.67  C 
ATOM     57  NH1 ARG B   7      75.195 -24.806  54.273  1.00 13.87 LIG-0.23  N 
ATOM     58  NH2 ARG B   7      74.492 -26.405  55.743  1.00 14.07 LIG-0.23  N 
ATOM     59 2HH1 ARG B   7      74.445 -24.864  53.856  1.00 13.87 LIG 0.17  HD
ATOM     60 1HH1 ARG B   7      75.795 -24.252  54.003  1.00 13.87 LIG 0.17  HD
ATOM     61 1HH2 ARG B   7      74.631 -26.897  56.434  1.00 14.07 LIG 0.17  HD
ATOM     62 2HH2 ARG B   7      73.745 -26.457  55.321  1.00 14.07 LIG 0.17  HD
ATOM     63 HE   ARG B   7      76.674 -26.006  56.679  1.00 16.94 LIG 0.18  HD
ENDBRANCH 54 55
ENDBRANCH 53 54
ENDBRANCH 52 53
ENDBRANCH 49 52
ENDBRANCH 47 49
ENDBRANCH 41 45
ENDBRANCH 4 38
TORSDOF 16
ENDMDL
MODEL 53
USER: ADFR SOLUTION from run 48
USER: SCORE 17.316168 LL:  -5.760 LR: -11.785 RR:   0.000 FEB:  -7.012
USER: RMSD 6.727772
USER: SEED 47
USER: STATUS no improvement in best in 5 clusters for 5 generations
USER: GENES 18
USER: genes 0 Translation |==|  0.40057 0.58462 0.26845
USER: genes 1 Rotation |==|  0.42145 0.79829 0.20117 0.75603
USER: genes 2 Torsion [N]-C--CA-[N] |==|  0.36158
USER: genes 3 Torsion [C]-CA--N-[C] |==|  0.82574
USER: genes 4 Torsion [N]-C--CA-[N] |==|  0.48589
USER: genes 5 Torsion [N]-C--CA-[N] |==|  0.32645
USER: genes 6 Torsion [N]-C--CA-[N] |==|  0.41016
USER: genes 7 Torsion [C]-CA--N-[C] |==|  0.59684
USER: genes 8 Torsion [C]-CA--CB-[CG] |==|  0.24032
USER: genes 9 Torsion [CA]-CB--CG-[CD1] |==|  0.77046
USER: genes 10 Torsion [N]-CA--C-[N] |==|  0.28939
USER: genes 11 Torsion [N]-CA--C-[N] |==|  0.91366
USER: genes 12 Torsion [C]-N--CA-[C] |==|  0.83452
USER: genes 13 Torsion [N]-CA--C-[O] |==|  0.60763
USER: genes 14 Torsion [N]-CA--CB-[CG] |==|  0.08900
USER: genes 15 Torsion [CA]-CB--CG-[CD] |==|  0.21185
USER: genes 16 Torsion [CB]-CG--CD-[NE] |==|  0.26621
USER: genes 17 Torsion [CG]-CD--NE-[HE] |==|  0.26953
ROOT
ATOM      1  C   LEU B   4      77.079 -17.225  44.052  1.00 11.33 LIG 0.24  C 
ATOM      2 O    LEU B   4      75.939 -17.634  43.790  1.00 12.90 LIG-0.27  OA
ATOM      3  N   PRO B   5      77.299 -15.966  44.382  1.00 11.12 LIG-0.34  N 
ATOM      4  CA  PRO B   5      76.199 -15.042  44.483  1.00 12.55 LIG 0.18  C 
ATOM      5  CB  PRO B   5      76.793 -13.900  45.317  1.00 13.89 LIG 0.04  C 
ATOM      6  CG  PRO B   5      78.229 -13.904  44.961  1.00 12.43 LIG 0.02  C 
ATOM      7  CD  PRO B   5      78.589 -15.331  44.687  1.00 11.21 LIG 0.13  C 
ENDROOT
BRANCH 1 8
ATOM      8  CA  LEU B   4      78.271 -18.173  44.024  1.00 11.65 LIG 0.18  C 
BRANCH 8 9
ATOM      9  N   LEU B   4      77.945 -19.362  44.779  1.00 12.22 LIG-0.35  N 
ATOM     10  C   PRO B   3      77.689 -19.264  46.073  1.00 12.52 LIG 0.24  C 
ATOM     11 O    PRO B   3      77.820 -18.212  46.705  1.00 13.02 LIG-0.27  OA
ATOM     12 H    LEU B   4      77.936 -20.094  44.328  1.00 12.22 LIG 0.16  HD
BRANCH 10 13
ATOM     13  CA  PRO B   3      77.226 -20.543  46.753  1.00 15.46 LIG 0.18  C 
ATOM     14  N   PRO B   3      77.095 -20.329  48.196  1.00 15.16 LIG-0.34  N 
ATOM     15  CD  PRO B   3      75.701 -20.455  48.648  1.00 18.06 LIG 0.13  C 
ATOM     16  C   PRO B   2      78.160 -19.968  48.903  1.00 13.99 LIG 0.24  C 
ATOM     17  CG  PRO B   3      74.930 -20.362  47.378  1.00 19.92 LIG 0.02  C 
ATOM     18  CB  PRO B   3      75.808 -20.930  46.321  1.00 18.17 LIG 0.04  C 
ATOM     19 O    PRO B   2      79.279 -19.893  48.381  1.00 12.71 LIG-0.27  OA
BRANCH 16 20
ATOM     20  CA  PRO B   2      77.956 -19.593  50.358  1.00 15.85 LIG 0.18  C 
ATOM     21  CB  PRO B   2      78.603 -18.229  50.653  1.00 19.12 LIG 0.04  C 
ATOM     22  CG  PRO B   2      79.409 -18.392  51.874  1.00 19.63 LIG 0.02  C 
ATOM     23  CD  PRO B   2      79.778 -19.825  51.940  1.00 18.19 LIG 0.13  C 
ATOM     24  N   PRO B   2      78.678 -20.501  51.232  1.00 15.71 LIG-0.34  N 
ATOM     25  C   ALA B   1      78.336 -21.782  51.291  1.00 13.25 LIG 0.24  C 
ATOM     26 O    ALA B   1      77.448 -22.262  50.590  1.00 13.75 LIG-0.27  OA
BRANCH 25 27
ATOM     27  CA  ALA B   1      79.128 -22.654  52.251  1.00 12.47 LIG 0.17  C 
ATOM     28  CB  ALA B   1      80.315 -23.253  51.544  1.00 12.30 LIG 0.04  C 
BRANCH 27 29
ATOM     29  N   ALA B   1      78.282 -23.701  52.792  1.00 12.31 LIG-0.35  N 
ATOM     30 H    ALA B   1      77.694 -24.006  52.244  1.00 12.31 LIG 0.16  HD
ATOM     31  C   ACE B   0      78.433 -24.126  54.035  1.00 14.04 LIG 0.21  C 
ATOM     32  CH3 ACE B   0      77.510 -25.216  54.487  1.00 14.78 LIG 0.12  C 
ATOM     33 O    ACE B   0      79.287 -23.633  54.771  1.00 15.52 LIG-0.27  OA
ENDBRANCH 27 29
ENDBRANCH 25 27
ENDBRANCH 16 20
ENDBRANCH 10 13
ENDBRANCH 8 9
BRANCH 8 34
ATOM     34  CB  LEU B   4      78.631 -18.508  42.579  1.00 12.59 LIG 0.04  C 
BRANCH 34 35
ATOM     35  CG  LEU B   4      79.580 -17.518  41.907  1.00 12.74 LIG-0.02  C 
ATOM     36  CD1 LEU B   4      78.793 -16.330  41.384  1.00 14.33 LIG 0.01  C 
ATOM     37  CD2 LEU B   4      80.682 -17.045  42.847  1.00 11.50 LIG 0.01  C 
ENDBRANCH 34 35
ENDBRANCH 8 34
ENDBRANCH 1 8
BRANCH 4 38
ATOM     38  C   PRO B   5      75.778 -14.566  43.106  1.00 12.26 LIG 0.24  C 
ATOM     39  N   PRO B   6      74.665 -15.078  42.591  1.00 14.33 LIG-0.34  N 
ATOM     40  CD  PRO B   6      73.779 -16.092  43.179  1.00 16.43 LIG 0.13  C 
ATOM     41  CA  PRO B   6      74.181 -14.609  41.291  1.00 15.63 LIG 0.18  C 
ATOM     42  CG  PRO B   6      73.011 -16.592  42.001  1.00 18.90 LIG 0.02  C 
ATOM     43  CB  PRO B   6      72.945 -15.479  41.030  1.00 17.20 LIG 0.04  C 
ATOM     44 O    PRO B   5      76.434 -13.708  42.495  1.00 12.24 LIG-0.27  OA
BRANCH 41 45
ATOM     45  C   PRO B   6      73.797 -13.138  41.334  1.00 14.54 LIG 0.24  C 
ATOM     46 O    PRO B   6      73.924 -12.406  40.350  1.00 15.72 LIG-0.27  OA
ATOM     47  N   ARG B   7      73.339 -12.708  42.501  1.00 15.59 LIG-0.35  N 
ATOM     48 H    ARG B   7      73.231 -13.211  43.190  1.00 15.59 LIG 0.16  HD
BRANCH 47 49
ATOM     49  CA  ARG B   7      72.972 -11.309  42.712  1.00 17.66 LIG 0.16  C 
BRANCH 49 50
ATOM     50  C   ARG B   7      74.138 -10.354  42.478  1.00 19.45 LIG 0.22  C 
ATOM     51 O    ARG B   7      74.298  -9.376  43.200  1.00 22.19 LIG-0.29  OA
ENDBRANCH 49 50
BRANCH 49 52
ATOM     52  CB  ARG B   7      72.400 -11.134  44.115  1.00 18.48 LIG 0.04  C 
BRANCH 52 53
ATOM     53  CG  ARG B   7      73.028 -12.088  45.107  1.00 19.62 LIG 0.02  C 
BRANCH 53 54
ATOM     54  CD  ARG B   7      74.415 -11.657  45.519  1.00 19.05 LIG 0.14  C 
BRANCH 54 55
ATOM     55  NE  ARG B   7      74.366 -10.904  46.765  1.00 16.94 LIG-0.23  N 
ATOM     56  CZ  ARG B   7      74.088  -9.607  46.864  1.00 14.04 LIG 0.67  C 
ATOM     57  NH1 ARG B   7      73.843  -8.874  45.789  1.00 13.87 LIG-0.23  N 
ATOM     58  NH2 ARG B   7      74.071  -9.036  48.055  1.00 14.07 LIG-0.23  N 
ATOM     59 2HH1 ARG B   7      73.666  -8.036  45.871  1.00 13.87 LIG 0.17  HD
ATOM     60 1HH1 ARG B   7      73.861  -9.235  45.009  1.00 13.87 LIG 0.17  HD
ATOM     61 1HH2 ARG B   7      74.238  -9.503  48.758  1.00 14.07 LIG 0.17  HD
ATOM     62 2HH2 ARG B   7      73.893  -8.199  48.128  1.00 14.07 LIG 0.17  HD
ATOM     63 HE   ARG B   7      74.528 -11.332  47.494  1.00 16.94 LIG 0.18  HD
ENDBRANCH 54 55
ENDBRANCH 53 54
ENDBRANCH 52 53
ENDBRANCH 49 52
ENDBRANCH 47 49
ENDBRANCH 41 45
ENDBRANCH 4 38
TORSDOF 16
ENDMDL
MODEL 54
USER: ADFR SOLUTION from run 191
USER: SCORE 16.363401 LL:  -4.656 LR: -11.783 RR:   0.000 FEB:  -7.010
USER: RMSD 11.701040
USER: SEED 190
USER: STATUS no improvement in best in 4 clusters for 5 generations
USER: GENES 18
USER: genes 0 Translation |==|  0.43757 0.42716 0.41769
USER: genes 1 Rotation |==|  0.14774 0.75995 0.73968 0.52994
USER: genes 2 Torsion [N]-C--CA-[N] |==|  0.38065
USER: genes 3 Torsion [C]-CA--N-[C] |==|  0.77877
USER: genes 4 Torsion [N]-C--CA-[N] |==|  0.45010
USER: genes 5 Torsion [N]-C--CA-[N] |==|  0.84804
USER: genes 6 Torsion [N]-C--CA-[N] |==|  0.42377
USER: genes 7 Torsion [C]-CA--N-[C] |==|  0.79169
USER: genes 8 Torsion [C]-CA--CB-[CG] |==|  0.25516
USER: genes 9 Torsion [CA]-CB--CG-[CD1] |==|  0.12314
USER: genes 10 Torsion [N]-CA--C-[N] |==|  0.40526
USER: genes 11 Torsion [N]-CA--C-[N] |==|  0.44492
USER: genes 12 Torsion [C]-N--CA-[C] |==|  0.20742
USER: genes 13 Torsion [N]-CA--C-[O] |==|  0.14491
USER: genes 14 Torsion [N]-CA--CB-[CG] |==|  0.38973
USER: genes 15 Torsion [CA]-CB--CG-[CD] |==|  0.57854
USER: genes 16 Torsion [CB]-CG--CD-[NE] |==|  0.39642
USER: genes 17 Torsion [CG]-CD--NE-[HE] |==|  0.77574
ROOT
ATOM      1  C   LEU B   4      77.634 -21.004  48.082  1.00 11.33 LIG 0.24  C 
ATOM      2 O    LEU B   4      78.369 -21.904  47.653  1.00 12.90 LIG-0.27  OA
ATOM      3  N   PRO B   5      77.822 -20.470  49.274  1.00 11.12 LIG-0.34  N 
ATOM      4  CA  PRO B   5      78.925 -20.902  50.093  1.00 12.55 LIG 0.18  C 
ATOM      5  CB  PRO B   5      79.063 -19.757  51.105  1.00 13.89 LIG 0.04  C 
ATOM      6  CG  PRO B   5      77.684 -19.244  51.256  1.00 12.43 LIG 0.02  C 
ATOM      7  CD  PRO B   5      77.021 -19.425  49.927  1.00 11.21 LIG 0.13  C 
ENDROOT
BRANCH 1 8
ATOM      8  CA  LEU B   4      76.490 -20.464  47.232  1.00 11.65 LIG 0.18  C 
BRANCH 8 9
ATOM      9  N   LEU B   4      76.947 -20.312  45.869  1.00 12.22 LIG-0.35  N 
ATOM     10  C   PRO B   3      77.670 -19.255  45.536  1.00 12.52 LIG 0.24  C 
ATOM     11 O    PRO B   3      77.891 -18.322  46.312  1.00 13.02 LIG-0.27  OA
ATOM     12 H    LEU B   4      76.714 -20.940  45.330  1.00 12.22 LIG 0.16  HD
BRANCH 10 13
ATOM     13  CA  PRO B   3      78.217 -19.251  44.118  1.00 15.46 LIG 0.18  C 
ATOM     14  N   PRO B   3      78.616 -17.894  43.734  1.00 15.16 LIG-0.34  N 
ATOM     15  CD  PRO B   3      80.065 -17.787  43.509  1.00 18.06 LIG 0.13  C 
ATOM     16  C   PRO B   2      77.708 -16.925  43.722  1.00 13.99 LIG 0.24  C 
ATOM     17  CG  PRO B   3      80.593 -19.024  44.149  1.00 19.92 LIG 0.02  C 
ATOM     18  CB  PRO B   3      79.522 -20.047  44.013  1.00 18.17 LIG 0.04  C 
ATOM     19 O    PRO B   2      76.514 -17.163  43.945  1.00 12.71 LIG-0.27  OA
BRANCH 16 20
ATOM     20  CA  PRO B   2      78.184 -15.504  43.485  1.00 15.85 LIG 0.18  C 
ATOM     21  CB  PRO B   2      78.901 -15.401  42.129  1.00 19.12 LIG 0.04  C 
ATOM     22  CG  PRO B   2      80.169 -14.693  42.368  1.00 19.63 LIG 0.02  C 
ATOM     23  CD  PRO B   2      80.521 -14.939  43.785  1.00 18.19 LIG 0.13  C 
ATOM     24  N   PRO B   2      79.217 -15.140  44.439  1.00 15.71 LIG-0.34  N 
ATOM     25  C   ALA B   1      78.932 -15.057  45.732  1.00 13.25 LIG 0.24  C 
ATOM     26 O    ALA B   1      77.820 -15.328  46.183  1.00 13.75 LIG-0.27  OA
BRANCH 25 27
ATOM     27  CA  ALA B   1      80.067 -14.644  46.654  1.00 12.47 LIG 0.17  C 
ATOM     28  CB  ALA B   1      80.878 -15.851  47.046  1.00 12.30 LIG 0.04  C 
BRANCH 27 29
ATOM     29  N   ALA B   1      79.540 -13.986  47.835  1.00 12.31 LIG-0.35  N 
ATOM     30 H    ALA B   1      79.554 -14.465  48.549  1.00 12.31 LIG 0.16  HD
ATOM     31  C   ACE B   0      79.082 -12.747  47.778  1.00 14.04 LIG 0.21  C 
ATOM     32  CH3 ACE B   0      78.569 -12.163  49.059  1.00 14.78 LIG 0.12  C 
ATOM     33 O    ACE B   0      79.077 -12.124  46.717  1.00 15.52 LIG-0.27  OA
ENDBRANCH 27 29
ENDBRANCH 25 27
ENDBRANCH 16 20
ENDBRANCH 10 13
ENDBRANCH 8 9
BRANCH 8 34
ATOM     34  CB  LEU B   4      75.291 -21.404  47.320  1.00 12.59 LIG 0.04  C 
BRANCH 34 35
ATOM     35  CG  LEU B   4      74.288 -21.064  48.420  1.00 12.74 LIG-0.02  C 
ATOM     36  CD1 LEU B   4      74.024 -19.570  48.427  1.00 14.33 LIG 0.01  C 
ATOM     37  CD2 LEU B   4      72.979 -21.829  48.267  1.00 11.50 LIG 0.01  C 
ENDBRANCH 34 35
ENDBRANCH 8 34
ENDBRANCH 1 8
BRANCH 4 38
ATOM     38  C   PRO B   5      78.596 -22.215  50.777  1.00 12.26 LIG 0.24  C 
ATOM     39  N   PRO B   6      79.590 -23.075  50.969  1.00 14.33 LIG-0.34  N 
ATOM     40  CD  PRO B   6      80.998 -22.936  50.571  1.00 16.43 LIG 0.13  C 
ATOM     41  CA  PRO B   6      79.339 -24.332  51.678  1.00 15.63 LIG 0.18  C 
ATOM     42  CG  PRO B   6      81.501 -24.340  50.615  1.00 18.90 LIG 0.02  C 
ATOM     43  CB  PRO B   6      80.691 -25.054  51.625  1.00 17.20 LIG 0.04  C 
ATOM     44 O    PRO B   5      77.445 -22.463  51.169  1.00 12.24 LIG-0.27  OA
BRANCH 41 45
ATOM     45  C   PRO B   6      78.923 -24.087  53.120  1.00 14.54 LIG 0.24  C 
ATOM     46 O    PRO B   6      79.176 -23.027  53.697  1.00 15.72 LIG-0.27  OA
ATOM     47  N   ARG B   7      78.293 -25.095  53.705  1.00 15.59 LIG-0.35  N 
ATOM     48 H    ARG B   7      78.097 -25.834  53.310  1.00 15.59 LIG 0.16  HD
BRANCH 47 49
ATOM     49  CA  ARG B   7      77.871 -25.029  55.103  1.00 17.66 LIG 0.16  C 
BRANCH 49 50
ATOM     50  C   ARG B   7      76.650 -24.137  55.305  1.00 19.45 LIG 0.22  C 
ATOM     51 O    ARG B   7      75.638 -24.303  54.633  1.00 22.19 LIG-0.29  OA
ENDBRANCH 49 50
BRANCH 49 52
ATOM     52  CB  ARG B   7      79.035 -24.560  55.970  1.00 18.48 LIG 0.04  C 
BRANCH 52 53
ATOM     53  CG  ARG B   7      78.588 -23.602  57.052  1.00 19.62 LIG 0.02  C 
BRANCH 53 54
ATOM     54  CD  ARG B   7      79.679 -22.637  57.450  1.00 19.05 LIG 0.14  C 
BRANCH 54 55
ATOM     55  NE  ARG B   7      79.118 -21.321  57.728  1.00 16.94 LIG-0.23  N 
ATOM     56  CZ  ARG B   7      78.851 -20.845  58.941  1.00 14.04 LIG 0.67  C 
ATOM     57  NH1 ARG B   7      79.070 -21.570  60.027  1.00 13.87 LIG-0.23  N 
ATOM     58  NH2 ARG B   7      78.344 -19.631  59.064  1.00 14.07 LIG-0.23  N 
ATOM     59 2HH1 ARG B   7      78.892 -21.246  60.804  1.00 13.87 LIG 0.17  HD
ATOM     60 1HH1 ARG B   7      79.391 -22.364  59.955  1.00 13.87 LIG 0.17  HD
ATOM     61 1HH2 ARG B   7      78.190 -19.156  58.364  1.00 14.07 LIG 0.17  HD
ATOM     62 2HH2 ARG B   7      78.169 -19.315  59.844  1.00 14.07 LIG 0.17  HD
ATOM     63 HE   ARG B   7      78.946 -20.813  57.055  1.00 16.94 LIG 0.18  HD
ENDBRANCH 54 55
ENDBRANCH 53 54
ENDBRANCH 52 53
ENDBRANCH 49 52
ENDBRANCH 47 49
ENDBRANCH 41 45
ENDBRANCH 4 38
TORSDOF 16
ENDMDL
MODEL 55
USER: ADFR SOLUTION from run 56
USER: SCORE 16.817306 LL:  -5.061 LR: -11.769 RR:   0.000 FEB:  -6.996
USER: RMSD 2.951913
USER: SEED 55
USER: STATUS no improvement in best in 7 clusters for 5 generations
USER: GENES 18
USER: genes 0 Translation |==|  0.48635 0.44068 0.44117
USER: genes 1 Rotation |==|  0.49319 0.51090 0.45736 0.99801
USER: genes 2 Torsion [N]-C--CA-[N] |==|  0.38958
USER: genes 3 Torsion [C]-CA--N-[C] |==|  0.81712
USER: genes 4 Torsion [N]-C--CA-[N] |==|  0.38919
USER: genes 5 Torsion [N]-C--CA-[N] |==|  0.46063
USER: genes 6 Torsion [N]-C--CA-[N] |==|  0.38894
USER: genes 7 Torsion [C]-CA--N-[C] |==|  0.80561
USER: genes 8 Torsion [C]-CA--CB-[CG] |==|  0.33254
USER: genes 9 Torsion [CA]-CB--CG-[CD1] |==|  0.05132
USER: genes 10 Torsion [N]-CA--C-[N] |==|  0.45370
USER: genes 11 Torsion [N]-CA--C-[N] |==|  0.40937
USER: genes 12 Torsion [C]-N--CA-[C] |==|  0.22126
USER: genes 13 Torsion [N]-CA--C-[O] |==|  0.25435
USER: genes 14 Torsion [N]-CA--CB-[CG] |==|  0.37493
USER: genes 15 Torsion [CA]-CB--CG-[CD] |==|  0.61383
USER: genes 16 Torsion [CB]-CG--CD-[NE] |==|  0.04507
USER: genes 17 Torsion [CG]-CD--NE-[HE] |==|  0.18668
ROOT
ATOM      1  C   LEU B   4      78.365 -20.680  48.716  1.00 11.33 LIG 0.24  C 
ATOM      2 O    LEU B   4      79.181 -21.201  47.943  1.00 12.90 LIG-0.27  OA
ATOM      3  N   PRO B   5      77.142 -20.377  48.324  1.00 11.12 LIG-0.34  N 
ATOM      4  CA  PRO B   5      76.714 -20.688  46.984  1.00 12.55 LIG 0.18  C 
ATOM      5  CB  PRO B   5      75.186 -20.632  47.096  1.00 13.89 LIG 0.04  C 
ATOM      6  CG  PRO B   5      74.939 -19.622  48.149  1.00 12.43 LIG 0.02  C 
ATOM      7  CD  PRO B   5      76.081 -19.733  49.111  1.00 11.21 LIG 0.13  C 
ENDROOT
BRANCH 1 8
ATOM      8  CA  LEU B   4      78.742 -20.388  50.163  1.00 11.65 LIG 0.18  C 
BRANCH 8 9
ATOM      9  N   LEU B   4      79.552 -21.474  50.667  1.00 12.22 LIG-0.35  N 
ATOM     10  C   PRO B   3      79.019 -22.677  50.804  1.00 12.52 LIG 0.24  C 
ATOM     11 O    PRO B   3      77.819 -22.904  50.624  1.00 13.02 LIG-0.27  OA
ATOM     12 H    LEU B   4      80.365 -21.270  50.857  1.00 12.22 LIG 0.16  HD
BRANCH 10 13
ATOM     13  CA  PRO B   3      79.980 -23.782  51.212  1.00 15.46 LIG 0.18  C 
ATOM     14  N   PRO B   3      79.342 -24.674  52.182  1.00 15.16 LIG-0.34  N 
ATOM     15  CD  PRO B   3      79.164 -26.033  51.649  1.00 18.06 LIG 0.13  C 
ATOM     16  C   PRO B   2      78.920 -24.184  53.342  1.00 13.99 LIG 0.24  C 
ATOM     17  CG  PRO B   3      79.354 -25.843  50.184  1.00 19.92 LIG 0.02  C 
ATOM     18  CB  PRO B   3      80.305 -24.709  50.037  1.00 18.17 LIG 0.04  C 
ATOM     19 O    PRO B   2      79.133 -23.006  53.655  1.00 12.71 LIG-0.27  OA
BRANCH 16 20
ATOM     20  CA  PRO B   2      78.116 -25.094  54.251  1.00 15.85 LIG 0.18  C 
ATOM     21  CB  PRO B   2      76.651 -25.153  53.787  1.00 19.12 LIG 0.04  C 
ATOM     22  CG  PRO B   2      75.815 -24.930  54.977  1.00 19.63 LIG 0.02  C 
ATOM     23  CD  PRO B   2      76.640 -24.146  55.924  1.00 18.19 LIG 0.13  C 
ATOM     24  N   PRO B   2      78.020 -24.535  55.588  1.00 15.71 LIG-0.34  N 
ATOM     25  C   ALA B   1      79.110 -24.397  56.333  1.00 13.25 LIG 0.24  C 
ATOM     26 O    ALA B   1      80.233 -24.681  55.920  1.00 13.75 LIG-0.27  OA
BRANCH 25 27
ATOM     27  CA  ALA B   1      78.913 -23.828  57.728  1.00 12.47 LIG 0.17  C 
ATOM     28  CB  ALA B   1      79.223 -22.354  57.732  1.00 12.30 LIG 0.04  C 
BRANCH 27 29
ATOM     29  N   ALA B   1      79.762 -24.524  58.678  1.00 12.31 LIG-0.35  N 
ATOM     30 H    ALA B   1      80.413 -24.055  58.987  1.00 12.31 LIG 0.16  HD
ATOM     31  C   ACE B   0      79.521 -25.778  59.016  1.00 14.04 LIG 0.21  C 
ATOM     32  CH3 ACE B   0      80.457 -26.395  60.011  1.00 14.78 LIG 0.12  C 
ATOM     33 O    ACE B   0      78.578 -26.396  58.522  1.00 15.52 LIG-0.27  OA
ENDBRANCH 27 29
ENDBRANCH 25 27
ENDBRANCH 16 20
ENDBRANCH 10 13
ENDBRANCH 8 9
BRANCH 8 34
ATOM     34  CB  LEU B   4      79.480 -19.053  50.246  1.00 12.59 LIG 0.04  C 
BRANCH 34 35
ATOM     35  CG  LEU B   4      78.802 -17.999  51.119  1.00 12.74 LIG-0.02  C 
ATOM     36  CD1 LEU B   4      77.807 -18.668  52.048  1.00 14.33 LIG 0.01  C 
ATOM     37  CD2 LEU B   4      79.806 -17.182  51.923  1.00 11.50 LIG 0.01  C 
ENDBRANCH 34 35
ENDBRANCH 8 34
ENDBRANCH 1 8
BRANCH 4 38
ATOM     38  C   PRO B   5      77.240 -19.655  46.007  1.00 12.26 LIG 0.24  C 
ATOM     39  N   PRO B   6      77.229 -19.966  44.715  1.00 14.33 LIG-0.34  N 
ATOM     40  CD  PRO B   6      76.792 -21.223  44.091  1.00 16.43 LIG 0.13  C 
ATOM     41  CA  PRO B   6      77.670 -18.983  43.724  1.00 15.63 LIG 0.18  C 
ATOM     42  CG  PRO B   6      77.431 -21.171  42.744  1.00 18.90 LIG 0.02  C 
ATOM     43  CB  PRO B   6      77.575 -19.741  42.394  1.00 17.20 LIG 0.04  C 
ATOM     44 O    PRO B   5      77.639 -18.546  46.397  1.00 12.24 LIG-0.27  OA
BRANCH 41 45
ATOM     45  C   PRO B   6      76.763 -17.762  43.705  1.00 14.54 LIG 0.24  C 
ATOM     46 O    PRO B   6      75.553 -17.850  43.930  1.00 15.72 LIG-0.27  OA
ATOM     47  N   ARG B   7      77.362 -16.617  43.415  1.00 15.59 LIG-0.35  N 
ATOM     48 H    ARG B   7      78.207 -16.540  43.271  1.00 15.59 LIG 0.16  HD
BRANCH 47 49
ATOM     49  CA  ARG B   7      76.616 -15.364  43.314  1.00 17.66 LIG 0.16  C 
BRANCH 49 50
ATOM     50  C   ARG B   7      76.312 -14.751  44.677  1.00 19.45 LIG 0.22  C 
ATOM     51 O    ARG B   7      77.081 -13.941  45.182  1.00 22.19 LIG-0.29  OA
ENDBRANCH 49 50
BRANCH 49 52
ATOM     52  CB  ARG B   7      75.333 -15.593  42.522  1.00 18.48 LIG 0.04  C 
BRANCH 52 53
ATOM     53  CG  ARG B   7      74.136 -14.940  43.179  1.00 19.62 LIG 0.02  C 
BRANCH 53 54
ATOM     54  CD  ARG B   7      72.906 -15.814  43.128  1.00 19.05 LIG 0.14  C 
BRANCH 54 55
ATOM     55  NE  ARG B   7      73.271 -17.189  42.811  1.00 16.94 LIG-0.23  N 
ATOM     56  CZ  ARG B   7      72.955 -17.823  41.685  1.00 14.04 LIG 0.67  C 
ATOM     57  NH1 ARG B   7      72.243 -17.230  40.740  1.00 13.87 LIG-0.23  N 
ATOM     58  NH2 ARG B   7      73.347 -19.073  41.513  1.00 14.07 LIG-0.23  N 
ATOM     59 2HH1 ARG B   7      72.048 -17.655  40.017  1.00 13.87 LIG 0.17  HD
ATOM     60 1HH1 ARG B   7      71.976 -16.420  40.848  1.00 13.87 LIG 0.17  HD
ATOM     61 1HH2 ARG B   7      73.803 -19.469  42.125  1.00 14.07 LIG 0.17  HD
ATOM     62 2HH2 ARG B   7      73.148 -19.490  40.788  1.00 14.07 LIG 0.17  HD
ATOM     63 HE   ARG B   7      73.726 -17.624  43.397  1.00 16.94 LIG 0.18  HD
ENDBRANCH 54 55
ENDBRANCH 53 54
ENDBRANCH 52 53
ENDBRANCH 49 52
ENDBRANCH 47 49
ENDBRANCH 41 45
ENDBRANCH 4 38
TORSDOF 16
ENDMDL
MODEL 56
USER: ADFR SOLUTION from run 149
USER: SCORE 15.982569 LL:  -4.570 LR: -11.743 RR:   0.000 FEB:  -6.971
USER: RMSD 5.450779
USER: SEED 148
USER: STATUS no improvement in best in 25 clusters for 5 generations
USER: GENES 18
USER: genes 0 Translation |==|  0.49958 0.40861 0.53628
USER: genes 1 Rotation |==|  0.37489 0.65669 0.09722 0.71810
USER: genes 2 Torsion [N]-C--CA-[N] |==|  0.47435
USER: genes 3 Torsion [C]-CA--N-[C] |==|  0.53333
USER: genes 4 Torsion [N]-C--CA-[N] |==|  0.72479
USER: genes 5 Torsion [N]-C--CA-[N] |==|  0.40609
USER: genes 6 Torsion [N]-C--CA-[N] |==|  0.37247
USER: genes 7 Torsion [C]-CA--N-[C] |==|  0.79836
USER: genes 8 Torsion [C]-CA--CB-[CG] |==|  0.35267
USER: genes 9 Torsion [CA]-CB--CG-[CD1] |==|  0.98953
USER: genes 10 Torsion [N]-CA--C-[N] |==|  0.33639
USER: genes 11 Torsion [N]-CA--C-[N] |==|  0.58062
USER: genes 12 Torsion [C]-N--CA-[C] |==|  0.65730
USER: genes 13 Torsion [N]-CA--C-[O] |==|  0.80154
USER: genes 14 Torsion [N]-CA--CB-[CG] |==|  0.84942
USER: genes 15 Torsion [CA]-CB--CG-[CD] |==|  0.27976
USER: genes 16 Torsion [CB]-CG--CD-[NE] |==|  0.00304
USER: genes 17 Torsion [CG]-CD--NE-[HE] |==|  0.84271
ROOT
ATOM      1  C   LEU B   4      78.564 -21.449  51.284  1.00 11.33 LIG 0.24  C 
ATOM      2 O    LEU B   4      77.409 -21.881  51.151  1.00 12.90 LIG-0.27  OA
ATOM      3  N   PRO B   5      78.935 -20.301  50.750  1.00 11.12 LIG-0.34  N 
ATOM      4  CA  PRO B   5      77.982 -19.498  50.027  1.00 12.55 LIG 0.18  C 
ATOM      5  CB  PRO B   5      78.649 -18.117  50.009  1.00 13.89 LIG 0.04  C 
ATOM      6  CG  PRO B   5      80.098 -18.418  50.006  1.00 12.43 LIG 0.02  C 
ATOM      7  CD  PRO B   5      80.266 -19.679  50.794  1.00 11.21 LIG 0.13  C 
ENDROOT
BRANCH 1 8
ATOM      8  CA  LEU B   4      79.596 -22.226  52.092  1.00 11.65 LIG 0.18  C 
BRANCH 8 9
ATOM      9  N   LEU B   4      78.939 -23.325  52.763  1.00 12.22 LIG-0.35  N 
ATOM     10  C   PRO B   3      79.582 -23.993  53.706  1.00 12.52 LIG 0.24  C 
ATOM     11 O    PRO B   3      80.770 -23.796  53.977  1.00 13.02 LIG-0.27  OA
ATOM     12 H    LEU B   4      78.137 -23.490  52.501  1.00 12.22 LIG 0.16  HD
BRANCH 10 13
ATOM     13  CA  PRO B   3      78.766 -25.041  54.446  1.00 15.46 LIG 0.18  C 
ATOM     14  N   PRO B   3      78.297 -24.505  55.726  1.00 15.16 LIG-0.34  N 
ATOM     15  CD  PRO B   3      76.831 -24.391  55.774  1.00 18.06 LIG 0.13  C 
ATOM     16  C   PRO B   2      79.182 -24.103  56.631  1.00 13.99 LIG 0.24  C 
ATOM     17  CG  PRO B   3      76.442 -24.504  54.340  1.00 19.92 LIG 0.02  C 
ATOM     18  CB  PRO B   3      77.468 -25.373  53.703  1.00 18.17 LIG 0.04  C 
ATOM     19 O    PRO B   2      80.397 -24.254  56.448  1.00 12.71 LIG-0.27  OA
BRANCH 16 20
ATOM     20  CA  PRO B   2      78.666 -23.401  57.872  1.00 15.85 LIG 0.18  C 
ATOM     21  CB  PRO B   2      78.830 -21.878  57.729  1.00 19.12 LIG 0.04  C 
ATOM     22  CG  PRO B   2      79.460 -21.397  58.970  1.00 19.63 LIG 0.02  C 
ATOM     23  CD  PRO B   2      80.224 -22.541  59.518  1.00 18.19 LIG 0.13  C 
ATOM     24  N   PRO B   2      79.489 -23.719  59.025  1.00 15.71 LIG-0.34  N 
ATOM     25  C   ALA B   1      79.538 -24.962  59.487  1.00 13.25 LIG 0.24  C 
ATOM     26 O    ALA B   1      78.944 -25.892  58.945  1.00 13.75 LIG-0.27  OA
BRANCH 25 27
ATOM     27  CA  ALA B   1      80.403 -25.199  60.714  1.00 12.47 LIG 0.17  C 
ATOM     28  CB  ALA B   1      81.690 -25.872  60.314  1.00 12.30 LIG 0.04  C 
BRANCH 27 29
ATOM     29  N   ALA B   1      79.690 -26.010  61.682  1.00 12.31 LIG-0.35  N 
ATOM     30 H    ALA B   1      79.974 -26.819  61.751  1.00 12.31 LIG 0.16  HD
ATOM     31  C   ACE B   0      78.688 -25.511  62.385  1.00 14.04 LIG 0.21  C 
ATOM     32  CH3 ACE B   0      78.028 -26.436  63.361  1.00 14.78 LIG 0.12  C 
ATOM     33 O    ACE B   0      78.323 -24.347  62.224  1.00 15.52 LIG-0.27  OA
ENDBRANCH 27 29
ENDBRANCH 25 27
ENDBRANCH 16 20
ENDBRANCH 10 13
ENDBRANCH 8 9
BRANCH 8 34
ATOM     34  CB  LEU B   4      80.711 -22.716  51.173  1.00 12.59 LIG 0.04  C 
BRANCH 34 35
ATOM     35  CG  LEU B   4      82.122 -22.340  51.619  1.00 12.74 LIG-0.02  C 
ATOM     36  CD1 LEU B   4      82.052 -21.468  52.858  1.00 14.33 LIG 0.01  C 
ATOM     37  CD2 LEU B   4      82.990 -23.563  51.887  1.00 11.50 LIG 0.01  C 
ENDBRANCH 34 35
ENDBRANCH 8 34
ENDBRANCH 1 8
BRANCH 4 38
ATOM     38  C   PRO B   5      77.787 -20.042  48.625  1.00 12.26 LIG 0.24  C 
ATOM     39  N   PRO B   6      76.559 -20.408  48.271  1.00 14.33 LIG-0.34  N 
ATOM     40  CD  PRO B   6      75.338 -20.385  49.088  1.00 16.43 LIG 0.13  C 
ATOM     41  CA  PRO B   6      76.303 -20.883  46.910  1.00 15.63 LIG 0.18  C 
ATOM     42  CG  PRO B   6      74.426 -21.313  48.357  1.00 18.90 LIG 0.02  C 
ATOM     43  CB  PRO B   6      74.818 -21.264  46.933  1.00 17.20 LIG 0.04  C 
ATOM     44 O    PRO B   5      78.734 -20.113  47.826  1.00 12.24 LIG-0.27  OA
BRANCH 41 45
ATOM     45  C   PRO B   6      76.557 -19.793  45.880  1.00 14.54 LIG 0.24  C 
ATOM     46 O    PRO B   6      77.371 -18.888  46.081  1.00 15.72 LIG-0.27  OA
ATOM     47  N   ARG B   7      75.831 -19.880  44.775  1.00 15.59 LIG-0.35  N 
ATOM     48 H    ARG B   7      75.271 -20.513  44.617  1.00 15.59 LIG 0.16  HD
BRANCH 47 49
ATOM     49  CA  ARG B   7      75.929 -18.881  43.713  1.00 17.66 LIG 0.16  C 
BRANCH 49 50
ATOM     50  C   ARG B   7      74.584 -18.239  43.386  1.00 19.45 LIG 0.22  C 
ATOM     51 O    ARG B   7      73.714 -18.877  42.803  1.00 22.19 LIG-0.29  OA
ENDBRANCH 49 50
BRANCH 49 52
ATOM     52  CB  ARG B   7      76.546 -19.512  42.469  1.00 18.48 LIG 0.04  C 
BRANCH 52 53
ATOM     53  CG  ARG B   7      77.873 -20.174  42.767  1.00 19.62 LIG 0.02  C 
BRANCH 53 54
ATOM     54  CD  ARG B   7      77.748 -21.672  42.906  1.00 19.05 LIG 0.14  C 
BRANCH 54 55
ATOM     55  NE  ARG B   7      76.370 -22.091  42.688  1.00 16.94 LIG-0.23  N 
ATOM     56  CZ  ARG B   7      75.974 -22.977  41.778  1.00 14.04 LIG 0.67  C 
ATOM     57  NH1 ARG B   7      76.841 -23.554  40.961  1.00 13.87 LIG-0.23  N 
ATOM     58  NH2 ARG B   7      74.692 -23.277  41.679  1.00 14.07 LIG-0.23  N 
ATOM     59 2HH1 ARG B   7      76.568 -24.125  40.378  1.00 13.87 LIG 0.17  HD
ATOM     60 1HH1 ARG B   7      77.676 -23.358  41.013  1.00 13.87 LIG 0.17  HD
ATOM     61 1HH2 ARG B   7      74.120 -22.900  42.200  1.00 14.07 LIG 0.17  HD
ATOM     62 2HH2 ARG B   7      74.427 -23.848  41.094  1.00 14.07 LIG 0.17  HD
ATOM     63 HE   ARG B   7      75.764 -21.737  43.187  1.00 16.94 LIG 0.18  HD
ENDBRANCH 54 55
ENDBRANCH 53 54
ENDBRANCH 52 53
ENDBRANCH 49 52
ENDBRANCH 47 49
ENDBRANCH 41 45
ENDBRANCH 4 38
TORSDOF 16
ENDMDL
MODEL 57
USER: ADFR SOLUTION from run 173
USER: SCORE 15.544478 LL:  -4.733 LR: -11.737 RR:   0.000 FEB:  -6.964
USER: RMSD 12.828708
USER: SEED 172
USER: STATUS no improvement in best in 13 clusters for 5 generations
USER: GENES 18
USER: genes 0 Translation |==|  0.60630 0.51432 0.47672
USER: genes 1 Rotation |==|  0.07012 0.62991 0.71379 0.55124
USER: genes 2 Torsion [N]-C--CA-[N] |==|  0.37901
USER: genes 3 Torsion [C]-CA--N-[C] |==|  0.50043
USER: genes 4 Torsion [N]-C--CA-[N] |==|  0.81376
USER: genes 5 Torsion [N]-C--CA-[N] |==|  0.48295
USER: genes 6 Torsion [N]-C--CA-[N] |==|  0.38601
USER: genes 7 Torsion [C]-CA--N-[C] |==|  0.56459
USER: genes 8 Torsion [C]-CA--CB-[CG] |==|  0.25802
USER: genes 9 Torsion [CA]-CB--CG-[CD1] |==|  0.76620
USER: genes 10 Torsion [N]-CA--C-[N] |==|  0.49220
USER: genes 11 Torsion [N]-CA--C-[N] |==|  0.73088
USER: genes 12 Torsion [C]-N--CA-[C] |==|  0.60102
USER: genes 13 Torsion [N]-CA--C-[O] |==|  0.38115
USER: genes 14 Torsion [N]-CA--CB-[CG] |==|  0.67047
USER: genes 15 Torsion [CA]-CB--CG-[CD] |==|  0.96986
USER: genes 16 Torsion [CB]-CG--CD-[NE] |==|  0.62512
USER: genes 17 Torsion [CG]-CD--NE-[HE] |==|  0.08392
ROOT
ATOM      1  C   LEU B   4      80.165 -18.912  49.675  1.00 11.33 LIG 0.24  C 
ATOM      2 O    LEU B   4      81.323 -19.245  49.389  1.00 12.90 LIG-0.27  OA
ATOM      3  N   PRO B   5      79.790 -18.729  50.928  1.00 11.12 LIG-0.34  N 
ATOM      4  CA  PRO B   5      80.745 -18.876  51.996  1.00 12.55 LIG 0.18  C 
ATOM      5  CB  PRO B   5      80.068 -18.139  53.158  1.00 13.89 LIG 0.04  C 
ATOM      6  CG  PRO B   5      78.622 -18.327  52.909  1.00 12.43 LIG 0.02  C 
ATOM      7  CD  PRO B   5      78.454 -18.367  51.422  1.00 11.21 LIG 0.13  C 
ENDROOT
BRANCH 1 8
ATOM      8  CA  LEU B   4      79.129 -18.680  48.582  1.00 11.65 LIG 0.18  C 
BRANCH 8 9
ATOM      9  N   LEU B   4      79.743 -17.940  47.502  1.00 12.22 LIG-0.35  N 
ATOM     10  C   PRO B   3      79.024 -17.621  46.438  1.00 12.52 LIG 0.24  C 
ATOM     11 O    PRO B   3      77.869 -18.018  46.265  1.00 13.02 LIG-0.27  OA
ATOM     12 H    LEU B   4      80.571 -17.742  47.616  1.00 12.22 LIG 0.16  HD
BRANCH 10 13
ATOM     13  CA  PRO B   3      79.715 -16.729  45.419  1.00 15.46 LIG 0.18  C 
ATOM     14  N   PRO B   3      79.949 -15.399  45.988  1.00 15.16 LIG-0.34  N 
ATOM     15  CD  PRO B   3      81.383 -15.103  46.128  1.00 18.06 LIG 0.13  C 
ATOM     16  C   PRO B   2      78.916 -14.669  46.393  1.00 13.99 LIG 0.24  C 
ATOM     17  CG  PRO B   3      82.015 -16.445  45.994  1.00 19.92 LIG 0.02  C 
ATOM     18  CB  PRO B   3      81.126 -17.230  45.095  1.00 18.17 LIG 0.04  C 
ATOM     19 O    PRO B   2      77.753 -15.055  46.218  1.00 12.71 LIG-0.27  OA
BRANCH 16 20
ATOM     20  CA  PRO B   2      79.201 -13.374  47.129  1.00 15.85 LIG 0.18  C 
ATOM     21  CB  PRO B   2      79.720 -13.669  48.546  1.00 19.12 LIG 0.04  C 
ATOM     22  CG  PRO B   2      78.945 -12.826  49.470  1.00 19.63 LIG 0.02  C 
ATOM     23  CD  PRO B   2      77.649 -12.561  48.804  1.00 18.19 LIG 0.13  C 
ATOM     24  N   PRO B   2      77.974 -12.636  47.369  1.00 15.71 LIG-0.34  N 
ATOM     25  C   ALA B   1      77.275 -12.154  46.349  1.00 13.25 LIG 0.24  C 
ATOM     26 O    ALA B   1      77.596 -12.346  45.178  1.00 13.75 LIG-0.27  OA
BRANCH 25 27
ATOM     27  CA  ALA B   1      76.018 -11.372  46.695  1.00 12.47 LIG 0.17  C 
ATOM     28  CB  ALA B   1      74.806 -12.253  46.546  1.00 12.30 LIG 0.04  C 
BRANCH 27 29
ATOM     29  N   ALA B   1      75.902 -10.206  45.839  1.00 12.31 LIG-0.35  N 
ATOM     30 H    ALA B   1      76.325 -10.265  45.092  1.00 12.31 LIG 0.16  HD
ATOM     31  C   ACE B   0      75.193  -9.154  46.212  1.00 14.04 LIG 0.21  C 
ATOM     32  CH3 ACE B   0      75.135  -8.009  45.247  1.00 14.78 LIG 0.12  C 
ATOM     33 O    ACE B   0      74.625  -9.131  47.303  1.00 15.52 LIG-0.27  OA
ENDBRANCH 27 29
ENDBRANCH 25 27
ENDBRANCH 16 20
ENDBRANCH 10 13
ENDBRANCH 8 9
BRANCH 8 34
ATOM     34  CB  LEU B   4      78.576 -20.019  48.100  1.00 12.59 LIG 0.04  C 
BRANCH 34 35
ATOM     35  CG  LEU B   4      77.306 -20.481  48.811  1.00 12.74 LIG-0.02  C 
ATOM     36  CD1 LEU B   4      77.670 -21.191  50.101  1.00 14.33 LIG 0.01  C 
ATOM     37  CD2 LEU B   4      76.350 -19.329  49.096  1.00 11.50 LIG 0.01  C 
ENDBRANCH 34 35
ENDBRANCH 8 34
ENDBRANCH 1 8
BRANCH 4 38
ATOM     38  C   PRO B   5      80.961 -20.343  52.316  1.00 12.26 LIG 0.24  C 
ATOM     39  N   PRO B   6      81.861 -20.644  53.246  1.00 14.33 LIG-0.34  N 
ATOM     40  CD  PRO B   6      82.721 -19.725  54.006  1.00 16.43 LIG 0.13  C 
ATOM     41  CA  PRO B   6      82.066 -22.041  53.637  1.00 15.63 LIG 0.18  C 
ATOM     42  CG  PRO B   6      83.801 -20.619  54.517  1.00 18.90 LIG 0.02  C 
ATOM     43  CB  PRO B   6      83.210 -21.968  54.655  1.00 17.20 LIG 0.04  C 
ATOM     44 O    PRO B   5      80.299 -21.227  51.751  1.00 12.24 LIG-0.27  OA
BRANCH 41 45
ATOM     45  C   PRO B   6      80.820 -22.631  54.278  1.00 14.54 LIG 0.24  C 
ATOM     46 O    PRO B   6      79.887 -23.069  53.600  1.00 15.72 LIG-0.27  OA
ATOM     47  N   ARG B   7      80.808 -22.621  55.603  1.00 15.59 LIG-0.35  N 
ATOM     48 H    ARG B   7      81.457 -22.332  56.087  1.00 15.59 LIG 0.16  HD
BRANCH 47 49
ATOM     49  CA  ARG B   7      79.660 -23.111  56.363  1.00 17.66 LIG 0.16  C 
BRANCH 49 50
ATOM     50  C   ARG B   7      79.402 -22.298  57.628  1.00 19.45 LIG 0.22  C 
ATOM     51 O    ARG B   7      78.260 -21.982  57.944  1.00 22.19 LIG-0.29  OA
ENDBRANCH 49 50
BRANCH 49 52
ATOM     52  CB  ARG B   7      79.858 -24.586  56.698  1.00 18.48 LIG 0.04  C 
BRANCH 52 53
ATOM     53  CG  ARG B   7      78.779 -25.456  56.092  1.00 19.62 LIG 0.02  C 
BRANCH 53 54
ATOM     54  CD  ARG B   7      77.635 -24.645  55.531  1.00 19.05 LIG 0.14  C 
BRANCH 54 55
ATOM     55  NE  ARG B   7      76.358 -25.224  55.927  1.00 16.94 LIG-0.23  N 
ATOM     56  CZ  ARG B   7      75.236 -25.160  55.215  1.00 14.04 LIG 0.67  C 
ATOM     57  NH1 ARG B   7      75.195 -24.523  54.055  1.00 13.87 LIG-0.23  N 
ATOM     58  NH2 ARG B   7      74.139 -25.729  55.680  1.00 14.07 LIG-0.23  N 
ATOM     59 2HH1 ARG B   7      74.461 -24.491  53.607  1.00 13.87 LIG 0.17  HD
ATOM     60 1HH1 ARG B   7      75.902 -24.142  53.749  1.00 13.87 LIG 0.17  HD
ATOM     61 1HH2 ARG B   7      74.153 -26.137  56.438  1.00 14.07 LIG 0.17  HD
ATOM     62 2HH2 ARG B   7      73.409 -25.692  55.227  1.00 14.07 LIG 0.17  HD
ATOM     63 HE   ARG B   7      76.327 -25.641  56.679  1.00 16.94 LIG 0.18  HD
ENDBRANCH 54 55
ENDBRANCH 53 54
ENDBRANCH 52 53
ENDBRANCH 49 52
ENDBRANCH 47 49
ENDBRANCH 41 45
ENDBRANCH 4 38
TORSDOF 16
ENDMDL
MODEL 58
USER: ADFR SOLUTION from run 138
USER: SCORE 16.775360 LL:  -5.382 LR: -11.707 RR:   0.000 FEB:  -6.934
USER: RMSD 6.554257
USER: SEED 137
USER: STATUS no improvement in best in 3 clusters for 5 generations
USER: GENES 18
USER: genes 0 Translation |==|  0.49966 0.55890 0.31449
USER: genes 1 Rotation |==|  0.68861 0.08000 0.69313 0.52694
USER: genes 2 Torsion [N]-C--CA-[N] |==|  0.44476
USER: genes 3 Torsion [C]-CA--N-[C] |==|  0.81204
USER: genes 4 Torsion [N]-C--CA-[N] |==|  0.75276
USER: genes 5 Torsion [N]-C--CA-[N] |==|  0.36090
USER: genes 6 Torsion [N]-C--CA-[N] |==|  0.38877
USER: genes 7 Torsion [C]-CA--N-[C] |==|  0.55881
USER: genes 8 Torsion [C]-CA--CB-[CG] |==|  0.87111
USER: genes 9 Torsion [CA]-CB--CG-[CD1] |==|  0.34488
USER: genes 10 Torsion [N]-CA--C-[N] |==|  0.49825
USER: genes 11 Torsion [N]-CA--C-[N] |==|  0.27827
USER: genes 12 Torsion [C]-N--CA-[C] |==|  0.18774
USER: genes 13 Torsion [N]-CA--C-[O] |==|  0.46168
USER: genes 14 Torsion [N]-CA--CB-[CG] |==|  0.67133
USER: genes 15 Torsion [CA]-CB--CG-[CD] |==|  0.27700
USER: genes 16 Torsion [CB]-CG--CD-[NE] |==|  0.15016
USER: genes 17 Torsion [CG]-CD--NE-[HE] |==|  0.22277
ROOT
ATOM      1  C   LEU B   4      78.565 -17.842  45.295  1.00 11.33 LIG 0.24  C 
ATOM      2 O    LEU B   4      77.997 -18.021  46.382  1.00 12.90 LIG-0.27  OA
ATOM      3  N   PRO B   5      79.287 -16.762  45.065  1.00 11.12 LIG-0.34  N 
ATOM      4  CA  PRO B   5      79.462 -15.776  46.100  1.00 12.55 LIG 0.18  C 
ATOM      5  CB  PRO B   5      80.689 -14.992  45.616  1.00 13.89 LIG 0.04  C 
ATOM      6  CG  PRO B   5      80.606 -15.071  44.141  1.00 12.43 LIG 0.02  C 
ATOM      7  CD  PRO B   5      79.989 -16.398  43.826  1.00 11.21 LIG 0.13  C 
ENDROOT
BRANCH 1 8
ATOM      8  CA  LEU B   4      78.467 -18.882  44.187  1.00 11.65 LIG 0.18  C 
BRANCH 8 9
ATOM      9  N   LEU B   4      78.061 -20.146  44.760  1.00 12.22 LIG-0.35  N 
ATOM     10  C   PRO B   3      78.886 -20.792  45.568  1.00 12.52 LIG 0.24  C 
ATOM     11 O    PRO B   3      80.044 -20.423  45.779  1.00 13.02 LIG-0.27  OA
ATOM     12 H    LEU B   4      77.277 -20.417  44.536  1.00 12.22 LIG 0.16  HD
BRANCH 10 13
ATOM     13  CA  PRO B   3      78.321 -22.040  46.227  1.00 15.46 LIG 0.18  C 
ATOM     14  N   PRO B   3      77.670 -21.692  47.493  1.00 15.16 LIG-0.34  N 
ATOM     15  CD  PRO B   3      76.222 -21.947  47.458  1.00 18.06 LIG 0.13  C 
ATOM     16  C   PRO B   2      78.382 -21.123  48.459  1.00 13.99 LIG 0.24  C 
ATOM     17  CG  PRO B   3      75.945 -22.090  46.002  1.00 19.92 LIG 0.02  C 
ATOM     18  CB  PRO B   3      77.185 -22.650  45.400  1.00 18.17 LIG 0.04  C 
ATOM     19 O    PRO B   2      79.603 -20.961  48.344  1.00 12.71 LIG-0.27  OA
BRANCH 16 20
ATOM     20  CA  PRO B   2      77.646 -20.624  49.688  1.00 15.85 LIG 0.18  C 
ATOM     21  CB  PRO B   2      77.783 -19.097  49.808  1.00 19.12 LIG 0.04  C 
ATOM     22  CG  PRO B   2      78.185 -18.811  51.195  1.00 19.63 LIG 0.02  C 
ATOM     23  CD  PRO B   2      78.882 -20.022  51.684  1.00 18.19 LIG 0.13  C 
ATOM     24  N   PRO B   2      78.277 -21.113  50.901  1.00 15.71 LIG-0.34  N 
ATOM     25  C   ALA B   1      78.287 -22.412  51.171  1.00 13.25 LIG 0.24  C 
ATOM     26 O    ALA B   1      77.820 -23.251  50.402  1.00 13.75 LIG-0.27  OA
BRANCH 25 27
ATOM     27  CA  ALA B   1      78.945 -22.832  52.475  1.00 12.47 LIG 0.17  C 
ATOM     28  CB  ALA B   1      80.355 -23.294  52.216  1.00 12.30 LIG 0.04  C 
BRANCH 27 29
ATOM     29  N   ALA B   1      78.177 -23.887  53.108  1.00 12.31 LIG-0.35  N 
ATOM     30 H    ALA B   1      77.660 -24.323  52.576  1.00 12.31 LIG 0.16  HD
ATOM     31  C   ACE B   0      78.289 -24.131  54.402  1.00 14.04 LIG 0.21  C 
ATOM     32  CH3 ACE B   0      77.455 -25.249  54.949  1.00 14.78 LIG 0.12  C 
ATOM     33 O    ACE B   0      79.039 -23.457  55.109  1.00 15.52 LIG-0.27  OA
ENDBRANCH 27 29
ENDBRANCH 25 27
ENDBRANCH 16 20
ENDBRANCH 10 13
ENDBRANCH 8 9
BRANCH 8 34
ATOM     34  CB  LEU B   4      77.483 -18.410  43.119  1.00 12.59 LIG 0.04  C 
BRANCH 34 35
ATOM     35  CG  LEU B   4      76.164 -17.863  43.660  1.00 12.74 LIG-0.02  C 
ATOM     36  CD1 LEU B   4      75.942 -16.455  43.140  1.00 14.33 LIG 0.01  C 
ATOM     37  CD2 LEU B   4      74.978 -18.750  43.298  1.00 11.50 LIG 0.01  C 
ENDBRANCH 34 35
ENDBRANCH 8 34
ENDBRANCH 1 8
BRANCH 4 38
ATOM     38  C   PRO B   5      78.237 -14.888  46.200  1.00 12.26 LIG 0.24  C 
ATOM     39  N   PRO B   6      78.242 -13.932  47.124  1.00 14.33 LIG-0.34  N 
ATOM     40  CD  PRO B   6      79.291 -13.631  48.108  1.00 16.43 LIG 0.13  C 
ATOM     41  CA  PRO B   6      77.110 -13.009  47.223  1.00 15.63 LIG 0.18  C 
ATOM     42  CG  PRO B   6      78.569 -12.818  49.131  1.00 18.90 LIG 0.02  C 
ATOM     43  CB  PRO B   6      77.464 -12.130  48.429  1.00 17.20 LIG 0.04  C 
ATOM     44 O    PRO B   5      77.277 -15.030  45.427  1.00 12.24 LIG-0.27  OA
BRANCH 41 45
ATOM     45  C   PRO B   6      76.968 -12.160  45.970  1.00 14.54 LIG 0.24  C 
ATOM     46 O    PRO B   6      77.664 -11.158  45.783  1.00 15.72 LIG-0.27  OA
ATOM     47  N   ARG B   7      76.040 -12.564  45.115  1.00 15.59 LIG-0.35  N 
ATOM     48 H    ARG B   7      75.559 -13.268  45.226  1.00 15.59 LIG 0.16  HD
BRANCH 47 49
ATOM     49  CA  ARG B   7      75.754 -11.825  43.887  1.00 17.66 LIG 0.16  C 
BRANCH 49 50
ATOM     50  C   ARG B   7      76.907 -11.877  42.889  1.00 19.45 LIG 0.22  C 
ATOM     51 O    ARG B   7      76.740 -11.530  41.725  1.00 22.19 LIG-0.29  OA
ENDBRANCH 49 50
BRANCH 49 52
ATOM     52  CB  ARG B   7      75.394 -10.382  44.226  1.00 18.48 LIG 0.04  C 
BRANCH 52 53
ATOM     53  CG  ARG B   7      73.989 -10.030  43.792  1.00 19.62 LIG 0.02  C 
BRANCH 53 54
ATOM     54  CD  ARG B   7      73.004 -10.086  44.935  1.00 19.05 LIG 0.14  C 
BRANCH 54 55
ATOM     55  NE  ARG B   7      73.460  -9.254  46.041  1.00 16.94 LIG-0.23  N 
ATOM     56  CZ  ARG B   7      74.076  -9.702  47.132  1.00 14.04 LIG 0.67  C 
ATOM     57  NH1 ARG B   7      74.314 -10.993  47.304  1.00 13.87 LIG-0.23  N 
ATOM     58  NH2 ARG B   7      74.445  -8.846  48.067  1.00 14.07 LIG-0.23  N 
ATOM     59 2HH1 ARG B   7      74.713 -11.267  48.016  1.00 13.87 LIG 0.17  HD
ATOM     60 1HH1 ARG B   7      74.069 -11.559  46.704  1.00 13.87 LIG 0.17  HD
ATOM     61 1HH2 ARG B   7      74.287  -8.006  47.968  1.00 14.07 LIG 0.17  HD
ATOM     62 2HH2 ARG B   7      74.843  -9.127  48.775  1.00 14.07 LIG 0.17  HD
ATOM     63 HE   ARG B   7      73.320  -8.407  45.984  1.00 16.94 LIG 0.18  HD
ENDBRANCH 54 55
ENDBRANCH 53 54
ENDBRANCH 52 53
ENDBRANCH 49 52
ENDBRANCH 47 49
ENDBRANCH 41 45
ENDBRANCH 4 38
TORSDOF 16
ENDMDL
MODEL 59
USER: ADFR SOLUTION from run 61
USER: SCORE 15.542010 LL:  -5.190 LR: -11.699 RR:   0.000 FEB:  -6.927
USER: RMSD 6.487190
USER: SEED 60
USER: STATUS no improvement in best in 5 clusters for 5 generations
USER: GENES 18
USER: genes 0 Translation |==|  0.61236 0.63183 0.44890
USER: genes 1 Rotation |==|  0.71642 0.35883 0.85618 0.73743
USER: genes 2 Torsion [N]-C--CA-[N] |==|  0.22778
USER: genes 3 Torsion [C]-CA--N-[C] |==|  0.15627
USER: genes 4 Torsion [N]-C--CA-[N] |==|  0.89260
USER: genes 5 Torsion [N]-C--CA-[N] |==|  0.51704
USER: genes 6 Torsion [N]-C--CA-[N] |==|  0.84258
USER: genes 7 Torsion [C]-CA--N-[C] |==|  0.69828
USER: genes 8 Torsion [C]-CA--CB-[CG] |==|  0.41356
USER: genes 9 Torsion [CA]-CB--CG-[CD1] |==|  0.38327
USER: genes 10 Torsion [N]-CA--C-[N] |==|  0.29646
USER: genes 11 Torsion [N]-CA--C-[N] |==|  0.25834
USER: genes 12 Torsion [C]-N--CA-[C] |==|  0.17185
USER: genes 13 Torsion [N]-CA--C-[O] |==|  0.42238
USER: genes 14 Torsion [N]-CA--CB-[CG] |==|  0.85431
USER: genes 15 Torsion [CA]-CB--CG-[CD] |==|  0.41489
USER: genes 16 Torsion [CB]-CG--CD-[NE] |==|  0.76026
USER: genes 17 Torsion [CG]-CD--NE-[HE] |==|  0.91489
ROOT
ATOM      1  C   LEU B   4      80.255 -16.092  48.924  1.00 11.33 LIG 0.24  C 
ATOM      2 O    LEU B   4      80.158 -14.948  49.391  1.00 12.90 LIG-0.27  OA
ATOM      3  N   PRO B   5      80.223 -16.310  47.623  1.00 11.12 LIG-0.34  N 
ATOM      4  CA  PRO B   5      80.112 -15.204  46.707  1.00 12.55 LIG 0.18  C 
ATOM      5  CB  PRO B   5      80.583 -15.815  45.382  1.00 13.89 LIG 0.04  C 
ATOM      6  CG  PRO B   5      80.186 -17.236  45.480  1.00 12.43 LIG 0.02  C 
ATOM      7  CD  PRO B   5      80.295 -17.603  46.927  1.00 11.21 LIG 0.13  C 
ENDROOT
BRANCH 1 8
ATOM      8  CA  LEU B   4      80.439 -17.293  49.843  1.00 11.65 LIG 0.18  C 
BRANCH 8 9
ATOM      9  N   LEU B   4      81.845 -17.620  49.916  1.00 12.22 LIG-0.35  N 
ATOM     10  C   PRO B   3      82.712 -16.697  50.301  1.00 12.52 LIG 0.24  C 
ATOM     11 O    PRO B   3      82.394 -15.522  50.502  1.00 13.02 LIG-0.27  OA
ATOM     12 H    LEU B   4      82.048 -18.426  49.697  1.00 12.22 LIG 0.16  HD
BRANCH 10 13
ATOM     13  CA  PRO B   3      84.145 -17.171  50.477  1.00 15.46 LIG 0.18  C 
ATOM     14  N   PRO B   3      84.166 -18.510  51.070  1.00 15.16 LIG-0.34  N 
ATOM     15  CD  PRO B   3      84.723 -19.514  50.150  1.00 18.06 LIG 0.13  C 
ATOM     16  C   PRO B   2      83.624 -18.703  52.267  1.00 13.99 LIG 0.24  C 
ATOM     17  CG  PRO B   3      84.678 -18.819  48.834  1.00 19.92 LIG 0.02  C 
ATOM     18  CB  PRO B   3      84.843 -17.370  49.127  1.00 18.17 LIG 0.04  C 
ATOM     19 O    PRO B   2      83.180 -17.757  52.929  1.00 12.71 LIG-0.27  OA
BRANCH 16 20
ATOM     20  CA  PRO B   2      83.511 -20.127  52.778  1.00 15.85 LIG 0.18  C 
ATOM     21  CB  PRO B   2      82.647 -20.969  51.826  1.00 19.12 LIG 0.04  C 
ATOM     22  CG  PRO B   2      81.664 -21.683  52.657  1.00 19.63 LIG 0.02  C 
ATOM     23  CD  PRO B   2      81.482 -20.866  53.879  1.00 18.19 LIG 0.13  C 
ATOM     24  N   PRO B   2      82.772 -20.170  54.027  1.00 15.71 LIG-0.34  N 
ATOM     25  C   ALA B   1      83.265 -19.590  55.115  1.00 13.25 LIG 0.24  C 
ATOM     26 O    ALA B   1      84.321 -18.960  55.107  1.00 13.75 LIG-0.27  OA
BRANCH 25 27
ATOM     27  CA  ALA B   1      82.436 -19.708  56.383  1.00 12.47 LIG 0.17  C 
ATOM     28  CB  ALA B   1      82.361 -21.148  56.819  1.00 12.30 LIG 0.04  C 
BRANCH 27 29
ATOM     29  N   ALA B   1      81.104 -19.178  56.163  1.00 12.31 LIG-0.35  N 
ATOM     30 H    ALA B   1      80.603 -19.663  55.659  1.00 12.31 LIG 0.16  HD
ATOM     31  C   ACE B   0      80.724 -18.036  56.710  1.00 14.04 LIG 0.21  C 
ATOM     32  CH3 ACE B   0      79.324 -17.587  56.422  1.00 14.78 LIG 0.12  C 
ATOM     33 O    ACE B   0      81.499 -17.383  57.409  1.00 15.52 LIG-0.27  OA
ENDBRANCH 27 29
ENDBRANCH 25 27
ENDBRANCH 16 20
ENDBRANCH 10 13
ENDBRANCH 8 9
BRANCH 8 34
ATOM     34  CB  LEU B   4      79.863 -16.982  51.223  1.00 12.59 LIG 0.04  C 
BRANCH 34 35
ATOM     35  CG  LEU B   4      79.299 -18.189  51.969  1.00 12.74 LIG-0.02  C 
ATOM     36  CD1 LEU B   4      79.708 -18.124  53.429  1.00 14.33 LIG 0.01  C 
ATOM     37  CD2 LEU B   4      77.783 -18.285  51.852  1.00 11.50 LIG 0.01  C 
ENDBRANCH 34 35
ENDBRANCH 8 34
ENDBRANCH 1 8
BRANCH 4 38
ATOM     38  C   PRO B   5      78.675 -14.727  46.623  1.00 12.26 LIG 0.24  C 
ATOM     39  N   PRO B   6      78.373 -13.576  47.213  1.00 14.33 LIG-0.34  N 
ATOM     40  CD  PRO B   6      79.260 -12.692  47.982  1.00 16.43 LIG 0.13  C 
ATOM     41  CA  PRO B   6      77.014 -13.039  47.111  1.00 15.63 LIG 0.18  C 
ATOM     42  CG  PRO B   6      78.305 -11.851  48.762  1.00 18.90 LIG 0.02  C 
ATOM     43  CB  PRO B   6      77.061 -11.768  47.967  1.00 17.20 LIG 0.04  C 
ATOM     44 O    PRO B   5      77.820 -15.375  46.000  1.00 12.24 LIG-0.27  OA
BRANCH 41 45
ATOM     45  C   PRO B   6      76.653 -12.699  45.673  1.00 14.54 LIG 0.24  C 
ATOM     46 O    PRO B   6      76.907 -11.596  45.185  1.00 15.72 LIG-0.27  OA
ATOM     47  N   ARG B   7      76.037 -13.662  45.002  1.00 15.59 LIG-0.35  N 
ATOM     48 H    ARG B   7      75.867 -14.440  45.326  1.00 15.59 LIG 0.16  HD
BRANCH 47 49
ATOM     49  CA  ARG B   7      75.586 -13.469  43.625  1.00 17.66 LIG 0.16  C 
BRANCH 49 50
ATOM     50  C   ARG B   7      76.736 -13.184  42.666  1.00 19.45 LIG 0.22  C 
ATOM     51 O    ARG B   7      76.652 -13.492  41.482  1.00 22.19 LIG-0.29  OA
ENDBRANCH 49 50
BRANCH 49 52
ATOM     52  CB  ARG B   7      74.547 -12.354  43.576  1.00 18.48 LIG 0.04  C 
BRANCH 52 53
ATOM     53  CG  ARG B   7      73.423 -12.579  44.563  1.00 19.62 LIG 0.02  C 
BRANCH 53 54
ATOM     54  CD  ARG B   7      72.839 -11.283  45.073  1.00 19.05 LIG 0.14  C 
BRANCH 54 55
ATOM     55  NE  ARG B   7      73.597 -10.799  46.218  1.00 16.94 LIG-0.23  N 
ATOM     56  CZ  ARG B   7      73.760  -9.518  46.542  1.00 14.04 LIG 0.67  C 
ATOM     57  NH1 ARG B   7      73.234  -8.553  45.805  1.00 13.87 LIG-0.23  N 
ATOM     58  NH2 ARG B   7      74.470  -9.204  47.610  1.00 14.07 LIG-0.23  N 
ATOM     59 2HH1 ARG B   7      73.349  -7.730  46.028  1.00 13.87 LIG 0.17  HD
ATOM     60 1HH1 ARG B   7      72.778  -8.748  45.102  1.00 13.87 LIG 0.17  HD
ATOM     61 1HH2 ARG B   7      74.823  -9.825  48.090  1.00 14.07 LIG 0.17  HD
ATOM     62 2HH2 ARG B   7      74.580  -8.380  47.826  1.00 14.07 LIG 0.17  HD
ATOM     63 HE   ARG B   7      73.969 -11.386  46.725  1.00 16.94 LIG 0.18  HD
ENDBRANCH 54 55
ENDBRANCH 53 54
ENDBRANCH 52 53
ENDBRANCH 49 52
ENDBRANCH 47 49
ENDBRANCH 41 45
ENDBRANCH 4 38
TORSDOF 16
ENDMDL
MODEL 60
USER: ADFR SOLUTION from run 49
USER: SCORE 16.174222 LL:  -4.810 LR: -11.698 RR:   0.000 FEB:  -6.925
USER: RMSD 6.415005
USER: SEED 48
USER: STATUS no improvement in best in 14 clusters for 5 generations
USER: GENES 18
USER: genes 0 Translation |==|  0.52415 0.37691 0.55985
USER: genes 1 Rotation |==|  0.31487 0.63640 0.13941 0.75904
USER: genes 2 Torsion [N]-C--CA-[N] |==|  0.40182
USER: genes 3 Torsion [C]-CA--N-[C] |==|  0.59727
USER: genes 4 Torsion [N]-C--CA-[N] |==|  0.73313
USER: genes 5 Torsion [N]-C--CA-[N] |==|  0.30271
USER: genes 6 Torsion [N]-C--CA-[N] |==|  0.35739
USER: genes 7 Torsion [C]-CA--N-[C] |==|  0.77552
USER: genes 8 Torsion [C]-CA--CB-[CG] |==|  0.02919
USER: genes 9 Torsion [CA]-CB--CG-[CD1] |==|  0.33623
USER: genes 10 Torsion [N]-CA--C-[N] |==|  0.48240
USER: genes 11 Torsion [N]-CA--C-[N] |==|  0.61973
USER: genes 12 Torsion [C]-N--CA-[C] |==|  0.82711
USER: genes 13 Torsion [N]-CA--C-[O] |==|  0.98570
USER: genes 14 Torsion [N]-CA--CB-[CG] |==|  0.66262
USER: genes 15 Torsion [CA]-CB--CG-[CD] |==|  0.16776
USER: genes 16 Torsion [CB]-CG--CD-[NE] |==|  0.11800
USER: genes 17 Torsion [CG]-CD--NE-[HE] |==|  0.06589
ROOT
ATOM      1  C   LEU B   4      78.932 -22.210  51.920  1.00 11.33 LIG 0.24  C 
ATOM      2 O    LEU B   4      77.956 -22.969  51.995  1.00 12.90 LIG-0.27  OA
ATOM      3  N   PRO B   5      78.864 -21.061  51.274  1.00 11.12 LIG-0.34  N 
ATOM      4  CA  PRO B   5      77.624 -20.645  50.670  1.00 12.55 LIG 0.18  C 
ATOM      5  CB  PRO B   5      77.834 -19.138  50.474  1.00 13.89 LIG 0.04  C 
ATOM      6  CG  PRO B   5      79.291 -19.003  50.258  1.00 12.43 LIG 0.02  C 
ATOM      7  CD  PRO B   5      79.937 -20.077  51.075  1.00 11.21 LIG 0.13  C 
ENDROOT
BRANCH 1 8
ATOM      8  CA  LEU B   4      80.250 -22.570  52.595  1.00 11.65 LIG 0.18  C 
BRANCH 8 9
ATOM      9  N   LEU B   4      79.972 -23.282  53.822  1.00 12.22 LIG-0.35  N 
ATOM     10  C   PRO B   3      80.758 -23.107  54.871  1.00 12.52 LIG 0.24  C 
ATOM     11 O    PRO B   3      81.796 -22.441  54.829  1.00 13.02 LIG-0.27  OA
ATOM     12 H    LEU B   4      79.285 -23.799  53.800  1.00 12.22 LIG 0.16  HD
BRANCH 10 13
ATOM     13  CA  PRO B   3      80.309 -23.791  56.153  1.00 15.46 LIG 0.18  C 
ATOM     14  N   PRO B   3      79.566 -22.851  56.994  1.00 15.16 LIG-0.34  N 
ATOM     15  CD  PRO B   3      78.160 -23.248  57.158  1.00 18.06 LIG 0.13  C 
ATOM     16  C   PRO B   2      80.163 -21.744  57.423  1.00 13.99 LIG 0.24  C 
ATOM     17  CG  PRO B   3      77.967 -24.247  56.070  1.00 19.92 LIG 0.02  C 
ATOM     18  CB  PRO B   3      79.289 -24.900  55.873  1.00 18.17 LIG 0.04  C 
ATOM     19 O    PRO B   2      81.362 -21.536  57.198  1.00 12.71 LIG-0.27  OA
BRANCH 16 20
ATOM     20  CA  PRO B   2      79.320 -20.713  58.149  1.00 15.85 LIG 0.18  C 
ATOM     21  CB  PRO B   2      79.678 -19.297  57.668  1.00 19.12 LIG 0.04  C 
ATOM     22  CG  PRO B   2      79.880 -18.474  58.872  1.00 19.63 LIG 0.02  C 
ATOM     23  CD  PRO B   2      80.280 -19.407  59.950  1.00 18.19 LIG 0.13  C 
ATOM     24  N   PRO B   2      79.648 -20.680  59.563  1.00 15.71 LIG-0.34  N 
ATOM     25  C   ALA B   1      79.403 -21.735  60.330  1.00 13.25 LIG 0.24  C 
ATOM     26 O    ALA B   1      78.945 -22.785  59.883  1.00 13.75 LIG-0.27  OA
BRANCH 25 27
ATOM     27  CA  ALA B   1      79.754 -21.602  61.802  1.00 12.47 LIG 0.17  C 
ATOM     28  CB  ALA B   1      80.946 -22.464  62.127  1.00 12.30 LIG 0.04  C 
BRANCH 27 29
ATOM     29  N   ALA B   1      78.620 -21.980  62.624  1.00 12.31 LIG-0.35  N 
ATOM     30 H    ALA B   1      78.655 -22.781  62.937  1.00 12.31 LIG 0.16  HD
ATOM     31  C   ACE B   0      77.631 -21.134  62.853  1.00 14.04 LIG 0.21  C 
ATOM     32  CH3 ACE B   0      76.515 -21.627  63.722  1.00 14.78 LIG 0.12  C 
ATOM     33 O    ACE B   0      77.639 -20.006  62.360  1.00 15.52 LIG-0.27  OA
ENDBRANCH 27 29
ENDBRANCH 25 27
ENDBRANCH 16 20
ENDBRANCH 10 13
ENDBRANCH 8 9
BRANCH 8 34
ATOM     34  CB  LEU B   4      81.107 -23.403  51.645  1.00 12.59 LIG 0.04  C 
BRANCH 34 35
ATOM     35  CG  LEU B   4      80.595 -23.467  50.208  1.00 12.74 LIG-0.02  C 
ATOM     36  CD1 LEU B   4      81.651 -22.923  49.264  1.00 14.33 LIG 0.01  C 
ATOM     37  CD2 LEU B   4      80.200 -24.880  49.797  1.00 11.50 LIG 0.01  C 
ENDBRANCH 34 35
ENDBRANCH 8 34
ENDBRANCH 1 8
BRANCH 4 38
ATOM     38  C   PRO B   5      77.414 -21.356  49.347  1.00 12.26 LIG 0.24  C 
ATOM     39  N   PRO B   6      76.253 -21.175  48.728  1.00 14.33 LIG-0.34  N 
ATOM     40  CD  PRO B   6      75.100 -20.381  49.179  1.00 16.43 LIG 0.13  C 
ATOM     41  CA  PRO B   6      76.020 -21.789  47.419  1.00 15.63 LIG 0.18  C 
ATOM     42  CG  PRO B   6      73.978 -20.918  48.354  1.00 18.90 LIG 0.02  C 
ATOM     43  CB  PRO B   6      74.571 -21.408  47.092  1.00 17.20 LIG 0.04  C 
ATOM     44 O    PRO B   5      78.307 -22.057  48.847  1.00 12.24 LIG-0.27  OA
BRANCH 41 45
ATOM     45  C   PRO B   6      76.966 -21.236  46.365  1.00 14.54 LIG 0.24  C 
ATOM     46 O    PRO B   6      78.161 -21.042  46.604  1.00 15.72 LIG-0.27  OA
ATOM     47  N   ARG B   7      76.411 -20.965  45.194  1.00 15.59 LIG-0.35  N 
ATOM     48 H    ARG B   7      75.583 -21.109  45.009  1.00 15.59 LIG 0.16  HD
BRANCH 47 49
ATOM     49  CA  ARG B   7      77.181 -20.385  44.095  1.00 17.66 LIG 0.16  C 
BRANCH 49 50
ATOM     50  C   ARG B   7      77.738 -19.005  44.433  1.00 19.45 LIG 0.22  C 
ATOM     51 O    ARG B   7      77.447 -18.457  45.490  1.00 22.19 LIG-0.29  OA
ENDBRANCH 49 50
BRANCH 49 52
ATOM     52  CB  ARG B   7      76.320 -20.329  42.837  1.00 18.48 LIG 0.04  C 
BRANCH 52 53
ATOM     53  CG  ARG B   7      76.938 -21.101  41.692  1.00 19.62 LIG 0.02  C 
BRANCH 53 54
ATOM     54  CD  ARG B   7      77.120 -22.564  42.017  1.00 19.05 LIG 0.14  C 
BRANCH 54 55
ATOM     55  NE  ARG B   7      75.945 -23.082  42.707  1.00 16.94 LIG-0.23  N 
ATOM     56  CZ  ARG B   7      75.935 -24.144  43.507  1.00 14.04 LIG 0.67  C 
ATOM     57  NH1 ARG B   7      77.035 -24.846  43.730  1.00 13.87 LIG-0.23  N 
ATOM     58  NH2 ARG B   7      74.803 -24.515  44.079  1.00 14.07 LIG-0.23  N 
ATOM     59 2HH1 ARG B   7      77.011 -25.530  44.251  1.00 13.87 LIG 0.17  HD
ATOM     60 1HH1 ARG B   7      77.774 -24.617  43.355  1.00 13.87 LIG 0.17  HD
ATOM     61 1HH2 ARG B   7      74.081 -24.070  43.933  1.00 14.07 LIG 0.17  HD
ATOM     62 2HH2 ARG B   7      74.788 -25.200  44.598  1.00 14.07 LIG 0.17  HD
ATOM     63 HE   ARG B   7      75.200 -22.668  42.587  1.00 16.94 LIG 0.18  HD
ENDBRANCH 54 55
ENDBRANCH 53 54
ENDBRANCH 52 53
ENDBRANCH 49 52
ENDBRANCH 47 49
ENDBRANCH 41 45
ENDBRANCH 4 38
TORSDOF 16
ENDMDL
MODEL 61
USER: ADFR SOLUTION from run 157
USER: SCORE 15.981532 LL:  -4.730 LR: -11.695 RR:   0.000 FEB:  -6.923
USER: RMSD 12.387234
USER: SEED 156
USER: STATUS no improvement in best in 6 clusters for 5 generations
USER: GENES 18
USER: genes 0 Translation |==|  0.48266 0.45287 0.41141
USER: genes 1 Rotation |==|  0.19197 0.72740 0.79344 0.63153
USER: genes 2 Torsion [N]-C--CA-[N] |==|  0.35441
USER: genes 3 Torsion [C]-CA--N-[C] |==|  0.80114
USER: genes 4 Torsion [N]-C--CA-[N] |==|  0.38829
USER: genes 5 Torsion [N]-C--CA-[N] |==|  0.50520
USER: genes 6 Torsion [N]-C--CA-[N] |==|  0.36333
USER: genes 7 Torsion [C]-CA--N-[C] |==|  0.54445
USER: genes 8 Torsion [C]-CA--CB-[CG] |==|  0.17940
USER: genes 9 Torsion [CA]-CB--CG-[CD1] |==|  0.29621
USER: genes 10 Torsion [N]-CA--C-[N] |==|  0.37453
USER: genes 11 Torsion [N]-CA--C-[N] |==|  0.26707
USER: genes 12 Torsion [C]-N--CA-[C] |==|  0.65008
USER: genes 13 Torsion [N]-CA--C-[O] |==|  0.86175
USER: genes 14 Torsion [N]-CA--CB-[CG] |==|  0.47443
USER: genes 15 Torsion [CA]-CB--CG-[CD] |==|  0.72952
USER: genes 16 Torsion [CB]-CG--CD-[NE] |==|  0.43791
USER: genes 17 Torsion [CG]-CD--NE-[HE] |==|  0.08887
ROOT
ATOM      1  C   LEU B   4      78.310 -20.387  47.912  1.00 11.33 LIG 0.24  C 
ATOM      2 O    LEU B   4      78.882 -21.103  47.078  1.00 12.90 LIG-0.27  OA
ATOM      3  N   PRO B   5      78.560 -20.499  49.203  1.00 11.12 LIG-0.34  N 
ATOM      4  CA  PRO B   5      79.546 -21.440  49.669  1.00 12.55 LIG 0.18  C 
ATOM      5  CB  PRO B   5      79.861 -20.928  51.080  1.00 13.89 LIG 0.04  C 
ATOM      6  CG  PRO B   5      78.593 -20.312  51.530  1.00 12.43 LIG 0.02  C 
ATOM      7  CD  PRO B   5      77.944 -19.748  50.306  1.00 11.21 LIG 0.13  C 
ENDROOT
BRANCH 1 8
ATOM      8  CA  LEU B   4      77.305 -19.330  47.471  1.00 11.65 LIG 0.18  C 
BRANCH 8 9
ATOM      9  N   LEU B   4      77.907 -18.507  46.447  1.00 12.22 LIG-0.35  N 
ATOM     10  C   PRO B   3      78.862 -17.651  46.773  1.00 12.52 LIG 0.24  C 
ATOM     11 O    PRO B   3      79.199 -17.436  47.941  1.00 13.02 LIG-0.27  OA
ATOM     12 H    LEU B   4      77.600 -18.623  45.652  1.00 12.22 LIG 0.16  HD
BRANCH 10 13
ATOM     13  CA  PRO B   3      79.526 -16.929  45.612  1.00 15.46 LIG 0.18  C 
ATOM     14  N   PRO B   3      79.764 -15.526  45.960  1.00 15.16 LIG-0.34  N 
ATOM     15  CD  PRO B   3      81.199 -15.207  46.020  1.00 18.06 LIG 0.13  C 
ATOM     16  C   PRO B   2      78.735 -14.744  46.266  1.00 13.99 LIG 0.24  C 
ATOM     17  CG  PRO B   3      81.835 -16.552  46.085  1.00 19.92 LIG 0.02  C 
ATOM     18  CB  PRO B   3      80.933 -17.471  45.341  1.00 18.17 LIG 0.04  C 
ATOM     19 O    PRO B   2      77.571 -15.156  46.179  1.00 12.71 LIG-0.27  OA
BRANCH 16 20
ATOM     20  CA  PRO B   2      79.027 -13.349  46.783  1.00 15.85 LIG 0.18  C 
ATOM     21  CB  PRO B   2      79.761 -13.422  48.132  1.00 19.12 LIG 0.04  C 
ATOM     22  CG  PRO B   2      79.065 -12.503  49.048  1.00 19.63 LIG 0.02  C 
ATOM     23  CD  PRO B   2      77.673 -12.399  48.554  1.00 18.19 LIG 0.13  C 
ATOM     24  N   PRO B   2      77.797 -12.650  47.108  1.00 15.71 LIG-0.34  N 
ATOM     25  C   ALA B   1      76.929 -12.347  46.151  1.00 13.25 LIG 0.24  C 
ATOM     26 O    ALA B   1      77.095 -12.679  44.979  1.00 13.75 LIG-0.27  OA
BRANCH 25 27
ATOM     27  CA  ALA B   1      75.681 -11.592  46.579  1.00 12.47 LIG 0.17  C 
ATOM     28  CB  ALA B   1      74.484 -12.506  46.531  1.00 12.30 LIG 0.04  C 
BRANCH 27 29
ATOM     29  N   ALA B   1      75.471 -10.442  45.719  1.00 12.31 LIG-0.35  N 
ATOM     30 H    ALA B   1      75.918 -10.457  44.984  1.00 12.31 LIG 0.16  HD
ATOM     31  C   ACE B   0      74.649  -9.468  46.072  1.00 14.04 LIG 0.21  C 
ATOM     32  CH3 ACE B   0      74.503  -8.333  45.105  1.00 14.78 LIG 0.12  C 
ATOM     33 O    ACE B   0      74.052  -9.504  47.147  1.00 15.52 LIG-0.27  OA
ENDBRANCH 27 29
ENDBRANCH 25 27
ENDBRANCH 16 20
ENDBRANCH 10 13
ENDBRANCH 8 9
BRANCH 8 34
ATOM     34  CB  LEU B   4      76.031 -20.005  46.970  1.00 12.59 LIG 0.04  C 
BRANCH 34 35
ATOM     35  CG  LEU B   4      75.260 -20.788  48.031  1.00 12.74 LIG-0.02  C 
ATOM     36  CD1 LEU B   4      74.005 -20.028  48.416  1.00 14.33 LIG 0.01  C 
ATOM     37  CD2 LEU B   4      74.901 -22.194  47.566  1.00 11.50 LIG 0.01  C 
ENDBRANCH 34 35
ENDBRANCH 8 34
ENDBRANCH 1 8
BRANCH 4 38
ATOM     38  C   PRO B   5      78.967 -22.842  49.701  1.00 12.26 LIG 0.24  C 
ATOM     39  N   PRO B   6      79.711 -23.826  49.208  1.00 14.33 LIG-0.34  N 
ATOM     40  CD  PRO B   6      81.043 -23.734  48.593  1.00 16.43 LIG 0.13  C 
ATOM     41  CA  PRO B   6      79.226 -25.207  49.268  1.00 15.63 LIG 0.18  C 
ATOM     42  CG  PRO B   6      81.154 -25.015  47.836  1.00 18.90 LIG 0.02  C 
ATOM     43  CB  PRO B   6      80.318 -26.006  48.547  1.00 17.20 LIG 0.04  C 
ATOM     44 O    PRO B   5      77.851 -23.064  50.196  1.00 12.24 LIG-0.27  OA
BRANCH 41 45
ATOM     45  C   PRO B   6      79.077 -25.685  50.704  1.00 14.54 LIG 0.24  C 
ATOM     46 O    PRO B   6      80.029 -26.151  51.334  1.00 15.72 LIG-0.27  OA
ATOM     47  N   ARG B   7      77.857 -25.582  51.210  1.00 15.59 LIG-0.35  N 
ATOM     48 H    ARG B   7      77.188 -25.245  50.787  1.00 15.59 LIG 0.16  HD
BRANCH 47 49
ATOM     49  CA  ARG B   7      77.545 -26.042  52.562  1.00 17.66 LIG 0.16  C 
BRANCH 49 50
ATOM     50  C   ARG B   7      76.376 -27.022  52.593  1.00 19.45 LIG 0.22  C 
ATOM     51 O    ARG B   7      75.325 -26.756  52.020  1.00 22.19 LIG-0.29  OA
ENDBRANCH 49 50
BRANCH 49 52
ATOM     52  CB  ARG B   7      77.273 -24.843  53.464  1.00 18.48 LIG 0.04  C 
BRANCH 52 53
ATOM     53  CG  ARG B   7      76.729 -25.258  54.813  1.00 19.62 LIG 0.02  C 
BRANCH 53 54
ATOM     54  CD  ARG B   7      75.224 -25.164  54.878  1.00 19.05 LIG 0.14  C 
BRANCH 54 55
ATOM     55  NE  ARG B   7      74.705 -26.030  55.929  1.00 16.94 LIG-0.23  N 
ATOM     56  CZ  ARG B   7      73.528 -26.651  55.896  1.00 14.04 LIG 0.67  C 
ATOM     57  NH1 ARG B   7      72.705 -26.508  54.870  1.00 13.87 LIG-0.23  N 
ATOM     58  NH2 ARG B   7      73.170 -27.414  56.913  1.00 14.07 LIG-0.23  N 
ATOM     59 2HH1 ARG B   7      71.948 -26.917  54.865  1.00 13.87 LIG 0.17  HD
ATOM     60 1HH1 ARG B   7      72.927 -26.005  54.208  1.00 13.87 LIG 0.17  HD
ATOM     61 1HH2 ARG B   7      73.695 -27.506  57.588  1.00 14.07 LIG 0.17  HD
ATOM     62 2HH2 ARG B   7      72.412 -27.820  56.900  1.00 14.07 LIG 0.17  HD
ATOM     63 HE   ARG B   7      75.197 -26.149  56.625  1.00 16.94 LIG 0.18  HD
ENDBRANCH 54 55
ENDBRANCH 53 54
ENDBRANCH 52 53
ENDBRANCH 49 52
ENDBRANCH 47 49
ENDBRANCH 41 45
ENDBRANCH 4 38
TORSDOF 16
ENDMDL
MODEL 62
USER: ADFR SOLUTION from run 93
USER: SCORE 16.879045 LL:  -5.654 LR: -11.696 RR:   0.000 FEB:  -6.923
USER: RMSD 7.505704
USER: SEED 92
USER: STATUS no improvement in best in 11 clusters for 5 generations
USER: GENES 18
USER: genes 0 Translation |==|  0.54090 0.30261 0.63789
USER: genes 1 Rotation |==|  0.66388 0.31420 0.75984 0.84800
USER: genes 2 Torsion [N]-C--CA-[N] |==|  0.40027
USER: genes 3 Torsion [C]-CA--N-[C] |==|  0.82812
USER: genes 4 Torsion [N]-C--CA-[N] |==|  0.92755
USER: genes 5 Torsion [N]-C--CA-[N] |==|  0.50434
USER: genes 6 Torsion [N]-C--CA-[N] |==|  0.17370
USER: genes 7 Torsion [C]-CA--N-[C] |==|  0.60611
USER: genes 8 Torsion [C]-CA--CB-[CG] |==|  0.32950
USER: genes 9 Torsion [CA]-CB--CG-[CD1] |==|  0.72028
USER: genes 10 Torsion [N]-CA--C-[N] |==|  0.34321
USER: genes 11 Torsion [N]-CA--C-[N] |==|  0.96674
USER: genes 12 Torsion [C]-N--CA-[C] |==|  0.19767
USER: genes 13 Torsion [N]-CA--C-[O] |==|  0.56156
USER: genes 14 Torsion [N]-CA--CB-[CG] |==|  0.79966
USER: genes 15 Torsion [CA]-CB--CG-[CD] |==|  0.67825
USER: genes 16 Torsion [CB]-CG--CD-[NE] |==|  0.62403
USER: genes 17 Torsion [CG]-CD--NE-[HE] |==|  0.68800
ROOT
ATOM      1  C   LEU B   4      79.184 -23.993  54.027  1.00 11.33 LIG 0.24  C 
ATOM      2 O    LEU B   4      79.826 -23.007  54.415  1.00 12.90 LIG-0.27  OA
ATOM      3  N   PRO B   5      78.934 -24.192  52.746  1.00 11.12 LIG-0.34  N 
ATOM      4  CA  PRO B   5      79.443 -23.275  51.760  1.00 12.55 LIG 0.18  C 
ATOM      5  CB  PRO B   5      79.357 -24.091  50.464  1.00 13.89 LIG 0.04  C 
ATOM      6  CG  PRO B   5      78.195 -24.982  50.677  1.00 12.43 LIG 0.02  C 
ATOM      7  CD  PRO B   5      78.166 -25.290  52.141  1.00 11.21 LIG 0.13  C 
ENDROOT
BRANCH 1 8
ATOM      8  CA  LEU B   4      78.675 -25.030  55.021  1.00 11.65 LIG 0.18  C 
BRANCH 8 9
ATOM      9  N   LEU B   4      79.638 -25.169  56.090  1.00 12.22 LIG-0.35  N 
ATOM     10  C   PRO B   3      80.862 -25.590  55.817  1.00 12.52 LIG 0.24  C 
ATOM     11 O    PRO B   3      81.203 -25.981  54.697  1.00 13.02 LIG-0.27  OA
ATOM     12 H    LEU B   4      79.351 -24.962  56.874  1.00 12.22 LIG 0.16  HD
BRANCH 10 13
ATOM     13  CA  PRO B   3      81.840 -25.575  56.981  1.00 15.46 LIG 0.18  C 
ATOM     14  N   PRO B   3      81.441 -24.563  57.963  1.00 15.16 LIG-0.34  N 
ATOM     15  CD  PRO B   3      81.057 -25.162  59.249  1.00 18.06 LIG 0.13  C 
ATOM     16  C   PRO B   2      81.372 -23.288  57.596  1.00 13.99 LIG 0.24  C 
ATOM     17  CG  PRO B   3      80.855 -26.597  58.901  1.00 19.92 LIG 0.02  C 
ATOM     18  CB  PRO B   3      81.788 -26.883  57.779  1.00 18.17 LIG 0.04  C 
ATOM     19 O    PRO B   2      81.722 -22.928  56.465  1.00 12.71 LIG-0.27  OA
BRANCH 16 20
ATOM     20  CA  PRO B   2      80.797 -22.292  58.584  1.00 15.85 LIG 0.18  C 
ATOM     21  CB  PRO B   2      79.315 -22.601  58.852  1.00 19.12 LIG 0.04  C 
ATOM     22  CG  PRO B   2      78.581 -21.333  58.715  1.00 19.63 LIG 0.02  C 
ATOM     23  CD  PRO B   2      79.382 -20.485  57.804  1.00 18.19 LIG 0.13  C 
ATOM     24  N   PRO B   2      80.762 -20.958  58.011  1.00 15.71 LIG-0.34  N 
ATOM     25  C   ALA B   1      81.892 -20.332  57.709  1.00 13.25 LIG 0.24  C 
ATOM     26 O    ALA B   1      82.996 -20.856  57.848  1.00 13.75 LIG-0.27  OA
BRANCH 25 27
ATOM     27  CA  ALA B   1      81.762 -18.930  57.138  1.00 12.47 LIG 0.17  C 
ATOM     28  CB  ALA B   1      83.119 -18.403  56.750  1.00 12.30 LIG 0.04  C 
BRANCH 27 29
ATOM     29  N   ALA B   1      81.138 -18.049  58.108  1.00 12.31 LIG-0.35  N 
ATOM     30 H    ALA B   1      81.378 -18.185  58.923  1.00 12.31 LIG 0.16  HD
ATOM     31  C   ACE B   0      80.274 -17.122  57.731  1.00 14.04 LIG 0.21  C 
ATOM     32  CH3 ACE B   0      79.697 -16.264  58.815  1.00 14.78 LIG 0.12  C 
ATOM     33 O    ACE B   0      79.964 -16.992  56.547  1.00 15.52 LIG-0.27  OA
ENDBRANCH 27 29
ENDBRANCH 25 27
ENDBRANCH 16 20
ENDBRANCH 10 13
ENDBRANCH 8 9
BRANCH 8 34
ATOM     34  CB  LEU B   4      77.306 -24.612  55.550  1.00 12.59 LIG 0.04  C 
BRANCH 34 35
ATOM     35  CG  LEU B   4      76.173 -25.589  55.243  1.00 12.74 LIG-0.02  C 
ATOM     36  CD1 LEU B   4      75.365 -25.080  54.064  1.00 14.33 LIG 0.01  C 
ATOM     37  CD2 LEU B   4      76.684 -26.997  54.962  1.00 11.50 LIG 0.01  C 
ENDBRANCH 34 35
ENDBRANCH 8 34
ENDBRANCH 1 8
BRANCH 4 38
ATOM     38  C   PRO B   5      78.578 -22.031  51.695  1.00 12.26 LIG 0.24  C 
ATOM     39  N   PRO B   6      79.170 -20.858  51.887  1.00 14.33 LIG-0.34  N 
ATOM     40  CD  PRO B   6      80.584 -20.597  52.193  1.00 16.43 LIG 0.13  C 
ATOM     41  CA  PRO B   6      78.393 -19.622  51.776  1.00 15.63 LIG 0.18  C 
ATOM     42  CG  PRO B   6      80.559 -19.212  52.749  1.00 18.90 LIG 0.02  C 
ATOM     43  CB  PRO B   6      79.403 -18.525  52.133  1.00 17.20 LIG 0.04  C 
ATOM     44 O    PRO B   5      77.365 -22.106  51.441  1.00 12.24 LIG-0.27  OA
BRANCH 41 45
ATOM     45  C   PRO B   6      77.864 -19.419  50.365  1.00 14.54 LIG 0.24  C 
ATOM     46 O    PRO B   6      77.001 -18.575  50.111  1.00 15.72 LIG-0.27  OA
ATOM     47  N   ARG B   7      78.382 -20.221  49.446  1.00 15.59 LIG-0.35  N 
ATOM     48 H    ARG B   7      78.994 -20.803  49.607  1.00 15.59 LIG 0.16  HD
BRANCH 47 49
ATOM     49  CA  ARG B   7      77.941 -20.178  48.053  1.00 17.66 LIG 0.16  C 
BRANCH 49 50
ATOM     50  C   ARG B   7      78.407 -18.918  47.329  1.00 19.45 LIG 0.22  C 
ATOM     51 O    ARG B   7      77.820 -18.521  46.328  1.00 22.19 LIG-0.29  OA
ENDBRANCH 49 50
BRANCH 49 52
ATOM     52  CB  ARG B   7      76.423 -20.311  47.989  1.00 18.48 LIG 0.04  C 
BRANCH 52 53
ATOM     53  CG  ARG B   7      75.962 -21.714  48.316  1.00 19.62 LIG 0.02  C 
BRANCH 53 54
ATOM     54  CD  ARG B   7      75.286 -22.383  47.143  1.00 19.05 LIG 0.14  C 
BRANCH 54 55
ATOM     55  NE  ARG B   7      74.070 -23.060  47.575  1.00 16.94 LIG-0.23  N 
ATOM     56  CZ  ARG B   7      72.972 -22.452  48.015  1.00 14.04 LIG 0.67  C 
ATOM     57  NH1 ARG B   7      72.909 -21.133  48.112  1.00 13.87 LIG-0.23  N 
ATOM     58  NH2 ARG B   7      71.929 -23.178  48.376  1.00 14.07 LIG-0.23  N 
ATOM     59 2HH1 ARG B   7      72.191 -20.756  48.399  1.00 13.87 LIG 0.17  HD
ATOM     60 1HH1 ARG B   7      73.587 -20.654  47.887  1.00 13.87 LIG 0.17  HD
ATOM     61 1HH2 ARG B   7      71.964 -24.036  48.326  1.00 14.07 LIG 0.17  HD
ATOM     62 2HH2 ARG B   7      71.215 -22.793  48.662  1.00 14.07 LIG 0.17  HD
ATOM     63 HE   ARG B   7      74.062 -23.920  47.542  1.00 16.94 LIG 0.18  HD
ENDBRANCH 54 55
ENDBRANCH 53 54
ENDBRANCH 52 53
ENDBRANCH 49 52
ENDBRANCH 47 49
ENDBRANCH 41 45
ENDBRANCH 4 38
TORSDOF 16
ENDMDL
MODEL 63
USER: ADFR SOLUTION from run 41
USER: SCORE 16.273615 LL:  -5.369 LR: -11.657 RR:   0.000 FEB:  -6.884
USER: RMSD 8.558682
USER: SEED 40
USER: STATUS no improvement in best in 5 clusters for 5 generations
USER: GENES 18
USER: genes 0 Translation |==|  0.36900 0.74156 0.31715
USER: genes 1 Rotation |==|  0.56480 0.62924 0.94323 0.68067
USER: genes 2 Torsion [N]-C--CA-[N] |==|  0.12605
USER: genes 3 Torsion [C]-CA--N-[C] |==|  0.56454
USER: genes 4 Torsion [N]-C--CA-[N] |==|  0.77196
USER: genes 5 Torsion [N]-C--CA-[N] |==|  0.51037
USER: genes 6 Torsion [N]-C--CA-[N] |==|  0.41758
USER: genes 7 Torsion [C]-CA--N-[C] |==|  0.84441
USER: genes 8 Torsion [C]-CA--CB-[CG] |==|  0.24258
USER: genes 9 Torsion [CA]-CB--CG-[CD1] |==|  0.53771
USER: genes 10 Torsion [N]-CA--C-[N] |==|  0.27916
USER: genes 11 Torsion [N]-CA--C-[N] |==|  0.83046
USER: genes 12 Torsion [C]-N--CA-[C] |==|  0.18726
USER: genes 13 Torsion [N]-CA--C-[O] |==|  0.93852
USER: genes 14 Torsion [N]-CA--CB-[CG] |==|  0.81070
USER: genes 15 Torsion [CA]-CB--CG-[CD] |==|  0.35621
USER: genes 16 Torsion [CB]-CG--CD-[NE] |==|  0.14161
USER: genes 17 Torsion [CG]-CD--NE-[HE] |==|  0.21918
ROOT
ATOM      1  C   LEU B   4      76.605 -13.458  45.367  1.00 11.33 LIG 0.24  C 
ATOM      2 O    LEU B   4      75.844 -12.864  44.590  1.00 12.90 LIG-0.27  OA
ATOM      3  N   PRO B   5      77.237 -14.559  45.004  1.00 11.12 LIG-0.34  N 
ATOM      4  CA  PRO B   5      77.083 -15.074  43.668  1.00 12.55 LIG 0.18  C 
ATOM      5  CB  PRO B   5      78.290 -16.008  43.524  1.00 13.89 LIG 0.04  C 
ATOM      6  CG  PRO B   5      78.529 -16.501  44.898  1.00 12.43 LIG 0.02  C 
ATOM      7  CD  PRO B   5      78.140 -15.385  45.817  1.00 11.21 LIG 0.13  C 
ENDROOT
BRANCH 1 8
ATOM      8  CA  LEU B   4      76.856 -12.923  46.771  1.00 11.65 LIG 0.18  C 
BRANCH 8 9
ATOM      9  N   LEU B   4      78.276 -12.949  47.038  1.00 12.22 LIG-0.35  N 
ATOM     10  C   PRO B   3      78.706 -12.982  48.289  1.00 12.52 LIG 0.24  C 
ATOM     11 O    PRO B   3      77.951 -12.881  49.260  1.00 13.02 LIG-0.27  OA
ATOM     12 H    LEU B   4      78.782 -12.942  46.343  1.00 12.22 LIG 0.16  HD
BRANCH 10 13
ATOM     13  CA  PRO B   3      80.207 -13.143  48.467  1.00 15.46 LIG 0.18  C 
ATOM     14  N   PRO B   3      80.580 -14.555  48.354  1.00 15.16 LIG-0.34  N 
ATOM     15  CD  PRO B   3      81.432 -14.810  47.184  1.00 18.06 LIG 0.13  C 
ATOM     16  C   PRO B   2      80.067 -15.437  49.205  1.00 13.99 LIG 0.24  C 
ATOM     17  CG  PRO B   3      81.246 -13.581  46.363  1.00 19.92 LIG 0.02  C 
ATOM     18  CB  PRO B   3      80.986 -12.479  47.328  1.00 18.17 LIG 0.04  C 
ATOM     19 O    PRO B   2      79.349 -15.075  50.146  1.00 12.71 LIG-0.27  OA
BRANCH 16 20
ATOM     20  CA  PRO B   2      80.339 -16.909  48.959  1.00 15.85 LIG 0.18  C 
ATOM     21  CB  PRO B   2      79.732 -17.345  47.615  1.00 19.12 LIG 0.04  C 
ATOM     22  CG  PRO B   2      78.976 -18.582  47.868  1.00 19.63 LIG 0.02  C 
ATOM     23  CD  PRO B   2      78.581 -18.543  49.295  1.00 18.19 LIG 0.13  C 
ATOM     24  N   PRO B   2      79.637 -17.733  49.926  1.00 15.71 LIG-0.34  N 
ATOM     25  C   ALA B   1      79.956 -17.669  51.213  1.00 13.25 LIG 0.24  C 
ATOM     26 O    ALA B   1      80.804 -16.892  51.646  1.00 13.75 LIG-0.27  OA
BRANCH 25 27
ATOM     27  CA  ALA B   1      79.188 -18.586  52.151  1.00 12.47 LIG 0.17  C 
ATOM     28  CB  ALA B   1      77.927 -17.907  52.617  1.00 12.30 LIG 0.04  C 
BRANCH 27 29
ATOM     29  N   ALA B   1      80.014 -18.949  53.286  1.00 12.31 LIG-0.35  N 
ATOM     30 H    ALA B   1      79.672 -18.763  54.054  1.00 12.31 LIG 0.16  HD
ATOM     31  C   ACE B   0      81.195 -19.518  53.117  1.00 14.04 LIG 0.21  C 
ATOM     32  CH3 ACE B   0      81.960 -19.857  54.359  1.00 14.78 LIG 0.12  C 
ATOM     33 O    ACE B   0      81.631 -19.742  51.988  1.00 15.52 LIG-0.27  OA
ENDBRANCH 27 29
ENDBRANCH 25 27
ENDBRANCH 16 20
ENDBRANCH 10 13
ENDBRANCH 8 9
BRANCH 8 34
ATOM     34  CB  LEU B   4      76.288 -11.512  46.896  1.00 12.59 LIG 0.04  C 
BRANCH 34 35
ATOM     35  CG  LEU B   4      74.818 -11.446  47.304  1.00 12.74 LIG-0.02  C 
ATOM     36  CD1 LEU B   4      74.285 -10.045  47.071  1.00 14.33 LIG 0.01  C 
ATOM     37  CD2 LEU B   4      73.964 -12.464  46.558  1.00 11.50 LIG 0.01  C 
ENDBRANCH 34 35
ENDBRANCH 8 34
ENDBRANCH 1 8
BRANCH 4 38
ATOM     38  C   PRO B   5      75.774 -15.830  43.539  1.00 12.26 LIG 0.24  C 
ATOM     39  N   PRO B   6      74.753 -15.202  42.966  1.00 14.33 LIG-0.34  N 
ATOM     40  CD  PRO B   6      74.710 -13.825  42.454  1.00 16.43 LIG 0.13  C 
ATOM     41  CA  PRO B   6      73.486 -15.906  42.763  1.00 15.63 LIG 0.18  C 
ATOM     42  CG  PRO B   6      73.247 -13.540  42.376  1.00 18.90 LIG 0.02  C 
ATOM     43  CB  PRO B   6      72.570 -14.836  42.156  1.00 17.20 LIG 0.04  C 
ATOM     44 O    PRO B   5      75.671 -17.004  43.928  1.00 12.24 LIG-0.27  OA
BRANCH 41 45
ATOM     45  C   PRO B   6      73.643 -17.076  41.804  1.00 14.54 LIG 0.24  C 
ATOM     46 O    PRO B   6      73.426 -18.238  42.157  1.00 15.72 LIG-0.27  OA
ATOM     47  N   ARG B   7      74.045 -16.756  40.583  1.00 15.59 LIG-0.35  N 
ATOM     48 H    ARG B   7      74.185 -15.949  40.319  1.00 15.59 LIG 0.16  HD
BRANCH 47 49
ATOM     49  CA  ARG B   7      74.286 -17.774  39.562  1.00 17.66 LIG 0.16  C 
BRANCH 49 50
ATOM     50  C   ARG B   7      73.006 -18.478  39.122  1.00 19.45 LIG 0.22  C 
ATOM     51 O    ARG B   7      72.018 -18.488  39.849  1.00 22.19 LIG-0.29  OA
ENDBRANCH 49 50
BRANCH 49 52
ATOM     52  CB  ARG B   7      75.311 -18.781  40.073  1.00 18.48 LIG 0.04  C 
BRANCH 52 53
ATOM     53  CG  ARG B   7      76.687 -18.169  40.216  1.00 19.62 LIG 0.02  C 
BRANCH 53 54
ATOM     54  CD  ARG B   7      77.282 -18.408  41.583  1.00 19.05 LIG 0.14  C 
BRANCH 54 55
ATOM     55  NE  ARG B   7      77.215 -19.823  41.927  1.00 16.94 LIG-0.23  N 
ATOM     56  CZ  ARG B   7      76.312 -20.371  42.736  1.00 14.04 LIG 0.67  C 
ATOM     57  NH1 ARG B   7      75.382 -19.636  43.324  1.00 13.87 LIG-0.23  N 
ATOM     58  NH2 ARG B   7      76.354 -21.670  42.969  1.00 14.07 LIG-0.23  N 
ATOM     59 2HH1 ARG B   7      74.806 -20.006  43.845  1.00 13.87 LIG 0.17  HD
ATOM     60 1HH1 ARG B   7      75.353 -18.788  43.185  1.00 13.87 LIG 0.17  HD
ATOM     61 1HH2 ARG B   7      76.961 -22.155  42.598  1.00 14.07 LIG 0.17  HD
ATOM     62 2HH2 ARG B   7      75.775 -22.033  43.490  1.00 14.07 LIG 0.17  HD
ATOM     63 HE   ARG B   7      77.805 -20.344  41.579  1.00 16.94 LIG 0.18  HD
ENDBRANCH 54 55
ENDBRANCH 53 54
ENDBRANCH 52 53
ENDBRANCH 49 52
ENDBRANCH 47 49
ENDBRANCH 41 45
ENDBRANCH 4 38
TORSDOF 16
ENDMDL
MODEL 64
USER: ADFR SOLUTION from run 2
USER: SCORE 16.399451 LL:  -5.043 LR: -11.657 RR:   0.000 FEB:  -6.884
USER: RMSD 6.389571
USER: SEED 811991
USER: STATUS no improvement in best in 2 clusters for 5 generations
USER: GENES 18
USER: genes 0 Translation |==|  0.67105 0.52356 0.54929
USER: genes 1 Rotation |==|  0.67020 0.21684 0.79018 0.73800
USER: genes 2 Torsion [N]-C--CA-[N] |==|  0.39684
USER: genes 3 Torsion [C]-CA--N-[C] |==|  0.79913
USER: genes 4 Torsion [N]-C--CA-[N] |==|  0.96121
USER: genes 5 Torsion [N]-C--CA-[N] |==|  0.29761
USER: genes 6 Torsion [N]-C--CA-[N] |==|  0.31114
USER: genes 7 Torsion [C]-CA--N-[C] |==|  0.78868
USER: genes 8 Torsion [C]-CA--CB-[CG] |==|  0.01386
USER: genes 9 Torsion [CA]-CB--CG-[CD1] |==|  0.36064
USER: genes 10 Torsion [N]-CA--C-[N] |==|  0.52538
USER: genes 11 Torsion [N]-CA--C-[N] |==|  0.52287
USER: genes 12 Torsion [C]-N--CA-[C] |==|  0.86774
USER: genes 13 Torsion [N]-CA--C-[O] |==|  0.41842
USER: genes 14 Torsion [N]-CA--CB-[CG] |==|  0.53093
USER: genes 15 Torsion [CA]-CB--CG-[CD] |==|  0.26900
USER: genes 16 Torsion [CB]-CG--CD-[NE] |==|  0.12301
USER: genes 17 Torsion [CG]-CD--NE-[HE] |==|  0.73842
ROOT
ATOM      1  C   LEU B   4      81.136 -18.691  51.635  1.00 11.33 LIG 0.24  C 
ATOM      2 O    LEU B   4      81.282 -17.837  52.521  1.00 12.90 LIG-0.27  OA
ATOM      3  N   PRO B   5      81.493 -18.456  50.386  1.00 11.12 LIG-0.34  N 
ATOM      4  CA  PRO B   5      82.105 -17.201  50.033  1.00 12.55 LIG 0.18  C 
ATOM      5  CB  PRO B   5      82.771 -17.516  48.688  1.00 13.89 LIG 0.04  C 
ATOM      6  CG  PRO B   5      81.899 -18.550  48.089  1.00 12.43 LIG 0.02  C 
ATOM      7  CD  PRO B   5      81.355 -19.351  49.229  1.00 11.21 LIG 0.13  C 
ENDROOT
BRANCH 1 8
ATOM      8  CA  LEU B   4      80.554 -20.060  51.964  1.00 11.65 LIG 0.18  C 
BRANCH 8 9
ATOM      9  N   LEU B   4      81.017 -20.467  53.271  1.00 12.22 LIG-0.35  N 
ATOM     10  C   PRO B   3      82.278 -20.834  53.432  1.00 12.52 LIG 0.24  C 
ATOM     11 O    PRO B   3      83.068 -20.953  52.490  1.00 13.02 LIG-0.27  OA
ATOM     12 H    LEU B   4      80.426 -20.448  53.894  1.00 12.22 LIG 0.16  HD
BRANCH 10 13
ATOM     13  CA  PRO B   3      82.706 -21.115  54.863  1.00 15.46 LIG 0.18  C 
ATOM     14  N   PRO B   3      81.705 -20.599  55.800  1.00 15.16 LIG-0.34  N 
ATOM     15  CD  PRO B   3      81.053 -21.675  56.561  1.00 18.06 LIG 0.13  C 
ATOM     16  C   PRO B   2      81.424 -19.300  55.807  1.00 13.99 LIG 0.24  C 
ATOM     17  CG  PRO B   3      81.404 -22.894  55.780  1.00 19.92 LIG 0.02  C 
ATOM     18  CB  PRO B   3      82.728 -22.618  55.161  1.00 18.17 LIG 0.04  C 
ATOM     19 O    PRO B   2      82.055 -18.506  55.098  1.00 12.71 LIG-0.27  OA
BRANCH 16 20
ATOM     20  CA  PRO B   2      80.269 -18.824  56.666  1.00 15.85 LIG 0.18  C 
ATOM     21  CB  PRO B   2      79.453 -17.756  55.919  1.00 19.12 LIG 0.04  C 
ATOM     22  CG  PRO B   2      79.265 -16.631  56.850  1.00 19.63 LIG 0.02  C 
ATOM     23  CD  PRO B   2      80.398 -16.687  57.802  1.00 18.19 LIG 0.13  C 
ATOM     24  N   PRO B   2      80.754 -18.116  57.837  1.00 15.71 LIG-0.34  N 
ATOM     25  C   ALA B   1      81.457 -18.758  58.761  1.00 13.25 LIG 0.24  C 
ATOM     26 O    ALA B   1      81.770 -19.942  58.650  1.00 13.75 LIG-0.27  OA
BRANCH 25 27
ATOM     27  CA  ALA B   1      81.902 -17.945  59.966  1.00 12.47 LIG 0.17  C 
ATOM     28  CB  ALA B   1      83.391 -18.067  60.149  1.00 12.30 LIG 0.04  C 
BRANCH 27 29
ATOM     29  N   ALA B   1      81.209 -18.395  61.158  1.00 12.31 LIG-0.35  N 
ATOM     30 H    ALA B   1      81.684 -18.878  61.689  1.00 12.31 LIG 0.16  HD
ATOM     31  C   ACE B   0      79.947 -18.069  61.378  1.00 14.04 LIG 0.21  C 
ATOM     32  CH3 ACE B   0      79.333 -18.582  62.645  1.00 14.78 LIG 0.12  C 
ATOM     33 O    ACE B   0      79.321 -17.386  60.568  1.00 15.52 LIG-0.27  OA
ENDBRANCH 27 29
ENDBRANCH 25 27
ENDBRANCH 16 20
ENDBRANCH 10 13
ENDBRANCH 8 9
BRANCH 8 34
ATOM     34  CB  LEU B   4      79.029 -20.002  51.903  1.00 12.59 LIG 0.04  C 
BRANCH 34 35
ATOM     35  CG  LEU B   4      78.456 -18.670  51.423  1.00 12.74 LIG-0.02  C 
ATOM     36  CD1 LEU B   4      77.445 -18.915  50.320  1.00 14.33 LIG 0.01  C 
ATOM     37  CD2 LEU B   4      77.817 -17.874  52.555  1.00 11.50 LIG 0.01  C 
ENDBRANCH 34 35
ENDBRANCH 8 34
ENDBRANCH 1 8
BRANCH 4 38
ATOM     38  C   PRO B   5      81.051 -16.118  49.893  1.00 12.26 LIG 0.24  C 
ATOM     39  N   PRO B   6      81.432 -14.949  49.391  1.00 14.33 LIG-0.34  N 
ATOM     40  CD  PRO B   6      82.780 -14.541  48.970  1.00 16.43 LIG 0.13  C 
ATOM     41  CA  PRO B   6      80.443 -13.890  49.179  1.00 15.63 LIG 0.18  C 
ATOM     42  CG  PRO B   6      82.691 -13.051  48.952  1.00 18.90 LIG 0.02  C 
ATOM     43  CB  PRO B   6      81.280 -12.710  48.669  1.00 17.20 LIG 0.04  C 
ATOM     44 O    PRO B   5      79.870 -16.329  50.209  1.00 12.24 LIG-0.27  OA
BRANCH 41 45
ATOM     45  C   PRO B   6      79.406 -14.293  48.143  1.00 14.54 LIG 0.24  C 
ATOM     46 O    PRO B   6      79.361 -15.435  47.680  1.00 15.72 LIG-0.27  OA
ATOM     47  N   ARG B   7      78.577 -13.329  47.769  1.00 15.59 LIG-0.35  N 
ATOM     48 H    ARG B   7      78.588 -12.533  48.095  1.00 15.59 LIG 0.16  HD
BRANCH 47 49
ATOM     49  CA  ARG B   7      77.554 -13.549  46.748  1.00 17.66 LIG 0.16  C 
BRANCH 49 50
ATOM     50  C   ARG B   7      78.105 -14.245  45.507  1.00 19.45 LIG 0.22  C 
ATOM     51 O    ARG B   7      77.384 -14.966  44.825  1.00 22.19 LIG-0.29  OA
ENDBRANCH 49 50
BRANCH 49 52
ATOM     52  CB  ARG B   7      76.900 -12.222  46.381  1.00 18.48 LIG 0.04  C 
BRANCH 52 53
ATOM     53  CG  ARG B   7      75.660 -12.414  45.536  1.00 19.62 LIG 0.02  C 
BRANCH 53 54
ATOM     54  CD  ARG B   7      74.395 -12.385  46.359  1.00 19.05 LIG 0.14  C 
BRANCH 54 55
ATOM     55  NE  ARG B   7      74.437 -11.290  47.320  1.00 16.94 LIG-0.23  N 
ATOM     56  CZ  ARG B   7      74.071 -10.036  47.067  1.00 14.04 LIG 0.67  C 
ATOM     57  NH1 ARG B   7      73.639  -9.676  45.868  1.00 13.87 LIG-0.23  N 
ATOM     58  NH2 ARG B   7      74.153  -9.131  48.025  1.00 14.07 LIG-0.23  N 
ATOM     59 2HH1 ARG B   7      73.406  -8.861  45.722  1.00 13.87 LIG 0.17  HD
ATOM     60 1HH1 ARG B   7      73.591 -10.258  45.237  1.00 13.87 LIG 0.17  HD
ATOM     61 1HH2 ARG B   7      74.442  -9.354  48.804  1.00 14.07 LIG 0.17  HD
ATOM     62 2HH2 ARG B   7      73.919  -8.319  47.870  1.00 14.07 LIG 0.17  HD
ATOM     63 HE   ARG B   7      74.721 -11.469  48.112  1.00 16.94 LIG 0.18  HD
ENDBRANCH 54 55
ENDBRANCH 53 54
ENDBRANCH 52 53
ENDBRANCH 49 52
ENDBRANCH 47 49
ENDBRANCH 41 45
ENDBRANCH 4 38
TORSDOF 16
ENDMDL
